# Generated by pormake.
# Topology ulg, (4)-cn, num edge types: 1
# Building blocks:
#     Node 0, Type 0, BuildingBlock: QUQFOY_clean_sbu_1, # of connection points: 4
#     Node 1, Type 0, BuildingBlock: QUQFOY_clean_sbu_1, # of connection points: 4
#     Node 2, Type 0, BuildingBlock: QUQFOY_clean_sbu_1, # of connection points: 4
#     Node 3, Type 0, BuildingBlock: QUQFOY_clean_sbu_1, # of connection points: 4
#     Node 4, Type 0, BuildingBlock: QUQFOY_clean_sbu_1, # of connection points: 4
#     Node 5, Type 0, BuildingBlock: QUQFOY_clean_sbu_1, # of connection points: 4
#     Node 6, Type 0, BuildingBlock: QUQFOY_clean_sbu_1, # of connection points: 4
#     Node 7, Type 0, BuildingBlock: QUQFOY_clean_sbu_1, # of connection points: 4
#     Node 8, Type 0, BuildingBlock: QUQFOY_clean_sbu_1, # of connection points: 4
#     Node 9, Type 0, BuildingBlock: QUQFOY_clean_sbu_1, # of connection points: 4
#     Node 10, Type 0, BuildingBlock: QUQFOY_clean_sbu_1, # of connection points: 4
#     Node 11, Type 0, BuildingBlock: QUQFOY_clean_sbu_1, # of connection points: 4
#     Node 12, Type 0, BuildingBlock: QUQFOY_clean_sbu_1, # of connection points: 4
#     Node 13, Type 0, BuildingBlock: QUQFOY_clean_sbu_1, # of connection points: 4
#     Node 14, Type 0, BuildingBlock: QUQFOY_clean_sbu_1, # of connection points: 4
#     Node 15, Type 0, BuildingBlock: QUQFOY_clean_sbu_1, # of connection points: 4
#     Node 16, Type 0, BuildingBlock: QUQFOY_clean_sbu_1, # of connection points: 4
#     Node 17, Type 0, BuildingBlock: QUQFOY_clean_sbu_1, # of connection points: 4
#     Node 18, Type 0, BuildingBlock: QUQFOY_clean_sbu_1, # of connection points: 4
#     Node 19, Type 0, BuildingBlock: QUQFOY_clean_sbu_1, # of connection points: 4
#     Node 20, Type 0, BuildingBlock: QUQFOY_clean_sbu_1, # of connection points: 4
#     Node 21, Type 0, BuildingBlock: QUQFOY_clean_sbu_1, # of connection points: 4
#     Node 22, Type 0, BuildingBlock: QUQFOY_clean_sbu_1, # of connection points: 4
#     Node 23, Type 0, BuildingBlock: QUQFOY_clean_sbu_1, # of connection points: 4
#     Node 24, Type 0, BuildingBlock: QUQFOY_clean_sbu_1, # of connection points: 4
#     Node 25, Type 0, BuildingBlock: QUQFOY_clean_sbu_1, # of connection points: 4
#     Node 26, Type 0, BuildingBlock: QUQFOY_clean_sbu_1, # of connection points: 4
#     Node 27, Type 0, BuildingBlock: QUQFOY_clean_sbu_1, # of connection points: 4
#     Node 28, Type 0, BuildingBlock: QUQFOY_clean_sbu_1, # of connection points: 4
#     Node 29, Type 0, BuildingBlock: QUQFOY_clean_sbu_1, # of connection points: 4
#     Node 30, Type 0, BuildingBlock: QUQFOY_clean_sbu_1, # of connection points: 4
#     Node 31, Type 0, BuildingBlock: QUQFOY_clean_sbu_1, # of connection points: 4
#     Node 32, Type 0, BuildingBlock: QUQFOY_clean_sbu_1, # of connection points: 4
#     Node 33, Type 0, BuildingBlock: QUQFOY_clean_sbu_1, # of connection points: 4
#     Node 34, Type 0, BuildingBlock: QUQFOY_clean_sbu_1, # of connection points: 4
#     Node 35, Type 0, BuildingBlock: QUQFOY_clean_sbu_1, # of connection points: 4
#     Node 36, Type 0, BuildingBlock: QUQFOY_clean_sbu_1, # of connection points: 4
#     Node 37, Type 0, BuildingBlock: QUQFOY_clean_sbu_1, # of connection points: 4
#     Node 38, Type 0, BuildingBlock: QUQFOY_clean_sbu_1, # of connection points: 4
#     Node 39, Type 0, BuildingBlock: QUQFOY_clean_sbu_1, # of connection points: 4
#     Node 40, Type 0, BuildingBlock: QUQFOY_clean_sbu_1, # of connection points: 4
#     Node 41, Type 0, BuildingBlock: QUQFOY_clean_sbu_1, # of connection points: 4
#     Node 42, Type 0, BuildingBlock: QUQFOY_clean_sbu_1, # of connection points: 4
#     Node 43, Type 0, BuildingBlock: QUQFOY_clean_sbu_1, # of connection points: 4
#     Node 44, Type 0, BuildingBlock: QUQFOY_clean_sbu_1, # of connection points: 4
#     Node 45, Type 0, BuildingBlock: QUQFOY_clean_sbu_1, # of connection points: 4
#     Node 46, Type 0, BuildingBlock: QUQFOY_clean_sbu_1, # of connection points: 4
#     Node 47, Type 0, BuildingBlock: QUQFOY_clean_sbu_1, # of connection points: 4
#     Node 48, Type 0, BuildingBlock: QUQFOY_clean_sbu_1, # of connection points: 4
#     Node 49, Type 0, BuildingBlock: QUQFOY_clean_sbu_1, # of connection points: 4
#     Node 50, Type 0, BuildingBlock: QUQFOY_clean_sbu_1, # of connection points: 4
#     Node 51, Type 0, BuildingBlock: QUQFOY_clean_sbu_1, # of connection points: 4
#     Node 52, Type 0, BuildingBlock: QUQFOY_clean_sbu_1, # of connection points: 4
#     Node 53, Type 0, BuildingBlock: QUQFOY_clean_sbu_1, # of connection points: 4
#     Node 54, Type 0, BuildingBlock: QUQFOY_clean_sbu_1, # of connection points: 4
#     Node 55, Type 0, BuildingBlock: QUQFOY_clean_sbu_1, # of connection points: 4
#     Node 56, Type 0, BuildingBlock: QUQFOY_clean_sbu_1, # of connection points: 4
#     Node 57, Type 0, BuildingBlock: QUQFOY_clean_sbu_1, # of connection points: 4
#     Node 58, Type 0, BuildingBlock: QUQFOY_clean_sbu_1, # of connection points: 4
#     Node 59, Type 0, BuildingBlock: QUQFOY_clean_sbu_1, # of connection points: 4
#     Node 60, Type 0, BuildingBlock: QUQFOY_clean_sbu_1, # of connection points: 4
#     Node 61, Type 0, BuildingBlock: QUQFOY_clean_sbu_1, # of connection points: 4
#     Node 62, Type 0, BuildingBlock: QUQFOY_clean_sbu_1, # of connection points: 4
#     Node 63, Type 0, BuildingBlock: QUQFOY_clean_sbu_1, # of connection points: 4
#     Node 64, Type 0, BuildingBlock: QUQFOY_clean_sbu_1, # of connection points: 4
#     Node 65, Type 0, BuildingBlock: QUQFOY_clean_sbu_1, # of connection points: 4
#     Node 66, Type 0, BuildingBlock: QUQFOY_clean_sbu_1, # of connection points: 4
#     Node 67, Type 0, BuildingBlock: QUQFOY_clean_sbu_1, # of connection points: 4
#     Node 68, Type 0, BuildingBlock: QUQFOY_clean_sbu_1, # of connection points: 4
#     Node 69, Type 0, BuildingBlock: QUQFOY_clean_sbu_1, # of connection points: 4
#     Node 70, Type 0, BuildingBlock: QUQFOY_clean_sbu_1, # of connection points: 4
#     Node 71, Type 0, BuildingBlock: QUQFOY_clean_sbu_1, # of connection points: 4
#     Node 72, Type 0, BuildingBlock: QUQFOY_clean_sbu_1, # of connection points: 4
#     Node 73, Type 0, BuildingBlock: QUQFOY_clean_sbu_1, # of connection points: 4
#     Node 74, Type 0, BuildingBlock: QUQFOY_clean_sbu_1, # of connection points: 4
#     Node 75, Type 0, BuildingBlock: QUQFOY_clean_sbu_1, # of connection points: 4
#     Node 76, Type 0, BuildingBlock: QUQFOY_clean_sbu_1, # of connection points: 4
#     Node 77, Type 0, BuildingBlock: QUQFOY_clean_sbu_1, # of connection points: 4
#     Node 78, Type 0, BuildingBlock: QUQFOY_clean_sbu_1, # of connection points: 4
#     Node 79, Type 0, BuildingBlock: QUQFOY_clean_sbu_1, # of connection points: 4
#     Node 80, Type 0, BuildingBlock: QUQFOY_clean_sbu_1, # of connection points: 4
#     Node 81, Type 0, BuildingBlock: QUQFOY_clean_sbu_1, # of connection points: 4
#     Node 82, Type 0, BuildingBlock: QUQFOY_clean_sbu_1, # of connection points: 4
#     Node 83, Type 0, BuildingBlock: QUQFOY_clean_sbu_1, # of connection points: 4
#     Node 84, Type 0, BuildingBlock: QUQFOY_clean_sbu_1, # of connection points: 4
#     Node 85, Type 0, BuildingBlock: QUQFOY_clean_sbu_1, # of connection points: 4
#     Node 86, Type 0, BuildingBlock: QUQFOY_clean_sbu_1, # of connection points: 4
#     Node 87, Type 0, BuildingBlock: QUQFOY_clean_sbu_1, # of connection points: 4
#     Node 88, Type 0, BuildingBlock: QUQFOY_clean_sbu_1, # of connection points: 4
#     Node 89, Type 0, BuildingBlock: QUQFOY_clean_sbu_1, # of connection points: 4
#     Node 90, Type 0, BuildingBlock: QUQFOY_clean_sbu_1, # of connection points: 4
#     Node 91, Type 0, BuildingBlock: QUQFOY_clean_sbu_1, # of connection points: 4
#     Node 92, Type 0, BuildingBlock: QUQFOY_clean_sbu_1, # of connection points: 4
#     Node 93, Type 0, BuildingBlock: QUQFOY_clean_sbu_1, # of connection points: 4
#     Node 94, Type 0, BuildingBlock: QUQFOY_clean_sbu_1, # of connection points: 4
#     Node 95, Type 0, BuildingBlock: QUQFOY_clean_sbu_1, # of connection points: 4
#     Edge 96, Type (0, 0), BuildingBlock: AJUNOK_clean_linker_0, # of connection points: 2
#     Edge 97, Type (0, 0), BuildingBlock: AJUNOK_clean_linker_0, # of connection points: 2
#     Edge 98, Type (0, 0), BuildingBlock: AJUNOK_clean_linker_0, # of connection points: 2
#     Edge 99, Type (0, 0), BuildingBlock: AJUNOK_clean_linker_0, # of connection points: 2
#     Edge 100, Type (0, 0), BuildingBlock: AJUNOK_clean_linker_0, # of connection points: 2
#     Edge 101, Type (0, 0), BuildingBlock: AJUNOK_clean_linker_0, # of connection points: 2
#     Edge 102, Type (0, 0), BuildingBlock: AJUNOK_clean_linker_0, # of connection points: 2
#     Edge 103, Type (0, 0), BuildingBlock: AJUNOK_clean_linker_0, # of connection points: 2
#     Edge 104, Type (0, 0), BuildingBlock: AJUNOK_clean_linker_0, # of connection points: 2
#     Edge 105, Type (0, 0), BuildingBlock: AJUNOK_clean_linker_0, # of connection points: 2
#     Edge 106, Type (0, 0), BuildingBlock: AJUNOK_clean_linker_0, # of connection points: 2
#     Edge 107, Type (0, 0), BuildingBlock: AJUNOK_clean_linker_0, # of connection points: 2
#     Edge 108, Type (0, 0), BuildingBlock: AJUNOK_clean_linker_0, # of connection points: 2
#     Edge 109, Type (0, 0), BuildingBlock: AJUNOK_clean_linker_0, # of connection points: 2
#     Edge 110, Type (0, 0), BuildingBlock: AJUNOK_clean_linker_0, # of connection points: 2
#     Edge 111, Type (0, 0), BuildingBlock: AJUNOK_clean_linker_0, # of connection points: 2
#     Edge 112, Type (0, 0), BuildingBlock: AJUNOK_clean_linker_0, # of connection points: 2
#     Edge 113, Type (0, 0), BuildingBlock: AJUNOK_clean_linker_0, # of connection points: 2
#     Edge 114, Type (0, 0), BuildingBlock: AJUNOK_clean_linker_0, # of connection points: 2
#     Edge 115, Type (0, 0), BuildingBlock: AJUNOK_clean_linker_0, # of connection points: 2
#     Edge 116, Type (0, 0), BuildingBlock: AJUNOK_clean_linker_0, # of connection points: 2
#     Edge 117, Type (0, 0), BuildingBlock: AJUNOK_clean_linker_0, # of connection points: 2
#     Edge 118, Type (0, 0), BuildingBlock: AJUNOK_clean_linker_0, # of connection points: 2
#     Edge 119, Type (0, 0), BuildingBlock: AJUNOK_clean_linker_0, # of connection points: 2
#     Edge 120, Type (0, 0), BuildingBlock: AJUNOK_clean_linker_0, # of connection points: 2
#     Edge 121, Type (0, 0), BuildingBlock: AJUNOK_clean_linker_0, # of connection points: 2
#     Edge 122, Type (0, 0), BuildingBlock: AJUNOK_clean_linker_0, # of connection points: 2
#     Edge 123, Type (0, 0), BuildingBlock: AJUNOK_clean_linker_0, # of connection points: 2
#     Edge 124, Type (0, 0), BuildingBlock: AJUNOK_clean_linker_0, # of connection points: 2
#     Edge 125, Type (0, 0), BuildingBlock: AJUNOK_clean_linker_0, # of connection points: 2
#     Edge 126, Type (0, 0), BuildingBlock: AJUNOK_clean_linker_0, # of connection points: 2
#     Edge 127, Type (0, 0), BuildingBlock: AJUNOK_clean_linker_0, # of connection points: 2
#     Edge 128, Type (0, 0), BuildingBlock: AJUNOK_clean_linker_0, # of connection points: 2
#     Edge 129, Type (0, 0), BuildingBlock: AJUNOK_clean_linker_0, # of connection points: 2
#     Edge 130, Type (0, 0), BuildingBlock: AJUNOK_clean_linker_0, # of connection points: 2
#     Edge 131, Type (0, 0), BuildingBlock: AJUNOK_clean_linker_0, # of connection points: 2
#     Edge 132, Type (0, 0), BuildingBlock: AJUNOK_clean_linker_0, # of connection points: 2
#     Edge 133, Type (0, 0), BuildingBlock: AJUNOK_clean_linker_0, # of connection points: 2
#     Edge 134, Type (0, 0), BuildingBlock: AJUNOK_clean_linker_0, # of connection points: 2
#     Edge 135, Type (0, 0), BuildingBlock: AJUNOK_clean_linker_0, # of connection points: 2
#     Edge 136, Type (0, 0), BuildingBlock: AJUNOK_clean_linker_0, # of connection points: 2
#     Edge 137, Type (0, 0), BuildingBlock: AJUNOK_clean_linker_0, # of connection points: 2
#     Edge 138, Type (0, 0), BuildingBlock: AJUNOK_clean_linker_0, # of connection points: 2
#     Edge 139, Type (0, 0), BuildingBlock: AJUNOK_clean_linker_0, # of connection points: 2
#     Edge 140, Type (0, 0), BuildingBlock: AJUNOK_clean_linker_0, # of connection points: 2
#     Edge 141, Type (0, 0), BuildingBlock: AJUNOK_clean_linker_0, # of connection points: 2
#     Edge 142, Type (0, 0), BuildingBlock: AJUNOK_clean_linker_0, # of connection points: 2
#     Edge 143, Type (0, 0), BuildingBlock: AJUNOK_clean_linker_0, # of connection points: 2
#     Edge 144, Type (0, 0), BuildingBlock: AJUNOK_clean_linker_0, # of connection points: 2
#     Edge 145, Type (0, 0), BuildingBlock: AJUNOK_clean_linker_0, # of connection points: 2
#     Edge 146, Type (0, 0), BuildingBlock: AJUNOK_clean_linker_0, # of connection points: 2
#     Edge 147, Type (0, 0), BuildingBlock: AJUNOK_clean_linker_0, # of connection points: 2
#     Edge 148, Type (0, 0), BuildingBlock: AJUNOK_clean_linker_0, # of connection points: 2
#     Edge 149, Type (0, 0), BuildingBlock: AJUNOK_clean_linker_0, # of connection points: 2
#     Edge 150, Type (0, 0), BuildingBlock: AJUNOK_clean_linker_0, # of connection points: 2
#     Edge 151, Type (0, 0), BuildingBlock: AJUNOK_clean_linker_0, # of connection points: 2
#     Edge 152, Type (0, 0), BuildingBlock: AJUNOK_clean_linker_0, # of connection points: 2
#     Edge 153, Type (0, 0), BuildingBlock: AJUNOK_clean_linker_0, # of connection points: 2
#     Edge 154, Type (0, 0), BuildingBlock: AJUNOK_clean_linker_0, # of connection points: 2
#     Edge 155, Type (0, 0), BuildingBlock: AJUNOK_clean_linker_0, # of connection points: 2
#     Edge 156, Type (0, 0), BuildingBlock: AJUNOK_clean_linker_0, # of connection points: 2
#     Edge 157, Type (0, 0), BuildingBlock: AJUNOK_clean_linker_0, # of connection points: 2
#     Edge 158, Type (0, 0), BuildingBlock: AJUNOK_clean_linker_0, # of connection points: 2
#     Edge 159, Type (0, 0), BuildingBlock: AJUNOK_clean_linker_0, # of connection points: 2
#     Edge 160, Type (0, 0), BuildingBlock: AJUNOK_clean_linker_0, # of connection points: 2
#     Edge 161, Type (0, 0), BuildingBlock: AJUNOK_clean_linker_0, # of connection points: 2
#     Edge 162, Type (0, 0), BuildingBlock: AJUNOK_clean_linker_0, # of connection points: 2
#     Edge 163, Type (0, 0), BuildingBlock: AJUNOK_clean_linker_0, # of connection points: 2
#     Edge 164, Type (0, 0), BuildingBlock: AJUNOK_clean_linker_0, # of connection points: 2
#     Edge 165, Type (0, 0), BuildingBlock: AJUNOK_clean_linker_0, # of connection points: 2
#     Edge 166, Type (0, 0), BuildingBlock: AJUNOK_clean_linker_0, # of connection points: 2
#     Edge 167, Type (0, 0), BuildingBlock: AJUNOK_clean_linker_0, # of connection points: 2
#     Edge 168, Type (0, 0), BuildingBlock: AJUNOK_clean_linker_0, # of connection points: 2
#     Edge 169, Type (0, 0), BuildingBlock: AJUNOK_clean_linker_0, # of connection points: 2
#     Edge 170, Type (0, 0), BuildingBlock: AJUNOK_clean_linker_0, # of connection points: 2
#     Edge 171, Type (0, 0), BuildingBlock: AJUNOK_clean_linker_0, # of connection points: 2
#     Edge 172, Type (0, 0), BuildingBlock: AJUNOK_clean_linker_0, # of connection points: 2
#     Edge 173, Type (0, 0), BuildingBlock: AJUNOK_clean_linker_0, # of connection points: 2
#     Edge 174, Type (0, 0), BuildingBlock: AJUNOK_clean_linker_0, # of connection points: 2
#     Edge 175, Type (0, 0), BuildingBlock: AJUNOK_clean_linker_0, # of connection points: 2
#     Edge 176, Type (0, 0), BuildingBlock: AJUNOK_clean_linker_0, # of connection points: 2
#     Edge 177, Type (0, 0), BuildingBlock: AJUNOK_clean_linker_0, # of connection points: 2
#     Edge 178, Type (0, 0), BuildingBlock: AJUNOK_clean_linker_0, # of connection points: 2
#     Edge 179, Type (0, 0), BuildingBlock: AJUNOK_clean_linker_0, # of connection points: 2
#     Edge 180, Type (0, 0), BuildingBlock: AJUNOK_clean_linker_0, # of connection points: 2
#     Edge 181, Type (0, 0), BuildingBlock: AJUNOK_clean_linker_0, # of connection points: 2
#     Edge 182, Type (0, 0), BuildingBlock: AJUNOK_clean_linker_0, # of connection points: 2
#     Edge 183, Type (0, 0), BuildingBlock: AJUNOK_clean_linker_0, # of connection points: 2
#     Edge 184, Type (0, 0), BuildingBlock: AJUNOK_clean_linker_0, # of connection points: 2
#     Edge 185, Type (0, 0), BuildingBlock: AJUNOK_clean_linker_0, # of connection points: 2
#     Edge 186, Type (0, 0), BuildingBlock: AJUNOK_clean_linker_0, # of connection points: 2
#     Edge 187, Type (0, 0), BuildingBlock: AJUNOK_clean_linker_0, # of connection points: 2
#     Edge 188, Type (0, 0), BuildingBlock: AJUNOK_clean_linker_0, # of connection points: 2
#     Edge 189, Type (0, 0), BuildingBlock: AJUNOK_clean_linker_0, # of connection points: 2
#     Edge 190, Type (0, 0), BuildingBlock: AJUNOK_clean_linker_0, # of connection points: 2
#     Edge 191, Type (0, 0), BuildingBlock: AJUNOK_clean_linker_0, # of connection points: 2
#     Edge 192, Type (0, 0), BuildingBlock: AJUNOK_clean_linker_0, # of connection points: 2
#     Edge 193, Type (0, 0), BuildingBlock: AJUNOK_clean_linker_0, # of connection points: 2
#     Edge 194, Type (0, 0), BuildingBlock: AJUNOK_clean_linker_0, # of connection points: 2
#     Edge 195, Type (0, 0), BuildingBlock: AJUNOK_clean_linker_0, # of connection points: 2
#     Edge 196, Type (0, 0), BuildingBlock: AJUNOK_clean_linker_0, # of connection points: 2
#     Edge 197, Type (0, 0), BuildingBlock: AJUNOK_clean_linker_0, # of connection points: 2
#     Edge 198, Type (0, 0), BuildingBlock: AJUNOK_clean_linker_0, # of connection points: 2
#     Edge 199, Type (0, 0), BuildingBlock: AJUNOK_clean_linker_0, # of connection points: 2
#     Edge 200, Type (0, 0), BuildingBlock: AJUNOK_clean_linker_0, # of connection points: 2
#     Edge 201, Type (0, 0), BuildingBlock: AJUNOK_clean_linker_0, # of connection points: 2
#     Edge 202, Type (0, 0), BuildingBlock: AJUNOK_clean_linker_0, # of connection points: 2
#     Edge 203, Type (0, 0), BuildingBlock: AJUNOK_clean_linker_0, # of connection points: 2
#     Edge 204, Type (0, 0), BuildingBlock: AJUNOK_clean_linker_0, # of connection points: 2
#     Edge 205, Type (0, 0), BuildingBlock: AJUNOK_clean_linker_0, # of connection points: 2
#     Edge 206, Type (0, 0), BuildingBlock: AJUNOK_clean_linker_0, # of connection points: 2
#     Edge 207, Type (0, 0), BuildingBlock: AJUNOK_clean_linker_0, # of connection points: 2
#     Edge 208, Type (0, 0), BuildingBlock: AJUNOK_clean_linker_0, # of connection points: 2
#     Edge 209, Type (0, 0), BuildingBlock: AJUNOK_clean_linker_0, # of connection points: 2
#     Edge 210, Type (0, 0), BuildingBlock: AJUNOK_clean_linker_0, # of connection points: 2
#     Edge 211, Type (0, 0), BuildingBlock: AJUNOK_clean_linker_0, # of connection points: 2
#     Edge 212, Type (0, 0), BuildingBlock: AJUNOK_clean_linker_0, # of connection points: 2
#     Edge 213, Type (0, 0), BuildingBlock: AJUNOK_clean_linker_0, # of connection points: 2
#     Edge 214, Type (0, 0), BuildingBlock: AJUNOK_clean_linker_0, # of connection points: 2
#     Edge 215, Type (0, 0), BuildingBlock: AJUNOK_clean_linker_0, # of connection points: 2
#     Edge 216, Type (0, 0), BuildingBlock: AJUNOK_clean_linker_0, # of connection points: 2
#     Edge 217, Type (0, 0), BuildingBlock: AJUNOK_clean_linker_0, # of connection points: 2
#     Edge 218, Type (0, 0), BuildingBlock: AJUNOK_clean_linker_0, # of connection points: 2
#     Edge 219, Type (0, 0), BuildingBlock: AJUNOK_clean_linker_0, # of connection points: 2
#     Edge 220, Type (0, 0), BuildingBlock: AJUNOK_clean_linker_0, # of connection points: 2
#     Edge 221, Type (0, 0), BuildingBlock: AJUNOK_clean_linker_0, # of connection points: 2
#     Edge 222, Type (0, 0), BuildingBlock: AJUNOK_clean_linker_0, # of connection points: 2
#     Edge 223, Type (0, 0), BuildingBlock: AJUNOK_clean_linker_0, # of connection points: 2
#     Edge 224, Type (0, 0), BuildingBlock: AJUNOK_clean_linker_0, # of connection points: 2
#     Edge 225, Type (0, 0), BuildingBlock: AJUNOK_clean_linker_0, # of connection points: 2
#     Edge 226, Type (0, 0), BuildingBlock: AJUNOK_clean_linker_0, # of connection points: 2
#     Edge 227, Type (0, 0), BuildingBlock: AJUNOK_clean_linker_0, # of connection points: 2
#     Edge 228, Type (0, 0), BuildingBlock: AJUNOK_clean_linker_0, # of connection points: 2
#     Edge 229, Type (0, 0), BuildingBlock: AJUNOK_clean_linker_0, # of connection points: 2
#     Edge 230, Type (0, 0), BuildingBlock: AJUNOK_clean_linker_0, # of connection points: 2
#     Edge 231, Type (0, 0), BuildingBlock: AJUNOK_clean_linker_0, # of connection points: 2
#     Edge 232, Type (0, 0), BuildingBlock: AJUNOK_clean_linker_0, # of connection points: 2
#     Edge 233, Type (0, 0), BuildingBlock: AJUNOK_clean_linker_0, # of connection points: 2
#     Edge 234, Type (0, 0), BuildingBlock: AJUNOK_clean_linker_0, # of connection points: 2
#     Edge 235, Type (0, 0), BuildingBlock: AJUNOK_clean_linker_0, # of connection points: 2
#     Edge 236, Type (0, 0), BuildingBlock: AJUNOK_clean_linker_0, # of connection points: 2
#     Edge 237, Type (0, 0), BuildingBlock: AJUNOK_clean_linker_0, # of connection points: 2
#     Edge 238, Type (0, 0), BuildingBlock: AJUNOK_clean_linker_0, # of connection points: 2
#     Edge 239, Type (0, 0), BuildingBlock: AJUNOK_clean_linker_0, # of connection points: 2
#     Edge 240, Type (0, 0), BuildingBlock: AJUNOK_clean_linker_0, # of connection points: 2
#     Edge 241, Type (0, 0), BuildingBlock: AJUNOK_clean_linker_0, # of connection points: 2
#     Edge 242, Type (0, 0), BuildingBlock: AJUNOK_clean_linker_0, # of connection points: 2
#     Edge 243, Type (0, 0), BuildingBlock: AJUNOK_clean_linker_0, # of connection points: 2
#     Edge 244, Type (0, 0), BuildingBlock: AJUNOK_clean_linker_0, # of connection points: 2
#     Edge 245, Type (0, 0), BuildingBlock: AJUNOK_clean_linker_0, # of connection points: 2
#     Edge 246, Type (0, 0), BuildingBlock: AJUNOK_clean_linker_0, # of connection points: 2
#     Edge 247, Type (0, 0), BuildingBlock: AJUNOK_clean_linker_0, # of connection points: 2
#     Edge 248, Type (0, 0), BuildingBlock: AJUNOK_clean_linker_0, # of connection points: 2
#     Edge 249, Type (0, 0), BuildingBlock: AJUNOK_clean_linker_0, # of connection points: 2
#     Edge 250, Type (0, 0), BuildingBlock: AJUNOK_clean_linker_0, # of connection points: 2
#     Edge 251, Type (0, 0), BuildingBlock: AJUNOK_clean_linker_0, # of connection points: 2
#     Edge 252, Type (0, 0), BuildingBlock: AJUNOK_clean_linker_0, # of connection points: 2
#     Edge 253, Type (0, 0), BuildingBlock: AJUNOK_clean_linker_0, # of connection points: 2
#     Edge 254, Type (0, 0), BuildingBlock: AJUNOK_clean_linker_0, # of connection points: 2
#     Edge 255, Type (0, 0), BuildingBlock: AJUNOK_clean_linker_0, # of connection points: 2
#     Edge 256, Type (0, 0), BuildingBlock: AJUNOK_clean_linker_0, # of connection points: 2
#     Edge 257, Type (0, 0), BuildingBlock: AJUNOK_clean_linker_0, # of connection points: 2
#     Edge 258, Type (0, 0), BuildingBlock: AJUNOK_clean_linker_0, # of connection points: 2
#     Edge 259, Type (0, 0), BuildingBlock: AJUNOK_clean_linker_0, # of connection points: 2
#     Edge 260, Type (0, 0), BuildingBlock: AJUNOK_clean_linker_0, # of connection points: 2
#     Edge 261, Type (0, 0), BuildingBlock: AJUNOK_clean_linker_0, # of connection points: 2
#     Edge 262, Type (0, 0), BuildingBlock: AJUNOK_clean_linker_0, # of connection points: 2
#     Edge 263, Type (0, 0), BuildingBlock: AJUNOK_clean_linker_0, # of connection points: 2
#     Edge 264, Type (0, 0), BuildingBlock: AJUNOK_clean_linker_0, # of connection points: 2
#     Edge 265, Type (0, 0), BuildingBlock: AJUNOK_clean_linker_0, # of connection points: 2
#     Edge 266, Type (0, 0), BuildingBlock: AJUNOK_clean_linker_0, # of connection points: 2
#     Edge 267, Type (0, 0), BuildingBlock: AJUNOK_clean_linker_0, # of connection points: 2
#     Edge 268, Type (0, 0), BuildingBlock: AJUNOK_clean_linker_0, # of connection points: 2
#     Edge 269, Type (0, 0), BuildingBlock: AJUNOK_clean_linker_0, # of connection points: 2
#     Edge 270, Type (0, 0), BuildingBlock: AJUNOK_clean_linker_0, # of connection points: 2
#     Edge 271, Type (0, 0), BuildingBlock: AJUNOK_clean_linker_0, # of connection points: 2
#     Edge 272, Type (0, 0), BuildingBlock: AJUNOK_clean_linker_0, # of connection points: 2
#     Edge 273, Type (0, 0), BuildingBlock: AJUNOK_clean_linker_0, # of connection points: 2
#     Edge 274, Type (0, 0), BuildingBlock: AJUNOK_clean_linker_0, # of connection points: 2
#     Edge 275, Type (0, 0), BuildingBlock: AJUNOK_clean_linker_0, # of connection points: 2
#     Edge 276, Type (0, 0), BuildingBlock: AJUNOK_clean_linker_0, # of connection points: 2
#     Edge 277, Type (0, 0), BuildingBlock: AJUNOK_clean_linker_0, # of connection points: 2
#     Edge 278, Type (0, 0), BuildingBlock: AJUNOK_clean_linker_0, # of connection points: 2
#     Edge 279, Type (0, 0), BuildingBlock: AJUNOK_clean_linker_0, # of connection points: 2
#     Edge 280, Type (0, 0), BuildingBlock: AJUNOK_clean_linker_0, # of connection points: 2
#     Edge 281, Type (0, 0), BuildingBlock: AJUNOK_clean_linker_0, # of connection points: 2
#     Edge 282, Type (0, 0), BuildingBlock: AJUNOK_clean_linker_0, # of connection points: 2
#     Edge 283, Type (0, 0), BuildingBlock: AJUNOK_clean_linker_0, # of connection points: 2
#     Edge 284, Type (0, 0), BuildingBlock: AJUNOK_clean_linker_0, # of connection points: 2
#     Edge 285, Type (0, 0), BuildingBlock: AJUNOK_clean_linker_0, # of connection points: 2
#     Edge 286, Type (0, 0), BuildingBlock: AJUNOK_clean_linker_0, # of connection points: 2
#     Edge 287, Type (0, 0), BuildingBlock: AJUNOK_clean_linker_0, # of connection points: 2
# Relax obj value: 0.403
# Max RMSD: 0.140
# Mean RMSD: 0.140
data_MOF--net-ulg--node1-QUQFOY_clean_sbu_1--edge1-AJUNOK_clean_linker_0
_symmetry_space_group_name_H-M    P1
_symmetry_Int_Tables_number       1
_symmetry_cell_setting            triclinic
loop_
_symmetry_equiv_pos_as_xyz
'x, y, z'
_cell_length_a     77.115948
_cell_length_b     77.110879
_cell_length_c     77.125886
_cell_angle_alpha  89.99172
_cell_angle_beta   90.01151
_cell_angle_gamma 90.022353
loop_
_atom_site_label
_atom_site_type_symbol
_atom_site_fract_x
_atom_site_fract_y
_atom_site_fract_z
_atom_type_partial_charge
O0 O 0.04683 0.56382 0.14489 0.0
Cd1 Cd 0.05645 0.54005 0.15233 0.0
Cd2 Cd 0.0726 0.56094 0.17246 0.0
O3 O 0.05328 0.57888 0.16815 0.0
O4 O 0.04154 0.52458 0.13821 0.0
O5 O 0.04091 0.52461 0.1668 0.0
C6 C 0.03461 0.519 0.15233 0.0
C7 C 0.08635 0.55177 0.19719 0.0
C8 C 0.04565 0.57775 0.15359 0.0
C9 C 0.09314 0.54584 0.1443 0.0
O10 O 0.09084 0.55954 0.15311 0.0
O11 O 0.08141 0.53424 0.14418 0.0
O12 O 0.08642 0.56792 0.19275 0.0
O13 O 0.07571 0.54144 0.18932 0.0
O14 O 0.70665 0.28806 0.35477 0.0
Cd15 Cd 0.72801 0.29656 0.36821 0.0
Cd16 Cd 0.70392 0.30995 0.38845 0.0
O17 O 0.69009 0.28943 0.37782 0.0
O18 O 0.74625 0.2796 0.36247 0.0
O19 O 0.73477 0.28206 0.38872 0.0
C20 C 0.74476 0.27376 0.37811 0.0
C21 C 0.69411 0.32289 0.41402 0.0
C22 C 0.69259 0.28422 0.36238 0.0
C23 C 0.72487 0.33346 0.36475 0.0
O24 O 0.71072 0.33028 0.3725 0.0
O25 O 0.73611 0.32155 0.36307 0.0
O26 O 0.68454 0.3217 0.40045 0.0
O27 O 0.70895 0.31518 0.41382 0.0
O28 O 0.95353 0.93498 0.62953 0.0
Cd29 Cd 0.94806 0.96011 0.63612 0.0
Cd30 Cd 0.92569 0.94208 0.65646 0.0
O31 O 0.9414 0.92099 0.6512 0.0
O32 O 0.96708 0.9715 0.62312 0.0
O33 O 0.96522 0.9726 0.65163 0.0
C34 C 0.9739 0.97585 0.63769 0.0
C35 C 0.91008 0.94474 0.68223 0.0
C36 C 0.95086 0.92098 0.63772 0.0
C37 C 0.91153 0.96179 0.62571 0.0
O38 O 0.90988 0.94925 0.63626 0.0
O39 O 0.92576 0.9701 0.62501 0.0
O40 O 0.90838 0.93155 0.67221 0.0
O41 O 0.92179 0.95607 0.67846 0.0
O42 O 0.30761 0.19494 0.88069 0.0
Cd43 Cd 0.28715 0.18164 0.89132 0.0
Cd44 Cd 0.31203 0.16919 0.90804 0.0
O45 O 0.32535 0.19185 0.90272 0.0
O46 O 0.26705 0.19511 0.88282 0.0
O47 O 0.2747 0.19426 0.91046 0.0
C48 C 0.26514 0.20089 0.8984 0.0
C49 C 0.30748 0.15354 0.93298 0.0
C50 C 0.32165 0.19895 0.8883 0.0
C51 C 0.2977 0.14719 0.88072 0.0
O52 O 0.31173 0.15192 0.8879 0.0
O53 O 0.28412 0.15635 0.88269 0.0
O54 O 0.32296 0.15611 0.92712 0.0
O55 O 0.29483 0.16222 0.92617 0.0
O56 O 0.04535 0.43166 0.86244 0.0
Cd57 Cd 0.04648 0.45808 0.86059 0.0
Cd58 Cd 0.08332 0.44391 0.8475 0.0
O59 O 0.06961 0.42112 0.85144 0.0
O60 O 0.02392 0.46201 0.8723 0.0
O61 O 0.02872 0.47069 0.84558 0.0
C62 C 0.01811 0.46904 0.8584 0.0
C63 C 0.1107 0.43975 0.83437 0.0
C64 C 0.05479 0.41885 0.85833 0.0
C65 C 0.07886 0.46859 0.8795 0.0
O66 O 0.08723 0.45934 0.86878 0.0
O67 O 0.06254 0.47038 0.87813 0.0
O68 O 0.10689 0.43373 0.84936 0.0
O69 O 0.09863 0.44773 0.82602 0.0
O70 O 0.78426 0.30558 0.13093 0.0
Cd71 Cd 0.76546 0.31815 0.1168 0.0
Cd72 Cd 0.79236 0.32577 0.09772 0.0
O73 O 0.80047 0.30222 0.10785 0.0
O74 O 0.74374 0.30563 0.12201 0.0
O75 O 0.75693 0.30444 0.09646 0.0
C76 C 0.74491 0.29884 0.10674 0.0
C77 C 0.80472 0.3372 0.07265 0.0
C78 C 0.79685 0.29811 0.12342 0.0
C79 C 0.77672 0.35335 0.12044 0.0
O80 O 0.79037 0.34664 0.11421 0.0
O81 O 0.76282 0.34451 0.12093 0.0
O82 O 0.81391 0.33308 0.08591 0.0
O83 O 0.78853 0.33296 0.07272 0.0
O84 O 0.9525 0.06355 0.36315 0.0
Cd85 Cd 0.94559 0.03894 0.35561 0.0
Cd86 Cd 0.92743 0.05751 0.33499 0.0
O87 O 0.94494 0.07727 0.33941 0.0
O88 O 0.96309 0.02503 0.3682 0.0
O89 O 0.96197 0.02627 0.33962 0.0
C90 C 0.96985 0.02107 0.35346 0.0
C91 C 0.91344 0.05008 0.30959 0.0
C92 C 0.9524 0.0773 0.3541 0.0
C93 C 0.90889 0.04054 0.36397 0.0
O94 O 0.90965 0.054 0.35453 0.0
O95 O 0.92179 0.03029 0.3645 0.0
O96 O 0.91253 0.06555 0.31584 0.0
O97 O 0.92453 0.03948 0.31634 0.0
O98 O 0.19736 0.2057 0.63934 0.0
Cd99 Cd 0.22004 0.1962 0.62911 0.0
Cd100 Cd 0.1989 0.18251 0.60795 0.0
O101 O 0.18265 0.20261 0.61521 0.0
O102 O 0.23801 0.21249 0.63726 0.0
O103 O 0.23055 0.20986 0.60964 0.0
C104 C 0.23934 0.21788 0.62146 0.0
C105 C 0.1997 0.16958 0.58083 0.0
C106 C 0.18377 0.20862 0.63053 0.0
C107 C 0.21483 0.15968 0.63478 0.0
O108 O 0.20147 0.16281 0.6257 0.0
O109 O 0.22648 0.17123 0.63635 0.0
O110 O 0.18559 0.17045 0.58969 0.0
O111 O 0.21309 0.17795 0.58641 0.0
O112 O 0.13667 0.05249 0.55701 0.0
Cd113 Cd 0.14147 0.05959 0.53186 0.0
Cd114 Cd 0.15964 0.08546 0.55205 0.0
O115 O 0.15535 0.06806 0.57203 0.0
O116 O 0.12898 0.04022 0.52042 0.0
O117 O 0.15714 0.0439 0.51764 0.0
C118 C 0.14355 0.03462 0.51461 0.0
C119 C 0.18134 0.10648 0.55487 0.0
C120 C 0.14386 0.05624 0.57131 0.0
C121 C 0.12726 0.09506 0.53105 0.0
O122 O 0.13795 0.09797 0.54318 0.0
O123 O 0.1275 0.08068 0.52301 0.0
O124 O 0.16873 0.10525 0.56563 0.0
O125 O 0.18267 0.09488 0.54291 0.0
O126 O 0.21618 0.35592 0.8035 0.0
Cd127 Cd 0.20729 0.36624 0.78066 0.0
Cd128 Cd 0.19095 0.38763 0.803 0.0
O129 O 0.21181 0.37989 0.81818 0.0
O130 O 0.22492 0.35899 0.76364 0.0
O131 O 0.22076 0.3864 0.77118 0.0
C132 C 0.22979 0.37499 0.76285 0.0
C133 C 0.17503 0.41195 0.8117 0.0
C134 C 0.21861 0.36491 0.81706 0.0
C135 C 0.17068 0.35988 0.78316 0.0
O136 O 0.17253 0.36943 0.79643 0.0
O137 O 0.18318 0.35798 0.77262 0.0
O138 O 0.17734 0.39883 0.82164 0.0
O139 O 0.18313 0.41218 0.79707 0.0
O140 O 0.8779 0.45491 0.05599 0.0
Cd141 Cd 0.87419 0.45345 0.02983 0.0
Cd142 Cd 0.85849 0.41981 0.04191 0.0
O143 O 0.86446 0.43146 0.06536 0.0
O144 O 0.88231 0.47696 0.02312 0.0
O145 O 0.85555 0.46817 0.01852 0.0
C146 C 0.86689 0.48046 0.01785 0.0
C147 C 0.84047 0.39514 0.04485 0.0
C148 C 0.87311 0.44518 0.06835 0.0
C149 C 0.89129 0.42087 0.01851 0.0
O150 O 0.87934 0.41322 0.02683 0.0
O151 O 0.89154 0.4373 0.01736 0.0
O152 O 0.8559 0.3958 0.05094 0.0
O153 O 0.83465 0.40886 0.0373 0.0
O154 O 0.80282 0.10952 0.31678 0.0
Cd155 Cd 0.8083 0.10517 0.29111 0.0
Cd156 Cd 0.83079 0.08392 0.30811 0.0
O157 O 0.81466 0.08684 0.32928 0.0
O158 O 0.79076 0.12129 0.28149 0.0
O159 O 0.78983 0.09318 0.27662 0.0
C160 C 0.7827 0.10823 0.27503 0.0
C161 C 0.84683 0.05898 0.30238 0.0
C162 C 0.80531 0.10036 0.33021 0.0
C163 C 0.84491 0.1157 0.29073 0.0
O164 O 0.84638 0.10501 0.30316 0.0
O165 O 0.83096 0.11618 0.28197 0.0
O166 O 0.84806 0.06712 0.31688 0.0
O167 O 0.83512 0.06397 0.29152 0.0
O168 O 0.13313 0.95142 0.43782 0.0
Cd169 Cd 0.14011 0.9434 0.4622 0.0
Cd170 Cd 0.1602 0.92384 0.44263 0.0
O171 O 0.1559 0.94212 0.42349 0.0
O172 O 0.12811 0.96108 0.47642 0.0
O173 O 0.15662 0.9588 0.47553 0.0
C174 C 0.14306 0.96712 0.48076 0.0
C175 C 0.18552 0.90784 0.44605 0.0
C176 C 0.14189 0.95079 0.42392 0.0
C177 C 0.1297 0.90718 0.45982 0.0
O178 O 0.13972 0.90735 0.44678 0.0
O179 O 0.12933 0.92012 0.47002 0.0
O180 O 0.17704 0.90788 0.4317 0.0
O181 O 0.18068 0.91837 0.45812 0.0
O182 O 0.30959 0.38349 0.68542 0.0
Cd183 Cd 0.31842 0.39162 0.70917 0.0
Cd184 Cd 0.3334 0.41265 0.68828 0.0
O185 O 0.31392 0.4074 0.67066 0.0
O186 O 0.30451 0.37589 0.72388 0.0
O187 O 0.30097 0.40426 0.72413 0.0
C188 C 0.29578 0.38912 0.72906 0.0
C189 C 0.3461 0.43853 0.69618 0.0
C190 C 0.30736 0.39232 0.67172 0.0
C191 C 0.3552 0.38536 0.7035 0.0
O192 O 0.35236 0.39395 0.68974 0.0
O193 O 0.34369 0.38499 0.71529 0.0
O194 O 0.34617 0.43329 0.68029 0.0
O195 O 0.33637 0.43037 0.70714 0.0
O196 O 0.8539 0.55506 0.94092 0.0
Cd197 Cd 0.84884 0.56743 0.96393 0.0
Cd198 Cd 0.83044 0.58485 0.9402 0.0
O199 O 0.8319 0.56312 0.9247 0.0
O200 O 0.8651 0.5538 0.97849 0.0
O201 O 0.83678 0.55245 0.98195 0.0
C202 C 0.852 0.54681 0.98601 0.0
C203 C 0.80725 0.60323 0.94507 0.0
C204 C 0.8451 0.55356 0.92711 0.0
C205 C 0.86167 0.60182 0.95406 0.0
O206 O 0.85276 0.59932 0.94047 0.0
O207 O 0.85965 0.59183 0.96704 0.0
O208 O 0.81334 0.60079 0.92969 0.0
O209 O 0.81293 0.5935 0.95748 0.0
O210 O 0.70374 0.14468 0.20388 0.0
Cd211 Cd 0.69411 0.13243 0.22545 0.0
Cd212 Cd 0.68242 0.11052 0.20233 0.0
O213 O 0.70355 0.12051 0.18893 0.0
O214 O 0.71019 0.13816 0.24445 0.0
O215 O 0.70762 0.11174 0.23336 0.0
C216 C 0.71563 0.12233 0.24362 0.0
C217 C 0.67054 0.08393 0.19406 0.0
C218 C 0.70839 0.1362 0.19058 0.0
C219 C 0.65749 0.13518 0.22021 0.0
O220 O 0.66153 0.12656 0.20679 0.0
O221 O 0.66878 0.13794 0.23187 0.0
O222 O 0.67204 0.09663 0.18342 0.0
O223 O 0.67727 0.08561 0.20928 0.0
O224 O 0.557 0.13042 0.05077 0.0
Cd225 Cd 0.53643 0.14138 0.06363 0.0
Cd226 Cd 0.56116 0.15906 0.07482 0.0
O227 O 0.57488 0.15249 0.05279 0.0
O228 O 0.51638 0.13069 0.05165 0.0
O229 O 0.5226 0.15862 0.0497 0.0
C230 C 0.51332 0.14559 0.04474 0.0
C231 C 0.55201 0.18414 0.0877 0.0
C232 C 0.57112 0.13772 0.04648 0.0
C233 C 0.54764 0.13323 0.09878 0.0
O234 O 0.56159 0.1403 0.09362 0.0
O235 O 0.53403 0.13459 0.08954 0.0
O236 O 0.56838 0.18058 0.0866 0.0
O237 O 0.54124 0.17504 0.07857 0.0
O238 O 0.05806 0.87113 0.44826 0.0
Cd239 Cd 0.03415 0.86309 0.4398 0.0
Cd240 Cd 0.05447 0.84308 0.42123 0.0
O241 O 0.0727 0.8481 0.44026 0.0
O242 O 0.01907 0.87418 0.4573 0.0
O243 O 0.02143 0.84575 0.45473 0.0
C244 C 0.01544 0.85895 0.46312 0.0
C245 C 0.05386 0.81738 0.40541 0.0
C246 C 0.07199 0.86239 0.44843 0.0
C247 C 0.03686 0.87298 0.40363 0.0
O248 O 0.05008 0.86319 0.40425 0.0
O249 O 0.02633 0.87324 0.4163 0.0
O250 O 0.06741 0.82705 0.40599 0.0
O251 O 0.04087 0.82138 0.41515 0.0
O252 O 0.3945 0.31765 0.69363 0.0
Cd253 Cd 0.39966 0.29268 0.68593 0.0
Cd254 Cd 0.42042 0.31162 0.66676 0.0
O255 O 0.4177 0.33143 0.68448 0.0
O256 O 0.38324 0.28094 0.70185 0.0
O257 O 0.4115 0.27727 0.70368 0.0
C258 C 0.39626 0.27456 0.71005 0.0
C259 C 0.44441 0.30104 0.65255 0.0
C260 C 0.40376 0.33125 0.69324 0.0
C261 C 0.39053 0.29588 0.64906 0.0
O262 O 0.40005 0.30929 0.64978 0.0
O263 O 0.39035 0.28535 0.66177 0.0
O264 O 0.44 0.31714 0.65134 0.0
O265 O 0.4369 0.29165 0.66426 0.0
O266 O 0.93884 0.63001 0.95409 0.0
Cd267 Cd 0.96518 0.629 0.95123 0.0
Cd268 Cd 0.95376 0.64498 0.91695 0.0
O269 O 0.9304 0.64315 0.93011 0.0
O270 O 0.97152 0.61964 0.97438 0.0
O271 O 0.98043 0.6452 0.96529 0.0
C272 C 0.97982 0.63375 0.97748 0.0
C273 C 0.95174 0.66152 0.89125 0.0
C274 C 0.92687 0.63607 0.94458 0.0
C275 C 0.97229 0.60926 0.91874 0.0
O276 O 0.96546 0.62192 0.91078 0.0
O277 O 0.9739 0.60951 0.93512 0.0
O278 O 0.94375 0.64713 0.89336 0.0
O279 O 0.96074 0.66728 0.90409 0.0
O280 O 0.10984 0.68617 0.20054 0.0
Cd281 Cd 0.10177 0.71039 0.19284 0.0
Cd282 Cd 0.07991 0.69013 0.17682 0.0
O283 O 0.08611 0.67148 0.19497 0.0
O284 O 0.11747 0.72481 0.20718 0.0
O285 O 0.0891 0.72499 0.2106 0.0
C286 C 0.1042 0.73012 0.21573 0.0
C287 C 0.05299 0.69586 0.16483 0.0
C288 C 0.10116 0.67222 0.20162 0.0
C289 C 0.10707 0.7068 0.15545 0.0
O290 O 0.09799 0.6932 0.15745 0.0
O291 O 0.10828 0.71761 0.16783 0.0
O292 O 0.06036 0.70733 0.17457 0.0
O293 O 0.05989 0.68067 0.16399 0.0
O294 O 0.45554 0.89269 0.05226 0.0
Cd295 Cd 0.47763 0.88237 0.06291 0.0
Cd296 Cd 0.45513 0.86033 0.0757 0.0
O297 O 0.44189 0.8678 0.05348 0.0
O298 O 0.49643 0.89098 0.04792 0.0
O299 O 0.48853 0.86332 0.04902 0.0
C300 C 0.49778 0.87541 0.04196 0.0
C301 C 0.44787 0.83422 0.08917 0.0
C302 C 0.44289 0.88322 0.0477 0.0
C303 C 0.4709 0.88763 0.09902 0.0
O304 O 0.45783 0.87836 0.09527 0.0
O305 O 0.48305 0.88937 0.08807 0.0
O306 O 0.43667 0.84621 0.08646 0.0
O307 O 0.46324 0.83626 0.0829 0.0
O308 O 0.36048 0.2012 0.78784 0.0
Cd309 Cd 0.37221 0.22285 0.79789 0.0
Cd310 Cd 0.39316 0.19873 0.81147 0.0
O311 O 0.38408 0.18545 0.78984 0.0
O312 O 0.36594 0.24155 0.78159 0.0
O313 O 0.39275 0.23164 0.78457 0.0
C314 C 0.38184 0.24138 0.77634 0.0
C315 C 0.41813 0.18912 0.82573 0.0
C316 C 0.36883 0.18759 0.7839 0.0
C317 C 0.3673 0.21784 0.83444 0.0
O318 O 0.37594 0.20426 0.83107 0.0
O319 O 0.36532 0.22941 0.82289 0.0
O320 O 0.40499 0.17921 0.82328 0.0
O321 O 0.41799 0.20422 0.81853 0.0
O322 O 0.61936 0.31384 0.28728 0.0
Cd323 Cd 0.61541 0.28763 0.28887 0.0
Cd324 Cd 0.60113 0.30125 0.32392 0.0
O325 O 0.6072 0.32409 0.3111 0.0
O326 O 0.62359 0.28085 0.26538 0.0
O327 O 0.59692 0.27586 0.27424 0.0
C328 C 0.60831 0.27513 0.262 0.0
C329 C 0.58666 0.30528 0.35065 0.0
C330 C 0.61532 0.32653 0.29695 0.0
C331 C 0.63266 0.27591 0.32133 0.0
O332 O 0.62146 0.28504 0.32914 0.0
O333 O 0.63258 0.27474 0.3049 0.0
O334 O 0.60196 0.311 0.34774 0.0
O335 O 0.57866 0.29798 0.33792 0.0
O336 O 0.04999 0.05463 0.62648 0.0
Cd337 Cd 0.06144 0.03208 0.63474 0.0
Cd338 Cd 0.07521 0.05386 0.65519 0.0
O339 O 0.05403 0.06952 0.65038 0.0
O340 O 0.04712 0.01444 0.62283 0.0
O341 O 0.04732 0.01762 0.65132 0.0
C342 C 0.0408 0.0103 0.63772 0.0
C343 C 0.08893 0.04816 0.68119 0.0
C344 C 0.04702 0.06804 0.63554 0.0
C345 C 0.09714 0.04091 0.62662 0.0
O346 O 0.09361 0.05402 0.63593 0.0
O347 O 0.08662 0.0282 0.62626 0.0
O348 O 0.08768 0.06374 0.67523 0.0
O349 O 0.08039 0.03598 0.67344 0.0
O350 O 0.67627 0.78745 0.8861 0.0
Cd351 Cd 0.69904 0.79934 0.89317 0.0
Cd352 Cd 0.67582 0.81625 0.90989 0.0
O353 O 0.65934 0.79526 0.90759 0.0
O354 O 0.71505 0.78451 0.87965 0.0
O355 O 0.71534 0.78524 0.90821 0.0
C356 C 0.72081 0.77829 0.894 0.0
C357 C 0.68688 0.83266 0.93198 0.0
C358 C 0.66203 0.78602 0.8942 0.0
C359 C 0.69081 0.83427 0.88056 0.0
O360 O 0.67653 0.83158 0.88828 0.0
O361 O 0.7034 0.82389 0.883 0.0
O362 O 0.67038 0.83246 0.92892 0.0
O363 O 0.69649 0.82097 0.92468 0.0
O364 O 0.96399 0.43134 0.13102 0.0
Cd365 Cd 0.95269 0.45375 0.14007 0.0
Cd366 Cd 0.93575 0.43057 0.15649 0.0
O367 O 0.95642 0.41406 0.15233 0.0
O368 O 0.96837 0.47149 0.13009 0.0
O369 O 0.96574 0.46736 0.15828 0.0
C370 C 0.97342 0.47513 0.14558 0.0
C371 C 0.91955 0.43729 0.18061 0.0
C372 C 0.96509 0.41674 0.13854 0.0
C373 C 0.91732 0.44731 0.12802 0.0
O374 O 0.91959 0.43291 0.13562 0.0
O375 O 0.92836 0.45941 0.13008 0.0
O376 O 0.92031 0.42158 0.17485 0.0
O377 O 0.93023 0.44861 0.17431 0.0
O378 O 0.31404 0.69613 0.38906 0.0
Cd379 Cd 0.28757 0.69443 0.39014 0.0
Cd380 Cd 0.29999 0.6587 0.40381 0.0
O381 O 0.32341 0.67113 0.39943 0.0
O382 O 0.28238 0.71756 0.37993 0.0
O383 O 0.27386 0.71037 0.40614 0.0
C384 C 0.27477 0.72191 0.39407 0.0
C385 C 0.30274 0.63248 0.41942 0.0
C386 C 0.32641 0.68597 0.39289 0.0
C387 C 0.27776 0.66224 0.37046 0.0
O388 O 0.28556 0.65367 0.38212 0.0
O389 O 0.27664 0.67865 0.37146 0.0
O390 O 0.30916 0.63466 0.40428 0.0
O391 O 0.29505 0.64553 0.42646 0.0
O392 O 0.0498 0.94284 0.36604 0.0
Cd393 Cd 0.05934 0.96637 0.35808 0.0
Cd394 Cd 0.07637 0.94539 0.33823 0.0
O395 O 0.05663 0.92785 0.34282 0.0
O396 O 0.04291 0.98224 0.36972 0.0
O397 O 0.0445 0.9798 0.34124 0.0
C398 C 0.03674 0.98609 0.35469 0.0
C399 C 0.09185 0.9492 0.31279 0.0
C400 C 0.04862 0.92903 0.35717 0.0
C401 C 0.09553 0.96156 0.36741 0.0
O402 O 0.09376 0.94802 0.35822 0.0
O403 O 0.08358 0.97291 0.36756 0.0
O404 O 0.09089 0.93431 0.3203 0.0
O405 O 0.08209 0.96156 0.31849 0.0
O406 O 0.81253 0.80055 0.61664 0.0
Cd407 Cd 0.78719 0.80768 0.61267 0.0
Cd408 Cd 0.80437 0.83027 0.59214 0.0
O409 O 0.82471 0.8129 0.59404 0.0
O410 O 0.77526 0.78873 0.62532 0.0
O411 O 0.77232 0.7926 0.59716 0.0
C412 C 0.76902 0.78345 0.61078 0.0
C413 C 0.80034 0.84862 0.56848 0.0
C414 C 0.82576 0.80296 0.60715 0.0
C415 C 0.78845 0.84341 0.62524 0.0
O416 O 0.80035 0.84493 0.61398 0.0
O417 O 0.77928 0.82973 0.62568 0.0
O418 O 0.81463 0.84827 0.57703 0.0
O419 O 0.78865 0.83724 0.57219 0.0
O420 O 0.9439 0.53805 0.88984 0.0
Cd421 Cd 0.93098 0.5183 0.87736 0.0
Cd422 Cd 0.92326 0.54208 0.85655 0.0
O423 O 0.94647 0.5523 0.86541 0.0
O424 O 0.94424 0.49696 0.88178 0.0
O425 O 0.94322 0.51003 0.85612 0.0
C426 C 0.94991 0.49828 0.86605 0.0
C427 C 0.91191 0.54777 0.82934 0.0
C428 C 0.95091 0.55016 0.88115 0.0
C429 C 0.89586 0.5295 0.88074 0.0
O430 O 0.90239 0.54256 0.87316 0.0
O431 O 0.90481 0.51577 0.88234 0.0
O432 O 0.9157 0.56001 0.84001 0.0
O433 O 0.91654 0.53217 0.83323 0.0
O434 O 0.1727 0.69822 0.11188 0.0
Cd435 Cd 0.19706 0.69048 0.1045 0.0
Cd436 Cd 0.17633 0.67323 0.0839 0.0
O437 O 0.15728 0.69124 0.08898 0.0
O438 O 0.20998 0.70541 0.12091 0.0
O439 O 0.21193 0.70863 0.09256 0.0
C440 C 0.21542 0.7143 0.10792 0.0
C441 C 0.18441 0.66013 0.05828 0.0
C442 C 0.15856 0.69888 0.10352 0.0
C443 C 0.1934 0.65342 0.11179 0.0
O444 O 0.17951 0.6551 0.10312 0.0
O445 O 0.20437 0.66574 0.11203 0.0
O446 O 0.16872 0.65909 0.06402 0.0
O447 O 0.19482 0.671 0.06571 0.0
O448 O 0.13278 0.55394 0.0763 0.0
Cd449 Cd 0.13812 0.56111 0.05124 0.0
Cd450 Cd 0.15884 0.58033 0.06973 0.0
O451 O 0.15595 0.56316 0.09004 0.0
O452 O 0.12172 0.54487 0.04002 0.0
O453 O 0.14998 0.54308 0.0362 0.0
C454 C 0.13476 0.53651 0.03392 0.0
C455 C 0.18289 0.59329 0.05781 0.0
C456 C 0.14192 0.55453 0.08995 0.0
C457 C 0.12897 0.59792 0.05376 0.0
O458 O 0.13868 0.5975 0.06705 0.0
O459 O 0.12864 0.58502 0.0435 0.0
O460 O 0.17901 0.59542 0.07395 0.0
O461 O 0.17476 0.58137 0.04922 0.0
O462 O 0.204 0.88692 0.3135 0.0
Cd463 Cd 0.1958 0.89386 0.28918 0.0
Cd464 Cd 0.1753 0.91209 0.30892 0.0
O465 O 0.19338 0.90872 0.3284 0.0
O466 O 0.21408 0.8822 0.27549 0.0
O467 O 0.21101 0.91064 0.27591 0.0
C468 C 0.21986 0.89724 0.27116 0.0
C469 C 0.15901 0.93669 0.30336 0.0
C470 C 0.20295 0.89534 0.32758 0.0
C471 C 0.16015 0.88136 0.29117 0.0
O472 O 0.15977 0.89088 0.30458 0.0
O473 O 0.17303 0.88227 0.28092 0.0
O474 O 0.15854 0.92906 0.3182 0.0
O475 O 0.17038 0.93157 0.29217 0.0
O476 O 0.87211 0.95456 0.55487 0.0
Cd477 Cd 0.86239 0.94644 0.53144 0.0
Cd478 Cd 0.84255 0.9291 0.55297 0.0
O479 O 0.84949 0.94791 0.5708 0.0
O480 O 0.87356 0.9632 0.51556 0.0
O481 O 0.84521 0.96213 0.51944 0.0
C482 C 0.85848 0.96974 0.5126 0.0
C483 C 0.81623 0.91437 0.55277 0.0
C484 C 0.86412 0.95534 0.56922 0.0
C485 C 0.87022 0.9097 0.53399 0.0
O486 O 0.86145 0.91105 0.54785 0.0
O487 O 0.87057 0.92224 0.52331 0.0
O488 O 0.82599 0.91473 0.56628 0.0
O489 O 0.82042 0.92403 0.53977 0.0
O490 O 0.79621 0.62009 0.8149 0.0
Cd491 Cd 0.79857 0.61736 0.7886 0.0
Cd492 Cd 0.83042 0.59972 0.80176 0.0
O493 O 0.81887 0.60593 0.8252 0.0
O494 O 0.77663 0.62889 0.78166 0.0
O495 O 0.7821 0.60163 0.7753 0.0
C496 C 0.77154 0.61459 0.77481 0.0
C497 C 0.8531 0.57941 0.80309 0.0
C498 C 0.80524 0.61491 0.82763 0.0
C499 C 0.83273 0.63283 0.77932 0.0
O500 O 0.83933 0.62053 0.78797 0.0
O501 O 0.81642 0.6338 0.7773 0.0
O502 O 0.85395 0.59427 0.81044 0.0
O503 O 0.83879 0.57524 0.79555 0.0
O504 O 0.10522 0.45888 0.95699 0.0
Cd505 Cd 0.11534 0.44927 0.97963 0.0
Cd506 Cd 0.13753 0.43411 0.95699 0.0
O507 O 0.12917 0.45496 0.94213 0.0
O508 O 0.10707 0.46552 0.99759 0.0
O509 O 0.13476 0.46288 0.99042 0.0
C510 C 0.12287 0.47074 0.99926 0.0
C511 C 0.16287 0.41962 0.94854 0.0
C512 C 0.11409 0.46153 0.9434 0.0
C513 C 0.10993 0.4125 0.97553 0.0
O514 O 0.11986 0.41488 0.96264 0.0
O515 O 0.10742 0.42465 0.98633 0.0
O516 O 0.14986 0.42144 0.93835 0.0
O517 O 0.1623 0.42735 0.96336 0.0
O518 O 0.29568 0.88488 0.19256 0.0
Cd519 Cd 0.30721 0.8953 0.21414 0.0
Cd520 Cd 0.32084 0.91276 0.1903 0.0
O521 O 0.29974 0.90681 0.17489 0.0
O522 O 0.29322 0.88407 0.23243 0.0
O523 O 0.2925 0.91227 0.22755 0.0
C524 C 0.28625 0.89892 0.2355 0.0
C525 C 0.33405 0.93827 0.19798 0.0
C526 C 0.29263 0.89231 0.1782 0.0
C527 C 0.34281 0.88604 0.20597 0.0
O528 O 0.33909 0.89344 0.19174 0.0
O529 O 0.33247 0.88743 0.21874 0.0
O530 O 0.33369 0.93323 0.182 0.0
O531 O 0.32439 0.93021 0.20911 0.0
O532 O 0.86716 0.04907 0.43188 0.0
Cd533 Cd 0.85835 0.05802 0.45537 0.0
Cd534 Cd 0.83844 0.07398 0.43458 0.0
O535 O 0.84429 0.05546 0.41619 0.0
O536 O 0.8709 0.04233 0.47133 0.0
O537 O 0.84239 0.04224 0.46887 0.0
C538 C 0.85625 0.03537 0.47528 0.0
C539 C 0.81218 0.08543 0.44303 0.0
C540 C 0.85891 0.04801 0.41768 0.0
C541 C 0.86587 0.09493 0.45096 0.0
O542 O 0.85692 0.093 0.43727 0.0
O543 O 0.86631 0.08278 0.46211 0.0
O544 O 0.81756 0.08674 0.42724 0.0
O545 O 0.82057 0.0753 0.45344 0.0
O546 O 0.69116 0.6246 0.69566 0.0
Cd547 Cd 0.68219 0.61879 0.72001 0.0
Cd548 Cd 0.66082 0.59909 0.69977 0.0
O549 O 0.67945 0.60319 0.68091 0.0
O550 O 0.70004 0.63033 0.73442 0.0
O551 O 0.69619 0.60198 0.73451 0.0
C552 C 0.70494 0.61528 0.73968 0.0
C553 C 0.64274 0.57481 0.69913 0.0
C554 C 0.6895 0.61625 0.68158 0.0
C555 C 0.64658 0.63128 0.71726 0.0
O556 O 0.64568 0.62032 0.70503 0.0
O557 O 0.65985 0.63173 0.727 0.0
O558 O 0.64365 0.58548 0.68639 0.0
O559 O 0.65317 0.57698 0.71201 0.0
O560 O 0.55819 0.63394 0.54223 0.0
Cd561 Cd 0.53277 0.63907 0.54786 0.0
Cd562 Cd 0.54897 0.65801 0.57255 0.0
O563 O 0.57067 0.65482 0.5571 0.0
O564 O 0.52174 0.62914 0.52694 0.0
O565 O 0.52035 0.65701 0.53331 0.0
C566 C 0.51714 0.64457 0.52256 0.0
C567 C 0.54611 0.68209 0.59062 0.0
C568 C 0.57167 0.64243 0.54628 0.0
C569 C 0.53011 0.62507 0.58299 0.0
O570 O 0.54169 0.63632 0.58621 0.0
O571 O 0.52266 0.62493 0.56829 0.0
O572 O 0.55896 0.67158 0.59187 0.0
O573 O 0.53519 0.67982 0.57817 0.0
O574 O 0.05141 0.36463 0.95092 0.0
Cd575 Cd 0.03256 0.3514 0.93765 0.0
Cd576 Cd 0.05844 0.33593 0.92732 0.0
O577 O 0.0698 0.34289 0.95062 0.0
O578 O 0.01099 0.3552 0.95107 0.0
O579 O 0.02529 0.33018 0.95064 0.0
C580 C 0.01327 0.3398 0.95728 0.0
C581 C 0.05503 0.31077 0.9119 0.0
C582 C 0.06522 0.35762 0.95652 0.0
C583 C 0.04391 0.36133 0.90349 0.0
O584 O 0.05808 0.35551 0.9095 0.0
O585 O 0.0299 0.35843 0.91175 0.0
O586 O 0.07034 0.31679 0.91518 0.0
O587 O 0.04195 0.31732 0.92011 0.0
O588 O 0.38204 0.8141 0.20882 0.0
Cd589 Cd 0.38459 0.78779 0.20638 0.0
Cd590 Cd 0.40041 0.80092 0.17286 0.0
O591 O 0.39485 0.8241 0.18528 0.0
O592 O 0.37492 0.78088 0.22924 0.0
O593 O 0.40167 0.77465 0.22152 0.0
C594 C 0.38968 0.77425 0.23318 0.0
C595 C 0.41831 0.80407 0.14826 0.0
C596 C 0.38676 0.82674 0.1994 0.0
C597 C 0.36743 0.7778 0.17311 0.0
O598 O 0.37941 0.78626 0.16567 0.0
O599 O 0.36725 0.77627 0.18951 0.0
O600 O 0.40301 0.81042 0.14912 0.0
O601 O 0.42422 0.79628 0.1618 0.0
O602 O 0.93404 0.13617 0.44414 0.0
Cd603 Cd 0.95868 0.14351 0.43723 0.0
Cd604 Cd 0.9393 0.16347 0.41776 0.0
O605 O 0.9193 0.15872 0.4349 0.0
O606 O 0.97181 0.1294 0.4542 0.0
O607 O 0.97203 0.15799 0.4546 0.0
C608 C 0.97642 0.14352 0.46179 0.0
C609 C 0.94585 0.18889 0.40326 0.0
C610 C 0.91995 0.1446 0.44337 0.0
C611 C 0.95754 0.1345 0.40043 0.0
O612 O 0.94386 0.14361 0.40067 0.0
O613 O 0.9675 0.13437 0.41358 0.0
O614 O 0.93076 0.18183 0.40214 0.0
O615 O 0.95657 0.18285 0.41464 0.0
O616 O 0.10939 0.18305 0.70866 0.0
Cd617 Cd 0.10651 0.20928 0.70552 0.0
Cd618 Cd 0.08877 0.19458 0.6752 0.0
O619 O 0.09237 0.17166 0.68873 0.0
O620 O 0.11816 0.2166 0.7273 0.0
O621 O 0.09077 0.22257 0.72197 0.0
C622 C 0.10375 0.22311 0.73251 0.0
C623 C 0.068 0.19508 0.65305 0.0
C624 C 0.10265 0.16986 0.70149 0.0
C625 C 0.1225 0.21578 0.67118 0.0
O626 O 0.11091 0.20562 0.66543 0.0
O627 O 0.12241 0.22037 0.68699 0.0
O628 O 0.08107 0.18482 0.65276 0.0
O629 O 0.06572 0.20456 0.66661 0.0
O630 O 0.42964 0.36066 0.54956 0.0
Cd631 Cd 0.45435 0.35339 0.55627 0.0
Cd632 Cd 0.43525 0.33206 0.57408 0.0
O633 O 0.41523 0.33729 0.55714 0.0
O634 O 0.46716 0.36894 0.54037 0.0
O635 O 0.46822 0.34046 0.5381 0.0
C636 C 0.47218 0.3555 0.53189 0.0
C637 C 0.44386 0.30596 0.58598 0.0
C638 C 0.4157 0.35193 0.5496 0.0
C639 C 0.45262 0.36011 0.59359 0.0
O640 O 0.43908 0.3508 0.59263 0.0
O641 O 0.46271 0.36115 0.58059 0.0
O642 O 0.42829 0.31174 0.58796 0.0
O643 O 0.45384 0.31379 0.57501 0.0
O644 O 0.38444 0.68955 0.29984 0.0
Cd645 Cd 0.39316 0.71031 0.31407 0.0
Cd646 Cd 0.41209 0.68629 0.32509 0.0
O647 O 0.40755 0.67311 0.30224 0.0
O648 O 0.38081 0.72978 0.30278 0.0
O649 O 0.40925 0.7265 0.30132 0.0
C650 C 0.39547 0.73469 0.29648 0.0
C651 C 0.43577 0.69696 0.33933 0.0
C652 C 0.39291 0.67618 0.29531 0.0
C653 C 0.38477 0.69714 0.3486 0.0
O654 O 0.39274 0.68381 0.34316 0.0
O655 O 0.3855 0.7111 0.33983 0.0
O656 O 0.43364 0.6804 0.3375 0.0
O657 O 0.42627 0.70727 0.33009 0.0
O658 O 0.63097 0.78242 0.79231 0.0
Cd659 Cd 0.61244 0.76638 0.80295 0.0
Cd660 Cd 0.59851 0.79481 0.81289 0.0
O661 O 0.61138 0.80299 0.79072 0.0
O662 O 0.60745 0.74739 0.78641 0.0
O663 O 0.58979 0.76976 0.79099 0.0
C664 C 0.59398 0.75632 0.78189 0.0
C665 C 0.57419 0.80919 0.82335 0.0
C666 C 0.62606 0.79693 0.78625 0.0
C667 C 0.61686 0.77261 0.83928 0.0
O668 O 0.61283 0.78775 0.83424 0.0
O669 O 0.61559 0.75993 0.82883 0.0
O670 O 0.58887 0.81688 0.82157 0.0
O671 O 0.57269 0.79359 0.81746 0.0
O672 O 0.54252 0.55224 0.61764 0.0
Cd673 Cd 0.55251 0.52943 0.62703 0.0
Cd674 Cd 0.5669 0.55129 0.64845 0.0
O675 O 0.54663 0.5674 0.64136 0.0
O676 O 0.53703 0.51187 0.61657 0.0
O677 O 0.53823 0.51669 0.6448 0.0
C678 C 0.53104 0.50881 0.63187 0.0
C679 C 0.58062 0.55212 0.6753 0.0
C680 C 0.53998 0.56597 0.62634 0.0
C681 C 0.58908 0.53532 0.62088 0.0
O682 O 0.58612 0.54852 0.63024 0.0
O683 O 0.5775 0.52371 0.6192 0.0
O684 O 0.57932 0.56567 0.66568 0.0
O685 O 0.57248 0.53828 0.67058 0.0
O686 O 0.19224 0.29316 0.89499 0.0
Cd687 Cd 0.21853 0.29538 0.89767 0.0
Cd688 Cd 0.2028 0.33136 0.91162 0.0
O689 O 0.18082 0.31682 0.90648 0.0
O690 O 0.22452 0.27293 0.88646 0.0
O691 O 0.23149 0.27863 0.91349 0.0
C692 C 0.23126 0.26777 0.90077 0.0
C693 C 0.19642 0.35824 0.92502 0.0
C694 C 0.17911 0.30218 0.89907 0.0
C695 C 0.22823 0.32875 0.88004 0.0
O696 O 0.21867 0.33648 0.89096 0.0
O697 O 0.23034 0.31242 0.88069 0.0
O698 O 0.19144 0.35441 0.90966 0.0
O699 O 0.20474 0.3465 0.9335 0.0
O700 O 0.44486 0.94896 0.14044 0.0
Cd701 Cd 0.43086 0.97011 0.14842 0.0
Cd702 Cd 0.41814 0.94606 0.16696 0.0
O703 O 0.44109 0.93275 0.16353 0.0
O704 O 0.44364 0.98896 0.13653 0.0
O705 O 0.44367 0.98573 0.16502 0.0
C706 C 0.44969 0.99347 0.15143 0.0
C707 C 0.40192 0.95156 0.19139 0.0
C708 C 0.44888 0.9357 0.14932 0.0
C709 C 0.39681 0.95781 0.13778 0.0
O710 O 0.40144 0.94451 0.14631 0.0
O711 O 0.40569 0.97167 0.13903 0.0
O712 O 0.40489 0.93588 0.18632 0.0
O713 O 0.41037 0.96404 0.18401 0.0
O714 O 0.81803 0.19068 0.38865 0.0
Cd715 Cd 0.7937 0.18249 0.39568 0.0
Cd716 Cd 0.81403 0.16554 0.41626 0.0
O717 O 0.83277 0.18417 0.41211 0.0
O718 O 0.78042 0.19736 0.37951 0.0
O719 O 0.77878 0.20039 0.40786 0.0
C720 C 0.77495 0.2061 0.3926 0.0
C721 C 0.80456 0.15194 0.441 0.0
C722 C 0.83188 0.19166 0.39748 0.0
C723 C 0.79817 0.14569 0.38791 0.0
O724 O 0.81197 0.14765 0.39666 0.0
O725 O 0.78684 0.15769 0.38787 0.0
O726 O 0.82063 0.15127 0.43636 0.0
O727 O 0.79452 0.16291 0.43322 0.0
O728 O 0.55507 0.44604 0.36635 0.0
Cd729 Cd 0.56915 0.46693 0.35776 0.0
Cd730 Cd 0.58152 0.44244 0.33956 0.0
O731 O 0.55837 0.42952 0.34342 0.0
O732 O 0.55634 0.4863 0.36872 0.0
O733 O 0.55668 0.48195 0.34039 0.0
C734 C 0.55046 0.4902 0.35358 0.0
C735 C 0.5982 0.4472 0.31529 0.0
C736 C 0.55083 0.43268 0.35774 0.0
C737 C 0.60311 0.45453 0.3683 0.0
O738 O 0.59814 0.44111 0.36019 0.0
O739 O 0.59439 0.46848 0.36696 0.0
O740 O 0.59485 0.43166 0.32055 0.0
O741 O 0.58981 0.45995 0.32227 0.0
O742 O 0.31897 0.30082 0.61378 0.0
Cd743 Cd 0.29366 0.30751 0.60875 0.0
Cd744 Cd 0.3108 0.3264 0.58657 0.0
O745 O 0.33134 0.30953 0.58965 0.0
O746 O 0.28184 0.29074 0.6242 0.0
O747 O 0.27873 0.29023 0.59579 0.0
C748 C 0.27562 0.28322 0.61068 0.0
C749 C 0.30098 0.34036 0.56197 0.0
C750 C 0.33224 0.3016 0.60407 0.0
C751 C 0.29569 0.34444 0.61688 0.0
O752 O 0.30834 0.34399 0.60638 0.0
O753 O 0.28583 0.33131 0.61835 0.0
O754 O 0.31689 0.34163 0.56694 0.0
O755 O 0.2913 0.32887 0.56941 0.0
O756 O 0.46332 0.04188 0.88856 0.0
Cd757 Cd 0.45329 0.02221 0.87356 0.0
Cd758 Cd 0.43934 0.04703 0.85646 0.0
O759 O 0.46095 0.05961 0.8664 0.0
O760 O 0.47109 0.00397 0.87055 0.0
O761 O 0.46355 0.0226 0.8498 0.0
C762 C 0.47385 0.01061 0.85539 0.0
C763 C 0.42562 0.0565 0.83131 0.0
C764 C 0.4671 0.05621 0.88134 0.0
C765 C 0.4169 0.02553 0.88016 0.0
O766 O 0.4199 0.0402 0.87334 0.0
O767 O 0.42857 0.01391 0.88 0.0
O768 O 0.42748 0.06639 0.84459 0.0
O769 O 0.43319 0.04158 0.83149 0.0
O770 O 0.67942 0.20059 0.10614 0.0
Cd771 Cd 0.70595 0.20147 0.10583 0.0
Cd772 Cd 0.69569 0.16287 0.09398 0.0
O773 O 0.67171 0.17442 0.09737 0.0
O774 O 0.70781 0.22499 0.11633 0.0
O775 O 0.71857 0.21913 0.09063 0.0
C776 C 0.71548 0.23038 0.10261 0.0
C777 C 0.6939 0.13485 0.08159 0.0
C778 C 0.66776 0.18946 0.10285 0.0
C779 C 0.71815 0.17075 0.12676 0.0
O780 O 0.71086 0.161 0.1157 0.0
O781 O 0.71799 0.18714 0.12501 0.0
O782 O 0.68759 0.13852 0.09648 0.0
O783 O 0.70083 0.14733 0.07291 0.0
O784 O 0.60718 0.03478 0.04851 0.0
Cd785 Cd 0.61902 0.04445 0.02668 0.0
Cd786 Cd 0.64038 0.0579 0.05021 0.0
O787 O 0.6307 0.03715 0.06435 0.0
O788 O 0.6129 0.02814 0.00791 0.0
O789 O 0.63967 0.03129 0.01788 0.0
C790 C 0.6289 0.02317 0.00791 0.0
C791 C 0.66614 0.07126 0.05895 0.0
C792 C 0.61539 0.03135 0.06235 0.0
C793 C 0.61515 0.08136 0.03108 0.0
O794 O 0.62385 0.07808 0.04464 0.0
O795 O 0.61267 0.06956 0.01987 0.0
O796 O 0.65315 0.06952 0.06919 0.0
O797 O 0.66531 0.0639 0.04396 0.0
O798 O 0.70925 0.38369 0.30631 0.0
Cd799 Cd 0.6975 0.39444 0.285 0.0
Cd800 Cd 0.68291 0.41052 0.31004 0.0
O801 O 0.70428 0.40453 0.32505 0.0
O802 O 0.71146 0.38351 0.26647 0.0
O803 O 0.71202 0.41165 0.27155 0.0
C804 C 0.71816 0.39845 0.26328 0.0
C805 C 0.66735 0.43551 0.30562 0.0
C806 C 0.71201 0.39053 0.32101 0.0
C807 C 0.66199 0.38402 0.29281 0.0
O808 O 0.66564 0.39056 0.30745 0.0
O809 O 0.67231 0.38624 0.28013 0.0
O810 O 0.66884 0.4289 0.32093 0.0
O811 O 0.67716 0.42956 0.29338 0.0
O812 O 0.36216 0.44457 0.56885 0.0
Cd813 Cd 0.35432 0.43854 0.54416 0.0
Cd814 Cd 0.33341 0.42031 0.56382 0.0
O815 O 0.33896 0.43743 0.58367 0.0
O816 O 0.3706 0.45429 0.53215 0.0
O817 O 0.34221 0.45768 0.53078 0.0
C818 C 0.35755 0.46358 0.52758 0.0
C819 C 0.30719 0.40704 0.55755 0.0
C820 C 0.35375 0.44465 0.58297 0.0
C821 C 0.36132 0.40142 0.54536 0.0
O822 O 0.35252 0.40229 0.55925 0.0
O823 O 0.36165 0.41436 0.53515 0.0
O824 O 0.31434 0.40568 0.57257 0.0
O825 O 0.31377 0.41796 0.54667 0.0
O826 O 0.29785 0.10868 0.80845 0.0
Cd827 Cd 0.29956 0.10651 0.78207 0.0
Cd828 Cd 0.33563 0.09297 0.79586 0.0
O829 O 0.32192 0.09693 0.8186 0.0
O830 O 0.27628 0.11607 0.77646 0.0
O831 O 0.28384 0.08951 0.76937 0.0
C832 C 0.27208 0.10139 0.76982 0.0
C833 C 0.36295 0.07986 0.80062 0.0
C834 C 0.30736 0.10424 0.82112 0.0
C835 C 0.33177 0.12559 0.772 0.0
O836 O 0.33998 0.1144 0.78081 0.0
O837 O 0.31542 0.12457 0.77024 0.0
O838 O 0.35901 0.09488 0.80647 0.0
O839 O 0.35106 0.07151 0.79238 0.0
O840 O 0.64597 0.9519 0.92277 0.0
Cd841 Cd 0.6504 0.94027 0.94636 0.0
Cd842 Cd 0.66857 0.9218 0.92326 0.0
O843 O 0.66773 0.94284 0.90677 0.0
O844 O 0.63327 0.95422 0.95955 0.0
O845 O 0.66123 0.95565 0.96489 0.0
C846 C 0.6458 0.96141 0.96781 0.0
C847 C 0.69029 0.90314 0.93172 0.0
C848 C 0.65467 0.95269 0.90883 0.0
C849 C 0.63785 0.90532 0.93744 0.0
O850 O 0.64613 0.90772 0.92345 0.0
O851 O 0.64013 0.91566 0.9501 0.0
O852 O 0.68604 0.90469 0.91559 0.0
O853 O 0.68416 0.91432 0.94264 0.0
O854 O 0.79679 0.39649 0.18195 0.0
Cd855 Cd 0.80687 0.40132 0.20609 0.0
Cd856 Cd 0.82793 0.418 0.18364 0.0
O857 O 0.80779 0.4174 0.16601 0.0
O858 O 0.78983 0.38706 0.21902 0.0
O859 O 0.79141 0.41536 0.22221 0.0
C860 C 0.78337 0.40102 0.22536 0.0
C861 C 0.84898 0.43875 0.18866 0.0
C862 C 0.79726 0.40483 0.16779 0.0
C863 C 0.84114 0.3862 0.20019 0.0
O864 O 0.84035 0.39476 0.18618 0.0
O865 O 0.82995 0.3888 0.21203 0.0
O866 O 0.8466 0.43235 0.17341 0.0
O867 O 0.8376 0.43539 0.20051 0.0
O868 O 0.39511 0.54123 0.45634 0.0
Cd869 Cd 0.38191 0.55127 0.47722 0.0
Cd870 Cd 0.36076 0.56145 0.45347 0.0
O871 O 0.37144 0.54037 0.44063 0.0
O872 O 0.38764 0.53626 0.49706 0.0
O873 O 0.36146 0.53739 0.48517 0.0
C874 C 0.372 0.53033 0.49617 0.0
C875 C 0.33368 0.57234 0.44573 0.0
C876 C 0.38718 0.53601 0.4429 0.0
C877 C 0.38403 0.58777 0.47064 0.0
O878 O 0.37618 0.58297 0.457 0.0
O879 O 0.38629 0.57703 0.48291 0.0
O880 O 0.34605 0.57076 0.4347 0.0
O881 O 0.33594 0.56595 0.46102 0.0
O882 O 0.19467 0.11343 0.6962 0.0
Cd883 Cd 0.18299 0.10249 0.71746 0.0
Cd884 Cd 0.16961 0.08521 0.69309 0.0
O885 O 0.1911 0.0915 0.67842 0.0
O886 O 0.19692 0.11275 0.73639 0.0
O887 O 0.19761 0.08482 0.72996 0.0
C888 C 0.20388 0.09773 0.73862 0.0
C889 C 0.15529 0.05943 0.69723 0.0
C890 C 0.19815 0.10598 0.68196 0.0
C891 C 0.14739 0.11155 0.70916 0.0
O892 O 0.1514 0.10453 0.69483 0.0
O893 O 0.1576 0.11004 0.72204 0.0
O894 O 0.15686 0.06609 0.68196 0.0
O895 O 0.16431 0.06601 0.70976 0.0
O896 O 0.05231 0.12402 0.54366 0.0
Cd897 Cd 0.02825 0.13138 0.5523 0.0
Cd898 Cd 0.04791 0.1525 0.57033 0.0
O899 O 0.06543 0.14832 0.55043 0.0
O900 O 0.01289 0.1212 0.5345 0.0
O901 O 0.01588 0.14949 0.53815 0.0
C902 C 0.00961 0.13673 0.52926 0.0
C903 C 0.04824 0.17734 0.58744 0.0
C904 C 0.06552 0.13378 0.54267 0.0
C905 C 0.03146 0.12222 0.5884 0.0
O906 O 0.04447 0.13221 0.58723 0.0
O907 O 0.02076 0.12123 0.57592 0.0
O908 O 0.03478 0.17393 0.57811 0.0
O909 O 0.06175 0.1678 0.58554 0.0
O910 O 0.5629 0.87291 0.94425 0.0
Cd911 Cd 0.53652 0.87455 0.94427 0.0
Cd912 Cd 0.54511 0.85931 0.9078 0.0
O913 O 0.56946 0.86151 0.91886 0.0
O914 O 0.53462 0.88586 0.96731 0.0
O915 O 0.52272 0.86054 0.96191 0.0
C916 C 0.52624 0.87264 0.9729 0.0
C917 C 0.54604 0.84353 0.8815 0.0
C918 C 0.57409 0.86776 0.93339 0.0
C919 C 0.52653 0.89474 0.91252 0.0
O920 O 0.53225 0.88216 0.90359 0.0
O921 O 0.52668 0.89416 0.92898 0.0
O922 O 0.55338 0.85829 0.88342 0.0
O923 O 0.53809 0.83718 0.89475 0.0
O924 O 0.87168 0.30948 0.2009 0.0
Cd925 Cd 0.87256 0.28324 0.19709 0.0
Cd926 Cd 0.88824 0.29815 0.16307 0.0
O927 O 0.88594 0.3201 0.17842 0.0
O928 O 0.86399 0.27517 0.22004 0.0
O929 O 0.89003 0.2687 0.21033 0.0
C930 C 0.87875 0.26788 0.22266 0.0
C931 C 0.90268 0.30295 0.13638 0.0
C932 C 0.87784 0.3223 0.19262 0.0
C933 C 0.85351 0.27709 0.16423 0.0
O934 O 0.86561 0.28563 0.15708 0.0
O935 O 0.85388 0.27385 0.18037 0.0
O936 O 0.88851 0.31054 0.14043 0.0
O937 O 0.90962 0.2931 0.14796 0.0
O938 O 0.43955 0.63813 0.44879 0.0
Cd939 Cd 0.46038 0.64855 0.43599 0.0
Cd940 Cd 0.43498 0.66458 0.42266 0.0
O941 O 0.42078 0.65911 0.44468 0.0
O942 O 0.47911 0.63667 0.44883 0.0
O943 O 0.47485 0.66492 0.45045 0.0
C944 C 0.48275 0.65126 0.45605 0.0
C945 C 0.4413 0.68977 0.40815 0.0
C946 C 0.42513 0.64518 0.45234 0.0
C947 C 0.45071 0.63776 0.40109 0.0
O948 O 0.43629 0.6445 0.40528 0.0
O949 O 0.4639 0.64029 0.41068 0.0
O950 O 0.42551 0.68425 0.40939 0.0
O951 O 0.4531 0.68238 0.41754 0.0
O952 O 0.61376 0.70354 0.69837 0.0
Cd953 Cd 0.60309 0.72598 0.6888 0.0
Cd954 Cd 0.5852 0.70471 0.67204 0.0
O955 O 0.59008 0.68875 0.69303 0.0
O956 O 0.6069 0.74375 0.70681 0.0
O957 O 0.58107 0.73226 0.701 0.0
C958 C 0.59074 0.74188 0.71077 0.0
C959 C 0.56026 0.70429 0.6553 0.0
C960 C 0.60478 0.68988 0.70041 0.0
C961 C 0.61405 0.7224 0.65358 0.0
O962 O 0.60569 0.70833 0.65538 0.0
O963 O 0.61273 0.73408 0.66513 0.0
O964 O 0.56962 0.69065 0.6574 0.0
O965 O 0.5639 0.71789 0.66437 0.0
O966 O 0.93695 0.86667 0.54358 0.0
Cd967 Cd 0.96022 0.85732 0.55249 0.0
Cd968 Cd 0.93868 0.83817 0.56883 0.0
O969 O 0.92074 0.84416 0.54992 0.0
O970 O 0.97613 0.86999 0.53689 0.0
O971 O 0.97341 0.84151 0.53629 0.0
C972 C 0.97981 0.85545 0.52957 0.0
C973 C 0.94499 0.81173 0.58132 0.0
C974 C 0.92262 0.85869 0.54237 0.0
C975 C 0.95611 0.86551 0.58918 0.0
O976 O 0.94207 0.8571 0.58731 0.0
O977 O 0.96734 0.86523 0.57712 0.0
O978 O 0.92965 0.81834 0.58221 0.0
O979 O 0.95621 0.81906 0.57123 0.0
O980 O 0.88101 0.18692 0.30074 0.0
Cd981 Cd 0.88882 0.21068 0.31 0.0
Cd982 Cd 0.91109 0.19034 0.32416 0.0
O983 O 0.90545 0.17287 0.30473 0.0
O984 O 0.87456 0.22661 0.2957 0.0
O985 O 0.90311 0.22535 0.29371 0.0
C986 C 0.88857 0.2314 0.28797 0.0
C987 C 0.93735 0.19748 0.33658 0.0
C988 C 0.89026 0.17352 0.29837 0.0
C989 C 0.88385 0.20437 0.34697 0.0
O990 O 0.89308 0.19114 0.34374 0.0
O991 O 0.88219 0.21609 0.33548 0.0
O992 O 0.93186 0.18168 0.3363 0.0
O993 O 0.92916 0.20883 0.32735 0.0
O994 O 0.12429 0.29958 0.80471 0.0
Cd995 Cd 0.11293 0.27967 0.8182 0.0
Cd996 Cd 0.09601 0.3048 0.82922 0.0
O997 O 0.10218 0.3174 0.80635 0.0
O998 O 0.12129 0.25911 0.80542 0.0
O999 O 0.09384 0.26749 0.80531 0.0
C1000 C 0.10585 0.25753 0.79918 0.0
C1001 C 0.07046 0.29985 0.84369 0.0
C1002 C 0.1168 0.31339 0.79983 0.0
C1003 C 0.1224 0.29109 0.85268 0.0
O1004 O 0.11545 0.30501 0.84731 0.0
O1005 O 0.12056 0.27726 0.84387 0.0
O1006 O 0.07605 0.31545 0.84116 0.0
O1007 O 0.07803 0.28725 0.8356 0.0
O1008 O 0.54505 0.06327 0.1402 0.0
Cd1009 Cd 0.54515 0.03683 0.14237 0.0
Cd1010 Cd 0.58222 0.04873 0.15625 0.0
O1011 O 0.56999 0.07212 0.15127 0.0
O1012 O 0.52175 0.03246 0.13237 0.0
O1013 O 0.52844 0.02503 0.15905 0.0
C1014 C 0.51692 0.02609 0.14696 0.0
C1015 C 0.60951 0.05221 0.16981 0.0
C1016 C 0.55542 0.07538 0.14426 0.0
C1017 C 0.57724 0.02417 0.12432 0.0
O1018 O 0.58587 0.03256 0.13552 0.0
O1019 O 0.56076 0.02391 0.12479 0.0
O1020 O 0.60632 0.05767 0.15447 0.0
O1021 O 0.5969 0.04521 0.17823 0.0
O1022 O 0.19828 0.80035 0.3808 0.0
Cd1023 Cd 0.22082 0.81084 0.39045 0.0
Cd1024 Cd 0.19819 0.82578 0.40934 0.0
O1025 O 0.18226 0.80496 0.40385 0.0
O1026 O 0.23866 0.79573 0.37988 0.0
O1027 O 0.23344 0.79625 0.40806 0.0
C1028 C 0.24141 0.78932 0.39506 0.0
C1029 C 0.20163 0.84107 0.4348 0.0
C1030 C 0.18434 0.79778 0.38916 0.0
C1031 C 0.21421 0.84682 0.38178 0.0
O1032 O 0.20017 0.84368 0.38977 0.0
O1033 O 0.22651 0.83586 0.38246 0.0
O1034 O 0.18662 0.8394 0.42764 0.0
O1035 O 0.21428 0.83175 0.42895 0.0
O1036 O 0.44812 0.42861 0.63445 0.0
Cd1037 Cd 0.44164 0.45336 0.64196 0.0
Cd1038 Cd 0.42473 0.43431 0.66373 0.0
O1039 O 0.44166 0.41435 0.65823 0.0
O1040 O 0.45731 0.4665 0.6264 0.0
O1041 O 0.45983 0.46723 0.65487 0.0
C1042 C 0.46589 0.47141 0.63983 0.0
C1043 C 0.41273 0.44344 0.6895 0.0
C1044 C 0.4484 0.41467 0.6432 0.0
C1045 C 0.4043 0.45124 0.6362 0.0
O1046 O 0.40582 0.43764 0.64533 0.0
O1047 O 0.41707 0.46162 0.63489 0.0
O1048 O 0.41108 0.42762 0.68429 0.0
O1049 O 0.42375 0.45327 0.68154 0.0
O1050 O 0.81149 0.71144 0.88328 0.0
Cd1051 Cd 0.78969 0.6989 0.89215 0.0
Cd1052 Cd 0.8132 0.68555 0.91066 0.0
O1053 O 0.8284 0.70701 0.90574 0.0
O1054 O 0.77147 0.71172 0.8794 0.0
O1055 O 0.7739 0.71264 0.90789 0.0
C1056 C 0.7664 0.71812 0.89395 0.0
C1057 C 0.80327 0.67217 0.9352 0.0
C1058 C 0.82549 0.71455 0.89136 0.0
C1059 C 0.79952 0.66313 0.8836 0.0
O1060 O 0.81343 0.66721 0.8914 0.0
O1061 O 0.78656 0.6733 0.88441 0.0
O1062 O 0.81969 0.67279 0.93182 0.0
O1063 O 0.79291 0.68193 0.92627 0.0
O1064 O 0.55518 0.96394 0.87765 0.0
Cd1065 Cd 0.56614 0.98133 0.86065 0.0
Cd1066 Cd 0.57328 0.95378 0.84346 0.0
O1067 O 0.55041 0.94655 0.85569 0.0
O1068 O 0.55129 0.0022 0.8604 0.0
O1069 O 0.55191 0.98266 0.83915 0.0
C1070 C 0.54458 0.99593 0.84635 0.0
C1071 C 0.5827 0.93991 0.81837 0.0
C1072 C 0.54723 0.95101 0.87126 0.0
C1073 C 0.60177 0.97179 0.8631 0.0
O1074 O 0.59515 0.95752 0.85827 0.0
O1075 O 0.59256 0.98544 0.86304 0.0
O1076 O 0.57849 0.95609 0.81781 0.0
O1077 O 0.57989 0.93156 0.83252 0.0
O1078 O 0.29282 0.79057 0.14077 0.0
Cd1079 Cd 0.27114 0.80047 0.12882 0.0
Cd1080 Cd 0.29505 0.81323 0.10795 0.0
O1081 O 0.30883 0.79212 0.11733 0.0
O1082 O 0.25209 0.78516 0.13644 0.0
O1083 O 0.26126 0.78641 0.10925 0.0
C1084 C 0.25136 0.7793 0.12079 0.0
C1085 C 0.30298 0.82682 0.08215 0.0
C1086 C 0.30661 0.78663 0.13273 0.0
C1087 C 0.27668 0.83715 0.13287 0.0
O1088 O 0.29048 0.83334 0.1248 0.0
O1089 O 0.26487 0.82582 0.1347 0.0
O1090 O 0.31378 0.82453 0.0946 0.0
O1091 O 0.28791 0.81966 0.08341 0.0
O1092 O 0.45785 0.56519 0.36298 0.0
Cd1093 Cd 0.45734 0.53866 0.36219 0.0
Cd1094 Cd 0.42063 0.54841 0.34837 0.0
O1095 O 0.43188 0.57232 0.35321 0.0
O1096 O 0.48108 0.53389 0.37121 0.0
O1097 O 0.47263 0.52532 0.34536 0.0
C1098 C 0.48476 0.52631 0.35684 0.0
C1099 C 0.39414 0.55093 0.33305 0.0
C1100 C 0.44659 0.57662 0.35931 0.0
C1101 C 0.4257 0.52616 0.38145 0.0
O1102 O 0.41657 0.5328 0.36949 0.0
O1103 O 0.44215 0.52713 0.38105 0.0
O1104 O 0.3962 0.55665 0.34849 0.0
O1105 O 0.40739 0.54392 0.32567 0.0
O1106 O 0.68515 0.70782 0.62014 0.0
Cd1107 Cd 0.70892 0.6973 0.61426 0.0
Cd1108 Cd 0.68898 0.67988 0.5939 0.0
O1109 O 0.67139 0.69992 0.5965 0.0
O1110 O 0.72463 0.71359 0.62638 0.0
O1111 O 0.72401 0.71099 0.59786 0.0
C1112 C 0.72981 0.71893 0.61143 0.0
C1113 C 0.69607 0.66405 0.56951 0.0
C1114 C 0.67189 0.7087 0.61044 0.0
C1115 C 0.70274 0.66137 0.62445 0.0
O1116 O 0.68977 0.663 0.61446 0.0
O1117 O 0.71422 0.67321 0.62489 0.0
O1118 O 0.68034 0.66486 0.57506 0.0
O1119 O 0.70746 0.67426 0.57638 0.0
O1120 O 0.63265 0.55286 0.55602 0.0
Cd1121 Cd 0.64212 0.56338 0.53345 0.0
Cd1122 Cd 0.65961 0.58034 0.55689 0.0
O1123 O 0.65439 0.55967 0.57308 0.0
O1124 O 0.63074 0.54819 0.51614 0.0
O1125 O 0.6591 0.54848 0.52013 0.0
C1126 C 0.64572 0.54177 0.5126 0.0
C1127 C 0.68487 0.59661 0.55582 0.0
C1128 C 0.64033 0.55147 0.5705 0.0
C1129 C 0.6311 0.59901 0.53918 0.0
O1130 O 0.63911 0.59697 0.55341 0.0
O1131 O 0.63282 0.58777 0.52725 0.0
O1132 O 0.67611 0.59501 0.56994 0.0
O1133 O 0.68043 0.58727 0.54265 0.0
O1134 O 0.70084 0.8714 0.80829 0.0
Cd1135 Cd 0.70109 0.87194 0.78185 0.0
Cd1136 Cd 0.66525 0.88679 0.78989 0.0
O1137 O 0.67533 0.88281 0.81446 0.0
O1138 O 0.72506 0.86324 0.77811 0.0
O1139 O 0.71666 0.889 0.76919 0.0
C1140 C 0.72894 0.87777 0.77097 0.0
C1141 C 0.63945 0.90343 0.79051 0.0
C1142 C 0.68956 0.87604 0.8193 0.0
C1143 C 0.6699 0.85236 0.76964 0.0
O1144 O 0.66094 0.86482 0.77557 0.0
O1145 O 0.68636 0.85266 0.77051 0.0
O1146 O 0.65328 0.90974 0.78357 0.0
O1147 O 0.64056 0.8883 0.7972 0.0
O1148 O 0.35986 0.95293 0.06513 0.0
Cd1149 Cd 0.35938 0.9496 0.03881 0.0
Cd1150 Cd 0.34521 0.91522 0.05316 0.0
O1151 O 0.34813 0.92915 0.07596 0.0
O1152 O 0.36957 0.97245 0.03264 0.0
O1153 O 0.34363 0.96461 0.02383 0.0
C1154 C 0.35556 0.97631 0.02455 0.0
C1155 C 0.32897 0.88943 0.05564 0.0
C1156 C 0.35504 0.94399 0.07806 0.0
C1157 C 0.37955 0.91717 0.03213 0.0
O1158 O 0.36784 0.90929 0.04057 0.0
O1159 O 0.37835 0.93334 0.02923 0.0
O1160 O 0.34349 0.89166 0.06337 0.0
O1161 O 0.32278 0.90226 0.04691 0.0
O1162 O 0.29467 0.63636 0.29407 0.0
Cd1163 Cd 0.30358 0.62571 0.27142 0.0
Cd1164 Cd 0.31767 0.60332 0.2948 0.0
O1165 O 0.29598 0.61181 0.30835 0.0
O1166 O 0.2875 0.63551 0.2541 0.0
O1167 O 0.28818 0.60761 0.26073 0.0
C1168 C 0.28075 0.62028 0.25264 0.0
C1169 C 0.3323 0.5787 0.30479 0.0
C1170 C 0.29047 0.62731 0.30713 0.0
C1171 C 0.34029 0.62975 0.27577 0.0
O1172 O 0.33708 0.6208 0.28919 0.0
O1173 O 0.32857 0.63209 0.26445 0.0
O1174 O 0.32966 0.59196 0.31446 0.0
O1175 O 0.32519 0.57853 0.28965 0.0
O1176 O 0.6399 0.44903 0.44099 0.0
Cd1177 Cd 0.6412 0.44649 0.46736 0.0
Cd1178 Cd 0.65596 0.4111 0.45181 0.0
O1179 O 0.65253 0.42594 0.42969 0.0
O1180 O 0.62987 0.46895 0.47296 0.0
O1181 O 0.65657 0.46313 0.48101 0.0
C1182 C 0.64398 0.4741 0.48011 0.0
C1183 C 0.66957 0.38415 0.44637 0.0
C1184 C 0.64491 0.44045 0.42789 0.0
C1185 C 0.62274 0.4133 0.47517 0.0
O1186 O 0.63413 0.40589 0.46594 0.0
O1187 O 0.62343 0.42952 0.47803 0.0
O1188 O 0.65473 0.38817 0.44014 0.0
O1189 O 0.6775 0.39578 0.45537 0.0
O1190 O 0.80665 0.87786 0.69576 0.0
Cd1191 Cd 0.81757 0.88629 0.71855 0.0
Cd1192 Cd 0.83048 0.90749 0.69682 0.0
O1193 O 0.80903 0.90245 0.68163 0.0
O1194 O 0.80421 0.87286 0.73585 0.0
O1195 O 0.8021 0.90135 0.73322 0.0
C1196 C 0.79669 0.88711 0.74021 0.0
C1197 C 0.84498 0.93315 0.70168 0.0
C1198 C 0.80278 0.88723 0.68279 0.0
C1199 C 0.85348 0.87999 0.70967 0.0
O1200 O 0.84918 0.88855 0.69629 0.0
O1201 O 0.84324 0.87957 0.72259 0.0
O1202 O 0.84272 0.92726 0.6862 0.0
O1203 O 0.83652 0.9259 0.71422 0.0
O1204 O 0.36988 0.04404 0.94049 0.0
Cd1205 Cd 0.3593 0.05761 0.96087 0.0
Cd1206 Cd 0.34241 0.0696 0.93577 0.0
O1207 O 0.34808 0.04706 0.92244 0.0
O1208 O 0.36951 0.04563 0.98114 0.0
O1209 O 0.34151 0.04465 0.97497 0.0
C1210 C 0.35433 0.03949 0.98443 0.0
C1211 C 0.31771 0.0845 0.94266 0.0
C1212 C 0.36244 0.03996 0.92638 0.0
C1213 C 0.3688 0.09249 0.94971 0.0
O1214 O 0.36202 0.08746 0.93559 0.0
O1215 O 0.36695 0.08328 0.96328 0.0
O1216 O 0.32546 0.07536 0.95443 0.0
O1217 O 0.32224 0.0824 0.92665 0.0
O1218 O 0.19087 0.61472 0.1816 0.0
Cd1219 Cd 0.18607 0.60866 0.20706 0.0
Cd1220 Cd 0.16594 0.58664 0.18998 0.0
O1221 O 0.18145 0.59117 0.16863 0.0
O1222 O 0.20304 0.62472 0.21774 0.0
O1223 O 0.20525 0.59637 0.2202 0.0
C1224 C 0.21185 0.61153 0.22282 0.0
C1225 C 0.15292 0.56067 0.19782 0.0
C1226 C 0.18929 0.60564 0.16798 0.0
C1227 C 0.14893 0.61628 0.2079 0.0
O1228 O 0.1485 0.60614 0.19495 0.0
O1229 O 0.16273 0.61755 0.21684 0.0
O1230 O 0.15047 0.56751 0.18278 0.0
O1231 O 0.16454 0.56747 0.20777 0.0
O1232 O 0.05717 0.63318 0.06093 0.0
Cd1233 Cd 0.03237 0.63971 0.06825 0.0
Cd1234 Cd 0.05045 0.66153 0.08591 0.0
O1235 O 0.07021 0.65738 0.06836 0.0
O1236 O 0.0184 0.62596 0.05165 0.0
O1237 O 0.01863 0.65461 0.05169 0.0
C1238 C 0.01361 0.6403 0.04457 0.0
C1239 C 0.04234 0.68706 0.09931 0.0
C1240 C 0.07062 0.64268 0.06092 0.0
C1241 C 0.03483 0.6323 0.10522 0.0
O1242 O 0.04785 0.64231 0.10417 0.0
O1243 O 0.02459 0.63091 0.09237 0.0
O1244 O 0.03183 0.67966 0.08855 0.0
O1245 O 0.058 0.68131 0.10025 0.0
O1246 O 0.5477 0.3868 0.45539 0.0
Cd1247 Cd 0.52567 0.37657 0.44455 0.0
Cd1248 Cd 0.54957 0.35585 0.42934 0.0
O1249 O 0.56272 0.36293 0.45176 0.0
O1250 O 0.5073 0.38391 0.46076 0.0
O1251 O 0.51511 0.35649 0.45736 0.0
C1252 C 0.50616 0.36796 0.4657 0.0
C1253 C 0.55964 0.33187 0.4137 0.0
C1254 C 0.56098 0.37773 0.45882 0.0
C1255 C 0.53108 0.38392 0.40839 0.0
O1256 O 0.54439 0.37462 0.41104 0.0
O1257 O 0.51949 0.38516 0.42001 0.0
O1258 O 0.56934 0.34495 0.41708 0.0
O1259 O 0.54433 0.33154 0.4204 0.0
O1260 O 0.89231 0.81367 0.69249 0.0
Cd1261 Cd 0.89802 0.78924 0.68374 0.0
Cd1262 Cd 0.91734 0.80931 0.66456 0.0
O1263 O 0.9152 0.82804 0.68355 0.0
O1264 O 0.88295 0.77659 0.70016 0.0
O1265 O 0.91143 0.77437 0.70077 0.0
C1266 C 0.89664 0.7711 0.70791 0.0
C1267 C 0.9411 0.80134 0.64828 0.0
C1268 C 0.90153 0.82727 0.69269 0.0
C1269 C 0.8867 0.79352 0.64791 0.0
O1270 O 0.896 0.80708 0.64877 0.0
O1271 O 0.88748 0.78235 0.66002 0.0
O1272 O 0.93547 0.81708 0.64833 0.0
O1273 O 0.9348 0.79062 0.65953 0.0
O1274 O 0.43897 0.13482 0.95285 0.0
Cd1275 Cd 0.46539 0.13651 0.9516 0.0
Cd1276 Cd 0.45325 0.14906 0.91457 0.0
O1277 O 0.43011 0.14367 0.9271 0.0
O1278 O 0.47036 0.12706 0.97508 0.0
O1279 O 0.47843 0.15327 0.96731 0.0
C1280 C 0.47745 0.14154 0.9792 0.0
C1281 C 0.4488 0.16317 0.88764 0.0
C1282 C 0.42684 0.13776 0.94214 0.0
C1283 C 0.47734 0.11714 0.91983 0.0
O1284 O 0.46967 0.12849 0.91071 0.0
O1285 O 0.47713 0.11791 0.93629 0.0
O1286 O 0.44388 0.14759 0.89057 0.0
O1287 O 0.45613 0.17135 0.90024 0.0
O1288 O 0.61018 0.19199 0.19532 0.0
Cd1289 Cd 0.60036 0.21223 0.18104 0.0
Cd1290 Cd 0.58235 0.18699 0.17067 0.0
O1291 O 0.5877 0.1746 0.19377 0.0
O1292 O 0.61303 0.23196 0.19155 0.0
O1293 O 0.58473 0.22847 0.19437 0.0
C1294 C 0.59866 0.23679 0.19853 0.0
C1295 C 0.55751 0.1943 0.15617 0.0
C1296 C 0.60234 0.17841 0.20032 0.0
C1297 C 0.60885 0.19875 0.14667 0.0
O1298 O 0.60173 0.18514 0.15258 0.0
O1299 O 0.60738 0.21289 0.15507 0.0
O1300 O 0.56147 0.17822 0.15885 0.0
O1301 O 0.5661 0.20612 0.16446 0.0
O1302 O 0.96173 0.38145 0.03743 0.0
Cd1303 Cd 0.97912 0.36399 0.0476 0.0
Cd1304 Cd 0.9509 0.34985 0.06056 0.0
O1305 O 0.94137 0.36157 0.03823 0.0
O1306 O 0.99815 0.36107 0.03068 0.0
O1307 O 0.97779 0.34114 0.03545 0.0
C1308 C 0.99081 0.34661 0.0264 0.0
C1309 C 0.93475 0.32832 0.07449 0.0
C1310 C 0.94689 0.37612 0.03268 0.0
C1311 C 0.97542 0.36971 0.08407 0.0
O1312 O 0.96007 0.36516 0.08032 0.0
O1313 O 0.98732 0.36852 0.07275 0.0
O1314 O 0.92861 0.34354 0.07168 0.0
O1315 O 0.94963 0.32455 0.06786 0.0
O1316 O 0.86641 0.70641 0.79415 0.0
Cd1317 Cd 0.87929 0.72832 0.8018 0.0
Cd1318 Cd 0.89927 0.70451 0.81749 0.0
O1319 O 0.8896 0.69024 0.79678 0.0
O1320 O 0.87189 0.74537 0.78429 0.0
O1321 O 0.89886 0.73571 0.7863 0.0
C1322 C 0.88733 0.74453 0.7779 0.0
C1323 C 0.92349 0.69316 0.83182 0.0
C1324 C 0.87433 0.69237 0.79097 0.0
C1325 C 0.87424 0.72691 0.83858 0.0
O1326 O 0.88235 0.71273 0.83656 0.0
O1327 O 0.87315 0.73756 0.82607 0.0
O1328 O 0.90923 0.68473 0.8304 0.0
O1329 O 0.92469 0.70792 0.82405 0.0
O1330 O 0.12597 0.80807 0.2979 0.0
Cd1331 Cd 0.11901 0.78354 0.30548 0.0
Cd1332 Cd 0.09858 0.80226 0.32524 0.0
O1333 O 0.10289 0.82178 0.30735 0.0
O1334 O 0.12974 0.76959 0.28684 0.0
O1335 O 0.1014 0.77095 0.29077 0.0
C1336 C 0.11437 0.76581 0.2815 0.0
C1337 C 0.07323 0.79959 0.34138 0.0
C1338 C 0.1169 0.82176 0.29867 0.0
C1339 C 0.12939 0.78493 0.34162 0.0
O1340 O 0.11894 0.79764 0.34179 0.0
O1341 O 0.1301 0.77513 0.32839 0.0
O1342 O 0.08231 0.81357 0.34147 0.0
O1343 O 0.07751 0.78746 0.33069 0.0
C1344 C 0.12195 0.55685 0.13415 0.0
C1345 C 0.10851 0.54451 0.13277 0.0
C1346 C 0.13446 0.55865 0.12107 0.0
C1347 C 0.13386 0.54825 0.10614 0.0
H1348 H 0.12216 0.56599 0.14482 0.0
H1349 H 0.14357 0.5693 0.12193 0.0
S1350 S 0.10404 0.51137 0.09813 0.0
N1351 N 0.09745 0.51963 0.11675 0.0
N1352 N 0.12085 0.52321 0.09215 0.0
C1353 C 0.12183 0.53456 0.10561 0.0
C1354 C 0.10916 0.53263 0.11894 0.0
C1355 C 0.71359 0.37897 0.35105 0.0
C1356 C 0.72066 0.37974 0.33429 0.0
C1357 C 0.71649 0.36451 0.36166 0.0
C1358 C 0.7267 0.35045 0.35596 0.0
H1359 H 0.70433 0.38863 0.3553 0.0
H1360 H 0.70958 0.36374 0.37387 0.0
S1361 S 0.75159 0.34843 0.31489 0.0
N1362 N 0.74087 0.36694 0.31377 0.0
N1363 N 0.74646 0.33981 0.33382 0.0
C1364 C 0.73569 0.3522 0.34022 0.0
C1365 C 0.73262 0.36686 0.32935 0.0
C1366 C 0.86976 0.95474 0.60107 0.0
C1367 C 0.87362 0.96169 0.58468 0.0
C1368 C 0.88154 0.95618 0.61482 0.0
C1369 C 0.89759 0.96471 0.61274 0.0
H1370 H 0.85826 0.94688 0.60296 0.0
H1371 H 0.8785 0.94955 0.62683 0.0
S1372 S 0.91185 0.98879 0.57359 0.0
N1373 N 0.89307 0.98013 0.56803 0.0
N1374 N 0.91522 0.98286 0.59388 0.0
C1375 C 0.90064 0.97348 0.59704 0.0
C1376 C 0.88865 0.97195 0.583 0.0
C1377 C 0.28536 0.13174 0.85508 0.0
C1378 C 0.29801 0.13267 0.86815 0.0
C1379 C 0.28768 0.12103 0.84061 0.0
C1380 C 0.30276 0.11088 0.83863 0.0
H1381 H 0.2742 0.14026 0.85533 0.0
H1382 H 0.27812 0.12176 0.83034 0.0
S1383 S 0.33742 0.10522 0.8716 0.0
N1384 N 0.32436 0.11995 0.87999 0.0
N1385 N 0.32881 0.0999 0.85273 0.0
C1386 C 0.31445 0.11012 0.85264 0.0
C1387 C 0.31207 0.12103 0.8674 0.0
C1388 C 0.10621 0.47195 0.89631 0.0
C1389 C 0.08802 0.47363 0.89567 0.0
C1390 C 0.1149 0.4698 0.91209 0.0
C1391 C 0.10577 0.46935 0.92786 0.0
H1392 H 0.11366 0.47068 0.88447 0.0
H1393 H 0.12867 0.46705 0.91173 0.0
S1394 S 0.05882 0.47858 0.93358 0.0
N1395 N 0.06174 0.47865 0.91238 0.0
N1396 N 0.0781 0.47485 0.9421 0.0
C1397 C 0.08798 0.47364 0.92756 0.0
C1398 C 0.0791 0.47578 0.91143 0.0
C1399 C 0.76853 0.37344 0.14445 0.0
C1400 C 0.77816 0.3703 0.12933 0.0
C1401 C 0.77352 0.38652 0.15604 0.0
C1402 C 0.7882 0.39696 0.15283 0.0
H1403 H 0.75817 0.36472 0.14821 0.0
H1404 H 0.76682 0.38738 0.16836 0.0
S1405 S 0.81487 0.39674 0.11284 0.0
N1406 N 0.80082 0.38082 0.11004 0.0
N1407 N 0.81019 0.40538 0.13187 0.0
C1408 C 0.79641 0.39549 0.13665 0.0
C1409 C 0.79141 0.38209 0.12489 0.0
C1410 C 0.8789 0.04851 0.37332 0.0
C1411 C 0.89387 0.03829 0.37578 0.0
C1412 C 0.8663 0.05005 0.38632 0.0
C1413 C 0.86831 0.04152 0.40229 0.0
H1414 H 0.87744 0.05629 0.36171 0.0
H1415 H 0.85581 0.0592 0.38441 0.0
S1416 S 0.9029 0.01013 0.41375 0.0
N1417 N 0.90827 0.01712 0.39424 0.0
N1418 N 0.88465 0.02016 0.41872 0.0
C1419 C 0.88212 0.02975 0.40414 0.0
C1420 C 0.8949 0.02808 0.39086 0.0
C1421 C 0.20495 0.12935 0.6399 0.0
C1422 C 0.21527 0.14351 0.6451 0.0
C1423 C 0.20108 0.11581 0.65139 0.0
C1424 C 0.20725 0.11613 0.66852 0.0
H1425 H 0.19881 0.12931 0.62726 0.0
H1426 H 0.19189 0.10599 0.64733 0.0
S1427 S 0.23776 0.1482 0.68734 0.0
N1428 N 0.23397 0.15543 0.66754 0.0
N1429 N 0.2265 0.13008 0.68922 0.0
C1430 C 0.21915 0.12914 0.67323 0.0
C1431 C 0.22323 0.14283 0.66147 0.0
C1432 C 0.08121 0.1105 0.52653 0.0
C1433 C 0.08172 0.12667 0.53507 0.0
C1434 C 0.09637 0.10098 0.52346 0.0
C1435 C 0.11259 0.10727 0.52887 0.0
H1436 H 0.06891 0.10453 0.5233 0.0
H1437 H 0.09515 0.08801 0.51821 0.0
S1438 S 0.12151 0.15069 0.54767 0.0
N1439 N 0.10019 0.14992 0.54584 0.0
N1440 N 0.12867 0.13203 0.54002 0.0
C1441 C 0.1135 0.12429 0.53544 0.0
C1442 C 0.09806 0.13401 0.53854 0.0
C1443 C 0.126 0.34381 0.79438 0.0
C1444 C 0.12711 0.32618 0.78995 0.0
C1445 C 0.13959 0.35522 0.79047 0.0
C1446 C 0.15463 0.34943 0.78183 0.0
H1447 H 0.11548 0.34847 0.80243 0.0
H1448 H 0.13891 0.36833 0.79547 0.0
S1449 S 0.16166 0.3055 0.76364 0.0
N1450 N 0.14277 0.30421 0.77365 0.0
N1451 N 0.16826 0.32573 0.76616 0.0
C1452 C 0.15479 0.33243 0.77531 0.0
C1453 C 0.14101 0.32077 0.77943 0.0
C1454 C 0.90505 0.39228 0.01329 0.0
C1455 C 0.90691 0.4104 0.01454 0.0
C1456 C 0.91872 0.38114 0.01754 0.0
C1457 C 0.93482 0.38769 0.02309 0.0
H1458 H 0.89243 0.38663 0.01079 0.0
H1459 H 0.91615 0.36733 0.01784 0.0
S1460 S 0.94781 0.43407 0.0236 0.0
N1461 N 0.92713 0.43436 0.01804 0.0
N1462 N 0.95296 0.41341 0.02583 0.0
C1463 C 0.93763 0.40571 0.02182 0.0
C1464 C 0.92363 0.41709 0.01751 0.0
C1465 C 0.8744 0.12747 0.29734 0.0
C1466 C 0.85858 0.12905 0.28829 0.0
C1467 C 0.8858 0.14154 0.29894 0.0
C1468 C 0.88172 0.15773 0.29165 0.0
H1469 H 0.87751 0.11562 0.30423 0.0
H1470 H 0.89707 0.14011 0.30721 0.0
S1471 S 0.84405 0.16763 0.26342 0.0
N1472 N 0.84104 0.14729 0.2694 0.0
N1473 N 0.86242 0.17375 0.27258 0.0
C1474 C 0.86697 0.15893 0.28098 0.0
C1475 C 0.85541 0.14458 0.27924 0.0
C1476 C 0.08622 0.88572 0.46574 0.0
C1477 C 0.08786 0.87064 0.45553 0.0
C1478 C 0.10035 0.89677 0.46858 0.0
C1479 C 0.11661 0.8932 0.4612 0.0
H1480 H 0.07365 0.88968 0.4706 0.0
H1481 H 0.09811 0.90887 0.47536 0.0
S1482 S 0.12881 0.85343 0.437 0.0
N1483 N 0.10783 0.85121 0.4407 0.0
N1484 N 0.13439 0.87203 0.44601 0.0
C1485 C 0.11892 0.87722 0.45268 0.0
C1486 C 0.10454 0.86589 0.44987 0.0
C1487 C 0.38379 0.37545 0.69178 0.0
C1488 C 0.37073 0.37402 0.7045 0.0
C1489 C 0.39623 0.36238 0.68956 0.0
C1490 C 0.39591 0.34738 0.69988 0.0
H1491 H 0.38371 0.38615 0.68267 0.0
H1492 H 0.40499 0.36328 0.67864 0.0
S1493 S 0.36719 0.33914 0.73752 0.0
N1494 N 0.36039 0.35784 0.7296 0.0
N1495 N 0.38362 0.33321 0.72516 0.0
C1496 C 0.38429 0.34676 0.7139 0.0
C1497 C 0.37172 0.36011 0.71628 0.0
C1498 C 0.88941 0.61324 0.96628 0.0
C1499 C 0.87625 0.61437 0.95371 0.0
C1500 C 0.90526 0.62179 0.96402 0.0
C1501 C 0.90862 0.63177 0.94907 0.0
H1502 H 0.88799 0.60474 0.97737 0.0
H1503 H 0.91535 0.61948 0.97352 0.0
S1504 S 0.87671 0.64254 0.91464 0.0
N1505 N 0.86631 0.62901 0.92756 0.0
N1506 N 0.89617 0.64498 0.92323 0.0
C1507 C 0.89483 0.63467 0.93746 0.0
C1508 C 0.87864 0.62596 0.93979 0.0
C1509 C 0.62563 0.17193 0.2216 0.0
C1510 C 0.61232 0.16576 0.2107 0.0
C1511 C 0.63948 0.16123 0.22651 0.0
C1512 C 0.64054 0.1441 0.22045 0.0
H1513 H 0.62616 0.18553 0.22509 0.0
H1514 H 0.6502 0.16695 0.23357 0.0
S1515 S 0.60713 0.12061 0.195 0.0
N1516 N 0.59954 0.14057 0.19667 0.0
N1517 N 0.62567 0.1205 0.20573 0.0
C1518 C 0.62629 0.13719 0.21137 0.0
C1519 C 0.61209 0.14803 0.20656 0.0
C1520 C 0.56591 0.10411 0.13372 0.0
C1521 C 0.55193 0.09296 0.13729 0.0
C1522 C 0.56402 0.11809 0.12228 0.0
C1523 C 0.54808 0.12147 0.11402 0.0
H1524 H 0.57878 0.10123 0.13858 0.0
H1525 H 0.5755 0.12551 0.11901 0.0
S1526 S 0.5064 0.09904 0.12284 0.0
N1527 N 0.52083 0.08836 0.13451 0.0
N1528 N 0.51726 0.11466 0.11303 0.0
C1529 C 0.53352 0.11176 0.11919 0.0
C1530 C 0.53545 0.0975 0.13084 0.0
C1531 C 0.04602 0.88357 0.37444 0.0
C1532 C 0.03549 0.88568 0.38924 0.0
C1533 C 0.04871 0.89722 0.36276 0.0
C1534 C 0.04108 0.91352 0.36556 0.0
H1535 H 0.0532 0.87166 0.37247 0.0
H1536 H 0.05805 0.89543 0.35242 0.0
S1537 S 0.0093 0.9246 0.39993 0.0
N1538 N 0.01499 0.9044 0.40422 0.0
N1539 N 0.02017 0.93011 0.38232 0.0
C1540 C 0.02899 0.91518 0.37912 0.0
C1541 C 0.02614 0.90124 0.39096 0.0
C1542 C 0.34905 0.28458 0.62566 0.0
C1543 C 0.34908 0.29625 0.61161 0.0
C1544 C 0.36323 0.28338 0.63693 0.0
C1545 C 0.37794 0.29392 0.63465 0.0
H1546 H 0.33748 0.27724 0.62876 0.0
H1547 H 0.36203 0.27513 0.64824 0.0
S1548 S 0.38613 0.32355 0.59758 0.0
N1549 N 0.36625 0.31628 0.59431 0.0
N1550 N 0.39299 0.31399 0.61546 0.0
C1551 C 0.37895 0.30412 0.61952 0.0
C1552 C 0.3645 0.30527 0.60796 0.0
C1553 C 0.96957 0.57712 0.9176 0.0
C1554 C 0.97374 0.59271 0.90911 0.0
C1555 C 0.96368 0.56268 0.90824 0.0
C1556 C 0.96183 0.56331 0.89007 0.0
H1557 H 0.96907 0.57658 0.93163 0.0
H1558 H 0.95921 0.5515 0.91548 0.0
S1559 S 0.97605 0.59941 0.86153 0.0
N1560 N 0.97933 0.60666 0.8814 0.0
N1561 N 0.96837 0.57954 0.86377 0.0
C1562 C 0.96832 0.57797 0.88132 0.0
C1563 C 0.97429 0.59266 0.89087 0.0
C1564 C 0.12772 0.69558 0.11237 0.0
C1565 C 0.14313 0.70527 0.11285 0.0
C1566 C 0.11533 0.69719 0.12558 0.0
C1567 C 0.11788 0.70863 0.13963 0.0
H1568 H 0.12596 0.68553 0.10271 0.0
H1569 H 0.10425 0.68854 0.12536 0.0
S1570 S 0.15436 0.73971 0.14448 0.0
N1571 N 0.15897 0.72872 0.1267 0.0
N1572 N 0.13565 0.73195 0.15142 0.0
C1573 C 0.13226 0.71986 0.13905 0.0
C1574 C 0.14491 0.71812 0.12567 0.0
C1575 C 0.45395 0.90492 0.1414 0.0
C1576 C 0.45951 0.92226 0.14085 0.0
C1577 C 0.45916 0.89313 0.1286 0.0
C1578 C 0.47024 0.89824 0.11499 0.0
H1579 H 0.44415 0.90089 0.15063 0.0
H1580 H 0.45338 0.88032 0.12861 0.0
S1581 S 0.49157 0.94111 0.11039 0.0
N1582 N 0.47898 0.94317 0.12759 0.0
N1583 N 0.48901 0.92094 0.10365 0.0
C1584 C 0.47764 0.91488 0.11569 0.0
C1585 C 0.47218 0.92693 0.12861 0.0
C1586 C 0.32907 0.21949 0.86452 0.0
C1587 C 0.33471 0.2089 0.87833 0.0
C1588 C 0.34035 0.22423 0.85107 0.0
C1589 C 0.35758 0.21837 0.85093 0.0
H1590 H 0.3155 0.22293 0.86333 0.0
H1591 H 0.33509 0.23103 0.83995 0.0
S1592 S 0.37975 0.19384 0.88588 0.0
N1593 N 0.35944 0.1954 0.8925 0.0
N1594 N 0.3806 0.2042 0.86716 0.0
C1595 C 0.36389 0.20962 0.86566 0.0
C1596 C 0.35246 0.20493 0.87943 0.0
C1597 C 0.6794 0.27506 0.33415 0.0
C1598 C 0.67815 0.2763 0.35236 0.0
C1599 C 0.66463 0.27235 0.32388 0.0
C1600 C 0.64813 0.27082 0.33148 0.0
H1601 H 0.69156 0.27767 0.32764 0.0
H1602 H 0.66595 0.27335 0.30993 0.0
S1603 S 0.63864 0.26799 0.37856 0.0
N1604 N 0.65966 0.27192 0.37757 0.0
N1605 N 0.63197 0.26685 0.35825 0.0
C1606 C 0.64713 0.26954 0.34966 0.0
C1607 C 0.66213 0.27233 0.36012 0.0
C1608 C 0.12379 0.05584 0.61574 0.0
C1609 C 0.11219 0.04174 0.61463 0.0
C1610 C 0.13556 0.05946 0.60238 0.0
C1611 C 0.13609 0.04916 0.58737 0.0
H1612 H 0.12304 0.06485 0.62649 0.0
H1613 H 0.14318 0.07124 0.60321 0.0
S1614 S 0.1115 0.00846 0.57986 0.0
N1615 N 0.10425 0.01568 0.59866 0.0
N1616 N 0.12633 0.02255 0.57353 0.0
C1617 C 0.126 0.03394 0.58698 0.0
C1618 C 0.11405 0.0302 0.60062 0.0
C1619 C 0.67663 0.8679 0.8478 0.0
C1620 C 0.6915 0.86991 0.83743 0.0
C1621 C 0.67687 0.85727 0.86251 0.0
C1622 C 0.69199 0.84826 0.86741 0.0
H1623 H 0.66433 0.87341 0.84384 0.0
H1624 H 0.66479 0.85526 0.86938 0.0
S1625 S 0.73547 0.85296 0.84733 0.0
N1626 N 0.72257 0.86486 0.83508 0.0
N1627 N 0.723 0.84481 0.8627 0.0
C1628 C 0.70742 0.8518 0.85836 0.0
C1629 C 0.70718 0.86267 0.84338 0.0
C1630 C 0.89315 0.46148 0.08788 0.0
C1631 C 0.88069 0.44824 0.08579 0.0
C1632 C 0.90416 0.46188 0.10229 0.0
C1633 C 0.90312 0.44908 0.11521 0.0
H1634 H 0.89531 0.47096 0.07774 0.0
H1635 H 0.91429 0.4716 0.10266 0.0
S1636 S 0.86977 0.41444 0.11832 0.0
N1637 N 0.86581 0.42404 0.09959 0.0
N1638 N 0.88645 0.42487 0.12677 0.0
C1639 C 0.88944 0.43699 0.11432 0.0
C1640 C 0.87821 0.43657 0.09961 0.0
C1641 C 0.27609 0.63495 0.35328 0.0
C1642 C 0.2742 0.65313 0.35386 0.0
C1643 C 0.27982 0.62637 0.33773 0.0
C1644 C 0.28165 0.63561 0.32212 0.0
H1645 H 0.27629 0.62743 0.36514 0.0
H1646 H 0.28261 0.61262 0.33827 0.0
S1647 S 0.27254 0.68251 0.31578 0.0
N1648 N 0.27053 0.67947 0.33687 0.0
N1649 N 0.27726 0.66332 0.30756 0.0
C1650 C 0.27723 0.65337 0.32211 0.0
C1651 C 0.2735 0.66213 0.33801 0.0
C1652 C 0.10815 0.97163 0.39545 0.0
C1653 C 0.11019 0.96257 0.37978 0.0
C1654 C 0.11968 0.96907 0.40924 0.0
C1655 C 0.13372 0.95745 0.40784 0.0
H1656 H 0.09684 0.97967 0.39761 0.0
H1657 H 0.11681 0.97529 0.4215 0.0
S1658 S 0.14706 0.93395 0.36802 0.0
N1659 N 0.12902 0.94407 0.3625 0.0
N1660 N 0.15071 0.93925 0.38845 0.0
C1661 C 0.13707 0.94997 0.39155 0.0
C1662 C 0.12525 0.9525 0.37752 0.0
C1663 C 0.79899 0.88374 0.6509 0.0
C1664 C 0.79419 0.87892 0.6678 0.0
C1665 C 0.79564 0.87276 0.63682 0.0
C1666 C 0.78727 0.85666 0.63912 0.0
H1667 H 0.80671 0.89527 0.6487 0.0
H1668 H 0.80072 0.87641 0.62423 0.0
S1669 S 0.76841 0.84022 0.68021 0.0
N1670 N 0.77793 0.85863 0.68563 0.0
N1671 N 0.77154 0.83802 0.65915 0.0
C1672 C 0.78055 0.85275 0.65561 0.0
C1673 C 0.78407 0.86388 0.66997 0.0
C1674 C 0.87657 0.52339 0.90592 0.0
C1675 C 0.87914 0.53157 0.88986 0.0
C1676 C 0.86369 0.52924 0.91731 0.0
C1677 C 0.85286 0.5433 0.91293 0.0
H1678 H 0.88557 0.51361 0.91044 0.0
H1679 H 0.86326 0.52377 0.93025 0.0
S1680 S 0.85156 0.56595 0.87055 0.0
N1681 N 0.86773 0.55203 0.86872 0.0
N1682 N 0.84347 0.56298 0.89016 0.0
C1683 C 0.85378 0.54993 0.896 0.0
C1684 C 0.867 0.5441 0.88445 0.0
C1685 C 0.20611 0.62746 0.15128 0.0
C1686 C 0.19387 0.6139 0.15127 0.0
C1687 C 0.20696 0.6394 0.13764 0.0
C1688 C 0.19547 0.63832 0.12353 0.0
H1689 H 0.21427 0.62963 0.16252 0.0
H1690 H 0.21576 0.65028 0.13888 0.0
S1691 S 0.1636 0.6031 0.11548 0.0
N1692 N 0.17197 0.59845 0.13464 0.0
N1693 N 0.17357 0.62087 0.1089 0.0
C1694 C 0.18451 0.62372 0.12243 0.0
C1695 C 0.18373 0.61148 0.13632 0.0
C1696 C 0.08658 0.62028 0.04409 0.0
C1697 C 0.08717 0.63486 0.05508 0.0
C1698 C 0.10083 0.60916 0.04245 0.0
C1699 C 0.11615 0.61212 0.05186 0.0
H1700 H 0.07461 0.61672 0.03766 0.0
H1701 H 0.09926 0.59746 0.03483 0.0
S1702 S 0.12576 0.65059 0.07917 0.0
N1703 N 0.10539 0.65328 0.07311 0.0
N1704 N 0.13222 0.63235 0.07001 0.0
C1705 C 0.11761 0.62769 0.06131 0.0
C1706 C 0.1031 0.6391 0.06289 0.0
C1707 C 0.13178 0.86823 0.29967 0.0
C1708 C 0.14668 0.86777 0.28907 0.0
C1709 C 0.12094 0.85374 0.30133 0.0
C1710 C 0.12466 0.83822 0.29254 0.0
H1711 H 0.12905 0.87948 0.30762 0.0
H1712 H 0.11047 0.85429 0.31068 0.0
S1713 S 0.1596 0.83155 0.26013 0.0
N1714 N 0.16273 0.85148 0.26733 0.0
N1715 N 0.14237 0.82424 0.27052 0.0
C1716 C 0.13832 0.83824 0.28043 0.0
C1717 C 0.14933 0.85303 0.27867 0.0
C1718 C 0.89141 0.86669 0.5439 0.0
C1719 C 0.90753 0.86832 0.53557 0.0
C1720 C 0.8787 0.87954 0.5421 0.0
C1721 C 0.8816 0.89437 0.53179 0.0
H1722 H 0.88918 0.85631 0.55311 0.0
H1723 H 0.867 0.8784 0.54978 0.0
S1724 S 0.92011 0.90249 0.50413 0.0
N1725 N 0.92457 0.88419 0.51433 0.0
N1726 N 0.90062 0.90829 0.5108 0.0
C1727 C 0.89681 0.89503 0.52177 0.0
C1728 C 0.90981 0.882 0.52371 0.0
C1729 C 0.84688 0.67933 0.77958 0.0
C1730 C 0.86481 0.67774 0.78279 0.0
C1731 C 0.83662 0.66474 0.7761 0.0
C1732 C 0.84392 0.64804 0.77575 0.0
H1733 H 0.84043 0.69171 0.78106 0.0
H1734 H 0.82269 0.66644 0.77539 0.0
S1735 S 0.8908 0.63747 0.77839 0.0
N1736 N 0.88989 0.65859 0.78174 0.0
N1737 N 0.87059 0.6312 0.77516 0.0
C1738 C 0.8621 0.64659 0.77659 0.0
C1739 C 0.87256 0.66144 0.78017 0.0
C1740 C 0.10612 0.38146 0.96752 0.0
C1741 C 0.09969 0.39627 0.97608 0.0
C1742 C 0.09516 0.36769 0.96301 0.0
C1743 C 0.07734 0.3684 0.96671 0.0
H1744 H 0.11946 0.38108 0.96311 0.0
H1745 H 0.10037 0.35731 0.95512 0.0
S1746 S 0.05483 0.40239 0.99221 0.0
N1747 N 0.07502 0.40937 0.9907 0.0
N1748 N 0.05434 0.38356 0.98202 0.0
C1749 C 0.07118 0.38215 0.977 0.0
C1750 C 0.08239 0.39609 0.98177 0.0
C1751 C 0.36861 0.84622 0.21784 0.0
C1752 C 0.37972 0.84423 0.20345 0.0
C1753 C 0.35771 0.86064 0.21941 0.0
C1754 C 0.3575 0.87366 0.20666 0.0
H1755 H 0.36733 0.83598 0.22737 0.0
H1756 H 0.3485 0.86087 0.23001 0.0
S1757 S 0.3875 0.87715 0.16917 0.0
N1758 N 0.39233 0.85833 0.17816 0.0
N1759 N 0.37188 0.8855 0.18119 0.0
C1760 C 0.37005 0.87293 0.19341 0.0
C1761 C 0.38117 0.85821 0.1918 0.0
C1762 C 0.889 0.13654 0.4389 0.0
C1763 C 0.90398 0.13579 0.44924 0.0
C1764 C 0.87596 0.12396 0.4405 0.0
C1765 C 0.87739 0.11029 0.45258 0.0
H1766 H 0.88804 0.1459 0.42847 0.0
H1767 H 0.86524 0.12435 0.43142 0.0
S1768 S 0.91228 0.10516 0.48537 0.0
N1769 N 0.91818 0.12223 0.47387 0.0
N1770 N 0.89362 0.09871 0.47707 0.0
C1771 C 0.89134 0.11068 0.46434 0.0
C1772 C 0.90466 0.12341 0.4626 0.0
C1773 C 0.63874 0.6622 0.72237 0.0
C1774 C 0.63358 0.64535 0.71777 0.0
C1775 C 0.62854 0.67658 0.71797 0.0
C1776 C 0.61276 0.6746 0.70895 0.0
H1777 H 0.65138 0.66447 0.72806 0.0
H1778 H 0.63364 0.68939 0.72066 0.0
S1779 S 0.59175 0.63277 0.69759 0.0
N1780 N 0.61044 0.6272 0.7064 0.0
N1781 N 0.59115 0.65416 0.69828 0.0
C1782 C 0.60655 0.65766 0.70611 0.0
C1783 C 0.61702 0.64305 0.71047 0.0
C1784 C 0.53691 0.59803 0.6232 0.0
C1785 C 0.53245 0.5813 0.6175 0.0
C1786 C 0.53457 0.61248 0.61245 0.0
C1787 C 0.52758 0.61078 0.59564 0.0
H1788 H 0.54359 0.59986 0.63542 0.0
H1789 H 0.53939 0.62489 0.61694 0.0
S1790 S 0.50981 0.5704 0.57642 0.0
N1791 N 0.51772 0.5643 0.59536 0.0
N1792 N 0.51332 0.59149 0.57515 0.0
C1793 C 0.52112 0.59447 0.59067 0.0
C1794 C 0.52358 0.57971 0.6016 0.0
C1795 C 0.06021 0.37508 0.87917 0.0
C1796 C 0.04449 0.37314 0.88831 0.0
C1797 C 0.06286 0.38898 0.86781 0.0
C1798 C 0.0499 0.40152 0.86517 0.0
H1799 H 0.07102 0.36647 0.88167 0.0
H1800 H 0.07566 0.39065 0.86226 0.0
S1801 S 0.00489 0.39976 0.88228 0.0
N1802 N 0.01468 0.38298 0.89128 0.0
N1803 N 0.01958 0.40909 0.86981 0.0
C1804 C 0.03341 0.39848 0.87248 0.0
C1805 C 0.03071 0.38429 0.88409 0.0
C1806 C 0.33779 0.77794 0.13447 0.0
C1807 C 0.32132 0.77859 0.14227 0.0
C1808 C 0.35276 0.77538 0.14442 0.0
C1809 C 0.35188 0.77347 0.16258 0.0
H1810 H 0.33935 0.78082 0.12081 0.0
H1811 H 0.3652 0.77647 0.13797 0.0
S1812 S 0.31157 0.76899 0.18847 0.0
N1813 N 0.30474 0.77312 0.1686 0.0
N1814 N 0.33294 0.76854 0.18732 0.0
C1815 C 0.33538 0.77161 0.17014 0.0
C1816 C 0.32008 0.77417 0.15998 0.0
C1817 C 0.96837 0.09274 0.37751 0.0
C1818 C 0.95798 0.09366 0.36251 0.0
C1819 C 0.96953 0.10671 0.38904 0.0
C1820 C 0.96025 0.12209 0.38603 0.0
H1821 H 0.97464 0.08068 0.38108 0.0
H1822 H 0.9766 0.10487 0.40104 0.0
S1823 S 0.93472 0.13269 0.34662 0.0
N1824 N 0.94085 0.11237 0.34372 0.0
N1825 N 0.94305 0.13867 0.36541 0.0
C1826 C 0.95151 0.12393 0.3701 0.0
C1827 C 0.9504 0.10971 0.35829 0.0
C1828 C 0.1367 0.21479 0.64213 0.0
C1829 C 0.13758 0.21951 0.65977 0.0
C1830 C 0.15172 0.21298 0.63209 0.0
C1831 C 0.16822 0.21581 0.63931 0.0
H1832 H 0.12443 0.21119 0.63631 0.0
H1833 H 0.15039 0.20797 0.61904 0.0
S1834 S 0.17729 0.23293 0.68341 0.0
N1835 N 0.15605 0.23031 0.68297 0.0
N1836 N 0.1843 0.22703 0.66407 0.0
C1837 C 0.16912 0.22269 0.65623 0.0
C1838 C 0.15378 0.22454 0.66647 0.0
C1839 C 0.46449 0.39988 0.61953 0.0
C1840 C 0.45354 0.39857 0.63409 0.0
C1841 C 0.46534 0.38663 0.60716 0.0
C1842 C 0.45513 0.37161 0.60881 0.0
H1843 H 0.47151 0.4118 0.61701 0.0
H1844 H 0.47301 0.38882 0.5956 0.0
S1845 S 0.42727 0.36019 0.64637 0.0
N1846 N 0.43448 0.37985 0.65086 0.0
N1847 N 0.43609 0.35486 0.62761 0.0
C1848 C 0.44562 0.3693 0.62424 0.0
C1849 C 0.44485 0.3828 0.63692 0.0
C1850 C 0.34651 0.70631 0.37771 0.0
C1851 C 0.34398 0.69032 0.38622 0.0
C1852 C 0.3606 0.70895 0.3666 0.0
C1853 C 0.37277 0.69574 0.36358 0.0
H1854 H 0.33685 0.71647 0.37857 0.0
H1855 H 0.36121 0.72102 0.35943 0.0
S1856 S 0.3749 0.65339 0.38646 0.0
N1857 N 0.35686 0.66244 0.39361 0.0
N1858 N 0.38347 0.66749 0.37281 0.0
C1859 C 0.37166 0.68055 0.37369 0.0
C1860 C 0.35725 0.67784 0.38503 0.0
C1861 C 0.63158 0.78574 0.8838 0.0
C1862 C 0.64766 0.77726 0.88502 0.0
C1863 C 0.62055 0.78267 0.86968 0.0
C1864 C 0.62509 0.77084 0.85651 0.0
H1865 H 0.62842 0.79623 0.89259 0.0
H1866 H 0.60912 0.79073 0.86828 0.0
S1867 S 0.66369 0.74227 0.85619 0.0
N1868 N 0.66604 0.75426 0.87378 0.0
N1869 N 0.64514 0.74834 0.84736 0.0
C1870 C 0.63989 0.76054 0.85894 0.0
C1871 C 0.65122 0.76379 0.87321 0.0
C1872 C 0.61707 0.53169 0.58106 0.0
C1873 C 0.63085 0.54307 0.58495 0.0
C1874 C 0.60435 0.52773 0.59341 0.0
C1875 C 0.6049 0.53515 0.61003 0.0
H1876 H 0.61537 0.52683 0.56799 0.0
H1877 H 0.59329 0.52005 0.5894 0.0
S1878 S 0.64024 0.56248 0.62797 0.0
N1879 N 0.64583 0.55922 0.60756 0.0
N1880 N 0.62187 0.55182 0.63075 0.0
C1881 C 0.61962 0.54491 0.61469 0.0
C1882 C 0.63265 0.54883 0.60216 0.0
C1883 C 0.22993 0.33874 0.83257 0.0
C1884 C 0.22676 0.35675 0.8325 0.0
C1885 C 0.2329 0.32976 0.84809 0.0
C1886 C 0.23277 0.33849 0.8641 0.0
H1887 H 0.22867 0.33123 0.82077 0.0
H1888 H 0.23347 0.31573 0.84764 0.0
S1889 S 0.2304 0.38614 0.87044 0.0
N1890 N 0.22762 0.3834 0.84939 0.0
N1891 N 0.23323 0.36652 0.87854 0.0
C1892 C 0.23215 0.35674 0.86391 0.0
C1893 C 0.22908 0.36588 0.84812 0.0
C1894 C 0.36346 0.93686 0.10849 0.0
C1895 C 0.36105 0.94943 0.09551 0.0
C1896 C 0.37404 0.94018 0.12287 0.0
C1897 C 0.38259 0.95622 0.12487 0.0
H1898 H 0.35833 0.92387 0.10689 0.0
H1899 H 0.37637 0.92966 0.13188 0.0
S1900 S 0.37689 0.99492 0.0968 0.0
N1901 N 0.36532 0.97962 0.08729 0.0
N1902 N 0.38526 0.98584 0.11429 0.0
C1903 C 0.37864 0.96955 0.11306 0.0
C1904 C 0.36783 0.96617 0.0984 0.0
C1905 C 0.7856 0.13221 0.36133 0.0
C1906 C 0.79666 0.13088 0.37575 0.0
C1907 C 0.78722 0.12086 0.34727 0.0
C1908 C 0.7999 0.10771 0.34712 0.0
H1909 H 0.77656 0.1429 0.36022 0.0
H1910 H 0.77936 0.12328 0.33587 0.0
S1911 S 0.82887 0.09597 0.3837 0.0
N1912 N 0.81829 0.11328 0.39056 0.0
N1913 N 0.82141 0.09199 0.36402 0.0
C1914 C 0.80949 0.10486 0.36236 0.0
C1915 C 0.80788 0.11649 0.3767 0.0
C1916 C 0.62902 0.4616 0.40921 0.0
C1917 C 0.63865 0.4461 0.41056 0.0
C1918 C 0.61858 0.46499 0.39475 0.0
C1919 C 0.6174 0.45305 0.38106 0.0
H1920 H 0.6285 0.47066 0.41993 0.0
H1921 H 0.61044 0.47644 0.39495 0.0
S1922 S 0.64352 0.4129 0.37602 0.0
N1923 N 0.64889 0.4204 0.39534 0.0
N1924 N 0.62937 0.42687 0.3681 0.0
C1925 C 0.62854 0.43857 0.38126 0.0
C1926 C 0.63919 0.4351 0.39601 0.0
C1927 C 0.28724 0.35631 0.64572 0.0
C1928 C 0.29431 0.3591 0.62918 0.0
C1929 C 0.29002 0.36821 0.65914 0.0
C1930 C 0.29984 0.3834 0.65646 0.0
H1931 H 0.28077 0.34421 0.64877 0.0
H1932 H 0.28552 0.36484 0.67202 0.0
S1933 S 0.31721 0.39873 0.61434 0.0
N1934 N 0.30864 0.3796 0.60996 0.0
N1935 N 0.31377 0.40206 0.63521 0.0
C1936 C 0.30506 0.38736 0.63946 0.0
C1937 C 0.30235 0.37515 0.62581 0.0
C1938 C 0.3858 0.0327 0.88449 0.0
C1939 C 0.40057 0.02347 0.88999 0.0
C1940 C 0.37203 0.03607 0.89586 0.0
C1941 C 0.37275 0.03057 0.91321 0.0
H1942 H 0.3855 0.03859 0.87173 0.0
H1943 H 0.36174 0.04458 0.89152 0.0
S1944 S 0.40671 0.00273 0.93287 0.0
N1945 N 0.41366 0.00631 0.91293 0.0
N1946 N 0.3879 0.01284 0.93445 0.0
C1947 C 0.38644 0.01955 0.91822 0.0
C1948 C 0.40036 0.01594 0.90655 0.0
C1949 C 0.72331 0.14448 0.14476 0.0
C1950 C 0.72269 0.16271 0.14367 0.0
C1951 C 0.72033 0.1359 0.16047 0.0
C1952 C 0.71676 0.14522 0.17573 0.0
H1953 H 0.72444 0.13669 0.13312 0.0
H1954 H 0.71944 0.12188 0.16029 0.0
S1955 S 0.71902 0.19309 0.1808 0.0
N1956 N 0.72214 0.18976 0.15989 0.0
N1957 N 0.71678 0.17366 0.18951 0.0
C1958 C 0.71873 0.1634 0.17531 0.0
C1959 C 0.72171 0.17216 0.15924 0.0
C1960 C 0.57846 0.11322 0.02685 0.0
C1961 C 0.58418 0.12703 0.03739 0.0
C1962 C 0.58929 0.0991 0.02313 0.0
C1963 C 0.60612 0.09825 0.03002 0.0
H1964 H 0.56506 0.11262 0.02268 0.0
H1965 H 0.58387 0.08811 0.01625 0.0
S1966 S 0.62854 0.13271 0.05508 0.0
N1967 N 0.60873 0.14028 0.0521 0.0
N1968 N 0.62906 0.11371 0.0452 0.0
C1969 C 0.61265 0.11288 0.0388 0.0
C1970 C 0.60168 0.12733 0.04244 0.0
C1971 C 0.64704 0.35904 0.27864 0.0
C1972 C 0.64703 0.37208 0.29135 0.0
C1973 C 0.63541 0.34512 0.27957 0.0
C1974 C 0.62336 0.34368 0.29327 0.0
H1975 H 0.65689 0.35886 0.26864 0.0
H1976 H 0.63683 0.33479 0.27016 0.0
S1977 S 0.61502 0.37707 0.32694 0.0
N1978 N 0.6317 0.38466 0.31588 0.0
N1979 N 0.6099 0.35843 0.31773 0.0
C1980 C 0.62186 0.35775 0.30481 0.0
C1981 C 0.63371 0.37194 0.30384 0.0
C1982 C 0.37149 0.37172 0.55356 0.0
C1983 C 0.37289 0.38628 0.54257 0.0
C1984 C 0.38462 0.35918 0.55431 0.0
C1985 C 0.39965 0.36084 0.54417 0.0
H1986 H 0.36074 0.37058 0.56253 0.0
H1987 H 0.38369 0.34908 0.56403 0.0
S1988 S 0.40787 0.39413 0.51045 0.0
N1989 N 0.38913 0.3998 0.51909 0.0
N1990 N 0.41385 0.3763 0.52068 0.0
C1991 C 0.40028 0.37416 0.53173 0.0
C1992 C 0.38688 0.38688 0.53087 0.0
C1993 C 0.36859 0.15718 0.7727 0.0
C1994 C 0.35987 0.17303 0.77497 0.0
C1995 C 0.35944 0.14191 0.76915 0.0
C1996 C 0.34121 0.14186 0.76787 0.0
H1997 H 0.3824 0.15622 0.77506 0.0
H1998 H 0.36659 0.12981 0.76909 0.0
S1999 S 0.31288 0.18074 0.76752 0.0
N2000 N 0.33245 0.1884 0.77161 0.0
N2001 N 0.31526 0.15959 0.76523 0.0
C2002 C 0.33265 0.15796 0.76753 0.0
C2003 C 0.34199 0.17359 0.77109 0.0
C2004 C 0.61201 0.8923 0.95193 0.0
C2005 C 0.62395 0.89205 0.93817 0.0
C2006 C 0.59661 0.88277 0.95109 0.0
C2007 C 0.59246 0.8727 0.93639 0.0
H2008 H 0.61394 0.9008 0.96294 0.0
H2009 H 0.58733 0.88443 0.96151 0.0
S2010 S 0.62168 0.86385 0.89918 0.0
N2011 N 0.63237 0.87802 0.91116 0.0
N2012 N 0.60325 0.86026 0.90947 0.0
C2013 C 0.60527 0.87065 0.92356 0.0
C2014 C 0.62104 0.88033 0.92446 0.0
C2015 C 0.85917 0.3419 0.21042 0.0
C2016 C 0.87233 0.34001 0.19783 0.0
C2017 C 0.84999 0.35746 0.21218 0.0
C2018 C 0.85366 0.37172 0.20148 0.0
H2019 H 0.85495 0.33092 0.2181 0.0
H2020 H 0.83912 0.35784 0.22107 0.0
S2021 S 0.89003 0.37519 0.17012 0.0
N2022 N 0.89084 0.35495 0.17707 0.0
N2023 N 0.87365 0.38424 0.1805 0.0
C2024 C 0.86814 0.37073 0.1904 0.0
C2025 C 0.87749 0.35486 0.18857 0.0
C2026 C 0.39564 0.63271 0.45539 0.0
C2027 C 0.41244 0.63474 0.46211 0.0
C2028 C 0.38571 0.61808 0.45959 0.0
C2029 C 0.39217 0.60515 0.47079 0.0
H2030 H 0.39088 0.64142 0.44545 0.0
H2031 H 0.37345 0.61625 0.45298 0.0
S2032 S 0.43373 0.60678 0.49491 0.0
N2033 N 0.43386 0.62442 0.48276 0.0
N2034 N 0.41508 0.59702 0.49089 0.0
C2035 C 0.40796 0.60826 0.47933 0.0
C2036 C 0.41814 0.62306 0.4749 0.0
C2037 C 0.13232 0.13703 0.72219 0.0
C2038 C 0.13245 0.1236 0.70989 0.0
C2039 C 0.12116 0.15122 0.72037 0.0
C2040 C 0.1097 0.15254 0.70617 0.0
H2041 H 0.14183 0.13732 0.73253 0.0
H2042 H 0.12251 0.16184 0.72947 0.0
S2043 S 0.10163 0.11832 0.67327 0.0
N2044 N 0.11765 0.11063 0.68522 0.0
N2045 N 0.09671 0.13739 0.6817 0.0
C2046 C 0.10814 0.13812 0.69509 0.0
C2047 C 0.11955 0.12364 0.69695 0.0
C2048 C 0.02422 0.09313 0.60049 0.0
C2049 C 0.03067 0.10995 0.60311 0.0
C2050 C 0.02805 0.0798 0.61223 0.0
C2051 C 0.0383 0.08289 0.62705 0.0
H2052 H 0.01753 0.08984 0.58859 0.0
H2053 H 0.02407 0.06673 0.60896 0.0
S2054 S 0.0546 0.1257 0.64179 0.0
N2055 N 0.04502 0.12973 0.62307 0.0
N2056 N 0.05214 0.1047 0.6452 0.0
C2057 C 0.04292 0.1001 0.63089 0.0
C2058 C 0.03916 0.11364 0.61886 0.0
C2059 C 0.52838 0.92494 0.87489 0.0
C2060 C 0.53645 0.93952 0.88234 0.0
C2061 C 0.52249 0.91122 0.88519 0.0
C2062 C 0.52455 0.9115 0.90333 0.0
H2063 H 0.52788 0.9234 0.86093 0.0
H2064 H 0.51799 0.89956 0.87876 0.0
S2065 S 0.53995 0.94888 0.92944 0.0
N2066 N 0.54242 0.95515 0.90912 0.0
N2067 N 0.5315 0.92922 0.92849 0.0
C2068 C 0.53007 0.92709 0.91105 0.0
C2069 C 0.53608 0.94113 0.90053 0.0
C2070 C 0.83849 0.2757 0.13583 0.0
C2071 C 0.83735 0.27514 0.15405 0.0
C2072 C 0.8246 0.28156 0.12574 0.0
C2073 C 0.80903 0.28706 0.13348 0.0
H2074 H 0.85077 0.27326 0.12945 0.0
H2075 H 0.82669 0.28316 0.11194 0.0
S2076 S 0.79782 0.28327 0.18017 0.0
N2077 N 0.81825 0.27698 0.17905 0.0
N2078 N 0.79199 0.28782 0.16008 0.0
C2079 C 0.80688 0.28411 0.1514 0.0
C2080 C 0.82108 0.27811 0.16169 0.0
C2081 C 0.46529 0.61311 0.38601 0.0
C2082 C 0.45142 0.6249 0.38681 0.0
C2083 C 0.46435 0.59828 0.37559 0.0
C2084 C 0.44948 0.59462 0.3656 0.0
H2085 H 0.47645 0.61462 0.3944 0.0
H2086 H 0.47487 0.58902 0.37645 0.0
S2087 S 0.41174 0.62394 0.35952 0.0
N2088 N 0.42396 0.63384 0.37404 0.0
N2089 N 0.42213 0.60591 0.35451 0.0
C2090 C 0.43646 0.6074 0.36467 0.0
C2091 C 0.43743 0.62254 0.3753 0.0
C2092 C 0.63982 0.70915 0.61425 0.0
C2093 C 0.65602 0.71682 0.61753 0.0
C2094 C 0.62563 0.71239 0.62513 0.0
C2095 C 0.6271 0.72354 0.63954 0.0
H2096 H 0.63847 0.69934 0.60428 0.0
H2097 H 0.61379 0.70511 0.62298 0.0
S2098 S 0.66558 0.75004 0.651 0.0
N2099 N 0.67188 0.73842 0.63416 0.0
N2100 N 0.64516 0.74462 0.65453 0.0
C2101 C 0.64257 0.73296 0.64158 0.0
C2102 C 0.65707 0.72954 0.63058 0.0
C2103 C 0.94459 0.89024 0.62997 0.0
C2104 C 0.95585 0.90455 0.62918 0.0
C2105 C 0.94566 0.87687 0.61771 0.0
C2106 C 0.95809 0.87728 0.6043 0.0
H2107 H 0.93393 0.89009 0.63912 0.0
H2108 H 0.93594 0.86673 0.61812 0.0
S2109 S 0.99312 0.90995 0.59925 0.0
N2110 N 0.98164 0.9169 0.61593 0.0
N2111 N 0.98379 0.89173 0.59296 0.0
C2112 C 0.97067 0.8905 0.60467 0.0
C2113 C 0.9695 0.90416 0.6171 0.0
C2114 C 0.85766 0.21437 0.3631 0.0
C2115 C 0.87309 0.20467 0.36288 0.0
C2116 C 0.845 0.21142 0.37576 0.0
C2117 C 0.84737 0.19882 0.38876 0.0
H2118 H 0.85467 0.22327 0.35265 0.0
H2119 H 0.83269 0.2181 0.37454 0.0
S2120 S 0.88714 0.1729 0.39624 0.0
N2121 N 0.89135 0.1842 0.37854 0.0
N2122 N 0.86744 0.17867 0.40234 0.0
C2123 C 0.86356 0.19057 0.38993 0.0
C2124 C 0.87644 0.19347 0.37694 0.0
C2125 C 0.1358 0.30741 0.87721 0.0
C2126 C 0.13422 0.2918 0.86785 0.0
C2127 C 0.14944 0.31006 0.88889 0.0
C2128 C 0.16208 0.29721 0.89162 0.0
H2129 H 0.1271 0.31815 0.87471 0.0
H2130 H 0.15081 0.32279 0.89468 0.0
S2131 S 0.16135 0.25249 0.87374 0.0
N2132 N 0.14459 0.26217 0.86459 0.0
N2133 N 0.17022 0.26712 0.8866 0.0
C2134 C 0.15946 0.28082 0.88394 0.0
C2135 C 0.14554 0.27812 0.87203 0.0
C2136 C 0.58779 0.02243 0.07696 0.0
C2137 C 0.60605 0.0235 0.07728 0.0
C2138 C 0.57824 0.02015 0.09227 0.0
C2139 C 0.58662 0.01885 0.10841 0.0
H2140 H 0.58071 0.02493 0.06509 0.0
H2141 H 0.56425 0.02126 0.09159 0.0
S2142 S 0.63411 0.01552 0.11556 0.0
N2143 N 0.6321 0.01912 0.09456 0.0
N2144 N 0.61415 0.01476 0.12327 0.0
C2145 C 0.60482 0.01733 0.10852 0.0
C2146 C 0.61455 0.01972 0.09297 0.0
C2147 C 0.20004 0.88769 0.35879 0.0
C2148 C 0.20981 0.88708 0.34344 0.0
C2149 C 0.20258 0.87537 0.37191 0.0
C2150 C 0.21506 0.86212 0.37018 0.0
H2151 H 0.1893 0.89667 0.36003 0.0
H2152 H 0.1939 0.87556 0.38296 0.0
S2153 S 0.24672 0.85764 0.33425 0.0
N2154 N 0.23444 0.87423 0.32856 0.0
N2155 N 0.23933 0.85115 0.35327 0.0
C2156 C 0.22631 0.86274 0.35586 0.0
C2157 C 0.22364 0.87521 0.34245 0.0
C2158 C 0.37732 0.46172 0.59683 0.0
C2159 C 0.36303 0.45048 0.59874 0.0
C2160 C 0.38993 0.46321 0.6098 0.0
C2161 C 0.38876 0.45342 0.62512 0.0
H2162 H 0.37949 0.46842 0.58467 0.0
H2163 H 0.40132 0.47099 0.60714 0.0
S2164 S 0.35187 0.42541 0.63821 0.0
N2165 N 0.34689 0.43186 0.61841 0.0
N2166 N 0.37058 0.4347 0.64288 0.0
C2167 C 0.37352 0.44378 0.62806 0.0
C2168 C 0.36061 0.44233 0.61485 0.0
C2169 C 0.81453 0.63802 0.86956 0.0
C2170 C 0.79921 0.64766 0.87212 0.0
C2171 C 0.81583 0.6258 0.85618 0.0
C2172 C 0.80187 0.62281 0.84482 0.0
H2173 H 0.82601 0.6407 0.87719 0.0
H2174 H 0.82831 0.6198 0.85387 0.0
S2175 S 0.75758 0.6412 0.8488 0.0
N2176 N 0.76878 0.65082 0.8643 0.0
N2177 N 0.77128 0.62792 0.83911 0.0
C2178 C 0.7859 0.63082 0.84853 0.0
C2179 C 0.78455 0.64325 0.86218 0.0
C2180 C 0.62221 0.9809 0.88646 0.0
C2181 C 0.61913 0.97136 0.87127 0.0
C2182 C 0.63568 0.97622 0.89775 0.0
C2183 C 0.64658 0.96199 0.89413 0.0
H2184 H 0.61312 0.99079 0.89057 0.0
H2185 H 0.63646 0.98268 0.91021 0.0
S2186 S 0.64646 0.93583 0.8538 0.0
N2187 N 0.63001 0.94934 0.8515 0.0
N2188 N 0.65537 0.94063 0.87269 0.0
C2189 C 0.64513 0.95402 0.87782 0.0
C2190 C 0.63131 0.95866 0.86641 0.0
C2191 C 0.27247 0.8686 0.16983 0.0
C2192 C 0.2837 0.88207 0.16466 0.0
C2193 C 0.26857 0.85478 0.15869 0.0
C2194 C 0.27593 0.85393 0.14208 0.0
H2195 H 0.26782 0.86796 0.18308 0.0
H2196 H 0.26112 0.84398 0.16373 0.0
S2197 S 0.30274 0.88782 0.12089 0.0
N2198 N 0.29953 0.89519 0.14074 0.0
N2199 N 0.29226 0.86918 0.1198 0.0
C2200 C 0.28542 0.86832 0.13603 0.0
C2201 C 0.28926 0.88246 0.14732 0.0
C2202 C 0.41531 0.52797 0.42885 0.0
C2203 C 0.39703 0.52767 0.42859 0.0
C2204 C 0.42497 0.52502 0.41374 0.0
C2205 C 0.41668 0.5217 0.39783 0.0
H2206 H 0.42221 0.532 0.4404 0.0
H2207 H 0.43885 0.52717 0.41422 0.0
S2208 S 0.36957 0.51423 0.39142 0.0
N2209 N 0.37134 0.51985 0.412 0.0
N2210 N 0.38951 0.5143 0.38362 0.0
C2211 C 0.39864 0.51887 0.398 0.0
C2212 C 0.38879 0.5219 0.41337 0.0
C2213 C 0.7085 0.63798 0.667 0.0
C2214 C 0.69671 0.62407 0.66553 0.0
C2215 C 0.71162 0.64921 0.65308 0.0
C2216 C 0.703 0.64701 0.63719 0.0
H2217 H 0.71445 0.64099 0.67936 0.0
H2218 H 0.71978 0.66044 0.65527 0.0
S2219 S 0.67442 0.61017 0.62517 0.0
N2220 N 0.67898 0.60688 0.64584 0.0
N2221 N 0.68487 0.62804 0.61967 0.0
C2222 C 0.6928 0.63203 0.6349 0.0
C2223 C 0.68969 0.62051 0.64906 0.0
C2224 C 0.61731 0.62591 0.5508 0.0
C2225 C 0.61811 0.61313 0.53775 0.0
C2226 C 0.60291 0.63686 0.5524 0.0
C2227 C 0.58873 0.63535 0.54107 0.0
H2228 H 0.62737 0.62676 0.56058 0.0
H2229 H 0.60229 0.64549 0.56347 0.0
S2230 S 0.5861 0.60691 0.50234 0.0
N2231 N 0.60477 0.60179 0.51148 0.0
N2232 N 0.57767 0.62233 0.51455 0.0
C2233 C 0.59022 0.62402 0.52683 0.0
C2234 C 0.60493 0.61292 0.52514 0.0
C2235 C 0.63155 0.82309 0.76806 0.0
C2236 C 0.63808 0.80815 0.77623 0.0
C2237 C 0.64256 0.83668 0.76321 0.0
C2238 C 0.66051 0.83588 0.76648 0.0
H2239 H 0.61769 0.82498 0.76672 0.0
H2240 H 0.63674 0.84861 0.75862 0.0
S2241 S 0.68456 0.79759 0.78292 0.0
N2242 N 0.66398 0.79175 0.78377 0.0
N2243 N 0.68469 0.8174 0.7748 0.0
C2244 C 0.66746 0.81997 0.77213 0.0
C2245 C 0.65621 0.80607 0.77705 0.0
C2246 C 0.41237 0.88158 0.03694 0.0
C2247 C 0.42797 0.89093 0.03826 0.0
C2248 C 0.39682 0.88989 0.03264 0.0
C2249 C 0.39624 0.9079 0.02957 0.0
H2250 H 0.41182 0.86802 0.04057 0.0
H2251 H 0.38496 0.88238 0.03325 0.0
S2252 S 0.43429 0.93721 0.02641 0.0
N2253 N 0.44251 0.91835 0.03233 0.0
N2254 N 0.41321 0.93401 0.02445 0.0
C2255 C 0.41208 0.91688 0.02845 0.0
C2256 C 0.42797 0.90839 0.03281 0.0
C2257 C 0.35677 0.65677 0.26922 0.0
C2258 C 0.35673 0.63961 0.27529 0.0
C2259 C 0.36998 0.66827 0.27407 0.0
C2260 C 0.38366 0.66293 0.28497 0.0
H2261 H 0.34569 0.66184 0.26222 0.0
H2262 H 0.36865 0.68181 0.27056 0.0
S2263 S 0.3916 0.61814 0.30056 0.0
N2264 N 0.37308 0.61692 0.28988 0.0
N2265 N 0.39796 0.63853 0.29892 0.0
C2266 C 0.38497 0.64523 0.28908 0.0
C2267 C 0.37143 0.63356 0.28428 0.0
C2268 C 0.57535 0.40351 0.47235 0.0
C2269 C 0.57557 0.3856 0.46864 0.0
C2270 C 0.59053 0.41234 0.47706 0.0
C2271 C 0.60646 0.40356 0.4782 0.0
H2272 H 0.56373 0.4111 0.47017 0.0
H2273 H 0.59006 0.42636 0.47795 0.0
S2274 S 0.61297 0.35598 0.47501 0.0
N2275 N 0.59228 0.35887 0.47033 0.0
N2276 N 0.62077 0.37548 0.4792 0.0
C2277 C 0.60632 0.38533 0.47704 0.0
C2278 C 0.59089 0.37634 0.4722 0.0
C2279 C 0.89362 0.85849 0.69161 0.0
C2280 C 0.89403 0.84283 0.70087 0.0
C2281 C 0.88131 0.87127 0.69557 0.0
C2282 C 0.86911 0.86883 0.70898 0.0
H2283 H 0.90164 0.86019 0.6802 0.0
H2284 H 0.88057 0.88258 0.68726 0.0
S2285 S 0.86779 0.83171 0.73958 0.0
N2286 N 0.88343 0.8268 0.72582 0.0
N2287 N 0.86043 0.85086 0.73345 0.0
C2288 C 0.87091 0.85416 0.71967 0.0
C2289 C 0.88335 0.84113 0.71554 0.0
C2290 C 0.39302 0.10932 0.96301 0.0
C2291 C 0.38069 0.10757 0.94971 0.0
C2292 C 0.40707 0.12067 0.96125 0.0
C2293 C 0.40937 0.13065 0.94609 0.0
H2294 H 0.39259 0.10097 0.97429 0.0
H2295 H 0.41688 0.12052 0.9713 0.0
S2296 S 0.37781 0.13453 0.90992 0.0
N2297 N 0.3695 0.11951 0.92272 0.0
N2298 N 0.39601 0.14077 0.91932 0.0
C2299 C 0.39591 0.13066 0.93376 0.0
C2300 C 0.38156 0.1191 0.93558 0.0
C2301 C 0.13762 0.64462 0.21865 0.0
C2302 C 0.13442 0.62858 0.21061 0.0
C2303 C 0.12577 0.65829 0.21718 0.0
C2304 C 0.11025 0.65641 0.20772 0.0
H2305 H 0.14994 0.64714 0.22491 0.0
H2306 H 0.12943 0.6708 0.22244 0.0
S2307 S 0.0939 0.61563 0.18806 0.0
N2308 N 0.11323 0.61053 0.19573 0.0
N2309 N 0.09094 0.63627 0.19295 0.0
C2310 C 0.10595 0.63982 0.20148 0.0
C2311 C 0.11808 0.62589 0.2029 0.0
C2312 C 0.02785 0.59082 0.13007 0.0
C2313 C 0.03839 0.59323 0.1448 0.0
C2314 C 0.02532 0.60415 0.11801 0.0
C2315 C 0.03336 0.62036 0.12019 0.0
H2316 H 0.02257 0.57813 0.12712 0.0
H2317 H 0.01824 0.60123 0.10624 0.0
S2318 S 0.05852 0.63472 0.15861 0.0
N2319 N 0.05416 0.6141 0.16248 0.0
N2320 N 0.04944 0.63918 0.13975 0.0
C2321 C 0.04217 0.6236 0.13585 0.0
C2322 C 0.04465 0.61003 0.14822 0.0
C2323 C 0.54545 0.40183 0.36533 0.0
C2324 C 0.54042 0.41928 0.36664 0.0
C2325 C 0.54081 0.38986 0.37819 0.0
C2326 C 0.53081 0.39489 0.39264 0.0
H2327 H 0.55449 0.39777 0.35538 0.0
H2328 H 0.54624 0.37692 0.3775 0.0
S2329 S 0.51087 0.43806 0.3996 0.0
N2330 N 0.52231 0.44027 0.38164 0.0
N2331 N 0.51341 0.4177 0.40572 0.0
C2332 C 0.52379 0.4117 0.39282 0.0
C2333 C 0.52867 0.42393 0.37981 0.0
C2334 C 0.858 0.78263 0.63769 0.0
C2335 C 0.8731 0.79229 0.6344 0.0
C2336 C 0.84312 0.78486 0.62753 0.0
C2337 C 0.84279 0.79677 0.61366 0.0
H2338 H 0.85716 0.77434 0.64899 0.0
H2339 H 0.83142 0.77811 0.6314 0.0
S2340 S 0.8805 0.82164 0.59697 0.0
N2341 N 0.88798 0.81152 0.61429 0.0
N2342 N 0.85997 0.81577 0.59519 0.0
C2343 C 0.85847 0.80484 0.60893 0.0
C2344 C 0.87363 0.80261 0.61934 0.0
C2345 C 0.47856 0.08489 0.91927 0.0
C2346 C 0.48209 0.10077 0.91099 0.0
C2347 C 0.47548 0.0698 0.90957 0.0
C2348 C 0.47585 0.07013 0.89132 0.0
H2349 H 0.47625 0.08446 0.93312 0.0
H2350 H 0.47115 0.05831 0.91639 0.0
S2351 S 0.48992 0.10714 0.86397 0.0
N2352 N 0.4898 0.11494 0.88391 0.0
N2353 N 0.48408 0.0866 0.8657 0.0
C2354 C 0.4819 0.08527 0.88314 0.0
C2355 C 0.48505 0.10059 0.893 0.0
C2356 C 0.64652 0.20918 0.11723 0.0
C2357 C 0.64991 0.19309 0.1092 0.0
C2358 C 0.6323 0.21136 0.12827 0.0
C2359 C 0.62085 0.19761 0.13168 0.0
H2360 H 0.65561 0.2198 0.1161 0.0
H2361 H 0.63108 0.22359 0.13513 0.0
S2362 S 0.62093 0.15463 0.1099 0.0
N2363 N 0.63849 0.16441 0.10253 0.0
N2364 N 0.61163 0.16861 0.12319 0.0
C2365 C 0.62275 0.18223 0.12197 0.0
C2366 C 0.6373 0.17998 0.11072 0.0
C2367 C 0.98455 0.40605 0.11505 0.0
C2368 C 0.97296 0.40222 0.1287 0.0
C2369 C 0.98717 0.39436 0.10134 0.0
C2370 C 0.97818 0.37855 0.10083 0.0
H2371 H 0.99038 0.4188 0.11411 0.0
H2372 H 0.99479 0.39853 0.0903 0.0
S2373 S 0.94983 0.36053 0.13524 0.0
N2374 N 0.95513 0.38003 0.14234 0.0
N2375 N 0.95994 0.35821 0.11652 0.0
C2376 C 0.9684 0.37364 0.11543 0.0
C2377 C 0.96586 0.38544 0.12945 0.0
C2378 C 0.85651 0.71669 0.88287 0.0
C2379 C 0.83957 0.7233 0.88174 0.0
C2380 C 0.86847 0.71951 0.86949 0.0
C2381 C 0.86397 0.7292 0.85465 0.0
H2382 H 0.85998 0.70777 0.89316 0.0
H2383 H 0.88083 0.71286 0.87013 0.0
S2384 S 0.82274 0.75298 0.84784 0.0
N2385 N 0.82001 0.74267 0.86641 0.0
N2386 N 0.84257 0.74815 0.84133 0.0
C2387 C 0.84794 0.73785 0.85458 0.0
C2388 C 0.8357 0.73484 0.86814 0.0
C2389 C 0.15261 0.79545 0.3834 0.0
C2390 C 0.16954 0.78966 0.37999 0.0
C2391 C 0.13919 0.79246 0.37152 0.0
C2392 C 0.14219 0.78345 0.3559 0.0
H2393 H 0.14998 0.80365 0.39449 0.0
H2394 H 0.12666 0.79827 0.37406 0.0
S2395 S 0.18331 0.76204 0.34308 0.0
N2396 N 0.1879 0.77186 0.36155 0.0
N2397 N 0.16265 0.76615 0.33925 0.0
C2398 C 0.15854 0.77579 0.35341 0.0
C2399 C 0.17224 0.77894 0.36546 0.0
C2400 C 0.12863 0.55725 0.21795 0.0
C2401 C 0.1389 0.54979 0.20484 0.0
C2402 C 0.11055 0.55511 0.21787 0.0
C2403 C 0.10245 0.54503 0.20502 0.0
H2404 H 0.13407 0.56713 0.22635 0.0
H2405 H 0.10281 0.56343 0.22613 0.0
S2406 S 0.1245 0.51786 0.1721 0.0
N2407 N 0.14035 0.52859 0.18173 0.0
N2408 N 0.10654 0.5236 0.18225 0.0
C2409 C 0.11302 0.53452 0.19449 0.0
C2410 C 0.13132 0.53719 0.19418 0.0
C2411 C 0.67131 0.33804 0.43055 0.0
C2412 C 0.68906 0.33536 0.42759 0.0
C2413 C 0.66531 0.35343 0.43797 0.0
C2414 C 0.67683 0.36679 0.44265 0.0
H2415 H 0.66186 0.32875 0.42584 0.0
H2416 H 0.65142 0.35527 0.43903 0.0
S2417 S 0.72478 0.36504 0.44011 0.0
N2418 N 0.71831 0.34634 0.43188 0.0
N2419 N 0.70697 0.37543 0.44593 0.0
C2420 C 0.69473 0.36358 0.44144 0.0
C2421 C 0.70087 0.34778 0.43388 0.0
C2422 C 0.88283 0.95947 0.68914 0.0
C2423 C 0.8961 0.94825 0.69466 0.0
C2424 C 0.86554 0.95651 0.69402 0.0
C2425 C 0.86122 0.9426 0.70497 0.0
H2426 H 0.88535 0.96886 0.67899 0.0
H2427 H 0.85539 0.96364 0.68744 0.0
S2428 S 0.89196 0.91241 0.72624 0.0
N2429 N 0.9043 0.92478 0.71384 0.0
N2430 N 0.87201 0.91986 0.72394 0.0
C2431 C 0.87479 0.93334 0.71292 0.0
C2432 C 0.89227 0.93596 0.70746 0.0
C2433 C 0.29299 0.1251 0.93455 0.0
C2434 C 0.30415 0.13724 0.94242 0.0
C2435 C 0.29567 0.10721 0.93668 0.0
C2436 C 0.30914 0.10099 0.94726 0.0
H2437 H 0.28381 0.12928 0.92476 0.0
H2438 H 0.2885 0.09831 0.92851 0.0
S2439 S 0.33896 0.12762 0.97401 0.0
N2440 N 0.32711 0.14193 0.96335 0.0
N2441 N 0.33144 0.1084 0.9683 0.0
C2442 C 0.3184 0.11304 0.95739 0.0
C2443 C 0.31609 0.13121 0.95472 0.0
C2444 C 0.15793 0.42747 0.83381 0.0
C2445 C 0.16122 0.4244 0.81618 0.0
C2446 C 0.14186 0.4337 0.83934 0.0
C2447 C 0.12841 0.43707 0.82748 0.0
H2448 H 0.16738 0.42378 0.84353 0.0
H2449 H 0.13967 0.43491 0.85317 0.0
S2450 S 0.13137 0.43368 0.77964 0.0
N2451 N 0.15054 0.42714 0.78664 0.0
N2452 N 0.12017 0.43899 0.79712 0.0
C2453 C 0.13207 0.43573 0.80968 0.0
C2454 C 0.14857 0.42936 0.804 0.0
C2455 C 0.83009 0.34903 0.05711 0.0
C2456 C 0.81212 0.34947 0.05998 0.0
C2457 C 0.8389 0.36357 0.05086 0.0
C2458 C 0.83011 0.37917 0.04731 0.0
H2459 H 0.83761 0.33782 0.06102 0.0
H2460 H 0.8529 0.36289 0.04986 0.0
S2461 S 0.78267 0.38622 0.05023 0.0
N2462 N 0.78548 0.36604 0.05687 0.0
N2463 N 0.80214 0.3935 0.04504 0.0
C2464 C 0.81193 0.37926 0.04845 0.0
C2465 C 0.80289 0.36434 0.0548 0.0
C2466 C 0.89117 0.05382 0.28693 0.0
C2467 C 0.89799 0.04366 0.30043 0.0
C2468 C 0.87318 0.05588 0.28505 0.0
C2469 C 0.86169 0.04833 0.29704 0.0
H2470 H 0.89969 0.06213 0.27945 0.0
H2471 H 0.86856 0.0657 0.27612 0.0
S2472 S 0.87294 0.01696 0.33151 0.0
N2473 N 0.89178 0.02262 0.32304 0.0
N2474 N 0.85806 0.02746 0.32022 0.0
C2475 C 0.86822 0.03591 0.30857 0.0
C2476 C 0.88647 0.0333 0.31005 0.0
C2477 C 0.18821 0.1539 0.55541 0.0
C2478 C 0.2012 0.15554 0.56805 0.0
C2479 C 0.18363 0.13758 0.54886 0.0
C2480 C 0.19169 0.12243 0.55501 0.0
H2481 H 0.18026 0.16499 0.55203 0.0
H2482 H 0.17232 0.13665 0.54056 0.0
S2483 S 0.22793 0.12003 0.58631 0.0
N2484 N 0.2236 0.14096 0.58474 0.0
N2485 N 0.21446 0.11019 0.57285 0.0
C2486 C 0.20591 0.12406 0.56618 0.0
C2487 C 0.21084 0.14073 0.57257 0.0
C2488 C 0.18969 0.8798 0.46045 0.0
C2489 C 0.19663 0.8928 0.44968 0.0
C2490 C 0.19355 0.86225 0.45751 0.0
C2491 C 0.20495 0.85734 0.44419 0.0
H2492 H 0.17931 0.8829 0.4694 0.0
H2493 H 0.18601 0.85248 0.46425 0.0
S2494 S 0.22942 0.88684 0.41521 0.0
N2495 N 0.21732 0.89988 0.42714 0.0
N2496 N 0.2255 0.86703 0.42237 0.0
C2497 C 0.21408 0.87043 0.43536 0.0
C2498 C 0.20966 0.88821 0.43789 0.0
C2499 C 0.37228 0.44025 0.71412 0.0
C2500 C 0.3613 0.44852 0.70209 0.0
C2501 C 0.39037 0.4412 0.71229 0.0
C2502 C 0.39785 0.45095 0.69883 0.0
H2503 H 0.36707 0.43062 0.72294 0.0
H2504 H 0.39831 0.43228 0.7197 0.0
S2505 S 0.3746 0.47991 0.66836 0.0
N2506 N 0.35907 0.47018 0.67944 0.0
N2507 N 0.39303 0.47284 0.67668 0.0
C2508 C 0.38703 0.46226 0.68944 0.0
C2509 C 0.36865 0.46083 0.6909 0.0
C2510 C 0.80703 0.63133 0.96023 0.0
C2511 C 0.79866 0.61992 0.94869 0.0
C2512 C 0.80629 0.64934 0.95765 0.0
C2513 C 0.79669 0.65641 0.94386 0.0
H2514 H 0.81626 0.62636 0.96959 0.0
H2515 H 0.81494 0.65754 0.96509 0.0
S2516 S 0.7686 0.63207 0.91333 0.0
N2517 N 0.77788 0.61694 0.92531 0.0
N2518 N 0.77558 0.65077 0.9211 0.0
C2519 C 0.78581 0.64524 0.93435 0.0
C2520 C 0.78704 0.62691 0.93659 0.0
C2521 C 0.62894 0.05904 0.195 0.0
C2522 C 0.62692 0.05504 0.17732 0.0
C2523 C 0.64446 0.0664 0.20114 0.0
C2524 C 0.65829 0.06994 0.18975 0.0
H2525 H 0.61802 0.05795 0.20377 0.0
H2526 H 0.64491 0.07101 0.21441 0.0
S2527 S 0.66088 0.05787 0.14336 0.0
N2528 N 0.64118 0.052 0.14935 0.0
N2529 N 0.67009 0.0661 0.16086 0.0
C2530 C 0.6571 0.06407 0.1726 0.0
C2531 C 0.64143 0.05655 0.16638 0.0
C2532 C 0.55743 0.20953 0.12811 0.0
C2533 C 0.54861 0.19857 0.13977 0.0
C2534 C 0.55639 0.20676 0.11015 0.0
C2535 C 0.54601 0.1934 0.10336 0.0
H2536 H 0.56726 0.21842 0.13282 0.0
H2537 H 0.56537 0.2136 0.10179 0.0
S2538 S 0.51618 0.16509 0.12833 0.0
N2539 N 0.52633 0.17667 0.14322 0.0
N2540 N 0.52352 0.17211 0.10948 0.0
C2541 C 0.53461 0.18477 0.11474 0.0
C2542 C 0.53612 0.1872 0.13303 0.0
C2543 C 0.04272 0.81147 0.37629 0.0
C2544 C 0.05219 0.80545 0.39068 0.0
C2545 C 0.04786 0.80722 0.35936 0.0
C2546 C 0.06213 0.79631 0.35646 0.0
H2547 H 0.03306 0.82154 0.37797 0.0
H2548 H 0.04202 0.81414 0.3486 0.0
S2549 S 0.08847 0.77412 0.38989 0.0
N2550 N 0.07459 0.78602 0.40105 0.0
N2551 N 0.08355 0.77714 0.36926 0.0
C2552 C 0.06977 0.78803 0.37077 0.0
C2553 C 0.06496 0.79283 0.38796 0.0
C2554 C 0.46486 0.30228 0.62799 0.0
C2555 C 0.45191 0.29304 0.6369 0.0
C2556 C 0.46468 0.30328 0.60982 0.0
C2557 C 0.45116 0.29557 0.60026 0.0
H2558 H 0.47343 0.31088 0.63507 0.0
H2559 H 0.4732 0.31262 0.60369 0.0
S2560 S 0.41806 0.26525 0.61715 0.0
N2561 N 0.42863 0.27191 0.63455 0.0
N2562 N 0.42768 0.27469 0.6005 0.0
C2563 C 0.44046 0.28358 0.60877 0.0
C2564 C 0.44101 0.28209 0.62719 0.0
C2565 C 0.93947 0.66878 0.84476 0.0
C2566 C 0.9366 0.68672 0.84409 0.0
C2567 C 0.94602 0.66096 0.85971 0.0
C2568 C 0.94982 0.6708 0.87461 0.0
H2569 H 0.93525 0.66054 0.83418 0.0
H2570 H 0.94692 0.64694 0.86002 0.0
S2571 S 0.94705 0.71859 0.8785 0.0
N2572 N 0.94003 0.71444 0.85868 0.0
N2573 N 0.9524 0.69966 0.887 0.0
C2574 C 0.94877 0.68895 0.8735 0.0
C2575 C 0.94212 0.69696 0.85813 0.0
C2576 C 0.04825 0.71295 0.13856 0.0
C2577 C 0.04144 0.70096 0.15052 0.0
C2578 C 0.04576 0.71058 0.12068 0.0
C2579 C 0.03583 0.69662 0.11448 0.0
H2580 H 0.05799 0.72222 0.14266 0.0
H2581 H 0.05367 0.71804 0.11178 0.0
S2582 S 0.01035 0.66572 0.14097 0.0
N2583 N 0.02103 0.67755 0.15528 0.0
N2584 N 0.01536 0.67381 0.12178 0.0
C2585 C 0.02593 0.68712 0.12649 0.0
C2586 C 0.02899 0.68911 0.14462 0.0
C2587 C 0.4265 0.81395 0.10144 0.0
C2588 C 0.44348 0.82048 0.10166 0.0
C2589 C 0.41904 0.80696 0.11638 0.0
C2590 C 0.42828 0.80629 0.13209 0.0
H2591 H 0.41838 0.81575 0.09011 0.0
H2592 H 0.40547 0.80331 0.11596 0.0
S2593 S 0.4741 0.81906 0.13869 0.0
N2594 N 0.47015 0.82374 0.11815 0.0
N2595 N 0.45603 0.81048 0.1464 0.0
C2596 C 0.44589 0.8109 0.132 0.0
C2597 C 0.45355 0.81803 0.11668 0.0
C2598 C 0.4347 0.16632 0.84097 0.0
C2599 C 0.43103 0.18403 0.83891 0.0
C2600 C 0.44174 0.15997 0.8564 0.0
C2601 C 0.44527 0.17105 0.87048 0.0
H2602 H 0.43094 0.15712 0.83103 0.0
H2603 H 0.44346 0.14608 0.85765 0.0
S2604 S 0.44 0.21882 0.87087 0.0
N2605 N 0.43308 0.21286 0.85149 0.0
N2606 N 0.44634 0.20086 0.88067 0.0
C2607 C 0.44314 0.18899 0.86806 0.0
C2608 C 0.436 0.1955 0.8522 0.0
C2609 C 0.56097 0.31025 0.37009 0.0
C2610 C 0.57889 0.30758 0.36803 0.0
C2611 C 0.55422 0.31624 0.38596 0.0
C2612 C 0.56523 0.31967 0.40012 0.0
H2613 H 0.55233 0.309 0.35908 0.0
H2614 H 0.54062 0.31971 0.3866 0.0
S2615 S 0.61238 0.31089 0.40248 0.0
N2616 N 0.60695 0.30581 0.3824 0.0
N2617 N 0.59428 0.31729 0.41194 0.0
C2618 C 0.5828 0.31527 0.3987 0.0
C2619 C 0.58964 0.30917 0.3827 0.0
C2620 C 0.13437 0.03639 0.68937 0.0
C2621 C 0.13925 0.04971 0.7008 0.0
C2622 C 0.11683 0.03341 0.68551 0.0
C2623 C 0.10382 0.04417 0.69245 0.0
H2624 H 0.14414 0.02977 0.68175 0.0
H2625 H 0.11378 0.02455 0.67503 0.0
S2626 S 0.10969 0.07808 0.72586 0.0
N2627 N 0.12952 0.07111 0.72177 0.0
N2628 N 0.09668 0.06628 0.7136 0.0
C2629 C 0.10838 0.05571 0.70573 0.0
C2630 C 0.12615 0.05828 0.71015 0.0
C2631 C 0.6854 0.85914 0.9503 0.0
C2632 C 0.69456 0.84915 0.93812 0.0
C2633 C 0.6866 0.87732 0.95029 0.0
C2634 C 0.69654 0.88604 0.93769 0.0
H2635 H 0.67576 0.85306 0.95852 0.0
H2636 H 0.67777 0.88451 0.95852 0.0
S2637 S 0.72598 0.86576 0.90568 0.0
N2638 N 0.7167 0.84922 0.91564 0.0
N2639 N 0.71813 0.88336 0.91502 0.0
C2640 C 0.70757 0.87615 0.92714 0.0
C2641 C 0.70678 0.85765 0.92752 0.0
C2642 C 0.87541 0.45625 0.18294 0.0
C2643 C 0.86675 0.44401 0.19328 0.0
C2644 C 0.89354 0.45592 0.18129 0.0
C2645 C 0.90345 0.44283 0.18933 0.0
H2646 H 0.86804 0.46495 0.17473 0.0
H2647 H 0.89947 0.46443 0.17181 0.0
S2648 S 0.88714 0.40944 0.21971 0.0
N2649 N 0.86963 0.42023 0.21374 0.0
N2650 N 0.90356 0.41892 0.20974 0.0
C2651 C 0.89513 0.43178 0.20113 0.0
C2652 C 0.87677 0.43254 0.20332 0.0
C2653 C 0.30692 0.60073 0.41762 0.0
C2654 C 0.30503 0.61555 0.42808 0.0
C2655 C 0.31403 0.58544 0.42424 0.0
C2656 C 0.31949 0.58442 0.44157 0.0
H2657 H 0.30417 0.60135 0.40385 0.0
H2658 H 0.31683 0.57495 0.41532 0.0
S2659 S 0.31431 0.61848 0.4751 0.0
N2660 N 0.30667 0.62745 0.4572 0.0
N2661 N 0.32015 0.59858 0.46973 0.0
C2662 C 0.31568 0.59838 0.45269 0.0
C2663 C 0.30843 0.61405 0.4459 0.0
C2664 C 0.12007 0.96356 0.31065 0.0
C2665 C 0.1076 0.95286 0.30269 0.0
C2666 C 0.13784 0.96014 0.30868 0.0
C2667 C 0.14354 0.94648 0.29809 0.0
H2668 H 0.11617 0.97271 0.32057 0.0
H2669 H 0.14694 0.96676 0.31709 0.0
S2670 S 0.11608 0.9179 0.27098 0.0
N2671 N 0.10215 0.93028 0.28154 0.0
N2672 N 0.13555 0.92463 0.27688 0.0
C2673 C 0.13128 0.93785 0.28773 0.0
C2674 C 0.11321 0.94087 0.29025 0.0
C2675 C 0.80618 0.86865 0.54414 0.0
C2676 C 0.7963 0.86453 0.55886 0.0
C2677 C 0.80987 0.88599 0.53998 0.0
C2678 C 0.80439 0.89955 0.5509 0.0
H2679 H 0.81276 0.85846 0.53705 0.0
H2680 H 0.81922 0.88852 0.5298 0.0
S2681 S 0.77564 0.89556 0.58907 0.0
N2682 N 0.77855 0.8754 0.58244 0.0
N2683 N 0.78644 0.90791 0.57529 0.0
C2684 C 0.79272 0.89568 0.56427 0.0
C2685 C 0.78845 0.87811 0.56811 0.0
C2686 C 0.88481 0.57578 0.80149 0.0
C2687 C 0.86843 0.56807 0.80364 0.0
C2688 C 0.89983 0.56761 0.80748 0.0
C2689 C 0.89893 0.55149 0.81588 0.0
H2690 H 0.88585 0.58891 0.79656 0.0
H2691 H 0.91191 0.5748 0.80727 0.0
S2692 S 0.85948 0.52471 0.8221 0.0
N2693 N 0.85238 0.54248 0.81246 0.0
N2694 N 0.88071 0.52701 0.82386 0.0
C2695 C 0.88293 0.54269 0.81613 0.0
C2696 C 0.86757 0.55107 0.81001 0.0
C2697 C 0.20446 0.63552 0.0571 0.0
C2698 C 0.19121 0.64498 0.04882 0.0
C2699 C 0.20403 0.61732 0.05736 0.0
C2700 C 0.19073 0.60823 0.04881 0.0
H2701 H 0.21325 0.64199 0.06595 0.0
H2702 H 0.21243 0.61057 0.06637 0.0
S2703 S 0.1574 0.62714 0.01986 0.0
N2704 N 0.16762 0.64408 0.02809 0.0
N2705 N 0.16741 0.6099 0.02768 0.0
C2706 C 0.18008 0.61752 0.03727 0.0
C2707 C 0.18017 0.63602 0.03748 0.0
C2708 C 0.18772 0.38888 0.92058 0.0
C2709 C 0.19204 0.3755 0.93222 0.0
C2710 C 0.17997 0.40419 0.92632 0.0
C2711 C 0.17632 0.40682 0.94396 0.0
H2712 H 0.1894 0.38713 0.90674 0.0
H2713 H 0.17568 0.41353 0.91673 0.0
S2714 S 0.1875 0.37705 0.98003 0.0
N2715 N 0.19409 0.36676 0.96244 0.0
N2716 N 0.17944 0.39574 0.9733 0.0
C2717 C 0.18213 0.39435 0.95595 0.0
C2718 C 0.19002 0.37861 0.95006 0.0
C2719 C 0.3732 0.96539 0.19193 0.0
C2720 C 0.38546 0.95491 0.2005 0.0
C2721 C 0.3554 0.96183 0.19326 0.0
C2722 C 0.34938 0.94817 0.20371 0.0
H2723 H 0.37738 0.97453 0.1821 0.0
H2724 H 0.34658 0.96833 0.18446 0.0
S2725 S 0.37605 0.92047 0.23255 0.0
N2726 N 0.39026 0.93283 0.22233 0.0
N2727 N 0.35678 0.92682 0.22569 0.0
C2728 C 0.36131 0.93987 0.21474 0.0
C2729 C 0.37944 0.94308 0.21292 0.0
C2730 C 0.80717 0.12821 0.46231 0.0
C2731 C 0.79737 0.13623 0.44919 0.0
C2732 C 0.80893 0.1101 0.46281 0.0
C2733 C 0.80143 0.09971 0.44981 0.0
H2734 H 0.81557 0.13597 0.47048 0.0
H2735 H 0.81863 0.1047 0.47143 0.0
S2736 S 0.76994 0.11402 0.4166 0.0
N2737 N 0.77602 0.13208 0.42638 0.0
N2738 N 0.78024 0.09817 0.42666 0.0
C2739 C 0.78896 0.10729 0.43896 0.0
C2740 C 0.7867 0.12564 0.43884 0.0
C2741 C 0.61025 0.54335 0.68269 0.0
C2742 C 0.59485 0.55163 0.68792 0.0
C2743 C 0.62645 0.54934 0.68843 0.0
C2744 C 0.62761 0.56331 0.70002 0.0
H2745 H 0.60994 0.53388 0.6723 0.0
H2746 H 0.63806 0.54431 0.68232 0.0
S2747 S 0.59099 0.58688 0.72019 0.0
N2748 N 0.58165 0.57279 0.70702 0.0
N2749 N 0.61207 0.58339 0.71859 0.0
C2750 C 0.61225 0.56997 0.70717 0.0
C2751 C 0.59581 0.56426 0.70093 0.0
C2752 C 0.5337 0.68691 0.61942 0.0
C2753 C 0.54279 0.69382 0.6052 0.0
C2754 C 0.53734 0.69243 0.63636 0.0
C2755 C 0.5498 0.70534 0.63944 0.0
H2756 H 0.52555 0.67558 0.6177 0.0
H2757 H 0.53195 0.68517 0.64711 0.0
S2758 S 0.57459 0.7297 0.60629 0.0
N2759 N 0.56293 0.71568 0.59503 0.0
N2760 N 0.56914 0.72674 0.62679 0.0
C2761 C 0.557 0.71406 0.62514 0.0
C2762 C 0.55368 0.70808 0.60796 0.0
C2763 C 0.0643 0.289 0.89003 0.0
C2764 C 0.05246 0.30185 0.89516 0.0
C2765 C 0.06787 0.28612 0.87241 0.0
C2766 C 0.06023 0.29652 0.85948 0.0
H2767 H 0.07218 0.28248 0.89966 0.0
H2768 H 0.07843 0.27745 0.86914 0.0
S2769 S 0.02613 0.32962 0.86603 0.0
N2770 N 0.03083 0.32279 0.88577 0.0
N2771 N 0.03847 0.31817 0.85279 0.0
C2772 C 0.04691 0.30788 0.86434 0.0
C2773 C 0.04278 0.31034 0.88221 0.0
C2774 C 0.93962 0.21422 0.36347 0.0
C2775 C 0.94769 0.2028 0.35173 0.0
C2776 C 0.94144 0.21184 0.38142 0.0
C2777 C 0.95199 0.19853 0.388 0.0
H2778 H 0.92957 0.22297 0.35899 0.0
H2779 H 0.93277 0.21879 0.39001 0.0
S2780 S 0.98014 0.16918 0.36251 0.0
N2781 N 0.96951 0.18054 0.34779 0.0
N2782 N 0.97386 0.17684 0.38149 0.0
C2783 C 0.96281 0.18959 0.37638 0.0
C2784 C 0.96046 0.19155 0.35814 0.0
C2785 C 0.06614 0.20438 0.62272 0.0
C2786 C 0.05776 0.19703 0.63714 0.0
C2787 C 0.0611 0.20007 0.60581 0.0
C2788 C 0.04741 0.18845 0.60287 0.0
H2789 H 0.07789 0.21189 0.62449 0.0
H2790 H 0.06919 0.20427 0.59511 0.0
S2791 S 0.01974 0.16783 0.6363 0.0
N2792 N 0.03398 0.17929 0.6475 0.0
N2793 N 0.02413 0.17149 0.61565 0.0
C2794 C 0.03757 0.1828 0.61715 0.0
C2795 C 0.0429 0.18697 0.63439 0.0
C2796 C 0.457 0.69337 0.36323 0.0
C2797 C 0.4435 0.70309 0.35577 0.0
C2798 C 0.45846 0.69179 0.38131 0.0
C2799 C 0.44609 0.69944 0.39235 0.0
H2800 H 0.46503 0.68517 0.35513 0.0
H2801 H 0.4676 0.6824 0.38638 0.0
S2802 S 0.41148 0.73005 0.37947 0.0
N2803 N 0.42039 0.72395 0.36098 0.0
N2804 N 0.42253 0.72006 0.39485 0.0
C2805 C 0.43443 0.71139 0.38518 0.0
C2806 C 0.4333 0.71346 0.36683 0.0
C2807 C 0.5602 0.83522 0.8356 0.0
C2808 C 0.56118 0.81707 0.8349 0.0
C2809 C 0.55369 0.84363 0.85025 0.0
C2810 C 0.54807 0.8342 0.86485 0.0
H2811 H 0.56585 0.84301 0.82535 0.0
H2812 H 0.55427 0.85766 0.85059 0.0
S2813 S 0.54516 0.78634 0.86825 0.0
N2814 N 0.55375 0.78982 0.84893 0.0
N2815 N 0.54155 0.8057 0.87667 0.0
C2816 C 0.54718 0.81604 0.86357 0.0
C2817 C 0.55374 0.80744 0.8485 0.0
C2818 C 0.62718 0.46071 0.31468 0.0
C2819 C 0.61482 0.45018 0.3063 0.0
C2820 C 0.64501 0.45764 0.31259 0.0
C2821 C 0.65097 0.44447 0.30151 0.0
H2822 H 0.62316 0.46968 0.32471 0.0
H2823 H 0.65404 0.46431 0.32104 0.0
S2824 S 0.62383 0.41598 0.27388 0.0
N2825 N 0.60973 0.4279 0.28473 0.0
N2826 N 0.64319 0.42287 0.27992 0.0
C2827 C 0.63876 0.43574 0.29112 0.0
C2828 C 0.62064 0.43842 0.29373 0.0
C2829 C 0.30257 0.36356 0.53999 0.0
C2830 C 0.29337 0.35577 0.55366 0.0
C2831 C 0.30385 0.38168 0.53879 0.0
C2832 C 0.29651 0.39235 0.55166 0.0
H2833 H 0.31087 0.35571 0.5318 0.0
H2834 H 0.31311 0.38703 0.52967 0.0
S2835 S 0.26686 0.37841 0.58666 0.0
N2836 N 0.27295 0.36018 0.57723 0.0
N2837 N 0.27632 0.39416 0.57565 0.0
C2838 C 0.28473 0.38484 0.56329 0.0
C2839 C 0.28291 0.36645 0.56411 0.0
C2840 C 0.40952 0.07895 0.81515 0.0
C2841 C 0.41255 0.06127 0.81819 0.0
C2842 C 0.39383 0.08464 0.80814 0.0
C2843 C 0.3805 0.07288 0.80397 0.0
H2844 H 0.41882 0.08857 0.81944 0.0
H2845 H 0.39177 0.09849 0.80698 0.0
S2846 S 0.38303 0.02498 0.80694 0.0
N2847 N 0.40187 0.03181 0.81453 0.0
N2848 N 0.37221 0.04259 0.80127 0.0
C2849 C 0.384 0.05505 0.80528 0.0
C2850 C 0.40011 0.04921 0.81241 0.0
C2851 C 0.68906 0.11398 0.05709 0.0
C2852 C 0.69213 0.117 0.07481 0.0
C2853 C 0.68272 0.09784 0.05138 0.0
C2854 C 0.67933 0.08438 0.06326 0.0
H2855 H 0.69004 0.12452 0.04786 0.0
H2856 H 0.67876 0.09656 0.03796 0.0
S2857 S 0.68926 0.08453 0.11022 0.0
N2858 N 0.69448 0.1042 0.10356 0.0
N2859 N 0.68235 0.07413 0.09283 0.0
C2860 C 0.68432 0.08666 0.08058 0.0
C2861 C 0.69077 0.10294 0.08637 0.0
C2862 C 0.93619 0.30953 0.10079 0.0
C2863 C 0.92623 0.31728 0.08759 0.0
C2864 C 0.92842 0.30391 0.11632 0.0
C2865 C 0.91049 0.30592 0.11906 0.0
H2866 H 0.95019 0.3091 0.09974 0.0
H2867 H 0.93663 0.29902 0.12661 0.0
S2868 S 0.87845 0.3222 0.08693 0.0
N2869 N 0.8974 0.32436 0.07721 0.0
N2870 N 0.88273 0.31365 0.10609 0.0
C2871 C 0.90028 0.31216 0.10524 0.0
C2872 C 0.90818 0.31787 0.08957 0.0
C2873 C 0.96251 0.80486 0.62477 0.0
C2874 C 0.94898 0.7951 0.63208 0.0
C2875 C 0.96353 0.80727 0.60676 0.0
C2876 C 0.95058 0.80056 0.59576 0.0
H2877 H 0.97082 0.8126 0.63305 0.0
H2878 H 0.97266 0.81678 0.6019 0.0
S2879 S 0.91549 0.77031 0.60819 0.0
N2880 N 0.92517 0.77519 0.62666 0.0
N2881 N 0.9264 0.78068 0.59295 0.0
C2882 C 0.93891 0.78843 0.60264 0.0
C2883 C 0.93829 0.78546 0.62088 0.0
C2884 C 0.60895 0.94071 0.79975 0.0
C2885 C 0.59394 0.93186 0.80521 0.0
C2886 C 0.62338 0.93157 0.79338 0.0
C2887 C 0.62312 0.91336 0.79228 0.0
H2888 H 0.61027 0.9545 0.80212 0.0
H2889 H 0.63524 0.93865 0.79078 0.0
S2890 S 0.58529 0.88483 0.8009 0.0
N2891 N 0.57857 0.90444 0.80623 0.0
N2892 N 0.60539 0.88727 0.79394 0.0
C2893 C 0.6074 0.90471 0.79566 0.0
C2894 C 0.59285 0.91397 0.8022 0.0
C2895 C 0.3242 0.84169 0.06347 0.0
C2896 C 0.30699 0.84026 0.06919 0.0
C2897 C 0.33074 0.8575 0.05751 0.0
C2898 C 0.3203 0.87244 0.05703 0.0
H2899 H 0.33311 0.83095 0.06514 0.0
H2900 H 0.34443 0.85833 0.05445 0.0
S2901 S 0.27375 0.87499 0.06844 0.0
N2902 N 0.27907 0.85458 0.07226 0.0
N2903 N 0.29145 0.88442 0.06087 0.0
C2904 C 0.30261 0.8708 0.06097 0.0
C2905 C 0.29591 0.85461 0.06708 0.0
C2906 C 0.34694 0.56213 0.3279 0.0
C2907 C 0.34556 0.56606 0.31019 0.0
C2908 C 0.36241 0.55579 0.33487 0.0
C2909 C 0.37716 0.55327 0.32442 0.0
H2910 H 0.33642 0.56526 0.33667 0.0
H2911 H 0.36313 0.55394 0.34878 0.0
S2912 S 0.37953 0.55946 0.27683 0.0
N2913 N 0.35954 0.56522 0.28196 0.0
N2914 N 0.3888 0.55327 0.29513 0.0
C2915 C 0.37547 0.55554 0.30642 0.0
C2916 C 0.35959 0.56196 0.29927 0.0
C2917 C 0.69198 0.64275 0.54583 0.0
C2918 C 0.70129 0.64804 0.56057 0.0
C2919 C 0.68946 0.62507 0.54227 0.0
C2920 C 0.69556 0.61229 0.55378 0.0
H2921 H 0.68492 0.65223 0.53824 0.0
H2922 H 0.68051 0.62159 0.532 0.0
S2923 S 0.72336 0.61943 0.59222 0.0
N2924 N 0.71932 0.63911 0.5848 0.0
N2925 N 0.71358 0.60596 0.57873 0.0
C2926 C 0.70674 0.61737 0.56718 0.0
C2927 C 0.70985 0.63531 0.57042 0.0
C2928 C 0.99708 0.4935 0.13359 0.0
C2929 C 0.9885 0.48682 0.14823 0.0
C2930 C 0.01207 0.50354 0.13518 0.0
C2931 C 0.01918 0.5075 0.1515 0.0
H2932 H 0.99235 0.49083 0.12064 0.0
H2933 H 0.01803 0.5083 0.12339 0.0
S2934 S 0.00165 0.49343 0.19407 0.0
N2935 N 0.98818 0.48496 0.17973 0.0
N2936 N 0.01638 0.50409 0.18275 0.0
C2937 C 0.01071 0.50105 0.16634 0.0
C2938 C 0.99538 0.49068 0.1647 0.0
C2939 C 0.75995 0.24668 0.36955 0.0
C2940 C 0.75287 0.25696 0.38282 0.0
C2941 C 0.76646 0.23014 0.3729 0.0
C2942 C 0.76642 0.2231 0.38974 0.0
H2943 H 0.76029 0.25128 0.35628 0.0
H2944 H 0.77182 0.22293 0.36211 0.0
S2945 S 0.74948 0.2447 0.42926 0.0
N2946 N 0.74611 0.25891 0.41359 0.0
N2947 N 0.75875 0.22777 0.41998 0.0
C2948 C 0.75947 0.23322 0.40324 0.0
C2949 C 0.75261 0.25014 0.39977 0.0
C2950 C 0.99733 0.99276 0.65281 0.0
C2951 C 0.99155 0.98347 0.63822 0.0
C2952 C 0.0138 0.0006 0.65304 0.0
C2953 C 0.02506 0.99931 0.63872 0.0
H2954 H 0.9889 0.99445 0.66392 0.0
H2955 H 0.01738 0.00833 0.66421 0.0
S2956 S 0.01718 0.97405 0.59852 0.0
N2957 N 0.99921 0.97179 0.6099 0.0
N2958 N 0.03 0.9864 0.61039 0.0
C2959 C 0.01981 0.98919 0.62451 0.0
C2960 C 0.00309 0.98131 0.62423 0.0
C2961 C 0.23512 0.23817 0.88851 0.0
C2962 C 0.23836 0.24993 0.90209 0.0
C2963 C 0.24283 0.22178 0.88819 0.0
C2964 C 0.25415 0.21638 0.90141 0.0
H2965 H 0.22692 0.24178 0.87769 0.0
H2966 H 0.24044 0.21357 0.87704 0.0
S2967 S 0.26547 0.24147 0.94092 0.0
N2968 N 0.25246 0.25446 0.92993 0.0
N2969 N 0.2671 0.22356 0.92929 0.0
C2970 C 0.25667 0.22754 0.91566 0.0
C2971 C 0.24876 0.24434 0.916 0.0
C2972 C 0.98815 0.46832 0.87011 0.0
C2973 C -0.00017 0.47481 0.85769 0.0
C2974 C 0.97138 0.47497 0.87165 0.0
C2975 C 0.96558 0.48846 0.86087 0.0
H2976 H 0.99215 0.45839 0.87922 0.0
H2977 H 0.96325 0.47009 0.88201 0.0
S2978 S 0.99031 0.50841 0.82466 0.0
N2979 N 0.00386 0.49416 0.83314 0.0
N2980 N 0.97225 0.50686 0.83606 0.0
C2981 C 0.97663 0.49416 0.84746 0.0
C2982 C 0.9938 0.4873 0.84588 0.0
C2983 C 0.74164 0.27054 0.09118 0.0
C2984 C 0.73476 0.28307 0.10257 0.0
C2985 C 0.73477 0.25367 0.09049 0.0
C2986 C 0.72084 0.24878 0.10119 0.0
H2987 H 0.75313 0.27339 0.08362 0.0
H2988 H 0.74105 0.24416 0.08228 0.0
S2989 S 0.69597 0.27778 0.13051 0.0
N2990 N 0.71164 0.29014 0.12276 0.0
N2991 N 0.69873 0.25858 0.12147 0.0
C2992 C 0.71293 0.26163 0.11147 0.0
C2993 C 0.71988 0.27874 0.11214 0.0
C2994 C 0.9957 0.00903 0.36852 0.0
C2995 C 0.98681 0.012 0.35287 0.0
C2996 C 0.01204 0.00127 0.36877 0.0
C2997 C 0.02028 0.99597 0.3534 0.0
H2998 H 0.99006 0.0128 0.38082 0.0
H2999 H 0.0181 0.99918 0.38127 0.0
S3000 S 0.00276 0.00097 0.30882 0.0
N3001 N 0.98761 0.00931 0.32145 0.0
N3002 N 0.01839 0.99444 0.32193 0.0
C3003 C 0.01167 0.99897 0.33756 0.0
C3004 C 0.99494 0.00702 0.3373 0.0
C3005 C 0.25745 0.24264 0.63143 0.0
C3006 C 0.24942 0.23382 0.61764 0.0
C3007 C 0.26561 0.2586 0.62895 0.0
C3008 C 0.26626 0.26651 0.61252 0.0
H3009 H 0.25722 0.23736 0.64445 0.0
H3010 H 0.2715 0.26475 0.64012 0.0
S3011 S 0.24775 0.24864 0.57184 0.0
N3012 N 0.24291 0.23404 0.58674 0.0
N3013 N 0.25851 0.2641 0.58203 0.0
C3014 C 0.25858 0.25775 0.59846 0.0
C3015 C 0.25013 0.24141 0.60103 0.0
C3016 C 0.12881 0.00828 0.50325 0.0
C3017 C 0.14432 0.01756 0.50574 0.0
C3018 C 0.12874 0.99184 0.49569 0.0
C3019 C 0.14418 0.98384 0.4902 0.0
H3020 H 0.11647 0.01371 0.50718 0.0
H3021 H 0.11634 0.98546 0.49398 0.0
S3022 S 0.18847 0.00239 0.49399 0.0
N3023 N 0.1757 0.0174 0.50237 0.0
N3024 N 0.17556 0.98639 0.48796 0.0
C3025 C 0.15988 0.99284 0.49273 0.0
C3026 C 0.15995 0.00971 0.5005 0.0
C3027 C 0.2734 0.36938 0.74121 0.0
C3028 C 0.27933 0.38645 0.73866 0.0
C3029 C 0.25725 0.366 0.74861 0.0
C3030 C 0.24626 0.3795 0.754 0.0
H3031 H 0.28117 0.35838 0.7372 0.0
H3032 H 0.25348 0.35256 0.75024 0.0
S3033 S 0.25564 0.42661 0.7506 0.0
N3034 N 0.27293 0.41714 0.74224 0.0
N3035 N 0.24252 0.41074 0.75651 0.0
C3036 C 0.25202 0.39669 0.75176 0.0
C3037 C 0.26855 0.40017 0.74403 0.0
C3038 C 0.84615 0.50152 0.00407 0.0
C3039 C 0.86251 0.49809 0.01143 0.0
C3040 C 0.84226 0.51785 0.99696 0.0
C3041 C 0.85461 0.53128 0.99693 0.0
H3042 H 0.83645 0.49139 0.00328 0.0
H3043 H 0.82985 0.51964 0.99062 0.0
S3044 S 0.89842 0.52986 0.01673 0.0
N3045 N 0.89048 0.51024 0.01984 0.0
N3046 N 0.88314 0.54069 0.00641 0.0
C3047 C 0.87061 0.52834 0.00513 0.0
C3048 C 0.87457 0.51181 0.01239 0.0
C3049 C 0.75691 0.12674 0.2696 0.0
C3050 C 0.76532 0.11074 0.2672 0.0
C3051 C 0.74053 0.12993 0.26262 0.0
C3052 C 0.73179 0.11732 0.25278 0.0
H3053 H 0.76303 0.13706 0.27692 0.0
H3054 H 0.7349 0.14264 0.26467 0.0
S3055 S 0.74773 0.07286 0.2433 0.0
N3056 N 0.76338 0.08176 0.25491 0.0
N3057 N 0.73251 0.08783 0.24149 0.0
C3058 C 0.7398 0.10103 0.25061 0.0
C3059 C 0.75657 0.09773 0.25787 0.0
C3060 C 0.50474 0.15891 0.01644 0.0
C3061 C 0.50146 0.14681 0.02971 0.0
C3062 C 0.49639 0.15763 0.00029 0.0
C3063 C 0.4845 0.1442 0.9969 0.0
H3064 H 0.51459 0.16879 0.01812 0.0
H3065 H 0.49991 0.1667 0.99016 0.0
S3066 S 0.46909 0.11125 0.02854 0.0
N3067 N 0.48388 0.12246 0.03921 0.0
N3068 N 0.46812 0.12006 0.00906 0.0
C3069 C 0.48015 0.13287 0.01057 0.0
C3070 C 0.48864 0.13418 0.02693 0.0
C3071 C 0.9941 0.87135 0.50547 0.0
C3072 C 0.98962 0.85537 0.51303 0.0
C3073 C 0.002 0.87222 0.48923 0.0
C3074 C 0.00596 0.85715 0.47976 0.0
H3075 H 0.99129 0.88346 0.51201 0.0
H3076 H 0.00515 0.88494 0.48416 0.0
S3077 S 0.9972 0.81191 0.49376 0.0
N3078 N 0.98979 0.82397 0.50983 0.0
N3079 N 0.00496 0.8256 0.47923 0.0
C3080 C 0.00171 0.84099 0.48716 0.0
C3081 C 0.9935 0.8401 0.50379 0.0
C3082 C 0.37358 0.25919 0.75075 0.0
C3083 C 0.38666 0.25068 0.76018 0.0
C3084 C 0.37689 0.26651 0.73453 0.0
C3085 C 0.39348 0.26582 0.72697 0.0
H3086 H 0.36047 0.25998 0.75573 0.0
H3087 H 0.36624 0.27286 0.72793 0.0
S3088 S 0.43255 0.24558 0.74647 0.0
N3089 N 0.41708 0.24225 0.7609 0.0
N3090 N 0.42336 0.25632 0.73037 0.0
C3091 C 0.40684 0.25765 0.73634 0.0
C3092 C 0.40343 0.25003 0.75294 0.0
C3093 C 0.99602 0.62426 0.02284 0.0
C3094 C 0.00377 0.63991 0.02807 0.0
C3095 C 0.9883 0.62257 0.00655 0.0
C3096 C 0.98805 0.63642 0.99466 0.0
H3097 H 0.99612 0.61305 0.0313 0.0
H3098 H 0.98269 0.61013 0.00321 0.0
S3099 S 0.006 0.68046 0.00222 0.0
N3100 N 0.0103 0.66979 0.02028 0.0
N3101 N 0.99575 0.66659 0.9895 0.0
C3102 C 0.99543 0.65231 -0.00018 0.0
C3103 C 0.00325 0.65407 0.01656 0.0
C3104 C 0.09548 0.75038 0.25987 0.0
C3105 C 0.11185 0.75693 0.26462 0.0
C3106 C 0.09289 0.74225 0.24376 0.0
C3107 C 0.10655 0.74046 0.23179 0.0
H3108 H 0.08461 0.75136 0.26872 0.0
H3109 H 0.08018 0.737 0.24087 0.0
S3110 S 0.15153 0.75689 0.23725 0.0
N3111 N 0.14166 0.76201 0.2555 0.0
N3112 N 0.13677 0.74695 0.22538 0.0
C3113 C 0.12283 0.74745 0.23618 0.0
C3114 C 0.12549 0.7556 0.25255 0.0
C3115 C 0.50178 0.85996 0.01378 0.0
C3116 C 0.50764 0.87233 0.02586 0.0
C3117 C 0.50828 0.85966 0.99677 0.0
C3118 C 0.52086 0.87171 0.99132 0.0
H3119 H 0.49136 0.85115 0.01714 0.0
H3120 H 0.50286 0.85044 0.98767 0.0
S3121 S 0.54261 0.90461 0.01906 0.0
N3122 N 0.52822 0.89538 0.03192 0.0
N3123 N 0.54058 0.8948 0.00015 0.0
C3124 C 0.52772 0.88326 0.00372 0.0
C3125 C 0.52109 0.88356 0.02095 0.0
C3126 C 0.58709 0.24801 0.22667 0.0
C3127 C 0.59896 0.24951 0.21288 0.0
C3128 C 0.58974 0.25693 0.24235 0.0
C3129 C 0.60433 0.26764 0.24473 0.0
H3130 H 0.57631 0.23905 0.2258 0.0
H3131 H 0.58075 0.25475 0.25291 0.0
S3132 S 0.63739 0.2784 0.21136 0.0
N3133 N 0.62447 0.26428 0.20178 0.0
N3134 N 0.62943 0.28109 0.23104 0.0
C3135 C 0.6155 0.27028 0.23052 0.0
C3136 C 0.61281 0.26122 0.21464 0.0
C3137 C 0.74101 0.75762 0.9091 0.0
C3138 C 0.73221 0.7628 0.89397 0.0
C3139 C 0.75157 0.74277 0.90923 0.0
C3140 C 0.75362 0.73249 0.89427 0.0
H3141 H 0.73992 0.7652 0.92087 0.0
H3142 H 0.75848 0.73957 0.92103 0.0
S3143 S 0.73194 0.73942 0.8518 0.0
N3144 N 0.72535 0.75573 0.86396 0.0
N3145 N 0.74496 0.72792 0.86427 0.0
C3146 C 0.7444 0.73722 0.87924 0.0
C3147 C 0.73379 0.75234 0.87907 0.0
C3148 C 0.2622 0.76801 0.38275 0.0
C3149 C 0.25185 0.77328 0.39679 0.0
C3150 C 0.26983 0.75159 0.38233 0.0
C3151 C 0.26743 0.73962 0.39591 0.0
H3152 H 0.26402 0.77644 0.37166 0.0
H3153 H 0.27734 0.74816 0.37097 0.0
S3154 S 0.24265 0.74749 0.4364 0.0
N3155 N 0.24046 0.76562 0.42521 0.0
N3156 N 0.25489 0.73463 0.42442 0.0
C3157 C 0.2578 0.74497 0.41045 0.0
C3158 C 0.25002 0.76183 0.41091 0.0
C3159 C 0.75631 0.75771 0.62553 0.0
C3160 C 0.75913 0.76695 0.61006 0.0
C3161 C 0.7474 0.74195 0.62562 0.0
C3162 C 0.74085 0.73464 0.61025 0.0
H3163 H 0.76095 0.76268 0.63782 0.0
H3164 H 0.74543 0.73558 0.63799 0.0
S3165 S 0.74513 0.75329 0.56606 0.0
N3166 N 0.75504 0.76741 0.57877 0.0
N3167 N 0.73812 0.73769 0.57895 0.0
C3168 C 0.7438 0.74354 0.59457 0.0
C3169 C 0.75294 0.75971 0.59448 0.0
C3170 C 0.23524 0.73839 0.09838 0.0
C3171 C 0.22399 0.73124 0.11081 0.0
C3172 C 0.24356 0.75434 0.10134 0.0
C3173 C 0.24075 0.76377 0.11675 0.0
H3174 H 0.23796 0.73143 0.08649 0.0
H3175 H 0.25263 0.75905 0.0917 0.0
S3176 S 0.21042 0.75179 0.15221 0.0
N3177 N 0.20913 0.73559 0.13831 0.0
N3178 N 0.22453 0.76548 0.14377 0.0
C3179 C 0.22883 0.75711 0.12886 0.0
C3180 C 0.22053 0.74087 0.12592 0.0
C3181 C 0.14194 0.49611 0.0065 0.0
C3182 C 0.12678 0.48639 0.00967 0.0
C3183 C 0.14462 0.51227 0.01449 0.0
C3184 C 0.13217 0.51931 0.0258 0.0
H3185 H 0.15153 0.49149 0.99734 0.0
H3186 H 0.15628 0.51948 0.01144 0.0
S3187 S 0.09151 0.49788 0.04034 0.0
N3188 N 0.10007 0.48421 0.0263 0.0
N3189 N 0.10502 0.51446 0.04118 0.0
C3190 C 0.11736 0.50933 0.02967 0.0
C3191 C 0.1147 0.49291 0.02165 0.0
C3192 C 0.2637 0.88443 0.25337 0.0
C3193 C 0.2702 0.89983 0.24607 0.0
C3194 C 0.24741 0.88386 0.26123 0.0
C3195 C 0.23686 0.8987 0.26232 0.0
H3196 H 0.27103 0.87247 0.25267 0.0
H3197 H 0.24311 0.87156 0.26648 0.0
S3198 S 0.24811 0.94262 0.24616 0.0
N3199 N 0.26504 0.93056 0.24099 0.0
N3200 N 0.23437 0.92953 0.2561 0.0
C3201 C 0.24335 0.91438 0.2556 0.0
C3202 C 0.26002 0.91494 0.24743 0.0
C3203 C 0.87173 0.01117 0.48992 0.0
C3204 C 0.85589 0.01907 0.48552 0.0
C3205 C 0.87227 0.99513 0.49829 0.0
C3206 C 0.857 0.98624 0.50282 0.0
H3207 H 0.88396 0.01726 0.48668 0.0
H3208 H 0.88489 0.98977 0.50134 0.0
S3209 S 0.81204 0.00134 0.49454 0.0
N3210 N 0.82442 0.01682 0.48642 0.0
N3211 N 0.82544 0.98663 0.50246 0.0
C3212 C 0.84099 0.994 0.49868 0.0
C3213 C 0.84044 0.01041 0.48998 0.0
C3214 C 0.72753 0.62864 0.75831 0.0
C3215 C 0.72091 0.61372 0.75022 0.0
C3216 C 0.74371 0.62856 0.76641 0.0
C3217 C 0.7541 0.61356 0.76674 0.0
H3218 H 0.72031 0.64069 0.75809 0.0
H3219 H 0.74819 0.64056 0.77218 0.0
S3220 S 0.74234 0.57067 0.7483 0.0
N3221 N 0.72561 0.58321 0.74368 0.0
N3222 N 0.7562 0.58304 0.75898 0.0
C3223 C 0.74743 0.59832 0.75922 0.0
C3224 C 0.73079 0.59839 0.75098 0.0
C3225 C 0.50239 0.63612 0.47657 0.0
C3226 C 0.49368 0.65143 0.47186 0.0
C3227 C 0.50998 0.63425 0.49289 0.0
C3228 C 0.50933 0.64763 0.50526 0.0
H3229 H 0.50286 0.62515 0.4678 0.0
H3230 H 0.51623 0.62202 0.49586 0.0
S3231 S 0.48942 0.69098 0.49899 0.0
N3232 N 0.48574 0.68072 0.48055 0.0
N3233 N 0.5003 0.67724 0.5113 0.0
C3234 C 0.50145 0.66338 0.50049 0.0
C3235 C 0.49359 0.66528 0.48377 0.0
C3236 C 0.01169 0.33378 0.00537 0.0
C3237 C 0.99475 0.33908 0.00934 0.0
C3238 C 0.01696 0.33168 0.98808 0.0
C3239 C 0.00564 0.33554 0.97427 0.0
H3240 H 0.0212 0.33238 0.01561 0.0
H3241 H 0.03048 0.3288 0.98553 0.0
S3242 S 0.9596 0.34859 0.97799 0.0
N3243 N 0.96622 0.34652 0.99826 0.0
N3244 N 0.97646 0.3436 0.96574 0.0
C3245 C 0.98839 0.33976 0.97813 0.0
C3246 C 0.98286 0.3413 0.99571 0.0
C3247 C 0.40683 0.75544 0.2535 0.0
C3248 C 0.39242 0.76621 0.25044 0.0
C3249 C 0.40852 0.74623 0.26913 0.0
C3250 C 0.39584 0.74748 0.2822 0.0
H3251 H 0.41649 0.75349 0.24349 0.0
H3252 H 0.41927 0.7373 0.27052 0.0
S3253 S 0.35731 0.77623 0.2819 0.0
N3254 N 0.36647 0.77932 0.26281 0.0
N3255 N 0.36964 0.76195 0.29198 0.0
C3256 C 0.38208 0.75916 0.27981 0.0
C3257 C 0.38037 0.76853 0.26398 0.0
C3258 C 0.98774 0.12637 0.48663 0.0
C3259 C 0.98521 0.14269 0.47888 0.0
C3260 C 0.99507 0.12477 0.50309 0.0
C3261 C 0.00034 0.1394 0.51262 0.0
H3262 H 0.98395 0.11458 0.47999 0.0
H3263 H 0.99681 0.11182 0.50825 0.0
S3264 S 0.99642 0.18525 0.4984 0.0
N3265 N 0.98832 0.17393 0.48212 0.0
N3266 N 0.00237 0.1709 0.51315 0.0
C3267 C 0.99781 0.15588 0.50515 0.0
C3268 C 0.99022 0.15753 0.48827 0.0
C3269 C 0.11621 0.22766 0.76192 0.0
C3270 C 0.10252 0.23056 0.7502 0.0
C3271 C 0.11644 0.23543 0.77827 0.0
C3272 C 0.10302 0.24653 0.78366 0.0
H3273 H 0.12715 0.21962 0.75832 0.0
H3274 H 0.12765 0.23325 0.78645 0.0
S3275 S 0.06325 0.25703 0.75861 0.0
N3276 N 0.07443 0.24415 0.74567 0.0
N3277 N 0.0749 0.25897 0.77648 0.0
C3278 C 0.08871 0.24877 0.77252 0.0
C3279 C 0.08846 0.24076 0.75576 0.0
C3280 C 0.48096 0.37427 0.50722 0.0
C3281 C 0.48085 0.35771 0.51487 0.0
C3282 C 0.48847 0.37714 0.49102 0.0
C3283 C 0.49639 0.36362 0.4817 0.0
H3284 H 0.47513 0.38526 0.51376 0.0
H3285 H 0.48834 0.39025 0.48597 0.0
S3286 S 0.49915 0.31759 0.49563 0.0
N3287 N 0.48883 0.32737 0.51164 0.0
N3288 N 0.50328 0.33281 0.48113 0.0
C3289 C 0.49614 0.34686 0.48899 0.0
C3290 C 0.48831 0.3439 0.50558 0.0
C3291 C 0.58303 0.73721 0.75825 0.0
C3292 C 0.58683 0.75394 0.76436 0.0
C3293 C 0.58182 0.73389 0.7404 0.0
C3294 C 0.58506 0.74706 0.72819 0.0
H3295 H 0.58225 0.72644 0.76724 0.0
H3296 H 0.58022 0.72059 0.73616 0.0
S3297 S 0.59413 0.79322 0.73759 0.0
N3298 N 0.59204 0.78413 0.75687 0.0
N3299 N 0.59087 0.77757 0.72334 0.0
C3300 C 0.58766 0.76401 0.73414 0.0
C3301 C 0.58826 0.76753 0.75227 0.0
C3302 C 0.49053 0.48899 0.65197 0.0
C3303 C 0.48271 0.48054 0.63781 0.0
C3304 C 0.5065 0.49759 0.65015 0.0
C3305 C 0.51531 0.49793 0.63414 0.0
H3306 H 0.48416 0.48921 0.66448 0.0
H3307 H 0.51176 0.50435 0.66128 0.0
S3308 S 0.50117 0.47625 0.59349 0.0
N3309 N 0.48559 0.47208 0.60753 0.0
N3310 N 0.51549 0.488 0.60418 0.0
C3311 C 0.50789 0.48898 0.62006 0.0
C3312 C 0.49163 0.48038 0.62187 0.0
C3313 C 0.47778 0.00211 0.16513 0.0
C3314 C 0.4651 0.00487 0.15229 0.0
C3315 C 0.49437 0.00954 0.16371 0.0
C3316 C 0.49881 0.02 0.14943 0.0
H3317 H 0.47528 0.99327 0.17576 0.0
H3318 H 0.50398 0.00641 0.17347 0.0
S3319 S 0.46912 0.03368 0.114 0.0
N3320 N 0.45735 0.0205 0.12608 0.0
N3321 N 0.4883 0.03459 0.12344 0.0
C3322 C 0.48577 0.0239 0.13723 0.0
C3323 C 0.46896 0.01632 0.13867 0.0
C3324 C 0.51485 0.52077 0.36729 0.0
C3325 C 0.5023 0.51879 0.35418 0.0
C3326 C 0.53094 0.51248 0.36629 0.0
C3327 C 0.53527 0.50189 0.35211 0.0
H3328 H 0.51208 0.52833 0.3788 0.0
H3329 H 0.53978 0.51383 0.37713 0.0
S3330 S 0.50784 0.49391 0.31336 0.0
N3331 N 0.49589 0.50661 0.32579 0.0
N3332 N 0.52624 0.49098 0.32392 0.0
C3333 C 0.52333 0.50066 0.33834 0.0
C3334 C 0.50681 0.50908 0.33939 0.0
C3335 C 0.51418 0.98704 0.84158 0.0
C3336 C 0.52654 0.0005 0.84203 0.0
C3337 C 0.49653 0.99045 0.84435 0.0
C3338 C 0.49064 0.00748 0.8469 0.0
H3339 H 0.51834 0.97363 0.84102 0.0
H3340 H 0.48764 0.97965 0.84573 0.0
S3341 S 0.51743 0.0474 0.84665 0.0
N3342 N 0.5315 0.03152 0.84368 0.0
N3343 N 0.49818 0.03807 0.8478 0.0
C3344 C 0.50261 0.02116 0.84548 0.0
C3345 C 0.52064 0.01764 0.8433 0.0
C3346 C 0.62517 0.98296 0.98005 0.0
C3347 C 0.64229 0.97672 0.97894 0.0
C3348 C 0.6212 0.9981 0.98912 0.0
C3349 C 0.63412 0.00773 0.99766 0.0
H3350 H 0.61463 0.97622 0.97366 0.0
H3351 H 0.60776 0.00217 0.9895 0.0
S3352 S 0.68105 0.99701 0.99904 0.0
N3353 N 0.67237 0.98136 0.98726 0.0
N3354 N 0.66484 0.00986 0.00461 0.0
C3355 C 0.65132 0.00164 0.99684 0.0
C3356 C 0.65542 0.98614 0.98745 0.0
C3357 C 0.74463 0.41446 0.25297 0.0
C3358 C 0.73374 0.39981 0.25206 0.0
C3359 C 0.76069 0.41485 0.24434 0.0
C3360 C 0.76649 0.40054 0.23461 0.0
H3361 H 0.74098 0.42552 0.26083 0.0
H3362 H 0.76873 0.4263 0.24556 0.0
S3363 S 0.74197 0.35979 0.22656 0.0
N3364 N 0.72932 0.37123 0.23944 0.0
N3365 N 0.75936 0.37184 0.22346 0.0
C3366 C 0.75542 0.38607 0.23312 0.0
C3367 C 0.73909 0.38574 0.24176 0.0
C3368 C 0.34882 0.48862 0.50863 0.0
C3369 C 0.36043 0.48115 0.52051 0.0
C3370 C 0.35215 0.50502 0.50138 0.0
C3371 C 0.36708 0.51455 0.506 0.0
H3372 H 0.33743 0.48152 0.50446 0.0
H3373 H 0.34331 0.50995 0.49165 0.0
S3374 S 0.39983 0.50182 0.53894 0.0
N3375 N 0.38627 0.48529 0.53811 0.0
N3376 N 0.39239 0.51605 0.52481 0.0
C3377 C 0.37814 0.50761 0.51873 0.0
C3378 C 0.37486 0.49092 0.5259 0.0
C3379 C 0.22492 0.11027 0.75954 0.0
C3380 C 0.22008 0.09631 0.74887 0.0
C3381 C 0.24158 0.11142 0.76655 0.0
C3382 C 0.2542 0.09866 0.76323 0.0
H3383 H 0.21598 0.12082 0.76198 0.0
H3384 H 0.24467 0.12272 0.7743 0.0
S3385 S 0.24768 0.05855 0.73746 0.0
N3386 N 0.22887 0.06872 0.7363 0.0
N3387 N 0.2603 0.07086 0.74964 0.0
C3388 C 0.24929 0.08409 0.7534 0.0
C3389 C 0.23221 0.0829 0.74621 0.0
C3390 C 0.87156 0.25007 0.26789 0.0
C3391 C 0.88745 0.24217 0.27207 0.0
C3392 C 0.86907 0.25841 0.252 0.0
C3393 C 0.88232 0.2592 0.23948 0.0
H3394 H 0.86074 0.24953 0.27683 0.0
H3395 H 0.85646 0.26406 0.24947 0.0
S3396 S 0.92677 0.24133 0.2443 0.0
N3397 N 0.91697 0.23623 0.26264 0.0
N3398 N 0.91227 0.25198 0.23267 0.0
C3399 C 0.89849 0.2518 0.24364 0.0
C3400 C 0.90106 0.24331 0.25995 0.0
C3401 C 0.65994 0.5135 0.50529 0.0
C3402 C 0.64693 0.52587 0.50196 0.0
C3403 C 0.65921 0.49687 0.49785 0.0
C3404 C 0.64546 0.49208 0.48683 0.0
H3405 H 0.67025 0.51635 0.5144 0.0
H3406 H 0.66914 0.48754 0.50124 0.0
S3407 S 0.60973 0.52082 0.4719 0.0
N3408 N 0.62106 0.5329 0.48545 0.0
N3409 N 0.61967 0.50188 0.4714 0.0
C3410 C 0.633 0.50476 0.48258 0.0
C3411 C 0.63375 0.5216 0.49015 0.0
C3412 C 0.75067 0.89588 0.75477 0.0
C3413 C 0.74692 0.88123 0.765 0.0
C3414 C 0.7673 0.89849 0.74781 0.0
C3415 C 0.78074 0.88651 0.75082 0.0
H3416 H 0.74055 0.90507 0.75155 0.0
H3417 H 0.76935 0.90942 0.73923 0.0
S3418 S 0.7785 0.84757 0.77895 0.0
N3419 N 0.75873 0.85572 0.77947 0.0
N3420 N 0.78978 0.8606 0.76626 0.0
C3421 C 0.77747 0.87245 0.76192 0.0
C3422 C 0.76062 0.86981 0.76904 0.0
C3423 C 0.34073 0.99642 0.00364 0.0
C3424 C 0.35365 0.99353 0.01619 0.0
C3425 C 0.34012 0.01201 0.99422 0.0
C3426 C 0.35245 0.02519 0.99705 0.0
H3427 H 0.3315 0.9863 0.0005 0.0
H3428 H 0.33061 0.0133 0.98397 0.0
S3429 S 0.38692 0.02533 0.03057 0.0
N3430 N 0.37757 0.00617 0.03253 0.0
N3431 N 0.37648 0.03525 0.01474 0.0
C3432 C 0.3646 0.02295 0.01041 0.0
C3433 C 0.3652 0.00717 0.02 0.0
C3434 C 0.23869 0.59966 0.23703 0.0
C3435 C 0.22947 0.61387 0.23024 0.0
C3436 C 0.25554 0.60167 0.24367 0.0
C3437 C 0.26387 0.61793 0.24365 0.0
H3438 H 0.23282 0.58691 0.23737 0.0
H3439 H 0.26193 0.59043 0.24915 0.0
S3440 S 0.24573 0.65913 0.22639 0.0
N3441 N 0.23025 0.6447 0.22333 0.0
N3442 N 0.26178 0.64839 0.23555 0.0
C3443 C 0.25494 0.63215 0.23647 0.0
C3444 C 0.23778 0.63015 0.22987 0.0
C3445 C 0.87667 0.75794 0.75064 0.0
C3446 C 0.89077 0.7518 0.76044 0.0
C3447 C 0.87876 0.76347 0.73356 0.0
C3448 C 0.8951 0.76335 0.72544 0.0
H3449 H 0.86372 0.75827 0.75607 0.0
H3450 H 0.86738 0.76814 0.72679 0.0
S3451 S 0.93638 0.74867 0.74535 0.0
N3452 N 0.92177 0.74584 0.76075 0.0
N3453 N 0.92577 0.75666 0.72854 0.0
C3454 C 0.90941 0.75733 0.73504 0.0
C3455 C 0.90724 0.75149 0.75254 0.0
loop_
_geom_bond_atom_site_label_1
_geom_bond_atom_site_label_2
_geom_bond_distance
_geom_bond_site_symmetry_2
_ccdc_geom_bond_type
O0 Cd1 2.223 . S
O0 C8 1.315 . S
Cd1 O0 2.223 . S
Cd1 O4 2.297 . S
Cd1 O5 2.439 . S
Cd1 O11 2.240 . S
Cd2 O3 2.240 . S
Cd2 O10 2.223 . S
Cd2 O12 2.297 . S
Cd2 O13 2.439 . S
O3 Cd2 2.240 . S
O3 C8 1.279 . S
O4 Cd1 2.297 . S
O4 C6 1.247 . S
O5 Cd1 2.439 . S
O5 C6 1.208 . S
C6 O4 1.247 . S
C6 O5 1.208 . S
C7 O12 1.247 . S
C7 O13 1.208 . S
C8 O0 1.315 . S
C8 O3 1.279 . S
C9 O10 1.315 . S
C9 O11 1.279 . S
O10 Cd2 2.223 . S
O10 C9 1.315 . S
O11 Cd1 2.240 . S
O11 C9 1.279 . S
O12 Cd2 2.297 . S
O12 C7 1.247 . S
O13 Cd2 2.439 . S
O13 C7 1.208 . S
O14 Cd15 2.223 . S
O14 C22 1.315 . S
Cd15 O14 2.223 . S
Cd15 O18 2.297 . S
Cd15 O19 2.439 . S
Cd15 O25 2.240 . S
Cd16 O17 2.240 . S
Cd16 O24 2.223 . S
Cd16 O26 2.297 . S
Cd16 O27 2.439 . S
O17 Cd16 2.240 . S
O17 C22 1.279 . S
O18 Cd15 2.297 . S
O18 C20 1.247 . S
O19 Cd15 2.439 . S
O19 C20 1.208 . S
C20 O18 1.247 . S
C20 O19 1.208 . S
C21 O26 1.247 . S
C21 O27 1.208 . S
C22 O14 1.315 . S
C22 O17 1.279 . S
C23 O24 1.315 . S
C23 O25 1.279 . S
O24 Cd16 2.223 . S
O24 C23 1.315 . S
O25 Cd15 2.240 . S
O25 C23 1.279 . S
O26 Cd16 2.297 . S
O26 C21 1.247 . S
O27 Cd16 2.439 . S
O27 C21 1.208 . S
O28 Cd29 2.223 . S
O28 C36 1.315 . S
Cd29 O28 2.223 . S
Cd29 O32 2.297 . S
Cd29 O33 2.439 . S
Cd29 O39 2.240 . S
Cd30 O31 2.240 . S
Cd30 O38 2.223 . S
Cd30 O40 2.297 . S
Cd30 O41 2.439 . S
O31 Cd30 2.240 . S
O31 C36 1.279 . S
O32 Cd29 2.297 . S
O32 C34 1.247 . S
O33 Cd29 2.439 . S
O33 C34 1.208 . S
C34 O32 1.247 . S
C34 O33 1.208 . S
C35 O40 1.247 . S
C35 O41 1.208 . S
C36 O28 1.315 . S
C36 O31 1.279 . S
C37 O38 1.315 . S
C37 O39 1.279 . S
O38 Cd30 2.223 . S
O38 C37 1.315 . S
O39 Cd29 2.240 . S
O39 C37 1.279 . S
O40 Cd30 2.297 . S
O40 C35 1.247 . S
O41 Cd30 2.439 . S
O41 C35 1.208 . S
O42 Cd43 2.223 . S
O42 C50 1.315 . S
Cd43 O42 2.223 . S
Cd43 O46 2.297 . S
Cd43 O47 2.439 . S
Cd43 O53 2.240 . S
Cd44 O45 2.240 . S
Cd44 O52 2.223 . S
Cd44 O54 2.297 . S
Cd44 O55 2.439 . S
O45 Cd44 2.240 . S
O45 C50 1.279 . S
O46 Cd43 2.297 . S
O46 C48 1.247 . S
O47 Cd43 2.439 . S
O47 C48 1.208 . S
C48 O46 1.247 . S
C48 O47 1.208 . S
C49 O54 1.247 . S
C49 O55 1.208 . S
C50 O42 1.315 . S
C50 O45 1.279 . S
C51 O52 1.315 . S
C51 O53 1.279 . S
O52 Cd44 2.223 . S
O52 C51 1.315 . S
O53 Cd43 2.240 . S
O53 C51 1.279 . S
O54 Cd44 2.297 . S
O54 C49 1.247 . S
O55 Cd44 2.439 . S
O55 C49 1.208 . S
O56 Cd57 2.223 . S
O56 C64 1.315 . S
Cd57 O56 2.223 . S
Cd57 O60 2.297 . S
Cd57 O61 2.439 . S
Cd57 O67 2.240 . S
Cd58 O59 2.240 . S
Cd58 O66 2.223 . S
Cd58 O68 2.297 . S
Cd58 O69 2.439 . S
O59 Cd58 2.240 . S
O59 C64 1.279 . S
O60 Cd57 2.297 . S
O60 C62 1.247 . S
O61 Cd57 2.439 . S
O61 C62 1.208 . S
C62 O60 1.247 . S
C62 O61 1.208 . S
C63 O68 1.247 . S
C63 O69 1.208 . S
C64 O56 1.315 . S
C64 O59 1.279 . S
C65 O66 1.315 . S
C65 O67 1.279 . S
O66 Cd58 2.223 . S
O66 C65 1.315 . S
O67 Cd57 2.240 . S
O67 C65 1.279 . S
O68 Cd58 2.297 . S
O68 C63 1.247 . S
O69 Cd58 2.439 . S
O69 C63 1.208 . S
O70 Cd71 2.223 . S
O70 C78 1.315 . S
Cd71 O70 2.223 . S
Cd71 O74 2.297 . S
Cd71 O75 2.439 . S
Cd71 O81 2.240 . S
Cd72 O73 2.240 . S
Cd72 O80 2.223 . S
Cd72 O82 2.297 . S
Cd72 O83 2.439 . S
O73 Cd72 2.240 . S
O73 C78 1.279 . S
O74 Cd71 2.297 . S
O74 C76 1.247 . S
O75 Cd71 2.439 . S
O75 C76 1.208 . S
C76 O74 1.247 . S
C76 O75 1.208 . S
C77 O82 1.247 . S
C77 O83 1.208 . S
C78 O70 1.315 . S
C78 O73 1.279 . S
C79 O80 1.315 . S
C79 O81 1.279 . S
O80 Cd72 2.223 . S
O80 C79 1.315 . S
O81 Cd71 2.240 . S
O81 C79 1.279 . S
O82 Cd72 2.297 . S
O82 C77 1.247 . S
O83 Cd72 2.439 . S
O83 C77 1.208 . S
O84 Cd85 2.223 . S
O84 C92 1.315 . S
Cd85 O84 2.223 . S
Cd85 O88 2.297 . S
Cd85 O89 2.439 . S
Cd85 O95 2.240 . S
Cd86 O87 2.240 . S
Cd86 O94 2.223 . S
Cd86 O96 2.297 . S
Cd86 O97 2.439 . S
O87 Cd86 2.240 . S
O87 C92 1.279 . S
O88 Cd85 2.297 . S
O88 C90 1.247 . S
O89 Cd85 2.439 . S
O89 C90 1.208 . S
C90 O88 1.247 . S
C90 O89 1.208 . S
C91 O96 1.247 . S
C91 O97 1.208 . S
C92 O84 1.315 . S
C92 O87 1.279 . S
C93 O94 1.315 . S
C93 O95 1.279 . S
O94 Cd86 2.223 . S
O94 C93 1.315 . S
O95 Cd85 2.240 . S
O95 C93 1.279 . S
O96 Cd86 2.297 . S
O96 C91 1.247 . S
O97 Cd86 2.439 . S
O97 C91 1.208 . S
O98 Cd99 2.223 . S
O98 C106 1.315 . S
Cd99 O98 2.223 . S
Cd99 O102 2.297 . S
Cd99 O103 2.439 . S
Cd99 O109 2.240 . S
Cd100 O101 2.240 . S
Cd100 O108 2.223 . S
Cd100 O110 2.297 . S
Cd100 O111 2.439 . S
O101 Cd100 2.240 . S
O101 C106 1.279 . S
O102 Cd99 2.297 . S
O102 C104 1.247 . S
O103 Cd99 2.439 . S
O103 C104 1.208 . S
C104 O102 1.247 . S
C104 O103 1.208 . S
C105 O110 1.247 . S
C105 O111 1.208 . S
C106 O98 1.315 . S
C106 O101 1.279 . S
C107 O108 1.315 . S
C107 O109 1.279 . S
O108 Cd100 2.223 . S
O108 C107 1.315 . S
O109 Cd99 2.240 . S
O109 C107 1.279 . S
O110 Cd100 2.297 . S
O110 C105 1.247 . S
O111 Cd100 2.439 . S
O111 C105 1.208 . S
O112 Cd113 2.223 . S
O112 C120 1.315 . S
Cd113 O112 2.223 . S
Cd113 O116 2.297 . S
Cd113 O117 2.439 . S
Cd113 O123 2.240 . S
Cd114 O115 2.240 . S
Cd114 O122 2.223 . S
Cd114 O124 2.297 . S
Cd114 O125 2.439 . S
O115 Cd114 2.240 . S
O115 C120 1.279 . S
O116 Cd113 2.297 . S
O116 C118 1.247 . S
O117 Cd113 2.439 . S
O117 C118 1.208 . S
C118 O116 1.247 . S
C118 O117 1.208 . S
C119 O124 1.247 . S
C119 O125 1.208 . S
C120 O112 1.315 . S
C120 O115 1.279 . S
C121 O122 1.315 . S
C121 O123 1.279 . S
O122 Cd114 2.223 . S
O122 C121 1.315 . S
O123 Cd113 2.240 . S
O123 C121 1.279 . S
O124 Cd114 2.297 . S
O124 C119 1.247 . S
O125 Cd114 2.439 . S
O125 C119 1.208 . S
O126 Cd127 2.223 . S
O126 C134 1.315 . S
Cd127 O126 2.223 . S
Cd127 O130 2.297 . S
Cd127 O131 2.439 . S
Cd127 O137 2.240 . S
Cd128 O129 2.240 . S
Cd128 O136 2.223 . S
Cd128 O138 2.297 . S
Cd128 O139 2.439 . S
O129 Cd128 2.240 . S
O129 C134 1.279 . S
O130 Cd127 2.297 . S
O130 C132 1.247 . S
O131 Cd127 2.439 . S
O131 C132 1.208 . S
C132 O130 1.247 . S
C132 O131 1.208 . S
C133 O138 1.247 . S
C133 O139 1.208 . S
C134 O126 1.315 . S
C134 O129 1.279 . S
C135 O136 1.315 . S
C135 O137 1.279 . S
O136 Cd128 2.223 . S
O136 C135 1.315 . S
O137 Cd127 2.240 . S
O137 C135 1.279 . S
O138 Cd128 2.297 . S
O138 C133 1.247 . S
O139 Cd128 2.439 . S
O139 C133 1.208 . S
O140 Cd141 2.223 . S
O140 C148 1.315 . S
Cd141 O140 2.223 . S
Cd141 O144 2.297 . S
Cd141 O145 2.439 . S
Cd141 O151 2.240 . S
Cd142 O143 2.240 . S
Cd142 O150 2.223 . S
Cd142 O152 2.297 . S
Cd142 O153 2.439 . S
O143 Cd142 2.240 . S
O143 C148 1.279 . S
O144 Cd141 2.297 . S
O144 C146 1.247 . S
O145 Cd141 2.439 . S
O145 C146 1.208 . S
C146 O144 1.247 . S
C146 O145 1.208 . S
C147 O152 1.247 . S
C147 O153 1.208 . S
C148 O140 1.315 . S
C148 O143 1.279 . S
C149 O150 1.315 . S
C149 O151 1.279 . S
O150 Cd142 2.223 . S
O150 C149 1.315 . S
O151 Cd141 2.240 . S
O151 C149 1.279 . S
O152 Cd142 2.297 . S
O152 C147 1.247 . S
O153 Cd142 2.439 . S
O153 C147 1.208 . S
O154 Cd155 2.223 . S
O154 C162 1.315 . S
Cd155 O154 2.223 . S
Cd155 O158 2.297 . S
Cd155 O159 2.439 . S
Cd155 O165 2.240 . S
Cd156 O157 2.240 . S
Cd156 O164 2.223 . S
Cd156 O166 2.297 . S
Cd156 O167 2.439 . S
O157 Cd156 2.240 . S
O157 C162 1.279 . S
O158 Cd155 2.297 . S
O158 C160 1.247 . S
O159 Cd155 2.439 . S
O159 C160 1.208 . S
C160 O158 1.247 . S
C160 O159 1.208 . S
C161 O166 1.247 . S
C161 O167 1.208 . S
C162 O154 1.315 . S
C162 O157 1.279 . S
C163 O164 1.315 . S
C163 O165 1.279 . S
O164 Cd156 2.223 . S
O164 C163 1.315 . S
O165 Cd155 2.240 . S
O165 C163 1.279 . S
O166 Cd156 2.297 . S
O166 C161 1.247 . S
O167 Cd156 2.439 . S
O167 C161 1.208 . S
O168 Cd169 2.223 . S
O168 C176 1.315 . S
Cd169 O168 2.223 . S
Cd169 O172 2.297 . S
Cd169 O173 2.439 . S
Cd169 O179 2.240 . S
Cd170 O171 2.240 . S
Cd170 O178 2.223 . S
Cd170 O180 2.297 . S
Cd170 O181 2.439 . S
O171 Cd170 2.240 . S
O171 C176 1.279 . S
O172 Cd169 2.297 . S
O172 C174 1.247 . S
O173 Cd169 2.439 . S
O173 C174 1.208 . S
C174 O172 1.247 . S
C174 O173 1.208 . S
C175 O180 1.247 . S
C175 O181 1.208 . S
C176 O168 1.315 . S
C176 O171 1.279 . S
C177 O178 1.315 . S
C177 O179 1.279 . S
O178 Cd170 2.223 . S
O178 C177 1.315 . S
O179 Cd169 2.240 . S
O179 C177 1.279 . S
O180 Cd170 2.297 . S
O180 C175 1.247 . S
O181 Cd170 2.439 . S
O181 C175 1.208 . S
O182 Cd183 2.223 . S
O182 C190 1.315 . S
Cd183 O182 2.223 . S
Cd183 O186 2.297 . S
Cd183 O187 2.439 . S
Cd183 O193 2.240 . S
Cd184 O185 2.240 . S
Cd184 O192 2.223 . S
Cd184 O194 2.297 . S
Cd184 O195 2.439 . S
O185 Cd184 2.240 . S
O185 C190 1.279 . S
O186 Cd183 2.297 . S
O186 C188 1.247 . S
O187 Cd183 2.439 . S
O187 C188 1.208 . S
C188 O186 1.247 . S
C188 O187 1.208 . S
C189 O194 1.247 . S
C189 O195 1.208 . S
C190 O182 1.315 . S
C190 O185 1.279 . S
C191 O192 1.315 . S
C191 O193 1.279 . S
O192 Cd184 2.223 . S
O192 C191 1.315 . S
O193 Cd183 2.240 . S
O193 C191 1.279 . S
O194 Cd184 2.297 . S
O194 C189 1.247 . S
O195 Cd184 2.439 . S
O195 C189 1.208 . S
O196 Cd197 2.223 . S
O196 C204 1.315 . S
Cd197 O196 2.223 . S
Cd197 O200 2.297 . S
Cd197 O201 2.439 . S
Cd197 O207 2.240 . S
Cd198 O199 2.240 . S
Cd198 O206 2.223 . S
Cd198 O208 2.297 . S
Cd198 O209 2.439 . S
O199 Cd198 2.240 . S
O199 C204 1.279 . S
O200 Cd197 2.297 . S
O200 C202 1.247 . S
O201 Cd197 2.439 . S
O201 C202 1.208 . S
C202 O200 1.247 . S
C202 O201 1.208 . S
C203 O208 1.247 . S
C203 O209 1.208 . S
C204 O196 1.315 . S
C204 O199 1.279 . S
C205 O206 1.315 . S
C205 O207 1.279 . S
O206 Cd198 2.223 . S
O206 C205 1.315 . S
O207 Cd197 2.240 . S
O207 C205 1.279 . S
O208 Cd198 2.297 . S
O208 C203 1.247 . S
O209 Cd198 2.439 . S
O209 C203 1.208 . S
O210 Cd211 2.223 . S
O210 C218 1.315 . S
Cd211 O210 2.223 . S
Cd211 O214 2.297 . S
Cd211 O215 2.439 . S
Cd211 O221 2.240 . S
Cd212 O213 2.240 . S
Cd212 O220 2.223 . S
Cd212 O222 2.297 . S
Cd212 O223 2.439 . S
O213 Cd212 2.240 . S
O213 C218 1.279 . S
O214 Cd211 2.297 . S
O214 C216 1.247 . S
O215 Cd211 2.439 . S
O215 C216 1.208 . S
C216 O214 1.247 . S
C216 O215 1.208 . S
C217 O222 1.247 . S
C217 O223 1.208 . S
C218 O210 1.315 . S
C218 O213 1.279 . S
C219 O220 1.315 . S
C219 O221 1.279 . S
O220 Cd212 2.223 . S
O220 C219 1.315 . S
O221 Cd211 2.240 . S
O221 C219 1.279 . S
O222 Cd212 2.297 . S
O222 C217 1.247 . S
O223 Cd212 2.439 . S
O223 C217 1.208 . S
O224 Cd225 2.223 . S
O224 C232 1.315 . S
Cd225 O224 2.223 . S
Cd225 O228 2.297 . S
Cd225 O229 2.439 . S
Cd225 O235 2.240 . S
Cd226 O227 2.240 . S
Cd226 O234 2.223 . S
Cd226 O236 2.297 . S
Cd226 O237 2.439 . S
O227 Cd226 2.240 . S
O227 C232 1.279 . S
O228 Cd225 2.297 . S
O228 C230 1.247 . S
O229 Cd225 2.439 . S
O229 C230 1.208 . S
C230 O228 1.247 . S
C230 O229 1.208 . S
C231 O236 1.247 . S
C231 O237 1.208 . S
C232 O224 1.315 . S
C232 O227 1.279 . S
C233 O234 1.315 . S
C233 O235 1.279 . S
O234 Cd226 2.223 . S
O234 C233 1.315 . S
O235 Cd225 2.240 . S
O235 C233 1.279 . S
O236 Cd226 2.297 . S
O236 C231 1.247 . S
O237 Cd226 2.439 . S
O237 C231 1.208 . S
O238 Cd239 2.223 . S
O238 C246 1.315 . S
Cd239 O238 2.223 . S
Cd239 O242 2.297 . S
Cd239 O243 2.439 . S
Cd239 O249 2.240 . S
Cd240 O241 2.240 . S
Cd240 O248 2.223 . S
Cd240 O250 2.297 . S
Cd240 O251 2.439 . S
O241 Cd240 2.240 . S
O241 C246 1.279 . S
O242 Cd239 2.297 . S
O242 C244 1.247 . S
O243 Cd239 2.439 . S
O243 C244 1.208 . S
C244 O242 1.247 . S
C244 O243 1.208 . S
C245 O250 1.247 . S
C245 O251 1.208 . S
C246 O238 1.315 . S
C246 O241 1.279 . S
C247 O248 1.315 . S
C247 O249 1.279 . S
O248 Cd240 2.223 . S
O248 C247 1.315 . S
O249 Cd239 2.240 . S
O249 C247 1.279 . S
O250 Cd240 2.297 . S
O250 C245 1.247 . S
O251 Cd240 2.439 . S
O251 C245 1.208 . S
O252 Cd253 2.223 . S
O252 C260 1.315 . S
Cd253 O252 2.223 . S
Cd253 O256 2.297 . S
Cd253 O257 2.439 . S
Cd253 O263 2.240 . S
Cd254 O255 2.240 . S
Cd254 O262 2.223 . S
Cd254 O264 2.297 . S
Cd254 O265 2.439 . S
O255 Cd254 2.240 . S
O255 C260 1.279 . S
O256 Cd253 2.297 . S
O256 C258 1.247 . S
O257 Cd253 2.439 . S
O257 C258 1.208 . S
C258 O256 1.247 . S
C258 O257 1.208 . S
C259 O264 1.247 . S
C259 O265 1.208 . S
C260 O252 1.315 . S
C260 O255 1.279 . S
C261 O262 1.315 . S
C261 O263 1.279 . S
O262 Cd254 2.223 . S
O262 C261 1.315 . S
O263 Cd253 2.240 . S
O263 C261 1.279 . S
O264 Cd254 2.297 . S
O264 C259 1.247 . S
O265 Cd254 2.439 . S
O265 C259 1.208 . S
O266 Cd267 2.223 . S
O266 C274 1.315 . S
Cd267 O266 2.223 . S
Cd267 O270 2.297 . S
Cd267 O271 2.439 . S
Cd267 O277 2.240 . S
Cd268 O269 2.240 . S
Cd268 O276 2.223 . S
Cd268 O278 2.297 . S
Cd268 O279 2.439 . S
O269 Cd268 2.240 . S
O269 C274 1.279 . S
O270 Cd267 2.297 . S
O270 C272 1.247 . S
O271 Cd267 2.439 . S
O271 C272 1.208 . S
C272 O270 1.247 . S
C272 O271 1.208 . S
C273 O278 1.247 . S
C273 O279 1.208 . S
C274 O266 1.315 . S
C274 O269 1.279 . S
C275 O276 1.315 . S
C275 O277 1.279 . S
O276 Cd268 2.223 . S
O276 C275 1.315 . S
O277 Cd267 2.240 . S
O277 C275 1.279 . S
O278 Cd268 2.297 . S
O278 C273 1.247 . S
O279 Cd268 2.439 . S
O279 C273 1.208 . S
O280 Cd281 2.223 . S
O280 C288 1.315 . S
Cd281 O280 2.223 . S
Cd281 O284 2.297 . S
Cd281 O285 2.439 . S
Cd281 O291 2.240 . S
Cd282 O283 2.240 . S
Cd282 O290 2.223 . S
Cd282 O292 2.297 . S
Cd282 O293 2.439 . S
O283 Cd282 2.240 . S
O283 C288 1.279 . S
O284 Cd281 2.297 . S
O284 C286 1.247 . S
O285 Cd281 2.439 . S
O285 C286 1.208 . S
C286 O284 1.247 . S
C286 O285 1.208 . S
C287 O292 1.247 . S
C287 O293 1.208 . S
C288 O280 1.315 . S
C288 O283 1.279 . S
C289 O290 1.315 . S
C289 O291 1.279 . S
O290 Cd282 2.223 . S
O290 C289 1.315 . S
O291 Cd281 2.240 . S
O291 C289 1.279 . S
O292 Cd282 2.297 . S
O292 C287 1.247 . S
O293 Cd282 2.439 . S
O293 C287 1.208 . S
O294 Cd295 2.223 . S
O294 C302 1.315 . S
Cd295 O294 2.223 . S
Cd295 O298 2.297 . S
Cd295 O299 2.439 . S
Cd295 O305 2.240 . S
Cd296 O297 2.240 . S
Cd296 O304 2.223 . S
Cd296 O306 2.297 . S
Cd296 O307 2.439 . S
O297 Cd296 2.240 . S
O297 C302 1.279 . S
O298 Cd295 2.297 . S
O298 C300 1.247 . S
O299 Cd295 2.439 . S
O299 C300 1.208 . S
C300 O298 1.247 . S
C300 O299 1.208 . S
C301 O306 1.247 . S
C301 O307 1.208 . S
C302 O294 1.315 . S
C302 O297 1.279 . S
C303 O304 1.315 . S
C303 O305 1.279 . S
O304 Cd296 2.223 . S
O304 C303 1.315 . S
O305 Cd295 2.240 . S
O305 C303 1.279 . S
O306 Cd296 2.297 . S
O306 C301 1.247 . S
O307 Cd296 2.439 . S
O307 C301 1.208 . S
O308 Cd309 2.223 . S
O308 C316 1.315 . S
Cd309 O308 2.223 . S
Cd309 O312 2.297 . S
Cd309 O313 2.439 . S
Cd309 O319 2.240 . S
Cd310 O311 2.240 . S
Cd310 O318 2.223 . S
Cd310 O320 2.297 . S
Cd310 O321 2.439 . S
O311 Cd310 2.240 . S
O311 C316 1.279 . S
O312 Cd309 2.297 . S
O312 C314 1.247 . S
O313 Cd309 2.439 . S
O313 C314 1.208 . S
C314 O312 1.247 . S
C314 O313 1.208 . S
C315 O320 1.247 . S
C315 O321 1.208 . S
C316 O308 1.315 . S
C316 O311 1.279 . S
C317 O318 1.315 . S
C317 O319 1.279 . S
O318 Cd310 2.223 . S
O318 C317 1.315 . S
O319 Cd309 2.240 . S
O319 C317 1.279 . S
O320 Cd310 2.297 . S
O320 C315 1.247 . S
O321 Cd310 2.439 . S
O321 C315 1.208 . S
O322 Cd323 2.223 . S
O322 C330 1.315 . S
Cd323 O322 2.223 . S
Cd323 O326 2.297 . S
Cd323 O327 2.439 . S
Cd323 O333 2.240 . S
Cd324 O325 2.240 . S
Cd324 O332 2.223 . S
Cd324 O334 2.297 . S
Cd324 O335 2.439 . S
O325 Cd324 2.240 . S
O325 C330 1.279 . S
O326 Cd323 2.297 . S
O326 C328 1.247 . S
O327 Cd323 2.439 . S
O327 C328 1.208 . S
C328 O326 1.247 . S
C328 O327 1.208 . S
C329 O334 1.247 . S
C329 O335 1.208 . S
C330 O322 1.315 . S
C330 O325 1.279 . S
C331 O332 1.315 . S
C331 O333 1.279 . S
O332 Cd324 2.223 . S
O332 C331 1.315 . S
O333 Cd323 2.240 . S
O333 C331 1.279 . S
O334 Cd324 2.297 . S
O334 C329 1.247 . S
O335 Cd324 2.439 . S
O335 C329 1.208 . S
O336 Cd337 2.223 . S
O336 C344 1.315 . S
Cd337 O336 2.223 . S
Cd337 O340 2.297 . S
Cd337 O341 2.439 . S
Cd337 O347 2.240 . S
Cd338 O339 2.240 . S
Cd338 O346 2.223 . S
Cd338 O348 2.297 . S
Cd338 O349 2.439 . S
O339 Cd338 2.240 . S
O339 C344 1.279 . S
O340 Cd337 2.297 . S
O340 C342 1.247 . S
O341 Cd337 2.439 . S
O341 C342 1.208 . S
C342 O340 1.247 . S
C342 O341 1.208 . S
C343 O348 1.247 . S
C343 O349 1.208 . S
C344 O336 1.315 . S
C344 O339 1.279 . S
C345 O346 1.315 . S
C345 O347 1.279 . S
O346 Cd338 2.223 . S
O346 C345 1.315 . S
O347 Cd337 2.240 . S
O347 C345 1.279 . S
O348 Cd338 2.297 . S
O348 C343 1.247 . S
O349 Cd338 2.439 . S
O349 C343 1.208 . S
O350 Cd351 2.223 . S
O350 C358 1.315 . S
Cd351 O350 2.223 . S
Cd351 O354 2.297 . S
Cd351 O355 2.439 . S
Cd351 O361 2.240 . S
Cd352 O353 2.240 . S
Cd352 O360 2.223 . S
Cd352 O362 2.297 . S
Cd352 O363 2.439 . S
O353 Cd352 2.240 . S
O353 C358 1.279 . S
O354 Cd351 2.297 . S
O354 C356 1.247 . S
O355 Cd351 2.439 . S
O355 C356 1.208 . S
C356 O354 1.247 . S
C356 O355 1.208 . S
C357 O362 1.247 . S
C357 O363 1.208 . S
C358 O350 1.315 . S
C358 O353 1.279 . S
C359 O360 1.315 . S
C359 O361 1.279 . S
O360 Cd352 2.223 . S
O360 C359 1.315 . S
O361 Cd351 2.240 . S
O361 C359 1.279 . S
O362 Cd352 2.297 . S
O362 C357 1.247 . S
O363 Cd352 2.439 . S
O363 C357 1.208 . S
O364 Cd365 2.223 . S
O364 C372 1.315 . S
Cd365 O364 2.223 . S
Cd365 O368 2.297 . S
Cd365 O369 2.439 . S
Cd365 O375 2.240 . S
Cd366 O367 2.240 . S
Cd366 O374 2.223 . S
Cd366 O376 2.297 . S
Cd366 O377 2.439 . S
O367 Cd366 2.240 . S
O367 C372 1.279 . S
O368 Cd365 2.297 . S
O368 C370 1.247 . S
O369 Cd365 2.439 . S
O369 C370 1.208 . S
C370 O368 1.247 . S
C370 O369 1.208 . S
C371 O376 1.247 . S
C371 O377 1.208 . S
C372 O364 1.315 . S
C372 O367 1.279 . S
C373 O374 1.315 . S
C373 O375 1.279 . S
O374 Cd366 2.223 . S
O374 C373 1.315 . S
O375 Cd365 2.240 . S
O375 C373 1.279 . S
O376 Cd366 2.297 . S
O376 C371 1.247 . S
O377 Cd366 2.439 . S
O377 C371 1.208 . S
O378 Cd379 2.223 . S
O378 C386 1.315 . S
Cd379 O378 2.223 . S
Cd379 O382 2.297 . S
Cd379 O383 2.439 . S
Cd379 O389 2.240 . S
Cd380 O381 2.240 . S
Cd380 O388 2.223 . S
Cd380 O390 2.297 . S
Cd380 O391 2.439 . S
O381 Cd380 2.240 . S
O381 C386 1.279 . S
O382 Cd379 2.297 . S
O382 C384 1.247 . S
O383 Cd379 2.439 . S
O383 C384 1.208 . S
C384 O382 1.247 . S
C384 O383 1.208 . S
C385 O390 1.247 . S
C385 O391 1.208 . S
C386 O378 1.315 . S
C386 O381 1.279 . S
C387 O388 1.315 . S
C387 O389 1.279 . S
O388 Cd380 2.223 . S
O388 C387 1.315 . S
O389 Cd379 2.240 . S
O389 C387 1.279 . S
O390 Cd380 2.297 . S
O390 C385 1.247 . S
O391 Cd380 2.439 . S
O391 C385 1.208 . S
O392 Cd393 2.223 . S
O392 C400 1.315 . S
Cd393 O392 2.223 . S
Cd393 O396 2.297 . S
Cd393 O397 2.439 . S
Cd393 O403 2.240 . S
Cd394 O395 2.240 . S
Cd394 O402 2.223 . S
Cd394 O404 2.297 . S
Cd394 O405 2.439 . S
O395 Cd394 2.240 . S
O395 C400 1.279 . S
O396 Cd393 2.297 . S
O396 C398 1.247 . S
O397 Cd393 2.439 . S
O397 C398 1.208 . S
C398 O396 1.247 . S
C398 O397 1.208 . S
C399 O404 1.247 . S
C399 O405 1.208 . S
C400 O392 1.315 . S
C400 O395 1.279 . S
C401 O402 1.315 . S
C401 O403 1.279 . S
O402 Cd394 2.223 . S
O402 C401 1.315 . S
O403 Cd393 2.240 . S
O403 C401 1.279 . S
O404 Cd394 2.297 . S
O404 C399 1.247 . S
O405 Cd394 2.439 . S
O405 C399 1.208 . S
O406 Cd407 2.223 . S
O406 C414 1.315 . S
Cd407 O406 2.223 . S
Cd407 O410 2.297 . S
Cd407 O411 2.439 . S
Cd407 O417 2.240 . S
Cd408 O409 2.240 . S
Cd408 O416 2.223 . S
Cd408 O418 2.297 . S
Cd408 O419 2.439 . S
O409 Cd408 2.240 . S
O409 C414 1.279 . S
O410 Cd407 2.297 . S
O410 C412 1.247 . S
O411 Cd407 2.439 . S
O411 C412 1.208 . S
C412 O410 1.247 . S
C412 O411 1.208 . S
C413 O418 1.247 . S
C413 O419 1.208 . S
C414 O406 1.315 . S
C414 O409 1.279 . S
C415 O416 1.315 . S
C415 O417 1.279 . S
O416 Cd408 2.223 . S
O416 C415 1.315 . S
O417 Cd407 2.240 . S
O417 C415 1.279 . S
O418 Cd408 2.297 . S
O418 C413 1.247 . S
O419 Cd408 2.439 . S
O419 C413 1.208 . S
O420 Cd421 2.223 . S
O420 C428 1.315 . S
Cd421 O420 2.223 . S
Cd421 O424 2.297 . S
Cd421 O425 2.439 . S
Cd421 O431 2.240 . S
Cd422 O423 2.240 . S
Cd422 O430 2.223 . S
Cd422 O432 2.297 . S
Cd422 O433 2.439 . S
O423 Cd422 2.240 . S
O423 C428 1.279 . S
O424 Cd421 2.297 . S
O424 C426 1.247 . S
O425 Cd421 2.439 . S
O425 C426 1.208 . S
C426 O424 1.247 . S
C426 O425 1.208 . S
C427 O432 1.247 . S
C427 O433 1.208 . S
C428 O420 1.315 . S
C428 O423 1.279 . S
C429 O430 1.315 . S
C429 O431 1.279 . S
O430 Cd422 2.223 . S
O430 C429 1.315 . S
O431 Cd421 2.240 . S
O431 C429 1.279 . S
O432 Cd422 2.297 . S
O432 C427 1.247 . S
O433 Cd422 2.439 . S
O433 C427 1.208 . S
O434 Cd435 2.223 . S
O434 C442 1.315 . S
Cd435 O434 2.223 . S
Cd435 O438 2.297 . S
Cd435 O439 2.439 . S
Cd435 O445 2.240 . S
Cd436 O437 2.240 . S
Cd436 O444 2.223 . S
Cd436 O446 2.297 . S
Cd436 O447 2.439 . S
O437 Cd436 2.240 . S
O437 C442 1.279 . S
O438 Cd435 2.297 . S
O438 C440 1.247 . S
O439 Cd435 2.439 . S
O439 C440 1.208 . S
C440 O438 1.247 . S
C440 O439 1.208 . S
C441 O446 1.247 . S
C441 O447 1.208 . S
C442 O434 1.315 . S
C442 O437 1.279 . S
C443 O444 1.315 . S
C443 O445 1.279 . S
O444 Cd436 2.223 . S
O444 C443 1.315 . S
O445 Cd435 2.240 . S
O445 C443 1.279 . S
O446 Cd436 2.297 . S
O446 C441 1.247 . S
O447 Cd436 2.439 . S
O447 C441 1.208 . S
O448 Cd449 2.223 . S
O448 C456 1.315 . S
Cd449 O448 2.223 . S
Cd449 O452 2.297 . S
Cd449 O453 2.439 . S
Cd449 O459 2.240 . S
Cd450 O451 2.240 . S
Cd450 O458 2.223 . S
Cd450 O460 2.297 . S
Cd450 O461 2.439 . S
O451 Cd450 2.240 . S
O451 C456 1.279 . S
O452 Cd449 2.297 . S
O452 C454 1.247 . S
O453 Cd449 2.439 . S
O453 C454 1.208 . S
C454 O452 1.247 . S
C454 O453 1.208 . S
C455 O460 1.247 . S
C455 O461 1.208 . S
C456 O448 1.315 . S
C456 O451 1.279 . S
C457 O458 1.315 . S
C457 O459 1.279 . S
O458 Cd450 2.223 . S
O458 C457 1.315 . S
O459 Cd449 2.240 . S
O459 C457 1.279 . S
O460 Cd450 2.297 . S
O460 C455 1.247 . S
O461 Cd450 2.439 . S
O461 C455 1.208 . S
O462 Cd463 2.223 . S
O462 C470 1.315 . S
Cd463 O462 2.223 . S
Cd463 O466 2.297 . S
Cd463 O467 2.439 . S
Cd463 O473 2.240 . S
Cd464 O465 2.240 . S
Cd464 O472 2.223 . S
Cd464 O474 2.297 . S
Cd464 O475 2.439 . S
O465 Cd464 2.240 . S
O465 C470 1.279 . S
O466 Cd463 2.297 . S
O466 C468 1.247 . S
O467 Cd463 2.439 . S
O467 C468 1.208 . S
C468 O466 1.247 . S
C468 O467 1.208 . S
C469 O474 1.247 . S
C469 O475 1.208 . S
C470 O462 1.315 . S
C470 O465 1.279 . S
C471 O472 1.315 . S
C471 O473 1.279 . S
O472 Cd464 2.223 . S
O472 C471 1.315 . S
O473 Cd463 2.240 . S
O473 C471 1.279 . S
O474 Cd464 2.297 . S
O474 C469 1.247 . S
O475 Cd464 2.439 . S
O475 C469 1.208 . S
O476 Cd477 2.223 . S
O476 C484 1.315 . S
Cd477 O476 2.223 . S
Cd477 O480 2.297 . S
Cd477 O481 2.439 . S
Cd477 O487 2.240 . S
Cd478 O479 2.240 . S
Cd478 O486 2.223 . S
Cd478 O488 2.297 . S
Cd478 O489 2.439 . S
O479 Cd478 2.240 . S
O479 C484 1.279 . S
O480 Cd477 2.297 . S
O480 C482 1.247 . S
O481 Cd477 2.439 . S
O481 C482 1.208 . S
C482 O480 1.247 . S
C482 O481 1.208 . S
C483 O488 1.247 . S
C483 O489 1.208 . S
C484 O476 1.315 . S
C484 O479 1.279 . S
C485 O486 1.315 . S
C485 O487 1.279 . S
O486 Cd478 2.223 . S
O486 C485 1.315 . S
O487 Cd477 2.240 . S
O487 C485 1.279 . S
O488 Cd478 2.297 . S
O488 C483 1.247 . S
O489 Cd478 2.439 . S
O489 C483 1.208 . S
O490 Cd491 2.223 . S
O490 C498 1.315 . S
Cd491 O490 2.223 . S
Cd491 O494 2.297 . S
Cd491 O495 2.439 . S
Cd491 O501 2.240 . S
Cd492 O493 2.240 . S
Cd492 O500 2.223 . S
Cd492 O502 2.297 . S
Cd492 O503 2.439 . S
O493 Cd492 2.240 . S
O493 C498 1.279 . S
O494 Cd491 2.297 . S
O494 C496 1.247 . S
O495 Cd491 2.439 . S
O495 C496 1.208 . S
C496 O494 1.247 . S
C496 O495 1.208 . S
C497 O502 1.247 . S
C497 O503 1.208 . S
C498 O490 1.315 . S
C498 O493 1.279 . S
C499 O500 1.315 . S
C499 O501 1.279 . S
O500 Cd492 2.223 . S
O500 C499 1.315 . S
O501 Cd491 2.240 . S
O501 C499 1.279 . S
O502 Cd492 2.297 . S
O502 C497 1.247 . S
O503 Cd492 2.439 . S
O503 C497 1.208 . S
O504 Cd505 2.223 . S
O504 C512 1.315 . S
Cd505 O504 2.223 . S
Cd505 O508 2.297 . S
Cd505 O509 2.439 . S
Cd505 O515 2.240 . S
Cd506 O507 2.240 . S
Cd506 O514 2.223 . S
Cd506 O516 2.297 . S
Cd506 O517 2.439 . S
O507 Cd506 2.240 . S
O507 C512 1.279 . S
O508 Cd505 2.297 . S
O508 C510 1.247 . S
O509 Cd505 2.439 . S
O509 C510 1.208 . S
C510 O508 1.247 . S
C510 O509 1.208 . S
C511 O516 1.247 . S
C511 O517 1.208 . S
C512 O504 1.315 . S
C512 O507 1.279 . S
C513 O514 1.315 . S
C513 O515 1.279 . S
O514 Cd506 2.223 . S
O514 C513 1.315 . S
O515 Cd505 2.240 . S
O515 C513 1.279 . S
O516 Cd506 2.297 . S
O516 C511 1.247 . S
O517 Cd506 2.439 . S
O517 C511 1.208 . S
O518 Cd519 2.223 . S
O518 C526 1.315 . S
Cd519 O518 2.223 . S
Cd519 O522 2.297 . S
Cd519 O523 2.439 . S
Cd519 O529 2.240 . S
Cd520 O521 2.240 . S
Cd520 O528 2.223 . S
Cd520 O530 2.297 . S
Cd520 O531 2.439 . S
O521 Cd520 2.240 . S
O521 C526 1.279 . S
O522 Cd519 2.297 . S
O522 C524 1.247 . S
O523 Cd519 2.439 . S
O523 C524 1.208 . S
C524 O522 1.247 . S
C524 O523 1.208 . S
C525 O530 1.247 . S
C525 O531 1.208 . S
C526 O518 1.315 . S
C526 O521 1.279 . S
C527 O528 1.315 . S
C527 O529 1.279 . S
O528 Cd520 2.223 . S
O528 C527 1.315 . S
O529 Cd519 2.240 . S
O529 C527 1.279 . S
O530 Cd520 2.297 . S
O530 C525 1.247 . S
O531 Cd520 2.439 . S
O531 C525 1.208 . S
O532 Cd533 2.223 . S
O532 C540 1.315 . S
Cd533 O532 2.223 . S
Cd533 O536 2.297 . S
Cd533 O537 2.439 . S
Cd533 O543 2.240 . S
Cd534 O535 2.240 . S
Cd534 O542 2.223 . S
Cd534 O544 2.297 . S
Cd534 O545 2.439 . S
O535 Cd534 2.240 . S
O535 C540 1.279 . S
O536 Cd533 2.297 . S
O536 C538 1.247 . S
O537 Cd533 2.439 . S
O537 C538 1.208 . S
C538 O536 1.247 . S
C538 O537 1.208 . S
C539 O544 1.247 . S
C539 O545 1.208 . S
C540 O532 1.315 . S
C540 O535 1.279 . S
C541 O542 1.315 . S
C541 O543 1.279 . S
O542 Cd534 2.223 . S
O542 C541 1.315 . S
O543 Cd533 2.240 . S
O543 C541 1.279 . S
O544 Cd534 2.297 . S
O544 C539 1.247 . S
O545 Cd534 2.439 . S
O545 C539 1.208 . S
O546 Cd547 2.223 . S
O546 C554 1.315 . S
Cd547 O546 2.223 . S
Cd547 O550 2.297 . S
Cd547 O551 2.439 . S
Cd547 O557 2.240 . S
Cd548 O549 2.240 . S
Cd548 O556 2.223 . S
Cd548 O558 2.297 . S
Cd548 O559 2.439 . S
O549 Cd548 2.240 . S
O549 C554 1.279 . S
O550 Cd547 2.297 . S
O550 C552 1.247 . S
O551 Cd547 2.439 . S
O551 C552 1.208 . S
C552 O550 1.247 . S
C552 O551 1.208 . S
C553 O558 1.247 . S
C553 O559 1.208 . S
C554 O546 1.315 . S
C554 O549 1.279 . S
C555 O556 1.315 . S
C555 O557 1.279 . S
O556 Cd548 2.223 . S
O556 C555 1.315 . S
O557 Cd547 2.240 . S
O557 C555 1.279 . S
O558 Cd548 2.297 . S
O558 C553 1.247 . S
O559 Cd548 2.439 . S
O559 C553 1.208 . S
O560 Cd561 2.223 . S
O560 C568 1.315 . S
Cd561 O560 2.223 . S
Cd561 O564 2.297 . S
Cd561 O565 2.439 . S
Cd561 O571 2.240 . S
Cd562 O563 2.240 . S
Cd562 O570 2.223 . S
Cd562 O572 2.297 . S
Cd562 O573 2.439 . S
O563 Cd562 2.240 . S
O563 C568 1.279 . S
O564 Cd561 2.297 . S
O564 C566 1.247 . S
O565 Cd561 2.439 . S
O565 C566 1.208 . S
C566 O564 1.247 . S
C566 O565 1.208 . S
C567 O572 1.247 . S
C567 O573 1.208 . S
C568 O560 1.315 . S
C568 O563 1.279 . S
C569 O570 1.315 . S
C569 O571 1.279 . S
O570 Cd562 2.223 . S
O570 C569 1.315 . S
O571 Cd561 2.240 . S
O571 C569 1.279 . S
O572 Cd562 2.297 . S
O572 C567 1.247 . S
O573 Cd562 2.439 . S
O573 C567 1.208 . S
O574 Cd575 2.223 . S
O574 C582 1.315 . S
Cd575 O574 2.223 . S
Cd575 O578 2.297 . S
Cd575 O579 2.439 . S
Cd575 O585 2.240 . S
Cd576 O577 2.240 . S
Cd576 O584 2.223 . S
Cd576 O586 2.297 . S
Cd576 O587 2.439 . S
O577 Cd576 2.240 . S
O577 C582 1.279 . S
O578 Cd575 2.297 . S
O578 C580 1.247 . S
O579 Cd575 2.439 . S
O579 C580 1.208 . S
C580 O578 1.247 . S
C580 O579 1.208 . S
C581 O586 1.247 . S
C581 O587 1.208 . S
C582 O574 1.315 . S
C582 O577 1.279 . S
C583 O584 1.315 . S
C583 O585 1.279 . S
O584 Cd576 2.223 . S
O584 C583 1.315 . S
O585 Cd575 2.240 . S
O585 C583 1.279 . S
O586 Cd576 2.297 . S
O586 C581 1.247 . S
O587 Cd576 2.439 . S
O587 C581 1.208 . S
O588 Cd589 2.223 . S
O588 C596 1.315 . S
Cd589 O588 2.223 . S
Cd589 O592 2.297 . S
Cd589 O593 2.439 . S
Cd589 O599 2.240 . S
Cd590 O591 2.240 . S
Cd590 O598 2.223 . S
Cd590 O600 2.297 . S
Cd590 O601 2.439 . S
O591 Cd590 2.240 . S
O591 C596 1.279 . S
O592 Cd589 2.297 . S
O592 C594 1.247 . S
O593 Cd589 2.439 . S
O593 C594 1.208 . S
C594 O592 1.247 . S
C594 O593 1.208 . S
C595 O600 1.247 . S
C595 O601 1.208 . S
C596 O588 1.315 . S
C596 O591 1.279 . S
C597 O598 1.315 . S
C597 O599 1.279 . S
O598 Cd590 2.223 . S
O598 C597 1.315 . S
O599 Cd589 2.240 . S
O599 C597 1.279 . S
O600 Cd590 2.297 . S
O600 C595 1.247 . S
O601 Cd590 2.439 . S
O601 C595 1.208 . S
O602 Cd603 2.223 . S
O602 C610 1.315 . S
Cd603 O602 2.223 . S
Cd603 O606 2.297 . S
Cd603 O607 2.439 . S
Cd603 O613 2.240 . S
Cd604 O605 2.240 . S
Cd604 O612 2.223 . S
Cd604 O614 2.297 . S
Cd604 O615 2.439 . S
O605 Cd604 2.240 . S
O605 C610 1.279 . S
O606 Cd603 2.297 . S
O606 C608 1.247 . S
O607 Cd603 2.439 . S
O607 C608 1.208 . S
C608 O606 1.247 . S
C608 O607 1.208 . S
C609 O614 1.247 . S
C609 O615 1.208 . S
C610 O602 1.315 . S
C610 O605 1.279 . S
C611 O612 1.315 . S
C611 O613 1.279 . S
O612 Cd604 2.223 . S
O612 C611 1.315 . S
O613 Cd603 2.240 . S
O613 C611 1.279 . S
O614 Cd604 2.297 . S
O614 C609 1.247 . S
O615 Cd604 2.439 . S
O615 C609 1.208 . S
O616 Cd617 2.223 . S
O616 C624 1.315 . S
Cd617 O616 2.223 . S
Cd617 O620 2.297 . S
Cd617 O621 2.439 . S
Cd617 O627 2.240 . S
Cd618 O619 2.240 . S
Cd618 O626 2.223 . S
Cd618 O628 2.297 . S
Cd618 O629 2.439 . S
O619 Cd618 2.240 . S
O619 C624 1.279 . S
O620 Cd617 2.297 . S
O620 C622 1.247 . S
O621 Cd617 2.439 . S
O621 C622 1.208 . S
C622 O620 1.247 . S
C622 O621 1.208 . S
C623 O628 1.247 . S
C623 O629 1.208 . S
C624 O616 1.315 . S
C624 O619 1.279 . S
C625 O626 1.315 . S
C625 O627 1.279 . S
O626 Cd618 2.223 . S
O626 C625 1.315 . S
O627 Cd617 2.240 . S
O627 C625 1.279 . S
O628 Cd618 2.297 . S
O628 C623 1.247 . S
O629 Cd618 2.439 . S
O629 C623 1.208 . S
O630 Cd631 2.223 . S
O630 C638 1.315 . S
Cd631 O630 2.223 . S
Cd631 O634 2.297 . S
Cd631 O635 2.439 . S
Cd631 O641 2.240 . S
Cd632 O633 2.240 . S
Cd632 O640 2.223 . S
Cd632 O642 2.297 . S
Cd632 O643 2.439 . S
O633 Cd632 2.240 . S
O633 C638 1.279 . S
O634 Cd631 2.297 . S
O634 C636 1.247 . S
O635 Cd631 2.439 . S
O635 C636 1.208 . S
C636 O634 1.247 . S
C636 O635 1.208 . S
C637 O642 1.247 . S
C637 O643 1.208 . S
C638 O630 1.315 . S
C638 O633 1.279 . S
C639 O640 1.315 . S
C639 O641 1.279 . S
O640 Cd632 2.223 . S
O640 C639 1.315 . S
O641 Cd631 2.240 . S
O641 C639 1.279 . S
O642 Cd632 2.297 . S
O642 C637 1.247 . S
O643 Cd632 2.439 . S
O643 C637 1.208 . S
O644 Cd645 2.223 . S
O644 C652 1.315 . S
Cd645 O644 2.223 . S
Cd645 O648 2.297 . S
Cd645 O649 2.439 . S
Cd645 O655 2.240 . S
Cd646 O647 2.240 . S
Cd646 O654 2.223 . S
Cd646 O656 2.297 . S
Cd646 O657 2.439 . S
O647 Cd646 2.240 . S
O647 C652 1.279 . S
O648 Cd645 2.297 . S
O648 C650 1.247 . S
O649 Cd645 2.439 . S
O649 C650 1.208 . S
C650 O648 1.247 . S
C650 O649 1.208 . S
C651 O656 1.247 . S
C651 O657 1.208 . S
C652 O644 1.315 . S
C652 O647 1.279 . S
C653 O654 1.315 . S
C653 O655 1.279 . S
O654 Cd646 2.223 . S
O654 C653 1.315 . S
O655 Cd645 2.240 . S
O655 C653 1.279 . S
O656 Cd646 2.297 . S
O656 C651 1.247 . S
O657 Cd646 2.439 . S
O657 C651 1.208 . S
O658 Cd659 2.223 . S
O658 C666 1.315 . S
Cd659 O658 2.223 . S
Cd659 O662 2.297 . S
Cd659 O663 2.439 . S
Cd659 O669 2.240 . S
Cd660 O661 2.240 . S
Cd660 O668 2.223 . S
Cd660 O670 2.297 . S
Cd660 O671 2.439 . S
O661 Cd660 2.240 . S
O661 C666 1.279 . S
O662 Cd659 2.297 . S
O662 C664 1.247 . S
O663 Cd659 2.439 . S
O663 C664 1.208 . S
C664 O662 1.247 . S
C664 O663 1.208 . S
C665 O670 1.247 . S
C665 O671 1.208 . S
C666 O658 1.315 . S
C666 O661 1.279 . S
C667 O668 1.315 . S
C667 O669 1.279 . S
O668 Cd660 2.223 . S
O668 C667 1.315 . S
O669 Cd659 2.240 . S
O669 C667 1.279 . S
O670 Cd660 2.297 . S
O670 C665 1.247 . S
O671 Cd660 2.439 . S
O671 C665 1.208 . S
O672 Cd673 2.223 . S
O672 C680 1.315 . S
Cd673 O672 2.223 . S
Cd673 O676 2.297 . S
Cd673 O677 2.439 . S
Cd673 O683 2.240 . S
Cd674 O675 2.240 . S
Cd674 O682 2.223 . S
Cd674 O684 2.297 . S
Cd674 O685 2.439 . S
O675 Cd674 2.240 . S
O675 C680 1.279 . S
O676 Cd673 2.297 . S
O676 C678 1.247 . S
O677 Cd673 2.439 . S
O677 C678 1.208 . S
C678 O676 1.247 . S
C678 O677 1.208 . S
C679 O684 1.247 . S
C679 O685 1.208 . S
C680 O672 1.315 . S
C680 O675 1.279 . S
C681 O682 1.315 . S
C681 O683 1.279 . S
O682 Cd674 2.223 . S
O682 C681 1.315 . S
O683 Cd673 2.240 . S
O683 C681 1.279 . S
O684 Cd674 2.297 . S
O684 C679 1.247 . S
O685 Cd674 2.439 . S
O685 C679 1.208 . S
O686 Cd687 2.223 . S
O686 C694 1.315 . S
Cd687 O686 2.223 . S
Cd687 O690 2.297 . S
Cd687 O691 2.439 . S
Cd687 O697 2.240 . S
Cd688 O689 2.240 . S
Cd688 O696 2.223 . S
Cd688 O698 2.297 . S
Cd688 O699 2.439 . S
O689 Cd688 2.240 . S
O689 C694 1.279 . S
O690 Cd687 2.297 . S
O690 C692 1.247 . S
O691 Cd687 2.439 . S
O691 C692 1.208 . S
C692 O690 1.247 . S
C692 O691 1.208 . S
C693 O698 1.247 . S
C693 O699 1.208 . S
C694 O686 1.315 . S
C694 O689 1.279 . S
C695 O696 1.315 . S
C695 O697 1.279 . S
O696 Cd688 2.223 . S
O696 C695 1.315 . S
O697 Cd687 2.240 . S
O697 C695 1.279 . S
O698 Cd688 2.297 . S
O698 C693 1.247 . S
O699 Cd688 2.439 . S
O699 C693 1.208 . S
O700 Cd701 2.223 . S
O700 C708 1.315 . S
Cd701 O700 2.223 . S
Cd701 O704 2.297 . S
Cd701 O705 2.439 . S
Cd701 O711 2.240 . S
Cd702 O703 2.240 . S
Cd702 O710 2.223 . S
Cd702 O712 2.297 . S
Cd702 O713 2.439 . S
O703 Cd702 2.240 . S
O703 C708 1.279 . S
O704 Cd701 2.297 . S
O704 C706 1.247 . S
O705 Cd701 2.439 . S
O705 C706 1.208 . S
C706 O704 1.247 . S
C706 O705 1.208 . S
C707 O712 1.247 . S
C707 O713 1.208 . S
C708 O700 1.315 . S
C708 O703 1.279 . S
C709 O710 1.315 . S
C709 O711 1.279 . S
O710 Cd702 2.223 . S
O710 C709 1.315 . S
O711 Cd701 2.240 . S
O711 C709 1.279 . S
O712 Cd702 2.297 . S
O712 C707 1.247 . S
O713 Cd702 2.439 . S
O713 C707 1.208 . S
O714 Cd715 2.223 . S
O714 C722 1.315 . S
Cd715 O714 2.223 . S
Cd715 O718 2.297 . S
Cd715 O719 2.439 . S
Cd715 O725 2.240 . S
Cd716 O717 2.240 . S
Cd716 O724 2.223 . S
Cd716 O726 2.297 . S
Cd716 O727 2.439 . S
O717 Cd716 2.240 . S
O717 C722 1.279 . S
O718 Cd715 2.297 . S
O718 C720 1.247 . S
O719 Cd715 2.439 . S
O719 C720 1.208 . S
C720 O718 1.247 . S
C720 O719 1.208 . S
C721 O726 1.247 . S
C721 O727 1.208 . S
C722 O714 1.315 . S
C722 O717 1.279 . S
C723 O724 1.315 . S
C723 O725 1.279 . S
O724 Cd716 2.223 . S
O724 C723 1.315 . S
O725 Cd715 2.240 . S
O725 C723 1.279 . S
O726 Cd716 2.297 . S
O726 C721 1.247 . S
O727 Cd716 2.439 . S
O727 C721 1.208 . S
O728 Cd729 2.223 . S
O728 C736 1.315 . S
Cd729 O728 2.223 . S
Cd729 O732 2.297 . S
Cd729 O733 2.439 . S
Cd729 O739 2.240 . S
Cd730 O731 2.240 . S
Cd730 O738 2.223 . S
Cd730 O740 2.297 . S
Cd730 O741 2.439 . S
O731 Cd730 2.240 . S
O731 C736 1.279 . S
O732 Cd729 2.297 . S
O732 C734 1.247 . S
O733 Cd729 2.439 . S
O733 C734 1.208 . S
C734 O732 1.247 . S
C734 O733 1.208 . S
C735 O740 1.247 . S
C735 O741 1.208 . S
C736 O728 1.315 . S
C736 O731 1.279 . S
C737 O738 1.315 . S
C737 O739 1.279 . S
O738 Cd730 2.223 . S
O738 C737 1.315 . S
O739 Cd729 2.240 . S
O739 C737 1.279 . S
O740 Cd730 2.297 . S
O740 C735 1.247 . S
O741 Cd730 2.439 . S
O741 C735 1.208 . S
O742 Cd743 2.223 . S
O742 C750 1.315 . S
Cd743 O742 2.223 . S
Cd743 O746 2.297 . S
Cd743 O747 2.439 . S
Cd743 O753 2.240 . S
Cd744 O745 2.240 . S
Cd744 O752 2.223 . S
Cd744 O754 2.297 . S
Cd744 O755 2.439 . S
O745 Cd744 2.240 . S
O745 C750 1.279 . S
O746 Cd743 2.297 . S
O746 C748 1.247 . S
O747 Cd743 2.439 . S
O747 C748 1.208 . S
C748 O746 1.247 . S
C748 O747 1.208 . S
C749 O754 1.247 . S
C749 O755 1.208 . S
C750 O742 1.315 . S
C750 O745 1.279 . S
C751 O752 1.315 . S
C751 O753 1.279 . S
O752 Cd744 2.223 . S
O752 C751 1.315 . S
O753 Cd743 2.240 . S
O753 C751 1.279 . S
O754 Cd744 2.297 . S
O754 C749 1.247 . S
O755 Cd744 2.439 . S
O755 C749 1.208 . S
O756 Cd757 2.223 . S
O756 C764 1.315 . S
Cd757 O756 2.223 . S
Cd757 O760 2.297 . S
Cd757 O761 2.439 . S
Cd757 O767 2.240 . S
Cd758 O759 2.240 . S
Cd758 O766 2.223 . S
Cd758 O768 2.297 . S
Cd758 O769 2.439 . S
O759 Cd758 2.240 . S
O759 C764 1.279 . S
O760 Cd757 2.297 . S
O760 C762 1.247 . S
O761 Cd757 2.439 . S
O761 C762 1.208 . S
C762 O760 1.247 . S
C762 O761 1.208 . S
C763 O768 1.247 . S
C763 O769 1.208 . S
C764 O756 1.315 . S
C764 O759 1.279 . S
C765 O766 1.315 . S
C765 O767 1.279 . S
O766 Cd758 2.223 . S
O766 C765 1.315 . S
O767 Cd757 2.240 . S
O767 C765 1.279 . S
O768 Cd758 2.297 . S
O768 C763 1.247 . S
O769 Cd758 2.439 . S
O769 C763 1.208 . S
O770 Cd771 2.223 . S
O770 C778 1.315 . S
Cd771 O770 2.223 . S
Cd771 O774 2.297 . S
Cd771 O775 2.439 . S
Cd771 O781 2.240 . S
Cd772 O773 2.240 . S
Cd772 O780 2.223 . S
Cd772 O782 2.297 . S
Cd772 O783 2.439 . S
O773 Cd772 2.240 . S
O773 C778 1.279 . S
O774 Cd771 2.297 . S
O774 C776 1.247 . S
O775 Cd771 2.439 . S
O775 C776 1.208 . S
C776 O774 1.247 . S
C776 O775 1.208 . S
C777 O782 1.247 . S
C777 O783 1.208 . S
C778 O770 1.315 . S
C778 O773 1.279 . S
C779 O780 1.315 . S
C779 O781 1.279 . S
O780 Cd772 2.223 . S
O780 C779 1.315 . S
O781 Cd771 2.240 . S
O781 C779 1.279 . S
O782 Cd772 2.297 . S
O782 C777 1.247 . S
O783 Cd772 2.439 . S
O783 C777 1.208 . S
O784 Cd785 2.223 . S
O784 C792 1.315 . S
Cd785 O784 2.223 . S
Cd785 O788 2.297 . S
Cd785 O789 2.439 . S
Cd785 O795 2.240 . S
Cd786 O787 2.240 . S
Cd786 O794 2.223 . S
Cd786 O796 2.297 . S
Cd786 O797 2.439 . S
O787 Cd786 2.240 . S
O787 C792 1.279 . S
O788 Cd785 2.297 . S
O788 C790 1.247 . S
O789 Cd785 2.439 . S
O789 C790 1.208 . S
C790 O788 1.247 . S
C790 O789 1.208 . S
C791 O796 1.247 . S
C791 O797 1.208 . S
C792 O784 1.315 . S
C792 O787 1.279 . S
C793 O794 1.315 . S
C793 O795 1.279 . S
O794 Cd786 2.223 . S
O794 C793 1.315 . S
O795 Cd785 2.240 . S
O795 C793 1.279 . S
O796 Cd786 2.297 . S
O796 C791 1.247 . S
O797 Cd786 2.439 . S
O797 C791 1.208 . S
O798 Cd799 2.223 . S
O798 C806 1.315 . S
Cd799 O798 2.223 . S
Cd799 O802 2.297 . S
Cd799 O803 2.439 . S
Cd799 O809 2.240 . S
Cd800 O801 2.240 . S
Cd800 O808 2.223 . S
Cd800 O810 2.297 . S
Cd800 O811 2.439 . S
O801 Cd800 2.240 . S
O801 C806 1.279 . S
O802 Cd799 2.297 . S
O802 C804 1.247 . S
O803 Cd799 2.439 . S
O803 C804 1.208 . S
C804 O802 1.247 . S
C804 O803 1.208 . S
C805 O810 1.247 . S
C805 O811 1.208 . S
C806 O798 1.315 . S
C806 O801 1.279 . S
C807 O808 1.315 . S
C807 O809 1.279 . S
O808 Cd800 2.223 . S
O808 C807 1.315 . S
O809 Cd799 2.240 . S
O809 C807 1.279 . S
O810 Cd800 2.297 . S
O810 C805 1.247 . S
O811 Cd800 2.439 . S
O811 C805 1.208 . S
O812 Cd813 2.223 . S
O812 C820 1.315 . S
Cd813 O812 2.223 . S
Cd813 O816 2.297 . S
Cd813 O817 2.439 . S
Cd813 O823 2.240 . S
Cd814 O815 2.240 . S
Cd814 O822 2.223 . S
Cd814 O824 2.297 . S
Cd814 O825 2.439 . S
O815 Cd814 2.240 . S
O815 C820 1.279 . S
O816 Cd813 2.297 . S
O816 C818 1.247 . S
O817 Cd813 2.439 . S
O817 C818 1.208 . S
C818 O816 1.247 . S
C818 O817 1.208 . S
C819 O824 1.247 . S
C819 O825 1.208 . S
C820 O812 1.315 . S
C820 O815 1.279 . S
C821 O822 1.315 . S
C821 O823 1.279 . S
O822 Cd814 2.223 . S
O822 C821 1.315 . S
O823 Cd813 2.240 . S
O823 C821 1.279 . S
O824 Cd814 2.297 . S
O824 C819 1.247 . S
O825 Cd814 2.439 . S
O825 C819 1.208 . S
O826 Cd827 2.223 . S
O826 C834 1.315 . S
Cd827 O826 2.223 . S
Cd827 O830 2.297 . S
Cd827 O831 2.439 . S
Cd827 O837 2.240 . S
Cd828 O829 2.240 . S
Cd828 O836 2.223 . S
Cd828 O838 2.297 . S
Cd828 O839 2.439 . S
O829 Cd828 2.240 . S
O829 C834 1.279 . S
O830 Cd827 2.297 . S
O830 C832 1.247 . S
O831 Cd827 2.439 . S
O831 C832 1.208 . S
C832 O830 1.247 . S
C832 O831 1.208 . S
C833 O838 1.247 . S
C833 O839 1.208 . S
C834 O826 1.315 . S
C834 O829 1.279 . S
C835 O836 1.315 . S
C835 O837 1.279 . S
O836 Cd828 2.223 . S
O836 C835 1.315 . S
O837 Cd827 2.240 . S
O837 C835 1.279 . S
O838 Cd828 2.297 . S
O838 C833 1.247 . S
O839 Cd828 2.439 . S
O839 C833 1.208 . S
O840 Cd841 2.223 . S
O840 C848 1.315 . S
Cd841 O840 2.223 . S
Cd841 O844 2.297 . S
Cd841 O845 2.439 . S
Cd841 O851 2.240 . S
Cd842 O843 2.240 . S
Cd842 O850 2.223 . S
Cd842 O852 2.297 . S
Cd842 O853 2.439 . S
O843 Cd842 2.240 . S
O843 C848 1.279 . S
O844 Cd841 2.297 . S
O844 C846 1.247 . S
O845 Cd841 2.439 . S
O845 C846 1.208 . S
C846 O844 1.247 . S
C846 O845 1.208 . S
C847 O852 1.247 . S
C847 O853 1.208 . S
C848 O840 1.315 . S
C848 O843 1.279 . S
C849 O850 1.315 . S
C849 O851 1.279 . S
O850 Cd842 2.223 . S
O850 C849 1.315 . S
O851 Cd841 2.240 . S
O851 C849 1.279 . S
O852 Cd842 2.297 . S
O852 C847 1.247 . S
O853 Cd842 2.439 . S
O853 C847 1.208 . S
O854 Cd855 2.223 . S
O854 C862 1.315 . S
Cd855 O854 2.223 . S
Cd855 O858 2.297 . S
Cd855 O859 2.439 . S
Cd855 O865 2.240 . S
Cd856 O857 2.240 . S
Cd856 O864 2.223 . S
Cd856 O866 2.297 . S
Cd856 O867 2.439 . S
O857 Cd856 2.240 . S
O857 C862 1.279 . S
O858 Cd855 2.297 . S
O858 C860 1.247 . S
O859 Cd855 2.439 . S
O859 C860 1.208 . S
C860 O858 1.247 . S
C860 O859 1.208 . S
C861 O866 1.247 . S
C861 O867 1.208 . S
C862 O854 1.315 . S
C862 O857 1.279 . S
C863 O864 1.315 . S
C863 O865 1.279 . S
O864 Cd856 2.223 . S
O864 C863 1.315 . S
O865 Cd855 2.240 . S
O865 C863 1.279 . S
O866 Cd856 2.297 . S
O866 C861 1.247 . S
O867 Cd856 2.439 . S
O867 C861 1.208 . S
O868 Cd869 2.223 . S
O868 C876 1.315 . S
Cd869 O868 2.223 . S
Cd869 O872 2.297 . S
Cd869 O873 2.439 . S
Cd869 O879 2.240 . S
Cd870 O871 2.240 . S
Cd870 O878 2.223 . S
Cd870 O880 2.297 . S
Cd870 O881 2.439 . S
O871 Cd870 2.240 . S
O871 C876 1.279 . S
O872 Cd869 2.297 . S
O872 C874 1.247 . S
O873 Cd869 2.439 . S
O873 C874 1.208 . S
C874 O872 1.247 . S
C874 O873 1.208 . S
C875 O880 1.247 . S
C875 O881 1.208 . S
C876 O868 1.315 . S
C876 O871 1.279 . S
C877 O878 1.315 . S
C877 O879 1.279 . S
O878 Cd870 2.223 . S
O878 C877 1.315 . S
O879 Cd869 2.240 . S
O879 C877 1.279 . S
O880 Cd870 2.297 . S
O880 C875 1.247 . S
O881 Cd870 2.439 . S
O881 C875 1.208 . S
O882 Cd883 2.223 . S
O882 C890 1.315 . S
Cd883 O882 2.223 . S
Cd883 O886 2.297 . S
Cd883 O887 2.439 . S
Cd883 O893 2.240 . S
Cd884 O885 2.240 . S
Cd884 O892 2.223 . S
Cd884 O894 2.297 . S
Cd884 O895 2.439 . S
O885 Cd884 2.240 . S
O885 C890 1.279 . S
O886 Cd883 2.297 . S
O886 C888 1.247 . S
O887 Cd883 2.439 . S
O887 C888 1.208 . S
C888 O886 1.247 . S
C888 O887 1.208 . S
C889 O894 1.247 . S
C889 O895 1.208 . S
C890 O882 1.315 . S
C890 O885 1.279 . S
C891 O892 1.315 . S
C891 O893 1.279 . S
O892 Cd884 2.223 . S
O892 C891 1.315 . S
O893 Cd883 2.240 . S
O893 C891 1.279 . S
O894 Cd884 2.297 . S
O894 C889 1.247 . S
O895 Cd884 2.439 . S
O895 C889 1.208 . S
O896 Cd897 2.223 . S
O896 C904 1.315 . S
Cd897 O896 2.223 . S
Cd897 O900 2.297 . S
Cd897 O901 2.439 . S
Cd897 O907 2.240 . S
Cd898 O899 2.240 . S
Cd898 O906 2.223 . S
Cd898 O908 2.297 . S
Cd898 O909 2.439 . S
O899 Cd898 2.240 . S
O899 C904 1.279 . S
O900 Cd897 2.297 . S
O900 C902 1.247 . S
O901 Cd897 2.439 . S
O901 C902 1.208 . S
C902 O900 1.247 . S
C902 O901 1.208 . S
C903 O908 1.247 . S
C903 O909 1.208 . S
C904 O896 1.315 . S
C904 O899 1.279 . S
C905 O906 1.315 . S
C905 O907 1.279 . S
O906 Cd898 2.223 . S
O906 C905 1.315 . S
O907 Cd897 2.240 . S
O907 C905 1.279 . S
O908 Cd898 2.297 . S
O908 C903 1.247 . S
O909 Cd898 2.439 . S
O909 C903 1.208 . S
O910 Cd911 2.223 . S
O910 C918 1.315 . S
Cd911 O910 2.223 . S
Cd911 O914 2.297 . S
Cd911 O915 2.439 . S
Cd911 O921 2.240 . S
Cd912 O913 2.240 . S
Cd912 O920 2.223 . S
Cd912 O922 2.297 . S
Cd912 O923 2.439 . S
O913 Cd912 2.240 . S
O913 C918 1.279 . S
O914 Cd911 2.297 . S
O914 C916 1.247 . S
O915 Cd911 2.439 . S
O915 C916 1.208 . S
C916 O914 1.247 . S
C916 O915 1.208 . S
C917 O922 1.247 . S
C917 O923 1.208 . S
C918 O910 1.315 . S
C918 O913 1.279 . S
C919 O920 1.315 . S
C919 O921 1.279 . S
O920 Cd912 2.223 . S
O920 C919 1.315 . S
O921 Cd911 2.240 . S
O921 C919 1.279 . S
O922 Cd912 2.297 . S
O922 C917 1.247 . S
O923 Cd912 2.439 . S
O923 C917 1.208 . S
O924 Cd925 2.223 . S
O924 C932 1.315 . S
Cd925 O924 2.223 . S
Cd925 O928 2.297 . S
Cd925 O929 2.439 . S
Cd925 O935 2.240 . S
Cd926 O927 2.240 . S
Cd926 O934 2.223 . S
Cd926 O936 2.297 . S
Cd926 O937 2.439 . S
O927 Cd926 2.240 . S
O927 C932 1.279 . S
O928 Cd925 2.297 . S
O928 C930 1.247 . S
O929 Cd925 2.439 . S
O929 C930 1.208 . S
C930 O928 1.247 . S
C930 O929 1.208 . S
C931 O936 1.247 . S
C931 O937 1.208 . S
C932 O924 1.315 . S
C932 O927 1.279 . S
C933 O934 1.315 . S
C933 O935 1.279 . S
O934 Cd926 2.223 . S
O934 C933 1.315 . S
O935 Cd925 2.240 . S
O935 C933 1.279 . S
O936 Cd926 2.297 . S
O936 C931 1.247 . S
O937 Cd926 2.439 . S
O937 C931 1.208 . S
O938 Cd939 2.223 . S
O938 C946 1.315 . S
Cd939 O938 2.223 . S
Cd939 O942 2.297 . S
Cd939 O943 2.439 . S
Cd939 O949 2.240 . S
Cd940 O941 2.240 . S
Cd940 O948 2.223 . S
Cd940 O950 2.297 . S
Cd940 O951 2.439 . S
O941 Cd940 2.240 . S
O941 C946 1.279 . S
O942 Cd939 2.297 . S
O942 C944 1.247 . S
O943 Cd939 2.439 . S
O943 C944 1.208 . S
C944 O942 1.247 . S
C944 O943 1.208 . S
C945 O950 1.247 . S
C945 O951 1.208 . S
C946 O938 1.315 . S
C946 O941 1.279 . S
C947 O948 1.315 . S
C947 O949 1.279 . S
O948 Cd940 2.223 . S
O948 C947 1.315 . S
O949 Cd939 2.240 . S
O949 C947 1.279 . S
O950 Cd940 2.297 . S
O950 C945 1.247 . S
O951 Cd940 2.439 . S
O951 C945 1.208 . S
O952 Cd953 2.223 . S
O952 C960 1.315 . S
Cd953 O952 2.223 . S
Cd953 O956 2.297 . S
Cd953 O957 2.439 . S
Cd953 O963 2.240 . S
Cd954 O955 2.240 . S
Cd954 O962 2.223 . S
Cd954 O964 2.297 . S
Cd954 O965 2.439 . S
O955 Cd954 2.240 . S
O955 C960 1.279 . S
O956 Cd953 2.297 . S
O956 C958 1.247 . S
O957 Cd953 2.439 . S
O957 C958 1.208 . S
C958 O956 1.247 . S
C958 O957 1.208 . S
C959 O964 1.247 . S
C959 O965 1.208 . S
C960 O952 1.315 . S
C960 O955 1.279 . S
C961 O962 1.315 . S
C961 O963 1.279 . S
O962 Cd954 2.223 . S
O962 C961 1.315 . S
O963 Cd953 2.240 . S
O963 C961 1.279 . S
O964 Cd954 2.297 . S
O964 C959 1.247 . S
O965 Cd954 2.439 . S
O965 C959 1.208 . S
O966 Cd967 2.223 . S
O966 C974 1.315 . S
Cd967 O966 2.223 . S
Cd967 O970 2.297 . S
Cd967 O971 2.439 . S
Cd967 O977 2.240 . S
Cd968 O969 2.240 . S
Cd968 O976 2.223 . S
Cd968 O978 2.297 . S
Cd968 O979 2.439 . S
O969 Cd968 2.240 . S
O969 C974 1.279 . S
O970 Cd967 2.297 . S
O970 C972 1.247 . S
O971 Cd967 2.439 . S
O971 C972 1.208 . S
C972 O970 1.247 . S
C972 O971 1.208 . S
C973 O978 1.247 . S
C973 O979 1.208 . S
C974 O966 1.315 . S
C974 O969 1.279 . S
C975 O976 1.315 . S
C975 O977 1.279 . S
O976 Cd968 2.223 . S
O976 C975 1.315 . S
O977 Cd967 2.240 . S
O977 C975 1.279 . S
O978 Cd968 2.297 . S
O978 C973 1.247 . S
O979 Cd968 2.439 . S
O979 C973 1.208 . S
O980 Cd981 2.223 . S
O980 C988 1.315 . S
Cd981 O980 2.223 . S
Cd981 O984 2.297 . S
Cd981 O985 2.439 . S
Cd981 O991 2.240 . S
Cd982 O983 2.240 . S
Cd982 O990 2.223 . S
Cd982 O992 2.297 . S
Cd982 O993 2.439 . S
O983 Cd982 2.240 . S
O983 C988 1.279 . S
O984 Cd981 2.297 . S
O984 C986 1.247 . S
O985 Cd981 2.439 . S
O985 C986 1.208 . S
C986 O984 1.247 . S
C986 O985 1.208 . S
C987 O992 1.247 . S
C987 O993 1.208 . S
C988 O980 1.315 . S
C988 O983 1.279 . S
C989 O990 1.315 . S
C989 O991 1.279 . S
O990 Cd982 2.223 . S
O990 C989 1.315 . S
O991 Cd981 2.240 . S
O991 C989 1.279 . S
O992 Cd982 2.297 . S
O992 C987 1.247 . S
O993 Cd982 2.439 . S
O993 C987 1.208 . S
O994 Cd995 2.223 . S
O994 C1002 1.315 . S
Cd995 O994 2.223 . S
Cd995 O998 2.297 . S
Cd995 O999 2.439 . S
Cd995 O1005 2.240 . S
Cd996 O997 2.240 . S
Cd996 O1004 2.223 . S
Cd996 O1006 2.297 . S
Cd996 O1007 2.439 . S
O997 Cd996 2.240 . S
O997 C1002 1.279 . S
O998 Cd995 2.297 . S
O998 C1000 1.247 . S
O999 Cd995 2.439 . S
O999 C1000 1.208 . S
C1000 O998 1.247 . S
C1000 O999 1.208 . S
C1001 O1006 1.247 . S
C1001 O1007 1.208 . S
C1002 O994 1.315 . S
C1002 O997 1.279 . S
C1003 O1004 1.315 . S
C1003 O1005 1.279 . S
O1004 Cd996 2.223 . S
O1004 C1003 1.315 . S
O1005 Cd995 2.240 . S
O1005 C1003 1.279 . S
O1006 Cd996 2.297 . S
O1006 C1001 1.247 . S
O1007 Cd996 2.439 . S
O1007 C1001 1.208 . S
O1008 Cd1009 2.223 . S
O1008 C1016 1.315 . S
Cd1009 O1008 2.223 . S
Cd1009 O1012 2.297 . S
Cd1009 O1013 2.439 . S
Cd1009 O1019 2.240 . S
Cd1010 O1011 2.240 . S
Cd1010 O1018 2.223 . S
Cd1010 O1020 2.297 . S
Cd1010 O1021 2.439 . S
O1011 Cd1010 2.240 . S
O1011 C1016 1.279 . S
O1012 Cd1009 2.297 . S
O1012 C1014 1.247 . S
O1013 Cd1009 2.439 . S
O1013 C1014 1.208 . S
C1014 O1012 1.247 . S
C1014 O1013 1.208 . S
C1015 O1020 1.247 . S
C1015 O1021 1.208 . S
C1016 O1008 1.315 . S
C1016 O1011 1.279 . S
C1017 O1018 1.315 . S
C1017 O1019 1.279 . S
O1018 Cd1010 2.223 . S
O1018 C1017 1.315 . S
O1019 Cd1009 2.240 . S
O1019 C1017 1.279 . S
O1020 Cd1010 2.297 . S
O1020 C1015 1.247 . S
O1021 Cd1010 2.439 . S
O1021 C1015 1.208 . S
O1022 Cd1023 2.223 . S
O1022 C1030 1.315 . S
Cd1023 O1022 2.223 . S
Cd1023 O1026 2.297 . S
Cd1023 O1027 2.439 . S
Cd1023 O1033 2.240 . S
Cd1024 O1025 2.240 . S
Cd1024 O1032 2.223 . S
Cd1024 O1034 2.297 . S
Cd1024 O1035 2.439 . S
O1025 Cd1024 2.240 . S
O1025 C1030 1.279 . S
O1026 Cd1023 2.297 . S
O1026 C1028 1.247 . S
O1027 Cd1023 2.439 . S
O1027 C1028 1.208 . S
C1028 O1026 1.247 . S
C1028 O1027 1.208 . S
C1029 O1034 1.247 . S
C1029 O1035 1.208 . S
C1030 O1022 1.315 . S
C1030 O1025 1.279 . S
C1031 O1032 1.315 . S
C1031 O1033 1.279 . S
O1032 Cd1024 2.223 . S
O1032 C1031 1.315 . S
O1033 Cd1023 2.240 . S
O1033 C1031 1.279 . S
O1034 Cd1024 2.297 . S
O1034 C1029 1.247 . S
O1035 Cd1024 2.439 . S
O1035 C1029 1.208 . S
O1036 Cd1037 2.223 . S
O1036 C1044 1.315 . S
Cd1037 O1036 2.223 . S
Cd1037 O1040 2.297 . S
Cd1037 O1041 2.439 . S
Cd1037 O1047 2.240 . S
Cd1038 O1039 2.240 . S
Cd1038 O1046 2.223 . S
Cd1038 O1048 2.297 . S
Cd1038 O1049 2.439 . S
O1039 Cd1038 2.240 . S
O1039 C1044 1.279 . S
O1040 Cd1037 2.297 . S
O1040 C1042 1.247 . S
O1041 Cd1037 2.439 . S
O1041 C1042 1.208 . S
C1042 O1040 1.247 . S
C1042 O1041 1.208 . S
C1043 O1048 1.247 . S
C1043 O1049 1.208 . S
C1044 O1036 1.315 . S
C1044 O1039 1.279 . S
C1045 O1046 1.315 . S
C1045 O1047 1.279 . S
O1046 Cd1038 2.223 . S
O1046 C1045 1.315 . S
O1047 Cd1037 2.240 . S
O1047 C1045 1.279 . S
O1048 Cd1038 2.297 . S
O1048 C1043 1.247 . S
O1049 Cd1038 2.439 . S
O1049 C1043 1.208 . S
O1050 Cd1051 2.223 . S
O1050 C1058 1.315 . S
Cd1051 O1050 2.223 . S
Cd1051 O1054 2.297 . S
Cd1051 O1055 2.439 . S
Cd1051 O1061 2.240 . S
Cd1052 O1053 2.240 . S
Cd1052 O1060 2.223 . S
Cd1052 O1062 2.297 . S
Cd1052 O1063 2.439 . S
O1053 Cd1052 2.240 . S
O1053 C1058 1.279 . S
O1054 Cd1051 2.297 . S
O1054 C1056 1.247 . S
O1055 Cd1051 2.439 . S
O1055 C1056 1.208 . S
C1056 O1054 1.247 . S
C1056 O1055 1.208 . S
C1057 O1062 1.247 . S
C1057 O1063 1.208 . S
C1058 O1050 1.315 . S
C1058 O1053 1.279 . S
C1059 O1060 1.315 . S
C1059 O1061 1.279 . S
O1060 Cd1052 2.223 . S
O1060 C1059 1.315 . S
O1061 Cd1051 2.240 . S
O1061 C1059 1.279 . S
O1062 Cd1052 2.297 . S
O1062 C1057 1.247 . S
O1063 Cd1052 2.439 . S
O1063 C1057 1.208 . S
O1064 Cd1065 2.223 . S
O1064 C1072 1.315 . S
Cd1065 O1064 2.223 . S
Cd1065 O1068 2.297 . S
Cd1065 O1069 2.439 . S
Cd1065 O1075 2.240 . S
Cd1066 O1067 2.240 . S
Cd1066 O1074 2.223 . S
Cd1066 O1076 2.297 . S
Cd1066 O1077 2.439 . S
O1067 Cd1066 2.240 . S
O1067 C1072 1.279 . S
O1068 Cd1065 2.297 . S
O1068 C1070 1.247 . S
O1069 Cd1065 2.439 . S
O1069 C1070 1.208 . S
C1070 O1068 1.247 . S
C1070 O1069 1.208 . S
C1071 O1076 1.247 . S
C1071 O1077 1.208 . S
C1072 O1064 1.315 . S
C1072 O1067 1.279 . S
C1073 O1074 1.315 . S
C1073 O1075 1.279 . S
O1074 Cd1066 2.223 . S
O1074 C1073 1.315 . S
O1075 Cd1065 2.240 . S
O1075 C1073 1.279 . S
O1076 Cd1066 2.297 . S
O1076 C1071 1.247 . S
O1077 Cd1066 2.439 . S
O1077 C1071 1.208 . S
O1078 Cd1079 2.223 . S
O1078 C1086 1.315 . S
Cd1079 O1078 2.223 . S
Cd1079 O1082 2.297 . S
Cd1079 O1083 2.439 . S
Cd1079 O1089 2.240 . S
Cd1080 O1081 2.240 . S
Cd1080 O1088 2.223 . S
Cd1080 O1090 2.297 . S
Cd1080 O1091 2.439 . S
O1081 Cd1080 2.240 . S
O1081 C1086 1.279 . S
O1082 Cd1079 2.297 . S
O1082 C1084 1.247 . S
O1083 Cd1079 2.439 . S
O1083 C1084 1.208 . S
C1084 O1082 1.247 . S
C1084 O1083 1.208 . S
C1085 O1090 1.247 . S
C1085 O1091 1.208 . S
C1086 O1078 1.315 . S
C1086 O1081 1.279 . S
C1087 O1088 1.315 . S
C1087 O1089 1.279 . S
O1088 Cd1080 2.223 . S
O1088 C1087 1.315 . S
O1089 Cd1079 2.240 . S
O1089 C1087 1.279 . S
O1090 Cd1080 2.297 . S
O1090 C1085 1.247 . S
O1091 Cd1080 2.439 . S
O1091 C1085 1.208 . S
O1092 Cd1093 2.223 . S
O1092 C1100 1.315 . S
Cd1093 O1092 2.223 . S
Cd1093 O1096 2.297 . S
Cd1093 O1097 2.439 . S
Cd1093 O1103 2.240 . S
Cd1094 O1095 2.240 . S
Cd1094 O1102 2.223 . S
Cd1094 O1104 2.297 . S
Cd1094 O1105 2.439 . S
O1095 Cd1094 2.240 . S
O1095 C1100 1.279 . S
O1096 Cd1093 2.297 . S
O1096 C1098 1.247 . S
O1097 Cd1093 2.439 . S
O1097 C1098 1.208 . S
C1098 O1096 1.247 . S
C1098 O1097 1.208 . S
C1099 O1104 1.247 . S
C1099 O1105 1.208 . S
C1100 O1092 1.315 . S
C1100 O1095 1.279 . S
C1101 O1102 1.315 . S
C1101 O1103 1.279 . S
O1102 Cd1094 2.223 . S
O1102 C1101 1.315 . S
O1103 Cd1093 2.240 . S
O1103 C1101 1.279 . S
O1104 Cd1094 2.297 . S
O1104 C1099 1.247 . S
O1105 Cd1094 2.439 . S
O1105 C1099 1.208 . S
O1106 Cd1107 2.223 . S
O1106 C1114 1.315 . S
Cd1107 O1106 2.223 . S
Cd1107 O1110 2.297 . S
Cd1107 O1111 2.439 . S
Cd1107 O1117 2.240 . S
Cd1108 O1109 2.240 . S
Cd1108 O1116 2.223 . S
Cd1108 O1118 2.297 . S
Cd1108 O1119 2.439 . S
O1109 Cd1108 2.240 . S
O1109 C1114 1.279 . S
O1110 Cd1107 2.297 . S
O1110 C1112 1.247 . S
O1111 Cd1107 2.439 . S
O1111 C1112 1.208 . S
C1112 O1110 1.247 . S
C1112 O1111 1.208 . S
C1113 O1118 1.247 . S
C1113 O1119 1.208 . S
C1114 O1106 1.315 . S
C1114 O1109 1.279 . S
C1115 O1116 1.315 . S
C1115 O1117 1.279 . S
O1116 Cd1108 2.223 . S
O1116 C1115 1.315 . S
O1117 Cd1107 2.240 . S
O1117 C1115 1.279 . S
O1118 Cd1108 2.297 . S
O1118 C1113 1.247 . S
O1119 Cd1108 2.439 . S
O1119 C1113 1.208 . S
O1120 Cd1121 2.223 . S
O1120 C1128 1.315 . S
Cd1121 O1120 2.223 . S
Cd1121 O1124 2.297 . S
Cd1121 O1125 2.439 . S
Cd1121 O1131 2.240 . S
Cd1122 O1123 2.240 . S
Cd1122 O1130 2.223 . S
Cd1122 O1132 2.297 . S
Cd1122 O1133 2.439 . S
O1123 Cd1122 2.240 . S
O1123 C1128 1.279 . S
O1124 Cd1121 2.297 . S
O1124 C1126 1.247 . S
O1125 Cd1121 2.439 . S
O1125 C1126 1.208 . S
C1126 O1124 1.247 . S
C1126 O1125 1.208 . S
C1127 O1132 1.247 . S
C1127 O1133 1.208 . S
C1128 O1120 1.315 . S
C1128 O1123 1.279 . S
C1129 O1130 1.315 . S
C1129 O1131 1.279 . S
O1130 Cd1122 2.223 . S
O1130 C1129 1.315 . S
O1131 Cd1121 2.240 . S
O1131 C1129 1.279 . S
O1132 Cd1122 2.297 . S
O1132 C1127 1.247 . S
O1133 Cd1122 2.439 . S
O1133 C1127 1.208 . S
O1134 Cd1135 2.223 . S
O1134 C1142 1.315 . S
Cd1135 O1134 2.223 . S
Cd1135 O1138 2.297 . S
Cd1135 O1139 2.439 . S
Cd1135 O1145 2.240 . S
Cd1136 O1137 2.240 . S
Cd1136 O1144 2.223 . S
Cd1136 O1146 2.297 . S
Cd1136 O1147 2.439 . S
O1137 Cd1136 2.240 . S
O1137 C1142 1.279 . S
O1138 Cd1135 2.297 . S
O1138 C1140 1.247 . S
O1139 Cd1135 2.439 . S
O1139 C1140 1.208 . S
C1140 O1138 1.247 . S
C1140 O1139 1.208 . S
C1141 O1146 1.247 . S
C1141 O1147 1.208 . S
C1142 O1134 1.315 . S
C1142 O1137 1.279 . S
C1143 O1144 1.315 . S
C1143 O1145 1.279 . S
O1144 Cd1136 2.223 . S
O1144 C1143 1.315 . S
O1145 Cd1135 2.240 . S
O1145 C1143 1.279 . S
O1146 Cd1136 2.297 . S
O1146 C1141 1.247 . S
O1147 Cd1136 2.439 . S
O1147 C1141 1.208 . S
O1148 Cd1149 2.223 . S
O1148 C1156 1.315 . S
Cd1149 O1148 2.223 . S
Cd1149 O1152 2.297 . S
Cd1149 O1153 2.439 . S
Cd1149 O1159 2.240 . S
Cd1150 O1151 2.240 . S
Cd1150 O1158 2.223 . S
Cd1150 O1160 2.297 . S
Cd1150 O1161 2.439 . S
O1151 Cd1150 2.240 . S
O1151 C1156 1.279 . S
O1152 Cd1149 2.297 . S
O1152 C1154 1.247 . S
O1153 Cd1149 2.439 . S
O1153 C1154 1.208 . S
C1154 O1152 1.247 . S
C1154 O1153 1.208 . S
C1155 O1160 1.247 . S
C1155 O1161 1.208 . S
C1156 O1148 1.315 . S
C1156 O1151 1.279 . S
C1157 O1158 1.315 . S
C1157 O1159 1.279 . S
O1158 Cd1150 2.223 . S
O1158 C1157 1.315 . S
O1159 Cd1149 2.240 . S
O1159 C1157 1.279 . S
O1160 Cd1150 2.297 . S
O1160 C1155 1.247 . S
O1161 Cd1150 2.439 . S
O1161 C1155 1.208 . S
O1162 Cd1163 2.223 . S
O1162 C1170 1.315 . S
Cd1163 O1162 2.223 . S
Cd1163 O1166 2.297 . S
Cd1163 O1167 2.439 . S
Cd1163 O1173 2.240 . S
Cd1164 O1165 2.240 . S
Cd1164 O1172 2.223 . S
Cd1164 O1174 2.297 . S
Cd1164 O1175 2.439 . S
O1165 Cd1164 2.240 . S
O1165 C1170 1.279 . S
O1166 Cd1163 2.297 . S
O1166 C1168 1.247 . S
O1167 Cd1163 2.439 . S
O1167 C1168 1.208 . S
C1168 O1166 1.247 . S
C1168 O1167 1.208 . S
C1169 O1174 1.247 . S
C1169 O1175 1.208 . S
C1170 O1162 1.315 . S
C1170 O1165 1.279 . S
C1171 O1172 1.315 . S
C1171 O1173 1.279 . S
O1172 Cd1164 2.223 . S
O1172 C1171 1.315 . S
O1173 Cd1163 2.240 . S
O1173 C1171 1.279 . S
O1174 Cd1164 2.297 . S
O1174 C1169 1.247 . S
O1175 Cd1164 2.439 . S
O1175 C1169 1.208 . S
O1176 Cd1177 2.223 . S
O1176 C1184 1.315 . S
Cd1177 O1176 2.223 . S
Cd1177 O1180 2.297 . S
Cd1177 O1181 2.439 . S
Cd1177 O1187 2.240 . S
Cd1178 O1179 2.240 . S
Cd1178 O1186 2.223 . S
Cd1178 O1188 2.297 . S
Cd1178 O1189 2.439 . S
O1179 Cd1178 2.240 . S
O1179 C1184 1.279 . S
O1180 Cd1177 2.297 . S
O1180 C1182 1.247 . S
O1181 Cd1177 2.439 . S
O1181 C1182 1.208 . S
C1182 O1180 1.247 . S
C1182 O1181 1.208 . S
C1183 O1188 1.247 . S
C1183 O1189 1.208 . S
C1184 O1176 1.315 . S
C1184 O1179 1.279 . S
C1185 O1186 1.315 . S
C1185 O1187 1.279 . S
O1186 Cd1178 2.223 . S
O1186 C1185 1.315 . S
O1187 Cd1177 2.240 . S
O1187 C1185 1.279 . S
O1188 Cd1178 2.297 . S
O1188 C1183 1.247 . S
O1189 Cd1178 2.439 . S
O1189 C1183 1.208 . S
O1190 Cd1191 2.223 . S
O1190 C1198 1.315 . S
Cd1191 O1190 2.223 . S
Cd1191 O1194 2.297 . S
Cd1191 O1195 2.439 . S
Cd1191 O1201 2.240 . S
Cd1192 O1193 2.240 . S
Cd1192 O1200 2.223 . S
Cd1192 O1202 2.297 . S
Cd1192 O1203 2.439 . S
O1193 Cd1192 2.240 . S
O1193 C1198 1.279 . S
O1194 Cd1191 2.297 . S
O1194 C1196 1.247 . S
O1195 Cd1191 2.439 . S
O1195 C1196 1.208 . S
C1196 O1194 1.247 . S
C1196 O1195 1.208 . S
C1197 O1202 1.247 . S
C1197 O1203 1.208 . S
C1198 O1190 1.315 . S
C1198 O1193 1.279 . S
C1199 O1200 1.315 . S
C1199 O1201 1.279 . S
O1200 Cd1192 2.223 . S
O1200 C1199 1.315 . S
O1201 Cd1191 2.240 . S
O1201 C1199 1.279 . S
O1202 Cd1192 2.297 . S
O1202 C1197 1.247 . S
O1203 Cd1192 2.439 . S
O1203 C1197 1.208 . S
O1204 Cd1205 2.223 . S
O1204 C1212 1.315 . S
Cd1205 O1204 2.223 . S
Cd1205 O1208 2.297 . S
Cd1205 O1209 2.439 . S
Cd1205 O1215 2.240 . S
Cd1206 O1207 2.240 . S
Cd1206 O1214 2.223 . S
Cd1206 O1216 2.297 . S
Cd1206 O1217 2.439 . S
O1207 Cd1206 2.240 . S
O1207 C1212 1.279 . S
O1208 Cd1205 2.297 . S
O1208 C1210 1.247 . S
O1209 Cd1205 2.439 . S
O1209 C1210 1.208 . S
C1210 O1208 1.247 . S
C1210 O1209 1.208 . S
C1211 O1216 1.247 . S
C1211 O1217 1.208 . S
C1212 O1204 1.315 . S
C1212 O1207 1.279 . S
C1213 O1214 1.315 . S
C1213 O1215 1.279 . S
O1214 Cd1206 2.223 . S
O1214 C1213 1.315 . S
O1215 Cd1205 2.240 . S
O1215 C1213 1.279 . S
O1216 Cd1206 2.297 . S
O1216 C1211 1.247 . S
O1217 Cd1206 2.439 . S
O1217 C1211 1.208 . S
O1218 Cd1219 2.223 . S
O1218 C1226 1.315 . S
Cd1219 O1218 2.223 . S
Cd1219 O1222 2.297 . S
Cd1219 O1223 2.439 . S
Cd1219 O1229 2.240 . S
Cd1220 O1221 2.240 . S
Cd1220 O1228 2.223 . S
Cd1220 O1230 2.297 . S
Cd1220 O1231 2.439 . S
O1221 Cd1220 2.240 . S
O1221 C1226 1.279 . S
O1222 Cd1219 2.297 . S
O1222 C1224 1.247 . S
O1223 Cd1219 2.439 . S
O1223 C1224 1.208 . S
C1224 O1222 1.247 . S
C1224 O1223 1.208 . S
C1225 O1230 1.247 . S
C1225 O1231 1.208 . S
C1226 O1218 1.315 . S
C1226 O1221 1.279 . S
C1227 O1228 1.315 . S
C1227 O1229 1.279 . S
O1228 Cd1220 2.223 . S
O1228 C1227 1.315 . S
O1229 Cd1219 2.240 . S
O1229 C1227 1.279 . S
O1230 Cd1220 2.297 . S
O1230 C1225 1.247 . S
O1231 Cd1220 2.439 . S
O1231 C1225 1.208 . S
O1232 Cd1233 2.223 . S
O1232 C1240 1.315 . S
Cd1233 O1232 2.223 . S
Cd1233 O1236 2.297 . S
Cd1233 O1237 2.439 . S
Cd1233 O1243 2.240 . S
Cd1234 O1235 2.240 . S
Cd1234 O1242 2.223 . S
Cd1234 O1244 2.297 . S
Cd1234 O1245 2.439 . S
O1235 Cd1234 2.240 . S
O1235 C1240 1.279 . S
O1236 Cd1233 2.297 . S
O1236 C1238 1.247 . S
O1237 Cd1233 2.439 . S
O1237 C1238 1.208 . S
C1238 O1236 1.247 . S
C1238 O1237 1.208 . S
C1239 O1244 1.247 . S
C1239 O1245 1.208 . S
C1240 O1232 1.315 . S
C1240 O1235 1.279 . S
C1241 O1242 1.315 . S
C1241 O1243 1.279 . S
O1242 Cd1234 2.223 . S
O1242 C1241 1.315 . S
O1243 Cd1233 2.240 . S
O1243 C1241 1.279 . S
O1244 Cd1234 2.297 . S
O1244 C1239 1.247 . S
O1245 Cd1234 2.439 . S
O1245 C1239 1.208 . S
O1246 Cd1247 2.223 . S
O1246 C1254 1.315 . S
Cd1247 O1246 2.223 . S
Cd1247 O1250 2.297 . S
Cd1247 O1251 2.439 . S
Cd1247 O1257 2.240 . S
Cd1248 O1249 2.240 . S
Cd1248 O1256 2.223 . S
Cd1248 O1258 2.297 . S
Cd1248 O1259 2.439 . S
O1249 Cd1248 2.240 . S
O1249 C1254 1.279 . S
O1250 Cd1247 2.297 . S
O1250 C1252 1.247 . S
O1251 Cd1247 2.439 . S
O1251 C1252 1.208 . S
C1252 O1250 1.247 . S
C1252 O1251 1.208 . S
C1253 O1258 1.247 . S
C1253 O1259 1.208 . S
C1254 O1246 1.315 . S
C1254 O1249 1.279 . S
C1255 O1256 1.315 . S
C1255 O1257 1.279 . S
O1256 Cd1248 2.223 . S
O1256 C1255 1.315 . S
O1257 Cd1247 2.240 . S
O1257 C1255 1.279 . S
O1258 Cd1248 2.297 . S
O1258 C1253 1.247 . S
O1259 Cd1248 2.439 . S
O1259 C1253 1.208 . S
O1260 Cd1261 2.223 . S
O1260 C1268 1.315 . S
Cd1261 O1260 2.223 . S
Cd1261 O1264 2.297 . S
Cd1261 O1265 2.439 . S
Cd1261 O1271 2.240 . S
Cd1262 O1263 2.240 . S
Cd1262 O1270 2.223 . S
Cd1262 O1272 2.297 . S
Cd1262 O1273 2.439 . S
O1263 Cd1262 2.240 . S
O1263 C1268 1.279 . S
O1264 Cd1261 2.297 . S
O1264 C1266 1.247 . S
O1265 Cd1261 2.439 . S
O1265 C1266 1.208 . S
C1266 O1264 1.247 . S
C1266 O1265 1.208 . S
C1267 O1272 1.247 . S
C1267 O1273 1.208 . S
C1268 O1260 1.315 . S
C1268 O1263 1.279 . S
C1269 O1270 1.315 . S
C1269 O1271 1.279 . S
O1270 Cd1262 2.223 . S
O1270 C1269 1.315 . S
O1271 Cd1261 2.240 . S
O1271 C1269 1.279 . S
O1272 Cd1262 2.297 . S
O1272 C1267 1.247 . S
O1273 Cd1262 2.439 . S
O1273 C1267 1.208 . S
O1274 Cd1275 2.223 . S
O1274 C1282 1.315 . S
Cd1275 O1274 2.223 . S
Cd1275 O1278 2.297 . S
Cd1275 O1279 2.439 . S
Cd1275 O1285 2.240 . S
Cd1276 O1277 2.240 . S
Cd1276 O1284 2.223 . S
Cd1276 O1286 2.297 . S
Cd1276 O1287 2.439 . S
O1277 Cd1276 2.240 . S
O1277 C1282 1.279 . S
O1278 Cd1275 2.297 . S
O1278 C1280 1.247 . S
O1279 Cd1275 2.439 . S
O1279 C1280 1.208 . S
C1280 O1278 1.247 . S
C1280 O1279 1.208 . S
C1281 O1286 1.247 . S
C1281 O1287 1.208 . S
C1282 O1274 1.315 . S
C1282 O1277 1.279 . S
C1283 O1284 1.315 . S
C1283 O1285 1.279 . S
O1284 Cd1276 2.223 . S
O1284 C1283 1.315 . S
O1285 Cd1275 2.240 . S
O1285 C1283 1.279 . S
O1286 Cd1276 2.297 . S
O1286 C1281 1.247 . S
O1287 Cd1276 2.439 . S
O1287 C1281 1.208 . S
O1288 Cd1289 2.223 . S
O1288 C1296 1.315 . S
Cd1289 O1288 2.223 . S
Cd1289 O1292 2.297 . S
Cd1289 O1293 2.439 . S
Cd1289 O1299 2.240 . S
Cd1290 O1291 2.240 . S
Cd1290 O1298 2.223 . S
Cd1290 O1300 2.297 . S
Cd1290 O1301 2.439 . S
O1291 Cd1290 2.240 . S
O1291 C1296 1.279 . S
O1292 Cd1289 2.297 . S
O1292 C1294 1.247 . S
O1293 Cd1289 2.439 . S
O1293 C1294 1.208 . S
C1294 O1292 1.247 . S
C1294 O1293 1.208 . S
C1295 O1300 1.247 . S
C1295 O1301 1.208 . S
C1296 O1288 1.315 . S
C1296 O1291 1.279 . S
C1297 O1298 1.315 . S
C1297 O1299 1.279 . S
O1298 Cd1290 2.223 . S
O1298 C1297 1.315 . S
O1299 Cd1289 2.240 . S
O1299 C1297 1.279 . S
O1300 Cd1290 2.297 . S
O1300 C1295 1.247 . S
O1301 Cd1290 2.439 . S
O1301 C1295 1.208 . S
O1302 Cd1303 2.223 . S
O1302 C1310 1.315 . S
Cd1303 O1302 2.223 . S
Cd1303 O1306 2.297 . S
Cd1303 O1307 2.439 . S
Cd1303 O1313 2.240 . S
Cd1304 O1305 2.240 . S
Cd1304 O1312 2.223 . S
Cd1304 O1314 2.297 . S
Cd1304 O1315 2.439 . S
O1305 Cd1304 2.240 . S
O1305 C1310 1.279 . S
O1306 Cd1303 2.297 . S
O1306 C1308 1.247 . S
O1307 Cd1303 2.439 . S
O1307 C1308 1.208 . S
C1308 O1306 1.247 . S
C1308 O1307 1.208 . S
C1309 O1314 1.247 . S
C1309 O1315 1.208 . S
C1310 O1302 1.315 . S
C1310 O1305 1.279 . S
C1311 O1312 1.315 . S
C1311 O1313 1.279 . S
O1312 Cd1304 2.223 . S
O1312 C1311 1.315 . S
O1313 Cd1303 2.240 . S
O1313 C1311 1.279 . S
O1314 Cd1304 2.297 . S
O1314 C1309 1.247 . S
O1315 Cd1304 2.439 . S
O1315 C1309 1.208 . S
O1316 Cd1317 2.223 . S
O1316 C1324 1.315 . S
Cd1317 O1316 2.223 . S
Cd1317 O1320 2.297 . S
Cd1317 O1321 2.439 . S
Cd1317 O1327 2.240 . S
Cd1318 O1319 2.240 . S
Cd1318 O1326 2.223 . S
Cd1318 O1328 2.297 . S
Cd1318 O1329 2.439 . S
O1319 Cd1318 2.240 . S
O1319 C1324 1.279 . S
O1320 Cd1317 2.297 . S
O1320 C1322 1.247 . S
O1321 Cd1317 2.439 . S
O1321 C1322 1.208 . S
C1322 O1320 1.247 . S
C1322 O1321 1.208 . S
C1323 O1328 1.247 . S
C1323 O1329 1.208 . S
C1324 O1316 1.315 . S
C1324 O1319 1.279 . S
C1325 O1326 1.315 . S
C1325 O1327 1.279 . S
O1326 Cd1318 2.223 . S
O1326 C1325 1.315 . S
O1327 Cd1317 2.240 . S
O1327 C1325 1.279 . S
O1328 Cd1318 2.297 . S
O1328 C1323 1.247 . S
O1329 Cd1318 2.439 . S
O1329 C1323 1.208 . S
O1330 Cd1331 2.223 . S
O1330 C1338 1.315 . S
Cd1331 O1330 2.223 . S
Cd1331 O1334 2.297 . S
Cd1331 O1335 2.439 . S
Cd1331 O1341 2.240 . S
Cd1332 O1333 2.240 . S
Cd1332 O1340 2.223 . S
Cd1332 O1342 2.297 . S
Cd1332 O1343 2.439 . S
O1333 Cd1332 2.240 . S
O1333 C1338 1.279 . S
O1334 Cd1331 2.297 . S
O1334 C1336 1.247 . S
O1335 Cd1331 2.439 . S
O1335 C1336 1.208 . S
C1336 O1334 1.247 . S
C1336 O1335 1.208 . S
C1337 O1342 1.247 . S
C1337 O1343 1.208 . S
C1338 O1330 1.315 . S
C1338 O1333 1.279 . S
C1339 O1340 1.315 . S
C1339 O1341 1.279 . S
O1340 Cd1332 2.223 . S
O1340 C1339 1.315 . S
O1341 Cd1331 2.240 . S
O1341 C1339 1.279 . S
O1342 Cd1332 2.297 . S
O1342 C1337 1.247 . S
O1343 Cd1332 2.439 . S
O1343 C1337 1.208 . S
C1344 C1345 1.369 . S
C1344 C1346 1.419 . S
C1344 H1348 0.930 . S
C1345 C1344 1.369 . S
C1345 C1354 1.429 . S
C1346 C1344 1.419 . S
C1346 C1347 1.363 . S
C1346 H1349 0.929 . S
C1347 C1346 1.363 . S
C1347 C1353 1.428 . S
H1348 C1344 0.930 . S
H1349 C1346 0.929 . S
S1350 N1351 1.613 . S
S1350 N1352 1.610 . S
N1351 S1350 1.613 . S
N1351 C1354 1.350 . S
N1352 S1350 1.610 . S
N1352 C1353 1.351 . S
C1353 C1347 1.428 . S
C1353 N1352 1.351 . S
C1353 C1354 1.434 . S
C1354 C1345 1.429 . S
C1354 N1351 1.350 . S
C1354 C1353 1.434 . S
C1355 C1356 1.369 . S
C1355 C1357 1.419 . S
C1355 H1359 0.930 . S
C1356 C1355 1.369 . S
C1356 C1365 1.429 . S
C1357 C1355 1.419 . S
C1357 C1358 1.363 . S
C1357 H1360 0.929 . S
C1358 C1357 1.363 . S
C1358 C1364 1.428 . S
H1359 C1355 0.930 . S
H1360 C1357 0.929 . S
S1361 N1362 1.613 . S
S1361 N1363 1.610 . S
N1362 S1361 1.613 . S
N1362 C1365 1.350 . S
N1363 S1361 1.610 . S
N1363 C1364 1.351 . S
C1364 C1358 1.428 . S
C1364 N1363 1.351 . S
C1364 C1365 1.434 . S
C1365 C1356 1.429 . S
C1365 N1362 1.350 . S
C1365 C1364 1.434 . S
C1366 C1367 1.369 . S
C1366 C1368 1.419 . S
C1366 H1370 0.930 . S
C1367 C1366 1.369 . S
C1367 C1376 1.429 . S
C1368 C1366 1.419 . S
C1368 C1369 1.363 . S
C1368 H1371 0.929 . S
C1369 C1368 1.363 . S
C1369 C1375 1.428 . S
H1370 C1366 0.930 . S
H1371 C1368 0.929 . S
S1372 N1373 1.613 . S
S1372 N1374 1.610 . S
N1373 S1372 1.613 . S
N1373 C1376 1.350 . S
N1374 S1372 1.610 . S
N1374 C1375 1.351 . S
C1375 C1369 1.428 . S
C1375 N1374 1.351 . S
C1375 C1376 1.434 . S
C1376 C1367 1.429 . S
C1376 N1373 1.350 . S
C1376 C1375 1.434 . S
C1377 C1378 1.369 . S
C1377 C1379 1.419 . S
C1377 H1381 0.930 . S
C1378 C1377 1.369 . S
C1378 C1387 1.429 . S
C1379 C1377 1.419 . S
C1379 C1380 1.363 . S
C1379 H1382 0.929 . S
C1380 C1379 1.363 . S
C1380 C1386 1.428 . S
H1381 C1377 0.930 . S
H1382 C1379 0.929 . S
S1383 N1384 1.613 . S
S1383 N1385 1.610 . S
N1384 S1383 1.613 . S
N1384 C1387 1.350 . S
N1385 S1383 1.610 . S
N1385 C1386 1.351 . S
C1386 C1380 1.428 . S
C1386 N1385 1.351 . S
C1386 C1387 1.434 . S
C1387 C1378 1.429 . S
C1387 N1384 1.350 . S
C1387 C1386 1.434 . S
C1388 C1389 1.369 . S
C1388 C1390 1.419 . S
C1388 H1392 0.930 . S
C1389 C1388 1.369 . S
C1389 C1398 1.429 . S
C1390 C1388 1.419 . S
C1390 C1391 1.363 . S
C1390 H1393 0.929 . S
C1391 C1390 1.363 . S
C1391 C1397 1.428 . S
H1392 C1388 0.930 . S
H1393 C1390 0.929 . S
S1394 N1395 1.613 . S
S1394 N1396 1.610 . S
N1395 S1394 1.613 . S
N1395 C1398 1.350 . S
N1396 S1394 1.610 . S
N1396 C1397 1.351 . S
C1397 C1391 1.428 . S
C1397 N1396 1.351 . S
C1397 C1398 1.434 . S
C1398 C1389 1.429 . S
C1398 N1395 1.350 . S
C1398 C1397 1.434 . S
C1399 C1400 1.369 . S
C1399 C1401 1.419 . S
C1399 H1403 0.930 . S
C1400 C1399 1.369 . S
C1400 C1409 1.429 . S
C1401 C1399 1.419 . S
C1401 C1402 1.363 . S
C1401 H1404 0.929 . S
C1402 C1401 1.363 . S
C1402 C1408 1.428 . S
H1403 C1399 0.930 . S
H1404 C1401 0.929 . S
S1405 N1406 1.613 . S
S1405 N1407 1.610 . S
N1406 S1405 1.613 . S
N1406 C1409 1.350 . S
N1407 S1405 1.610 . S
N1407 C1408 1.351 . S
C1408 C1402 1.428 . S
C1408 N1407 1.351 . S
C1408 C1409 1.434 . S
C1409 C1400 1.429 . S
C1409 N1406 1.350 . S
C1409 C1408 1.434 . S
C1410 C1411 1.369 . S
C1410 C1412 1.419 . S
C1410 H1414 0.930 . S
C1411 C1410 1.369 . S
C1411 C1420 1.429 . S
C1412 C1410 1.419 . S
C1412 C1413 1.363 . S
C1412 H1415 0.929 . S
C1413 C1412 1.363 . S
C1413 C1419 1.428 . S
H1414 C1410 0.930 . S
H1415 C1412 0.929 . S
S1416 N1417 1.607 1_565 S
S1416 N1418 1.592 1_565 S
N1417 S1416 1.607 1_545 S
N1417 C1420 1.350 . S
N1418 S1416 1.592 1_545 S
N1418 C1419 1.351 . S
C1419 C1413 1.428 . S
C1419 N1418 1.351 . S
C1419 C1420 1.434 . S
C1420 C1411 1.429 . S
C1420 N1417 1.350 . S
C1420 C1419 1.434 . S
C1421 C1422 1.369 . S
C1421 C1423 1.419 . S
C1421 H1425 0.930 . S
C1422 C1421 1.369 . S
C1422 C1431 1.429 . S
C1423 C1421 1.419 . S
C1423 C1424 1.363 . S
C1423 H1426 0.929 . S
C1424 C1423 1.363 . S
C1424 C1430 1.428 . S
H1425 C1421 0.930 . S
H1426 C1423 0.929 . S
S1427 N1428 1.613 . S
S1427 N1429 1.610 . S
N1428 S1427 1.613 . S
N1428 C1431 1.350 . S
N1429 S1427 1.610 . S
N1429 C1430 1.351 . S
C1430 C1424 1.428 . S
C1430 N1429 1.351 . S
C1430 C1431 1.434 . S
C1431 C1422 1.429 . S
C1431 N1428 1.350 . S
C1431 C1430 1.434 . S
C1432 C1433 1.369 . S
C1432 C1434 1.419 . S
C1432 H1436 0.930 . S
C1433 C1432 1.369 . S
C1433 C1442 1.429 . S
C1434 C1432 1.419 . S
C1434 C1435 1.363 . S
C1434 H1437 0.929 . S
C1435 C1434 1.363 . S
C1435 C1441 1.428 . S
H1436 C1432 0.930 . S
H1437 C1434 0.929 . S
S1438 N1439 1.613 . S
S1438 N1440 1.610 . S
N1439 S1438 1.613 . S
N1439 C1442 1.350 . S
N1440 S1438 1.610 . S
N1440 C1441 1.351 . S
C1441 C1435 1.428 . S
C1441 N1440 1.351 . S
C1441 C1442 1.434 . S
C1442 C1433 1.429 . S
C1442 N1439 1.350 . S
C1442 C1441 1.434 . S
C1443 C1444 1.369 . S
C1443 C1445 1.419 . S
C1443 H1447 0.930 . S
C1444 C1443 1.369 . S
C1444 C1453 1.429 . S
C1445 C1443 1.419 . S
C1445 C1446 1.363 . S
C1445 H1448 0.929 . S
C1446 C1445 1.363 . S
C1446 C1452 1.428 . S
H1447 C1443 0.930 . S
H1448 C1445 0.929 . S
S1449 N1450 1.613 . S
S1449 N1451 1.610 . S
N1450 S1449 1.613 . S
N1450 C1453 1.350 . S
N1451 S1449 1.610 . S
N1451 C1452 1.351 . S
C1452 C1446 1.428 . S
C1452 N1451 1.351 . S
C1452 C1453 1.434 . S
C1453 C1444 1.429 . S
C1453 N1450 1.350 . S
C1453 C1452 1.434 . S
C1454 C1455 1.369 . S
C1454 C1456 1.419 . S
C1454 H1458 0.930 . S
C1455 C1454 1.369 . S
C1455 C1464 1.429 . S
C1456 C1454 1.419 . S
C1456 C1457 1.363 . S
C1456 H1459 0.929 . S
C1457 C1456 1.363 . S
C1457 C1463 1.428 . S
H1458 C1454 0.930 . S
H1459 C1456 0.929 . S
S1460 N1461 1.613 . S
S1460 N1462 1.610 . S
N1461 S1460 1.613 . S
N1461 C1464 1.350 . S
N1462 S1460 1.610 . S
N1462 C1463 1.351 . S
C1463 C1457 1.428 . S
C1463 N1462 1.351 . S
C1463 C1464 1.434 . S
C1464 C1455 1.429 . S
C1464 N1461 1.350 . S
C1464 C1463 1.434 . S
C1465 C1466 1.369 . S
C1465 C1467 1.419 . S
C1465 H1469 0.930 . S
C1466 C1465 1.369 . S
C1466 C1475 1.429 . S
C1467 C1465 1.419 . S
C1467 C1468 1.363 . S
C1467 H1470 0.929 . S
C1468 C1467 1.363 . S
C1468 C1474 1.428 . S
H1469 C1465 0.930 . S
H1470 C1467 0.929 . S
S1471 N1472 1.613 . S
S1471 N1473 1.610 . S
N1472 S1471 1.613 . S
N1472 C1475 1.350 . S
N1473 S1471 1.610 . S
N1473 C1474 1.351 . S
C1474 C1468 1.428 . S
C1474 N1473 1.351 . S
C1474 C1475 1.434 . S
C1475 C1466 1.429 . S
C1475 N1472 1.350 . S
C1475 C1474 1.434 . S
C1476 C1477 1.369 . S
C1476 C1478 1.419 . S
C1476 H1480 0.930 . S
C1477 C1476 1.369 . S
C1477 C1486 1.429 . S
C1478 C1476 1.419 . S
C1478 C1479 1.363 . S
C1478 H1481 0.929 . S
C1479 C1478 1.363 . S
C1479 C1485 1.428 . S
H1480 C1476 0.930 . S
H1481 C1478 0.929 . S
S1482 N1483 1.613 . S
S1482 N1484 1.610 . S
N1483 S1482 1.613 . S
N1483 C1486 1.350 . S
N1484 S1482 1.610 . S
N1484 C1485 1.351 . S
C1485 C1479 1.428 . S
C1485 N1484 1.351 . S
C1485 C1486 1.434 . S
C1486 C1477 1.429 . S
C1486 N1483 1.350 . S
C1486 C1485 1.434 . S
C1487 C1488 1.369 . S
C1487 C1489 1.419 . S
C1487 H1491 0.930 . S
C1488 C1487 1.369 . S
C1488 C1497 1.429 . S
C1489 C1487 1.419 . S
C1489 C1490 1.363 . S
C1489 H1492 0.929 . S
C1490 C1489 1.363 . S
C1490 C1496 1.428 . S
H1491 C1487 0.930 . S
H1492 C1489 0.929 . S
S1493 N1494 1.613 . S
S1493 N1495 1.610 . S
N1494 S1493 1.613 . S
N1494 C1497 1.350 . S
N1495 S1493 1.610 . S
N1495 C1496 1.351 . S
C1496 C1490 1.428 . S
C1496 N1495 1.351 . S
C1496 C1497 1.434 . S
C1497 C1488 1.429 . S
C1497 N1494 1.350 . S
C1497 C1496 1.434 . S
C1498 C1499 1.369 . S
C1498 C1500 1.419 . S
C1498 H1502 0.930 . S
C1499 C1498 1.369 . S
C1499 C1508 1.429 . S
C1500 C1498 1.419 . S
C1500 C1501 1.363 . S
C1500 H1503 0.929 . S
C1501 C1500 1.363 . S
C1501 C1507 1.428 . S
H1502 C1498 0.930 . S
H1503 C1500 0.929 . S
S1504 N1505 1.613 . S
S1504 N1506 1.610 . S
N1505 S1504 1.613 . S
N1505 C1508 1.350 . S
N1506 S1504 1.610 . S
N1506 C1507 1.351 . S
C1507 C1501 1.428 . S
C1507 N1506 1.351 . S
C1507 C1508 1.434 . S
C1508 C1499 1.429 . S
C1508 N1505 1.350 . S
C1508 C1507 1.434 . S
C1509 C1510 1.369 . S
C1509 C1511 1.419 . S
C1509 H1513 0.930 . S
C1510 C1509 1.369 . S
C1510 C1519 1.429 . S
C1511 C1509 1.419 . S
C1511 C1512 1.363 . S
C1511 H1514 0.929 . S
C1512 C1511 1.363 . S
C1512 C1518 1.428 . S
H1513 C1509 0.930 . S
H1514 C1511 0.929 . S
S1515 N1516 1.613 . S
S1515 N1517 1.610 . S
N1516 S1515 1.613 . S
N1516 C1519 1.350 . S
N1517 S1515 1.610 . S
N1517 C1518 1.351 . S
C1518 C1512 1.428 . S
C1518 N1517 1.351 . S
C1518 C1519 1.434 . S
C1519 C1510 1.429 . S
C1519 N1516 1.350 . S
C1519 C1518 1.434 . S
C1520 C1521 1.369 . S
C1520 C1522 1.419 . S
C1520 H1524 0.930 . S
C1521 C1520 1.369 . S
C1521 C1530 1.429 . S
C1522 C1520 1.419 . S
C1522 C1523 1.363 . S
C1522 H1525 0.929 . S
C1523 C1522 1.363 . S
C1523 C1529 1.428 . S
H1524 C1520 0.930 . S
H1525 C1522 0.929 . S
S1526 N1527 1.613 . S
S1526 N1528 1.610 . S
N1527 S1526 1.613 . S
N1527 C1530 1.350 . S
N1528 S1526 1.610 . S
N1528 C1529 1.351 . S
C1529 C1523 1.428 . S
C1529 N1528 1.351 . S
C1529 C1530 1.434 . S
C1530 C1521 1.429 . S
C1530 N1527 1.350 . S
C1530 C1529 1.434 . S
C1531 C1532 1.369 . S
C1531 C1533 1.419 . S
C1531 H1535 0.930 . S
C1532 C1531 1.369 . S
C1532 C1541 1.429 . S
C1533 C1531 1.419 . S
C1533 C1534 1.363 . S
C1533 H1536 0.929 . S
C1534 C1533 1.363 . S
C1534 C1540 1.428 . S
H1535 C1531 0.930 . S
H1536 C1533 0.929 . S
S1537 N1538 1.613 . S
S1537 N1539 1.610 . S
N1538 S1537 1.613 . S
N1538 C1541 1.350 . S
N1539 S1537 1.610 . S
N1539 C1540 1.351 . S
C1540 C1534 1.428 . S
C1540 N1539 1.351 . S
C1540 C1541 1.434 . S
C1541 C1532 1.429 . S
C1541 N1538 1.350 . S
C1541 C1540 1.434 . S
C1542 C1543 1.369 . S
C1542 C1544 1.419 . S
C1542 H1546 0.930 . S
C1543 C1542 1.369 . S
C1543 C1552 1.429 . S
C1544 C1542 1.419 . S
C1544 C1545 1.363 . S
C1544 H1547 0.929 . S
C1545 C1544 1.363 . S
C1545 C1551 1.428 . S
H1546 C1542 0.930 . S
H1547 C1544 0.929 . S
S1548 N1549 1.613 . S
S1548 N1550 1.610 . S
N1549 S1548 1.613 . S
N1549 C1552 1.350 . S
N1550 S1548 1.610 . S
N1550 C1551 1.351 . S
C1551 C1545 1.428 . S
C1551 N1550 1.351 . S
C1551 C1552 1.434 . S
C1552 C1543 1.429 . S
C1552 N1549 1.350 . S
C1552 C1551 1.434 . S
C1553 C1554 1.369 . S
C1553 C1555 1.419 . S
C1553 H1557 0.930 . S
C1554 C1553 1.369 . S
C1554 C1563 1.429 . S
C1555 C1553 1.419 . S
C1555 C1556 1.363 . S
C1555 H1558 0.929 . S
C1556 C1555 1.363 . S
C1556 C1562 1.428 . S
H1557 C1553 0.930 . S
H1558 C1555 0.929 . S
S1559 N1560 1.613 . S
S1559 N1561 1.610 . S
N1560 S1559 1.613 . S
N1560 C1563 1.350 . S
N1561 S1559 1.610 . S
N1561 C1562 1.351 . S
C1562 C1556 1.428 . S
C1562 N1561 1.351 . S
C1562 C1563 1.434 . S
C1563 C1554 1.429 . S
C1563 N1560 1.350 . S
C1563 C1562 1.434 . S
C1564 C1565 1.369 . S
C1564 C1566 1.419 . S
C1564 H1568 0.930 . S
C1565 C1564 1.369 . S
C1565 C1574 1.429 . S
C1566 C1564 1.419 . S
C1566 C1567 1.363 . S
C1566 H1569 0.929 . S
C1567 C1566 1.363 . S
C1567 C1573 1.428 . S
H1568 C1564 0.930 . S
H1569 C1566 0.929 . S
S1570 N1571 1.613 . S
S1570 N1572 1.610 . S
N1571 S1570 1.613 . S
N1571 C1574 1.350 . S
N1572 S1570 1.610 . S
N1572 C1573 1.351 . S
C1573 C1567 1.428 . S
C1573 N1572 1.351 . S
C1573 C1574 1.434 . S
C1574 C1565 1.429 . S
C1574 N1571 1.350 . S
C1574 C1573 1.434 . S
C1575 C1576 1.369 . S
C1575 C1577 1.419 . S
C1575 H1579 0.930 . S
C1576 C1575 1.369 . S
C1576 C1585 1.429 . S
C1577 C1575 1.419 . S
C1577 C1578 1.363 . S
C1577 H1580 0.929 . S
C1578 C1577 1.363 . S
C1578 C1584 1.428 . S
H1579 C1575 0.930 . S
H1580 C1577 0.929 . S
S1581 N1582 1.613 . S
S1581 N1583 1.610 . S
N1582 S1581 1.613 . S
N1582 C1585 1.350 . S
N1583 S1581 1.610 . S
N1583 C1584 1.351 . S
C1584 C1578 1.428 . S
C1584 N1583 1.351 . S
C1584 C1585 1.434 . S
C1585 C1576 1.429 . S
C1585 N1582 1.350 . S
C1585 C1584 1.434 . S
C1586 C1587 1.369 . S
C1586 C1588 1.419 . S
C1586 H1590 0.930 . S
C1587 C1586 1.369 . S
C1587 C1596 1.429 . S
C1588 C1586 1.419 . S
C1588 C1589 1.363 . S
C1588 H1591 0.929 . S
C1589 C1588 1.363 . S
C1589 C1595 1.428 . S
H1590 C1586 0.930 . S
H1591 C1588 0.929 . S
S1592 N1593 1.613 . S
S1592 N1594 1.610 . S
N1593 S1592 1.613 . S
N1593 C1596 1.350 . S
N1594 S1592 1.610 . S
N1594 C1595 1.351 . S
C1595 C1589 1.428 . S
C1595 N1594 1.351 . S
C1595 C1596 1.434 . S
C1596 C1587 1.429 . S
C1596 N1593 1.350 . S
C1596 C1595 1.434 . S
C1597 C1598 1.369 . S
C1597 C1599 1.419 . S
C1597 H1601 0.930 . S
C1598 C1597 1.369 . S
C1598 C1607 1.429 . S
C1599 C1597 1.419 . S
C1599 C1600 1.363 . S
C1599 H1602 0.929 . S
C1600 C1599 1.363 . S
C1600 C1606 1.428 . S
H1601 C1597 0.930 . S
H1602 C1599 0.929 . S
S1603 N1604 1.613 . S
S1603 N1605 1.610 . S
N1604 S1603 1.613 . S
N1604 C1607 1.350 . S
N1605 S1603 1.610 . S
N1605 C1606 1.351 . S
C1606 C1600 1.428 . S
C1606 N1605 1.351 . S
C1606 C1607 1.434 . S
C1607 C1598 1.429 . S
C1607 N1604 1.350 . S
C1607 C1606 1.434 . S
C1608 C1609 1.369 . S
C1608 C1610 1.419 . S
C1608 H1612 0.930 . S
C1609 C1608 1.369 . S
C1609 C1618 1.429 . S
C1610 C1608 1.419 . S
C1610 C1611 1.363 . S
C1610 H1613 0.929 . S
C1611 C1610 1.363 . S
C1611 C1617 1.428 . S
H1612 C1608 0.930 . S
H1613 C1610 0.929 . S
S1614 N1615 1.613 . S
S1614 N1616 1.610 . S
N1615 S1614 1.613 . S
N1615 C1618 1.350 . S
N1616 S1614 1.610 . S
N1616 C1617 1.351 . S
C1617 C1611 1.428 . S
C1617 N1616 1.351 . S
C1617 C1618 1.434 . S
C1618 C1609 1.429 . S
C1618 N1615 1.350 . S
C1618 C1617 1.434 . S
C1619 C1620 1.369 . S
C1619 C1621 1.419 . S
C1619 H1623 0.930 . S
C1620 C1619 1.369 . S
C1620 C1629 1.429 . S
C1621 C1619 1.419 . S
C1621 C1622 1.363 . S
C1621 H1624 0.929 . S
C1622 C1621 1.363 . S
C1622 C1628 1.428 . S
H1623 C1619 0.930 . S
H1624 C1621 0.929 . S
S1625 N1626 1.613 . S
S1625 N1627 1.610 . S
N1626 S1625 1.613 . S
N1626 C1629 1.350 . S
N1627 S1625 1.610 . S
N1627 C1628 1.351 . S
C1628 C1622 1.428 . S
C1628 N1627 1.351 . S
C1628 C1629 1.434 . S
C1629 C1620 1.429 . S
C1629 N1626 1.350 . S
C1629 C1628 1.434 . S
C1630 C1631 1.369 . S
C1630 C1632 1.419 . S
C1630 H1634 0.930 . S
C1631 C1630 1.369 . S
C1631 C1640 1.429 . S
C1632 C1630 1.419 . S
C1632 C1633 1.363 . S
C1632 H1635 0.929 . S
C1633 C1632 1.363 . S
C1633 C1639 1.428 . S
H1634 C1630 0.930 . S
H1635 C1632 0.929 . S
S1636 N1637 1.613 . S
S1636 N1638 1.610 . S
N1637 S1636 1.613 . S
N1637 C1640 1.350 . S
N1638 S1636 1.610 . S
N1638 C1639 1.351 . S
C1639 C1633 1.428 . S
C1639 N1638 1.351 . S
C1639 C1640 1.434 . S
C1640 C1631 1.429 . S
C1640 N1637 1.350 . S
C1640 C1639 1.434 . S
C1641 C1642 1.369 . S
C1641 C1643 1.419 . S
C1641 H1645 0.930 . S
C1642 C1641 1.369 . S
C1642 C1651 1.429 . S
C1643 C1641 1.419 . S
C1643 C1644 1.363 . S
C1643 H1646 0.929 . S
C1644 C1643 1.363 . S
C1644 C1650 1.428 . S
H1645 C1641 0.930 . S
H1646 C1643 0.929 . S
S1647 N1648 1.613 . S
S1647 N1649 1.610 . S
N1648 S1647 1.613 . S
N1648 C1651 1.350 . S
N1649 S1647 1.610 . S
N1649 C1650 1.351 . S
C1650 C1644 1.428 . S
C1650 N1649 1.351 . S
C1650 C1651 1.434 . S
C1651 C1642 1.429 . S
C1651 N1648 1.350 . S
C1651 C1650 1.434 . S
C1652 C1653 1.369 . S
C1652 C1654 1.419 . S
C1652 H1656 0.930 . S
C1653 C1652 1.369 . S
C1653 C1662 1.429 . S
C1654 C1652 1.419 . S
C1654 C1655 1.363 . S
C1654 H1657 0.929 . S
C1655 C1654 1.363 . S
C1655 C1661 1.428 . S
H1656 C1652 0.930 . S
H1657 C1654 0.929 . S
S1658 N1659 1.613 . S
S1658 N1660 1.610 . S
N1659 S1658 1.613 . S
N1659 C1662 1.350 . S
N1660 S1658 1.610 . S
N1660 C1661 1.351 . S
C1661 C1655 1.428 . S
C1661 N1660 1.351 . S
C1661 C1662 1.434 . S
C1662 C1653 1.429 . S
C1662 N1659 1.350 . S
C1662 C1661 1.434 . S
C1663 C1664 1.369 . S
C1663 C1665 1.419 . S
C1663 H1667 0.930 . S
C1664 C1663 1.369 . S
C1664 C1673 1.429 . S
C1665 C1663 1.419 . S
C1665 C1666 1.363 . S
C1665 H1668 0.929 . S
C1666 C1665 1.363 . S
C1666 C1672 1.428 . S
H1667 C1663 0.930 . S
H1668 C1665 0.929 . S
S1669 N1670 1.613 . S
S1669 N1671 1.610 . S
N1670 S1669 1.613 . S
N1670 C1673 1.350 . S
N1671 S1669 1.610 . S
N1671 C1672 1.351 . S
C1672 C1666 1.428 . S
C1672 N1671 1.351 . S
C1672 C1673 1.434 . S
C1673 C1664 1.429 . S
C1673 N1670 1.350 . S
C1673 C1672 1.434 . S
C1674 C1675 1.369 . S
C1674 C1676 1.419 . S
C1674 H1678 0.930 . S
C1675 C1674 1.369 . S
C1675 C1684 1.429 . S
C1676 C1674 1.419 . S
C1676 C1677 1.363 . S
C1676 H1679 0.929 . S
C1677 C1676 1.363 . S
C1677 C1683 1.428 . S
H1678 C1674 0.930 . S
H1679 C1676 0.929 . S
S1680 N1681 1.613 . S
S1680 N1682 1.610 . S
N1681 S1680 1.613 . S
N1681 C1684 1.350 . S
N1682 S1680 1.610 . S
N1682 C1683 1.351 . S
C1683 C1677 1.428 . S
C1683 N1682 1.351 . S
C1683 C1684 1.434 . S
C1684 C1675 1.429 . S
C1684 N1681 1.350 . S
C1684 C1683 1.434 . S
C1685 C1686 1.369 . S
C1685 C1687 1.419 . S
C1685 H1689 0.930 . S
C1686 C1685 1.369 . S
C1686 C1695 1.429 . S
C1687 C1685 1.419 . S
C1687 C1688 1.363 . S
C1687 H1690 0.929 . S
C1688 C1687 1.363 . S
C1688 C1694 1.428 . S
H1689 C1685 0.930 . S
H1690 C1687 0.929 . S
S1691 N1692 1.613 . S
S1691 N1693 1.610 . S
N1692 S1691 1.613 . S
N1692 C1695 1.350 . S
N1693 S1691 1.610 . S
N1693 C1694 1.351 . S
C1694 C1688 1.428 . S
C1694 N1693 1.351 . S
C1694 C1695 1.434 . S
C1695 C1686 1.429 . S
C1695 N1692 1.350 . S
C1695 C1694 1.434 . S
C1696 C1697 1.369 . S
C1696 C1698 1.419 . S
C1696 H1700 0.930 . S
C1697 C1696 1.369 . S
C1697 C1706 1.429 . S
C1698 C1696 1.419 . S
C1698 C1699 1.363 . S
C1698 H1701 0.929 . S
C1699 C1698 1.363 . S
C1699 C1705 1.428 . S
H1700 C1696 0.930 . S
H1701 C1698 0.929 . S
S1702 N1703 1.613 . S
S1702 N1704 1.610 . S
N1703 S1702 1.613 . S
N1703 C1706 1.350 . S
N1704 S1702 1.610 . S
N1704 C1705 1.351 . S
C1705 C1699 1.428 . S
C1705 N1704 1.351 . S
C1705 C1706 1.434 . S
C1706 C1697 1.429 . S
C1706 N1703 1.350 . S
C1706 C1705 1.434 . S
C1707 C1708 1.369 . S
C1707 C1709 1.419 . S
C1707 H1711 0.930 . S
C1708 C1707 1.369 . S
C1708 C1717 1.429 . S
C1709 C1707 1.419 . S
C1709 C1710 1.363 . S
C1709 H1712 0.929 . S
C1710 C1709 1.363 . S
C1710 C1716 1.428 . S
H1711 C1707 0.930 . S
H1712 C1709 0.929 . S
S1713 N1714 1.613 . S
S1713 N1715 1.610 . S
N1714 S1713 1.613 . S
N1714 C1717 1.350 . S
N1715 S1713 1.610 . S
N1715 C1716 1.351 . S
C1716 C1710 1.428 . S
C1716 N1715 1.351 . S
C1716 C1717 1.434 . S
C1717 C1708 1.429 . S
C1717 N1714 1.350 . S
C1717 C1716 1.434 . S
C1718 C1719 1.369 . S
C1718 C1720 1.419 . S
C1718 H1722 0.930 . S
C1719 C1718 1.369 . S
C1719 C1728 1.429 . S
C1720 C1718 1.419 . S
C1720 C1721 1.363 . S
C1720 H1723 0.929 . S
C1721 C1720 1.363 . S
C1721 C1727 1.428 . S
H1722 C1718 0.930 . S
H1723 C1720 0.929 . S
S1724 N1725 1.613 . S
S1724 N1726 1.610 . S
N1725 S1724 1.613 . S
N1725 C1728 1.350 . S
N1726 S1724 1.610 . S
N1726 C1727 1.351 . S
C1727 C1721 1.428 . S
C1727 N1726 1.351 . S
C1727 C1728 1.434 . S
C1728 C1719 1.429 . S
C1728 N1725 1.350 . S
C1728 C1727 1.434 . S
C1729 C1730 1.369 . S
C1729 C1731 1.419 . S
C1729 H1733 0.930 . S
C1730 C1729 1.369 . S
C1730 C1739 1.429 . S
C1731 C1729 1.419 . S
C1731 C1732 1.363 . S
C1731 H1734 0.929 . S
C1732 C1731 1.363 . S
C1732 C1738 1.428 . S
H1733 C1729 0.930 . S
H1734 C1731 0.929 . S
S1735 N1736 1.613 . S
S1735 N1737 1.610 . S
N1736 S1735 1.613 . S
N1736 C1739 1.350 . S
N1737 S1735 1.610 . S
N1737 C1738 1.351 . S
C1738 C1732 1.428 . S
C1738 N1737 1.351 . S
C1738 C1739 1.434 . S
C1739 C1730 1.429 . S
C1739 N1736 1.350 . S
C1739 C1738 1.434 . S
C1740 C1741 1.369 . S
C1740 C1742 1.419 . S
C1740 H1744 0.930 . S
C1741 C1740 1.369 . S
C1741 C1750 1.429 . S
C1742 C1740 1.419 . S
C1742 C1743 1.363 . S
C1742 H1745 0.929 . S
C1743 C1742 1.363 . S
C1743 C1749 1.428 . S
H1744 C1740 0.930 . S
H1745 C1742 0.929 . S
S1746 N1747 1.613 . S
S1746 N1748 1.610 . S
N1747 S1746 1.613 . S
N1747 C1750 1.350 . S
N1748 S1746 1.610 . S
N1748 C1749 1.351 . S
C1749 C1743 1.428 . S
C1749 N1748 1.351 . S
C1749 C1750 1.434 . S
C1750 C1741 1.429 . S
C1750 N1747 1.350 . S
C1750 C1749 1.434 . S
C1751 C1752 1.369 . S
C1751 C1753 1.419 . S
C1751 H1755 0.930 . S
C1752 C1751 1.369 . S
C1752 C1761 1.429 . S
C1753 C1751 1.419 . S
C1753 C1754 1.363 . S
C1753 H1756 0.929 . S
C1754 C1753 1.363 . S
C1754 C1760 1.428 . S
H1755 C1751 0.930 . S
H1756 C1753 0.929 . S
S1757 N1758 1.613 . S
S1757 N1759 1.610 . S
N1758 S1757 1.613 . S
N1758 C1761 1.350 . S
N1759 S1757 1.610 . S
N1759 C1760 1.351 . S
C1760 C1754 1.428 . S
C1760 N1759 1.351 . S
C1760 C1761 1.434 . S
C1761 C1752 1.429 . S
C1761 N1758 1.350 . S
C1761 C1760 1.434 . S
C1762 C1763 1.369 . S
C1762 C1764 1.419 . S
C1762 H1766 0.930 . S
C1763 C1762 1.369 . S
C1763 C1772 1.429 . S
C1764 C1762 1.419 . S
C1764 C1765 1.363 . S
C1764 H1767 0.929 . S
C1765 C1764 1.363 . S
C1765 C1771 1.428 . S
H1766 C1762 0.930 . S
H1767 C1764 0.929 . S
S1768 N1769 1.613 . S
S1768 N1770 1.610 . S
N1769 S1768 1.613 . S
N1769 C1772 1.350 . S
N1770 S1768 1.610 . S
N1770 C1771 1.351 . S
C1771 C1765 1.428 . S
C1771 N1770 1.351 . S
C1771 C1772 1.434 . S
C1772 C1763 1.429 . S
C1772 N1769 1.350 . S
C1772 C1771 1.434 . S
C1773 C1774 1.369 . S
C1773 C1775 1.419 . S
C1773 H1777 0.930 . S
C1774 C1773 1.369 . S
C1774 C1783 1.429 . S
C1775 C1773 1.419 . S
C1775 C1776 1.363 . S
C1775 H1778 0.929 . S
C1776 C1775 1.363 . S
C1776 C1782 1.428 . S
H1777 C1773 0.930 . S
H1778 C1775 0.929 . S
S1779 N1780 1.613 . S
S1779 N1781 1.610 . S
N1780 S1779 1.613 . S
N1780 C1783 1.350 . S
N1781 S1779 1.610 . S
N1781 C1782 1.351 . S
C1782 C1776 1.428 . S
C1782 N1781 1.351 . S
C1782 C1783 1.434 . S
C1783 C1774 1.429 . S
C1783 N1780 1.350 . S
C1783 C1782 1.434 . S
C1784 C1785 1.369 . S
C1784 C1786 1.419 . S
C1784 H1788 0.930 . S
C1785 C1784 1.369 . S
C1785 C1794 1.429 . S
C1786 C1784 1.419 . S
C1786 C1787 1.363 . S
C1786 H1789 0.929 . S
C1787 C1786 1.363 . S
C1787 C1793 1.428 . S
H1788 C1784 0.930 . S
H1789 C1786 0.929 . S
S1790 N1791 1.613 . S
S1790 N1792 1.610 . S
N1791 S1790 1.613 . S
N1791 C1794 1.350 . S
N1792 S1790 1.610 . S
N1792 C1793 1.351 . S
C1793 C1787 1.428 . S
C1793 N1792 1.351 . S
C1793 C1794 1.434 . S
C1794 C1785 1.429 . S
C1794 N1791 1.350 . S
C1794 C1793 1.434 . S
C1795 C1796 1.369 . S
C1795 C1797 1.419 . S
C1795 H1799 0.930 . S
C1796 C1795 1.369 . S
C1796 C1805 1.429 . S
C1797 C1795 1.419 . S
C1797 C1798 1.363 . S
C1797 H1800 0.929 . S
C1798 C1797 1.363 . S
C1798 C1804 1.428 . S
H1799 C1795 0.930 . S
H1800 C1797 0.929 . S
S1801 N1802 1.613 . S
S1801 N1803 1.610 . S
N1802 S1801 1.613 . S
N1802 C1805 1.350 . S
N1803 S1801 1.610 . S
N1803 C1804 1.351 . S
C1804 C1798 1.428 . S
C1804 N1803 1.351 . S
C1804 C1805 1.434 . S
C1805 C1796 1.429 . S
C1805 N1802 1.350 . S
C1805 C1804 1.434 . S
C1806 C1807 1.369 . S
C1806 C1808 1.419 . S
C1806 H1810 0.930 . S
C1807 C1806 1.369 . S
C1807 C1816 1.429 . S
C1808 C1806 1.419 . S
C1808 C1809 1.363 . S
C1808 H1811 0.929 . S
C1809 C1808 1.363 . S
C1809 C1815 1.428 . S
H1810 C1806 0.930 . S
H1811 C1808 0.929 . S
S1812 N1813 1.613 . S
S1812 N1814 1.610 . S
N1813 S1812 1.613 . S
N1813 C1816 1.350 . S
N1814 S1812 1.610 . S
N1814 C1815 1.351 . S
C1815 C1809 1.428 . S
C1815 N1814 1.351 . S
C1815 C1816 1.434 . S
C1816 C1807 1.429 . S
C1816 N1813 1.350 . S
C1816 C1815 1.434 . S
C1817 C1818 1.369 . S
C1817 C1819 1.419 . S
C1817 H1821 0.930 . S
C1818 C1817 1.369 . S
C1818 C1827 1.429 . S
C1819 C1817 1.419 . S
C1819 C1820 1.363 . S
C1819 H1822 0.929 . S
C1820 C1819 1.363 . S
C1820 C1826 1.428 . S
H1821 C1817 0.930 . S
H1822 C1819 0.929 . S
S1823 N1824 1.613 . S
S1823 N1825 1.610 . S
N1824 S1823 1.613 . S
N1824 C1827 1.350 . S
N1825 S1823 1.610 . S
N1825 C1826 1.351 . S
C1826 C1820 1.428 . S
C1826 N1825 1.351 . S
C1826 C1827 1.434 . S
C1827 C1818 1.429 . S
C1827 N1824 1.350 . S
C1827 C1826 1.434 . S
C1828 C1829 1.369 . S
C1828 C1830 1.419 . S
C1828 H1832 0.930 . S
C1829 C1828 1.369 . S
C1829 C1838 1.429 . S
C1830 C1828 1.419 . S
C1830 C1831 1.363 . S
C1830 H1833 0.929 . S
C1831 C1830 1.363 . S
C1831 C1837 1.428 . S
H1832 C1828 0.930 . S
H1833 C1830 0.929 . S
S1834 N1835 1.613 . S
S1834 N1836 1.610 . S
N1835 S1834 1.613 . S
N1835 C1838 1.350 . S
N1836 S1834 1.610 . S
N1836 C1837 1.351 . S
C1837 C1831 1.428 . S
C1837 N1836 1.351 . S
C1837 C1838 1.434 . S
C1838 C1829 1.429 . S
C1838 N1835 1.350 . S
C1838 C1837 1.434 . S
C1839 C1840 1.369 . S
C1839 C1841 1.419 . S
C1839 H1843 0.930 . S
C1840 C1839 1.369 . S
C1840 C1849 1.429 . S
C1841 C1839 1.419 . S
C1841 C1842 1.363 . S
C1841 H1844 0.929 . S
C1842 C1841 1.363 . S
C1842 C1848 1.428 . S
H1843 C1839 0.930 . S
H1844 C1841 0.929 . S
S1845 N1846 1.613 . S
S1845 N1847 1.610 . S
N1846 S1845 1.613 . S
N1846 C1849 1.350 . S
N1847 S1845 1.610 . S
N1847 C1848 1.351 . S
C1848 C1842 1.428 . S
C1848 N1847 1.351 . S
C1848 C1849 1.434 . S
C1849 C1840 1.429 . S
C1849 N1846 1.350 . S
C1849 C1848 1.434 . S
C1850 C1851 1.369 . S
C1850 C1852 1.419 . S
C1850 H1854 0.930 . S
C1851 C1850 1.369 . S
C1851 C1860 1.429 . S
C1852 C1850 1.419 . S
C1852 C1853 1.363 . S
C1852 H1855 0.929 . S
C1853 C1852 1.363 . S
C1853 C1859 1.428 . S
H1854 C1850 0.930 . S
H1855 C1852 0.929 . S
S1856 N1857 1.613 . S
S1856 N1858 1.610 . S
N1857 S1856 1.613 . S
N1857 C1860 1.350 . S
N1858 S1856 1.610 . S
N1858 C1859 1.351 . S
C1859 C1853 1.428 . S
C1859 N1858 1.351 . S
C1859 C1860 1.434 . S
C1860 C1851 1.429 . S
C1860 N1857 1.350 . S
C1860 C1859 1.434 . S
C1861 C1862 1.369 . S
C1861 C1863 1.419 . S
C1861 H1865 0.930 . S
C1862 C1861 1.369 . S
C1862 C1871 1.429 . S
C1863 C1861 1.419 . S
C1863 C1864 1.363 . S
C1863 H1866 0.929 . S
C1864 C1863 1.363 . S
C1864 C1870 1.428 . S
H1865 C1861 0.930 . S
H1866 C1863 0.929 . S
S1867 N1868 1.613 . S
S1867 N1869 1.610 . S
N1868 S1867 1.613 . S
N1868 C1871 1.350 . S
N1869 S1867 1.610 . S
N1869 C1870 1.351 . S
C1870 C1864 1.428 . S
C1870 N1869 1.351 . S
C1870 C1871 1.434 . S
C1871 C1862 1.429 . S
C1871 N1868 1.350 . S
C1871 C1870 1.434 . S
C1872 C1873 1.369 . S
C1872 C1874 1.419 . S
C1872 H1876 0.930 . S
C1873 C1872 1.369 . S
C1873 C1882 1.429 . S
C1874 C1872 1.419 . S
C1874 C1875 1.363 . S
C1874 H1877 0.929 . S
C1875 C1874 1.363 . S
C1875 C1881 1.428 . S
H1876 C1872 0.930 . S
H1877 C1874 0.929 . S
S1878 N1879 1.613 . S
S1878 N1880 1.610 . S
N1879 S1878 1.613 . S
N1879 C1882 1.350 . S
N1880 S1878 1.610 . S
N1880 C1881 1.351 . S
C1881 C1875 1.428 . S
C1881 N1880 1.351 . S
C1881 C1882 1.434 . S
C1882 C1873 1.429 . S
C1882 N1879 1.350 . S
C1882 C1881 1.434 . S
C1883 C1884 1.369 . S
C1883 C1885 1.419 . S
C1883 H1887 0.930 . S
C1884 C1883 1.369 . S
C1884 C1893 1.429 . S
C1885 C1883 1.419 . S
C1885 C1886 1.363 . S
C1885 H1888 0.929 . S
C1886 C1885 1.363 . S
C1886 C1892 1.428 . S
H1887 C1883 0.930 . S
H1888 C1885 0.929 . S
S1889 N1890 1.613 . S
S1889 N1891 1.610 . S
N1890 S1889 1.613 . S
N1890 C1893 1.350 . S
N1891 S1889 1.610 . S
N1891 C1892 1.351 . S
C1892 C1886 1.428 . S
C1892 N1891 1.351 . S
C1892 C1893 1.434 . S
C1893 C1884 1.429 . S
C1893 N1890 1.350 . S
C1893 C1892 1.434 . S
C1894 C1895 1.369 . S
C1894 C1896 1.419 . S
C1894 H1898 0.930 . S
C1895 C1894 1.369 . S
C1895 C1904 1.429 . S
C1896 C1894 1.419 . S
C1896 C1897 1.363 . S
C1896 H1899 0.929 . S
C1897 C1896 1.363 . S
C1897 C1903 1.428 . S
H1898 C1894 0.930 . S
H1899 C1896 0.929 . S
S1900 N1901 1.613 1_545 S
S1900 N1902 1.610 1_545 S
N1901 S1900 1.613 1_565 S
N1901 C1904 1.350 . S
N1902 S1900 1.610 1_565 S
N1902 C1903 1.351 . S
C1903 C1897 1.428 . S
C1903 N1902 1.351 . S
C1903 C1904 1.434 . S
C1904 C1895 1.429 . S
C1904 N1901 1.350 . S
C1904 C1903 1.434 . S
C1905 C1906 1.369 . S
C1905 C1907 1.419 . S
C1905 H1909 0.930 . S
C1906 C1905 1.369 . S
C1906 C1915 1.429 . S
C1907 C1905 1.419 . S
C1907 C1908 1.363 . S
C1907 H1910 0.929 . S
C1908 C1907 1.363 . S
C1908 C1914 1.428 . S
H1909 C1905 0.930 . S
H1910 C1907 0.929 . S
S1911 N1912 1.613 . S
S1911 N1913 1.610 . S
N1912 S1911 1.613 . S
N1912 C1915 1.350 . S
N1913 S1911 1.610 . S
N1913 C1914 1.351 . S
C1914 C1908 1.428 . S
C1914 N1913 1.351 . S
C1914 C1915 1.434 . S
C1915 C1906 1.429 . S
C1915 N1912 1.350 . S
C1915 C1914 1.434 . S
C1916 C1917 1.369 . S
C1916 C1918 1.419 . S
C1916 H1920 0.930 . S
C1917 C1916 1.369 . S
C1917 C1926 1.429 . S
C1918 C1916 1.419 . S
C1918 C1919 1.363 . S
C1918 H1921 0.929 . S
C1919 C1918 1.363 . S
C1919 C1925 1.428 . S
H1920 C1916 0.930 . S
H1921 C1918 0.929 . S
S1922 N1923 1.613 . S
S1922 N1924 1.610 . S
N1923 S1922 1.613 . S
N1923 C1926 1.350 . S
N1924 S1922 1.610 . S
N1924 C1925 1.351 . S
C1925 C1919 1.428 . S
C1925 N1924 1.351 . S
C1925 C1926 1.434 . S
C1926 C1917 1.429 . S
C1926 N1923 1.350 . S
C1926 C1925 1.434 . S
C1927 C1928 1.369 . S
C1927 C1929 1.419 . S
C1927 H1931 0.930 . S
C1928 C1927 1.369 . S
C1928 C1937 1.429 . S
C1929 C1927 1.419 . S
C1929 C1930 1.363 . S
C1929 H1932 0.929 . S
C1930 C1929 1.363 . S
C1930 C1936 1.428 . S
H1931 C1927 0.930 . S
H1932 C1929 0.929 . S
S1933 N1934 1.613 . S
S1933 N1935 1.610 . S
N1934 S1933 1.613 . S
N1934 C1937 1.350 . S
N1935 S1933 1.610 . S
N1935 C1936 1.351 . S
C1936 C1930 1.428 . S
C1936 N1935 1.351 . S
C1936 C1937 1.434 . S
C1937 C1928 1.429 . S
C1937 N1934 1.350 . S
C1937 C1936 1.434 . S
C1938 C1939 1.369 . S
C1938 C1940 1.419 . S
C1938 H1942 0.930 . S
C1939 C1938 1.369 . S
C1939 C1948 1.429 . S
C1940 C1938 1.419 . S
C1940 C1941 1.363 . S
C1940 H1943 0.929 . S
C1941 C1940 1.363 . S
C1941 C1947 1.428 . S
H1942 C1938 0.930 . S
H1943 C1940 0.929 . S
S1944 N1945 1.613 . S
S1944 N1946 1.610 . S
N1945 S1944 1.613 . S
N1945 C1948 1.350 . S
N1946 S1944 1.610 . S
N1946 C1947 1.351 . S
C1947 C1941 1.428 . S
C1947 N1946 1.351 . S
C1947 C1948 1.434 . S
C1948 C1939 1.429 . S
C1948 N1945 1.350 . S
C1948 C1947 1.434 . S
C1949 C1950 1.369 . S
C1949 C1951 1.419 . S
C1949 H1953 0.930 . S
C1950 C1949 1.369 . S
C1950 C1959 1.429 . S
C1951 C1949 1.419 . S
C1951 C1952 1.363 . S
C1951 H1954 0.929 . S
C1952 C1951 1.363 . S
C1952 C1958 1.428 . S
H1953 C1949 0.930 . S
H1954 C1951 0.929 . S
S1955 N1956 1.613 . S
S1955 N1957 1.610 . S
N1956 S1955 1.613 . S
N1956 C1959 1.350 . S
N1957 S1955 1.610 . S
N1957 C1958 1.351 . S
C1958 C1952 1.428 . S
C1958 N1957 1.351 . S
C1958 C1959 1.434 . S
C1959 C1950 1.429 . S
C1959 N1956 1.350 . S
C1959 C1958 1.434 . S
C1960 C1961 1.369 . S
C1960 C1962 1.419 . S
C1960 H1964 0.930 . S
C1961 C1960 1.369 . S
C1961 C1970 1.429 . S
C1962 C1960 1.419 . S
C1962 C1963 1.363 . S
C1962 H1965 0.929 . S
C1963 C1962 1.363 . S
C1963 C1969 1.428 . S
H1964 C1960 0.930 . S
H1965 C1962 0.929 . S
S1966 N1967 1.613 . S
S1966 N1968 1.610 . S
N1967 S1966 1.613 . S
N1967 C1970 1.350 . S
N1968 S1966 1.610 . S
N1968 C1969 1.351 . S
C1969 C1963 1.428 . S
C1969 N1968 1.351 . S
C1969 C1970 1.434 . S
C1970 C1961 1.429 . S
C1970 N1967 1.350 . S
C1970 C1969 1.434 . S
C1971 C1972 1.369 . S
C1971 C1973 1.419 . S
C1971 H1975 0.930 . S
C1972 C1971 1.369 . S
C1972 C1981 1.429 . S
C1973 C1971 1.419 . S
C1973 C1974 1.363 . S
C1973 H1976 0.929 . S
C1974 C1973 1.363 . S
C1974 C1980 1.428 . S
H1975 C1971 0.930 . S
H1976 C1973 0.929 . S
S1977 N1978 1.613 . S
S1977 N1979 1.610 . S
N1978 S1977 1.613 . S
N1978 C1981 1.350 . S
N1979 S1977 1.610 . S
N1979 C1980 1.351 . S
C1980 C1974 1.428 . S
C1980 N1979 1.351 . S
C1980 C1981 1.434 . S
C1981 C1972 1.429 . S
C1981 N1978 1.350 . S
C1981 C1980 1.434 . S
C1982 C1983 1.369 . S
C1982 C1984 1.419 . S
C1982 H1986 0.930 . S
C1983 C1982 1.369 . S
C1983 C1992 1.429 . S
C1984 C1982 1.419 . S
C1984 C1985 1.363 . S
C1984 H1987 0.929 . S
C1985 C1984 1.363 . S
C1985 C1991 1.428 . S
H1986 C1982 0.930 . S
H1987 C1984 0.929 . S
S1988 N1989 1.613 . S
S1988 N1990 1.610 . S
N1989 S1988 1.613 . S
N1989 C1992 1.350 . S
N1990 S1988 1.610 . S
N1990 C1991 1.351 . S
C1991 C1985 1.428 . S
C1991 N1990 1.351 . S
C1991 C1992 1.434 . S
C1992 C1983 1.429 . S
C1992 N1989 1.350 . S
C1992 C1991 1.434 . S
C1993 C1994 1.369 . S
C1993 C1995 1.419 . S
C1993 H1997 0.930 . S
C1994 C1993 1.369 . S
C1994 C2003 1.429 . S
C1995 C1993 1.419 . S
C1995 C1996 1.363 . S
C1995 H1998 0.929 . S
C1996 C1995 1.363 . S
C1996 C2002 1.428 . S
H1997 C1993 0.930 . S
H1998 C1995 0.929 . S
S1999 N2000 1.613 . S
S1999 N2001 1.610 . S
N2000 S1999 1.613 . S
N2000 C2003 1.350 . S
N2001 S1999 1.610 . S
N2001 C2002 1.351 . S
C2002 C1996 1.428 . S
C2002 N2001 1.351 . S
C2002 C2003 1.434 . S
C2003 C1994 1.429 . S
C2003 N2000 1.350 . S
C2003 C2002 1.434 . S
C2004 C2005 1.369 . S
C2004 C2006 1.419 . S
C2004 H2008 0.930 . S
C2005 C2004 1.369 . S
C2005 C2014 1.429 . S
C2006 C2004 1.419 . S
C2006 C2007 1.363 . S
C2006 H2009 0.929 . S
C2007 C2006 1.363 . S
C2007 C2013 1.428 . S
H2008 C2004 0.930 . S
H2009 C2006 0.929 . S
S2010 N2011 1.613 . S
S2010 N2012 1.610 . S
N2011 S2010 1.613 . S
N2011 C2014 1.350 . S
N2012 S2010 1.610 . S
N2012 C2013 1.351 . S
C2013 C2007 1.428 . S
C2013 N2012 1.351 . S
C2013 C2014 1.434 . S
C2014 C2005 1.429 . S
C2014 N2011 1.350 . S
C2014 C2013 1.434 . S
C2015 C2016 1.369 . S
C2015 C2017 1.419 . S
C2015 H2019 0.930 . S
C2016 C2015 1.369 . S
C2016 C2025 1.429 . S
C2017 C2015 1.419 . S
C2017 C2018 1.363 . S
C2017 H2020 0.929 . S
C2018 C2017 1.363 . S
C2018 C2024 1.428 . S
H2019 C2015 0.930 . S
H2020 C2017 0.929 . S
S2021 N2022 1.613 . S
S2021 N2023 1.610 . S
N2022 S2021 1.613 . S
N2022 C2025 1.350 . S
N2023 S2021 1.610 . S
N2023 C2024 1.351 . S
C2024 C2018 1.428 . S
C2024 N2023 1.351 . S
C2024 C2025 1.434 . S
C2025 C2016 1.429 . S
C2025 N2022 1.350 . S
C2025 C2024 1.434 . S
C2026 C2027 1.369 . S
C2026 C2028 1.419 . S
C2026 H2030 0.930 . S
C2027 C2026 1.369 . S
C2027 C2036 1.429 . S
C2028 C2026 1.419 . S
C2028 C2029 1.363 . S
C2028 H2031 0.929 . S
C2029 C2028 1.363 . S
C2029 C2035 1.428 . S
H2030 C2026 0.930 . S
H2031 C2028 0.929 . S
S2032 N2033 1.613 . S
S2032 N2034 1.610 . S
N2033 S2032 1.613 . S
N2033 C2036 1.350 . S
N2034 S2032 1.610 . S
N2034 C2035 1.351 . S
C2035 C2029 1.428 . S
C2035 N2034 1.351 . S
C2035 C2036 1.434 . S
C2036 C2027 1.429 . S
C2036 N2033 1.350 . S
C2036 C2035 1.434 . S
C2037 C2038 1.369 . S
C2037 C2039 1.419 . S
C2037 H2041 0.930 . S
C2038 C2037 1.369 . S
C2038 C2047 1.429 . S
C2039 C2037 1.419 . S
C2039 C2040 1.363 . S
C2039 H2042 0.929 . S
C2040 C2039 1.363 . S
C2040 C2046 1.428 . S
H2041 C2037 0.930 . S
H2042 C2039 0.929 . S
S2043 N2044 1.613 . S
S2043 N2045 1.610 . S
N2044 S2043 1.613 . S
N2044 C2047 1.350 . S
N2045 S2043 1.610 . S
N2045 C2046 1.351 . S
C2046 C2040 1.428 . S
C2046 N2045 1.351 . S
C2046 C2047 1.434 . S
C2047 C2038 1.429 . S
C2047 N2044 1.350 . S
C2047 C2046 1.434 . S
C2048 C2049 1.369 . S
C2048 C2050 1.419 . S
C2048 H2052 0.930 . S
C2049 C2048 1.369 . S
C2049 C2058 1.429 . S
C2050 C2048 1.419 . S
C2050 C2051 1.363 . S
C2050 H2053 0.929 . S
C2051 C2050 1.363 . S
C2051 C2057 1.428 . S
H2052 C2048 0.930 . S
H2053 C2050 0.929 . S
S2054 N2055 1.613 . S
S2054 N2056 1.610 . S
N2055 S2054 1.613 . S
N2055 C2058 1.350 . S
N2056 S2054 1.610 . S
N2056 C2057 1.351 . S
C2057 C2051 1.428 . S
C2057 N2056 1.351 . S
C2057 C2058 1.434 . S
C2058 C2049 1.429 . S
C2058 N2055 1.350 . S
C2058 C2057 1.434 . S
C2059 C2060 1.369 . S
C2059 C2061 1.419 . S
C2059 H2063 0.930 . S
C2060 C2059 1.369 . S
C2060 C2069 1.429 . S
C2061 C2059 1.419 . S
C2061 C2062 1.363 . S
C2061 H2064 0.929 . S
C2062 C2061 1.363 . S
C2062 C2068 1.428 . S
H2063 C2059 0.930 . S
H2064 C2061 0.929 . S
S2065 N2066 1.613 . S
S2065 N2067 1.610 . S
N2066 S2065 1.613 . S
N2066 C2069 1.350 . S
N2067 S2065 1.610 . S
N2067 C2068 1.351 . S
C2068 C2062 1.428 . S
C2068 N2067 1.351 . S
C2068 C2069 1.434 . S
C2069 C2060 1.429 . S
C2069 N2066 1.350 . S
C2069 C2068 1.434 . S
C2070 C2071 1.369 . S
C2070 C2072 1.419 . S
C2070 H2074 0.930 . S
C2071 C2070 1.369 . S
C2071 C2080 1.429 . S
C2072 C2070 1.419 . S
C2072 C2073 1.363 . S
C2072 H2075 0.929 . S
C2073 C2072 1.363 . S
C2073 C2079 1.428 . S
H2074 C2070 0.930 . S
H2075 C2072 0.929 . S
S2076 N2077 1.613 . S
S2076 N2078 1.610 . S
N2077 S2076 1.613 . S
N2077 C2080 1.350 . S
N2078 S2076 1.610 . S
N2078 C2079 1.351 . S
C2079 C2073 1.428 . S
C2079 N2078 1.351 . S
C2079 C2080 1.434 . S
C2080 C2071 1.429 . S
C2080 N2077 1.350 . S
C2080 C2079 1.434 . S
C2081 C2082 1.369 . S
C2081 C2083 1.419 . S
C2081 H2085 0.930 . S
C2082 C2081 1.369 . S
C2082 C2091 1.429 . S
C2083 C2081 1.419 . S
C2083 C2084 1.363 . S
C2083 H2086 0.929 . S
C2084 C2083 1.363 . S
C2084 C2090 1.428 . S
H2085 C2081 0.930 . S
H2086 C2083 0.929 . S
S2087 N2088 1.613 . S
S2087 N2089 1.610 . S
N2088 S2087 1.613 . S
N2088 C2091 1.350 . S
N2089 S2087 1.610 . S
N2089 C2090 1.351 . S
C2090 C2084 1.428 . S
C2090 N2089 1.351 . S
C2090 C2091 1.434 . S
C2091 C2082 1.429 . S
C2091 N2088 1.350 . S
C2091 C2090 1.434 . S
C2092 C2093 1.369 . S
C2092 C2094 1.419 . S
C2092 H2096 0.930 . S
C2093 C2092 1.369 . S
C2093 C2102 1.429 . S
C2094 C2092 1.419 . S
C2094 C2095 1.363 . S
C2094 H2097 0.929 . S
C2095 C2094 1.363 . S
C2095 C2101 1.428 . S
H2096 C2092 0.930 . S
H2097 C2094 0.929 . S
S2098 N2099 1.613 . S
S2098 N2100 1.610 . S
N2099 S2098 1.613 . S
N2099 C2102 1.350 . S
N2100 S2098 1.610 . S
N2100 C2101 1.351 . S
C2101 C2095 1.428 . S
C2101 N2100 1.351 . S
C2101 C2102 1.434 . S
C2102 C2093 1.429 . S
C2102 N2099 1.350 . S
C2102 C2101 1.434 . S
C2103 C2104 1.369 . S
C2103 C2105 1.419 . S
C2103 H2107 0.930 . S
C2104 C2103 1.369 . S
C2104 C2113 1.429 . S
C2105 C2103 1.419 . S
C2105 C2106 1.363 . S
C2105 H2108 0.929 . S
C2106 C2105 1.363 . S
C2106 C2112 1.428 . S
H2107 C2103 0.930 . S
H2108 C2105 0.929 . S
S2109 N2110 1.613 1_455 S
S2109 N2111 1.610 1_455 S
N2110 S2109 1.613 1_655 S
N2110 C2113 1.350 . S
N2111 S2109 1.610 1_655 S
N2111 C2112 1.351 . S
C2112 C2106 1.428 . S
C2112 N2111 1.351 . S
C2112 C2113 1.434 . S
C2113 C2104 1.429 . S
C2113 N2110 1.350 . S
C2113 C2112 1.434 . S
C2114 C2115 1.369 . S
C2114 C2116 1.419 . S
C2114 H2118 0.930 . S
C2115 C2114 1.369 . S
C2115 C2124 1.429 . S
C2116 C2114 1.419 . S
C2116 C2117 1.363 . S
C2116 H2119 0.929 . S
C2117 C2116 1.363 . S
C2117 C2123 1.428 . S
H2118 C2114 0.930 . S
H2119 C2116 0.929 . S
S2120 N2121 1.613 . S
S2120 N2122 1.610 . S
N2121 S2120 1.613 . S
N2121 C2124 1.350 . S
N2122 S2120 1.610 . S
N2122 C2123 1.351 . S
C2123 C2117 1.428 . S
C2123 N2122 1.351 . S
C2123 C2124 1.434 . S
C2124 C2115 1.429 . S
C2124 N2121 1.350 . S
C2124 C2123 1.434 . S
C2125 C2126 1.369 . S
C2125 C2127 1.419 . S
C2125 H2129 0.930 . S
C2126 C2125 1.369 . S
C2126 C2135 1.429 . S
C2127 C2125 1.419 . S
C2127 C2128 1.363 . S
C2127 H2130 0.929 . S
C2128 C2127 1.363 . S
C2128 C2134 1.428 . S
H2129 C2125 0.930 . S
H2130 C2127 0.929 . S
S2131 N2132 1.613 . S
S2131 N2133 1.610 . S
N2132 S2131 1.613 . S
N2132 C2135 1.350 . S
N2133 S2131 1.610 . S
N2133 C2134 1.351 . S
C2134 C2128 1.428 . S
C2134 N2133 1.351 . S
C2134 C2135 1.434 . S
C2135 C2126 1.429 . S
C2135 N2132 1.350 . S
C2135 C2134 1.434 . S
C2136 C2137 1.369 . S
C2136 C2138 1.419 . S
C2136 H2140 0.930 . S
C2137 C2136 1.369 . S
C2137 C2146 1.429 . S
C2138 C2136 1.419 . S
C2138 C2139 1.363 . S
C2138 H2141 0.929 . S
C2139 C2138 1.363 . S
C2139 C2145 1.428 . S
H2140 C2136 0.930 . S
H2141 C2138 0.929 . S
S2142 N2143 1.613 . S
S2142 N2144 1.610 . S
N2143 S2142 1.613 . S
N2143 C2146 1.350 . S
N2144 S2142 1.610 . S
N2144 C2145 1.351 . S
C2145 C2139 1.428 . S
C2145 N2144 1.351 . S
C2145 C2146 1.434 . S
C2146 C2137 1.429 . S
C2146 N2143 1.350 . S
C2146 C2145 1.434 . S
C2147 C2148 1.369 . S
C2147 C2149 1.419 . S
C2147 H2151 0.930 . S
C2148 C2147 1.369 . S
C2148 C2157 1.429 . S
C2149 C2147 1.419 . S
C2149 C2150 1.363 . S
C2149 H2152 0.929 . S
C2150 C2149 1.363 . S
C2150 C2156 1.428 . S
H2151 C2147 0.930 . S
H2152 C2149 0.929 . S
S2153 N2154 1.613 . S
S2153 N2155 1.610 . S
N2154 S2153 1.613 . S
N2154 C2157 1.350 . S
N2155 S2153 1.610 . S
N2155 C2156 1.351 . S
C2156 C2150 1.428 . S
C2156 N2155 1.351 . S
C2156 C2157 1.434 . S
C2157 C2148 1.429 . S
C2157 N2154 1.350 . S
C2157 C2156 1.434 . S
C2158 C2159 1.369 . S
C2158 C2160 1.419 . S
C2158 H2162 0.930 . S
C2159 C2158 1.369 . S
C2159 C2168 1.429 . S
C2160 C2158 1.419 . S
C2160 C2161 1.363 . S
C2160 H2163 0.929 . S
C2161 C2160 1.363 . S
C2161 C2167 1.428 . S
H2162 C2158 0.930 . S
H2163 C2160 0.929 . S
S2164 N2165 1.613 . S
S2164 N2166 1.610 . S
N2165 S2164 1.613 . S
N2165 C2168 1.350 . S
N2166 S2164 1.610 . S
N2166 C2167 1.351 . S
C2167 C2161 1.428 . S
C2167 N2166 1.351 . S
C2167 C2168 1.434 . S
C2168 C2159 1.429 . S
C2168 N2165 1.350 . S
C2168 C2167 1.434 . S
C2169 C2170 1.369 . S
C2169 C2171 1.419 . S
C2169 H2173 0.930 . S
C2170 C2169 1.369 . S
C2170 C2179 1.429 . S
C2171 C2169 1.419 . S
C2171 C2172 1.363 . S
C2171 H2174 0.929 . S
C2172 C2171 1.363 . S
C2172 C2178 1.428 . S
H2173 C2169 0.930 . S
H2174 C2171 0.929 . S
S2175 N2176 1.613 . S
S2175 N2177 1.610 . S
N2176 S2175 1.613 . S
N2176 C2179 1.350 . S
N2177 S2175 1.610 . S
N2177 C2178 1.351 . S
C2178 C2172 1.428 . S
C2178 N2177 1.351 . S
C2178 C2179 1.434 . S
C2179 C2170 1.429 . S
C2179 N2176 1.350 . S
C2179 C2178 1.434 . S
C2180 C2181 1.369 . S
C2180 C2182 1.419 . S
C2180 H2184 0.930 . S
C2181 C2180 1.369 . S
C2181 C2190 1.429 . S
C2182 C2180 1.419 . S
C2182 C2183 1.363 . S
C2182 H2185 0.929 . S
C2183 C2182 1.363 . S
C2183 C2189 1.428 . S
H2184 C2180 0.930 . S
H2185 C2182 0.929 . S
S2186 N2187 1.613 . S
S2186 N2188 1.610 . S
N2187 S2186 1.613 . S
N2187 C2190 1.350 . S
N2188 S2186 1.610 . S
N2188 C2189 1.351 . S
C2189 C2183 1.428 . S
C2189 N2188 1.351 . S
C2189 C2190 1.434 . S
C2190 C2181 1.429 . S
C2190 N2187 1.350 . S
C2190 C2189 1.434 . S
C2191 C2192 1.369 . S
C2191 C2193 1.419 . S
C2191 H2195 0.930 . S
C2192 C2191 1.369 . S
C2192 C2201 1.429 . S
C2193 C2191 1.419 . S
C2193 C2194 1.363 . S
C2193 H2196 0.929 . S
C2194 C2193 1.363 . S
C2194 C2200 1.428 . S
H2195 C2191 0.930 . S
H2196 C2193 0.929 . S
S2197 N2198 1.613 . S
S2197 N2199 1.610 . S
N2198 S2197 1.613 . S
N2198 C2201 1.350 . S
N2199 S2197 1.610 . S
N2199 C2200 1.351 . S
C2200 C2194 1.428 . S
C2200 N2199 1.351 . S
C2200 C2201 1.434 . S
C2201 C2192 1.429 . S
C2201 N2198 1.350 . S
C2201 C2200 1.434 . S
C2202 C2203 1.369 . S
C2202 C2204 1.419 . S
C2202 H2206 0.930 . S
C2203 C2202 1.369 . S
C2203 C2212 1.429 . S
C2204 C2202 1.419 . S
C2204 C2205 1.363 . S
C2204 H2207 0.929 . S
C2205 C2204 1.363 . S
C2205 C2211 1.428 . S
H2206 C2202 0.930 . S
H2207 C2204 0.929 . S
S2208 N2209 1.613 . S
S2208 N2210 1.610 . S
N2209 S2208 1.613 . S
N2209 C2212 1.350 . S
N2210 S2208 1.610 . S
N2210 C2211 1.351 . S
C2211 C2205 1.428 . S
C2211 N2210 1.351 . S
C2211 C2212 1.434 . S
C2212 C2203 1.429 . S
C2212 N2209 1.350 . S
C2212 C2211 1.434 . S
C2213 C2214 1.369 . S
C2213 C2215 1.419 . S
C2213 H2217 0.930 . S
C2214 C2213 1.369 . S
C2214 C2223 1.429 . S
C2215 C2213 1.419 . S
C2215 C2216 1.363 . S
C2215 H2218 0.929 . S
C2216 C2215 1.363 . S
C2216 C2222 1.428 . S
H2217 C2213 0.930 . S
H2218 C2215 0.929 . S
S2219 N2220 1.613 . S
S2219 N2221 1.610 . S
N2220 S2219 1.613 . S
N2220 C2223 1.350 . S
N2221 S2219 1.610 . S
N2221 C2222 1.351 . S
C2222 C2216 1.428 . S
C2222 N2221 1.351 . S
C2222 C2223 1.434 . S
C2223 C2214 1.429 . S
C2223 N2220 1.350 . S
C2223 C2222 1.434 . S
C2224 C2225 1.369 . S
C2224 C2226 1.419 . S
C2224 H2228 0.930 . S
C2225 C2224 1.369 . S
C2225 C2234 1.429 . S
C2226 C2224 1.419 . S
C2226 C2227 1.363 . S
C2226 H2229 0.929 . S
C2227 C2226 1.363 . S
C2227 C2233 1.428 . S
H2228 C2224 0.930 . S
H2229 C2226 0.929 . S
S2230 N2231 1.613 . S
S2230 N2232 1.610 . S
N2231 S2230 1.613 . S
N2231 C2234 1.350 . S
N2232 S2230 1.610 . S
N2232 C2233 1.351 . S
C2233 C2227 1.428 . S
C2233 N2232 1.351 . S
C2233 C2234 1.434 . S
C2234 C2225 1.429 . S
C2234 N2231 1.350 . S
C2234 C2233 1.434 . S
C2235 C2236 1.369 . S
C2235 C2237 1.419 . S
C2235 H2239 0.930 . S
C2236 C2235 1.369 . S
C2236 C2245 1.429 . S
C2237 C2235 1.419 . S
C2237 C2238 1.363 . S
C2237 H2240 0.929 . S
C2238 C2237 1.363 . S
C2238 C2244 1.428 . S
H2239 C2235 0.930 . S
H2240 C2237 0.929 . S
S2241 N2242 1.613 . S
S2241 N2243 1.610 . S
N2242 S2241 1.613 . S
N2242 C2245 1.350 . S
N2243 S2241 1.610 . S
N2243 C2244 1.351 . S
C2244 C2238 1.428 . S
C2244 N2243 1.351 . S
C2244 C2245 1.434 . S
C2245 C2236 1.429 . S
C2245 N2242 1.350 . S
C2245 C2244 1.434 . S
C2246 C2247 1.369 . S
C2246 C2248 1.419 . S
C2246 H2250 0.930 . S
C2247 C2246 1.369 . S
C2247 C2256 1.429 . S
C2248 C2246 1.419 . S
C2248 C2249 1.363 . S
C2248 H2251 0.929 . S
C2249 C2248 1.363 . S
C2249 C2255 1.428 . S
H2250 C2246 0.930 . S
H2251 C2248 0.929 . S
S2252 N2253 1.613 . S
S2252 N2254 1.610 . S
N2253 S2252 1.613 . S
N2253 C2256 1.350 . S
N2254 S2252 1.610 . S
N2254 C2255 1.351 . S
C2255 C2249 1.428 . S
C2255 N2254 1.351 . S
C2255 C2256 1.434 . S
C2256 C2247 1.429 . S
C2256 N2253 1.350 . S
C2256 C2255 1.434 . S
C2257 C2258 1.369 . S
C2257 C2259 1.419 . S
C2257 H2261 0.930 . S
C2258 C2257 1.369 . S
C2258 C2267 1.429 . S
C2259 C2257 1.419 . S
C2259 C2260 1.363 . S
C2259 H2262 0.929 . S
C2260 C2259 1.363 . S
C2260 C2266 1.428 . S
H2261 C2257 0.930 . S
H2262 C2259 0.929 . S
S2263 N2264 1.613 . S
S2263 N2265 1.610 . S
N2264 S2263 1.613 . S
N2264 C2267 1.350 . S
N2265 S2263 1.610 . S
N2265 C2266 1.351 . S
C2266 C2260 1.428 . S
C2266 N2265 1.351 . S
C2266 C2267 1.434 . S
C2267 C2258 1.429 . S
C2267 N2264 1.350 . S
C2267 C2266 1.434 . S
C2268 C2269 1.369 . S
C2268 C2270 1.419 . S
C2268 H2272 0.930 . S
C2269 C2268 1.369 . S
C2269 C2278 1.429 . S
C2270 C2268 1.419 . S
C2270 C2271 1.363 . S
C2270 H2273 0.929 . S
C2271 C2270 1.363 . S
C2271 C2277 1.428 . S
H2272 C2268 0.930 . S
H2273 C2270 0.929 . S
S2274 N2275 1.613 . S
S2274 N2276 1.610 . S
N2275 S2274 1.613 . S
N2275 C2278 1.350 . S
N2276 S2274 1.610 . S
N2276 C2277 1.351 . S
C2277 C2271 1.428 . S
C2277 N2276 1.351 . S
C2277 C2278 1.434 . S
C2278 C2269 1.429 . S
C2278 N2275 1.350 . S
C2278 C2277 1.434 . S
C2279 C2280 1.369 . S
C2279 C2281 1.419 . S
C2279 H2283 0.930 . S
C2280 C2279 1.369 . S
C2280 C2289 1.429 . S
C2281 C2279 1.419 . S
C2281 C2282 1.363 . S
C2281 H2284 0.929 . S
C2282 C2281 1.363 . S
C2282 C2288 1.428 . S
H2283 C2279 0.930 . S
H2284 C2281 0.929 . S
S2285 N2286 1.613 . S
S2285 N2287 1.610 . S
N2286 S2285 1.613 . S
N2286 C2289 1.350 . S
N2287 S2285 1.610 . S
N2287 C2288 1.351 . S
C2288 C2282 1.428 . S
C2288 N2287 1.351 . S
C2288 C2289 1.434 . S
C2289 C2280 1.429 . S
C2289 N2286 1.350 . S
C2289 C2288 1.434 . S
C2290 C2291 1.369 . S
C2290 C2292 1.419 . S
C2290 H2294 0.930 . S
C2291 C2290 1.369 . S
C2291 C2300 1.429 . S
C2292 C2290 1.419 . S
C2292 C2293 1.363 . S
C2292 H2295 0.929 . S
C2293 C2292 1.363 . S
C2293 C2299 1.428 . S
H2294 C2290 0.930 . S
H2295 C2292 0.929 . S
S2296 N2297 1.613 . S
S2296 N2298 1.610 . S
N2297 S2296 1.613 . S
N2297 C2300 1.350 . S
N2298 S2296 1.610 . S
N2298 C2299 1.351 . S
C2299 C2293 1.428 . S
C2299 N2298 1.351 . S
C2299 C2300 1.434 . S
C2300 C2291 1.429 . S
C2300 N2297 1.350 . S
C2300 C2299 1.434 . S
C2301 C2302 1.369 . S
C2301 C2303 1.419 . S
C2301 H2305 0.930 . S
C2302 C2301 1.369 . S
C2302 C2311 1.429 . S
C2303 C2301 1.419 . S
C2303 C2304 1.363 . S
C2303 H2306 0.929 . S
C2304 C2303 1.363 . S
C2304 C2310 1.428 . S
H2305 C2301 0.930 . S
H2306 C2303 0.929 . S
S2307 N2308 1.613 . S
S2307 N2309 1.610 . S
N2308 S2307 1.613 . S
N2308 C2311 1.350 . S
N2309 S2307 1.610 . S
N2309 C2310 1.351 . S
C2310 C2304 1.428 . S
C2310 N2309 1.351 . S
C2310 C2311 1.434 . S
C2311 C2302 1.429 . S
C2311 N2308 1.350 . S
C2311 C2310 1.434 . S
C2312 C2313 1.369 . S
C2312 C2314 1.419 . S
C2312 H2316 0.930 . S
C2313 C2312 1.369 . S
C2313 C2322 1.429 . S
C2314 C2312 1.419 . S
C2314 C2315 1.363 . S
C2314 H2317 0.929 . S
C2315 C2314 1.363 . S
C2315 C2321 1.428 . S
H2316 C2312 0.930 . S
H2317 C2314 0.929 . S
S2318 N2319 1.613 . S
S2318 N2320 1.610 . S
N2319 S2318 1.613 . S
N2319 C2322 1.350 . S
N2320 S2318 1.610 . S
N2320 C2321 1.351 . S
C2321 C2315 1.428 . S
C2321 N2320 1.351 . S
C2321 C2322 1.434 . S
C2322 C2313 1.429 . S
C2322 N2319 1.350 . S
C2322 C2321 1.434 . S
C2323 C2324 1.369 . S
C2323 C2325 1.419 . S
C2323 H2327 0.930 . S
C2324 C2323 1.369 . S
C2324 C2333 1.429 . S
C2325 C2323 1.419 . S
C2325 C2326 1.363 . S
C2325 H2328 0.929 . S
C2326 C2325 1.363 . S
C2326 C2332 1.428 . S
H2327 C2323 0.930 . S
H2328 C2325 0.929 . S
S2329 N2330 1.613 . S
S2329 N2331 1.610 . S
N2330 S2329 1.613 . S
N2330 C2333 1.350 . S
N2331 S2329 1.610 . S
N2331 C2332 1.351 . S
C2332 C2326 1.428 . S
C2332 N2331 1.351 . S
C2332 C2333 1.434 . S
C2333 C2324 1.429 . S
C2333 N2330 1.350 . S
C2333 C2332 1.434 . S
C2334 C2335 1.369 . S
C2334 C2336 1.419 . S
C2334 H2338 0.930 . S
C2335 C2334 1.369 . S
C2335 C2344 1.429 . S
C2336 C2334 1.419 . S
C2336 C2337 1.363 . S
C2336 H2339 0.929 . S
C2337 C2336 1.363 . S
C2337 C2343 1.428 . S
H2338 C2334 0.930 . S
H2339 C2336 0.929 . S
S2340 N2341 1.613 . S
S2340 N2342 1.610 . S
N2341 S2340 1.613 . S
N2341 C2344 1.350 . S
N2342 S2340 1.610 . S
N2342 C2343 1.351 . S
C2343 C2337 1.428 . S
C2343 N2342 1.351 . S
C2343 C2344 1.434 . S
C2344 C2335 1.429 . S
C2344 N2341 1.350 . S
C2344 C2343 1.434 . S
C2345 C2346 1.369 . S
C2345 C2347 1.419 . S
C2345 H2349 0.930 . S
C2346 C2345 1.369 . S
C2346 C2355 1.429 . S
C2347 C2345 1.419 . S
C2347 C2348 1.363 . S
C2347 H2350 0.929 . S
C2348 C2347 1.363 . S
C2348 C2354 1.428 . S
H2349 C2345 0.930 . S
H2350 C2347 0.929 . S
S2351 N2352 1.613 . S
S2351 N2353 1.610 . S
N2352 S2351 1.613 . S
N2352 C2355 1.350 . S
N2353 S2351 1.610 . S
N2353 C2354 1.351 . S
C2354 C2348 1.428 . S
C2354 N2353 1.351 . S
C2354 C2355 1.434 . S
C2355 C2346 1.429 . S
C2355 N2352 1.350 . S
C2355 C2354 1.434 . S
C2356 C2357 1.369 . S
C2356 C2358 1.419 . S
C2356 H2360 0.930 . S
C2357 C2356 1.369 . S
C2357 C2366 1.429 . S
C2358 C2356 1.419 . S
C2358 C2359 1.363 . S
C2358 H2361 0.929 . S
C2359 C2358 1.363 . S
C2359 C2365 1.428 . S
H2360 C2356 0.930 . S
H2361 C2358 0.929 . S
S2362 N2363 1.613 . S
S2362 N2364 1.610 . S
N2363 S2362 1.613 . S
N2363 C2366 1.350 . S
N2364 S2362 1.610 . S
N2364 C2365 1.351 . S
C2365 C2359 1.428 . S
C2365 N2364 1.351 . S
C2365 C2366 1.434 . S
C2366 C2357 1.429 . S
C2366 N2363 1.350 . S
C2366 C2365 1.434 . S
C2367 C2368 1.369 . S
C2367 C2369 1.419 . S
C2367 H2371 0.930 . S
C2368 C2367 1.369 . S
C2368 C2377 1.429 . S
C2369 C2367 1.419 . S
C2369 C2370 1.363 . S
C2369 H2372 0.929 . S
C2370 C2369 1.363 . S
C2370 C2376 1.428 . S
H2371 C2367 0.930 . S
H2372 C2369 0.929 . S
S2373 N2374 1.613 . S
S2373 N2375 1.610 . S
N2374 S2373 1.613 . S
N2374 C2377 1.350 . S
N2375 S2373 1.610 . S
N2375 C2376 1.351 . S
C2376 C2370 1.428 . S
C2376 N2375 1.351 . S
C2376 C2377 1.434 . S
C2377 C2368 1.429 . S
C2377 N2374 1.350 . S
C2377 C2376 1.434 . S
C2378 C2379 1.369 . S
C2378 C2380 1.419 . S
C2378 H2382 0.930 . S
C2379 C2378 1.369 . S
C2379 C2388 1.429 . S
C2380 C2378 1.419 . S
C2380 C2381 1.363 . S
C2380 H2383 0.929 . S
C2381 C2380 1.363 . S
C2381 C2387 1.428 . S
H2382 C2378 0.930 . S
H2383 C2380 0.929 . S
S2384 N2385 1.613 . S
S2384 N2386 1.610 . S
N2385 S2384 1.613 . S
N2385 C2388 1.350 . S
N2386 S2384 1.610 . S
N2386 C2387 1.351 . S
C2387 C2381 1.428 . S
C2387 N2386 1.351 . S
C2387 C2388 1.434 . S
C2388 C2379 1.429 . S
C2388 N2385 1.350 . S
C2388 C2387 1.434 . S
C2389 C2390 1.369 . S
C2389 C2391 1.419 . S
C2389 H2393 0.930 . S
C2390 C2389 1.369 . S
C2390 C2399 1.429 . S
C2391 C2389 1.419 . S
C2391 C2392 1.363 . S
C2391 H2394 0.929 . S
C2392 C2391 1.363 . S
C2392 C2398 1.428 . S
H2393 C2389 0.930 . S
H2394 C2391 0.929 . S
S2395 N2396 1.613 . S
S2395 N2397 1.610 . S
N2396 S2395 1.613 . S
N2396 C2399 1.350 . S
N2397 S2395 1.610 . S
N2397 C2398 1.351 . S
C2398 C2392 1.428 . S
C2398 N2397 1.351 . S
C2398 C2399 1.434 . S
C2399 C2390 1.429 . S
C2399 N2396 1.350 . S
C2399 C2398 1.434 . S
C2400 C2401 1.369 . S
C2400 C2402 1.419 . S
C2400 H2404 0.930 . S
C2401 C2400 1.369 . S
C2401 C2410 1.429 . S
C2402 C2400 1.419 . S
C2402 C2403 1.363 . S
C2402 H2405 0.929 . S
C2403 C2402 1.363 . S
C2403 C2409 1.428 . S
H2404 C2400 0.930 . S
H2405 C2402 0.929 . S
S2406 N2407 1.613 . S
S2406 N2408 1.610 . S
N2407 S2406 1.613 . S
N2407 C2410 1.350 . S
N2408 S2406 1.610 . S
N2408 C2409 1.351 . S
C2409 C2403 1.428 . S
C2409 N2408 1.351 . S
C2409 C2410 1.434 . S
C2410 C2401 1.429 . S
C2410 N2407 1.350 . S
C2410 C2409 1.434 . S
C2411 C2412 1.369 . S
C2411 C2413 1.419 . S
C2411 H2415 0.930 . S
C2412 C2411 1.369 . S
C2412 C2421 1.429 . S
C2413 C2411 1.419 . S
C2413 C2414 1.363 . S
C2413 H2416 0.929 . S
C2414 C2413 1.363 . S
C2414 C2420 1.428 . S
H2415 C2411 0.930 . S
H2416 C2413 0.929 . S
S2417 N2418 1.613 . S
S2417 N2419 1.610 . S
N2418 S2417 1.613 . S
N2418 C2421 1.350 . S
N2419 S2417 1.610 . S
N2419 C2420 1.351 . S
C2420 C2414 1.428 . S
C2420 N2419 1.351 . S
C2420 C2421 1.434 . S
C2421 C2412 1.429 . S
C2421 N2418 1.350 . S
C2421 C2420 1.434 . S
C2422 C2423 1.369 . S
C2422 C2424 1.419 . S
C2422 H2426 0.930 . S
C2423 C2422 1.369 . S
C2423 C2432 1.429 . S
C2424 C2422 1.419 . S
C2424 C2425 1.363 . S
C2424 H2427 0.929 . S
C2425 C2424 1.363 . S
C2425 C2431 1.428 . S
H2426 C2422 0.930 . S
H2427 C2424 0.929 . S
S2428 N2429 1.613 . S
S2428 N2430 1.610 . S
N2429 S2428 1.613 . S
N2429 C2432 1.350 . S
N2430 S2428 1.610 . S
N2430 C2431 1.351 . S
C2431 C2425 1.428 . S
C2431 N2430 1.351 . S
C2431 C2432 1.434 . S
C2432 C2423 1.429 . S
C2432 N2429 1.350 . S
C2432 C2431 1.434 . S
C2433 C2434 1.369 . S
C2433 C2435 1.419 . S
C2433 H2437 0.930 . S
C2434 C2433 1.369 . S
C2434 C2443 1.429 . S
C2435 C2433 1.419 . S
C2435 C2436 1.363 . S
C2435 H2438 0.929 . S
C2436 C2435 1.363 . S
C2436 C2442 1.428 . S
H2437 C2433 0.930 . S
H2438 C2435 0.929 . S
S2439 N2440 1.613 . S
S2439 N2441 1.610 . S
N2440 S2439 1.613 . S
N2440 C2443 1.350 . S
N2441 S2439 1.610 . S
N2441 C2442 1.351 . S
C2442 C2436 1.428 . S
C2442 N2441 1.351 . S
C2442 C2443 1.434 . S
C2443 C2434 1.429 . S
C2443 N2440 1.350 . S
C2443 C2442 1.434 . S
C2444 C2445 1.369 . S
C2444 C2446 1.419 . S
C2444 H2448 0.930 . S
C2445 C2444 1.369 . S
C2445 C2454 1.429 . S
C2446 C2444 1.419 . S
C2446 C2447 1.363 . S
C2446 H2449 0.929 . S
C2447 C2446 1.363 . S
C2447 C2453 1.428 . S
H2448 C2444 0.930 . S
H2449 C2446 0.929 . S
S2450 N2451 1.613 . S
S2450 N2452 1.610 . S
N2451 S2450 1.613 . S
N2451 C2454 1.350 . S
N2452 S2450 1.610 . S
N2452 C2453 1.351 . S
C2453 C2447 1.428 . S
C2453 N2452 1.351 . S
C2453 C2454 1.434 . S
C2454 C2445 1.429 . S
C2454 N2451 1.350 . S
C2454 C2453 1.434 . S
C2455 C2456 1.369 . S
C2455 C2457 1.419 . S
C2455 H2459 0.930 . S
C2456 C2455 1.369 . S
C2456 C2465 1.429 . S
C2457 C2455 1.419 . S
C2457 C2458 1.363 . S
C2457 H2460 0.929 . S
C2458 C2457 1.363 . S
C2458 C2464 1.428 . S
H2459 C2455 0.930 . S
H2460 C2457 0.929 . S
S2461 N2462 1.613 . S
S2461 N2463 1.610 . S
N2462 S2461 1.613 . S
N2462 C2465 1.350 . S
N2463 S2461 1.610 . S
N2463 C2464 1.351 . S
C2464 C2458 1.428 . S
C2464 N2463 1.351 . S
C2464 C2465 1.434 . S
C2465 C2456 1.429 . S
C2465 N2462 1.350 . S
C2465 C2464 1.434 . S
C2466 C2467 1.369 . S
C2466 C2468 1.419 . S
C2466 H2470 0.930 . S
C2467 C2466 1.369 . S
C2467 C2476 1.429 . S
C2468 C2466 1.419 . S
C2468 C2469 1.363 . S
C2468 H2471 0.929 . S
C2469 C2468 1.363 . S
C2469 C2475 1.428 . S
H2470 C2466 0.930 . S
H2471 C2468 0.929 . S
S2472 N2473 1.613 . S
S2472 N2474 1.610 . S
N2473 S2472 1.613 . S
N2473 C2476 1.350 . S
N2474 S2472 1.610 . S
N2474 C2475 1.351 . S
C2475 C2469 1.428 . S
C2475 N2474 1.351 . S
C2475 C2476 1.434 . S
C2476 C2467 1.429 . S
C2476 N2473 1.350 . S
C2476 C2475 1.434 . S
C2477 C2478 1.369 . S
C2477 C2479 1.419 . S
C2477 H2481 0.930 . S
C2478 C2477 1.369 . S
C2478 C2487 1.429 . S
C2479 C2477 1.419 . S
C2479 C2480 1.363 . S
C2479 H2482 0.929 . S
C2480 C2479 1.363 . S
C2480 C2486 1.428 . S
H2481 C2477 0.930 . S
H2482 C2479 0.929 . S
S2483 N2484 1.613 . S
S2483 N2485 1.610 . S
N2484 S2483 1.613 . S
N2484 C2487 1.350 . S
N2485 S2483 1.610 . S
N2485 C2486 1.351 . S
C2486 C2480 1.428 . S
C2486 N2485 1.351 . S
C2486 C2487 1.434 . S
C2487 C2478 1.429 . S
C2487 N2484 1.350 . S
C2487 C2486 1.434 . S
C2488 C2489 1.369 . S
C2488 C2490 1.419 . S
C2488 H2492 0.930 . S
C2489 C2488 1.369 . S
C2489 C2498 1.429 . S
C2490 C2488 1.419 . S
C2490 C2491 1.363 . S
C2490 H2493 0.929 . S
C2491 C2490 1.363 . S
C2491 C2497 1.428 . S
H2492 C2488 0.930 . S
H2493 C2490 0.929 . S
S2494 N2495 1.613 . S
S2494 N2496 1.610 . S
N2495 S2494 1.613 . S
N2495 C2498 1.350 . S
N2496 S2494 1.610 . S
N2496 C2497 1.351 . S
C2497 C2491 1.428 . S
C2497 N2496 1.351 . S
C2497 C2498 1.434 . S
C2498 C2489 1.429 . S
C2498 N2495 1.350 . S
C2498 C2497 1.434 . S
C2499 C2500 1.369 . S
C2499 C2501 1.419 . S
C2499 H2503 0.930 . S
C2500 C2499 1.369 . S
C2500 C2509 1.429 . S
C2501 C2499 1.419 . S
C2501 C2502 1.363 . S
C2501 H2504 0.929 . S
C2502 C2501 1.363 . S
C2502 C2508 1.428 . S
H2503 C2499 0.930 . S
H2504 C2501 0.929 . S
S2505 N2506 1.613 . S
S2505 N2507 1.610 . S
N2506 S2505 1.613 . S
N2506 C2509 1.350 . S
N2507 S2505 1.610 . S
N2507 C2508 1.351 . S
C2508 C2502 1.428 . S
C2508 N2507 1.351 . S
C2508 C2509 1.434 . S
C2509 C2500 1.429 . S
C2509 N2506 1.350 . S
C2509 C2508 1.434 . S
C2510 C2511 1.369 . S
C2510 C2512 1.419 . S
C2510 H2514 0.930 . S
C2511 C2510 1.369 . S
C2511 C2520 1.429 . S
C2512 C2510 1.419 . S
C2512 C2513 1.363 . S
C2512 H2515 0.929 . S
C2513 C2512 1.363 . S
C2513 C2519 1.428 . S
H2514 C2510 0.930 . S
H2515 C2512 0.929 . S
S2516 N2517 1.613 . S
S2516 N2518 1.610 . S
N2517 S2516 1.613 . S
N2517 C2520 1.350 . S
N2518 S2516 1.610 . S
N2518 C2519 1.351 . S
C2519 C2513 1.428 . S
C2519 N2518 1.351 . S
C2519 C2520 1.434 . S
C2520 C2511 1.429 . S
C2520 N2517 1.350 . S
C2520 C2519 1.434 . S
C2521 C2522 1.369 . S
C2521 C2523 1.419 . S
C2521 H2525 0.930 . S
C2522 C2521 1.369 . S
C2522 C2531 1.429 . S
C2523 C2521 1.419 . S
C2523 C2524 1.363 . S
C2523 H2526 0.929 . S
C2524 C2523 1.363 . S
C2524 C2530 1.428 . S
H2525 C2521 0.930 . S
H2526 C2523 0.929 . S
S2527 N2528 1.613 . S
S2527 N2529 1.610 . S
N2528 S2527 1.613 . S
N2528 C2531 1.350 . S
N2529 S2527 1.610 . S
N2529 C2530 1.351 . S
C2530 C2524 1.428 . S
C2530 N2529 1.351 . S
C2530 C2531 1.434 . S
C2531 C2522 1.429 . S
C2531 N2528 1.350 . S
C2531 C2530 1.434 . S
C2532 C2533 1.369 . S
C2532 C2534 1.419 . S
C2532 H2536 0.930 . S
C2533 C2532 1.369 . S
C2533 C2542 1.429 . S
C2534 C2532 1.419 . S
C2534 C2535 1.363 . S
C2534 H2537 0.929 . S
C2535 C2534 1.363 . S
C2535 C2541 1.428 . S
H2536 C2532 0.930 . S
H2537 C2534 0.929 . S
S2538 N2539 1.613 . S
S2538 N2540 1.610 . S
N2539 S2538 1.613 . S
N2539 C2542 1.350 . S
N2540 S2538 1.610 . S
N2540 C2541 1.351 . S
C2541 C2535 1.428 . S
C2541 N2540 1.351 . S
C2541 C2542 1.434 . S
C2542 C2533 1.429 . S
C2542 N2539 1.350 . S
C2542 C2541 1.434 . S
C2543 C2544 1.369 . S
C2543 C2545 1.419 . S
C2543 H2547 0.930 . S
C2544 C2543 1.369 . S
C2544 C2553 1.429 . S
C2545 C2543 1.419 . S
C2545 C2546 1.363 . S
C2545 H2548 0.929 . S
C2546 C2545 1.363 . S
C2546 C2552 1.428 . S
H2547 C2543 0.930 . S
H2548 C2545 0.929 . S
S2549 N2550 1.613 . S
S2549 N2551 1.610 . S
N2550 S2549 1.613 . S
N2550 C2553 1.350 . S
N2551 S2549 1.610 . S
N2551 C2552 1.351 . S
C2552 C2546 1.428 . S
C2552 N2551 1.351 . S
C2552 C2553 1.434 . S
C2553 C2544 1.429 . S
C2553 N2550 1.350 . S
C2553 C2552 1.434 . S
C2554 C2555 1.369 . S
C2554 C2556 1.419 . S
C2554 H2558 0.930 . S
C2555 C2554 1.369 . S
C2555 C2564 1.429 . S
C2556 C2554 1.419 . S
C2556 C2557 1.363 . S
C2556 H2559 0.929 . S
C2557 C2556 1.363 . S
C2557 C2563 1.428 . S
H2558 C2554 0.930 . S
H2559 C2556 0.929 . S
S2560 N2561 1.613 . S
S2560 N2562 1.610 . S
N2561 S2560 1.613 . S
N2561 C2564 1.350 . S
N2562 S2560 1.610 . S
N2562 C2563 1.351 . S
C2563 C2557 1.428 . S
C2563 N2562 1.351 . S
C2563 C2564 1.434 . S
C2564 C2555 1.429 . S
C2564 N2561 1.350 . S
C2564 C2563 1.434 . S
C2565 C2566 1.369 . S
C2565 C2567 1.419 . S
C2565 H2569 0.930 . S
C2566 C2565 1.369 . S
C2566 C2575 1.429 . S
C2567 C2565 1.419 . S
C2567 C2568 1.363 . S
C2567 H2570 0.929 . S
C2568 C2567 1.363 . S
C2568 C2574 1.428 . S
H2569 C2565 0.930 . S
H2570 C2567 0.929 . S
S2571 N2572 1.613 . S
S2571 N2573 1.610 . S
N2572 S2571 1.613 . S
N2572 C2575 1.350 . S
N2573 S2571 1.610 . S
N2573 C2574 1.351 . S
C2574 C2568 1.428 . S
C2574 N2573 1.351 . S
C2574 C2575 1.434 . S
C2575 C2566 1.429 . S
C2575 N2572 1.350 . S
C2575 C2574 1.434 . S
C2576 C2577 1.369 . S
C2576 C2578 1.419 . S
C2576 H2580 0.930 . S
C2577 C2576 1.369 . S
C2577 C2586 1.429 . S
C2578 C2576 1.419 . S
C2578 C2579 1.363 . S
C2578 H2581 0.929 . S
C2579 C2578 1.363 . S
C2579 C2585 1.428 . S
H2580 C2576 0.930 . S
H2581 C2578 0.929 . S
S2582 N2583 1.613 . S
S2582 N2584 1.610 . S
N2583 S2582 1.613 . S
N2583 C2586 1.350 . S
N2584 S2582 1.610 . S
N2584 C2585 1.351 . S
C2585 C2579 1.428 . S
C2585 N2584 1.351 . S
C2585 C2586 1.434 . S
C2586 C2577 1.429 . S
C2586 N2583 1.350 . S
C2586 C2585 1.434 . S
C2587 C2588 1.369 . S
C2587 C2589 1.419 . S
C2587 H2591 0.930 . S
C2588 C2587 1.369 . S
C2588 C2597 1.429 . S
C2589 C2587 1.419 . S
C2589 C2590 1.363 . S
C2589 H2592 0.929 . S
C2590 C2589 1.363 . S
C2590 C2596 1.428 . S
H2591 C2587 0.930 . S
H2592 C2589 0.929 . S
S2593 N2594 1.613 . S
S2593 N2595 1.610 . S
N2594 S2593 1.613 . S
N2594 C2597 1.350 . S
N2595 S2593 1.610 . S
N2595 C2596 1.351 . S
C2596 C2590 1.428 . S
C2596 N2595 1.351 . S
C2596 C2597 1.434 . S
C2597 C2588 1.429 . S
C2597 N2594 1.350 . S
C2597 C2596 1.434 . S
C2598 C2599 1.369 . S
C2598 C2600 1.419 . S
C2598 H2602 0.930 . S
C2599 C2598 1.369 . S
C2599 C2608 1.429 . S
C2600 C2598 1.419 . S
C2600 C2601 1.363 . S
C2600 H2603 0.929 . S
C2601 C2600 1.363 . S
C2601 C2607 1.428 . S
H2602 C2598 0.930 . S
H2603 C2600 0.929 . S
S2604 N2605 1.613 . S
S2604 N2606 1.610 . S
N2605 S2604 1.613 . S
N2605 C2608 1.350 . S
N2606 S2604 1.610 . S
N2606 C2607 1.351 . S
C2607 C2601 1.428 . S
C2607 N2606 1.351 . S
C2607 C2608 1.434 . S
C2608 C2599 1.429 . S
C2608 N2605 1.350 . S
C2608 C2607 1.434 . S
C2609 C2610 1.369 . S
C2609 C2611 1.419 . S
C2609 H2613 0.930 . S
C2610 C2609 1.369 . S
C2610 C2619 1.429 . S
C2611 C2609 1.419 . S
C2611 C2612 1.363 . S
C2611 H2614 0.929 . S
C2612 C2611 1.363 . S
C2612 C2618 1.428 . S
H2613 C2609 0.930 . S
H2614 C2611 0.929 . S
S2615 N2616 1.613 . S
S2615 N2617 1.610 . S
N2616 S2615 1.613 . S
N2616 C2619 1.350 . S
N2617 S2615 1.610 . S
N2617 C2618 1.351 . S
C2618 C2612 1.428 . S
C2618 N2617 1.351 . S
C2618 C2619 1.434 . S
C2619 C2610 1.429 . S
C2619 N2616 1.350 . S
C2619 C2618 1.434 . S
C2620 C2621 1.369 . S
C2620 C2622 1.419 . S
C2620 H2624 0.930 . S
C2621 C2620 1.369 . S
C2621 C2630 1.429 . S
C2622 C2620 1.419 . S
C2622 C2623 1.363 . S
C2622 H2625 0.929 . S
C2623 C2622 1.363 . S
C2623 C2629 1.428 . S
H2624 C2620 0.930 . S
H2625 C2622 0.929 . S
S2626 N2627 1.613 . S
S2626 N2628 1.610 . S
N2627 S2626 1.613 . S
N2627 C2630 1.350 . S
N2628 S2626 1.610 . S
N2628 C2629 1.351 . S
C2629 C2623 1.428 . S
C2629 N2628 1.351 . S
C2629 C2630 1.434 . S
C2630 C2621 1.429 . S
C2630 N2627 1.350 . S
C2630 C2629 1.434 . S
C2631 C2632 1.369 . S
C2631 C2633 1.419 . S
C2631 H2635 0.930 . S
C2632 C2631 1.369 . S
C2632 C2641 1.429 . S
C2633 C2631 1.419 . S
C2633 C2634 1.363 . S
C2633 H2636 0.929 . S
C2634 C2633 1.363 . S
C2634 C2640 1.428 . S
H2635 C2631 0.930 . S
H2636 C2633 0.929 . S
S2637 N2638 1.613 . S
S2637 N2639 1.610 . S
N2638 S2637 1.613 . S
N2638 C2641 1.350 . S
N2639 S2637 1.610 . S
N2639 C2640 1.351 . S
C2640 C2634 1.428 . S
C2640 N2639 1.351 . S
C2640 C2641 1.434 . S
C2641 C2632 1.429 . S
C2641 N2638 1.350 . S
C2641 C2640 1.434 . S
C2642 C2643 1.369 . S
C2642 C2644 1.419 . S
C2642 H2646 0.930 . S
C2643 C2642 1.369 . S
C2643 C2652 1.429 . S
C2644 C2642 1.419 . S
C2644 C2645 1.363 . S
C2644 H2647 0.929 . S
C2645 C2644 1.363 . S
C2645 C2651 1.428 . S
H2646 C2642 0.930 . S
H2647 C2644 0.929 . S
S2648 N2649 1.613 . S
S2648 N2650 1.610 . S
N2649 S2648 1.613 . S
N2649 C2652 1.350 . S
N2650 S2648 1.610 . S
N2650 C2651 1.351 . S
C2651 C2645 1.428 . S
C2651 N2650 1.351 . S
C2651 C2652 1.434 . S
C2652 C2643 1.429 . S
C2652 N2649 1.350 . S
C2652 C2651 1.434 . S
C2653 C2654 1.369 . S
C2653 C2655 1.419 . S
C2653 H2657 0.930 . S
C2654 C2653 1.369 . S
C2654 C2663 1.429 . S
C2655 C2653 1.419 . S
C2655 C2656 1.363 . S
C2655 H2658 0.929 . S
C2656 C2655 1.363 . S
C2656 C2662 1.428 . S
H2657 C2653 0.930 . S
H2658 C2655 0.929 . S
S2659 N2660 1.613 . S
S2659 N2661 1.610 . S
N2660 S2659 1.613 . S
N2660 C2663 1.350 . S
N2661 S2659 1.610 . S
N2661 C2662 1.351 . S
C2662 C2656 1.428 . S
C2662 N2661 1.351 . S
C2662 C2663 1.434 . S
C2663 C2654 1.429 . S
C2663 N2660 1.350 . S
C2663 C2662 1.434 . S
C2664 C2665 1.369 . S
C2664 C2666 1.419 . S
C2664 H2668 0.930 . S
C2665 C2664 1.369 . S
C2665 C2674 1.429 . S
C2666 C2664 1.419 . S
C2666 C2667 1.363 . S
C2666 H2669 0.929 . S
C2667 C2666 1.363 . S
C2667 C2673 1.428 . S
H2668 C2664 0.930 . S
H2669 C2666 0.929 . S
S2670 N2671 1.613 . S
S2670 N2672 1.610 . S
N2671 S2670 1.613 . S
N2671 C2674 1.350 . S
N2672 S2670 1.610 . S
N2672 C2673 1.351 . S
C2673 C2667 1.428 . S
C2673 N2672 1.351 . S
C2673 C2674 1.434 . S
C2674 C2665 1.429 . S
C2674 N2671 1.350 . S
C2674 C2673 1.434 . S
C2675 C2676 1.369 . S
C2675 C2677 1.419 . S
C2675 H2679 0.930 . S
C2676 C2675 1.369 . S
C2676 C2685 1.429 . S
C2677 C2675 1.419 . S
C2677 C2678 1.363 . S
C2677 H2680 0.929 . S
C2678 C2677 1.363 . S
C2678 C2684 1.428 . S
H2679 C2675 0.930 . S
H2680 C2677 0.929 . S
S2681 N2682 1.613 . S
S2681 N2683 1.610 . S
N2682 S2681 1.613 . S
N2682 C2685 1.350 . S
N2683 S2681 1.610 . S
N2683 C2684 1.351 . S
C2684 C2678 1.428 . S
C2684 N2683 1.351 . S
C2684 C2685 1.434 . S
C2685 C2676 1.429 . S
C2685 N2682 1.350 . S
C2685 C2684 1.434 . S
C2686 C2687 1.369 . S
C2686 C2688 1.419 . S
C2686 H2690 0.930 . S
C2687 C2686 1.369 . S
C2687 C2696 1.429 . S
C2688 C2686 1.419 . S
C2688 C2689 1.363 . S
C2688 H2691 0.929 . S
C2689 C2688 1.363 . S
C2689 C2695 1.428 . S
H2690 C2686 0.930 . S
H2691 C2688 0.929 . S
S2692 N2693 1.613 . S
S2692 N2694 1.610 . S
N2693 S2692 1.613 . S
N2693 C2696 1.350 . S
N2694 S2692 1.610 . S
N2694 C2695 1.351 . S
C2695 C2689 1.428 . S
C2695 N2694 1.351 . S
C2695 C2696 1.434 . S
C2696 C2687 1.429 . S
C2696 N2693 1.350 . S
C2696 C2695 1.434 . S
C2697 C2698 1.369 . S
C2697 C2699 1.419 . S
C2697 H2701 0.930 . S
C2698 C2697 1.369 . S
C2698 C2707 1.429 . S
C2699 C2697 1.419 . S
C2699 C2700 1.363 . S
C2699 H2702 0.929 . S
C2700 C2699 1.363 . S
C2700 C2706 1.428 . S
H2701 C2697 0.930 . S
H2702 C2699 0.929 . S
S2703 N2704 1.613 . S
S2703 N2705 1.610 . S
N2704 S2703 1.613 . S
N2704 C2707 1.350 . S
N2705 S2703 1.610 . S
N2705 C2706 1.351 . S
C2706 C2700 1.428 . S
C2706 N2705 1.351 . S
C2706 C2707 1.434 . S
C2707 C2698 1.429 . S
C2707 N2704 1.350 . S
C2707 C2706 1.434 . S
C2708 C2709 1.369 . S
C2708 C2710 1.419 . S
C2708 H2712 0.930 . S
C2709 C2708 1.369 . S
C2709 C2718 1.429 . S
C2710 C2708 1.419 . S
C2710 C2711 1.363 . S
C2710 H2713 0.929 . S
C2711 C2710 1.363 . S
C2711 C2717 1.428 . S
H2712 C2708 0.930 . S
H2713 C2710 0.929 . S
S2714 N2715 1.613 . S
S2714 N2716 1.610 . S
N2715 S2714 1.613 . S
N2715 C2718 1.350 . S
N2716 S2714 1.610 . S
N2716 C2717 1.351 . S
C2717 C2711 1.428 . S
C2717 N2716 1.351 . S
C2717 C2718 1.434 . S
C2718 C2709 1.429 . S
C2718 N2715 1.350 . S
C2718 C2717 1.434 . S
C2719 C2720 1.369 . S
C2719 C2721 1.419 . S
C2719 H2723 0.930 . S
C2720 C2719 1.369 . S
C2720 C2729 1.429 . S
C2721 C2719 1.419 . S
C2721 C2722 1.363 . S
C2721 H2724 0.929 . S
C2722 C2721 1.363 . S
C2722 C2728 1.428 . S
H2723 C2719 0.930 . S
H2724 C2721 0.929 . S
S2725 N2726 1.613 . S
S2725 N2727 1.610 . S
N2726 S2725 1.613 . S
N2726 C2729 1.350 . S
N2727 S2725 1.610 . S
N2727 C2728 1.351 . S
C2728 C2722 1.428 . S
C2728 N2727 1.351 . S
C2728 C2729 1.434 . S
C2729 C2720 1.429 . S
C2729 N2726 1.350 . S
C2729 C2728 1.434 . S
C2730 C2731 1.369 . S
C2730 C2732 1.419 . S
C2730 H2734 0.930 . S
C2731 C2730 1.369 . S
C2731 C2740 1.429 . S
C2732 C2730 1.419 . S
C2732 C2733 1.363 . S
C2732 H2735 0.929 . S
C2733 C2732 1.363 . S
C2733 C2739 1.428 . S
H2734 C2730 0.930 . S
H2735 C2732 0.929 . S
S2736 N2737 1.613 . S
S2736 N2738 1.610 . S
N2737 S2736 1.613 . S
N2737 C2740 1.350 . S
N2738 S2736 1.610 . S
N2738 C2739 1.351 . S
C2739 C2733 1.428 . S
C2739 N2738 1.351 . S
C2739 C2740 1.434 . S
C2740 C2731 1.429 . S
C2740 N2737 1.350 . S
C2740 C2739 1.434 . S
C2741 C2742 1.369 . S
C2741 C2743 1.419 . S
C2741 H2745 0.930 . S
C2742 C2741 1.369 . S
C2742 C2751 1.429 . S
C2743 C2741 1.419 . S
C2743 C2744 1.363 . S
C2743 H2746 0.929 . S
C2744 C2743 1.363 . S
C2744 C2750 1.428 . S
H2745 C2741 0.930 . S
H2746 C2743 0.929 . S
S2747 N2748 1.613 . S
S2747 N2749 1.610 . S
N2748 S2747 1.613 . S
N2748 C2751 1.350 . S
N2749 S2747 1.610 . S
N2749 C2750 1.351 . S
C2750 C2744 1.428 . S
C2750 N2749 1.351 . S
C2750 C2751 1.434 . S
C2751 C2742 1.429 . S
C2751 N2748 1.350 . S
C2751 C2750 1.434 . S
C2752 C2753 1.369 . S
C2752 C2754 1.419 . S
C2752 H2756 0.930 . S
C2753 C2752 1.369 . S
C2753 C2762 1.429 . S
C2754 C2752 1.419 . S
C2754 C2755 1.363 . S
C2754 H2757 0.929 . S
C2755 C2754 1.363 . S
C2755 C2761 1.428 . S
H2756 C2752 0.930 . S
H2757 C2754 0.929 . S
S2758 N2759 1.613 . S
S2758 N2760 1.610 . S
N2759 S2758 1.613 . S
N2759 C2762 1.350 . S
N2760 S2758 1.610 . S
N2760 C2761 1.351 . S
C2761 C2755 1.428 . S
C2761 N2760 1.351 . S
C2761 C2762 1.434 . S
C2762 C2753 1.429 . S
C2762 N2759 1.350 . S
C2762 C2761 1.434 . S
C2763 C2764 1.369 . S
C2763 C2765 1.419 . S
C2763 H2767 0.930 . S
C2764 C2763 1.369 . S
C2764 C2773 1.429 . S
C2765 C2763 1.419 . S
C2765 C2766 1.363 . S
C2765 H2768 0.929 . S
C2766 C2765 1.363 . S
C2766 C2772 1.428 . S
H2767 C2763 0.930 . S
H2768 C2765 0.929 . S
S2769 N2770 1.613 . S
S2769 N2771 1.610 . S
N2770 S2769 1.613 . S
N2770 C2773 1.350 . S
N2771 S2769 1.610 . S
N2771 C2772 1.351 . S
C2772 C2766 1.428 . S
C2772 N2771 1.351 . S
C2772 C2773 1.434 . S
C2773 C2764 1.429 . S
C2773 N2770 1.350 . S
C2773 C2772 1.434 . S
C2774 C2775 1.369 . S
C2774 C2776 1.419 . S
C2774 H2778 0.930 . S
C2775 C2774 1.369 . S
C2775 C2784 1.429 . S
C2776 C2774 1.419 . S
C2776 C2777 1.363 . S
C2776 H2779 0.929 . S
C2777 C2776 1.363 . S
C2777 C2783 1.428 . S
H2778 C2774 0.930 . S
H2779 C2776 0.929 . S
S2780 N2781 1.613 . S
S2780 N2782 1.610 . S
N2781 S2780 1.613 . S
N2781 C2784 1.350 . S
N2782 S2780 1.610 . S
N2782 C2783 1.351 . S
C2783 C2777 1.428 . S
C2783 N2782 1.351 . S
C2783 C2784 1.434 . S
C2784 C2775 1.429 . S
C2784 N2781 1.350 . S
C2784 C2783 1.434 . S
C2785 C2786 1.369 . S
C2785 C2787 1.419 . S
C2785 H2789 0.930 . S
C2786 C2785 1.369 . S
C2786 C2795 1.429 . S
C2787 C2785 1.419 . S
C2787 C2788 1.363 . S
C2787 H2790 0.929 . S
C2788 C2787 1.363 . S
C2788 C2794 1.428 . S
H2789 C2785 0.930 . S
H2790 C2787 0.929 . S
S2791 N2792 1.613 . S
S2791 N2793 1.610 . S
N2792 S2791 1.613 . S
N2792 C2795 1.350 . S
N2793 S2791 1.610 . S
N2793 C2794 1.351 . S
C2794 C2788 1.428 . S
C2794 N2793 1.351 . S
C2794 C2795 1.434 . S
C2795 C2786 1.429 . S
C2795 N2792 1.350 . S
C2795 C2794 1.434 . S
C2796 C2797 1.369 . S
C2796 C2798 1.419 . S
C2796 H2800 0.930 . S
C2797 C2796 1.369 . S
C2797 C2806 1.429 . S
C2798 C2796 1.419 . S
C2798 C2799 1.363 . S
C2798 H2801 0.929 . S
C2799 C2798 1.363 . S
C2799 C2805 1.428 . S
H2800 C2796 0.930 . S
H2801 C2798 0.929 . S
S2802 N2803 1.613 . S
S2802 N2804 1.610 . S
N2803 S2802 1.613 . S
N2803 C2806 1.350 . S
N2804 S2802 1.610 . S
N2804 C2805 1.351 . S
C2805 C2799 1.428 . S
C2805 N2804 1.351 . S
C2805 C2806 1.434 . S
C2806 C2797 1.429 . S
C2806 N2803 1.350 . S
C2806 C2805 1.434 . S
C2807 C2808 1.369 . S
C2807 C2809 1.419 . S
C2807 H2811 0.930 . S
C2808 C2807 1.369 . S
C2808 C2817 1.429 . S
C2809 C2807 1.419 . S
C2809 C2810 1.363 . S
C2809 H2812 0.929 . S
C2810 C2809 1.363 . S
C2810 C2816 1.428 . S
H2811 C2807 0.930 . S
H2812 C2809 0.929 . S
S2813 N2814 1.613 . S
S2813 N2815 1.610 . S
N2814 S2813 1.613 . S
N2814 C2817 1.350 . S
N2815 S2813 1.610 . S
N2815 C2816 1.351 . S
C2816 C2810 1.428 . S
C2816 N2815 1.351 . S
C2816 C2817 1.434 . S
C2817 C2808 1.429 . S
C2817 N2814 1.350 . S
C2817 C2816 1.434 . S
C2818 C2819 1.369 . S
C2818 C2820 1.419 . S
C2818 H2822 0.930 . S
C2819 C2818 1.369 . S
C2819 C2828 1.429 . S
C2820 C2818 1.419 . S
C2820 C2821 1.363 . S
C2820 H2823 0.929 . S
C2821 C2820 1.363 . S
C2821 C2827 1.428 . S
H2822 C2818 0.930 . S
H2823 C2820 0.929 . S
S2824 N2825 1.613 . S
S2824 N2826 1.610 . S
N2825 S2824 1.613 . S
N2825 C2828 1.350 . S
N2826 S2824 1.610 . S
N2826 C2827 1.351 . S
C2827 C2821 1.428 . S
C2827 N2826 1.351 . S
C2827 C2828 1.434 . S
C2828 C2819 1.429 . S
C2828 N2825 1.350 . S
C2828 C2827 1.434 . S
C2829 C2830 1.369 . S
C2829 C2831 1.419 . S
C2829 H2833 0.930 . S
C2830 C2829 1.369 . S
C2830 C2839 1.429 . S
C2831 C2829 1.419 . S
C2831 C2832 1.363 . S
C2831 H2834 0.929 . S
C2832 C2831 1.363 . S
C2832 C2838 1.428 . S
H2833 C2829 0.930 . S
H2834 C2831 0.929 . S
S2835 N2836 1.613 . S
S2835 N2837 1.610 . S
N2836 S2835 1.613 . S
N2836 C2839 1.350 . S
N2837 S2835 1.610 . S
N2837 C2838 1.351 . S
C2838 C2832 1.428 . S
C2838 N2837 1.351 . S
C2838 C2839 1.434 . S
C2839 C2830 1.429 . S
C2839 N2836 1.350 . S
C2839 C2838 1.434 . S
C2840 C2841 1.369 . S
C2840 C2842 1.419 . S
C2840 H2844 0.930 . S
C2841 C2840 1.369 . S
C2841 C2850 1.429 . S
C2842 C2840 1.419 . S
C2842 C2843 1.363 . S
C2842 H2845 0.929 . S
C2843 C2842 1.363 . S
C2843 C2849 1.428 . S
H2844 C2840 0.930 . S
H2845 C2842 0.929 . S
S2846 N2847 1.613 . S
S2846 N2848 1.610 . S
N2847 S2846 1.613 . S
N2847 C2850 1.350 . S
N2848 S2846 1.610 . S
N2848 C2849 1.351 . S
C2849 C2843 1.428 . S
C2849 N2848 1.351 . S
C2849 C2850 1.434 . S
C2850 C2841 1.429 . S
C2850 N2847 1.350 . S
C2850 C2849 1.434 . S
C2851 C2852 1.369 . S
C2851 C2853 1.419 . S
C2851 H2855 0.930 . S
C2852 C2851 1.369 . S
C2852 C2861 1.429 . S
C2853 C2851 1.419 . S
C2853 C2854 1.363 . S
C2853 H2856 0.929 . S
C2854 C2853 1.363 . S
C2854 C2860 1.428 . S
H2855 C2851 0.930 . S
H2856 C2853 0.929 . S
S2857 N2858 1.613 . S
S2857 N2859 1.610 . S
N2858 S2857 1.613 . S
N2858 C2861 1.350 . S
N2859 S2857 1.610 . S
N2859 C2860 1.351 . S
C2860 C2854 1.428 . S
C2860 N2859 1.351 . S
C2860 C2861 1.434 . S
C2861 C2852 1.429 . S
C2861 N2858 1.350 . S
C2861 C2860 1.434 . S
C2862 C2863 1.369 . S
C2862 C2864 1.419 . S
C2862 H2866 0.930 . S
C2863 C2862 1.369 . S
C2863 C2872 1.429 . S
C2864 C2862 1.419 . S
C2864 C2865 1.363 . S
C2864 H2867 0.929 . S
C2865 C2864 1.363 . S
C2865 C2871 1.428 . S
H2866 C2862 0.930 . S
H2867 C2864 0.929 . S
S2868 N2869 1.613 . S
S2868 N2870 1.610 . S
N2869 S2868 1.613 . S
N2869 C2872 1.350 . S
N2870 S2868 1.610 . S
N2870 C2871 1.351 . S
C2871 C2865 1.428 . S
C2871 N2870 1.351 . S
C2871 C2872 1.434 . S
C2872 C2863 1.429 . S
C2872 N2869 1.350 . S
C2872 C2871 1.434 . S
C2873 C2874 1.369 . S
C2873 C2875 1.419 . S
C2873 H2877 0.930 . S
C2874 C2873 1.369 . S
C2874 C2883 1.429 . S
C2875 C2873 1.419 . S
C2875 C2876 1.363 . S
C2875 H2878 0.929 . S
C2876 C2875 1.363 . S
C2876 C2882 1.428 . S
H2877 C2873 0.930 . S
H2878 C2875 0.929 . S
S2879 N2880 1.613 . S
S2879 N2881 1.610 . S
N2880 S2879 1.613 . S
N2880 C2883 1.350 . S
N2881 S2879 1.610 . S
N2881 C2882 1.351 . S
C2882 C2876 1.428 . S
C2882 N2881 1.351 . S
C2882 C2883 1.434 . S
C2883 C2874 1.429 . S
C2883 N2880 1.350 . S
C2883 C2882 1.434 . S
C2884 C2885 1.369 . S
C2884 C2886 1.419 . S
C2884 H2888 0.930 . S
C2885 C2884 1.369 . S
C2885 C2894 1.429 . S
C2886 C2884 1.419 . S
C2886 C2887 1.363 . S
C2886 H2889 0.929 . S
C2887 C2886 1.363 . S
C2887 C2893 1.428 . S
H2888 C2884 0.930 . S
H2889 C2886 0.929 . S
S2890 N2891 1.613 . S
S2890 N2892 1.610 . S
N2891 S2890 1.613 . S
N2891 C2894 1.350 . S
N2892 S2890 1.610 . S
N2892 C2893 1.351 . S
C2893 C2887 1.428 . S
C2893 N2892 1.351 . S
C2893 C2894 1.434 . S
C2894 C2885 1.429 . S
C2894 N2891 1.350 . S
C2894 C2893 1.434 . S
C2895 C2896 1.369 . S
C2895 C2897 1.419 . S
C2895 H2899 0.930 . S
C2896 C2895 1.369 . S
C2896 C2905 1.429 . S
C2897 C2895 1.419 . S
C2897 C2898 1.363 . S
C2897 H2900 0.929 . S
C2898 C2897 1.363 . S
C2898 C2904 1.428 . S
H2899 C2895 0.930 . S
H2900 C2897 0.929 . S
S2901 N2902 1.613 . S
S2901 N2903 1.610 . S
N2902 S2901 1.613 . S
N2902 C2905 1.350 . S
N2903 S2901 1.610 . S
N2903 C2904 1.351 . S
C2904 C2898 1.428 . S
C2904 N2903 1.351 . S
C2904 C2905 1.434 . S
C2905 C2896 1.429 . S
C2905 N2902 1.350 . S
C2905 C2904 1.434 . S
C2906 C2907 1.369 . S
C2906 C2908 1.419 . S
C2906 H2910 0.930 . S
C2907 C2906 1.369 . S
C2907 C2916 1.429 . S
C2908 C2906 1.419 . S
C2908 C2909 1.363 . S
C2908 H2911 0.929 . S
C2909 C2908 1.363 . S
C2909 C2915 1.428 . S
H2910 C2906 0.930 . S
H2911 C2908 0.929 . S
S2912 N2913 1.613 . S
S2912 N2914 1.610 . S
N2913 S2912 1.613 . S
N2913 C2916 1.350 . S
N2914 S2912 1.610 . S
N2914 C2915 1.351 . S
C2915 C2909 1.428 . S
C2915 N2914 1.351 . S
C2915 C2916 1.434 . S
C2916 C2907 1.429 . S
C2916 N2913 1.350 . S
C2916 C2915 1.434 . S
C2917 C2918 1.369 . S
C2917 C2919 1.419 . S
C2917 H2921 0.930 . S
C2918 C2917 1.369 . S
C2918 C2927 1.429 . S
C2919 C2917 1.419 . S
C2919 C2920 1.363 . S
C2919 H2922 0.929 . S
C2920 C2919 1.363 . S
C2920 C2926 1.428 . S
H2921 C2917 0.930 . S
H2922 C2919 0.929 . S
S2923 N2924 1.613 . S
S2923 N2925 1.610 . S
N2924 S2923 1.613 . S
N2924 C2927 1.350 . S
N2925 S2923 1.610 . S
N2925 C2926 1.351 . S
C2926 C2920 1.428 . S
C2926 N2925 1.351 . S
C2926 C2927 1.434 . S
C2927 C2918 1.429 . S
C2927 N2924 1.350 . S
C2927 C2926 1.434 . S
C2928 C2929 1.369 . S
C2928 C2930 1.419 1_655 S
C2928 H2932 0.930 . S
C2929 C2928 1.369 . S
C2929 C2938 1.429 . S
C2930 C2928 1.419 1_455 S
C2930 C2931 1.363 . S
C2930 H2933 0.929 . S
C2931 C2930 1.363 . S
C2931 C2937 1.428 . S
H2932 C2928 0.930 . S
H2933 C2930 0.929 . S
S2934 N2935 1.613 . S
S2934 N2936 1.610 1_655 S
N2935 S2934 1.613 . S
N2935 C2938 1.350 . S
N2936 S2934 1.610 1_455 S
N2936 C2937 1.351 . S
C2937 C2931 1.428 . S
C2937 N2936 1.351 . S
C2937 C2938 1.434 1_455 S
C2938 C2929 1.429 . S
C2938 N2935 1.350 . S
C2938 C2937 1.434 1_655 S
C2939 C2940 1.369 . S
C2939 C2941 1.419 . S
C2939 H2943 0.930 . S
C2940 C2939 1.369 . S
C2940 C2949 1.429 . S
C2941 C2939 1.419 . S
C2941 C2942 1.363 . S
C2941 H2944 0.929 . S
C2942 C2941 1.363 . S
C2942 C2948 1.428 . S
H2943 C2939 0.930 . S
H2944 C2941 0.929 . S
S2945 N2946 1.613 . S
S2945 N2947 1.610 . S
N2946 S2945 1.613 . S
N2946 C2949 1.350 . S
N2947 S2945 1.610 . S
N2947 C2948 1.351 . S
C2948 C2942 1.428 . S
C2948 N2947 1.351 . S
C2948 C2949 1.434 . S
C2949 C2940 1.429 . S
C2949 N2946 1.350 . S
C2949 C2948 1.434 . S
C2950 C2951 1.369 . S
C2950 C2952 1.419 1_655 S
C2950 H2954 0.930 . S
C2951 C2950 1.369 . S
C2951 C2960 1.429 1_545 S
C2952 C2950 1.419 1_455 S
C2952 C2953 1.363 1_545 S
C2952 H2955 0.929 . S
C2953 C2952 1.363 1_565 S
C2953 C2959 1.428 . S
H2954 C2950 0.930 . S
H2955 C2952 0.929 . S
S2956 N2957 1.613 . S
S2956 N2958 1.610 1_655 S
N2957 S2956 1.613 . S
N2957 C2960 1.350 . S
N2958 S2956 1.610 1_455 S
N2958 C2959 1.351 . S
C2959 C2953 1.428 . S
C2959 N2958 1.351 . S
C2959 C2960 1.434 1_455 S
C2960 C2951 1.429 1_565 S
C2960 N2957 1.350 . S
C2960 C2959 1.434 1_655 S
C2961 C2962 1.369 . S
C2961 C2963 1.419 . S
C2961 H2965 0.930 . S
C2962 C2961 1.369 . S
C2962 C2971 1.429 . S
C2963 C2961 1.419 . S
C2963 C2964 1.363 . S
C2963 H2966 0.929 . S
C2964 C2963 1.363 . S
C2964 C2970 1.428 . S
H2965 C2961 0.930 . S
H2966 C2963 0.929 . S
S2967 N2968 1.613 . S
S2967 N2969 1.610 . S
N2968 S2967 1.613 . S
N2968 C2971 1.350 . S
N2969 S2967 1.610 . S
N2969 C2970 1.351 . S
C2970 C2964 1.428 . S
C2970 N2969 1.351 . S
C2970 C2971 1.434 . S
C2971 C2962 1.429 . S
C2971 N2968 1.350 . S
C2971 C2970 1.434 . S
C2972 C2973 1.369 . S
C2972 C2974 1.419 1_455 S
C2972 H2976 0.930 . S
C2973 C2972 1.369 . S
C2973 C2982 1.429 . S
C2974 C2972 1.419 1_655 S
C2974 C2975 1.363 . S
C2974 H2977 0.929 . S
C2975 C2974 1.363 . S
C2975 C2981 1.428 . S
H2976 C2972 0.930 . S
H2977 C2974 0.929 . S
S2978 N2979 1.613 1_655 S
S2978 N2980 1.610 . S
N2979 S2978 1.613 1_455 S
N2979 C2982 1.350 . S
N2980 S2978 1.610 . S
N2980 C2981 1.351 . S
C2981 C2975 1.428 . S
C2981 N2980 1.351 . S
C2981 C2982 1.434 1_655 S
C2982 C2973 1.429 . S
C2982 N2979 1.350 . S
C2982 C2981 1.434 1_455 S
C2983 C2984 1.369 . S
C2983 C2985 1.419 . S
C2983 H2987 0.930 . S
C2984 C2983 1.369 . S
C2984 C2993 1.429 . S
C2985 C2983 1.419 . S
C2985 C2986 1.363 . S
C2985 H2988 0.929 . S
C2986 C2985 1.363 . S
C2986 C2992 1.428 . S
H2987 C2983 0.930 . S
H2988 C2985 0.929 . S
S2989 N2990 1.613 . S
S2989 N2991 1.610 . S
N2990 S2989 1.613 . S
N2990 C2993 1.350 . S
N2991 S2989 1.610 . S
N2991 C2992 1.351 . S
C2992 C2986 1.428 . S
C2992 N2991 1.351 . S
C2992 C2993 1.434 . S
C2993 C2984 1.429 . S
C2993 N2990 1.350 . S
C2993 C2992 1.434 . S
C2994 C2995 1.371 . S
C2994 C2996 1.416 1_665 S
C2994 H2998 0.930 . S
C2995 C2994 1.371 . S
C2995 C3004 1.429 . S
C2996 C2994 1.416 1_445 S
C2996 C2997 1.365 . S
C2996 H2999 0.932 . S
C2997 C2996 1.365 . S
C2997 C3003 1.429 . S
H2998 C2994 0.930 . S
H2999 C2996 0.932 . S
S3000 N3001 1.607 1_455 S
S3000 N3002 1.619 . S
N3001 S3000 1.607 1_655 S
N3001 C3004 1.350 . S
N3002 S3000 1.619 . S
N3002 C3003 1.350 1_565 S
C3003 C2997 1.429 . S
C3003 N3002 1.350 1_545 S
C3003 C3004 1.434 1_445 S
C3004 C2995 1.429 . S
C3004 N3001 1.350 . S
C3004 C3003 1.434 1_665 S
C3005 C3006 1.369 . S
C3005 C3007 1.419 . S
C3005 H3009 0.930 . S
C3006 C3005 1.369 . S
C3006 C3015 1.429 . S
C3007 C3005 1.419 . S
C3007 C3008 1.363 . S
C3007 H3010 0.929 . S
C3008 C3007 1.363 . S
C3008 C3014 1.428 . S
H3009 C3005 0.930 . S
H3010 C3007 0.929 . S
S3011 N3012 1.613 . S
S3011 N3013 1.610 . S
N3012 S3011 1.613 . S
N3012 C3015 1.350 . S
N3013 S3011 1.610 . S
N3013 C3014 1.351 . S
C3014 C3008 1.428 . S
C3014 N3013 1.351 . S
C3014 C3015 1.434 . S
C3015 C3006 1.429 . S
C3015 N3012 1.350 . S
C3015 C3014 1.434 . S
C3016 C3017 1.369 . S
C3016 C3018 1.419 1_545 S
C3016 H3020 0.930 . S
C3017 C3016 1.369 . S
C3017 C3026 1.429 . S
C3018 C3016 1.419 1_565 S
C3018 C3019 1.363 . S
C3018 H3021 0.929 . S
C3019 C3018 1.363 . S
C3019 C3025 1.428 . S
H3020 C3016 0.930 . S
H3021 C3018 0.929 . S
S3022 N3023 1.613 . S
S3022 N3024 1.610 1_545 S
N3023 S3022 1.613 . S
N3023 C3026 1.350 . S
N3024 S3022 1.610 1_565 S
N3024 C3025 1.351 . S
C3025 C3019 1.428 . S
C3025 N3024 1.351 . S
C3025 C3026 1.434 1_565 S
C3026 C3017 1.429 . S
C3026 N3023 1.350 . S
C3026 C3025 1.434 1_545 S
C3027 C3028 1.369 . S
C3027 C3029 1.419 . S
C3027 H3031 0.930 . S
C3028 C3027 1.369 . S
C3028 C3037 1.429 . S
C3029 C3027 1.419 . S
C3029 C3030 1.363 . S
C3029 H3032 0.929 . S
C3030 C3029 1.363 . S
C3030 C3036 1.428 . S
H3031 C3027 0.930 . S
H3032 C3029 0.929 . S
S3033 N3034 1.613 . S
S3033 N3035 1.610 . S
N3034 S3033 1.613 . S
N3034 C3037 1.350 . S
N3035 S3033 1.610 . S
N3035 C3036 1.351 . S
C3036 C3030 1.428 . S
C3036 N3035 1.351 . S
C3036 C3037 1.434 . S
C3037 C3028 1.429 . S
C3037 N3034 1.350 . S
C3037 C3036 1.434 . S
C3038 C3039 1.369 . S
C3038 C3040 1.419 . S
C3038 H3042 0.930 . S
C3039 C3038 1.369 . S
C3039 C3048 1.429 1_556 S
C3040 C3038 1.419 . S
C3040 C3041 1.363 1_556 S
C3040 H3043 0.929 . S
C3041 C3040 1.363 1_554 S
C3041 C3047 1.428 . S
H3042 C3038 0.930 . S
H3043 C3040 0.929 . S
S3044 N3045 1.613 . S
S3044 N3046 1.610 . S
N3045 S3044 1.613 . S
N3045 C3048 1.350 . S
N3046 S3044 1.610 . S
N3046 C3047 1.351 . S
C3047 C3041 1.428 . S
C3047 N3046 1.351 . S
C3047 C3048 1.434 . S
C3048 C3039 1.429 1_554 S
C3048 N3045 1.350 . S
C3048 C3047 1.434 . S
C3049 C3050 1.369 . S
C3049 C3051 1.419 . S
C3049 H3053 0.930 . S
C3050 C3049 1.369 . S
C3050 C3059 1.429 . S
C3051 C3049 1.419 . S
C3051 C3052 1.363 . S
C3051 H3054 0.929 . S
C3052 C3051 1.363 . S
C3052 C3058 1.428 . S
H3053 C3049 0.930 . S
H3054 C3051 0.929 . S
S3055 N3056 1.613 . S
S3055 N3057 1.610 . S
N3056 S3055 1.613 . S
N3056 C3059 1.350 . S
N3057 S3055 1.610 . S
N3057 C3058 1.351 . S
C3058 C3052 1.428 . S
C3058 N3057 1.351 . S
C3058 C3059 1.434 . S
C3059 C3050 1.429 . S
C3059 N3056 1.350 . S
C3059 C3058 1.434 . S
C3060 C3061 1.369 . S
C3060 C3062 1.419 1_554 S
C3060 H3064 0.930 . S
C3061 C3060 1.369 . S
C3061 C3070 1.429 . S
C3062 C3060 1.419 1_556 S
C3062 C3063 1.363 . S
C3062 H3065 0.929 . S
C3063 C3062 1.363 . S
C3063 C3069 1.428 . S
H3064 C3060 0.930 . S
H3065 C3062 0.929 . S
S3066 N3067 1.613 1_556 S
S3066 N3068 1.610 . S
N3067 S3066 1.613 1_554 S
N3067 C3070 1.350 . S
N3068 S3066 1.610 . S
N3068 C3069 1.351 . S
C3069 C3063 1.428 . S
C3069 N3068 1.351 . S
C3069 C3070 1.434 1_556 S
C3070 C3061 1.429 . S
C3070 N3067 1.350 . S
C3070 C3069 1.434 1_554 S
C3071 C3072 1.369 1_655 S
C3071 C3073 1.419 . S
C3071 H3075 0.930 . S
C3072 C3071 1.369 1_455 S
C3072 C3081 1.429 . S
C3073 C3071 1.419 . S
C3073 C3074 1.363 . S
C3073 H3076 0.929 . S
C3074 C3073 1.363 . S
C3074 C3080 1.428 1_655 S
H3075 C3071 0.930 . S
H3076 C3073 0.929 . S
S3077 N3078 1.613 . S
S3077 N3079 1.610 . S
N3078 S3077 1.613 . S
N3078 C3081 1.350 . S
N3079 S3077 1.610 . S
N3079 C3080 1.351 . S
C3080 C3074 1.428 1_455 S
C3080 N3079 1.351 . S
C3080 C3081 1.434 . S
C3081 C3072 1.429 . S
C3081 N3078 1.350 . S
C3081 C3080 1.434 . S
C3082 C3083 1.369 . S
C3082 C3084 1.419 . S
C3082 H3086 0.930 . S
C3083 C3082 1.369 . S
C3083 C3092 1.429 . S
C3084 C3082 1.419 . S
C3084 C3085 1.363 . S
C3084 H3087 0.929 . S
C3085 C3084 1.363 . S
C3085 C3091 1.428 . S
H3086 C3082 0.930 . S
H3087 C3084 0.929 . S
S3088 N3089 1.613 . S
S3088 N3090 1.610 . S
N3089 S3088 1.613 . S
N3089 C3092 1.350 . S
N3090 S3088 1.610 . S
N3090 C3091 1.351 . S
C3091 C3085 1.428 . S
C3091 N3090 1.351 . S
C3091 C3092 1.434 . S
C3092 C3083 1.429 . S
C3092 N3089 1.350 . S
C3092 C3091 1.434 . S
C3093 C3094 1.369 . S
C3093 C3095 1.419 1_554 S
C3093 H3097 0.930 . S
C3094 C3093 1.369 . S
C3094 C3103 1.429 1_655 S
C3095 C3093 1.419 1_556 S
C3095 C3096 1.363 1_655 S
C3095 H3098 0.929 . S
C3096 C3095 1.363 1_455 S
C3096 C3102 1.428 . S
H3097 C3093 0.930 . S
H3098 C3095 0.929 . S
S3099 N3100 1.613 . S
S3099 N3101 1.610 1_554 S
N3100 S3099 1.613 . S
N3100 C3103 1.350 . S
N3101 S3099 1.610 1_556 S
N3101 C3102 1.351 . S
C3102 C3096 1.428 . S
C3102 N3101 1.351 . S
C3102 C3103 1.434 1_556 S
C3103 C3094 1.429 1_455 S
C3103 N3100 1.350 . S
C3103 C3102 1.434 1_554 S
C3104 C3105 1.369 . S
C3104 C3106 1.419 . S
C3104 H3108 0.930 . S
C3105 C3104 1.369 . S
C3105 C3114 1.429 . S
C3106 C3104 1.419 . S
C3106 C3107 1.363 . S
C3106 H3109 0.929 . S
C3107 C3106 1.363 . S
C3107 C3113 1.428 . S
H3108 C3104 0.930 . S
H3109 C3106 0.929 . S
S3110 N3111 1.613 . S
S3110 N3112 1.610 . S
N3111 S3110 1.613 . S
N3111 C3114 1.350 . S
N3112 S3110 1.610 . S
N3112 C3113 1.351 . S
C3113 C3107 1.428 . S
C3113 N3112 1.351 . S
C3113 C3114 1.434 . S
C3114 C3105 1.429 . S
C3114 N3111 1.350 . S
C3114 C3113 1.434 . S
C3115 C3116 1.369 . S
C3115 C3117 1.419 1_554 S
C3115 H3119 0.930 . S
C3116 C3115 1.369 . S
C3116 C3125 1.429 . S
C3117 C3115 1.419 1_556 S
C3117 C3118 1.363 . S
C3117 H3120 0.929 . S
C3118 C3117 1.363 . S
C3118 C3124 1.428 . S
H3119 C3115 0.930 . S
H3120 C3117 0.929 . S
S3121 N3122 1.613 1_556 S
S3121 N3123 1.610 . S
N3122 S3121 1.613 1_554 S
N3122 C3125 1.350 . S
N3123 S3121 1.610 . S
N3123 C3124 1.351 . S
C3124 C3118 1.428 . S
C3124 N3123 1.351 . S
C3124 C3125 1.434 1_556 S
C3125 C3116 1.429 . S
C3125 N3122 1.350 . S
C3125 C3124 1.434 1_554 S
C3126 C3127 1.369 . S
C3126 C3128 1.419 . S
C3126 H3130 0.930 . S
C3127 C3126 1.369 . S
C3127 C3136 1.429 . S
C3128 C3126 1.419 . S
C3128 C3129 1.363 . S
C3128 H3131 0.929 . S
C3129 C3128 1.363 . S
C3129 C3135 1.428 . S
H3130 C3126 0.930 . S
H3131 C3128 0.929 . S
S3132 N3133 1.613 . S
S3132 N3134 1.610 . S
N3133 S3132 1.613 . S
N3133 C3136 1.350 . S
N3134 S3132 1.610 . S
N3134 C3135 1.351 . S
C3135 C3129 1.428 . S
C3135 N3134 1.351 . S
C3135 C3136 1.434 . S
C3136 C3127 1.429 . S
C3136 N3133 1.350 . S
C3136 C3135 1.434 . S
C3137 C3138 1.369 . S
C3137 C3139 1.419 . S
C3137 H3141 0.930 . S
C3138 C3137 1.369 . S
C3138 C3147 1.429 . S
C3139 C3137 1.419 . S
C3139 C3140 1.363 . S
C3139 H3142 0.929 . S
C3140 C3139 1.363 . S
C3140 C3146 1.428 . S
H3141 C3137 0.930 . S
H3142 C3139 0.929 . S
S3143 N3144 1.613 . S
S3143 N3145 1.610 . S
N3144 S3143 1.613 . S
N3144 C3147 1.350 . S
N3145 S3143 1.610 . S
N3145 C3146 1.351 . S
C3146 C3140 1.428 . S
C3146 N3145 1.351 . S
C3146 C3147 1.434 . S
C3147 C3138 1.429 . S
C3147 N3144 1.350 . S
C3147 C3146 1.434 . S
C3148 C3149 1.369 . S
C3148 C3150 1.419 . S
C3148 H3152 0.930 . S
C3149 C3148 1.369 . S
C3149 C3158 1.429 . S
C3150 C3148 1.419 . S
C3150 C3151 1.363 . S
C3150 H3153 0.929 . S
C3151 C3150 1.363 . S
C3151 C3157 1.428 . S
H3152 C3148 0.930 . S
H3153 C3150 0.929 . S
S3154 N3155 1.613 . S
S3154 N3156 1.610 . S
N3155 S3154 1.613 . S
N3155 C3158 1.350 . S
N3156 S3154 1.610 . S
N3156 C3157 1.351 . S
C3157 C3151 1.428 . S
C3157 N3156 1.351 . S
C3157 C3158 1.434 . S
C3158 C3149 1.429 . S
C3158 N3155 1.350 . S
C3158 C3157 1.434 . S
C3159 C3160 1.369 . S
C3159 C3161 1.419 . S
C3159 H3163 0.930 . S
C3160 C3159 1.369 . S
C3160 C3169 1.429 . S
C3161 C3159 1.419 . S
C3161 C3162 1.363 . S
C3161 H3164 0.929 . S
C3162 C3161 1.363 . S
C3162 C3168 1.428 . S
H3163 C3159 0.930 . S
H3164 C3161 0.929 . S
S3165 N3166 1.613 . S
S3165 N3167 1.610 . S
N3166 S3165 1.613 . S
N3166 C3169 1.350 . S
N3167 S3165 1.610 . S
N3167 C3168 1.351 . S
C3168 C3162 1.428 . S
C3168 N3167 1.351 . S
C3168 C3169 1.434 . S
C3169 C3160 1.429 . S
C3169 N3166 1.350 . S
C3169 C3168 1.434 . S
C3170 C3171 1.369 . S
C3170 C3172 1.419 . S
C3170 H3174 0.930 . S
C3171 C3170 1.369 . S
C3171 C3180 1.429 . S
C3172 C3170 1.419 . S
C3172 C3173 1.363 . S
C3172 H3175 0.929 . S
C3173 C3172 1.363 . S
C3173 C3179 1.428 . S
H3174 C3170 0.930 . S
H3175 C3172 0.929 . S
S3176 N3177 1.613 . S
S3176 N3178 1.610 . S
N3177 S3176 1.613 . S
N3177 C3180 1.350 . S
N3178 S3176 1.610 . S
N3178 C3179 1.351 . S
C3179 C3173 1.428 . S
C3179 N3178 1.351 . S
C3179 C3180 1.434 . S
C3180 C3171 1.429 . S
C3180 N3177 1.350 . S
C3180 C3179 1.434 . S
C3181 C3182 1.369 1_556 S
C3181 C3183 1.419 . S
C3181 H3185 0.930 . S
C3182 C3181 1.369 1_554 S
C3182 C3191 1.429 . S
C3183 C3181 1.419 . S
C3183 C3184 1.363 . S
C3183 H3186 0.929 . S
C3184 C3183 1.363 . S
C3184 C3190 1.428 1_556 S
H3185 C3181 0.930 . S
H3186 C3183 0.929 . S
S3187 N3188 1.613 . S
S3187 N3189 1.610 . S
N3188 S3187 1.613 . S
N3188 C3191 1.350 . S
N3189 S3187 1.610 . S
N3189 C3190 1.351 . S
C3190 C3184 1.428 1_554 S
C3190 N3189 1.351 . S
C3190 C3191 1.434 . S
C3191 C3182 1.429 . S
C3191 N3188 1.350 . S
C3191 C3190 1.434 . S
C3192 C3193 1.369 . S
C3192 C3194 1.419 . S
C3192 H3196 0.930 . S
C3193 C3192 1.369 . S
C3193 C3202 1.429 . S
C3194 C3192 1.419 . S
C3194 C3195 1.363 . S
C3194 H3197 0.929 . S
C3195 C3194 1.363 . S
C3195 C3201 1.428 . S
H3196 C3192 0.930 . S
H3197 C3194 0.929 . S
S3198 N3199 1.613 . S
S3198 N3200 1.610 . S
N3199 S3198 1.613 . S
N3199 C3202 1.350 . S
N3200 S3198 1.610 . S
N3200 C3201 1.351 . S
C3201 C3195 1.428 . S
C3201 N3200 1.351 . S
C3201 C3202 1.434 . S
C3202 C3193 1.429 . S
C3202 N3199 1.350 . S
C3202 C3201 1.434 . S
C3203 C3204 1.369 . S
C3203 C3205 1.419 1_545 S
C3203 H3207 0.930 . S
C3204 C3203 1.369 . S
C3204 C3213 1.429 . S
C3205 C3203 1.419 1_565 S
C3205 C3206 1.363 . S
C3205 H3208 0.929 . S
C3206 C3205 1.363 . S
C3206 C3212 1.428 . S
H3207 C3203 0.930 . S
H3208 C3205 0.929 . S
S3209 N3210 1.613 1_565 S
S3209 N3211 1.610 . S
N3210 S3209 1.613 1_545 S
N3210 C3213 1.350 . S
N3211 S3209 1.610 . S
N3211 C3212 1.351 . S
C3212 C3206 1.428 . S
C3212 N3211 1.351 . S
C3212 C3213 1.434 1_565 S
C3213 C3204 1.429 . S
C3213 N3210 1.350 . S
C3213 C3212 1.434 1_545 S
C3214 C3215 1.369 . S
C3214 C3216 1.419 . S
C3214 H3218 0.930 . S
C3215 C3214 1.369 . S
C3215 C3224 1.429 . S
C3216 C3214 1.419 . S
C3216 C3217 1.363 . S
C3216 H3219 0.929 . S
C3217 C3216 1.363 . S
C3217 C3223 1.428 . S
H3218 C3214 0.930 . S
H3219 C3216 0.929 . S
S3220 N3221 1.613 . S
S3220 N3222 1.610 . S
N3221 S3220 1.613 . S
N3221 C3224 1.350 . S
N3222 S3220 1.610 . S
N3222 C3223 1.351 . S
C3223 C3217 1.428 . S
C3223 N3222 1.351 . S
C3223 C3224 1.434 . S
C3224 C3215 1.429 . S
C3224 N3221 1.350 . S
C3224 C3223 1.434 . S
C3225 C3226 1.369 . S
C3225 C3227 1.419 . S
C3225 H3229 0.930 . S
C3226 C3225 1.369 . S
C3226 C3235 1.429 . S
C3227 C3225 1.419 . S
C3227 C3228 1.363 . S
C3227 H3230 0.929 . S
C3228 C3227 1.363 . S
C3228 C3234 1.428 . S
H3229 C3225 0.930 . S
H3230 C3227 0.929 . S
S3231 N3232 1.613 . S
S3231 N3233 1.610 . S
N3232 S3231 1.613 . S
N3232 C3235 1.350 . S
N3233 S3231 1.610 . S
N3233 C3234 1.351 . S
C3234 C3228 1.428 . S
C3234 N3233 1.351 . S
C3234 C3235 1.434 . S
C3235 C3226 1.429 . S
C3235 N3232 1.350 . S
C3235 C3234 1.434 . S
C3236 C3237 1.369 . S
C3236 C3238 1.419 1_554 S
C3236 H3240 0.930 . S
C3237 C3236 1.369 . S
C3237 C3246 1.429 1_455 S
C3238 C3236 1.419 1_556 S
C3238 C3239 1.363 1_455 S
C3238 H3241 0.929 . S
C3239 C3238 1.363 1_655 S
C3239 C3245 1.428 . S
H3240 C3236 0.930 . S
H3241 C3238 0.929 . S
S3242 N3243 1.613 . S
S3242 N3244 1.610 1_554 S
N3243 S3242 1.613 . S
N3243 C3246 1.350 . S
N3244 S3242 1.610 1_556 S
N3244 C3245 1.351 . S
C3245 C3239 1.428 . S
C3245 N3244 1.351 . S
C3245 C3246 1.434 1_556 S
C3246 C3237 1.429 1_655 S
C3246 N3243 1.350 . S
C3246 C3245 1.434 1_554 S
C3247 C3248 1.369 . S
C3247 C3249 1.419 . S
C3247 H3251 0.930 . S
C3248 C3247 1.369 . S
C3248 C3257 1.429 . S
C3249 C3247 1.419 . S
C3249 C3250 1.363 . S
C3249 H3252 0.929 . S
C3250 C3249 1.363 . S
C3250 C3256 1.428 . S
H3251 C3247 0.930 . S
H3252 C3249 0.929 . S
S3253 N3254 1.613 . S
S3253 N3255 1.610 . S
N3254 S3253 1.613 . S
N3254 C3257 1.350 . S
N3255 S3253 1.610 . S
N3255 C3256 1.351 . S
C3256 C3250 1.428 . S
C3256 N3255 1.351 . S
C3256 C3257 1.434 . S
C3257 C3248 1.429 . S
C3257 N3254 1.350 . S
C3257 C3256 1.434 . S
C3258 C3259 1.369 . S
C3258 C3260 1.419 . S
C3258 H3262 0.930 . S
C3259 C3258 1.369 . S
C3259 C3268 1.429 1_455 S
C3260 C3258 1.419 . S
C3260 C3261 1.363 1_455 S
C3260 H3263 0.929 . S
C3261 C3260 1.363 1_655 S
C3261 C3267 1.428 . S
H3262 C3258 0.930 . S
H3263 C3260 0.929 . S
S3264 N3265 1.613 . S
S3264 N3266 1.610 . S
N3265 S3264 1.613 . S
N3265 C3268 1.350 . S
N3266 S3264 1.610 . S
N3266 C3267 1.351 . S
C3267 C3261 1.428 . S
C3267 N3266 1.351 . S
C3267 C3268 1.434 . S
C3268 C3259 1.429 1_655 S
C3268 N3265 1.350 . S
C3268 C3267 1.434 . S
C3269 C3270 1.369 . S
C3269 C3271 1.419 . S
C3269 H3273 0.930 . S
C3270 C3269 1.369 . S
C3270 C3279 1.429 . S
C3271 C3269 1.419 . S
C3271 C3272 1.363 . S
C3271 H3274 0.929 . S
C3272 C3271 1.363 . S
C3272 C3278 1.428 . S
H3273 C3269 0.930 . S
H3274 C3271 0.929 . S
S3275 N3276 1.613 . S
S3275 N3277 1.610 . S
N3276 S3275 1.613 . S
N3276 C3279 1.350 . S
N3277 S3275 1.610 . S
N3277 C3278 1.351 . S
C3278 C3272 1.428 . S
C3278 N3277 1.351 . S
C3278 C3279 1.434 . S
C3279 C3270 1.429 . S
C3279 N3276 1.350 . S
C3279 C3278 1.434 . S
C3280 C3281 1.369 . S
C3280 C3282 1.419 . S
C3280 H3284 0.930 . S
C3281 C3280 1.369 . S
C3281 C3290 1.429 . S
C3282 C3280 1.419 . S
C3282 C3283 1.363 . S
C3282 H3285 0.929 . S
C3283 C3282 1.363 . S
C3283 C3289 1.428 . S
H3284 C3280 0.930 . S
H3285 C3282 0.929 . S
S3286 N3287 1.613 . S
S3286 N3288 1.610 . S
N3287 S3286 1.613 . S
N3287 C3290 1.350 . S
N3288 S3286 1.610 . S
N3288 C3289 1.351 . S
C3289 C3283 1.428 . S
C3289 N3288 1.351 . S
C3289 C3290 1.434 . S
C3290 C3281 1.429 . S
C3290 N3287 1.350 . S
C3290 C3289 1.434 . S
C3291 C3292 1.369 . S
C3291 C3293 1.419 . S
C3291 H3295 0.930 . S
C3292 C3291 1.369 . S
C3292 C3301 1.429 . S
C3293 C3291 1.419 . S
C3293 C3294 1.363 . S
C3293 H3296 0.929 . S
C3294 C3293 1.363 . S
C3294 C3300 1.428 . S
H3295 C3291 0.930 . S
H3296 C3293 0.929 . S
S3297 N3298 1.613 . S
S3297 N3299 1.610 . S
N3298 S3297 1.613 . S
N3298 C3301 1.350 . S
N3299 S3297 1.610 . S
N3299 C3300 1.351 . S
C3300 C3294 1.428 . S
C3300 N3299 1.351 . S
C3300 C3301 1.434 . S
C3301 C3292 1.429 . S
C3301 N3298 1.350 . S
C3301 C3300 1.434 . S
C3302 C3303 1.369 . S
C3302 C3304 1.419 . S
C3302 H3306 0.930 . S
C3303 C3302 1.369 . S
C3303 C3312 1.429 . S
C3304 C3302 1.419 . S
C3304 C3305 1.363 . S
C3304 H3307 0.929 . S
C3305 C3304 1.363 . S
C3305 C3311 1.428 . S
H3306 C3302 0.930 . S
H3307 C3304 0.929 . S
S3308 N3309 1.613 . S
S3308 N3310 1.610 . S
N3309 S3308 1.613 . S
N3309 C3312 1.350 . S
N3310 S3308 1.610 . S
N3310 C3311 1.351 . S
C3311 C3305 1.428 . S
C3311 N3310 1.351 . S
C3311 C3312 1.434 . S
C3312 C3303 1.429 . S
C3312 N3309 1.350 . S
C3312 C3311 1.434 . S
C3313 C3314 1.369 1_565 S
C3313 C3315 1.419 . S
C3313 H3317 0.930 . S
C3314 C3313 1.369 1_545 S
C3314 C3323 1.429 . S
C3315 C3313 1.419 . S
C3315 C3316 1.363 . S
C3315 H3318 0.929 . S
C3316 C3315 1.363 . S
C3316 C3322 1.428 1_565 S
H3317 C3313 0.930 . S
H3318 C3315 0.929 . S
S3319 N3320 1.613 . S
S3319 N3321 1.610 . S
N3320 S3319 1.613 . S
N3320 C3323 1.350 . S
N3321 S3319 1.610 . S
N3321 C3322 1.351 . S
C3322 C3316 1.428 1_545 S
C3322 N3321 1.351 . S
C3322 C3323 1.434 . S
C3323 C3314 1.429 . S
C3323 N3320 1.350 . S
C3323 C3322 1.434 . S
C3324 C3325 1.369 . S
C3324 C3326 1.419 . S
C3324 H3328 0.930 . S
C3325 C3324 1.369 . S
C3325 C3334 1.429 . S
C3326 C3324 1.419 . S
C3326 C3327 1.363 . S
C3326 H3329 0.929 . S
C3327 C3326 1.363 . S
C3327 C3333 1.428 . S
H3328 C3324 0.930 . S
H3329 C3326 0.929 . S
S3330 N3331 1.613 . S
S3330 N3332 1.610 . S
N3331 S3330 1.613 . S
N3331 C3334 1.350 . S
N3332 S3330 1.610 . S
N3332 C3333 1.351 . S
C3333 C3327 1.428 . S
C3333 N3332 1.351 . S
C3333 C3334 1.434 . S
C3334 C3325 1.429 . S
C3334 N3331 1.350 . S
C3334 C3333 1.434 . S
C3335 C3336 1.369 1_565 S
C3335 C3337 1.419 . S
C3335 H3339 0.930 . S
C3336 C3335 1.369 1_545 S
C3336 C3345 1.429 . S
C3337 C3335 1.419 . S
C3337 C3338 1.363 . S
C3337 H3340 0.929 . S
C3338 C3337 1.363 . S
C3338 C3344 1.428 1_565 S
H3339 C3335 0.930 . S
H3340 C3337 0.929 . S
S3341 N3342 1.613 . S
S3341 N3343 1.610 . S
N3342 S3341 1.613 . S
N3342 C3345 1.350 . S
N3343 S3341 1.610 . S
N3343 C3344 1.351 . S
C3344 C3338 1.428 1_545 S
C3344 N3343 1.351 . S
C3344 C3345 1.434 . S
C3345 C3336 1.429 . S
C3345 N3342 1.350 . S
C3345 C3344 1.434 . S
C3346 C3347 1.369 1_556 S
C3346 C3348 1.419 1_565 S
C3346 H3350 0.930 . S
C3347 C3346 1.369 1_554 S
C3347 C3356 1.429 . S
C3348 C3346 1.419 1_545 S
C3348 C3349 1.363 . S
C3348 H3351 0.929 . S
C3349 C3348 1.363 . S
C3349 C3355 1.428 1_556 S
H3350 C3346 0.930 . S
H3351 C3348 0.929 . S
S3352 N3353 1.613 1_545 S
S3352 N3354 1.610 . S
N3353 S3352 1.613 1_565 S
N3353 C3356 1.350 . S
N3354 S3352 1.610 . S
N3354 C3355 1.351 . S
C3355 C3349 1.428 1_554 S
C3355 N3354 1.351 . S
C3355 C3356 1.434 1_545 S
C3356 C3347 1.429 . S
C3356 N3353 1.350 . S
C3356 C3355 1.434 1_565 S
C3357 C3358 1.369 . S
C3357 C3359 1.419 . S
C3357 H3361 0.930 . S
C3358 C3357 1.369 . S
C3358 C3367 1.429 . S
C3359 C3357 1.419 . S
C3359 C3360 1.363 . S
C3359 H3362 0.929 . S
C3360 C3359 1.363 . S
C3360 C3366 1.428 . S
H3361 C3357 0.930 . S
H3362 C3359 0.929 . S
S3363 N3364 1.613 . S
S3363 N3365 1.610 . S
N3364 S3363 1.613 . S
N3364 C3367 1.350 . S
N3365 S3363 1.610 . S
N3365 C3366 1.351 . S
C3366 C3360 1.428 . S
C3366 N3365 1.351 . S
C3366 C3367 1.434 . S
C3367 C3358 1.429 . S
C3367 N3364 1.350 . S
C3367 C3366 1.434 . S
C3368 C3369 1.369 . S
C3368 C3370 1.419 . S
C3368 H3372 0.930 . S
C3369 C3368 1.369 . S
C3369 C3378 1.429 . S
C3370 C3368 1.419 . S
C3370 C3371 1.363 . S
C3370 H3373 0.929 . S
C3371 C3370 1.363 . S
C3371 C3377 1.428 . S
H3372 C3368 0.930 . S
H3373 C3370 0.929 . S
S3374 N3375 1.613 . S
S3374 N3376 1.610 . S
N3375 S3374 1.613 . S
N3375 C3378 1.350 . S
N3376 S3374 1.610 . S
N3376 C3377 1.351 . S
C3377 C3371 1.428 . S
C3377 N3376 1.351 . S
C3377 C3378 1.434 . S
C3378 C3369 1.429 . S
C3378 N3375 1.350 . S
C3378 C3377 1.434 . S
C3379 C3380 1.369 . S
C3379 C3381 1.419 . S
C3379 H3383 0.930 . S
C3380 C3379 1.369 . S
C3380 C3389 1.429 . S
C3381 C3379 1.419 . S
C3381 C3382 1.363 . S
C3381 H3384 0.929 . S
C3382 C3381 1.363 . S
C3382 C3388 1.428 . S
H3383 C3379 0.930 . S
H3384 C3381 0.929 . S
S3385 N3386 1.613 . S
S3385 N3387 1.610 . S
N3386 S3385 1.613 . S
N3386 C3389 1.350 . S
N3387 S3385 1.610 . S
N3387 C3388 1.351 . S
C3388 C3382 1.428 . S
C3388 N3387 1.351 . S
C3388 C3389 1.434 . S
C3389 C3380 1.429 . S
C3389 N3386 1.350 . S
C3389 C3388 1.434 . S
C3390 C3391 1.369 . S
C3390 C3392 1.419 . S
C3390 H3394 0.930 . S
C3391 C3390 1.369 . S
C3391 C3400 1.429 . S
C3392 C3390 1.419 . S
C3392 C3393 1.363 . S
C3392 H3395 0.929 . S
C3393 C3392 1.363 . S
C3393 C3399 1.428 . S
H3394 C3390 0.930 . S
H3395 C3392 0.929 . S
S3396 N3397 1.613 . S
S3396 N3398 1.610 . S
N3397 S3396 1.613 . S
N3397 C3400 1.350 . S
N3398 S3396 1.610 . S
N3398 C3399 1.351 . S
C3399 C3393 1.428 . S
C3399 N3398 1.351 . S
C3399 C3400 1.434 . S
C3400 C3391 1.429 . S
C3400 N3397 1.350 . S
C3400 C3399 1.434 . S
C3401 C3402 1.369 . S
C3401 C3403 1.419 . S
C3401 H3405 0.930 . S
C3402 C3401 1.369 . S
C3402 C3411 1.429 . S
C3403 C3401 1.419 . S
C3403 C3404 1.363 . S
C3403 H3406 0.929 . S
C3404 C3403 1.363 . S
C3404 C3410 1.428 . S
H3405 C3401 0.930 . S
H3406 C3403 0.929 . S
S3407 N3408 1.613 . S
S3407 N3409 1.610 . S
N3408 S3407 1.613 . S
N3408 C3411 1.350 . S
N3409 S3407 1.610 . S
N3409 C3410 1.351 . S
C3410 C3404 1.428 . S
C3410 N3409 1.351 . S
C3410 C3411 1.434 . S
C3411 C3402 1.429 . S
C3411 N3408 1.350 . S
C3411 C3410 1.434 . S
C3412 C3413 1.369 . S
C3412 C3414 1.419 . S
C3412 H3416 0.930 . S
C3413 C3412 1.369 . S
C3413 C3422 1.429 . S
C3414 C3412 1.419 . S
C3414 C3415 1.363 . S
C3414 H3417 0.929 . S
C3415 C3414 1.363 . S
C3415 C3421 1.428 . S
H3416 C3412 0.930 . S
H3417 C3414 0.929 . S
S3418 N3419 1.613 . S
S3418 N3420 1.610 . S
N3419 S3418 1.613 . S
N3419 C3422 1.350 . S
N3420 S3418 1.610 . S
N3420 C3421 1.351 . S
C3421 C3415 1.428 . S
C3421 N3420 1.351 . S
C3421 C3422 1.434 . S
C3422 C3413 1.429 . S
C3422 N3419 1.350 . S
C3422 C3421 1.434 . S
C3423 C3424 1.369 . S
C3423 C3425 1.419 1_565 S
C3423 H3427 0.930 . S
C3424 C3423 1.369 . S
C3424 C3433 1.429 1_556 S
C3425 C3423 1.419 1_545 S
C3425 C3426 1.363 1_556 S
C3425 H3428 0.929 . S
C3426 C3425 1.363 1_554 S
C3426 C3432 1.428 . S
H3427 C3423 0.930 . S
H3428 C3425 0.929 . S
S3429 N3430 1.613 . S
S3429 N3431 1.610 1_565 S
N3430 S3429 1.613 . S
N3430 C3433 1.350 . S
N3431 S3429 1.610 1_545 S
N3431 C3432 1.351 . S
C3432 C3426 1.428 . S
C3432 N3431 1.351 . S
C3432 C3433 1.434 1_545 S
C3433 C3424 1.429 1_554 S
C3433 N3430 1.350 . S
C3433 C3432 1.434 1_565 S
C3434 C3435 1.369 . S
C3434 C3436 1.419 . S
C3434 H3438 0.930 . S
C3435 C3434 1.369 . S
C3435 C3444 1.429 . S
C3436 C3434 1.419 . S
C3436 C3437 1.363 . S
C3436 H3439 0.929 . S
C3437 C3436 1.363 . S
C3437 C3443 1.428 . S
H3438 C3434 0.930 . S
H3439 C3436 0.929 . S
S3440 N3441 1.613 . S
S3440 N3442 1.610 . S
N3441 S3440 1.613 . S
N3441 C3444 1.350 . S
N3442 S3440 1.610 . S
N3442 C3443 1.351 . S
C3443 C3437 1.428 . S
C3443 N3442 1.351 . S
C3443 C3444 1.434 . S
C3444 C3435 1.429 . S
C3444 N3441 1.350 . S
C3444 C3443 1.434 . S
C3445 C3446 1.369 . S
C3445 C3447 1.419 . S
C3445 H3449 0.930 . S
C3446 C3445 1.369 . S
C3446 C3455 1.429 . S
C3447 C3445 1.419 . S
C3447 C3448 1.363 . S
C3447 H3450 0.929 . S
C3448 C3447 1.363 . S
C3448 C3454 1.428 . S
H3449 C3445 0.930 . S
H3450 C3447 0.929 . S
S3451 N3452 1.613 . S
S3451 N3453 1.610 . S
N3452 S3451 1.613 . S
N3452 C3455 1.350 . S
N3453 S3451 1.610 . S
N3453 C3454 1.351 . S
C3454 C3448 1.428 . S
C3454 N3453 1.351 . S
C3454 C3455 1.434 . S
C3455 C3446 1.429 . S
C3455 N3452 1.350 . S
C3455 C3454 1.434 . S
C1345 C9 1.504 . S
C1347 C456 1.578 . S
C1356 C806 1.579 . S
C1358 C23 1.497 . S
C1367 C484 1.578 . S
C1369 C37 1.494 . S
C1378 C51 1.502 . S
C1380 C834 1.577 . S
C1389 C65 1.503 . S
C1391 C512 1.578 . S
C1400 C79 1.493 . S
C1402 C862 1.578 . S
C1411 C93 1.503 . S
C1413 C540 1.578 . S
C1422 C107 1.503 . S
C1424 C890 1.578 . S
C1433 C904 1.578 . S
C1435 C121 1.497 . S
C1444 C1002 1.579 . S
C1446 C135 1.499 . S
C1455 C149 1.497 . S
C1457 C1310 1.579 . S
C1466 C163 1.498 . S
C1468 C988 1.579 . S
C1477 C246 1.577 . S
C1479 C177 1.502 . S
C1488 C191 1.503 . S
C1490 C260 1.578 . S
C1499 C205 1.494 . S
C1501 C274 1.578 . S
C1510 C1296 1.577 . S
C1512 C219 1.502 . S
C1521 C1016 1.578 . S
C1523 C233 1.501 . S
C1532 C247 1.497 . S
C1534 C400 1.579 . S
C1543 C750 1.578 . S
C1545 C261 1.495 . S
C1554 C275 1.502 . S
C1556 C428 1.577 . S
C1565 C442 1.578 . S
C1567 C289 1.502 . S
C1576 C708 1.579 . S
C1578 C303 1.494 . S
C1587 C50 1.577 . S
C1589 C317 1.502 . S
C1598 C22 1.577 . S
C1600 C331 1.502 . S
C1609 C345 1.503 . S
C1611 C120 1.577 . S
C1620 C1142 1.579 . S
C1622 C359 1.496 . S
C1631 C148 1.578 . S
C1633 C373 1.494 . S
C1642 C387 1.494 . S
C1644 C1170 1.579 . S
C1653 C401 1.497 . S
C1655 C176 1.578 . S
C1664 C1198 1.578 . S
C1666 C415 1.501 . S
C1675 C429 1.494 . S
C1677 C204 1.578 . S
C1686 C1226 1.577 . S
C1688 C443 1.500 . S
C1697 C1240 1.578 . S
C1699 C457 1.496 . S
C1708 C471 1.501 . S
C1710 C1338 1.578 . S
C1719 C974 1.579 . S
C1721 C485 1.500 . S
C1730 C1324 1.578 . S
C1732 C499 1.496 . S
C1741 C513 1.503 . S
C1743 C582 1.578 . S
C1752 C596 1.578 . S
C1754 C527 1.495 . S
C1763 C610 1.579 . S
C1765 C541 1.496 . S
C1774 C555 1.499 . S
C1776 C960 1.577 . S
C1785 C680 1.579 . S
C1787 C569 1.495 . S
C1796 C583 1.503 . S
C1798 C64 1.577 . S
C1807 C1086 1.579 . S
C1809 C597 1.495 . S
C1818 C92 1.577 . S
C1820 C611 1.497 . S
C1829 C625 1.498 . S
C1831 C106 1.579 . S
C1840 C1044 1.577 . S
C1842 C639 1.501 . S
C1851 C386 1.577 . S
C1853 C653 1.501 . S
C1862 C358 1.579 . S
C1864 C667 1.495 . S
C1873 C1128 1.578 . S
C1875 C681 1.495 . S
C1884 C134 1.577 . S
C1886 C695 1.502 . S
C1895 C1156 1.578 . S
C1897 C709 1.502 . S
C1906 C723 1.493 . S
C1908 C162 1.578 . S
C1917 C1184 1.577 . S
C1919 C737 1.501 . S
C1928 C751 1.502 . S
C1930 C190 1.577 . S
C1939 C765 1.497 . S
C1941 C1212 1.579 . S
C1950 C779 1.504 . S
C1952 C218 1.578 . S
C1961 C232 1.577 . S
C1963 C793 1.501 . S
C1972 C807 1.493 . S
C1974 C330 1.579 . S
C1983 C821 1.503 . S
C1985 C638 1.578 . S
C1994 C316 1.579 . S
C1996 C835 1.495 . S
C2005 C849 1.493 . S
C2007 C918 1.579 . S
C2016 C932 1.578 . S
C2018 C863 1.496 . S
C2027 C946 1.578 . S
C2029 C877 1.501 . S
C2038 C891 1.493 . S
C2040 C624 1.578 . S
C2049 C905 1.493 . S
C2051 C344 1.578 . S
C2060 C1072 1.578 . S
C2062 C919 1.500 . S
C2071 C933 1.502 . S
C2073 C78 1.578 . S
C2082 C947 1.493 . S
C2084 C1100 1.579 . S
C2093 C1114 1.579 . S
C2095 C961 1.495 . S
C2104 C36 1.578 . S
C2106 C975 1.501 . S
C2115 C989 1.494 . S
C2117 C722 1.579 . S
C2126 C1003 1.501 . S
C2128 C694 1.578 . S
C2137 C792 1.577 . S
C2139 C1017 1.502 . S
C2148 C470 1.578 . S
C2150 C1031 1.502 . S
C2159 C820 1.578 . S
C2161 C1045 1.497 . S
C2170 C1059 1.500 . S
C2172 C498 1.578 . S
C2181 C1073 1.494 . S
C2183 C848 1.578 . S
C2192 C526 1.577 . S
C2194 C1087 1.499 . S
C2203 C876 1.578 . S
C2205 C1101 1.502 . S
C2214 C554 1.577 . S
C2216 C1115 1.498 . S
C2225 C1129 1.503 . S
C2227 C568 1.578 . S
C2236 C666 1.579 . S
C2238 C1143 1.495 . S
C2247 C302 1.578 . S
C2249 C1157 1.502 . S
C2258 C1171 1.493 . S
C2260 C652 1.579 . S
C2269 C1254 1.577 . S
C2271 C1185 1.502 . S
C2280 C1268 1.579 . S
C2282 C1199 1.495 . S
C2291 C1213 1.493 . S
C2293 C1282 1.578 . S
C2302 C1227 1.501 . S
C2304 C288 1.577 . S
C2313 C8 1.577 . S
C2315 C1241 1.502 . S
C2324 C736 1.579 . S
C2326 C1255 1.498 . S
C2335 C1269 1.498 . S
C2337 C414 1.578 . S
C2346 C1283 1.493 . S
C2348 C764 1.578 . S
C2357 C778 1.579 . S
C2359 C1297 1.494 . S
C2368 C372 1.578 . S
C2370 C1311 1.495 . S
C2379 C1058 1.578 . S
C2381 C1325 1.494 . S
C2390 C1030 1.578 . S
C2392 C1339 1.502 . S
C2401 C1225 1.507 . S
C2403 C7 1.512 . S
C2412 C21 1.520 . S
C2414 C1183 1.519 . S
C2423 C35 1.508 . S
C2425 C1197 1.509 . S
C2434 C49 1.508 . S
C2436 C1211 1.509 . S
C2445 C133 1.519 . S
C2447 C63 1.520 . S
C2456 C77 1.521 . S
C2458 C147 1.517 . S
C2467 C91 1.521 . S
C2469 C161 1.515 . S
C2478 C105 1.513 . S
C2480 C119 1.509 . S
C2489 C175 1.513 . S
C2491 C1029 1.518 . S
C2500 C189 1.512 . S
C2502 C1043 1.517 . S
C2511 C203 1.512 . S
C2513 C1057 1.518 . S
C2522 C1015 1.513 . S
C2524 C217 1.509 . S
C2533 C1295 1.514 . S
C2535 C231 1.519 . S
C2544 C245 1.509 . S
C2546 C1337 1.515 . S
C2555 C259 1.511 . S
C2557 C637 1.509 . S
C2566 C1323 1.521 . S
C2568 C273 1.518 . S
C2577 C287 1.509 . S
C2579 C1239 1.509 . S
C2588 C301 1.521 . S
C2590 C595 1.518 . S
C2599 C315 1.515 . S
C2601 C1281 1.510 . S
C2610 C329 1.521 . S
C2612 C1253 1.516 . S
C2621 C889 1.520 . S
C2623 C343 1.520 . S
C2632 C357 1.521 . S
C2634 C847 1.518 . S
C2643 C861 1.520 . S
C2645 C371 1.519 . S
C2654 C385 1.511 . S
C2656 C875 1.517 . S
C2665 C399 1.517 . S
C2667 C469 1.520 . S
C2676 C413 1.519 . S
C2678 C483 1.513 . S
C2687 C497 1.513 . S
C2689 C427 1.518 . S
C2698 C441 1.509 . S
C2700 C455 1.515 . S
C2709 C693 1.518 . S
C2711 C511 1.520 . S
C2720 C707 1.507 . S
C2722 C525 1.511 . S
C2731 C721 1.512 . S
C2733 C539 1.509 . S
C2742 C679 1.518 . S
C2744 C553 1.520 . S
C2753 C567 1.511 . S
C2755 C959 1.517 . S
C2764 C581 1.518 . S
C2766 C1001 1.512 . S
C2775 C987 1.507 . S
C2777 C609 1.513 . S
C2786 C623 1.508 . S
C2788 C903 1.509 . S
C2797 C651 1.515 . S
C2799 C945 1.510 . S
C2808 C665 1.517 . S
C2810 C917 1.520 . S
C2819 C735 1.515 . S
C2821 C805 1.519 . S
C2830 C749 1.521 . S
C2832 C819 1.516 . S
C2841 C763 1.516 . S
C2843 C833 1.511 . S
C2852 C777 1.510 . S
C2854 C791 1.509 . S
C2863 C1309 1.513 . S
C2865 C931 1.518 . S
C2874 C1267 1.518 . S
C2876 C973 1.512 . S
C2885 C1071 1.509 . S
C2887 C1141 1.509 . S
C2896 C1085 1.515 . S
C2898 C1155 1.510 . S
C2907 C1169 1.519 . S
C2909 C1099 1.513 . S
C2918 C1113 1.521 . S
C2920 C1127 1.515 . S
C2929 C370 1.546 . S
C2931 C6 1.546 . S
C2940 C20 1.538 . S
C2942 C720 1.544 . S
C2951 C34 1.537 1_545 S
C2953 C342 1.544 1_565 S
C2962 C692 1.540 . S
C2964 C48 1.537 . S
C2973 C62 1.544 . S
C2975 C426 1.538 . S
C2984 C76 1.544 . S
C2986 C776 1.538 . S
C2995 C90 1.548 1_565 S
C2997 C398 1.544 1_545 S
C3006 C104 1.546 . S
C3008 C748 1.546 . S
C3017 C118 1.547 . S
C3019 C174 1.546 . S
C3028 C188 1.547 . S
C3030 C132 1.546 . S
C3039 C146 1.536 1_556 S
C3041 C202 1.542 1_554 S
C3050 C160 1.543 . S
C3052 C216 1.537 . S
C3061 C230 1.539 . S
C3063 C1280 1.537 . S
C3072 C972 1.546 1_455 S
C3074 C244 1.539 1_655 S
C3083 C314 1.547 . S
C3085 C258 1.541 . S
C3094 C1238 1.545 1_655 S
C3096 C272 1.546 1_455 S
C3105 C1336 1.538 . S
C3107 C286 1.544 . S
C3116 C300 1.537 . S
C3118 C916 1.537 . S
C3127 C1294 1.545 . S
C3129 C328 1.539 . S
C3138 C356 1.536 . S
C3140 C1056 1.543 . S
C3149 C1028 1.539 . S
C3151 C384 1.545 . S
C3160 C412 1.545 . S
C3162 C1112 1.546 . S
C3171 C440 1.535 . S
C3173 C1084 1.540 . S
C3182 C510 1.539 1_554 S
C3184 C454 1.537 1_556 S
C3193 C524 1.544 . S
C3195 C468 1.546 . S
C3204 C538 1.547 . S
C3206 C482 1.540 . S
C3215 C552 1.544 . S
C3217 C496 1.546 . S
C3226 C944 1.547 . S
C3228 C566 1.541 . S
C3237 C1308 1.538 1_455 S
C3239 C580 1.545 1_655 S
C3248 C594 1.538 . S
C3250 C650 1.545 . S
C3259 C608 1.546 1_455 S
C3261 C902 1.546 1_655 S
C3270 C622 1.547 . S
C3272 C1000 1.540 . S
C3281 C636 1.545 . S
C3283 C1252 1.546 . S
C3292 C664 1.538 . S
C3294 C958 1.544 . S
C3303 C1042 1.537 . S
C3305 C678 1.543 . S
C3314 C706 1.538 1_545 S
C3316 C1014 1.537 1_565 S
C3325 C1098 1.543 . S
C3327 C734 1.538 . S
C3336 C1070 1.545 1_545 S
C3338 C762 1.539 1_565 S
C3347 C846 1.547 1_554 S
C3349 C790 1.541 1_556 S
C3358 C804 1.543 . S
C3360 C860 1.538 . S
C3369 C818 1.538 . S
C3371 C874 1.544 . S
C3380 C888 1.547 . S
C3382 C832 1.541 . S
C3391 C986 1.547 . S
C3393 C930 1.541 . S
C3402 C1126 1.537 . S
C3404 C1182 1.538 . S
C3413 C1140 1.538 . S
C3415 C1196 1.544 . S
C3424 C1154 1.536 1_556 S
C3426 C1210 1.543 1_554 S
C3435 C1224 1.539 . S
C3437 C1168 1.537 . S
C3446 C1322 1.544 . S
C3448 C1266 1.546 . S
