# Generated by pormake.
# Topology unm, (4)-cn, num edge types: 1
# Building blocks:
#     Node 0, Type 0, BuildingBlock: UXUYUI_clean_sbu_0, # of connection points: 4
#     Node 1, Type 0, BuildingBlock: UXUYUI_clean_sbu_0, # of connection points: 4
#     Node 2, Type 0, BuildingBlock: UXUYUI_clean_sbu_0, # of connection points: 4
#     Node 3, Type 0, BuildingBlock: UXUYUI_clean_sbu_0, # of connection points: 4
#     Node 4, Type 0, BuildingBlock: UXUYUI_clean_sbu_0, # of connection points: 4
#     Node 5, Type 0, BuildingBlock: UXUYUI_clean_sbu_0, # of connection points: 4
#     Node 6, Type 0, BuildingBlock: UXUYUI_clean_sbu_0, # of connection points: 4
#     Node 7, Type 0, BuildingBlock: UXUYUI_clean_sbu_0, # of connection points: 4
#     Edge 8, Type (0, 0), None
#     Edge 9, Type (0, 0), None
#     Edge 10, Type (0, 0), None
#     Edge 11, Type (0, 0), None
#     Edge 12, Type (0, 0), None
#     Edge 13, Type (0, 0), None
#     Edge 14, Type (0, 0), None
#     Edge 15, Type (0, 0), None
#     Edge 16, Type (0, 0), None
#     Edge 17, Type (0, 0), None
#     Edge 18, Type (0, 0), None
#     Edge 19, Type (0, 0), None
#     Edge 20, Type (0, 0), None
#     Edge 21, Type (0, 0), None
#     Edge 22, Type (0, 0), None
#     Edge 23, Type (0, 0), None
# Relax obj value: 0.260
# Max RMSD: 0.186
# Mean RMSD: 0.185
data_MOF--net-unm--node1-UXUYUI_clean_sbu_0--edge1-none
_symmetry_space_group_name_H-M    P1
_symmetry_Int_Tables_number       1
_symmetry_cell_setting            triclinic
loop_
_symmetry_equiv_pos_as_xyz
'x, y, z'
_cell_length_a     23.877671
_cell_length_b     23.859893
_cell_length_c     38.652944
_cell_angle_alpha  89.999961
_cell_angle_beta   89.999919
_cell_angle_gamma 90.003939
loop_
_atom_site_label
_atom_site_type_symbol
_atom_site_fract_x
_atom_site_fract_y
_atom_site_fract_z
_atom_type_partial_charge
Li0 Li 0.08105 0.29872 0.15184 0.0
Li1 Li 0.14974 0.24918 0.18969 0.0
Li2 Li 0.10027 0.20048 0.13823 0.0
Li3 Li 0.04741 0.22857 0.19234 0.0
C4 C 0.18572 0.29605 0.1172 0.0
N5 N 0.2514 0.36 0.07353 0.0
C6 C 0.22569 0.33272 0.13084 0.0
C7 C 0.17945 0.29158 0.08134 0.0
C8 C 0.25841 0.36478 0.10833 0.0
C9 C 0.21297 0.32437 0.05971 0.0
C10 C 0.08056 0.31737 0.23573 0.0
C11 C 0.08873 0.30171 0.29712 0.0
N12 N 0.06401 0.35216 0.30309 0.0
C13 C 0.05543 0.36914 0.24241 0.0
C14 C 0.09748 0.2834 0.26322 0.0
C15 C 0.04734 0.38595 0.27667 0.0
C16 C 1.00307 0.37988 0.14193 0.0
N17 N 0.0573 0.36859 0.13394 0.0
C18 C 0.06874 0.45997 0.10989 0.0
C19 C 0.09003 0.40688 0.11751 0.0
C20 C 0.01344 0.47318 0.11924 0.0
C21 C 0.97996 0.43182 0.13446 0.0
H22 H 0.97827 0.34921 0.15548 0.0
H23 H 0.13313 0.39755 0.1117 0.0
C24 C 0.25827 0.21595 0.21188 0.0
N25 N 0.22008 0.25806 0.21366 0.0
C26 C 0.31082 0.22182 0.2275 0.0
C27 C 0.28434 0.31458 0.24632 0.0
C28 C 0.23223 0.30693 0.23027 0.0
C29 C 0.32454 0.27155 0.24528 0.0
H30 H 0.24801 0.17789 0.19805 0.0
H31 H 0.20159 0.34029 0.23084 0.0
C32 C 0.989 0.25035 0.11845 0.0
N33 N 0.91143 0.27883 0.06844 0.0
C34 C 0.93175 0.24666 0.12561 0.0
C35 C 0.00682 0.26844 0.08587 0.0
C36 C 0.89318 0.26129 0.09997 0.0
C37 C 0.96696 0.28265 0.06093 0.0
C38 C 0.0989 0.12237 0.20184 0.0
C39 C 0.07947 0.07903 0.1807 0.0
C40 C 0.1079 0.11243 0.23704 0.0
C41 C 0.06988 0.02619 0.19511 0.0
C42 C 0.09666 0.05931 0.2506 0.0
N43 N 0.0783 0.01757 0.2295 0.0
C44 C 0.16163 0.14458 0.08678 0.0
C45 C 0.06332 0.14021 0.07878 0.0
C46 C 0.17054 0.12427 0.05333 0.0
N47 N 0.10871 0.15367 0.0984 0.0
C48 C 0.07032 0.1207 0.04491 0.0
C49 C 0.12453 0.11391 0.03152 0.0
H50 H 0.19694 0.15675 0.10263 0.0
H51 H 0.02163 0.14768 0.08861 0.0
C52 C 0.95253 0.26946 0.22142 0.0
N53 N 0.98112 0.22023 0.22074 0.0
C54 C 0.9019 0.27429 0.23901 0.0
C55 C 0.90941 0.17688 0.2551 0.0
C56 C 0.96058 0.17396 0.23703 0.0
C57 C 0.87938 0.22783 0.25634 0.0
H58 H 0.96891 0.30526 0.20776 0.0
H59 H 0.98332 0.13482 0.23578 0.0
O60 O 0.15383 0.26386 0.13884 0.0
O61 O 0.08805 0.29994 0.20235 0.0
O62 O 0.02732 0.237 0.14345 0.0
O63 O 0.11254 0.17307 0.18765 0.0
H64 H 0.23114 0.33671 0.15848 0.0
H65 H 0.14914 0.26309 0.07028 0.0
H66 H 0.28933 0.3935 0.11854 0.0
H67 H 0.20848 0.32142 0.03192 0.0
H68 H 0.10158 0.27582 0.31868 0.0
H69 H 0.04206 0.39587 0.22133 0.0
H70 H 0.11722 0.24342 0.25839 0.0
H71 H 0.02777 0.42583 0.28226 0.0
H72 H 0.09587 0.49115 0.0983 0.0
H73 H 0.93758 0.44073 0.14283 0.0
H74 H 0.3406 0.18776 0.22542 0.0
H75 H 0.29261 0.3534 0.25989 0.0
H76 H 0.91727 0.23272 0.15071 0.0
H77 H 0.05094 0.27183 0.08004 0.0
H78 H 0.84873 0.25871 0.10514 0.0
H79 H 0.98017 0.29683 0.03563 0.0
H80 H 0.07294 0.08578 0.15332 0.0
H81 H 0.12387 0.14515 0.25368 0.0
H82 H 0.05601 0.99195 0.1789 0.0
H83 H 0.10321 0.05108 0.27782 0.0
H84 H 0.21306 0.12017 0.0439 0.0
H85 H 0.03383 0.1127 0.02901 0.0
H86 H 0.88004 0.31404 0.23834 0.0
H87 H 0.89379 0.13984 0.26809 0.0
Li88 Li 0.30262 0.5865 0.63814 0.0
Li89 Li 0.26239 0.64565 0.68717 0.0
Li90 Li 0.28014 0.53856 0.69353 0.0
Li91 Li 0.20839 0.57514 0.65626 0.0
C92 C 0.39045 0.61481 0.67913 0.0
N93 N 0.50039 0.64206 0.66457 0.0
C94 C 0.40726 0.6709 0.67852 0.0
C95 C 0.42957 0.57251 0.67265 0.0
C96 C 0.46307 0.68382 0.67108 0.0
C97 C 0.48495 0.58719 0.66519 0.0
C98 C 0.20097 0.66718 0.61836 0.0
C99 C 0.12167 0.72915 0.6125 0.0
N100 N 0.11515 0.7121 0.57917 0.0
C101 C 0.1935 0.65036 0.58403 0.0
C102 C 0.16479 0.70695 0.63273 0.0
C103 C 0.14986 0.67351 0.56466 0.0
C104 C 0.31736 0.55618 0.57005 0.0
N105 N 0.34219 0.58839 0.59474 0.0
C106 C 0.40047 0.63134 0.55184 0.0
C107 C 0.38376 0.625 0.58641 0.0
C108 C 0.3732 0.60063 0.52571 0.0
C109 C 0.33224 0.5616 0.53534 0.0
H110 H 0.28321 0.52867 0.57702 0.0
H111 H 0.40164 0.65167 0.60608 0.0
C112 C 0.24383 0.71982 0.74397 0.0
N113 N 0.25788 0.71747 0.7099 0.0
C114 C 0.23288 0.77144 0.75987 0.0
C115 C 0.25234 0.81753 0.70559 0.0
C116 C 0.26315 0.76505 0.69079 0.0
C117 C 0.23631 0.82139 0.74057 0.0
H118 H 0.23982 0.68141 0.75864 0.0
H119 H 0.27388 0.7621 0.66366 0.0
C120 C 0.2822 0.46263 0.64158 0.0
N121 N 0.32243 0.35464 0.63403 0.0
C122 C 0.24822 0.41675 0.64978 0.0
C123 C 0.3367 0.45346 0.62954 0.0
C124 C 0.26935 0.36252 0.64582 0.0
C125 C 0.35621 0.39858 0.62585 0.0
C126 C 0.16097 0.57407 0.71775 0.0
C127 C 0.13996 0.51952 0.71508 0.0
C128 C 0.12711 0.61654 0.73127 0.0
C129 C 0.08538 0.50836 0.72598 0.0
C130 C 0.07271 0.60364 0.74194 0.0
N131 N 0.0532 0.55028 0.73912 0.0
C132 C 0.25677 0.47428 0.75329 0.0
C133 C 0.32819 0.43392 0.71913 0.0
C134 C 0.25028 0.42443 0.77187 0.0
N135 N 0.29282 0.47723 0.72609 0.0
C136 C 0.3232 0.38309 0.7371 0.0
C137 C 0.28208 0.37701 0.76298 0.0
H138 H 0.2305 0.50967 0.75947 0.0
H139 H 0.35824 0.43752 0.69839 0.0
C140 C 0.1315 0.50903 0.62056 0.0
N141 N 0.13625 0.5577 0.63859 0.0
C142 C 0.07885 0.48698 0.61324 0.0
C143 C 0.03712 0.5688 0.63975 0.0
C144 C 0.09058 0.58887 0.64695 0.0
C145 C 0.03106 0.51616 0.62402 0.0
H146 H 0.16852 0.48581 0.61345 0.0
H147 H 0.09538 0.62736 0.66131 0.0
O148 O 0.33609 0.60141 0.68652 0.0
O149 O 0.24339 0.64486 0.6378 0.0
O150 O 0.26204 0.51605 0.64534 0.0
O151 O 0.21447 0.58566 0.70723 0.0
H152 H 0.37748 0.70408 0.68363 0.0
H153 H 0.41726 0.52888 0.67342 0.0
H154 H 0.47668 0.72705 0.67041 0.0
H155 H 0.5157 0.55502 0.65994 0.0
H156 H 0.09318 0.75967 0.62338 0.0
H157 H 0.22083 0.61956 0.57247 0.0
H158 H 0.16906 0.71967 0.65943 0.0
H159 H 0.14356 0.66075 0.53809 0.0
H160 H 0.43168 0.66259 0.5454 0.0
H161 H 0.31018 0.53719 0.51603 0.0
H162 H 0.22202 0.7721 0.78706 0.0
H163 H 0.25523 0.85451 0.68947 0.0
H164 H 0.20611 0.42293 0.65938 0.0
H165 H 0.36405 0.4882 0.62357 0.0
H166 H 0.24358 0.3267 0.65223 0.0
H167 H 0.39835 0.39095 0.61671 0.0
H168 H 0.1654 0.48629 0.70434 0.0
H169 H 0.14239 0.65908 0.7332 0.0
H170 H 0.06862 0.46639 0.72389 0.0
H171 H 0.04595 0.63608 0.75238 0.0
H172 H 0.21839 0.42244 0.79174 0.0
H173 H 0.35024 0.34849 0.73009 0.0
H174 H 0.07549 0.44641 0.60082 0.0
H175 H 1.00106 0.59211 0.64881 0.0
Li176 Li 0.85727 0.75564 0.18969 0.0
Li177 Li 0.92596 0.70609 0.15184 0.0
Li178 Li 0.9596 0.77625 0.19233 0.0
Li179 Li 0.90675 0.80434 0.13822 0.0
C180 C 0.92653 0.68743 0.23571 0.0
N181 N 0.94324 0.6526 0.30305 0.0
C182 C 0.95174 0.63569 0.24237 0.0
C183 C 0.9096 0.72135 0.26323 0.0
C184 C 0.95991 0.61886 0.27662 0.0
C185 C 0.91844 0.70302 0.29712 0.0
C186 C 0.82127 0.70877 0.1172 0.0
C187 C 0.79401 0.68044 0.05972 0.0
N188 N 0.75557 0.64483 0.07356 0.0
C189 C 0.7813 0.67212 0.13085 0.0
C190 C 0.82754 0.71322 0.08135 0.0
C191 C 0.74856 0.64007 0.10836 0.0
C192 C 0.74872 0.78885 0.21184 0.0
N193 N 0.78693 0.74677 0.21366 0.0
C194 C 0.72269 0.69027 0.24635 0.0
C195 C 0.77481 0.69792 0.2303 0.0
C196 C 0.68247 0.73327 0.24527 0.0
C197 C 0.69616 0.78297 0.22746 0.0
H198 H 0.75895 0.82688 0.19798 0.0
H199 H 0.80547 0.66459 0.2309 0.0
C200 C 0.00396 0.62494 0.14188 0.0
N201 N 0.94971 0.63622 0.13393 0.0
C202 C 0.02705 0.57299 0.13441 0.0
C203 C 0.93821 0.54482 0.10992 0.0
C204 C 0.91694 0.59791 0.11755 0.0
C205 C 0.99354 0.53163 0.11924 0.0
H206 H 0.02879 0.65563 0.1554 0.0
H207 H 0.87382 0.60723 0.11177 0.0
C208 C 0.90808 0.88244 0.20185 0.0
N209 N 0.92862 0.98722 0.22956 0.0
C210 C 0.92747 0.92583 0.18073 0.0
C211 C 0.89909 0.89233 0.23706 0.0
C212 C 0.93702 0.97865 0.19516 0.0
C213 C 0.91029 0.94544 0.25065 0.0
C214 C 0.01801 0.7545 0.11843 0.0
C215 C 0.07526 0.75825 0.12557 0.0
C216 C 1.00017 0.7364 0.08586 0.0
C217 C 0.11382 0.74367 0.09991 0.0
C218 C 0.04002 0.72224 0.0609 0.0
N219 N 0.09555 0.72611 0.06839 0.0
C220 C 0.05452 0.73538 0.22136 0.0
C221 C 0.0464 0.83085 0.23706 0.0
C222 C 0.10516 0.73055 0.23896 0.0
N223 N 0.02589 0.7846 0.22073 0.0
C224 C 0.09756 0.82792 0.25513 0.0
C225 C 0.12764 0.77699 0.25633 0.0
H226 H 0.03817 0.6996 0.20767 0.0
H227 H 0.02363 0.86997 0.23585 0.0
C228 C 0.84539 0.86022 0.08677 0.0
N229 N 0.89831 0.85115 0.0984 0.0
C230 C 0.83647 0.88054 0.05332 0.0
C231 C 0.9367 0.88414 0.04491 0.0
C232 C 0.9437 0.86463 0.07878 0.0
C233 C 0.88248 0.89092 0.03152 0.0
H234 H 0.81008 0.84804 0.10262 0.0
H235 H 0.98538 0.85717 0.08862 0.0
O236 O 0.91896 0.70488 0.20235 0.0
O237 O 0.85319 0.74096 0.13884 0.0
O238 O 0.89447 0.83175 0.18764 0.0
O239 O 0.9797 0.7678 0.14344 0.0
H240 H 0.96512 0.609 0.22127 0.0
H241 H 0.8898 0.76131 0.25843 0.0
H242 H 0.97954 0.579 0.28218 0.0
H243 H 0.90559 0.72887 0.31869 0.0
H244 H 0.79849 0.68337 0.03193 0.0
H245 H 0.77584 0.66815 0.1585 0.0
H246 H 0.85786 0.7417 0.07028 0.0
H247 H 0.71763 0.61136 0.11857 0.0
H248 H 0.71444 0.65147 0.25995 0.0
H249 H 0.66636 0.817 0.22534 0.0
H250 H 0.06945 0.5641 0.14274 0.0
H251 H 0.91106 0.51363 0.09837 0.0
H252 H 0.93399 0.91912 0.15335 0.0
H253 H 0.88316 0.85957 0.25369 0.0
H254 H 0.95086 0.01293 0.17897 0.0
H255 H 0.90375 0.95364 0.27787 0.0
H256 H 0.08974 0.7722 0.15066 0.0
H257 H 0.95605 0.73297 0.08004 0.0
H258 H 0.15827 0.74629 0.10507 0.0
H259 H 0.0268 0.70805 0.0356 0.0
H260 H 0.12705 0.69083 0.23825 0.0
H261 H 0.11316 0.86494 0.26815 0.0
H262 H 0.79395 0.88462 0.04389 0.0
H263 H 0.97318 0.89216 0.02901 0.0
Li264 Li 0.72687 0.46627 0.69353 0.0
Li265 Li 0.79861 0.42969 0.65626 0.0
Li266 Li 0.70438 0.41833 0.63814 0.0
Li267 Li 0.74462 0.35917 0.68717 0.0
C268 C 0.72481 0.5422 0.64158 0.0
N269 N 0.68458 0.65019 0.63402 0.0
C270 C 0.75879 0.58807 0.64977 0.0
C271 C 0.6703 0.55136 0.62954 0.0
C272 C 0.73766 0.6423 0.64582 0.0
C273 C 0.6508 0.60624 0.62584 0.0
C274 C 0.84603 0.43076 0.71775 0.0
C275 C 0.93429 0.40119 0.74194 0.0
N276 N 0.95381 0.45454 0.73912 0.0
C277 C 0.86705 0.48531 0.71508 0.0
C278 C 0.8799 0.38829 0.73127 0.0
C279 C 0.92162 0.49647 0.72598 0.0
C280 C 0.75024 0.53054 0.75329 0.0
N281 N 0.71419 0.5276 0.72609 0.0
C282 C 0.68381 0.62174 0.7371 0.0
C283 C 0.67882 0.57091 0.71912 0.0
C284 C 0.72493 0.62782 0.76297 0.0
C285 C 0.75673 0.58039 0.77187 0.0
H286 H 0.7765 0.49515 0.75947 0.0
H287 H 0.64877 0.56731 0.69839 0.0
C288 C 0.8755 0.49579 0.62055 0.0
N289 N 0.87075 0.44712 0.63859 0.0
C290 C 0.92816 0.51784 0.61324 0.0
C291 C 0.96988 0.43603 0.63975 0.0
C292 C 0.91643 0.41595 0.64695 0.0
C293 C 0.97594 0.48866 0.62402 0.0
H294 H 0.83848 0.51901 0.61345 0.0
H295 H 0.91163 0.37746 0.66131 0.0
C296 C 0.61656 0.39002 0.67914 0.0
N297 N 0.50661 0.36277 0.66458 0.0
C298 C 0.59974 0.33393 0.67852 0.0
C299 C 0.57744 0.43232 0.67266 0.0
C300 C 0.54393 0.32101 0.67109 0.0
C301 C 0.52205 0.41764 0.66519 0.0
C302 C 0.80604 0.33764 0.61836 0.0
C303 C 0.8135 0.35445 0.58403 0.0
C304 C 0.84222 0.29788 0.63273 0.0
C305 C 0.85714 0.3313 0.56466 0.0
C306 C 0.88533 0.27567 0.61251 0.0
N307 N 0.89185 0.29271 0.57918 0.0
C308 C 0.68965 0.44864 0.57005 0.0
C309 C 0.62324 0.37983 0.58642 0.0
C310 C 0.67478 0.44322 0.53533 0.0
N311 N 0.66482 0.41643 0.59474 0.0
C312 C 0.60652 0.37349 0.55185 0.0
C313 C 0.6338 0.4042 0.52571 0.0
H314 H 0.7238 0.47615 0.57701 0.0
H315 H 0.60535 0.35317 0.60608 0.0
C316 C 0.76317 0.28501 0.74397 0.0
N317 N 0.74913 0.28736 0.7099 0.0
C318 C 0.77413 0.23339 0.75987 0.0
C319 C 0.75466 0.1873 0.70559 0.0
C320 C 0.74386 0.23978 0.69079 0.0
C321 C 0.77069 0.18344 0.74057 0.0
H322 H 0.76719 0.32341 0.75864 0.0
H323 H 0.73312 0.24273 0.66366 0.0
O324 O 0.74496 0.48877 0.64534 0.0
O325 O 0.79254 0.41916 0.70723 0.0
O326 O 0.67092 0.40341 0.68652 0.0
O327 O 0.76361 0.35997 0.6378 0.0
H328 H 0.8009 0.5819 0.65937 0.0
H329 H 0.64295 0.51663 0.62357 0.0
H330 H 0.76342 0.67812 0.65222 0.0
H331 H 0.60866 0.61388 0.6167 0.0
H332 H 0.96106 0.36875 0.75238 0.0
H333 H 0.84161 0.51854 0.70434 0.0
H334 H 0.86462 0.34575 0.7332 0.0
H335 H 0.93839 0.53844 0.72388 0.0
H336 H 0.65677 0.65634 0.73008 0.0
H337 H 0.78862 0.58238 0.79174 0.0
H338 H 0.93152 0.55841 0.60082 0.0
H339 H 0.00595 0.41272 0.64881 0.0
H340 H 0.62952 0.30075 0.68363 0.0
H341 H 0.58975 0.47594 0.67342 0.0
H342 H 0.53033 0.27778 0.67042 0.0
H343 H 0.4913 0.44981 0.65994 0.0
H344 H 0.78618 0.38526 0.57247 0.0
H345 H 0.83795 0.28516 0.65943 0.0
H346 H 0.86345 0.34406 0.53809 0.0
H347 H 0.91383 0.24515 0.62339 0.0
H348 H 0.69683 0.46762 0.51602 0.0
H349 H 0.57531 0.34225 0.5454 0.0
H350 H 0.78498 0.23273 0.78706 0.0
H351 H 0.75178 0.15031 0.68947 0.0
Li352 Li 0.54741 0.27627 0.32777 0.0
Li353 Li 0.60026 0.30435 0.38188 0.0
Li354 Li 0.64974 0.25566 0.33041 0.0
Li355 Li 0.58104 0.2061 0.36826 0.0
C356 C 0.59894 0.38246 0.31825 0.0
N357 N 0.5784 0.48724 0.29055 0.0
C358 C 0.57954 0.42584 0.33937 0.0
C359 C 0.60794 0.39235 0.28304 0.0
C360 C 0.56999 0.47866 0.32495 0.0
C361 C 0.59673 0.44547 0.26946 0.0
C362 C 0.489 0.2545 0.40166 0.0
C363 C 0.46698 0.22222 0.4592 0.0
N364 N 0.41146 0.22609 0.45171 0.0
C365 C 0.43175 0.25824 0.39453 0.0
C366 C 0.50683 0.2364 0.43424 0.0
C367 C 0.39319 0.24365 0.42018 0.0
C368 C 0.45248 0.2354 0.29874 0.0
N369 N 0.48112 0.28461 0.29937 0.0
C370 C 0.40945 0.32794 0.26497 0.0
C371 C 0.46062 0.33086 0.28304 0.0
C372 C 0.37937 0.27701 0.26377 0.0
C373 C 0.40184 0.23057 0.28114 0.0
H374 H 0.46883 0.19962 0.31243 0.0
H375 H 0.4834 0.36999 0.28425 0.0
C376 C 0.66162 0.36023 0.43333 0.0
N377 N 0.60871 0.35116 0.4217 0.0
C378 C 0.67054 0.38055 0.46678 0.0
C379 C 0.57031 0.38414 0.47519 0.0
C380 C 0.56331 0.36463 0.44132 0.0
C381 C 0.62453 0.39091 0.48858 0.0
H382 H 0.69694 0.34806 0.41749 0.0
H383 H 0.52163 0.35717 0.43148 0.0
C384 C 0.58047 0.18746 0.28438 0.0
N385 N 0.56376 0.15264 0.21704 0.0
C386 C 0.55526 0.13571 0.27772 0.0
C387 C 0.59741 0.22138 0.25687 0.0
C388 C 0.54708 0.11889 0.24347 0.0
C389 C 0.58857 0.20306 0.22298 0.0
C390 C 0.68573 0.20879 0.40289 0.0
C391 C 0.72571 0.17215 0.38925 0.0
C392 C 0.67946 0.21324 0.43875 0.0
C393 C 0.75845 0.1401 0.41174 0.0
C394 C 0.71299 0.18046 0.46038 0.0
N395 N 0.75144 0.14486 0.44654 0.0
C396 C 0.7583 0.28887 0.30825 0.0
C397 C 0.73219 0.19794 0.2898 0.0
C398 C 0.81085 0.28299 0.29264 0.0
N399 N 0.72008 0.24679 0.30644 0.0
C400 C 0.78431 0.19028 0.27375 0.0
C401 C 0.82454 0.23329 0.27483 0.0
H402 H 0.74807 0.32691 0.32212 0.0
H403 H 0.70153 0.1646 0.2892 0.0
C404 C 0.50305 0.12494 0.37822 0.0
N405 N 0.5573 0.13622 0.38616 0.0
C406 C 0.47996 0.07299 0.38569 0.0
C407 C 0.56879 0.04483 0.41017 0.0
C408 C 0.59007 0.09792 0.40254 0.0
C409 C 0.51347 0.03162 0.40086 0.0
H410 H 0.47822 0.15562 0.36469 0.0
H411 H 0.63318 0.10725 0.40832 0.0
O412 O 0.61254 0.33177 0.33246 0.0
O413 O 0.52731 0.26781 0.37666 0.0
O414 O 0.58804 0.2049 0.31775 0.0
O415 O 0.65382 0.24097 0.38126 0.0
H416 H 0.57302 0.41912 0.36675 0.0
H417 H 0.62387 0.3596 0.26641 0.0
H418 H 0.55615 0.51294 0.34114 0.0
H419 H 0.60328 0.45367 0.24224 0.0
H420 H 0.4802 0.20804 0.48449 0.0
H421 H 0.41727 0.27219 0.36943 0.0
H422 H 0.55096 0.23297 0.44006 0.0
H423 H 0.34874 0.24626 0.41502 0.0
H424 H 0.39387 0.36496 0.25195 0.0
H425 H 0.37994 0.19084 0.28185 0.0
H426 H 0.71306 0.38463 0.47622 0.0
H427 H 0.53382 0.39215 0.49109 0.0
H428 H 0.54188 0.10902 0.29882 0.0
H429 H 0.61721 0.26134 0.26167 0.0
H430 H 0.52744 0.07904 0.23791 0.0
H431 H 0.60142 0.22892 0.20141 0.0
H432 H 0.73117 0.16818 0.3616 0.0
H433 H 0.64915 0.24171 0.44982 0.0
H434 H 0.78938 0.1114 0.40153 0.0
H435 H 0.70851 0.1834 0.48817 0.0
H436 H 0.84065 0.31703 0.29476 0.0
H437 H 0.79256 0.15149 0.26015 0.0
H438 H 0.43756 0.06409 0.37735 0.0
H439 H 0.59595 0.01364 0.42173 0.0
Li440 Li 0.24464 0.14565 0.83294 0.0
Li441 Li 0.2044 0.0865 0.88197 0.0
Li442 Li 0.29863 0.07514 0.86385 0.0
Li443 Li 0.22688 0.03855 0.82658 0.0
C444 C 0.30606 0.16718 0.90175 0.0
N445 N 0.39188 0.21211 0.94093 0.0
C446 C 0.31352 0.15037 0.93608 0.0
C447 C 0.34224 0.20695 0.88738 0.0
C448 C 0.35717 0.17352 0.95545 0.0
C449 C 0.38536 0.22915 0.9076 0.0
C450 C 0.11658 0.1148 0.84097 0.0
C451 C 0.02207 0.08718 0.85491 0.0
N452 N 0.00663 0.14205 0.85553 0.0
C453 C 0.09977 0.17089 0.84159 0.0
C454 C 0.07745 0.07251 0.84745 0.0
C455 C 0.04396 0.18381 0.84902 0.0
C456 C 0.2632 0.21982 0.77614 0.0
N457 N 0.24915 0.21747 0.81021 0.0
C458 C 0.25469 0.31752 0.81452 0.0
C459 C 0.24388 0.26505 0.82932 0.0
C460 C 0.27072 0.32139 0.77954 0.0
C461 C 0.27415 0.27144 0.76024 0.0
H462 H 0.26722 0.18141 0.76147 0.0
H463 H 0.23315 0.26209 0.85645 0.0
C464 C 0.18966 0.05618 0.95006 0.0
N465 N 0.16483 0.08839 0.92537 0.0
C466 C 0.17478 0.0616 0.98477 0.0
C467 C 0.10654 0.13133 0.96826 0.0
C468 C 0.12326 0.125 0.93369 0.0
C469 C 0.13381 0.10063 0.99439 0.0
H470 H 0.2238 0.02867 0.94309 0.0
H471 H 0.10537 0.15165 0.91403 0.0
C472 C 0.34605 0.07407 0.80236 0.0
N473 N 0.45382 0.05029 0.78099 0.0
C474 C 0.36706 0.01952 0.80503 0.0
C475 C 0.37992 0.11654 0.78884 0.0
C476 C 0.42163 0.00836 0.79413 0.0
C477 C 0.43431 0.10364 0.77817 0.0
C478 C 0.22481 0.96262 0.87853 0.0
C479 C 0.25878 0.91675 0.87034 0.0
C480 C 0.1703 0.95346 0.89057 0.0
C481 C 0.23765 0.86252 0.87429 0.0
C482 C 0.15079 0.89858 0.89426 0.0
N483 N 0.18456 0.85464 0.88609 0.0
C484 C 0.37551 0.00904 0.89956 0.0
C485 C 0.41644 0.08888 0.87317 0.0
C486 C 0.42816 0.98698 0.90687 0.0
N487 N 0.37076 0.05771 0.88152 0.0
C488 C 0.4699 0.0688 0.88036 0.0
C489 C 0.47595 0.01616 0.89609 0.0
H490 H 0.33848 0.98581 0.90666 0.0
H491 H 0.41165 0.12736 0.8588 0.0
C492 C 0.25025 0.97428 0.76681 0.0
N493 N 0.2142 0.97722 0.79402 0.0
C494 C 0.25675 0.92443 0.74823 0.0
C495 C 0.18383 0.88308 0.78301 0.0
C496 C 0.17884 0.93391 0.80098 0.0
C497 C 0.22494 0.87701 0.75714 0.0
H498 H 0.27651 0.00968 0.76063 0.0
H499 H 0.14878 0.93751 0.82171 0.0
O500 O 0.26363 0.14486 0.88231 0.0
O501 O 0.17094 0.10141 0.83358 0.0
O502 O 0.29256 0.08566 0.81288 0.0
O503 O 0.24497 0.01605 0.87477 0.0
H504 H 0.28619 0.11957 0.94764 0.0
H505 H 0.33798 0.21967 0.86068 0.0
H506 H 0.36347 0.16076 0.98202 0.0
H507 H 0.41386 0.25968 0.89672 0.0
H508 H 0.99131 0.05502 0.86016 0.0
H509 H 0.12956 0.20407 0.83647 0.0
H510 H 0.08975 0.02888 0.84668 0.0
H511 H 0.03036 0.22705 0.84969 0.0
H512 H 0.2518 0.35451 0.83064 0.0
H513 H 0.28501 0.2721 0.73305 0.0
H514 H 0.19683 0.0372 1.00408 0.0
H515 H 0.07533 0.16258 0.9747 0.0
H516 H 0.34161 0.98629 0.81577 0.0
H517 H 0.36464 0.15908 0.78691 0.0
H518 H 0.43839 0.96639 0.79623 0.0
H519 H 0.46108 0.13608 0.76773 0.0
H520 H 0.30089 0.92293 0.86074 0.0
H521 H 0.14295 0.9882 0.89654 0.0
H522 H 0.26341 0.8267 0.86789 0.0
H523 H 0.10865 0.89094 0.9034 0.0
H524 H 0.43151 0.94642 0.91929 0.0
H525 H 0.50597 0.09211 0.8713 0.0
H526 H 0.28864 0.92245 0.72837 0.0
H527 H 0.15679 0.84847 0.79002 0.0
Li528 Li 0.4596 0.72856 0.32776 0.0
Li529 Li 0.40674 0.70047 0.38187 0.0
Li530 Li 0.35727 0.74917 0.33041 0.0
Li531 Li 0.42596 0.79871 0.36826 0.0
C532 C 0.4081 0.62236 0.31826 0.0
N533 N 0.4287 0.51756 0.29061 0.0
C534 C 0.42754 0.57902 0.3394 0.0
C535 C 0.39909 0.61241 0.28306 0.0
C536 C 0.43712 0.52618 0.325 0.0
C537 C 0.41033 0.55929 0.26951 0.0
C538 C 0.51801 0.75037 0.40164 0.0
C539 C 0.54005 0.78269 0.45916 0.0
N540 N 0.59558 0.77888 0.45165 0.0
C541 C 0.57526 0.7467 0.39449 0.0
C542 C 0.50019 0.76846 0.43422 0.0
C543 C 0.61383 0.76134 0.42012 0.0
C544 C 0.55448 0.76945 0.29868 0.0
N545 N 0.52588 0.72022 0.29936 0.0
C546 C 0.59759 0.67686 0.26501 0.0
C547 C 0.54642 0.67394 0.28308 0.0
C548 C 0.62763 0.72781 0.26376 0.0
C549 C 0.60511 0.77428 0.28108 0.0
H550 H 0.5381 0.80525 0.31233 0.0
H551 H 0.52368 0.6348 0.28432 0.0
C552 C 0.34538 0.64457 0.43333 0.0
N553 N 0.3983 0.65366 0.4217 0.0
C554 C 0.33647 0.62425 0.46678 0.0
C555 C 0.43669 0.6207 0.4752 0.0
C556 C 0.44369 0.64021 0.44133 0.0
C557 C 0.38248 0.61391 0.48858 0.0
H558 H 0.31007 0.65672 0.41748 0.0
H559 H 0.48538 0.64769 0.43149 0.0
C560 C 0.42645 0.81735 0.28437 0.0
N561 N 0.443 0.85213 0.21701 0.0
C562 C 0.45158 0.86912 0.27768 0.0
C563 C 0.40953 0.78337 0.25688 0.0
C564 C 0.45967 0.88593 0.24342 0.0
C565 C 0.41828 0.80168 0.22298 0.0
C566 C 0.32128 0.79603 0.4029 0.0
C567 C 0.28132 0.83269 0.38926 0.0
C568 C 0.32756 0.79156 0.43876 0.0
C569 C 0.2486 0.86475 0.41177 0.0
C570 C 0.29404 0.82434 0.46039 0.0
N571 N 0.25561 0.85996 0.44657 0.0
C572 C 0.24874 0.71593 0.30821 0.0
C573 C 0.27479 0.80691 0.28983 0.0
C574 C 0.19618 0.7218 0.29259 0.0
N575 N 0.28692 0.75804 0.30644 0.0
C576 C 0.22267 0.81456 0.27378 0.0
C577 C 0.18247 0.77153 0.27482 0.0
H578 H 0.25899 0.67787 0.32205 0.0
H579 H 0.30543 0.84027 0.28926 0.0
C580 C 0.50394 0.87989 0.37816 0.0
N581 N 0.44971 0.86859 0.38616 0.0
C582 C 0.52704 0.93183 0.38563 0.0
C583 C 0.43826 0.95996 0.41022 0.0
C584 C 0.41698 0.90687 0.40259 0.0
C585 C 0.49356 0.97317 0.40086 0.0
H586 H 0.52873 0.84922 0.3646 0.0
H587 H 0.37388 0.89752 0.40841 0.0
O588 O 0.39446 0.67306 0.33245 0.0
O589 O 0.47969 0.737 0.37666 0.0
O590 O 0.41897 0.79993 0.31775 0.0
O591 O 0.35318 0.76385 0.38126 0.0
H592 H 0.43407 0.58578 0.36678 0.0
H593 H 0.38312 0.64513 0.26642 0.0
H594 H 0.451 0.49194 0.34121 0.0
H595 H 0.40378 0.55105 0.24228 0.0
H596 H 0.52684 0.79686 0.48446 0.0
H597 H 0.58973 0.73276 0.36939 0.0
H598 H 0.45607 0.77183 0.44006 0.0
H599 H 0.65828 0.75878 0.41494 0.0
H600 H 0.61321 0.63982 0.25202 0.0
H601 H 0.62698 0.81402 0.28175 0.0
H602 H 0.29395 0.62015 0.47621 0.0
H603 H 0.47318 0.61271 0.4911 0.0
H604 H 0.46496 0.89585 0.29876 0.0
H605 H 0.38979 0.74339 0.26171 0.0
H606 H 0.47924 0.92581 0.23783 0.0
H607 H 0.40543 0.77578 0.20142 0.0
H608 H 0.27586 0.83668 0.36162 0.0
H609 H 0.35786 0.76307 0.44982 0.0
H610 H 0.21767 0.89346 0.40157 0.0
H611 H 0.29852 0.82139 0.48818 0.0
H612 H 0.16641 0.68774 0.29468 0.0
H613 H 0.21441 0.85338 0.26021 0.0
H614 H 0.56942 0.94075 0.37726 0.0
H615 H 0.41114 0.99113 0.42181 0.0
Li616 Li 0.78013 0.96627 0.82658 0.0
Li617 Li 0.70838 0.92968 0.86385 0.0
Li618 Li 0.80262 0.91833 0.88197 0.0
Li619 Li 0.76237 0.85918 0.83294 0.0
C620 C 0.7822 0.0422 0.87853 0.0
N621 N 0.82245 0.15019 0.88609 0.0
C622 C 0.74823 0.08807 0.87034 0.0
C623 C 0.83671 0.05136 0.89057 0.0
C624 C 0.76936 0.1423 0.8743 0.0
C625 C 0.85622 0.10625 0.89427 0.0
C626 C 0.66096 0.93076 0.80236 0.0
C627 C 0.5727 0.90118 0.77817 0.0
N628 N 0.55319 0.95454 0.78099 0.0
C629 C 0.63995 0.9853 0.80503 0.0
C630 C 0.62709 0.88828 0.78884 0.0
C631 C 0.58538 0.99646 0.79413 0.0
C632 C 0.75675 0.03054 0.76682 0.0
N633 N 0.79281 0.02761 0.79402 0.0
C634 C 0.82318 0.12175 0.78301 0.0
C635 C 0.82817 0.07092 0.80098 0.0
C636 C 0.78206 0.12782 0.75714 0.0
C637 C 0.75026 0.08039 0.74823 0.0
H638 H 0.7305 0.99514 0.76063 0.0
H639 H 0.85822 0.06732 0.82172 0.0
C640 C 0.6315 0.99578 0.89956 0.0
N641 N 0.63625 0.94712 0.88152 0.0
C642 C 0.57886 0.01784 0.90687 0.0
C643 C 0.53711 0.93603 0.88036 0.0
C644 C 0.59057 0.91595 0.87317 0.0
C645 C 0.53106 0.98866 0.89609 0.0
H646 H 0.66853 0.01901 0.90667 0.0
H647 H 0.59536 0.87746 0.8588 0.0
C648 C 0.89043 0.89003 0.84097 0.0
N649 N 1.00038 0.86278 0.85553 0.0
C650 C 0.90724 0.83393 0.84159 0.0
C651 C 0.92956 0.93232 0.84745 0.0
C652 C 0.96305 0.82101 0.84902 0.0
C653 C 0.98494 0.91764 0.85491 0.0
C654 C 0.70095 0.83764 0.90175 0.0
C655 C 0.69349 0.85445 0.93608 0.0
C656 C 0.66477 0.79788 0.88738 0.0
C657 C 0.64985 0.83129 0.95545 0.0
C658 C 0.62165 0.77567 0.9076 0.0
N659 N 0.61513 0.7927 0.94093 0.0
C660 C 0.81735 0.94864 0.95006 0.0
C661 C 0.88376 0.87983 0.93369 0.0
C662 C 0.83223 0.94321 0.98477 0.0
N663 N 0.84218 0.91643 0.92537 0.0
C664 C 0.90048 0.8735 0.96826 0.0
C665 C 0.8732 0.90419 0.99439 0.0
H666 H 0.7832 0.97614 0.9431 0.0
H667 H 0.90165 0.85318 0.91403 0.0
C668 C 0.74381 0.78501 0.77614 0.0
N669 N 0.75786 0.78736 0.81021 0.0
C670 C 0.73286 0.73339 0.76024 0.0
C671 C 0.75232 0.6873 0.81452 0.0
C672 C 0.76313 0.73978 0.82932 0.0
C673 C 0.73629 0.68344 0.77954 0.0
H674 H 0.7398 0.82341 0.76147 0.0
H675 H 0.77386 0.74273 0.85645 0.0
O676 O 0.76204 0.98877 0.87477 0.0
O677 O 0.71445 0.91916 0.81288 0.0
O678 O 0.83607 0.90342 0.83358 0.0
O679 O 0.74338 0.85997 0.88231 0.0
H680 H 0.70612 0.0819 0.86074 0.0
H681 H 0.86406 0.01663 0.89654 0.0
H682 H 0.7436 0.17812 0.86789 0.0
H683 H 0.89836 0.11388 0.90341 0.0
H684 H 0.54593 0.86875 0.76773 0.0
H685 H 0.6654 0.01853 0.81577 0.0
H686 H 0.64237 0.84575 0.78691 0.0
H687 H 0.56862 0.03843 0.79623 0.0
H688 H 0.85022 0.15636 0.79003 0.0
H689 H 0.71837 0.08237 0.72837 0.0
H690 H 0.57549 0.05841 0.91929 0.0
H691 H 0.50104 0.91272 0.8713 0.0
H692 H 0.87746 0.80076 0.83647 0.0
H693 H 0.91726 0.97595 0.84668 0.0
H694 H 0.97665 0.77778 0.84968 0.0
H695 H 0.0157 0.94981 0.86016 0.0
H696 H 0.72082 0.88525 0.94764 0.0
H697 H 0.66904 0.78516 0.86068 0.0
H698 H 0.64354 0.84405 0.98202 0.0
H699 H 0.59315 0.74515 0.89672 0.0
H700 H 0.81018 0.96762 1.00408 0.0
H701 H 0.93169 0.84226 0.9747 0.0
H702 H 0.722 0.73272 0.73305 0.0
H703 H 0.75521 0.65032 0.83064 0.0
loop_
_geom_bond_atom_site_label_1
_geom_bond_atom_site_label_2
_geom_bond_distance
_geom_bond_site_symmetry_2
_ccdc_geom_bond_type
Li0 N17 1.990 . S
Li0 O60 1.956 . S
Li0 O61 1.970 . S
Li0 O62 1.961 . S
Li1 N25 1.990 . S
Li1 O60 1.970 . S
Li1 O61 1.956 . S
Li1 O63 1.961 . S
Li2 N47 1.990 . S
Li2 O60 1.961 . S
Li2 O62 1.956 . S
Li2 O63 1.970 . S
Li3 N53 1.990 1_455 S
Li3 O61 1.961 . S
Li3 O62 1.970 . S
Li3 O63 1.956 . S
C4 C6 1.348 . S
C4 C7 1.356 . S
C4 O60 1.325 . S
N5 C8 1.314 . S
N5 C9 1.279 . S
C6 C4 1.348 . S
C6 C8 1.353 . S
C6 H64 0.929 . S
C7 C4 1.356 . S
C7 C9 1.358 . S
C7 H65 0.930 . S
C8 N5 1.314 . S
C8 C6 1.353 . S
C8 H66 0.930 . S
C9 N5 1.279 . S
C9 C7 1.358 . S
C9 H67 0.930 . S
C10 C13 1.348 . S
C10 C14 1.356 . S
C10 O61 1.325 . S
C11 N12 1.279 . S
C11 C14 1.358 . S
C11 H68 0.930 . S
N12 C11 1.279 . S
N12 C15 1.314 . S
C13 C10 1.348 . S
C13 C15 1.353 . S
C13 H69 0.929 . S
C14 C10 1.356 . S
C14 C11 1.358 . S
C14 H70 0.930 . S
C15 N12 1.314 . S
C15 C13 1.353 . S
C15 H71 0.930 . S
C16 N17 1.314 1_655 S
C16 C21 1.353 . S
C16 H22 0.930 . S
N17 Li0 1.990 . S
N17 C16 1.314 1_455 S
N17 C19 1.279 . S
C18 C19 1.358 . S
C18 C20 1.356 . S
C18 H72 0.930 . S
C19 N17 1.279 . S
C19 C18 1.358 . S
C19 H23 0.930 . S
C20 C18 1.356 . S
C20 C21 1.348 1_455 S
C21 C16 1.353 . S
C21 C20 1.348 1_655 S
C21 H73 0.929 . S
H22 C16 0.930 . S
H23 C19 0.930 . S
C24 N25 1.314 . S
C24 C26 1.353 . S
C24 H30 0.930 . S
N25 Li1 1.990 . S
N25 C24 1.314 . S
N25 C28 1.279 . S
C26 C24 1.353 . S
C26 C29 1.348 . S
C26 H74 0.929 . S
C27 C28 1.358 . S
C27 C29 1.356 . S
C27 H75 0.930 . S
C28 N25 1.279 . S
C28 C27 1.358 . S
C28 H31 0.930 . S
C29 C26 1.348 . S
C29 C27 1.356 . S
H30 C24 0.930 . S
H31 C28 0.930 . S
C32 C34 1.348 . S
C32 C35 1.356 . S
C32 O62 1.325 1_655 S
N33 C36 1.314 . S
N33 C37 1.279 . S
C34 C32 1.348 . S
C34 C36 1.353 . S
C34 H76 0.929 . S
C35 C32 1.356 . S
C35 C37 1.358 . S
C35 H77 0.930 . S
C36 N33 1.314 . S
C36 C34 1.353 . S
C36 H78 0.930 . S
C37 N33 1.279 . S
C37 C35 1.358 . S
C37 H79 0.930 . S
C38 C39 1.348 . S
C38 C40 1.356 . S
C38 O63 1.325 . S
C39 C38 1.348 . S
C39 C41 1.353 . S
C39 H80 0.929 . S
C40 C38 1.356 . S
C40 C42 1.358 . S
C40 H81 0.930 . S
C41 C39 1.353 . S
C41 N43 1.314 . S
C41 H82 0.930 . S
C42 C40 1.358 . S
C42 N43 1.279 . S
C42 H83 0.930 . S
N43 C41 1.314 . S
N43 C42 1.279 . S
C44 C46 1.353 . S
C44 N47 1.314 . S
C44 H50 0.930 . S
C45 N47 1.279 . S
C45 C48 1.358 . S
C45 H51 0.930 . S
C46 C44 1.353 . S
C46 C49 1.348 . S
C46 H84 0.929 . S
N47 Li2 1.990 . S
N47 C44 1.314 . S
N47 C45 1.279 . S
C48 C45 1.358 . S
C48 C49 1.356 . S
C48 H85 0.930 . S
C49 C46 1.348 . S
C49 C48 1.356 . S
H50 C44 0.930 . S
H51 C45 0.930 . S
C52 N53 1.314 . S
C52 C54 1.353 . S
C52 H58 0.930 . S
N53 Li3 1.990 1_655 S
N53 C52 1.314 . S
N53 C56 1.279 . S
C54 C52 1.353 . S
C54 C57 1.348 . S
C54 H86 0.929 . S
C55 C56 1.358 . S
C55 C57 1.356 . S
C55 H87 0.930 . S
C56 N53 1.279 . S
C56 C55 1.358 . S
C56 H59 0.930 . S
C57 C54 1.348 . S
C57 C55 1.356 . S
H58 C52 0.930 . S
H59 C56 0.930 . S
O60 Li0 1.956 . S
O60 Li1 1.970 . S
O60 Li2 1.961 . S
O60 C4 1.325 . S
O61 Li0 1.970 . S
O61 Li1 1.956 . S
O61 Li3 1.961 . S
O61 C10 1.325 . S
O62 Li0 1.961 . S
O62 Li2 1.956 . S
O62 Li3 1.970 . S
O62 C32 1.325 1_455 S
O63 Li1 1.961 . S
O63 Li2 1.970 . S
O63 Li3 1.956 . S
O63 C38 1.325 . S
H64 C6 0.929 . S
H65 C7 0.930 . S
H66 C8 0.930 . S
H67 C9 0.930 . S
H68 C11 0.930 . S
H69 C13 0.929 . S
H70 C14 0.930 . S
H71 C15 0.930 . S
H72 C18 0.930 . S
H73 C21 0.929 . S
H74 C26 0.929 . S
H75 C27 0.930 . S
H76 C34 0.929 . S
H77 C35 0.930 . S
H78 C36 0.930 . S
H79 C37 0.930 . S
H80 C39 0.929 . S
H81 C40 0.930 . S
H82 C41 0.930 . S
H83 C42 0.930 . S
H84 C46 0.929 . S
H85 C48 0.930 . S
H86 C54 0.929 . S
H87 C55 0.930 . S
Li88 N105 1.990 . S
Li88 O148 1.956 . S
Li88 O149 1.970 . S
Li88 O150 1.961 . S
Li89 N113 1.990 . S
Li89 O148 1.970 . S
Li89 O149 1.956 . S
Li89 O151 1.961 . S
Li90 N135 1.990 . S
Li90 O148 1.961 . S
Li90 O150 1.956 . S
Li90 O151 1.970 . S
Li91 N141 1.990 . S
Li91 O149 1.961 . S
Li91 O150 1.970 . S
Li91 O151 1.956 . S
C92 C94 1.348 . S
C92 C95 1.356 . S
C92 O148 1.325 . S
N93 C96 1.314 . S
N93 C97 1.279 . S
C94 C92 1.348 . S
C94 C96 1.353 . S
C94 H152 0.929 . S
C95 C92 1.356 . S
C95 C97 1.358 . S
C95 H153 0.930 . S
C96 N93 1.314 . S
C96 C94 1.353 . S
C96 H154 0.930 . S
C97 N93 1.279 . S
C97 C95 1.358 . S
C97 H155 0.930 . S
C98 C101 1.348 . S
C98 C102 1.356 . S
C98 O149 1.325 . S
C99 N100 1.279 . S
C99 C102 1.358 . S
C99 H156 0.930 . S
N100 C99 1.279 . S
N100 C103 1.314 . S
C101 C98 1.348 . S
C101 C103 1.353 . S
C101 H157 0.929 . S
C102 C98 1.356 . S
C102 C99 1.358 . S
C102 H158 0.930 . S
C103 N100 1.314 . S
C103 C101 1.353 . S
C103 H159 0.930 . S
C104 N105 1.314 . S
C104 C109 1.353 . S
C104 H110 0.930 . S
N105 Li88 1.990 . S
N105 C104 1.314 . S
N105 C107 1.279 . S
C106 C107 1.358 . S
C106 C108 1.356 . S
C106 H160 0.930 . S
C107 N105 1.279 . S
C107 C106 1.358 . S
C107 H111 0.930 . S
C108 C106 1.356 . S
C108 C109 1.348 . S
C109 C104 1.353 . S
C109 C108 1.348 . S
C109 H161 0.929 . S
H110 C104 0.930 . S
H111 C107 0.930 . S
C112 N113 1.314 . S
C112 C114 1.353 . S
C112 H118 0.930 . S
N113 Li89 1.990 . S
N113 C112 1.314 . S
N113 C116 1.279 . S
C114 C112 1.353 . S
C114 C117 1.348 . S
C114 H162 0.929 . S
C115 C116 1.358 . S
C115 C117 1.356 . S
C115 H163 0.930 . S
C116 N113 1.279 . S
C116 C115 1.358 . S
C116 H119 0.930 . S
C117 C114 1.348 . S
C117 C115 1.356 . S
H118 C112 0.930 . S
H119 C116 0.930 . S
C120 C122 1.348 . S
C120 C123 1.356 . S
C120 O150 1.325 . S
N121 C124 1.314 . S
N121 C125 1.279 . S
C122 C120 1.348 . S
C122 C124 1.353 . S
C122 H164 0.929 . S
C123 C120 1.356 . S
C123 C125 1.358 . S
C123 H165 0.930 . S
C124 N121 1.314 . S
C124 C122 1.353 . S
C124 H166 0.930 . S
C125 N121 1.279 . S
C125 C123 1.358 . S
C125 H167 0.930 . S
C126 C127 1.348 . S
C126 C128 1.356 . S
C126 O151 1.325 . S
C127 C126 1.348 . S
C127 C129 1.353 . S
C127 H168 0.929 . S
C128 C126 1.356 . S
C128 C130 1.358 . S
C128 H169 0.930 . S
C129 C127 1.353 . S
C129 N131 1.314 . S
C129 H170 0.930 . S
C130 C128 1.358 . S
C130 N131 1.279 . S
C130 H171 0.930 . S
N131 C129 1.314 . S
N131 C130 1.279 . S
C132 C134 1.353 . S
C132 N135 1.314 . S
C132 H138 0.930 . S
C133 N135 1.279 . S
C133 C136 1.358 . S
C133 H139 0.930 . S
C134 C132 1.353 . S
C134 C137 1.348 . S
C134 H172 0.929 . S
N135 Li90 1.990 . S
N135 C132 1.314 . S
N135 C133 1.279 . S
C136 C133 1.358 . S
C136 C137 1.356 . S
C136 H173 0.930 . S
C137 C134 1.348 . S
C137 C136 1.356 . S
H138 C132 0.930 . S
H139 C133 0.930 . S
C140 N141 1.314 . S
C140 C142 1.353 . S
C140 H146 0.930 . S
N141 Li91 1.990 . S
N141 C140 1.314 . S
N141 C144 1.279 . S
C142 C140 1.353 . S
C142 C145 1.348 1_455 S
C142 H174 0.929 . S
C143 C144 1.358 . S
C143 C145 1.356 1_455 S
C143 H175 0.930 1_455 S
C144 N141 1.279 . S
C144 C143 1.358 . S
C144 H147 0.930 . S
C145 C142 1.348 1_655 S
C145 C143 1.356 1_655 S
H146 C140 0.930 . S
H147 C144 0.930 . S
O148 Li88 1.956 . S
O148 Li89 1.970 . S
O148 Li90 1.961 . S
O148 C92 1.325 . S
O149 Li88 1.970 . S
O149 Li89 1.956 . S
O149 Li91 1.961 . S
O149 C98 1.325 . S
O150 Li88 1.961 . S
O150 Li90 1.956 . S
O150 Li91 1.970 . S
O150 C120 1.325 . S
O151 Li89 1.961 . S
O151 Li90 1.970 . S
O151 Li91 1.956 . S
O151 C126 1.325 . S
H152 C94 0.929 . S
H153 C95 0.930 . S
H154 C96 0.930 . S
H155 C97 0.930 . S
H156 C99 0.930 . S
H157 C101 0.929 . S
H158 C102 0.930 . S
H159 C103 0.930 . S
H160 C106 0.930 . S
H161 C109 0.929 . S
H162 C114 0.929 . S
H163 C115 0.930 . S
H164 C122 0.929 . S
H165 C123 0.930 . S
H166 C124 0.930 . S
H167 C125 0.930 . S
H168 C127 0.929 . S
H169 C128 0.930 . S
H170 C129 0.930 . S
H171 C130 0.930 . S
H172 C134 0.929 . S
H173 C136 0.930 . S
H174 C142 0.929 . S
H175 C143 0.930 1_655 S
Li176 N193 1.990 . S
Li176 O236 1.956 . S
Li176 O237 1.970 . S
Li176 O238 1.961 . S
Li177 N201 1.990 . S
Li177 O236 1.970 . S
Li177 O237 1.956 . S
Li177 O239 1.961 . S
Li178 N223 1.990 1_655 S
Li178 O236 1.961 . S
Li178 O238 1.956 . S
Li178 O239 1.970 . S
Li179 N229 1.990 . S
Li179 O237 1.961 . S
Li179 O238 1.970 . S
Li179 O239 1.956 . S
C180 C182 1.348 . S
C180 C183 1.356 . S
C180 O236 1.325 . S
N181 C184 1.314 . S
N181 C185 1.279 . S
C182 C180 1.348 . S
C182 C184 1.353 . S
C182 H240 0.929 . S
C183 C180 1.356 . S
C183 C185 1.358 . S
C183 H241 0.930 . S
C184 N181 1.314 . S
C184 C182 1.353 . S
C184 H242 0.930 . S
C185 N181 1.279 . S
C185 C183 1.358 . S
C185 H243 0.930 . S
C186 C189 1.348 . S
C186 C190 1.356 . S
C186 O237 1.325 . S
C187 N188 1.279 . S
C187 C190 1.358 . S
C187 H244 0.930 . S
N188 C187 1.279 . S
N188 C191 1.314 . S
C189 C186 1.348 . S
C189 C191 1.353 . S
C189 H245 0.929 . S
C190 C186 1.356 . S
C190 C187 1.358 . S
C190 H246 0.930 . S
C191 N188 1.314 . S
C191 C189 1.353 . S
C191 H247 0.930 . S
C192 N193 1.314 . S
C192 C197 1.353 . S
C192 H198 0.930 . S
N193 Li176 1.990 . S
N193 C192 1.314 . S
N193 C195 1.279 . S
C194 C195 1.358 . S
C194 C196 1.356 . S
C194 H248 0.930 . S
C195 N193 1.279 . S
C195 C194 1.358 . S
C195 H199 0.930 . S
C196 C194 1.356 . S
C196 C197 1.348 . S
C197 C192 1.353 . S
C197 C196 1.348 . S
C197 H249 0.929 . S
H198 C192 0.930 . S
H199 C195 0.930 . S
C200 N201 1.314 1_455 S
C200 C202 1.353 . S
C200 H206 0.930 . S
N201 Li177 1.990 . S
N201 C200 1.314 1_655 S
N201 C204 1.279 . S
C202 C200 1.353 . S
C202 C205 1.348 1_455 S
C202 H250 0.929 . S
C203 C204 1.358 . S
C203 C205 1.356 . S
C203 H251 0.930 . S
C204 N201 1.279 . S
C204 C203 1.358 . S
C204 H207 0.930 . S
C205 C202 1.348 1_655 S
C205 C203 1.356 . S
H206 C200 0.930 . S
H207 C204 0.930 . S
C208 C210 1.348 . S
C208 C211 1.356 . S
C208 O238 1.325 . S
N209 C212 1.314 . S
N209 C213 1.279 . S
C210 C208 1.348 . S
C210 C212 1.353 . S
C210 H252 0.929 . S
C211 C208 1.356 . S
C211 C213 1.358 . S
C211 H253 0.930 . S
C212 N209 1.314 . S
C212 C210 1.353 . S
C212 H254 0.930 . S
C213 N209 1.279 . S
C213 C211 1.358 . S
C213 H255 0.930 . S
C214 C215 1.348 . S
C214 C216 1.356 . S
C214 O239 1.325 1_455 S
C215 C214 1.348 . S
C215 C217 1.353 . S
C215 H256 0.929 . S
C216 C214 1.356 . S
C216 C218 1.358 . S
C216 H257 0.930 . S
C217 C215 1.353 . S
C217 N219 1.314 . S
C217 H258 0.930 . S
C218 C216 1.358 . S
C218 N219 1.279 . S
C218 H259 0.930 . S
N219 C217 1.314 . S
N219 C218 1.279 . S
C220 C222 1.353 . S
C220 N223 1.314 . S
C220 H226 0.930 . S
C221 N223 1.279 . S
C221 C224 1.358 . S
C221 H227 0.930 . S
C222 C220 1.353 . S
C222 C225 1.348 . S
C222 H260 0.929 . S
N223 Li178 1.990 1_455 S
N223 C220 1.314 . S
N223 C221 1.279 . S
C224 C221 1.358 . S
C224 C225 1.356 . S
C224 H261 0.930 . S
C225 C222 1.348 . S
C225 C224 1.356 . S
H226 C220 0.930 . S
H227 C221 0.930 . S
C228 N229 1.314 . S
C228 C230 1.353 . S
C228 H234 0.930 . S
N229 Li179 1.990 . S
N229 C228 1.314 . S
N229 C232 1.279 . S
C230 C228 1.353 . S
C230 C233 1.348 . S
C230 H262 0.929 . S
C231 C232 1.358 . S
C231 C233 1.356 . S
C231 H263 0.930 . S
C232 N229 1.279 . S
C232 C231 1.358 . S
C232 H235 0.930 . S
C233 C230 1.348 . S
C233 C231 1.356 . S
H234 C228 0.930 . S
H235 C232 0.930 . S
O236 Li176 1.956 . S
O236 Li177 1.970 . S
O236 Li178 1.961 . S
O236 C180 1.325 . S
O237 Li176 1.970 . S
O237 Li177 1.956 . S
O237 Li179 1.961 . S
O237 C186 1.325 . S
O238 Li176 1.961 . S
O238 Li178 1.956 . S
O238 Li179 1.970 . S
O238 C208 1.325 . S
O239 Li177 1.961 . S
O239 Li178 1.970 . S
O239 Li179 1.956 . S
O239 C214 1.325 1_655 S
H240 C182 0.929 . S
H241 C183 0.930 . S
H242 C184 0.930 . S
H243 C185 0.930 . S
H244 C187 0.930 . S
H245 C189 0.929 . S
H246 C190 0.930 . S
H247 C191 0.930 . S
H248 C194 0.930 . S
H249 C197 0.929 . S
H250 C202 0.929 . S
H251 C203 0.930 . S
H252 C210 0.929 . S
H253 C211 0.930 . S
H254 C212 0.930 . S
H255 C213 0.930 . S
H256 C215 0.929 . S
H257 C216 0.930 . S
H258 C217 0.930 . S
H259 C218 0.930 . S
H260 C222 0.929 . S
H261 C224 0.930 . S
H262 C230 0.929 . S
H263 C231 0.930 . S
Li264 N281 1.990 . S
Li264 O324 1.956 . S
Li264 O325 1.970 . S
Li264 O326 1.961 . S
Li265 N289 1.990 . S
Li265 O324 1.970 . S
Li265 O325 1.956 . S
Li265 O327 1.961 . S
Li266 N311 1.990 . S
Li266 O324 1.961 . S
Li266 O326 1.956 . S
Li266 O327 1.970 . S
Li267 N317 1.990 . S
Li267 O325 1.961 . S
Li267 O326 1.970 . S
Li267 O327 1.956 . S
C268 C270 1.348 . S
C268 C271 1.356 . S
C268 O324 1.325 . S
N269 C272 1.314 . S
N269 C273 1.279 . S
C270 C268 1.348 . S
C270 C272 1.353 . S
C270 H328 0.929 . S
C271 C268 1.356 . S
C271 C273 1.358 . S
C271 H329 0.930 . S
C272 N269 1.314 . S
C272 C270 1.353 . S
C272 H330 0.930 . S
C273 N269 1.279 . S
C273 C271 1.358 . S
C273 H331 0.930 . S
C274 C277 1.348 . S
C274 C278 1.356 . S
C274 O325 1.325 . S
C275 N276 1.279 . S
C275 C278 1.358 . S
C275 H332 0.930 . S
N276 C275 1.279 . S
N276 C279 1.314 . S
C277 C274 1.348 . S
C277 C279 1.353 . S
C277 H333 0.929 . S
C278 C274 1.356 . S
C278 C275 1.358 . S
C278 H334 0.930 . S
C279 N276 1.314 . S
C279 C277 1.353 . S
C279 H335 0.930 . S
C280 N281 1.314 . S
C280 C285 1.353 . S
C280 H286 0.930 . S
N281 Li264 1.990 . S
N281 C280 1.314 . S
N281 C283 1.279 . S
C282 C283 1.358 . S
C282 C284 1.356 . S
C282 H336 0.930 . S
C283 N281 1.279 . S
C283 C282 1.358 . S
C283 H287 0.930 . S
C284 C282 1.356 . S
C284 C285 1.348 . S
C285 C280 1.353 . S
C285 C284 1.348 . S
C285 H337 0.929 . S
H286 C280 0.930 . S
H287 C283 0.930 . S
C288 N289 1.314 . S
C288 C290 1.353 . S
C288 H294 0.930 . S
N289 Li265 1.990 . S
N289 C288 1.314 . S
N289 C292 1.279 . S
C290 C288 1.353 . S
C290 C293 1.348 1_655 S
C290 H338 0.929 . S
C291 C292 1.358 . S
C291 C293 1.356 1_655 S
C291 H339 0.930 1_655 S
C292 N289 1.279 . S
C292 C291 1.358 . S
C292 H295 0.930 . S
C293 C290 1.348 1_455 S
C293 C291 1.356 1_455 S
H294 C288 0.930 . S
H295 C292 0.930 . S
C296 C298 1.348 . S
C296 C299 1.356 . S
C296 O326 1.325 . S
N297 C300 1.314 . S
N297 C301 1.279 . S
C298 C296 1.348 . S
C298 C300 1.353 . S
C298 H340 0.929 . S
C299 C296 1.356 . S
C299 C301 1.358 . S
C299 H341 0.930 . S
C300 N297 1.314 . S
C300 C298 1.353 . S
C300 H342 0.930 . S
C301 N297 1.279 . S
C301 C299 1.358 . S
C301 H343 0.930 . S
C302 C303 1.348 . S
C302 C304 1.356 . S
C302 O327 1.325 . S
C303 C302 1.348 . S
C303 C305 1.353 . S
C303 H344 0.929 . S
C304 C302 1.356 . S
C304 C306 1.358 . S
C304 H345 0.930 . S
C305 C303 1.353 . S
C305 N307 1.314 . S
C305 H346 0.930 . S
C306 C304 1.358 . S
C306 N307 1.279 . S
C306 H347 0.930 . S
N307 C305 1.314 . S
N307 C306 1.279 . S
C308 C310 1.353 . S
C308 N311 1.314 . S
C308 H314 0.930 . S
C309 N311 1.279 . S
C309 C312 1.358 . S
C309 H315 0.930 . S
C310 C308 1.353 . S
C310 C313 1.348 . S
C310 H348 0.929 . S
N311 Li266 1.990 . S
N311 C308 1.314 . S
N311 C309 1.279 . S
C312 C309 1.358 . S
C312 C313 1.356 . S
C312 H349 0.930 . S
C313 C310 1.348 . S
C313 C312 1.356 . S
H314 C308 0.930 . S
H315 C309 0.930 . S
C316 N317 1.314 . S
C316 C318 1.353 . S
C316 H322 0.930 . S
N317 Li267 1.990 . S
N317 C316 1.314 . S
N317 C320 1.279 . S
C318 C316 1.353 . S
C318 C321 1.348 . S
C318 H350 0.929 . S
C319 C320 1.358 . S
C319 C321 1.356 . S
C319 H351 0.930 . S
C320 N317 1.279 . S
C320 C319 1.358 . S
C320 H323 0.930 . S
C321 C318 1.348 . S
C321 C319 1.356 . S
H322 C316 0.930 . S
H323 C320 0.930 . S
O324 Li264 1.956 . S
O324 Li265 1.970 . S
O324 Li266 1.961 . S
O324 C268 1.325 . S
O325 Li264 1.970 . S
O325 Li265 1.956 . S
O325 Li267 1.961 . S
O325 C274 1.325 . S
O326 Li264 1.961 . S
O326 Li266 1.956 . S
O326 Li267 1.970 . S
O326 C296 1.325 . S
O327 Li265 1.961 . S
O327 Li266 1.970 . S
O327 Li267 1.956 . S
O327 C302 1.325 . S
H328 C270 0.929 . S
H329 C271 0.930 . S
H330 C272 0.930 . S
H331 C273 0.930 . S
H332 C275 0.930 . S
H333 C277 0.929 . S
H334 C278 0.930 . S
H335 C279 0.930 . S
H336 C282 0.930 . S
H337 C285 0.929 . S
H338 C290 0.929 . S
H339 C291 0.930 1_455 S
H340 C298 0.929 . S
H341 C299 0.930 . S
H342 C300 0.930 . S
H343 C301 0.930 . S
H344 C303 0.929 . S
H345 C304 0.930 . S
H346 C305 0.930 . S
H347 C306 0.930 . S
H348 C310 0.929 . S
H349 C312 0.930 . S
H350 C318 0.929 . S
H351 C319 0.930 . S
Li352 N369 1.990 . S
Li352 O412 1.956 . S
Li352 O413 1.970 . S
Li352 O414 1.961 . S
Li353 N377 1.990 . S
Li353 O412 1.970 . S
Li353 O413 1.956 . S
Li353 O415 1.961 . S
Li354 N399 1.990 . S
Li354 O412 1.961 . S
Li354 O414 1.956 . S
Li354 O415 1.970 . S
Li355 N405 1.990 . S
Li355 O413 1.961 . S
Li355 O414 1.970 . S
Li355 O415 1.956 . S
C356 C358 1.348 . S
C356 C359 1.356 . S
C356 O412 1.325 . S
N357 C360 1.314 . S
N357 C361 1.279 . S
C358 C356 1.348 . S
C358 C360 1.353 . S
C358 H416 0.929 . S
C359 C356 1.356 . S
C359 C361 1.358 . S
C359 H417 0.930 . S
C360 N357 1.314 . S
C360 C358 1.353 . S
C360 H418 0.930 . S
C361 N357 1.279 . S
C361 C359 1.358 . S
C361 H419 0.930 . S
C362 C365 1.348 . S
C362 C366 1.356 . S
C362 O413 1.325 . S
C363 N364 1.279 . S
C363 C366 1.358 . S
C363 H420 0.930 . S
N364 C363 1.279 . S
N364 C367 1.314 . S
C365 C362 1.348 . S
C365 C367 1.353 . S
C365 H421 0.929 . S
C366 C362 1.356 . S
C366 C363 1.358 . S
C366 H422 0.930 . S
C367 N364 1.314 . S
C367 C365 1.353 . S
C367 H423 0.930 . S
C368 N369 1.314 . S
C368 C373 1.353 . S
C368 H374 0.930 . S
N369 Li352 1.990 . S
N369 C368 1.314 . S
N369 C371 1.279 . S
C370 C371 1.358 . S
C370 C372 1.356 . S
C370 H424 0.930 . S
C371 N369 1.279 . S
C371 C370 1.358 . S
C371 H375 0.930 . S
C372 C370 1.356 . S
C372 C373 1.348 . S
C373 C368 1.353 . S
C373 C372 1.348 . S
C373 H425 0.929 . S
H374 C368 0.930 . S
H375 C371 0.930 . S
C376 N377 1.314 . S
C376 C378 1.353 . S
C376 H382 0.930 . S
N377 Li353 1.990 . S
N377 C376 1.314 . S
N377 C380 1.279 . S
C378 C376 1.353 . S
C378 C381 1.348 . S
C378 H426 0.929 . S
C379 C380 1.358 . S
C379 C381 1.356 . S
C379 H427 0.930 . S
C380 N377 1.279 . S
C380 C379 1.358 . S
C380 H383 0.930 . S
C381 C378 1.348 . S
C381 C379 1.356 . S
H382 C376 0.930 . S
H383 C380 0.930 . S
C384 C386 1.348 . S
C384 C387 1.356 . S
C384 O414 1.325 . S
N385 C388 1.314 . S
N385 C389 1.279 . S
C386 C384 1.348 . S
C386 C388 1.353 . S
C386 H428 0.929 . S
C387 C384 1.356 . S
C387 C389 1.358 . S
C387 H429 0.930 . S
C388 N385 1.314 . S
C388 C386 1.353 . S
C388 H430 0.930 . S
C389 N385 1.279 . S
C389 C387 1.358 . S
C389 H431 0.930 . S
C390 C391 1.348 . S
C390 C392 1.356 . S
C390 O415 1.325 . S
C391 C390 1.348 . S
C391 C393 1.353 . S
C391 H432 0.929 . S
C392 C390 1.356 . S
C392 C394 1.358 . S
C392 H433 0.930 . S
C393 C391 1.353 . S
C393 N395 1.314 . S
C393 H434 0.930 . S
C394 C392 1.358 . S
C394 N395 1.279 . S
C394 H435 0.930 . S
N395 C393 1.314 . S
N395 C394 1.279 . S
C396 C398 1.353 . S
C396 N399 1.314 . S
C396 H402 0.930 . S
C397 N399 1.279 . S
C397 C400 1.358 . S
C397 H403 0.930 . S
C398 C396 1.353 . S
C398 C401 1.348 . S
C398 H436 0.929 . S
N399 Li354 1.990 . S
N399 C396 1.314 . S
N399 C397 1.279 . S
C400 C397 1.358 . S
C400 C401 1.356 . S
C400 H437 0.930 . S
C401 C398 1.348 . S
C401 C400 1.356 . S
H402 C396 0.930 . S
H403 C397 0.930 . S
C404 N405 1.314 . S
C404 C406 1.353 . S
C404 H410 0.930 . S
N405 Li355 1.990 . S
N405 C404 1.314 . S
N405 C408 1.279 . S
C406 C404 1.353 . S
C406 C409 1.348 1_545 S
C406 H438 0.929 . S
C407 C408 1.358 . S
C407 C409 1.356 1_545 S
C407 H439 0.930 1_545 S
C408 N405 1.279 . S
C408 C407 1.358 . S
C408 H411 0.930 . S
C409 C406 1.348 1_565 S
C409 C407 1.356 1_565 S
H410 C404 0.930 . S
H411 C408 0.930 . S
O412 Li352 1.956 . S
O412 Li353 1.970 . S
O412 Li354 1.961 . S
O412 C356 1.325 . S
O413 Li352 1.970 . S
O413 Li353 1.956 . S
O413 Li355 1.961 . S
O413 C362 1.325 . S
O414 Li352 1.961 . S
O414 Li354 1.956 . S
O414 Li355 1.970 . S
O414 C384 1.325 . S
O415 Li353 1.961 . S
O415 Li354 1.970 . S
O415 Li355 1.956 . S
O415 C390 1.325 . S
H416 C358 0.929 . S
H417 C359 0.930 . S
H418 C360 0.930 . S
H419 C361 0.930 . S
H420 C363 0.930 . S
H421 C365 0.929 . S
H422 C366 0.930 . S
H423 C367 0.930 . S
H424 C370 0.930 . S
H425 C373 0.929 . S
H426 C378 0.929 . S
H427 C379 0.930 . S
H428 C386 0.929 . S
H429 C387 0.930 . S
H430 C388 0.930 . S
H431 C389 0.930 . S
H432 C391 0.929 . S
H433 C392 0.930 . S
H434 C393 0.930 . S
H435 C394 0.930 . S
H436 C398 0.929 . S
H437 C400 0.930 . S
H438 C406 0.929 . S
H439 C407 0.930 1_565 S
Li440 N457 1.990 . S
Li440 O500 1.956 . S
Li440 O501 1.970 . S
Li440 O502 1.961 . S
Li441 N465 1.990 . S
Li441 O500 1.970 . S
Li441 O501 1.956 . S
Li441 O503 1.961 . S
Li442 N487 1.990 . S
Li442 O500 1.961 . S
Li442 O502 1.956 . S
Li442 O503 1.970 . S
Li443 N493 1.990 1_545 S
Li443 O501 1.961 . S
Li443 O502 1.970 . S
Li443 O503 1.956 . S
C444 C446 1.348 . S
C444 C447 1.356 . S
C444 O500 1.325 . S
N445 C448 1.314 . S
N445 C449 1.279 . S
C446 C444 1.348 . S
C446 C448 1.353 . S
C446 H504 0.929 . S
C447 C444 1.356 . S
C447 C449 1.358 . S
C447 H505 0.930 . S
C448 N445 1.314 . S
C448 C446 1.353 . S
C448 H506 0.930 . S
C449 N445 1.279 . S
C449 C447 1.358 . S
C449 H507 0.930 . S
C450 C453 1.348 . S
C450 C454 1.356 . S
C450 O501 1.325 . S
C451 N452 1.279 . S
C451 C454 1.358 . S
C451 H508 0.930 . S
N452 C451 1.279 . S
N452 C455 1.314 . S
C453 C450 1.348 . S
C453 C455 1.353 . S
C453 H509 0.929 . S
C454 C450 1.356 . S
C454 C451 1.358 . S
C454 H510 0.930 . S
C455 N452 1.314 . S
C455 C453 1.353 . S
C455 H511 0.930 . S
C456 N457 1.314 . S
C456 C461 1.353 . S
C456 H462 0.930 . S
N457 Li440 1.990 . S
N457 C456 1.314 . S
N457 C459 1.279 . S
C458 C459 1.358 . S
C458 C460 1.356 . S
C458 H512 0.930 . S
C459 N457 1.279 . S
C459 C458 1.358 . S
C459 H463 0.930 . S
C460 C458 1.356 . S
C460 C461 1.348 . S
C461 C456 1.353 . S
C461 C460 1.348 . S
C461 H513 0.929 . S
H462 C456 0.930 . S
H463 C459 0.930 . S
C464 N465 1.314 . S
C464 C466 1.353 . S
C464 H470 0.930 . S
N465 Li441 1.990 . S
N465 C464 1.314 . S
N465 C468 1.279 . S
C466 C464 1.353 . S
C466 C469 1.348 . S
C466 H514 0.929 1_556 S
C467 C468 1.358 . S
C467 C469 1.356 . S
C467 H515 0.930 . S
C468 N465 1.279 . S
C468 C467 1.358 . S
C468 H471 0.930 . S
C469 C466 1.348 . S
C469 C467 1.356 . S
H470 C464 0.930 . S
H471 C468 0.930 . S
C472 C474 1.348 1_545 S
C472 C475 1.356 . S
C472 O502 1.325 . S
N473 C476 1.314 1_545 S
N473 C477 1.279 . S
C474 C472 1.348 1_565 S
C474 C476 1.353 . S
C474 H516 0.929 . S
C475 C472 1.356 . S
C475 C477 1.358 . S
C475 H517 0.930 . S
C476 N473 1.314 1_565 S
C476 C474 1.353 . S
C476 H518 0.930 . S
C477 N473 1.279 . S
C477 C475 1.358 . S
C477 H519 0.930 . S
C478 C479 1.348 . S
C478 C480 1.356 . S
C478 O503 1.325 1_565 S
C479 C478 1.348 . S
C479 C481 1.353 . S
C479 H520 0.929 . S
C480 C478 1.356 . S
C480 C482 1.358 . S
C480 H521 0.930 . S
C481 C479 1.353 . S
C481 N483 1.314 . S
C481 H522 0.930 . S
C482 C480 1.358 . S
C482 N483 1.279 . S
C482 H523 0.930 . S
N483 C481 1.314 . S
N483 C482 1.279 . S
C484 C486 1.353 . S
C484 N487 1.314 . S
C484 H490 0.930 . S
C485 N487 1.279 . S
C485 C488 1.358 . S
C485 H491 0.930 . S
C486 C484 1.353 . S
C486 C489 1.348 . S
C486 H524 0.929 . S
N487 Li442 1.990 . S
N487 C484 1.314 . S
N487 C485 1.279 . S
C488 C485 1.358 . S
C488 C489 1.356 . S
C488 H525 0.930 1_545 S
C489 C486 1.348 . S
C489 C488 1.356 . S
H490 C484 0.930 . S
H491 C485 0.930 . S
C492 N493 1.314 . S
C492 C494 1.353 . S
C492 H498 0.930 . S
N493 Li443 1.990 1_565 S
N493 C492 1.314 . S
N493 C496 1.279 . S
C494 C492 1.353 . S
C494 C497 1.348 . S
C494 H526 0.929 . S
C495 C496 1.358 . S
C495 C497 1.356 . S
C495 H527 0.930 . S
C496 N493 1.279 . S
C496 C495 1.358 . S
C496 H499 0.930 . S
C497 C494 1.348 . S
C497 C495 1.356 . S
H498 C492 0.930 . S
H499 C496 0.930 . S
O500 Li440 1.956 . S
O500 Li441 1.970 . S
O500 Li442 1.961 . S
O500 C444 1.325 . S
O501 Li440 1.970 . S
O501 Li441 1.956 . S
O501 Li443 1.961 . S
O501 C450 1.325 . S
O502 Li440 1.961 . S
O502 Li442 1.956 . S
O502 Li443 1.970 . S
O502 C472 1.325 . S
O503 Li441 1.961 . S
O503 Li442 1.970 . S
O503 Li443 1.956 . S
O503 C478 1.325 1_545 S
H504 C446 0.929 . S
H505 C447 0.930 . S
H506 C448 0.930 . S
H507 C449 0.930 . S
H508 C451 0.930 . S
H509 C453 0.929 . S
H510 C454 0.930 . S
H511 C455 0.930 . S
H512 C458 0.930 . S
H513 C461 0.929 . S
H514 C466 0.929 1_554 S
H515 C467 0.930 . S
H516 C474 0.929 . S
H517 C475 0.930 . S
H518 C476 0.930 . S
H519 C477 0.930 . S
H520 C479 0.929 . S
H521 C480 0.930 . S
H522 C481 0.930 . S
H523 C482 0.930 . S
H524 C486 0.929 . S
H525 C488 0.930 1_565 S
H526 C494 0.929 . S
H527 C495 0.930 . S
Li528 N545 1.990 . S
Li528 O588 1.956 . S
Li528 O589 1.970 . S
Li528 O590 1.961 . S
Li529 N553 1.990 . S
Li529 O588 1.970 . S
Li529 O589 1.956 . S
Li529 O591 1.961 . S
Li530 N575 1.990 . S
Li530 O588 1.961 . S
Li530 O590 1.956 . S
Li530 O591 1.970 . S
Li531 N581 1.990 . S
Li531 O589 1.961 . S
Li531 O590 1.970 . S
Li531 O591 1.956 . S
C532 C534 1.348 . S
C532 C535 1.356 . S
C532 O588 1.325 . S
N533 C536 1.314 . S
N533 C537 1.279 . S
C534 C532 1.348 . S
C534 C536 1.353 . S
C534 H592 0.929 . S
C535 C532 1.356 . S
C535 C537 1.358 . S
C535 H593 0.930 . S
C536 N533 1.314 . S
C536 C534 1.353 . S
C536 H594 0.930 . S
C537 N533 1.279 . S
C537 C535 1.358 . S
C537 H595 0.930 . S
C538 C541 1.348 . S
C538 C542 1.356 . S
C538 O589 1.325 . S
C539 N540 1.279 . S
C539 C542 1.358 . S
C539 H596 0.930 . S
N540 C539 1.279 . S
N540 C543 1.314 . S
C541 C538 1.348 . S
C541 C543 1.353 . S
C541 H597 0.929 . S
C542 C538 1.356 . S
C542 C539 1.358 . S
C542 H598 0.930 . S
C543 N540 1.314 . S
C543 C541 1.353 . S
C543 H599 0.930 . S
C544 N545 1.314 . S
C544 C549 1.353 . S
C544 H550 0.930 . S
N545 Li528 1.990 . S
N545 C544 1.314 . S
N545 C547 1.279 . S
C546 C547 1.358 . S
C546 C548 1.356 . S
C546 H600 0.930 . S
C547 N545 1.279 . S
C547 C546 1.358 . S
C547 H551 0.930 . S
C548 C546 1.356 . S
C548 C549 1.348 . S
C549 C544 1.353 . S
C549 C548 1.348 . S
C549 H601 0.929 . S
H550 C544 0.930 . S
H551 C547 0.930 . S
C552 N553 1.314 . S
C552 C554 1.353 . S
C552 H558 0.930 . S
N553 Li529 1.990 . S
N553 C552 1.314 . S
N553 C556 1.279 . S
C554 C552 1.353 . S
C554 C557 1.348 . S
C554 H602 0.929 . S
C555 C556 1.358 . S
C555 C557 1.356 . S
C555 H603 0.930 . S
C556 N553 1.279 . S
C556 C555 1.358 . S
C556 H559 0.930 . S
C557 C554 1.348 . S
C557 C555 1.356 . S
H558 C552 0.930 . S
H559 C556 0.930 . S
C560 C562 1.348 . S
C560 C563 1.356 . S
C560 O590 1.325 . S
N561 C564 1.314 . S
N561 C565 1.279 . S
C562 C560 1.348 . S
C562 C564 1.353 . S
C562 H604 0.929 . S
C563 C560 1.356 . S
C563 C565 1.358 . S
C563 H605 0.930 . S
C564 N561 1.314 . S
C564 C562 1.353 . S
C564 H606 0.930 . S
C565 N561 1.279 . S
C565 C563 1.358 . S
C565 H607 0.930 . S
C566 C567 1.348 . S
C566 C568 1.356 . S
C566 O591 1.325 . S
C567 C566 1.348 . S
C567 C569 1.353 . S
C567 H608 0.929 . S
C568 C566 1.356 . S
C568 C570 1.358 . S
C568 H609 0.930 . S
C569 C567 1.353 . S
C569 N571 1.314 . S
C569 H610 0.930 . S
C570 C568 1.358 . S
C570 N571 1.279 . S
C570 H611 0.930 . S
N571 C569 1.314 . S
N571 C570 1.279 . S
C572 C574 1.353 . S
C572 N575 1.314 . S
C572 H578 0.930 . S
C573 N575 1.279 . S
C573 C576 1.358 . S
C573 H579 0.930 . S
C574 C572 1.353 . S
C574 C577 1.348 . S
C574 H612 0.929 . S
N575 Li530 1.990 . S
N575 C572 1.314 . S
N575 C573 1.279 . S
C576 C573 1.358 . S
C576 C577 1.356 . S
C576 H613 0.930 . S
C577 C574 1.348 . S
C577 C576 1.356 . S
H578 C572 0.930 . S
H579 C573 0.930 . S
C580 N581 1.314 . S
C580 C582 1.353 . S
C580 H586 0.930 . S
N581 Li531 1.990 . S
N581 C580 1.314 . S
N581 C584 1.279 . S
C582 C580 1.353 . S
C582 C585 1.348 1_565 S
C582 H614 0.929 . S
C583 C584 1.358 . S
C583 C585 1.356 1_565 S
C583 H615 0.930 1_565 S
C584 N581 1.279 . S
C584 C583 1.358 . S
C584 H587 0.930 . S
C585 C582 1.348 1_545 S
C585 C583 1.356 1_545 S
H586 C580 0.930 . S
H587 C584 0.930 . S
O588 Li528 1.956 . S
O588 Li529 1.970 . S
O588 Li530 1.961 . S
O588 C532 1.325 . S
O589 Li528 1.970 . S
O589 Li529 1.956 . S
O589 Li531 1.961 . S
O589 C538 1.325 . S
O590 Li528 1.961 . S
O590 Li530 1.956 . S
O590 Li531 1.970 . S
O590 C560 1.325 . S
O591 Li529 1.961 . S
O591 Li530 1.970 . S
O591 Li531 1.956 . S
O591 C566 1.325 . S
H592 C534 0.929 . S
H593 C535 0.930 . S
H594 C536 0.930 . S
H595 C537 0.930 . S
H596 C539 0.930 . S
H597 C541 0.929 . S
H598 C542 0.930 . S
H599 C543 0.930 . S
H600 C546 0.930 . S
H601 C549 0.929 . S
H602 C554 0.929 . S
H603 C555 0.930 . S
H604 C562 0.929 . S
H605 C563 0.930 . S
H606 C564 0.930 . S
H607 C565 0.930 . S
H608 C567 0.929 . S
H609 C568 0.930 . S
H610 C569 0.930 . S
H611 C570 0.930 . S
H612 C574 0.929 . S
H613 C576 0.930 . S
H614 C582 0.929 . S
H615 C583 0.930 1_545 S
Li616 N633 1.990 1_565 S
Li616 O676 1.956 . S
Li616 O677 1.970 . S
Li616 O678 1.961 . S
Li617 N641 1.990 . S
Li617 O676 1.970 . S
Li617 O677 1.956 . S
Li617 O679 1.961 . S
Li618 N663 1.990 . S
Li618 O676 1.961 . S
Li618 O678 1.956 . S
Li618 O679 1.970 . S
Li619 N669 1.990 . S
Li619 O677 1.961 . S
Li619 O678 1.970 . S
Li619 O679 1.956 . S
C620 C622 1.348 . S
C620 C623 1.356 . S
C620 O676 1.325 1_545 S
N621 C624 1.314 . S
N621 C625 1.279 . S
C622 C620 1.348 . S
C622 C624 1.353 . S
C622 H680 0.929 . S
C623 C620 1.356 . S
C623 C625 1.358 . S
C623 H681 0.930 . S
C624 N621 1.314 . S
C624 C622 1.353 . S
C624 H682 0.930 . S
C625 N621 1.279 . S
C625 C623 1.358 . S
C625 H683 0.930 . S
C626 C629 1.348 1_565 S
C626 C630 1.356 . S
C626 O677 1.325 . S
C627 N628 1.279 . S
C627 C630 1.358 . S
C627 H684 0.930 . S
N628 C627 1.279 . S
N628 C631 1.314 1_565 S
C629 C626 1.348 1_545 S
C629 C631 1.353 . S
C629 H685 0.929 . S
C630 C626 1.356 . S
C630 C627 1.358 . S
C630 H686 0.930 . S
C631 N628 1.314 1_545 S
C631 C629 1.353 . S
C631 H687 0.930 . S
C632 N633 1.314 . S
C632 C637 1.353 . S
C632 H638 0.930 . S
N633 Li616 1.990 1_545 S
N633 C632 1.314 . S
N633 C635 1.279 . S
C634 C635 1.358 . S
C634 C636 1.356 . S
C634 H688 0.930 . S
C635 N633 1.279 . S
C635 C634 1.358 . S
C635 H639 0.930 . S
C636 C634 1.356 . S
C636 C637 1.348 . S
C637 C632 1.353 . S
C637 C636 1.348 . S
C637 H689 0.929 . S
H638 C632 0.930 . S
H639 C635 0.930 . S
C640 N641 1.314 . S
C640 C642 1.353 . S
C640 H646 0.930 . S
N641 Li617 1.990 . S
N641 C640 1.314 . S
N641 C644 1.279 . S
C642 C640 1.353 . S
C642 C645 1.348 . S
C642 H690 0.929 . S
C643 C644 1.358 . S
C643 C645 1.356 . S
C643 H691 0.930 1_565 S
C644 N641 1.279 . S
C644 C643 1.358 . S
C644 H647 0.930 . S
C645 C642 1.348 . S
C645 C643 1.356 . S
H646 C640 0.930 . S
H647 C644 0.930 . S
C648 C650 1.348 . S
C648 C651 1.356 . S
C648 O678 1.325 . S
N649 C652 1.314 . S
N649 C653 1.279 . S
C650 C648 1.348 . S
C650 C652 1.353 . S
C650 H692 0.929 . S
C651 C648 1.356 . S
C651 C653 1.358 . S
C651 H693 0.930 . S
C652 N649 1.314 . S
C652 C650 1.353 . S
C652 H694 0.930 . S
C653 N649 1.279 . S
C653 C651 1.358 . S
C653 H695 0.930 . S
C654 C655 1.348 . S
C654 C656 1.356 . S
C654 O679 1.325 . S
C655 C654 1.348 . S
C655 C657 1.353 . S
C655 H696 0.929 . S
C656 C654 1.356 . S
C656 C658 1.358 . S
C656 H697 0.930 . S
C657 C655 1.353 . S
C657 N659 1.314 . S
C657 H698 0.930 . S
C658 C656 1.358 . S
C658 N659 1.279 . S
C658 H699 0.930 . S
N659 C657 1.314 . S
N659 C658 1.279 . S
C660 C662 1.353 . S
C660 N663 1.314 . S
C660 H666 0.930 . S
C661 N663 1.279 . S
C661 C664 1.358 . S
C661 H667 0.930 . S
C662 C660 1.353 . S
C662 C665 1.348 . S
C662 H700 0.929 1_556 S
N663 Li618 1.990 . S
N663 C660 1.314 . S
N663 C661 1.279 . S
C664 C661 1.358 . S
C664 C665 1.356 . S
C664 H701 0.930 . S
C665 C662 1.348 . S
C665 C664 1.356 . S
H666 C660 0.930 . S
H667 C661 0.930 . S
C668 N669 1.314 . S
C668 C670 1.353 . S
C668 H674 0.930 . S
N669 Li619 1.990 . S
N669 C668 1.314 . S
N669 C672 1.279 . S
C670 C668 1.353 . S
C670 C673 1.348 . S
C670 H702 0.929 . S
C671 C672 1.358 . S
C671 C673 1.356 . S
C671 H703 0.930 . S
C672 N669 1.279 . S
C672 C671 1.358 . S
C672 H675 0.930 . S
C673 C670 1.348 . S
C673 C671 1.356 . S
H674 C668 0.930 . S
H675 C672 0.930 . S
O676 Li616 1.956 . S
O676 Li617 1.970 . S
O676 Li618 1.961 . S
O676 C620 1.325 1_565 S
O677 Li616 1.970 . S
O677 Li617 1.956 . S
O677 Li619 1.961 . S
O677 C626 1.325 . S
O678 Li616 1.961 . S
O678 Li618 1.956 . S
O678 Li619 1.970 . S
O678 C648 1.325 . S
O679 Li617 1.961 . S
O679 Li618 1.970 . S
O679 Li619 1.956 . S
O679 C654 1.325 . S
H680 C622 0.929 . S
H681 C623 0.930 . S
H682 C624 0.930 . S
H683 C625 0.930 . S
H684 C627 0.930 . S
H685 C629 0.929 . S
H686 C630 0.930 . S
H687 C631 0.930 . S
H688 C634 0.930 . S
H689 C637 0.929 . S
H690 C642 0.929 . S
H691 C643 0.930 1_545 S
H692 C650 0.929 . S
H693 C651 0.930 . S
H694 C652 0.930 . S
H695 C653 0.930 . S
H696 C655 0.929 . S
H697 C656 0.930 . S
H698 C657 0.930 . S
H699 C658 0.930 . S
H700 C662 0.929 1_554 S
H701 C664 0.930 . S
H702 C670 0.929 . S
H703 C671 0.930 . S
C49 C469 1.408 1_554 S
C108 C557 1.408 . S
C233 C665 1.408 1_554 S
C381 C313 1.408 . S
C29 C372 3.787 . S
C117 C497 3.752 . S
C548 C196 3.787 . S
C321 C636 3.752 . S
C401 C57 3.787 . S
C137 C460 3.751 . S
C577 C225 3.787 . S
C284 C673 3.751 . S
C205 C20 1.290 1_655 S
C293 C145 1.241 1_455 S
C409 C585 1.289 1_565 S
C489 C645 1.242 1_545 S
