# Generated by pormake.
# Topology wjo, (5)-cn, num edge types: 1
# Building blocks:
#     Node 0, Type 0, BuildingBlock: BEQFEK_clean_sbu_0, # of connection points: 5
#     Node 1, Type 0, BuildingBlock: BEQFEK_clean_sbu_0, # of connection points: 5
#     Node 2, Type 0, BuildingBlock: BEQFEK_clean_sbu_0, # of connection points: 5
#     Node 3, Type 0, BuildingBlock: BEQFEK_clean_sbu_0, # of connection points: 5
#     Node 4, Type 0, BuildingBlock: BEQFEK_clean_sbu_0, # of connection points: 5
#     Node 5, Type 0, BuildingBlock: BEQFEK_clean_sbu_0, # of connection points: 5
#     Node 6, Type 0, BuildingBlock: BEQFEK_clean_sbu_0, # of connection points: 5
#     Node 7, Type 0, BuildingBlock: BEQFEK_clean_sbu_0, # of connection points: 5
#     Node 8, Type 0, BuildingBlock: BEQFEK_clean_sbu_0, # of connection points: 5
#     Node 9, Type 0, BuildingBlock: BEQFEK_clean_sbu_0, # of connection points: 5
#     Node 10, Type 0, BuildingBlock: BEQFEK_clean_sbu_0, # of connection points: 5
#     Node 11, Type 0, BuildingBlock: BEQFEK_clean_sbu_0, # of connection points: 5
#     Edge 12, Type (0, 0), BuildingBlock: TEMPAE_clean_linker_10, # of connection points: 2
#     Edge 13, Type (0, 0), BuildingBlock: TEMPAE_clean_linker_10, # of connection points: 2
#     Edge 14, Type (0, 0), BuildingBlock: TEMPAE_clean_linker_10, # of connection points: 2
#     Edge 15, Type (0, 0), BuildingBlock: TEMPAE_clean_linker_10, # of connection points: 2
#     Edge 16, Type (0, 0), BuildingBlock: TEMPAE_clean_linker_10, # of connection points: 2
#     Edge 17, Type (0, 0), BuildingBlock: TEMPAE_clean_linker_10, # of connection points: 2
#     Edge 18, Type (0, 0), BuildingBlock: TEMPAE_clean_linker_10, # of connection points: 2
#     Edge 19, Type (0, 0), BuildingBlock: TEMPAE_clean_linker_10, # of connection points: 2
#     Edge 20, Type (0, 0), BuildingBlock: TEMPAE_clean_linker_10, # of connection points: 2
#     Edge 21, Type (0, 0), BuildingBlock: TEMPAE_clean_linker_10, # of connection points: 2
#     Edge 22, Type (0, 0), BuildingBlock: TEMPAE_clean_linker_10, # of connection points: 2
#     Edge 23, Type (0, 0), BuildingBlock: TEMPAE_clean_linker_10, # of connection points: 2
#     Edge 24, Type (0, 0), BuildingBlock: TEMPAE_clean_linker_10, # of connection points: 2
#     Edge 25, Type (0, 0), BuildingBlock: TEMPAE_clean_linker_10, # of connection points: 2
#     Edge 26, Type (0, 0), BuildingBlock: TEMPAE_clean_linker_10, # of connection points: 2
#     Edge 27, Type (0, 0), BuildingBlock: TEMPAE_clean_linker_10, # of connection points: 2
#     Edge 28, Type (0, 0), BuildingBlock: TEMPAE_clean_linker_10, # of connection points: 2
#     Edge 29, Type (0, 0), BuildingBlock: TEMPAE_clean_linker_10, # of connection points: 2
#     Edge 30, Type (0, 0), BuildingBlock: TEMPAE_clean_linker_10, # of connection points: 2
#     Edge 31, Type (0, 0), BuildingBlock: TEMPAE_clean_linker_10, # of connection points: 2
#     Edge 32, Type (0, 0), BuildingBlock: TEMPAE_clean_linker_10, # of connection points: 2
#     Edge 33, Type (0, 0), BuildingBlock: TEMPAE_clean_linker_10, # of connection points: 2
#     Edge 34, Type (0, 0), BuildingBlock: TEMPAE_clean_linker_10, # of connection points: 2
#     Edge 35, Type (0, 0), BuildingBlock: TEMPAE_clean_linker_10, # of connection points: 2
#     Edge 36, Type (0, 0), BuildingBlock: TEMPAE_clean_linker_10, # of connection points: 2
#     Edge 37, Type (0, 0), BuildingBlock: TEMPAE_clean_linker_10, # of connection points: 2
#     Edge 38, Type (0, 0), BuildingBlock: TEMPAE_clean_linker_10, # of connection points: 2
#     Edge 39, Type (0, 0), BuildingBlock: TEMPAE_clean_linker_10, # of connection points: 2
#     Edge 40, Type (0, 0), BuildingBlock: TEMPAE_clean_linker_10, # of connection points: 2
#     Edge 41, Type (0, 0), BuildingBlock: TEMPAE_clean_linker_10, # of connection points: 2
# Relax obj value: 0.787
# Max RMSD: 0.255
# Mean RMSD: 0.245
data_MOF--net-wjo--node1-BEQFEK_clean_sbu_0--edge1-TEMPAE_clean_linker_10
_symmetry_space_group_name_H-M    P1
_symmetry_Int_Tables_number       1
_symmetry_cell_setting            triclinic
loop_
_symmetry_equiv_pos_as_xyz
'x, y, z'
_cell_length_a     46.481537
_cell_length_b     46.294662
_cell_length_c     27.523121
_cell_angle_alpha  90.085168
_cell_angle_beta   89.995615
_cell_angle_gamma 120.11408
loop_
_atom_site_label
_atom_site_type_symbol
_atom_site_fract_x
_atom_site_fract_y
_atom_site_fract_z
_atom_type_partial_charge
Co0 Co 0.30221 0.37145 0.91071 0.0
Co1 Co 0.29166 0.41661 0.9853 0.0
C2 C 0.2949 0.35733 0.01804 0.0
O3 O 0.30158 0.35169 0.97538 0.0
O4 O 0.28914 0.38092 0.02683 0.0
C5 C 0.32483 0.33249 0.86688 0.0
O6 O 0.34612 0.34687 0.90263 0.0
C7 C 0.27021 0.44104 0.06783 0.0
C8 C 0.29058 0.49417 0.0485 0.0
C9 C 0.27397 0.47097 0.08473 0.0
N10 N 0.28378 0.44627 0.02335 0.0
N11 N 0.29559 0.47796 0.01177 0.0
C12 C 0.25806 0.40915 0.09552 0.0
H13 H 0.2798 0.40727 0.10777 0.0
H14 H 0.24272 0.38754 0.07143 0.0
H15 H 0.24338 0.40784 0.12795 0.0
C16 C 0.23369 0.35707 0.88315 0.0
N17 N 0.26346 0.37619 0.90496 0.0
N18 N 0.2611 0.39762 0.93378 0.0
C19 C 0.23055 0.39382 0.92983 0.0
C20 C 0.21183 0.36775 0.89799 0.0
C21 C 0.22496 0.32611 0.85498 0.0
H22 H 0.24309 0.33229 0.825 0.0
H23 H 0.2269 0.30798 0.87914 0.0
H24 H 0.1994 0.31458 0.83987 0.0
O25 O 0.34595 0.41506 0.90555 0.0
O26 O 0.3374 0.44321 0.96337 0.0
H27 H 0.23502 0.43729 0.96468 0.0
H28 H 0.19278 0.40573 0.95184 0.0
C29 C 0.21745 0.41002 0.96346 0.0
H30 H 0.21511 0.39975 0.00054 0.0
H31 H 0.30829 0.48882 0.97959 0.0
O32 O 0.30205 0.33976 0.86112 0.0
C33 C 0.35636 0.44089 0.93246 0.0
Co34 Co 0.93516 0.29384 0.08153 0.0
Co35 Co 0.8751 0.2832 0.14693 0.0
C36 C 0.93825 0.29137 0.18972 0.0
O37 O 0.95162 0.29376 0.14837 0.0
O38 O 0.90925 0.28753 0.19355 0.0
C39 C 0.99879 0.31717 0.04263 0.0
O40 O 1.00506 0.33829 0.07851 0.0
C41 C 0.82636 0.25895 0.22557 0.0
C42 C 0.79281 0.27752 0.20335 0.0
C43 C 0.799 0.26115 0.24037 0.0
N44 N 0.83577 0.2732 0.18163 0.0
N45 N 0.81539 0.28388 0.16824 0.0
C46 C 0.84615 0.24777 0.25489 0.0
H47 H 0.86689 0.26984 0.27298 0.0
H48 H 0.85692 0.23643 0.23071 0.0
H49 H 0.83104 0.22958 0.28334 0.0
C50 C 0.88347 0.22414 0.0524 0.0
N51 N 0.8926 0.25389 0.07359 0.0
N52 N 0.86734 0.25088 0.09923 0.0
C53 C 0.84115 0.21995 0.0936 0.0
C54 C 0.85039 0.20166 0.06406 0.0
C55 C 0.90719 0.21626 0.02716 0.0
H56 H 0.91946 0.23419 0.99697 0.0
H57 H 0.92689 0.21947 0.05305 0.0
H58 H 0.89431 0.19037 0.01267 0.0
O59 O 0.93385 0.33703 0.07278 0.0
O60 O 0.89052 0.32651 0.11857 0.0
H61 H 0.80022 0.22401 0.12116 0.0
H62 H 0.79025 0.18177 0.1096 0.0
C63 C 0.80986 0.20647 0.12289 0.0
H64 H 0.81537 0.20393 0.16132 0.0
H65 H 0.8178 0.29681 0.13606 0.0
O66 O 0.96878 0.29448 0.03523 0.0
C67 C 0.91414 0.34592 0.09091 0.0
Co68 Co 0.63789 0.92828 0.2428 0.0
Co69 Co 0.5842 0.87044 0.30762 0.0
C70 C 0.64334 0.93156 0.35021 0.0
O71 O 0.65545 0.94451 0.30907 0.0
O72 O 0.61643 0.9037 0.35362 0.0
C73 C 0.68128 0.99056 0.20323 0.0
O74 O 0.66696 0.99799 0.23842 0.0
C75 C 0.56023 0.82227 0.38654 0.0
C76 C 0.50593 0.79429 0.37396 0.0
C77 C 0.53042 0.79774 0.40604 0.0
N78 N 0.55371 0.83268 0.34466 0.0
N79 N 0.52127 0.81557 0.33693 0.0
C80 C 0.59387 0.83875 0.41005 0.0
H81 H 0.59633 0.85916 0.43405 0.0
H82 H 0.61365 0.84957 0.38202 0.0
H83 H 0.59747 0.82101 0.43252 0.0
C84 C 0.65202 0.87353 0.22073 0.0
N85 N 0.63122 0.88406 0.23629 0.0
N86 N 0.60643 0.85948 0.25991 0.0
C87 C 0.6096 0.8322 0.25765 0.0
C88 C 0.63921 0.84028 0.23441 0.0
C89 C 0.68633 0.89674 0.2023 0.0
H90 H 0.68468 0.90929 0.16896 0.0
H91 H 0.70025 0.91644 0.22988 0.0
H92 H 0.7 0.88339 0.19409 0.0
O93 O 0.596 0.93166 0.23455 0.0
O94 O 0.55959 0.89011 0.28094 0.0
H95 H 0.56077 0.79423 0.27977 0.0
H96 H 0.58905 0.77914 0.26624 0.0
C97 C 0.58689 0.7999 0.28265 0.0
H98 H 0.59369 0.80175 0.32155 0.0
H99 H 0.50946 0.81956 0.30761 0.0
O100 O 0.6723 0.96001 0.19624 0.0
C101 C 0.5671 0.91483 0.25343 0.0
Co102 Co 0.71052 0.6313 0.39413 0.0
Co103 Co 0.72435 0.5886 0.46908 0.0
C104 C 0.71571 0.64487 0.5016 0.0
O105 O 0.70924 0.65023 0.4587 0.0
O106 O 0.72311 0.62249 0.51065 0.0
C107 C 0.72369 0.69283 0.3492 0.0
O108 O 0.74532 0.70603 0.38479 0.0
C109 C 0.74882 0.56753 0.55181 0.0
C110 C 0.73028 0.5144 0.53422 0.0
C111 C 0.74662 0.53849 0.56958 0.0
N112 N 0.7346 0.56094 0.50768 0.0
N113 N 0.72391 0.52928 0.49711 0.0
C114 C 0.76007 0.59972 0.57844 0.0
H115 H 0.73794 0.60002 0.5929 0.0
H116 H 0.77309 0.62104 0.55306 0.0
H117 H 0.77668 0.60292 0.6093 0.0
C118 C 0.78029 0.64755 0.364 0.0
N119 N 0.75119 0.62924 0.38812 0.0
N120 N 0.75489 0.60919 0.41815 0.0
C121 C 0.7855 0.61335 0.41325 0.0
C122 C 0.80295 0.63805 0.3792 0.0
C123 C 0.78779 0.67603 0.33094 0.0
H124 H 0.76549 0.67035 0.30916 0.0
H125 H 0.7951 0.69873 0.35303 0.0
H126 H 0.80876 0.68114 0.30635 0.0
O127 O 0.66832 0.58612 0.38962 0.0
O128 O 0.67971 0.559 0.44543 0.0
H129 H 0.78277 0.57071 0.44803 0.0
H130 H 0.82446 0.60301 0.43441 0.0
C131 C 0.7997 0.59809 0.44658 0.0
H132 H 0.8021 0.60848 0.48364 0.0
H133 H 0.71099 0.51747 0.46543 0.0
O134 O 0.70703 0.66119 0.34483 0.0
C135 C 0.65982 0.55993 0.41486 0.0
Co136 Co 0.07718 0.71235 0.56646 0.0
Co137 Co 0.13543 0.72427 0.637 0.0
C138 C 0.0701 0.71405 0.67367 0.0
O139 O 0.05735 0.70933 0.63143 0.0
O140 O 0.09982 0.72051 0.68032 0.0
C141 C 0.01495 0.68799 0.52241 0.0
O142 O 0.00828 0.66606 0.55716 0.0
C143 C 0.18083 0.749 0.71994 0.0
C144 C 0.21542 0.73066 0.703 0.0
C145 C 0.20751 0.74689 0.73826 0.0
N146 N 0.17343 0.73479 0.6757 0.0
N147 N 0.19444 0.72426 0.66549 0.0
C148 C 0.15985 0.7602 0.74613 0.0
H149 H 0.13807 0.73807 0.76225 0.0
H150 H 0.1506 0.77201 0.72017 0.0
H151 H 0.17362 0.778 0.7758 0.0
C152 C 0.12719 0.78429 0.54665 0.0
N153 N 0.11921 0.75363 0.56309 0.0
N154 N 0.14433 0.75649 0.58898 0.0
C155 C 0.16945 0.78824 0.58755 0.0
C156 C 0.15932 0.80737 0.562 0.0
C157 C 0.10241 0.79214 0.52498 0.0
H158 H 0.09134 0.77656 0.49208 0.0
H159 H 0.08198 0.78559 0.55136 0.0
H160 H 0.11407 0.81895 0.51522 0.0
O161 O 0.08048 0.67045 0.55781 0.0
O162 O 0.12144 0.68088 0.60891 0.0
H163 H 0.21996 0.82634 0.60402 0.0
H164 H 0.19497 0.80389 0.65565 0.0
C165 C 0.20057 0.80142 0.61723 0.0
H166 H 0.2103 0.78396 0.61522 0.0
H167 H 0.19349 0.71136 0.63385 0.0
O168 O 0.04483 0.71162 0.51754 0.0
C169 C 0.09951 0.66175 0.5787 0.0
Co170 Co 0.37297 0.07878 0.74047 0.0
Co171 Co 0.42377 0.13794 0.80633 0.0
C172 C 0.36759 0.07405 0.84778 0.0
O173 O 0.35534 0.06133 0.80652 0.0
O174 O 0.39368 0.10256 0.85128 0.0
C175 C 0.30968 0.03134 0.69698 0.0
O176 O 0.29711 0.0406 0.73239 0.0
C177 C 0.44444 0.18458 0.88734 0.0
C178 C 0.4988 0.21474 0.87647 0.0
C179 C 0.47354 0.2093 0.90838 0.0
N180 N 0.45212 0.17586 0.84484 0.0
N181 N 0.48458 0.19436 0.83809 0.0
C182 C 0.41064 0.1662 0.91008 0.0
H183 H 0.39125 0.1535 0.88182 0.0
H184 H 0.40516 0.18335 0.93091 0.0
H185 H 0.40974 0.14722 0.9356 0.0
C186 C 0.35885 0.13371 0.71008 0.0
N187 N 0.37727 0.12251 0.73271 0.0
N188 N 0.39981 0.14707 0.75953 0.0
C189 C 0.39706 0.17444 0.75384 0.0
C190 C 0.37072 0.16692 0.72288 0.0
C191 C 0.32852 0.11259 0.6803 0.0
H192 H 0.33214 0.0947 0.65806 0.0
H193 H 0.30698 0.09858 0.70483 0.0
H194 H 0.32298 0.12838 0.65614 0.0
O195 O 0.41689 0.07918 0.73333 0.0
O196 O 0.45205 0.12361 0.77625 0.0
H197 H 0.44264 0.21317 0.78449 0.0
H198 H 0.41376 0.22663 0.76819 0.0
C199 C 0.41596 0.20568 0.78337 0.0
H200 H 0.40607 0.20095 0.82095 0.0
H201 H 0.49723 0.19175 0.80863 0.0
O202 O 0.34112 0.04499 0.69292 0.0
C203 C 0.44616 0.09895 0.74945 0.0
Co204 Co 0.64376 0.70983 0.91669 0.0
Co205 Co 0.59438 0.71916 0.8491 0.0
C206 C 0.6487 0.70895 0.80893 0.0
O207 O 0.65832 0.70542 0.85066 0.0
O208 O 0.62493 0.71483 0.80368 0.0
C209 C 0.68361 0.68698 0.95863 0.0
O210 O 0.66731 0.66413 0.9253 0.0
C211 C 0.57061 0.74206 0.76779 0.0
C212 C 0.51805 0.72315 0.7878 0.0
C213 C 0.54115 0.73934 0.75132 0.0
N214 N 0.5652 0.72828 0.81217 0.0
N215 N 0.53386 0.71735 0.82418 0.0
C216 C 0.60219 0.75355 0.73986 0.0
H217 H 0.62386 0.76586 0.76473 0.0
H218 H 0.60516 0.77096 0.71024 0.0
H219 H 0.60188 0.73149 0.72342 0.0
C220 C 0.66536 0.78208 0.93414 0.0
N221 N 0.64256 0.75094 0.91942 0.0
N222 N 0.61921 0.75276 0.89488 0.0
C223 C 0.62532 0.78435 0.89549 0.0
C224 C 0.65532 0.80443 0.91891 0.0
C225 C 0.69869 0.79086 0.9541 0.0
H226 H 0.712 0.7839 0.92725 0.0
H227 H 0.71383 0.81791 0.96255 0.0
H228 H 0.69531 0.77612 0.98752 0.0
O229 O 0.59918 0.66799 0.92929 0.0
O230 O 0.56647 0.67653 0.88004 0.0
H231 H 0.61058 0.82101 0.88139 0.0
H232 H 0.61167 0.79826 0.82897 0.0
C233 C 0.6053 0.79616 0.8681 0.0
H234 H 0.57841 0.77807 0.87247 0.0
H235 H 0.52292 0.70469 0.85636 0.0
O236 O 0.67733 0.71063 0.96338 0.0
C237 C 0.57064 0.65846 0.91053 0.0
Co238 Co 0.93417 0.63419 0.089 0.0
Co239 Co 0.87723 0.58867 0.01632 0.0
C240 C 0.94039 0.64642 0.98143 0.0
O241 O 0.95306 0.65272 0.02386 0.0
O242 O 0.9108 0.62309 0.9735 0.0
C243 C 0.99635 0.67329 0.13176 0.0
O244 O 1.00304 0.65859 0.09622 0.0
C245 C 0.83015 0.5659 0.93558 0.0
C246 C 0.7989 0.512 0.95139 0.0
C247 C 0.80442 0.53622 0.91735 0.0
N248 N 0.8393 0.55956 0.97869 0.0
N249 N 0.82024 0.52741 0.9883 0.0
C250 C 0.84883 0.59877 0.9099 0.0
H251 H 0.85776 0.61954 0.93649 0.0
H252 H 0.83339 0.60182 0.88204 0.0
H253 H 0.8708 0.60025 0.89157 0.0
C254 C 0.88129 0.65058 0.11639 0.0
N255 N 0.89117 0.63067 0.09503 0.0
N256 N 0.86677 0.60894 0.06734 0.0
C257 C 0.84032 0.6132 0.07194 0.0
C258 C 0.84859 0.64003 0.10265 0.0
C259 C 0.90429 0.68195 0.14315 0.0
H260 H 0.91603 0.67597 0.17365 0.0
H261 H 0.92446 0.69916 0.11834 0.0
H262 H 0.89093 0.69443 0.15742 0.0
O263 O 0.93343 0.59011 0.09493 0.0
O264 O 0.89531 0.56136 0.03911 0.0
H265 H 0.80121 0.56914 0.03826 0.0
H266 H 0.78954 0.59954 0.05444 0.0
C267 C 0.81003 0.59622 0.04031 0.0
H268 H 0.81638 0.6069 0.00322 0.0
H269 H 0.82288 0.51572 0.01898 0.0
O270 O 0.96634 0.66615 0.13775 0.0
C271 C 0.917 0.56376 0.06931 0.0
Co272 Co 0.29806 0.92984 0.25714 0.0
Co273 Co 0.2908 0.87105 0.19128 0.0
C274 C 0.29819 0.93499 0.15004 0.0
O275 O 0.29796 0.94745 0.19124 0.0
O276 O 0.29633 0.90671 0.14666 0.0
C277 C 0.28178 0.9769 0.30198 0.0
O278 O 0.2595 0.9676 0.26722 0.0
C279 C 0.26505 0.82489 0.10966 0.0
C280 C 0.28951 0.79489 0.11964 0.0
C281 C 0.26949 0.80034 0.08815 0.0
N282 N 0.28158 0.83349 0.15206 0.0
N283 N 0.29573 0.81511 0.15824 0.0
C284 C 0.24934 0.84319 0.08754 0.0
H285 H 0.24262 0.85565 0.11617 0.0
H286 H 0.22671 0.82605 0.06672 0.0
H287 H 0.26726 0.86239 0.06213 0.0
C288 C 0.22904 0.87427 0.28666 0.0
N289 N 0.25883 0.88587 0.26436 0.0
N290 N 0.25727 0.8615 0.23754 0.0
C291 C 0.22732 0.83388 0.24296 0.0
C292 C 0.20812 0.84103 0.27369 0.0
C293 C 0.21931 0.89503 0.31635 0.0
H294 H 0.24062 0.9131 0.33872 0.0
H295 H 0.21156 0.90883 0.29173 0.0
H296 H 0.19799 0.879 0.34037 0.0
O297 O 0.34172 0.92972 0.26439 0.0
O298 O 0.33309 0.88516 0.22228 0.0
H299 H 0.23507 0.79567 0.21243 0.0
H300 H 0.19258 0.78149 0.22876 0.0
C301 C 0.21553 0.80268 0.21352 0.0
H302 H 0.21017 0.80719 0.17593 0.0
H303 H 0.3111 0.81765 0.18752 0.0
O304 O 0.29981 0.96346 0.30504 0.0
C305 C 0.3515 0.91001 0.24899 0.0
Co306 Co 0.36883 0.29446 0.43119 0.0
Co307 Co 0.41172 0.27888 0.35898 0.0
C308 C 0.35614 0.28797 0.32396 0.0
O309 O 0.35072 0.29553 0.36616 0.0
O310 O 0.37812 0.27982 0.31638 0.0
C311 C 0.33165 0.32026 0.47376 0.0
O312 O 0.34607 0.34098 0.43742 0.0
C313 C 0.43316 0.25405 0.27688 0.0
C314 C 0.48564 0.27174 0.29597 0.0
C315 C 0.46218 0.25611 0.2597 0.0
N316 N 0.43919 0.26773 0.32145 0.0
N317 N 0.47045 0.27782 0.33295 0.0
C318 C 0.40165 0.24363 0.24926 0.0
H319 H 0.37995 0.23032 0.27381 0.0
H320 H 0.39876 0.22738 0.21792 0.0
H321 H 0.40194 0.26626 0.23536 0.0
C322 C 0.34687 0.22312 0.45569 0.0
N323 N 0.36939 0.25314 0.43712 0.0
N324 N 0.39062 0.24906 0.41051 0.0
C325 C 0.38357 0.21722 0.41354 0.0
C326 C 0.35503 0.19922 0.44108 0.0
C327 C 0.31489 0.21636 0.47847 0.0
H328 H 0.3203 0.23316 0.51018 0.0
H329 H 0.30047 0.22208 0.45192 0.0
H330 H 0.29986 0.18996 0.49033 0.0
O331 O 0.41428 0.33658 0.4363 0.0
O332 O 0.44094 0.32396 0.38127 0.0
H333 H 0.42694 0.21905 0.38316 0.0
H334 H 0.39328 0.17738 0.39552 0.0
C335 C 0.39956 0.20257 0.38251 0.0
H336 H 0.3907 0.20038 0.34454 0.0
H337 H 0.48186 0.29037 0.36506 0.0
O338 O 0.33821 0.29696 0.48024 0.0
C339 C 0.44021 0.34457 0.41087 0.0
Co340 Co 0.08324 0.37488 0.59473 0.0
Co341 Co 0.14248 0.42329 0.52707 0.0
C342 C 0.0806 0.36468 0.48715 0.0
O343 O 0.0671 0.35519 0.52882 0.0
O344 O 0.10941 0.39016 0.48233 0.0
C345 C 0.03395 0.31258 0.63935 0.0
O346 O 0.04229 0.29865 0.60468 0.0
C347 C 0.19148 0.4466 0.44883 0.0
C348 C 0.22205 0.50048 0.46553 0.0
C349 C 0.21746 0.47646 0.43155 0.0
N350 N 0.18129 0.45268 0.49129 0.0
N351 N 0.19996 0.48482 0.50146 0.0
C352 C 0.17354 0.41382 0.42267 0.0
H353 H 0.15319 0.41311 0.40066 0.0
H354 H 0.16251 0.39299 0.44916 0.0
H355 H 0.19021 0.41018 0.39789 0.0
C356 C 0.13754 0.36152 0.62906 0.0
N357 N 0.12687 0.38008 0.60546 0.0
N358 N 0.1516 0.40223 0.57865 0.0
C359 C 0.17864 0.39923 0.58548 0.0
C360 C 0.17068 0.37297 0.61706 0.0
C361 C 0.11558 0.3307 0.65744 0.0
H362 H 0.09782 0.33451 0.67954 0.0
H363 H 0.10141 0.30968 0.63191 0.0
H364 H 0.13058 0.32411 0.68154 0.0
O365 O 0.08233 0.41847 0.59726 0.0
O366 O 0.12426 0.45046 0.54847 0.0
H367 H 0.21803 0.44391 0.5539 0.0
H368 H 0.23002 0.41383 0.56991 0.0
C369 C 0.20952 0.41689 0.55522 0.0
H370 H 0.20398 0.40668 0.51777 0.0
H371 H 0.19655 0.49633 0.53178 0.0
O372 O 0.04909 0.34428 0.64273 0.0
C373 C 0.1001 0.446 0.57494 0.0
Co374 Co 0.71382 0.0793 0.75443 0.0
Co375 Co 0.71896 0.13658 0.68713 0.0
C376 C 0.71642 0.07483 0.64681 0.0
O377 O 0.71477 0.06215 0.6885 0.0
O378 O 0.71825 0.10305 0.64229 0.0
C379 C 0.7306 0.03187 0.7952 0.0
O380 O 0.75021 0.03978 0.75721 0.0
C381 C 0.74191 0.18412 0.60709 0.0
C382 C 0.71485 0.21133 0.6202 0.0
C383 C 0.73561 0.20795 0.58749 0.0
N384 N 0.72575 0.17397 0.6496 0.0
N385 N 0.71003 0.19068 0.65765 0.0
C386 C 0.75924 0.16797 0.58313 0.0
H387 H 0.76786 0.15657 0.61075 0.0
H388 H 0.78091 0.1862 0.56164 0.0
H389 H 0.74164 0.14818 0.55806 0.0
C390 C 0.78329 0.13563 0.77792 0.0
N391 N 0.75202 0.12395 0.76076 0.0
N392 N 0.75175 0.14798 0.73553 0.0
C393 C 0.78191 0.17563 0.73773 0.0
C394 C 0.80349 0.16856 0.7628 0.0
C395 C 0.79522 0.11426 0.80068 0.0
H396 H 0.77614 0.09622 0.82597 0.0
H397 H 0.79986 0.10039 0.77178 0.0
H398 H 0.8188 0.12973 0.82079 0.0
O399 O 0.66873 0.07659 0.76163 0.0
O400 O 0.67463 0.1173 0.71286 0.0
H401 H 0.81458 0.22837 0.72585 0.0
H402 H 0.79588 0.20412 0.67197 0.0
C403 C 0.79143 0.20722 0.71066 0.0
H404 H 0.77114 0.21315 0.71301 0.0
H405 H 0.6946 0.18671 0.68745 0.0
O406 O 0.71397 0.04657 0.80201 0.0
C407 C 0.657 0.09318 0.74099 0.0
C408 C 0.246 0.46424 0.36509 0.0
C409 C 0.23205 0.48282 0.38266 0.0
C410 C 0.25539 0.46647 0.31628 0.0
C411 C 0.25088 0.48803 0.28474 0.0
C412 C 0.23884 0.50851 0.30323 0.0
C413 C 0.22959 0.50569 0.35224 0.0
C414 C 0.26848 0.44448 0.29795 0.0
C415 C 0.23393 0.53194 0.27075 0.0
C416 C 0.29279 0.50301 0.16192 0.0
C417 C 0.26707 0.47825 0.13394 0.0
C418 C 0.28764 0.50746 0.2109 0.0
C419 C 0.25597 0.48676 0.23181 0.0
C420 C 0.22945 0.463 0.20274 0.0
C421 C 0.23534 0.45913 0.15394 0.0
C422 C 0.31639 0.53316 0.24076 0.0
C423 C 0.19523 0.44069 0.22367 0.0
H424 H 0.24861 0.44721 0.38924 0.0
H425 H 0.21889 0.52015 0.36618 0.0
H426 H 0.25032 0.42571 0.27221 0.0
H427 H 0.29209 0.45957 0.27787 0.0
H428 H 0.27289 0.43108 0.32789 0.0
H429 H 0.22817 0.54891 0.2918 0.0
H430 H 0.25649 0.54723 0.24852 0.0
H431 H 0.21309 0.51722 0.24527 0.0
H432 H 0.3173 0.51787 0.14606 0.0
H433 H 0.21538 0.44051 0.13166 0.0
H434 H 0.32387 0.52035 0.26773 0.0
H435 H 0.30892 0.54897 0.26131 0.0
H436 H 0.33834 0.54952 0.21795 0.0
H437 H 0.19645 0.424 0.25148 0.0
H438 H 0.17689 0.42499 0.19544 0.0
H439 H 0.1861 0.45592 0.24199 0.0
C440 C 0.78234 0.27888 0.31542 0.0
C441 C 0.78365 0.25375 0.28886 0.0
C442 C 0.77187 0.27366 0.36401 0.0
C443 C 0.7625 0.24258 0.38607 0.0
C444 C 0.76185 0.21648 0.3583 0.0
C445 C 0.77226 0.22236 0.30977 0.0
C446 C 0.77246 0.3019 0.39234 0.0
C447 C 0.75174 0.18288 0.38047 0.0
C448 C 0.77574 0.23696 0.52047 0.0
C449 C 0.74308 0.22128 0.53777 0.0
C450 C 0.78256 0.2453 0.47129 0.0
C451 C 0.75601 0.23803 0.43903 0.0
C452 C 0.7232 0.22413 0.45706 0.0
C453 C 0.71711 0.21593 0.50647 0.0
C454 C 0.81794 0.2604 0.45347 0.0
C455 C 0.69435 0.21632 0.42382 0.0
H456 H 0.79095 0.3031 0.29888 0.0
H457 H 0.77237 0.20269 0.28848 0.0
H458 H 0.74879 0.29298 0.4124 0.0
H459 H 0.79276 0.31138 0.41964 0.0
H460 H 0.77653 0.32297 0.36849 0.0
H461 H 0.75052 0.16464 0.3531 0.0
H462 H 0.76992 0.18584 0.40897 0.0
H463 H 0.72709 0.17246 0.39824 0.0
H464 H 0.79584 0.2419 0.54524 0.0
H465 H 0.69184 0.20388 0.52016 0.0
H466 H 0.82516 0.28356 0.43269 0.0
H467 H 0.81995 0.24266 0.42847 0.0
H468 H 0.83591 0.26641 0.48372 0.0
H469 H 0.70023 0.23809 0.40042 0.0
H470 H 0.67118 0.2093 0.44435 0.0
H471 H 0.6897 0.19527 0.39949 0.0
C472 C 0.54279 0.76796 0.47054 0.0
C473 C 0.5251 0.78337 0.45508 0.0
C474 C 0.54173 0.75862 0.51918 0.0
C475 C 0.52218 0.76457 0.55277 0.0
C476 C 0.50257 0.77816 0.53653 0.0
C477 C 0.50423 0.78738 0.48764 0.0
C478 C 0.56278 0.74392 0.53505 0.0
C479 C 0.48123 0.78459 0.57122 0.0
C480 C 0.50813 0.72178 0.67494 0.0
C481 C 0.534 0.74685 0.70236 0.0
C482 C 0.50315 0.72747 0.62643 0.0
C483 C 0.5245 0.75902 0.60534 0.0
C484 C 0.54959 0.78491 0.63383 0.0
C485 C 0.55391 0.77852 0.68221 0.0
C486 C 0.47601 0.69937 0.59724 0.0
C487 C 0.57267 0.81899 0.61272 0.0
H488 H 0.55817 0.76407 0.44478 0.0
H489 H 0.49044 0.79919 0.47538 0.0
H490 H 0.58255 0.76149 0.56014 0.0
H491 H 0.54741 0.72031 0.55518 0.0
H492 H 0.57475 0.7388 0.50385 0.0
H493 H 0.46476 0.79177 0.55195 0.0
H494 H 0.46563 0.7621 0.59351 0.0
H495 H 0.49739 0.80505 0.59652 0.0
H496 H 0.49261 0.69733 0.69089 0.0
H497 H 0.57329 0.7981 0.70411 0.0
H498 H 0.4873 0.69131 0.56861 0.0
H499 H 0.46047 0.70798 0.57869 0.0
H500 H 0.45969 0.67743 0.62017 0.0
H501 H 0.58782 0.8168 0.58334 0.0
H502 H 0.58975 0.83682 0.64043 0.0
H503 H 0.55809 0.82948 0.5963 0.0
C504 C 0.72921 0.50762 0.64762 0.0
C505 C 0.75428 0.5325 0.61904 0.0
C506 C 0.73499 0.50405 0.69665 0.0
C507 C 0.76664 0.52574 0.71698 0.0
C508 C 0.79253 0.54972 0.68737 0.0
C509 C 0.786 0.55275 0.63855 0.0
C510 C 0.70687 0.47816 0.72712 0.0
C511 C 0.82673 0.57303 0.7077 0.0
C512 C 0.77642 0.54851 0.85032 0.0
C513 C 0.79062 0.5302 0.86798 0.0
C514 C 0.76719 0.54622 0.80142 0.0
C515 C 0.7723 0.52503 0.76982 0.0
C516 C 0.78497 0.5051 0.78825 0.0
C517 C 0.79389 0.50784 0.83741 0.0
C518 C 0.75337 0.56757 0.78315 0.0
C519 C 0.79069 0.48221 0.75562 0.0
H520 H 0.7047 0.49191 0.63215 0.0
H521 H 0.80548 0.57145 0.61581 0.0
H522 H 0.71506 0.46282 0.74729 0.0
H523 H 0.69938 0.49079 0.75445 0.0
H524 H 0.68476 0.46135 0.70484 0.0
H525 H 0.84459 0.5888 0.67912 0.0
H526 H 0.82515 0.58965 0.73535 0.0
H527 H 0.83669 0.55857 0.72609 0.0
H528 H 0.7734 0.56529 0.87454 0.0
H529 H 0.80486 0.49367 0.85143 0.0
H530 H 0.72973 0.55198 0.76328 0.0
H531 H 0.77115 0.58641 0.75723 0.0
H532 H 0.74873 0.58084 0.81309 0.0
H533 H 0.76807 0.4661 0.73393 0.0
H534 H 0.79759 0.46605 0.77648 0.0
H535 H 0.81101 0.49734 0.72965 0.0
C536 C 0.22077 0.72919 0.81623 0.0
C537 C 0.22075 0.75434 0.78809 0.0
C538 C 0.23014 0.73477 0.8653 0.0
C539 C 0.23992 0.76632 0.88623 0.0
C540 C 0.2414 0.79226 0.85717 0.0
C541 C 0.23188 0.78595 0.80825 0.0
C542 C 0.22838 0.70659 0.89514 0.0
C543 C 0.25204 0.82635 0.87812 0.0
C544 C 0.22855 0.77405 0.02095 0.0
C545 C 0.26122 0.7881 0.03786 0.0
C546 C 0.22109 0.76588 0.97176 0.0
C547 C 0.24702 0.77185 0.93903 0.0
C548 C 0.27985 0.78465 0.95648 0.0
C549 C 0.28655 0.79252 0.00592 0.0
C550 C 0.1857 0.75191 0.95455 0.0
C551 C 0.30809 0.79131 0.92265 0.0
H552 H 0.21226 0.70478 0.80032 0.0
H553 H 0.23261 0.80556 0.78588 0.0
H554 H 0.25233 0.71491 0.91416 0.0
H555 H 0.20891 0.69908 0.92342 0.0
H556 H 0.22252 0.68436 0.8726 0.0
H557 H 0.2534 0.84421 0.85005 0.0
H558 H 0.23415 0.8242 0.90655 0.0
H559 H 0.27676 0.83676 0.89573 0.0
H560 H 0.20891 0.76993 0.04614 0.0
H561 H 0.31184 0.8034 0.01927 0.0
H562 H 0.17734 0.72823 0.93443 0.0
H563 H 0.18432 0.76974 0.92907 0.0
H564 H 0.16821 0.74712 0.98506 0.0
H565 H 0.30172 0.76872 0.90079 0.0
H566 H 0.33165 0.79896 0.94254 0.0
H567 H 0.3123 0.81145 0.89686 0.0
C568 C 0.45911 0.23499 0.97664 0.0
C569 C 0.47783 0.22127 0.95882 0.0
C570 C 0.4597 0.24235 0.02615 0.0
C571 C 0.47965 0.23592 0.05824 0.0
C572 C 0.49993 0.22366 0.03986 0.0
C573 C 0.49885 0.21657 0.99013 0.0
C574 C 0.43801 0.25577 0.04437 0.0
C575 C 0.52155 0.21658 0.07299 0.0
C576 C 0.4944 0.27563 0.18301 0.0
C577 C 0.46898 0.24976 0.20985 0.0
C578 C 0.49891 0.27123 0.13375 0.0
C579 C 0.4776 0.24013 0.1113 0.0
C580 C 0.45295 0.21341 0.13907 0.0
C581 C 0.449 0.21857 0.1882 0.0
C582 C 0.52548 0.30022 0.1053 0.0
C583 C 0.43 0.17976 0.11647 0.0
H584 H 0.44351 0.23934 0.95195 0.0
H585 H 0.51333 0.20594 0.97608 0.0
H586 H 0.41863 0.23726 0.06898 0.0
H587 H 0.45306 0.27895 0.06569 0.0
H588 H 0.42554 0.26124 0.01428 0.0
H589 H 0.53794 0.20987 0.05243 0.0
H590 H 0.53726 0.23863 0.09611 0.0
H591 H 0.5056 0.19562 0.09762 0.0
H592 H 0.50988 0.29973 0.20007 0.0
H593 H 0.42983 0.19844 0.20954 0.0
H594 H 0.51366 0.30845 0.07779 0.0
H595 H 0.54129 0.29248 0.08544 0.0
H596 H 0.54163 0.32184 0.12898 0.0
H597 H 0.41429 0.18235 0.08843 0.0
H598 H 0.41345 0.16112 0.14372 0.0
H599 H 0.44467 0.17005 0.09806 0.0
C600 C 0.35032 0.29762 0.84714 0.0
C601 C 0.32693 0.30729 0.83589 0.0
C602 C 0.35248 0.27319 0.8199 0.0
C603 C 0.33084 0.25799 0.77988 0.0
C604 C 0.30737 0.26783 0.76777 0.0
C605 C 0.30564 0.29237 0.796 0.0
C606 C 0.37785 0.26345 0.83439 0.0
C607 C 0.28422 0.25257 0.72502 0.0
C608 C 0.36691 0.21708 0.70128 0.0
C609 C 0.35246 0.18544 0.72266 0.0
C610 C 0.35724 0.24016 0.71548 0.0
C611 C 0.33288 0.23131 0.75223 0.0
C612 C 0.31559 0.198 0.76955 0.0
C613 C 0.32561 0.1754 0.75445 0.0
C614 C 0.37584 0.27511 0.69524 0.0
C615 C 0.28933 0.18732 0.80846 0.0
H616 H 0.3669 0.30892 0.87783 0.0
H617 H 0.28759 0.2998 0.78689 0.0
H618 H 0.3653 0.2363 0.84226 0.0
H619 H 0.39542 0.26848 0.804 0.0
H620 H 0.39241 0.27726 0.86696 0.0
H621 H 0.29885 0.25981 0.69086 0.0
H622 H 0.27101 0.22491 0.72717 0.0
H623 H 0.26551 0.26075 0.72293 0.0
H624 H 0.38782 0.22482 0.67687 0.0
H625 H 0.31465 0.15096 0.77125 0.0
H626 H 0.395 0.29176 0.7218 0.0
H627 H 0.35882 0.28503 0.68906 0.0
H628 H 0.3885 0.27607 0.66053 0.0
H629 H 0.30156 0.19741 0.84404 0.0
H630 H 0.27418 0.1597 0.81138 0.0
H631 H 0.27255 0.19738 0.80117 0.0
C632 C 0.1573 0.36265 0.87807 0.0
C633 C 0.17504 0.34865 0.89865 0.0
C634 C 0.12469 0.35252 0.89321 0.0
C635 C 0.10979 0.32807 0.93015 0.0
C636 C 0.12642 0.31139 0.94703 0.0
C637 C 0.15891 0.3219 0.93101 0.0
C638 C 0.10781 0.37066 0.87359 0.0
C639 C 0.11158 0.28517 0.98623 0.0
C640 C 0.05948 0.34358 0.02465 0.0
C641 C 0.02662 0.3197 0.01267 0.0
C642 C 0.08648 0.34643 -0.00205 0.0
C643 C 0.08069 0.325 0.95777 0.0
C644 C 0.04758 0.30098 0.94503 0.0
C645 C 0.02091 0.29851 0.97276 0.0
C646 C 0.12132 0.37249 0.01294 0.0
C647 C 0.04039 0.27786 0.90232 0.0
H648 H 0.16998 0.38362 0.85347 0.0
H649 H 0.17286 0.3114 0.94741 0.0
H650 H 0.08089 0.35318 0.86766 0.0
H651 H 0.11021 0.38966 0.90042 0.0
H652 H 0.11916 0.38358 0.83887 0.0
H653 H 0.12445 0.27047 0.98888 0.0
H654 H 0.1139 0.29753 0.02177 0.0
H655 H 0.08474 0.26783 0.97948 0.0
H656 H 0.06427 0.36009 0.05534 0.0
H657 H 0.99561 0.28 0.96318 0.0
H658 H 0.13356 0.39058 0.98295 0.0
H659 H 0.13645 0.36055 0.02031 0.0
H660 H 0.12161 0.38651 0.0459 0.0
H661 H 0.05194 0.29256 0.86894 0.0
H662 H 0.01328 0.26149 0.8959 0.0
H663 H 0.05156 0.26191 0.90865 0.0
C664 C 0.84197 0.14811 0.09671 0.0
C665 C 0.83266 0.16475 0.06339 0.0
C666 C 0.81916 0.1154 0.1116 0.0
C667 C 0.78635 0.09921 0.0927 0.0
C668 C 0.77836 0.11452 0.05455 0.0
C669 C 0.80167 0.14724 0.04039 0.0
C670 C 0.82896 0.10003 0.15198 0.0
C671 C 0.74393 0.09812 0.03279 0.0
C672 C 0.7235 0.01093 0.13528 0.0
C673 C 0.70785 0.01772 0.17371 0.0
C674 C 0.74897 0.03705 0.10806 0.0
C675 C 0.75911 0.07065 0.11982 0.0
C676 C 0.74327 0.0775 0.15849 0.0
C677 C 0.71791 0.05106 0.1847 0.0
C678 C 0.7651 0.02874 0.06699 0.0
C679 C 0.75298 0.11289 0.17225 0.0
H680 H 0.86587 0.16182 0.11482 0.0
H681 H 0.79445 0.1603 0.01489 0.0
H682 H 0.81859 0.10289 0.18681 0.0
H683 H 0.81871 0.07295 0.14561 0.0
H684 H 0.85641 0.11229 0.15582 0.0
H685 H 0.74374 0.10946 0.99732 0.0
H686 H 0.73385 0.07095 0.02757 0.0
H687 H 0.72703 0.10126 0.05794 0.0
H688 H 0.71589 0.98525 0.12649 0.0
H689 H 0.70603 0.05667 0.2142 0.0
H690 H 0.79189 0.03901 0.07495 0.0
H691 H 0.76348 0.04055 0.03284 0.0
H692 H 0.75339 1.00139 0.06098 0.0
H693 H 0.78006 0.12776 0.17982 0.0
H694 H 0.73937 0.11398 0.20473 0.0
H695 H 0.74762 0.12495 0.14152 0.0
C696 C 0.68384 0.70215 0.29996 0.0
C697 C 0.71592 0.71447 0.31888 0.0
C698 C 0.67434 0.72373 0.27882 0.0
C699 C 0.69775 0.75832 0.27537 0.0
C700 C 0.73097 0.77034 0.29058 0.0
C701 C 0.73952 0.74837 0.31286 0.0
C702 C 0.63852 0.7099 0.26396 0.0
C703 C 0.75698 0.80679 0.28613 0.0
C704 C 0.66947 0.81103 0.20539 0.0
C705 C 0.65814 0.82284 0.24345 0.0
C706 C 0.68385 0.79106 0.21503 0.0
C707 C 0.68615 0.7823 0.26371 0.0
C708 C 0.67578 0.79534 0.30213 0.0
C709 C 0.66253 0.81588 0.29151 0.0
C710 C 0.69563 0.77857 0.17321 0.0
C711 C 0.67737 0.78654 0.35455 0.0
H712 H 0.66547 0.67598 0.30457 0.0
H713 H 0.7645 0.75794 0.32686 0.0
H714 H 0.62639 0.71913 0.28941 0.0
H715 H 0.637 0.71865 0.22709 0.0
H716 H 0.6243 0.68216 0.26427 0.0
H717 H 0.78254 0.81099 0.29099 0.0
H718 H 0.75535 0.81667 0.25016 0.0
H719 H 0.75265 0.82135 0.31429 0.0
H720 H 0.66628 0.81665 0.16823 0.0
H721 H 0.65451 0.82572 0.32102 0.0
H722 H 0.67859 0.75136 0.1684 0.0
H723 H 0.72075 0.78239 0.18089 0.0
H724 H 0.69649 0.79129 0.13859 0.0
H725 H 0.66229 0.75908 0.35948 0.0
H726 H 0.66802 0.7986 0.38001 0.0
H727 H 0.70335 0.79429 0.36466 0.0
C728 C 0.99375 0.70695 0.45179 0.0
C729 C 0.98756 0.68554 0.49147 0.0
C730 C 0.96738 0.70472 0.42349 0.0
C731 C 0.93412 0.6807 0.4354 0.0
C732 C 0.92789 0.65901 0.47529 0.0
C733 C 0.95458 0.66159 0.50249 0.0
C734 C 0.97507 0.72792 0.38087 0.0
C735 C 0.89291 0.63296 0.48952 0.0
C736 C 0.85634 0.68461 0.40939 0.0
C737 C 0.83972 0.65753 0.37758 0.0
C738 C 0.88897 0.69509 0.42477 0.0
C739 C 0.90526 0.67811 0.40762 0.0
C740 C 0.88997 0.65358 0.37077 0.0
C741 C 0.85718 0.64337 0.35643 0.0
C742 C 0.90418 0.72139 0.46393 0.0
C743 C 0.90661 0.63535 0.35055 0.0
H744 H 0.01916 0.72544 0.44284 0.0
H745 H 0.94943 0.6449 0.53298 0.0
H746 H 0.96666 0.71317 0.34676 0.0
H747 H 0.96131 0.74166 0.38417 0.0
H748 H 1.00206 0.74629 0.37781 0.0
H749 H 0.89224 0.6193 0.52305 0.0
H750 H 0.8775 0.64477 0.49557 0.0
H751 H 0.88127 0.61455 0.45966 0.0
H752 H 0.84263 0.69523 0.42623 0.0
H753 H 0.84414 0.62217 0.33222 0.0
H754 H 0.93103 0.73852 0.45703 0.0
H755 H 0.90188 0.70906 0.49944 0.0
H756 H 0.89155 0.73631 0.46676 0.0
H757 H 0.93358 0.65267 0.3449 0.0
H758 H 0.89524 0.62281 0.31556 0.0
H759 H 0.90393 0.616 0.37685 0.0
C760 C 0.29588 0.97918 0.6519 0.0
C761 C 0.28733 1.00312 0.66518 0.0
C762 C 0.27292 0.94961 0.62808 0.0
C763 C 0.24107 0.94446 0.6156 0.0
C764 C 0.23336 0.96985 0.62553 0.0
C765 C 0.25631 0.99857 0.65122 0.0
C766 C 0.28195 0.9229 0.61942 0.0
C767 C 0.20035 0.96606 0.61094 0.0
C768 C 0.19176 0.86739 0.5362 0.0
C769 C 0.17321 0.84345 0.57148 0.0
C770 C 0.2121 0.90124 0.54921 0.0
C771 C 0.21466 0.91079 0.59877 0.0
C772 C 0.19421 0.88682 0.63376 0.0
C773 C 0.17331 0.85364 0.61943 0.0
C774 C 0.23231 0.92627 0.51044 0.0
C775 C 0.1965 0.89546 0.68712 0.0
H776 H 0.31981 0.98262 0.66286 0.0
H777 H 0.24983 0.0173 0.66096 0.0
H778 H 0.26544 0.90047 0.64131 0.0
H779 H 0.27812 0.91522 0.58071 0.0
H780 H 0.30817 0.93135 0.62931 0.0
H781 H 0.2006 0.99015 0.61298 0.0
H782 H 0.1937 0.95608 0.57339 0.0
H783 H 0.18057 0.948 0.63545 0.0
H784 H 0.19173 0.85942 0.49913 0.0
H785 H 0.15892 0.83496 0.64663 0.0
H786 H 0.25831 0.9314 0.51174 0.0
H787 H 0.23291 0.95027 0.51656 0.0
H788 H 0.22226 0.91685 0.47352 0.0
H789 H 0.2217 0.90274 0.70085 0.0
H790 H 0.1779 0.87423 0.70928 0.0
H791 H 0.19274 0.91705 0.6927 0.0
C792 C 0.80034 0.64685 0.12407 0.0
C793 C 0.83132 0.65956 0.10141 0.0
C794 C 0.77766 0.65674 0.10896 0.0
C795 C 0.78614 0.67951 0.06986 0.0
C796 C 0.81883 0.69504 0.05063 0.0
C797 C 0.84107 0.68487 0.06673 0.0
C798 C 0.74338 0.63995 0.13118 0.0
C799 C 0.82909 0.71944 0.00904 0.0
C800 C 0.71759 0.66053 0.97853 0.0
C801 C 0.70945 0.6853 0.98846 0.0
C802 C 0.74231 0.65849 0.00492 0.0
C803 C 0.75939 0.68165 0.04277 0.0
C804 C 0.7511 0.70655 0.05355 0.0
C805 C 0.72632 0.7082 0.0261 0.0
C806 C 0.75022 0.63146 0.99201 0.0
C807 C 0.76852 0.73151 0.09381 0.0
H808 H 0.79269 0.62696 0.15048 0.0
H809 H 0.86488 0.69433 0.04873 0.0
H810 H 0.73438 0.6579 0.13581 0.0
H811 H 0.72576 0.61975 0.10662 0.0
H812 H 0.74293 0.62872 0.16703 0.0
H813 H 0.85653 0.7337 0.00435 0.0
H814 H 0.81779 0.70554 0.9749 0.0
H815 H 0.82008 0.73729 0.01465 0.0
H816 H 0.7048 0.6427 0.94959 0.0
H817 H 0.72018 0.72741 0.03412 0.0
H818 H 0.74528 0.61483 0.02369 0.0
H819 H 0.77697 0.64273 0.98279 0.0
H820 H 0.73528 0.61597 0.96077 0.0
H821 H 0.76647 0.71833 0.1284 0.0
H822 H 0.75812 0.74827 0.09927 0.0
H823 H 0.7954 0.74701 0.08534 0.0
C824 C 0.05681 0.70848 0.15059 0.0
C825 C 0.0238 0.69875 0.16226 0.0
C826 C 0.08351 0.73317 0.17735 0.0
C827 C 0.07724 0.74856 0.2173 0.0
C828 C 0.04398 0.73866 0.22982 0.0
C829 C 0.0176 0.71386 0.20208 0.0
C830 C 0.11857 0.74301 0.1624 0.0
C831 C 0.03626 0.7541 0.27252 0.0
C832 C 0.15451 0.79041 0.29527 0.0
C833 C 0.17136 0.82203 0.27374 0.0
C834 C 0.12185 0.76702 0.28123 0.0
C835 C 0.10605 0.7755 0.24445 0.0
C836 C 0.12173 0.80872 0.22683 0.0
C837 C 0.15427 0.83165 0.24179 0.0
C838 C 0.10585 0.73216 0.30177 0.0
C839 C 0.10582 0.819 0.18788 0.0
H840 H 0.06196 0.69704 0.11994 0.0
H841 H 0.99216 0.70639 0.21152 0.0
H842 H 0.1329 0.77008 0.15392 0.0
H843 H 0.13147 0.73845 0.19277 0.0
H844 H 0.11919 0.72892 0.13008 0.0
H845 H 0.00943 0.74619 0.27449 0.0
H846 H 0.04342 0.74666 0.30669 0.0
H847 H 0.05094 0.78175 0.27045 0.0
H848 H 0.16791 0.78299 0.31977 0.0
H849 H 0.16749 0.85606 0.22486 0.0
H850 H 0.10826 0.71546 0.27518 0.0
H851 H 0.07895 0.72214 0.30838 0.0
H852 H 0.11785 0.73142 0.33629 0.0
H853 H 0.10779 0.80866 0.15242 0.0
H854 H 0.11815 0.8466 0.1845 0.0
H855 H 0.07902 0.80891 0.1955 0.0
C856 C 0.26132 0.00794 0.35239 0.0
C857 C 0.28791 0.00505 0.33412 0.0
C858 C 0.267 0.03634 0.37897 0.0
C859 C 0.29997 0.0631 0.38523 0.0
C860 C 0.32692 0.05975 0.36795 0.0
C861 C 0.32054 0.03045 0.34348 0.0
C862 C 0.2377 0.0382 0.39876 0.0
C863 C 0.36243 0.08796 0.37248 0.0
C864 C 0.31879 0.1527 0.38639 0.0
C865 C 0.33203 0.16312 0.43305 0.0
C866 C 0.3066 0.11968 0.37116 0.0
C867 C 0.30644 0.09611 0.4041 0.0
C868 C 0.31646 0.10576 0.45297 0.0
C869 C 0.32986 0.13946 0.46667 0.0
C870 C 0.29706 0.111 0.31844 0.0
C871 C 0.31523 0.0811 0.48987 0.0
H872 H 0.23605 0.98809 0.34556 0.0
H873 H 0.34109 0.02828 0.32909 0.0
H874 H 0.24277 0.04811 0.43644 0.0
H875 H 0.23336 0.05552 0.3763 0.0
H876 H 0.2146 0.01339 0.39863 0.0
H877 H 0.38055 0.08105 0.3583 0.0
H878 H 0.36556 0.11001 0.35203 0.0
H879 H 0.36852 0.0956 0.41101 0.0
H880 H 0.32087 0.17122 0.36034 0.0
H881 H 0.34036 0.14762 0.50265 0.0
H882 H 0.27218 0.08833 0.31535 0.0
H883 H 0.31516 0.10547 0.3005 0.0
H884 H 0.29671 0.13162 0.29835 0.0
H885 H 0.2922 0.05652 0.48559 0.0
H886 H 0.31641 0.09018 0.52762 0.0
H887 H 0.33671 0.07725 0.48433 0.0
C888 C 0.29803 0.3473 0.49253 0.0
C889 C 0.30713 0.32354 0.50463 0.0
C890 C 0.27426 0.35054 0.51963 0.0
C891 C 0.25914 0.32965 0.56039 0.0
C892 C 0.26842 0.30581 0.57333 0.0
C893 C 0.2923 0.30299 0.54524 0.0
C894 C 0.26513 0.37627 0.50422 0.0
C895 C 0.25327 0.28343 0.61686 0.0
C896 C 0.22026 0.36826 0.63838 0.0
C897 C 0.18854 0.35399 0.61757 0.0
C898 C 0.24273 0.35788 0.6241 0.0
C899 C 0.23316 0.33285 0.58795 0.0
C900 C 0.19979 0.31576 0.57129 0.0
C901 C 0.17784 0.32658 0.58633 0.0
C902 C 0.27778 0.37636 0.64362 0.0
C903 C 0.18831 0.28873 0.53319 0.0
H904 H 0.30925 0.36332 0.46129 0.0
H905 H 0.29928 0.28466 0.55503 0.0
H906 H 0.23805 0.36402 0.49675 0.0
H907 H 0.27077 0.39453 0.534 0.0
H908 H 0.27876 0.39015 0.47118 0.0
H909 H 0.2615 0.29869 0.65053 0.0
H910 H 0.22574 0.27099 0.61555 0.0
H911 H 0.26055 0.264 0.61924 0.0
H912 H 0.22855 0.38962 0.66232 0.0
H913 H 0.15337 0.31573 0.56991 0.0
H914 H 0.29432 0.3949 0.61633 0.0
H915 H 0.28722 0.35897 0.65042 0.0
H916 H 0.27941 0.38986 0.67784 0.0
H917 H 0.19826 0.30032 0.49726 0.0
H918 H 0.16075 0.27397 0.53067 0.0
H919 H 0.19784 0.27154 0.54108 0.0
C920 C 0.99483 0.25815 0.67925 0.0
C921 C 1.00462 0.29165 0.67024 0.0
C922 C 0.96466 0.23683 0.70296 0.0
C923 C 0.94325 0.24901 0.71636 0.0
C924 C 0.95387 0.28327 0.70953 0.0
C925 C 0.98465 0.30427 0.6872 0.0
C926 C 0.95489 0.20082 0.71113 0.0
C927 C 0.93159 0.29721 0.7222 0.0
C928 C 0.85044 0.19002 0.70451 0.0
C929 C 0.83976 0.18554 0.75294 0.0
C930 C 0.88403 0.21013 0.69243 0.0
C931 C 0.90796 0.22523 0.72985 0.0
C932 C 0.89761 0.2189 0.77913 0.0
C933 C 0.86343 0.19937 0.79016 0.0
C934 C 0.89362 0.21641 0.63939 0.0
C935 C 0.92247 0.23355 0.82006 0.0
H936 H 0.01041 0.24838 0.66677 0.0
H937 H 0.99206 0.33013 0.68023 0.0
H938 H 0.94396 0.19251 0.74783 0.0
H939 H 0.9357 0.18478 0.68419 0.0
H940 H 0.97644 0.19684 0.70724 0.0
H941 H 0.94459 0.32483 0.71875 0.0
H942 H 0.90971 0.28626 0.69756 0.0
H943 H 0.92212 0.29033 0.75984 0.0
H944 H 0.83216 0.17867 0.67573 0.0
H945 H 0.85517 0.19572 0.82763 0.0
H946 H 0.91194 0.2085 0.63073 0.0
H947 H 0.90559 0.24352 0.63156 0.0
H948 H 0.87187 0.20289 0.61483 0.0
H949 H 0.94399 0.22994 0.81319 0.0
H950 H 0.91124 0.22221 0.85566 0.0
H951 H 0.93216 0.26082 0.82236 0.0
C952 C 0.75073 0.99633 0.83377 0.0
C953 C 0.72509 1.00343 0.82618 0.0
C954 C 0.74462 0.9669 0.8575 0.0
C955 C 0.71181 0.94339 0.87205 0.0
C956 C 0.68619 0.95126 0.86648 0.0
C957 C 0.69329 0.98148 0.84437 0.0
C958 C 0.77293 0.96018 0.86462 0.0
C959 C 0.65069 0.92665 0.88031 0.0
C960 C 0.68266 0.85123 0.86065 0.0
C961 C 0.67648 0.84065 0.90911 0.0
C962 C 0.69516 0.88476 0.84835 0.0
C963 C 0.7031 0.90871 0.88564 0.0
C964 C 0.69983 0.89862 0.93498 0.0
C965 C 0.686 0.86445 0.9462 0.0
C966 C 0.69754 0.89401 0.79526 0.0
C967 C 0.70935 0.92356 0.9758 0.0
H968 H 0.77546 0.0135 0.82024 0.0
H969 H 0.67338 0.98684 0.83838 0.0
H970 H 0.77167 0.94957 0.90122 0.0
H971 H 0.77106 0.94159 0.83747 0.0
H972 H 0.79751 0.9832 0.86028 0.0
H973 H 0.63413 0.93739 0.87665 0.0
H974 H 0.64102 0.90426 0.8566 0.0
H975 H 0.64944 0.91818 0.9183 0.0
H976 H 0.67563 0.83276 0.83201 0.0
H977 H 0.68128 0.85624 0.98369 0.0
H978 H 0.72312 0.91405 0.78634 0.0
H979 H 0.68057 0.9038 0.78751 0.0
H980 H 0.69086 0.87242 0.77083 0.0
H981 H 0.73306 0.94675 0.96756 0.0
H982 H 0.71199 0.91323 0.01084 0.0
H983 H 0.68985 0.93047 0.98022 0.0
C984 C 0.27385 0.32764 0.09664 0.0
C985 C 0.29754 0.33882 0.05943 0.0
C986 C 0.27861 0.31422 0.13953 0.0
C987 C 0.30856 0.3137 0.14608 0.0
C988 C 0.33213 0.32416 0.10788 0.0
C989 C 0.32595 0.33596 0.0645 0.0
C990 C 0.25224 0.30188 0.1785 0.0
C991 C 0.36493 0.32519 0.11402 0.0
C992 C 0.34274 0.32387 0.2738 0.0
C993 C 0.33967 0.29263 0.28175 0.0
C994 C 0.3322 0.33089 0.22995 0.0
C995 C 0.31691 0.30549 0.1943 0.0
C996 C 0.31187 0.27319 0.20364 0.0
C997 C 0.32419 0.26739 0.24687 0.0
C998 C 0.33921 0.36601 0.22072 0.0
C999 C 0.2943 0.24508 0.16753 0.0
H1000 H 0.25185 0.3299 0.09246 0.0
H1001 H 0.34442 0.3451 0.0358 0.0
H1002 H 0.24778 0.2777 0.19335 0.0
H1003 H 0.26074 0.32003 0.20896 0.0
H1004 H 0.22836 0.29866 0.16461 0.0
H1005 H 0.38005 0.333 0.08025 0.0
H1006 H 0.37948 0.34301 0.14345 0.0
H1007 H 0.36077 0.30034 0.12491 0.0
H1008 H 0.35523 0.34344 0.30072 0.0
H1009 H 0.32198 0.24325 0.25331 0.0
H1010 H 0.31579 0.36586 0.21253 0.0
H1011 H 0.35564 0.37652 0.18855 0.0
H1012 H 0.3514 0.38282 0.25222 0.0
H1013 H 0.27114 0.24389 0.15444 0.0
H1014 H 0.28792 0.22052 0.1834 0.0
H1015 H 0.31046 0.2496 0.13548 0.0
C1016 C 0.98335 0.28831 0.23528 0.0
C1017 C 0.95748 0.29558 0.23451 0.0
C1018 C 1.00296 0.29445 0.2771 0.0
C1019 C 0.99717 0.30919 0.31831 0.0
C1020 C 0.97052 0.31575 0.31803 0.0
C1021 C 0.95075 0.30844 0.27638 0.0
C1022 C 0.03048 0.28614 0.27666 0.0
C1023 C 0.96401 0.33226 0.36069 0.0
C1024 C 0.03409 0.31574 0.44379 0.0
C1025 C 0.06131 0.34837 0.44275 0.0
C1026 C 0.01406 0.30169 0.4024 0.0
C1027 C 0.02088 0.32117 0.35975 0.0
C1028 C 0.04892 0.35373 0.35819 0.0
C1029 C 0.069 0.36672 0.39946 0.0
C1030 C 0.98499 0.26648 0.40483 0.0
C1031 C 0.05667 0.37569 0.31391 0.0
H1032 H 0.98838 0.27803 0.20311 0.0
H1033 H 0.9309 0.31429 0.27588 0.0
H1034 H 0.05493 0.30952 0.27542 0.0
H1035 H 0.02986 0.27275 0.3104 0.0
H1036 H 0.02868 0.27052 0.24485 0.0
H1037 H 0.9414 0.33431 0.35545 0.0
H1038 H 0.96101 0.31802 0.39448 0.0
H1039 H 0.98563 0.35773 0.36604 0.0
H1040 H 0.02823 0.30137 0.47706 0.0
H1041 H 0.08984 0.39207 0.39847 0.0
H1042 H 0.98444 0.25214 0.37214 0.0
H1043 H 0.9614 0.26701 0.40544 0.0
H1044 H 0.98593 0.25311 0.43774 0.0
H1045 H 0.05864 0.36279 0.2812 0.0
H1046 H 0.08021 0.39989 0.31793 0.0
H1047 H 0.03611 0.38087 0.30742 0.0
C1048 C 0.69265 0.97536 0.396 0.0
C1049 C 0.65905 0.95036 0.39516 0.0
C1050 C 0.70671 0.99509 0.43766 0.0
C1051 C 0.68635 0.99028 0.47863 0.0
C1052 C 0.6527 0.96436 0.47842 0.0
C1053 C 0.63961 0.94444 0.43693 0.0
C1054 C 0.74295 0.02181 0.43721 0.0
C1055 C 0.62992 0.95888 0.5209 0.0
C1056 C 0.71746 0.02753 0.60377 0.0
C1057 C 0.71299 0.05531 0.60243 0.0
C1058 C 0.71091 0.00715 0.5626 0.0
C1059 C 0.69886 0.01434 0.51973 0.0
C1060 C 0.69552 0.04306 0.51771 0.0
C1061 C 0.70296 0.06335 0.55888 0.0
C1062 C 0.71566 0.97725 0.56556 0.0
C1063 C 0.68217 0.05133 0.47301 0.0
H1064 H 0.70785 0.97976 0.36393 0.0
H1065 H 0.61357 0.92523 0.43643 0.0
H1066 H 0.74515 0.04677 0.43521 0.0
H1067 H 0.75533 0.02103 0.47126 0.0
H1068 H 0.75641 0.01909 0.40577 0.0
H1069 H 0.60484 0.93662 0.51583 0.0
H1070 H 0.64079 0.95571 0.55493 0.0
H1071 H 0.62707 0.98113 0.52569 0.0
H1072 H 0.72553 0.02138 0.63718 0.0
H1073 H 0.6993 0.08469 0.55755 0.0
H1074 H 0.7291 0.97598 0.53304 0.0
H1075 H 0.69106 0.95404 0.56631 0.0
H1076 H 0.72969 0.97789 0.59862 0.0
H1077 H 0.69677 0.05243 0.4405 0.0
H1078 H 0.68276 0.07553 0.4765 0.0
H1079 H 0.65607 0.03136 0.46656 0.0
C1080 C 0.73495 0.67713 0.57866 0.0
C1081 C 0.71048 0.66178 0.54285 0.0
C1082 C 0.72839 0.6893 0.62148 0.0
C1083 C 0.69609 0.68427 0.62945 0.0
C1084 C 0.6715 0.66924 0.5928 0.0
C1085 C 0.67927 0.6588 0.5494 0.0
C1086 C 0.75566 0.70654 0.65875 0.0
C1087 C 0.6364 0.66223 0.6006 0.0
C1088 C 0.66563 0.67523 0.75939 0.0
C1089 C 0.66405 0.7044 0.76522 0.0
C1090 C 0.67637 0.66852 0.71541 0.0
C1091 C 0.68709 0.6923 0.67736 0.0
C1092 C 0.68721 0.72268 0.68426 0.0
C1093 C 0.67486 0.72801 0.72781 0.0
C1094 C 0.67468 0.63529 0.70886 0.0
C1095 C 0.69979 0.74922 0.6454 0.0
H1096 H 0.75904 0.67921 0.57337 0.0
H1097 H 0.66027 0.64634 0.52182 0.0
H1098 H 0.75674 0.72976 0.67178 0.0
H1099 H 0.75041 0.69003 0.69066 0.0
H1100 H 0.7804 0.71292 0.64397 0.0
H1101 H 0.62043 0.65085 0.56812 0.0
H1102 H 0.62508 0.64495 0.63177 0.0
H1103 H 0.63645 0.68558 0.60975 0.0
H1104 H 0.65684 0.65692 0.78837 0.0
H1105 H 0.67365 0.75062 0.73271 0.0
H1106 H 0.69956 0.63913 0.69958 0.0
H1107 H 0.65778 0.62146 0.67822 0.0
H1108 H 0.66559 0.61953 0.74198 0.0
H1109 H 0.72444 0.75434 0.63204 0.0
H1110 H 0.70206 0.77293 0.65878 0.0
H1111 H 0.68253 0.74036 0.61396 0.0
C1112 C 0.01847 0.68048 0.72115 0.0
C1113 C 0.04946 0.70951 0.71653 0.0
C1114 C 1.00068 0.67318 0.76487 0.0
C1115 C 0.0137 0.69622 0.80394 0.0
C1116 C 0.04402 0.72665 0.79811 0.0
C1117 C 0.062 0.73256 0.75476 0.0
C1118 C 0.96906 0.63992 0.77019 0.0
C1119 C 0.05798 0.75245 0.83813 0.0
C1120 C 0.95176 0.67915 0.9052 0.0
C1121 C 0.96151 0.66341 0.93943 0.0
C1122 C 0.96981 0.69191 0.86201 0.0
C1123 C 0.997 0.68706 0.85203 0.0
C1124 C 0.00705 0.67144 0.88699 0.0
C1125 C 0.98954 0.66042 0.93082 0.0
C1126 C 0.95931 0.70976 0.82661 0.0
C1127 C 0.03507 0.66463 0.87703 0.0
H1128 H 0.00912 0.66256 0.69157 0.0
H1129 H 0.08599 0.75509 0.75084 0.0
H1130 H 0.97235 0.62512 0.79908 0.0
H1131 H 0.94823 0.64361 0.78143 0.0
H1132 H 0.96197 0.62518 0.73596 0.0
H1133 H 0.07899 0.77659 0.82527 0.0
H1134 H 0.03831 0.75685 0.85304 0.0
H1135 H 0.06704 0.74326 0.86831 0.0
H1136 H 0.92988 0.68121 0.91211 0.0
H1137 H 0.99655 0.64767 0.95722 0.0
H1138 H 0.94796 0.69395 0.79402 0.0
H1139 H 0.98126 0.73335 0.81427 0.0
H1140 H 0.94092 0.71562 0.84279 0.0
H1141 H 0.02907 0.64843 0.84445 0.0
H1142 H 0.03968 0.65215 0.90805 0.0
H1143 H 0.05837 0.68826 0.86912 0.0
C1144 C 0.31507 0.94664 0.06323 0.0
C1145 C 0.30283 0.95424 0.10501 0.0
C1146 C 0.32228 0.96593 0.02107 0.0
C1147 C 0.31639 0.99309 0.02017 0.0
C1148 C 0.30254 0.99998 0.06139 0.0
C1149 C 0.29633 0.98071 0.10367 0.0
C1150 C 0.33772 0.95818 0.97835 0.0
C1151 C 0.29513 0.0282 0.06123 0.0
C1152 C 0.3724 0.06298 0.93502 0.0
C1153 C 0.3529 0.05481 0.89282 0.0
C1154 C 0.36036 0.04369 0.97718 0.0
C1155 C 0.32769 0.01589 0.97761 0.0
C1156 C 0.30724 0.0084 0.93594 0.0
C1157 C 0.32025 0.02772 0.89371 0.0
C1158 C 0.38328 0.05212 0.02042 0.0
C1159 C 0.27197 0.97947 0.93557 0.0
H1160 H 0.32029 0.9263 0.06401 0.0
H1161 H 0.28655 0.98647 0.13569 0.0
H1162 H 0.32301 0.9547 0.94492 0.0
H1163 H 0.36313 0.97949 0.97184 0.0
H1164 H 0.33944 0.93535 0.98423 0.0
H1165 H 0.28075 0.02774 0.09376 0.0
H1166 H 0.31875 0.05247 0.06045 0.0
H1167 H 0.28088 0.02692 0.02815 0.0
H1168 H 0.39772 0.08379 0.93461 0.0
H1169 H 0.30497 0.0215 0.86134 0.0
H1170 H 0.38817 0.03135 0.02728 0.0
H1171 H 0.37139 0.05509 0.05351 0.0
H1172 H 0.40747 0.07542 0.01489 0.0
H1173 H 0.27214 0.9556 0.93658 0.0
H1174 H 0.2581 0.97948 0.90271 0.0
H1175 H 0.25846 0.98025 0.96833 0.0
C1176 C 0.54536 0.59802 0.935 0.0
C1177 C 0.54159 0.62495 0.92039 0.0
C1178 C 0.51765 0.56542 0.93746 0.0
C1179 C 0.4856 0.55983 0.92519 0.0
C1180 C 0.48171 0.58713 0.91161 0.0
C1181 C 0.50962 0.61919 0.90948 0.0
C1182 C 0.52268 0.53691 0.95237 0.0
C1183 C 0.44801 0.58252 0.89894 0.0
C1184 C 0.41093 0.47628 0.88898 0.0
C1185 C 0.39141 0.46855 0.93098 0.0
C1186 C 0.44284 0.50499 0.88734 0.0
C1187 C 0.45547 0.52599 0.92882 0.0
C1188 C 0.43667 0.51688 0.97217 0.0
C1189 C 0.40495 0.48847 0.97262 0.0
C1190 C 0.46218 0.5139 0.84043 0.0
C1191 C 0.44911 0.53828 0.01734 0.0
H1192 H 0.57001 0.60221 0.94294 0.0
H1193 H 0.50639 0.63985 0.8984 0.0
H1194 H 0.50692 0.52386 0.98429 0.0
H1195 H 0.5148 0.51839 0.92244 0.0
H1196 H 0.54902 0.54543 0.96159 0.0
H1197 H 0.44938 0.60628 0.88806 0.0
H1198 H 0.43672 0.56437 0.86868 0.0
H1199 H 0.43107 0.57218 0.93059 0.0
H1200 H 0.40072 0.46086 0.85686 0.0
H1201 H 0.39033 0.48227 0.00566 0.0
H1202 H 0.48841 0.5209 0.84733 0.0
H1203 H 0.4624 0.53587 0.82396 0.0
H1204 H 0.45121 0.49302 0.81381 0.0
H1205 H 0.47516 0.5451 0.02531 0.0
H1206 H 0.43355 0.52556 0.04965 0.0
H1207 H 0.44882 0.56184 0.01141 0.0
C1208 C 0.94836 0.40615 0.06365 0.0
C1209 C 0.91914 0.38 0.0838 0.0
C1210 C 0.95338 0.43883 0.06124 0.0
C1211 C 0.92865 0.44538 0.07949 0.0
C1212 C 0.89921 0.41905 0.09975 0.0
C1213 C 0.89479 0.38689 0.10138 0.0
C1214 C 0.98497 0.4663 0.03905 0.0
C1215 C 0.872 0.42468 0.11929 0.0
C1216 C 0.94006 0.5308 0.11052 0.0
C1217 C 0.92384 0.53567 0.07115 0.0
C1218 C 0.94392 0.50246 0.11249 0.0
C1219 C 0.93154 0.47879 0.07402 0.0
C1220 C 0.91703 0.48479 0.03299 0.0
C1221 C 0.91327 0.51294 0.03217 0.0
C1222 C 0.95956 0.49692 0.15686 0.0
C1223 C 0.9035 0.46039 0.99109 0.0
H1224 H 0.96743 0.4012 0.05039 0.0
H1225 H 0.87201 0.36702 0.11697 0.0
H1226 H 0.97897 0.47629 0.00639 0.0
H1227 H 0.99773 0.48727 0.06517 0.0
H1228 H 1.00237 0.45753 0.02838 0.0
H1229 H 0.85141 0.40188 0.1362 0.0
H1230 H 0.88228 0.44493 0.14684 0.0
H1231 H 0.86152 0.43266 0.08943 0.0
H1232 H 0.94861 0.54839 0.14049 0.0
H1233 H 0.90136 0.51676 0.00094 0.0
H1234 H 0.97788 0.48938 0.14617 0.0
H1235 H 0.94004 0.47629 0.17878 0.0
H1236 H 0.97218 0.5196 0.18007 0.0
H1237 H 0.92196 0.45336 0.97914 0.0
H1238 H 0.89676 0.47068 0.95945 0.0
H1239 H 0.88092 0.43721 0.003 0.0
C1240 C 0.52853 0.92829 0.20751 0.0
C1241 C 0.54283 0.92645 0.25124 0.0
C1242 C 0.50002 0.9317 0.20776 0.0
C1243 C 0.48589 0.93338 0.25273 0.0
C1244 C 0.50216 0.93441 0.29663 0.0
C1245 C 0.53028 0.93076 0.2953 0.0
C1246 C 0.48354 0.93081 0.16014 0.0
C1247 C 0.48824 0.93628 0.34536 0.0
C1248 C 0.41298 0.94963 0.25696 0.0
C1249 C 0.38585 0.91692 0.25741 0.0
C1250 C 0.44586 0.95562 0.2553 0.0
C1251 C 0.45154 0.92825 0.25463 0.0
C1252 C 0.42416 0.89528 0.25715 0.0
C1253 C 0.39178 0.89007 0.25825 0.0
C1254 C 0.47439 0.99108 0.25254 0.0
C1255 C 0.42898 0.86533 0.25767 0.0
H1256 H 0.53816 0.92479 0.1735 0.0
H1257 H 0.54155 0.92949 0.32917 0.0
H1258 H 0.46063 0.90615 0.15586 0.0
H1259 H 0.47608 0.95012 0.15956 0.0
H1260 H 0.50009 0.93479 0.12867 0.0
H1261 H 0.50639 0.94198 0.37526 0.0
H1262 H 0.48081 0.95561 0.3451 0.0
H1263 H 0.46564 0.91197 0.35324 0.0
H1264 H 0.40848 0.97044 0.25545 0.0
H1265 H 0.37086 0.86474 0.25856 0.0
H1266 H 0.48719 0.99514 0.21706 0.0
H1267 H 0.49297 0.99573 0.28128 0.0
H1268 H 0.46601 0.00961 0.25646 0.0
H1269 H 0.44186 0.86482 0.22402 0.0
H1270 H 0.40505 0.84138 0.26039 0.0
H1271 H 0.44491 0.86706 0.28884 0.0
C1272 C 0.49413 0.38773 0.37549 0.0
C1273 C 0.46981 0.37879 0.41181 0.0
C1274 C 0.52281 0.41924 0.37459 0.0
C1275 C 0.52776 0.44277 0.4111 0.0
C1276 C 0.50296 0.43455 0.44711 0.0
C1277 C 0.47412 0.40261 0.44697 0.0
C1278 C 0.5485 0.42677 0.33553 0.0
C1279 C 0.50745 0.45905 0.48667 0.0
C1280 C 0.61884 0.50136 0.43823 0.0
C1281 C 0.62576 0.53029 0.41227 0.0
C1282 C 0.58682 0.47346 0.43971 0.0
C1283 C 0.56069 0.47406 0.41432 0.0
C1284 C 0.56722 0.50314 0.3882 0.0
C1285 C 0.59974 0.53097 0.38743 0.0
C1286 C 0.58119 0.44293 0.46759 0.0
C1287 C 0.53997 0.5046 0.36054 0.0
H1288 H 0.49102 0.36989 0.3475 0.0
H1289 H 0.45539 0.39611 0.47484 0.0
H1290 H 0.5554 0.45079 0.31745 0.0
H1291 H 0.57142 0.42934 0.35217 0.0
H1292 H 0.53958 0.40688 0.3074 0.0
H1293 H 0.48454 0.4504 0.5087 0.0
H1294 H 0.52794 0.46261 0.51116 0.0
H1295 H 0.51458 0.48376 0.47079 0.0
H1296 H 0.63861 0.50037 0.45768 0.0
H1297 H 0.6047 0.55326 0.36773 0.0
H1298 H 0.57422 0.42186 0.44205 0.0
H1299 H 0.56033 0.43511 0.49356 0.0
H1300 H 0.60361 0.44731 0.48811 0.0
H1301 H 0.53115 0.48618 0.3304 0.0
H1302 H 0.54842 0.52976 0.34508 0.0
H1303 H 0.51838 0.49777 0.3847 0.0
C1304 C 0.12147 0.62279 0.58529 0.0
C1305 C 0.09528 0.62802 0.57194 0.0
C1306 C 0.11749 0.59077 0.58608 0.0
C1307 C 0.08649 0.56293 0.57303 0.0
C1308 C 0.06002 0.56793 0.55849 0.0
C1309 C 0.06474 0.60051 0.55802 0.0
C1310 C 0.14661 0.58679 0.60104 0.0
C1311 C 0.02669 0.53885 0.54408 0.0
C1312 C 0.09757 0.49146 0.5314 0.0
C1313 C 0.09131 0.47266 0.57411 0.0
C1314 C 0.09349 0.51938 0.52953 0.0
C1315 C 0.0832 0.52919 0.57166 0.0
C1316 C 0.07479 0.50916 0.61414 0.0
C1317 C 0.07873 0.48085 0.61479 0.0
C1318 C 0.1025 0.53968 0.48333 0.0
C1319 C 0.06369 0.51883 0.65977 0.0
H1320 H 0.14523 0.64388 0.59591 0.0
H1321 H 0.04428 0.6043 0.54826 0.0
H1322 H 0.13954 0.56935 0.63219 0.0
H1323 H 0.15374 0.57589 0.57064 0.0
H1324 H 0.16872 0.6109 0.61157 0.0
H1325 H 0.00872 0.54687 0.53342 0.0
H1326 H 0.02971 0.52514 0.51323 0.0
H1327 H 0.01608 0.52104 0.57478 0.0
H1328 H 0.10658 0.48479 0.49937 0.0
H1329 H 0.07364 0.46624 0.64771 0.0
H1330 H 0.12614 0.56354 0.4888 0.0
H1331 H 0.08309 0.54597 0.47388 0.0
H1332 H 0.10574 0.52633 0.45212 0.0
H1333 H 0.08516 0.54121 0.67608 0.0
H1334 H 0.05363 0.49847 0.68714 0.0
H1335 H 0.04441 0.52549 0.65126 0.0
C1336 C 0.60544 0.08181 0.69907 0.0
C1337 C 0.62123 0.08243 0.74284 0.0
C1338 C 0.57374 0.07828 0.69851 0.0
C1339 C 0.55735 0.07555 0.74296 0.0
C1340 C 0.57202 0.07349 0.78717 0.0
C1341 C 0.60393 0.07685 0.78661 0.0
C1342 C 0.55919 0.08046 0.6505 0.0
C1343 C 0.55517 0.07032 0.83528 0.0
C1344 C 0.5067 0.11907 0.74559 0.0
C1345 C 0.47393 0.0924 0.74165 0.0
C1346 C 0.53378 0.11372 0.74635 0.0
C1347 C 0.52816 0.08075 0.74328 0.0
C1348 C 0.4952 0.05365 0.73805 0.0
C1349 C 0.4684 0.05981 0.7371 0.0
C1350 C 0.56848 0.14348 0.75095 0.0
C1351 C 0.48827 0.0182 0.73462 0.0
H1352 H 0.61868 0.08568 0.66505 0.0
H1353 H 0.61611 0.07729 0.82042 0.0
H1354 H 0.53253 0.06107 0.648 0.0
H1355 H 0.56083 0.10515 0.6476 0.0
H1356 H 0.57256 0.07756 0.61911 0.0
H1357 H 0.56688 0.06365 0.86509 0.0
H1358 H 0.55683 0.09446 0.84449 0.0
H1359 H 0.52841 0.05116 0.83316 0.0
H1360 H 0.51119 0.14434 0.74903 0.0
H1361 H 0.44311 0.03906 0.7348 0.0
H1362 H 0.58366 0.14466 0.71909 0.0
H1363 H 0.58082 0.14089 0.78381 0.0
H1364 H 0.56852 0.16745 0.75345 0.0
H1365 H 0.50252 0.01573 0.70414 0.0
H1366 H 0.46143 1.00001 0.72914 0.0
H1367 H 0.49667 0.0116 0.7684 0.0
loop_
_geom_bond_atom_site_label_1
_geom_bond_atom_site_label_2
_geom_bond_distance
_geom_bond_site_symmetry_2
_ccdc_geom_bond_type
Co0 O3 1.970 1_556 S
Co0 N17 1.989 . S
Co0 O25 1.967 . S
Co0 O32 1.920 . S
Co1 O4 1.966 . S
Co1 N10 2.022 . S
Co1 N18 1.993 1_554 S
Co1 O26 1.941 1_554 S
C2 O3 1.258 . S
C2 O4 1.263 . S
O3 Co0 1.970 1_554 S
O3 C2 1.258 . S
O4 Co1 1.966 . S
O4 C2 1.263 . S
C5 O6 1.235 . S
C5 O32 1.289 . S
O6 C5 1.235 . S
C7 C9 1.400 . S
C7 N10 1.351 . S
C7 C12 1.501 . S
C8 C9 1.387 . S
C8 N11 1.341 . S
C9 C7 1.400 . S
C9 C8 1.387 . S
N10 Co1 2.022 . S
N10 C7 1.351 . S
N10 N11 1.365 . S
N11 C8 1.341 . S
N11 N10 1.365 . S
N11 H31 0.862 . S
C12 C7 1.501 . S
C12 H13 0.961 . S
C12 H14 0.961 . S
C12 H15 0.960 . S
H13 C12 0.961 . S
H14 C12 0.961 . S
H15 C12 0.960 . S
C16 N17 1.342 . S
C16 C20 1.401 . S
C16 C21 1.499 . S
N17 Co0 1.989 . S
N17 C16 1.342 . S
N17 N18 1.388 . S
N18 Co1 1.993 1_556 S
N18 N17 1.388 . S
N18 C19 1.346 . S
C19 N18 1.346 . S
C19 C20 1.396 . S
C19 C29 1.510 1_556 S
C20 C16 1.401 . S
C20 C19 1.396 . S
C21 C16 1.499 . S
C21 H22 0.959 . S
C21 H23 0.960 . S
C21 H24 0.961 . S
H22 C21 0.959 . S
H23 C21 0.960 . S
H24 C21 0.961 . S
O25 Co0 1.967 . S
O25 C33 1.258 . S
O26 Co1 1.941 1_556 S
O26 C33 1.266 . S
H27 C29 0.959 . S
H28 C29 0.961 . S
C29 C19 1.510 1_554 S
C29 H27 0.959 . S
C29 H28 0.961 . S
C29 H30 0.960 . S
H30 C29 0.960 . S
H31 N11 0.862 . S
O32 Co0 1.920 . S
O32 C5 1.289 . S
C33 O25 1.258 . S
C33 O26 1.266 . S
Co34 O37 1.970 . S
Co34 N51 1.989 . S
Co34 O59 1.967 . S
Co34 O66 1.920 . S
Co35 O38 1.966 . S
Co35 N44 2.022 . S
Co35 N52 1.993 . S
Co35 O60 1.941 . S
C36 O37 1.258 . S
C36 O38 1.263 . S
O37 Co34 1.970 . S
O37 C36 1.258 . S
O38 Co35 1.966 . S
O38 C36 1.263 . S
C39 O40 1.235 . S
C39 O66 1.289 . S
O40 C39 1.235 . S
C41 C43 1.400 . S
C41 N44 1.351 . S
C41 C46 1.501 . S
C42 C43 1.387 . S
C42 N45 1.341 . S
C43 C41 1.400 . S
C43 C42 1.387 . S
N44 Co35 2.022 . S
N44 C41 1.351 . S
N44 N45 1.365 . S
N45 C42 1.341 . S
N45 N44 1.365 . S
N45 H65 0.862 . S
C46 C41 1.501 . S
C46 H47 0.961 . S
C46 H48 0.961 . S
C46 H49 0.960 . S
H47 C46 0.961 . S
H48 C46 0.961 . S
H49 C46 0.960 . S
C50 N51 1.342 . S
C50 C54 1.401 . S
C50 C55 1.499 . S
N51 Co34 1.989 . S
N51 C50 1.342 . S
N51 N52 1.388 . S
N52 Co35 1.993 . S
N52 N51 1.388 . S
N52 C53 1.346 . S
C53 N52 1.346 . S
C53 C54 1.396 . S
C53 C63 1.510 . S
C54 C50 1.401 . S
C54 C53 1.396 . S
C55 C50 1.499 . S
C55 H56 0.959 . S
C55 H57 0.960 . S
C55 H58 0.961 1_554 S
H56 C55 0.959 . S
H57 C55 0.960 . S
H58 C55 0.961 1_556 S
O59 Co34 1.967 . S
O59 C67 1.258 . S
O60 Co35 1.941 . S
O60 C67 1.266 . S
H61 C63 0.959 . S
H62 C63 0.961 . S
C63 C53 1.510 . S
C63 H61 0.959 . S
C63 H62 0.961 . S
C63 H64 0.960 . S
H64 C63 0.960 . S
H65 N45 0.862 . S
O66 Co34 1.920 . S
O66 C39 1.289 . S
C67 O59 1.258 . S
C67 O60 1.266 . S
Co68 O71 1.970 . S
Co68 N85 1.989 . S
Co68 O93 1.967 . S
Co68 O100 1.920 . S
Co69 O72 1.966 . S
Co69 N78 2.022 . S
Co69 N86 1.993 . S
Co69 O94 1.941 . S
C70 O71 1.258 . S
C70 O72 1.263 . S
O71 Co68 1.970 . S
O71 C70 1.258 . S
O72 Co69 1.966 . S
O72 C70 1.263 . S
C73 O74 1.235 . S
C73 O100 1.289 . S
O74 C73 1.235 . S
C75 C77 1.400 . S
C75 N78 1.351 . S
C75 C80 1.501 . S
C76 C77 1.387 . S
C76 N79 1.341 . S
C77 C75 1.400 . S
C77 C76 1.387 . S
N78 Co69 2.022 . S
N78 C75 1.351 . S
N78 N79 1.365 . S
N79 C76 1.341 . S
N79 N78 1.365 . S
N79 H99 0.862 . S
C80 C75 1.501 . S
C80 H81 0.961 . S
C80 H82 0.961 . S
C80 H83 0.960 . S
H81 C80 0.961 . S
H82 C80 0.961 . S
H83 C80 0.960 . S
C84 N85 1.342 . S
C84 C88 1.401 . S
C84 C89 1.499 . S
N85 Co68 1.989 . S
N85 C84 1.342 . S
N85 N86 1.388 . S
N86 Co69 1.993 . S
N86 N85 1.388 . S
N86 C87 1.346 . S
C87 N86 1.346 . S
C87 C88 1.396 . S
C87 C97 1.510 . S
C88 C84 1.401 . S
C88 C87 1.396 . S
C89 C84 1.499 . S
C89 H90 0.959 . S
C89 H91 0.960 . S
C89 H92 0.961 . S
H90 C89 0.959 . S
H91 C89 0.960 . S
H92 C89 0.961 . S
O93 Co68 1.967 . S
O93 C101 1.258 . S
O94 Co69 1.941 . S
O94 C101 1.266 . S
H95 C97 0.959 . S
H96 C97 0.961 . S
C97 C87 1.510 . S
C97 H95 0.959 . S
C97 H96 0.961 . S
C97 H98 0.960 . S
H98 C97 0.960 . S
H99 N79 0.862 . S
O100 Co68 1.920 . S
O100 C73 1.289 . S
C101 O93 1.258 . S
C101 O94 1.266 . S
Co102 O105 1.970 . S
Co102 N119 1.989 . S
Co102 O127 1.967 . S
Co102 O134 1.920 . S
Co103 O106 1.966 . S
Co103 N112 2.022 . S
Co103 N120 1.993 . S
Co103 O128 1.941 . S
C104 O105 1.258 . S
C104 O106 1.263 . S
O105 Co102 1.970 . S
O105 C104 1.258 . S
O106 Co103 1.966 . S
O106 C104 1.263 . S
C107 O108 1.235 . S
C107 O134 1.289 . S
O108 C107 1.235 . S
C109 C111 1.400 . S
C109 N112 1.351 . S
C109 C114 1.501 . S
C110 C111 1.387 . S
C110 N113 1.341 . S
C111 C109 1.400 . S
C111 C110 1.387 . S
N112 Co103 2.022 . S
N112 C109 1.351 . S
N112 N113 1.365 . S
N113 C110 1.341 . S
N113 N112 1.365 . S
N113 H133 0.862 . S
C114 C109 1.501 . S
C114 H115 0.961 . S
C114 H116 0.961 . S
C114 H117 0.960 . S
H115 C114 0.961 . S
H116 C114 0.961 . S
H117 C114 0.960 . S
C118 N119 1.342 . S
C118 C122 1.401 . S
C118 C123 1.499 . S
N119 Co102 1.989 . S
N119 C118 1.342 . S
N119 N120 1.388 . S
N120 Co103 1.993 . S
N120 N119 1.388 . S
N120 C121 1.346 . S
C121 N120 1.346 . S
C121 C122 1.396 . S
C121 C131 1.510 . S
C122 C118 1.401 . S
C122 C121 1.396 . S
C123 C118 1.499 . S
C123 H124 0.959 . S
C123 H125 0.960 . S
C123 H126 0.961 . S
H124 C123 0.959 . S
H125 C123 0.960 . S
H126 C123 0.961 . S
O127 Co102 1.967 . S
O127 C135 1.258 . S
O128 Co103 1.941 . S
O128 C135 1.266 . S
H129 C131 0.959 . S
H130 C131 0.961 . S
C131 C121 1.510 . S
C131 H129 0.959 . S
C131 H130 0.961 . S
C131 H132 0.960 . S
H132 C131 0.960 . S
H133 N113 0.862 . S
O134 Co102 1.920 . S
O134 C107 1.289 . S
C135 O127 1.258 . S
C135 O128 1.266 . S
Co136 O139 1.970 . S
Co136 N153 1.989 . S
Co136 O161 1.967 . S
Co136 O168 1.920 . S
Co137 O140 1.966 . S
Co137 N146 2.022 . S
Co137 N154 1.993 . S
Co137 O162 1.941 . S
C138 O139 1.258 . S
C138 O140 1.263 . S
O139 Co136 1.970 . S
O139 C138 1.258 . S
O140 Co137 1.966 . S
O140 C138 1.263 . S
C141 O142 1.235 . S
C141 O168 1.289 . S
O142 C141 1.235 . S
C143 C145 1.400 . S
C143 N146 1.351 . S
C143 C148 1.501 . S
C144 C145 1.387 . S
C144 N147 1.341 . S
C145 C143 1.400 . S
C145 C144 1.387 . S
N146 Co137 2.022 . S
N146 C143 1.351 . S
N146 N147 1.365 . S
N147 C144 1.341 . S
N147 N146 1.365 . S
N147 H167 0.862 . S
C148 C143 1.501 . S
C148 H149 0.961 . S
C148 H150 0.961 . S
C148 H151 0.960 . S
H149 C148 0.961 . S
H150 C148 0.961 . S
H151 C148 0.960 . S
C152 N153 1.342 . S
C152 C156 1.401 . S
C152 C157 1.499 . S
N153 Co136 1.989 . S
N153 C152 1.342 . S
N153 N154 1.388 . S
N154 Co137 1.993 . S
N154 N153 1.388 . S
N154 C155 1.346 . S
C155 N154 1.346 . S
C155 C156 1.396 . S
C155 C165 1.510 . S
C156 C152 1.401 . S
C156 C155 1.396 . S
C157 C152 1.499 . S
C157 H158 0.959 . S
C157 H159 0.960 . S
C157 H160 0.961 . S
H158 C157 0.959 . S
H159 C157 0.960 . S
H160 C157 0.961 . S
O161 Co136 1.967 . S
O161 C169 1.258 . S
O162 Co137 1.941 . S
O162 C169 1.266 . S
H163 C165 0.959 . S
H164 C165 0.961 . S
C165 C155 1.510 . S
C165 H163 0.959 . S
C165 H164 0.961 . S
C165 H166 0.960 . S
H166 C165 0.960 . S
H167 N147 0.862 . S
O168 Co136 1.920 . S
O168 C141 1.289 . S
C169 O161 1.258 . S
C169 O162 1.266 . S
Co170 O173 1.970 . S
Co170 N187 1.989 . S
Co170 O195 1.967 . S
Co170 O202 1.920 . S
Co171 O174 1.966 . S
Co171 N180 2.022 . S
Co171 N188 1.993 . S
Co171 O196 1.941 . S
C172 O173 1.258 . S
C172 O174 1.263 . S
O173 Co170 1.970 . S
O173 C172 1.258 . S
O174 Co171 1.966 . S
O174 C172 1.263 . S
C175 O176 1.235 . S
C175 O202 1.289 . S
O176 C175 1.235 . S
C177 C179 1.400 . S
C177 N180 1.351 . S
C177 C182 1.501 . S
C178 C179 1.387 . S
C178 N181 1.341 . S
C179 C177 1.400 . S
C179 C178 1.387 . S
N180 Co171 2.022 . S
N180 C177 1.351 . S
N180 N181 1.365 . S
N181 C178 1.341 . S
N181 N180 1.365 . S
N181 H201 0.862 . S
C182 C177 1.501 . S
C182 H183 0.961 . S
C182 H184 0.961 . S
C182 H185 0.960 . S
H183 C182 0.961 . S
H184 C182 0.961 . S
H185 C182 0.960 . S
C186 N187 1.342 . S
C186 C190 1.401 . S
C186 C191 1.499 . S
N187 Co170 1.989 . S
N187 C186 1.342 . S
N187 N188 1.388 . S
N188 Co171 1.993 . S
N188 N187 1.388 . S
N188 C189 1.346 . S
C189 N188 1.346 . S
C189 C190 1.396 . S
C189 C199 1.510 . S
C190 C186 1.401 . S
C190 C189 1.396 . S
C191 C186 1.499 . S
C191 H192 0.959 . S
C191 H193 0.960 . S
C191 H194 0.961 . S
H192 C191 0.959 . S
H193 C191 0.960 . S
H194 C191 0.961 . S
O195 Co170 1.967 . S
O195 C203 1.258 . S
O196 Co171 1.941 . S
O196 C203 1.266 . S
H197 C199 0.959 . S
H198 C199 0.961 . S
C199 C189 1.510 . S
C199 H197 0.959 . S
C199 H198 0.961 . S
C199 H200 0.960 . S
H200 C199 0.960 . S
H201 N181 0.862 . S
O202 Co170 1.920 . S
O202 C175 1.289 . S
C203 O195 1.258 . S
C203 O196 1.266 . S
Co204 O207 1.970 . S
Co204 N221 1.989 . S
Co204 O229 1.967 . S
Co204 O236 1.920 . S
Co205 O208 1.966 . S
Co205 N214 2.022 . S
Co205 N222 1.993 . S
Co205 O230 1.941 . S
C206 O207 1.258 . S
C206 O208 1.263 . S
O207 Co204 1.970 . S
O207 C206 1.258 . S
O208 Co205 1.966 . S
O208 C206 1.263 . S
C209 O210 1.235 . S
C209 O236 1.289 . S
O210 C209 1.235 . S
C211 C213 1.400 . S
C211 N214 1.351 . S
C211 C216 1.501 . S
C212 C213 1.387 . S
C212 N215 1.341 . S
C213 C211 1.400 . S
C213 C212 1.387 . S
N214 Co205 2.022 . S
N214 C211 1.351 . S
N214 N215 1.365 . S
N215 C212 1.341 . S
N215 N214 1.365 . S
N215 H235 0.862 . S
C216 C211 1.501 . S
C216 H217 0.961 . S
C216 H218 0.961 . S
C216 H219 0.960 . S
H217 C216 0.961 . S
H218 C216 0.961 . S
H219 C216 0.960 . S
C220 N221 1.342 . S
C220 C224 1.401 . S
C220 C225 1.499 . S
N221 Co204 1.989 . S
N221 C220 1.342 . S
N221 N222 1.388 . S
N222 Co205 1.993 . S
N222 N221 1.388 . S
N222 C223 1.346 . S
C223 N222 1.346 . S
C223 C224 1.396 . S
C223 C233 1.510 . S
C224 C220 1.401 . S
C224 C223 1.396 . S
C225 C220 1.499 . S
C225 H226 0.959 . S
C225 H227 0.960 . S
C225 H228 0.961 1_556 S
H226 C225 0.959 . S
H227 C225 0.960 . S
H228 C225 0.961 1_554 S
O229 Co204 1.967 . S
O229 C237 1.258 . S
O230 Co205 1.941 . S
O230 C237 1.266 . S
H231 C233 0.959 . S
H232 C233 0.961 . S
C233 C223 1.510 . S
C233 H231 0.959 . S
C233 H232 0.961 . S
C233 H234 0.960 . S
H234 C233 0.960 . S
H235 N215 0.862 . S
O236 Co204 1.920 . S
O236 C209 1.289 . S
C237 O229 1.258 . S
C237 O230 1.266 . S
Co238 O241 1.970 1_554 S
Co238 N255 1.989 . S
Co238 O263 1.967 . S
Co238 O270 1.920 . S
Co239 O242 1.966 . S
Co239 N248 2.022 . S
Co239 N256 1.993 1_556 S
Co239 O264 1.941 1_556 S
C240 O241 1.258 . S
C240 O242 1.263 . S
O241 Co238 1.970 1_556 S
O241 C240 1.258 . S
O242 Co239 1.966 . S
O242 C240 1.263 . S
C243 O244 1.235 . S
C243 O270 1.289 . S
O244 C243 1.235 . S
C245 C247 1.400 . S
C245 N248 1.351 . S
C245 C250 1.501 . S
C246 C247 1.387 . S
C246 N249 1.341 . S
C247 C245 1.400 . S
C247 C246 1.387 . S
N248 Co239 2.022 . S
N248 C245 1.351 . S
N248 N249 1.365 . S
N249 C246 1.341 . S
N249 N248 1.365 . S
N249 H269 0.862 . S
C250 C245 1.501 . S
C250 H251 0.961 . S
C250 H252 0.961 . S
C250 H253 0.960 . S
H251 C250 0.961 . S
H252 C250 0.961 . S
H253 C250 0.960 . S
C254 N255 1.342 . S
C254 C258 1.401 . S
C254 C259 1.499 . S
N255 Co238 1.989 . S
N255 C254 1.342 . S
N255 N256 1.388 . S
N256 Co239 1.993 1_554 S
N256 N255 1.388 . S
N256 C257 1.346 . S
C257 N256 1.346 . S
C257 C258 1.396 . S
C257 C267 1.510 1_554 S
C258 C254 1.401 . S
C258 C257 1.396 . S
C259 C254 1.499 . S
C259 H260 0.959 . S
C259 H261 0.960 . S
C259 H262 0.961 . S
H260 C259 0.959 . S
H261 C259 0.960 . S
H262 C259 0.961 . S
O263 Co238 1.967 . S
O263 C271 1.258 . S
O264 Co239 1.941 1_554 S
O264 C271 1.266 . S
H265 C267 0.959 . S
H266 C267 0.961 . S
C267 C257 1.510 1_556 S
C267 H265 0.959 . S
C267 H266 0.961 . S
C267 H268 0.960 . S
H268 C267 0.960 . S
H269 N249 0.862 . S
O270 Co238 1.920 . S
O270 C243 1.289 . S
C271 O263 1.258 . S
C271 O264 1.266 . S
Co272 O275 1.970 . S
Co272 N289 1.989 . S
Co272 O297 1.967 . S
Co272 O304 1.920 . S
Co273 O276 1.966 . S
Co273 N282 2.022 . S
Co273 N290 1.993 . S
Co273 O298 1.941 . S
C274 O275 1.258 . S
C274 O276 1.263 . S
O275 Co272 1.970 . S
O275 C274 1.258 . S
O276 Co273 1.966 . S
O276 C274 1.263 . S
C277 O278 1.235 . S
C277 O304 1.289 . S
O278 C277 1.235 . S
C279 C281 1.400 . S
C279 N282 1.351 . S
C279 C284 1.501 . S
C280 C281 1.387 . S
C280 N283 1.341 . S
C281 C279 1.400 . S
C281 C280 1.387 . S
N282 Co273 2.022 . S
N282 C279 1.351 . S
N282 N283 1.365 . S
N283 C280 1.341 . S
N283 N282 1.365 . S
N283 H303 0.862 . S
C284 C279 1.501 . S
C284 H285 0.961 . S
C284 H286 0.961 . S
C284 H287 0.960 . S
H285 C284 0.961 . S
H286 C284 0.961 . S
H287 C284 0.960 . S
C288 N289 1.342 . S
C288 C292 1.401 . S
C288 C293 1.499 . S
N289 Co272 1.989 . S
N289 C288 1.342 . S
N289 N290 1.388 . S
N290 Co273 1.993 . S
N290 N289 1.388 . S
N290 C291 1.346 . S
C291 N290 1.346 . S
C291 C292 1.396 . S
C291 C301 1.510 . S
C292 C288 1.401 . S
C292 C291 1.396 . S
C293 C288 1.499 . S
C293 H294 0.959 . S
C293 H295 0.960 . S
C293 H296 0.961 . S
H294 C293 0.959 . S
H295 C293 0.960 . S
H296 C293 0.961 . S
O297 Co272 1.967 . S
O297 C305 1.258 . S
O298 Co273 1.941 . S
O298 C305 1.266 . S
H299 C301 0.959 . S
H300 C301 0.961 . S
C301 C291 1.510 . S
C301 H299 0.959 . S
C301 H300 0.961 . S
C301 H302 0.960 . S
H302 C301 0.960 . S
H303 N283 0.862 . S
O304 Co272 1.920 . S
O304 C277 1.289 . S
C305 O297 1.258 . S
C305 O298 1.266 . S
Co306 O309 1.970 . S
Co306 N323 1.989 . S
Co306 O331 1.967 . S
Co306 O338 1.920 . S
Co307 O310 1.966 . S
Co307 N316 2.022 . S
Co307 N324 1.993 . S
Co307 O332 1.941 . S
C308 O309 1.258 . S
C308 O310 1.263 . S
O309 Co306 1.970 . S
O309 C308 1.258 . S
O310 Co307 1.966 . S
O310 C308 1.263 . S
C311 O312 1.235 . S
C311 O338 1.289 . S
O312 C311 1.235 . S
C313 C315 1.400 . S
C313 N316 1.351 . S
C313 C318 1.501 . S
C314 C315 1.387 . S
C314 N317 1.341 . S
C315 C313 1.400 . S
C315 C314 1.387 . S
N316 Co307 2.022 . S
N316 C313 1.351 . S
N316 N317 1.365 . S
N317 C314 1.341 . S
N317 N316 1.365 . S
N317 H337 0.862 . S
C318 C313 1.501 . S
C318 H319 0.961 . S
C318 H320 0.961 . S
C318 H321 0.960 . S
H319 C318 0.961 . S
H320 C318 0.961 . S
H321 C318 0.960 . S
C322 N323 1.342 . S
C322 C326 1.401 . S
C322 C327 1.499 . S
N323 Co306 1.989 . S
N323 C322 1.342 . S
N323 N324 1.388 . S
N324 Co307 1.993 . S
N324 N323 1.388 . S
N324 C325 1.346 . S
C325 N324 1.346 . S
C325 C326 1.396 . S
C325 C335 1.510 . S
C326 C322 1.401 . S
C326 C325 1.396 . S
C327 C322 1.499 . S
C327 H328 0.959 . S
C327 H329 0.960 . S
C327 H330 0.961 . S
H328 C327 0.959 . S
H329 C327 0.960 . S
H330 C327 0.961 . S
O331 Co306 1.967 . S
O331 C339 1.258 . S
O332 Co307 1.941 . S
O332 C339 1.266 . S
H333 C335 0.959 . S
H334 C335 0.961 . S
C335 C325 1.510 . S
C335 H333 0.959 . S
C335 H334 0.961 . S
C335 H336 0.960 . S
H336 C335 0.960 . S
H337 N317 0.862 . S
O338 Co306 1.920 . S
O338 C311 1.289 . S
C339 O331 1.258 . S
C339 O332 1.266 . S
Co340 O343 1.970 . S
Co340 N357 1.989 . S
Co340 O365 1.967 . S
Co340 O372 1.920 . S
Co341 O344 1.966 . S
Co341 N350 2.022 . S
Co341 N358 1.993 . S
Co341 O366 1.941 . S
C342 O343 1.258 . S
C342 O344 1.263 . S
O343 Co340 1.970 . S
O343 C342 1.258 . S
O344 Co341 1.966 . S
O344 C342 1.263 . S
C345 O346 1.235 . S
C345 O372 1.289 . S
O346 C345 1.235 . S
C347 C349 1.400 . S
C347 N350 1.351 . S
C347 C352 1.501 . S
C348 C349 1.387 . S
C348 N351 1.341 . S
C349 C347 1.400 . S
C349 C348 1.387 . S
N350 Co341 2.022 . S
N350 C347 1.351 . S
N350 N351 1.365 . S
N351 C348 1.341 . S
N351 N350 1.365 . S
N351 H371 0.862 . S
C352 C347 1.501 . S
C352 H353 0.961 . S
C352 H354 0.961 . S
C352 H355 0.960 . S
H353 C352 0.961 . S
H354 C352 0.961 . S
H355 C352 0.960 . S
C356 N357 1.342 . S
C356 C360 1.401 . S
C356 C361 1.499 . S
N357 Co340 1.989 . S
N357 C356 1.342 . S
N357 N358 1.388 . S
N358 Co341 1.993 . S
N358 N357 1.388 . S
N358 C359 1.346 . S
C359 N358 1.346 . S
C359 C360 1.396 . S
C359 C369 1.510 . S
C360 C356 1.401 . S
C360 C359 1.396 . S
C361 C356 1.499 . S
C361 H362 0.959 . S
C361 H363 0.960 . S
C361 H364 0.961 . S
H362 C361 0.959 . S
H363 C361 0.960 . S
H364 C361 0.961 . S
O365 Co340 1.967 . S
O365 C373 1.258 . S
O366 Co341 1.941 . S
O366 C373 1.266 . S
H367 C369 0.959 . S
H368 C369 0.961 . S
C369 C359 1.510 . S
C369 H367 0.959 . S
C369 H368 0.961 . S
C369 H370 0.960 . S
H370 C369 0.960 . S
H371 N351 0.862 . S
O372 Co340 1.920 . S
O372 C345 1.289 . S
C373 O365 1.258 . S
C373 O366 1.266 . S
Co374 O377 1.970 . S
Co374 N391 1.989 . S
Co374 O399 1.967 . S
Co374 O406 1.920 . S
Co375 O378 1.966 . S
Co375 N384 2.022 . S
Co375 N392 1.993 . S
Co375 O400 1.941 . S
C376 O377 1.258 . S
C376 O378 1.263 . S
O377 Co374 1.970 . S
O377 C376 1.258 . S
O378 Co375 1.966 . S
O378 C376 1.263 . S
C379 O380 1.235 . S
C379 O406 1.289 . S
O380 C379 1.235 . S
C381 C383 1.400 . S
C381 N384 1.351 . S
C381 C386 1.501 . S
C382 C383 1.387 . S
C382 N385 1.341 . S
C383 C381 1.400 . S
C383 C382 1.387 . S
N384 Co375 2.022 . S
N384 C381 1.351 . S
N384 N385 1.365 . S
N385 C382 1.341 . S
N385 N384 1.365 . S
N385 H405 0.862 . S
C386 C381 1.501 . S
C386 H387 0.961 . S
C386 H388 0.961 . S
C386 H389 0.960 . S
H387 C386 0.961 . S
H388 C386 0.961 . S
H389 C386 0.960 . S
C390 N391 1.342 . S
C390 C394 1.401 . S
C390 C395 1.499 . S
N391 Co374 1.989 . S
N391 C390 1.342 . S
N391 N392 1.388 . S
N392 Co375 1.993 . S
N392 N391 1.388 . S
N392 C393 1.346 . S
C393 N392 1.346 . S
C393 C394 1.396 . S
C393 C403 1.510 . S
C394 C390 1.401 . S
C394 C393 1.396 . S
C395 C390 1.499 . S
C395 H396 0.959 . S
C395 H397 0.960 . S
C395 H398 0.961 . S
H396 C395 0.959 . S
H397 C395 0.960 . S
H398 C395 0.961 . S
O399 Co374 1.967 . S
O399 C407 1.258 . S
O400 Co375 1.941 . S
O400 C407 1.266 . S
H401 C403 0.959 . S
H402 C403 0.961 . S
C403 C393 1.510 . S
C403 H401 0.959 . S
C403 H402 0.961 . S
C403 H404 0.960 . S
H404 C403 0.960 . S
H405 N385 0.862 . S
O406 Co374 1.920 . S
O406 C379 1.289 . S
C407 O399 1.258 . S
C407 O400 1.266 . S
C408 C409 1.391 . S
C408 C410 1.394 . S
C408 H424 0.931 . S
C409 C408 1.391 . S
C409 C413 1.376 . S
C410 C408 1.394 . S
C410 C411 1.369 . S
C410 C414 1.531 . S
C411 C410 1.369 . S
C411 C412 1.410 . S
C411 C419 1.503 . S
C412 C411 1.410 . S
C412 C413 1.392 . S
C412 C415 1.511 . S
C413 C409 1.376 . S
C413 C412 1.392 . S
C413 H425 0.929 . S
C414 C410 1.531 . S
C414 H426 0.960 . S
C414 H427 0.962 . S
C414 H428 0.960 . S
C415 C412 1.511 . S
C415 H429 0.961 . S
C415 H430 0.961 . S
C415 H431 0.961 . S
C416 C417 1.370 . S
C416 C418 1.363 . S
C416 H432 0.931 . S
C417 C416 1.370 . S
C417 C421 1.408 . S
C418 C416 1.363 . S
C418 C419 1.370 . S
C418 C422 1.524 . S
C419 C411 1.503 . S
C419 C418 1.370 . S
C419 C420 1.403 . S
C420 C419 1.403 . S
C420 C421 1.404 . S
C420 C423 1.539 . S
C421 C417 1.408 . S
C421 C420 1.404 . S
C421 H433 0.930 . S
C422 C418 1.524 . S
C422 H434 0.956 . S
C422 H435 0.961 . S
C422 H436 0.961 . S
C423 C420 1.539 . S
C423 H437 0.958 . S
C423 H438 0.961 . S
C423 H439 0.960 . S
H424 C408 0.931 . S
H425 C413 0.929 . S
H426 C414 0.960 . S
H427 C414 0.962 . S
H428 C414 0.960 . S
H429 C415 0.961 . S
H430 C415 0.961 . S
H431 C415 0.961 . S
H432 C416 0.931 . S
H433 C421 0.930 . S
H434 C422 0.956 . S
H435 C422 0.961 . S
H436 C422 0.961 . S
H437 C423 0.958 . S
H438 C423 0.961 . S
H439 C423 0.960 . S
C440 C441 1.391 . S
C440 C442 1.394 . S
C440 H456 0.931 . S
C441 C440 1.391 . S
C441 C445 1.376 . S
C442 C440 1.394 . S
C442 C443 1.369 . S
C442 C446 1.531 . S
C443 C442 1.369 . S
C443 C444 1.410 . S
C443 C451 1.503 . S
C444 C443 1.410 . S
C444 C445 1.392 . S
C444 C447 1.511 . S
C445 C441 1.376 . S
C445 C444 1.392 . S
C445 H457 0.929 . S
C446 C442 1.531 . S
C446 H458 0.960 . S
C446 H459 0.962 . S
C446 H460 0.960 . S
C447 C444 1.511 . S
C447 H461 0.961 . S
C447 H462 0.961 . S
C447 H463 0.961 . S
C448 C449 1.370 . S
C448 C450 1.363 . S
C448 H464 0.931 . S
C449 C448 1.370 . S
C449 C453 1.408 . S
C450 C448 1.363 . S
C450 C451 1.370 . S
C450 C454 1.524 . S
C451 C443 1.503 . S
C451 C450 1.370 . S
C451 C452 1.403 . S
C452 C451 1.403 . S
C452 C453 1.404 . S
C452 C455 1.539 . S
C453 C449 1.408 . S
C453 C452 1.404 . S
C453 H465 0.930 . S
C454 C450 1.524 . S
C454 H466 0.956 . S
C454 H467 0.961 . S
C454 H468 0.961 . S
C455 C452 1.539 . S
C455 H469 0.958 . S
C455 H470 0.961 . S
C455 H471 0.960 . S
H456 C440 0.931 . S
H457 C445 0.929 . S
H458 C446 0.960 . S
H459 C446 0.962 . S
H460 C446 0.960 . S
H461 C447 0.961 . S
H462 C447 0.961 . S
H463 C447 0.961 . S
H464 C448 0.931 . S
H465 C453 0.930 . S
H466 C454 0.956 . S
H467 C454 0.961 . S
H468 C454 0.961 . S
H469 C455 0.958 . S
H470 C455 0.961 . S
H471 C455 0.960 . S
C472 C473 1.391 . S
C472 C474 1.394 . S
C472 H488 0.931 . S
C473 C472 1.391 . S
C473 C477 1.376 . S
C474 C472 1.394 . S
C474 C475 1.369 . S
C474 C478 1.531 . S
C475 C474 1.369 . S
C475 C476 1.410 . S
C475 C483 1.503 . S
C476 C475 1.410 . S
C476 C477 1.392 . S
C476 C479 1.511 . S
C477 C473 1.376 . S
C477 C476 1.392 . S
C477 H489 0.929 . S
C478 C474 1.531 . S
C478 H490 0.960 . S
C478 H491 0.962 . S
C478 H492 0.960 . S
C479 C476 1.511 . S
C479 H493 0.961 . S
C479 H494 0.961 . S
C479 H495 0.961 . S
C480 C481 1.370 . S
C480 C482 1.363 . S
C480 H496 0.931 . S
C481 C480 1.370 . S
C481 C485 1.408 . S
C482 C480 1.363 . S
C482 C483 1.370 . S
C482 C486 1.524 . S
C483 C475 1.503 . S
C483 C482 1.370 . S
C483 C484 1.403 . S
C484 C483 1.403 . S
C484 C485 1.404 . S
C484 C487 1.539 . S
C485 C481 1.408 . S
C485 C484 1.404 . S
C485 H497 0.930 . S
C486 C482 1.524 . S
C486 H498 0.956 . S
C486 H499 0.961 . S
C486 H500 0.961 . S
C487 C484 1.539 . S
C487 H501 0.958 . S
C487 H502 0.961 . S
C487 H503 0.960 . S
H488 C472 0.931 . S
H489 C477 0.929 . S
H490 C478 0.960 . S
H491 C478 0.962 . S
H492 C478 0.960 . S
H493 C479 0.961 . S
H494 C479 0.961 . S
H495 C479 0.961 . S
H496 C480 0.931 . S
H497 C485 0.930 . S
H498 C486 0.956 . S
H499 C486 0.961 . S
H500 C486 0.961 . S
H501 C487 0.958 . S
H502 C487 0.961 . S
H503 C487 0.960 . S
C504 C505 1.391 . S
C504 C506 1.394 . S
C504 H520 0.931 . S
C505 C504 1.391 . S
C505 C509 1.376 . S
C506 C504 1.394 . S
C506 C507 1.369 . S
C506 C510 1.531 . S
C507 C506 1.369 . S
C507 C508 1.410 . S
C507 C515 1.503 . S
C508 C507 1.410 . S
C508 C509 1.392 . S
C508 C511 1.511 . S
C509 C505 1.376 . S
C509 C508 1.392 . S
C509 H521 0.929 . S
C510 C506 1.531 . S
C510 H522 0.960 . S
C510 H523 0.962 . S
C510 H524 0.960 . S
C511 C508 1.511 . S
C511 H525 0.961 . S
C511 H526 0.961 . S
C511 H527 0.961 . S
C512 C513 1.370 . S
C512 C514 1.363 . S
C512 H528 0.931 . S
C513 C512 1.370 . S
C513 C517 1.408 . S
C514 C512 1.363 . S
C514 C515 1.370 . S
C514 C518 1.524 . S
C515 C507 1.503 . S
C515 C514 1.370 . S
C515 C516 1.403 . S
C516 C515 1.403 . S
C516 C517 1.404 . S
C516 C519 1.539 . S
C517 C513 1.408 . S
C517 C516 1.404 . S
C517 H529 0.930 . S
C518 C514 1.524 . S
C518 H530 0.956 . S
C518 H531 0.961 . S
C518 H532 0.961 . S
C519 C516 1.539 . S
C519 H533 0.958 . S
C519 H534 0.961 . S
C519 H535 0.960 . S
H520 C504 0.931 . S
H521 C509 0.929 . S
H522 C510 0.960 . S
H523 C510 0.962 . S
H524 C510 0.960 . S
H525 C511 0.961 . S
H526 C511 0.961 . S
H527 C511 0.961 . S
H528 C512 0.931 . S
H529 C517 0.930 . S
H530 C518 0.956 . S
H531 C518 0.961 . S
H532 C518 0.961 . S
H533 C519 0.958 . S
H534 C519 0.961 . S
H535 C519 0.960 . S
C536 C537 1.391 . S
C536 C538 1.394 . S
C536 H552 0.931 . S
C537 C536 1.391 . S
C537 C541 1.376 . S
C538 C536 1.394 . S
C538 C539 1.369 . S
C538 C542 1.531 . S
C539 C538 1.369 . S
C539 C540 1.410 . S
C539 C547 1.503 . S
C540 C539 1.410 . S
C540 C541 1.392 . S
C540 C543 1.511 . S
C541 C537 1.376 . S
C541 C540 1.392 . S
C541 H553 0.929 . S
C542 C538 1.531 . S
C542 H554 0.960 . S
C542 H555 0.962 . S
C542 H556 0.960 . S
C543 C540 1.511 . S
C543 H557 0.961 . S
C543 H558 0.961 . S
C543 H559 0.961 . S
C544 C545 1.370 . S
C544 C546 1.363 1_554 S
C544 H560 0.931 . S
C545 C544 1.370 . S
C545 C549 1.408 1_554 S
C546 C544 1.363 1_556 S
C546 C547 1.370 . S
C546 C550 1.524 . S
C547 C539 1.503 . S
C547 C546 1.370 . S
C547 C548 1.403 . S
C548 C547 1.403 . S
C548 C549 1.404 . S
C548 C551 1.539 . S
C549 C545 1.408 1_556 S
C549 C548 1.404 . S
C549 H561 0.930 1_556 S
C550 C546 1.524 . S
C550 H562 0.956 . S
C550 H563 0.961 . S
C550 H564 0.961 . S
C551 C548 1.539 . S
C551 H565 0.958 . S
C551 H566 0.961 . S
C551 H567 0.960 . S
H552 C536 0.931 . S
H553 C541 0.929 . S
H554 C542 0.960 . S
H555 C542 0.962 . S
H556 C542 0.960 . S
H557 C543 0.961 . S
H558 C543 0.961 . S
H559 C543 0.961 . S
H560 C544 0.931 . S
H561 C549 0.930 1_554 S
H562 C550 0.956 . S
H563 C550 0.961 . S
H564 C550 0.961 . S
H565 C551 0.958 . S
H566 C551 0.961 . S
H567 C551 0.960 . S
C568 C569 1.393 . S
C568 C570 1.389 1_556 S
C568 H584 0.933 . S
C569 C568 1.393 . S
C569 C573 1.371 1_556 S
C570 C568 1.389 1_554 S
C570 C571 1.369 . S
C570 C574 1.531 . S
C571 C570 1.369 . S
C571 C572 1.410 . S
C571 C579 1.503 . S
C572 C571 1.410 . S
C572 C573 1.402 . S
C572 C575 1.511 . S
C573 C569 1.371 1_554 S
C573 C572 1.402 . S
C573 H585 0.924 1_554 S
C574 C570 1.531 . S
C574 H586 0.960 . S
C574 H587 0.962 . S
C574 H588 0.960 . S
C575 C572 1.511 . S
C575 H589 0.961 . S
C575 H590 0.961 . S
C575 H591 0.961 . S
C576 C577 1.370 . S
C576 C578 1.363 . S
C576 H592 0.931 . S
C577 C576 1.370 . S
C577 C581 1.408 . S
C578 C576 1.363 . S
C578 C579 1.370 . S
C578 C582 1.524 . S
C579 C571 1.503 . S
C579 C578 1.370 . S
C579 C580 1.403 . S
C580 C579 1.403 . S
C580 C581 1.404 . S
C580 C583 1.539 . S
C581 C577 1.408 . S
C581 C580 1.404 . S
C581 H593 0.930 . S
C582 C578 1.524 . S
C582 H594 0.956 . S
C582 H595 0.961 . S
C582 H596 0.961 . S
C583 C580 1.539 . S
C583 H597 0.958 . S
C583 H598 0.961 . S
C583 H599 0.960 . S
H584 C568 0.933 . S
H585 C573 0.924 1_556 S
H586 C574 0.960 . S
H587 C574 0.962 . S
H588 C574 0.960 . S
H589 C575 0.961 . S
H590 C575 0.961 . S
H591 C575 0.961 . S
H592 C576 0.931 . S
H593 C581 0.930 . S
H594 C582 0.956 . S
H595 C582 0.961 . S
H596 C582 0.961 . S
H597 C583 0.958 . S
H598 C583 0.961 . S
H599 C583 0.960 . S
C600 C601 1.391 . S
C600 C602 1.394 . S
C600 H616 0.931 . S
C601 C600 1.391 . S
C601 C605 1.376 . S
C602 C600 1.394 . S
C602 C603 1.369 . S
C602 C606 1.531 . S
C603 C602 1.369 . S
C603 C604 1.410 . S
C603 C611 1.503 . S
C604 C603 1.410 . S
C604 C605 1.392 . S
C604 C607 1.511 . S
C605 C601 1.376 . S
C605 C604 1.392 . S
C605 H617 0.929 . S
C606 C602 1.531 . S
C606 H618 0.960 . S
C606 H619 0.962 . S
C606 H620 0.960 . S
C607 C604 1.511 . S
C607 H621 0.961 . S
C607 H622 0.961 . S
C607 H623 0.961 . S
C608 C609 1.370 . S
C608 C610 1.363 . S
C608 H624 0.931 . S
C609 C608 1.370 . S
C609 C613 1.408 . S
C610 C608 1.363 . S
C610 C611 1.370 . S
C610 C614 1.524 . S
C611 C603 1.503 . S
C611 C610 1.370 . S
C611 C612 1.403 . S
C612 C611 1.403 . S
C612 C613 1.404 . S
C612 C615 1.539 . S
C613 C609 1.408 . S
C613 C612 1.404 . S
C613 H625 0.930 . S
C614 C610 1.524 . S
C614 H626 0.956 . S
C614 H627 0.961 . S
C614 H628 0.961 . S
C615 C612 1.539 . S
C615 H629 0.958 . S
C615 H630 0.961 . S
C615 H631 0.960 . S
H616 C600 0.931 . S
H617 C605 0.929 . S
H618 C606 0.960 . S
H619 C606 0.962 . S
H620 C606 0.960 . S
H621 C607 0.961 . S
H622 C607 0.961 . S
H623 C607 0.961 . S
H624 C608 0.931 . S
H625 C613 0.930 . S
H626 C614 0.956 . S
H627 C614 0.961 . S
H628 C614 0.961 . S
H629 C615 0.958 . S
H630 C615 0.961 . S
H631 C615 0.960 . S
C632 C633 1.391 . S
C632 C634 1.394 . S
C632 H648 0.931 . S
C633 C632 1.391 . S
C633 C637 1.376 . S
C634 C632 1.394 . S
C634 C635 1.369 . S
C634 C638 1.531 . S
C635 C634 1.369 . S
C635 C636 1.410 . S
C635 C643 1.503 . S
C636 C635 1.410 . S
C636 C637 1.392 . S
C636 C639 1.511 1_556 S
C637 C633 1.376 . S
C637 C636 1.392 . S
C637 H649 0.929 . S
C638 C634 1.531 . S
C638 H650 0.960 . S
C638 H651 0.962 . S
C638 H652 0.960 . S
C639 C636 1.511 1_554 S
C639 H653 0.961 . S
C639 H654 0.961 . S
C639 H655 0.960 . S
C640 C641 1.370 1_554 S
C640 C642 1.363 . S
C640 H656 0.931 . S
C641 C640 1.370 1_556 S
C641 C645 1.408 . S
C642 C640 1.363 . S
C642 C643 1.370 1_554 S
C642 C646 1.524 . S
C643 C635 1.503 . S
C643 C642 1.370 1_556 S
C643 C644 1.403 . S
C644 C643 1.403 . S
C644 C645 1.404 . S
C644 C647 1.539 . S
C645 C641 1.408 . S
C645 C644 1.404 . S
C645 H657 0.930 1_455 S
C646 C642 1.524 . S
C646 H658 0.956 . S
C646 H659 0.961 . S
C646 H660 0.961 . S
C647 C644 1.539 . S
C647 H661 0.958 . S
C647 H662 0.961 . S
C647 H663 0.960 . S
H648 C632 0.931 . S
H649 C637 0.929 . S
H650 C638 0.960 . S
H651 C638 0.962 . S
H652 C638 0.960 . S
H653 C639 0.961 . S
H654 C639 0.961 . S
H655 C639 0.960 . S
H656 C640 0.931 . S
H657 C645 0.930 1_655 S
H658 C646 0.956 . S
H659 C646 0.961 . S
H660 C646 0.961 . S
H661 C647 0.958 . S
H662 C647 0.961 . S
H663 C647 0.960 . S
C664 C665 1.391 . S
C664 C666 1.394 . S
C664 H680 0.931 . S
C665 C664 1.391 . S
C665 C669 1.376 . S
C666 C664 1.394 . S
C666 C667 1.369 . S
C666 C670 1.531 . S
C667 C666 1.369 . S
C667 C668 1.410 . S
C667 C675 1.503 . S
C668 C667 1.410 . S
C668 C669 1.392 . S
C668 C671 1.511 . S
C669 C665 1.376 . S
C669 C668 1.392 . S
C669 H681 0.929 . S
C670 C666 1.531 . S
C670 H682 0.960 . S
C670 H683 0.962 . S
C670 H684 0.960 . S
C671 C668 1.511 . S
C671 H685 0.961 . S
C671 H686 0.961 . S
C671 H687 0.961 . S
C672 C673 1.370 1_545 S
C672 C674 1.363 . S
C672 H688 0.931 1_545 S
C673 C672 1.370 1_565 S
C673 C677 1.403 1_565 S
C674 C672 1.363 . S
C674 C675 1.370 . S
C674 C678 1.524 . S
C675 C667 1.503 . S
C675 C674 1.370 . S
C675 C676 1.403 . S
C676 C675 1.403 . S
C676 C677 1.404 . S
C676 C679 1.539 . S
C677 C673 1.403 1_545 S
C677 C676 1.404 . S
C677 H689 0.930 . S
C678 C674 1.524 . S
C678 H690 0.956 . S
C678 H691 0.961 . S
C678 H692 0.961 . S
C679 C676 1.539 . S
C679 H693 0.958 . S
C679 H694 0.961 . S
C679 H695 0.960 . S
H680 C664 0.931 . S
H681 C669 0.929 . S
H682 C670 0.960 . S
H683 C670 0.962 . S
H684 C670 0.960 . S
H685 C671 0.961 . S
H686 C671 0.961 . S
H687 C671 0.961 . S
H688 C672 0.931 1_565 S
H689 C677 0.930 . S
H690 C678 0.956 . S
H691 C678 0.961 . S
H692 C678 0.961 . S
H693 C679 0.958 . S
H694 C679 0.961 . S
H695 C679 0.960 . S
C696 C697 1.391 . S
C696 C698 1.394 . S
C696 H712 0.931 . S
C697 C696 1.391 . S
C697 C701 1.376 . S
C698 C696 1.394 . S
C698 C699 1.369 . S
C698 C702 1.531 . S
C699 C698 1.369 . S
C699 C700 1.410 . S
C699 C707 1.503 . S
C700 C699 1.410 . S
C700 C701 1.392 . S
C700 C703 1.511 . S
C701 C697 1.376 . S
C701 C700 1.392 . S
C701 H713 0.929 . S
C702 C698 1.531 . S
C702 H714 0.960 . S
C702 H715 0.962 . S
C702 H716 0.960 . S
C703 C700 1.511 . S
C703 H717 0.961 . S
C703 H718 0.961 . S
C703 H719 0.961 . S
C704 C705 1.370 . S
C704 C706 1.363 . S
C704 H720 0.931 . S
C705 C704 1.370 . S
C705 C709 1.408 . S
C706 C704 1.363 . S
C706 C707 1.370 . S
C706 C710 1.524 . S
C707 C699 1.503 . S
C707 C706 1.370 . S
C707 C708 1.403 . S
C708 C707 1.403 . S
C708 C709 1.404 . S
C708 C711 1.539 . S
C709 C705 1.408 . S
C709 C708 1.404 . S
C709 H721 0.930 . S
C710 C706 1.524 . S
C710 H722 0.956 . S
C710 H723 0.961 . S
C710 H724 0.961 . S
C711 C708 1.539 . S
C711 H725 0.958 . S
C711 H726 0.961 . S
C711 H727 0.960 . S
H712 C696 0.931 . S
H713 C701 0.929 . S
H714 C702 0.960 . S
H715 C702 0.962 . S
H716 C702 0.960 . S
H717 C703 0.961 . S
H718 C703 0.961 . S
H719 C703 0.961 . S
H720 C704 0.931 . S
H721 C709 0.930 . S
H722 C710 0.956 . S
H723 C710 0.961 . S
H724 C710 0.961 . S
H725 C711 0.958 . S
H726 C711 0.961 . S
H727 C711 0.960 . S
C728 C729 1.391 1_655 S
C728 C730 1.394 . S
C728 H744 0.931 1_655 S
C729 C728 1.391 1_455 S
C729 C733 1.376 1_455 S
C730 C728 1.394 . S
C730 C731 1.369 . S
C730 C734 1.531 . S
C731 C730 1.369 . S
C731 C732 1.410 . S
C731 C739 1.503 . S
C732 C731 1.410 . S
C732 C733 1.392 . S
C732 C735 1.511 . S
C733 C729 1.376 1_655 S
C733 C732 1.392 . S
C733 H745 0.929 . S
C734 C730 1.531 . S
C734 H746 0.960 . S
C734 H747 0.962 . S
C734 H748 0.960 . S
C735 C732 1.511 . S
C735 H749 0.961 . S
C735 H750 0.961 . S
C735 H751 0.961 . S
C736 C737 1.370 . S
C736 C738 1.363 . S
C736 H752 0.931 . S
C737 C736 1.370 . S
C737 C741 1.408 . S
C738 C736 1.363 . S
C738 C739 1.370 . S
C738 C742 1.524 . S
C739 C731 1.503 . S
C739 C738 1.370 . S
C739 C740 1.403 . S
C740 C739 1.403 . S
C740 C741 1.404 . S
C740 C743 1.539 . S
C741 C737 1.408 . S
C741 C740 1.404 . S
C741 H753 0.930 . S
C742 C738 1.524 . S
C742 H754 0.956 . S
C742 H755 0.961 . S
C742 H756 0.961 . S
C743 C740 1.539 . S
C743 H757 0.958 . S
C743 H758 0.961 . S
C743 H759 0.960 . S
H744 C728 0.931 1_455 S
H745 C733 0.929 . S
H746 C734 0.960 . S
H747 C734 0.962 . S
H748 C734 0.960 . S
H749 C735 0.961 . S
H750 C735 0.961 . S
H751 C735 0.961 . S
H752 C736 0.931 . S
H753 C741 0.930 . S
H754 C742 0.956 . S
H755 C742 0.961 . S
H756 C742 0.961 . S
H757 C743 0.958 . S
H758 C743 0.961 . S
H759 C743 0.960 . S
C760 C761 1.391 1_565 S
C760 C762 1.394 . S
C760 H776 0.931 . S
C761 C760 1.391 1_545 S
C761 C765 1.376 1_545 S
C762 C760 1.394 . S
C762 C763 1.369 . S
C762 C766 1.531 . S
C763 C762 1.369 . S
C763 C764 1.410 . S
C763 C771 1.503 . S
C764 C763 1.410 . S
C764 C765 1.392 . S
C764 C767 1.511 . S
C765 C761 1.376 1_565 S
C765 C764 1.392 . S
C765 H777 0.929 1_565 S
C766 C762 1.531 . S
C766 H778 0.960 . S
C766 H779 0.962 . S
C766 H780 0.960 . S
C767 C764 1.511 . S
C767 H781 0.961 . S
C767 H782 0.961 . S
C767 H783 0.961 . S
C768 C769 1.370 . S
C768 C770 1.363 . S
C768 H784 0.931 . S
C769 C768 1.370 . S
C769 C773 1.408 . S
C770 C768 1.363 . S
C770 C771 1.370 . S
C770 C774 1.524 . S
C771 C763 1.503 . S
C771 C770 1.370 . S
C771 C772 1.403 . S
C772 C771 1.403 . S
C772 C773 1.404 . S
C772 C775 1.539 . S
C773 C769 1.408 . S
C773 C772 1.404 . S
C773 H785 0.930 . S
C774 C770 1.524 . S
C774 H786 0.956 . S
C774 H787 0.961 . S
C774 H788 0.961 . S
C775 C772 1.539 . S
C775 H789 0.958 . S
C775 H790 0.961 . S
C775 H791 0.960 . S
H776 C760 0.931 . S
H777 C765 0.929 1_545 S
H778 C766 0.960 . S
H779 C766 0.962 . S
H780 C766 0.960 . S
H781 C767 0.961 . S
H782 C767 0.961 . S
H783 C767 0.961 . S
H784 C768 0.931 . S
H785 C773 0.930 . S
H786 C774 0.956 . S
H787 C774 0.961 . S
H788 C774 0.961 . S
H789 C775 0.958 . S
H790 C775 0.961 . S
H791 C775 0.960 . S
C792 C793 1.391 . S
C792 C794 1.394 . S
C792 H808 0.931 . S
C793 C792 1.391 . S
C793 C797 1.376 . S
C794 C792 1.394 . S
C794 C795 1.369 . S
C794 C798 1.531 . S
C795 C794 1.369 . S
C795 C796 1.410 . S
C795 C803 1.503 . S
C796 C795 1.410 . S
C796 C797 1.392 . S
C796 C799 1.511 1_554 S
C797 C793 1.376 . S
C797 C796 1.392 . S
C797 H809 0.929 . S
C798 C794 1.531 . S
C798 H810 0.960 . S
C798 H811 0.962 . S
C798 H812 0.960 . S
C799 C796 1.511 1_556 S
C799 H813 0.961 . S
C799 H814 0.961 . S
C799 H815 0.961 1_556 S
C800 C801 1.370 1_556 S
C800 C802 1.363 . S
C800 H816 0.931 . S
C801 C800 1.370 1_554 S
C801 C805 1.408 . S
C802 C800 1.363 . S
C802 C803 1.370 1_556 S
C802 C806 1.524 . S
C803 C795 1.503 . S
C803 C802 1.370 1_554 S
C803 C804 1.403 . S
C804 C803 1.403 . S
C804 C805 1.404 . S
C804 C807 1.539 . S
C805 C801 1.408 . S
C805 C804 1.404 . S
C805 H817 0.930 . S
C806 C802 1.524 . S
C806 H818 0.956 . S
C806 H819 0.961 . S
C806 H820 0.961 . S
C807 C804 1.539 . S
C807 H821 0.958 . S
C807 H822 0.961 . S
C807 H823 0.960 . S
H808 C792 0.931 . S
H809 C797 0.929 . S
H810 C798 0.960 . S
H811 C798 0.962 . S
H812 C798 0.960 . S
H813 C799 0.961 . S
H814 C799 0.961 . S
H815 C799 0.961 1_554 S
H816 C800 0.931 . S
H817 C805 0.930 . S
H818 C806 0.956 . S
H819 C806 0.961 . S
H820 C806 0.961 . S
H821 C807 0.958 . S
H822 C807 0.961 . S
H823 C807 0.960 . S
C824 C825 1.393 . S
C824 C826 1.394 . S
C824 H840 0.931 . S
C825 C824 1.393 . S
C825 C829 1.376 . S
C826 C824 1.394 . S
C826 C827 1.369 . S
C826 C830 1.531 . S
C827 C826 1.369 . S
C827 C828 1.410 . S
C827 C835 1.503 . S
C828 C827 1.410 . S
C828 C829 1.392 . S
C828 C831 1.511 . S
C829 C825 1.376 . S
C829 C828 1.392 . S
C829 H841 0.929 1_455 S
C830 C826 1.531 . S
C830 H842 0.960 . S
C830 H843 0.962 . S
C830 H844 0.960 . S
C831 C828 1.511 . S
C831 H845 0.961 . S
C831 H846 0.961 . S
C831 H847 0.961 . S
C832 C833 1.370 . S
C832 C834 1.363 . S
C832 H848 0.931 . S
C833 C832 1.370 . S
C833 C837 1.408 . S
C834 C832 1.363 . S
C834 C835 1.370 . S
C834 C838 1.524 . S
C835 C827 1.503 . S
C835 C834 1.370 . S
C835 C836 1.403 . S
C836 C835 1.403 . S
C836 C837 1.404 . S
C836 C839 1.539 . S
C837 C833 1.408 . S
C837 C836 1.404 . S
C837 H849 0.930 . S
C838 C834 1.524 . S
C838 H850 0.956 . S
C838 H851 0.961 . S
C838 H852 0.961 . S
C839 C836 1.539 . S
C839 H853 0.958 . S
C839 H854 0.961 . S
C839 H855 0.960 . S
H840 C824 0.931 . S
H841 C829 0.929 1_655 S
H842 C830 0.960 . S
H843 C830 0.962 . S
H844 C830 0.960 . S
H845 C831 0.961 . S
H846 C831 0.961 . S
H847 C831 0.961 . S
H848 C832 0.931 . S
H849 C837 0.930 . S
H850 C838 0.956 . S
H851 C838 0.961 . S
H852 C838 0.961 . S
H853 C839 0.958 . S
H854 C839 0.961 . S
H855 C839 0.960 . S
C856 C857 1.391 . S
C856 C858 1.394 1_565 S
C856 H872 0.931 . S
C857 C856 1.391 . S
C857 C861 1.376 1_565 S
C858 C856 1.394 1_545 S
C858 C859 1.369 . S
C858 C862 1.531 . S
C859 C858 1.369 . S
C859 C860 1.410 . S
C859 C867 1.503 . S
C860 C859 1.410 . S
C860 C861 1.392 . S
C860 C863 1.511 . S
C861 C857 1.376 1_545 S
C861 C860 1.392 . S
C861 H873 0.929 . S
C862 C858 1.531 . S
C862 H874 0.960 . S
C862 H875 0.962 . S
C862 H876 0.960 . S
C863 C860 1.511 . S
C863 H877 0.961 . S
C863 H878 0.961 . S
C863 H879 0.961 . S
C864 C865 1.370 . S
C864 C866 1.363 . S
C864 H880 0.931 . S
C865 C864 1.370 . S
C865 C869 1.408 . S
C866 C864 1.363 . S
C866 C867 1.370 . S
C866 C870 1.524 . S
C867 C859 1.503 . S
C867 C866 1.370 . S
C867 C868 1.403 . S
C868 C867 1.403 . S
C868 C869 1.404 . S
C868 C871 1.539 . S
C869 C865 1.408 . S
C869 C868 1.404 . S
C869 H881 0.930 . S
C870 C866 1.524 . S
C870 H882 0.956 . S
C870 H883 0.961 . S
C870 H884 0.961 . S
C871 C868 1.539 . S
C871 H885 0.958 . S
C871 H886 0.961 . S
C871 H887 0.960 . S
H872 C856 0.931 . S
H873 C861 0.929 . S
H874 C862 0.960 . S
H875 C862 0.962 . S
H876 C862 0.960 . S
H877 C863 0.961 . S
H878 C863 0.961 . S
H879 C863 0.961 . S
H880 C864 0.931 . S
H881 C869 0.930 . S
H882 C870 0.956 . S
H883 C870 0.961 . S
H884 C870 0.961 . S
H885 C871 0.958 . S
H886 C871 0.961 . S
H887 C871 0.960 . S
C888 C889 1.391 . S
C888 C890 1.394 . S
C888 H904 0.931 . S
C889 C888 1.391 . S
C889 C893 1.376 . S
C890 C888 1.394 . S
C890 C891 1.369 . S
C890 C894 1.531 . S
C891 C890 1.369 . S
C891 C892 1.410 . S
C891 C899 1.503 . S
C892 C891 1.410 . S
C892 C893 1.392 . S
C892 C895 1.511 . S
C893 C889 1.376 . S
C893 C892 1.392 . S
C893 H905 0.929 . S
C894 C890 1.531 . S
C894 H906 0.960 . S
C894 H907 0.962 . S
C894 H908 0.960 . S
C895 C892 1.511 . S
C895 H909 0.961 . S
C895 H910 0.961 . S
C895 H911 0.961 . S
C896 C897 1.370 . S
C896 C898 1.363 . S
C896 H912 0.931 . S
C897 C896 1.370 . S
C897 C901 1.408 . S
C898 C896 1.363 . S
C898 C899 1.370 . S
C898 C902 1.524 . S
C899 C891 1.503 . S
C899 C898 1.370 . S
C899 C900 1.403 . S
C900 C899 1.403 . S
C900 C901 1.404 . S
C900 C903 1.539 . S
C901 C897 1.408 . S
C901 C900 1.404 . S
C901 H913 0.930 . S
C902 C898 1.524 . S
C902 H914 0.956 . S
C902 H915 0.961 . S
C902 H916 0.961 . S
C903 C900 1.539 . S
C903 H917 0.958 . S
C903 H918 0.961 . S
C903 H919 0.960 . S
H904 C888 0.931 . S
H905 C893 0.929 . S
H906 C894 0.960 . S
H907 C894 0.962 . S
H908 C894 0.960 . S
H909 C895 0.961 . S
H910 C895 0.961 . S
H911 C895 0.961 . S
H912 C896 0.931 . S
H913 C901 0.930 . S
H914 C902 0.956 . S
H915 C902 0.961 . S
H916 C902 0.961 . S
H917 C903 0.958 . S
H918 C903 0.961 . S
H919 C903 0.960 . S
C920 C921 1.385 . S
C920 C922 1.394 . S
C920 H936 0.931 1_655 S
C921 C920 1.385 . S
C921 C925 1.397 . S
C922 C920 1.394 . S
C922 C923 1.369 . S
C922 C926 1.531 . S
C923 C922 1.369 . S
C923 C924 1.410 . S
C923 C931 1.503 . S
C924 C923 1.410 . S
C924 C925 1.392 . S
C924 C927 1.511 . S
C925 C921 1.397 . S
C925 C924 1.392 . S
C925 H937 0.929 . S
C926 C922 1.531 . S
C926 H938 0.960 . S
C926 H939 0.962 . S
C926 H940 0.960 . S
C927 C924 1.511 . S
C927 H941 0.961 . S
C927 H942 0.961 . S
C927 H943 0.961 . S
C928 C929 1.370 . S
C928 C930 1.363 . S
C928 H944 0.931 . S
C929 C928 1.370 . S
C929 C933 1.408 . S
C930 C928 1.363 . S
C930 C931 1.370 . S
C930 C934 1.524 . S
C931 C923 1.503 . S
C931 C930 1.370 . S
C931 C932 1.403 . S
C932 C931 1.403 . S
C932 C933 1.404 . S
C932 C935 1.539 . S
C933 C929 1.408 . S
C933 C932 1.404 . S
C933 H945 0.930 . S
C934 C930 1.524 . S
C934 H946 0.956 . S
C934 H947 0.961 . S
C934 H948 0.961 . S
C935 C932 1.539 . S
C935 H949 0.958 . S
C935 H950 0.961 . S
C935 H951 0.960 . S
H936 C920 0.931 1_455 S
H937 C925 0.929 . S
H938 C926 0.960 . S
H939 C926 0.962 . S
H940 C926 0.960 . S
H941 C927 0.961 . S
H942 C927 0.961 . S
H943 C927 0.961 . S
H944 C928 0.931 . S
H945 C933 0.930 . S
H946 C934 0.956 . S
H947 C934 0.961 . S
H948 C934 0.961 . S
H949 C935 0.958 . S
H950 C935 0.961 . S
H951 C935 0.960 . S
C952 C953 1.391 1_565 S
C952 C954 1.394 . S
C952 H968 0.931 1_565 S
C953 C952 1.391 1_545 S
C953 C957 1.376 1_545 S
C954 C952 1.394 . S
C954 C955 1.369 . S
C954 C958 1.531 . S
C955 C954 1.369 . S
C955 C956 1.410 . S
C955 C963 1.503 . S
C956 C955 1.410 . S
C956 C957 1.392 . S
C956 C959 1.511 . S
C957 C953 1.376 1_565 S
C957 C956 1.392 . S
C957 H969 0.929 . S
C958 C954 1.531 . S
C958 H970 0.960 . S
C958 H971 0.962 . S
C958 H972 0.960 . S
C959 C956 1.511 . S
C959 H973 0.961 . S
C959 H974 0.961 . S
C959 H975 0.961 . S
C960 C961 1.370 . S
C960 C962 1.363 . S
C960 H976 0.931 . S
C961 C960 1.370 . S
C961 C965 1.408 . S
C962 C960 1.363 . S
C962 C963 1.370 . S
C962 C966 1.524 . S
C963 C955 1.503 . S
C963 C962 1.370 . S
C963 C964 1.403 . S
C964 C963 1.403 . S
C964 C965 1.404 . S
C964 C967 1.539 . S
C965 C961 1.408 . S
C965 C964 1.404 . S
C965 H977 0.930 . S
C966 C962 1.524 . S
C966 H978 0.956 . S
C966 H979 0.961 . S
C966 H980 0.961 . S
C967 C964 1.539 . S
C967 H981 0.958 . S
C967 H982 0.961 1_556 S
C967 H983 0.960 . S
H968 C952 0.931 1_545 S
H969 C957 0.929 . S
H970 C958 0.960 . S
H971 C958 0.962 . S
H972 C958 0.960 . S
H973 C959 0.961 . S
H974 C959 0.961 . S
H975 C959 0.961 . S
H976 C960 0.931 . S
H977 C965 0.930 . S
H978 C966 0.956 . S
H979 C966 0.961 . S
H980 C966 0.961 . S
H981 C967 0.958 . S
H982 C967 0.961 1_554 S
H983 C967 0.960 . S
C984 C985 1.391 . S
C984 C986 1.394 . S
C984 H1000 0.931 . S
C985 C984 1.391 . S
C985 C989 1.376 . S
C986 C984 1.394 . S
C986 C987 1.369 . S
C986 C990 1.531 . S
C987 C986 1.369 . S
C987 C988 1.410 . S
C987 C995 1.503 . S
C988 C987 1.410 . S
C988 C989 1.392 . S
C988 C991 1.511 . S
C989 C985 1.376 . S
C989 C988 1.392 . S
C989 H1001 0.929 . S
C990 C986 1.531 . S
C990 H1002 0.960 . S
C990 H1003 0.962 . S
C990 H1004 0.960 . S
C991 C988 1.511 . S
C991 H1005 0.961 . S
C991 H1006 0.961 . S
C991 H1007 0.961 . S
C992 C993 1.370 . S
C992 C994 1.363 . S
C992 H1008 0.931 . S
C993 C992 1.370 . S
C993 C997 1.408 . S
C994 C992 1.363 . S
C994 C995 1.370 . S
C994 C998 1.524 . S
C995 C987 1.503 . S
C995 C994 1.370 . S
C995 C996 1.403 . S
C996 C995 1.403 . S
C996 C997 1.404 . S
C996 C999 1.539 . S
C997 C993 1.408 . S
C997 C996 1.404 . S
C997 H1009 0.930 . S
C998 C994 1.524 . S
C998 H1010 0.956 . S
C998 H1011 0.961 . S
C998 H1012 0.961 . S
C999 C996 1.539 . S
C999 H1013 0.958 . S
C999 H1014 0.961 . S
C999 H1015 0.960 . S
H1000 C984 0.931 . S
H1001 C989 0.929 . S
H1002 C990 0.960 . S
H1003 C990 0.962 . S
H1004 C990 0.960 . S
H1005 C991 0.961 . S
H1006 C991 0.961 . S
H1007 C991 0.961 . S
H1008 C992 0.931 . S
H1009 C997 0.930 . S
H1010 C998 0.956 . S
H1011 C998 0.961 . S
H1012 C998 0.961 . S
H1013 C999 0.958 . S
H1014 C999 0.961 . S
H1015 C999 0.960 . S
C1016 C1017 1.391 . S
C1016 C1018 1.394 1_655 S
C1016 H1032 0.931 1_655 S
C1017 C1016 1.391 . S
C1017 C1021 1.376 . S
C1018 C1016 1.394 1_455 S
C1018 C1019 1.369 1_455 S
C1018 C1022 1.531 . S
C1019 C1018 1.369 1_655 S
C1019 C1020 1.410 . S
C1019 C1027 1.503 1_655 S
C1020 C1019 1.410 . S
C1020 C1021 1.392 . S
C1020 C1023 1.511 . S
C1021 C1017 1.376 . S
C1021 C1020 1.392 . S
C1021 H1033 0.929 . S
C1022 C1018 1.531 . S
C1022 H1034 0.960 . S
C1022 H1035 0.962 . S
C1022 H1036 0.960 . S
C1023 C1020 1.511 . S
C1023 H1037 0.961 . S
C1023 H1038 0.961 . S
C1023 H1039 0.961 . S
C1024 C1025 1.370 . S
C1024 C1026 1.363 . S
C1024 H1040 0.931 . S
C1025 C1024 1.370 . S
C1025 C1029 1.408 . S
C1026 C1024 1.363 . S
C1026 C1027 1.370 . S
C1026 C1030 1.524 1_455 S
C1027 C1019 1.503 1_455 S
C1027 C1026 1.370 . S
C1027 C1028 1.403 . S
C1028 C1027 1.403 . S
C1028 C1029 1.404 . S
C1028 C1031 1.539 . S
C1029 C1025 1.408 . S
C1029 C1028 1.404 . S
C1029 H1041 0.930 . S
C1030 C1026 1.524 1_655 S
C1030 H1042 0.956 . S
C1030 H1043 0.961 . S
C1030 H1044 0.961 . S
C1031 C1028 1.539 . S
C1031 H1045 0.958 . S
C1031 H1046 0.961 . S
C1031 H1047 0.960 . S
H1032 C1016 0.931 1_455 S
H1033 C1021 0.929 . S
H1034 C1022 0.960 . S
H1035 C1022 0.962 . S
H1036 C1022 0.960 . S
H1037 C1023 0.961 . S
H1038 C1023 0.961 . S
H1039 C1023 0.961 . S
H1040 C1024 0.931 . S
H1041 C1029 0.930 . S
H1042 C1030 0.956 . S
H1043 C1030 0.961 . S
H1044 C1030 0.961 . S
H1045 C1031 0.958 . S
H1046 C1031 0.961 . S
H1047 C1031 0.960 . S
C1048 C1049 1.391 . S
C1048 C1050 1.394 . S
C1048 H1064 0.931 . S
C1049 C1048 1.391 . S
C1049 C1053 1.376 . S
C1050 C1048 1.394 . S
C1050 C1051 1.369 . S
C1050 C1054 1.531 . S
C1051 C1050 1.369 . S
C1051 C1052 1.410 . S
C1051 C1059 1.503 1_565 S
C1052 C1051 1.410 . S
C1052 C1053 1.392 . S
C1052 C1055 1.511 1_565 S
C1053 C1049 1.376 . S
C1053 C1052 1.392 . S
C1053 H1065 0.929 . S
C1054 C1050 1.531 . S
C1054 H1066 0.960 1_565 S
C1054 H1067 0.962 . S
C1054 H1068 0.960 . S
C1055 C1052 1.511 1_545 S
C1055 H1069 0.961 . S
C1055 H1070 0.961 . S
C1055 H1071 0.961 . S
C1056 C1057 1.370 . S
C1056 C1058 1.363 1_545 S
C1056 H1072 0.931 1_545 S
C1057 C1056 1.370 . S
C1057 C1061 1.408 . S
C1058 C1056 1.363 1_565 S
C1058 C1059 1.370 1_565 S
C1058 C1062 1.524 . S
C1059 C1051 1.503 1_545 S
C1059 C1058 1.370 1_545 S
C1059 C1060 1.403 . S
C1060 C1059 1.403 . S
C1060 C1061 1.404 . S
C1060 C1063 1.539 . S
C1061 C1057 1.408 . S
C1061 C1060 1.404 . S
C1061 H1073 0.930 . S
C1062 C1058 1.524 . S
C1062 H1074 0.956 . S
C1062 H1075 0.961 . S
C1062 H1076 0.961 . S
C1063 C1060 1.539 . S
C1063 H1077 0.958 . S
C1063 H1078 0.961 . S
C1063 H1079 0.960 . S
H1064 C1048 0.931 . S
H1065 C1053 0.929 . S
H1066 C1054 0.960 1_545 S
H1067 C1054 0.962 . S
H1068 C1054 0.960 . S
H1069 C1055 0.961 . S
H1070 C1055 0.961 . S
H1071 C1055 0.961 . S
H1072 C1056 0.931 1_565 S
H1073 C1061 0.930 . S
H1074 C1062 0.956 . S
H1075 C1062 0.961 . S
H1076 C1062 0.961 . S
H1077 C1063 0.958 . S
H1078 C1063 0.961 . S
H1079 C1063 0.960 . S
C1080 C1081 1.391 . S
C1080 C1082 1.394 . S
C1080 H1096 0.931 . S
C1081 C1080 1.391 . S
C1081 C1085 1.376 . S
C1082 C1080 1.394 . S
C1082 C1083 1.369 . S
C1082 C1086 1.531 . S
C1083 C1082 1.369 . S
C1083 C1084 1.410 . S
C1083 C1091 1.503 . S
C1084 C1083 1.410 . S
C1084 C1085 1.392 . S
C1084 C1087 1.511 . S
C1085 C1081 1.376 . S
C1085 C1084 1.392 . S
C1085 H1097 0.929 . S
C1086 C1082 1.531 . S
C1086 H1098 0.960 . S
C1086 H1099 0.962 . S
C1086 H1100 0.960 . S
C1087 C1084 1.511 . S
C1087 H1101 0.961 . S
C1087 H1102 0.961 . S
C1087 H1103 0.961 . S
C1088 C1089 1.370 . S
C1088 C1090 1.363 . S
C1088 H1104 0.931 . S
C1089 C1088 1.370 . S
C1089 C1093 1.408 . S
C1090 C1088 1.363 . S
C1090 C1091 1.370 . S
C1090 C1094 1.524 . S
C1091 C1083 1.503 . S
C1091 C1090 1.370 . S
C1091 C1092 1.403 . S
C1092 C1091 1.403 . S
C1092 C1093 1.404 . S
C1092 C1095 1.539 . S
C1093 C1089 1.408 . S
C1093 C1092 1.404 . S
C1093 H1105 0.930 . S
C1094 C1090 1.524 . S
C1094 H1106 0.956 . S
C1094 H1107 0.961 . S
C1094 H1108 0.961 . S
C1095 C1092 1.539 . S
C1095 H1109 0.958 . S
C1095 H1110 0.961 . S
C1095 H1111 0.960 . S
H1096 C1080 0.931 . S
H1097 C1085 0.929 . S
H1098 C1086 0.960 . S
H1099 C1086 0.962 . S
H1100 C1086 0.960 . S
H1101 C1087 0.961 . S
H1102 C1087 0.961 . S
H1103 C1087 0.961 . S
H1104 C1088 0.931 . S
H1105 C1093 0.930 . S
H1106 C1094 0.956 . S
H1107 C1094 0.961 . S
H1108 C1094 0.961 . S
H1109 C1095 0.958 . S
H1110 C1095 0.961 . S
H1111 C1095 0.960 . S
C1112 C1113 1.391 . S
C1112 C1114 1.396 . S
C1112 H1128 0.931 . S
C1113 C1112 1.391 . S
C1113 C1117 1.376 . S
C1114 C1112 1.396 . S
C1114 C1115 1.370 . S
C1114 C1118 1.527 1_455 S
C1115 C1114 1.370 . S
C1115 C1116 1.410 . S
C1115 C1123 1.503 1_455 S
C1116 C1115 1.410 . S
C1116 C1117 1.392 . S
C1116 C1119 1.511 . S
C1117 C1113 1.376 . S
C1117 C1116 1.392 . S
C1117 H1129 0.929 . S
C1118 C1114 1.527 1_655 S
C1118 H1130 0.960 . S
C1118 H1131 0.962 . S
C1118 H1132 0.960 . S
C1119 C1116 1.511 . S
C1119 H1133 0.961 . S
C1119 H1134 0.961 . S
C1119 H1135 0.961 . S
C1120 C1121 1.370 . S
C1120 C1122 1.363 . S
C1120 H1136 0.931 . S
C1121 C1120 1.370 . S
C1121 C1125 1.408 . S
C1122 C1120 1.363 . S
C1122 C1123 1.370 . S
C1122 C1126 1.524 . S
C1123 C1115 1.503 1_655 S
C1123 C1122 1.370 . S
C1123 C1124 1.403 . S
C1124 C1123 1.403 . S
C1124 C1125 1.404 . S
C1124 C1127 1.539 1_655 S
C1125 C1121 1.408 . S
C1125 C1124 1.404 . S
C1125 H1137 0.930 . S
C1126 C1122 1.524 . S
C1126 H1138 0.956 . S
C1126 H1139 0.968 . S
C1126 H1140 0.961 . S
C1127 C1124 1.539 1_455 S
C1127 H1141 0.958 . S
C1127 H1142 0.961 . S
C1127 H1143 0.960 . S
H1128 C1112 0.931 . S
H1129 C1117 0.929 . S
H1130 C1118 0.960 . S
H1131 C1118 0.962 . S
H1132 C1118 0.960 . S
H1133 C1119 0.961 . S
H1134 C1119 0.961 . S
H1135 C1119 0.961 . S
H1136 C1120 0.931 . S
H1137 C1125 0.930 . S
H1138 C1126 0.956 . S
H1139 C1126 0.968 . S
H1140 C1126 0.961 . S
H1141 C1127 0.958 . S
H1142 C1127 0.961 . S
H1143 C1127 0.960 . S
C1144 C1145 1.391 . S
C1144 C1146 1.394 . S
C1144 H1160 0.931 . S
C1145 C1144 1.391 . S
C1145 C1149 1.376 . S
C1146 C1144 1.394 . S
C1146 C1147 1.369 . S
C1146 C1150 1.545 . S
C1147 C1146 1.369 . S
C1147 C1148 1.410 . S
C1147 C1155 1.503 1_564 S
C1148 C1147 1.410 . S
C1148 C1149 1.392 . S
C1148 C1151 1.511 1_565 S
C1149 C1145 1.376 . S
C1149 C1148 1.392 . S
C1149 H1161 0.929 . S
C1150 C1146 1.545 . S
C1150 H1162 0.937 1_554 S
C1150 H1163 0.967 . S
C1150 H1164 0.965 . S
C1151 C1148 1.511 1_545 S
C1151 H1165 0.961 . S
C1151 H1166 0.961 . S
C1151 H1167 0.961 1_545 S
C1152 C1153 1.370 . S
C1152 C1154 1.363 . S
C1152 H1168 0.931 . S
C1153 C1152 1.370 . S
C1153 C1157 1.408 . S
C1154 C1152 1.363 . S
C1154 C1155 1.370 . S
C1154 C1158 1.524 1_556 S
C1155 C1147 1.503 1_546 S
C1155 C1154 1.370 . S
C1155 C1156 1.403 1_545 S
C1156 C1155 1.403 1_565 S
C1156 C1157 1.404 1_565 S
C1156 C1159 1.539 . S
C1157 C1153 1.408 . S
C1157 C1156 1.404 1_545 S
C1157 H1169 0.928 1_545 S
C1158 C1154 1.524 1_554 S
C1158 H1170 0.956 . S
C1158 H1171 0.961 . S
C1158 H1172 0.961 . S
C1159 C1156 1.539 . S
C1159 H1173 0.958 . S
C1159 H1174 0.961 . S
C1159 H1175 0.960 . S
H1160 C1144 0.931 . S
H1161 C1149 0.929 . S
H1162 C1150 0.937 1_556 S
H1163 C1150 0.967 . S
H1164 C1150 0.965 . S
H1165 C1151 0.961 . S
H1166 C1151 0.961 . S
H1167 C1151 0.961 1_565 S
H1168 C1152 0.931 . S
H1169 C1157 0.928 1_565 S
H1170 C1158 0.956 . S
H1171 C1158 0.961 . S
H1172 C1158 0.961 . S
H1173 C1159 0.958 . S
H1174 C1159 0.961 . S
H1175 C1159 0.960 . S
C1176 C1177 1.391 . S
C1176 C1178 1.394 . S
C1176 H1192 0.931 . S
C1177 C1176 1.391 . S
C1177 C1181 1.376 . S
C1178 C1176 1.394 . S
C1178 C1179 1.369 . S
C1178 C1182 1.531 . S
C1179 C1178 1.369 . S
C1179 C1180 1.410 . S
C1179 C1187 1.503 . S
C1180 C1179 1.410 . S
C1180 C1181 1.392 . S
C1180 C1183 1.511 . S
C1181 C1177 1.376 . S
C1181 C1180 1.392 . S
C1181 H1193 0.929 . S
C1182 C1178 1.531 . S
C1182 H1194 0.960 . S
C1182 H1195 0.962 . S
C1182 H1196 0.960 . S
C1183 C1180 1.511 . S
C1183 H1197 0.961 . S
C1183 H1198 0.961 . S
C1183 H1199 0.961 . S
C1184 C1185 1.370 . S
C1184 C1186 1.363 . S
C1184 H1200 0.931 . S
C1185 C1184 1.370 . S
C1185 C1189 1.408 . S
C1186 C1184 1.363 . S
C1186 C1187 1.370 . S
C1186 C1190 1.524 . S
C1187 C1179 1.503 . S
C1187 C1186 1.370 . S
C1187 C1188 1.403 . S
C1188 C1187 1.403 . S
C1188 C1189 1.404 . S
C1188 C1191 1.539 1_556 S
C1189 C1185 1.408 . S
C1189 C1188 1.404 . S
C1189 H1201 0.930 1_556 S
C1190 C1186 1.524 . S
C1190 H1202 0.956 . S
C1190 H1203 0.961 . S
C1190 H1204 0.961 . S
C1191 C1188 1.539 1_554 S
C1191 H1205 0.958 . S
C1191 H1206 0.961 . S
C1191 H1207 0.960 . S
H1192 C1176 0.931 . S
H1193 C1181 0.929 . S
H1194 C1182 0.960 . S
H1195 C1182 0.962 . S
H1196 C1182 0.960 . S
H1197 C1183 0.961 . S
H1198 C1183 0.961 . S
H1199 C1183 0.961 . S
H1200 C1184 0.931 . S
H1201 C1189 0.930 1_554 S
H1202 C1190 0.956 . S
H1203 C1190 0.961 . S
H1204 C1190 0.961 . S
H1205 C1191 0.958 . S
H1206 C1191 0.961 . S
H1207 C1191 0.960 . S
C1208 C1209 1.391 . S
C1208 C1210 1.394 . S
C1208 H1224 0.931 . S
C1209 C1208 1.391 . S
C1209 C1213 1.376 . S
C1210 C1208 1.394 . S
C1210 C1211 1.369 . S
C1210 C1214 1.531 1_554 S
C1211 C1210 1.369 . S
C1211 C1212 1.410 . S
C1211 C1219 1.503 . S
C1212 C1211 1.410 . S
C1212 C1213 1.392 . S
C1212 C1215 1.511 . S
C1213 C1209 1.376 . S
C1213 C1212 1.392 . S
C1213 H1225 0.929 . S
C1214 C1210 1.531 1_556 S
C1214 H1226 0.960 . S
C1214 H1227 0.962 1_556 S
C1214 H1228 0.960 . S
C1215 C1212 1.511 . S
C1215 H1229 0.961 . S
C1215 H1230 0.961 . S
C1215 H1231 0.961 . S
C1216 C1217 1.370 . S
C1216 C1218 1.363 . S
C1216 H1232 0.931 . S
C1217 C1216 1.370 . S
C1217 C1221 1.408 . S
C1218 C1216 1.363 . S
C1218 C1219 1.370 . S
C1218 C1222 1.524 . S
C1219 C1211 1.503 . S
C1219 C1218 1.370 . S
C1219 C1220 1.403 . S
C1220 C1219 1.403 . S
C1220 C1221 1.404 . S
C1220 C1223 1.539 1_554 S
C1221 C1217 1.408 . S
C1221 C1220 1.404 . S
C1221 H1233 0.930 . S
C1222 C1218 1.524 . S
C1222 H1234 0.956 . S
C1222 H1235 0.961 . S
C1222 H1236 0.961 . S
C1223 C1220 1.539 1_556 S
C1223 H1237 0.958 . S
C1223 H1238 0.961 . S
C1223 H1239 0.960 1_556 S
H1224 C1208 0.931 . S
H1225 C1213 0.929 . S
H1226 C1214 0.960 . S
H1227 C1214 0.962 1_554 S
H1228 C1214 0.960 . S
H1229 C1215 0.961 . S
H1230 C1215 0.961 . S
H1231 C1215 0.961 . S
H1232 C1216 0.931 . S
H1233 C1221 0.930 . S
H1234 C1222 0.956 . S
H1235 C1222 0.961 . S
H1236 C1222 0.961 . S
H1237 C1223 0.958 . S
H1238 C1223 0.961 . S
H1239 C1223 0.960 1_554 S
C1240 C1241 1.391 . S
C1240 C1242 1.394 . S
C1240 H1256 0.931 . S
C1241 C1240 1.391 . S
C1241 C1245 1.376 . S
C1242 C1240 1.394 . S
C1242 C1243 1.369 . S
C1242 C1246 1.531 . S
C1243 C1242 1.369 . S
C1243 C1244 1.410 . S
C1243 C1251 1.503 . S
C1244 C1243 1.410 . S
C1244 C1245 1.392 . S
C1244 C1247 1.511 . S
C1245 C1241 1.376 . S
C1245 C1244 1.392 . S
C1245 H1257 0.929 . S
C1246 C1242 1.531 . S
C1246 H1258 0.960 . S
C1246 H1259 0.962 . S
C1246 H1260 0.960 . S
C1247 C1244 1.511 . S
C1247 H1261 0.961 . S
C1247 H1262 0.961 . S
C1247 H1263 0.961 . S
C1248 C1249 1.370 . S
C1248 C1250 1.363 . S
C1248 H1264 0.931 . S
C1249 C1248 1.370 . S
C1249 C1253 1.408 . S
C1250 C1248 1.363 . S
C1250 C1251 1.370 . S
C1250 C1254 1.524 . S
C1251 C1243 1.503 . S
C1251 C1250 1.370 . S
C1251 C1252 1.403 . S
C1252 C1251 1.403 . S
C1252 C1253 1.404 . S
C1252 C1255 1.539 . S
C1253 C1249 1.408 . S
C1253 C1252 1.404 . S
C1253 H1265 0.930 . S
C1254 C1250 1.524 . S
C1254 H1266 0.956 . S
C1254 H1267 0.961 . S
C1254 H1268 0.961 . S
C1255 C1252 1.539 . S
C1255 H1269 0.958 . S
C1255 H1270 0.961 . S
C1255 H1271 0.960 . S
H1256 C1240 0.931 . S
H1257 C1245 0.929 . S
H1258 C1246 0.960 . S
H1259 C1246 0.962 . S
H1260 C1246 0.960 . S
H1261 C1247 0.961 . S
H1262 C1247 0.961 . S
H1263 C1247 0.961 . S
H1264 C1248 0.931 . S
H1265 C1253 0.930 . S
H1266 C1254 0.956 . S
H1267 C1254 0.961 . S
H1268 C1254 0.961 . S
H1269 C1255 0.958 . S
H1270 C1255 0.961 . S
H1271 C1255 0.960 . S
C1272 C1273 1.391 . S
C1272 C1274 1.394 . S
C1272 H1288 0.931 . S
C1273 C1272 1.391 . S
C1273 C1277 1.376 . S
C1274 C1272 1.394 . S
C1274 C1275 1.369 . S
C1274 C1278 1.531 . S
C1275 C1274 1.369 . S
C1275 C1276 1.410 . S
C1275 C1283 1.503 . S
C1276 C1275 1.410 . S
C1276 C1277 1.392 . S
C1276 C1279 1.511 . S
C1277 C1273 1.376 . S
C1277 C1276 1.392 . S
C1277 H1289 0.929 . S
C1278 C1274 1.531 . S
C1278 H1290 0.960 . S
C1278 H1291 0.962 . S
C1278 H1292 0.960 . S
C1279 C1276 1.511 . S
C1279 H1293 0.961 . S
C1279 H1294 0.961 . S
C1279 H1295 0.961 . S
C1280 C1281 1.370 . S
C1280 C1282 1.363 . S
C1280 H1296 0.931 . S
C1281 C1280 1.370 . S
C1281 C1285 1.408 . S
C1282 C1280 1.363 . S
C1282 C1283 1.370 . S
C1282 C1286 1.524 . S
C1283 C1275 1.503 . S
C1283 C1282 1.370 . S
C1283 C1284 1.403 . S
C1284 C1283 1.403 . S
C1284 C1285 1.404 . S
C1284 C1287 1.539 . S
C1285 C1281 1.408 . S
C1285 C1284 1.404 . S
C1285 H1297 0.930 . S
C1286 C1282 1.524 . S
C1286 H1298 0.956 . S
C1286 H1299 0.961 . S
C1286 H1300 0.961 . S
C1287 C1284 1.539 . S
C1287 H1301 0.958 . S
C1287 H1302 0.961 . S
C1287 H1303 0.960 . S
H1288 C1272 0.931 . S
H1289 C1277 0.929 . S
H1290 C1278 0.960 . S
H1291 C1278 0.962 . S
H1292 C1278 0.960 . S
H1293 C1279 0.961 . S
H1294 C1279 0.961 . S
H1295 C1279 0.961 . S
H1296 C1280 0.931 . S
H1297 C1285 0.930 . S
H1298 C1286 0.956 . S
H1299 C1286 0.961 . S
H1300 C1286 0.961 . S
H1301 C1287 0.958 . S
H1302 C1287 0.961 . S
H1303 C1287 0.960 . S
C1304 C1305 1.391 . S
C1304 C1306 1.394 . S
C1304 H1320 0.931 . S
C1305 C1304 1.391 . S
C1305 C1309 1.376 . S
C1306 C1304 1.394 . S
C1306 C1307 1.369 . S
C1306 C1310 1.531 . S
C1307 C1306 1.369 . S
C1307 C1308 1.410 . S
C1307 C1315 1.503 . S
C1308 C1307 1.410 . S
C1308 C1309 1.392 . S
C1308 C1311 1.511 . S
C1309 C1305 1.376 . S
C1309 C1308 1.392 . S
C1309 H1321 0.929 . S
C1310 C1306 1.531 . S
C1310 H1322 0.960 . S
C1310 H1323 0.962 . S
C1310 H1324 0.960 . S
C1311 C1308 1.511 . S
C1311 H1325 0.961 . S
C1311 H1326 0.961 . S
C1311 H1327 0.961 . S
C1312 C1313 1.370 . S
C1312 C1314 1.363 . S
C1312 H1328 0.931 . S
C1313 C1312 1.370 . S
C1313 C1317 1.408 . S
C1314 C1312 1.363 . S
C1314 C1315 1.370 . S
C1314 C1318 1.524 . S
C1315 C1307 1.503 . S
C1315 C1314 1.370 . S
C1315 C1316 1.403 . S
C1316 C1315 1.403 . S
C1316 C1317 1.404 . S
C1316 C1319 1.539 . S
C1317 C1313 1.408 . S
C1317 C1316 1.404 . S
C1317 H1329 0.930 . S
C1318 C1314 1.524 . S
C1318 H1330 0.956 . S
C1318 H1331 0.961 . S
C1318 H1332 0.961 . S
C1319 C1316 1.539 . S
C1319 H1333 0.958 . S
C1319 H1334 0.961 . S
C1319 H1335 0.960 . S
H1320 C1304 0.931 . S
H1321 C1309 0.929 . S
H1322 C1310 0.960 . S
H1323 C1310 0.962 . S
H1324 C1310 0.960 . S
H1325 C1311 0.961 . S
H1326 C1311 0.961 . S
H1327 C1311 0.961 . S
H1328 C1312 0.931 . S
H1329 C1317 0.930 . S
H1330 C1318 0.956 . S
H1331 C1318 0.961 . S
H1332 C1318 0.961 . S
H1333 C1319 0.958 . S
H1334 C1319 0.961 . S
H1335 C1319 0.960 . S
C1336 C1337 1.391 . S
C1336 C1338 1.394 . S
C1336 H1352 0.931 . S
C1337 C1336 1.391 . S
C1337 C1341 1.376 . S
C1338 C1336 1.394 . S
C1338 C1339 1.369 . S
C1338 C1342 1.531 . S
C1339 C1338 1.369 . S
C1339 C1340 1.410 . S
C1339 C1347 1.503 . S
C1340 C1339 1.410 . S
C1340 C1341 1.392 . S
C1340 C1343 1.511 . S
C1341 C1337 1.376 . S
C1341 C1340 1.392 . S
C1341 H1353 0.929 . S
C1342 C1338 1.531 . S
C1342 H1354 0.960 . S
C1342 H1355 0.962 . S
C1342 H1356 0.960 . S
C1343 C1340 1.511 . S
C1343 H1357 0.961 . S
C1343 H1358 0.961 . S
C1343 H1359 0.961 . S
C1344 C1345 1.370 . S
C1344 C1346 1.363 . S
C1344 H1360 0.931 . S
C1345 C1344 1.370 . S
C1345 C1349 1.408 . S
C1346 C1344 1.363 . S
C1346 C1347 1.370 . S
C1346 C1350 1.524 . S
C1347 C1339 1.503 . S
C1347 C1346 1.370 . S
C1347 C1348 1.403 . S
C1348 C1347 1.403 . S
C1348 C1349 1.404 . S
C1348 C1351 1.539 . S
C1349 C1345 1.408 . S
C1349 C1348 1.404 . S
C1349 H1361 0.930 . S
C1350 C1346 1.524 . S
C1350 H1362 0.956 . S
C1350 H1363 0.961 . S
C1350 H1364 0.961 . S
C1351 C1348 1.539 . S
C1351 H1365 0.958 . S
C1351 H1366 0.961 . S
C1351 H1367 0.960 . S
H1352 C1336 0.931 . S
H1353 C1341 0.929 . S
H1354 C1342 0.960 . S
H1355 C1342 0.962 . S
H1356 C1342 0.960 . S
H1357 C1343 0.961 . S
H1358 C1343 0.961 . S
H1359 C1343 0.961 . S
H1360 C1344 0.931 . S
H1361 C1349 0.930 . S
H1362 C1350 0.956 . S
H1363 C1350 0.961 . S
H1364 C1350 0.961 . S
H1365 C1351 0.958 . S
H1366 C1351 0.961 . S
H1367 C1351 0.960 . S
C409 C349 0.303 . S
C417 C9 0.270 . S
C441 C43 0.543 . S
C449 C383 0.518 . S
C473 C77 0.512 . S
C481 C213 0.524 . S
C505 C111 0.285 . S
C513 C247 0.243 . S
C537 C145 0.511 . S
C545 C281 0.481 . S
C569 C179 0.471 . S
C577 C315 0.491 . S
C601 C5 1.782 . S
C609 C190 1.775 . S
C633 C20 1.838 . S
C641 C39 1.768 1_456 S
C665 C54 1.839 . S
C673 C73 1.831 . S
C697 C107 1.765 . S
C705 C88 1.835 . S
C729 C141 1.994 . S
C737 C122 2.015 . S
C761 C175 1.843 . S
C769 C156 1.870 . S
C793 C258 1.838 . S
C801 C209 1.768 1_554 S
C825 C243 1.766 1_455 S
C833 C292 1.767 . S
C857 C277 1.899 . S
C865 C326 1.892 . S
C889 C311 1.973 . S
C897 C360 2.010 . S
C921 C345 1.817 1_655 S
C929 C394 1.856 . S
C953 C379 1.862 . S
C961 C224 1.881 . S
C985 C2 1.333 . S
C993 C308 1.326 . S
C1017 C36 1.670 . S
C1025 C342 1.662 . S
C1049 C70 1.577 . S
C1057 C376 1.559 . S
C1081 C104 1.663 . S
C1089 C206 1.648 . S
C1113 C138 1.335 . S
C1121 C240 1.343 . S
C1145 C274 1.448 . S
C1153 C172 1.481 . S
C1177 C237 1.138 . S
C1185 C33 1.103 . S
C1209 C67 1.131 . S
C1217 C271 1.109 . S
C1241 C101 1.170 . S
C1249 C305 1.178 . S
C1273 C339 1.232 . S
C1281 C135 1.282 . S
C1305 C169 1.224 . S
C1313 C373 1.288 . S
C1337 C407 1.170 . S
C1345 C203 1.162 . S
