# Generated by pormake.
# Topology ung, (4)-cn, num edge types: 1
# Building blocks:
#     Node 0, Type 0, BuildingBlock: MUDLON_clean_sbu_0, # of connection points: 4
#     Node 1, Type 0, BuildingBlock: MUDLON_clean_sbu_0, # of connection points: 4
#     Node 2, Type 0, BuildingBlock: MUDLON_clean_sbu_0, # of connection points: 4
#     Node 3, Type 0, BuildingBlock: MUDLON_clean_sbu_0, # of connection points: 4
#     Node 4, Type 0, BuildingBlock: MUDLON_clean_sbu_0, # of connection points: 4
#     Node 5, Type 0, BuildingBlock: MUDLON_clean_sbu_0, # of connection points: 4
#     Node 6, Type 0, BuildingBlock: MUDLON_clean_sbu_0, # of connection points: 4
#     Node 7, Type 0, BuildingBlock: MUDLON_clean_sbu_0, # of connection points: 4
#     Node 8, Type 0, BuildingBlock: MUDLON_clean_sbu_0, # of connection points: 4
#     Node 9, Type 0, BuildingBlock: MUDLON_clean_sbu_0, # of connection points: 4
#     Node 10, Type 0, BuildingBlock: MUDLON_clean_sbu_0, # of connection points: 4
#     Node 11, Type 0, BuildingBlock: MUDLON_clean_sbu_0, # of connection points: 4
#     Node 12, Type 0, BuildingBlock: MUDLON_clean_sbu_0, # of connection points: 4
#     Node 13, Type 0, BuildingBlock: MUDLON_clean_sbu_0, # of connection points: 4
#     Node 14, Type 0, BuildingBlock: MUDLON_clean_sbu_0, # of connection points: 4
#     Node 15, Type 0, BuildingBlock: MUDLON_clean_sbu_0, # of connection points: 4
#     Node 16, Type 0, BuildingBlock: MUDLON_clean_sbu_0, # of connection points: 4
#     Node 17, Type 0, BuildingBlock: MUDLON_clean_sbu_0, # of connection points: 4
#     Edge 18, Type (0, 0), BuildingBlock: CIFDUS_clean_linker_0, # of connection points: 2
#     Edge 19, Type (0, 0), BuildingBlock: CIFDUS_clean_linker_0, # of connection points: 2
#     Edge 20, Type (0, 0), BuildingBlock: CIFDUS_clean_linker_0, # of connection points: 2
#     Edge 21, Type (0, 0), BuildingBlock: CIFDUS_clean_linker_0, # of connection points: 2
#     Edge 22, Type (0, 0), BuildingBlock: CIFDUS_clean_linker_0, # of connection points: 2
#     Edge 23, Type (0, 0), BuildingBlock: CIFDUS_clean_linker_0, # of connection points: 2
#     Edge 24, Type (0, 0), BuildingBlock: CIFDUS_clean_linker_0, # of connection points: 2
#     Edge 25, Type (0, 0), BuildingBlock: CIFDUS_clean_linker_0, # of connection points: 2
#     Edge 26, Type (0, 0), BuildingBlock: CIFDUS_clean_linker_0, # of connection points: 2
#     Edge 27, Type (0, 0), BuildingBlock: CIFDUS_clean_linker_0, # of connection points: 2
#     Edge 28, Type (0, 0), BuildingBlock: CIFDUS_clean_linker_0, # of connection points: 2
#     Edge 29, Type (0, 0), BuildingBlock: CIFDUS_clean_linker_0, # of connection points: 2
#     Edge 30, Type (0, 0), BuildingBlock: CIFDUS_clean_linker_0, # of connection points: 2
#     Edge 31, Type (0, 0), BuildingBlock: CIFDUS_clean_linker_0, # of connection points: 2
#     Edge 32, Type (0, 0), BuildingBlock: CIFDUS_clean_linker_0, # of connection points: 2
#     Edge 33, Type (0, 0), BuildingBlock: CIFDUS_clean_linker_0, # of connection points: 2
#     Edge 34, Type (0, 0), BuildingBlock: CIFDUS_clean_linker_0, # of connection points: 2
#     Edge 35, Type (0, 0), BuildingBlock: CIFDUS_clean_linker_0, # of connection points: 2
#     Edge 36, Type (0, 0), BuildingBlock: CIFDUS_clean_linker_0, # of connection points: 2
#     Edge 37, Type (0, 0), BuildingBlock: CIFDUS_clean_linker_0, # of connection points: 2
#     Edge 38, Type (0, 0), BuildingBlock: CIFDUS_clean_linker_0, # of connection points: 2
#     Edge 39, Type (0, 0), BuildingBlock: CIFDUS_clean_linker_0, # of connection points: 2
#     Edge 40, Type (0, 0), BuildingBlock: CIFDUS_clean_linker_0, # of connection points: 2
#     Edge 41, Type (0, 0), BuildingBlock: CIFDUS_clean_linker_0, # of connection points: 2
#     Edge 42, Type (0, 0), BuildingBlock: CIFDUS_clean_linker_0, # of connection points: 2
#     Edge 43, Type (0, 0), BuildingBlock: CIFDUS_clean_linker_0, # of connection points: 2
#     Edge 44, Type (0, 0), BuildingBlock: CIFDUS_clean_linker_0, # of connection points: 2
#     Edge 45, Type (0, 0), BuildingBlock: CIFDUS_clean_linker_0, # of connection points: 2
#     Edge 46, Type (0, 0), BuildingBlock: CIFDUS_clean_linker_0, # of connection points: 2
#     Edge 47, Type (0, 0), BuildingBlock: CIFDUS_clean_linker_0, # of connection points: 2
#     Edge 48, Type (0, 0), BuildingBlock: CIFDUS_clean_linker_0, # of connection points: 2
#     Edge 49, Type (0, 0), BuildingBlock: CIFDUS_clean_linker_0, # of connection points: 2
#     Edge 50, Type (0, 0), BuildingBlock: CIFDUS_clean_linker_0, # of connection points: 2
#     Edge 51, Type (0, 0), BuildingBlock: CIFDUS_clean_linker_0, # of connection points: 2
#     Edge 52, Type (0, 0), BuildingBlock: CIFDUS_clean_linker_0, # of connection points: 2
#     Edge 53, Type (0, 0), BuildingBlock: CIFDUS_clean_linker_0, # of connection points: 2
# Relax obj value: 0.034
# Max RMSD: 0.246
# Mean RMSD: 0.245
data_MOF--net-ung--node1-MUDLON_clean_sbu_0--edge1-CIFDUS_clean_linker_0
_symmetry_space_group_name_H-M    P1
_symmetry_Int_Tables_number       1
_symmetry_cell_setting            triclinic
loop_
_symmetry_equiv_pos_as_xyz
'x, y, z'
_cell_length_a     68.060758
_cell_length_b     68.934213
_cell_length_c     20.843576
_cell_angle_alpha  89.851494
_cell_angle_beta   90.688745
_cell_angle_gamma 121.23079
loop_
_atom_site_label
_atom_site_type_symbol
_atom_site_fract_x
_atom_site_fract_y
_atom_site_fract_z
_atom_type_partial_charge
Mg0 Mg 0.04689 0.64588 0.24869 0.0
C1 C 0.05426 0.62042 0.35432 0.0
O2 O 0.07516 0.6322 0.33146 0.0
C3 C 0.01474 0.6533 0.16479 0.0
O4 O 0.02707 0.65143 0.11996 0.0
C5 C 0.04119 0.61283 0.14544 0.0
O6 O 0.0213 0.60114 0.17421 0.0
O7 O 0.05577 0.63258 0.16645 0.0
O8 O 0.03845 0.62257 0.32851 0.0
O9 O 0.07453 0.67947 0.27883 0.0
C10 C 0.07594 0.68504 0.33765 0.0
O11 O 0.06169 0.66985 0.37855 0.0
O12 O 0.01852 0.65063 0.22314 0.0
Mg13 Mg 0.47495 0.50707 0.28097 0.0
C14 C 0.43578 0.49762 0.36863 0.0
O15 O 0.45167 0.50184 0.41205 0.0
C16 C 0.50768 0.53573 0.17862 0.0
O17 O 0.51861 0.52648 0.20432 0.0
C18 C 0.46654 0.46943 0.19006 0.0
O19 O 0.4669 0.48413 0.14914 0.0
O20 O 0.47031 0.47477 0.24929 0.0
O21 O 0.44093 0.4994 0.30953 0.0
O22 O 0.49863 0.52195 0.36231 0.0
C23 C 0.50348 0.54139 0.38245 0.0
O24 O 0.4943 0.55172 0.35288 0.0
O25 O 0.4884 0.53083 0.20155 0.0
Mg26 Mg 0.60442 0.0723 0.23296 0.0
C27 C 0.58112 0.08326 0.13234 0.0
O28 O 0.59643 0.10311 0.15665 0.0
C29 C 0.61154 0.04185 0.32091 0.0
O30 O 0.61174 0.05632 0.36217 0.0
C31 C 0.57335 0.07013 0.33479 0.0
O32 O 0.56071 0.05077 0.30427 0.0
O33 O 0.59363 0.08375 0.31524 0.0
O34 O 0.57977 0.06555 0.15584 0.0
O35 O 0.63795 0.09725 0.19524 0.0
C36 C 0.64129 0.09377 0.13753 0.0
O37 O 0.62457 0.07638 0.10634 0.0
O38 O 0.60757 0.04356 0.26192 0.0
Mg39 Mg 0.0484 0.51322 0.74785 0.0
C40 C 0.04703 0.54342 0.65159 0.0
O41 O 0.02575 0.53114 0.67147 0.0
C42 C 0.07552 0.5022 0.84254 0.0
O43 O 0.06392 0.50681 0.88337 0.0
C44 C 0.05048 0.54429 0.84934 0.0
O45 O 0.07067 0.55608 0.82218 0.0
O46 O 0.03629 0.52451 0.82772 0.0
O47 O 0.06221 0.54027 0.67728 0.0
O48 O 0.02208 0.48437 0.69291 0.0
C49 C 0.01393 0.46369 0.70772 0.0
O50 O 0.01963 0.45878 0.76321 0.0
O51 O 0.07306 0.50425 0.7827 0.0
Mg52 Mg 0.60973 0.64657 0.78584 0.0
C53 C 0.58071 0.61346 0.68412 0.0
O54 O 0.58976 0.60295 0.7134 0.0
C55 C 0.61782 0.68124 0.88626 0.0
O56 O 0.61679 0.66498 0.92179 0.0
C57 C 0.57641 0.61548 0.88267 0.0
O58 O 0.56548 0.62481 0.85747 0.0
O59 O 0.59608 0.62114 0.86114 0.0
O60 O 0.58581 0.63294 0.70458 0.0
O61 O 0.6436 0.65465 0.75426 0.0
C62 C 0.64824 0.65658 0.69474 0.0
O63 O 0.63195 0.65234 0.65268 0.0
O64 O 0.61459 0.6781 0.8259 0.0
Mg65 Mg 0.47429 0.07513 0.73833 0.0
C66 C 0.5134 0.09834 0.8386 0.0
O67 O 0.51692 0.11707 0.8113 0.0
C68 C 0.46914 0.10864 0.65838 0.0
O69 O 0.46872 0.09508 0.61351 0.0
C70 C 0.50622 0.07956 0.63432 0.0
O71 O 0.51879 0.09879 0.66552 0.0
O72 O 0.48605 0.06562 0.65405 0.0
O73 O 0.49723 0.07934 0.81778 0.0
O74 O 0.4395 0.04962 0.76642 0.0
C75 C 0.43497 0.04657 0.82599 0.0
O76 O 0.45175 0.05768 0.86788 0.0
O77 O 0.47254 0.10517 0.7164 0.0
Mg78 Mg 0.70183 0.97283 0.57486 0.0
C79 C 0.70764 0.94599 0.67732 0.0
O80 O 0.72732 0.95492 0.64732 0.0
C81 C 0.67025 0.98006 0.48744 0.0
O82 O 0.68093 0.97525 0.44402 0.0
C83 C 0.69289 0.93595 0.48393 0.0
O84 O 0.67478 0.92624 0.52092 0.0
O85 O 0.70834 0.95655 0.49505 0.0
O86 O 0.69258 0.95024 0.65682 0.0
O87 O 0.73087 1.00593 0.60436 0.0
C88 C 0.73332 0.01096 0.66388 0.0
O89 O 0.71933 0.99563 0.70484 0.0
O90 O 0.67478 0.97931 0.54653 0.0
Mg91 Mg 0.14245 0.84464 0.59296 0.0
C92 C 0.10349 0.83528 0.68099 0.0
O93 O 0.11919 0.83863 0.7241 0.0
C94 C 0.17591 0.87452 0.49307 0.0
O95 O 0.18782 0.86695 0.52231 0.0
C96 C 0.13552 0.80668 0.50439 0.0
O97 O 0.13884 0.82196 0.46117 0.0
O98 O 0.13708 0.81187 0.56358 0.0
O99 O 0.1087 0.83759 0.62188 0.0
O100 O 0.16631 0.85951 0.67375 0.0
C101 C 0.17069 0.87865 0.69514 0.0
O102 O 0.1609 0.88866 0.66712 0.0
O103 O 0.15582 0.86808 0.51276 0.0
Mg104 Mg 0.27389 0.40703 0.6224 0.0
C105 C 0.24113 0.40278 0.72445 0.0
O106 O 0.22896 0.38299 0.69571 0.0
C107 C 0.31299 0.43569 0.53336 0.0
O108 O 0.29742 0.42167 0.49186 0.0
C109 C 0.24696 0.41364 0.51882 0.0
O110 O 0.25856 0.43412 0.54381 0.0
O111 O 0.24976 0.39818 0.54253 0.0
O112 O 0.26113 0.41682 0.70382 0.0
O113 O 0.2788 0.37926 0.6498 0.0
C114 C 0.28173 0.37607 0.70845 0.0
O115 O 0.28003 0.38868 0.75258 0.0
O116 O 0.30768 0.43418 0.59228 0.0
Mg117 Mg 0.71102 0.84753 0.08471 0.0
C118 C 0.71933 0.88335 0.17771 0.0
O119 O 0.73765 0.89308 0.1415 0.0
C120 C 0.68107 0.81113 0.9901 0.0
O121 O 0.6954 0.82756 0.95227 0.0
C122 C 0.70625 0.87606 0.98588 0.0
O123 O 0.68652 0.86703 0.01562 0.0
O124 O 0.72105 0.87129 1.00536 0.0
O125 O 0.70375 0.8629 0.16543 0.0
O126 O 0.73793 0.84095 0.11355 0.0
C127 C 0.74135 0.839 0.17278 0.0
O128 O 0.72962 0.84264 0.21567 0.0
O129 O 0.68262 0.81475 0.05041 0.0
Mg130 Mg 0.27752 0.98429 0.09687 0.0
C131 C 0.24441 0.95443 0.19702 0.0
O132 O 0.23253 0.9621 0.16813 0.0
C133 C 0.31496 0.99321 1.00403 0.0
O134 O 0.29919 0.99162 0.96376 0.0
C135 C 0.24837 0.95048 0.99625 0.0
O136 O 0.25843 0.94059 0.02338 0.0
O137 O 0.25283 0.96962 0.01783 0.0
O138 O 0.26445 0.96079 0.17698 0.0
O139 O 0.2838 0.01727 0.12806 0.0
C140 C 0.28584 0.02232 0.18749 0.0
O141 O 0.28266 1.00686 0.22993 0.0
O142 O 0.31045 0.99023 0.06361 0.0
Mg143 Mg 0.14113 0.41251 0.1176 0.0
C144 C 0.16868 0.4078 0.22097 0.0
O145 O 0.15668 0.3871 0.19753 0.0
C146 C 0.13256 0.44092 0.02351 0.0
O147 O 0.13469 0.42752 0.98323 0.0
C148 C 0.17341 0.41481 0.0182 0.0
O149 O 0.18552 0.43482 0.04581 0.0
O150 O 0.15335 0.401 0.0388 0.0
O151 O 0.16603 0.42318 0.19604 0.0
O152 O 0.10841 0.38612 0.15574 0.0
C153 C 0.08996 0.37969 0.12402 0.0
O154 O 0.0913 0.38784 0.06611 0.0
O155 O 0.1354 0.43917 0.08329 0.0
Mg156 Mg 0.37709 0.30857 0.93787 0.0
C157 C 0.35512 0.27857 0.05664 0.0
O158 O 0.3388 0.28304 0.04607 0.0
C159 C 0.34408 0.31535 0.85825 0.0
O160 O 0.35654 0.31373 0.81333 0.0
C161 C 0.36689 0.27336 0.83978 0.0
O162 O 0.34823 0.26382 0.87462 0.0
O163 O 0.38311 0.29327 0.85477 0.0
O164 O 0.37216 0.2867 0.0192 0.0
O165 O 0.40502 0.34281 0.96207 0.0
C166 C 0.40948 0.34827 0.0211 0.0
O167 O 0.39858 0.33257 0.06468 0.0
O168 O 0.34795 0.31263 0.91652 0.0
Mg169 Mg 0.80819 0.16775 0.93864 0.0
C170 C 0.77242 0.16377 0.03238 0.0
O171 O 0.79005 0.17121 0.07195 0.0
C172 C 0.8408 0.19542 0.83574 0.0
O173 O 0.85091 0.18528 0.861 0.0
C174 C 0.79773 0.13011 0.845 0.0
O175 O 0.79958 0.14576 0.80519 0.0
O176 O 0.80138 0.1348 0.90466 0.0
O177 O 0.77521 0.1616 0.97307 0.0
O178 O 0.83314 0.18225 0.01733 0.0
C179 C 0.83959 0.20245 0.03445 0.0
O180 O 0.83156 0.21342 1.00271 0.0
O181 O 0.82189 0.19147 0.85918 0.0
Mg182 Mg 0.94186 0.74348 0.93382 0.0
C183 C 0.91397 0.74922 0.83139 0.0
O184 O 0.92461 0.76952 0.85768 0.0
C185 C 0.9506 0.71282 0.01829 0.0
O186 O 0.94848 0.72497 0.06306 0.0
C187 C 0.90881 0.73883 0.03579 0.0
O188 O 0.89655 0.71921 1.00623 0.0
O189 O 0.9289 0.75283 0.01573 0.0
O190 O 0.91768 0.73422 0.85398 0.0
O191 O 0.97542 0.77109 0.90409 0.0
C192 C 0.9807 0.77315 0.84506 0.0
O193 O 0.96514 0.75944 0.80304 0.0
O194 O 0.94755 0.71614 0.95988 0.0
Mg195 Mg 0.37937 0.1833 0.43828 0.0
C196 C 0.3687 0.20878 0.3435 0.0
O197 O 0.35038 0.19931 0.37973 0.0
C198 C 0.41221 0.17555 0.51627 0.0
O199 O 0.40124 0.17884 0.56237 0.0
C200 C 0.35611 0.19103 0.55329 0.0
O201 O 0.33841 0.17128 0.53596 0.0
O202 O 0.37458 0.19935 0.52166 0.0
O203 O 0.38495 0.20533 0.35676 0.0
O204 O 0.3504 0.14961 0.41404 0.0
C205 C 0.34748 0.1439 0.35503 0.0
O206 O 0.36076 0.15899 0.31246 0.0
O207 O 0.40757 0.1777 0.45826 0.0
Mg208 Mg 0.94277 0.30463 0.44362 0.0
C209 C 0.91381 0.2729 0.34168 0.0
O210 O 0.92439 0.26331 0.36749 0.0
C211 C 0.95801 0.35399 0.48272 0.0
O212 O 0.96736 0.35952 0.42571 0.0
C213 C 0.91132 0.27374 0.53958 0.0
O214 O 0.90176 0.2849 0.51811 0.0
O215 O 0.93017 0.27793 0.51503 0.0
O216 O 0.91761 0.29158 0.36529 0.0
O217 O 0.97603 0.31435 0.40264 0.0
C218 C 0.97878 0.32027 0.34394 0.0
O219 O 0.96168 0.31978 0.31254 0.0
O220 O 0.94634 0.33319 0.49834 0.0
Mg221 Mg 0.80771 0.74697 0.42905 0.0
C222 C 0.83602 0.74201 0.53107 0.0
O223 O 0.82543 0.72169 0.50489 0.0
C224 C 0.79993 0.77694 0.33899 0.0
O225 O 0.80189 0.76395 0.29673 0.0
C226 C 0.84066 0.75027 0.32945 0.0
O227 O 0.8529 0.76999 0.3585 0.0
O228 O 0.82044 0.73648 0.34909 0.0
O229 O 0.83214 0.7569 0.50851 0.0
O230 O 0.77414 0.72002 0.46138 0.0
C231 C 0.7694 0.71854 0.52075 0.0
O232 O 0.78539 0.7325 0.56142 0.0
O233 O 0.8026 0.77432 0.39829 0.0
H234 H 0.07774 0.58544 0.90578 0.0
H235 H 1.01067 0.52473 0.9184 0.0
H236 H 1.00192 0.5406 1.01091 0.0
H237 H 0.01342 0.57165 0.08851 0.0
H238 H 0.08059 0.63225 0.07538 0.0
H239 H 0.08915 0.61641 0.98274 0.0
C240 C 0.06117 0.57564 0.92861 0.0
C241 C 0.04489 0.55389 0.90502 0.0
C242 C 0.05628 0.58484 0.98179 0.0
C243 C 0.02353 0.54149 0.93542 0.0
C244 C 0.01852 0.55056 0.98839 0.0
C245 C 0.02995 0.58142 0.06545 0.0
C246 C 0.04634 0.60314 0.08908 0.0
C247 C 0.03478 0.57221 1.01206 0.0
C248 C 0.06764 0.61552 0.05839 0.0
C249 C 0.07257 0.60647 1.00533 0.0
H250 H 0.5362 0.6024 0.94279 0.0
H251 H 0.59411 0.5929 0.94566 0.0
H252 H 0.57795 0.56746 0.03734 0.0
H253 H 0.54757 0.54818 0.1172 0.0
H254 H 0.48975 0.55784 0.11442 0.0
H255 H 0.50576 0.583 0.02221 0.0
C256 C 0.54529 0.59473 0.96328 0.0
C257 C 0.56636 0.59958 0.93725 0.0
C258 C 0.53595 0.5802 0.01616 0.0
C259 C 0.57788 0.58949 0.96463 0.0
C260 C 0.56865 0.57495 0.01714 0.0
C261 C 0.53845 0.55579 0.09652 0.0
C262 C 0.51748 0.55112 0.12288 0.0
C263 C 0.54774 0.57024 0.04341 0.0
C264 C 0.50592 0.56113 0.09525 0.0
C265 C 0.51506 0.57552 0.04244 0.0
H266 H 0.58328 0.1184 0.06704 0.0
H267 H 0.54565 0.04523 0.07472 0.0
H268 H 0.52138 0.04347 0.98463 0.0
H269 H 0.51088 0.06277 0.90384 0.0
H270 H 0.54896 0.13598 0.89624 0.0
H271 H 0.57303 0.1376 0.98625 0.0
C272 C 0.56975 0.10203 0.04919 0.0
C273 C 0.56628 0.08197 0.0778 0.0
C274 C 0.55595 0.10115 0.99734 0.0
C275 C 0.54872 0.06094 0.05368 0.0
C276 C 0.53483 0.05992 1.00215 0.0
C277 C 0.52444 0.0791 0.92182 0.0
C278 C 0.52805 0.09924 0.89321 0.0
C279 C 0.53829 0.07993 0.97362 0.0
C280 C 0.54574 0.12021 0.91722 0.0
C281 C 0.55954 0.12117 0.96876 0.0
H282 H 0.53137 0.04389 0.38827 0.0
H283 H 0.59458 0.10851 0.4094 0.0
H284 H 0.57934 0.11707 0.50368 0.0
H285 H 0.54815 0.10614 0.58031 0.0
H286 H 0.485 0.04145 0.55899 0.0
H287 H 0.50021 0.03302 0.46452 0.0
C288 C 0.54185 0.05988 0.41337 0.0
C289 C 0.56412 0.07554 0.39165 0.0
C290 C 0.533 0.06467 0.46758 0.0
C291 C 0.5774 0.09615 0.42495 0.0
C292 C 0.5687 0.10106 0.47893 0.0
C293 C 0.53768 0.09018 0.55507 0.0
C294 C 0.51544 0.07445 0.57688 0.0
C295 C 0.54653 0.08543 0.50071 0.0
C296 C 0.50216 0.05387 0.5434 0.0
C297 C 0.51084 0.04903 0.48931 0.0
H298 H 0.08447 0.61338 0.42235 0.0
H299 H 1.01295 0.59331 0.41197 0.0
H300 H 1.00471 0.56826 0.50364 0.0
H301 H 0.01758 0.55176 0.5858 0.0
H302 H 0.08895 0.57142 0.59668 0.0
H303 H 0.09748 0.59704 0.50583 0.0
C304 C 0.06707 0.60353 0.44008 0.0
C305 C 0.04935 0.60522 0.41008 0.0
C306 C 0.06242 0.58913 0.49297 0.0
C307 C 0.02692 0.59235 0.43394 0.0
C308 C 0.02218 0.57802 0.48645 0.0
C309 C 0.03504 0.56168 0.56856 0.0
C310 C 0.0526 0.55963 0.59809 0.0
C311 C 0.03978 0.57625 0.51622 0.0
C312 C 0.07511 0.57265 0.57491 0.0
C313 C 0.07998 0.58728 0.52289 0.0
H314 H 0.56846 0.57314 0.62766 0.0
H315 H 0.55891 0.6302 0.61192 0.0
H316 H 0.53436 0.613 0.51716 0.0
H317 H 0.51566 0.5818 0.43874 0.0
H318 H 0.52533 0.52481 0.45475 0.0
H319 H 0.54983 0.54203 0.54941 0.0
C320 C 0.561 0.58185 0.60366 0.0
C321 C 0.56554 0.60296 0.62707 0.0
C322 C 0.54695 0.57189 0.54912 0.0
C323 C 0.55572 0.61395 0.59509 0.0
C324 C 0.54168 0.60412 0.54083 0.0
C325 C 0.52314 0.57313 0.46282 0.0
C326 C 0.51863 0.55201 0.43948 0.0
C327 C 0.5372 0.58311 0.51738 0.0
C328 C 0.52848 0.54106 0.4715 0.0
C329 C 0.5425 0.55089 0.52573 0.0
H330 H 0.68518 0.8683 0.26646 0.0
H331 H 0.74943 0.92734 0.21157 0.0
H332 H 0.74713 0.94872 0.301 0.0
H333 H 0.72696 0.95088 0.39523 0.0
H334 H 0.66274 0.89188 0.4504 0.0
H335 H 0.66502 0.87045 0.36095 0.0
C336 C 0.69866 0.88585 0.274 0.0
C337 C 0.71742 0.89613 0.23214 0.0
C338 C 0.69729 0.89814 0.32584 0.0
C339 C 0.73476 0.91891 0.24287 0.0
C340 C 0.73348 0.93121 0.29413 0.0
C341 C 0.71348 0.93333 0.38777 0.0
C342 C 0.69473 0.92307 0.42966 0.0
C343 C 0.71485 0.92102 0.33601 0.0
C344 C 0.6774 0.90028 0.41905 0.0
C345 C 0.67866 0.88796 0.36778 0.0
H346 H 0.2174 0.88985 0.43755 0.0
H347 H 0.15609 0.89352 0.42234 0.0
H348 H 0.17183 0.91839 0.32945 0.0
H349 H 0.20293 0.93906 0.25252 0.0
H350 H 0.26425 0.93539 0.26763 0.0
H351 H 0.24851 0.91051 0.36053 0.0
C352 C 0.20746 0.89609 0.41403 0.0
C353 C 0.18558 0.88981 0.43705 0.0
C354 C 0.2166 0.91037 0.36051 0.0
C355 C 0.17297 0.89807 0.40577 0.0
C356 C 0.18196 0.91229 0.35257 0.0
C357 C 0.21288 0.93281 0.27601 0.0
C358 C 0.23476 0.93911 0.25299 0.0
C359 C 0.20374 0.91854 0.3295 0.0
C360 C 0.24737 0.93084 0.28422 0.0
C361 C 0.23838 0.91661 0.33742 0.0
H362 H 0.23888 0.4434 0.45504 0.0
H363 H 0.21984 0.37312 0.45702 0.0
H364 H 0.1942 0.36528 0.36504 0.0
H365 H 0.1771 0.37828 0.28432 0.0
H366 H 0.19607 0.44853 0.28196 0.0
H367 H 0.22186 0.45645 0.37381 0.0
C368 C 0.22912 0.42635 0.43546 0.0
C369 C 0.2313 0.40887 0.46311 0.0
C370 C 0.2144 0.42195 0.38243 0.0
C371 C 0.21852 0.3869 0.43685 0.0
C372 C 0.20384 0.3824 0.38418 0.0
C373 C 0.18688 0.39535 0.30376 0.0
C374 C 0.1846 0.41278 0.27617 0.0
C375 C 0.20164 0.39978 0.35661 0.0
C376 C 0.19745 0.43479 0.30215 0.0
C377 C 0.2122 0.43933 0.35474 0.0
H378 H 0.21505 0.44111 0.9627 0.0
H379 H 0.15304 0.37516 0.94923 0.0
H380 H 0.16854 0.36569 0.85739 0.0
H381 H 0.19959 0.37618 0.78061 0.0
H382 H 0.26154 0.44219 0.79425 0.0
H383 H 0.2461 0.45154 0.88632 0.0
C384 C 0.20489 0.42463 0.93982 0.0
C385 C 0.18289 0.40888 0.96297 0.0
C386 C 0.21389 0.41931 0.88695 0.0
C387 C 0.17002 0.38762 0.93253 0.0
C388 C 0.17887 0.38219 0.87994 0.0
C389 C 0.20974 0.39263 0.80365 0.0
C390 C 0.23172 0.40845 0.78037 0.0
C391 C 0.20076 0.39791 0.85668 0.0
C392 C 0.24459 0.42967 0.81101 0.0
C393 C 0.23577 0.43504 0.86374 0.0
H394 H 0.67666 0.88624 0.92826 0.0
H395 H 0.74512 0.8977 0.91348 0.0
H396 H 0.75143 0.92015 0.81663 0.0
H397 H 0.73744 0.93626 0.7358 0.0
H398 H 0.66895 0.9247 0.75047 0.0
H399 H 0.66273 0.90245 0.84768 0.0
C400 C 0.69301 0.89369 0.90405 0.0
C401 C 0.7104 0.89028 0.92825 0.0
C402 C 0.69649 0.90648 0.84821 0.0
C403 C 0.73144 0.90004 0.89602 0.0
C404 C 0.73505 0.91287 0.84054 0.0
C405 C 0.72112 0.92885 0.76012 0.0
C406 C 0.70367 0.93214 0.73569 0.0
C407 C 0.71768 0.91613 0.8161 0.0
C408 C 0.68267 0.92244 0.76807 0.0
C409 C 0.6791 0.90973 0.82375 0.0
H410 H 0.23715 0.91083 0.93721 0.0
H411 H 0.22477 0.9662 0.92836 0.0
H412 H 0.19981 0.94891 0.83445 0.0
H413 H 0.18164 0.91819 0.75461 0.0
H414 H 0.19408 0.86286 0.76358 0.0
H415 H 0.21892 0.8801 0.85764 0.0
C416 C 0.22897 0.91913 0.9149 0.0
C417 C 0.23285 0.93981 0.93996 0.0
C418 C 0.21469 0.90913 0.8608 0.0
C419 C 0.22211 0.95029 0.91021 0.0
C420 C 0.20783 0.94042 0.85642 0.0
C421 C 0.18979 0.90989 0.77702 0.0
C422 C 0.18598 0.88924 0.75188 0.0
C423 C 0.20404 0.91987 0.83123 0.0
C424 C 0.19669 0.87874 0.78177 0.0
C425 C 0.2109 0.88859 0.83564 0.0
H426 H 0.33446 0.23172 0.79486 0.0
H427 H 0.40333 0.28722 0.75916 0.0
H428 H 0.40607 0.26662 0.66772 0.0
H429 H 0.38891 0.23284 0.59799 0.0
H430 H 0.3199 0.17756 0.63379 0.0
H431 H 0.31728 0.19815 0.72514 0.0
C432 C 0.3501 0.23936 0.76718 0.0
C433 C 0.36867 0.26101 0.78405 0.0
C434 C 0.35155 0.22745 0.71464 0.0
C435 C 0.38877 0.2706 0.74738 0.0
C436 C 0.39035 0.25882 0.69505 0.0
C437 C 0.37328 0.22525 0.62575 0.0
C438 C 0.35463 0.20362 0.60891 0.0
C439 C 0.37185 0.23723 0.67826 0.0
C440 C 0.33453 0.19414 0.6455 0.0
C441 C 0.333 0.20592 0.69783 0.0
H442 H 0.8794 0.20502 0.77142 0.0
H443 H 0.8252 0.22004 0.77429 0.0
H444 H 0.84205 0.24511 0.68228 0.0
H445 H 0.87223 0.26301 0.60193 0.0
H446 H 0.92658 0.24824 0.59857 0.0
H447 H 0.90948 0.22269 0.68985 0.0
C448 C 0.87125 0.21378 0.752 0.0
C449 C 0.85106 0.21067 0.77993 0.0
C450 C 0.88102 0.22816 0.69895 0.0
C451 C 0.84074 0.22212 0.75389 0.0
C452 C 0.85036 0.23646 0.70121 0.0
C453 C 0.88035 0.25417 0.62092 0.0
C454 C 0.9007 0.25758 0.59338 0.0
C455 C 0.8705 0.23962 0.67347 0.0
C456 C 0.91093 0.24595 0.61877 0.0
C457 C 0.90117 0.23136 0.67104 0.0
H458 H 0.90396 0.77803 0.77004 0.0
H459 H 0.88911 0.70907 0.76606 0.0
H460 H 0.86391 0.7009 0.67278 0.0
H461 H 0.84611 0.71329 0.59234 0.0
H462 H 0.86092 0.78222 0.59624 0.0
H463 H 0.88616 0.79042 0.6895 0.0
C464 C 0.8952 0.76119 0.74889 0.0
C465 C 0.89845 0.74419 0.77519 0.0
C466 C 0.88075 0.7566 0.69513 0.0
C467 C 0.88695 0.72248 0.74695 0.0
C468 C 0.87253 0.71779 0.69352 0.0
C469 C 0.85487 0.73013 0.61345 0.0
C470 C 0.8516 0.74711 0.58717 0.0
C471 C 0.86933 0.73472 0.66718 0.0
C472 C 0.8631 0.76882 0.61537 0.0
C473 C 0.87754 0.77353 0.66877 0.0
H474 H 0.88263 0.77649 0.27551 0.0
H475 H 0.82007 0.71111 0.25831 0.0
H476 H 0.83565 0.70187 0.16624 0.0
H477 H 0.86694 0.71238 0.09034 0.0
H478 H 0.92945 0.7778 0.10758 0.0
H479 H 0.91393 0.78695 0.19989 0.0
C480 C 0.87238 0.76019 0.25174 0.0
C481 C 0.85019 0.74453 0.27394 0.0
C482 C 0.88142 0.75499 0.19873 0.0
C483 C 0.83719 0.72351 0.24237 0.0
C484 C 0.84609 0.7182 0.18964 0.0
C485 C 0.8772 0.72865 0.11422 0.0
C486 C 0.89935 0.74437 0.09188 0.0
C487 C 0.86817 0.73382 0.16735 0.0
C488 C 0.91236 0.76536 0.1236 0.0
C489 C 0.9035 0.77062 0.17646 0.0
H490 H 0.33671 0.21874 0.30431 0.0
H491 H 0.40332 0.22989 0.25624 0.0
H492 H 0.40486 0.25225 0.16312 0.0
H493 H 0.38728 0.2686 0.09539 0.0
H494 H 0.32072 0.25748 0.14404 0.0
H495 H 0.3192 0.23509 0.23687 0.0
C496 C 0.3516 0.22606 0.27358 0.0
C497 C 0.36988 0.22262 0.28739 0.0
C498 C 0.35237 0.23888 0.22012 0.0
C499 C 0.38902 0.23226 0.24688 0.0
C500 C 0.3899 0.24504 0.19355 0.0
C501 C 0.3724 0.26126 0.12618 0.0
C502 C 0.35412 0.26473 0.11257 0.0
C503 C 0.37166 0.24844 0.17968 0.0
C504 C 0.33503 0.25511 0.15322 0.0
C505 C 0.33415 0.2423 0.2064 0.0
H506 H 0.90228 0.23303 0.28402 0.0
H507 H 0.89193 0.28961 0.26953 0.0
H508 H 0.86847 0.27297 0.17259 0.0
H509 H 0.85107 0.24247 0.09182 0.0
H510 H 0.86119 0.18575 0.10736 0.0
H511 H 0.8847 0.20247 0.20399 0.0
C512 C 0.89487 0.24175 0.25983 0.0
C513 C 0.89889 0.26257 0.28415 0.0
C514 C 0.88144 0.23211 0.20415 0.0
C515 C 0.8891 0.27356 0.25205 0.0
C516 C 0.87572 0.26408 0.1965 0.0
C517 C 0.85848 0.23377 0.11614 0.0
C518 C 0.8544 0.21288 0.09212 0.0
C519 C 0.87184 0.24339 0.17202 0.0
C520 C 0.86405 0.20183 0.12462 0.0
C521 C 0.87748 0.21137 0.17997 0.0
H522 H 0.08602 0.70107 0.46003 0.0
H523 H 0.1002 0.7227 0.26277 0.0
H524 H 0.12143 0.76234 0.29747 0.0
H525 H 0.13313 0.79084 0.38322 0.0
H526 H 0.11889 0.76911 0.58044 0.0
H527 H 0.10072 0.72957 0.54628 0.0
C528 C 0.09394 0.71444 0.42459 0.0
C529 C 0.09128 0.70889 0.35883 0.0
C530 C 0.10602 0.73721 0.44485 0.0
C531 C 0.1019 0.72645 0.31367 0.0
C532 C 0.11398 0.74915 0.33347 0.0
C533 C 0.12627 0.77749 0.41884 0.0
C534 C 0.12717 0.78298 0.48428 0.0
C535 C 0.11571 0.75473 0.39884 0.0
C536 C 0.11838 0.76542 0.52975 0.0
C537 C 0.1079 0.74277 0.51024 0.0
H538 H 0.4199 0.4947 0.48963 0.0
H539 H 0.39732 0.47953 0.29193 0.0
H540 H 0.3573 0.46038 0.32543 0.0
H541 H 0.32874 0.44541 0.41119 0.0
H542 H 0.35128 0.46056 0.6089 0.0
H543 H 0.39126 0.48241 0.57491 0.0
C544 C 0.40624 0.48739 0.45376 0.0
C545 C 0.41165 0.48837 0.38837 0.0
C546 C 0.38324 0.4763 0.47337 0.0
C547 C 0.3937 0.47899 0.34258 0.0
C548 C 0.37078 0.46796 0.36172 0.0
C549 C 0.34237 0.45365 0.44689 0.0
C550 C 0.33699 0.45112 0.51256 0.0
C551 C 0.36535 0.46611 0.42704 0.0
C552 C 0.35489 0.46214 0.55806 0.0
C553 C 0.37779 0.47459 0.53867 0.0
H554 H 0.65585 0.98208 0.36639 0.0
H555 H 0.65153 0.99847 0.5635 0.0
H556 H 0.63128 0.01745 0.5294 0.0
H557 H 0.61775 0.03216 0.44324 0.0
H558 H 0.62221 0.01605 0.246 0.0
H559 H 0.63922 0.99399 0.2807 0.0
C560 C 0.65028 0.98959 0.40201 0.0
C561 C 0.65546 0.98903 0.46741 0.0
C562 C 0.63875 1.00063 0.38204 0.0
C563 C 0.64788 0.99869 0.51286 0.0
C564 C 0.63635 0.00963 0.49338 0.0
C565 C 0.6222 0.02363 0.40778 0.0
C566 C 0.61891 0.02598 0.34202 0.0
C567 C 0.63214 0.01113 0.42803 0.0
C568 C 0.62459 0.0146 0.29688 0.0
C569 C 0.63442 1.00205 0.31669 0.0
H570 H 0.68179 0.12631 0.1927 0.0
H571 H 0.65169 0.09252 1.01253 0.0
H572 H 0.68928 0.11271 0.9625 0.0
H573 H 0.73111 0.13778 0.97154 0.0
H574 H 0.76156 0.17065 0.15238 0.0
H575 H 0.72353 0.15326 0.19996 0.0
C576 C 0.68342 0.12355 0.14234 0.0
C577 C 0.66394 0.10778 0.10668 0.0
C578 C 0.70522 0.13502 0.11385 0.0
C579 C 0.66639 0.10443 0.04139 0.0
C580 C 0.68791 0.11598 1.01259 0.0
C581 C 0.72942 0.1414 0.0211 0.0
C582 C 0.74919 0.15539 0.05836 0.0
C583 C 0.70751 0.131 0.04861 0.0
C584 C 0.74665 0.15982 0.12263 0.0
C585 C 0.72489 0.14985 0.14999 0.0
H586 H 0.95668 0.70044 0.13761 0.0
H587 H 0.96469 0.69152 0.93664 0.0
H588 H 0.98373 0.67078 0.96443 0.0
H589 H 1.00097 0.65799 0.04561 0.0
H590 H 0.99304 0.66696 0.24658 0.0
H591 H 0.97094 0.68465 0.21885 0.0
C592 C 0.96236 0.69376 0.09982 0.0
C593 C 0.95945 0.69777 0.03512 0.0
C594 C 0.97344 0.68194 0.11612 0.0
C595 C 0.96675 0.68878 0.98685 0.0
C596 C 0.97773 0.67697 1.00269 0.0
C597 C 0.99422 0.66359 0.08342 0.0
C598 C 0.9989 0.66135 0.14809 0.0
C599 C 0.98162 0.67389 0.06715 0.0
C600 C 0.98979 0.66852 0.1964 0.0
C601 C 0.9772 0.67873 0.18058 0.0
H602 H 0.42374 0.36471 0.14202 0.0
H603 H 0.42789 0.38611 0.94529 0.0
H604 H 0.44747 0.42571 0.98015 0.0
H605 H 0.46042 0.45393 0.06709 0.0
H606 H 0.45601 0.43243 0.26382 0.0
H607 H 0.43968 0.39323 0.2282 0.0
C608 C 0.42914 0.37803 0.10661 0.0
C609 C 0.42412 0.37237 0.04113 0.0
C610 C 0.44022 0.40076 0.12703 0.0
C611 C 0.43146 0.38992 0.99597 0.0
C612 C 0.44258 0.41259 0.01592 0.0
C613 C 0.4561 0.44072 0.10222 0.0
C614 C 0.45923 0.44613 0.16814 0.0
C615 C 0.44658 0.41817 0.08142 0.0
C616 C 0.45373 0.42879 0.21284 0.0
C617 C 0.44432 0.40633 0.19251 0.0
H618 H 0.97669 0.39947 0.46481 0.0
H619 H 0.9527 0.34834 0.61225 0.0
H620 H 0.96662 0.37761 0.69499 0.0
H621 H 0.98839 0.41794 0.72589 0.0
H622 H 1.01119 0.46907 0.57872 0.0
H623 H 0.9948 0.43968 0.49602 0.0
C624 C 0.97428 0.39473 0.51503 0.0
C625 C 0.96388 0.37173 0.5321 0.0
C626 C 0.98223 0.41168 0.56267 0.0
C627 C 0.96068 0.36588 0.59751 0.0
C628 C 0.96873 0.38264 0.64504 0.0
C629 C 0.98954 0.42264 0.67577 0.0
C630 C 1.00123 0.4457 0.65868 0.0
C631 C 0.97995 0.40562 0.62823 0.0
C632 C 1.00233 0.45147 0.59344 0.0
C633 C 0.99304 0.43466 0.54594 0.0
H634 H 0.66297 0.65954 0.57232 0.0
H635 H 0.68743 0.67486 0.76848 0.0
H636 H 0.7271 0.69406 0.73191 0.0
H637 H 0.75482 0.70897 0.64402 0.0
H638 H 0.7304 0.69367 0.44785 0.0
H639 H 0.69077 0.67184 0.48478 0.0
C640 C 0.67696 0.6669 0.60718 0.0
C641 C 0.67218 0.66594 0.67306 0.0
C642 C 0.69977 0.67802 0.58581 0.0
C643 C 0.69056 0.67538 0.7175 0.0
C644 C 0.71328 0.68645 0.69661 0.0
C645 C 0.74086 0.7007 0.60929 0.0
C646 C 0.74561 0.70317 0.5432 0.0
C647 C 0.71809 0.68825 0.63084 0.0
C648 C 0.72728 0.69212 0.49897 0.0
C649 C 0.70458 0.67969 0.52005 0.0
H650 H 0.42681 0.17085 0.63428 0.0
H651 H 0.43085 0.15901 0.43289 0.0
H652 H 0.45068 0.13891 0.45922 0.0
H653 H 0.4636 0.12166 0.5396 0.0
H654 H 0.4593 0.1332 0.74103 0.0
H655 H 0.44309 0.15664 0.71436 0.0
C656 C 0.43226 0.16412 0.59603 0.0
C657 C 0.42709 0.16625 0.53169 0.0
C658 C 0.4435 0.15239 0.61153 0.0
C659 C 0.4345 0.15758 0.48282 0.0
C660 C 0.44578 0.14599 0.49785 0.0
C661 C 0.45937 0.12951 0.57773 0.0
C662 C 0.46243 0.12543 0.64228 0.0
C663 C 0.44987 0.14282 0.56208 0.0
C664 C 0.45707 0.13596 0.69096 0.0
C665 C 0.4477 0.1493 0.67575 0.0
H666 H 0.32879 0.99763 0.88016 0.0
H667 H 0.3537 1.00543 0.07549 0.0
H668 H 0.39285 0.02115 0.03715 0.0
H669 H 0.42031 0.0352 0.9487 0.0
H670 H 0.39546 0.02755 0.75335 0.0
H671 H 0.35596 0.00904 0.79127 0.0
C672 C 0.34274 1.00259 0.91441 0.0
C673 C 0.3383 1.00055 0.98068 0.0
C674 C 0.36525 0.01172 0.89204 0.0
C675 C 0.35659 1.00687 0.02426 0.0
C676 C 0.37902 0.01593 1.00236 0.0
C677 C 0.40626 0.0293 0.91429 0.0
C678 C 0.41091 0.03297 0.84826 0.0
C679 C 0.38359 0.01881 0.93644 0.0
C680 C 0.39243 0.02502 0.80442 0.0
C681 C 0.36982 0.0145 0.82609 0.0
H682 H 0.08658 0.49866 0.96626 0.0
H683 H 0.09562 0.484 0.7713 0.0
H684 H 0.11531 0.46498 0.81016 0.0
H685 H 0.12772 0.45035 0.89951 0.0
H686 H 0.11871 0.46498 0.0945 0.0
H687 H 0.10144 0.48631 0.05549 0.0
C688 C 0.09301 0.49146 0.93217 0.0
C689 C 0.08943 0.49262 0.86591 0.0
C690 C 0.10427 0.48046 0.95486 0.0
C691 C 0.09806 0.48335 0.82252 0.0
C692 C 0.10929 0.47239 0.84473 0.0
C693 C 0.12217 0.45836 0.93355 0.0
C694 C 0.12437 0.45588 0.9999 0.0
C695 C 0.11214 0.47052 0.9108 0.0
C696 C 0.11722 0.46655 0.04321 0.0
C697 C 0.10726 0.47871 0.02092 0.0
H698 H 0.63072 0.72123 0.82579 0.0
H699 H 0.62192 0.6916 0.01374 0.0
H700 H 0.63854 0.72897 0.0633 0.0
H701 H 0.65892 0.77053 0.05298 0.0
H702 H 0.669 0.80017 0.86466 0.0
H703 H 0.64839 0.7625 0.81599 0.0
C704 C 0.63213 0.7229 0.87762 0.0
C705 C 0.62525 0.70362 0.91582 0.0
C706 C 0.6421 0.74455 0.90593 0.0
C707 C 0.62724 0.70615 0.983 0.0
C708 C 0.63678 0.72755 1.0115 0.0
C709 C 0.65626 0.76874 1.00141 0.0
C710 C 0.66566 0.78818 0.96259 0.0
C711 C 0.64477 0.74695 0.97342 0.0
C712 C 0.66212 0.78551 0.89574 0.0
C713 C 0.65035 0.76395 0.86774 0.0
H714 H 0.74624 0.02518 0.78692 0.0
H715 H 0.75668 0.04962 0.59209 0.0
H716 H 0.77911 0.08874 0.63114 0.0
H717 H 0.79278 0.11599 0.72087 0.0
H718 H 0.78229 0.09143 0.91563 0.0
H719 H 0.76303 0.05238 0.87623 0.0
C720 C 0.75362 0.03904 0.75288 0.0
C721 C 0.74954 0.03445 0.68665 0.0
C722 C 0.76637 0.06149 0.77569 0.0
C723 C 0.75948 0.05263 0.64328 0.0
C724 C 0.77223 0.07503 0.66562 0.0
C725 C 0.78649 0.10212 0.75476 0.0
C726 C 0.78876 0.10667 0.82119 0.0
C727 C 0.77533 0.07967 0.73176 0.0
C728 C 0.78074 0.08847 0.86431 0.0
C729 C 0.76963 0.0661 0.8418 0.0
H730 H 0.08763 0.83175 0.80224 0.0
H731 H 0.06515 0.81834 0.60418 0.0
H732 H 0.02513 0.79937 0.63756 0.0
H733 H 0.9965 0.78389 0.72313 0.0
H734 H 0.01896 0.79727 0.92119 0.0
H735 H 0.05897 0.81912 0.88753 0.0
C736 C 0.074 0.82488 0.76629 0.0
C737 C 0.07942 0.82627 0.70081 0.0
C738 C 0.05099 0.81387 0.78581 0.0
C739 C 0.06151 0.81747 0.65491 0.0
C740 C 0.03859 0.80653 0.67396 0.0
C741 C 1.01012 0.79177 0.75898 0.0
C742 C 1.00471 0.78872 0.82463 0.0
C743 C 0.03312 0.80421 0.73931 0.0
C744 C 0.0226 0.79926 0.87036 0.0
C745 C 0.04551 0.8117 0.85115 0.0
H746 H 0.28763 0.36407 0.82861 0.0
H747 H 0.29462 0.3534 0.62821 0.0
H748 H 0.3128 0.33196 0.65731 0.0
H749 H 0.32977 0.31919 0.73921 0.0
H750 H 0.32303 0.32995 0.93965 0.0
H751 H 0.30147 0.34815 0.91089 0.0
C752 C 0.29289 0.35685 0.79124 0.0
C753 C 0.28997 0.36059 0.72627 0.0
C754 C 0.30349 0.34464 0.80831 0.0
C755 C 0.29671 0.3509 0.67858 0.0
C756 C 0.30719 0.33868 0.69518 0.0
C757 C 0.32337 0.32528 0.77671 0.0
C758 C 0.32826 0.32342 0.8415 0.0
C759 C 0.31115 0.3359 0.75983 0.0
C760 C 0.3196 0.3312 0.88941 0.0
C761 C 0.30734 0.34171 0.87298 0.0
H762 H 0.98748 0.32891 0.21735 0.0
H763 H 0.02029 0.33107 0.39788 0.0
H764 H 0.05752 0.34822 0.3448 0.0
H765 H 0.08103 0.36488 0.24816 0.0
H766 H 0.0477 0.36287 0.06854 0.0
H767 H 1.0104 0.34322 0.12029 0.0
C768 C 1.00273 0.333 0.2452 0.0
C769 C 1.0011 0.32889 0.31166 0.0
C770 C 0.02403 0.34295 0.2145 0.0
C771 C 0.02104 0.3341 0.3467 0.0
C772 C 0.04235 0.34396 0.31638 0.0
C773 C 0.06559 0.35992 0.22015 0.0
C774 C 0.06725 0.36553 0.15454 0.0
C775 C 0.0441 0.34879 0.25044 0.0
C776 C 0.04702 0.35892 0.11909 0.0
C777 C 0.02564 0.3477 0.14869 0.0
H778 H 0.79493 0.78789 0.21679 0.0
H779 H 0.78681 0.80057 0.41457 0.0
H780 H 0.76947 0.82233 0.3803 0.0
H781 H 0.75386 0.83517 0.29448 0.0
H782 H 0.76183 0.82237 0.09669 0.0
H783 H 0.78216 0.80344 0.13078 0.0
C784 C 0.78958 0.79559 0.25247 0.0
C785 C 0.79197 0.79237 0.3182 0.0
C786 C 0.77948 0.80798 0.23244 0.0
C787 C 0.78512 0.80267 0.36368 0.0
C788 C 0.77512 0.81508 0.34411 0.0
C789 C 0.76023 0.82844 0.25873 0.0
C790 C 0.75609 0.83001 0.1931 0.0
C791 C 0.77179 0.81744 0.27866 0.0
C792 C 0.76468 0.82137 0.14751 0.0
C793 C 0.77625 0.81046 0.16698 0.0
H794 H 0.29023 0.03806 0.30985 0.0
H795 H 0.3009 0.05991 0.11236 0.0
H796 H 0.3192 0.09938 0.14715 0.0
H797 H 0.33505 0.12781 0.23336 0.0
H798 H 0.32473 0.10621 0.43097 0.0
H799 H 0.30317 0.06653 0.39631 0.0
C800 C 0.29634 0.05142 0.27434 0.0
C801 C 0.29439 0.04598 0.20853 0.0
C802 C 0.307 0.07416 0.29469 0.0
C803 C 0.30223 0.06355 0.16328 0.0
C804 C 0.31277 0.08617 0.18315 0.0
C805 C 0.32789 0.11445 0.26896 0.0
C806 C 0.33174 0.12002 0.33471 0.0
C807 C 0.3157 0.09169 0.2487 0.0
C808 C 0.3221 0.10245 0.38008 0.0
C809 C 0.30985 0.07973 0.36027 0.0
loop_
_geom_bond_atom_site_label_1
_geom_bond_atom_site_label_2
_geom_bond_distance
_geom_bond_site_symmetry_2
_ccdc_geom_bond_type
Mg0 O7 2.141 . S
Mg0 O8 2.048 . S
Mg0 O9 2.048 . S
Mg0 O12 2.141 . S
C1 O2 1.313 . S
C1 O8 1.195 . S
O2 C1 1.313 . S
C3 O4 1.245 1_455 S
C3 O12 1.289 . S
O4 C3 1.245 1_655 S
C5 O6 1.245 1_455 S
C5 O7 1.289 . S
O6 C5 1.245 1_655 S
O7 Mg0 2.141 . S
O7 C5 1.289 . S
O8 Mg0 2.048 . S
O8 C1 1.195 . S
O9 Mg0 2.048 . S
O9 C10 1.195 . S
C10 O9 1.195 . S
C10 O11 1.313 . S
O11 C10 1.313 . S
O12 Mg0 2.141 . S
O12 C3 1.289 . S
Mg13 O20 2.141 . S
Mg13 O21 2.048 . S
Mg13 O22 2.048 . S
Mg13 O25 2.141 . S
C14 O15 1.313 . S
C14 O21 1.195 . S
O15 C14 1.313 . S
C16 O17 1.245 . S
C16 O25 1.289 . S
O17 C16 1.245 . S
C18 O19 1.245 . S
C18 O20 1.289 . S
O19 C18 1.245 . S
O20 Mg13 2.141 . S
O20 C18 1.289 . S
O21 Mg13 2.048 . S
O21 C14 1.195 . S
O22 Mg13 2.048 . S
O22 C23 1.195 . S
C23 O22 1.195 . S
C23 O24 1.313 . S
O24 C23 1.313 . S
O25 Mg13 2.141 . S
O25 C16 1.289 . S
Mg26 O33 2.141 . S
Mg26 O34 2.048 . S
Mg26 O35 2.048 . S
Mg26 O38 2.141 . S
C27 O28 1.313 . S
C27 O34 1.195 . S
O28 C27 1.313 . S
C29 O30 1.245 . S
C29 O38 1.289 . S
O30 C29 1.245 . S
C31 O32 1.245 . S
C31 O33 1.289 . S
O32 C31 1.245 . S
O33 Mg26 2.141 . S
O33 C31 1.289 . S
O34 Mg26 2.048 . S
O34 C27 1.195 . S
O35 Mg26 2.048 . S
O35 C36 1.195 . S
C36 O35 1.195 . S
C36 O37 1.313 . S
O37 C36 1.313 . S
O38 Mg26 2.141 . S
O38 C29 1.289 . S
Mg39 O46 2.141 . S
Mg39 O47 2.048 . S
Mg39 O48 2.048 . S
Mg39 O51 2.141 . S
C40 O41 1.313 1_455 S
C40 O47 1.195 . S
O41 C40 1.313 1_655 S
C42 O43 1.245 . S
C42 O51 1.289 . S
O43 C42 1.245 . S
C44 O45 1.245 . S
C44 O46 1.289 . S
O45 C44 1.245 . S
O46 Mg39 2.141 . S
O46 C44 1.289 . S
O47 Mg39 2.048 . S
O47 C40 1.195 . S
O48 Mg39 2.048 . S
O48 C49 1.195 . S
C49 O48 1.195 . S
C49 O50 1.313 1_455 S
O50 C49 1.313 1_655 S
O51 Mg39 2.141 . S
O51 C42 1.289 . S
Mg52 O59 2.141 . S
Mg52 O60 2.048 . S
Mg52 O61 2.048 . S
Mg52 O64 2.141 . S
C53 O54 1.313 . S
C53 O60 1.195 . S
O54 C53 1.313 . S
C55 O56 1.245 . S
C55 O64 1.289 . S
O56 C55 1.245 . S
C57 O58 1.245 . S
C57 O59 1.289 . S
O58 C57 1.245 . S
O59 Mg52 2.141 . S
O59 C57 1.289 . S
O60 Mg52 2.048 . S
O60 C53 1.195 . S
O61 Mg52 2.048 . S
O61 C62 1.195 . S
C62 O61 1.195 . S
C62 O63 1.313 . S
O63 C62 1.313 . S
O64 Mg52 2.141 . S
O64 C55 1.289 . S
Mg65 O72 2.141 . S
Mg65 O73 2.048 . S
Mg65 O74 2.048 . S
Mg65 O77 2.141 . S
C66 O67 1.313 . S
C66 O73 1.195 . S
O67 C66 1.313 . S
C68 O69 1.245 . S
C68 O77 1.289 . S
O69 C68 1.245 . S
C70 O71 1.245 . S
C70 O72 1.289 . S
O71 C70 1.245 . S
O72 Mg65 2.141 . S
O72 C70 1.289 . S
O73 Mg65 2.048 . S
O73 C66 1.195 . S
O74 Mg65 2.048 . S
O74 C75 1.195 . S
C75 O74 1.195 . S
C75 O76 1.313 . S
O76 C75 1.313 . S
O77 Mg65 2.141 . S
O77 C68 1.289 . S
Mg78 O85 2.141 . S
Mg78 O86 2.048 . S
Mg78 O87 2.047 1_565 S
Mg78 O90 2.141 . S
C79 O80 1.313 . S
C79 O86 1.195 . S
O80 C79 1.313 . S
C81 O82 1.245 . S
C81 O90 1.289 . S
O82 C81 1.245 . S
C83 O84 1.245 . S
C83 O85 1.289 . S
O84 C83 1.245 . S
O85 Mg78 2.141 . S
O85 C83 1.289 . S
O86 Mg78 2.048 . S
O86 C79 1.195 . S
O87 Mg78 2.047 1_545 S
O87 C88 1.195 . S
C88 O87 1.195 . S
C88 O89 1.313 1_545 S
O89 C88 1.313 1_565 S
O90 Mg78 2.141 . S
O90 C81 1.289 . S
Mg91 O98 2.141 . S
Mg91 O99 2.048 . S
Mg91 O100 2.048 . S
Mg91 O103 2.141 . S
C92 O93 1.313 . S
C92 O99 1.195 . S
O93 C92 1.313 . S
C94 O95 1.245 . S
C94 O103 1.289 . S
O95 C94 1.245 . S
C96 O97 1.245 . S
C96 O98 1.289 . S
O97 C96 1.245 . S
O98 Mg91 2.141 . S
O98 C96 1.289 . S
O99 Mg91 2.048 . S
O99 C92 1.195 . S
O100 Mg91 2.048 . S
O100 C101 1.195 . S
C101 O100 1.195 . S
C101 O102 1.313 . S
O102 C101 1.313 . S
O103 Mg91 2.141 . S
O103 C94 1.289 . S
Mg104 O111 2.141 . S
Mg104 O112 2.048 . S
Mg104 O113 2.048 . S
Mg104 O116 2.141 . S
C105 O106 1.313 . S
C105 O112 1.195 . S
O106 C105 1.313 . S
C107 O108 1.245 . S
C107 O116 1.289 . S
O108 C107 1.245 . S
C109 O110 1.245 . S
C109 O111 1.289 . S
O110 C109 1.245 . S
O111 Mg104 2.141 . S
O111 C109 1.289 . S
O112 Mg104 2.048 . S
O112 C105 1.195 . S
O113 Mg104 2.048 . S
O113 C114 1.195 . S
C114 O113 1.195 . S
C114 O115 1.313 . S
O115 C114 1.313 . S
O116 Mg104 2.141 . S
O116 C107 1.289 . S
Mg117 O124 2.141 . S
Mg117 O125 2.048 . S
Mg117 O126 2.048 . S
Mg117 O129 2.141 . S
C118 O119 1.313 . S
C118 O125 1.195 . S
O119 C118 1.313 . S
C120 O121 1.245 . S
C120 O129 1.289 1_556 S
O121 C120 1.245 . S
C122 O123 1.245 . S
C122 O124 1.289 1_556 S
O123 C122 1.245 . S
O124 Mg117 2.141 . S
O124 C122 1.289 1_554 S
O125 Mg117 2.048 . S
O125 C118 1.195 . S
O126 Mg117 2.048 . S
O126 C127 1.195 . S
C127 O126 1.195 . S
C127 O128 1.313 . S
O128 C127 1.313 . S
O129 Mg117 2.141 . S
O129 C120 1.289 1_554 S
Mg130 O137 2.141 . S
Mg130 O138 2.048 . S
Mg130 O139 2.048 . S
Mg130 O142 2.141 . S
C131 O132 1.313 . S
C131 O138 1.195 . S
O132 C131 1.313 . S
C133 O134 1.244 . S
C133 O142 1.290 1_546 S
O134 C133 1.244 . S
C135 O136 1.245 . S
C135 O137 1.289 1_556 S
O136 C135 1.245 . S
O137 Mg130 2.141 . S
O137 C135 1.289 1_554 S
O138 Mg130 2.048 . S
O138 C131 1.195 . S
O139 Mg130 2.048 . S
O139 C140 1.195 1_565 S
C140 O139 1.195 1_545 S
C140 O141 1.313 . S
O141 C140 1.313 . S
O142 Mg130 2.141 . S
O142 C133 1.290 1_564 S
Mg143 O150 2.141 . S
Mg143 O151 2.048 . S
Mg143 O152 2.048 . S
Mg143 O155 2.141 . S
C144 O145 1.313 . S
C144 O151 1.195 . S
O145 C144 1.313 . S
C146 O147 1.245 . S
C146 O155 1.289 1_556 S
O147 C146 1.245 . S
C148 O149 1.245 . S
C148 O150 1.289 1_556 S
O149 C148 1.245 . S
O150 Mg143 2.141 . S
O150 C148 1.289 1_554 S
O151 Mg143 2.048 . S
O151 C144 1.195 . S
O152 Mg143 2.048 . S
O152 C153 1.195 . S
C153 O152 1.195 . S
C153 O154 1.313 . S
O154 C153 1.313 . S
O155 Mg143 2.141 . S
O155 C146 1.289 1_554 S
Mg156 O163 2.141 . S
Mg156 O164 2.048 . S
Mg156 O165 2.048 . S
Mg156 O168 2.141 . S
C157 O158 1.313 . S
C157 O164 1.195 1_554 S
O158 C157 1.313 . S
C159 O160 1.245 . S
C159 O168 1.289 . S
O160 C159 1.245 . S
C161 O162 1.245 . S
C161 O163 1.289 . S
O162 C161 1.245 . S
O163 Mg156 2.141 . S
O163 C161 1.289 . S
O164 Mg156 2.048 . S
O164 C157 1.195 1_556 S
O165 Mg156 2.048 . S
O165 C166 1.195 1_556 S
C166 O165 1.195 1_554 S
C166 O167 1.313 . S
O167 C166 1.313 . S
O168 Mg156 2.141 . S
O168 C159 1.289 . S
Mg169 O176 2.141 . S
Mg169 O177 2.048 . S
Mg169 O178 2.048 . S
Mg169 O181 2.141 . S
C170 O171 1.313 1_554 S
C170 O177 1.195 1_554 S
O171 C170 1.313 1_556 S
C172 O173 1.245 . S
C172 O181 1.289 . S
O173 C172 1.245 . S
C174 O175 1.245 . S
C174 O176 1.289 . S
O175 C174 1.245 . S
O176 Mg169 2.141 . S
O176 C174 1.289 . S
O177 Mg169 2.048 . S
O177 C170 1.195 1_556 S
O178 Mg169 2.048 . S
O178 C179 1.195 1_556 S
C179 O178 1.195 1_554 S
C179 O180 1.313 1_554 S
O180 C179 1.313 1_556 S
O181 Mg169 2.141 . S
O181 C172 1.289 . S
Mg182 O189 2.141 . S
Mg182 O190 2.048 . S
Mg182 O191 2.048 . S
Mg182 O194 2.141 . S
C183 O184 1.313 . S
C183 O190 1.195 . S
O184 C183 1.313 . S
C185 O186 1.245 1_554 S
C185 O194 1.289 1_554 S
O186 C185 1.245 1_556 S
C187 O188 1.245 1_554 S
C187 O189 1.289 1_554 S
O188 C187 1.245 1_556 S
O189 Mg182 2.141 . S
O189 C187 1.289 1_556 S
O190 Mg182 2.048 . S
O190 C183 1.195 . S
O191 Mg182 2.048 . S
O191 C192 1.195 . S
C192 O191 1.195 . S
C192 O193 1.313 . S
O193 C192 1.313 . S
O194 Mg182 2.141 . S
O194 C185 1.289 1_556 S
Mg195 O202 2.141 . S
Mg195 O203 2.048 . S
Mg195 O204 2.048 . S
Mg195 O207 2.141 . S
C196 O197 1.313 . S
C196 O203 1.195 . S
O197 C196 1.313 . S
C198 O199 1.245 . S
C198 O207 1.289 . S
O199 C198 1.245 . S
C200 O201 1.245 . S
C200 O202 1.289 . S
O201 C200 1.245 . S
O202 Mg195 2.141 . S
O202 C200 1.289 . S
O203 Mg195 2.048 . S
O203 C196 1.195 . S
O204 Mg195 2.048 . S
O204 C205 1.195 . S
C205 O204 1.195 . S
C205 O206 1.313 . S
O206 C205 1.313 . S
O207 Mg195 2.141 . S
O207 C198 1.289 . S
Mg208 O215 2.141 . S
Mg208 O216 2.048 . S
Mg208 O217 2.048 . S
Mg208 O220 2.141 . S
C209 O210 1.313 . S
C209 O216 1.195 . S
O210 C209 1.313 . S
C211 O212 1.245 . S
C211 O220 1.289 . S
O212 C211 1.245 . S
C213 O214 1.245 . S
C213 O215 1.289 . S
O214 C213 1.245 . S
O215 Mg208 2.141 . S
O215 C213 1.289 . S
O216 Mg208 2.048 . S
O216 C209 1.195 . S
O217 Mg208 2.048 . S
O217 C218 1.195 . S
C218 O217 1.195 . S
C218 O219 1.313 . S
O219 C218 1.313 . S
O220 Mg208 2.141 . S
O220 C211 1.289 . S
Mg221 O228 2.141 . S
Mg221 O229 2.048 . S
Mg221 O230 2.048 . S
Mg221 O233 2.141 . S
C222 O223 1.313 . S
C222 O229 1.195 . S
O223 C222 1.313 . S
C224 O225 1.245 . S
C224 O233 1.289 . S
O225 C224 1.245 . S
C226 O227 1.245 . S
C226 O228 1.289 . S
O227 C226 1.245 . S
O228 Mg221 2.141 . S
O228 C226 1.289 . S
O229 Mg221 2.048 . S
O229 C222 1.195 . S
O230 Mg221 2.048 . S
O230 C231 1.195 . S
C231 O230 1.195 . S
C231 O232 1.313 . S
O232 C231 1.313 . S
O233 Mg221 2.141 . S
O233 C224 1.289 . S
H234 C240 0.930 . S
H235 C243 0.930 . S
H236 C244 0.930 1_655 S
H237 C245 0.930 1_655 S
H238 C248 0.930 . S
H239 C249 0.930 . S
C240 H234 0.930 . S
C240 C241 1.355 . S
C240 C242 1.415 . S
C241 C240 1.355 . S
C241 C243 1.419 . S
C242 C240 1.415 . S
C242 C247 1.425 . S
C242 C249 1.409 1_556 S
C243 H235 0.930 . S
C243 C241 1.419 . S
C243 C244 1.362 . S
C244 H236 0.930 1_455 S
C244 C243 1.362 . S
C244 C247 1.409 . S
C245 H237 0.930 1_455 S
C245 C246 1.355 . S
C245 C247 1.415 1_554 S
C246 C245 1.355 . S
C246 C248 1.419 . S
C247 C242 1.425 . S
C247 C244 1.409 . S
C247 C245 1.415 1_556 S
C248 H238 0.930 . S
C248 C246 1.419 . S
C248 C249 1.362 . S
C249 H239 0.930 . S
C249 C242 1.409 1_554 S
C249 C248 1.362 . S
H250 C256 0.930 . S
H251 C259 0.930 . S
H252 C260 0.936 . S
H253 C261 0.930 . S
H254 C264 0.930 . S
H255 C265 0.930 . S
C256 H250 0.930 . S
C256 C257 1.355 . S
C256 C258 1.415 . S
C257 C256 1.355 . S
C257 C259 1.419 . S
C258 C256 1.415 . S
C258 C263 1.425 1_556 S
C258 C265 1.409 1_556 S
C259 H251 0.930 . S
C259 C257 1.419 . S
C259 C260 1.362 . S
C260 H252 0.936 . S
C260 C259 1.362 . S
C260 C263 1.409 1_556 S
C261 H253 0.930 . S
C261 C262 1.355 . S
C261 C263 1.415 . S
C262 C261 1.355 . S
C262 C264 1.419 . S
C263 C258 1.425 1_554 S
C263 C260 1.409 1_554 S
C263 C261 1.415 . S
C264 H254 0.930 . S
C264 C262 1.419 . S
C264 C265 1.362 . S
C265 H255 0.930 . S
C265 C258 1.409 1_554 S
C265 C264 1.362 . S
H266 C272 0.930 . S
H267 C275 0.930 . S
H268 C276 0.930 . S
H269 C277 0.930 . S
H270 C280 0.930 . S
H271 C281 0.930 . S
C272 H266 0.930 . S
C272 C273 1.355 . S
C272 C274 1.415 . S
C273 C272 1.355 . S
C273 C275 1.419 . S
C274 C272 1.415 . S
C274 C279 1.425 1_554 S
C274 C281 1.409 1_554 S
C275 H267 0.930 . S
C275 C273 1.419 . S
C275 C276 1.362 . S
C276 H268 0.930 . S
C276 C275 1.362 . S
C276 C279 1.397 1_554 S
C277 H269 0.930 . S
C277 C278 1.355 . S
C277 C279 1.428 . S
C278 C277 1.355 . S
C278 C280 1.419 . S
C279 C274 1.425 1_556 S
C279 C276 1.397 1_556 S
C279 C277 1.428 . S
C280 H270 0.930 . S
C280 C278 1.419 . S
C280 C281 1.362 . S
C281 H271 0.930 . S
C281 C274 1.409 1_556 S
C281 C280 1.362 . S
H282 C288 0.930 . S
H283 C291 0.930 . S
H284 C292 0.930 . S
H285 C293 0.930 . S
H286 C296 0.930 . S
H287 C297 0.930 . S
C288 H282 0.930 . S
C288 C289 1.355 . S
C288 C290 1.415 . S
C289 C288 1.355 . S
C289 C291 1.419 . S
C290 C288 1.415 . S
C290 C295 1.425 . S
C290 C297 1.409 . S
C291 H283 0.930 . S
C291 C289 1.419 . S
C291 C292 1.362 . S
C292 H284 0.930 . S
C292 C291 1.362 . S
C292 C295 1.409 . S
C293 H285 0.930 . S
C293 C294 1.355 . S
C293 C295 1.415 . S
C294 C293 1.355 . S
C294 C296 1.419 . S
C295 C290 1.425 . S
C295 C292 1.409 . S
C295 C293 1.415 . S
C296 H286 0.930 . S
C296 C294 1.419 . S
C296 C297 1.362 . S
C297 H287 0.930 . S
C297 C290 1.409 . S
C297 C296 1.362 . S
H298 C304 0.930 . S
H299 C307 0.930 . S
H300 C308 0.930 . S
H301 C309 0.930 . S
H302 C312 0.914 1_655 S
H303 C313 0.930 1_655 S
C304 H298 0.930 . S
C304 C305 1.355 . S
C304 C306 1.415 . S
C305 C304 1.355 . S
C305 C307 1.419 . S
C306 C304 1.415 . S
C306 C311 1.425 . S
C306 C313 1.409 . S
C307 H299 0.930 . S
C307 C305 1.419 . S
C307 C308 1.362 . S
C308 H300 0.930 . S
C308 C307 1.362 . S
C308 C311 1.409 . S
C309 H301 0.930 . S
C309 C310 1.355 . S
C309 C311 1.415 . S
C310 C309 1.355 . S
C310 C312 1.449 . S
C311 C306 1.425 . S
C311 C308 1.409 . S
C311 C309 1.415 . S
C312 H302 0.914 1_455 S
C312 C310 1.449 . S
C312 C313 1.350 . S
C313 H303 0.930 1_455 S
C313 C306 1.409 . S
C313 C312 1.350 . S
H314 C320 0.930 . S
H315 C323 0.930 . S
H316 C324 0.930 . S
H317 C325 0.930 . S
H318 C328 0.930 . S
H319 C329 0.930 . S
C320 H314 0.930 . S
C320 C321 1.355 . S
C320 C322 1.415 . S
C321 C320 1.355 . S
C321 C323 1.419 . S
C322 C320 1.415 . S
C322 C327 1.425 . S
C322 C329 1.409 . S
C323 H315 0.930 . S
C323 C321 1.419 . S
C323 C324 1.362 . S
C324 H316 0.930 . S
C324 C323 1.362 . S
C324 C327 1.409 . S
C325 H317 0.930 . S
C325 C326 1.355 . S
C325 C327 1.415 . S
C326 C325 1.355 . S
C326 C328 1.419 . S
C327 C322 1.425 . S
C327 C324 1.409 . S
C327 C325 1.415 . S
C328 H318 0.930 . S
C328 C326 1.419 . S
C328 C329 1.362 . S
C329 H319 0.930 . S
C329 C322 1.409 . S
C329 C328 1.362 . S
H330 C336 0.930 . S
H331 C339 0.930 . S
H332 C340 0.930 . S
H333 C341 0.930 . S
H334 C344 0.930 . S
H335 C345 0.930 . S
C336 H330 0.930 . S
C336 C337 1.355 . S
C336 C338 1.415 . S
C337 C336 1.355 . S
C337 C339 1.419 . S
C338 C336 1.415 . S
C338 C343 1.425 . S
C338 C345 1.409 . S
C339 H331 0.930 . S
C339 C337 1.419 . S
C339 C340 1.362 . S
C340 H332 0.930 . S
C340 C339 1.362 . S
C340 C343 1.409 . S
C341 H333 0.930 . S
C341 C342 1.355 . S
C341 C343 1.415 . S
C342 C341 1.355 . S
C342 C344 1.419 . S
C343 C338 1.425 . S
C343 C340 1.409 . S
C343 C341 1.415 . S
C344 H334 0.930 . S
C344 C342 1.419 . S
C344 C345 1.362 . S
C345 H335 0.930 . S
C345 C338 1.409 . S
C345 C344 1.362 . S
H346 C352 0.930 . S
H347 C355 0.930 . S
H348 C356 0.930 . S
H349 C357 0.930 . S
H350 C360 0.930 . S
H351 C361 0.930 . S
C352 H346 0.930 . S
C352 C353 1.355 . S
C352 C354 1.415 . S
C353 C352 1.355 . S
C353 C355 1.419 . S
C354 C352 1.415 . S
C354 C359 1.425 . S
C354 C361 1.409 . S
C355 H347 0.930 . S
C355 C353 1.419 . S
C355 C356 1.362 . S
C356 H348 0.930 . S
C356 C355 1.362 . S
C356 C359 1.409 . S
C357 H349 0.930 . S
C357 C358 1.355 . S
C357 C359 1.415 . S
C358 C357 1.355 . S
C358 C360 1.419 . S
C359 C354 1.425 . S
C359 C356 1.409 . S
C359 C357 1.415 . S
C360 H350 0.930 . S
C360 C358 1.419 . S
C360 C361 1.362 . S
C361 H351 0.930 . S
C361 C354 1.409 . S
C361 C360 1.362 . S
H362 C368 0.930 . S
H363 C371 0.930 . S
H364 C372 0.930 . S
H365 C373 0.930 . S
H366 C376 0.930 . S
H367 C377 0.930 . S
C368 H362 0.930 . S
C368 C369 1.355 . S
C368 C370 1.415 . S
C369 C368 1.355 . S
C369 C371 1.419 . S
C370 C368 1.415 . S
C370 C375 1.425 . S
C370 C377 1.409 . S
C371 H363 0.930 . S
C371 C369 1.419 . S
C371 C372 1.362 . S
C372 H364 0.930 . S
C372 C371 1.362 . S
C372 C375 1.409 . S
C373 H365 0.930 . S
C373 C374 1.355 . S
C373 C375 1.415 . S
C374 C373 1.355 . S
C374 C376 1.419 . S
C375 C370 1.425 . S
C375 C372 1.409 . S
C375 C373 1.415 . S
C376 H366 0.930 . S
C376 C374 1.419 . S
C376 C377 1.362 . S
C377 H367 0.930 . S
C377 C370 1.409 . S
C377 C376 1.362 . S
H378 C384 0.930 . S
H379 C387 0.930 . S
H380 C388 0.930 . S
H381 C389 0.930 . S
H382 C392 0.930 . S
H383 C393 0.930 . S
C384 H378 0.930 . S
C384 C385 1.355 . S
C384 C386 1.415 . S
C385 C384 1.355 . S
C385 C387 1.419 . S
C386 C384 1.415 . S
C386 C391 1.425 . S
C386 C393 1.409 . S
C387 H379 0.930 . S
C387 C385 1.419 . S
C387 C388 1.362 . S
C388 H380 0.930 . S
C388 C387 1.362 . S
C388 C391 1.409 . S
C389 H381 0.930 . S
C389 C390 1.355 . S
C389 C391 1.415 . S
C390 C389 1.355 . S
C390 C392 1.419 . S
C391 C386 1.425 . S
C391 C388 1.409 . S
C391 C389 1.415 . S
C392 H382 0.930 . S
C392 C390 1.419 . S
C392 C393 1.362 . S
C393 H383 0.930 . S
C393 C386 1.409 . S
C393 C392 1.362 . S
H394 C400 0.930 . S
H395 C403 0.930 . S
H396 C404 0.930 . S
H397 C405 0.930 . S
H398 C408 0.930 . S
H399 C409 0.930 . S
C400 H394 0.930 . S
C400 C401 1.355 . S
C400 C402 1.415 . S
C401 C400 1.355 . S
C401 C403 1.419 . S
C402 C400 1.415 . S
C402 C407 1.425 . S
C402 C409 1.409 . S
C403 H395 0.930 . S
C403 C401 1.419 . S
C403 C404 1.362 . S
C404 H396 0.930 . S
C404 C403 1.362 . S
C404 C407 1.409 . S
C405 H397 0.930 . S
C405 C406 1.355 . S
C405 C407 1.415 . S
C406 C405 1.355 . S
C406 C408 1.419 . S
C407 C402 1.425 . S
C407 C404 1.409 . S
C407 C405 1.415 . S
C408 H398 0.930 . S
C408 C406 1.419 . S
C408 C409 1.362 . S
C409 H399 0.930 . S
C409 C402 1.409 . S
C409 C408 1.362 . S
H410 C416 0.930 . S
H411 C419 0.930 . S
H412 C420 0.930 . S
H413 C421 0.930 . S
H414 C424 0.930 . S
H415 C425 0.930 . S
C416 H410 0.930 . S
C416 C417 1.355 . S
C416 C418 1.415 . S
C417 C416 1.355 . S
C417 C419 1.419 . S
C418 C416 1.415 . S
C418 C423 1.425 . S
C418 C425 1.409 . S
C419 H411 0.930 . S
C419 C417 1.419 . S
C419 C420 1.362 . S
C420 H412 0.930 . S
C420 C419 1.362 . S
C420 C423 1.409 . S
C421 H413 0.930 . S
C421 C422 1.355 . S
C421 C423 1.415 . S
C422 C421 1.355 . S
C422 C424 1.419 . S
C423 C418 1.425 . S
C423 C420 1.409 . S
C423 C421 1.415 . S
C424 H414 0.930 . S
C424 C422 1.419 . S
C424 C425 1.362 . S
C425 H415 0.930 . S
C425 C418 1.409 . S
C425 C424 1.362 . S
H426 C432 0.930 . S
H427 C435 0.930 . S
H428 C436 0.930 . S
H429 C437 0.930 . S
H430 C440 0.930 . S
H431 C441 0.930 . S
C432 H426 0.930 . S
C432 C433 1.355 . S
C432 C434 1.415 . S
C433 C432 1.355 . S
C433 C435 1.419 . S
C434 C432 1.415 . S
C434 C439 1.425 . S
C434 C441 1.409 . S
C435 H427 0.930 . S
C435 C433 1.419 . S
C435 C436 1.362 . S
C436 H428 0.930 . S
C436 C435 1.362 . S
C436 C439 1.409 . S
C437 H429 0.930 . S
C437 C438 1.355 . S
C437 C439 1.415 . S
C438 C437 1.355 . S
C438 C440 1.419 . S
C439 C434 1.425 . S
C439 C436 1.409 . S
C439 C437 1.415 . S
C440 H430 0.930 . S
C440 C438 1.419 . S
C440 C441 1.362 . S
C441 H431 0.930 . S
C441 C434 1.409 . S
C441 C440 1.362 . S
H442 C448 0.930 . S
H443 C451 0.930 . S
H444 C452 0.930 . S
H445 C453 0.930 . S
H446 C456 0.930 . S
H447 C457 0.930 . S
C448 H442 0.930 . S
C448 C449 1.355 . S
C448 C450 1.415 . S
C449 C448 1.355 . S
C449 C451 1.419 . S
C450 C448 1.415 . S
C450 C455 1.425 . S
C450 C457 1.409 . S
C451 H443 0.930 . S
C451 C449 1.419 . S
C451 C452 1.362 . S
C452 H444 0.930 . S
C452 C451 1.362 . S
C452 C455 1.409 . S
C453 H445 0.930 . S
C453 C454 1.355 . S
C453 C455 1.415 . S
C454 C453 1.355 . S
C454 C456 1.419 . S
C455 C450 1.425 . S
C455 C452 1.409 . S
C455 C453 1.415 . S
C456 H446 0.930 . S
C456 C454 1.419 . S
C456 C457 1.362 . S
C457 H447 0.930 . S
C457 C450 1.409 . S
C457 C456 1.362 . S
H458 C464 0.930 . S
H459 C467 0.930 . S
H460 C468 0.930 . S
H461 C469 0.930 . S
H462 C472 0.930 . S
H463 C473 0.930 . S
C464 H458 0.930 . S
C464 C465 1.355 . S
C464 C466 1.415 . S
C465 C464 1.355 . S
C465 C467 1.419 . S
C466 C464 1.415 . S
C466 C471 1.425 . S
C466 C473 1.409 . S
C467 H459 0.930 . S
C467 C465 1.419 . S
C467 C468 1.362 . S
C468 H460 0.930 . S
C468 C467 1.362 . S
C468 C471 1.409 . S
C469 H461 0.930 . S
C469 C470 1.355 . S
C469 C471 1.415 . S
C470 C469 1.355 . S
C470 C472 1.419 . S
C471 C466 1.425 . S
C471 C468 1.409 . S
C471 C469 1.415 . S
C472 H462 0.930 . S
C472 C470 1.419 . S
C472 C473 1.362 . S
C473 H463 0.930 . S
C473 C466 1.409 . S
C473 C472 1.362 . S
H474 C480 0.930 . S
H475 C483 0.930 . S
H476 C484 0.930 . S
H477 C485 0.930 . S
H478 C488 0.930 . S
H479 C489 0.930 . S
C480 H474 0.930 . S
C480 C481 1.355 . S
C480 C482 1.415 . S
C481 C480 1.355 . S
C481 C483 1.419 . S
C482 C480 1.415 . S
C482 C487 1.425 . S
C482 C489 1.409 . S
C483 H475 0.930 . S
C483 C481 1.419 . S
C483 C484 1.362 . S
C484 H476 0.930 . S
C484 C483 1.362 . S
C484 C487 1.409 . S
C485 H477 0.930 . S
C485 C486 1.355 . S
C485 C487 1.415 . S
C486 C485 1.355 . S
C486 C488 1.419 . S
C487 C482 1.425 . S
C487 C484 1.409 . S
C487 C485 1.415 . S
C488 H478 0.930 . S
C488 C486 1.419 . S
C488 C489 1.362 . S
C489 H479 0.930 . S
C489 C482 1.409 . S
C489 C488 1.362 . S
H490 C496 0.930 . S
H491 C499 0.930 . S
H492 C500 0.930 . S
H493 C501 0.930 . S
H494 C504 0.930 . S
H495 C505 0.930 . S
C496 H490 0.930 . S
C496 C497 1.355 . S
C496 C498 1.415 . S
C497 C496 1.355 . S
C497 C499 1.419 . S
C498 C496 1.415 . S
C498 C503 1.425 . S
C498 C505 1.409 . S
C499 H491 0.930 . S
C499 C497 1.419 . S
C499 C500 1.362 . S
C500 H492 0.930 . S
C500 C499 1.362 . S
C500 C503 1.409 . S
C501 H493 0.930 . S
C501 C502 1.355 . S
C501 C503 1.415 . S
C502 C501 1.355 . S
C502 C504 1.419 . S
C503 C498 1.425 . S
C503 C500 1.409 . S
C503 C501 1.415 . S
C504 H494 0.930 . S
C504 C502 1.419 . S
C504 C505 1.362 . S
C505 H495 0.930 . S
C505 C498 1.409 . S
C505 C504 1.362 . S
H506 C512 0.930 . S
H507 C515 0.930 . S
H508 C516 0.930 . S
H509 C517 0.930 . S
H510 C520 0.930 . S
H511 C521 0.930 . S
C512 H506 0.930 . S
C512 C513 1.355 . S
C512 C514 1.415 . S
C513 C512 1.355 . S
C513 C515 1.419 . S
C514 C512 1.415 . S
C514 C519 1.425 . S
C514 C521 1.409 . S
C515 H507 0.930 . S
C515 C513 1.419 . S
C515 C516 1.362 . S
C516 H508 0.930 . S
C516 C515 1.362 . S
C516 C519 1.409 . S
C517 H509 0.930 . S
C517 C518 1.355 . S
C517 C519 1.415 . S
C518 C517 1.355 . S
C518 C520 1.419 . S
C519 C514 1.425 . S
C519 C516 1.409 . S
C519 C517 1.415 . S
C520 H510 0.930 . S
C520 C518 1.419 . S
C520 C521 1.362 . S
C521 H511 0.930 . S
C521 C514 1.409 . S
C521 C520 1.362 . S
H522 C528 0.930 . S
H523 C531 0.930 . S
H524 C532 0.930 . S
H525 C533 0.930 . S
H526 C536 0.930 . S
H527 C537 0.930 . S
C528 H522 0.930 . S
C528 C529 1.355 . S
C528 C530 1.415 . S
C529 C528 1.355 . S
C529 C531 1.419 . S
C530 C528 1.415 . S
C530 C535 1.425 . S
C530 C537 1.409 . S
C531 H523 0.930 . S
C531 C529 1.419 . S
C531 C532 1.362 . S
C532 H524 0.930 . S
C532 C531 1.362 . S
C532 C535 1.409 . S
C533 H525 0.930 . S
C533 C534 1.355 . S
C533 C535 1.415 . S
C534 C533 1.355 . S
C534 C536 1.419 . S
C535 C530 1.425 . S
C535 C532 1.409 . S
C535 C533 1.415 . S
C536 H526 0.930 . S
C536 C534 1.419 . S
C536 C537 1.362 . S
C537 H527 0.930 . S
C537 C530 1.409 . S
C537 C536 1.362 . S
H538 C544 0.930 . S
H539 C547 0.930 . S
H540 C548 0.930 . S
H541 C549 0.930 . S
H542 C552 0.930 . S
H543 C553 0.930 . S
C544 H538 0.930 . S
C544 C545 1.355 . S
C544 C546 1.415 . S
C545 C544 1.355 . S
C545 C547 1.419 . S
C546 C544 1.415 . S
C546 C551 1.425 . S
C546 C553 1.409 . S
C547 H539 0.930 . S
C547 C545 1.419 . S
C547 C548 1.362 . S
C548 H540 0.930 . S
C548 C547 1.362 . S
C548 C551 1.409 . S
C549 H541 0.930 . S
C549 C550 1.355 . S
C549 C551 1.415 . S
C550 C549 1.355 . S
C550 C552 1.419 . S
C551 C546 1.425 . S
C551 C548 1.409 . S
C551 C549 1.415 . S
C552 H542 0.930 . S
C552 C550 1.419 . S
C552 C553 1.362 . S
C553 H543 0.930 . S
C553 C546 1.409 . S
C553 C552 1.362 . S
H554 C560 0.930 1_565 S
H555 C563 0.930 . S
H556 C564 0.930 . S
H557 C565 0.930 . S
H558 C568 0.930 . S
H559 C569 0.950 . S
C560 H554 0.930 1_545 S
C560 C561 1.355 . S
C560 C562 1.415 . S
C561 C560 1.355 . S
C561 C563 1.419 . S
C562 C560 1.415 . S
C562 C567 1.425 . S
C562 C569 1.409 . S
C563 H555 0.930 . S
C563 C561 1.419 . S
C563 C564 1.362 . S
C564 H556 0.930 . S
C564 C563 1.362 . S
C564 C567 1.409 . S
C565 H557 0.930 . S
C565 C566 1.355 . S
C565 C567 1.415 . S
C566 C565 1.355 . S
C566 C568 1.419 . S
C567 C562 1.425 . S
C567 C564 1.409 . S
C567 C565 1.415 . S
C568 H558 0.930 . S
C568 C566 1.419 . S
C568 C569 1.362 . S
C569 H559 0.950 . S
C569 C562 1.409 . S
C569 C568 1.362 . S
H570 C576 0.930 . S
H571 C579 0.930 . S
H572 C580 0.930 . S
H573 C581 0.930 . S
H574 C584 0.930 . S
H575 C585 0.930 . S
C576 H570 0.930 . S
C576 C577 1.355 . S
C576 C578 1.415 . S
C577 C576 1.355 . S
C577 C579 1.419 . S
C578 C576 1.415 . S
C578 C583 1.425 . S
C578 C585 1.409 . S
C579 H571 0.930 . S
C579 C577 1.419 . S
C579 C580 1.362 . S
C580 H572 0.930 . S
C580 C579 1.362 . S
C580 C583 1.409 . S
C581 H573 0.930 . S
C581 C582 1.355 . S
C581 C583 1.415 . S
C582 C581 1.355 . S
C582 C584 1.419 . S
C583 C578 1.425 . S
C583 C580 1.409 . S
C583 C581 1.415 . S
C584 H574 0.930 . S
C584 C582 1.419 . S
C584 C585 1.362 . S
C585 H575 0.930 . S
C585 C578 1.409 . S
C585 C584 1.362 . S
H586 C592 0.930 1_556 S
H587 C595 0.930 . S
H588 C596 0.930 . S
H589 C597 0.930 . S
H590 C600 0.930 . S
H591 C601 0.930 1_556 S
C592 H586 0.930 1_554 S
C592 C593 1.355 . S
C592 C594 1.415 . S
C593 C592 1.355 . S
C593 C595 1.419 . S
C594 C592 1.415 . S
C594 C599 1.425 . S
C594 C601 1.409 . S
C595 H587 0.930 . S
C595 C593 1.419 . S
C595 C596 1.362 . S
C596 H588 0.930 . S
C596 C595 1.362 . S
C596 C599 1.409 . S
C597 H589 0.930 . S
C597 C598 1.355 . S
C597 C599 1.415 1_455 S
C598 C597 1.355 . S
C598 C600 1.419 1_455 S
C599 C594 1.425 . S
C599 C596 1.409 . S
C599 C597 1.415 1_655 S
C600 H590 0.930 . S
C600 C598 1.419 1_655 S
C600 C601 1.362 . S
C601 H591 0.930 1_554 S
C601 C594 1.409 . S
C601 C600 1.362 . S
H602 C608 0.930 . S
H603 C611 0.930 . S
H604 C612 0.930 . S
H605 C613 0.930 . S
H606 C616 0.930 . S
H607 C617 0.930 . S
C608 H602 0.930 . S
C608 C609 1.355 . S
C608 C610 1.415 . S
C609 C608 1.355 . S
C609 C611 1.419 . S
C610 C608 1.415 . S
C610 C615 1.425 . S
C610 C617 1.409 . S
C611 H603 0.930 . S
C611 C609 1.419 . S
C611 C612 1.362 . S
C612 H604 0.930 . S
C612 C611 1.362 . S
C612 C615 1.409 . S
C613 H605 0.930 . S
C613 C614 1.355 . S
C613 C615 1.415 . S
C614 C613 1.355 . S
C614 C616 1.419 . S
C615 C610 1.425 . S
C615 C612 1.409 . S
C615 C613 1.415 . S
C616 H606 0.930 . S
C616 C614 1.419 . S
C616 C617 1.362 . S
C617 H607 0.930 . S
C617 C610 1.409 . S
C617 C616 1.362 . S
H618 C624 0.930 . S
H619 C627 0.930 . S
H620 C628 0.930 . S
H621 C629 0.934 . S
H622 C632 0.930 . S
H623 C633 0.930 . S
C624 H618 0.930 . S
C624 C625 1.355 . S
C624 C626 1.415 . S
C625 C624 1.355 . S
C625 C627 1.419 . S
C626 C624 1.415 . S
C626 C631 1.425 . S
C626 C633 1.409 1_655 S
C627 H619 0.930 . S
C627 C625 1.419 . S
C627 C628 1.362 . S
C628 H620 0.930 . S
C628 C627 1.362 . S
C628 C631 1.409 . S
C629 H621 0.934 . S
C629 C630 1.353 1_655 S
C629 C631 1.413 . S
C630 C629 1.353 1_455 S
C630 C632 1.419 . S
C631 C626 1.425 . S
C631 C628 1.409 . S
C631 C629 1.413 . S
C632 H622 0.930 . S
C632 C630 1.419 . S
C632 C633 1.362 . S
C633 H623 0.930 . S
C633 C626 1.409 1_455 S
C633 C632 1.362 . S
H634 C640 0.930 . S
H635 C643 0.930 . S
H636 C644 0.930 . S
H637 C645 0.930 . S
H638 C648 0.930 . S
H639 C649 0.930 . S
C640 H634 0.930 . S
C640 C641 1.355 . S
C640 C642 1.415 . S
C641 C640 1.355 . S
C641 C643 1.419 . S
C642 C640 1.415 . S
C642 C647 1.425 . S
C642 C649 1.409 . S
C643 H635 0.930 . S
C643 C641 1.419 . S
C643 C644 1.362 . S
C644 H636 0.930 . S
C644 C643 1.362 . S
C644 C647 1.409 . S
C645 H637 0.930 . S
C645 C646 1.355 . S
C645 C647 1.415 . S
C646 C645 1.355 . S
C646 C648 1.419 . S
C647 C642 1.425 . S
C647 C644 1.409 . S
C647 C645 1.415 . S
C648 H638 0.930 . S
C648 C646 1.419 . S
C648 C649 1.362 . S
C649 H639 0.930 . S
C649 C642 1.409 . S
C649 C648 1.362 . S
H650 C656 0.930 . S
H651 C659 0.930 . S
H652 C660 0.930 . S
H653 C661 0.930 . S
H654 C664 0.930 . S
H655 C665 0.930 . S
C656 H650 0.930 . S
C656 C657 1.355 . S
C656 C658 1.415 . S
C657 C656 1.355 . S
C657 C659 1.419 . S
C658 C656 1.415 . S
C658 C663 1.425 . S
C658 C665 1.409 . S
C659 H651 0.930 . S
C659 C657 1.419 . S
C659 C660 1.362 . S
C660 H652 0.930 . S
C660 C659 1.362 . S
C660 C663 1.409 . S
C661 H653 0.930 . S
C661 C662 1.355 . S
C661 C663 1.415 . S
C662 C661 1.355 . S
C662 C664 1.419 . S
C663 C658 1.425 . S
C663 C660 1.409 . S
C663 C661 1.415 . S
C664 H654 0.930 . S
C664 C662 1.419 . S
C664 C665 1.362 . S
C665 H655 0.930 . S
C665 C658 1.409 . S
C665 C664 1.362 . S
H666 C672 0.930 1_565 S
H667 C675 0.930 . S
H668 C676 0.930 1_554 S
H669 C677 0.930 . S
H670 C680 0.930 . S
H671 C681 0.930 . S
C672 H666 0.930 1_545 S
C672 C673 1.355 . S
C672 C674 1.415 . S
C673 C672 1.355 . S
C673 C675 1.419 1_556 S
C674 C672 1.415 . S
C674 C679 1.425 . S
C674 C681 1.409 . S
C675 H667 0.930 . S
C675 C673 1.419 1_554 S
C675 C676 1.362 1_554 S
C676 H668 0.930 1_556 S
C676 C675 1.362 1_556 S
C676 C679 1.409 . S
C677 H669 0.930 . S
C677 C678 1.355 . S
C677 C679 1.415 . S
C678 C677 1.355 . S
C678 C680 1.419 . S
C679 C674 1.425 . S
C679 C676 1.409 . S
C679 C677 1.415 . S
C680 H670 0.930 . S
C680 C678 1.419 . S
C680 C681 1.362 . S
C681 H671 0.930 . S
C681 C674 1.409 . S
C681 C680 1.362 . S
H682 C688 0.930 . S
H683 C691 0.930 . S
H684 C692 0.930 . S
H685 C693 0.930 . S
H686 C696 0.932 . S
H687 C697 0.930 1_554 S
C688 H682 0.930 . S
C688 C689 1.355 . S
C688 C690 1.415 . S
C689 C688 1.355 . S
C689 C691 1.419 . S
C690 C688 1.415 . S
C690 C695 1.425 . S
C690 C697 1.409 . S
C691 H683 0.930 . S
C691 C689 1.419 . S
C691 C692 1.362 . S
C692 H684 0.930 . S
C692 C691 1.362 . S
C692 C695 1.409 . S
C693 H685 0.930 . S
C693 C694 1.355 . S
C693 C695 1.415 . S
C694 C693 1.355 . S
C694 C696 1.417 1_556 S
C695 C690 1.425 . S
C695 C692 1.409 . S
C695 C693 1.415 . S
C696 H686 0.932 . S
C696 C694 1.417 1_554 S
C696 C697 1.362 1_554 S
C697 H687 0.930 1_556 S
C697 C690 1.409 . S
C697 C696 1.362 1_556 S
H698 C704 0.930 . S
H699 C707 0.930 . S
H700 C708 0.930 1_554 S
H701 C709 0.930 1_554 S
H702 C712 0.930 . S
H703 C713 0.930 . S
C704 H698 0.930 . S
C704 C705 1.355 . S
C704 C706 1.415 . S
C705 C704 1.355 . S
C705 C707 1.419 . S
C706 C704 1.415 . S
C706 C711 1.425 . S
C706 C713 1.409 . S
C707 H699 0.930 . S
C707 C705 1.419 . S
C707 C708 1.362 . S
C708 H700 0.930 1_556 S
C708 C707 1.362 . S
C708 C711 1.409 . S
C709 H701 0.930 1_556 S
C709 C710 1.355 . S
C709 C711 1.415 . S
C710 C709 1.355 . S
C710 C712 1.419 . S
C711 C706 1.425 . S
C711 C708 1.409 . S
C711 C709 1.415 . S
C712 H702 0.930 . S
C712 C710 1.419 . S
C712 C713 1.362 . S
C713 H703 0.930 . S
C713 C706 1.409 . S
C713 C712 1.362 . S
H714 C720 0.930 . S
H715 C723 0.930 . S
H716 C724 0.930 . S
H717 C725 0.930 . S
H718 C728 0.930 . S
H719 C729 0.930 . S
C720 H714 0.930 . S
C720 C721 1.355 . S
C720 C722 1.415 . S
C721 C720 1.355 . S
C721 C723 1.419 . S
C722 C720 1.415 . S
C722 C727 1.425 . S
C722 C729 1.409 . S
C723 H715 0.930 . S
C723 C721 1.419 . S
C723 C724 1.362 . S
C724 H716 0.930 . S
C724 C723 1.362 . S
C724 C727 1.409 . S
C725 H717 0.930 . S
C725 C726 1.355 . S
C725 C727 1.415 . S
C726 C725 1.355 . S
C726 C728 1.419 . S
C727 C722 1.425 . S
C727 C724 1.409 . S
C727 C725 1.415 . S
C728 H718 0.930 . S
C728 C726 1.419 . S
C728 C729 1.362 . S
C729 H719 0.930 . S
C729 C722 1.409 . S
C729 C728 1.362 . S
H730 C736 0.930 . S
H731 C739 0.930 . S
H732 C740 0.930 . S
H733 C741 0.926 . S
H734 C744 0.930 . S
H735 C745 0.930 . S
C736 H730 0.930 . S
C736 C737 1.355 . S
C736 C738 1.415 . S
C737 C736 1.355 . S
C737 C739 1.419 . S
C738 C736 1.415 . S
C738 C743 1.425 . S
C738 C745 1.409 . S
C739 H731 0.930 . S
C739 C737 1.419 . S
C739 C740 1.362 . S
C740 H732 0.930 . S
C740 C739 1.362 . S
C740 C743 1.409 . S
C741 H733 0.926 . S
C741 C742 1.355 1_455 S
C741 C743 1.415 . S
C742 C741 1.355 1_655 S
C742 C744 1.419 . S
C743 C738 1.425 . S
C743 C740 1.409 . S
C743 C741 1.415 . S
C744 H734 0.930 . S
C744 C742 1.419 . S
C744 C745 1.362 1_655 S
C745 H735 0.930 . S
C745 C738 1.409 . S
C745 C744 1.362 1_455 S
H746 C752 0.930 . S
H747 C755 0.930 . S
H748 C756 0.930 . S
H749 C757 0.930 . S
H750 C760 0.930 . S
H751 C761 0.930 . S
C752 H746 0.930 . S
C752 C753 1.355 . S
C752 C754 1.415 . S
C753 C752 1.355 . S
C753 C755 1.419 . S
C754 C752 1.415 . S
C754 C759 1.425 . S
C754 C761 1.409 . S
C755 H747 0.930 . S
C755 C753 1.419 . S
C755 C756 1.362 . S
C756 H748 0.930 . S
C756 C755 1.362 . S
C756 C759 1.409 . S
C757 H749 0.930 . S
C757 C758 1.355 . S
C757 C759 1.415 . S
C758 C757 1.355 . S
C758 C760 1.419 . S
C759 C754 1.425 . S
C759 C756 1.409 . S
C759 C757 1.415 . S
C760 H750 0.930 . S
C760 C758 1.419 . S
C760 C761 1.362 . S
C761 H751 0.930 . S
C761 C754 1.409 . S
C761 C760 1.362 . S
H762 C768 0.930 . S
H763 C771 0.930 . S
H764 C772 0.930 . S
H765 C773 0.930 . S
H766 C776 0.930 . S
H767 C777 0.930 . S
C768 H762 0.930 . S
C768 C769 1.355 1_455 S
C768 C770 1.415 . S
C769 C768 1.355 1_655 S
C769 C771 1.419 . S
C770 C768 1.415 . S
C770 C775 1.425 . S
C770 C777 1.409 . S
C771 H763 0.930 . S
C771 C769 1.419 . S
C771 C772 1.362 1_655 S
C772 H764 0.930 . S
C772 C771 1.362 1_455 S
C772 C775 1.409 . S
C773 H765 0.930 . S
C773 C774 1.355 . S
C773 C775 1.415 . S
C774 C773 1.355 . S
C774 C776 1.419 . S
C775 C770 1.425 . S
C775 C772 1.409 . S
C775 C773 1.415 . S
C776 H766 0.930 . S
C776 C774 1.419 . S
C776 C777 1.362 . S
C777 H767 0.930 . S
C777 C770 1.409 . S
C777 C776 1.362 . S
H778 C784 0.930 . S
H779 C787 0.930 . S
H780 C788 0.930 . S
H781 C789 0.930 . S
H782 C792 0.930 . S
H783 C793 0.930 . S
C784 H778 0.930 . S
C784 C785 1.355 . S
C784 C786 1.415 . S
C785 C784 1.355 . S
C785 C787 1.419 . S
C786 C784 1.415 . S
C786 C791 1.425 . S
C786 C793 1.409 . S
C787 H779 0.930 . S
C787 C785 1.419 . S
C787 C788 1.362 . S
C788 H780 0.930 . S
C788 C787 1.362 . S
C788 C791 1.409 . S
C789 H781 0.930 . S
C789 C790 1.355 . S
C789 C791 1.415 . S
C790 C789 1.355 . S
C790 C792 1.419 . S
C791 C786 1.425 . S
C791 C788 1.409 . S
C791 C789 1.415 . S
C792 H782 0.930 . S
C792 C790 1.419 . S
C792 C793 1.362 . S
C793 H783 0.930 . S
C793 C786 1.409 . S
C793 C792 1.362 . S
H794 C800 0.930 . S
H795 C803 0.930 . S
H796 C804 0.930 . S
H797 C805 0.930 . S
H798 C808 0.930 . S
H799 C809 0.930 . S
C800 H794 0.930 . S
C800 C801 1.355 . S
C800 C802 1.415 . S
C801 C800 1.355 . S
C801 C803 1.419 . S
C802 C800 1.415 . S
C802 C807 1.425 . S
C802 C809 1.409 . S
C803 H795 0.930 . S
C803 C801 1.419 . S
C803 C804 1.362 . S
C804 H796 0.930 . S
C804 C803 1.362 . S
C804 C807 1.409 . S
C805 H797 0.930 . S
C805 C806 1.355 . S
C805 C807 1.415 . S
C806 C805 1.355 . S
C806 C808 1.419 . S
C807 C802 1.425 . S
C807 C804 1.409 . S
C807 C805 1.415 . S
C808 H798 0.930 . S
C808 C806 1.419 . S
C808 C809 1.362 . S
C809 H799 0.930 . S
C809 C802 1.409 . S
C809 C808 1.362 . S
C241 C44 1.817 . S
C246 C5 1.953 . S
C257 C57 1.826 . S
C262 C16 1.815 . S
C273 C27 1.869 . S
C278 C66 1.926 . S
C289 C31 1.986 . S
C294 C70 1.886 . S
C305 C1 1.851 . S
C310 C40 1.914 . S
C321 C53 1.903 . S
C326 C23 1.908 . S
C337 C118 1.960 . S
C342 C83 1.967 . S
C353 C94 1.829 . S
C358 C131 1.947 . S
C369 C109 1.935 . S
C374 C144 1.923 . S
C385 C148 1.826 . S
C390 C105 1.843 . S
C401 C122 1.787 . S
C406 C79 1.807 . S
C417 C135 1.815 . S
C422 C101 1.927 . S
C433 C161 1.960 . S
C438 C200 1.835 . S
C449 C172 1.895 . S
C454 C213 1.895 . S
C465 C183 1.836 . S
C470 C222 1.923 . S
C481 C226 1.856 . S
C486 C187 1.973 . S
C497 C196 1.908 . S
C502 C157 1.828 . S
C513 C209 1.928 . S
C518 C179 1.928 . S
C529 C10 1.607 . S
C534 C96 1.613 . S
C545 C14 1.591 . S
C550 C107 1.541 . S
C561 C81 1.503 1_545 S
C566 C29 1.462 . S
C577 C36 1.678 . S
C582 C170 1.601 . S
C593 C185 1.522 . S
C598 C3 1.516 . S
C609 C166 1.624 . S
C614 C18 1.626 . S
C625 C211 1.624 . S
C630 C49 1.577 . S
C641 C62 1.639 . S
C646 C231 1.586 . S
C657 C198 1.536 . S
C662 C68 1.537 . S
C673 C133 1.625 . S
C678 C75 1.548 . S
C689 C42 1.555 . S
C694 C146 1.552 . S
C705 C55 1.578 . S
C710 C120 1.579 . S
C721 C88 1.594 . S
C726 C174 1.598 . S
C737 C92 1.637 . S
C742 C192 1.665 . S
C753 C114 1.570 . S
C758 C159 1.520 . S
C769 C218 1.619 . S
C774 C153 1.580 . S
C785 C224 1.572 . S
C790 C127 1.501 . S
C801 C140 1.591 . S
C806 C205 1.625 . S
