# Generated by pormake.
# Topology wnj, (7)-cn, num edge types: 1
# Building blocks:
#     Node 0, Type 0, BuildingBlock: OLANEW_clean_sbu_0, # of connection points: 7
#     Node 1, Type 0, BuildingBlock: OLANEW_clean_sbu_0, # of connection points: 7
#     Node 2, Type 0, BuildingBlock: OLANEW_clean_sbu_0, # of connection points: 7
#     Node 3, Type 0, BuildingBlock: OLANEW_clean_sbu_0, # of connection points: 7
#     Node 4, Type 0, BuildingBlock: OLANEW_clean_sbu_0, # of connection points: 7
#     Node 5, Type 0, BuildingBlock: OLANEW_clean_sbu_0, # of connection points: 7
#     Edge 6, Type (0, 0), BuildingBlock: KIFKEQ_clean_linker_1, # of connection points: 2
#     Edge 7, Type (0, 0), BuildingBlock: KIFKEQ_clean_linker_1, # of connection points: 2
#     Edge 8, Type (0, 0), BuildingBlock: KIFKEQ_clean_linker_1, # of connection points: 2
#     Edge 9, Type (0, 0), BuildingBlock: KIFKEQ_clean_linker_1, # of connection points: 2
#     Edge 10, Type (0, 0), BuildingBlock: KIFKEQ_clean_linker_1, # of connection points: 2
#     Edge 11, Type (0, 0), BuildingBlock: KIFKEQ_clean_linker_1, # of connection points: 2
#     Edge 12, Type (0, 0), BuildingBlock: KIFKEQ_clean_linker_1, # of connection points: 2
#     Edge 13, Type (0, 0), BuildingBlock: KIFKEQ_clean_linker_1, # of connection points: 2
#     Edge 14, Type (0, 0), BuildingBlock: KIFKEQ_clean_linker_1, # of connection points: 2
#     Edge 15, Type (0, 0), BuildingBlock: KIFKEQ_clean_linker_1, # of connection points: 2
#     Edge 16, Type (0, 0), BuildingBlock: KIFKEQ_clean_linker_1, # of connection points: 2
#     Edge 17, Type (0, 0), BuildingBlock: KIFKEQ_clean_linker_1, # of connection points: 2
#     Edge 18, Type (0, 0), BuildingBlock: KIFKEQ_clean_linker_1, # of connection points: 2
#     Edge 19, Type (0, 0), BuildingBlock: KIFKEQ_clean_linker_1, # of connection points: 2
#     Edge 20, Type (0, 0), BuildingBlock: KIFKEQ_clean_linker_1, # of connection points: 2
#     Edge 21, Type (0, 0), BuildingBlock: KIFKEQ_clean_linker_1, # of connection points: 2
#     Edge 22, Type (0, 0), BuildingBlock: KIFKEQ_clean_linker_1, # of connection points: 2
#     Edge 23, Type (0, 0), BuildingBlock: KIFKEQ_clean_linker_1, # of connection points: 2
#     Edge 24, Type (0, 0), BuildingBlock: KIFKEQ_clean_linker_1, # of connection points: 2
#     Edge 25, Type (0, 0), BuildingBlock: KIFKEQ_clean_linker_1, # of connection points: 2
#     Edge 26, Type (0, 0), BuildingBlock: KIFKEQ_clean_linker_1, # of connection points: 2
# Relax obj value: 0.273
# Max RMSD: 0.269
# Mean RMSD: 0.269
data_MOF--net-wnj--node1-OLANEW_clean_sbu_0--edge1-KIFKEQ_clean_linker_1
_symmetry_space_group_name_H-M    P1
_symmetry_Int_Tables_number       1
_symmetry_cell_setting            triclinic
loop_
_symmetry_equiv_pos_as_xyz
'x, y, z'
_cell_length_a     39.146155
_cell_length_b     39.195422
_cell_length_c     45.175767
_cell_angle_alpha  89.961618
_cell_angle_beta   89.97349
_cell_angle_gamma 120.02225
loop_
_atom_site_label
_atom_site_type_symbol
_atom_site_fract_x
_atom_site_fract_y
_atom_site_fract_z
_atom_type_partial_charge
Cd0 Cd 0.19698 0.57258 0.12965 0.0
C1 C 0.22482 0.66405 0.09881 0.0
C2 C 0.08797 0.4603 0.99215 0.0
O3 O 0.10639 0.46162 0.96745 0.0
Cd4 Cd 0.15877 0.6474 0.15994 0.0
C5 C 0.0602 0.42274 0.00654 0.0
C6 C 1.00361 0.36007 0.0404 0.0
C7 C 0.01561 0.39925 0.04732 0.0
N8 N 0.04302 0.42764 0.03034 0.0
C9 C 0.0495 0.38431 0.99813 0.0
C10 C 0.02094 0.35278 0.01546 0.0
Co11 Co 0.05786 0.47857 0.0403 0.0
C12 C 1.00289 0.41479 0.07202 0.0
O13 O 0.97855 0.39188 0.09269 0.0
C14 C 0.0184 0.47518 0.09914 0.0
C15 C 0.05081 0.49375 0.11743 0.0
C16 C 0.05385 0.52112 0.13824 0.0
C17 C 0.01977 0.52385 0.14484 0.0
C18 C 0.98344 0.49996 0.12972 0.0
C19 C 0.98401 0.47675 0.10575 0.0
C20 C 0.09454 0.55135 0.14711 0.0
C21 C 0.11551 0.53241 0.99288 0.0
C22 C 0.15568 0.54635 0.98748 0.0
C23 C 0.09912 0.55524 0.98343 0.0
C24 C 0.12274 0.59247 0.97117 0.0
C25 C 0.1628 0.60673 0.96677 0.0
C26 C 0.17911 0.58296 0.97354 0.0
N27 N 0.09091 0.49348 0.00486 0.0
N28 N 0.02141 0.45498 0.07371 0.0
N29 N 0.10355 0.48708 0.0635 0.0
C30 C 0.11566 0.45873 0.06882 0.0
C31 C 0.14827 0.46153 0.0539 0.0
C32 C 0.0962 0.42952 0.09024 0.0
C33 C 0.16174 0.43517 0.0603 0.0
H34 H 0.16319 0.48455 0.03753 0.0
C35 C 0.14195 0.4059 0.08195 0.0
C36 C 0.10915 0.4029 0.09709 0.0
C37 C 0.19672 0.43851 0.04478 0.0
H38 H 0.07152 0.42816 0.10204 0.0
H39 H 0.15223 0.38556 0.08715 0.0
C40 C 0.08891 0.37254 0.12038 0.0
O41 O 0.21036 0.41395 0.05176 0.0
O42 O 0.21351 0.46357 0.02566 0.0
O43 O 0.05994 0.36957 0.13309 0.0
O44 O 0.10248 0.34806 0.12783 0.0
H45 H 0.23319 0.4157 0.04198 0.0
H46 H 0.08982 0.32819 0.14303 0.0
N47 N 0.07264 0.52935 0.05047 0.0
C48 C 0.049 0.54259 0.04124 0.0
C49 C 0.06138 0.58248 0.04558 0.0
C50 C 0.09814 0.60631 0.05973 0.0
C51 C 0.12177 0.59026 0.06891 0.0
C52 C 0.10775 0.5503 0.06363 0.0
N53 N 0.01555 0.47874 0.01828 0.0
C54 C 0.01528 0.513 0.02363 0.0
O55 O 0.99106 0.52163 0.00974 0.0
C56 C 0.12633 0.52635 0.07082 0.0
O57 O 0.22081 0.5264 0.14996 0.0
O58 O 0.26476 0.58176 0.13168 0.0
C59 C 0.99214 0.45114 0.99574 0.0
C60 C 0.95372 0.42131 0.00244 0.0
C61 C 0.93051 0.39452 0.98053 0.0
C62 C 0.94579 0.39741 0.95203 0.0
C63 C 0.98365 0.42775 0.94459 0.0
C64 C 1.00673 0.45493 0.96663 0.0
O65 O 0.22861 0.63365 0.10042 0.0
O66 O 0.20266 0.66967 0.11644 0.0
O67 O 0.12365 0.54658 0.13956 0.0
O68 O 0.10007 0.58483 0.15485 0.0
O69 O 0.16427 0.54246 0.08053 0.0
C70 C 0.21278 0.63183 0.1953 0.0
O71 O 0.19575 0.65054 0.20316 0.0
O72 O 0.20127 0.61214 0.17154 0.0
C73 C 0.25724 0.54982 0.14431 0.0
H74 H 0.98179 0.33601 0.05367 0.0
H75 H 0.06252 0.37874 0.97892 0.0
H76 H 0.01218 0.32275 0.00954 0.0
H77 H 0.07535 0.4892 0.11355 0.0
H78 H 0.02188 0.54513 0.16107 0.0
H79 H 0.95803 0.45947 0.09238 0.0
H80 H 0.16823 0.52796 0.99287 0.0
H81 H 0.06791 0.54397 0.98394 0.0
H82 H 0.18023 0.63496 0.95593 0.0
H83 H 0.04399 0.59507 0.03767 0.0
H84 H 0.10856 0.6373 0.06321 0.0
H85 H 0.14983 0.60841 0.07956 0.0
H86 H 0.94189 0.41938 0.02446 0.0
H87 H 0.92696 0.37718 0.93504 0.0
H88 H 0.03574 0.47894 0.96108 0.0
Cd89 Cd 0.4456 0.62779 0.79703 0.0
C90 C 0.35126 0.56596 0.76796 0.0
C91 C 0.55775 0.63038 0.65977 0.0
O92 O 0.55645 0.64788 0.6353 0.0
Cd93 Cd 0.37019 0.51564 0.82563 0.0
C94 C 0.59536 0.63997 0.674 0.0
C95 C 0.65804 0.64606 0.70779 0.0
C96 C 0.61883 0.6184 0.71445 0.0
N97 N 0.59043 0.61739 0.69749 0.0
C98 C 0.63382 0.66818 0.66585 0.0
C99 C 0.66536 0.67114 0.68314 0.0
Co100 Co 0.5394 0.58145 0.7076 0.0
C101 C 0.60322 0.59002 0.73909 0.0
O102 O 0.62611 0.58871 0.75981 0.0
C103 C 0.54279 0.54567 0.76646 0.0
C104 C 0.52499 0.56029 0.7848 0.0
C105 C 0.49726 0.53642 0.80564 0.0
C106 C 0.49409 0.49956 0.81271 0.0
C107 C 0.51746 0.48651 0.7976 0.0
C108 C 0.54043 0.50945 0.77324 0.0
C109 C 0.46718 0.5474 0.8138 0.0
C110 C 0.48558 0.58557 0.66042 0.0
C111 C 0.47158 0.61176 0.65536 0.0
C112 C 0.46287 0.54653 0.6506 0.0
C113 C 0.42572 0.53305 0.63821 0.0
C114 C 0.41143 0.55883 0.63407 0.0
C115 C 0.4351 0.59877 0.64128 0.0
N116 N 0.52454 0.59987 0.67234 0.0
N117 N 0.56298 0.56837 0.74083 0.0
N118 N 0.53128 0.61873 0.73095 0.0
C119 C 0.55967 0.65927 0.73597 0.0
C120 C 0.55632 0.68887 0.72126 0.0
C121 C 0.5893 0.66933 0.75706 0.0
C122 C 0.58251 0.72877 0.72757 0.0
H123 H 0.53296 0.68055 0.70517 0.0
C124 C 0.61217 0.73855 0.74891 0.0
C125 C 0.61573 0.70897 0.76383 0.0
C126 C 0.57852 0.76016 0.71231 0.0
H127 H 0.59109 0.64619 0.76872 0.0
H128 H 0.63236 0.76922 0.75405 0.0
C129 C 0.64644 0.7194 0.78687 0.0
O130 O 0.60289 0.79841 0.71924 0.0
O131 O 0.55311 0.75164 0.69346 0.0
O132 O 0.64991 0.69361 0.79937 0.0
O133 O 0.67065 0.75749 0.79432 0.0
H134 H 0.60072 0.81933 0.70964 0.0
H135 H 0.69072 0.76489 0.80937 0.0
N136 N 0.48848 0.5456 0.71792 0.0
C137 C 0.47489 0.50877 0.70854 0.0
C138 C 0.43484 0.48151 0.71281 0.0
C139 C 0.41121 0.49461 0.72706 0.0
C140 C 0.42761 0.53422 0.73644 0.0
C141 C 0.46775 0.5599 0.73124 0.0
N142 N 0.53883 0.53888 0.68548 0.0
C143 C 0.50434 0.50447 0.69084 0.0
O144 O 0.49538 0.47163 0.67685 0.0
C145 C 0.49204 0.6023 0.73851 0.0
O146 O 0.48325 0.69181 0.82667 0.0
O147 O 0.45203 0.69438 0.78849 0.0
C148 C 0.56621 0.54281 0.66277 0.0
C149 C 0.59491 0.53241 0.66886 0.0
C150 C 0.62119 0.53535 0.64663 0.0
C151 C 0.61867 0.54871 0.61841 0.0
C152 C 0.58952 0.55818 0.61163 0.0
C153 C 0.56297 0.5548 0.63397 0.0
O154 O 0.38278 0.59922 0.76998 0.0
O155 O 0.34451 0.5368 0.78435 0.0
O156 O 0.4732 0.58188 0.80672 0.0
O157 O 0.43297 0.51965 0.82043 0.0
O158 O 0.47616 0.62418 0.74841 0.0
C159 C 0.38412 0.58421 0.86277 0.0
O160 O 0.36611 0.54792 0.86912 0.0
O161 O 0.40473 0.59521 0.83937 0.0
C162 C 0.47253 0.71197 0.81111 0.0
H163 H 0.68209 0.64842 0.72112 0.0
H164 H 0.6394 0.68722 0.64693 0.0
H165 H 0.6954 0.69282 0.67746 0.0
H166 H 0.53023 0.58957 0.78083 0.0
H167 H 0.47301 0.48085 0.82929 0.0
H168 H 0.55697 0.49984 0.75984 0.0
H169 H 0.48989 0.64259 0.66108 0.0
H170 H 0.47419 0.52666 0.65092 0.0
H171 H 0.3833 0.54816 0.62311 0.0
H172 H 0.42198 0.4516 0.70475 0.0
H173 H 0.3801 0.47422 0.73046 0.0
H174 H 0.40955 0.54429 0.74714 0.0
H175 H 0.59645 0.52179 0.69069 0.0
H176 H 0.63821 0.54943 0.60107 0.0
H177 H 0.53973 0.56107 0.62883 0.0
Cd178 Cd 0.38897 0.81793 0.46213 0.0
C179 C 0.45267 0.7909 0.42962 0.0
C180 C 0.38245 0.92538 0.32511 0.0
O181 O 0.36527 0.90669 0.30054 0.0
Cd182 Cd 0.50176 0.85714 0.48945 0.0
C183 C 0.37204 0.95266 0.3395 0.0
C184 C 0.36413 0.00778 0.37373 0.0
C185 C 0.39262 0.99728 0.38014 0.0
N186 N 0.39451 0.97059 0.36296 0.0
C187 C 0.34302 0.96186 0.3316 0.0
C188 C 0.33916 0.98971 0.3491 0.0
Co189 Co 0.43117 0.95646 0.37297 0.0
C190 C 0.42099 0.01043 0.40477 0.0
O191 O 0.42184 0.03434 0.42553 0.0
C192 C 0.4672 0.99638 0.43154 0.0
C193 C 0.45443 0.96425 0.44989 0.0
C194 C 0.47999 0.96167 0.46973 0.0
C195 C 0.51698 0.99606 0.47557 0.0
C196 C 0.52831 0.03255 0.46083 0.0
C197 C 0.50302 0.03107 0.43752 0.0
C198 C 0.4704 0.92115 0.47828 0.0
C199 C 0.42867 0.89977 0.32511 0.0
C200 C 0.40322 0.85955 0.31927 0.0
C201 C 0.46783 0.9174 0.31517 0.0
C202 C 0.48212 0.89508 0.3017 0.0
C203 C 0.4571 0.85508 0.29665 0.0
C204 C 0.41701 0.83738 0.30411 0.0
N205 N 0.41335 0.9233 0.33758 0.0
N206 N 0.44337 0.99266 0.40635 0.0
N207 N 0.3944 0.91073 0.39626 0.0
C208 C 0.35391 0.89832 0.40193 0.0
C209 C 0.32406 0.86573 0.38709 0.0
C210 C 0.34418 0.91745 0.4236 0.0
C211 C 0.28421 0.85198 0.39382 0.0
H212 H 0.33216 0.85104 0.37054 0.0
C213 C 0.27475 0.87152 0.41567 0.0
C214 C 0.30461 0.90429 0.43073 0.0
C215 C 0.25253 0.81699 0.37841 0.0
H216 H 0.36755 0.94208 0.43536 0.0
H217 H 0.24412 0.86105 0.42109 0.0
C218 C 0.29455 0.92431 0.4542 0.0
O219 O 0.21432 0.80318 0.3856 0.0
O220 O 0.26078 0.80034 0.35919 0.0
O221 O 0.32061 0.95318 0.46689 0.0
O222 O 0.25651 0.91066 0.46182 0.0
H223 H 0.19322 0.78034 0.37591 0.0
H224 H 0.24934 0.92319 0.47714 0.0
N225 N 0.46771 0.94234 0.38316 0.0
C226 C 0.50456 0.9663 0.37397 0.0
C227 C 0.53245 0.95437 0.3783 0.0
C228 C 0.51991 0.91769 0.39244 0.0
C229 C 0.48025 0.89375 0.40163 0.0
C230 C 0.45393 0.90733 0.39635 0.0
N231 N 0.47347 0.99912 0.35104 0.0
C232 C 0.50829 0.99992 0.3565 0.0
O233 O 0.54117 0.0246 0.34278 0.0
C234 C 0.41141 0.88847 0.40368 0.0
O235 O 0.3225 0.79344 0.48848 0.0
O236 O 0.32525 0.75396 0.45692 0.0
C237 C 0.46932 0.02272 0.32865 0.0
C238 C 0.48014 0.06179 0.33497 0.0
C239 C 0.47826 0.08574 0.31278 0.0
C240 C 0.46534 0.07048 0.28435 0.0
C241 C 0.45602 0.03202 0.2773 0.0
C242 C 0.45809 0.00816 0.29967 0.0
O243 O 0.41815 0.78597 0.43278 0.0
O244 O 0.48135 0.81405 0.44613 0.0
O245 O 0.4365 0.89166 0.4712 0.0
O246 O 0.49885 0.91614 0.48551 0.0
O247 O 0.39002 0.8507 0.41362 0.0
C248 C 0.43315 0.80083 0.528 0.0
O249 O 0.46988 0.82007 0.53272 0.0
O250 O 0.41975 0.80829 0.50491 0.0
C251 C 0.30503 0.75957 0.47625 0.0
H252 H 0.36105 0.02887 0.38724 0.0
H253 H 0.324 0.94811 0.31273 0.0
H254 H 0.31682 0.99723 0.34362 0.0
H255 H 0.42536 0.93942 0.44649 0.0
H256 H 0.53683 0.99365 0.4909 0.0
H257 H 0.51014 0.05617 0.42369 0.0
H258 H 0.37235 0.84604 0.32531 0.0
H259 H 0.48714 0.94865 0.31611 0.0
H260 H 0.46852 0.83885 0.28489 0.0
H261 H 0.56244 0.97205 0.3704 0.0
H262 H 0.54078 0.90761 0.39593 0.0
H263 H 0.47063 0.86579 0.41234 0.0
H264 H 0.49073 0.07363 0.35687 0.0
H265 H 0.46552 0.08977 0.26703 0.0
H266 H 0.45199 0.97878 0.29428 0.0
Cd267 Cd 0.57795 0.19388 0.87297 0.0
C268 C 0.67117 0.22065 0.89865 0.0
C269 C 0.46153 0.08204 0.00925 0.0
O270 O 0.46269 0.10021 0.03401 0.0
Cd271 Cd 0.64947 0.15374 0.83674 0.0
C272 C 0.42404 0.05473 0.99458 0.0
C273 C 0.36159 0.99942 0.95995 0.0
C274 C 0.40085 0.0112 0.95327 0.0
N275 N 0.42914 0.03802 0.97059 0.0
C276 C 0.38552 0.04424 0.00276 0.0
C277 C 0.35411 0.01634 0.98504 0.0
Co278 Co 0.4802 0.05288 0.96077 0.0
C279 C 0.41663 0.99887 0.92848 0.0
O280 O 0.39392 0.97504 0.90754 0.0
C281 C 0.47751 0.01432 0.90189 0.0
C282 C 0.49678 0.04698 0.88388 0.0
C283 C 0.52478 0.05018 0.86357 0.0
C284 C 0.52751 0.01611 0.85704 0.0
C285 C 0.5032 0.97972 0.87194 0.0
C286 C 0.47929 0.98006 0.89549 0.0
C287 C 0.55511 0.09076 0.85458 0.0
C288 C 0.53387 0.11038 0.00803 0.0
C289 C 0.54708 0.15029 0.01352 0.0
C290 C 0.55776 0.09485 0.01675 0.0
C291 C 0.59529 0.11916 0.02835 0.0
C292 C 0.60879 0.15902 0.03281 0.0
C293 C 0.58398 0.17431 0.02675 0.0
N294 N 0.49484 0.08521 0.99647 0.0
N295 N 0.45686 0.01715 0.92709 0.0
N296 N 0.48913 0.09893 0.93789 0.0
C297 C 0.46099 0.11137 0.9327 0.0
C298 C 0.46393 0.14382 0.94787 0.0
C299 C 0.43195 0.0925 0.9111 0.0
C300 C 0.43784 0.15768 0.94157 0.0
H301 H 0.48688 0.15835 0.96432 0.0
C302 C 0.40868 0.13842 0.91979 0.0
C303 C 0.40556 0.10581 0.90438 0.0
C304 C 0.44138 0.19252 0.95734 0.0
H305 H 0.43057 0.06801 0.89907 0.0
H306 H 0.38853 0.14899 0.91468 0.0
C307 C 0.37533 0.08615 0.88095 0.0
O308 O 0.41703 0.20649 0.95052 0.0
O309 O 0.4664 0.20889 0.97654 0.0
O310 O 0.3723 0.05738 0.86798 0.0
O311 O 0.35104 0.10002 0.87368 0.0
H312 H 0.41892 0.22924 0.96045 0.0
H313 H 0.33125 0.08773 0.85839 0.0
N314 N 0.53112 0.06764 0.9507 0.0
C315 C 0.54413 0.04373 0.95965 0.0
C316 C 0.58403 0.05593 0.95527 0.0
C317 C 0.60813 0.09281 0.94134 0.0
C318 C 0.59232 0.11674 0.93241 0.0
C319 C 0.55231 0.10284 0.93771 0.0
N320 N 0.47998 0.01018 0.98246 0.0
C321 C 0.51433 0.00994 0.97713 0.0
O322 O 0.52285 0.98561 0.99096 0.0
C323 C 0.52849 0.12155 0.93059 0.0
O324 O 0.53676 0.21917 0.84683 0.0
O325 O 0.57836 0.25804 0.879 0.0
C326 C 0.45277 0.98711 0.00538 0.0
C327 C 0.42254 0.9487 0.99907 0.0
C328 C 0.39726 0.92507 0.02168 0.0
C329 C 0.40258 0.93978 0.05053 0.0
C330 C 0.43352 0.97734 0.05751 0.0
C331 C 0.45839 1.00135 0.03472 0.0
O332 O 0.64097 0.22484 0.90048 0.0
O333 O 0.67341 0.19848 0.87907 0.0
O334 O 0.55175 0.12029 0.86331 0.0
O335 O 0.58739 0.09564 0.84432 0.0
O336 O 0.54482 0.15949 0.92097 0.0
C337 C 0.63283 0.20954 0.80373 0.0
O338 O 0.64934 0.19069 0.79497 0.0
O339 O 0.61457 0.19971 0.82824 0.0
C340 C 0.55281 0.25274 0.85949 0.0
H341 H 0.33763 0.97811 0.94637 0.0
H342 H 0.3798 0.05697 0.02206 0.0
H343 H 0.32402 0.00777 0.99076 0.0
H344 H 0.49212 0.07147 0.88753 0.0
H345 H 0.54913 0.01826 0.84107 0.0
H346 H 0.46167 0.95399 0.90871 0.0
H347 H 0.5279 0.16217 0.00885 0.0
H348 H 0.54715 0.0638 0.01613 0.0
H349 H 0.63723 0.17704 0.04321 0.0
H350 H 0.59645 0.03831 0.963 0.0
H351 H 0.63913 0.10307 0.93783 0.0
H352 H 0.61071 0.14493 0.9219 0.0
H353 H 0.41923 0.93719 0.97681 0.0
H354 H 0.38361 0.92093 0.06813 0.0
H355 H 0.48297 0.03008 0.04005 0.0
Cd356 Cd 0.82305 0.38522 0.53837 0.0
C357 C 0.79361 0.4454 0.57225 0.0
C358 C 0.93067 0.38101 0.67613 0.0
O359 O 0.91199 0.36339 0.70062 0.0
Cd360 Cd 0.86116 0.49948 0.51268 0.0
C361 C 0.95852 0.37143 0.66162 0.0
C362 C 0.01518 0.36572 0.6276 0.0
C363 C 1.00369 0.39345 0.6212 0.0
N364 N 0.97623 0.39423 0.63823 0.0
C365 C 0.96871 0.34314 0.66951 0.0
C366 C 0.99731 0.34036 0.65209 0.0
Co367 Co 0.96152 0.43054 0.62861 0.0
C368 C 0.01672 0.42221 0.59681 0.0
O369 O 0.04099 0.42373 0.57605 0.0
C370 C 1.00102 0.46689 0.56973 0.0
C371 C 0.96881 0.4523 0.55113 0.0
C372 C 0.96578 0.47584 0.52954 0.0
C373 C 0.99979 0.51245 0.5225 0.0
C374 C 0.0358 0.52559 0.53819 0.0
C375 C 0.03522 0.50293 0.56292 0.0
C376 C 0.92501 0.46541 0.52104 0.0
C377 C 0.90396 0.42631 0.67633 0.0
C378 C 0.86373 0.40037 0.68186 0.0
C379 C 0.92086 0.46538 0.68618 0.0
C380 C 0.89769 0.47925 0.69887 0.0
C381 C 0.85756 0.45381 0.70329 0.0
C382 C 0.84075 0.41382 0.69614 0.0
N383 N 0.92815 0.41176 0.6639 0.0
N384 N 0.99826 0.44396 0.59529 0.0
N385 N 0.91586 0.3938 0.60513 0.0
C386 C 0.90356 0.35334 0.59962 0.0
C387 C 0.87051 0.32351 0.61414 0.0
C388 C 0.92331 0.34361 0.57844 0.0
C389 C 0.85687 0.28371 0.60754 0.0
H390 H 0.8554 0.33158 0.63035 0.0
C391 C 0.87692 0.27427 0.5861 0.0
C392 C 0.91018 0.30409 0.57139 0.0
C393 C 0.82145 0.25207 0.62264 0.0
H394 H 0.94838 0.36692 0.56698 0.0
H395 H 0.8665 0.24369 0.58075 0.0
C396 C 0.9307 0.29401 0.5483 0.0
O397 O 0.8077 0.21392 0.61549 0.0
O398 O 0.80442 0.2603 0.64159 0.0
O399 O 0.96002 0.32002 0.53594 0.0
O400 O 0.91701 0.25603 0.54068 0.0
H401 H 0.78459 0.19285 0.625 0.0
H402 H 0.92984 0.24886 0.5256 0.0
N403 N 0.94691 0.46678 0.61876 0.0
C404 C 0.97063 0.50352 0.62819 0.0
C405 C 0.95845 0.53121 0.62402 0.0
C406 C 0.92182 0.51865 0.60977 0.0
C407 C 0.89815 0.47914 0.60029 0.0
C408 C 0.91195 0.45298 0.6054 0.0
N409 N 1.00379 0.47262 0.65096 0.0
C410 C 1.00427 0.5073 0.64572 0.0
O411 O 0.02863 0.54001 0.65967 0.0
C412 C 0.89324 0.41055 0.59792 0.0
O413 O 0.79879 0.31217 0.52577 0.0
O414 O 0.7558 0.33085 0.52504 0.0
C415 C 0.02751 0.46844 0.6733 0.0
C416 C 0.06698 0.48036 0.66711 0.0
C417 C 0.091 0.47849 0.68921 0.0
C418 C 0.07548 0.46433 0.71738 0.0
C419 C 0.03655 0.45367 0.72441 0.0
C420 C 0.01262 0.45604 0.70217 0.0
O421 O 0.79033 0.41152 0.56972 0.0
O422 O 0.8158 0.47405 0.55527 0.0
O423 O 0.89635 0.43064 0.52723 0.0
O424 O 0.91898 0.49384 0.51621 0.0
O425 O 0.85526 0.38901 0.58814 0.0
C426 C 0.80997 0.43301 0.47382 0.0
O427 O 0.8266 0.46934 0.46785 0.0
O428 O 0.82011 0.42307 0.49749 0.0
C429 C 0.76292 0.30292 0.52156 0.0
H430 H 0.03694 0.36355 0.6142 0.0
H431 H 0.95522 0.32393 0.68836 0.0
H432 H 1.00564 0.31863 0.65758 0.0
H433 H 0.94433 0.42332 0.55534 0.0
H434 H 0.99795 0.53099 0.50553 0.0
H435 H 0.0612 0.51265 0.57655 0.0
H436 H 0.85077 0.36946 0.67624 0.0
H437 H 0.95213 0.48496 0.68569 0.0
H438 H 0.84045 0.46475 0.71442 0.0
H439 H 0.9759 0.56107 0.63212 0.0
H440 H 0.91154 0.53937 0.60642 0.0
H441 H 0.87022 0.46953 0.58953 0.0
H442 H 0.07912 0.4921 0.64545 0.0
H443 H 0.09496 0.46458 0.73457 0.0
H444 H 0.98294 0.44912 0.70753 0.0
Cd445 Cd 0.63102 0.44015 0.20804 0.0
C446 C 0.57124 0.34958 0.24291 0.0
C447 C 0.63609 0.55517 0.34432 0.0
O448 O 0.65356 0.55418 0.3689 0.0
Cd449 Cd 0.51784 0.36476 0.18611 0.0
C450 C 0.64582 0.59257 0.32972 0.0
C451 C 0.65195 0.65487 0.29545 0.0
C452 C 0.62438 0.61564 0.28896 0.0
N453 N 0.62337 0.58742 0.30611 0.0
C454 C 0.67395 0.63106 0.33771 0.0
C455 C 0.67694 0.6624 0.32017 0.0
Co456 Co 0.58708 0.53637 0.29649 0.0
C457 C 0.59584 0.59986 0.26446 0.0
O458 O 0.5944 0.62254 0.24362 0.0
C459 C 0.55082 0.53928 0.23771 0.0
C460 C 0.56455 0.52054 0.21956 0.0
C461 C 0.53978 0.49237 0.19938 0.0
C462 C 0.50305 0.48979 0.19249 0.0
C463 C 0.49133 0.51463 0.20699 0.0
C464 C 0.51491 0.53763 0.23107 0.0
C465 C 0.54965 0.46134 0.19202 0.0
C466 C 0.59164 0.48302 0.34411 0.0
C467 C 0.61818 0.46947 0.34962 0.0
C468 C 0.5525 0.46005 0.35378 0.0
C469 C 0.53923 0.42306 0.36637 0.0
C470 C 0.5653 0.40917 0.37085 0.0
C471 C 0.60533 0.43307 0.36382 0.0
N472 N 0.60563 0.52182 0.33193 0.0
N473 N 0.57402 0.55967 0.26306 0.0
N474 N 0.62397 0.52765 0.27316 0.0
C475 C 0.66441 0.55588 0.26748 0.0
C476 C 0.69437 0.55316 0.2822 0.0
C477 C 0.674 0.58473 0.24579 0.0
C478 C 0.73417 0.57919 0.27531 0.0
H479 H 0.68638 0.53039 0.29877 0.0
C480 C 0.74348 0.60805 0.25336 0.0
C481 C 0.71353 0.61098 0.23842 0.0
C482 C 0.76593 0.57587 0.29062 0.0
H483 H 0.65057 0.58605 0.23415 0.0
H484 H 0.77407 0.62811 0.24777 0.0
C485 C 0.72344 0.64082 0.21475 0.0
O486 O 0.80408 0.60008 0.28319 0.0
O487 O 0.75779 0.55114 0.30998 0.0
O488 O 0.69732 0.64369 0.2022 0.0
O489 O 0.76141 0.66488 0.20679 0.0
H490 H 0.82523 0.59833 0.29282 0.0
H491 H 0.76848 0.68439 0.19132 0.0
N492 N 0.55083 0.48546 0.28668 0.0
C493 C 0.51406 0.47221 0.29627 0.0
C494 C 0.48659 0.43217 0.2925 0.0
C495 C 0.49941 0.40819 0.27851 0.0
C496 C 0.53896 0.42426 0.2689 0.0
C497 C 0.56486 0.46438 0.27361 0.0
N498 N 0.54479 0.53641 0.31864 0.0
C499 C 0.51017 0.50199 0.31375 0.0
O500 O 0.47752 0.49346 0.32794 0.0
C501 C 0.60725 0.48833 0.26602 0.0
O502 O 0.69441 0.47779 0.17735 0.0
O503 O 0.69841 0.44809 0.21593 0.0
C504 C 0.54923 0.56418 0.34106 0.0
C505 C 0.54067 0.59399 0.33438 0.0
C506 C 0.54422 0.6208 0.35631 0.0
C507 C 0.55646 0.61768 0.38483 0.0
C508 C 0.56407 0.58743 0.39214 0.0
C509 C 0.56009 0.5604 0.37009 0.0
O510 O 0.60505 0.37932 0.23771 0.0
O511 O 0.54063 0.34296 0.22844 0.0
O512 O 0.58434 0.46717 0.19821 0.0
O513 O 0.52102 0.42694 0.18749 0.0
O514 O 0.62887 0.47214 0.25618 0.0
C515 C 0.58364 0.37461 0.14459 0.0
O516 O 0.54648 0.35676 0.14224 0.0
O517 O 0.59989 0.39718 0.16647 0.0
C518 C 0.71527 0.46791 0.19286 0.0
H519 H 0.65424 0.67878 0.28199 0.0
H520 H 0.69287 0.63682 0.35673 0.0
H521 H 0.69854 0.69247 0.32574 0.0
H522 H 0.59369 0.5252 0.22335 0.0
H523 H 0.48418 0.46889 0.17594 0.0
H524 H 0.50545 0.55401 0.24481 0.0
H525 H 0.64909 0.48797 0.34405 0.0
H526 H 0.53236 0.47105 0.3532 0.0
H527 H 0.55474 0.38112 0.38189 0.0
H528 H 0.45675 0.41959 0.30078 0.0
H529 H 0.47889 0.37707 0.2755 0.0
H530 H 0.54885 0.40601 0.2584 0.0
H531 H 0.5309 0.59594 0.31232 0.0
H532 H 0.55763 0.63758 0.40199 0.0
H533 H 0.56509 0.53641 0.37559 0.0
H534 H 0.19724 0.69824 0.06112 0.0
H535 H 0.30348 0.69904 0.08743 0.0
H536 H 0.23583 0.75597 0.03007 0.0
H537 H 0.34278 0.75856 0.05821 0.0
H538 H 0.41002 0.86577 0.00495 0.0
H539 H 0.36529 0.79557 0.01428 0.0
H540 H 0.27485 0.8218 0.0415 0.0
H541 H 0.31892 0.89087 0.03087 0.0
C542 C 0.22895 0.71075 0.05995 0.0
C543 C 0.24759 0.69469 0.07673 0.0
C544 C 0.25114 0.74394 0.04235 0.0
C545 C 0.2926 0.76261 0.04199 0.0
C546 C 0.31096 0.74491 0.05753 0.0
C547 C 0.28855 0.71094 0.07449 0.0
C548 C 0.37984 0.85591 0.01147 0.0
C549 C 0.36761 0.88335 0.01712 0.0
C550 C 0.35444 0.81588 0.01737 0.0
C551 C 0.31654 0.80285 0.02915 0.0
C552 C 0.30345 0.83025 0.03213 0.0
C553 C 0.32868 0.87001 0.02606 0.0
H554 H 0.29352 0.58099 0.78227 0.0
H555 H 0.33705 0.54008 0.71095 0.0
H556 H 0.23481 0.5655 0.75321 0.0
H557 H 0.2779 0.52425 0.6816 0.0
H558 H 0.13338 0.44152 0.6824 0.0
H559 H 0.20352 0.47015 0.69426 0.0
H560 H 0.21391 0.58461 0.70339 0.0
H561 H 0.144 0.55596 0.69094 0.0
C562 C 0.29082 0.56963 0.76 0.0
C563 C 0.31952 0.56191 0.74856 0.0
C564 C 0.25745 0.56091 0.74335 0.0
C565 C 0.25213 0.54404 0.71508 0.0
C566 C 0.28151 0.53737 0.70329 0.0
C567 C 0.31516 0.54642 0.71995 0.0
C568 C 0.15132 0.4731 0.68539 0.0
C569 C 0.13385 0.49678 0.68544 0.0
C570 C 0.19128 0.48946 0.69228 0.0
C571 C 0.21389 0.5295 0.6999 0.0
C572 C 0.19703 0.55369 0.69756 0.0
C573 C 0.15728 0.53745 0.69019 0.0
H574 H 0.40861 0.71252 0.41741 0.0
H575 H 0.51397 0.81913 0.39143 0.0
H576 H 0.42943 0.67374 0.38822 0.0
H577 H 0.53376 0.78102 0.36055 0.0
H578 H 0.58704 0.69919 0.36587 0.0
H579 H 0.56093 0.74275 0.37431 0.0
H580 H 0.44592 0.65158 0.34471 0.0
H581 H 0.4724 0.60729 0.33756 0.0
C582 C 0.43551 0.72766 0.40451 0.0
C583 C 0.46015 0.76854 0.40698 0.0
C584 C 0.4474 0.70554 0.38758 0.0
C585 C 0.48377 0.72416 0.37239 0.0
C586 C 0.50622 0.76557 0.37263 0.0
C587 C 0.49486 0.78746 0.39015 0.0
C588 C 0.55653 0.68904 0.36021 0.0
C589 C 0.53162 0.65 0.35134 0.0
C590 C 0.54142 0.71403 0.36492 0.0
C591 C 0.50102 0.70061 0.36059 0.0
C592 C 0.47697 0.66264 0.34881 0.0
C593 C 0.49219 0.63747 0.34425 0.0
H594 H 0.67779 0.2666 0.94717 0.0
H595 H 0.74233 0.22484 0.89525 0.0
H596 H 0.7363 0.30441 0.97827 0.0
H597 H 0.79999 0.26275 0.9253 0.0
H598 H 0.89723 0.31537 0.98404 0.0
H599 H 0.82841 0.26806 0.97289 0.0
H600 H 0.80177 0.36264 0.97245 0.0
H601 H 0.87036 0.40937 0.98498 0.0
C602 C 0.70425 0.2653 0.94247 0.0
C603 C 0.70532 0.24268 0.91867 0.0
C604 C 0.7377 0.28691 0.96027 0.0
C605 C 0.77268 0.28616 0.95459 0.0
C606 C 0.77332 0.26314 0.93101 0.0
C607 C 0.74017 0.24163 0.91345 0.0
C608 C 0.87606 0.32548 0.98309 0.0
C609 C 0.88866 0.36568 0.98534 0.0
C610 C 0.83683 0.29864 0.97629 0.0
C611 C 0.80988 0.31179 0.97088 0.0
C612 C 0.82169 0.35149 0.97645 0.0
C613 C 0.86091 0.37828 0.98371 0.0
H614 H 0.71433 0.40224 0.5806 0.0
H615 H 0.81982 0.50376 0.61286 0.0
H616 H 0.674 0.42176 0.60919 0.0
H617 H 0.77999 0.52208 0.64323 0.0
H618 H 0.70011 0.57767 0.63964 0.0
H619 H 0.74339 0.55137 0.63018 0.0
H620 H 0.64894 0.43449 0.65278 0.0
H621 H 0.60513 0.46136 0.66107 0.0
C622 C 0.72879 0.42792 0.59477 0.0
C623 C 0.76995 0.45187 0.59438 0.0
C624 C 0.70576 0.43907 0.61134 0.0
C625 C 0.72367 0.47395 0.62826 0.0
C626 C 0.76513 0.4957 0.62985 0.0
C627 C 0.788 0.48514 0.61266 0.0
C628 C 0.68916 0.54661 0.64361 0.0
C629 C 0.64951 0.52148 0.65099 0.0
C630 C 0.71395 0.53137 0.63827 0.0
C631 C 0.69965 0.49057 0.64037 0.0
C632 C 0.66076 0.46592 0.65045 0.0
C633 C 0.63583 0.4813 0.65569 0.0
H634 H 0.61234 0.31073 0.24561 0.0
H635 H 0.51944 0.32109 0.28834 0.0
H636 H 0.59331 0.2502 0.27322 0.0
H637 H 0.50162 0.2619 0.31734 0.0
H638 H 0.43853 0.12532 0.3085 0.0
H639 H 0.46736 0.19575 0.30074 0.0
H640 H 0.58346 0.21222 0.31761 0.0
H641 H 0.55399 0.14101 0.32481 0.0
C642 C 0.58894 0.30085 0.26189 0.0
C643 C 0.567 0.32001 0.26478 0.0
C644 C 0.57807 0.26628 0.27783 0.0
C645 C 0.54548 0.25083 0.29721 0.0
C646 C 0.52622 0.27247 0.3021 0.0
C647 C 0.53651 0.30644 0.28569 0.0
C648 C 0.47 0.14431 0.31165 0.0
C649 C 0.49411 0.12815 0.31734 0.0
C650 C 0.48667 0.18472 0.30727 0.0
C651 C 0.52788 0.20975 0.30836 0.0
C652 C 0.5517 0.19373 0.31634 0.0
C653 C 0.53488 0.15315 0.32086 0.0
H654 H 0.4191 0.45651 0.1835 0.0
H655 H 0.48135 0.57924 0.20848 0.0
H656 H 0.36269 0.46305 0.16781 0.0
H657 H 0.42496 0.58518 0.19425 0.0
H658 H 0.33687 0.59972 0.13927 0.0
H659 H 0.39095 0.58942 0.15316 0.0
H660 H 0.30766 0.47171 0.18264 0.0
H661 H 0.25296 0.48203 0.16811 0.0
C662 C 0.421 0.4849 0.18575 0.0
C663 C 0.45539 0.51725 0.19757 0.0
C664 C 0.38822 0.48856 0.17699 0.0
C665 C 0.38871 0.52477 0.17947 0.0
C666 C 0.42308 0.55687 0.19137 0.0
C667 C 0.45559 0.55324 0.20009 0.0
C668 C 0.32979 0.57147 0.14862 0.0
C669 C 0.29009 0.54184 0.15255 0.0
C670 C 0.36113 0.56561 0.1569 0.0
C671 C 0.35433 0.52978 0.16952 0.0
C672 C 0.31454 0.4997 0.17295 0.0
C673 C 0.28297 0.50568 0.16473 0.0
H674 H 0.45986 0.76404 0.77848 0.0
H675 H 0.50387 0.75294 0.86324 0.0
H676 H 0.46919 0.82806 0.79297 0.0
H677 H 0.51408 0.8175 0.87771 0.0
H678 H 0.49023 0.9159 0.90725 0.0
H679 H 0.48411 0.85354 0.8925 0.0
H680 H 0.51183 0.89504 0.80236 0.0
H681 H 0.5155 0.95662 0.81677 0.0
C682 C 0.47198 0.77539 0.80017 0.0
C683 C 0.4812 0.75291 0.81955 0.0
C684 C 0.4776 0.81256 0.80852 0.0
C685 C 0.49251 0.82881 0.8367 0.0
C686 C 0.50207 0.80636 0.85597 0.0
C687 C 0.4966 0.76921 0.84754 0.0
C688 C 0.49459 0.91189 0.88415 0.0
C689 C 0.50293 0.94201 0.86332 0.0
C690 C 0.49165 0.87586 0.87568 0.0
C691 C 0.4972 0.86831 0.84602 0.0
C692 C 0.50654 0.89881 0.82532 0.0
C693 C 0.50929 0.93479 0.83377 0.0
H694 H 0.09429 0.583 0.57356 0.0
H695 H 0.06381 0.55231 0.48189 0.0
H696 H 0.1573 0.63942 0.5586 0.0
H697 H 0.12644 0.60916 0.46686 0.0
H698 H 0.26049 0.6866 0.45071 0.0
H699 H 0.19594 0.63262 0.46538 0.0
H700 H 0.19117 0.70406 0.5361 0.0
H701 H 0.25626 0.75816 0.52146 0.0
C702 C 0.10085 0.58821 0.55016 0.0
C703 C 0.07352 0.56247 0.52905 0.0
C704 C 0.1371 0.62105 0.5415 0.0
C705 C 0.14772 0.6293 0.51137 0.0
C706 C 0.12005 0.6039 0.49028 0.0
C707 C 0.08364 0.5713 0.49893 0.0
C708 C 0.24568 0.69109 0.46929 0.0
C709 C 0.264 0.72725 0.4847 0.0
C710 C 0.20827 0.65994 0.47769 0.0
C711 C 0.18761 0.66344 0.50202 0.0
C712 C 0.20591 0.69969 0.51743 0.0
C713 C 0.24332 0.73104 0.50887 0.0
H714 H 0.5148 0.45772 0.85396 0.0
H715 H 0.52172 0.43067 0.76238 0.0
H716 H 0.5205 0.40092 0.86914 0.0
H717 H 0.52855 0.37466 0.77752 0.0
H718 H 0.50882 0.25574 0.81257 0.0
H719 H 0.4976 0.30959 0.79812 0.0
H720 H 0.56653 0.37774 0.87284 0.0
H721 H 0.57737 0.32387 0.8873 0.0
C722 C 0.51721 0.43958 0.83695 0.0
C723 C 0.51796 0.44947 0.80682 0.0
C724 C 0.52101 0.40703 0.84572 0.0
C725 C 0.52537 0.38276 0.82472 0.0
C726 C 0.52505 0.39207 0.79456 0.0
C727 C 0.52153 0.42476 0.78581 0.0
C728 C 0.52133 0.28205 0.82609 0.0
C729 C 0.54392 0.28497 0.85127 0.0
C730 C 0.51516 0.31331 0.81763 0.0
C731 C 0.53106 0.34862 0.83416 0.0
C732 C 0.5532 0.35119 0.85958 0.0
C733 C 0.55964 0.32012 0.86787 0.0
H734 H 0.761 0.23084 0.52425 0.0
H735 H 0.69031 0.28223 0.49895 0.0
H736 H 0.70654 0.16528 0.51013 0.0
H737 H 0.63666 0.21749 0.48469 0.0
H738 H 0.56627 0.10569 0.43083 0.0
H739 H 0.62127 0.16738 0.44597 0.0
H740 H 0.63579 0.113 0.52406 0.0
H741 H 0.57872 0.05062 0.5102 0.0
C742 C 0.73404 0.22832 0.51558 0.0
C743 C 0.73047 0.26226 0.5127 0.0
C744 C 0.70261 0.19058 0.50764 0.0
C745 C 0.66691 0.18569 0.496 0.0
C746 C 0.6636 0.21974 0.49314 0.0
C747 C 0.69455 0.25711 0.50151 0.0
C748 C 0.5799 0.10575 0.45155 0.0
C749 C 0.56586 0.07125 0.4691 0.0
C750 C 0.61235 0.14204 0.46019 0.0
C751 C 0.63326 0.14583 0.48645 0.0
C752 C 0.62073 0.11152 0.50359 0.0
C753 C 0.58755 0.07518 0.49531 0.0
H754 H 0.96033 0.51166 0.18512 0.0
H755 H 0.91915 0.48684 0.09477 0.0
H756 H 0.89871 0.50767 0.19991 0.0
H757 H 0.85663 0.48021 0.10993 0.0
H758 H 0.75518 0.49847 0.14008 0.0
H759 H 0.81973 0.50889 0.12498 0.0
H760 H 0.83217 0.46554 0.20987 0.0
H761 H 0.76827 0.45613 0.22499 0.0
C762 C 0.9384 0.50547 0.16822 0.0
C763 C 0.94556 0.49937 0.13858 0.0
C764 C 0.90235 0.5025 0.1769 0.0
C765 C 0.87164 0.49311 0.15638 0.0
C766 C 0.87909 0.48778 0.12664 0.0
C767 C 0.91524 0.491 0.11793 0.0
C768 C 0.77189 0.49161 0.15568 0.0
C769 C 0.75617 0.47668 0.18393 0.0
C770 C 0.80903 0.4972 0.14688 0.0
C771 C 0.83204 0.48816 0.166 0.0
C772 C 0.8163 0.47361 0.1944 0.0
C773 C 0.77918 0.46793 0.20312 0.0
H774 H 0.0469 0.4052 0.76225 0.0
H775 H 0.99812 0.48242 0.75789 0.0
H776 H 0.03722 0.39971 0.81571 0.0
H777 H 0.9873 0.47606 0.81145 0.0
H778 H 0.01695 0.49431 0.91013 0.0
H779 H 0.02771 0.4983 0.85654 0.0
H780 H 0.988 0.37377 0.85426 0.0
H781 H 0.97832 0.37013 0.90772 0.0
C782 C 0.03346 0.42048 0.7727 0.0
C783 C 0.02347 0.44441 0.75583 0.0
C784 C 0.02782 0.41727 0.80337 0.0
C785 C 0.01202 0.43792 0.81803 0.0
C786 C 1.00032 0.46042 0.80097 0.0
C787 C 1.00587 0.46353 0.7702 0.0
C788 C 0.01141 0.46804 0.89823 0.0
C789 C 0.99665 0.43189 0.91314 0.0
C790 C 0.01693 0.47014 0.86746 0.0
C791 C 1.00809 0.43621 0.85096 0.0
C792 C 0.99515 0.4005 0.86617 0.0
C793 C 0.9895 0.39838 0.89683 0.0
H794 H 0.61601 0.64487 0.42927 0.0
H795 H 0.53068 0.52057 0.42612 0.0
H796 H 0.62147 0.64076 0.48273 0.0
H797 H 0.53699 0.51607 0.47966 0.0
H798 H 0.52238 0.52975 0.5781 0.0
H799 H 0.51822 0.53739 0.5247 0.0
H800 H 0.64453 0.61483 0.52111 0.0
H801 H 0.64838 0.6083 0.57443 0.0
C802 C 0.59889 0.6165 0.44001 0.0
C803 C 0.57273 0.58308 0.42352 0.0
C804 C 0.60208 0.61411 0.47065 0.0
C805 C 0.57921 0.5782 0.48562 0.0
C806 C 0.55439 0.54437 0.46892 0.0
C807 C 0.55126 0.54676 0.43818 0.0
C808 C 0.54907 0.54915 0.56599 0.0
C809 C 0.58573 0.56817 0.58046 0.0
C810 C 0.54682 0.55301 0.53531 0.0
C811 C 0.58115 0.5761 0.51848 0.0
C812 C 0.61749 0.59679 0.53328 0.0
C813 C 0.61972 0.59293 0.56386 0.0
H814 H 0.49112 0.9988 0.24567 0.0
H815 H 0.40698 0.03882 0.23755 0.0
H816 H 0.48853 0.98839 0.1924 0.0
H817 H 0.40336 0.02738 0.18415 0.0
H818 H 0.43723 0.0414 0.08565 0.0
H819 H 0.44145 0.05348 0.13929 0.0
H820 H 0.44836 0.94805 0.15387 0.0
H821 H 0.44547 0.93712 0.10082 0.0
C822 C 0.47126 1.00437 0.23255 0.0
C823 C 0.44917 0.01948 0.24579 0.0
C824 C 0.46985 0.99859 0.20193 0.0
C825 C 0.44597 0.00735 0.18378 0.0
C826 C 0.42277 0.02116 0.19725 0.0
C827 C 0.42446 0.02727 0.22788 0.0
C828 C 0.44051 0.02148 0.10045 0.0
C829 C 0.44119 0.98846 0.0892 0.0
C830 C 0.44233 0.02796 0.13115 0.0
C831 C 0.44509 1.00162 0.15104 0.0
C832 C 0.44679 0.96927 0.13941 0.0
C833 C 0.44497 0.96287 0.10897 0.0
H834 H 0.24986 0.65115 0.98087 0.0
H835 H 0.19437 0.53823 0.93684 0.0
H836 H 0.31193 0.66998 0.95423 0.0
H837 H 0.25548 0.55734 0.91003 0.0
H838 H 0.34628 0.62029 0.84158 0.0
H839 H 0.30163 0.63269 0.87158 0.0
H840 H 0.35235 0.61588 0.95109 0.0
H841 H 0.39596 0.60192 0.92106 0.0
C842 C 0.25117 0.63041 0.96573 0.0
C843 C 0.21778 0.59315 0.96104 0.0
C844 C 0.28629 0.64126 0.95045 0.0
C845 C 0.28774 0.61527 0.92989 0.0
C846 C 0.25457 0.57792 0.92559 0.0
C847 C 0.21995 0.56683 0.94118 0.0
C848 C 0.34965 0.62184 0.86545 0.0
C849 C 0.37426 0.61016 0.87922 0.0
C850 C 0.32405 0.62877 0.88255 0.0
C851 C 0.32382 0.62508 0.91346 0.0
C852 C 0.35251 0.61924 0.92727 0.0
C853 C 0.37743 0.61136 0.91015 0.0
H854 H 0.39457 0.72562 0.50955 0.0
H855 H 0.42121 0.79881 0.58706 0.0
H856 H 0.38229 0.66973 0.54096 0.0
H857 H 0.40741 0.74248 0.61853 0.0
H858 H 0.36611 0.60013 0.64769 0.0
H859 H 0.34771 0.64381 0.62134 0.0
H860 H 0.46235 0.70306 0.57981 0.0
H861 H 0.48095 0.66047 0.60617 0.0
C862 C 0.395 0.72893 0.5334 0.0
C863 C 0.40884 0.76618 0.54613 0.0
C864 C 0.38803 0.69705 0.55129 0.0
C865 C 0.39391 0.7022 0.58197 0.0
C866 C 0.4023 0.73801 0.59492 0.0
C867 C 0.41017 0.7701 0.577 0.0
C868 C 0.38737 0.62293 0.63321 0.0
C869 C 0.42503 0.62746 0.62912 0.0
C870 C 0.37678 0.64748 0.61813 0.0
C871 C 0.40356 0.676 0.59849 0.0
C872 C 0.44129 0.68087 0.5948 0.0
C873 C 0.45205 0.65695 0.61011 0.0
H874 H 0.28519 0.6732 0.17165 0.0
H875 H 0.22307 0.61631 0.2519 0.0
H876 H 0.34279 0.71855 0.20081 0.0
H877 H 0.28128 0.66071 0.28099 0.0
H878 H 0.42148 0.76965 0.30549 0.0
H879 H 0.37914 0.70809 0.2783 0.0
H880 H 0.30918 0.75724 0.24618 0.0
H881 H 0.35066 0.81807 0.27324 0.0
C882 C 0.28498 0.66845 0.19531 0.0
C883 C 0.24995 0.64149 0.20971 0.0
C884 C 0.31782 0.69451 0.21196 0.0
C885 C 0.31605 0.69291 0.24299 0.0
C886 C 0.2832 0.66205 0.25705 0.0
C887 C 0.25005 0.63659 0.24044 0.0
C888 C 0.39671 0.76692 0.29288 0.0
C889 C 0.38903 0.79836 0.29163 0.0
C890 C 0.37285 0.73202 0.27731 0.0
C891 C 0.34165 0.72866 0.26 0.0
C892 C 0.33349 0.75963 0.25926 0.0
C893 C 0.35682 0.7941 0.27504 0.0
H894 H 0.62734 0.34209 0.15997 0.0
H895 H 0.5871 0.3805 0.08494 0.0
H896 H 0.64012 0.29979 0.12747 0.0
H897 H 0.60143 0.33941 0.05226 0.0
H898 H 0.6459 0.24795 0.0144 0.0
H899 H 0.66294 0.30941 0.04124 0.0
H900 H 0.56058 0.24484 0.09694 0.0
H901 H 0.54299 0.1844 0.06984 0.0
C902 C 0.62378 0.34343 0.13627 0.0
C903 C 0.60615 0.36408 0.12468 0.0
C904 C 0.63109 0.31934 0.11777 0.0
C905 C 0.62174 0.31673 0.08757 0.0
C906 C 0.60923 0.34155 0.07546 0.0
C907 C 0.60096 0.36484 0.09407 0.0
C908 C 0.62702 0.24737 0.03217 0.0
C909 C 0.59298 0.21202 0.04001 0.0
C910 C 0.63689 0.28211 0.04753 0.0
C911 C 0.61336 0.28114 0.07127 0.0
C912 C 0.57931 0.24582 0.07888 0.0
C913 C 0.56903 0.21157 0.06323 0.0
H914 H 0.67054 0.28251 0.82689 0.0
H915 H 0.62104 0.21835 0.74595 0.0
H916 H 0.71685 0.34017 0.79813 0.0
H917 H 0.66632 0.27649 0.71721 0.0
H918 H 0.76976 0.4099 0.68663 0.0
H919 H 0.70728 0.36717 0.71298 0.0
H920 H 0.76418 0.31465 0.76165 0.0
H921 H 0.82565 0.35597 0.73493 0.0
C922 C 0.66756 0.28174 0.80301 0.0
C923 C 0.64256 0.2462 0.78847 0.0
C924 C 0.6942 0.31459 0.7866 0.0
C925 C 0.69505 0.3123 0.75561 0.0
C926 C 0.66583 0.27882 0.74109 0.0
C927 C 0.63985 0.24569 0.75749 0.0
C928 C 0.76844 0.38875 0.7027 0.0
C929 C 0.80201 0.38563 0.70864 0.0
C930 C 0.73311 0.36482 0.71785 0.0
C931 C 0.73163 0.33863 0.73963 0.0
C932 C 0.76508 0.33529 0.74524 0.0
C933 C 0.7999 0.35838 0.72971 0.0
H934 H 0.60853 0.36535 0.35591 0.0
H935 H 0.66528 0.47773 0.40067 0.0
H936 H 0.65222 0.34678 0.38209 0.0
H937 H 0.70771 0.45884 0.42709 0.0
H938 H 0.73571 0.39425 0.49483 0.0
H939 H 0.67869 0.38203 0.46484 0.0
H940 H 0.74738 0.40244 0.38541 0.0
H941 H 0.80484 0.41617 0.41542 0.0
C942 C 0.63052 0.38603 0.37113 0.0
C943 C 0.63408 0.42309 0.37613 0.0
C944 C 0.65506 0.37532 0.38615 0.0
C945 C 0.68247 0.40121 0.40681 0.0
C946 C 0.68629 0.43833 0.41145 0.0
C947 C 0.6625 0.4493 0.39609 0.0
C948 C 0.73782 0.39348 0.47093 0.0
C949 C 0.77444 0.40616 0.45727 0.0
C950 C 0.70531 0.38672 0.45382 0.0
C951 C 0.70905 0.39152 0.42298 0.0
C952 C 0.74393 0.39826 0.40916 0.0
C953 C 0.77667 0.40592 0.42629 0.0
loop_
_geom_bond_atom_site_label_1
_geom_bond_atom_site_label_2
_geom_bond_distance
_geom_bond_site_symmetry_2
_ccdc_geom_bond_type
Cd0 O57 2.350 . S
Cd0 O58 2.277 . S
Cd0 O65 2.173 . S
Cd0 O67 2.263 . S
Cd0 O69 2.366 . S
Cd0 O72 2.329 . S
C1 O65 1.277 . S
C1 O66 1.230 . S
C2 O3 1.246 . S
C2 C5 1.481 1_556 S
C2 N27 1.329 . S
O3 C2 1.246 . S
Cd4 O66 2.250 . S
Cd4 O68 2.308 . S
Cd4 O71 2.352 . S
C5 C2 1.481 1_554 S
C5 N8 1.327 . S
C5 C9 1.407 . S
C6 C7 1.346 . S
C6 C10 1.390 . S
C6 H74 0.930 1_455 S
C7 C6 1.346 . S
C7 N8 1.342 . S
C7 C12 1.516 . S
N8 C5 1.327 . S
N8 C7 1.342 . S
N8 Co11 1.864 . S
C9 C5 1.407 . S
C9 C10 1.364 . S
C9 H75 0.930 1_554 S
C10 C6 1.390 . S
C10 C9 1.364 . S
C10 H76 0.931 . S
Co11 N8 1.864 . S
Co11 N27 1.955 1_554 S
Co11 N28 1.958 . S
Co11 N29 1.953 . S
Co11 N47 1.869 . S
Co11 N53 1.974 . S
C12 C7 1.516 . S
C12 O13 1.238 . S
C12 N28 1.324 . S
O13 C12 1.238 . S
C14 C15 1.394 . S
C14 C19 1.395 . S
C14 N28 1.427 . S
C15 C14 1.394 . S
C15 C16 1.380 . S
C15 H77 0.929 . S
C16 C15 1.380 . S
C16 C17 1.384 . S
C16 C20 1.495 . S
C17 C16 1.384 . S
C17 C18 1.382 . S
C17 H78 0.930 . S
C18 C17 1.382 . S
C18 C19 1.398 . S
C19 C14 1.395 . S
C19 C18 1.398 . S
C19 H79 0.910 1_455 S
C20 C16 1.495 . S
C20 O67 1.258 . S
C20 O68 1.274 . S
C21 C22 1.385 . S
C21 C23 1.381 . S
C21 N27 1.432 . S
C22 C21 1.385 . S
C22 C26 1.388 . S
C22 H80 0.929 . S
C23 C21 1.381 . S
C23 C24 1.371 . S
C23 H81 0.932 . S
C24 C23 1.371 . S
C24 C25 1.400 . S
C25 C24 1.400 . S
C25 C26 1.351 . S
C25 H82 0.930 . S
C26 C22 1.388 . S
C26 C25 1.351 . S
N27 C2 1.329 . S
N27 Co11 1.955 1_556 S
N27 C21 1.432 . S
N28 Co11 1.958 . S
N28 C12 1.324 . S
N28 C14 1.427 . S
N29 Co11 1.953 . S
N29 C30 1.436 . S
N29 C56 1.316 . S
C30 N29 1.436 . S
C30 C31 1.421 . S
C30 C32 1.360 . S
C31 C30 1.421 . S
C31 C33 1.379 . S
C31 H34 0.929 . S
C32 C30 1.360 . S
C32 C36 1.393 . S
C32 H38 0.931 . S
C33 C31 1.379 . S
C33 C35 1.417 . S
C33 C37 1.505 . S
H34 C31 0.929 . S
C35 C33 1.417 . S
C35 C36 1.352 . S
C35 H39 0.929 . S
C36 C32 1.393 . S
C36 C35 1.352 . S
C36 C40 1.482 . S
C37 C33 1.505 . S
C37 O41 1.259 . S
C37 O42 1.229 . S
H38 C32 0.931 . S
H39 C35 0.929 . S
C40 C36 1.482 . S
C40 O43 1.207 . S
C40 O44 1.289 . S
O41 C37 1.259 . S
O41 H45 0.822 . S
O42 C37 1.229 . S
O43 C40 1.207 . S
O44 C40 1.289 . S
O44 H46 0.819 . S
H45 O41 0.822 . S
H46 O44 0.819 . S
N47 Co11 1.869 . S
N47 C48 1.330 . S
N47 C52 1.325 . S
C48 N47 1.330 . S
C48 C49 1.359 . S
C48 C54 1.512 . S
C49 C48 1.359 . S
C49 C50 1.366 . S
C49 H83 0.915 1_554 S
C50 C49 1.366 . S
C50 C51 1.415 . S
C50 H84 0.932 . S
C51 C50 1.415 . S
C51 C52 1.366 . S
C51 H85 0.931 . S
C52 N47 1.325 . S
C52 C51 1.366 . S
C52 C56 1.516 . S
N53 Co11 1.974 . S
N53 C54 1.313 . S
N53 C59 1.423 1_554 S
C54 C48 1.512 . S
C54 N53 1.313 . S
C54 O55 1.247 1_554 S
O55 C54 1.247 1_556 S
C56 N29 1.316 . S
C56 C52 1.516 . S
C56 O69 1.263 . S
O57 Cd0 2.350 . S
O57 C73 1.270 . S
O58 Cd0 2.277 . S
O58 C73 1.248 . S
C59 N53 1.423 1_556 S
C59 C60 1.370 1_456 S
C59 C64 1.403 . S
C60 C59 1.370 1_654 S
C60 C61 1.389 1_554 S
C60 H86 0.931 . S
C61 C60 1.389 1_556 S
C61 C62 1.389 . S
C62 C61 1.389 . S
C62 C63 1.379 . S
C62 H87 0.929 . S
C63 C62 1.379 . S
C63 C64 1.405 1_655 S
C64 C59 1.403 . S
C64 C63 1.405 1_455 S
C64 H88 0.932 . S
O65 Cd0 2.173 . S
O65 C1 1.277 . S
O66 C1 1.230 . S
O66 Cd4 2.250 . S
O67 Cd0 2.263 . S
O67 C20 1.258 . S
O68 Cd4 2.308 . S
O68 C20 1.274 . S
O69 Cd0 2.366 . S
O69 C56 1.263 . S
C70 O71 1.235 . S
C70 O72 1.270 . S
O71 Cd4 2.352 . S
O71 C70 1.235 . S
O72 Cd0 2.329 . S
O72 C70 1.270 . S
C73 O57 1.270 . S
C73 O58 1.248 . S
H74 C6 0.930 1_655 S
H75 C9 0.930 1_556 S
H76 C10 0.931 . S
H77 C15 0.929 . S
H78 C17 0.930 . S
H79 C19 0.910 1_655 S
H80 C22 0.929 . S
H81 C23 0.932 . S
H82 C25 0.930 . S
H83 C49 0.915 1_556 S
H84 C50 0.932 . S
H85 C51 0.931 . S
H86 C60 0.931 . S
H87 C62 0.929 . S
H88 C64 0.932 . S
Cd89 O146 2.350 . S
Cd89 O147 2.277 . S
Cd89 O154 2.173 . S
Cd89 O156 2.263 . S
Cd89 O158 2.366 . S
Cd89 O161 2.329 . S
C90 O154 1.277 . S
C90 O155 1.230 . S
C91 O92 1.246 . S
C91 C94 1.481 . S
C91 N116 1.329 . S
O92 C91 1.246 . S
Cd93 O155 2.250 . S
Cd93 O157 2.308 . S
Cd93 O160 2.352 . S
C94 C91 1.481 . S
C94 N97 1.327 . S
C94 C98 1.407 . S
C95 C96 1.346 . S
C95 C99 1.390 . S
C95 H163 0.930 . S
C96 C95 1.346 . S
C96 N97 1.342 . S
C96 C101 1.516 . S
N97 C94 1.327 . S
N97 C96 1.342 . S
N97 Co100 1.864 . S
C98 C94 1.407 . S
C98 C99 1.364 . S
C98 H164 0.930 . S
C99 C95 1.390 . S
C99 C98 1.364 . S
C99 H165 0.931 . S
Co100 N97 1.864 . S
Co100 N116 1.955 . S
Co100 N117 1.958 . S
Co100 N118 1.953 . S
Co100 N136 1.869 . S
Co100 N142 1.974 . S
C101 C96 1.516 . S
C101 O102 1.238 . S
C101 N117 1.324 . S
O102 C101 1.238 . S
C103 C104 1.394 . S
C103 C108 1.395 . S
C103 N117 1.427 . S
C104 C103 1.394 . S
C104 C105 1.380 . S
C104 H166 0.929 . S
C105 C104 1.380 . S
C105 C106 1.384 . S
C105 C109 1.495 . S
C106 C105 1.384 . S
C106 C107 1.382 . S
C106 H167 0.930 . S
C107 C106 1.382 . S
C107 C108 1.398 . S
C108 C103 1.395 . S
C108 C107 1.398 . S
C108 H168 0.930 . S
C109 C105 1.495 . S
C109 O156 1.258 . S
C109 O157 1.274 . S
C110 C111 1.385 . S
C110 C112 1.381 . S
C110 N116 1.432 . S
C111 C110 1.385 . S
C111 C115 1.388 . S
C111 H169 0.929 . S
C112 C110 1.381 . S
C112 C113 1.371 . S
C112 H170 0.932 . S
C113 C112 1.371 . S
C113 C114 1.400 . S
C114 C113 1.400 . S
C114 C115 1.351 . S
C114 H171 0.930 . S
C115 C111 1.388 . S
C115 C114 1.351 . S
N116 C91 1.329 . S
N116 Co100 1.955 . S
N116 C110 1.432 . S
N117 Co100 1.958 . S
N117 C101 1.324 . S
N117 C103 1.427 . S
N118 Co100 1.953 . S
N118 C119 1.436 . S
N118 C145 1.316 . S
C119 N118 1.436 . S
C119 C120 1.421 . S
C119 C121 1.360 . S
C120 C119 1.421 . S
C120 C122 1.379 . S
C120 H123 0.929 . S
C121 C119 1.360 . S
C121 C125 1.393 . S
C121 H127 0.931 . S
C122 C120 1.379 . S
C122 C124 1.417 . S
C122 C126 1.505 . S
H123 C120 0.929 . S
C124 C122 1.417 . S
C124 C125 1.352 . S
C124 H128 0.929 . S
C125 C121 1.393 . S
C125 C124 1.352 . S
C125 C129 1.482 . S
C126 C122 1.505 . S
C126 O130 1.259 . S
C126 O131 1.229 . S
H127 C121 0.931 . S
H128 C124 0.929 . S
C129 C125 1.482 . S
C129 O132 1.207 . S
C129 O133 1.289 . S
O130 C126 1.259 . S
O130 H134 0.822 . S
O131 C126 1.229 . S
O132 C129 1.207 . S
O133 C129 1.289 . S
O133 H135 0.819 . S
H134 O130 0.822 . S
H135 O133 0.819 . S
N136 Co100 1.869 . S
N136 C137 1.330 . S
N136 C141 1.325 . S
C137 N136 1.330 . S
C137 C138 1.359 . S
C137 C143 1.504 . S
C138 C137 1.359 . S
C138 C139 1.366 . S
C138 H172 0.929 . S
C139 C138 1.366 . S
C139 C140 1.415 . S
C139 H173 0.932 . S
C140 C139 1.415 . S
C140 C141 1.366 . S
C140 H174 0.931 . S
C141 N136 1.325 . S
C141 C140 1.366 . S
C141 C145 1.516 . S
N142 Co100 1.974 . S
N142 C143 1.309 . S
N142 C148 1.423 . S
C143 C137 1.504 . S
C143 N142 1.309 . S
C143 O144 1.258 . S
O144 C143 1.258 . S
C145 N118 1.316 . S
C145 C141 1.516 . S
C145 O158 1.263 . S
O146 Cd89 2.350 . S
O146 C162 1.270 . S
O147 Cd89 2.277 . S
O147 C162 1.248 . S
C148 N142 1.423 . S
C148 C149 1.370 . S
C148 C153 1.403 . S
C149 C148 1.370 . S
C149 C150 1.389 . S
C149 H175 0.931 . S
C150 C149 1.389 . S
C150 C151 1.389 . S
C151 C150 1.389 . S
C151 C152 1.379 . S
C151 H176 0.929 . S
C152 C151 1.379 . S
C152 C153 1.405 . S
C153 C148 1.403 . S
C153 C152 1.405 . S
C153 H177 0.932 . S
O154 Cd89 2.173 . S
O154 C90 1.277 . S
O155 C90 1.230 . S
O155 Cd93 2.250 . S
O156 Cd89 2.263 . S
O156 C109 1.258 . S
O157 Cd93 2.308 . S
O157 C109 1.274 . S
O158 Cd89 2.366 . S
O158 C145 1.263 . S
C159 O160 1.235 . S
C159 O161 1.270 . S
O160 Cd93 2.352 . S
O160 C159 1.235 . S
O161 Cd89 2.329 . S
O161 C159 1.270 . S
C162 O146 1.270 . S
C162 O147 1.248 . S
H163 C95 0.930 . S
H164 C98 0.930 . S
H165 C99 0.931 . S
H166 C104 0.929 . S
H167 C106 0.930 . S
H168 C108 0.930 . S
H169 C111 0.929 . S
H170 C112 0.932 . S
H171 C114 0.930 . S
H172 C138 0.929 . S
H173 C139 0.932 . S
H174 C140 0.931 . S
H175 C149 0.931 . S
H176 C151 0.929 . S
H177 C153 0.932 . S
Cd178 O235 2.350 . S
Cd178 O236 2.277 . S
Cd178 O243 2.173 . S
Cd178 O245 2.263 . S
Cd178 O247 2.366 . S
Cd178 O250 2.329 . S
C179 O243 1.277 . S
C179 O244 1.230 . S
C180 O181 1.246 . S
C180 C183 1.481 . S
C180 N205 1.329 . S
O181 C180 1.246 . S
Cd182 O244 2.250 . S
Cd182 O246 2.308 . S
Cd182 O249 2.352 . S
C183 C180 1.481 . S
C183 N186 1.327 . S
C183 C187 1.407 . S
C184 C185 1.346 . S
C184 C188 1.390 . S
C184 H252 0.930 1_565 S
C185 C184 1.346 . S
C185 N186 1.342 . S
C185 C190 1.516 . S
N186 C183 1.327 . S
N186 C185 1.342 . S
N186 Co189 1.864 . S
C187 C183 1.407 . S
C187 C188 1.364 . S
C187 H253 0.930 . S
C188 C184 1.390 . S
C188 C187 1.364 . S
C188 H254 0.931 . S
Co189 N186 1.864 . S
Co189 N205 1.955 . S
Co189 N206 1.958 . S
Co189 N207 1.953 . S
Co189 N225 1.869 . S
Co189 N231 1.974 . S
C190 C185 1.516 . S
C190 O191 1.238 . S
C190 N206 1.324 . S
O191 C190 1.238 . S
C192 C193 1.394 . S
C192 C197 1.395 . S
C192 N206 1.427 . S
C193 C192 1.394 . S
C193 C194 1.380 . S
C193 H255 0.929 . S
C194 C193 1.380 . S
C194 C195 1.384 . S
C194 C198 1.495 . S
C195 C194 1.384 . S
C195 C196 1.382 . S
C195 H256 0.930 . S
C196 C195 1.382 . S
C196 C197 1.398 . S
C197 C192 1.395 . S
C197 C196 1.398 . S
C197 H257 0.904 1_565 S
C198 C194 1.495 . S
C198 O245 1.258 . S
C198 O246 1.274 . S
C199 C200 1.385 . S
C199 C201 1.381 . S
C199 N205 1.432 . S
C200 C199 1.385 . S
C200 C204 1.388 . S
C200 H258 0.929 . S
C201 C199 1.381 . S
C201 C202 1.371 . S
C201 H259 0.932 . S
C202 C201 1.371 . S
C202 C203 1.400 . S
C203 C202 1.400 . S
C203 C204 1.351 . S
C203 H260 0.930 . S
C204 C200 1.388 . S
C204 C203 1.351 . S
N205 C180 1.329 . S
N205 Co189 1.955 . S
N205 C199 1.432 . S
N206 Co189 1.958 . S
N206 C190 1.324 . S
N206 C192 1.427 . S
N207 Co189 1.953 . S
N207 C208 1.436 . S
N207 C234 1.316 . S
C208 N207 1.436 . S
C208 C209 1.421 . S
C208 C210 1.360 . S
C209 C208 1.421 . S
C209 C211 1.379 . S
C209 H212 0.929 . S
C210 C208 1.360 . S
C210 C214 1.393 . S
C210 H216 0.931 . S
C211 C209 1.379 . S
C211 C213 1.417 . S
C211 C215 1.505 . S
H212 C209 0.929 . S
C213 C211 1.417 . S
C213 C214 1.352 . S
C213 H217 0.929 . S
C214 C210 1.393 . S
C214 C213 1.352 . S
C214 C218 1.482 . S
C215 C211 1.505 . S
C215 O219 1.259 . S
C215 O220 1.229 . S
H216 C210 0.931 . S
H217 C213 0.929 . S
C218 C214 1.482 . S
C218 O221 1.207 . S
C218 O222 1.289 . S
O219 C215 1.259 . S
O219 H223 0.822 . S
O220 C215 1.229 . S
O221 C218 1.207 . S
O222 C218 1.289 . S
O222 H224 0.819 . S
H223 O219 0.822 . S
H224 O222 0.819 . S
N225 Co189 1.869 . S
N225 C226 1.330 . S
N225 C230 1.325 . S
C226 N225 1.330 . S
C226 C227 1.359 . S
C226 C232 1.504 . S
C227 C226 1.359 . S
C227 C228 1.366 . S
C227 H261 0.929 . S
C228 C227 1.366 . S
C228 C229 1.415 . S
C228 H262 0.932 . S
C229 C228 1.415 . S
C229 C230 1.366 . S
C229 H263 0.931 . S
C230 N225 1.325 . S
C230 C229 1.366 . S
C230 C234 1.516 . S
N231 Co189 1.974 . S
N231 C232 1.309 . S
N231 C237 1.423 . S
C232 C226 1.504 . S
C232 N231 1.309 . S
C232 O233 1.258 . S
O233 C232 1.258 . S
C234 N207 1.316 . S
C234 C230 1.516 . S
C234 O247 1.263 . S
O235 Cd178 2.350 . S
O235 C251 1.270 . S
O236 Cd178 2.277 . S
O236 C251 1.248 . S
C237 N231 1.423 . S
C237 C238 1.370 1_565 S
C237 C242 1.403 . S
C238 C237 1.370 1_545 S
C238 C239 1.389 . S
C238 H264 0.931 . S
C239 C238 1.389 . S
C239 C240 1.389 . S
C240 C239 1.389 . S
C240 C241 1.379 . S
C240 H265 0.929 . S
C241 C240 1.379 . S
C241 C242 1.405 1_545 S
C242 C237 1.403 . S
C242 C241 1.405 1_565 S
C242 H266 0.932 . S
O243 Cd178 2.173 . S
O243 C179 1.277 . S
O244 C179 1.230 . S
O244 Cd182 2.250 . S
O245 Cd178 2.263 . S
O245 C198 1.258 . S
O246 Cd182 2.308 . S
O246 C198 1.274 . S
O247 Cd178 2.366 . S
O247 C234 1.263 . S
C248 O249 1.235 . S
C248 O250 1.270 . S
O249 Cd182 2.352 . S
O249 C248 1.235 . S
O250 Cd178 2.329 . S
O250 C248 1.270 . S
C251 O235 1.270 . S
C251 O236 1.248 . S
H252 C184 0.930 1_545 S
H253 C187 0.930 . S
H254 C188 0.931 . S
H255 C193 0.929 . S
H256 C195 0.930 . S
H257 C197 0.904 1_545 S
H258 C200 0.929 . S
H259 C201 0.932 . S
H260 C203 0.930 . S
H261 C227 0.929 . S
H262 C228 0.932 . S
H263 C229 0.931 . S
H264 C238 0.931 . S
H265 C240 0.929 . S
H266 C242 0.932 . S
Cd267 O324 2.350 . S
Cd267 O325 2.277 . S
Cd267 O332 2.173 . S
Cd267 O334 2.263 . S
Cd267 O336 2.366 . S
Cd267 O339 2.329 . S
C268 O332 1.277 . S
C268 O333 1.230 . S
C269 O270 1.246 . S
C269 C272 1.481 1_554 S
C269 N294 1.329 . S
O270 C269 1.246 . S
Cd271 O333 2.250 . S
Cd271 O335 2.308 . S
Cd271 O338 2.352 . S
C272 C269 1.481 1_556 S
C272 N275 1.327 . S
C272 C276 1.407 . S
C273 C274 1.346 . S
C273 C277 1.390 . S
C273 H341 0.930 1_545 S
C274 C273 1.346 . S
C274 N275 1.342 . S
C274 C279 1.516 . S
N275 C272 1.327 . S
N275 C274 1.342 . S
N275 Co278 1.864 . S
C276 C272 1.407 . S
C276 C277 1.364 . S
C276 H342 0.930 1_556 S
C277 C273 1.390 . S
C277 C276 1.364 . S
C277 H343 0.931 . S
Co278 N275 1.864 . S
Co278 N294 1.955 1_556 S
Co278 N295 1.958 . S
Co278 N296 1.953 . S
Co278 N314 1.869 . S
Co278 N320 1.974 . S
C279 C274 1.516 . S
C279 O280 1.238 . S
C279 N295 1.324 . S
O280 C279 1.238 . S
C281 C282 1.394 . S
C281 C286 1.395 . S
C281 N295 1.427 . S
C282 C281 1.394 . S
C282 C283 1.380 . S
C282 H344 0.929 . S
C283 C282 1.380 . S
C283 C284 1.384 . S
C283 C287 1.495 . S
C284 C283 1.384 . S
C284 C285 1.382 . S
C284 H345 0.930 . S
C285 C284 1.382 . S
C285 C286 1.398 . S
C286 C281 1.395 . S
C286 C285 1.398 . S
C286 H346 0.910 1_545 S
C287 C283 1.495 . S
C287 O334 1.258 . S
C287 O335 1.274 . S
C288 C289 1.385 . S
C288 C290 1.381 . S
C288 N294 1.432 . S
C289 C288 1.385 . S
C289 C293 1.388 . S
C289 H347 0.929 . S
C290 C288 1.381 . S
C290 C291 1.371 . S
C290 H348 0.932 . S
C291 C290 1.371 . S
C291 C292 1.400 . S
C292 C291 1.400 . S
C292 C293 1.351 . S
C292 H349 0.930 . S
C293 C289 1.388 . S
C293 C292 1.351 . S
N294 C269 1.329 . S
N294 Co278 1.955 1_554 S
N294 C288 1.432 . S
N295 Co278 1.958 . S
N295 C279 1.324 . S
N295 C281 1.427 . S
N296 Co278 1.953 . S
N296 C297 1.436 . S
N296 C323 1.316 . S
C297 N296 1.436 . S
C297 C298 1.421 . S
C297 C299 1.360 . S
C298 C297 1.421 . S
C298 C300 1.379 . S
C298 H301 0.929 . S
C299 C297 1.360 . S
C299 C303 1.393 . S
C299 H305 0.931 . S
C300 C298 1.379 . S
C300 C302 1.417 . S
C300 C304 1.505 . S
H301 C298 0.929 . S
C302 C300 1.417 . S
C302 C303 1.352 . S
C302 H306 0.929 . S
C303 C299 1.393 . S
C303 C302 1.352 . S
C303 C307 1.482 . S
C304 C300 1.505 . S
C304 O308 1.259 . S
C304 O309 1.229 . S
H305 C299 0.931 . S
H306 C302 0.929 . S
C307 C303 1.482 . S
C307 O310 1.207 . S
C307 O311 1.289 . S
O308 C304 1.259 . S
O308 H312 0.822 . S
O309 C304 1.229 . S
O310 C307 1.207 . S
O311 C307 1.289 . S
O311 H313 0.819 . S
H312 O308 0.822 . S
H313 O311 0.819 . S
N314 Co278 1.869 . S
N314 C315 1.330 . S
N314 C319 1.325 . S
C315 N314 1.330 . S
C315 C316 1.359 . S
C315 C321 1.512 . S
C316 C315 1.359 . S
C316 C317 1.366 . S
C316 H350 0.915 1_556 S
C317 C316 1.366 . S
C317 C318 1.415 . S
C317 H351 0.932 . S
C318 C317 1.415 . S
C318 C319 1.366 . S
C318 H352 0.931 . S
C319 N314 1.325 . S
C319 C318 1.366 . S
C319 C323 1.516 . S
N320 Co278 1.974 . S
N320 C321 1.313 . S
N320 C326 1.423 1_556 S
C321 C315 1.512 . S
C321 N320 1.313 . S
C321 O322 1.247 1_556 S
O322 C321 1.247 1_554 S
C323 N296 1.316 . S
C323 C319 1.516 . S
C323 O336 1.263 . S
O324 Cd267 2.350 . S
O324 C340 1.270 . S
O325 Cd267 2.277 . S
O325 C340 1.248 . S
C326 N320 1.423 1_554 S
C326 C327 1.370 1_544 S
C326 C331 1.403 . S
C327 C326 1.370 1_566 S
C327 C328 1.389 1_556 S
C327 H353 0.931 . S
C328 C327 1.389 1_554 S
C328 C329 1.389 . S
C329 C328 1.389 . S
C329 C330 1.379 . S
C329 H354 0.929 . S
C330 C329 1.379 . S
C330 C331 1.405 1_565 S
C331 C326 1.403 . S
C331 C330 1.405 1_545 S
C331 H355 0.932 . S
O332 Cd267 2.173 . S
O332 C268 1.277 . S
O333 C268 1.230 . S
O333 Cd271 2.250 . S
O334 Cd267 2.263 . S
O334 C287 1.258 . S
O335 Cd271 2.308 . S
O335 C287 1.274 . S
O336 Cd267 2.366 . S
O336 C323 1.263 . S
C337 O338 1.235 . S
C337 O339 1.270 . S
O338 Cd271 2.352 . S
O338 C337 1.235 . S
O339 Cd267 2.329 . S
O339 C337 1.270 . S
C340 O324 1.270 . S
C340 O325 1.248 . S
H341 C273 0.930 1_565 S
H342 C276 0.930 1_554 S
H343 C277 0.931 . S
H344 C282 0.929 . S
H345 C284 0.930 . S
H346 C286 0.910 1_565 S
H347 C289 0.929 . S
H348 C290 0.932 . S
H349 C292 0.930 . S
H350 C316 0.915 1_554 S
H351 C317 0.932 . S
H352 C318 0.931 . S
H353 C327 0.931 . S
H354 C329 0.929 . S
H355 C331 0.932 . S
Cd356 O413 2.350 . S
Cd356 O414 2.277 . S
Cd356 O421 2.173 . S
Cd356 O423 2.263 . S
Cd356 O425 2.366 . S
Cd356 O428 2.329 . S
C357 O421 1.277 . S
C357 O422 1.230 . S
C358 O359 1.246 . S
C358 C361 1.481 . S
C358 N383 1.329 . S
O359 C358 1.246 . S
Cd360 O422 2.250 . S
Cd360 O424 2.308 . S
Cd360 O427 2.352 . S
C361 C358 1.481 . S
C361 N364 1.327 . S
C361 C365 1.407 . S
C362 C363 1.346 . S
C362 C366 1.390 . S
C362 H430 0.930 1_655 S
C363 C362 1.346 . S
C363 N364 1.342 . S
C363 C368 1.516 . S
N364 C361 1.327 . S
N364 C363 1.342 . S
N364 Co367 1.864 . S
C365 C361 1.407 . S
C365 C366 1.364 . S
C365 H431 0.930 . S
C366 C362 1.390 . S
C366 C365 1.364 . S
C366 H432 0.931 . S
Co367 N364 1.864 . S
Co367 N383 1.955 . S
Co367 N384 1.958 . S
Co367 N385 1.953 . S
Co367 N403 1.869 . S
Co367 N409 1.974 . S
C368 C363 1.516 . S
C368 O369 1.238 . S
C368 N384 1.324 . S
O369 C368 1.238 . S
C370 C371 1.394 . S
C370 C375 1.395 . S
C370 N384 1.427 . S
C371 C370 1.394 . S
C371 C372 1.380 . S
C371 H433 0.929 . S
C372 C371 1.380 . S
C372 C373 1.384 . S
C372 C376 1.495 . S
C373 C372 1.384 . S
C373 C374 1.382 . S
C373 H434 0.930 . S
C374 C373 1.382 . S
C374 C375 1.398 . S
C375 C370 1.395 . S
C375 C374 1.398 . S
C375 H435 0.904 1_655 S
C376 C372 1.495 . S
C376 O423 1.258 . S
C376 O424 1.274 . S
C377 C378 1.385 . S
C377 C379 1.381 . S
C377 N383 1.432 . S
C378 C377 1.385 . S
C378 C382 1.388 . S
C378 H436 0.929 . S
C379 C377 1.381 . S
C379 C380 1.371 . S
C379 H437 0.932 . S
C380 C379 1.371 . S
C380 C381 1.400 . S
C381 C380 1.400 . S
C381 C382 1.351 . S
C381 H438 0.930 . S
C382 C378 1.388 . S
C382 C381 1.351 . S
N383 C358 1.329 . S
N383 Co367 1.955 . S
N383 C377 1.432 . S
N384 Co367 1.958 . S
N384 C368 1.324 . S
N384 C370 1.427 . S
N385 Co367 1.953 . S
N385 C386 1.436 . S
N385 C412 1.316 . S
C386 N385 1.436 . S
C386 C387 1.421 . S
C386 C388 1.360 . S
C387 C386 1.421 . S
C387 C389 1.379 . S
C387 H390 0.929 . S
C388 C386 1.360 . S
C388 C392 1.393 . S
C388 H394 0.931 . S
C389 C387 1.379 . S
C389 C391 1.417 . S
C389 C393 1.505 . S
H390 C387 0.929 . S
C391 C389 1.417 . S
C391 C392 1.352 . S
C391 H395 0.929 . S
C392 C388 1.393 . S
C392 C391 1.352 . S
C392 C396 1.482 . S
C393 C389 1.505 . S
C393 O397 1.259 . S
C393 O398 1.229 . S
H394 C388 0.931 . S
H395 C391 0.929 . S
C396 C392 1.482 . S
C396 O399 1.207 . S
C396 O400 1.289 . S
O397 C393 1.259 . S
O397 H401 0.822 . S
O398 C393 1.229 . S
O399 C396 1.207 . S
O400 C396 1.289 . S
O400 H402 0.819 . S
H401 O397 0.822 . S
H402 O400 0.819 . S
N403 Co367 1.869 . S
N403 C404 1.330 . S
N403 C408 1.325 . S
C404 N403 1.330 . S
C404 C405 1.359 . S
C404 C410 1.504 . S
C405 C404 1.359 . S
C405 C406 1.366 . S
C405 H439 0.929 . S
C406 C405 1.366 . S
C406 C407 1.415 . S
C406 H440 0.932 . S
C407 C406 1.415 . S
C407 C408 1.366 . S
C407 H441 0.931 . S
C408 N403 1.325 . S
C408 C407 1.366 . S
C408 C412 1.516 . S
N409 Co367 1.974 . S
N409 C410 1.309 . S
N409 C415 1.423 . S
C410 C404 1.504 . S
C410 N409 1.309 . S
C410 O411 1.258 . S
O411 C410 1.258 . S
C412 N385 1.316 . S
C412 C408 1.516 . S
C412 O425 1.263 . S
O413 Cd356 2.350 . S
O413 C429 1.270 . S
O414 Cd356 2.277 . S
O414 C429 1.248 . S
C415 N409 1.423 . S
C415 C416 1.370 1_655 S
C415 C420 1.403 . S
C416 C415 1.370 1_455 S
C416 C417 1.389 . S
C416 H442 0.931 . S
C417 C416 1.389 . S
C417 C418 1.389 . S
C418 C417 1.389 . S
C418 C419 1.379 . S
C418 H443 0.929 . S
C419 C418 1.379 . S
C419 C420 1.405 1_455 S
C420 C415 1.403 . S
C420 C419 1.405 1_655 S
C420 H444 0.932 . S
O421 Cd356 2.173 . S
O421 C357 1.277 . S
O422 C357 1.230 . S
O422 Cd360 2.250 . S
O423 Cd356 2.263 . S
O423 C376 1.258 . S
O424 Cd360 2.308 . S
O424 C376 1.274 . S
O425 Cd356 2.366 . S
O425 C412 1.263 . S
C426 O427 1.235 . S
C426 O428 1.270 . S
O427 Cd360 2.352 . S
O427 C426 1.235 . S
O428 Cd356 2.329 . S
O428 C426 1.270 . S
C429 O413 1.270 . S
C429 O414 1.248 . S
H430 C362 0.930 1_455 S
H431 C365 0.930 . S
H432 C366 0.931 . S
H433 C371 0.929 . S
H434 C373 0.930 . S
H435 C375 0.904 1_455 S
H436 C378 0.929 . S
H437 C379 0.932 . S
H438 C381 0.930 . S
H439 C405 0.929 . S
H440 C406 0.932 . S
H441 C407 0.931 . S
H442 C416 0.931 . S
H443 C418 0.929 . S
H444 C420 0.932 . S
Cd445 O502 2.350 . S
Cd445 O503 2.277 . S
Cd445 O510 2.173 . S
Cd445 O512 2.263 . S
Cd445 O514 2.366 . S
Cd445 O517 2.329 . S
C446 O510 1.277 . S
C446 O511 1.230 . S
C447 O448 1.246 . S
C447 C450 1.481 . S
C447 N472 1.329 . S
O448 C447 1.246 . S
Cd449 O511 2.250 . S
Cd449 O513 2.308 . S
Cd449 O516 2.352 . S
C450 C447 1.481 . S
C450 N453 1.327 . S
C450 C454 1.407 . S
C451 C452 1.346 . S
C451 C455 1.390 . S
C451 H519 0.930 . S
C452 C451 1.346 . S
C452 N453 1.342 . S
C452 C457 1.516 . S
N453 C450 1.327 . S
N453 C452 1.342 . S
N453 Co456 1.864 . S
C454 C450 1.407 . S
C454 C455 1.364 . S
C454 H520 0.930 . S
C455 C451 1.390 . S
C455 C454 1.364 . S
C455 H521 0.931 . S
Co456 N453 1.864 . S
Co456 N472 1.955 . S
Co456 N473 1.958 . S
Co456 N474 1.953 . S
Co456 N492 1.869 . S
Co456 N498 1.974 . S
C457 C452 1.516 . S
C457 O458 1.238 . S
C457 N473 1.324 . S
O458 C457 1.238 . S
C459 C460 1.394 . S
C459 C464 1.395 . S
C459 N473 1.427 . S
C460 C459 1.394 . S
C460 C461 1.380 . S
C460 H522 0.929 . S
C461 C460 1.380 . S
C461 C462 1.384 . S
C461 C465 1.495 . S
C462 C461 1.384 . S
C462 C463 1.382 . S
C462 H523 0.930 . S
C463 C462 1.382 . S
C463 C464 1.398 . S
C464 C459 1.395 . S
C464 C463 1.398 . S
C464 H524 0.930 . S
C465 C461 1.495 . S
C465 O512 1.258 . S
C465 O513 1.274 . S
C466 C467 1.385 . S
C466 C468 1.381 . S
C466 N472 1.432 . S
C467 C466 1.385 . S
C467 C471 1.388 . S
C467 H525 0.929 . S
C468 C466 1.381 . S
C468 C469 1.371 . S
C468 H526 0.932 . S
C469 C468 1.371 . S
C469 C470 1.400 . S
C470 C469 1.400 . S
C470 C471 1.351 . S
C470 H527 0.930 . S
C471 C467 1.388 . S
C471 C470 1.351 . S
N472 C447 1.329 . S
N472 Co456 1.955 . S
N472 C466 1.432 . S
N473 Co456 1.958 . S
N473 C457 1.324 . S
N473 C459 1.427 . S
N474 Co456 1.953 . S
N474 C475 1.436 . S
N474 C501 1.316 . S
C475 N474 1.436 . S
C475 C476 1.421 . S
C475 C477 1.360 . S
C476 C475 1.421 . S
C476 C478 1.379 . S
C476 H479 0.929 . S
C477 C475 1.360 . S
C477 C481 1.393 . S
C477 H483 0.931 . S
C478 C476 1.379 . S
C478 C480 1.417 . S
C478 C482 1.505 . S
H479 C476 0.929 . S
C480 C478 1.417 . S
C480 C481 1.352 . S
C480 H484 0.929 . S
C481 C477 1.393 . S
C481 C480 1.352 . S
C481 C485 1.482 . S
C482 C478 1.505 . S
C482 O486 1.259 . S
C482 O487 1.229 . S
H483 C477 0.931 . S
H484 C480 0.929 . S
C485 C481 1.482 . S
C485 O488 1.207 . S
C485 O489 1.289 . S
O486 C482 1.259 . S
O486 H490 0.822 . S
O487 C482 1.229 . S
O488 C485 1.207 . S
O489 C485 1.289 . S
O489 H491 0.819 . S
H490 O486 0.822 . S
H491 O489 0.819 . S
N492 Co456 1.869 . S
N492 C493 1.330 . S
N492 C497 1.325 . S
C493 N492 1.330 . S
C493 C494 1.359 . S
C493 C499 1.504 . S
C494 C493 1.359 . S
C494 C495 1.366 . S
C494 H528 0.929 . S
C495 C494 1.366 . S
C495 C496 1.415 . S
C495 H529 0.932 . S
C496 C495 1.415 . S
C496 C497 1.366 . S
C496 H530 0.931 . S
C497 N492 1.325 . S
C497 C496 1.366 . S
C497 C501 1.516 . S
N498 Co456 1.974 . S
N498 C499 1.309 . S
N498 C504 1.423 . S
C499 C493 1.504 . S
C499 N498 1.309 . S
C499 O500 1.258 . S
O500 C499 1.258 . S
C501 N474 1.316 . S
C501 C497 1.516 . S
C501 O514 1.263 . S
O502 Cd445 2.350 . S
O502 C518 1.270 . S
O503 Cd445 2.277 . S
O503 C518 1.248 . S
C504 N498 1.423 . S
C504 C505 1.370 . S
C504 C509 1.403 . S
C505 C504 1.370 . S
C505 C506 1.389 . S
C505 H531 0.931 . S
C506 C505 1.389 . S
C506 C507 1.389 . S
C507 C506 1.389 . S
C507 C508 1.379 . S
C507 H532 0.929 . S
C508 C507 1.379 . S
C508 C509 1.405 . S
C509 C504 1.403 . S
C509 C508 1.405 . S
C509 H533 0.932 . S
O510 Cd445 2.173 . S
O510 C446 1.277 . S
O511 C446 1.230 . S
O511 Cd449 2.250 . S
O512 Cd445 2.263 . S
O512 C465 1.258 . S
O513 Cd449 2.308 . S
O513 C465 1.274 . S
O514 Cd445 2.366 . S
O514 C501 1.263 . S
C515 O516 1.235 . S
C515 O517 1.270 . S
O516 Cd449 2.352 . S
O516 C515 1.235 . S
O517 Cd445 2.329 . S
O517 C515 1.270 . S
C518 O502 1.270 . S
C518 O503 1.248 . S
H519 C451 0.930 . S
H520 C454 0.930 . S
H521 C455 0.931 . S
H522 C460 0.929 . S
H523 C462 0.930 . S
H524 C464 0.930 . S
H525 C467 0.929 . S
H526 C468 0.932 . S
H527 C470 0.930 . S
H528 C494 0.929 . S
H529 C495 0.932 . S
H530 C496 0.931 . S
H531 C505 0.931 . S
H532 C507 0.929 . S
H533 C509 0.932 . S
H534 C542 0.950 . S
H535 C547 0.950 . S
H536 C544 0.950 . S
H537 C546 0.950 . S
H538 C548 0.950 . S
H539 C550 0.950 . S
H540 C552 0.950 . S
H541 C553 0.973 . S
C542 H534 0.950 . S
C542 C543 1.386 . S
C542 C544 1.391 . S
C543 C542 1.386 . S
C543 C547 1.393 . S
C544 H536 0.950 . S
C544 C542 1.391 . S
C544 C545 1.400 . S
C545 C544 1.400 . S
C545 C546 1.398 . S
C545 C551 1.491 . S
C546 H537 0.950 . S
C546 C545 1.398 . S
C546 C547 1.391 . S
C547 H535 0.950 . S
C547 C543 1.393 . S
C547 C546 1.391 . S
C548 H538 0.950 . S
C548 C549 1.386 . S
C548 C550 1.391 . S
C549 C548 1.386 . S
C549 C553 1.386 1_554 S
C550 H539 0.950 . S
C550 C548 1.391 . S
C550 C551 1.400 . S
C551 C545 1.491 . S
C551 C550 1.400 . S
C551 C552 1.398 . S
C552 H540 0.950 . S
C552 C551 1.398 . S
C552 C553 1.375 1_554 S
C553 H541 0.973 . S
C553 C549 1.386 1_556 S
C553 C552 1.375 1_556 S
H554 C562 0.950 . S
H555 C567 0.950 . S
H556 C564 0.950 . S
H557 C566 0.950 . S
H558 C568 0.950 . S
H559 C570 0.950 . S
H560 C572 0.950 . S
H561 C573 0.950 . S
C562 H554 0.950 . S
C562 C563 1.386 . S
C562 C564 1.391 . S
C563 C562 1.386 . S
C563 C567 1.393 . S
C564 H556 0.950 . S
C564 C562 1.391 . S
C564 C565 1.400 . S
C565 C564 1.400 . S
C565 C566 1.398 . S
C565 C571 1.491 . S
C566 H557 0.950 . S
C566 C565 1.398 . S
C566 C567 1.391 . S
C567 H555 0.950 . S
C567 C563 1.393 . S
C567 C566 1.391 . S
C568 H558 0.950 . S
C568 C569 1.386 . S
C568 C570 1.391 . S
C569 C568 1.386 . S
C569 C573 1.393 . S
C570 H559 0.950 . S
C570 C568 1.391 . S
C570 C571 1.400 . S
C571 C565 1.491 . S
C571 C570 1.400 . S
C571 C572 1.398 . S
C572 H560 0.950 . S
C572 C571 1.398 . S
C572 C573 1.391 . S
C573 H561 0.950 . S
C573 C569 1.393 . S
C573 C572 1.391 . S
H574 C582 0.950 . S
H575 C587 0.950 . S
H576 C584 0.950 . S
H577 C586 0.950 . S
H578 C588 0.950 . S
H579 C590 0.950 . S
H580 C592 0.950 . S
H581 C593 0.950 . S
C582 H574 0.950 . S
C582 C583 1.386 . S
C582 C584 1.391 . S
C583 C582 1.386 . S
C583 C587 1.393 . S
C584 H576 0.950 . S
C584 C582 1.391 . S
C584 C585 1.400 . S
C585 C584 1.400 . S
C585 C586 1.398 . S
C585 C591 1.491 . S
C586 H577 0.950 . S
C586 C585 1.398 . S
C586 C587 1.391 . S
C587 H575 0.950 . S
C587 C583 1.393 . S
C587 C586 1.391 . S
C588 H578 0.950 . S
C588 C589 1.386 . S
C588 C590 1.391 . S
C589 C588 1.386 . S
C589 C593 1.393 . S
C590 H579 0.950 . S
C590 C588 1.391 . S
C590 C591 1.400 . S
C591 C585 1.491 . S
C591 C590 1.400 . S
C591 C592 1.398 . S
C592 H580 0.950 . S
C592 C591 1.398 . S
C592 C593 1.391 . S
C593 H581 0.950 . S
C593 C589 1.393 . S
C593 C592 1.391 . S
H594 C602 0.950 . S
H595 C607 0.950 . S
H596 C604 0.950 . S
H597 C606 0.950 . S
H598 C608 0.950 . S
H599 C610 0.950 . S
H600 C612 0.950 1_554 S
H601 C613 0.950 . S
C602 H594 0.950 . S
C602 C603 1.386 . S
C602 C604 1.391 . S
C603 C602 1.386 . S
C603 C607 1.393 . S
C604 H596 0.950 . S
C604 C602 1.391 . S
C604 C605 1.400 . S
C605 C604 1.400 . S
C605 C606 1.398 . S
C605 C611 1.491 . S
C606 H597 0.950 . S
C606 C605 1.398 . S
C606 C607 1.391 . S
C607 H595 0.950 . S
C607 C603 1.393 . S
C607 C606 1.391 . S
C608 H598 0.950 . S
C608 C609 1.386 . S
C608 C610 1.391 . S
C609 C608 1.386 . S
C609 C613 1.393 1_556 S
C610 H599 0.950 . S
C610 C608 1.391 . S
C610 C611 1.400 . S
C611 C605 1.491 . S
C611 C610 1.400 . S
C611 C612 1.398 . S
C612 H600 0.950 1_556 S
C612 C611 1.398 . S
C612 C613 1.391 1_556 S
C613 H601 0.950 . S
C613 C609 1.393 1_554 S
C613 C612 1.391 1_554 S
H614 C622 0.950 . S
H615 C627 0.950 . S
H616 C624 0.950 . S
H617 C626 0.950 . S
H618 C628 0.950 . S
H619 C630 0.950 . S
H620 C632 0.950 . S
H621 C633 0.950 . S
C622 H614 0.950 . S
C622 C623 1.386 . S
C622 C624 1.391 . S
C623 C622 1.386 . S
C623 C627 1.393 . S
C624 H616 0.950 . S
C624 C622 1.391 . S
C624 C625 1.400 . S
C625 C624 1.400 . S
C625 C626 1.398 . S
C625 C631 1.491 . S
C626 H617 0.950 . S
C626 C625 1.398 . S
C626 C627 1.391 . S
C627 H615 0.950 . S
C627 C623 1.393 . S
C627 C626 1.391 . S
C628 H618 0.950 . S
C628 C629 1.386 . S
C628 C630 1.391 . S
C629 C628 1.386 . S
C629 C633 1.393 . S
C630 H619 0.950 . S
C630 C628 1.391 . S
C630 C631 1.400 . S
C631 C625 1.491 . S
C631 C630 1.400 . S
C631 C632 1.398 . S
C632 H620 0.950 . S
C632 C631 1.398 . S
C632 C633 1.391 . S
C633 H621 0.950 . S
C633 C629 1.393 . S
C633 C632 1.391 . S
H634 C642 0.950 . S
H635 C647 0.950 . S
H636 C644 0.950 . S
H637 C646 0.950 . S
H638 C648 0.950 . S
H639 C650 0.950 . S
H640 C652 0.950 . S
H641 C653 0.950 . S
C642 H634 0.950 . S
C642 C643 1.386 . S
C642 C644 1.391 . S
C643 C642 1.386 . S
C643 C647 1.393 . S
C644 H636 0.950 . S
C644 C642 1.391 . S
C644 C645 1.400 . S
C645 C644 1.400 . S
C645 C646 1.398 . S
C645 C651 1.491 . S
C646 H637 0.950 . S
C646 C645 1.398 . S
C646 C647 1.391 . S
C647 H635 0.950 . S
C647 C643 1.393 . S
C647 C646 1.391 . S
C648 H638 0.950 . S
C648 C649 1.386 . S
C648 C650 1.391 . S
C649 C648 1.386 . S
C649 C653 1.393 . S
C650 H639 0.950 . S
C650 C648 1.391 . S
C650 C651 1.400 . S
C651 C645 1.491 . S
C651 C650 1.400 . S
C651 C652 1.398 . S
C652 H640 0.950 . S
C652 C651 1.398 . S
C652 C653 1.391 . S
C653 H641 0.950 . S
C653 C649 1.393 . S
C653 C652 1.391 . S
H654 C662 0.950 . S
H655 C667 0.950 . S
H656 C664 0.950 . S
H657 C666 0.950 . S
H658 C668 0.950 . S
H659 C670 0.950 . S
H660 C672 0.950 . S
H661 C673 0.950 . S
C662 H654 0.950 . S
C662 C663 1.386 . S
C662 C664 1.391 . S
C663 C662 1.386 . S
C663 C667 1.393 . S
C664 H656 0.950 . S
C664 C662 1.391 . S
C664 C665 1.400 . S
C665 C664 1.400 . S
C665 C666 1.398 . S
C665 C671 1.491 . S
C666 H657 0.950 . S
C666 C665 1.398 . S
C666 C667 1.391 . S
C667 H655 0.950 . S
C667 C663 1.393 . S
C667 C666 1.391 . S
C668 H658 0.950 . S
C668 C669 1.386 . S
C668 C670 1.391 . S
C669 C668 1.386 . S
C669 C673 1.393 . S
C670 H659 0.950 . S
C670 C668 1.391 . S
C670 C671 1.400 . S
C671 C665 1.491 . S
C671 C670 1.400 . S
C671 C672 1.398 . S
C672 H660 0.950 . S
C672 C671 1.398 . S
C672 C673 1.391 . S
C673 H661 0.950 . S
C673 C669 1.393 . S
C673 C672 1.391 . S
H674 C682 0.950 . S
H675 C687 0.950 . S
H676 C684 0.950 . S
H677 C686 0.950 . S
H678 C688 0.950 . S
H679 C690 0.950 . S
H680 C692 0.950 . S
H681 C693 0.950 . S
C682 H674 0.950 . S
C682 C683 1.386 . S
C682 C684 1.391 . S
C683 C682 1.386 . S
C683 C687 1.393 . S
C684 H676 0.950 . S
C684 C682 1.391 . S
C684 C685 1.400 . S
C685 C684 1.400 . S
C685 C686 1.398 . S
C685 C691 1.491 . S
C686 H677 0.950 . S
C686 C685 1.398 . S
C686 C687 1.391 . S
C687 H675 0.950 . S
C687 C683 1.393 . S
C687 C686 1.391 . S
C688 H678 0.950 . S
C688 C689 1.386 . S
C688 C690 1.391 . S
C689 C688 1.386 . S
C689 C693 1.393 . S
C690 H679 0.950 . S
C690 C688 1.391 . S
C690 C691 1.400 . S
C691 C685 1.491 . S
C691 C690 1.400 . S
C691 C692 1.398 . S
C692 H680 0.950 . S
C692 C691 1.398 . S
C692 C693 1.391 . S
C693 H681 0.950 . S
C693 C689 1.393 . S
C693 C692 1.391 . S
H694 C702 0.950 . S
H695 C707 0.950 . S
H696 C704 0.950 . S
H697 C706 0.950 . S
H698 C708 0.950 . S
H699 C710 0.950 . S
H700 C712 0.950 . S
H701 C713 0.950 . S
C702 H694 0.950 . S
C702 C703 1.386 . S
C702 C704 1.391 . S
C703 C702 1.386 . S
C703 C707 1.393 . S
C704 H696 0.950 . S
C704 C702 1.391 . S
C704 C705 1.400 . S
C705 C704 1.400 . S
C705 C706 1.398 . S
C705 C711 1.491 . S
C706 H697 0.950 . S
C706 C705 1.398 . S
C706 C707 1.391 . S
C707 H695 0.950 . S
C707 C703 1.393 . S
C707 C706 1.391 . S
C708 H698 0.950 . S
C708 C709 1.386 . S
C708 C710 1.391 . S
C709 C708 1.386 . S
C709 C713 1.393 . S
C710 H699 0.950 . S
C710 C708 1.391 . S
C710 C711 1.400 . S
C711 C705 1.491 . S
C711 C710 1.400 . S
C711 C712 1.398 . S
C712 H700 0.950 . S
C712 C711 1.398 . S
C712 C713 1.391 . S
C713 H701 0.950 . S
C713 C709 1.393 . S
C713 C712 1.391 . S
H714 C722 0.950 . S
H715 C727 0.950 . S
H716 C724 0.950 . S
H717 C726 0.950 . S
H718 C728 0.950 . S
H719 C730 0.950 . S
H720 C732 0.950 . S
H721 C733 0.950 . S
C722 H714 0.950 . S
C722 C723 1.386 . S
C722 C724 1.391 . S
C723 C722 1.386 . S
C723 C727 1.393 . S
C724 H716 0.950 . S
C724 C722 1.391 . S
C724 C725 1.400 . S
C725 C724 1.400 . S
C725 C726 1.398 . S
C725 C731 1.491 . S
C726 H717 0.950 . S
C726 C725 1.398 . S
C726 C727 1.391 . S
C727 H715 0.950 . S
C727 C723 1.393 . S
C727 C726 1.391 . S
C728 H718 0.950 . S
C728 C729 1.386 . S
C728 C730 1.391 . S
C729 C728 1.386 . S
C729 C733 1.393 . S
C730 H719 0.950 . S
C730 C728 1.391 . S
C730 C731 1.400 . S
C731 C725 1.491 . S
C731 C730 1.400 . S
C731 C732 1.398 . S
C732 H720 0.950 . S
C732 C731 1.398 . S
C732 C733 1.391 . S
C733 H721 0.950 . S
C733 C729 1.393 . S
C733 C732 1.391 . S
H734 C742 0.950 . S
H735 C747 0.950 . S
H736 C744 0.950 . S
H737 C746 0.950 . S
H738 C748 0.950 . S
H739 C750 0.950 . S
H740 C752 0.950 . S
H741 C753 0.950 . S
C742 H734 0.950 . S
C742 C743 1.386 . S
C742 C744 1.391 . S
C743 C742 1.386 . S
C743 C747 1.393 . S
C744 H736 0.950 . S
C744 C742 1.391 . S
C744 C745 1.400 . S
C745 C744 1.400 . S
C745 C746 1.398 . S
C745 C751 1.491 . S
C746 H737 0.950 . S
C746 C745 1.398 . S
C746 C747 1.391 . S
C747 H735 0.950 . S
C747 C743 1.393 . S
C747 C746 1.391 . S
C748 H738 0.950 . S
C748 C749 1.386 . S
C748 C750 1.391 . S
C749 C748 1.386 . S
C749 C753 1.393 . S
C750 H739 0.950 . S
C750 C748 1.391 . S
C750 C751 1.400 . S
C751 C745 1.491 . S
C751 C750 1.400 . S
C751 C752 1.398 . S
C752 H740 0.950 . S
C752 C751 1.398 . S
C752 C753 1.391 . S
C753 H741 0.950 . S
C753 C749 1.393 . S
C753 C752 1.391 . S
H754 C762 0.950 . S
H755 C767 0.950 . S
H756 C764 0.950 . S
H757 C766 0.950 . S
H758 C768 0.950 . S
H759 C770 0.950 . S
H760 C772 0.950 . S
H761 C773 0.950 . S
C762 H754 0.950 . S
C762 C763 1.386 . S
C762 C764 1.391 . S
C763 C762 1.386 . S
C763 C767 1.393 . S
C764 H756 0.950 . S
C764 C762 1.391 . S
C764 C765 1.400 . S
C765 C764 1.400 . S
C765 C766 1.398 . S
C765 C771 1.491 . S
C766 H757 0.950 . S
C766 C765 1.398 . S
C766 C767 1.391 . S
C767 H755 0.950 . S
C767 C763 1.393 . S
C767 C766 1.391 . S
C768 H758 0.950 . S
C768 C769 1.386 . S
C768 C770 1.391 . S
C769 C768 1.386 . S
C769 C773 1.393 . S
C770 H759 0.950 . S
C770 C768 1.391 . S
C770 C771 1.400 . S
C771 C765 1.491 . S
C771 C770 1.400 . S
C771 C772 1.398 . S
C772 H760 0.950 . S
C772 C771 1.398 . S
C772 C773 1.391 . S
C773 H761 0.950 . S
C773 C769 1.393 . S
C773 C772 1.391 . S
H774 C782 0.950 . S
H775 C787 0.950 . S
H776 C784 0.950 . S
H777 C786 0.950 . S
H778 C788 0.950 . S
H779 C790 0.950 . S
H780 C792 0.950 . S
H781 C793 0.950 . S
C782 H774 0.950 . S
C782 C783 1.386 . S
C782 C784 1.391 . S
C783 C782 1.386 . S
C783 C787 1.393 . S
C784 H776 0.950 . S
C784 C782 1.391 . S
C784 C785 1.400 . S
C785 C784 1.400 . S
C785 C786 1.398 . S
C785 C791 1.491 1_455 S
C786 H777 0.950 . S
C786 C785 1.398 . S
C786 C787 1.391 . S
C787 H775 0.950 . S
C787 C783 1.393 . S
C787 C786 1.391 . S
C788 H778 0.950 . S
C788 C789 1.386 . S
C788 C790 1.391 . S
C789 C788 1.386 . S
C789 C793 1.393 . S
C790 H779 0.950 . S
C790 C788 1.391 . S
C790 C791 1.400 . S
C791 C785 1.491 1_655 S
C791 C790 1.400 . S
C791 C792 1.398 . S
C792 H780 0.950 . S
C792 C791 1.398 . S
C792 C793 1.391 . S
C793 H781 0.950 . S
C793 C789 1.393 . S
C793 C792 1.391 . S
H794 C802 0.950 . S
H795 C807 0.950 . S
H796 C804 0.950 . S
H797 C806 0.950 . S
H798 C808 0.950 . S
H799 C810 0.950 . S
H800 C812 0.950 . S
H801 C813 0.950 . S
C802 H794 0.950 . S
C802 C803 1.386 . S
C802 C804 1.391 . S
C803 C802 1.386 . S
C803 C807 1.393 . S
C804 H796 0.950 . S
C804 C802 1.391 . S
C804 C805 1.400 . S
C805 C804 1.400 . S
C805 C806 1.398 . S
C805 C811 1.491 . S
C806 H797 0.950 . S
C806 C805 1.398 . S
C806 C807 1.391 . S
C807 H795 0.950 . S
C807 C803 1.393 . S
C807 C806 1.391 . S
C808 H798 0.950 . S
C808 C809 1.386 . S
C808 C810 1.391 . S
C809 C808 1.386 . S
C809 C813 1.393 . S
C810 H799 0.950 . S
C810 C808 1.391 . S
C810 C811 1.400 . S
C811 C805 1.491 . S
C811 C810 1.400 . S
C811 C812 1.398 . S
C812 H800 0.950 . S
C812 C811 1.398 . S
C812 C813 1.391 . S
C813 H801 0.950 . S
C813 C809 1.393 . S
C813 C812 1.391 . S
H814 C822 0.950 . S
H815 C827 0.950 . S
H816 C824 0.950 . S
H817 C826 0.950 . S
H818 C828 0.950 . S
H819 C830 0.950 . S
H820 C832 0.950 . S
H821 C833 0.950 . S
C822 H814 0.950 . S
C822 C823 1.386 1_565 S
C822 C824 1.391 . S
C823 C822 1.386 1_545 S
C823 C827 1.393 . S
C824 H816 0.950 . S
C824 C822 1.391 . S
C824 C825 1.400 1_565 S
C825 C824 1.400 1_545 S
C825 C826 1.398 . S
C825 C831 1.491 1_545 S
C826 H817 0.950 . S
C826 C825 1.398 . S
C826 C827 1.391 . S
C827 H815 0.950 . S
C827 C823 1.393 . S
C827 C826 1.391 . S
C828 H818 0.950 . S
C828 C829 1.386 1_545 S
C828 C830 1.391 . S
C829 C828 1.386 1_565 S
C829 C833 1.393 . S
C830 H819 0.950 . S
C830 C828 1.391 . S
C830 C831 1.400 1_545 S
C831 C825 1.491 1_565 S
C831 C830 1.400 1_565 S
C831 C832 1.398 . S
C832 H820 0.950 . S
C832 C831 1.398 . S
C832 C833 1.391 . S
C833 H821 0.950 . S
C833 C829 1.393 . S
C833 C832 1.391 . S
H834 C842 0.950 . S
H835 C847 0.950 . S
H836 C844 0.950 . S
H837 C846 0.950 . S
H838 C848 0.950 . S
H839 C850 0.950 . S
H840 C852 0.950 . S
H841 C853 0.950 . S
C842 H834 0.950 . S
C842 C843 1.386 . S
C842 C844 1.391 . S
C843 C842 1.386 . S
C843 C847 1.393 . S
C844 H836 0.950 . S
C844 C842 1.391 . S
C844 C845 1.400 . S
C845 C844 1.400 . S
C845 C846 1.398 . S
C845 C851 1.491 . S
C846 H837 0.950 . S
C846 C845 1.398 . S
C846 C847 1.391 . S
C847 H835 0.950 . S
C847 C843 1.393 . S
C847 C846 1.391 . S
C848 H838 0.950 . S
C848 C849 1.386 . S
C848 C850 1.391 . S
C849 C848 1.386 . S
C849 C853 1.393 . S
C850 H839 0.950 . S
C850 C848 1.391 . S
C850 C851 1.400 . S
C851 C845 1.491 . S
C851 C850 1.400 . S
C851 C852 1.398 . S
C852 H840 0.950 . S
C852 C851 1.398 . S
C852 C853 1.391 . S
C853 H841 0.950 . S
C853 C849 1.393 . S
C853 C852 1.391 . S
H854 C862 0.950 . S
H855 C867 0.950 . S
H856 C864 0.950 . S
H857 C866 0.950 . S
H858 C868 0.950 . S
H859 C870 0.950 . S
H860 C872 0.950 . S
H861 C873 0.950 . S
C862 H854 0.950 . S
C862 C863 1.386 . S
C862 C864 1.391 . S
C863 C862 1.386 . S
C863 C867 1.393 . S
C864 H856 0.950 . S
C864 C862 1.391 . S
C864 C865 1.400 . S
C865 C864 1.400 . S
C865 C866 1.398 . S
C865 C871 1.491 . S
C866 H857 0.950 . S
C866 C865 1.398 . S
C866 C867 1.391 . S
C867 H855 0.950 . S
C867 C863 1.393 . S
C867 C866 1.391 . S
C868 H858 0.950 . S
C868 C869 1.386 . S
C868 C870 1.391 . S
C869 C868 1.386 . S
C869 C873 1.393 . S
C870 H859 0.950 . S
C870 C868 1.391 . S
C870 C871 1.400 . S
C871 C865 1.491 . S
C871 C870 1.400 . S
C871 C872 1.398 . S
C872 H860 0.950 . S
C872 C871 1.398 . S
C872 C873 1.391 . S
C873 H861 0.950 . S
C873 C869 1.393 . S
C873 C872 1.391 . S
H874 C882 0.950 . S
H875 C887 0.950 . S
H876 C884 0.950 . S
H877 C886 0.950 . S
H878 C888 0.950 . S
H879 C890 0.950 . S
H880 C892 0.950 . S
H881 C893 0.950 . S
C882 H874 0.950 . S
C882 C883 1.386 . S
C882 C884 1.391 . S
C883 C882 1.386 . S
C883 C887 1.393 . S
C884 H876 0.950 . S
C884 C882 1.391 . S
C884 C885 1.400 . S
C885 C884 1.400 . S
C885 C886 1.398 . S
C885 C891 1.491 . S
C886 H877 0.950 . S
C886 C885 1.398 . S
C886 C887 1.391 . S
C887 H875 0.950 . S
C887 C883 1.393 . S
C887 C886 1.391 . S
C888 H878 0.950 . S
C888 C889 1.386 . S
C888 C890 1.391 . S
C889 C888 1.386 . S
C889 C893 1.393 . S
C890 H879 0.950 . S
C890 C888 1.391 . S
C890 C891 1.400 . S
C891 C885 1.491 . S
C891 C890 1.400 . S
C891 C892 1.398 . S
C892 H880 0.950 . S
C892 C891 1.398 . S
C892 C893 1.391 . S
C893 H881 0.950 . S
C893 C889 1.393 . S
C893 C892 1.391 . S
H894 C902 0.950 . S
H895 C907 0.950 . S
H896 C904 0.950 . S
H897 C906 0.950 . S
H898 C908 0.950 . S
H899 C910 0.950 . S
H900 C912 0.950 . S
H901 C913 0.950 . S
C902 H894 0.950 . S
C902 C903 1.386 . S
C902 C904 1.391 . S
C903 C902 1.386 . S
C903 C907 1.393 . S
C904 H896 0.950 . S
C904 C902 1.391 . S
C904 C905 1.400 . S
C905 C904 1.400 . S
C905 C906 1.398 . S
C905 C911 1.491 . S
C906 H897 0.950 . S
C906 C905 1.398 . S
C906 C907 1.391 . S
C907 H895 0.950 . S
C907 C903 1.393 . S
C907 C906 1.391 . S
C908 H898 0.950 . S
C908 C909 1.386 . S
C908 C910 1.391 . S
C909 C908 1.386 . S
C909 C913 1.393 . S
C910 H899 0.950 . S
C910 C908 1.391 . S
C910 C911 1.400 . S
C911 C905 1.491 . S
C911 C910 1.400 . S
C911 C912 1.398 . S
C912 H900 0.950 . S
C912 C911 1.398 . S
C912 C913 1.391 . S
C913 H901 0.950 . S
C913 C909 1.393 . S
C913 C912 1.391 . S
H914 C922 0.950 . S
H915 C927 0.950 . S
H916 C924 0.950 . S
H917 C926 0.950 . S
H918 C928 0.950 . S
H919 C930 0.950 . S
H920 C932 0.950 . S
H921 C933 0.950 . S
C922 H914 0.950 . S
C922 C923 1.386 . S
C922 C924 1.391 . S
C923 C922 1.386 . S
C923 C927 1.393 . S
C924 H916 0.950 . S
C924 C922 1.391 . S
C924 C925 1.400 . S
C925 C924 1.400 . S
C925 C926 1.398 . S
C925 C931 1.491 . S
C926 H917 0.950 . S
C926 C925 1.398 . S
C926 C927 1.391 . S
C927 H915 0.950 . S
C927 C923 1.393 . S
C927 C926 1.391 . S
C928 H918 0.950 . S
C928 C929 1.386 . S
C928 C930 1.391 . S
C929 C928 1.386 . S
C929 C933 1.393 . S
C930 H919 0.950 . S
C930 C928 1.391 . S
C930 C931 1.400 . S
C931 C925 1.491 . S
C931 C930 1.400 . S
C931 C932 1.398 . S
C932 H920 0.950 . S
C932 C931 1.398 . S
C932 C933 1.391 . S
C933 H921 0.950 . S
C933 C929 1.393 . S
C933 C932 1.391 . S
H934 C942 0.950 . S
H935 C947 0.950 . S
H936 C944 0.950 . S
H937 C946 0.950 . S
H938 C948 0.950 . S
H939 C950 0.950 . S
H940 C952 0.950 . S
H941 C953 0.950 . S
C942 H934 0.950 . S
C942 C943 1.386 . S
C942 C944 1.391 . S
C943 C942 1.386 . S
C943 C947 1.393 . S
C944 H936 0.950 . S
C944 C942 1.391 . S
C944 C945 1.400 . S
C945 C944 1.400 . S
C945 C946 1.398 . S
C945 C951 1.491 . S
C946 H937 0.950 . S
C946 C945 1.398 . S
C946 C947 1.391 . S
C947 H935 0.950 . S
C947 C943 1.393 . S
C947 C946 1.391 . S
C948 H938 0.950 . S
C948 C949 1.386 . S
C948 C950 1.391 . S
C949 C948 1.386 . S
C949 C953 1.393 . S
C950 H939 0.950 . S
C950 C948 1.391 . S
C950 C951 1.400 . S
C951 C945 1.491 . S
C951 C950 1.400 . S
C951 C952 1.398 . S
C952 H940 0.950 . S
C952 C951 1.398 . S
C952 C953 1.391 . S
C953 H941 0.950 . S
C953 C949 1.393 . S
C953 C952 1.391 . S
C543 C1 1.850 . S
C549 C328 1.655 . S
C563 C90 1.854 . S
C569 C417 1.634 . S
C583 C179 1.860 . S
C589 C506 1.622 . S
C603 C268 1.862 . S
C609 C61 1.626 . S
C623 C357 1.858 . S
C629 C150 1.627 . S
C643 C446 1.855 . S
C649 C239 1.630 . S
C663 C463 3.039 . S
C669 C73 3.006 . S
C683 C162 2.995 . S
C689 C285 3.039 1_565 S
C703 C374 3.032 1_455 S
C709 C251 3.009 . S
C723 C107 3.037 . S
C729 C340 2.994 . S
C743 C429 2.999 . S
C749 C196 3.041 1_545 S
C763 C18 3.039 1_655 S
C769 C518 2.995 . S
C783 C419 1.664 . S
C789 C63 1.665 . S
C803 C508 1.664 . S
C809 C152 1.664 . S
C823 C241 1.659 . S
C829 C330 1.657 . S
C843 C26 0.729 . S
C849 C159 0.793 . S
C863 C248 0.697 . S
C869 C115 0.689 . S
C883 C70 0.713 . S
C889 C204 0.668 . S
C903 C515 0.708 . S
C909 C293 0.713 . S
C923 C337 0.697 . S
C929 C382 0.693 . S
C943 C471 0.724 . S
C949 C426 0.791 . S
