# Generated by pormake.
# Topology ooa, (5)-cn, num edge types: 1
# Building blocks:
#     Node 0, Type 0, BuildingBlock: XOMCOT_clean_sbu_0, # of connection points: 5
#     Node 1, Type 0, BuildingBlock: XOMCOT_clean_sbu_0, # of connection points: 5
#     Node 2, Type 0, BuildingBlock: XOMCOT_clean_sbu_0, # of connection points: 5
#     Node 3, Type 0, BuildingBlock: XOMCOT_clean_sbu_0, # of connection points: 5
#     Node 4, Type 0, BuildingBlock: XOMCOT_clean_sbu_0, # of connection points: 5
#     Node 5, Type 0, BuildingBlock: XOMCOT_clean_sbu_0, # of connection points: 5
#     Node 6, Type 0, BuildingBlock: XOMCOT_clean_sbu_0, # of connection points: 5
#     Node 7, Type 0, BuildingBlock: XOMCOT_clean_sbu_0, # of connection points: 5
#     Edge 8, Type (0, 0), BuildingBlock: CIFDUS_clean_linker_0, # of connection points: 2
#     Edge 9, Type (0, 0), BuildingBlock: CIFDUS_clean_linker_0, # of connection points: 2
#     Edge 10, Type (0, 0), BuildingBlock: CIFDUS_clean_linker_0, # of connection points: 2
#     Edge 11, Type (0, 0), BuildingBlock: CIFDUS_clean_linker_0, # of connection points: 2
#     Edge 12, Type (0, 0), BuildingBlock: CIFDUS_clean_linker_0, # of connection points: 2
#     Edge 13, Type (0, 0), BuildingBlock: CIFDUS_clean_linker_0, # of connection points: 2
#     Edge 14, Type (0, 0), BuildingBlock: CIFDUS_clean_linker_0, # of connection points: 2
#     Edge 15, Type (0, 0), BuildingBlock: CIFDUS_clean_linker_0, # of connection points: 2
#     Edge 16, Type (0, 0), BuildingBlock: CIFDUS_clean_linker_0, # of connection points: 2
#     Edge 17, Type (0, 0), BuildingBlock: CIFDUS_clean_linker_0, # of connection points: 2
#     Edge 18, Type (0, 0), BuildingBlock: CIFDUS_clean_linker_0, # of connection points: 2
#     Edge 19, Type (0, 0), BuildingBlock: CIFDUS_clean_linker_0, # of connection points: 2
#     Edge 20, Type (0, 0), BuildingBlock: CIFDUS_clean_linker_0, # of connection points: 2
#     Edge 21, Type (0, 0), BuildingBlock: CIFDUS_clean_linker_0, # of connection points: 2
#     Edge 22, Type (0, 0), BuildingBlock: CIFDUS_clean_linker_0, # of connection points: 2
#     Edge 23, Type (0, 0), BuildingBlock: CIFDUS_clean_linker_0, # of connection points: 2
#     Edge 24, Type (0, 0), BuildingBlock: CIFDUS_clean_linker_0, # of connection points: 2
#     Edge 25, Type (0, 0), BuildingBlock: CIFDUS_clean_linker_0, # of connection points: 2
#     Edge 26, Type (0, 0), BuildingBlock: CIFDUS_clean_linker_0, # of connection points: 2
#     Edge 27, Type (0, 0), BuildingBlock: CIFDUS_clean_linker_0, # of connection points: 2
# Relax obj value: 0.356
# Max RMSD: 0.214
# Mean RMSD: 0.214
data_MOF--net-ooa--node1-XOMCOT_clean_sbu_0--edge1-CIFDUS_clean_linker_0
_symmetry_space_group_name_H-M    P1
_symmetry_Int_Tables_number       1
_symmetry_cell_setting            triclinic
loop_
_symmetry_equiv_pos_as_xyz
'x, y, z'
_cell_length_a     25.899553
_cell_length_b     28.861936
_cell_length_c     42.398547
_cell_angle_alpha  89.733789
_cell_angle_beta   89.820892
_cell_angle_gamma 90.313432
loop_
_atom_site_label
_atom_site_type_symbol
_atom_site_fract_x
_atom_site_fract_y
_atom_site_fract_z
_atom_type_partial_charge
Co0 Co 0.0725 0.18494 0.06939 0.0
C1 C 0.98161 0.21805 0.03312 0.0
C2 C 1.01506 0.27327 0.05966 0.0
C3 C 0.96943 0.28853 0.04658 0.0
N4 N 1.02303 0.22884 0.05125 0.0
N5 N 0.94799 0.25357 0.03004 0.0
H6 H 0.974 0.18381 0.02414 0.0
H7 H 0.03799 0.29239 0.07635 0.0
C8 C 0.15488 0.26195 0.05948 0.0
O9 O 0.1318 0.29217 0.07766 0.0
N10 N 0.11916 0.14046 0.08759 0.0
C11 C 0.10863 0.11505 0.11363 0.0
C12 C 0.14394 0.08002 0.11583 0.0
C13 C 0.16081 0.12068 0.07421 0.0
N14 N 0.17636 0.08359 0.09106 0.0
C15 C 1.02204 0.21467 0.12585 0.0
C16 C 0.112 0.22884 0.15949 0.0
C17 C 0.06525 0.22504 0.17607 0.0
C18 C 1.0195 0.22 0.15869 0.0
C19 C 0.11289 0.22289 0.1269 0.0
N20 N 0.06849 0.21452 0.11052 0.0
H21 H 0.98708 0.2067 0.11303 0.0
H22 H 0.15003 0.22014 0.11547 0.0
H23 H 0.07569 0.1201 0.12895 0.0
H24 H 0.17707 0.13112 0.05171 0.0
O25 O 1.01824 0.13893 0.0746 0.0
O26 O 0.06889 0.1468 0.03254 0.0
O27 O 0.13454 0.22223 0.05454 0.0
C28 C 0.03445 0.12244 0.04773 0.0
H29 H 0.95237 0.32218 0.05036 0.0
H30 H 0.14489 0.05307 0.13367 0.0
H31 H 0.14824 0.23331 0.17182 0.0
H32 H 0.98252 0.21663 0.17048 0.0
Co33 Co 0.48309 0.78974 0.06874 0.0
C34 C 0.57838 0.76418 0.0343 0.0
C35 C 0.53595 0.70386 0.04889 0.0
C36 C 0.5822 0.68999 0.03561 0.0
N37 N 0.53357 0.75048 0.04799 0.0
N38 N 0.60882 0.7281 0.02645 0.0
H39 H 0.59011 0.79995 0.03167 0.0
H40 H 0.50716 0.68153 0.05966 0.0
C41 C 0.40282 0.7338 0.03848 0.0
O42 O 0.42386 0.74617 1.01148 0.0
N43 N 0.43438 0.82908 0.0898 0.0
C44 C 0.44513 0.85554 0.1151 0.0
C45 C 0.4063 0.88721 0.11882 0.0
C46 C 0.38915 0.84475 0.07846 0.0
N47 N 0.37146 0.88023 0.09583 0.0
C48 C 0.55117 0.77433 0.12046 0.0
C49 C 0.47722 0.73693 0.16052 0.0
C50 C 0.52527 0.74983 0.17293 0.0
C51 C 0.56307 0.76751 0.15231 0.0
C52 C 0.46669 0.74487 0.12872 0.0
N53 N 0.50295 0.76462 0.10937 0.0
H54 H 0.57965 0.79011 0.10506 0.0
H55 H 0.42797 0.73842 0.12046 0.0
H56 H 0.4806 0.85423 0.12844 0.0
H57 H 0.37196 0.83322 0.0566 0.0
O58 O 0.52923 0.8427 0.06655 0.0
O59 O 0.47163 0.82404 0.03016 0.0
O60 O 0.42674 0.74217 0.06409 0.0
C61 C 0.50561 0.85351 0.04047 0.0
H62 H 0.59553 0.65467 0.03348 0.0
H63 H 0.40501 0.9149 0.13595 0.0
H64 H 0.44668 0.7238 0.17567 0.0
H65 H 0.60081 0.77753 0.16094 0.0
Co66 Co 0.06233 0.2855 0.46933 0.0
C67 C 0.96725 0.24274 0.49596 0.0
C68 C 0.0325 0.19953 0.50484 0.0
C69 C 0.9895 0.17947 0.51866 0.0
N70 N 1.0186 0.23929 0.49039 0.0
N71 N 0.94839 0.20672 0.51306 0.0
H72 H 0.94416 0.27179 0.48844 0.0
H73 H 0.07111 0.18606 0.50625 0.0
C74 C 0.15325 0.21638 0.47569 0.0
O75 O 0.13579 0.18566 0.45555 0.0
N76 N 0.1042 0.33241 0.44893 0.0
C77 C 0.09121 0.35532 0.42236 0.0
C78 C 0.12309 0.3931 0.419 0.0
C79 C 0.14346 0.35678 0.46161 0.0
N80 N 0.1555 0.39424 0.44382 0.0
C81 C 1.00745 0.24666 0.41719 0.0
C82 C 0.09216 0.24051 0.3776 0.0
C83 C 0.04265 0.23568 0.36462 0.0
C84 C 1.00004 0.23725 0.38515 0.0
C85 C 0.09785 0.24977 0.40969 0.0
N86 N 0.05578 0.25392 0.429 0.0
H87 H 0.97397 0.25158 0.43198 0.0
H88 H 0.13601 0.25793 0.41835 0.0
H89 H 0.05885 0.34657 0.40741 0.0
H90 H 0.16014 0.34919 0.48442 0.0
O91 O 1.00502 0.32833 0.46583 0.0
O92 O 0.05948 0.32375 0.50598 0.0
O93 O 0.12757 0.25272 0.48222 0.0
C94 C 1.0222 0.34579 0.49217 0.0
H95 H 0.98883 0.14741 0.532 0.0
H96 H 0.12149 0.41858 0.40022 0.0
H97 H 0.12626 0.24066 0.36277 0.0
H98 H 0.96108 0.23333 0.37633 0.0
Co99 Co 0.47303 0.67781 0.46379 0.0
C100 C 0.57821 0.69567 0.48777 0.0
C101 C 0.53199 0.75676 0.49098 0.0
C102 C 0.58174 0.76772 0.50002 0.0
N103 N 0.52958 0.71129 0.48367 0.0
N104 N 0.61064 0.72928 0.49766 0.0
H105 H 0.59065 0.66099 0.48211 0.0
H106 H 0.50089 0.78118 0.48814 0.0
C107 C 0.40663 0.73915 0.49995 0.0
O108 O 0.43252 0.72515 0.52478 0.0
N109 N 0.41781 0.64444 0.44344 0.0
C110 C 0.41854 0.62665 0.41406 0.0
C111 C 0.37411 0.60144 0.40957 0.0
C112 C 0.37358 0.62893 0.45671 0.0
N113 N 0.34616 0.60315 0.43631 0.0
C114 C 0.53826 0.68976 0.41029 0.0
C115 C 0.46822 0.73831 0.37394 0.0
C116 C 0.51236 0.71999 0.35967 0.0
C117 C 0.54853 0.69692 0.3783 0.0
C118 C 0.45917 0.73015 0.40603 0.0
N119 N 0.493 0.70437 0.42339 0.0
H120 H 0.56487 0.66925 0.42396 0.0
H121 H 0.42282 0.74098 0.416 0.0
H122 H 0.45017 0.62981 0.39749 0.0
H123 H 0.36279 0.63463 0.48107 0.0
O124 O 0.51272 0.6211 0.46271 0.0
O125 O 0.46111 0.64209 0.50178 0.0
O126 O 0.42259 0.72877 0.4724 0.0
C127 C 0.49094 0.61089 0.4896 0.0
H128 H 0.59636 0.8019 0.50565 0.0
H129 H 0.36437 0.58112 0.389 0.0
H130 H 0.43922 0.75576 0.35996 0.0
H131 H 0.58281 0.68202 0.36782 0.0
Co132 Co 0.98726 0.79978 0.96333 0.0
C133 C 0.07772 0.74546 0.98288 0.0
C134 C 1.02122 0.74725 0.01969 0.0
C135 C 0.06592 0.72774 0.03148 0.0
N136 N 0.02852 0.758 0.989 0.0
N137 N 0.10155 0.72681 1.00819 0.0
H138 H 0.09779 0.75392 0.96141 0.0
H139 H 0.98705 0.75583 0.03314 0.0
C140 C 0.90835 0.72526 0.98242 0.0
O141 O 0.94351 0.69286 0.985 0.0
N142 N 0.94857 0.84244 0.93758 0.0
C143 C 0.96499 0.86053 0.9099 0.0
C144 C 0.92933 0.8917 0.89936 0.0
C145 C 0.90361 0.86383 0.94401 0.0
N146 N 0.89096 0.89383 0.92077 0.0
C147 C 0.0456 0.77205 0.90892 0.0
C148 C 0.96305 0.73193 0.87812 0.0
C149 C 1.00736 0.74354 0.86086 0.0
C150 C 0.05003 0.76149 0.87687 0.0
C151 C 0.96038 0.74237 0.91015 0.0
N152 N 1.00055 0.76402 0.92508 0.0
H153 H 0.07623 0.79213 0.91937 0.0
H154 H 0.92357 0.73757 0.92145 0.0
H155 H 1.00135 0.85312 0.89858 0.0
H156 H 0.8812 0.85813 0.96528 0.0
O157 O 0.04443 0.84369 0.962 0.0
O158 O 0.98225 0.8418 0.99798 0.0
O159 O 0.92076 0.76605 0.97335 0.0
C160 C 1.02256 0.86273 0.98646 0.0
H161 H 0.07237 0.71731 0.05569 0.0
H162 H 0.93235 0.91268 0.87819 0.0
H163 H 0.92917 0.71821 0.86639 0.0
H164 H 0.08456 0.7718 0.8641 0.0
Co165 Co 0.57149 0.17967 0.96527 0.0
C166 C 0.47655 0.22849 0.98143 0.0
C167 C 0.53134 0.23369 0.01892 0.0
C168 C 0.4841 0.249 0.02975 0.0
N169 N 0.5269 0.22158 0.98835 0.0
N170 N 0.44943 0.24504 1.00625 0.0
H171 H 0.45901 0.21729 0.95965 0.0
H172 H 0.56516 0.22765 0.03324 0.0
C173 C 0.64862 0.25603 0.98494 0.0
O174 O 0.61252 0.28602 0.99199 0.0
N175 N 0.61337 0.13607 0.9423 0.0
C176 C 0.59752 0.11008 0.91779 0.0
C177 C 0.63382 0.0771 0.9117 0.0
C178 C 0.6589 0.11774 0.95124 0.0
N179 N 0.67239 0.08171 0.93273 0.0
C180 C 0.51753 0.19226 0.90672 0.0
C181 C 0.58036 0.26102 0.88241 0.0
C182 C 0.54762 0.2372 0.86147 0.0
C183 C 0.51416 0.20371 0.87467 0.0
C184 C 0.58421 0.24688 0.91391 0.0
N185 N 0.5551 0.21094 0.92535 0.0
H186 H 0.49271 0.1651 0.91575 0.0
H187 H 0.61221 0.26419 0.92831 0.0
H188 H 0.56032 0.11183 0.9066 0.0
H189 H 0.68027 0.1291 0.97171 0.0
O190 O 0.51712 0.1328 0.96701 0.0
O191 O 0.57889 0.14215 1.00245 0.0
O192 O 0.63692 0.21713 0.97249 0.0
C193 C 0.53956 0.11833 0.99268 0.0
H194 H 0.47487 0.25766 0.05393 0.0
H195 H 0.6301 0.04965 0.89454 0.0
H196 H 0.60463 0.28943 0.87456 0.0
H197 H 0.48743 0.18413 0.86039 0.0
Co198 Co 0.99052 0.67181 0.56989 0.0
C199 C 0.07913 0.70746 0.53212 0.0
C200 C 0.03504 0.76235 0.55268 0.0
C201 C 0.07891 0.78118 0.53911 0.0
N202 N 0.03546 0.71603 0.54857 0.0
N203 N 0.10628 0.74655 0.52613 0.0
H204 H 0.09307 0.6732 0.52659 0.0
H205 H 1.00658 0.78077 0.56642 0.0
C206 C 0.91048 0.71876 0.53461 0.0
O207 O 0.93734 0.70613 0.5098 0.0
N208 N 0.94646 0.62794 0.59137 0.0
C209 C 0.96053 0.60008 0.61543 0.0
C210 C 0.92186 0.5681 0.62059 0.0
C211 C 0.89954 0.61297 0.58228 0.0
N212 N 0.88382 0.57645 0.59977 0.0
C213 C 0.05345 0.70334 0.62068 0.0
C214 C 0.97201 0.72251 0.66082 0.0
C215 C 1.02236 0.72202 0.67314 0.0
C216 C 0.06355 0.71407 0.6522 0.0
C217 C 0.96376 0.71264 0.62908 0.0
N218 N 1.00401 0.70148 0.60983 0.0
H219 H 0.08512 0.6942 0.60528 0.0
H220 H 0.92451 0.71016 0.62066 0.0
H221 H 0.99732 0.60169 0.62738 0.0
H222 H 0.87877 0.62661 0.56219 0.0
O223 O 0.04448 0.62575 0.57061 0.0
O224 O 0.98611 0.63342 0.53286 0.0
O225 O 0.92894 0.71217 0.56208 0.0
C226 C 1.02343 0.60944 0.54507 0.0
H227 H 0.09092 0.81714 0.53988 0.0
H228 H 0.92204 0.54021 0.63776 0.0
H229 H 0.93863 0.72746 0.67581 0.0
H230 H 0.10317 0.71438 0.66023 0.0
Co231 Co 0.55965 0.29052 0.56451 0.0
C232 C 0.46656 0.24116 0.54175 0.0
C233 C 0.53505 0.20582 0.52738 0.0
C234 C 0.49296 0.18393 0.51414 0.0
N235 N 0.51855 0.24162 0.54502 0.0
N236 N 0.44977 0.20634 0.52307 0.0
H237 H 0.44164 0.26754 0.55127 0.0
H238 H 0.5748 0.19728 0.52272 0.0
C239 C 0.65129 0.22082 0.56096 0.0
O240 O 0.632 0.18849 0.57952 0.0
N241 N 0.59896 0.3397 0.5836 0.0
C242 C 0.58136 0.36844 0.60613 0.0
C243 C 0.61801 0.40204 0.61143 0.0
C244 C 0.64611 0.3558 0.57555 0.0
N245 N 0.65847 0.39389 0.59225 0.0
C246 C 0.50238 0.26052 0.61883 0.0
C247 C 0.58675 0.24633 0.65732 0.0
C248 C 0.53729 0.24557 0.67112 0.0
C249 C 0.49472 0.25199 0.65106 0.0
C250 C 0.59271 0.25643 0.62525 0.0
N251 N 0.55088 0.26318 0.60629 0.0
H252 H 0.46928 0.26825 0.60441 0.0
H253 H 0.63128 0.26173 0.61621 0.0
H254 H 0.54395 0.36566 0.61741 0.0
H255 H 0.67007 0.34105 0.55724 0.0
O256 O 0.50119 0.33253 0.56388 0.0
O257 O 0.55894 0.32445 0.5256 0.0
O258 O 0.6263 0.25775 0.55493 0.0
C259 C 0.51924 0.34635 0.53662 0.0
H260 H 0.49447 0.15467 0.49833 0.0
H261 H 0.61527 0.43031 0.62804 0.0
H262 H 0.62113 0.24084 0.67124 0.0
H263 H 0.45572 0.253 0.66023 0.0
H264 H 0.08777 0.07092 1.00596 0.0
H265 H 0.95617 0.06623 0.06863 0.0
H266 H 0.94363 0.98398 0.05679 0.0
H267 H 0.97056 0.91394 0.02909 0.0
H268 H 0.10234 0.91838 0.96651 0.0
H269 H 0.11537 0.00046 0.97869 0.0
C270 C 0.05579 0.05213 0.01666 0.0
C271 C 1.02235 0.07474 0.03777 0.0
C272 C 0.04971 0.00478 1.01036 0.0
C273 C 0.98195 0.04967 0.05202 0.0
C274 C 0.97509 0.00263 0.04546 0.0
C275 C 1.0026 0.93261 0.01837 0.0
C276 C 0.03567 0.91002 0.99702 0.0
C277 C 1.00903 0.97982 0.0249 0.0
C278 C 0.07664 0.93489 0.98318 0.0
C279 C 0.08377 0.98187 0.98992 0.0
H280 H 0.49803 0.04223 0.96479 0.0
H281 H 0.55803 0.09275 0.05304 0.0
H282 H 0.55525 0.01455 0.07514 0.0
H283 H 0.53982 0.93142 0.06865 0.0
H284 H 0.47941 0.87997 0.98079 0.0
H285 H 0.47923 0.9587 0.959 0.0
C286 C 0.50929 0.03616 0.98907 0.0
C287 C 0.52782 0.07313 1.00737 0.0
C288 C 0.50887 -0.00918 1.00139 0.0
C289 C 0.54336 0.06478 0.03859 0.0
C290 C 0.54223 0.02005 0.05114 0.0
C291 C 0.52732 0.93737 0.04458 0.0
C292 C 0.51061 0.89995 0.02612 0.0
C293 C 0.52616 0.9827 0.03254 0.0
C294 C 0.49314 0.90827 0.99528 0.0
C295 C 0.49263 0.95327 0.98292 0.0
H296 H 0.96343 0.55622 0.50725 0.0
H297 H 0.10489 0.55499 0.56083 0.0
H298 H 0.1142 0.47211 0.55102 0.0
H299 H 0.08107 0.40025 0.52885 0.0
H300 H 0.94091 0.40041 0.47409 0.0
H301 H 0.9312 0.48375 0.4836 0.0
C302 C 0.99681 0.53799 0.51628 0.0
C303 C 0.03371 0.56174 0.53455 0.0
C304 C 1.00127 0.49014 0.51114 0.0
C305 C 0.07624 0.53752 0.54653 0.0
C306 C 0.08129 0.4901 0.54119 0.0
C307 C 0.0478 0.41821 0.51939 0.0
C308 C 1.01112 0.39403 0.50129 0.0
C309 C 0.04358 0.46601 0.52403 0.0
C310 C 0.96914 0.41817 0.48852 0.0
C311 C 0.96394 0.46582 0.49369 0.0
H312 H 0.51351 0.53133 0.4593 0.0
H313 H 0.47105 0.58527 0.55037 0.0
H314 H 0.46888 0.50667 0.57231 0.0
H315 H 0.48292 0.4228 0.56597 0.0
H316 H 0.52587 0.36953 0.47479 0.0
H317 H 0.52231 0.44747 0.45222 0.0
C318 C 0.50433 0.52587 0.48402 0.0
C319 C 0.4935 0.56397 0.50337 0.0
C320 C 0.50208 0.48063 0.49625 0.0
C321 C 0.48024 0.5564 0.53514 0.0
C322 C 0.47861 0.51149 0.54762 0.0
C323 C 0.48995 0.42817 0.54098 0.0
C324 C 0.50416 0.39056 0.52196 0.0
C325 C 0.48952 0.47332 0.5284 0.0
C326 C 0.51444 0.39803 0.48978 0.0
C327 C 0.51299 0.4426 0.47696 0.0
H328 H 0.3789 0.9699 0.08183 0.0
H329 H 0.27123 0.8571 0.09343 0.0
H330 H 0.19848 0.91117 0.08942 0.0
H331 H 0.16724 -0.0083 0.08923 0.0
H332 H 0.27477 0.10443 0.07638 0.0
H333 H 0.34668 0.04943 0.07355 0.0
C334 C 0.33933 0.95748 0.08294 0.0
C335 C 0.32961 0.91027 0.0884 0.0
C336 C 0.29831 -0.01135 0.08052 0.0
C337 C 0.2788 0.8936 0.08938 0.0
C338 C 0.23757 0.92442 0.08723 0.0
C339 C 0.20645 0.00385 0.08531 0.0
C340 C 0.21646 0.05162 0.08355 0.0
C341 C 0.24704 0.97214 0.08381 0.0
C342 C 0.26682 0.06761 0.07788 0.0
C343 C 0.30767 0.03628 0.07649 0.0
H344 H 0.14672 0.48447 0.42962 0.0
H345 H 0.24662 0.3848 0.47404 0.0
H346 H 0.31347 0.44443 0.48027 0.0
H347 H 0.34707 0.52246 0.46668 0.0
H348 H 0.24896 0.61973 0.41906 0.0
H349 H 0.17716 0.56383 0.42047 0.0
C350 C 0.18313 0.47584 0.44066 0.0
C351 C 0.19233 0.43017 0.45072 0.0
C352 C 0.22141 0.50993 0.44354 0.0
C353 C 0.23891 0.41973 0.46598 0.0
C354 C 0.27711 0.45371 0.46941 0.0
C355 C 0.30935 0.53142 0.45749 0.0
C356 C 0.30234 0.57467 0.44302 0.0
C357 C 0.26928 0.49855 0.45747 0.0
C358 C 0.25424 0.58647 0.4305 0.0
C359 C 0.21367 0.5545 0.43112 0.0
H360 H 0.84914 0.94254 0.96844 0.0
H361 H 0.83711 0.91459 0.86896 0.0
H362 H 0.76961 0.97265 0.86373 0.0
H363 H 0.71622 0.03232 0.88687 0.0
H364 H 0.72467 0.06044 0.98652 0.0
H365 H 0.79271 0.0024 0.99223 0.0
C366 C 0.83098 0.94885 0.94583 0.0
C367 C 0.84775 0.92452 0.91908 0.0
C368 C 0.79253 0.98278 0.94295 0.0
C369 C 0.82481 0.93327 0.88973 0.0
C370 C 0.78641 0.96643 0.88674 0.0
C371 C 0.73247 0.0255 0.90994 0.0
C372 C 0.71509 0.05041 0.93621 0.0
C373 C 0.7704 -0.00837 0.9131 0.0
C374 C 0.73767 0.04205 0.96581 0.0
C375 C 0.77617 0.00851 0.96915 0.0
H376 H 0.66465 0.48616 0.59006 0.0
H377 H 0.75563 0.3618 0.58965 0.0
H378 H 0.83529 0.40813 0.59136 0.0
H379 H 0.87819 0.48429 0.59607 0.0
H380 H 0.78743 0.60869 0.59329 0.0
H381 H 0.7079 0.56241 0.58959 0.0
C382 C 0.70207 0.46949 0.59021 0.0
C383 C 0.70482 0.42096 0.59016 0.0
C384 C 0.74726 0.49632 0.59077 0.0
C385 C 0.75311 0.39924 0.58969 0.0
C386 C 0.79839 0.42565 0.59083 0.0
C387 C 0.84084 0.50095 0.59461 0.0
C388 C 0.83794 0.54944 0.59548 0.0
C389 C 0.79582 0.47417 0.59191 0.0
C390 C 0.78993 0.57125 0.59281 0.0
C391 C 0.74475 0.54487 0.59078 0.0
H392 H 0.21002 0.21219 0.01665 0.0
H393 H 0.22288 0.32892 0.07943 0.0
H394 H 0.31512 0.33527 0.06753 0.0
H395 H 0.39377 0.30419 0.04186 0.0
H396 H 0.37952 0.188 0.97887 0.0
H397 H 0.28662 0.18519 0.9881 0.0
C398 C 0.23278 0.23941 0.02751 0.0
C399 C 0.2093 0.26985 0.04909 0.0
C400 C 0.28589 0.24284 0.0206 0.0
C401 C 0.23963 0.30503 0.0627 0.0
C402 C 0.29258 0.30853 0.05602 0.0
C403 C 0.37016 0.27855 0.03001 0.0
C404 C 0.39381 0.24645 1.00965 0.0
C405 C 0.31637 0.2771 0.03545 0.0
C406 C 0.36256 0.21358 0.99427 0.0
C407 C 0.30932 0.2117 0.99974 0.0
H408 H 0.16223 0.72979 0.06043 0.0
H409 H 0.16495 0.70069 0.9607 0.0
H410 H 0.25878 0.69579 0.9618 0.0
H411 H 0.34068 0.70761 0.98983 0.0
H412 H 0.3383 0.73516 0.08977 0.0
H413 H 0.24419 0.7316 0.08989 0.0
C414 C 0.18311 0.72139 0.03905 0.0
C415 C 0.1562 0.71669 1.01036 0.0
C416 C 0.23746 0.71845 0.03983 0.0
C417 C 0.18444 0.70579 0.98296 0.0
C418 C 0.23825 0.70273 0.98357 0.0
C419 C 0.31966 0.71194 1.01178 0.0
C420 C 0.34681 0.72198 0.03966 0.0
C421 C 0.2653 0.71029 1.01167 0.0
C422 C 0.31872 0.72725 0.0679 0.0
C423 C 0.26468 0.72558 0.06798 0.0
H424 H 0.36134 0.23416 0.55108 0.0
H425 H 0.4193 0.16089 0.46995 0.0
H426 H 0.33179 0.15289 0.44966 0.0
H427 H 0.23882 0.17223 0.45269 0.0
H428 H 0.18302 0.25 0.53236 0.0
H429 H 0.26925 0.25092 0.55515 0.0
C430 C 0.35512 0.21662 0.52888 0.0
C431 C 0.39746 0.19865 0.51209 0.0
C432 C 0.3047 0.21303 0.5169 0.0
C433 C 0.38788 0.17495 0.48368 0.0
C434 C 0.33764 0.17057 0.47187 0.0
C435 C 0.24548 0.18864 0.47528 0.0
C436 C 0.20449 0.21102 0.49076 0.0
C437 C 0.29576 0.19012 0.488 0.0
C438 C 0.21388 0.23267 0.51986 0.0
C439 C 0.26326 0.23331 0.53293 0.0
H440 H 0.18691 0.79152 0.55146 0.0
H441 H 0.14157 0.70511 0.47376 0.0
H442 H 0.23136 0.70195 0.45535 0.0
H443 H 0.32332 0.71775 0.46443 0.0
H444 H 0.36989 0.79491 0.54646 0.0
H445 H 0.27923 0.8092 0.55973 0.0
C446 C 0.1968 0.77289 0.53015 0.0
C447 C 0.15798 0.74889 0.51373 0.0
C448 C 0.24869 0.76976 0.52056 0.0
C449 C 0.17107 0.72384 0.4866 0.0
C450 C 0.22226 0.72208 0.47614 0.0
C451 C 0.31362 0.73851 0.48483 0.0
C452 C 0.35316 0.75558 0.50436 0.0
C453 C 0.26153 0.74412 0.49331 0.0
C454 C 0.34004 0.78173 0.53102 0.0
C455 C 0.28826 0.78958 0.5387 0.0
H456 H 0.68709 0.66652 0.0339 0.0
H457 H 0.64776 0.79641 0.98946 0.0
H458 H 0.73638 0.80589 0.97119 0.0
H459 H 0.82566 0.77947 0.96955 0.0
H460 H 0.86674 0.64943 1.0131 0.0
H461 H 0.77674 0.63746 0.02939 0.0
C462 C 0.69768 0.69655 0.01985 0.0
C463 C 0.66057 0.73101 1.0135 0.0
C464 C 0.74913 0.70183 1.00925 0.0
C465 C 0.67544 0.76982 0.99536 0.0
C466 C 0.72618 0.77519 0.98471 0.0
C467 C 0.81511 0.74833 0.98252 0.0
C468 C 0.85323 0.71558 0.99028 0.0
C469 C 0.76349 0.74181 0.9919 0.0
C470 C 0.83836 0.67526 1.00678 0.0
C471 C 0.78686 0.66847 1.01621 0.0
H472 H 0.734 0.20739 0.967 0.0
H473 H 0.68756 0.32637 0.02122 0.0
H474 H 0.77651 0.33749 0.03886 0.0
H475 H 0.86629 0.3103 0.04181 0.0
H476 H 0.91277 0.19242 0.98632 0.0
H477 H 0.82505 0.18393 0.96672 0.0
C478 C 0.74326 0.23602 0.98249 0.0
C479 C 0.70371 0.26581 0.99287 0.0
C480 C 0.79459 0.24216 0.99268 0.0
C481 C 0.71692 0.30289 1.01276 0.0
C482 C 0.76789 0.30916 0.023 0.0
C483 C 0.85779 0.28314 0.02507 0.0
C484 C 0.89675 0.25164 1.01612 0.0
C485 C 0.80695 0.27859 1.01351 0.0
C486 C 0.88394 0.21662 0.99441 0.0
C487 C 0.83359 0.21184 0.98294 0.0
H488 H 0.84839 0.6955 0.48615 0.0
H489 H 0.84802 0.76607 0.57557 0.0
H490 H 0.75454 0.7779 0.57131 0.0
H491 H 0.67189 0.7645 0.54297 0.0
H492 H 0.67337 0.68788 0.45604 0.0
H493 H 0.76732 0.68182 0.45846 0.0
C494 C 0.82808 0.71415 0.50451 0.0
C495 C 0.85521 0.73046 0.53094 0.0
C496 C 0.77435 0.71917 0.50246 0.0
C497 C 0.82802 0.75354 0.55486 0.0
C498 C 0.77458 0.7601 0.55249 0.0
C499 C 0.6931 0.74674 0.52461 0.0
C500 C 0.666 0.72646 0.49944 0.0
C501 C 0.74719 0.74251 0.52657 0.0
C502 C 0.69351 0.70318 0.4758 0.0
C503 C 0.74717 0.69995 0.4771 0.0
H504 H 0.86175 0.24208 0.48746 0.0
H505 H 0.91593 0.15679 0.56419 0.0
H506 H 0.82787 0.14966 0.58454 0.0
H507 H 0.7354 0.17213 0.5825 0.0
H508 H 0.68407 0.26065 0.50662 0.0
H509 H 0.77067 0.26223 0.48436 0.0
C510 C 0.85459 0.22217 0.50876 0.0
C511 C 0.8959 0.20045 0.52431 0.0
C512 C 0.80399 0.21883 0.52065 0.0
C513 C 0.88515 0.17377 0.55149 0.0
C514 C 0.83467 0.16985 0.5633 0.0
C515 C 0.74313 0.19113 0.56086 0.0
C516 C 0.7032 0.21631 0.54636 0.0
C517 C 0.79374 0.19272 0.54831 0.0
C518 C 0.71403 0.24118 0.51845 0.0
C519 C 0.76365 0.24218 0.50564 0.0
H520 H 0.10171 0.18974 0.32156 0.0
H521 H 0.96862 0.27844 0.32879 0.0
H522 H 0.96238 0.2818 0.27141 0.0
H523 H 0.99806 0.26346 0.21877 0.0
H524 H 0.13242 0.17612 0.21233 0.0
H525 H 0.13549 0.16957 0.26951 0.0
C526 C 0.07134 0.2099 0.31065 0.0
C527 C 0.03581 0.23379 0.32968 0.0
C528 C 0.06864 0.21263 0.27759 0.0
C529 C 0.99615 0.25904 0.31493 0.0
C530 C 0.99284 0.26144 0.28201 0.0
C531 C 0.0278 0.24281 0.2299 0.0
C532 C 0.0655 0.2211 0.21116 0.0
C533 C 0.02933 0.23892 0.26305 0.0
C534 C 0.10372 0.19435 0.22607 0.0
C535 C 0.10528 0.19016 0.25884 0.0
H536 H 0.50108 0.68048 0.21407 0.0
H537 H 0.56658 0.81804 0.20957 0.0
H538 H 0.57004 0.82096 0.26716 0.0
H539 H 0.54901 0.78605 0.31921 0.0
H540 H 0.4838 0.64857 0.32322 0.0
H541 H 0.48513 0.64395 0.26557 0.0
C542 C 0.51644 0.71094 0.22573 0.0
C543 C 0.53345 0.74897 0.20759 0.0
C544 C 0.51784 0.71254 0.25881 0.0
C545 C 0.55379 0.78806 0.22299 0.0
C546 C 0.55533 0.78994 0.25594 0.0
C547 C 0.53548 0.75515 0.30727 0.0
C548 C 0.51611 0.71776 0.32503 0.0
C549 C 0.53665 0.7527 0.27412 0.0
C550 C 0.49874 0.67767 0.30969 0.0
C551 C 0.49951 0.67505 0.27685 0.0
H552 H 0.96729 0.7726 0.71593 0.0
H553 H 0.09651 0.67903 0.70921 0.0
H554 H 0.10538 0.67947 0.76635 0.0
H555 H 0.0728 0.70236 0.81898 0.0
H556 H 0.93812 0.789 0.82503 0.0
H557 H 0.93395 0.7939 0.76761 0.0
C558 C 0.99712 0.75179 0.72679 0.0
C559 C 0.03092 0.72574 0.70789 0.0
C560 C 1.00054 0.75031 0.75979 0.0
C561 C 0.07029 0.70022 0.72278 0.0
C562 C 0.07507 0.69988 0.75564 0.0
C563 C 0.04262 0.72216 0.80756 0.0
C564 C 1.00546 0.74481 0.82602 0.0
C565 C 0.03988 0.72417 0.77443 0.0
C566 C 0.96657 0.77062 0.81117 0.0
C567 C 0.96437 0.77369 0.77839 0.0
H568 H 0.60384 0.27352 0.71777 0.0
H569 H 0.45489 0.20819 0.70456 0.0
H570 H 0.44274 0.20457 0.76149 0.0
H571 H 0.47463 0.21887 0.815 0.0
H572 H 0.63041 0.2713 0.82695 0.0
H573 H 0.6386 0.28128 0.77069 0.0
C574 C 0.56906 0.25737 0.72698 0.0
C575 C 0.5305 0.24118 0.70624 0.0
C576 C 0.56302 0.25356 0.75985 0.0
C577 C 0.48515 0.22188 0.71944 0.0
C578 C 0.47821 0.21942 0.7522 0.0
C579 C 0.5109 0.23181 0.80569 0.0
C580 C 0.55134 0.24478 0.82629 0.0
C581 C 0.517 0.23505 0.77268 0.0
C582 C 0.59733 0.26241 0.8127 0.0
C583 C 0.60266 0.26752 0.7801 0.0
loop_
_geom_bond_atom_site_label_1
_geom_bond_atom_site_label_2
_geom_bond_distance
_geom_bond_site_symmetry_2
_ccdc_geom_bond_type
Co0 N4 2.148 . S
Co0 N10 2.128 . S
Co0 N20 2.194 . S
Co0 O25 2.336 1_455 S
Co0 O26 2.155 . S
Co0 O27 2.096 . S
C1 N4 1.301 1_655 S
C1 N5 1.328 . S
C1 H6 0.930 . S
C2 C3 1.333 1_455 S
C2 N4 1.317 . S
C2 H7 0.930 . S
C3 C2 1.333 1_655 S
C3 N5 1.350 . S
C3 H29 0.931 1_554 S
N4 Co0 2.148 . S
N4 C1 1.301 1_455 S
N4 C2 1.317 . S
N5 C1 1.328 . S
N5 C3 1.350 . S
H6 C1 0.930 . S
H7 C2 0.930 . S
C8 O9 1.224 . S
C8 O27 1.247 . S
O9 C8 1.224 . S
N10 Co0 2.128 . S
N10 C11 1.355 . S
N10 C13 1.311 . S
C11 N10 1.355 . S
C11 C12 1.363 . S
C11 H23 0.929 . S
C12 C11 1.363 . S
C12 N14 1.375 . S
C12 H30 0.931 . S
C13 N10 1.311 . S
C13 N14 1.347 . S
C13 H24 0.929 . S
N14 C12 1.375 . S
N14 C13 1.347 . S
C15 C18 1.365 . S
C15 N20 1.328 . S
C15 H21 0.929 1_455 S
C16 C17 1.362 . S
C16 C19 1.378 . S
C16 H31 0.929 . S
C17 C16 1.362 . S
C17 C18 1.366 . S
C18 C15 1.365 . S
C18 C17 1.366 . S
C18 H32 0.930 1_455 S
C19 C16 1.378 . S
C19 N20 1.315 . S
C19 H22 0.930 . S
N20 Co0 2.194 . S
N20 C15 1.328 . S
N20 C19 1.315 . S
H21 C15 0.929 1_655 S
H22 C19 0.930 . S
H23 C11 0.929 . S
H24 C13 0.929 . S
O25 Co0 2.336 1_655 S
O25 C28 1.241 1_655 S
O26 Co0 2.155 . S
O26 C28 1.240 . S
O27 Co0 2.096 . S
O27 C8 1.247 . S
C28 O25 1.241 1_455 S
C28 O26 1.240 . S
H29 C3 0.931 1_556 S
H30 C12 0.931 . S
H31 C16 0.929 . S
H32 C18 0.930 1_655 S
Co33 N37 2.148 . S
Co33 N43 2.128 . S
Co33 N53 2.194 . S
Co33 O58 2.351 . S
Co33 O59 2.155 . S
Co33 O60 2.096 . S
C34 N37 1.301 . S
C34 N38 1.328 . S
C34 H39 0.930 . S
C35 C36 1.333 . S
C35 N37 1.317 . S
C35 H40 0.930 . S
C36 C35 1.333 . S
C36 N38 1.350 . S
C36 H62 0.931 1_554 S
N37 Co33 2.148 . S
N37 C34 1.301 . S
N37 C35 1.317 . S
N38 C34 1.328 . S
N38 C36 1.350 . S
H39 C34 0.930 . S
H40 C35 0.930 . S
C41 O42 1.224 . S
C41 O60 1.247 . S
O42 C41 1.224 . S
N43 Co33 2.128 . S
N43 C44 1.355 . S
N43 C46 1.311 . S
C44 N43 1.355 . S
C44 C45 1.363 . S
C44 H56 0.929 . S
C45 C44 1.363 . S
C45 N47 1.375 . S
C45 H63 0.931 . S
C46 N43 1.311 . S
C46 N47 1.347 . S
C46 H57 0.929 . S
N47 C45 1.375 . S
N47 C46 1.347 . S
C48 C51 1.365 . S
C48 N53 1.328 . S
C48 H54 0.929 . S
C49 C50 1.362 . S
C49 C52 1.378 . S
C49 H64 0.929 . S
C50 C49 1.362 . S
C50 C51 1.366 . S
C51 C48 1.365 . S
C51 C50 1.366 . S
C51 H65 0.930 . S
C52 C49 1.378 . S
C52 N53 1.315 . S
C52 H55 0.930 . S
N53 Co33 2.194 . S
N53 C48 1.328 . S
N53 C52 1.315 . S
H54 C48 0.929 . S
H55 C52 0.930 . S
H56 C44 0.929 . S
H57 C46 0.929 . S
O58 Co33 2.351 . S
O58 C61 1.244 . S
O59 Co33 2.155 . S
O59 C61 1.240 . S
O60 Co33 2.096 . S
O60 C41 1.247 . S
C61 O58 1.244 . S
C61 O59 1.240 . S
H62 C36 0.931 1_556 S
H63 C45 0.931 . S
H64 C49 0.929 . S
H65 C51 0.930 . S
Co66 N70 2.148 . S
Co66 N76 2.128 . S
Co66 N86 2.194 . S
Co66 O91 2.336 1_455 S
Co66 O92 2.155 . S
Co66 O93 2.096 . S
C67 N70 1.301 1_655 S
C67 N71 1.328 . S
C67 H72 0.930 . S
C68 C69 1.333 1_455 S
C68 N70 1.317 . S
C68 H73 0.930 . S
C69 C68 1.333 1_655 S
C69 N71 1.350 . S
C69 H95 0.931 . S
N70 Co66 2.148 . S
N70 C67 1.301 1_455 S
N70 C68 1.317 . S
N71 C67 1.328 . S
N71 C69 1.350 . S
H72 C67 0.930 . S
H73 C68 0.930 . S
C74 O75 1.224 . S
C74 O93 1.247 . S
O75 C74 1.224 . S
N76 Co66 2.128 . S
N76 C77 1.355 . S
N76 C79 1.311 . S
C77 N76 1.355 . S
C77 C78 1.363 . S
C77 H89 0.929 . S
C78 C77 1.363 . S
C78 N80 1.375 . S
C78 H96 0.931 . S
C79 N76 1.311 . S
C79 N80 1.347 . S
C79 H90 0.929 . S
N80 C78 1.375 . S
N80 C79 1.347 . S
C81 C84 1.365 . S
C81 N86 1.328 . S
C81 H87 0.929 1_455 S
C82 C83 1.362 . S
C82 C85 1.378 . S
C82 H97 0.929 . S
C83 C82 1.362 . S
C83 C84 1.366 . S
C84 C81 1.365 . S
C84 C83 1.366 . S
C84 H98 0.930 1_455 S
C85 C82 1.378 . S
C85 N86 1.315 . S
C85 H88 0.930 . S
N86 Co66 2.194 . S
N86 C81 1.328 . S
N86 C85 1.315 . S
H87 C81 0.929 1_655 S
H88 C85 0.930 . S
H89 C77 0.929 . S
H90 C79 0.929 . S
O91 Co66 2.336 1_655 S
O91 C94 1.241 1_655 S
O92 Co66 2.155 . S
O92 C94 1.240 . S
O93 Co66 2.096 . S
O93 C74 1.247 . S
C94 O91 1.241 1_455 S
C94 O92 1.240 . S
H95 C69 0.931 . S
H96 C78 0.931 . S
H97 C82 0.929 . S
H98 C84 0.930 1_655 S
Co99 N103 2.148 . S
Co99 N109 2.128 . S
Co99 N119 2.194 . S
Co99 O124 2.351 . S
Co99 O125 2.155 . S
Co99 O126 2.096 . S
C100 N103 1.301 . S
C100 N104 1.328 . S
C100 H105 0.930 . S
C101 C102 1.333 . S
C101 N103 1.317 . S
C101 H106 0.930 . S
C102 C101 1.333 . S
C102 N104 1.350 . S
C102 H128 0.931 . S
N103 Co99 2.148 . S
N103 C100 1.301 . S
N103 C101 1.317 . S
N104 C100 1.328 . S
N104 C102 1.350 . S
H105 C100 0.930 . S
H106 C101 0.930 . S
C107 O108 1.224 . S
C107 O126 1.247 . S
O108 C107 1.224 . S
N109 Co99 2.128 . S
N109 C110 1.355 . S
N109 C112 1.311 . S
C110 N109 1.355 . S
C110 C111 1.363 . S
C110 H122 0.929 . S
C111 C110 1.363 . S
C111 N113 1.375 . S
C111 H129 0.931 . S
C112 N109 1.311 . S
C112 N113 1.347 . S
C112 H123 0.929 . S
N113 C111 1.375 . S
N113 C112 1.347 . S
C114 C117 1.365 . S
C114 N119 1.328 . S
C114 H120 0.929 . S
C115 C116 1.362 . S
C115 C118 1.378 . S
C115 H130 0.929 . S
C116 C115 1.362 . S
C116 C117 1.366 . S
C117 C114 1.365 . S
C117 C116 1.366 . S
C117 H131 0.930 . S
C118 C115 1.378 . S
C118 N119 1.315 . S
C118 H121 0.930 . S
N119 Co99 2.194 . S
N119 C114 1.328 . S
N119 C118 1.315 . S
H120 C114 0.929 . S
H121 C118 0.930 . S
H122 C110 0.929 . S
H123 C112 0.929 . S
O124 Co99 2.351 . S
O124 C127 1.244 . S
O125 Co99 2.155 . S
O125 C127 1.240 . S
O126 Co99 2.096 . S
O126 C107 1.247 . S
C127 O124 1.244 . S
C127 O125 1.240 . S
H128 C102 0.931 . S
H129 C111 0.931 . S
H130 C115 0.929 . S
H131 C117 0.930 . S
Co132 N136 2.148 . S
Co132 N142 2.128 . S
Co132 N152 2.194 . S
Co132 O157 2.336 1_655 S
Co132 O158 2.155 . S
Co132 O159 2.096 . S
C133 N136 1.301 1_455 S
C133 N137 1.328 . S
C133 H138 0.930 . S
C134 C135 1.333 1_655 S
C134 N136 1.317 . S
C134 H139 0.930 . S
C135 C134 1.333 1_455 S
C135 N137 1.350 . S
C135 H161 0.931 1_556 S
N136 Co132 2.148 . S
N136 C133 1.301 1_655 S
N136 C134 1.317 . S
N137 C133 1.328 . S
N137 C135 1.350 . S
H138 C133 0.930 . S
H139 C134 0.930 . S
C140 O141 1.224 . S
C140 O159 1.247 . S
O141 C140 1.224 . S
N142 Co132 2.128 . S
N142 C143 1.355 . S
N142 C145 1.311 . S
C143 N142 1.355 . S
C143 C144 1.363 . S
C143 H155 0.929 . S
C144 C143 1.363 . S
C144 N146 1.375 . S
C144 H162 0.931 . S
C145 N142 1.311 . S
C145 N146 1.347 . S
C145 H156 0.929 . S
N146 C144 1.375 . S
N146 C145 1.347 . S
C147 C150 1.365 . S
C147 N152 1.328 . S
C147 H153 0.929 1_655 S
C148 C149 1.362 . S
C148 C151 1.378 . S
C148 H163 0.929 . S
C149 C148 1.362 . S
C149 C150 1.366 . S
C150 C147 1.365 . S
C150 C149 1.366 . S
C150 H164 0.930 1_655 S
C151 C148 1.378 . S
C151 N152 1.315 . S
C151 H154 0.930 . S
N152 Co132 2.194 . S
N152 C147 1.328 . S
N152 C151 1.315 . S
H153 C147 0.929 1_455 S
H154 C151 0.930 . S
H155 C143 0.929 . S
H156 C145 0.929 . S
O157 Co132 2.336 1_455 S
O157 C160 1.241 1_455 S
O158 Co132 2.155 . S
O158 C160 1.240 . S
O159 Co132 2.096 . S
O159 C140 1.247 . S
C160 O157 1.241 1_655 S
C160 O158 1.240 . S
H161 C135 0.931 1_554 S
H162 C144 0.931 . S
H163 C148 0.929 . S
H164 C150 0.930 1_455 S
Co165 N169 2.148 . S
Co165 N175 2.128 . S
Co165 N185 2.194 . S
Co165 O190 2.351 . S
Co165 O191 2.155 . S
Co165 O192 2.096 . S
C166 N169 1.301 . S
C166 N170 1.328 . S
C166 H171 0.930 . S
C167 C168 1.333 . S
C167 N169 1.317 . S
C167 H172 0.930 . S
C168 C167 1.333 . S
C168 N170 1.350 . S
C168 H194 0.931 1_556 S
N169 Co165 2.148 . S
N169 C166 1.301 . S
N169 C167 1.317 . S
N170 C166 1.328 . S
N170 C168 1.350 . S
H171 C166 0.930 . S
H172 C167 0.930 . S
C173 O174 1.224 . S
C173 O192 1.247 . S
O174 C173 1.224 . S
N175 Co165 2.128 . S
N175 C176 1.355 . S
N175 C178 1.311 . S
C176 N175 1.355 . S
C176 C177 1.363 . S
C176 H188 0.929 . S
C177 C176 1.363 . S
C177 N179 1.375 . S
C177 H195 0.931 . S
C178 N175 1.311 . S
C178 N179 1.347 . S
C178 H189 0.929 . S
N179 C177 1.375 . S
N179 C178 1.347 . S
C180 C183 1.365 . S
C180 N185 1.328 . S
C180 H186 0.929 . S
C181 C182 1.362 . S
C181 C184 1.378 . S
C181 H196 0.929 . S
C182 C181 1.362 . S
C182 C183 1.366 . S
C183 C180 1.365 . S
C183 C182 1.366 . S
C183 H197 0.930 . S
C184 C181 1.378 . S
C184 N185 1.315 . S
C184 H187 0.930 . S
N185 Co165 2.194 . S
N185 C180 1.328 . S
N185 C184 1.315 . S
H186 C180 0.929 . S
H187 C184 0.930 . S
H188 C176 0.929 . S
H189 C178 0.929 . S
O190 Co165 2.351 . S
O190 C193 1.244 . S
O191 Co165 2.155 . S
O191 C193 1.240 . S
O192 Co165 2.096 . S
O192 C173 1.247 . S
C193 O190 1.244 . S
C193 O191 1.240 . S
H194 C168 0.931 1_554 S
H195 C177 0.931 . S
H196 C181 0.929 . S
H197 C183 0.930 . S
Co198 N202 2.148 . S
Co198 N208 2.128 . S
Co198 N218 2.194 . S
Co198 O223 2.336 1_655 S
Co198 O224 2.155 . S
Co198 O225 2.096 . S
C199 N202 1.301 1_455 S
C199 N203 1.328 . S
C199 H204 0.930 . S
C200 C201 1.333 1_655 S
C200 N202 1.317 . S
C200 H205 0.930 . S
C201 C200 1.333 1_455 S
C201 N203 1.350 . S
C201 H227 0.931 . S
N202 Co198 2.148 . S
N202 C199 1.301 1_655 S
N202 C200 1.317 . S
N203 C199 1.328 . S
N203 C201 1.350 . S
H204 C199 0.930 . S
H205 C200 0.930 . S
C206 O207 1.224 . S
C206 O225 1.247 . S
O207 C206 1.224 . S
N208 Co198 2.128 . S
N208 C209 1.355 . S
N208 C211 1.311 . S
C209 N208 1.355 . S
C209 C210 1.363 . S
C209 H221 0.929 . S
C210 C209 1.363 . S
C210 N212 1.375 . S
C210 H228 0.931 . S
C211 N208 1.311 . S
C211 N212 1.347 . S
C211 H222 0.929 . S
N212 C210 1.375 . S
N212 C211 1.347 . S
C213 C216 1.365 . S
C213 N218 1.328 . S
C213 H219 0.929 1_655 S
C214 C215 1.362 . S
C214 C217 1.378 . S
C214 H229 0.929 . S
C215 C214 1.362 . S
C215 C216 1.366 . S
C216 C213 1.365 . S
C216 C215 1.366 . S
C216 H230 0.930 1_655 S
C217 C214 1.378 . S
C217 N218 1.315 . S
C217 H220 0.930 . S
N218 Co198 2.194 . S
N218 C213 1.328 . S
N218 C217 1.315 . S
H219 C213 0.929 1_455 S
H220 C217 0.930 . S
H221 C209 0.929 . S
H222 C211 0.929 . S
O223 Co198 2.336 1_455 S
O223 C226 1.241 1_455 S
O224 Co198 2.155 . S
O224 C226 1.240 . S
O225 Co198 2.096 . S
O225 C206 1.247 . S
C226 O223 1.241 1_655 S
C226 O224 1.240 . S
H227 C201 0.931 . S
H228 C210 0.931 . S
H229 C214 0.929 . S
H230 C216 0.930 1_455 S
Co231 N235 2.148 . S
Co231 N241 2.128 . S
Co231 N251 2.194 . S
Co231 O256 2.351 . S
Co231 O257 2.155 . S
Co231 O258 2.096 . S
C232 N235 1.301 . S
C232 N236 1.328 . S
C232 H237 0.930 . S
C233 C234 1.333 . S
C233 N235 1.317 . S
C233 H238 0.930 . S
C234 C233 1.333 . S
C234 N236 1.350 . S
C234 H260 0.931 . S
N235 Co231 2.148 . S
N235 C232 1.301 . S
N235 C233 1.317 . S
N236 C232 1.328 . S
N236 C234 1.350 . S
H237 C232 0.930 . S
H238 C233 0.930 . S
C239 O240 1.224 . S
C239 O258 1.247 . S
O240 C239 1.224 . S
N241 Co231 2.128 . S
N241 C242 1.355 . S
N241 C244 1.311 . S
C242 N241 1.355 . S
C242 C243 1.363 . S
C242 H254 0.929 . S
C243 C242 1.363 . S
C243 N245 1.375 . S
C243 H261 0.931 . S
C244 N241 1.311 . S
C244 N245 1.347 . S
C244 H255 0.929 . S
N245 C243 1.375 . S
N245 C244 1.347 . S
C246 C249 1.365 . S
C246 N251 1.328 . S
C246 H252 0.929 . S
C247 C248 1.362 . S
C247 C250 1.378 . S
C247 H262 0.929 . S
C248 C247 1.362 . S
C248 C249 1.366 . S
C249 C246 1.365 . S
C249 C248 1.366 . S
C249 H263 0.930 . S
C250 C247 1.378 . S
C250 N251 1.315 . S
C250 H253 0.930 . S
N251 Co231 2.194 . S
N251 C246 1.328 . S
N251 C250 1.315 . S
H252 C246 0.929 . S
H253 C250 0.930 . S
H254 C242 0.929 . S
H255 C244 0.929 . S
O256 Co231 2.351 . S
O256 C259 1.244 . S
O257 Co231 2.155 . S
O257 C259 1.240 . S
O258 Co231 2.096 . S
O258 C239 1.247 . S
C259 O256 1.244 . S
C259 O257 1.240 . S
H260 C234 0.931 . S
H261 C243 0.931 . S
H262 C247 0.929 . S
H263 C249 0.930 . S
H264 C270 0.930 1_556 S
H265 C273 0.930 . S
H266 C274 0.930 . S
H267 C275 0.930 1_554 S
H268 C278 0.930 . S
H269 C279 0.930 . S
C270 H264 0.930 1_554 S
C270 C271 1.355 . S
C270 C272 1.415 1_554 S
C271 C270 1.355 . S
C271 C273 1.419 1_655 S
C272 C270 1.415 1_556 S
C272 C277 1.425 1_646 S
C272 C279 1.409 . S
C273 H265 0.930 . S
C273 C271 1.419 1_455 S
C273 C274 1.362 1_545 S
C274 H266 0.930 . S
C274 C273 1.362 1_565 S
C274 C277 1.409 . S
C275 H267 0.930 1_556 S
C275 C276 1.355 . S
C275 C277 1.415 1_556 S
C276 C275 1.355 . S
C276 C278 1.419 1_455 S
C277 C272 1.425 1_464 S
C277 C274 1.409 . S
C277 C275 1.415 1_554 S
C278 H268 0.930 . S
C278 C276 1.419 1_655 S
C278 C279 1.362 1_565 S
C279 H269 0.930 . S
C279 C272 1.409 . S
C279 C278 1.362 1_545 S
H280 C286 0.930 . S
H281 C289 0.930 . S
H282 C290 0.930 . S
H283 C291 0.930 . S
H284 C294 0.930 . S
H285 C295 0.930 . S
C286 H280 0.930 . S
C286 C287 1.355 . S
C286 C288 1.415 1_545 S
C287 C286 1.355 . S
C287 C289 1.419 1_556 S
C288 C286 1.415 1_565 S
C288 C293 1.425 1_566 S
C288 C295 1.409 . S
C289 H281 0.930 . S
C289 C287 1.419 1_554 S
C289 C290 1.362 . S
C290 H282 0.930 . S
C290 C289 1.362 . S
C290 C293 1.409 . S
C291 H283 0.930 . S
C291 C292 1.355 . S
C291 C293 1.415 1_565 S
C292 C291 1.355 . S
C292 C294 1.419 1_554 S
C293 C288 1.425 1_544 S
C293 C290 1.409 . S
C293 C291 1.415 1_545 S
C294 H284 0.930 . S
C294 C292 1.419 1_556 S
C294 C295 1.362 . S
C295 H285 0.930 . S
C295 C288 1.409 . S
C295 C294 1.362 . S
H296 C302 0.930 . S
H297 C305 0.930 . S
H298 C306 0.930 . S
H299 C307 0.930 . S
H300 C310 0.930 . S
H301 C311 0.930 . S
C302 H296 0.930 . S
C302 C303 1.355 1_655 S
C302 C304 1.415 . S
C303 C302 1.355 1_455 S
C303 C305 1.419 . S
C304 C302 1.415 . S
C304 C309 1.425 1_655 S
C304 C311 1.409 . S
C305 H297 0.930 . S
C305 C303 1.419 . S
C305 C306 1.362 . S
C306 H298 0.930 . S
C306 C305 1.362 . S
C306 C309 1.409 . S
C307 H299 0.930 . S
C307 C308 1.355 1_455 S
C307 C309 1.415 . S
C308 C307 1.355 1_655 S
C308 C310 1.419 . S
C309 C304 1.425 1_455 S
C309 C306 1.409 . S
C309 C307 1.415 . S
C310 H300 0.930 . S
C310 C308 1.419 . S
C310 C311 1.362 . S
C311 H301 0.930 . S
C311 C304 1.409 . S
C311 C310 1.362 . S
H312 C318 0.930 . S
H313 C321 0.930 . S
H314 C322 0.930 . S
H315 C323 0.930 . S
H316 C326 0.930 . S
H317 C327 0.930 . S
C318 H312 0.930 . S
C318 C319 1.355 . S
C318 C320 1.415 . S
C319 C318 1.355 . S
C319 C321 1.419 . S
C320 C318 1.415 . S
C320 C325 1.425 . S
C320 C327 1.409 . S
C321 H313 0.930 . S
C321 C319 1.419 . S
C321 C322 1.362 . S
C322 H314 0.930 . S
C322 C321 1.362 . S
C322 C325 1.409 . S
C323 H315 0.930 . S
C323 C324 1.355 . S
C323 C325 1.415 . S
C324 C323 1.355 . S
C324 C326 1.419 . S
C325 C320 1.425 . S
C325 C322 1.409 . S
C325 C323 1.415 . S
C326 H316 0.930 . S
C326 C324 1.419 . S
C326 C327 1.362 . S
C327 H317 0.930 . S
C327 C320 1.409 . S
C327 C326 1.362 . S
H328 C334 0.930 . S
H329 C337 0.930 . S
H330 C338 0.930 . S
H331 C339 0.930 . S
H332 C342 0.930 . S
H333 C343 0.930 . S
C334 H328 0.930 . S
C334 C335 1.355 . S
C334 C336 1.394 1_565 S
C335 C334 1.355 . S
C335 C337 1.419 . S
C336 C334 1.394 1_545 S
C336 C341 1.424 1_545 S
C336 C343 1.431 . S
C337 H329 0.930 . S
C337 C335 1.419 . S
C337 C338 1.362 . S
C338 H330 0.930 . S
C338 C337 1.362 . S
C338 C341 1.430 . S
C339 H331 0.930 . S
C339 C340 1.355 . S
C339 C341 1.394 1_545 S
C340 C339 1.355 . S
C340 C342 1.419 . S
C341 C336 1.424 1_565 S
C341 C338 1.430 . S
C341 C339 1.394 1_565 S
C342 H332 0.930 . S
C342 C340 1.419 . S
C342 C343 1.362 . S
C343 H333 0.930 . S
C343 C336 1.431 . S
C343 C342 1.362 . S
H344 C350 0.930 . S
H345 C353 0.930 . S
H346 C354 0.930 . S
H347 C355 0.930 . S
H348 C358 0.930 . S
H349 C359 0.930 . S
C350 H344 0.930 . S
C350 C351 1.355 . S
C350 C352 1.415 . S
C351 C350 1.355 . S
C351 C353 1.419 . S
C352 C350 1.415 . S
C352 C357 1.425 . S
C352 C359 1.409 . S
C353 H345 0.930 . S
C353 C351 1.419 . S
C353 C354 1.362 . S
C354 H346 0.930 . S
C354 C353 1.362 . S
C354 C357 1.409 . S
C355 H347 0.930 . S
C355 C356 1.355 . S
C355 C357 1.415 . S
C356 C355 1.355 . S
C356 C358 1.419 . S
C357 C352 1.425 . S
C357 C354 1.409 . S
C357 C355 1.415 . S
C358 H348 0.930 . S
C358 C356 1.419 . S
C358 C359 1.362 . S
C359 H349 0.930 . S
C359 C352 1.409 . S
C359 C358 1.362 . S
H360 C366 0.930 . S
H361 C369 0.930 . S
H362 C370 0.930 1_545 S
H363 C371 0.930 . S
H364 C374 0.930 . S
H365 C375 0.930 1_565 S
C366 H360 0.930 . S
C366 C367 1.355 . S
C366 C368 1.415 . S
C367 C366 1.355 . S
C367 C369 1.419 . S
C368 C366 1.415 . S
C368 C373 1.425 1_565 S
C368 C375 1.409 1_565 S
C369 H361 0.930 . S
C369 C367 1.419 . S
C369 C370 1.362 . S
C370 H362 0.930 1_565 S
C370 C369 1.362 . S
C370 C373 1.409 1_565 S
C371 H363 0.930 . S
C371 C372 1.355 . S
C371 C373 1.415 . S
C372 C371 1.355 . S
C372 C374 1.419 . S
C373 C368 1.425 1_545 S
C373 C370 1.409 1_545 S
C373 C371 1.415 . S
C374 H364 0.930 . S
C374 C372 1.419 . S
C374 C375 1.362 . S
C375 H365 0.930 1_545 S
C375 C368 1.409 1_545 S
C375 C374 1.362 . S
H376 C382 0.930 . S
H377 C385 0.930 . S
H378 C386 0.930 . S
H379 C387 0.930 . S
H380 C390 0.930 . S
H381 C391 0.930 . S
C382 H376 0.930 . S
C382 C383 1.355 . S
C382 C384 1.415 . S
C383 C382 1.355 . S
C383 C385 1.419 . S
C384 C382 1.415 . S
C384 C389 1.425 . S
C384 C391 1.409 . S
C385 H377 0.930 . S
C385 C383 1.419 . S
C385 C386 1.362 . S
C386 H378 0.930 . S
C386 C385 1.362 . S
C386 C389 1.409 . S
C387 H379 0.930 . S
C387 C388 1.355 . S
C387 C389 1.415 . S
C388 C387 1.355 . S
C388 C390 1.419 . S
C389 C384 1.425 . S
C389 C386 1.409 . S
C389 C387 1.415 . S
C390 H380 0.930 . S
C390 C388 1.419 . S
C390 C391 1.362 . S
C391 H381 0.930 . S
C391 C384 1.409 . S
C391 C390 1.362 . S
H392 C398 0.930 . S
H393 C401 0.930 . S
H394 C402 0.930 . S
H395 C403 0.930 . S
H396 C406 0.930 . S
H397 C407 0.930 . S
C398 H392 0.930 . S
C398 C399 1.355 1_556 S
C398 C400 1.415 . S
C399 C398 1.355 1_554 S
C399 C401 1.419 . S
C400 C398 1.415 . S
C400 C405 1.425 1_556 S
C400 C407 1.409 . S
C401 H393 0.930 . S
C401 C399 1.419 . S
C401 C402 1.362 . S
C402 H394 0.930 . S
C402 C401 1.362 . S
C402 C405 1.409 . S
C403 H395 0.930 . S
C403 C404 1.355 1_554 S
C403 C405 1.415 . S
C404 C403 1.355 1_556 S
C404 C406 1.419 . S
C405 C400 1.425 1_554 S
C405 C402 1.409 . S
C405 C403 1.415 . S
C406 H396 0.930 . S
C406 C404 1.419 . S
C406 C407 1.362 . S
C407 H397 0.930 . S
C407 C400 1.409 . S
C407 C406 1.362 . S
H408 C414 0.930 . S
H409 C417 0.930 . S
H410 C418 0.930 . S
H411 C419 0.930 . S
H412 C422 0.930 . S
H413 C423 0.930 . S
C414 H408 0.930 . S
C414 C415 1.355 1_554 S
C414 C416 1.415 . S
C415 C414 1.355 1_556 S
C415 C417 1.419 . S
C416 C414 1.415 . S
C416 C421 1.425 1_554 S
C416 C423 1.409 . S
C417 H409 0.930 . S
C417 C415 1.419 . S
C417 C418 1.362 . S
C418 H410 0.930 . S
C418 C417 1.362 . S
C418 C421 1.409 . S
C419 H411 0.930 . S
C419 C420 1.355 1_556 S
C419 C421 1.415 . S
C420 C419 1.355 1_554 S
C420 C422 1.419 . S
C421 C416 1.425 1_556 S
C421 C418 1.409 . S
C421 C419 1.415 . S
C422 H412 0.930 . S
C422 C420 1.419 . S
C422 C423 1.362 . S
C423 H413 0.930 . S
C423 C416 1.409 . S
C423 C422 1.362 . S
H424 C430 0.930 . S
H425 C433 0.930 . S
H426 C434 0.930 . S
H427 C435 0.930 . S
H428 C438 0.930 . S
H429 C439 0.930 . S
C430 H424 0.930 . S
C430 C431 1.355 . S
C430 C432 1.415 . S
C431 C430 1.355 . S
C431 C433 1.419 . S
C432 C430 1.415 . S
C432 C437 1.425 . S
C432 C439 1.409 . S
C433 H425 0.930 . S
C433 C431 1.419 . S
C433 C434 1.362 . S
C434 H426 0.930 . S
C434 C433 1.362 . S
C434 C437 1.409 . S
C435 H427 0.930 . S
C435 C436 1.355 . S
C435 C437 1.415 . S
C436 C435 1.355 . S
C436 C438 1.419 . S
C437 C432 1.425 . S
C437 C434 1.409 . S
C437 C435 1.415 . S
C438 H428 0.930 . S
C438 C436 1.419 . S
C438 C439 1.362 . S
C439 H429 0.930 . S
C439 C432 1.409 . S
C439 C438 1.362 . S
H440 C446 0.930 . S
H441 C449 0.930 . S
H442 C450 0.930 . S
H443 C451 0.930 . S
H444 C454 0.930 . S
H445 C455 0.930 . S
C446 H440 0.930 . S
C446 C447 1.355 . S
C446 C448 1.415 . S
C447 C446 1.355 . S
C447 C449 1.419 . S
C448 C446 1.415 . S
C448 C453 1.425 . S
C448 C455 1.409 . S
C449 H441 0.930 . S
C449 C447 1.419 . S
C449 C450 1.362 . S
C450 H442 0.930 . S
C450 C449 1.362 . S
C450 C453 1.409 . S
C451 H443 0.930 . S
C451 C452 1.355 . S
C451 C453 1.415 . S
C452 C451 1.355 . S
C452 C454 1.419 . S
C453 C448 1.425 . S
C453 C450 1.409 . S
C453 C451 1.415 . S
C454 H444 0.930 . S
C454 C452 1.419 . S
C454 C455 1.362 . S
C455 H445 0.930 . S
C455 C448 1.409 . S
C455 C454 1.362 . S
H456 C462 0.930 . S
H457 C465 0.930 . S
H458 C466 0.930 . S
H459 C467 0.930 . S
H460 C470 0.930 . S
H461 C471 0.930 . S
C462 H456 0.930 . S
C462 C463 1.355 . S
C462 C464 1.415 . S
C463 C462 1.355 . S
C463 C465 1.419 1_554 S
C464 C462 1.415 . S
C464 C469 1.425 1_554 S
C464 C471 1.409 . S
C465 H457 0.930 . S
C465 C463 1.419 1_556 S
C465 C466 1.362 . S
C466 H458 0.930 . S
C466 C465 1.362 . S
C466 C469 1.409 . S
C467 H459 0.930 . S
C467 C468 1.355 . S
C467 C469 1.415 . S
C468 C467 1.355 . S
C468 C470 1.419 1_556 S
C469 C464 1.425 1_556 S
C469 C466 1.409 . S
C469 C467 1.415 . S
C470 H460 0.930 . S
C470 C468 1.419 1_554 S
C470 C471 1.362 . S
C471 H461 0.930 . S
C471 C464 1.409 . S
C471 C470 1.362 . S
H472 C478 0.930 . S
H473 C481 0.930 . S
H474 C482 0.930 . S
H475 C483 0.930 . S
H476 C486 0.930 . S
H477 C487 0.930 . S
C478 H472 0.930 . S
C478 C479 1.355 . S
C478 C480 1.415 . S
C479 C478 1.355 . S
C479 C481 1.419 1_556 S
C480 C478 1.415 . S
C480 C485 1.425 1_556 S
C480 C487 1.409 . S
C481 H473 0.930 . S
C481 C479 1.419 1_554 S
C481 C482 1.362 . S
C482 H474 0.930 . S
C482 C481 1.362 . S
C482 C485 1.409 . S
C483 H475 0.930 . S
C483 C484 1.355 . S
C483 C485 1.415 . S
C484 C483 1.355 . S
C484 C486 1.419 1_554 S
C485 C480 1.425 1_554 S
C485 C482 1.409 . S
C485 C483 1.415 . S
C486 H476 0.930 . S
C486 C484 1.419 1_556 S
C486 C487 1.362 . S
C487 H477 0.930 . S
C487 C480 1.409 . S
C487 C486 1.362 . S
H488 C494 0.930 . S
H489 C497 0.930 . S
H490 C498 0.930 . S
H491 C499 0.930 . S
H492 C502 0.930 . S
H493 C503 0.930 . S
C494 H488 0.930 . S
C494 C495 1.355 . S
C494 C496 1.415 . S
C495 C494 1.355 . S
C495 C497 1.419 . S
C496 C494 1.415 . S
C496 C501 1.425 . S
C496 C503 1.409 . S
C497 H489 0.930 . S
C497 C495 1.419 . S
C497 C498 1.362 . S
C498 H490 0.930 . S
C498 C497 1.362 . S
C498 C501 1.409 . S
C499 H491 0.930 . S
C499 C500 1.355 . S
C499 C501 1.415 . S
C500 C499 1.355 . S
C500 C502 1.419 . S
C501 C496 1.425 . S
C501 C498 1.409 . S
C501 C499 1.415 . S
C502 H492 0.930 . S
C502 C500 1.419 . S
C502 C503 1.362 . S
C503 H493 0.930 . S
C503 C496 1.409 . S
C503 C502 1.362 . S
H504 C510 0.930 . S
H505 C513 0.930 . S
H506 C514 0.930 . S
H507 C515 0.930 . S
H508 C518 0.930 . S
H509 C519 0.930 . S
C510 H504 0.930 . S
C510 C511 1.355 . S
C510 C512 1.415 . S
C511 C510 1.355 . S
C511 C513 1.419 . S
C512 C510 1.415 . S
C512 C517 1.425 . S
C512 C519 1.409 . S
C513 H505 0.930 . S
C513 C511 1.419 . S
C513 C514 1.362 . S
C514 H506 0.930 . S
C514 C513 1.362 . S
C514 C517 1.409 . S
C515 H507 0.930 . S
C515 C516 1.355 . S
C515 C517 1.415 . S
C516 C515 1.355 . S
C516 C518 1.419 . S
C517 C512 1.425 . S
C517 C514 1.409 . S
C517 C515 1.415 . S
C518 H508 0.930 . S
C518 C516 1.419 . S
C518 C519 1.362 . S
C519 H509 0.930 . S
C519 C512 1.409 . S
C519 C518 1.362 . S
H520 C526 0.930 . S
H521 C529 0.930 . S
H522 C530 0.930 . S
H523 C531 0.928 . S
H524 C534 0.930 . S
H525 C535 0.930 . S
C526 H520 0.930 . S
C526 C527 1.355 . S
C526 C528 1.415 . S
C527 C526 1.355 . S
C527 C529 1.419 1_455 S
C528 C526 1.415 . S
C528 C533 1.425 . S
C528 C535 1.409 . S
C529 H521 0.930 . S
C529 C527 1.419 1_655 S
C529 C530 1.362 . S
C530 H522 0.930 . S
C530 C529 1.362 . S
C530 C533 1.409 1_655 S
C531 H523 0.928 . S
C531 C532 1.356 1_655 S
C531 C533 1.415 1_655 S
C532 C531 1.356 1_455 S
C532 C534 1.419 . S
C533 C528 1.425 . S
C533 C530 1.409 1_455 S
C533 C531 1.415 1_455 S
C534 H524 0.930 . S
C534 C532 1.419 . S
C534 C535 1.362 . S
C535 H525 0.930 . S
C535 C528 1.409 . S
C535 C534 1.362 . S
H536 C542 0.930 . S
H537 C545 0.930 . S
H538 C546 0.930 . S
H539 C547 0.930 . S
H540 C550 0.930 . S
H541 C551 0.930 . S
C542 H536 0.930 . S
C542 C543 1.355 . S
C542 C544 1.415 . S
C543 C542 1.355 . S
C543 C545 1.419 . S
C544 C542 1.415 . S
C544 C549 1.425 . S
C544 C551 1.409 . S
C545 H537 0.930 . S
C545 C543 1.419 . S
C545 C546 1.362 . S
C546 H538 0.930 . S
C546 C545 1.362 . S
C546 C549 1.409 . S
C547 H539 0.930 . S
C547 C548 1.355 . S
C547 C549 1.415 . S
C548 C547 1.355 . S
C548 C550 1.419 . S
C549 C544 1.425 . S
C549 C546 1.409 . S
C549 C547 1.415 . S
C550 H540 0.930 . S
C550 C548 1.419 . S
C550 C551 1.362 . S
C551 H541 0.930 . S
C551 C544 1.409 . S
C551 C550 1.362 . S
H552 C558 0.930 . S
H553 C561 0.930 . S
H554 C562 0.930 . S
H555 C563 0.930 1_455 S
H556 C566 0.930 . S
H557 C567 0.930 . S
C558 H552 0.930 . S
C558 C559 1.355 . S
C558 C560 1.415 . S
C559 C558 1.355 . S
C559 C561 1.419 1_655 S
C560 C558 1.415 . S
C560 C565 1.425 . S
C560 C567 1.409 . S
C561 H553 0.930 . S
C561 C559 1.419 1_455 S
C561 C562 1.362 . S
C562 H554 0.930 . S
C562 C561 1.362 . S
C562 C565 1.409 1_455 S
C563 H555 0.930 1_655 S
C563 C564 1.355 . S
C563 C565 1.415 . S
C564 C563 1.355 . S
C564 C566 1.419 . S
C565 C560 1.425 . S
C565 C562 1.409 1_655 S
C565 C563 1.415 . S
C566 H556 0.930 . S
C566 C564 1.419 . S
C566 C567 1.362 . S
C567 H557 0.930 . S
C567 C560 1.409 . S
C567 C566 1.362 . S
H568 C574 0.930 . S
H569 C577 0.930 . S
H570 C578 0.930 . S
H571 C579 0.930 . S
H572 C582 0.930 . S
H573 C583 0.930 . S
C574 H568 0.930 . S
C574 C575 1.355 . S
C574 C576 1.415 . S
C575 C574 1.355 . S
C575 C577 1.419 . S
C576 C574 1.415 . S
C576 C581 1.425 . S
C576 C583 1.409 . S
C577 H569 0.930 . S
C577 C575 1.419 . S
C577 C578 1.362 . S
C578 H570 0.930 . S
C578 C577 1.362 . S
C578 C581 1.409 . S
C579 H571 0.930 . S
C579 C580 1.355 . S
C579 C581 1.415 . S
C580 C579 1.355 . S
C580 C582 1.419 . S
C581 C576 1.425 . S
C581 C578 1.409 . S
C581 C579 1.415 . S
C582 H572 0.930 . S
C582 C580 1.419 . S
C582 C583 1.362 . S
C583 H573 0.930 . S
C583 C576 1.409 . S
C583 C582 1.362 . S
C271 C28 0.988 1_655 S
C276 C160 0.988 1_455 S
C287 C193 0.984 . S
C292 C61 0.984 . S
C303 C226 1.024 1_455 S
C308 C94 1.024 1_655 S
C319 C127 0.962 . S
C324 C259 0.962 . S
C335 N47 0.954 . S
C340 N14 0.954 . S
C351 N80 0.958 . S
C356 N113 0.958 . S
C367 N146 0.870 . S
C372 N179 0.870 . S
C383 N245 0.972 . S
C388 N212 0.972 . S
C399 C8 1.832 . S
C404 N170 1.862 . S
C415 N137 1.859 . S
C420 C41 1.835 . S
C431 N236 1.882 . S
C436 C74 1.819 . S
C447 N203 1.838 . S
C452 C107 1.871 . S
C463 N38 1.836 . S
C468 C140 1.871 . S
C479 C173 1.870 . S
C484 N5 1.841 . S
C495 C206 1.822 . S
C500 N104 1.873 . S
C511 N71 1.859 . S
C516 C239 1.854 . S
C527 C83 1.485 . S
C532 C17 1.477 . S
C543 C50 1.476 . S
C548 C116 1.479 . S
C559 C215 1.492 . S
C564 C149 1.482 . S
C575 C248 1.500 . S
C580 C182 1.491 . S
