# Generated by pormake.
# Topology qdl, (4)-cn, num edge types: 1
# Building blocks:
#     Node 0, Type 0, BuildingBlock: ESEHIV_clean_sbu_0, # of connection points: 4
#     Node 1, Type 0, BuildingBlock: ESEHIV_clean_sbu_0, # of connection points: 4
#     Node 2, Type 0, BuildingBlock: ESEHIV_clean_sbu_0, # of connection points: 4
#     Node 3, Type 0, BuildingBlock: ESEHIV_clean_sbu_0, # of connection points: 4
#     Node 4, Type 0, BuildingBlock: ESEHIV_clean_sbu_0, # of connection points: 4
#     Node 5, Type 0, BuildingBlock: ESEHIV_clean_sbu_0, # of connection points: 4
#     Edge 6, Type (0, 0), BuildingBlock: UVAHIK_clean_linker_0, # of connection points: 2
#     Edge 7, Type (0, 0), BuildingBlock: UVAHIK_clean_linker_0, # of connection points: 2
#     Edge 8, Type (0, 0), BuildingBlock: UVAHIK_clean_linker_0, # of connection points: 2
#     Edge 9, Type (0, 0), BuildingBlock: UVAHIK_clean_linker_0, # of connection points: 2
#     Edge 10, Type (0, 0), BuildingBlock: UVAHIK_clean_linker_0, # of connection points: 2
#     Edge 11, Type (0, 0), BuildingBlock: UVAHIK_clean_linker_0, # of connection points: 2
#     Edge 12, Type (0, 0), BuildingBlock: UVAHIK_clean_linker_0, # of connection points: 2
#     Edge 13, Type (0, 0), BuildingBlock: UVAHIK_clean_linker_0, # of connection points: 2
#     Edge 14, Type (0, 0), BuildingBlock: UVAHIK_clean_linker_0, # of connection points: 2
#     Edge 15, Type (0, 0), BuildingBlock: UVAHIK_clean_linker_0, # of connection points: 2
#     Edge 16, Type (0, 0), BuildingBlock: UVAHIK_clean_linker_0, # of connection points: 2
#     Edge 17, Type (0, 0), BuildingBlock: UVAHIK_clean_linker_0, # of connection points: 2
# Relax obj value: 0.000
# Max RMSD: 0.130
# Mean RMSD: 0.084
data_MOF--net-qdl--node1-ESEHIV_clean_sbu_0--edge1-UVAHIK_clean_linker_0
_symmetry_space_group_name_H-M    P1
_symmetry_Int_Tables_number       1
_symmetry_cell_setting            triclinic
loop_
_symmetry_equiv_pos_as_xyz
'x, y, z'
_cell_length_a     19.304274
_cell_length_b     21.950691
_cell_length_c     120.46795
_cell_angle_alpha  100.06062
_cell_angle_beta   99.918258
_cell_angle_gamma 116.1692
loop_
_atom_site_label
_atom_site_type_symbol
_atom_site_fract_x
_atom_site_fract_y
_atom_site_fract_z
_atom_type_partial_charge
Cu0 Cu 0.15532 0.13107 0.08541 0.0
N1 N 0.09204 0.03104 0.08127 0.0
N2 N 0.06063 0.91721 0.07911 0.0
C3 C 0.11783 0.98579 0.08399 0.0
C4 C 0.99632 0.91932 0.0731 0.0
C5 C 1.01557 0.98934 0.07451 0.0
O6 O 0.2261 0.15964 0.10133 0.0
C7 C 0.15875 0.13276 0.0629 0.0
O8 O 0.08172 0.1048 0.06215 0.0
H9 H 0.17808 1.00285 0.08924 0.0
H10 H 0.97678 1.00843 0.07073 0.0
N11 N 0.09557 0.18002 0.08608 0.0
N12 N 0.06643 0.26887 0.08661 0.0
C13 C 0.11422 0.24239 0.0836 0.0
C14 C 0.03342 0.16658 0.0907 0.0
C15 C 1.01565 0.22125 0.09109 0.0
C16 C 0.19034 0.13143 0.10854 0.0
O17 O 0.11236 0.08849 0.10488 0.0
H18 H 0.16434 0.26952 0.08021 0.0
H19 H 1.00476 0.1214 0.09395 0.0
O20 O 0.20825 0.15214 0.07298 0.0
H21 H 0.93926 0.87345 0.06809 0.0
H22 H 0.96968 0.22619 0.09457 0.0
Cu23 Cu 0.23846 0.16641 0.41915 0.0
N24 N 0.19904 0.11616 0.40307 0.0
N25 N 0.18616 0.09178 0.38368 0.0
C26 C 0.227 0.14046 0.39432 0.0
C27 C 0.13015 0.03483 0.38591 0.0
C28 C 0.13831 0.04993 0.3978 0.0
O29 O 0.35585 0.2193 0.4226 0.0
C30 C 0.1073 0.18556 0.41856 0.0
O31 O 0.07442 0.11661 0.41438 0.0
H32 H 0.27716 0.19259 0.39581 0.0
H33 H 0.10181 1.01513 0.40227 0.0
N34 N 0.21337 0.10552 0.42877 0.0
N35 N 0.18909 0.06677 0.44445 0.0
C36 C 0.20868 0.12214 0.43985 0.0
C37 C 0.19678 0.0375 0.42632 0.0
C38 C 0.18145 1.0134 0.43593 0.0
C39 C 0.38684 0.1815 0.41908 0.0
O40 O 0.33926 0.11331 0.41413 0.0
H41 H 0.21861 0.17368 0.44437 0.0
H42 H 0.19652 1.0076 0.41815 0.0
O43 O 0.18389 0.2225 0.42172 0.0
H44 H 0.08529 0.98584 0.37941 0.0
H45 H 0.16733 0.96102 0.43667 0.0
Cu46 Cu 0.0416 0.15567 0.7629 0.0
N47 N 0.92962 0.10327 0.76075 0.0
N48 N 0.80928 1.01365 0.75969 0.0
C49 C 0.89009 0.03976 0.76279 0.0
C50 C 0.7979 0.06305 0.75561 0.0
C51 C 0.87183 0.11799 0.75628 0.0
O52 O 0.09397 0.14599 0.77744 0.0
C53 C 0.03413 0.1344 0.73959 0.0
O54 O 0.98977 0.16505 0.74083 0.0
H55 H 0.92003 1.0124 0.76617 0.0
H56 H 0.88244 0.16485 0.75352 0.0
N57 N 0.07945 0.25351 0.76481 0.0
N58 N 0.16169 0.36656 0.76571 0.0
C59 C 0.15001 0.29953 0.76339 0.0
C60 C 0.04507 0.29275 0.76805 0.0
C61 C 0.09554 0.36223 0.76864 0.0
C62 C 0.08415 0.17581 0.78667 0.0
O63 O 0.04142 0.20835 0.78554 0.0
H64 H 0.1926 0.28418 0.76092 0.0
H65 H 0.98771 0.27251 0.76998 0.0
O66 O 0.06474 0.12164 0.74857 0.0
H67 H 0.74019 0.05992 0.75237 0.0
H68 H 0.08395 0.40605 0.77097 0.0
Cu69 Cu 0.17268 0.11656 0.59562 0.0
N70 N 0.15378 0.06343 0.60647 0.0
N71 N 0.13805 0.03767 0.6234 0.0
C72 C 0.1443 0.08412 0.61706 0.0
C73 C 0.14375 0.98561 0.61646 0.0
C74 C 0.15351 1.00166 0.60606 0.0
O75 O 0.11598 0.17136 0.59739 0.0
C76 C 0.32142 0.13411 0.59485 0.0
O77 O 0.27535 0.06543 0.59031 0.0
H78 H 0.14485 0.13368 0.6202 0.0
H79 H 0.16157 0.97111 0.59882 0.0
N80 N 0.13118 0.05968 0.57993 0.0
N81 N 0.1128 0.03023 0.56042 0.0
C82 C 0.14771 0.08328 0.57058 0.0
C83 C 0.0838 0.98922 0.57558 0.0
C84 C 0.07238 0.97092 0.5636 0.0
C85 C 0.03947 0.13416 0.59368 0.0
O86 O 1.00737 0.06542 0.58926 0.0
H87 H 0.18514 0.13858 0.57134 0.0
H88 H 0.05984 0.9535 0.58076 0.0
O89 O 0.28952 0.17115 0.59836 0.0
H90 H 0.1414 0.93931 0.61873 0.0
H91 H 0.03821 0.91763 0.55777 0.0
Cu92 Cu 0.15416 0.23214 0.92845 0.0
N93 N 0.19723 0.33177 0.93209 0.0
N94 N 0.28251 0.44575 0.93391 0.0
C95 C 0.26066 0.37722 0.92903 0.0
C96 C 0.23092 0.44339 0.94031 0.0
C97 C 0.17835 0.3733 0.93913 0.0
O98 O 0.17734 0.20319 0.91378 0.0
C99 C 0.17703 0.22047 0.95103 0.0
O100 O 0.12311 0.24177 0.95049 0.0
H101 H 0.29193 0.36043 0.92362 0.0
H102 H 0.13076 0.35412 0.94332 0.0
N103 N 0.04119 0.17991 0.92581 0.0
N104 N 0.92019 0.08996 0.92446 0.0
C105 C 1.00101 0.1182 0.9284 0.0
C106 C 0.98345 0.19101 0.92007 0.0
C107 C 0.90903 0.13561 0.91917 0.0
C108 C 0.15622 0.22617 0.90551 0.0
O109 O 0.12024 0.26408 0.90741 0.0
H110 H 0.0305 0.09328 0.93277 0.0
H111 H 0.99455 0.23552 0.91657 0.0
O112 O 0.20253 0.21221 0.94209 0.0
H113 H 0.23128 0.48913 0.9455 0.0
H114 H 0.85111 0.12931 0.91494 0.0
Cu115 Cu 0.14085 0.09647 0.24179 0.0
N116 N 0.07777 0.1418 0.2403 0.0
N117 N 0.04392 0.22673 0.23896 0.0
C118 C 0.10178 0.20747 0.23901 0.0
C119 C 0.98132 0.17062 0.24032 0.0
C120 C 1.00237 0.11879 0.24117 0.0
O121 O 0.21237 0.12623 0.23175 0.0
C122 C 0.14751 0.08918 0.26448 0.0
O123 O 0.07101 0.04586 0.25904 0.0
H124 H 0.16085 0.24048 0.23818 0.0
H125 H 0.96581 0.06851 0.24261 0.0
N126 N 0.07935 0.99632 0.23659 0.0
N127 N 0.04561 0.88162 0.2341 0.0
C128 C 0.10427 0.94996 0.23895 0.0
C129 C 1.00241 0.95599 0.23001 0.0
C130 C 0.98158 0.88571 0.22845 0.0
C131 C 0.17792 0.09843 0.22074 0.0
O132 O 0.10043 0.0536 0.2172 0.0
H133 H 0.16398 0.9664 0.24429 0.0
H134 H 0.96418 0.97623 0.22648 0.0
O135 O 0.19375 0.12104 0.25859 0.0
H136 H 0.92486 0.1677 0.24101 0.0
H137 H 0.92374 0.84116 0.22336 0.0
C138 C 0.10468 0.85087 0.09067 0.0
C139 C 0.06678 0.8546 0.07993 0.0
C140 C 0.1074 0.78884 0.09154 0.0
C141 C 0.11434 0.63647 0.07579 0.0
H142 H 1.00483 0.53436 0.09609 0.0
C143 C 0.08244 0.3597 0.07603 0.0
C144 C 0.07168 0.3361 0.08603 0.0
C145 C 0.08361 0.42344 0.0753 0.0
C146 C 0.03758 0.56241 0.09056 0.0
H147 H 1.00425 0.79692 0.06163 0.0
H148 H 1.01204 0.68963 0.06303 0.0
H149 H 1.00768 0.64521 0.09514 0.0
H150 H 0.05719 0.36235 0.10331 0.0
H151 H 0.06446 0.47481 0.10249 0.0
H152 H 0.14796 0.55652 0.07154 0.0
C153 C 0.03817 0.73424 0.07081 0.0
C154 C 0.03839 0.62606 0.08996 0.0
C155 C 0.03342 0.79546 0.07003 0.0
C156 C 0.06438 0.37866 0.09541 0.0
C157 C 0.06781 0.44323 0.09485 0.0
C158 C 0.11552 0.57378 0.07661 0.0
C159 C 0.07442 0.7299 0.0816 0.0
C160 C 0.07621 0.66354 0.08251 0.0
C161 C 0.07627 0.46666 0.08471 0.0
C162 C 0.07662 0.53501 0.08396 0.0
H163 H 0.13045 0.8954 0.09846 0.0
H164 H 0.13574 0.787 0.09996 0.0
H165 H 0.14438 0.66448 0.07001 0.0
H166 H 0.08757 0.32769 0.06862 0.0
H167 H 0.08864 0.43768 0.06721 0.0
C168 C 0.495 0.17882 0.41083 0.0
C169 C 0.47321 0.21171 0.41961 0.0
C170 C 0.5756 0.20097 0.41147 0.0
C171 C 0.77224 0.27647 0.43214 0.0
H172 H 0.84037 0.27922 0.40368 0.0
C173 C 0.0692 0.27302 0.42848 0.0
C174 C 0.05349 0.21692 0.41898 0.0
C175 C 1.01046 0.29377 0.42935 0.0
C176 C 0.8227 0.27923 0.41174 0.0
H177 H 0.51908 0.29463 0.43592 0.0
H178 H 0.66192 0.3328 0.43723 0.0
H179 H 0.71338 0.27745 0.40386 0.0
H180 H 0.96628 0.14102 0.40273 0.0
H181 H 0.86583 0.17787 0.40408 0.0
H182 H 0.87996 0.27436 0.43981 0.0
C183 C 0.61575 0.29014 0.42977 0.0
C184 C 0.74995 0.27824 0.41184 0.0
C185 C 0.53428 0.26866 0.429 0.0
C186 C 0.98014 0.18446 0.41015 0.0
C187 C 0.92263 0.2059 0.41089 0.0
C188 C 0.84537 0.2774 0.43204 0.0
C189 C 0.63711 0.25614 0.42101 0.0
C190 C 0.72216 0.2738 0.42188 0.0
C191 C 0.93617 0.25984 0.42059 0.0
C192 C 0.86963 0.27571 0.42167 0.0
H193 H 0.4494 0.13493 0.40347 0.0
H194 H 0.5897 0.17295 0.40466 0.0
H195 H 0.75234 0.27279 0.43999 0.0
H196 H 0.125 0.29842 0.43546 0.0
H197 H 0.02257 0.33551 0.43693 0.0
C198 C 0.66993 0.91243 0.75235 0.0
C199 C 0.74758 0.94653 0.76025 0.0
C200 C 0.60969 0.84806 0.75293 0.0
C201 C 0.54868 0.7379 0.77317 0.0
H202 H 0.4034 0.5895 0.74456 0.0
C203 C 0.25176 0.49686 0.77247 0.0
C204 C 0.23031 0.42975 0.76529 0.0
C205 C 0.31733 0.55822 0.772 0.0
C206 C 0.4437 0.63011 0.75265 0.0
H207 H 0.82201 0.93893 0.77502 0.0
H208 H 0.71681 0.82666 0.77607 0.0
H209 H 0.51317 0.6984 0.74343 0.0
H210 H 0.26166 0.37531 0.75191 0.0
H211 H 0.37594 0.48235 0.75105 0.0
H212 H 0.47899 0.6697 0.78239 0.0
C213 C 0.7026 0.84997 0.76941 0.0
C214 C 0.50631 0.69298 0.75199 0.0
C215 C 0.76323 0.91411 0.76875 0.0
C216 C 0.27662 0.42586 0.75763 0.0
C217 C 0.34179 0.48742 0.75706 0.0
C218 C 0.48557 0.67531 0.77382 0.0
C219 C 0.6249 0.81598 0.7615 0.0
C220 C 0.55958 0.74795 0.76224 0.0
C221 C 0.36312 0.55454 0.76424 0.0
C222 C 0.43193 0.62056 0.76357 0.0
H223 H 0.6557 0.93518 0.7456 0.0
H224 H 0.55058 0.82398 0.74676 0.0
H225 H 0.58798 0.77912 0.78124 0.0
H226 H 0.2182 0.50203 0.77857 0.0
H227 H 0.33129 0.60886 0.77759 0.0
C228 C 0.46907 0.22132 0.60449 0.0
C229 C 0.40728 0.16533 0.59506 0.0
C230 C 0.55023 0.24226 0.60509 0.0
C231 C 0.68256 0.22813 0.58683 0.0
H232 H 0.81214 0.22407 0.61482 0.0
C233 C 0.91151 0.13212 0.58525 0.0
C234 C 0.98508 0.16501 0.59405 0.0
C235 C 0.85399 0.15362 0.58596 0.0
C236 C 0.77764 0.22706 0.60703 0.0
H237 H 0.38169 0.08998 0.57864 0.0
H238 H 0.52138 0.12698 0.57953 0.0
H239 H 0.68556 0.22435 0.61506 0.0
H240 H 0.05682 0.24729 0.61045 0.0
H241 H 0.95446 0.28445 0.61185 0.0
H242 H 0.77204 0.22711 0.5786 0.0
C243 C 0.50825 0.15479 0.58651 0.0
C244 C 0.7051 0.22724 0.60717 0.0
C245 C 0.42797 0.13321 0.58603 0.0
C246 C 1.00088 0.2215 0.60349 0.0
C247 C 0.94217 0.24232 0.60432 0.0
C248 C 0.75467 0.22788 0.58669 0.0
C249 C 0.57054 0.20863 0.59613 0.0
C250 C 0.65514 0.22479 0.59691 0.0
C251 C 0.86774 0.20807 0.59559 0.0
C252 C 0.80146 0.22438 0.59663 0.0
H253 H 0.45469 0.24657 0.61162 0.0
H254 H 0.59694 0.28396 0.61262 0.0
H255 H 0.64623 0.22759 0.57884 0.0
H256 H 0.89754 0.08839 0.57788 0.0
H257 H 0.79708 0.12538 0.57916 0.0
C258 C 0.3964 0.56813 0.94271 0.0
C259 C 0.34856 0.50849 0.93289 0.0
C260 C 0.46006 0.62927 0.94174 0.0
C261 C 0.5263 0.73414 0.92179 0.0
H262 H 0.74404 0.80969 0.94123 0.0
C263 C 0.78948 0.97935 0.9158 0.0
C264 C 0.85849 0.02385 0.9253 0.0
C265 C 0.72913 0.91553 0.91659 0.0
C266 C 0.68366 0.79077 0.93586 0.0
H267 H 0.32962 0.46687 0.91433 0.0
H268 H 0.43899 0.57499 0.91251 0.0
H269 H 0.63594 0.70255 0.94303 0.0
H270 H 0.91759 0.03663 0.94314 0.0
H271 H 0.81106 0.92813 0.94488 0.0
H272 H 0.5714 0.82339 0.91504 0.0
C273 C 0.42796 0.5737 0.921 0.0
C274 C 0.62161 0.72853 0.93685 0.0
C275 C 0.36566 0.51176 0.92205 0.0
C276 C 0.86547 1.00309 0.93564 0.0
C277 C 0.80408 0.94014 0.93656 0.0
C278 C 0.5878 0.79737 0.92101 0.0
C279 C 0.47615 0.63311 0.93085 0.0
C280 C 0.54228 0.69921 0.92978 0.0
C281 C 0.73451 0.89481 0.92703 0.0
C282 C 0.66807 0.82695 0.92797 0.0
H283 H 0.38505 0.5671 0.95118 0.0
H284 H 0.4959 0.67417 0.94947 0.0
H285 H 0.46558 0.71331 0.91632 0.0
H286 H 0.78285 0.9934 0.90766 0.0
H287 H 0.6787 0.88229 0.90887 0.0
C288 C 0.12243 0.35573 0.24082 0.0
C289 C 0.04805 0.29345 0.23808 0.0
C290 C 0.12574 0.42037 0.24024 0.0
C291 C 1.00065 0.49543 0.22749 0.0
H292 H 0.16038 0.66995 0.2511 0.0
C293 C 0.97857 0.7527 0.2324 0.0
C294 C 0.04947 0.81758 0.23478 0.0
C295 C 0.98159 0.6904 0.23274 0.0
C296 C 0.1159 0.62189 0.24435 0.0
H297 H 0.91879 0.25144 0.23231 0.0
H298 H 0.92451 0.36325 0.23156 0.0
H299 H 0.15996 0.55908 0.25167 0.0
H300 H 0.17968 0.86645 0.23949 0.0
H301 H 0.18483 0.75793 0.24016 0.0
H302 H 0.95613 0.55791 0.22022 0.0
C303 C 0.9806 0.36233 0.23405 0.0
C304 C 0.11568 0.55808 0.24467 0.0
C305 C 0.97729 0.29791 0.23463 0.0
C306 C 0.12369 0.81807 0.2377 0.0
C307 C 0.12669 0.75557 0.23809 0.0
C308 C 1.00074 0.55905 0.22719 0.0
C309 C 0.0548 0.42473 0.23686 0.0
C310 C 0.05755 0.49366 0.2363 0.0
C311 C 0.05558 0.69063 0.23552 0.0
C312 C 0.05786 0.62323 0.23567 0.0
H313 H 0.17835 0.35501 0.24359 0.0
H314 H 0.18411 0.46687 0.24235 0.0
H315 H 0.95601 0.44754 0.22072 0.0
H316 H 0.92022 0.74977 0.23036 0.0
H317 H 0.92553 0.64197 0.23096 0.0
C318 C 0.2759 0.18467 0.21231 0.0
C319 C 0.2211 0.11493 0.21172 0.0
C320 C 0.30376 0.19986 0.20254 0.0
C321 C 0.31782 0.11551 0.17396 0.0
H322 H 0.27622 0.25346 0.1623 0.0
C323 C 0.21078 0.08326 0.12516 0.0
C324 C 0.23298 0.14216 0.12074 0.0
C325 C 0.23722 0.09177 0.13714 0.0
C326 C 0.29019 0.21595 0.16553 0.0
H327 H 0.15591 1.00629 0.20081 0.0
H328 H 0.20566 0.03208 0.18405 0.0
H329 H 0.27331 0.2474 0.18231 0.0
H330 H 0.30227 0.25633 0.12532 0.0
H331 H 0.3483 0.27174 0.14652 0.0
H332 H 0.33088 0.08169 0.15704 0.0
C333 C 0.22722 0.07531 0.19192 0.0
C334 C 0.28848 0.21246 0.17701 0.0
C335 C 0.19838 0.06049 0.20152 0.0
C336 C 0.28523 0.21003 0.1285 0.0
C337 C 0.3108 0.21877 0.14062 0.0
C338 C 0.31968 0.11907 0.16253 0.0
C339 C 0.27862 0.14529 0.19216 0.0
C340 C 0.29888 0.16016 0.18118 0.0
C341 C 0.28572 0.15964 0.1451 0.0
C342 C 0.30244 0.16725 0.15798 0.0
H343 H 0.29354 0.2277 0.22002 0.0
H344 H 0.34338 0.25431 0.20299 0.0
H345 H 0.32753 0.07545 0.17697 0.0
H346 H 0.17012 0.03037 0.11937 0.0
H347 H 0.21565 0.04507 0.14023 0.0
C348 C 0.06678 0.97849 0.53868 0.0
C349 C 0.11907 0.03545 0.54873 0.0
C350 C 0.07362 0.98308 0.52743 0.0
C351 C 0.21617 0.08675 0.51195 0.0
H352 H 0.02483 0.99473 0.48543 0.0
C353 C 0.22306 0.12625 0.46565 0.0
C354 C 0.17941 0.06492 0.45605 0.0
C355 C 0.21518 0.12384 0.47694 0.0
C356 C 0.07891 0.0203 0.49273 0.0
H357 H 0.2201 0.14244 0.55452 0.0
H358 H 0.22987 0.15118 0.53502 0.0
H359 H 1.01195 0.98896 0.50505 0.0
H360 H 0.09178 0.95335 0.45081 0.0
H361 H 0.07782 0.94916 0.47047 0.0
H362 H 0.28284 0.11887 0.49959 0.0
C363 C 0.18442 0.10217 0.53585 0.0
C364 C 0.07162 0.01682 0.50401 0.0
C365 C 0.17802 0.09741 0.54711 0.0
C366 C 0.12686 1.00138 0.45801 0.0
C367 C 0.1183 0.99914 0.46927 0.0
C368 C 0.22334 0.09076 0.50069 0.0
C369 C 0.13255 0.04499 0.52583 0.0
C370 C 0.14018 0.0497 0.5138 0.0
C371 C 0.1627 0.06023 0.47889 0.0
C372 C 0.15485 0.0573 0.49093 0.0
H373 H 0.02004 0.93002 0.53942 0.0
H374 H 0.03315 0.93745 0.51999 0.0
H375 H 0.27056 0.11169 0.51918 0.0
H376 H 0.2645 0.1759 0.46448 0.0
H377 H 0.24978 0.17199 0.48414 0.0
C378 C 0.14084 0.23416 0.80813 0.0
C379 C 0.1191 0.17587 0.79864 0.0
C380 C 0.16437 0.23316 0.81968 0.0
C381 C 0.13198 0.11374 0.83804 0.0
H382 H 0.29787 0.28528 0.86173 0.0
C383 C 0.17414 0.15301 0.88864 0.0
C384 C 0.17431 0.21524 0.89408 0.0
C385 C 0.18243 0.14168 0.87718 0.0
C386 C 0.25165 0.23672 0.85523 0.0
H387 H 0.10629 0.07092 0.79379 0.0
H388 H 0.14644 0.06846 0.81422 0.0
H389 H 0.28645 0.27689 0.84098 0.0
H390 H 0.18695 0.31549 0.89203 0.0
H391 H 0.20278 0.29659 0.87239 0.0
H392 H 0.09497 0.07507 0.85238 0.0
C393 C 0.14583 0.11528 0.81262 0.0
C394 C 0.24511 0.23191 0.84334 0.0
C395 C 0.12352 0.11686 0.80095 0.0
C396 C 0.18622 0.26684 0.88808 0.0
C397 C 0.1959 0.25621 0.87682 0.0
C398 C 0.13858 0.11858 0.85 0.0
C399 C 0.16584 0.17337 0.82212 0.0
C400 C 0.18319 0.17157 0.83458 0.0
C401 C 0.193 0.19319 0.87113 0.0
C402 C 0.19648 0.18133 0.85871 0.0
H403 H 0.13796 0.28037 0.80664 0.0
H404 H 0.17819 0.2784 0.82674 0.0
H405 H 0.08343 0.06663 0.83151 0.0
H406 H 0.16458 0.11218 0.89305 0.0
H407 H 0.17999 0.09259 0.87302 0.0
C408 C 0.12535 0.09793 0.04108 0.0
C409 C 0.18379 0.13831 0.05195 0.0
C410 C 0.14454 0.10354 0.03054 0.0
C411 C 0.28123 0.22437 0.01723 0.0
H412 H 0.17691 0.05608 0.99063 0.0
C413 C 0.27762 0.23592 0.96907 0.0
C414 C 0.19889 0.19966 0.96154 0.0
C415 C 0.29328 0.22543 0.98023 0.0
C416 C 0.20695 0.10359 0.99797 0.0
H417 H 0.30909 0.2161 0.06023 0.0
H418 H 0.34291 0.22675 0.04158 0.0
H419 H 0.17421 0.04448 0.01033 0.0
H420 H 0.07563 0.12282 0.95946 0.0
H421 H 0.10292 0.10262 0.97861 0.0
H422 H 0.31136 0.28344 0.00471 0.0
C423 C 0.28199 0.19043 0.04133 0.0
C424 C 0.20531 0.09701 0.00927 0.0
C425 C 0.2628 0.18413 0.052 0.0
C426 C 0.13704 0.1506 0.96506 0.0
C427 C 0.15278 0.1391 0.97603 0.0
C428 C 0.28316 0.23097 0.00588 0.0
C429 C 0.22281 0.15001 0.03047 0.0
C430 C 0.23954 0.15733 0.01899 0.0
C431 C 0.23063 0.17755 0.98388 0.0
C432 C 0.24332 0.17067 0.99607 0.0
H433 H 0.06389 0.06189 0.04066 0.0
H434 H 0.097 0.07256 0.0224 0.0
H435 H 0.30796 0.27191 0.02451 0.0
H436 H 0.32595 0.27504 0.96661 0.0
H437 H 0.35384 0.25579 0.98608 0.0
C438 C 0.23547 0.16212 0.28514 0.0
C439 C 0.17679 0.09689 0.27712 0.0
C440 C 0.2535 0.16916 0.29728 0.0
C441 C 0.23811 0.06588 0.31884 0.0
H442 H 0.2143 0.20957 0.33896 0.0
C443 C 0.1685 0.03804 0.36277 0.0
C444 C 0.19899 0.09855 0.37234 0.0
C445 C 0.17881 0.04409 0.35173 0.0
C446 C 0.22275 0.16989 0.33356 0.0
H447 H 0.09397 0.98745 0.27543 0.0
H448 H 0.12686 0.99914 0.29637 0.0
H449 H 0.214 0.21038 0.31868 0.0
H450 H 0.26522 0.21342 0.3776 0.0
H451 H 0.28495 0.22383 0.35843 0.0
H452 H 0.2463 0.0248 0.33356 0.0
C453 C 0.15849 0.04504 0.2934 0.0
C454 C 0.22258 0.17046 0.32192 0.0
C455 C 0.13938 0.03844 0.2814 0.0
C456 C 0.24124 0.16546 0.37053 0.0
C457 C 0.25186 0.17151 0.35946 0.0
C458 C 0.23907 0.06568 0.33047 0.0
C459 C 0.21461 0.11064 0.30153 0.0
C460 C 0.22804 0.11728 0.31434 0.0
C461 C 0.22055 0.11085 0.34988 0.0
C462 C 0.22902 0.1164 0.33791 0.0
H463 H 0.26471 0.20813 0.28209 0.0
H464 H 0.29716 0.22036 0.30335 0.0
H465 H 0.24352 0.02474 0.31326 0.0
H466 H 0.13658 0.98553 0.36375 0.0
H467 H 0.15252 0.99605 0.34458 0.0
C468 C 0.09644 0.0844 0.63975 0.0
C469 C 0.13051 0.04415 0.63524 0.0
C470 C 0.09083 0.09224 0.65129 0.0
C471 C 0.09532 1.01488 0.6764 0.0
H472 H 0.13094 0.19695 0.6939 0.0
C473 C 0.09436 0.0848 0.72577 0.0
C474 C 0.05004 0.11977 0.72802 0.0
C475 C 0.10937 0.07373 0.71476 0.0
C476 C 0.12051 0.14564 0.68913 0.0
H477 H 0.18541 0.98048 0.63947 0.0
H478 H 0.176 0.99444 0.65961 0.0
H479 H 0.14643 0.18116 0.67416 0.0
H480 H 0.98615 0.16961 0.72035 0.0
H481 H 1.01235 0.15068 0.70148 0.0
H482 H 0.06924 0.97975 0.6915 0.0
C483 C 0.15257 0.01922 0.65415 0.0
C484 C 0.12903 0.13645 0.67776 0.0
C485 C 0.15799 1.01122 0.64258 0.0
C486 C 0.0208 0.14273 0.71902 0.0
C487 C 0.03626 0.13229 0.70816 0.0
C488 C 0.08709 0.02424 0.68784 0.0
C489 C 0.11944 0.06031 0.65871 0.0
C490 C 0.11504 0.0706 0.67113 0.0
C491 C 0.08121 0.09825 0.70589 0.0
C492 C 0.09802 0.08939 0.69424 0.0
H493 H 0.07324 0.1094 0.63433 0.0
H494 H 0.06322 0.12293 0.65437 0.0
H495 H 0.08364 0.96331 0.67155 0.0
H496 H 0.11763 0.06635 0.7325 0.0
H497 H 0.14428 0.0473 0.71327 0.0
loop_
_geom_bond_atom_site_label_1
_geom_bond_atom_site_label_2
_geom_bond_distance
_geom_bond_site_symmetry_2
_ccdc_geom_bond_type
Cu0 N1 1.999 . S
Cu0 O6 1.974 . S
Cu0 N11 1.985 . S
Cu0 O20 1.959 . S
N1 Cu0 1.999 . S
N1 C3 1.263 . S
N1 C5 1.389 . S
N2 C3 1.358 . S
N2 C4 1.400 . S
C3 N1 1.263 . S
C3 N2 1.358 . S
C3 H9 0.930 . S
C4 N2 1.400 . S
C4 C5 1.351 . S
C4 H21 0.930 . S
C5 N1 1.389 . S
C5 C4 1.351 . S
C5 H10 0.930 . S
O6 Cu0 1.974 . S
O6 C16 1.282 . S
C7 O8 1.261 . S
C7 O20 1.251 . S
O8 C7 1.261 . S
H9 C3 0.930 . S
H10 C5 0.930 . S
N11 Cu0 1.985 . S
N11 C13 1.335 . S
N11 C14 1.390 . S
N12 C13 1.345 . S
N12 C15 1.336 . S
C13 N11 1.335 . S
C13 N12 1.345 . S
C13 H18 0.930 . S
C14 N11 1.390 . S
C14 C15 1.346 . S
C14 H19 0.930 . S
C15 N12 1.336 . S
C15 C14 1.346 . S
C15 H22 0.929 . S
C16 O6 1.282 . S
C16 O17 1.216 . S
O17 C16 1.216 . S
H18 C13 0.930 . S
H19 C14 0.930 . S
O20 Cu0 1.959 . S
O20 C7 1.251 . S
H21 C4 0.930 . S
H22 C15 0.929 . S
Cu23 N24 1.999 . S
Cu23 O29 1.974 . S
Cu23 N34 1.985 . S
Cu23 O43 1.959 . S
N24 Cu23 1.999 . S
N24 C26 1.263 . S
N24 C28 1.389 . S
N25 C26 1.358 . S
N25 C27 1.400 . S
C26 N24 1.263 . S
C26 N25 1.358 . S
C26 H32 0.930 . S
C27 N25 1.400 . S
C27 C28 1.351 . S
C27 H44 0.930 . S
C28 N24 1.389 . S
C28 C27 1.351 . S
C28 H33 0.930 . S
O29 Cu23 1.974 . S
O29 C39 1.282 1_545 S
C30 O31 1.261 1_545 S
C30 O43 1.251 1_655 S
O31 C30 1.261 1_565 S
H32 C26 0.930 . S
H33 C28 0.930 . S
N34 Cu23 1.985 . S
N34 C36 1.335 . S
N34 C37 1.402 . S
N35 C36 1.345 . S
N35 C38 1.336 1_545 S
C36 N34 1.335 . S
C36 N35 1.345 . S
C36 H41 0.930 . S
C37 N34 1.402 . S
C37 C38 1.344 1_545 S
C37 H42 0.922 1_545 S
C38 N35 1.336 1_565 S
C38 C37 1.344 1_565 S
C38 H45 0.929 . S
C39 O29 1.282 1_565 S
C39 O40 1.216 . S
O40 C39 1.216 . S
H41 C36 0.930 . S
H42 C37 0.922 1_565 S
O43 Cu23 1.959 . S
O43 C30 1.251 1_455 S
H44 C27 0.930 . S
H45 C38 0.929 . S
Cu46 N47 1.999 1_455 S
Cu46 O52 1.974 . S
Cu46 N57 1.985 . S
Cu46 O66 1.959 . S
N47 Cu46 1.999 1_655 S
N47 C49 1.263 . S
N47 C51 1.389 1_545 S
N48 C49 1.358 1_565 S
N48 C50 1.400 . S
C49 N47 1.263 . S
C49 N48 1.358 1_545 S
C49 H55 0.930 . S
C50 N48 1.400 . S
C50 C51 1.351 . S
C50 H67 0.930 . S
C51 N47 1.389 1_565 S
C51 C50 1.351 . S
C51 H56 0.930 . S
O52 Cu46 1.974 . S
O52 C62 1.282 1_455 S
C53 O54 1.261 . S
C53 O66 1.251 1_655 S
O54 C53 1.261 . S
H55 C49 0.930 . S
H56 C51 0.930 . S
N57 Cu46 1.985 . S
N57 C59 1.335 . S
N57 C60 1.390 . S
N58 C59 1.345 . S
N58 C61 1.336 . S
C59 N57 1.335 . S
C59 N58 1.345 . S
C59 H64 0.930 . S
C60 N57 1.390 . S
C60 C61 1.346 . S
C60 H65 0.930 . S
C61 N58 1.336 . S
C61 C60 1.346 . S
C61 H68 0.929 . S
C62 O52 1.282 1_655 S
C62 O63 1.216 . S
O63 C62 1.216 . S
H64 C59 0.930 . S
H65 C60 0.930 . S
O66 Cu46 1.959 . S
O66 C53 1.251 1_455 S
H67 C50 0.930 . S
H68 C61 0.929 . S
Cu69 N70 1.999 . S
Cu69 O75 1.974 1_455 S
Cu69 N80 1.985 1_455 S
Cu69 O89 1.959 . S
N70 Cu69 1.999 . S
N70 C72 1.263 1_455 S
N70 C74 1.389 . S
N71 C72 1.358 1_455 S
N71 C73 1.400 . S
C72 N70 1.263 1_655 S
C72 N71 1.358 1_655 S
C72 H78 0.932 . S
C73 N71 1.400 . S
C73 C74 1.351 . S
C73 H90 0.930 . S
C74 N70 1.389 . S
C74 C73 1.351 . S
C74 H79 0.930 . S
O75 Cu69 1.974 1_655 S
O75 C85 1.282 1_545 S
C76 O77 1.261 . S
C76 O89 1.251 1_565 S
O77 C76 1.261 . S
H78 C72 0.932 . S
H79 C74 0.930 . S
N80 Cu69 1.985 1_655 S
N80 C82 1.324 1_655 S
N80 C83 1.400 1_545 S
N81 C82 1.345 . S
N81 C84 1.336 1_445 S
C82 N80 1.324 1_455 S
C82 N81 1.345 . S
C82 H87 0.930 . S
C83 N80 1.400 1_565 S
C83 C84 1.346 . S
C83 H88 0.930 . S
C84 N81 1.336 1_665 S
C84 C83 1.346 . S
C84 H91 0.929 . S
C85 O75 1.282 1_565 S
C85 O86 1.216 . S
O86 C85 1.216 . S
H87 C82 0.930 . S
H88 C83 0.930 . S
O89 Cu69 1.959 . S
O89 C76 1.251 1_545 S
H90 C73 0.930 . S
H91 C84 0.929 . S
Cu92 N93 1.999 . S
Cu92 O98 1.974 . S
Cu92 N103 1.985 1_455 S
Cu92 O112 1.959 . S
N93 Cu92 1.999 . S
N93 C95 1.263 . S
N93 C97 1.389 . S
N94 C95 1.358 . S
N94 C96 1.400 . S
C95 N93 1.263 . S
C95 N94 1.358 . S
C95 H101 0.930 . S
C96 N94 1.400 . S
C96 C97 1.351 . S
C96 H113 0.930 . S
C97 N93 1.389 . S
C97 C96 1.351 . S
C97 H102 0.930 . S
O98 Cu92 1.974 . S
O98 C108 1.282 . S
C99 O100 1.261 . S
C99 O112 1.251 . S
O100 C99 1.261 . S
H101 C95 0.930 . S
H102 C97 0.930 . S
N103 Cu92 1.985 1_655 S
N103 C105 1.335 . S
N103 C106 1.390 . S
N104 C105 1.345 . S
N104 C107 1.336 . S
C105 N103 1.335 . S
C105 N104 1.345 . S
C105 H110 0.930 . S
C106 N103 1.390 . S
C106 C107 1.346 . S
C106 H111 0.930 . S
C107 N104 1.336 . S
C107 C106 1.346 . S
C107 H114 0.929 1_545 S
C108 O98 1.282 . S
C108 O109 1.216 1_455 S
O109 C108 1.216 1_655 S
H110 C105 0.930 . S
H111 C106 0.930 . S
O112 Cu92 1.959 . S
O112 C99 1.251 . S
H113 C96 0.930 . S
H114 C107 0.929 1_565 S
Cu115 N116 1.999 . S
Cu115 O121 1.974 . S
Cu115 N126 1.985 . S
Cu115 O135 1.959 . S
N116 Cu115 1.999 . S
N116 C118 1.263 . S
N116 C120 1.389 . S
N117 C118 1.358 . S
N117 C119 1.400 . S
C118 N116 1.263 . S
C118 N117 1.358 . S
C118 H124 0.930 . S
C119 N117 1.400 . S
C119 C120 1.351 . S
C119 H136 0.930 . S
C120 N116 1.389 . S
C120 C119 1.351 . S
C120 H125 0.930 . S
O121 Cu115 1.974 . S
O121 C131 1.282 . S
C122 O123 1.261 . S
C122 O135 1.251 . S
O123 C122 1.261 . S
H124 C118 0.930 . S
H125 C120 0.930 . S
N126 Cu115 1.985 . S
N126 C128 1.335 . S
N126 C129 1.390 . S
N127 C128 1.345 1_565 S
N127 C130 1.336 . S
C128 N126 1.335 . S
C128 N127 1.345 1_545 S
C128 H133 0.930 . S
C129 N126 1.390 . S
C129 C130 1.346 1_545 S
C129 H134 0.930 . S
C130 N127 1.336 . S
C130 C129 1.346 1_565 S
C130 H137 0.929 . S
C131 O121 1.282 . S
C131 O132 1.216 . S
O132 C131 1.216 . S
H133 C128 0.930 . S
H134 C129 0.930 . S
O135 Cu115 1.959 . S
O135 C122 1.251 . S
H136 C119 0.930 . S
H137 C130 0.929 . S
C138 C139 1.349 . S
C138 C140 1.327 . S
C138 H163 0.950 . S
C139 C138 1.349 . S
C139 C155 1.349 . S
C140 C138 1.327 . S
C140 C159 1.429 . S
C140 H164 0.950 . S
C141 C158 1.574 . S
C141 C160 1.368 . S
C141 H165 0.949 . S
H142 C146 0.949 . S
C143 C144 1.349 . S
C143 C145 1.327 . S
C143 H166 0.950 . S
C144 C143 1.349 . S
C144 C156 1.349 . S
C145 C143 1.327 . S
C145 C161 1.429 . S
C145 H167 0.950 . S
C146 H142 0.949 . S
C146 C154 1.574 . S
C146 C162 1.368 . S
H147 C155 0.950 . S
H148 C153 0.950 . S
H149 C154 0.949 . S
H150 C156 0.950 . S
H151 C157 0.950 . S
H152 C158 0.949 . S
C153 H148 0.950 . S
C153 C155 1.327 . S
C153 C159 1.429 . S
C154 C146 1.574 . S
C154 H149 0.949 . S
C154 C160 1.368 . S
C155 C139 1.349 . S
C155 H147 0.950 . S
C155 C153 1.327 . S
C156 C144 1.349 . S
C156 H150 0.950 . S
C156 C157 1.327 . S
C157 H151 0.950 . S
C157 C156 1.327 . S
C157 C161 1.429 . S
C158 C141 1.574 . S
C158 H152 0.949 . S
C158 C162 1.368 . S
C159 C140 1.429 . S
C159 C153 1.429 . S
C159 C160 1.523 . S
C160 C141 1.368 . S
C160 C154 1.368 . S
C160 C159 1.523 . S
C161 C145 1.429 . S
C161 C157 1.429 . S
C161 C162 1.523 . S
C162 C146 1.368 . S
C162 C158 1.368 . S
C162 C161 1.523 . S
H163 C138 0.950 . S
H164 C140 0.950 . S
H165 C141 0.949 . S
H166 C143 0.950 . S
H167 C145 0.950 . S
C168 C169 1.349 1_565 S
C168 C170 1.327 . S
C168 H193 0.950 . S
C169 C168 1.349 1_545 S
C169 C185 1.349 . S
C170 C168 1.327 . S
C170 C189 1.429 1_565 S
C170 H194 0.950 . S
C171 C188 1.574 . S
C171 C190 1.368 . S
C171 H195 0.949 . S
H172 C176 0.949 . S
C173 C174 1.349 . S
C173 C175 1.327 . S
C173 H196 0.950 . S
C174 C173 1.349 . S
C174 C186 1.349 1_545 S
C175 C173 1.327 . S
C175 C191 1.429 . S
C175 H197 0.950 . S
C176 H172 0.949 . S
C176 C184 1.574 . S
C176 C192 1.368 1_565 S
H177 C185 0.950 . S
H178 C183 0.950 . S
H179 C184 0.949 . S
H180 C186 0.950 . S
H181 C187 0.950 . S
H182 C188 0.949 . S
C183 H178 0.950 . S
C183 C185 1.327 . S
C183 C189 1.429 . S
C184 C176 1.574 . S
C184 H179 0.949 . S
C184 C190 1.368 1_565 S
C185 C169 1.349 . S
C185 H177 0.950 . S
C185 C183 1.327 . S
C186 C174 1.349 1_565 S
C186 H180 0.950 . S
C186 C187 1.327 . S
C187 H181 0.950 . S
C187 C186 1.327 . S
C187 C191 1.429 1_565 S
C188 C171 1.574 . S
C188 H182 0.949 . S
C188 C192 1.368 . S
C189 C170 1.429 1_545 S
C189 C183 1.429 . S
C189 C190 1.523 . S
C190 C171 1.368 . S
C190 C184 1.368 1_545 S
C190 C189 1.523 . S
C191 C175 1.429 . S
C191 C187 1.429 1_545 S
C191 C192 1.523 . S
C192 C176 1.368 1_545 S
C192 C188 1.368 . S
C192 C191 1.523 . S
H193 C168 0.950 . S
H194 C170 0.950 . S
H195 C171 0.949 . S
H196 C173 0.950 . S
H197 C175 0.950 . S
C198 C199 1.349 . S
C198 C200 1.327 . S
C198 H223 0.950 . S
C199 C198 1.349 . S
C199 C215 1.349 . S
C200 C198 1.327 . S
C200 C219 1.429 . S
C200 H224 0.950 . S
C201 C218 1.574 . S
C201 C220 1.368 . S
C201 H225 0.949 . S
H202 C206 0.949 . S
C203 C204 1.349 . S
C203 C205 1.327 . S
C203 H226 0.950 . S
C204 C203 1.349 . S
C204 C216 1.349 . S
C205 C203 1.327 . S
C205 C221 1.429 . S
C205 H227 0.950 . S
C206 H202 0.949 . S
C206 C214 1.574 . S
C206 C222 1.368 . S
H207 C215 0.950 . S
H208 C213 0.950 . S
H209 C214 0.949 . S
H210 C216 0.950 . S
H211 C217 0.950 . S
H212 C218 0.949 . S
C213 H208 0.950 . S
C213 C215 1.327 . S
C213 C219 1.429 . S
C214 C206 1.574 . S
C214 H209 0.949 . S
C214 C220 1.368 . S
C215 C199 1.349 . S
C215 H207 0.950 . S
C215 C213 1.327 . S
C216 C204 1.349 . S
C216 H210 0.950 . S
C216 C217 1.327 . S
C217 H211 0.950 . S
C217 C216 1.327 . S
C217 C221 1.429 . S
C218 C201 1.574 . S
C218 H212 0.949 . S
C218 C222 1.368 . S
C219 C200 1.429 . S
C219 C213 1.429 . S
C219 C220 1.523 . S
C220 C201 1.368 . S
C220 C214 1.368 . S
C220 C219 1.523 . S
C221 C205 1.429 . S
C221 C217 1.429 . S
C221 C222 1.523 . S
C222 C206 1.368 . S
C222 C218 1.368 . S
C222 C221 1.523 . S
H223 C198 0.950 . S
H224 C200 0.950 . S
H225 C201 0.949 . S
H226 C203 0.950 . S
H227 C205 0.950 . S
C228 C229 1.349 1_545 S
C228 C230 1.327 . S
C228 H253 0.950 . S
C229 C228 1.349 1_565 S
C229 C245 1.349 . S
C230 C228 1.327 . S
C230 C249 1.429 1_545 S
C230 H254 0.950 . S
C231 C248 1.574 . S
C231 C250 1.368 . S
C231 H255 0.949 . S
H232 C236 0.949 . S
C233 C234 1.349 . S
C233 C235 1.327 . S
C233 H256 0.950 . S
C234 C233 1.349 . S
C234 C246 1.349 1_565 S
C235 C233 1.327 . S
C235 C251 1.429 . S
C235 H257 0.950 . S
C236 H232 0.949 . S
C236 C244 1.574 . S
C236 C252 1.368 1_545 S
H237 C245 0.950 . S
H238 C243 0.950 . S
H239 C244 0.949 . S
H240 C246 0.950 . S
H241 C247 0.950 . S
H242 C248 0.949 . S
C243 H238 0.950 . S
C243 C245 1.327 . S
C243 C249 1.429 . S
C244 C236 1.574 . S
C244 H239 0.949 . S
C244 C250 1.368 1_545 S
C245 C229 1.349 . S
C245 H237 0.950 . S
C245 C243 1.327 . S
C246 C234 1.349 1_545 S
C246 H240 0.950 . S
C246 C247 1.327 . S
C247 H241 0.950 . S
C247 C246 1.327 . S
C247 C251 1.429 1_545 S
C248 C231 1.574 . S
C248 H242 0.949 . S
C248 C252 1.368 . S
C249 C230 1.429 1_565 S
C249 C243 1.429 . S
C249 C250 1.523 . S
C250 C231 1.368 . S
C250 C244 1.368 1_565 S
C250 C249 1.523 . S
C251 C235 1.429 . S
C251 C247 1.429 1_565 S
C251 C252 1.523 . S
C252 C236 1.368 1_565 S
C252 C248 1.368 . S
C252 C251 1.523 . S
H253 C228 0.950 . S
H254 C230 0.950 . S
H255 C231 0.949 . S
H256 C233 0.950 . S
H257 C235 0.950 . S
C258 C259 1.349 . S
C258 C260 1.327 . S
C258 H283 0.950 . S
C259 C258 1.349 . S
C259 C275 1.349 . S
C260 C258 1.327 . S
C260 C279 1.429 . S
C260 H284 0.950 . S
C261 C278 1.574 . S
C261 C280 1.368 . S
C261 H285 0.949 . S
H262 C266 0.949 . S
C263 C264 1.349 . S
C263 C265 1.327 . S
C263 H286 0.950 . S
C264 C263 1.349 . S
C264 C276 1.349 . S
C265 C263 1.327 . S
C265 C281 1.429 . S
C265 H287 0.950 . S
C266 H262 0.949 . S
C266 C274 1.574 . S
C266 C282 1.368 . S
H267 C275 0.950 . S
H268 C273 0.950 . S
H269 C274 0.949 . S
H270 C276 0.950 . S
H271 C277 0.950 . S
H272 C278 0.949 . S
C273 H268 0.950 . S
C273 C275 1.327 . S
C273 C279 1.429 . S
C274 C266 1.574 . S
C274 H269 0.949 . S
C274 C280 1.368 . S
C275 C259 1.349 . S
C275 H267 0.950 . S
C275 C273 1.327 . S
C276 C264 1.349 . S
C276 H270 0.950 . S
C276 C277 1.327 . S
C277 H271 0.950 . S
C277 C276 1.327 . S
C277 C281 1.429 . S
C278 C261 1.574 . S
C278 H272 0.949 . S
C278 C282 1.368 . S
C279 C260 1.429 . S
C279 C273 1.429 . S
C279 C280 1.523 . S
C280 C261 1.368 . S
C280 C274 1.368 . S
C280 C279 1.523 . S
C281 C265 1.429 . S
C281 C277 1.429 . S
C281 C282 1.523 . S
C282 C266 1.368 . S
C282 C278 1.368 . S
C282 C281 1.523 . S
H283 C258 0.950 . S
H284 C260 0.950 . S
H285 C261 0.949 . S
H286 C263 0.950 . S
H287 C265 0.950 . S
C288 C289 1.349 . S
C288 C290 1.327 . S
C288 H313 0.950 . S
C289 C288 1.349 . S
C289 C305 1.349 . S
C290 C288 1.327 . S
C290 C309 1.429 . S
C290 H314 0.950 . S
C291 C308 1.574 . S
C291 C310 1.368 . S
C291 H315 0.949 . S
H292 C296 0.949 . S
C293 C294 1.349 . S
C293 C295 1.327 . S
C293 H316 0.950 . S
C294 C293 1.349 . S
C294 C306 1.349 . S
C295 C293 1.327 . S
C295 C311 1.429 . S
C295 H317 0.950 . S
C296 H292 0.949 . S
C296 C304 1.574 . S
C296 C312 1.368 . S
H297 C305 0.950 . S
H298 C303 0.950 . S
H299 C304 0.949 . S
H300 C306 0.950 . S
H301 C307 0.950 . S
H302 C308 0.949 . S
C303 H298 0.950 . S
C303 C305 1.327 . S
C303 C309 1.429 . S
C304 C296 1.574 . S
C304 H299 0.949 . S
C304 C310 1.368 . S
C305 C289 1.349 . S
C305 H297 0.950 . S
C305 C303 1.327 . S
C306 C294 1.349 . S
C306 H300 0.950 . S
C306 C307 1.327 . S
C307 H301 0.950 . S
C307 C306 1.327 . S
C307 C311 1.429 . S
C308 C291 1.574 . S
C308 H302 0.949 . S
C308 C312 1.368 . S
C309 C290 1.429 . S
C309 C303 1.429 . S
C309 C310 1.523 . S
C310 C291 1.368 . S
C310 C304 1.368 . S
C310 C309 1.523 . S
C311 C295 1.429 . S
C311 C307 1.429 . S
C311 C312 1.523 . S
C312 C296 1.368 . S
C312 C308 1.368 . S
C312 C311 1.523 . S
H313 C288 0.950 . S
H314 C290 0.950 . S
H315 C291 0.949 . S
H316 C293 0.950 . S
H317 C295 0.950 . S
C318 C319 1.349 . S
C318 C320 1.327 . S
C318 H343 0.950 . S
C319 C318 1.349 . S
C319 C335 1.349 . S
C320 C318 1.327 . S
C320 C339 1.429 . S
C320 H344 0.950 . S
C321 C338 1.574 . S
C321 C340 1.368 . S
C321 H345 0.949 . S
H322 C326 0.949 . S
C323 C324 1.349 . S
C323 C325 1.327 . S
C323 H346 0.950 . S
C324 C323 1.349 . S
C324 C336 1.349 . S
C325 C323 1.327 . S
C325 C341 1.429 . S
C325 H347 0.950 . S
C326 H322 0.949 . S
C326 C334 1.574 . S
C326 C342 1.368 . S
H327 C335 0.950 . S
H328 C333 0.950 . S
H329 C334 0.949 . S
H330 C336 0.950 . S
H331 C337 0.950 . S
H332 C338 0.949 . S
C333 H328 0.950 . S
C333 C335 1.327 . S
C333 C339 1.429 . S
C334 C326 1.574 . S
C334 H329 0.949 . S
C334 C340 1.368 . S
C335 C319 1.349 . S
C335 H327 0.950 . S
C335 C333 1.327 . S
C336 C324 1.349 . S
C336 H330 0.950 . S
C336 C337 1.327 . S
C337 H331 0.950 . S
C337 C336 1.327 . S
C337 C341 1.429 . S
C338 C321 1.574 . S
C338 H332 0.949 . S
C338 C342 1.368 . S
C339 C320 1.429 . S
C339 C333 1.429 . S
C339 C340 1.523 . S
C340 C321 1.368 . S
C340 C334 1.368 . S
C340 C339 1.523 . S
C341 C325 1.429 . S
C341 C337 1.429 . S
C341 C342 1.523 . S
C342 C326 1.368 . S
C342 C338 1.368 . S
C342 C341 1.523 . S
H343 C318 0.950 . S
H344 C320 0.950 . S
H345 C321 0.949 . S
H346 C323 0.950 . S
H347 C325 0.950 . S
C348 C349 1.349 1_665 S
C348 C350 1.327 . S
C348 H373 0.950 . S
C349 C348 1.349 1_445 S
C349 C365 1.349 . S
C350 C348 1.327 . S
C350 C369 1.429 1_665 S
C350 H374 0.950 . S
C351 C368 1.574 . S
C351 C370 1.368 . S
C351 H375 0.949 . S
H352 C356 0.949 1_655 S
C353 C354 1.349 . S
C353 C355 1.327 . S
C353 H376 0.950 . S
C354 C353 1.349 . S
C354 C366 1.349 1_545 S
C355 C353 1.327 . S
C355 C371 1.429 . S
C355 H377 0.950 . S
C356 H352 0.949 1_455 S
C356 C364 1.574 1_455 S
C356 C372 1.368 1_565 S
H357 C365 0.950 . S
H358 C363 0.950 . S
H359 C364 0.949 . S
H360 C366 0.950 1_655 S
H361 C367 0.950 1_655 S
H362 C368 0.949 . S
C363 H358 0.950 . S
C363 C365 1.327 . S
C363 C369 1.429 . S
C364 C356 1.574 1_655 S
C364 H359 0.949 . S
C364 C370 1.368 1_665 S
C365 C349 1.349 . S
C365 H357 0.950 . S
C365 C363 1.327 . S
C366 C354 1.349 1_565 S
C366 H360 0.950 1_455 S
C366 C367 1.327 . S
C367 H361 0.950 1_455 S
C367 C366 1.327 . S
C367 C371 1.429 1_565 S
C368 C351 1.574 . S
C368 H362 0.949 . S
C368 C372 1.368 . S
C369 C350 1.429 1_445 S
C369 C363 1.429 . S
C369 C370 1.523 . S
C370 C351 1.368 . S
C370 C364 1.368 1_445 S
C370 C369 1.523 . S
C371 C355 1.429 . S
C371 C367 1.429 1_545 S
C371 C372 1.523 . S
C372 C356 1.368 1_545 S
C372 C368 1.368 . S
C372 C371 1.523 . S
H373 C348 0.950 . S
H374 C350 0.950 . S
H375 C351 0.949 . S
H376 C353 0.950 . S
H377 C355 0.950 . S
C378 C379 1.349 . S
C378 C380 1.327 . S
C378 H403 0.950 . S
C379 C378 1.349 . S
C379 C395 1.349 1_655 S
C380 C378 1.327 . S
C380 C399 1.424 1_655 S
C380 H404 0.950 . S
C381 C398 1.574 . S
C381 C400 1.368 . S
C381 H405 0.949 . S
H382 C386 0.949 . S
C383 C384 1.349 . S
C383 C385 1.327 . S
C383 H406 0.950 . S
C384 C383 1.349 . S
C384 C396 1.349 . S
C385 C383 1.327 . S
C385 C401 1.429 . S
C385 H407 0.950 . S
C386 H382 0.949 . S
C386 C394 1.574 . S
C386 C402 1.368 1_655 S
H387 C395 0.950 . S
H388 C393 0.950 . S
H389 C394 0.949 . S
H390 C396 0.950 . S
H391 C397 0.950 1_655 S
H392 C398 0.949 . S
C393 H388 0.950 . S
C393 C395 1.327 . S
C393 C399 1.434 . S
C394 C386 1.574 . S
C394 H389 0.949 . S
C394 C400 1.368 1_655 S
C395 C379 1.349 1_455 S
C395 H387 0.950 . S
C395 C393 1.327 . S
C396 C384 1.349 . S
C396 H390 0.950 . S
C396 C397 1.327 . S
C397 H391 0.950 1_455 S
C397 C396 1.327 . S
C397 C401 1.429 . S
C398 C381 1.574 . S
C398 H392 0.949 . S
C398 C402 1.368 . S
C399 C380 1.424 1_455 S
C399 C393 1.434 . S
C399 C400 1.522 . S
C400 C381 1.368 . S
C400 C394 1.368 1_455 S
C400 C399 1.522 . S
C401 C385 1.429 . S
C401 C397 1.429 . S
C401 C402 1.523 . S
C402 C386 1.368 1_455 S
C402 C398 1.368 . S
C402 C401 1.523 . S
H403 C378 0.950 . S
H404 C380 0.950 . S
H405 C381 0.949 . S
H406 C383 0.950 . S
H407 C385 0.950 . S
C408 C409 1.349 . S
C408 C410 1.327 . S
C408 H433 0.950 . S
C409 C408 1.349 . S
C409 C425 1.349 . S
C410 C408 1.327 . S
C410 C429 1.429 . S
C410 H434 0.950 . S
C411 C428 1.567 1_554 S
C411 C430 1.368 . S
C411 H435 0.949 . S
H412 C416 0.949 . S
C413 C414 1.349 . S
C413 C415 1.327 . S
C413 H436 0.950 . S
C414 C413 1.349 . S
C414 C426 1.349 . S
C415 C413 1.327 . S
C415 C431 1.429 . S
C415 H437 0.950 . S
C416 H412 0.949 . S
C416 C424 1.574 1_556 S
C416 C432 1.368 . S
H417 C425 0.950 . S
H418 C423 0.950 . S
H419 C424 0.949 . S
H420 C426 0.950 1_655 S
H421 C427 0.952 . S
H422 C428 0.953 . S
C423 H418 0.950 . S
C423 C425 1.327 . S
C423 C429 1.429 . S
C424 C416 1.574 1_554 S
C424 H419 0.949 . S
C424 C430 1.368 . S
C425 C409 1.349 . S
C425 H417 0.950 . S
C425 C423 1.327 . S
C426 C414 1.349 . S
C426 H420 0.950 1_455 S
C426 C427 1.327 . S
C427 H421 0.952 . S
C427 C426 1.327 . S
C427 C431 1.429 . S
C428 C411 1.567 1_556 S
C428 H422 0.953 . S
C428 C432 1.370 . S
C429 C410 1.429 . S
C429 C423 1.429 . S
C429 C430 1.523 . S
C430 C411 1.368 . S
C430 C424 1.368 . S
C430 C429 1.523 . S
C431 C415 1.429 . S
C431 C427 1.429 . S
C431 C432 1.523 . S
C432 C416 1.368 . S
C432 C428 1.370 . S
C432 C431 1.523 . S
H433 C408 0.950 . S
H434 C410 0.950 . S
H435 C411 0.949 . S
H436 C413 0.950 . S
H437 C415 0.950 . S
C438 C439 1.349 . S
C438 C440 1.327 . S
C438 H463 0.950 . S
C439 C438 1.349 . S
C439 C455 1.349 . S
C440 C438 1.327 . S
C440 C459 1.429 . S
C440 H464 0.950 . S
C441 C458 1.574 . S
C441 C460 1.368 . S
C441 H465 0.948 1_545 S
H442 C446 0.949 . S
C443 C444 1.349 . S
C443 C445 1.327 . S
C443 H466 0.950 1_545 S
C444 C443 1.349 . S
C444 C456 1.349 . S
C445 C443 1.327 . S
C445 C461 1.429 . S
C445 H467 0.950 1_545 S
C446 H442 0.949 . S
C446 C454 1.574 . S
C446 C462 1.368 . S
H447 C455 0.950 . S
H448 C453 0.950 . S
H449 C454 0.949 . S
H450 C456 0.950 . S
H451 C457 0.950 . S
H452 C458 0.949 1_565 S
C453 H448 0.950 . S
C453 C455 1.327 . S
C453 C459 1.429 . S
C454 C446 1.574 . S
C454 H449 0.949 . S
C454 C460 1.368 . S
C455 C439 1.349 . S
C455 H447 0.950 . S
C455 C453 1.327 . S
C456 C444 1.349 . S
C456 H450 0.950 . S
C456 C457 1.327 . S
C457 H451 0.950 . S
C457 C456 1.327 . S
C457 C461 1.429 . S
C458 C441 1.574 . S
C458 H452 0.949 1_545 S
C458 C462 1.368 . S
C459 C440 1.429 . S
C459 C453 1.429 . S
C459 C460 1.523 . S
C460 C441 1.368 . S
C460 C454 1.368 . S
C460 C459 1.523 . S
C461 C445 1.429 . S
C461 C457 1.429 . S
C461 C462 1.523 . S
C462 C446 1.368 . S
C462 C458 1.368 . S
C462 C461 1.523 . S
H463 C438 0.950 . S
H464 C440 0.950 . S
H465 C441 0.948 1_565 S
H466 C443 0.950 1_565 S
H467 C445 0.950 1_565 S
C468 C469 1.349 1_655 S
C468 C470 1.327 . S
C468 H493 0.950 . S
C469 C468 1.349 1_455 S
C469 C485 1.349 . S
C470 C468 1.327 . S
C470 C489 1.428 1_655 S
C470 H494 0.950 . S
C471 C488 1.574 . S
C471 C490 1.368 1_455 S
C471 H495 0.945 1_545 S
H472 C476 0.949 . S
C473 C474 1.347 1_455 S
C473 C475 1.328 . S
C473 H496 0.951 . S
C474 C473 1.347 1_655 S
C474 C486 1.349 . S
C475 C473 1.328 . S
C475 C491 1.429 1_455 S
C475 H497 0.950 . S
C476 H472 0.949 . S
C476 C484 1.574 . S
C476 C492 1.368 . S
H477 C485 0.950 1_565 S
H478 C483 0.950 1_565 S
H479 C484 0.949 . S
H480 C486 0.950 . S
H481 C487 0.950 . S
H482 C488 0.949 . S
C483 H478 0.950 1_545 S
C483 C485 1.327 . S
C483 C489 1.429 . S
C484 C476 1.574 . S
C484 H479 0.949 . S
C484 C490 1.368 . S
C485 C469 1.349 . S
C485 H477 0.950 1_545 S
C485 C483 1.327 . S
C486 C474 1.349 . S
C486 H480 0.950 . S
C486 C487 1.327 . S
C487 H481 0.950 . S
C487 C486 1.327 . S
C487 C491 1.429 . S
C488 C471 1.574 . S
C488 H482 0.949 . S
C488 C492 1.368 1_455 S
C489 C470 1.428 1_455 S
C489 C483 1.429 . S
C489 C490 1.523 1_455 S
C490 C471 1.368 1_655 S
C490 C484 1.368 . S
C490 C489 1.523 1_655 S
C491 C475 1.429 1_655 S
C491 C487 1.429 . S
C491 C492 1.523 . S
C492 C476 1.368 . S
C492 C488 1.368 1_655 S
C492 C491 1.523 . S
H493 C468 0.950 . S
H494 C470 0.950 . S
H495 C471 0.945 1_565 S
H496 C473 0.951 . S
H497 C475 0.950 . S
C139 N2 1.455 1_565 S
C144 N12 1.457 . S
C169 C39 1.473 1_545 S
C174 C30 1.480 . S
C199 N48 1.455 . S
C204 N58 1.457 . S
C229 C76 1.480 . S
C234 C85 1.473 . S
C259 N94 1.455 . S
C264 N104 1.457 1_565 S
C289 N117 1.455 . S
C294 N127 1.457 . S
C319 C131 1.464 . S
C324 C16 1.466 . S
C349 N81 1.464 . S
C354 N35 1.463 . S
C379 C62 1.524 . S
C384 C108 1.525 . S
C409 C7 1.513 . S
C414 C99 1.510 . S
C439 C122 1.484 . S
C444 N25 1.442 . S
C469 N71 1.467 . S
C474 C53 1.509 . S
