# Generated by pormake.
# Topology uoe, (4)-cn, num edge types: 1
# Building blocks:
#     Node 0, Type 0, BuildingBlock: GALJAG_clean_sbu_0, # of connection points: 4
#     Node 1, Type 0, BuildingBlock: GALJAG_clean_sbu_0, # of connection points: 4
#     Node 2, Type 0, BuildingBlock: GALJAG_clean_sbu_0, # of connection points: 4
#     Node 3, Type 0, BuildingBlock: GALJAG_clean_sbu_0, # of connection points: 4
#     Node 4, Type 0, BuildingBlock: GALJAG_clean_sbu_0, # of connection points: 4
#     Node 5, Type 0, BuildingBlock: GALJAG_clean_sbu_0, # of connection points: 4
#     Node 6, Type 0, BuildingBlock: GALJAG_clean_sbu_0, # of connection points: 4
#     Node 7, Type 0, BuildingBlock: GALJAG_clean_sbu_0, # of connection points: 4
#     Node 8, Type 0, BuildingBlock: GALJAG_clean_sbu_0, # of connection points: 4
#     Node 9, Type 0, BuildingBlock: GALJAG_clean_sbu_0, # of connection points: 4
#     Node 10, Type 0, BuildingBlock: GALJAG_clean_sbu_0, # of connection points: 4
#     Node 11, Type 0, BuildingBlock: GALJAG_clean_sbu_0, # of connection points: 4
#     Node 12, Type 0, BuildingBlock: GALJAG_clean_sbu_0, # of connection points: 4
#     Node 13, Type 0, BuildingBlock: GALJAG_clean_sbu_0, # of connection points: 4
#     Node 14, Type 0, BuildingBlock: GALJAG_clean_sbu_0, # of connection points: 4
#     Node 15, Type 0, BuildingBlock: GALJAG_clean_sbu_0, # of connection points: 4
#     Node 16, Type 0, BuildingBlock: GALJAG_clean_sbu_0, # of connection points: 4
#     Node 17, Type 0, BuildingBlock: GALJAG_clean_sbu_0, # of connection points: 4
#     Node 18, Type 0, BuildingBlock: GALJAG_clean_sbu_0, # of connection points: 4
#     Node 19, Type 0, BuildingBlock: GALJAG_clean_sbu_0, # of connection points: 4
#     Node 20, Type 0, BuildingBlock: GALJAG_clean_sbu_0, # of connection points: 4
#     Node 21, Type 0, BuildingBlock: GALJAG_clean_sbu_0, # of connection points: 4
#     Node 22, Type 0, BuildingBlock: GALJAG_clean_sbu_0, # of connection points: 4
#     Node 23, Type 0, BuildingBlock: GALJAG_clean_sbu_0, # of connection points: 4
#     Node 24, Type 0, BuildingBlock: GALJAG_clean_sbu_0, # of connection points: 4
#     Node 25, Type 0, BuildingBlock: GALJAG_clean_sbu_0, # of connection points: 4
#     Node 26, Type 0, BuildingBlock: GALJAG_clean_sbu_0, # of connection points: 4
#     Node 27, Type 0, BuildingBlock: GALJAG_clean_sbu_0, # of connection points: 4
#     Node 28, Type 0, BuildingBlock: GALJAG_clean_sbu_0, # of connection points: 4
#     Node 29, Type 0, BuildingBlock: GALJAG_clean_sbu_0, # of connection points: 4
#     Node 30, Type 0, BuildingBlock: GALJAG_clean_sbu_0, # of connection points: 4
#     Node 31, Type 0, BuildingBlock: GALJAG_clean_sbu_0, # of connection points: 4
#     Edge 32, Type (0, 0), BuildingBlock: KIFKEQ_clean_linker_1, # of connection points: 2
#     Edge 33, Type (0, 0), BuildingBlock: KIFKEQ_clean_linker_1, # of connection points: 2
#     Edge 34, Type (0, 0), BuildingBlock: KIFKEQ_clean_linker_1, # of connection points: 2
#     Edge 35, Type (0, 0), BuildingBlock: KIFKEQ_clean_linker_1, # of connection points: 2
#     Edge 36, Type (0, 0), BuildingBlock: KIFKEQ_clean_linker_1, # of connection points: 2
#     Edge 37, Type (0, 0), BuildingBlock: KIFKEQ_clean_linker_1, # of connection points: 2
#     Edge 38, Type (0, 0), BuildingBlock: KIFKEQ_clean_linker_1, # of connection points: 2
#     Edge 39, Type (0, 0), BuildingBlock: KIFKEQ_clean_linker_1, # of connection points: 2
#     Edge 40, Type (0, 0), BuildingBlock: KIFKEQ_clean_linker_1, # of connection points: 2
#     Edge 41, Type (0, 0), BuildingBlock: KIFKEQ_clean_linker_1, # of connection points: 2
#     Edge 42, Type (0, 0), BuildingBlock: KIFKEQ_clean_linker_1, # of connection points: 2
#     Edge 43, Type (0, 0), BuildingBlock: KIFKEQ_clean_linker_1, # of connection points: 2
#     Edge 44, Type (0, 0), BuildingBlock: KIFKEQ_clean_linker_1, # of connection points: 2
#     Edge 45, Type (0, 0), BuildingBlock: KIFKEQ_clean_linker_1, # of connection points: 2
#     Edge 46, Type (0, 0), BuildingBlock: KIFKEQ_clean_linker_1, # of connection points: 2
#     Edge 47, Type (0, 0), BuildingBlock: KIFKEQ_clean_linker_1, # of connection points: 2
#     Edge 48, Type (0, 0), BuildingBlock: KIFKEQ_clean_linker_1, # of connection points: 2
#     Edge 49, Type (0, 0), BuildingBlock: KIFKEQ_clean_linker_1, # of connection points: 2
#     Edge 50, Type (0, 0), BuildingBlock: KIFKEQ_clean_linker_1, # of connection points: 2
#     Edge 51, Type (0, 0), BuildingBlock: KIFKEQ_clean_linker_1, # of connection points: 2
#     Edge 52, Type (0, 0), BuildingBlock: KIFKEQ_clean_linker_1, # of connection points: 2
#     Edge 53, Type (0, 0), BuildingBlock: KIFKEQ_clean_linker_1, # of connection points: 2
#     Edge 54, Type (0, 0), BuildingBlock: KIFKEQ_clean_linker_1, # of connection points: 2
#     Edge 55, Type (0, 0), BuildingBlock: KIFKEQ_clean_linker_1, # of connection points: 2
#     Edge 56, Type (0, 0), BuildingBlock: KIFKEQ_clean_linker_1, # of connection points: 2
#     Edge 57, Type (0, 0), BuildingBlock: KIFKEQ_clean_linker_1, # of connection points: 2
#     Edge 58, Type (0, 0), BuildingBlock: KIFKEQ_clean_linker_1, # of connection points: 2
#     Edge 59, Type (0, 0), BuildingBlock: KIFKEQ_clean_linker_1, # of connection points: 2
#     Edge 60, Type (0, 0), BuildingBlock: KIFKEQ_clean_linker_1, # of connection points: 2
#     Edge 61, Type (0, 0), BuildingBlock: KIFKEQ_clean_linker_1, # of connection points: 2
#     Edge 62, Type (0, 0), BuildingBlock: KIFKEQ_clean_linker_1, # of connection points: 2
#     Edge 63, Type (0, 0), BuildingBlock: KIFKEQ_clean_linker_1, # of connection points: 2
#     Edge 64, Type (0, 0), BuildingBlock: KIFKEQ_clean_linker_1, # of connection points: 2
#     Edge 65, Type (0, 0), BuildingBlock: KIFKEQ_clean_linker_1, # of connection points: 2
#     Edge 66, Type (0, 0), BuildingBlock: KIFKEQ_clean_linker_1, # of connection points: 2
#     Edge 67, Type (0, 0), BuildingBlock: KIFKEQ_clean_linker_1, # of connection points: 2
#     Edge 68, Type (0, 0), BuildingBlock: KIFKEQ_clean_linker_1, # of connection points: 2
#     Edge 69, Type (0, 0), BuildingBlock: KIFKEQ_clean_linker_1, # of connection points: 2
#     Edge 70, Type (0, 0), BuildingBlock: KIFKEQ_clean_linker_1, # of connection points: 2
#     Edge 71, Type (0, 0), BuildingBlock: KIFKEQ_clean_linker_1, # of connection points: 2
#     Edge 72, Type (0, 0), BuildingBlock: KIFKEQ_clean_linker_1, # of connection points: 2
#     Edge 73, Type (0, 0), BuildingBlock: KIFKEQ_clean_linker_1, # of connection points: 2
#     Edge 74, Type (0, 0), BuildingBlock: KIFKEQ_clean_linker_1, # of connection points: 2
#     Edge 75, Type (0, 0), BuildingBlock: KIFKEQ_clean_linker_1, # of connection points: 2
#     Edge 76, Type (0, 0), BuildingBlock: KIFKEQ_clean_linker_1, # of connection points: 2
#     Edge 77, Type (0, 0), BuildingBlock: KIFKEQ_clean_linker_1, # of connection points: 2
#     Edge 78, Type (0, 0), BuildingBlock: KIFKEQ_clean_linker_1, # of connection points: 2
#     Edge 79, Type (0, 0), BuildingBlock: KIFKEQ_clean_linker_1, # of connection points: 2
#     Edge 80, Type (0, 0), BuildingBlock: KIFKEQ_clean_linker_1, # of connection points: 2
#     Edge 81, Type (0, 0), BuildingBlock: KIFKEQ_clean_linker_1, # of connection points: 2
#     Edge 82, Type (0, 0), BuildingBlock: KIFKEQ_clean_linker_1, # of connection points: 2
#     Edge 83, Type (0, 0), BuildingBlock: KIFKEQ_clean_linker_1, # of connection points: 2
#     Edge 84, Type (0, 0), BuildingBlock: KIFKEQ_clean_linker_1, # of connection points: 2
#     Edge 85, Type (0, 0), BuildingBlock: KIFKEQ_clean_linker_1, # of connection points: 2
#     Edge 86, Type (0, 0), BuildingBlock: KIFKEQ_clean_linker_1, # of connection points: 2
#     Edge 87, Type (0, 0), BuildingBlock: KIFKEQ_clean_linker_1, # of connection points: 2
#     Edge 88, Type (0, 0), BuildingBlock: KIFKEQ_clean_linker_1, # of connection points: 2
#     Edge 89, Type (0, 0), BuildingBlock: KIFKEQ_clean_linker_1, # of connection points: 2
#     Edge 90, Type (0, 0), BuildingBlock: KIFKEQ_clean_linker_1, # of connection points: 2
#     Edge 91, Type (0, 0), BuildingBlock: KIFKEQ_clean_linker_1, # of connection points: 2
#     Edge 92, Type (0, 0), BuildingBlock: KIFKEQ_clean_linker_1, # of connection points: 2
#     Edge 93, Type (0, 0), BuildingBlock: KIFKEQ_clean_linker_1, # of connection points: 2
#     Edge 94, Type (0, 0), BuildingBlock: KIFKEQ_clean_linker_1, # of connection points: 2
#     Edge 95, Type (0, 0), BuildingBlock: KIFKEQ_clean_linker_1, # of connection points: 2
# Relax obj value: 0.106
# Max RMSD: 0.167
# Mean RMSD: 0.167
data_MOF--net-uoe--node1-GALJAG_clean_sbu_0--edge1-KIFKEQ_clean_linker_1
_symmetry_space_group_name_H-M    P1
_symmetry_Int_Tables_number       1
_symmetry_cell_setting            triclinic
loop_
_symmetry_equiv_pos_as_xyz
'x, y, z'
_cell_length_a     74.888903
_cell_length_b     74.890217
_cell_length_c     28.21044
_cell_angle_alpha  90.007339
_cell_angle_beta   89.994032
_cell_angle_gamma 89.992544
loop_
_atom_site_label
_atom_site_type_symbol
_atom_site_fract_x
_atom_site_fract_y
_atom_site_fract_z
_atom_type_partial_charge
In0 In 0.09595 0.4669 0.06445 0.0
O1 O 0.09254 0.43752 0.08537 0.0
O2 O 0.11843 0.44648 0.06562 0.0
C3 C 0.06167 0.47751 0.05591 0.0
C4 C 0.10487 0.47849 0.15165 0.0
C5 C 0.10725 0.47811 0.9786 0.0
O6 O 0.06643 0.46157 0.04777 0.0
O7 O 0.07417 0.48786 0.06787 0.0
O8 O 0.11021 0.48691 0.01608 0.0
O9 O 0.0991 0.46353 0.98484 0.0
C10 C 0.10894 0.43385 0.08116 0.0
O11 O 0.11445 0.48211 0.11593 0.0
O12 O 0.09092 0.46974 0.14256 0.0
In13 In 0.78943 0.84799 0.30402 0.0
O14 O 0.78909 0.86434 0.37207 0.0
O15 O 0.76418 0.85502 0.34644 0.0
C16 C 0.77952 0.85851 0.21561 0.0
C17 C 0.82302 0.85803 0.32702 0.0
C18 C 0.78212 0.81249 0.309 0.0
O19 O 0.77212 0.86442 0.25257 0.0
O20 O 0.79216 0.84782 0.22334 0.0
O21 O 0.79559 0.81844 0.28728 0.0
O22 O 0.77281 0.8243 0.32879 0.0
C23 C 0.77253 0.86313 0.37885 0.0
O24 O 0.81624 0.84349 0.34097 0.0
O25 O 0.81318 0.86699 0.29945 0.0
In26 In 0.4007 0.52619 0.56443 0.0
O27 O 0.37506 0.52401 0.60825 0.0
O28 O 0.3955 0.50495 0.62069 0.0
C29 C 0.39096 0.51955 0.47321 0.0
C30 C 0.39678 0.55916 0.60227 0.0
C31 C 0.43519 0.51535 0.56559 0.0
O32 O 0.38615 0.50979 0.50732 0.0
O33 O 0.40014 0.53289 0.48526 0.0
O34 O 0.43078 0.53125 0.55625 0.0
O35 O 0.42227 0.50509 0.57437 0.0
C36 C 0.38052 0.5111 0.63303 0.0
O37 O 0.4076 0.54778 0.61854 0.0
O38 O 0.38882 0.55434 0.5649 0.0
In39 In 0.72026 0.15177 0.81289 0.0
O40 O 0.72237 0.12838 0.86486 0.0
O41 O 0.74511 0.14484 0.85584 0.0
C42 C 0.73013 0.14156 0.72431 0.0
C43 C 0.68689 0.14616 0.84636 0.0
C44 C 0.72705 0.18731 0.81703 0.0
O45 O 0.7409 0.14259 0.75848 0.0
O46 O 0.71417 0.14513 0.73489 0.0
O47 O 0.71706 0.18061 0.78567 0.0
O48 O 0.73299 0.17623 0.84662 0.0
C49 C 0.73801 0.13208 0.87802 0.0
O50 O 0.69683 0.15854 0.86148 0.0
O51 O 0.69339 0.1373 0.81235 0.0
In52 In 0.09858 0.5321 0.55626 0.0
O53 O 0.09238 0.55434 0.50347 0.0
O54 O 0.11323 0.5589 0.55309 0.0
C55 C 0.06325 0.5242 0.55574 0.0
C56 C 0.11573 0.51349 0.48809 0.0
C57 C 0.10965 0.52462 0.64595 0.0
O58 O 0.06921 0.53842 0.57384 0.0
O59 O 0.07501 0.51429 0.53772 0.0
O60 O 0.11449 0.51562 0.61046 0.0
O61 O 0.09982 0.53774 0.63606 0.0
C62 C 0.10467 0.56459 0.51754 0.0
O63 O 0.12082 0.52873 0.50142 0.0
O64 O 0.10286 0.50714 0.51157 0.0
In65 In 0.71871 0.84715 0.80036 0.0
O66 O 0.68925 0.84451 0.77956 0.0
O67 O 0.69911 0.87033 0.79671 0.0
C68 C 0.72864 0.81282 0.81208 0.0
C69 C 0.7315 0.85459 0.71323 0.0
C70 C 0.7294 0.85869 0.88642 0.0
O71 O 0.71241 0.81755 0.81316 0.0
O72 O 0.7396 0.82536 0.80545 0.0
O73 O 0.73824 0.86175 0.84906 0.0
O74 O 0.7149 0.85039 0.87999 0.0
C75 C 0.68617 0.86108 0.78203 0.0
O76 O 0.73499 0.86448 0.7484 0.0
O77 O 0.72225 0.84103 0.7228 0.0
In78 In 0.40067 0.47509 0.03966 0.0
O79 O 0.40672 0.45299 0.98611 0.0
O80 O 0.38806 0.44729 0.04076 0.0
C81 C 0.43562 0.48442 0.03784 0.0
C82 C 0.38057 0.49039 0.97126 0.0
C83 C 0.39102 0.48303 0.13027 0.0
O84 O 0.43044 0.4693 0.05215 0.0
O85 O 0.42326 0.4946 0.02421 0.0
O86 O 0.38722 0.49298 0.09565 0.0
O87 O 0.39916 0.46894 0.11902 0.0
C88 C 0.3957 0.442 0.00336 0.0
O89 O 0.37507 0.47745 0.99582 0.0
O90 O 0.39556 0.49648 0.98374 0.0
In91 In 0.78306 0.15215 0.29969 0.0
O92 O 0.76826 0.13305 0.24887 0.0
O93 O 0.78126 0.15603 0.22101 0.0
C94 C 0.77163 0.14116 0.38556 0.0
C95 C 0.8162 0.1392 0.28494 0.0
C96 C 0.77211 0.18644 0.30591 0.0
O97 O 0.76199 0.13999 0.34889 0.0
O98 O 0.78708 0.14738 0.3786 0.0
O99 O 0.788 0.18191 0.31545 0.0
O100 O 0.76205 0.17376 0.29371 0.0
C101 C 0.77246 0.14206 0.21255 0.0
O102 O 0.81263 0.15564 0.28085 0.0
O103 O 0.80338 0.12966 0.29924 0.0
In104 In 0.89861 0.52939 0.05132 0.0
O105 O 0.87381 0.52588 0.00459 0.0
O106 O 0.89606 0.50921 0.99099 0.0
C107 C 0.88888 0.52153 0.14143 0.0
C108 C 0.89224 0.5634 0.02424 0.0
C109 C 0.93334 0.51941 0.05108 0.0
O110 O 0.8834 0.51269 0.10621 0.0
O111 O 0.8988 0.53456 0.13105 0.0
O112 O 0.92865 0.53559 0.04794 0.0
O113 O 0.92059 0.5085 0.05446 0.0
C114 C 0.88066 0.51405 0.9786 0.0
O115 O 0.88456 0.55622 0.05925 0.0
O116 O 0.904 0.55377 0.00474 0.0
In117 In 0.21772 0.15131 0.81343 0.0
O118 O 0.22053 0.13006 0.75529 0.0
O119 O 0.24226 0.14755 0.76622 0.0
C120 C 0.22384 0.14045 0.90354 0.0
C121 C 0.18414 0.14439 0.78396 0.0
C122 C 0.22755 0.18615 0.81228 0.0
O123 O 0.23135 0.13335 0.86822 0.0
O124 O 0.21279 0.15255 0.89328 0.0
O125 O 0.21143 0.18142 0.80804 0.0
O126 O 0.23837 0.17344 0.81739 0.0
C127 C 0.23574 0.13506 0.74194 0.0
O128 O 0.19359 0.15664 0.76601 0.0
O129 O 0.19127 0.13641 0.81864 0.0
In130 In 0.5988 0.46566 0.56404 0.0
O131 O 0.62021 0.4709 0.50734 0.0
O132 O 0.59887 0.48926 0.51303 0.0
C133 C 0.61097 0.47248 0.65258 0.0
C134 C 0.60629 0.43247 0.53212 0.0
C135 C 0.56367 0.47396 0.57 0.0
O136 O 0.61672 0.48058 0.61645 0.0
O137 O 0.59966 0.46045 0.6438 0.0
O138 O 0.56891 0.4582 0.56199 0.0
O139 O 0.57605 0.48516 0.5754 0.0
C140 C 0.61273 0.48463 0.49103 0.0
O141 O 0.59371 0.4418 0.51541 0.0
O142 O 0.61433 0.43946 0.56688 0.0
In143 In 0.27861 0.85208 0.30237 0.0
O144 O 0.27786 0.87716 0.25614 0.0
O145 O 0.25684 0.85844 0.24827 0.0
C146 C 0.26949 0.86078 0.3928 0.0
C147 C 0.31251 0.85781 0.2729 0.0
C148 C 0.26921 0.81723 0.29452 0.0
O149 O 0.26011 0.86518 0.3576 0.0
O150 O 0.28351 0.8524 0.38231 0.0
O151 O 0.28352 0.82207 0.31446 0.0
O152 O 0.25998 0.82986 0.27819 0.0
C153 C 0.26404 0.87263 0.23367 0.0
O154 O 0.30261 0.84603 0.25451 0.0
O155 O 0.30563 0.86588 0.30771 0.0
In156 In 0.89943 0.47528 0.57089 0.0
O157 O 0.90522 0.45355 0.62529 0.0
O158 O 0.88726 0.44728 0.5694 0.0
C159 C 0.93414 0.48524 0.56786 0.0
C160 C 0.88068 0.49126 0.64082 0.0
C161 C 0.88867 0.48205 0.48087 0.0
O162 O 0.9294 0.46906 0.56679 0.0
O163 O 0.92144 0.49623 0.5705 0.0
O164 O 0.88414 0.49164 0.51559 0.0
O165 O 0.89808 0.4687 0.49176 0.0
C166 C 0.89457 0.44232 0.60758 0.0
O167 O 0.87419 0.47902 0.61544 0.0
O168 O 0.89611 0.49624 0.62882 0.0
In169 In 0.2838 0.15267 0.31869 0.0
O170 O 0.3135 0.15555 0.33686 0.0
O171 O 0.30376 0.12985 0.31783 0.0
C172 C 0.273 0.18694 0.31137 0.0
C173 C 0.27299 0.14385 0.40654 0.0
C174 C 0.27169 0.14145 0.23383 0.0
O175 O 0.2889 0.1823 0.30231 0.0
O176 O 0.26281 0.17435 0.32359 0.0
O177 O 0.26325 0.13854 0.27192 0.0
O178 O 0.28636 0.14955 0.23893 0.0
C179 C 0.31679 0.13909 0.33208 0.0
O180 O 0.26855 0.13458 0.37091 0.0
O181 O 0.28229 0.15742 0.39716 0.0
In182 In 0.59877 0.53405 0.0656 0.0
O183 O 0.59669 0.56374 0.08518 0.0
O184 O 0.62221 0.55335 0.06713 0.0
C185 C 0.56432 0.52477 0.05257 0.0
C186 C 0.6056 0.52145 0.15324 0.0
C187 C 0.61051 0.52221 0.98094 0.0
O188 O 0.56933 0.54092 0.05181 0.0
O189 O 0.57665 0.51359 0.05952 0.0
O190 O 0.61306 0.51363 0.01896 0.0
O191 O 0.60256 0.53698 0.98602 0.0
C192 C 0.61326 0.56657 0.08137 0.0
O193 O 0.61607 0.51841 0.119 0.0
O194 O 0.59186 0.53025 0.14257 0.0
In195 In 0.22579 0.85194 0.8262 0.0
O196 O 0.20179 0.84657 0.87436 0.0
O197 O 0.19852 0.86511 0.818 0.0
C198 C 0.23692 0.81757 0.82915 0.0
C199 C 0.24129 0.87108 0.89662 0.0
C200 C 0.23222 0.86076 0.73463 0.0
O201 O 0.22069 0.82183 0.83414 0.0
O202 O 0.24732 0.83056 0.82243 0.0
O203 O 0.24105 0.86725 0.76863 0.0
O204 O 0.21994 0.85021 0.74694 0.0
C205 C 0.19174 0.85776 0.85405 0.0
O206 O 0.22895 0.87727 0.87118 0.0
O207 O 0.24656 0.85577 0.88463 0.0
In208 In 0.59945 0.97069 0.55308 0.0
O209 O 0.59491 0.94904 0.60847 0.0
O210 O 0.61402 0.94381 0.55449 0.0
C211 C 0.56421 0.97836 0.54703 0.0
C212 C 0.61397 0.9907 0.62297 0.0
C213 C 0.61128 0.97646 0.46358 0.0
O214 O 0.56978 0.96256 0.55265 0.0
O215 O 0.57633 0.98995 0.54415 0.0
O216 O 0.61687 0.98525 0.49873 0.0
O217 O 0.60039 0.96421 0.47389 0.0
C218 C 0.60667 0.93858 0.59238 0.0
O219 O 0.62172 0.97716 0.60626 0.0
O220 O 0.5996 0.99472 0.60243 0.0
In221 In 0.28308 0.34786 0.81373 0.0
O222 O 0.31279 0.34479 0.83185 0.0
O223 O 0.30322 0.37053 0.81266 0.0
C224 C 0.2718 0.31372 0.80706 0.0
C225 C 0.27255 0.35693 0.90162 0.0
C226 C 0.27112 0.35898 0.72861 0.0
O227 O 0.28779 0.3181 0.79818 0.0
O228 O 0.26176 0.3265 0.81876 0.0
O229 O 0.26268 0.36208 0.76661 0.0
O230 O 0.28571 0.35075 0.73393 0.0
C231 C 0.31619 0.36123 0.82702 0.0
O232 O 0.26827 0.36631 0.86605 0.0
O233 O 0.28149 0.34313 0.89213 0.0
In234 In 0.90236 0.02703 0.0709 0.0
O235 O 0.90819 0.04931 0.12404 0.0
O236 O 0.88933 0.05465 0.0696 0.0
C237 C 0.93742 0.01813 0.06929 0.0
C238 C 0.88354 0.01144 0.14128 0.0
C239 C 0.89175 0.01872 0.98142 0.0
O240 O 0.93198 0.03353 0.05806 0.0
O241 O 0.92526 0.00748 0.08163 0.0
O242 O 0.88817 0.00902 0.0167 0.0
O243 O 0.90013 0.0328 0.99147 0.0
C244 C 0.89695 0.06009 0.10687 0.0
O245 O 0.8773 0.024 0.11657 0.0
O246 O 0.89866 0.0059 0.12821 0.0
In247 In 0.21501 0.65542 0.30688 0.0
O248 O 0.23135 0.63894 0.36051 0.0
O249 O 0.21671 0.66153 0.38465 0.0
C250 C 0.22699 0.64284 0.2233 0.0
C251 C 0.18247 0.64145 0.32378 0.0
C252 C 0.22523 0.68969 0.29472 0.0
O253 O 0.23603 0.64185 0.26103 0.0
O254 O 0.21162 0.6496 0.22801 0.0
O255 O 0.20905 0.68499 0.29082 0.0
O256 O 0.23589 0.67717 0.3041 0.0
C257 C 0.22676 0.64864 0.39516 0.0
O258 O 0.18528 0.6581 0.32419 0.0
O259 O 0.19574 0.63207 0.31185 0.0
In260 In 0.59454 0.03575 0.04864 0.0
O261 O 0.61324 0.02131 0.99612 0.0
O262 O 0.5887 0.03209 0.97114 0.0
C263 C 0.6067 0.02396 0.13304 0.0
C264 C 0.60701 0.06898 0.03159 0.0
C265 C 0.56037 0.0251 0.05949 0.0
O266 O 0.6092 0.01539 0.09497 0.0
O267 O 0.59855 0.03862 0.12813 0.0
O268 O 0.56516 0.04104 0.0675 0.0
O269 O 0.57278 0.0148 0.0466 0.0
C270 C 0.60301 0.0241 0.96117 0.0
O271 O 0.59074 0.06497 0.02655 0.0
O272 O 0.61661 0.05662 0.0481 0.0
In273 In 0.2198 0.34957 0.30655 0.0
O274 O 0.19841 0.34415 0.25098 0.0
O275 O 0.19205 0.36238 0.30626 0.0
C276 C 0.22976 0.31482 0.30887 0.0
C277 C 0.23869 0.36643 0.23819 0.0
C278 C 0.22473 0.36096 0.3968 0.0
O279 O 0.21361 0.31946 0.3046 0.0
O280 O 0.24059 0.32761 0.31237 0.0
O281 O 0.23308 0.36746 0.36202 0.0
O282 O 0.21335 0.34925 0.38585 0.0
C283 C 0.18724 0.35506 0.26793 0.0
O284 O 0.22426 0.37258 0.25424 0.0
O285 O 0.24408 0.35248 0.25858 0.0
In286 In 0.9025 0.97259 0.55139 0.0
O287 O 0.90896 0.95001 0.49983 0.0
O288 O 0.88952 0.94498 0.55308 0.0
C289 C 0.93714 0.98273 0.55494 0.0
C290 C 0.88441 0.98844 0.47985 0.0
C291 C 0.89183 0.97929 0.64161 0.0
O292 O 0.93251 0.96651 0.55436 0.0
O293 O 0.92436 0.99368 0.55367 0.0
O294 O 0.88695 0.98872 0.60689 0.0
O295 O 0.90153 0.96617 0.6306 0.0
C296 C 0.89759 0.93931 0.51672 0.0
O297 O 0.87761 0.97641 0.50533 0.0
O298 O 0.8998 0.9933 0.49245 0.0
In299 In 0.28965 0.65527 0.81098 0.0
O300 O 0.31911 0.65728 0.78913 0.0
O301 O 0.30858 0.63165 0.80587 0.0
C302 C 0.28019 0.68973 0.82379 0.0
C303 C 0.27631 0.64895 0.72417 0.0
C304 C 0.27749 0.64298 0.8947 0.0
O305 O 0.29609 0.68453 0.83066 0.0
O306 O 0.26951 0.67761 0.81135 0.0
O307 O 0.2684 0.64216 0.85704 0.0
O308 O 0.29297 0.64946 0.88988 0.0
C309 C 0.32174 0.64061 0.79117 0.0
O310 O 0.27301 0.6386 0.75853 0.0
O311 O 0.2861 0.6621 0.73411 0.0
In312 In 0.39952 0.02481 0.54603 0.0
O313 O 0.40583 0.04659 0.49199 0.0
O314 O 0.3875 0.05286 0.54702 0.0
C315 C 0.43441 0.01529 0.54588 0.0
C316 C 0.37959 0.00964 0.47721 0.0
C317 C 0.38913 0.01701 0.63597 0.0
O318 O 0.42928 0.03072 0.55778 0.0
O319 O 0.42201 0.00484 0.53399 0.0
O320 O 0.38547 0.00714 0.60112 0.0
O321 O 0.39754 0.03101 0.6253 0.0
C322 C 0.39513 0.05786 0.50935 0.0
O323 O 0.37405 0.02257 0.50177 0.0
O324 O 0.39459 0.00357 0.48969 0.0
In325 In 0.72766 0.65042 0.29353 0.0
O326 O 0.70614 0.65632 0.23843 0.0
O327 O 0.69938 0.63895 0.29522 0.0
C328 C 0.73897 0.68474 0.29577 0.0
C329 C 0.74335 0.63088 0.22457 0.0
C330 C 0.73336 0.64013 0.38446 0.0
O331 O 0.72259 0.68065 0.29617 0.0
O332 O 0.74945 0.67159 0.29405 0.0
O333 O 0.743 0.63487 0.35052 0.0
O334 O 0.72056 0.65006 0.37233 0.0
C335 C 0.69465 0.64604 0.25656 0.0
O336 O 0.73106 0.62475 0.25039 0.0
O337 O 0.74855 0.64632 0.23576 0.0
In338 In 0.10185 0.97106 0.0515 0.0
O339 O 0.12584 0.97583 0.00247 0.0
O340 O 0.1027 0.99153 0.99148 0.0
C341 C 0.11223 0.97898 0.14109 0.0
C342 C 0.10938 0.93727 0.02439 0.0
C343 C 0.06685 0.97995 0.05496 0.0
O344 O 0.11745 0.98782 0.10558 0.0
O345 O 0.10229 0.96591 0.13118 0.0
O346 O 0.07196 0.96396 0.05002 0.0
O347 O 0.07932 0.99119 0.05802 0.0
C348 C 0.11814 0.98745 0.97751 0.0
O349 O 0.09728 0.94646 0.00488 0.0
O350 O 0.11683 0.94475 0.05931 0.0
In351 In 0.78256 0.34874 0.80109 0.0
O352 O 0.7675 0.36689 0.74859 0.0
O353 O 0.78048 0.3435 0.723 0.0
C354 C 0.77089 0.36004 0.88628 0.0
C355 C 0.81559 0.36209 0.78682 0.0
C356 C 0.77134 0.31465 0.80919 0.0
O357 O 0.76243 0.36318 0.84837 0.0
O358 O 0.78542 0.3517 0.88083 0.0
O359 O 0.78751 0.31897 0.8158 0.0
O360 O 0.76112 0.32748 0.79901 0.0
C361 C 0.77152 0.35725 0.71328 0.0
O362 O 0.81222 0.34563 0.78263 0.0
O363 O 0.80264 0.37146 0.80101 0.0
In364 In 0.39784 0.97178 0.0676 0.0
O365 O 0.40338 0.94755 0.11472 0.0
O366 O 0.38397 0.94483 0.06022 0.0
C367 C 0.43242 0.98223 0.06828 0.0
C368 C 0.37957 0.98731 0.13959 0.0
C369 C 0.38847 0.9789 0.97678 0.0
O370 O 0.42793 0.96602 0.07223 0.0
O371 O 0.41954 0.99294 0.06392 0.0
O372 O 0.38259 0.98783 0.01138 0.0
O373 O 0.39862 0.96616 0.98814 0.0
C374 C 0.3917 0.93779 0.09536 0.0
O375 O 0.37287 0.97536 0.11375 0.0
O376 O 0.39498 0.99219 0.12733 0.0
In377 In 0.77917 0.64947 0.81651 0.0
O378 O 0.77739 0.6243 0.86232 0.0
O379 O 0.7581 0.64459 0.87354 0.0
C380 C 0.77025 0.64035 0.72628 0.0
C381 C 0.81291 0.64344 0.84669 0.0
C382 C 0.77008 0.68443 0.82123 0.0
O383 O 0.76088 0.63594 0.76152 0.0
O384 O 0.78415 0.64893 0.73666 0.0
O385 O 0.78514 0.67934 0.80623 0.0
O386 O 0.75988 0.67198 0.83411 0.0
C387 C 0.76442 0.6298 0.88675 0.0
O388 O 0.803 0.65522 0.86506 0.0
O389 O 0.80613 0.63553 0.81148 0.0
In390 In 0.10128 0.03073 0.56702 0.0
O391 O 0.09503 0.05471 0.61457 0.0
O392 O 0.11585 0.05743 0.5639 0.0
C393 C 0.06607 0.0224 0.568 0.0
C394 C 0.11931 0.01534 0.63937 0.0
C395 C 0.11174 0.02137 0.47807 0.0
O396 O 0.07173 0.03718 0.55253 0.0
O397 O 0.07808 0.01213 0.58327 0.0
O398 O 0.11572 0.01228 0.51414 0.0
O399 O 0.10299 0.03532 0.48701 0.0
C400 C 0.10734 0.06438 0.59787 0.0
O401 O 0.12516 0.02876 0.61735 0.0
O402 O 0.10503 0.00897 0.62286 0.0
In403 In 0.71746 0.34873 0.30663 0.0
O404 O 0.69431 0.34315 0.3572 0.0
O405 O 0.69044 0.36277 0.30368 0.0
C406 C 0.72753 0.31396 0.30547 0.0
C407 C 0.73575 0.36512 0.37716 0.0
C408 C 0.72334 0.3601 0.21684 0.0
O409 O 0.71137 0.31855 0.30989 0.0
O410 O 0.73828 0.32679 0.30129 0.0
O411 O 0.73117 0.36676 0.25225 0.0
O412 O 0.71205 0.34819 0.22686 0.0
C413 C 0.68418 0.35494 0.33974 0.0
O414 O 0.72106 0.37091 0.36194 0.0
O415 O 0.74162 0.35172 0.35522 0.0
H416 H 0.94608 0.48602 0.06852 0.0
H417 H 0.96314 0.53936 0.0323 0.0
H418 H 0.97698 0.47601 0.06841 0.0
H419 H 0.99413 0.52924 0.03038 0.0
H420 H 0.04843 0.50976 0.08298 0.0
H421 H 0.01759 0.5199 0.08098 0.0
H422 H 0.00171 0.4696 0.01865 0.0
H423 H 0.0326 0.45924 0.02239 0.0
C424 C 0.95645 0.49559 0.06018 0.0
C425 C 0.95219 0.5135 0.05056 0.0
C426 C 0.9742 0.48981 0.05972 0.0
C427 C 0.98813 0.50177 0.04924 0.0
C428 C 0.9838 0.51969 0.0393 0.0
C429 C 0.96604 0.52551 0.04016 0.0
C430 C 0.03835 0.50087 0.06876 0.0
C431 C 0.04293 0.48367 0.05296 0.0
C432 C 0.02065 0.50674 0.06729 0.0
C433 C 0.00708 0.49561 0.04961 0.0
C434 C 0.01173 0.47845 0.03322 0.0
C435 C 0.02946 0.47252 0.03507 0.0
H436 H 0.75456 0.79733 0.3572 0.0
H437 H 0.79754 0.7847 0.26081 0.0
H438 H 0.74448 0.76645 0.35441 0.0
H439 H 0.7872 0.75376 0.25706 0.0
H440 H 0.77353 0.6961 0.29875 0.0
H441 H 0.78449 0.7267 0.30323 0.0
H442 H 0.73017 0.74614 0.30024 0.0
H443 H 0.71922 0.71546 0.29691 0.0
C444 C 0.76188 0.78793 0.33543 0.0
C445 C 0.77685 0.79345 0.30918 0.0
C446 C 0.756 0.77024 0.33352 0.0
C447 C 0.76491 0.75762 0.30518 0.0
C448 C 0.78011 0.76308 0.27958 0.0
C449 C 0.78602 0.78081 0.2816 0.0
C450 C 0.76393 0.70692 0.29904 0.0
C451 C 0.7455 0.70337 0.29759 0.0
C452 C 0.77022 0.72447 0.30133 0.0
C453 C 0.75823 0.73891 0.30217 0.0
C454 C 0.73978 0.73534 0.3004 0.0
C455 C 0.73349 0.71776 0.2982 0.0
H456 H 0.44754 0.48258 0.59211 0.0
H457 H 0.46515 0.53394 0.54061 0.0
H458 H 0.47839 0.47224 0.59437 0.0
H459 H 0.49599 0.52346 0.5414 0.0
H460 H 0.55023 0.50623 0.59579 0.0
H461 H 0.51926 0.51591 0.59539 0.0
H462 H 0.50309 0.46385 0.54504 0.0
H463 H 0.53423 0.45399 0.5469 0.0
C464 C 0.45802 0.49163 0.58099 0.0
C465 C 0.45393 0.5091 0.56633 0.0
C466 C 0.4757 0.48566 0.58198 0.0
C467 C 0.48974 0.49699 0.56813 0.0
C468 C 0.48558 0.51444 0.5531 0.0
C469 C 0.46789 0.52044 0.55236 0.0
C470 C 0.54006 0.4968 0.58483 0.0
C471 C 0.54467 0.47934 0.57133 0.0
C472 C 0.52229 0.50241 0.58423 0.0
C473 C 0.50863 0.49074 0.56978 0.0
C474 C 0.51323 0.47316 0.55683 0.0
C475 C 0.53106 0.4675 0.55771 0.0
H476 H 0.71753 0.21378 0.75499 0.0
H477 H 0.74908 0.20368 0.8803 0.0
H478 H 0.72828 0.2446 0.75363 0.0
H479 H 0.7596 0.23446 0.87939 0.0
H480 H 0.79029 0.28429 0.82961 0.0
H481 H 0.77912 0.25362 0.83204 0.0
H482 H 0.72616 0.27254 0.79786 0.0
H483 H 0.73735 0.30304 0.79472 0.0
C484 C 0.72661 0.21819 0.78248 0.0
C485 C 0.73245 0.20631 0.81771 0.0
C486 C 0.73274 0.23585 0.78181 0.0
C487 C 0.74488 0.24197 0.8163 0.0
C488 C 0.75049 0.23011 0.8519 0.0
C489 C 0.74434 0.21251 0.85262 0.0
C490 C 0.77627 0.28187 0.82272 0.0
C491 C 0.76472 0.29607 0.81195 0.0
C492 C 0.76984 0.26432 0.82431 0.0
C493 C 0.75173 0.26062 0.81506 0.0
C494 C 0.74021 0.27488 0.80451 0.0
C495 C 0.74662 0.29238 0.80302 0.0
H496 H 0.03565 0.54105 0.60108 0.0
H497 H 0.04783 0.49568 0.51233 0.0
H498 H 0.00446 0.53158 0.60487 0.0
H499 H 0.01668 0.4865 0.51482 0.0
H500 H 0.96404 0.46431 0.57001 0.0
H501 H 0.99514 0.474 0.56774 0.0
H502 H 0.97787 0.52896 0.55812 0.0
H503 H 0.94685 0.51926 0.56188 0.0
C504 C 0.03162 0.52916 0.58205 0.0
C505 C 0.04418 0.51909 0.55652 0.0
C506 C 0.01373 0.52375 0.58402 0.0
C507 C 0.00803 0.50821 0.5603 0.0
C508 C 0.02062 0.49833 0.53426 0.0
C509 C 0.03847 0.50367 0.53251 0.0
C510 C 0.96692 0.47845 0.56747 0.0
C511 C 0.95302 0.49101 0.56613 0.0
C512 C 0.98474 0.48402 0.56589 0.0
C513 C 0.98905 0.50229 0.56264 0.0
C514 C 0.97508 0.51482 0.56132 0.0
C515 C 0.95728 0.50925 0.56316 0.0
H516 H 0.78719 0.71331 0.78302 0.0
H517 H 0.74019 0.69827 0.86216 0.0
H518 H 0.777 0.74425 0.78195 0.0
H519 H 0.7303 0.72924 0.86279 0.0
H520 H 0.70813 0.78258 0.80968 0.0
H521 H 0.71834 0.75164 0.81272 0.0
H522 H 0.77274 0.76991 0.82953 0.0
H523 H 0.76256 0.80071 0.8246 0.0
C524 C 0.77478 0.71667 0.80065 0.0
C525 C 0.76448 0.70337 0.82256 0.0
C526 C 0.76896 0.73443 0.8003 0.0
C527 C 0.75278 0.73932 0.82224 0.0
C528 C 0.74265 0.72598 0.84478 0.0
C529 C 0.74839 0.70822 0.84475 0.0
C530 C 0.72225 0.77994 0.8142 0.0
C531 C 0.73454 0.79405 0.81671 0.0
C532 C 0.72813 0.7622 0.81619 0.0
C533 C 0.74642 0.7582 0.82121 0.0
C534 C 0.75862 0.77241 0.82468 0.0
C535 C 0.75277 0.7901 0.82222 0.0
H536 H 0.53432 0.5457 0.05402 0.0
H537 H 0.55182 0.49104 0.03957 0.0
H538 H 0.50325 0.53587 0.04999 0.0
H539 H 0.52094 0.48125 0.03368 0.0
H540 H 0.46411 0.46726 0.07776 0.0
H541 H 0.49508 0.47728 0.08048 0.0
H542 H 0.48088 0.52415 0.9993 0.0
H543 H 0.44984 0.51441 0.99829 0.0
C544 C 0.53152 0.53162 0.0494 0.0
C545 C 0.54549 0.51915 0.0473 0.0
C546 C 0.51371 0.52596 0.04686 0.0
C547 C 0.50951 0.50772 0.04172 0.0
C548 C 0.52359 0.49534 0.03864 0.0
C549 C 0.54133 0.50097 0.04164 0.0
C550 C 0.46765 0.47967 0.06044 0.0
C551 C 0.45456 0.49005 0.03788 0.0
C552 C 0.48543 0.4854 0.06173 0.0
C553 C 0.49056 0.50156 0.04008 0.0
C554 C 0.47742 0.51181 0.01706 0.0
C555 C 0.45963 0.50615 0.01616 0.0
H556 H 0.70813 0.28382 0.32526 0.0
H557 H 0.76102 0.30173 0.28721 0.0
H558 H 0.71892 0.25304 0.3282 0.0
H559 H 0.77168 0.27106 0.28851 0.0
H560 H 0.78976 0.21619 0.3379 0.0
H561 H 0.77869 0.24689 0.33998 0.0
H562 H 0.72881 0.22942 0.27837 0.0
H563 H 0.73965 0.19882 0.27788 0.0
C564 C 0.72202 0.28115 0.31718 0.0
C565 C 0.73371 0.29518 0.30601 0.0
C566 C 0.72821 0.26351 0.31866 0.0
C567 C 0.74622 0.2595 0.30868 0.0
C568 C 0.75784 0.27361 0.29728 0.0
C569 C 0.75168 0.29121 0.29613 0.0
C570 C 0.77642 0.21895 0.32501 0.0
C571 C 0.7656 0.2051 0.30774 0.0
C572 C 0.77008 0.23655 0.32591 0.0
C573 C 0.75282 0.2407 0.30926 0.0
C574 C 0.74203 0.22675 0.29221 0.0
C575 C 0.74831 0.20919 0.29161 0.0
H576 H 0.28949 0.28384 0.77622 0.0
H577 H 0.23913 0.30153 0.83416 0.0
H578 H 0.27844 0.25315 0.77494 0.0
H579 H 0.2283 0.27092 0.8345 0.0
H580 H 0.20802 0.21602 0.79034 0.0
H581 H 0.21865 0.24684 0.78586 0.0
H582 H 0.2714 0.2294 0.82755 0.0
H583 H 0.26091 0.19871 0.83037 0.0
C584 C 0.27609 0.28116 0.78879 0.0
C585 C 0.2652 0.29509 0.80531 0.0
C586 C 0.26977 0.26356 0.78836 0.0
C587 C 0.25246 0.25949 0.80477 0.0
C588 C 0.24157 0.27352 0.8209 0.0
C589 C 0.24784 0.29109 0.82102 0.0
C590 C 0.22187 0.21882 0.79852 0.0
C591 C 0.23362 0.20495 0.81069 0.0
C592 C 0.22798 0.23649 0.79615 0.0
C593 C 0.24593 0.24067 0.80623 0.0
C594 C 0.25759 0.22672 0.81865 0.0
C595 C 0.25153 0.2091 0.82067 0.0
H596 H 0.28391 0.78811 0.33805 0.0
H597 H 0.24091 0.80394 0.24518 0.0
H598 H 0.27301 0.75741 0.33664 0.0
H599 H 0.23034 0.77319 0.24233 0.0
H600 H 0.20509 0.72026 0.29061 0.0
H601 H 0.21588 0.75106 0.28954 0.0
H602 H 0.27033 0.73188 0.28739 0.0
H603 H 0.25954 0.70129 0.29009 0.0
C604 C 0.27225 0.78497 0.31689 0.0
C605 C 0.26327 0.79842 0.29178 0.0
C606 C 0.26602 0.76736 0.31586 0.0
C607 C 0.25075 0.76276 0.28935 0.0
C608 C 0.24194 0.77625 0.26374 0.0
C609 C 0.24809 0.79387 0.26508 0.0
C610 C 0.21934 0.72268 0.28965 0.0
C611 C 0.23145 0.70838 0.29064 0.0
C612 C 0.22556 0.74033 0.28885 0.0
C613 C 0.24402 0.74402 0.28868 0.0
C614 C 0.25606 0.72961 0.28852 0.0
C615 C 0.24985 0.71204 0.28969 0.0
H616 H 0.24066 0.19971 0.33911 0.0
H617 H 0.29095 0.21637 0.27869 0.0
H618 H 0.23016 0.23043 0.33807 0.0
H619 H 0.28022 0.24717 0.27601 0.0
H620 H 0.26314 0.30236 0.32748 0.0
H621 H 0.27349 0.27157 0.32698 0.0
H622 H 0.22055 0.25395 0.28766 0.0
H623 H 0.21008 0.28484 0.28985 0.0
C624 C 0.24943 0.20995 0.32516 0.0
C625 C 0.26666 0.20563 0.30909 0.0
C626 C 0.24335 0.22757 0.32425 0.0
C627 C 0.2543 0.24135 0.30691 0.0
C628 C 0.2715 0.23697 0.2903 0.0
C629 C 0.27764 0.21931 0.29154 0.0
C630 C 0.2537 0.2919 0.31884 0.0
C631 C 0.23578 0.296 0.30885 0.0
C632 C 0.25967 0.27423 0.31814 0.0
C633 C 0.2479 0.26021 0.30708 0.0
C634 C 0.22995 0.26436 0.29698 0.0
C635 C 0.22394 0.28206 0.29803 0.0
H636 H 0.29931 0.71891 0.85456 0.0
H637 H 0.24753 0.70302 0.80206 0.0
H638 H 0.28895 0.74989 0.85954 0.0
H639 H 0.23742 0.73374 0.80538 0.0
H640 H 0.21824 0.78767 0.85431 0.0
H641 H 0.22908 0.75698 0.8575 0.0
H642 H 0.28107 0.77466 0.8103 0.0
H643 H 0.27036 0.80538 0.80886 0.0
C644 C 0.28576 0.72204 0.84406 0.0
C645 C 0.27425 0.70853 0.82803 0.0
C646 C 0.27983 0.73978 0.84662 0.0
C647 C 0.2623 0.74437 0.83297 0.0
C648 C 0.25086 0.73075 0.81711 0.0
C649 C 0.25673 0.71309 0.81486 0.0
C650 C 0.23198 0.78498 0.84475 0.0
C651 C 0.24341 0.79892 0.83114 0.0
C652 C 0.23821 0.76737 0.84636 0.0
C653 C 0.25597 0.76326 0.83394 0.0
C654 C 0.26742 0.7773 0.82077 0.0
C655 C 0.26122 0.79491 0.81955 0.0
H656 H 0.44833 0.98374 0.5149 0.0
H657 H 0.46328 0.03426 0.57708 0.0
H658 H 0.47955 0.97455 0.51414 0.0
H659 H 0.49447 0.0249 0.57775 0.0
H660 H 0.55006 0.01082 0.52605 0.0
H661 H 0.51878 0.0195 0.52509 0.0
H662 H 0.50375 0.96581 0.56478 0.0
H663 H 0.53519 0.95701 0.56424 0.0
C664 C 0.4583 0.99285 0.52866 0.0
C665 C 0.45337 0.00975 0.54591 0.0
C666 C 0.4762 0.98753 0.52853 0.0
C667 C 0.48958 0.99896 0.54585 0.0
C668 C 0.48458 0.01585 0.56341 0.0
C669 C 0.46668 0.0212 0.56329 0.0
C670 C 0.54008 0.00084 0.53441 0.0
C671 C 0.54508 0.98323 0.54525 0.0
C672 C 0.52212 0.00585 0.53422 0.0
C673 C 0.50869 0.99341 0.54522 0.0
C674 C 0.51371 0.97571 0.55564 0.0
C675 C 0.53172 0.97066 0.55553 0.0
H676 H 0.96576 0.03715 0.03469 0.0
H677 H 0.95194 0.9868 0.09957 0.0
H678 H 0.99691 0.0277 0.02989 0.0
H679 H 0.98309 0.97755 0.09628 0.0
H680 H 0.03726 0.95917 0.04026 0.0
H681 H 0.00599 0.96847 0.04258 0.0
H682 H 0.02243 0.02217 0.07806 0.0
H683 H 0.05355 0.01298 0.07418 0.0
C684 C 0.96941 0.02413 0.04826 0.0
C685 C 0.95642 0.01273 0.06749 0.0
C686 C 0.98728 0.01872 0.04574 0.0
C687 C 0.99257 0.00183 0.06268 0.0
C688 C 0.97951 0.99051 0.08215 0.0
C689 C 0.96165 0.99587 0.08438 0.0
C690 C 0.03414 0.97295 0.0485 0.0
C691 C 0.04785 0.98533 0.05697 0.0
C692 C 0.01623 0.97829 0.05009 0.0
C693 C 0.01163 0.99611 0.06049 0.0
C694 C 0.02542 0.00843 0.06913 0.0
C695 C 0.04329 0.00312 0.06724 0.0
H696 H 0.53136 0.04336 0.09371 0.0
H697 H 0.54716 0.9927 0.03388 0.0
H698 H 0.50053 0.03284 0.09879 0.0
H699 H 0.51642 0.9824 0.03728 0.0
H700 H 0.46242 0.9627 0.08782 0.0
H701 H 0.4933 0.97313 0.08917 0.0
H702 H 0.4756 0.02604 0.04975 0.0
H703 H 0.44478 0.01572 0.05013 0.0
C704 C 0.52823 0.03001 0.08154 0.0
C705 C 0.54168 0.01887 0.06344 0.0
C706 C 0.51054 0.02399 0.08415 0.0
C707 C 0.50591 0.00674 0.0684 0.0
C708 C 0.51947 0.99563 0.05052 0.0
C709 C 0.53711 0.00159 0.04825 0.0
C710 C 0.46517 0.97656 0.07956 0.0
C711 C 0.45119 0.98837 0.06882 0.0
C712 C 0.48287 0.98254 0.08009 0.0
C713 C 0.48701 1.00046 0.06951 0.0
C714 C 0.47295 0.01225 0.05887 0.0
C715 C 0.45527 0.00629 0.05871 0.0
H716 H 0.05117 0.99273 0.60716 0.0
H717 H 0.03803 0.04004 0.52694 0.0
H718 H 0.02007 0.98337 0.60463 0.0
H719 H 0.00691 0.03041 0.52297 0.0
H720 H 0.94967 0.01666 0.56562 0.0
H721 H 0.98063 0.02649 0.5698 0.0
H722 H 0.99821 0.97194 0.55134 0.0
H723 H 0.96717 0.96209 0.54876 0.0
C724 C 0.04162 0.00111 0.58883 0.0
C725 C 0.04704 0.01713 0.56726 0.0
C726 C 0.02379 0.99567 0.58704 0.0
C727 C 0.01094 0.00605 0.56334 0.0
C728 C 0.01637 0.02217 0.54204 0.0
C729 C 0.03423 0.02767 0.5441 0.0
C730 C 0.96016 0.00677 0.5625 0.0
C731 C 0.95599 0.98859 0.55696 0.0
C732 C 0.97793 0.01242 0.56458 0.0
C733 C 0.99198 1.00004 0.56089 0.0
C734 C 0.98776 0.98184 0.55509 0.0
C735 C 0.96997 0.97618 0.55332 0.0
H736 H 0.11966 0.51125 0.95404 0.0
H737 H 0.10431 0.46036 0.8947 0.0
H738 H 0.12363 0.52324 0.87401 0.0
H739 H 0.10811 0.47232 0.81506 0.0
H740 H 0.10056 0.54203 0.72748 0.0
H741 H 0.10316 0.53103 0.80858 0.0
H742 H 0.12988 0.4837 0.75732 0.0
H743 H 0.1271 0.49464 0.67606 0.0
C744 C 0.11737 0.50256 0.92394 0.0
C745 C 0.1116 0.48488 0.93065 0.0
C746 C 0.11954 0.50946 0.87813 0.0
C747 C 0.11614 0.49876 0.83812 0.0
C748 C 0.11105 0.48087 0.84502 0.0
C749 C 0.10877 0.47404 0.89072 0.0
C750 C 0.10725 0.52941 0.73359 0.0
C751 C 0.11351 0.51914 0.69535 0.0
C752 C 0.10882 0.52314 0.78012 0.0
C753 C 0.11661 0.50642 0.78943 0.0
C754 C 0.12359 0.49652 0.75129 0.0
C755 C 0.12209 0.50284 0.70476 0.0
H756 H 0.71207 0.85495 0.97096 0.0
H757 H 0.76238 0.8715 0.91042 0.0
H758 H 0.72457 0.85809 0.05038 0.0
H759 H 0.77488 0.87473 0.99002 0.0
H760 H 0.79531 0.84961 0.13187 0.0
H761 H 0.78313 0.85291 0.05223 0.0
H762 H 0.7367 0.87936 0.10983 0.0
H763 H 0.74891 0.87599 0.18982 0.0
C764 C 0.72571 0.85955 0.97464 0.0
C765 C 0.73627 0.86287 0.93441 0.0
C766 C 0.73285 0.86143 0.02019 0.0
C767 C 0.75076 0.86656 0.02654 0.0
C768 C 0.7611 0.87056 0.98629 0.0
C769 C 0.75391 0.86881 0.94072 0.0
C770 C 0.78262 0.85636 0.12751 0.0
C771 C 0.77303 0.86247 0.16714 0.0
C772 C 0.77568 0.85834 0.08181 0.0
C773 C 0.75891 0.86635 0.07467 0.0
C774 C 0.74958 0.87299 0.11421 0.0
C775 C 0.75661 0.87115 0.15997 0.0
H776 H 0.39658 0.46281 0.20931 0.0
H777 H 0.37803 0.51471 0.16432 0.0
H778 H 0.39393 0.47199 0.29195 0.0
H779 H 0.37522 0.52388 0.24723 0.0
H780 H 0.39899 0.53934 0.39482 0.0
H781 H 0.39637 0.53049 0.31189 0.0
H782 H 0.37269 0.48045 0.35472 0.0
H783 H 0.37546 0.48927 0.43786 0.0
C784 C 0.39169 0.47611 0.2171 0.0
C785 C 0.38758 0.48806 0.18027 0.0
C786 C 0.39008 0.48134 0.26451 0.0
C787 C 0.38441 0.4987 0.27626 0.0
C788 C 0.37981 0.51048 0.23938 0.0
C789 C 0.38131 0.5052 0.19191 0.0
C790 C 0.39301 0.52654 0.38653 0.0
C791 C 0.3875 0.51497 0.42291 0.0
C792 C 0.39142 0.52151 0.33895 0.0
C793 C 0.38439 0.50472 0.32662 0.0
C794 C 0.37836 0.49338 0.36303 0.0
C795 C 0.37984 0.49847 0.41064 0.0
H796 H 0.76354 0.14562 0.6888 0.0
H797 H 0.71014 0.13015 0.64888 0.0
H798 H 0.77308 0.14328 0.60701 0.0
H799 H 0.71988 0.12642 0.5669 0.0
H800 H 0.73746 0.14378 0.41784 0.0
H801 H 0.72727 0.14176 0.49958 0.0
H802 H 0.78059 0.12653 0.54309 0.0
H803 H 0.79086 0.13003 0.46178 0.0
C804 C 0.75393 0.14127 0.66251 0.0
C805 C 0.73609 0.13812 0.67517 0.0
C806 C 0.75943 0.13977 0.61537 0.0
C807 C 0.74733 0.13462 0.57961 0.0
C808 C 0.72957 0.1308 0.59287 0.0
C809 C 0.72397 0.13276 0.64 0.0
C810 C 0.7469 0.13981 0.44497 0.0
C811 C 0.76496 0.1372 0.43368 0.0
C812 C 0.74107 0.13855 0.49201 0.0
C813 C 0.75309 0.13419 0.52873 0.0
C814 C 0.77097 0.1305 0.51648 0.0
C815 C 0.77688 0.13229 0.4697 0.0
H816 H 0.87359 0.49061 0.17327 0.0
H817 H 0.89629 0.54039 0.22169 0.0
H818 H 0.87053 0.48069 0.25553 0.0
H819 H 0.89324 0.53049 0.30368 0.0
H820 H 0.89534 0.46251 0.40108 0.0
H821 H 0.89247 0.47218 0.31877 0.0
H822 H 0.8708 0.5226 0.3658 0.0
H823 H 0.8737 0.51294 0.4482 0.0
C824 C 0.87769 0.49952 0.20149 0.0
C825 C 0.88523 0.51625 0.19105 0.0
C826 C 0.87603 0.4938 0.24853 0.0
C827 C 0.88168 0.50478 0.28608 0.0
C828 C 0.88859 0.52179 0.2756 0.0
C829 C 0.89042 0.52742 0.22861 0.0
C830 C 0.88971 0.47555 0.39382 0.0
C831 C 0.88483 0.487 0.43111 0.0
C832 C 0.88799 0.48106 0.34666 0.0
C833 C 0.8815 0.4982 0.33581 0.0
C834 C 0.87602 0.5094 0.37308 0.0
C835 C 0.87758 0.50382 0.42024 0.0
H836 H 0.20801 0.15233 0.98476 0.0
H837 H 0.25154 0.11969 0.93395 0.0
H838 H 0.21901 0.14912 0.06577 0.0
H839 H 0.26255 0.11649 0.01509 0.0
H840 H 0.23768 0.1311 0.21144 0.0
H841 H 0.22493 0.12743 0.13209 0.0
H842 H 0.27647 0.13868 0.07027 0.0
H843 H 0.28916 0.14236 0.14925 0.0
C844 C 0.21974 0.1442 0.99101 0.0
C845 C 0.22898 0.13636 0.95299 0.0
C846 C 0.226 0.1423 0.03744 0.0
C847 C 0.24171 0.13265 0.04674 0.0
C848 C 0.25051 0.12415 0.00892 0.0
C849 C 0.24415 0.12591 0.96252 0.0
C850 C 0.24632 0.13251 0.18087 0.0
C851 C 0.26439 0.1371 0.1865 0.0
C852 C 0.23901 0.1305 0.1355 0.0
C853 C 0.24969 0.13281 0.09497 0.0
C854 C 0.26794 0.13663 0.10078 0.0
C855 C 0.27518 0.13884 0.14603 0.0
H856 H 0.60871 0.53928 0.89577 0.0
H857 H 0.62193 0.4885 0.95922 0.0
H858 H 0.61235 0.52632 0.8171 0.0
H859 H 0.62566 0.4755 0.88026 0.0
H860 H 0.63059 0.5014 0.68037 0.0
H861 H 0.63406 0.51304 0.76077 0.0
H862 H 0.60433 0.46814 0.81554 0.0
H863 H 0.60096 0.45646 0.7353 0.0
C864 C 0.61268 0.52542 0.8929 0.0
C865 C 0.61494 0.51489 0.93366 0.0
C866 C 0.61487 0.518 0.8478 0.0
C867 C 0.61924 0.49985 0.84243 0.0
C868 C 0.62213 0.48948 0.88327 0.0
C869 C 0.62009 0.49695 0.92845 0.0
C870 C 0.62509 0.49385 0.70968 0.0
C871 C 0.6154 0.47807 0.7015 0.0
C872 C 0.62698 0.50058 0.75568 0.0
C873 C 0.61935 0.49159 0.79448 0.0
C874 C 0.6105 0.47531 0.78649 0.0
C875 C 0.60849 0.46865 0.74047 0.0
H876 H 0.21326 0.85067 0.65654 0.0
H877 H 0.2614 0.8781 0.69897 0.0
H878 H 0.22207 0.85339 0.57354 0.0
H879 H 0.27021 0.88084 0.61578 0.0
H880 H 0.28952 0.85605 0.47237 0.0
H881 H 0.27997 0.85874 0.55471 0.0
H882 H 0.2276 0.87538 0.50822 0.0
H883 H 0.2372 0.87266 0.42554 0.0
C884 C 0.22561 0.85749 0.64808 0.0
C885 C 0.23669 0.8641 0.68428 0.0
C886 C 0.23061 0.85913 0.60051 0.0
C887 C 0.24687 0.86727 0.58811 0.0
C888 C 0.25768 0.87436 0.62428 0.0
C889 C 0.2526 0.87287 0.67186 0.0
C890 C 0.27603 0.86048 0.4797 0.0
C891 C 0.26409 0.86408 0.4425 0.0
C892 C 0.27059 0.86213 0.52689 0.0
C893 C 0.25302 0.86724 0.53798 0.0
C894 C 0.24119 0.87127 0.50076 0.0
C895 C 0.2467 0.86981 0.45347 0.0
H896 H 0.60541 0.04135 0.21776 0.0
H897 H 0.61863 0.99042 0.15511 0.0
H898 H 0.61006 0.02886 0.29654 0.0
H899 H 0.62339 0.97789 0.23426 0.0
H900 H 0.60089 0.95944 0.38253 0.0
H901 H 0.60319 0.97051 0.30141 0.0
H902 H 0.63261 0.0164 0.35138 0.0
H903 H 0.6302 0.00538 0.43263 0.0
C904 C 0.60958 0.02755 0.22081 0.0
C905 C 0.61157 0.01685 0.18025 0.0
C906 C 0.61236 0.02041 0.26598 0.0
C907 C 0.61707 0.00236 0.27169 0.0
C908 C 0.61962 0.9918 0.23102 0.0
C909 C 0.61699 0.99899 0.18573 0.0
C910 C 0.60815 0.97171 0.37609 0.0
C911 C 0.61525 0.9816 0.41401 0.0
C912 C 0.60953 0.97803 0.32957 0.0
C913 C 0.61795 0.99442 0.31999 0.0
C914 C 0.62584 0.00384 0.35769 0.0
C915 C 0.62456 0.99747 0.40419 0.0
H916 H 0.20807 0.34937 0.47726 0.0
H917 H 0.25242 0.38137 0.42872 0.0
H918 H 0.21867 0.35225 0.55879 0.0
H919 H 0.26299 0.38427 0.51028 0.0
H920 H 0.28875 0.35784 0.64432 0.0
H921 H 0.27633 0.36175 0.56515 0.0
H922 H 0.22473 0.37349 0.62603 0.0
H923 H 0.23723 0.36959 0.70561 0.0
C924 C 0.21988 0.35731 0.48411 0.0
C925 C 0.22948 0.36504 0.44656 0.0
C926 C 0.22591 0.35902 0.53084 0.0
C927 C 0.24175 0.36836 0.54089 0.0
C928 C 0.25086 0.37681 0.50354 0.0
C929 C 0.24475 0.37523 0.45688 0.0
C930 C 0.27482 0.36151 0.64087 0.0
C931 C 0.26395 0.36335 0.68115 0.0
C932 C 0.26772 0.36385 0.5955 0.0
C933 C 0.24954 0.36791 0.58934 0.0
C934 C 0.23876 0.37026 0.62969 0.0
C935 C 0.24593 0.36812 0.6752 0.0
H936 H 0.87852 0.98681 0.94989 0.0
H937 H 0.89676 0.03831 0.90101 0.0
H938 H 0.87546 0.97685 0.86771 0.0
H939 H 0.89383 0.02835 0.81908 0.0
H940 H 0.89982 0.96024 0.72128 0.0
H941 H 0.89685 0.96979 0.80358 0.0
H942 H 0.87243 0.01903 0.75719 0.0
H943 H 0.87553 0.0095 0.6747 0.0
C944 C 0.88165 0.99607 0.92161 0.0
C945 C 0.88795 0.01332 0.93192 0.0
C946 C 0.88 0.99034 0.87456 0.0
C947 C 0.88447 0.00177 0.83682 0.0
C948 C 0.89009 0.01926 0.84724 0.0
C949 C 0.89186 0.02494 0.89423 0.0
C950 C 0.89358 0.97299 0.72867 0.0
C951 C 0.88799 0.98415 0.69149 0.0
C952 C 0.8918 0.97843 0.77587 0.0
C953 C 0.88448 0.99522 0.78697 0.0
C954 C 0.87831 0.00611 0.7498 0.0
C955 C 0.87998 1.00061 0.70257 0.0
H956 H 0.29517 0.6314 0.97348 0.0
H957 H 0.24282 0.64523 0.92161 0.0
H958 H 0.28297 0.62703 0.0527 0.0
H959 H 0.23074 0.64252 1.001 0.0
H960 H 0.20929 0.63143 0.14441 0.0
H961 H 0.22149 0.62715 0.06515 0.0
H962 H 0.27378 0.64226 0.11718 0.0
H963 H 0.26169 0.64487 0.19658 0.0
C964 C 0.28101 0.6335 0.97921 0.0
C965 C 0.26992 0.63864 0.94158 0.0
C966 C 0.27399 0.63121 0.02479 0.0
C967 C 0.2558 0.63466 0.03416 0.0
C968 C 0.24469 0.63936 0.99575 0.0
C969 C 0.25163 0.64106 0.94999 0.0
C970 C 0.22346 0.63345 0.13874 0.0
C971 C 0.23456 0.63846 0.17645 0.0
C972 C 0.23048 0.63122 0.09314 0.0
C973 C 0.24869 0.6346 0.08385 0.0
C974 C 0.25981 0.63916 0.12235 0.0
C975 C 0.25287 0.6408 0.16813 0.0
H976 H 0.37214 0.00897 0.94283 0.0
H977 H 0.3973 0.95995 0.8977 0.0
H978 H 0.36933 0.01831 0.86004 0.0
H979 H 0.39456 0.96927 0.8152 0.0
H980 H 0.37586 0.98531 0.66861 0.0
H981 H 0.37275 0.9758 0.75111 0.0
H982 H 0.3911 0.02754 0.79797 0.0
H983 H 0.39413 0.03706 0.71563 0.0
C984 C 0.37685 1.0001 0.91522 0.0
C985 C 0.385 0.98376 0.92676 0.0
C986 C 0.37534 0.00548 0.86786 0.0
C987 C 0.38177 0.99456 0.83107 0.0
C988 C 0.3893 0.97791 0.84263 0.0
C989 C 0.39096 0.97261 0.88994 0.0
C990 C 0.37899 0.99473 0.69655 0.0
C991 C 0.38532 0.01191 0.68565 0.0
C992 C 0.3773 0.98925 0.74378 0.0
C993 C 0.38176 0.00088 0.78107 0.0
C994 C 0.38739 0.01831 0.77009 0.0
C995 C 0.38921 0.02374 0.7229 0.0
H996 H 0.71362 0.64867 0.46258 0.0
H997 H 0.76299 0.62354 0.41998 0.0
H998 H 0.72235 0.6459 0.54561 0.0
H999 H 0.77169 0.62068 0.50315 0.0
H1000 H 0.79007 0.64569 0.64663 0.0
H1001 H 0.78057 0.64273 0.56438 0.0
H1002 H 0.72878 0.62443 0.61098 0.0
H1003 H 0.73831 0.62746 0.69363 0.0
C1004 C 0.72621 0.6423 0.471 0.0
C1005 C 0.73766 0.63642 0.43474 0.0
C1006 C 0.73118 0.64063 0.5186 0.0
C1007 C 0.74776 0.63316 0.53097 0.0
C1008 C 0.75891 0.62668 0.49472 0.0
C1009 C 0.75389 0.62822 0.44712 0.0
C1010 C 0.77672 0.64083 0.63936 0.0
C1011 C 0.76491 0.63687 0.6766 0.0
C1012 C 0.77131 0.63903 0.59219 0.0
C1013 C 0.75391 0.63337 0.58112 0.0
C1014 C 0.74222 0.62897 0.61839 0.0
C1015 C 0.74771 0.63061 0.66567 0.0
H1016 H 0.10655 0.04013 0.39646 0.0
H1017 H 0.12543 0.98933 0.44874 0.0
H1018 H 0.10975 0.0295 0.31521 0.0
H1019 H 0.12874 0.97869 0.36719 0.0
H1020 H 0.10432 0.96064 0.22188 0.0
H1021 H 0.10726 0.97092 0.30353 0.0
H1022 H 0.13148 0.01983 0.25409 0.0
H1023 H 0.12843 0.00956 0.17217 0.0
C1024 C 0.11164 0.02678 0.39056 0.0
C1025 C 0.11565 0.01554 0.429 0.0
C1026 C 0.11357 0.02071 0.34396 0.0
C1027 C 0.11944 0.00322 0.33471 0.0
C1028 C 0.12402 0.99217 0.37318 0.0
C1029 C 0.12222 0.9983 0.41985 0.0
C1030 C 0.1105 0.97348 0.22845 0.0
C1031 C 0.11605 0.98433 0.19058 0.0
C1032 C 0.11228 0.97933 0.27529 0.0
C1033 C 0.11953 0.99623 0.28532 0.0
C1034 C 0.12567 0.00682 0.24748 0.0
C1035 C 0.12401 0.0009 0.2006 0.0
H1036 H 0.70724 0.34886 0.13531 0.0
H1037 H 0.75124 0.38067 0.1869 0.0
H1038 H 0.71822 0.35231 0.05432 0.0
H1039 H 0.76222 0.38412 0.10584 0.0
H1040 H 0.78842 0.35852 0.97073 0.0
H1041 H 0.77582 0.36199 0.04989 0.0
H1042 H 0.72441 0.37425 0.98869 0.0
H1043 H 0.73707 0.3708 0.90918 0.0
C1044 C 0.71907 0.35686 0.12924 0.0
C1045 C 0.72844 0.36439 0.16747 0.0
C1046 C 0.72532 0.3589 0.08284 0.0
C1047 C 0.74115 0.36839 0.07377 0.0
C1048 C 0.75008 0.37658 0.11182 0.0
C1049 C 0.74374 0.37468 0.15818 0.0
C1050 C 0.7745 0.36223 0.97413 0.0
C1051 C 0.76372 0.36431 0.93378 0.0
C1052 C 0.7673 0.36431 0.01949 0.0
C1053 C 0.74911 0.36835 0.02551 0.0
C1054 C 0.73844 0.37101 0.98511 0.0
C1055 C 0.74571 0.36913 0.93965 0.0
H1056 H 0.11004 0.4796 0.45669 0.0
H1057 H 0.13317 0.53009 0.41556 0.0
H1058 H 0.11134 0.46953 0.37462 0.0
H1059 H 0.13383 0.52031 0.33312 0.0
H1060 H 0.13564 0.49432 0.18509 0.0
H1061 H 0.14324 0.50048 0.26825 0.0
H1062 H 0.09211 0.47925 0.31151 0.0
H1063 H 0.08479 0.4729 0.22979 0.0
C1064 C 0.11583 0.48836 0.43027 0.0
C1065 C 0.12125 0.50569 0.44235 0.0
C1066 C 0.11642 0.48268 0.38318 0.0
C1067 C 0.12218 0.49433 0.34713 0.0
C1068 C 0.12928 0.51102 0.35995 0.0
C1069 C 0.1289 0.51662 0.40725 0.0
C1070 C 0.1261 0.491 0.21257 0.0
C1071 C 0.10963 0.48313 0.20096 0.0
C1072 C 0.13045 0.49448 0.26009 0.0
C1073 C 0.11842 0.49006 0.29663 0.0
C1074 C 0.10193 0.48235 0.28456 0.0
C1075 C 0.09763 0.4789 0.23749 0.0
H1076 H 0.72529 0.83434 0.63552 0.0
H1077 H 0.74962 0.88394 0.67957 0.0
H1078 H 0.73334 0.84048 0.55399 0.0
H1079 H 0.7575 0.89033 0.59685 0.0
H1080 H 0.78901 0.87791 0.45543 0.0
H1081 H 0.77784 0.87876 0.53643 0.0
H1082 H 0.72653 0.85976 0.48783 0.0
H1083 H 0.73791 0.85841 0.40682 0.0
C1084 C 0.7323 0.84665 0.62771 0.0
C1085 C 0.7369 0.85863 0.66401 0.0
C1086 C 0.73673 0.85028 0.58076 0.0
C1087 C 0.74584 0.86602 0.56871 0.0
C1088 C 0.75049 0.87807 0.60502 0.0
C1089 C 0.74601 0.87442 0.65231 0.0
C1090 C 0.77521 0.87431 0.46186 0.0
C1091 C 0.76441 0.8678 0.42492 0.0
C1092 C 0.76879 0.87487 0.50834 0.0
C1093 C 0.75142 0.86898 0.51874 0.0
C1094 C 0.74013 0.86398 0.48108 0.0
C1095 C 0.74658 0.86335 0.43462 0.0
H1096 H 0.35907 0.53189 0.68797 0.0
H1097 H 0.38461 0.48023 0.68292 0.0
H1098 H 0.35273 0.52758 0.7723 0.0
H1099 H 0.37785 0.47576 0.76683 0.0
H1100 H 0.385 0.52123 0.9214 0.0
H1101 H 0.37821 0.52582 0.83755 0.0
H1102 H 0.35239 0.47434 0.83219 0.0
H1103 H 0.35877 0.46992 0.91645 0.0
C1104 C 0.36266 0.51931 0.70437 0.0
C1105 C 0.37238 0.50639 0.67901 0.0
C1106 C 0.35912 0.51692 0.75266 0.0
C1107 C 0.36486 0.50139 0.776 0.0
C1108 C 0.37314 0.4878 0.74958 0.0
C1109 C 0.37704 0.49036 0.7016 0.0
C1110 C 0.37728 0.51121 0.90276 0.0
C1111 C 0.37244 0.49523 0.92535 0.0
C1112 C 0.37336 0.51384 0.85482 0.0
C1113 C 0.36487 0.50037 0.82844 0.0
C1114 C 0.35895 0.48491 0.8518 0.0
C1115 C 0.36252 0.48245 0.90004 0.0
H1116 H 0.75505 0.11186 0.18086 0.0
H1117 H 0.78069 0.16028 0.13292 0.0
H1118 H 0.74906 0.1036 0.09802 0.0
H1119 H 0.77454 0.15234 0.05161 0.0
H1120 H 0.77248 0.13422 0.90802 0.0
H1121 H 0.78267 0.13188 0.98984 0.0
H1122 H 0.73021 0.11397 0.03231 0.0
H1123 H 0.72029 0.11558 0.95015 0.0
C1124 C 0.75938 0.1207 0.15274 0.0
C1125 C 0.76829 0.13673 0.16336 0.0
C1126 C 0.756 0.11597 0.10541 0.0
C1127 C 0.76159 0.12716 0.06811 0.0
C1128 C 0.7705 0.14312 0.07918 0.0
C1129 C 0.77382 0.14781 0.12604 0.0
C1130 C 0.76335 0.12914 0.93458 0.0
C1131 C 0.74554 0.12538 0.92294 0.0
C1132 C 0.76911 0.12795 0.98152 0.0
C1133 C 0.75707 0.12331 0.01781 0.0
C1134 C 0.73981 0.11765 0.00531 0.0
C1135 C 0.73412 0.11858 0.95815 0.0
H1136 H 0.88612 0.5221 0.68979 0.0
H1137 H 0.85856 0.47152 0.69635 0.0
H1138 H 0.87949 0.52721 0.77362 0.0
H1139 H 0.85248 0.4764 0.78066 0.0
H1140 H 0.88681 0.48359 0.92862 0.0
H1141 H 0.88012 0.47855 0.84481 0.0
H1142 H 0.85214 0.52887 0.83896 0.0
H1143 H 0.85829 0.53367 0.92332 0.0
C1144 C 0.87816 0.51237 0.7088 0.0
C1145 C 0.87285 0.49644 0.68672 0.0
C1146 C 0.87435 0.51529 0.75666 0.0
C1147 C 0.86554 0.50215 0.78338 0.0
C1148 C 0.85923 0.48673 0.76062 0.0
C1149 C 0.86264 0.48401 0.71242 0.0
C1150 C 0.87867 0.49324 0.90986 0.0
C1151 C 0.87307 0.509 0.93231 0.0
C1152 C 0.87481 0.49035 0.86203 0.0
C1153 C 0.86566 0.50337 0.83566 0.0
C1154 C 0.85915 0.51864 0.85873 0.0
C1155 C 0.86261 0.52131 0.90694 0.0
H1156 H 0.26993 0.13984 0.71202 0.0
H1157 H 0.21898 0.11847 0.66836 0.0
H1158 H 0.28065 0.13789 0.63062 0.0
H1159 H 0.22938 0.11725 0.58652 0.0
H1160 H 0.25578 0.11392 0.44021 0.0
H1161 H 0.24897 0.10687 0.52329 0.0
H1162 H 0.27277 0.15692 0.56618 0.0
H1163 H 0.27983 0.16362 0.48453 0.0
C1164 C 0.26117 0.13436 0.68514 0.0
C1165 C 0.24357 0.12957 0.69628 0.0
C1166 C 0.26723 0.13338 0.63845 0.0
C1167 C 0.25569 0.12792 0.60184 0.0
C1168 C 0.23862 0.12153 0.61378 0.0
C1169 C 0.23264 0.12226 0.66071 0.0
C1170 C 0.25956 0.12332 0.46762 0.0
C1171 C 0.26832 0.13931 0.45592 0.0
C1172 C 0.2557 0.11929 0.51509 0.0
C1173 C 0.26057 0.1312 0.55151 0.0
C1174 C 0.26928 0.14718 0.53937 0.0
C1175 C 0.27314 0.15114 0.49233 0.0
H1176 H 0.5828 0.52378 0.22718 0.0
H1177 H 0.63636 0.50722 0.19108 0.0
H1178 H 0.5883 0.51666 0.30953 0.0
H1179 H 0.64212 0.50038 0.27485 0.0
H1180 H 0.63226 0.46956 0.41984 0.0
H1181 H 0.63314 0.47939 0.3373 0.0
H1182 H 0.60491 0.52756 0.37607 0.0
H1183 H 0.60342 0.51737 0.45795 0.0
C1184 C 0.59583 0.51867 0.23694 0.0
C1185 C 0.60917 0.51609 0.20268 0.0
C1186 C 0.59907 0.51477 0.28437 0.0
C1187 C 0.61579 0.5083 0.29904 0.0
C1188 C 0.62911 0.50539 0.26467 0.0
C1189 C 0.62582 0.50927 0.2168 0.0
C1190 C 0.62669 0.48247 0.41084 0.0
C1191 C 0.61752 0.4926 0.44501 0.0
C1192 C 0.6272 0.4881 0.36355 0.0
C1193 C 0.61868 0.50403 0.34991 0.0
C1194 C 0.61112 0.51496 0.38519 0.0
C1195 C 0.61039 0.50922 0.43216 0.0
H1196 H 0.22182 0.89398 0.95087 0.0
H1197 H 0.27194 0.86552 0.94627 0.0
H1198 H 0.22683 0.90086 0.0347 0.0
H1199 H 0.27714 0.87283 0.02955 0.0
H1200 H 0.28503 0.89314 0.17677 0.0
H1201 H 0.28025 0.89911 0.09249 0.0
H1202 H 0.22767 0.87581 0.10191 0.0
H1203 H 0.23257 0.86943 0.18586 0.0
C1204 C 0.23422 0.88981 0.96726 0.0
C1205 C 0.24648 0.87915 0.94226 0.0
C1206 C 0.23702 0.89368 0.01521 0.0
C1207 C 0.25233 0.88734 0.03847 0.0
C1208 C 0.2653 0.87802 0.01231 0.0
C1209 C 0.26232 0.8738 0.96473 0.0
C1210 C 0.2722 0.88986 0.16125 0.0
C1211 C 0.25919 0.8807 0.18772 0.0
C1212 C 0.26953 0.89321 0.11301 0.0
C1213 C 0.25365 0.88783 0.0908 0.0
C1214 C 0.23999 0.88022 0.11831 0.0
C1215 C 0.2428 0.87653 0.1663 0.0
H1216 H 0.63393 0.97583 0.69353 0.0
H1217 H 0.60435 0.0233 0.65648 0.0
H1218 H 0.63417 0.98514 0.77651 0.0
H1219 H 0.6052 0.03299 0.73889 0.0
H1220 H 0.58117 0.02654 0.8853 0.0
H1221 H 0.58802 0.0207 0.80299 0.0
H1222 H 0.64188 0.00584 0.84133 0.0
H1223 H 0.63479 0.01144 0.92509 0.0
C1224 C 0.62812 0.98861 0.70285 0.0
C1225 C 0.61887 0.99874 0.66884 0.0
C1226 C 0.62825 0.99394 0.75042 0.0
C1227 C 0.61927 0.00955 0.76447 0.0
C1228 C 0.61176 0.0206 0.72939 0.0
C1229 C 0.61141 0.01516 0.68212 0.0
C1230 C 0.5945 0.02202 0.87639 0.0
C1231 C 0.60745 0.01947 0.91168 0.0
C1232 C 0.5985 0.01887 0.82899 0.0
C1233 C 0.61563 0.01318 0.81536 0.0
C1234 C 0.62859 0.01029 0.85071 0.0
C1235 C 0.62453 0.01344 0.89856 0.0
H1236 H 0.22204 0.38453 0.16707 0.0
H1237 H 0.27249 0.36094 0.20647 0.0
H1238 H 0.23169 0.38571 0.08453 0.0
H1239 H 0.28251 0.36286 0.12444 0.0
H1240 H 0.27875 0.33683 0.9793 0.0
H1241 H 0.27276 0.34398 0.06125 0.0
H1242 H 0.25113 0.39512 0.01933 0.0
H1243 H 0.25687 0.38764 0.93589 0.0
C1244 C 0.23549 0.38032 0.15837 0.0
C1245 C 0.24644 0.37235 0.19286 0.0
C1246 C 0.24102 0.38099 0.11103 0.0
C1247 C 0.25767 0.3739 0.09771 0.0
C1248 C 0.26937 0.36791 0.13336 0.0
C1249 C 0.26373 0.36696 0.1804 0.0
C1250 C 0.27275 0.34964 0.98735 0.0
C1251 C 0.26827 0.36167 0.95113 0.0
C1252 C 0.26952 0.35386 0.03456 0.0
C1253 C 0.26179 0.37029 0.04707 0.0
C1254 C 0.25715 0.38236 0.01083 0.0
C1255 C 0.26039 0.37809 0.96316 0.0
H1256 H 0.89077 0.01895 0.43016 0.0
H1257 H 0.86187 0.96911 0.42433 0.0
H1258 H 0.88408 0.02418 0.34644 0.0
H1259 H 0.85568 0.97411 0.34011 0.0
H1260 H 0.86243 0.03176 0.19819 0.0
H1261 H 0.85678 0.02695 0.28273 0.0
H1262 H 0.88233 0.97542 0.27405 0.0
H1263 H 0.8885 0.98043 0.18993 0.0
C1264 C 0.88255 0.0094 0.41132 0.0
C1265 C 0.87684 0.99365 0.43362 0.0
C1266 C 0.87869 0.01239 0.36351 0.0
C1267 C 0.86942 0.9995 0.33699 0.0
C1268 C 0.86281 0.98425 0.35994 0.0
C1269 C 0.86628 0.98146 0.4081 0.0
C1270 C 0.86628 0.01914 0.21397 0.0
C1271 C 0.87593 0.00645 0.18764 0.0
C1272 C 0.86313 0.01647 0.26232 0.0
C1273 C 0.86915 0.00085 0.2847 0.0
C1274 C 0.87742 0.9875 0.25744 0.0
C1275 C 0.88097 0.99036 0.2094 0.0
H1276 H 0.25966 0.61945 0.68607 0.0
H1277 H 0.27651 0.67329 0.65369 0.0
H1278 H 0.24705 0.61675 0.60564 0.0
H1279 H 0.26384 0.67062 0.57478 0.0
H1280 H 0.21754 0.66818 0.4719 0.0
H1281 H 0.22904 0.66577 0.55215 0.0
H1282 H 0.26091 0.62032 0.51125 0.0
H1283 H 0.24941 0.62273 0.4297 0.0
C1284 C 0.26069 0.63063 0.66186 0.0
C1285 C 0.26897 0.6466 0.67611 0.0
C1286 C 0.2536 0.62904 0.61602 0.0
C1287 C 0.25447 0.64353 0.58449 0.0
C1288 C 0.26294 0.65933 0.59867 0.0
C1289 C 0.2702 0.66082 0.64383 0.0
C1290 C 0.22689 0.65755 0.47985 0.0
C1291 C 0.2328 0.6458 0.44435 0.0
C1292 C 0.2334 0.65617 0.52584 0.0
C1293 C 0.24588 0.64295 0.53751 0.0
C1294 C 0.25121 0.63057 0.50287 0.0
C1295 C 0.24474 0.63203 0.45637 0.0
H1296 H 0.3568 0.96796 0.19443 0.0
H1297 H 0.38583 0.01773 0.18962 0.0
H1298 H 0.35046 0.97283 0.27864 0.0
H1299 H 0.379 0.02284 0.27329 0.0
H1300 H 0.38345 0.97848 0.42851 0.0
H1301 H 0.37675 0.97366 0.34464 0.0
H1302 H 0.35221 0.02572 0.33718 0.0
H1303 H 0.35842 0.03036 0.42147 0.0
C1304 C 0.36121 0.98027 0.21088 0.0
C1305 C 0.37186 0.99246 0.18569 0.0
C1306 C 0.35764 0.98298 0.25902 0.0
C1307 C 0.36426 0.99818 0.28226 0.0
C1308 C 0.3736 0.0111 0.25601 0.0
C1309 C 0.37754 0.00817 0.20823 0.0
C1310 C 0.37601 0.98858 0.4094 0.0
C1311 C 0.37148 0.00477 0.43137 0.0
C1312 C 0.37214 0.98582 0.36149 0.0
C1313 C 0.36405 0.99938 0.33459 0.0
C1314 C 0.35843 0.01508 0.3573 0.0
C1315 C 0.36191 0.01766 0.40552 0.0
H1316 H 0.77399 0.63589 0.17441 0.0
H1317 H 0.72335 0.60837 0.17067 0.0
H1318 H 0.7787 0.62876 0.09078 0.0
H1319 H 0.72786 0.60171 0.08654 0.0
H1320 H 0.73354 0.63414 0.93652 0.0
H1321 H 0.72901 0.62758 0.02054 0.0
H1322 H 0.78076 0.60235 0.02659 0.0
H1323 H 0.78513 0.60846 0.94215 0.0
C1324 C 0.76416 0.62782 0.15607 0.0
C1325 C 0.74832 0.62269 0.1789 0.0
C1326 C 0.76686 0.62372 0.10829 0.0
C1327 C 0.75359 0.61476 0.08231 0.0
C1328 C 0.73828 0.6086 0.10591 0.0
C1329 C 0.73577 0.61233 0.15404 0.0
C1330 C 0.74364 0.6266 0.95536 0.0
C1331 C 0.75969 0.62186 0.93293 0.0
C1332 C 0.74104 0.6228 0.00337 0.0
C1333 C 0.75459 0.61454 0.02993 0.0
C1334 C 0.77013 0.60872 0.00678 0.0
C1335 C 0.77256 0.61215 0.95847 0.0
H1336 H 0.14095 0.96951 0.91942 0.0
H1337 H 0.11002 0.01801 0.93003 0.0
H1338 H 0.1467 0.97581 0.83551 0.0
H1339 H 0.1163 0.02456 0.84671 0.0
H1340 H 0.13907 0.03536 0.70038 0.0
H1341 H 0.14409 0.02932 0.78462 0.0
H1342 H 0.12003 0.97734 0.76851 0.0
H1343 H 0.11448 0.98354 0.6846 0.0
C1344 C 0.13594 0.98183 0.90427 0.0
C1345 C 0.12502 0.99329 0.93106 0.0
C1346 C 0.13917 0.98535 0.85632 0.0
C1347 C 0.13195 1.00065 0.83489 0.0
C1348 C 0.12215 0.01277 0.86262 0.0
C1349 C 0.11854 0.00901 0.91018 0.0
C1350 C 0.13536 0.02242 0.71448 0.0
C1351 C 0.12633 0.00991 0.68608 0.0
C1352 C 0.13817 0.01904 0.76266 0.0
C1353 C 0.13241 0.00291 0.78283 0.0
C1354 C 0.12472 0.98982 0.75359 0.0
C1355 C 0.12152 0.99337 0.70569 0.0
H1356 H 0.77733 0.33669 0.63623 0.0
H1357 H 0.75541 0.38763 0.67845 0.0
H1358 H 0.77071 0.34326 0.55428 0.0
H1359 H 0.74901 0.39451 0.59498 0.0
H1360 H 0.71912 0.38291 0.44897 0.0
H1361 H 0.72914 0.38441 0.53118 0.0
H1362 H 0.77999 0.36196 0.48998 0.0
H1363 H 0.76964 0.35975 0.40831 0.0
C1364 C 0.77119 0.3494 0.62791 0.0
C1365 C 0.76688 0.36164 0.6638 0.0
C1366 C 0.76758 0.35328 0.5807 0.0
C1367 C 0.75965 0.36958 0.56787 0.0
C1368 C 0.75518 0.38186 0.60376 0.0
C1369 C 0.7588 0.37793 0.65144 0.0
C1370 C 0.73263 0.37881 0.45732 0.0
C1371 C 0.74352 0.37091 0.42258 0.0
C1372 C 0.73838 0.37969 0.50445 0.0
C1373 C 0.75518 0.37285 0.5173 0.0
C1374 C 0.76676 0.36683 0.48141 0.0
C1375 C 0.76092 0.3657 0.43457 0.0
H1376 H 0.14153 0.41984 0.0603 0.0
H1377 H 0.09497 0.41137 0.14773 0.0
H1378 H 0.15741 0.39661 0.10393 0.0
H1379 H 0.11103 0.38825 0.19204 0.0
H1380 H 0.17944 0.34798 0.17543 0.0
H1381 H 0.15761 0.36333 0.12563 0.0
H1382 H 0.13819 0.39204 0.24788 0.0
H1383 H 0.16017 0.37686 0.29772 0.0
C1384 C 0.13455 0.41269 0.08808 0.0
C1385 C 0.11703 0.41741 0.10063 0.0
C1386 C 0.14363 0.39936 0.11301 0.0
C1387 C 0.13548 0.39069 0.15155 0.0
C1388 C 0.11764 0.39478 0.16261 0.0
C1389 C 0.10843 0.4079 0.13703 0.0
C1390 C 0.17021 0.35722 0.19195 0.0
C1391 C 0.1716 0.36131 0.24048 0.0
C1392 C 0.15778 0.36606 0.16334 0.0
C1393 C 0.1463 0.37896 0.18281 0.0
C1394 C 0.14679 0.38207 0.23195 0.0
C1395 C 0.1594 0.37341 0.26048 0.0
H1396 H 0.908 0.92824 0.42873 0.0
H1397 H 0.87369 0.91403 0.54584 0.0
H1398 H 0.89396 0.90521 0.38002 0.0
H1399 H 0.85966 0.89106 0.49717 0.0
H1400 H 0.84116 0.88791 0.29988 0.0
H1401 H 0.86326 0.90431 0.34603 0.0
H1402 H 0.86302 0.8626 0.4517 0.0
H1403 H 0.84086 0.84614 0.4054 0.0
C1404 C 0.89778 0.9199 0.44448 0.0
C1405 C 0.89186 0.92304 0.49104 0.0
C1406 C 0.88967 0.90679 0.41645 0.0
C1407 C 0.87559 0.89642 0.43456 0.0
C1408 C 0.87056 0.89871 0.48223 0.0
C1409 C 0.87856 0.91193 0.51012 0.0
C1410 C 0.84618 0.882 0.33229 0.0
C1411 C 0.83919 0.8658 0.34912 0.0
C1412 C 0.8589 0.89137 0.35872 0.0
C1413 C 0.86477 0.88482 0.40278 0.0
C1414 C 0.85861 0.86806 0.41814 0.0
C1415 C 0.84602 0.85859 0.39142 0.0
H1416 H 0.40448 0.56684 0.69451 0.0
H1417 H 0.37587 0.58696 0.57279 0.0
H1418 H 0.39006 0.58926 0.7445 0.0
H1419 H 0.36165 0.60954 0.6228 0.0
H1420 H 0.3343 0.60738 0.81089 0.0
H1421 H 0.3567 0.59058 0.76656 0.0
H1422 H 0.36675 0.63669 0.67874 0.0
H1423 H 0.34449 0.65368 0.72388 0.0
C1424 C 0.39553 0.57638 0.67813 0.0
C1425 C 0.39123 0.57508 0.62973 0.0
C1426 C 0.38721 0.58915 0.70685 0.0
C1427 C 0.37466 0.60106 0.68761 0.0
C1428 C 0.37137 0.60061 0.63855 0.0
C1429 C 0.37948 0.58766 0.60994 0.0
C1430 C 0.34165 0.61408 0.783 0.0
C1431 C 0.33767 0.63182 0.77085 0.0
C1432 C 0.35451 0.60448 0.75768 0.0
C1433 C 0.36342 0.61232 0.71907 0.0
C1434 C 0.36004 0.63033 0.70826 0.0
C1435 C 0.34741 0.64006 0.73429 0.0
H1436 H 0.67674 0.15537 0.9359 0.0
H1437 H 0.6612 0.12287 0.81636 0.0
H1438 H 0.65427 0.14053 0.98492 0.0
H1439 H 0.63853 0.10828 0.86525 0.0
H1440 H 0.59358 0.09027 0.96165 0.0
H1441 H 0.60985 0.11311 0.91685 0.0
H1442 H 0.65486 0.1072 0.01107 0.0
H1443 H 0.63881 0.08417 0.05513 0.0
C1444 C 0.66816 0.14546 0.91968 0.0
C1445 C 0.67079 0.1402 0.87233 0.0
C1446 C 0.65537 0.13692 0.94784 0.0
C1447 C 0.64474 0.12321 0.92894 0.0
C1448 C 0.64645 0.1189 0.88065 0.0
C1449 C 0.65945 0.12722 0.8527 0.0
C1450 C 0.60675 0.09423 0.97357 0.0
C1451 C 0.61497 0.08543 0.0118 0.0
C1452 C 0.61608 0.1072 0.94774 0.0
C1453 C 0.63362 0.11187 0.9604 0.0
C1454 C 0.6413 0.10398 1.00075 0.0
C1455 C 0.63214 0.09078 0.02592 0.0
H1456 H 0.16945 0.60813 0.3069 0.0
H1457 H 0.15942 0.65601 0.38786 0.0
H1458 H 0.14642 0.59247 0.35209 0.0
H1459 H 0.13665 0.64015 0.43398 0.0
H1460 H 0.09675 0.57196 0.42538 0.0
H1461 H 0.112 0.59321 0.37347 0.0
H1462 H 0.14229 0.61282 0.49268 0.0
H1463 H 0.12735 0.5913 0.54454 0.0
C1464 C 0.162 0.61541 0.33356 0.0
C1465 C 0.16619 0.63327 0.34384 0.0
C1466 C 0.14881 0.60647 0.35937 0.0
C1467 C 0.13983 0.6151 0.39663 0.0
C1468 C 0.14341 0.63321 0.40547 0.0
C1469 C 0.15633 0.64229 0.37887 0.0
C1470 C 0.10632 0.58113 0.44079 0.0
C1471 C 0.11092 0.57994 0.48902 0.0
C1472 C 0.11509 0.59321 0.41099 0.0
C1473 C 0.12834 0.60458 0.42907 0.0
C1474 C 0.13202 0.60429 0.47793 0.0
C1475 C 0.12351 0.59196 0.50757 0.0
H1476 H 0.62943 0.91219 0.56325 0.0
H1477 H 0.60006 0.93101 0.68519 0.0
H1478 H 0.64514 0.89068 0.61353 0.0
H1479 H 0.61599 0.90974 0.73542 0.0
H1480 H 0.66353 0.84712 0.7159 0.0
H1481 H 0.64072 0.86326 0.67065 0.0
H1482 H 0.64994 0.91017 0.75608 0.0
H1483 H 0.67296 0.89422 0.80054 0.0
C1484 C 0.62603 0.91144 0.60052 0.0
C1485 C 0.61356 0.92332 0.62027 0.0
C1486 C 0.63498 0.89911 0.62927 0.0
C1487 C 0.63184 0.89864 0.6784 0.0
C1488 C 0.61872 0.90989 0.6977 0.0
C1489 C 0.60954 0.92199 0.66885 0.0
C1490 C 0.66034 0.86073 0.72578 0.0
C1491 C 0.67 0.86944 0.76173 0.0
C1492 C 0.6474 0.86998 0.69966 0.0
C1493 C 0.64362 0.88795 0.7098 0.0
C1494 C 0.65248 0.89627 0.74776 0.0
C1495 C 0.66567 0.88716 0.77316 0.0
H1496 H 0.32959 0.39376 0.80311 0.0
H1497 H 0.33971 0.348 0.89218 0.0
H1498 H 0.35315 0.41025 0.8438 0.0
H1499 H 0.36317 0.36467 0.93357 0.0
H1500 H 0.40204 0.43372 0.91071 0.0
H1501 H 0.3866 0.41126 0.86303 0.0
H1502 H 0.35959 0.39211 0.98825 0.0
H1503 H 0.37484 0.4147 0.03589 0.0
C1504 C 0.33718 0.38708 0.83058 0.0
C1505 C 0.33281 0.36962 0.84449 0.0
C1506 C 0.3507 0.39651 0.85383 0.0
C1507 C 0.35994 0.38877 0.89203 0.0
C1508 C 0.35621 0.37097 0.90436 0.0
C1509 C 0.34289 0.3614 0.88045 0.0
C1510 C 0.39318 0.4244 0.92831 0.0
C1511 C 0.38957 0.42603 0.97704 0.0
C1512 C 0.38428 0.41162 0.90092 0.0
C1513 C 0.37182 0.40001 0.92186 0.0
C1514 C 0.36922 0.40078 0.97118 0.0
C1515 C 0.37792 0.41375 0.99845 0.0
H1516 H 0.83933 0.15292 0.21954 0.0
H1517 H 0.83013 0.1068 0.30796 0.0
H1518 H 0.86301 0.13674 0.17759 0.0
H1519 H 0.8539 0.09079 0.26674 0.0
H1520 H 0.90326 0.06846 0.19944 0.0
H1521 H 0.88742 0.09056 0.24739 0.0
H1522 H 0.85985 0.10925 0.12255 0.0
H1523 H 0.8755 0.087 0.07463 0.0
C1524 C 0.84275 0.13955 0.23099 0.0
C1525 C 0.83288 0.13109 0.26695 0.0
C1526 C 0.85619 0.13026 0.20676 0.0
C1527 C 0.86025 0.1125 0.21879 0.0
C1528 C 0.85119 0.10452 0.25695 0.0
C1529 C 0.83755 0.11366 0.28049 0.0
C1530 C 0.8942 0.07761 0.18197 0.0
C1531 C 0.89055 0.07594 0.13327 0.0
C1532 C 0.88506 0.09019 0.20952 0.0
C1533 C 0.87233 0.10154 0.18877 0.0
C1534 C 0.86969 0.10077 0.13946 0.0
C1535 C 0.87861 0.088 0.11203 0.0
H1536 H 0.90315 0.57898 0.94147 0.0
H1537 H 0.86596 0.58534 0.05724 0.0
H1538 H 0.8879 0.60267 0.89784 0.0
H1539 H 0.85055 0.60871 0.01348 0.0
H1540 H 0.82676 0.65349 0.93241 0.0
H1541 H 0.8501 0.63817 0.97728 0.0
H1542 H 0.85905 0.60277 0.85867 0.0
H1543 H 0.83603 0.61823 0.81381 0.0
C1544 C 0.89198 0.58572 0.95809 0.0
C1545 C 0.88565 0.58017 0.00262 0.0
C1546 C 0.88316 0.59921 0.93294 0.0
C1547 C 0.86785 0.60745 0.95183 0.0
C1548 C 0.86237 0.60279 0.99792 0.0
C1549 C 0.87117 0.5893 0.023 0.0
C1550 C 0.83408 0.64276 0.91549 0.0
C1551 C 0.82946 0.63696 0.86971 0.0
C1552 C 0.84735 0.63389 0.94134 0.0
C1553 C 0.85632 0.6191 0.92185 0.0
C1554 C 0.85257 0.61419 0.87474 0.0
C1555 C 0.83928 0.62301 0.84901 0.0
H1556 H 0.09594 0.0783 0.68226 0.0
H1557 H 0.13326 0.08734 0.56807 0.0
H1558 H 0.11052 0.10164 0.72883 0.0
H1559 H 0.14792 0.11044 0.61461 0.0
H1560 H 0.16956 0.15519 0.69985 0.0
H1561 H 0.14681 0.1396 0.65361 0.0
H1562 H 0.13966 0.10201 0.76819 0.0
H1563 H 0.16217 0.1177 0.81448 0.0
C1564 C 0.10697 0.08557 0.66663 0.0
C1565 C 0.11354 0.08089 0.62164 0.0
C1566 C 0.1154 0.09885 0.69345 0.0
C1567 C 0.1305 0.1078 0.6757 0.0
C1568 C 0.13624 0.10396 0.6293 0.0
C1569 C 0.12787 0.09064 0.60262 0.0
C1570 C 0.16277 0.1439 0.71566 0.0
C1571 C 0.16778 0.13757 0.76066 0.0
C1572 C 0.14983 0.13489 0.68902 0.0
C1573 C 0.14156 0.11942 0.70692 0.0
C1574 C 0.14563 0.11394 0.75338 0.0
C1575 C 0.15861 0.1229 0.77992 0.0
H1576 H 0.67122 0.34413 0.42567 0.0
H1577 H 0.66105 0.38095 0.31102 0.0
H1578 H 0.64863 0.35915 0.47376 0.0
H1579 H 0.6387 0.39608 0.35915 0.0
H1580 H 0.6336 0.41076 0.56001 0.0
H1581 H 0.64888 0.38835 0.51241 0.0
H1582 H 0.61006 0.39546 0.40073 0.0
H1583 H 0.59489 0.41812 0.44829 0.0
C1584 C 0.66387 0.35516 0.41031 0.0
C1585 C 0.66802 0.36144 0.36466 0.0
C1586 C 0.65102 0.36385 0.43802 0.0
C1587 C 0.64199 0.37895 0.42058 0.0
C1588 C 0.64527 0.38441 0.37365 0.0
C1589 C 0.65815 0.37577 0.34604 0.0
C1590 C 0.62807 0.40724 0.52579 0.0
C1591 C 0.61313 0.41633 0.50778 0.0
C1592 C 0.63679 0.39431 0.49851 0.0
C1593 C 0.6308 0.39021 0.45248 0.0
C1594 C 0.61516 0.39848 0.43575 0.0
C1595 C 0.60639 0.41137 0.46316 0.0
H1596 H 0.40261 0.92247 0.17849 0.0
H1597 H 0.36569 0.91555 0.06238 0.0
H1598 H 0.38751 0.89873 0.22226 0.0
H1599 H 0.35042 0.89214 0.10628 0.0
H1600 H 0.32661 0.84754 0.18762 0.0
H1601 H 0.35003 0.8628 0.14289 0.0
H1602 H 0.35866 0.89844 0.26116 0.0
H1603 H 0.33559 0.88303 0.30588 0.0
C1604 C 0.39154 0.9156 0.16184 0.0
C1605 C 0.38523 0.92101 0.11717 0.0
C1606 C 0.3828 0.90208 0.18707 0.0
C1607 C 0.3676 0.89366 0.16812 0.0
C1608 C 0.36216 0.89819 0.1219 0.0
C1609 C 0.37088 0.9117 0.09674 0.0
C1610 C 0.33389 0.8583 0.20451 0.0
C1611 C 0.32915 0.86419 0.25012 0.0
C1612 C 0.34721 0.86714 0.17874 0.0
C1613 C 0.35609 0.882 0.19814 0.0
C1614 C 0.35224 0.88697 0.24515 0.0
C1615 C 0.33892 0.87818 0.2708 0.0
H1616 H 0.83889 0.34859 0.72152 0.0
H1617 H 0.82907 0.39469 0.80964 0.0
H1618 H 0.86224 0.36508 0.67919 0.0
H1619 H 0.85252 0.411 0.76803 0.0
H1620 H 0.87359 0.41496 0.57567 0.0
H1621 H 0.85848 0.39245 0.62393 0.0
H1622 H 0.88597 0.41174 0.74827 0.0
H1623 H 0.90124 0.43411 0.70003 0.0
C1624 C 0.84211 0.36203 0.73284 0.0
C1625 C 0.83216 0.37039 0.7688 0.0
C1626 C 0.85537 0.37149 0.70839 0.0
C1627 C 0.85914 0.38933 0.7202 0.0
C1628 C 0.85003 0.39722 0.7584 0.0
C1629 C 0.83657 0.3879 0.78217 0.0
C1630 C 0.8768 0.41405 0.61304 0.0
C1631 C 0.88852 0.42637 0.63408 0.0
C1632 C 0.86819 0.40113 0.64065 0.0
C1633 C 0.87096 0.40045 0.68992 0.0
C1634 C 0.88351 0.41205 0.71043 0.0
C1635 C 0.89231 0.42479 0.68272 0.0
H1636 H 0.40181 0.06595 0.41679 0.0
H1637 H 0.3747 0.08555 0.5415 0.0
H1638 H 0.3868 0.08858 0.36874 0.0
H1639 H 0.35987 0.1083 0.49347 0.0
H1640 H 0.32994 0.10642 0.30852 0.0
H1641 H 0.35338 0.08984 0.34939 0.0
H1642 H 0.36382 0.13557 0.43836 0.0
H1643 H 0.34046 0.15232 0.39679 0.0
C1644 C 0.39307 0.07543 0.43421 0.0
C1645 C 0.38933 0.07391 0.48289 0.0
C1646 C 0.38442 0.08831 0.40661 0.0
C1647 C 0.37209 0.10012 0.4273 0.0
C1648 C 0.36941 0.09947 0.47661 0.0
C1649 C 0.37785 0.08642 0.50409 0.0
C1650 C 0.33759 0.11311 0.33584 0.0
C1651 C 0.33337 0.13063 0.34953 0.0
C1652 C 0.35105 0.10364 0.35918 0.0
C1653 C 0.36036 0.1114 0.39723 0.0
C1654 C 0.3568 0.12926 0.40927 0.0
C1655 C 0.34353 0.13887 0.38527 0.0
H1656 H 0.6002 0.5908 0.14498 0.0
H1657 H 0.64642 0.57879 0.05927 0.0
H1658 H 0.61709 0.61424 0.18587 0.0
H1659 H 0.66315 0.6023 0.09945 0.0
H1660 H 0.66666 0.62622 0.28969 0.0
H1661 H 0.64408 0.61085 0.24231 0.0
H1662 H 0.66458 0.63594 0.11579 0.0
H1663 H 0.68704 0.65148 0.16315 0.0
C1664 C 0.61378 0.59352 0.13393 0.0
C1665 C 0.62203 0.58296 0.09903 0.0
C1666 C 0.62346 0.60684 0.15754 0.0
C1667 C 0.64143 0.61006 0.14593 0.0
C1668 C 0.64927 0.60026 0.10887 0.0
C1669 C 0.63972 0.58675 0.08594 0.0
C1670 C 0.66601 0.62886 0.25198 0.0
C1671 C 0.67868 0.63998 0.23014 0.0
C1672 C 0.65305 0.62009 0.22485 0.0
C1673 C 0.65267 0.62209 0.1753 0.0
C1674 C 0.66464 0.63407 0.15387 0.0
C1675 C 0.67743 0.64304 0.18107 0.0
H1676 H 0.17698 0.84792 0.93883 0.0
H1677 H 0.16875 0.88265 0.81863 0.0
H1678 H 0.15298 0.86313 0.98135 0.0
H1679 H 0.14506 0.89803 0.86123 0.0
H1680 H 0.09972 0.9216 0.94059 0.0
H1681 H 0.11579 0.89811 0.89823 0.0
H1682 H 0.15187 0.89262 0.01685 0.0
H1683 H 0.13566 0.91579 0.05927 0.0
C1684 C 0.16977 0.85852 0.92105 0.0
C1685 C 0.17487 0.86419 0.87553 0.0
C1686 C 0.1561 0.86733 0.94556 0.0
C1687 C 0.14723 0.88197 0.92501 0.0
C1688 C 0.15148 0.88674 0.8781 0.0
C1689 C 0.16515 0.87796 0.85367 0.0
C1690 C 0.11078 0.91502 0.95809 0.0
C1691 C 0.11652 0.92066 0.00311 0.0
C1692 C 0.12008 0.90165 0.93367 0.0
C1693 C 0.13526 0.8936 0.95384 0.0
C1694 C 0.14016 0.89838 1.0003 0.0
C1695 C 0.1309 0.91175 0.02462 0.0
loop_
_geom_bond_atom_site_label_1
_geom_bond_atom_site_label_2
_geom_bond_distance
_geom_bond_site_symmetry_2
_ccdc_geom_bond_type
In0 O1 2.294 . S
In0 O2 2.326 . S
In0 O6 2.266 . S
In0 O7 2.326 . S
In0 O8 2.266 . S
In0 O9 2.326 1_554 S
In0 O11 2.294 . S
In0 O12 2.326 . S
O1 In0 2.294 . S
O1 C10 1.240 . S
O2 In0 2.326 . S
O2 C10 1.252 . S
C3 O6 1.252 . S
C3 O7 1.260 . S
C4 O11 1.240 . S
C4 O12 1.252 . S
C5 O8 1.252 1_556 S
C5 O9 1.260 . S
O6 In0 2.266 . S
O6 C3 1.252 . S
O7 In0 2.326 . S
O7 C3 1.260 . S
O8 In0 2.266 . S
O8 C5 1.252 1_554 S
O9 In0 2.326 1_556 S
O9 C5 1.260 . S
C10 O1 1.240 . S
C10 O2 1.252 . S
O11 In0 2.294 . S
O11 C4 1.240 . S
O12 In0 2.326 . S
O12 C4 1.252 . S
In13 O14 2.294 . S
In13 O15 2.326 . S
In13 O19 2.266 . S
In13 O20 2.326 . S
In13 O21 2.266 . S
In13 O22 2.326 . S
In13 O24 2.294 . S
In13 O25 2.326 . S
O14 In13 2.294 . S
O14 C23 1.240 . S
O15 In13 2.326 . S
O15 C23 1.252 . S
C16 O19 1.252 . S
C16 O20 1.260 . S
C17 O24 1.240 . S
C17 O25 1.252 . S
C18 O21 1.252 . S
C18 O22 1.260 . S
O19 In13 2.266 . S
O19 C16 1.252 . S
O20 In13 2.326 . S
O20 C16 1.260 . S
O21 In13 2.266 . S
O21 C18 1.252 . S
O22 In13 2.326 . S
O22 C18 1.260 . S
C23 O14 1.240 . S
C23 O15 1.252 . S
O24 In13 2.294 . S
O24 C17 1.240 . S
O25 In13 2.326 . S
O25 C17 1.252 . S
In26 O27 2.294 . S
In26 O28 2.326 . S
In26 O32 2.266 . S
In26 O33 2.326 . S
In26 O34 2.266 . S
In26 O35 2.326 . S
In26 O37 2.294 . S
In26 O38 2.326 . S
O27 In26 2.294 . S
O27 C36 1.240 . S
O28 In26 2.326 . S
O28 C36 1.252 . S
C29 O32 1.252 . S
C29 O33 1.260 . S
C30 O37 1.240 . S
C30 O38 1.252 . S
C31 O34 1.252 . S
C31 O35 1.260 . S
O32 In26 2.266 . S
O32 C29 1.252 . S
O33 In26 2.326 . S
O33 C29 1.260 . S
O34 In26 2.266 . S
O34 C31 1.252 . S
O35 In26 2.326 . S
O35 C31 1.260 . S
C36 O27 1.240 . S
C36 O28 1.252 . S
O37 In26 2.294 . S
O37 C30 1.240 . S
O38 In26 2.326 . S
O38 C30 1.252 . S
In39 O40 2.294 . S
In39 O41 2.326 . S
In39 O45 2.266 . S
In39 O46 2.326 . S
In39 O47 2.266 . S
In39 O48 2.326 . S
In39 O50 2.294 . S
In39 O51 2.326 . S
O40 In39 2.294 . S
O40 C49 1.240 . S
O41 In39 2.326 . S
O41 C49 1.252 . S
C42 O45 1.252 . S
C42 O46 1.260 . S
C43 O50 1.240 . S
C43 O51 1.252 . S
C44 O47 1.252 . S
C44 O48 1.260 . S
O45 In39 2.266 . S
O45 C42 1.252 . S
O46 In39 2.326 . S
O46 C42 1.260 . S
O47 In39 2.266 . S
O47 C44 1.252 . S
O48 In39 2.326 . S
O48 C44 1.260 . S
C49 O40 1.240 . S
C49 O41 1.252 . S
O50 In39 2.294 . S
O50 C43 1.240 . S
O51 In39 2.326 . S
O51 C43 1.252 . S
In52 O53 2.294 . S
In52 O54 2.326 . S
In52 O58 2.266 . S
In52 O59 2.326 . S
In52 O60 2.266 . S
In52 O61 2.326 . S
In52 O63 2.294 . S
In52 O64 2.326 . S
O53 In52 2.294 . S
O53 C62 1.240 . S
O54 In52 2.326 . S
O54 C62 1.252 . S
C55 O58 1.252 . S
C55 O59 1.260 . S
C56 O63 1.240 . S
C56 O64 1.252 . S
C57 O60 1.252 . S
C57 O61 1.260 . S
O58 In52 2.266 . S
O58 C55 1.252 . S
O59 In52 2.326 . S
O59 C55 1.260 . S
O60 In52 2.266 . S
O60 C57 1.252 . S
O61 In52 2.326 . S
O61 C57 1.260 . S
C62 O53 1.240 . S
C62 O54 1.252 . S
O63 In52 2.294 . S
O63 C56 1.240 . S
O64 In52 2.326 . S
O64 C56 1.252 . S
In65 O66 2.294 . S
In65 O67 2.326 . S
In65 O71 2.266 . S
In65 O72 2.326 . S
In65 O73 2.266 . S
In65 O74 2.326 . S
In65 O76 2.294 . S
In65 O77 2.326 . S
O66 In65 2.294 . S
O66 C75 1.240 . S
O67 In65 2.326 . S
O67 C75 1.252 . S
C68 O71 1.252 . S
C68 O72 1.260 . S
C69 O76 1.240 . S
C69 O77 1.252 . S
C70 O73 1.252 . S
C70 O74 1.260 . S
O71 In65 2.266 . S
O71 C68 1.252 . S
O72 In65 2.326 . S
O72 C68 1.260 . S
O73 In65 2.266 . S
O73 C70 1.252 . S
O74 In65 2.326 . S
O74 C70 1.260 . S
C75 O66 1.240 . S
C75 O67 1.252 . S
O76 In65 2.294 . S
O76 C69 1.240 . S
O77 In65 2.326 . S
O77 C69 1.252 . S
In78 O79 2.294 . S
In78 O80 2.326 . S
In78 O84 2.266 . S
In78 O85 2.326 . S
In78 O86 2.266 . S
In78 O87 2.326 . S
In78 O89 2.294 1_554 S
In78 O90 2.326 1_554 S
O79 In78 2.294 . S
O79 C88 1.240 . S
O80 In78 2.326 . S
O80 C88 1.252 . S
C81 O84 1.252 . S
C81 O85 1.260 . S
C82 O89 1.240 . S
C82 O90 1.252 . S
C83 O86 1.252 . S
C83 O87 1.260 . S
O84 In78 2.266 . S
O84 C81 1.252 . S
O85 In78 2.326 . S
O85 C81 1.260 . S
O86 In78 2.266 . S
O86 C83 1.252 . S
O87 In78 2.326 . S
O87 C83 1.260 . S
C88 O79 1.240 . S
C88 O80 1.252 . S
O89 In78 2.294 1_556 S
O89 C82 1.240 . S
O90 In78 2.326 1_556 S
O90 C82 1.252 . S
In91 O92 2.294 . S
In91 O93 2.326 . S
In91 O97 2.266 . S
In91 O98 2.326 . S
In91 O99 2.266 . S
In91 O100 2.326 . S
In91 O102 2.294 . S
In91 O103 2.326 . S
O92 In91 2.294 . S
O92 C101 1.240 . S
O93 In91 2.326 . S
O93 C101 1.252 . S
C94 O97 1.252 . S
C94 O98 1.260 . S
C95 O102 1.240 . S
C95 O103 1.252 . S
C96 O99 1.252 . S
C96 O100 1.260 . S
O97 In91 2.266 . S
O97 C94 1.252 . S
O98 In91 2.326 . S
O98 C94 1.260 . S
O99 In91 2.266 . S
O99 C96 1.252 . S
O100 In91 2.326 . S
O100 C96 1.260 . S
C101 O92 1.240 . S
C101 O93 1.252 . S
O102 In91 2.294 . S
O102 C95 1.240 . S
O103 In91 2.326 . S
O103 C95 1.252 . S
In104 O105 2.294 1_554 S
In104 O106 2.326 1_554 S
In104 O110 2.266 . S
In104 O111 2.326 . S
In104 O112 2.266 . S
In104 O113 2.326 . S
In104 O115 2.294 . S
In104 O116 2.326 . S
O105 In104 2.294 1_556 S
O105 C114 1.240 . S
O106 In104 2.326 1_556 S
O106 C114 1.252 . S
C107 O110 1.252 . S
C107 O111 1.260 . S
C108 O115 1.240 . S
C108 O116 1.252 . S
C109 O112 1.252 . S
C109 O113 1.260 . S
O110 In104 2.266 . S
O110 C107 1.252 . S
O111 In104 2.326 . S
O111 C107 1.260 . S
O112 In104 2.266 . S
O112 C109 1.252 . S
O113 In104 2.326 . S
O113 C109 1.260 . S
C114 O105 1.240 . S
C114 O106 1.252 . S
O115 In104 2.294 . S
O115 C108 1.240 . S
O116 In104 2.326 . S
O116 C108 1.252 . S
In117 O118 2.294 . S
In117 O119 2.326 . S
In117 O123 2.266 . S
In117 O124 2.326 . S
In117 O125 2.266 . S
In117 O126 2.326 . S
In117 O128 2.294 . S
In117 O129 2.326 . S
O118 In117 2.294 . S
O118 C127 1.240 . S
O119 In117 2.326 . S
O119 C127 1.252 . S
C120 O123 1.252 . S
C120 O124 1.260 . S
C121 O128 1.240 . S
C121 O129 1.252 . S
C122 O125 1.252 . S
C122 O126 1.260 . S
O123 In117 2.266 . S
O123 C120 1.252 . S
O124 In117 2.326 . S
O124 C120 1.260 . S
O125 In117 2.266 . S
O125 C122 1.252 . S
O126 In117 2.326 . S
O126 C122 1.260 . S
C127 O118 1.240 . S
C127 O119 1.252 . S
O128 In117 2.294 . S
O128 C121 1.240 . S
O129 In117 2.326 . S
O129 C121 1.252 . S
In130 O131 2.294 . S
In130 O132 2.326 . S
In130 O136 2.266 . S
In130 O137 2.326 . S
In130 O138 2.266 . S
In130 O139 2.326 . S
In130 O141 2.294 . S
In130 O142 2.326 . S
O131 In130 2.294 . S
O131 C140 1.240 . S
O132 In130 2.326 . S
O132 C140 1.252 . S
C133 O136 1.252 . S
C133 O137 1.260 . S
C134 O141 1.240 . S
C134 O142 1.252 . S
C135 O138 1.252 . S
C135 O139 1.260 . S
O136 In130 2.266 . S
O136 C133 1.252 . S
O137 In130 2.326 . S
O137 C133 1.260 . S
O138 In130 2.266 . S
O138 C135 1.252 . S
O139 In130 2.326 . S
O139 C135 1.260 . S
C140 O131 1.240 . S
C140 O132 1.252 . S
O141 In130 2.294 . S
O141 C134 1.240 . S
O142 In130 2.326 . S
O142 C134 1.252 . S
In143 O144 2.294 . S
In143 O145 2.326 . S
In143 O149 2.266 . S
In143 O150 2.326 . S
In143 O151 2.266 . S
In143 O152 2.326 . S
In143 O154 2.294 . S
In143 O155 2.326 . S
O144 In143 2.294 . S
O144 C153 1.240 . S
O145 In143 2.326 . S
O145 C153 1.252 . S
C146 O149 1.252 . S
C146 O150 1.260 . S
C147 O154 1.240 . S
C147 O155 1.252 . S
C148 O151 1.252 . S
C148 O152 1.260 . S
O149 In143 2.266 . S
O149 C146 1.252 . S
O150 In143 2.326 . S
O150 C146 1.260 . S
O151 In143 2.266 . S
O151 C148 1.252 . S
O152 In143 2.326 . S
O152 C148 1.260 . S
C153 O144 1.240 . S
C153 O145 1.252 . S
O154 In143 2.294 . S
O154 C147 1.240 . S
O155 In143 2.326 . S
O155 C147 1.252 . S
In156 O157 2.294 . S
In156 O158 2.326 . S
In156 O162 2.266 . S
In156 O163 2.326 . S
In156 O164 2.266 . S
In156 O165 2.326 . S
In156 O167 2.294 . S
In156 O168 2.326 . S
O157 In156 2.294 . S
O157 C166 1.240 . S
O158 In156 2.326 . S
O158 C166 1.252 . S
C159 O162 1.252 . S
C159 O163 1.260 . S
C160 O167 1.240 . S
C160 O168 1.252 . S
C161 O164 1.252 . S
C161 O165 1.260 . S
O162 In156 2.266 . S
O162 C159 1.252 . S
O163 In156 2.326 . S
O163 C159 1.260 . S
O164 In156 2.266 . S
O164 C161 1.252 . S
O165 In156 2.326 . S
O165 C161 1.260 . S
C166 O157 1.240 . S
C166 O158 1.252 . S
O167 In156 2.294 . S
O167 C160 1.240 . S
O168 In156 2.326 . S
O168 C160 1.252 . S
In169 O170 2.294 . S
In169 O171 2.326 . S
In169 O175 2.266 . S
In169 O176 2.326 . S
In169 O177 2.266 . S
In169 O178 2.326 . S
In169 O180 2.294 . S
In169 O181 2.326 . S
O170 In169 2.294 . S
O170 C179 1.240 . S
O171 In169 2.326 . S
O171 C179 1.252 . S
C172 O175 1.252 . S
C172 O176 1.260 . S
C173 O180 1.240 . S
C173 O181 1.252 . S
C174 O177 1.252 . S
C174 O178 1.260 . S
O175 In169 2.266 . S
O175 C172 1.252 . S
O176 In169 2.326 . S
O176 C172 1.260 . S
O177 In169 2.266 . S
O177 C174 1.252 . S
O178 In169 2.326 . S
O178 C174 1.260 . S
C179 O170 1.240 . S
C179 O171 1.252 . S
O180 In169 2.294 . S
O180 C173 1.240 . S
O181 In169 2.326 . S
O181 C173 1.252 . S
In182 O183 2.294 . S
In182 O184 2.326 . S
In182 O188 2.266 . S
In182 O189 2.326 . S
In182 O190 2.266 . S
In182 O191 2.326 1_554 S
In182 O193 2.294 . S
In182 O194 2.326 . S
O183 In182 2.294 . S
O183 C192 1.240 . S
O184 In182 2.326 . S
O184 C192 1.252 . S
C185 O188 1.252 . S
C185 O189 1.260 . S
C186 O193 1.240 . S
C186 O194 1.252 . S
C187 O190 1.252 1_556 S
C187 O191 1.260 . S
O188 In182 2.266 . S
O188 C185 1.252 . S
O189 In182 2.326 . S
O189 C185 1.260 . S
O190 In182 2.266 . S
O190 C187 1.252 1_554 S
O191 In182 2.326 1_556 S
O191 C187 1.260 . S
C192 O183 1.240 . S
C192 O184 1.252 . S
O193 In182 2.294 . S
O193 C186 1.240 . S
O194 In182 2.326 . S
O194 C186 1.252 . S
In195 O196 2.294 . S
In195 O197 2.326 . S
In195 O201 2.266 . S
In195 O202 2.326 . S
In195 O203 2.266 . S
In195 O204 2.326 . S
In195 O206 2.294 . S
In195 O207 2.326 . S
O196 In195 2.294 . S
O196 C205 1.240 . S
O197 In195 2.326 . S
O197 C205 1.252 . S
C198 O201 1.252 . S
C198 O202 1.260 . S
C199 O206 1.240 . S
C199 O207 1.252 . S
C200 O203 1.252 . S
C200 O204 1.260 . S
O201 In195 2.266 . S
O201 C198 1.252 . S
O202 In195 2.326 . S
O202 C198 1.260 . S
O203 In195 2.266 . S
O203 C200 1.252 . S
O204 In195 2.326 . S
O204 C200 1.260 . S
C205 O196 1.240 . S
C205 O197 1.252 . S
O206 In195 2.294 . S
O206 C199 1.240 . S
O207 In195 2.326 . S
O207 C199 1.252 . S
In208 O209 2.294 . S
In208 O210 2.326 . S
In208 O214 2.266 . S
In208 O215 2.303 1_565 S
In208 O216 2.266 1_565 S
In208 O217 2.326 . S
In208 O219 2.294 1_565 S
In208 O220 2.326 . S
O209 In208 2.294 . S
O209 C218 1.240 . S
O210 In208 2.326 . S
O210 C218 1.252 . S
C211 O214 1.252 . S
C211 O215 1.225 1_565 S
C212 O219 1.240 1_565 S
C212 O220 1.252 . S
C213 O216 1.252 1_565 S
C213 O217 1.260 . S
O214 In208 2.266 . S
O214 C211 1.252 . S
O215 In208 2.303 1_545 S
O215 C211 1.225 1_545 S
O216 In208 2.266 1_545 S
O216 C213 1.252 1_545 S
O217 In208 2.326 . S
O217 C213 1.260 . S
C218 O209 1.240 . S
C218 O210 1.252 . S
O219 In208 2.294 1_545 S
O219 C212 1.240 1_545 S
O220 In208 2.326 . S
O220 C212 1.252 . S
In221 O222 2.294 . S
In221 O223 2.326 . S
In221 O227 2.266 . S
In221 O228 2.326 . S
In221 O229 2.266 . S
In221 O230 2.326 . S
In221 O232 2.294 . S
In221 O233 2.326 . S
O222 In221 2.294 . S
O222 C231 1.240 . S
O223 In221 2.326 . S
O223 C231 1.252 . S
C224 O227 1.252 . S
C224 O228 1.260 . S
C225 O232 1.240 . S
C225 O233 1.252 . S
C226 O229 1.252 . S
C226 O230 1.260 . S
O227 In221 2.266 . S
O227 C224 1.252 . S
O228 In221 2.326 . S
O228 C224 1.260 . S
O229 In221 2.266 . S
O229 C226 1.252 . S
O230 In221 2.326 . S
O230 C226 1.260 . S
C231 O222 1.240 . S
C231 O223 1.252 . S
O232 In221 2.294 . S
O232 C225 1.240 . S
O233 In221 2.326 . S
O233 C225 1.252 . S
In234 O235 2.294 . S
In234 O236 2.326 . S
In234 O240 2.266 . S
In234 O241 2.304 1_545 S
In234 O242 2.266 1_545 S
In234 O243 2.326 1_554 S
In234 O245 2.294 1_545 S
In234 O246 2.326 . S
O235 In234 2.294 . S
O235 C244 1.240 . S
O236 In234 2.326 . S
O236 C244 1.252 . S
C237 O240 1.252 . S
C237 O241 1.226 1_545 S
C238 O245 1.240 1_545 S
C238 O246 1.252 . S
C239 O242 1.252 1_546 S
C239 O243 1.260 . S
O240 In234 2.266 . S
O240 C237 1.252 . S
O241 In234 2.304 1_565 S
O241 C237 1.226 1_565 S
O242 In234 2.266 1_565 S
O242 C239 1.252 1_564 S
O243 In234 2.326 1_556 S
O243 C239 1.260 . S
C244 O235 1.240 . S
C244 O236 1.252 . S
O245 In234 2.294 1_565 S
O245 C238 1.240 1_565 S
O246 In234 2.326 . S
O246 C238 1.252 . S
In247 O248 2.294 . S
In247 O249 2.326 . S
In247 O253 2.266 . S
In247 O254 2.326 . S
In247 O255 2.266 . S
In247 O256 2.326 . S
In247 O258 2.294 . S
In247 O259 2.326 . S
O248 In247 2.294 . S
O248 C257 1.240 . S
O249 In247 2.326 . S
O249 C257 1.252 . S
C250 O253 1.252 . S
C250 O254 1.260 . S
C251 O258 1.240 . S
C251 O259 1.252 . S
C252 O255 1.252 . S
C252 O256 1.260 . S
O253 In247 2.266 . S
O253 C250 1.252 . S
O254 In247 2.326 . S
O254 C250 1.260 . S
O255 In247 2.266 . S
O255 C252 1.252 . S
O256 In247 2.326 . S
O256 C252 1.260 . S
C257 O248 1.240 . S
C257 O249 1.252 . S
O258 In247 2.294 . S
O258 C251 1.240 . S
O259 In247 2.326 . S
O259 C251 1.252 . S
In260 O261 2.294 1_544 S
In260 O262 2.326 1_554 S
In260 O266 2.266 1_545 S
In260 O267 2.326 . S
In260 O268 2.266 . S
In260 O269 2.304 1_545 S
In260 O271 2.294 . S
In260 O272 2.326 . S
O261 In260 2.294 1_566 S
O261 C270 1.240 1_565 S
O262 In260 2.326 1_556 S
O262 C270 1.252 . S
C263 O266 1.252 1_545 S
C263 O267 1.260 . S
C264 O271 1.240 . S
C264 O272 1.252 . S
C265 O268 1.252 . S
C265 O269 1.227 1_545 S
O266 In260 2.266 1_565 S
O266 C263 1.252 1_565 S
O267 In260 2.326 . S
O267 C263 1.260 . S
O268 In260 2.266 . S
O268 C265 1.252 . S
O269 In260 2.304 1_565 S
O269 C265 1.227 1_565 S
C270 O261 1.240 1_545 S
C270 O262 1.252 . S
O271 In260 2.294 . S
O271 C264 1.240 . S
O272 In260 2.326 . S
O272 C264 1.252 . S
In273 O274 2.294 . S
In273 O275 2.326 . S
In273 O279 2.266 . S
In273 O280 2.326 . S
In273 O281 2.266 . S
In273 O282 2.326 . S
In273 O284 2.294 . S
In273 O285 2.326 . S
O274 In273 2.294 . S
O274 C283 1.240 . S
O275 In273 2.326 . S
O275 C283 1.252 . S
C276 O279 1.252 . S
C276 O280 1.260 . S
C277 O284 1.240 . S
C277 O285 1.252 . S
C278 O281 1.252 . S
C278 O282 1.260 . S
O279 In273 2.266 . S
O279 C276 1.252 . S
O280 In273 2.326 . S
O280 C276 1.260 . S
O281 In273 2.266 . S
O281 C278 1.252 . S
O282 In273 2.326 . S
O282 C278 1.260 . S
C283 O274 1.240 . S
C283 O275 1.252 . S
O284 In273 2.294 . S
O284 C277 1.240 . S
O285 In273 2.326 . S
O285 C277 1.252 . S
In286 O287 2.294 . S
In286 O288 2.326 . S
In286 O292 2.266 . S
In286 O293 2.305 1_565 S
In286 O294 2.266 1_565 S
In286 O295 2.326 . S
In286 O297 2.294 1_565 S
In286 O298 2.326 . S
O287 In286 2.294 . S
O287 C296 1.240 . S
O288 In286 2.326 . S
O288 C296 1.252 . S
C289 O292 1.252 . S
C289 O293 1.227 1_565 S
C290 O297 1.240 1_565 S
C290 O298 1.252 . S
C291 O294 1.252 1_565 S
C291 O295 1.260 . S
O292 In286 2.266 . S
O292 C289 1.252 . S
O293 In286 2.305 1_545 S
O293 C289 1.227 1_545 S
O294 In286 2.266 1_545 S
O294 C291 1.252 1_545 S
O295 In286 2.326 . S
O295 C291 1.260 . S
C296 O287 1.240 . S
C296 O288 1.252 . S
O297 In286 2.294 1_545 S
O297 C290 1.240 1_545 S
O298 In286 2.326 . S
O298 C290 1.252 . S
In299 O300 2.294 . S
In299 O301 2.326 . S
In299 O305 2.266 . S
In299 O306 2.326 . S
In299 O307 2.266 . S
In299 O308 2.326 . S
In299 O310 2.294 . S
In299 O311 2.326 . S
O300 In299 2.294 . S
O300 C309 1.240 . S
O301 In299 2.326 . S
O301 C309 1.252 . S
C302 O305 1.252 . S
C302 O306 1.260 . S
C303 O310 1.240 . S
C303 O311 1.252 . S
C304 O307 1.252 . S
C304 O308 1.260 . S
O305 In299 2.266 . S
O305 C302 1.252 . S
O306 In299 2.326 . S
O306 C302 1.260 . S
O307 In299 2.266 . S
O307 C304 1.252 . S
O308 In299 2.326 . S
O308 C304 1.260 . S
C309 O300 1.240 . S
C309 O301 1.252 . S
O310 In299 2.294 . S
O310 C303 1.240 . S
O311 In299 2.326 . S
O311 C303 1.252 . S
In312 O313 2.294 . S
In312 O314 2.326 . S
In312 O318 2.266 . S
In312 O319 2.305 1_545 S
In312 O320 2.266 1_545 S
In312 O321 2.326 . S
In312 O323 2.294 1_545 S
In312 O324 2.326 . S
O313 In312 2.294 . S
O313 C322 1.240 . S
O314 In312 2.326 . S
O314 C322 1.252 . S
C315 O318 1.252 . S
C315 O319 1.227 1_545 S
C316 O323 1.240 1_545 S
C316 O324 1.252 . S
C317 O320 1.252 1_545 S
C317 O321 1.260 . S
O318 In312 2.266 . S
O318 C315 1.252 . S
O319 In312 2.305 1_565 S
O319 C315 1.227 1_565 S
O320 In312 2.266 1_565 S
O320 C317 1.252 1_565 S
O321 In312 2.326 . S
O321 C317 1.260 . S
C322 O313 1.240 . S
C322 O314 1.252 . S
O323 In312 2.294 1_565 S
O323 C316 1.240 1_565 S
O324 In312 2.326 . S
O324 C316 1.252 . S
In325 O326 2.294 . S
In325 O327 2.326 . S
In325 O331 2.266 . S
In325 O332 2.326 . S
In325 O333 2.266 . S
In325 O334 2.326 . S
In325 O336 2.294 . S
In325 O337 2.326 . S
O326 In325 2.294 . S
O326 C335 1.240 . S
O327 In325 2.326 . S
O327 C335 1.252 . S
C328 O331 1.252 . S
C328 O332 1.260 . S
C329 O336 1.240 . S
C329 O337 1.252 . S
C330 O333 1.252 . S
C330 O334 1.260 . S
O331 In325 2.266 . S
O331 C328 1.252 . S
O332 In325 2.326 . S
O332 C328 1.260 . S
O333 In325 2.266 . S
O333 C330 1.252 . S
O334 In325 2.326 . S
O334 C330 1.260 . S
C335 O326 1.240 . S
C335 O327 1.252 . S
O336 In325 2.294 . S
O336 C329 1.240 . S
O337 In325 2.326 . S
O337 C329 1.252 . S
In338 O339 2.294 1_564 S
In338 O340 2.326 1_554 S
In338 O344 2.266 1_565 S
In338 O345 2.326 . S
In338 O346 2.266 . S
In338 O347 2.304 1_565 S
In338 O349 2.294 . S
In338 O350 2.326 . S
O339 In338 2.294 1_546 S
O339 C348 1.240 1_545 S
O340 In338 2.326 1_556 S
O340 C348 1.252 . S
C341 O344 1.252 1_565 S
C341 O345 1.260 . S
C342 O349 1.240 . S
C342 O350 1.252 . S
C343 O346 1.252 . S
C343 O347 1.227 1_565 S
O344 In338 2.266 1_545 S
O344 C341 1.252 1_545 S
O345 In338 2.326 . S
O345 C341 1.260 . S
O346 In338 2.266 . S
O346 C343 1.252 . S
O347 In338 2.304 1_545 S
O347 C343 1.227 1_545 S
C348 O339 1.240 1_565 S
C348 O340 1.252 . S
O349 In338 2.294 . S
O349 C342 1.240 . S
O350 In338 2.326 . S
O350 C342 1.252 . S
In351 O352 2.294 . S
In351 O353 2.326 . S
In351 O357 2.266 . S
In351 O358 2.326 . S
In351 O359 2.266 . S
In351 O360 2.326 . S
In351 O362 2.294 . S
In351 O363 2.326 . S
O352 In351 2.294 . S
O352 C361 1.240 . S
O353 In351 2.326 . S
O353 C361 1.252 . S
C354 O357 1.252 . S
C354 O358 1.260 . S
C355 O362 1.240 . S
C355 O363 1.252 . S
C356 O359 1.252 . S
C356 O360 1.260 . S
O357 In351 2.266 . S
O357 C354 1.252 . S
O358 In351 2.326 . S
O358 C354 1.260 . S
O359 In351 2.266 . S
O359 C356 1.252 . S
O360 In351 2.326 . S
O360 C356 1.260 . S
C361 O352 1.240 . S
C361 O353 1.252 . S
O362 In351 2.294 . S
O362 C355 1.240 . S
O363 In351 2.326 . S
O363 C355 1.252 . S
In364 O365 2.294 . S
In364 O366 2.326 . S
In364 O370 2.266 . S
In364 O371 2.304 1_565 S
In364 O372 2.266 1_565 S
In364 O373 2.326 1_554 S
In364 O375 2.294 1_565 S
In364 O376 2.326 . S
O365 In364 2.294 . S
O365 C374 1.240 . S
O366 In364 2.326 . S
O366 C374 1.252 . S
C367 O370 1.252 . S
C367 O371 1.226 1_565 S
C368 O375 1.240 1_565 S
C368 O376 1.252 . S
C369 O372 1.252 1_566 S
C369 O373 1.260 . S
O370 In364 2.266 . S
O370 C367 1.252 . S
O371 In364 2.304 1_545 S
O371 C367 1.226 1_545 S
O372 In364 2.266 1_545 S
O372 C369 1.252 1_544 S
O373 In364 2.326 1_556 S
O373 C369 1.260 . S
C374 O365 1.240 . S
C374 O366 1.252 . S
O375 In364 2.294 1_545 S
O375 C368 1.240 1_545 S
O376 In364 2.326 . S
O376 C368 1.252 . S
In377 O378 2.294 . S
In377 O379 2.326 . S
In377 O383 2.266 . S
In377 O384 2.326 . S
In377 O385 2.266 . S
In377 O386 2.326 . S
In377 O388 2.294 . S
In377 O389 2.326 . S
O378 In377 2.294 . S
O378 C387 1.240 . S
O379 In377 2.326 . S
O379 C387 1.252 . S
C380 O383 1.252 . S
C380 O384 1.260 . S
C381 O388 1.240 . S
C381 O389 1.252 . S
C382 O385 1.252 . S
C382 O386 1.260 . S
O383 In377 2.266 . S
O383 C380 1.252 . S
O384 In377 2.326 . S
O384 C380 1.260 . S
O385 In377 2.266 . S
O385 C382 1.252 . S
O386 In377 2.326 . S
O386 C382 1.260 . S
C387 O378 1.240 . S
C387 O379 1.252 . S
O388 In377 2.294 . S
O388 C381 1.240 . S
O389 In377 2.326 . S
O389 C381 1.252 . S
In390 O391 2.294 . S
In390 O392 2.326 . S
In390 O396 2.266 . S
In390 O397 2.303 1_545 S
In390 O398 2.266 1_545 S
In390 O399 2.326 . S
In390 O401 2.294 1_545 S
In390 O402 2.326 . S
O391 In390 2.294 . S
O391 C400 1.240 . S
O392 In390 2.326 . S
O392 C400 1.252 . S
C393 O396 1.252 . S
C393 O397 1.225 1_545 S
C394 O401 1.240 1_545 S
C394 O402 1.252 . S
C395 O398 1.252 1_545 S
C395 O399 1.260 . S
O396 In390 2.266 . S
O396 C393 1.252 . S
O397 In390 2.303 1_565 S
O397 C393 1.225 1_565 S
O398 In390 2.266 1_565 S
O398 C395 1.252 1_565 S
O399 In390 2.326 . S
O399 C395 1.260 . S
C400 O391 1.240 . S
C400 O392 1.252 . S
O401 In390 2.294 1_565 S
O401 C394 1.240 1_565 S
O402 In390 2.326 . S
O402 C394 1.252 . S
In403 O404 2.294 . S
In403 O405 2.326 . S
In403 O409 2.266 . S
In403 O410 2.326 . S
In403 O411 2.266 . S
In403 O412 2.326 . S
In403 O414 2.294 . S
In403 O415 2.326 . S
O404 In403 2.294 . S
O404 C413 1.240 . S
O405 In403 2.326 . S
O405 C413 1.252 . S
C406 O409 1.252 . S
C406 O410 1.260 . S
C407 O414 1.240 . S
C407 O415 1.252 . S
C408 O411 1.252 . S
C408 O412 1.260 . S
O409 In403 2.266 . S
O409 C406 1.252 . S
O410 In403 2.326 . S
O410 C406 1.260 . S
O411 In403 2.266 . S
O411 C408 1.252 . S
O412 In403 2.326 . S
O412 C408 1.260 . S
C413 O404 1.240 . S
C413 O405 1.252 . S
O414 In403 2.294 . S
O414 C407 1.240 . S
O415 In403 2.326 . S
O415 C407 1.252 . S
H416 C424 0.950 . S
H417 C429 0.950 1_556 S
H418 C426 0.950 . S
H419 C428 0.950 1_556 S
H420 C430 0.950 1_556 S
H421 C432 0.950 1_556 S
H422 C434 0.950 . S
H423 C435 0.950 . S
C424 H416 0.950 . S
C424 C425 1.386 . S
C424 C426 1.391 . S
C425 C424 1.386 . S
C425 C429 1.393 . S
C426 H418 0.950 . S
C426 C424 1.391 . S
C426 C427 1.400 . S
C427 C426 1.400 . S
C427 C428 1.398 . S
C427 C433 1.491 1_655 S
C428 H419 0.950 1_554 S
C428 C427 1.398 . S
C428 C429 1.391 . S
C429 H417 0.950 1_554 S
C429 C425 1.393 . S
C429 C428 1.391 . S
C430 H420 0.950 1_554 S
C430 C431 1.386 . S
C430 C432 1.391 . S
C431 C430 1.386 . S
C431 C435 1.393 . S
C432 H421 0.950 1_554 S
C432 C430 1.391 . S
C432 C433 1.400 . S
C433 C427 1.491 1_455 S
C433 C432 1.400 . S
C433 C434 1.398 . S
C434 H422 0.950 . S
C434 C433 1.398 . S
C434 C435 1.391 . S
C435 H423 0.950 . S
C435 C431 1.393 . S
C435 C434 1.391 . S
H436 C444 0.950 . S
H437 C449 0.950 . S
H438 C446 0.950 . S
H439 C448 0.950 . S
H440 C450 0.950 . S
H441 C452 0.950 . S
H442 C454 0.950 . S
H443 C455 0.950 . S
C444 H436 0.950 . S
C444 C445 1.386 . S
C444 C446 1.391 . S
C445 C444 1.386 . S
C445 C449 1.393 . S
C446 H438 0.950 . S
C446 C444 1.391 . S
C446 C447 1.400 . S
C447 C446 1.400 . S
C447 C448 1.398 . S
C447 C453 1.491 . S
C448 H439 0.950 . S
C448 C447 1.398 . S
C448 C449 1.391 . S
C449 H437 0.950 . S
C449 C445 1.393 . S
C449 C448 1.391 . S
C450 H440 0.950 . S
C450 C451 1.386 . S
C450 C452 1.391 . S
C451 C450 1.386 . S
C451 C455 1.393 . S
C452 H441 0.950 . S
C452 C450 1.391 . S
C452 C453 1.400 . S
C453 C447 1.491 . S
C453 C452 1.400 . S
C453 C454 1.398 . S
C454 H442 0.950 . S
C454 C453 1.398 . S
C454 C455 1.391 . S
C455 H443 0.950 . S
C455 C451 1.393 . S
C455 C454 1.391 . S
H456 C464 0.950 . S
H457 C469 0.950 . S
H458 C466 0.950 . S
H459 C468 0.950 . S
H460 C470 0.950 . S
H461 C472 0.950 . S
H462 C474 0.950 . S
H463 C475 0.950 . S
C464 H456 0.950 . S
C464 C465 1.386 . S
C464 C466 1.391 . S
C465 C464 1.386 . S
C465 C469 1.393 . S
C466 H458 0.950 . S
C466 C464 1.391 . S
C466 C467 1.400 . S
C467 C466 1.400 . S
C467 C468 1.398 . S
C467 C473 1.491 . S
C468 H459 0.950 . S
C468 C467 1.398 . S
C468 C469 1.391 . S
C469 H457 0.950 . S
C469 C465 1.393 . S
C469 C468 1.391 . S
C470 H460 0.950 . S
C470 C471 1.386 . S
C470 C472 1.391 . S
C471 C470 1.386 . S
C471 C475 1.393 . S
C472 H461 0.950 . S
C472 C470 1.391 . S
C472 C473 1.400 . S
C473 C467 1.491 . S
C473 C472 1.400 . S
C473 C474 1.398 . S
C474 H462 0.950 . S
C474 C473 1.398 . S
C474 C475 1.391 . S
C475 H463 0.950 . S
C475 C471 1.393 . S
C475 C474 1.391 . S
H476 C484 0.950 . S
H477 C489 0.950 . S
H478 C486 0.950 . S
H479 C488 0.950 . S
H480 C490 0.950 . S
H481 C492 0.950 . S
H482 C494 0.950 . S
H483 C495 0.950 . S
C484 H476 0.950 . S
C484 C485 1.386 . S
C484 C486 1.391 . S
C485 C484 1.386 . S
C485 C489 1.393 . S
C486 H478 0.950 . S
C486 C484 1.391 . S
C486 C487 1.400 . S
C487 C486 1.400 . S
C487 C488 1.398 . S
C487 C493 1.491 . S
C488 H479 0.950 . S
C488 C487 1.398 . S
C488 C489 1.391 . S
C489 H477 0.950 . S
C489 C485 1.393 . S
C489 C488 1.391 . S
C490 H480 0.950 . S
C490 C491 1.386 . S
C490 C492 1.391 . S
C491 C490 1.386 . S
C491 C495 1.393 . S
C492 H481 0.950 . S
C492 C490 1.391 . S
C492 C493 1.400 . S
C493 C487 1.491 . S
C493 C492 1.400 . S
C493 C494 1.398 . S
C494 H482 0.950 . S
C494 C493 1.398 . S
C494 C495 1.391 . S
C495 H483 0.950 . S
C495 C491 1.393 . S
C495 C494 1.391 . S
H496 C504 0.950 . S
H497 C509 0.950 . S
H498 C506 0.950 . S
H499 C508 0.950 . S
H500 C510 0.950 . S
H501 C512 0.950 . S
H502 C514 0.950 . S
H503 C515 0.950 . S
C504 H496 0.950 . S
C504 C505 1.386 . S
C504 C506 1.391 . S
C505 C504 1.386 . S
C505 C509 1.393 . S
C506 H498 0.950 . S
C506 C504 1.391 . S
C506 C507 1.400 . S
C507 C506 1.400 . S
C507 C508 1.398 . S
C507 C513 1.491 1_455 S
C508 H499 0.950 . S
C508 C507 1.398 . S
C508 C509 1.391 . S
C509 H497 0.950 . S
C509 C505 1.393 . S
C509 C508 1.391 . S
C510 H500 0.950 . S
C510 C511 1.386 . S
C510 C512 1.391 . S
C511 C510 1.386 . S
C511 C515 1.393 . S
C512 H501 0.950 . S
C512 C510 1.391 . S
C512 C513 1.400 . S
C513 C507 1.491 1_655 S
C513 C512 1.400 . S
C513 C514 1.398 . S
C514 H502 0.950 . S
C514 C513 1.398 . S
C514 C515 1.391 . S
C515 H503 0.950 . S
C515 C511 1.393 . S
C515 C514 1.391 . S
H516 C524 0.950 . S
H517 C529 0.950 . S
H518 C526 0.950 . S
H519 C528 0.950 . S
H520 C530 0.950 . S
H521 C532 0.950 . S
H522 C534 0.950 . S
H523 C535 0.950 . S
C524 H516 0.950 . S
C524 C525 1.386 . S
C524 C526 1.391 . S
C525 C524 1.386 . S
C525 C529 1.393 . S
C526 H518 0.950 . S
C526 C524 1.391 . S
C526 C527 1.400 . S
C527 C526 1.400 . S
C527 C528 1.398 . S
C527 C533 1.491 . S
C528 H519 0.950 . S
C528 C527 1.398 . S
C528 C529 1.391 . S
C529 H517 0.950 . S
C529 C525 1.393 . S
C529 C528 1.391 . S
C530 H520 0.950 . S
C530 C531 1.386 . S
C530 C532 1.391 . S
C531 C530 1.386 . S
C531 C535 1.393 . S
C532 H521 0.950 . S
C532 C530 1.391 . S
C532 C533 1.400 . S
C533 C527 1.491 . S
C533 C532 1.400 . S
C533 C534 1.398 . S
C534 H522 0.950 . S
C534 C533 1.398 . S
C534 C535 1.391 . S
C535 H523 0.950 . S
C535 C531 1.393 . S
C535 C534 1.391 . S
H536 C544 0.950 . S
H537 C549 0.950 . S
H538 C546 0.950 . S
H539 C548 0.950 . S
H540 C550 0.950 . S
H541 C552 0.950 . S
H542 C554 0.950 . S
H543 C555 0.950 . S
C544 H536 0.950 . S
C544 C545 1.386 . S
C544 C546 1.391 . S
C545 C544 1.386 . S
C545 C549 1.393 . S
C546 H538 0.950 . S
C546 C544 1.391 . S
C546 C547 1.400 . S
C547 C546 1.400 . S
C547 C548 1.398 . S
C547 C553 1.491 . S
C548 H539 0.950 . S
C548 C547 1.398 . S
C548 C549 1.391 . S
C549 H537 0.950 . S
C549 C545 1.393 . S
C549 C548 1.391 . S
C550 H540 0.950 . S
C550 C551 1.386 . S
C550 C552 1.391 . S
C551 C550 1.386 . S
C551 C555 1.393 . S
C552 H541 0.950 . S
C552 C550 1.391 . S
C552 C553 1.400 . S
C553 C547 1.491 . S
C553 C552 1.400 . S
C553 C554 1.398 . S
C554 H542 0.950 . S
C554 C553 1.398 . S
C554 C555 1.391 . S
C555 H543 0.950 . S
C555 C551 1.393 . S
C555 C554 1.391 . S
H556 C564 0.950 . S
H557 C569 0.950 . S
H558 C566 0.950 . S
H559 C568 0.950 . S
H560 C570 0.950 . S
H561 C572 0.950 . S
H562 C574 0.950 . S
H563 C575 0.950 . S
C564 H556 0.950 . S
C564 C565 1.386 . S
C564 C566 1.391 . S
C565 C564 1.386 . S
C565 C569 1.393 . S
C566 H558 0.950 . S
C566 C564 1.391 . S
C566 C567 1.400 . S
C567 C566 1.400 . S
C567 C568 1.398 . S
C567 C573 1.491 . S
C568 H559 0.950 . S
C568 C567 1.398 . S
C568 C569 1.391 . S
C569 H557 0.950 . S
C569 C565 1.393 . S
C569 C568 1.391 . S
C570 H560 0.950 . S
C570 C571 1.386 . S
C570 C572 1.391 . S
C571 C570 1.386 . S
C571 C575 1.393 . S
C572 H561 0.950 . S
C572 C570 1.391 . S
C572 C573 1.400 . S
C573 C567 1.491 . S
C573 C572 1.400 . S
C573 C574 1.398 . S
C574 H562 0.950 . S
C574 C573 1.398 . S
C574 C575 1.391 . S
C575 H563 0.950 . S
C575 C571 1.393 . S
C575 C574 1.391 . S
H576 C584 0.950 . S
H577 C589 0.950 . S
H578 C586 0.950 . S
H579 C588 0.950 . S
H580 C590 0.950 . S
H581 C592 0.950 . S
H582 C594 0.950 . S
H583 C595 0.950 . S
C584 H576 0.950 . S
C584 C585 1.386 . S
C584 C586 1.391 . S
C585 C584 1.386 . S
C585 C589 1.393 . S
C586 H578 0.950 . S
C586 C584 1.391 . S
C586 C587 1.400 . S
C587 C586 1.400 . S
C587 C588 1.398 . S
C587 C593 1.491 . S
C588 H579 0.950 . S
C588 C587 1.398 . S
C588 C589 1.391 . S
C589 H577 0.950 . S
C589 C585 1.393 . S
C589 C588 1.391 . S
C590 H580 0.950 . S
C590 C591 1.386 . S
C590 C592 1.391 . S
C591 C590 1.386 . S
C591 C595 1.393 . S
C592 H581 0.950 . S
C592 C590 1.391 . S
C592 C593 1.400 . S
C593 C587 1.491 . S
C593 C592 1.400 . S
C593 C594 1.398 . S
C594 H582 0.950 . S
C594 C593 1.398 . S
C594 C595 1.391 . S
C595 H583 0.950 . S
C595 C591 1.393 . S
C595 C594 1.391 . S
H596 C604 0.950 . S
H597 C609 0.950 . S
H598 C606 0.950 . S
H599 C608 0.950 . S
H600 C610 0.950 . S
H601 C612 0.950 . S
H602 C614 0.950 . S
H603 C615 0.950 . S
C604 H596 0.950 . S
C604 C605 1.386 . S
C604 C606 1.391 . S
C605 C604 1.386 . S
C605 C609 1.393 . S
C606 H598 0.950 . S
C606 C604 1.391 . S
C606 C607 1.400 . S
C607 C606 1.400 . S
C607 C608 1.398 . S
C607 C613 1.491 . S
C608 H599 0.950 . S
C608 C607 1.398 . S
C608 C609 1.391 . S
C609 H597 0.950 . S
C609 C605 1.393 . S
C609 C608 1.391 . S
C610 H600 0.950 . S
C610 C611 1.386 . S
C610 C612 1.391 . S
C611 C610 1.386 . S
C611 C615 1.393 . S
C612 H601 0.950 . S
C612 C610 1.391 . S
C612 C613 1.400 . S
C613 C607 1.491 . S
C613 C612 1.400 . S
C613 C614 1.398 . S
C614 H602 0.950 . S
C614 C613 1.398 . S
C614 C615 1.391 . S
C615 H603 0.950 . S
C615 C611 1.393 . S
C615 C614 1.391 . S
H616 C624 0.950 . S
H617 C629 0.950 . S
H618 C626 0.950 . S
H619 C628 0.950 . S
H620 C630 0.950 . S
H621 C632 0.950 . S
H622 C634 0.950 . S
H623 C635 0.950 . S
C624 H616 0.950 . S
C624 C625 1.386 . S
C624 C626 1.391 . S
C625 C624 1.386 . S
C625 C629 1.393 . S
C626 H618 0.950 . S
C626 C624 1.391 . S
C626 C627 1.400 . S
C627 C626 1.400 . S
C627 C628 1.398 . S
C627 C633 1.491 . S
C628 H619 0.950 . S
C628 C627 1.398 . S
C628 C629 1.391 . S
C629 H617 0.950 . S
C629 C625 1.393 . S
C629 C628 1.391 . S
C630 H620 0.950 . S
C630 C631 1.386 . S
C630 C632 1.391 . S
C631 C630 1.386 . S
C631 C635 1.393 . S
C632 H621 0.950 . S
C632 C630 1.391 . S
C632 C633 1.400 . S
C633 C627 1.491 . S
C633 C632 1.400 . S
C633 C634 1.398 . S
C634 H622 0.950 . S
C634 C633 1.398 . S
C634 C635 1.391 . S
C635 H623 0.950 . S
C635 C631 1.393 . S
C635 C634 1.391 . S
H636 C644 0.950 . S
H637 C649 0.950 . S
H638 C646 0.950 . S
H639 C648 0.950 . S
H640 C650 0.950 . S
H641 C652 0.950 . S
H642 C654 0.950 . S
H643 C655 0.950 . S
C644 H636 0.950 . S
C644 C645 1.386 . S
C644 C646 1.391 . S
C645 C644 1.386 . S
C645 C649 1.393 . S
C646 H638 0.950 . S
C646 C644 1.391 . S
C646 C647 1.400 . S
C647 C646 1.400 . S
C647 C648 1.398 . S
C647 C653 1.491 . S
C648 H639 0.950 . S
C648 C647 1.398 . S
C648 C649 1.391 . S
C649 H637 0.950 . S
C649 C645 1.393 . S
C649 C648 1.391 . S
C650 H640 0.950 . S
C650 C651 1.386 . S
C650 C652 1.391 . S
C651 C650 1.386 . S
C651 C655 1.393 . S
C652 H641 0.950 . S
C652 C650 1.391 . S
C652 C653 1.400 . S
C653 C647 1.491 . S
C653 C652 1.400 . S
C653 C654 1.398 . S
C654 H642 0.950 . S
C654 C653 1.398 . S
C654 C655 1.391 . S
C655 H643 0.950 . S
C655 C651 1.393 . S
C655 C654 1.391 . S
H656 C664 0.950 . S
H657 C669 0.950 . S
H658 C666 0.950 . S
H659 C668 0.950 . S
H660 C670 0.950 . S
H661 C672 0.950 . S
H662 C674 0.950 . S
H663 C675 0.950 . S
C664 H656 0.950 . S
C664 C665 1.386 1_565 S
C664 C666 1.391 . S
C665 C664 1.386 1_545 S
C665 C669 1.393 . S
C666 H658 0.950 . S
C666 C664 1.391 . S
C666 C667 1.400 1_565 S
C667 C666 1.400 1_545 S
C667 C668 1.398 . S
C667 C673 1.491 1_545 S
C668 H659 0.950 . S
C668 C667 1.398 . S
C668 C669 1.391 . S
C669 H657 0.950 . S
C669 C665 1.393 . S
C669 C668 1.391 . S
C670 H660 0.950 . S
C670 C671 1.386 1_545 S
C670 C672 1.391 . S
C671 C670 1.386 1_565 S
C671 C675 1.393 . S
C672 H661 0.950 . S
C672 C670 1.391 . S
C672 C673 1.400 1_545 S
C673 C667 1.491 1_565 S
C673 C672 1.400 1_565 S
C673 C674 1.398 . S
C674 H662 0.950 . S
C674 C673 1.398 . S
C674 C675 1.391 . S
C675 H663 0.950 . S
C675 C671 1.393 . S
C675 C674 1.391 . S
H676 C684 0.950 . S
H677 C689 0.939 1_566 S
H678 C686 0.950 . S
H679 C688 0.950 1_556 S
H680 C690 0.950 1_556 S
H681 C692 0.950 1_556 S
H682 C694 0.950 . S
H683 C695 0.939 1_545 S
C684 H676 0.950 . S
C684 C685 1.386 . S
C684 C686 1.391 . S
C685 C684 1.386 . S
C685 C689 1.393 . S
C686 H678 0.950 . S
C686 C684 1.391 . S
C686 C687 1.400 . S
C687 C686 1.400 . S
C687 C688 1.398 1_545 S
C687 C693 1.491 1_645 S
C688 H679 0.950 1_554 S
C688 C687 1.398 1_565 S
C688 C689 1.391 1_565 S
C689 H677 0.939 1_544 S
C689 C685 1.393 . S
C689 C688 1.391 1_545 S
C690 H680 0.950 1_554 S
C690 C691 1.386 . S
C690 C692 1.391 . S
C691 C690 1.386 . S
C691 C695 1.393 . S
C692 H681 0.950 1_554 S
C692 C690 1.391 . S
C692 C693 1.400 . S
C693 C687 1.491 1_465 S
C693 C692 1.400 . S
C693 C694 1.398 1_565 S
C694 H682 0.950 . S
C694 C693 1.398 1_545 S
C694 C695 1.391 1_545 S
C695 H683 0.939 1_565 S
C695 C691 1.393 . S
C695 C694 1.391 1_565 S
H696 C704 0.950 . S
H697 C709 0.950 . S
H698 C706 0.950 . S
H699 C708 0.950 . S
H700 C710 0.950 . S
H701 C712 0.950 . S
H702 C714 0.950 . S
H703 C715 0.950 . S
C704 H696 0.950 . S
C704 C705 1.386 . S
C704 C706 1.391 . S
C705 C704 1.386 . S
C705 C709 1.393 1_545 S
C706 H698 0.950 . S
C706 C704 1.391 . S
C706 C707 1.400 . S
C707 C706 1.400 . S
C707 C708 1.398 1_545 S
C707 C713 1.491 1_545 S
C708 H699 0.950 . S
C708 C707 1.398 1_565 S
C708 C709 1.391 . S
C709 H697 0.950 . S
C709 C705 1.393 1_565 S
C709 C708 1.391 . S
C710 H700 0.950 . S
C710 C711 1.386 . S
C710 C712 1.391 . S
C711 C710 1.386 . S
C711 C715 1.393 1_565 S
C712 H701 0.950 . S
C712 C710 1.391 . S
C712 C713 1.400 . S
C713 C707 1.491 1_565 S
C713 C712 1.400 . S
C713 C714 1.398 1_565 S
C714 H702 0.950 . S
C714 C713 1.398 1_545 S
C714 C715 1.391 . S
C715 H703 0.950 . S
C715 C711 1.393 1_545 S
C715 C714 1.391 . S
H716 C724 0.950 . S
H717 C729 0.950 . S
H718 C726 0.950 1_565 S
H719 C728 0.950 . S
H720 C730 0.950 . S
H721 C732 0.950 1_545 S
H722 C734 0.950 . S
H723 C735 0.950 . S
C724 H716 0.950 . S
C724 C725 1.386 . S
C724 C726 1.391 . S
C725 C724 1.386 . S
C725 C729 1.393 . S
C726 H718 0.950 1_545 S
C726 C724 1.391 . S
C726 C727 1.400 . S
C727 C726 1.400 . S
C727 C728 1.398 . S
C727 C733 1.491 1_445 S
C728 H719 0.950 . S
C728 C727 1.398 . S
C728 C729 1.391 . S
C729 H717 0.950 . S
C729 C725 1.393 . S
C729 C728 1.391 . S
C730 H720 0.950 . S
C730 C731 1.386 . S
C730 C732 1.391 . S
C731 C730 1.386 . S
C731 C735 1.393 . S
C732 H721 0.950 1_565 S
C732 C730 1.391 . S
C732 C733 1.400 . S
C733 C727 1.491 1_665 S
C733 C732 1.400 . S
C733 C734 1.398 . S
C734 H722 0.950 . S
C734 C733 1.398 . S
C734 C735 1.391 . S
C735 H723 0.950 . S
C735 C731 1.393 . S
C735 C734 1.391 . S
H736 C744 0.950 . S
H737 C749 0.950 . S
H738 C746 0.950 . S
H739 C748 0.950 . S
H740 C750 0.950 . S
H741 C752 0.950 . S
H742 C754 0.950 . S
H743 C755 0.950 . S
C744 H736 0.950 . S
C744 C745 1.386 . S
C744 C746 1.391 . S
C745 C744 1.386 . S
C745 C749 1.393 . S
C746 H738 0.950 . S
C746 C744 1.391 . S
C746 C747 1.400 . S
C747 C746 1.400 . S
C747 C748 1.398 . S
C747 C753 1.491 . S
C748 H739 0.950 . S
C748 C747 1.398 . S
C748 C749 1.391 . S
C749 H737 0.950 . S
C749 C745 1.393 . S
C749 C748 1.391 . S
C750 H740 0.950 . S
C750 C751 1.386 . S
C750 C752 1.391 . S
C751 C750 1.386 . S
C751 C755 1.393 . S
C752 H741 0.950 . S
C752 C750 1.391 . S
C752 C753 1.400 . S
C753 C747 1.491 . S
C753 C752 1.400 . S
C753 C754 1.398 . S
C754 H742 0.950 . S
C754 C753 1.398 . S
C754 C755 1.391 . S
C755 H743 0.950 . S
C755 C751 1.393 . S
C755 C754 1.391 . S
H756 C764 0.950 . S
H757 C769 0.950 . S
H758 C766 0.950 . S
H759 C768 0.950 . S
H760 C770 0.950 . S
H761 C772 0.950 . S
H762 C774 0.950 . S
H763 C775 0.950 . S
C764 H756 0.950 . S
C764 C765 1.386 . S
C764 C766 1.391 1_556 S
C765 C764 1.386 . S
C765 C769 1.393 . S
C766 H758 0.950 . S
C766 C764 1.391 1_554 S
C766 C767 1.400 . S
C767 C766 1.400 . S
C767 C768 1.398 . S
C767 C773 1.491 . S
C768 H759 0.950 . S
C768 C767 1.398 . S
C768 C769 1.391 1_554 S
C769 H757 0.950 . S
C769 C765 1.393 . S
C769 C768 1.391 1_556 S
C770 H760 0.950 . S
C770 C771 1.386 . S
C770 C772 1.391 . S
C771 C770 1.386 . S
C771 C775 1.393 . S
C772 H761 0.950 . S
C772 C770 1.391 . S
C772 C773 1.400 . S
C773 C767 1.491 . S
C773 C772 1.400 . S
C773 C774 1.398 . S
C774 H762 0.950 . S
C774 C773 1.398 . S
C774 C775 1.391 . S
C775 H763 0.950 . S
C775 C771 1.393 . S
C775 C774 1.391 . S
H776 C784 0.950 . S
H777 C789 0.950 . S
H778 C786 0.950 . S
H779 C788 0.950 . S
H780 C790 0.950 . S
H781 C792 0.950 . S
H782 C794 0.950 . S
H783 C795 0.950 . S
C784 H776 0.950 . S
C784 C785 1.386 . S
C784 C786 1.391 . S
C785 C784 1.386 . S
C785 C789 1.393 . S
C786 H778 0.950 . S
C786 C784 1.391 . S
C786 C787 1.400 . S
C787 C786 1.400 . S
C787 C788 1.398 . S
C787 C793 1.491 . S
C788 H779 0.950 . S
C788 C787 1.398 . S
C788 C789 1.391 . S
C789 H777 0.950 . S
C789 C785 1.393 . S
C789 C788 1.391 . S
C790 H780 0.950 . S
C790 C791 1.386 . S
C790 C792 1.391 . S
C791 C790 1.386 . S
C791 C795 1.393 . S
C792 H781 0.950 . S
C792 C790 1.391 . S
C792 C793 1.400 . S
C793 C787 1.491 . S
C793 C792 1.400 . S
C793 C794 1.398 . S
C794 H782 0.950 . S
C794 C793 1.398 . S
C794 C795 1.391 . S
C795 H783 0.950 . S
C795 C791 1.393 . S
C795 C794 1.391 . S
H796 C804 0.950 . S
H797 C809 0.950 . S
H798 C806 0.950 . S
H799 C808 0.950 . S
H800 C810 0.950 . S
H801 C812 0.950 . S
H802 C814 0.950 . S
H803 C815 0.950 . S
C804 H796 0.950 . S
C804 C805 1.386 . S
C804 C806 1.391 . S
C805 C804 1.386 . S
C805 C809 1.393 . S
C806 H798 0.950 . S
C806 C804 1.391 . S
C806 C807 1.400 . S
C807 C806 1.400 . S
C807 C808 1.398 . S
C807 C813 1.491 . S
C808 H799 0.950 . S
C808 C807 1.398 . S
C808 C809 1.391 . S
C809 H797 0.950 . S
C809 C805 1.393 . S
C809 C808 1.391 . S
C810 H800 0.950 . S
C810 C811 1.386 . S
C810 C812 1.391 . S
C811 C810 1.386 . S
C811 C815 1.393 . S
C812 H801 0.950 . S
C812 C810 1.391 . S
C812 C813 1.400 . S
C813 C807 1.491 . S
C813 C812 1.400 . S
C813 C814 1.398 . S
C814 H802 0.950 . S
C814 C813 1.398 . S
C814 C815 1.391 . S
C815 H803 0.950 . S
C815 C811 1.393 . S
C815 C814 1.391 . S
H816 C824 0.950 . S
H817 C829 0.950 . S
H818 C826 0.950 . S
H819 C828 0.950 . S
H820 C830 0.950 . S
H821 C832 0.950 . S
H822 C834 0.950 . S
H823 C835 0.950 . S
C824 H816 0.950 . S
C824 C825 1.386 . S
C824 C826 1.391 . S
C825 C824 1.386 . S
C825 C829 1.393 . S
C826 H818 0.950 . S
C826 C824 1.391 . S
C826 C827 1.400 . S
C827 C826 1.400 . S
C827 C828 1.398 . S
C827 C833 1.491 . S
C828 H819 0.950 . S
C828 C827 1.398 . S
C828 C829 1.391 . S
C829 H817 0.950 . S
C829 C825 1.393 . S
C829 C828 1.391 . S
C830 H820 0.950 . S
C830 C831 1.386 . S
C830 C832 1.391 . S
C831 C830 1.386 . S
C831 C835 1.393 . S
C832 H821 0.950 . S
C832 C830 1.391 . S
C832 C833 1.400 . S
C833 C827 1.491 . S
C833 C832 1.400 . S
C833 C834 1.398 . S
C834 H822 0.950 . S
C834 C833 1.398 . S
C834 C835 1.391 . S
C835 H823 0.950 . S
C835 C831 1.393 . S
C835 C834 1.391 . S
H836 C844 0.950 . S
H837 C849 0.950 . S
H838 C846 0.950 . S
H839 C848 0.950 . S
H840 C850 0.950 . S
H841 C852 0.950 . S
H842 C854 0.950 . S
H843 C855 0.950 . S
C844 H836 0.950 . S
C844 C845 1.386 . S
C844 C846 1.391 1_556 S
C845 C844 1.386 . S
C845 C849 1.393 . S
C846 H838 0.950 . S
C846 C844 1.391 1_554 S
C846 C847 1.400 . S
C847 C846 1.400 . S
C847 C848 1.398 . S
C847 C853 1.491 . S
C848 H839 0.950 . S
C848 C847 1.398 . S
C848 C849 1.391 1_554 S
C849 H837 0.950 . S
C849 C845 1.393 . S
C849 C848 1.391 1_556 S
C850 H840 0.950 . S
C850 C851 1.386 . S
C850 C852 1.391 . S
C851 C850 1.386 . S
C851 C855 1.393 . S
C852 H841 0.950 . S
C852 C850 1.391 . S
C852 C853 1.400 . S
C853 C847 1.491 . S
C853 C852 1.400 . S
C853 C854 1.398 . S
C854 H842 0.950 . S
C854 C853 1.398 . S
C854 C855 1.391 . S
C855 H843 0.950 . S
C855 C851 1.393 . S
C855 C854 1.391 . S
H856 C864 0.950 . S
H857 C869 0.950 . S
H858 C866 0.950 . S
H859 C868 0.950 . S
H860 C870 0.950 . S
H861 C872 0.950 . S
H862 C874 0.950 . S
H863 C875 0.950 . S
C864 H856 0.950 . S
C864 C865 1.386 . S
C864 C866 1.391 . S
C865 C864 1.386 . S
C865 C869 1.393 . S
C866 H858 0.950 . S
C866 C864 1.391 . S
C866 C867 1.400 . S
C867 C866 1.400 . S
C867 C868 1.398 . S
C867 C873 1.491 . S
C868 H859 0.950 . S
C868 C867 1.398 . S
C868 C869 1.391 . S
C869 H857 0.950 . S
C869 C865 1.393 . S
C869 C868 1.391 . S
C870 H860 0.950 . S
C870 C871 1.386 . S
C870 C872 1.391 . S
C871 C870 1.386 . S
C871 C875 1.393 . S
C872 H861 0.950 . S
C872 C870 1.391 . S
C872 C873 1.400 . S
C873 C867 1.491 . S
C873 C872 1.400 . S
C873 C874 1.398 . S
C874 H862 0.950 . S
C874 C873 1.398 . S
C874 C875 1.391 . S
C875 H863 0.950 . S
C875 C871 1.393 . S
C875 C874 1.391 . S
H876 C884 0.950 . S
H877 C889 0.950 . S
H878 C886 0.950 . S
H879 C888 0.950 . S
H880 C890 0.950 . S
H881 C892 0.950 . S
H882 C894 0.950 . S
H883 C895 0.950 . S
C884 H876 0.950 . S
C884 C885 1.386 . S
C884 C886 1.391 . S
C885 C884 1.386 . S
C885 C889 1.393 . S
C886 H878 0.950 . S
C886 C884 1.391 . S
C886 C887 1.400 . S
C887 C886 1.400 . S
C887 C888 1.398 . S
C887 C893 1.491 . S
C888 H879 0.950 . S
C888 C887 1.398 . S
C888 C889 1.391 . S
C889 H877 0.950 . S
C889 C885 1.393 . S
C889 C888 1.391 . S
C890 H880 0.950 . S
C890 C891 1.386 . S
C890 C892 1.391 . S
C891 C890 1.386 . S
C891 C895 1.393 . S
C892 H881 0.950 . S
C892 C890 1.391 . S
C892 C893 1.400 . S
C893 C887 1.491 . S
C893 C892 1.400 . S
C893 C894 1.398 . S
C894 H882 0.950 . S
C894 C893 1.398 . S
C894 C895 1.391 . S
C895 H883 0.950 . S
C895 C891 1.393 . S
C895 C894 1.391 . S
H896 C904 0.950 . S
H897 C909 0.950 . S
H898 C906 0.950 . S
H899 C908 0.950 . S
H900 C910 0.950 . S
H901 C912 0.950 . S
H902 C914 0.950 . S
H903 C915 0.950 . S
C904 H896 0.950 . S
C904 C905 1.386 . S
C904 C906 1.391 . S
C905 C904 1.386 . S
C905 C909 1.393 1_545 S
C906 H898 0.950 . S
C906 C904 1.391 . S
C906 C907 1.438 . S
C907 C906 1.438 . S
C907 C908 1.366 1_545 S
C907 C913 1.486 1_545 S
C908 H899 0.950 . S
C908 C907 1.366 1_565 S
C908 C909 1.391 . S
C909 H897 0.950 . S
C909 C905 1.393 1_565 S
C909 C908 1.391 . S
C910 H900 0.950 . S
C910 C911 1.386 . S
C910 C912 1.391 . S
C911 C910 1.386 . S
C911 C915 1.393 1_565 S
C912 H901 0.950 . S
C912 C910 1.391 . S
C912 C913 1.437 . S
C913 C907 1.486 1_565 S
C913 C912 1.437 . S
C913 C914 1.367 1_565 S
C914 H902 0.950 . S
C914 C913 1.367 1_545 S
C914 C915 1.391 . S
C915 H903 0.950 . S
C915 C911 1.393 1_545 S
C915 C914 1.391 . S
H916 C924 0.950 . S
H917 C929 0.950 . S
H918 C926 0.950 . S
H919 C928 0.950 . S
H920 C930 0.950 . S
H921 C932 0.950 . S
H922 C934 0.950 . S
H923 C935 0.950 . S
C924 H916 0.950 . S
C924 C925 1.386 . S
C924 C926 1.391 . S
C925 C924 1.386 . S
C925 C929 1.393 . S
C926 H918 0.950 . S
C926 C924 1.391 . S
C926 C927 1.400 . S
C927 C926 1.400 . S
C927 C928 1.398 . S
C927 C933 1.491 . S
C928 H919 0.950 . S
C928 C927 1.398 . S
C928 C929 1.391 . S
C929 H917 0.950 . S
C929 C925 1.393 . S
C929 C928 1.391 . S
C930 H920 0.950 . S
C930 C931 1.386 . S
C930 C932 1.391 . S
C931 C930 1.386 . S
C931 C935 1.393 . S
C932 H921 0.950 . S
C932 C930 1.391 . S
C932 C933 1.400 . S
C933 C927 1.491 . S
C933 C932 1.400 . S
C933 C934 1.398 . S
C934 H922 0.950 . S
C934 C933 1.398 . S
C934 C935 1.391 . S
C935 H923 0.950 . S
C935 C931 1.393 . S
C935 C934 1.391 . S
H936 C944 0.950 . S
H937 C949 0.950 . S
H938 C946 0.950 . S
H939 C948 0.950 . S
H940 C950 0.950 . S
H941 C952 0.950 . S
H942 C954 0.950 . S
H943 C955 0.950 . S
C944 H936 0.950 . S
C944 C945 1.386 . S
C944 C946 1.391 . S
C945 C944 1.386 . S
C945 C949 1.393 . S
C946 H938 0.950 . S
C946 C944 1.391 . S
C946 C947 1.406 . S
C947 C946 1.406 . S
C947 C948 1.402 . S
C947 C953 1.484 1_545 S
C948 H939 0.950 . S
C948 C947 1.402 . S
C948 C949 1.391 . S
C949 H937 0.950 . S
C949 C945 1.393 . S
C949 C948 1.391 . S
C950 H940 0.950 . S
C950 C951 1.386 . S
C950 C952 1.391 . S
C951 C950 1.386 . S
C951 C955 1.393 . S
C952 H941 0.950 . S
C952 C950 1.391 . S
C952 C953 1.406 . S
C953 C947 1.484 1_565 S
C953 C952 1.406 . S
C953 C954 1.402 . S
C954 H942 0.950 . S
C954 C953 1.402 . S
C954 C955 1.391 . S
C955 H943 0.950 . S
C955 C951 1.393 . S
C955 C954 1.391 . S
H956 C964 0.950 . S
H957 C969 0.950 . S
H958 C966 0.950 . S
H959 C968 0.950 . S
H960 C970 0.950 . S
H961 C972 0.950 . S
H962 C974 0.950 . S
H963 C975 0.950 . S
C964 H956 0.950 . S
C964 C965 1.386 . S
C964 C966 1.391 1_556 S
C965 C964 1.386 . S
C965 C969 1.393 . S
C966 H958 0.950 . S
C966 C964 1.391 1_554 S
C966 C967 1.400 . S
C967 C966 1.400 . S
C967 C968 1.398 . S
C967 C973 1.491 . S
C968 H959 0.950 . S
C968 C967 1.398 . S
C968 C969 1.391 1_554 S
C969 H957 0.950 . S
C969 C965 1.393 . S
C969 C968 1.391 1_556 S
C970 H960 0.950 . S
C970 C971 1.386 . S
C970 C972 1.391 . S
C971 C970 1.386 . S
C971 C975 1.393 . S
C972 H961 0.950 . S
C972 C970 1.391 . S
C972 C973 1.400 . S
C973 C967 1.491 . S
C973 C972 1.400 . S
C973 C974 1.398 . S
C974 H962 0.950 . S
C974 C973 1.398 . S
C974 C975 1.391 . S
C975 H963 0.950 . S
C975 C971 1.393 . S
C975 C974 1.391 . S
H976 C984 0.950 . S
H977 C989 0.950 . S
H978 C986 0.950 . S
H979 C988 0.950 . S
H980 C990 0.950 . S
H981 C992 0.950 . S
H982 C994 0.950 . S
H983 C995 0.950 . S
C984 H976 0.950 . S
C984 C985 1.386 1_545 S
C984 C986 1.391 . S
C985 C984 1.386 1_565 S
C985 C989 1.393 . S
C986 H978 0.950 . S
C986 C984 1.391 . S
C986 C987 1.363 1_545 S
C987 C986 1.363 1_565 S
C987 C988 1.440 . S
C987 C993 1.486 1_565 S
C988 H979 0.950 . S
C988 C987 1.440 . S
C988 C989 1.391 . S
C989 H977 0.950 . S
C989 C985 1.393 . S
C989 C988 1.391 . S
C990 H980 0.950 . S
C990 C991 1.386 1_565 S
C990 C992 1.391 . S
C991 C990 1.386 1_545 S
C991 C995 1.393 . S
C992 H981 0.950 . S
C992 C990 1.391 . S
C992 C993 1.362 1_565 S
C993 C987 1.486 1_545 S
C993 C992 1.362 1_545 S
C993 C994 1.441 . S
C994 H982 0.950 . S
C994 C993 1.441 . S
C994 C995 1.391 . S
C995 H983 0.950 . S
C995 C991 1.393 . S
C995 C994 1.391 . S
H996 C1004 0.950 . S
H997 C1009 0.950 . S
H998 C1006 0.950 . S
H999 C1008 0.950 . S
H1000 C1010 0.950 . S
H1001 C1012 0.950 . S
H1002 C1014 0.950 . S
H1003 C1015 0.950 . S
C1004 H996 0.950 . S
C1004 C1005 1.386 . S
C1004 C1006 1.391 . S
C1005 C1004 1.386 . S
C1005 C1009 1.393 . S
C1006 H998 0.950 . S
C1006 C1004 1.391 . S
C1006 C1007 1.400 . S
C1007 C1006 1.400 . S
C1007 C1008 1.398 . S
C1007 C1013 1.491 . S
C1008 H999 0.950 . S
C1008 C1007 1.398 . S
C1008 C1009 1.391 . S
C1009 H997 0.950 . S
C1009 C1005 1.393 . S
C1009 C1008 1.391 . S
C1010 H1000 0.950 . S
C1010 C1011 1.386 . S
C1010 C1012 1.391 . S
C1011 C1010 1.386 . S
C1011 C1015 1.393 . S
C1012 H1001 0.950 . S
C1012 C1010 1.391 . S
C1012 C1013 1.400 . S
C1013 C1007 1.491 . S
C1013 C1012 1.400 . S
C1013 C1014 1.398 . S
C1014 H1002 0.950 . S
C1014 C1013 1.398 . S
C1014 C1015 1.391 . S
C1015 H1003 0.950 . S
C1015 C1011 1.393 . S
C1015 C1014 1.391 . S
H1016 C1024 0.950 . S
H1017 C1029 0.950 . S
H1018 C1026 0.950 . S
H1019 C1028 0.950 . S
H1020 C1030 0.950 . S
H1021 C1032 0.950 . S
H1022 C1034 0.950 . S
H1023 C1035 0.950 . S
C1024 H1016 0.950 . S
C1024 C1025 1.386 . S
C1024 C1026 1.391 . S
C1025 C1024 1.386 . S
C1025 C1029 1.393 1_545 S
C1026 H1018 0.950 . S
C1026 C1024 1.391 . S
C1026 C1027 1.438 . S
C1027 C1026 1.438 . S
C1027 C1028 1.366 1_545 S
C1027 C1033 1.486 1_545 S
C1028 H1019 0.950 . S
C1028 C1027 1.366 1_565 S
C1028 C1029 1.391 . S
C1029 H1017 0.950 . S
C1029 C1025 1.393 1_565 S
C1029 C1028 1.391 . S
C1030 H1020 0.950 . S
C1030 C1031 1.386 . S
C1030 C1032 1.391 . S
C1031 C1030 1.386 . S
C1031 C1035 1.393 1_565 S
C1032 H1021 0.950 . S
C1032 C1030 1.391 . S
C1032 C1033 1.439 . S
C1033 C1027 1.486 1_565 S
C1033 C1032 1.439 . S
C1033 C1034 1.365 1_565 S
C1034 H1022 0.950 . S
C1034 C1033 1.365 1_545 S
C1034 C1035 1.391 . S
C1035 H1023 0.950 . S
C1035 C1031 1.393 1_545 S
C1035 C1034 1.391 . S
H1036 C1044 0.950 . S
H1037 C1049 0.950 . S
H1038 C1046 0.950 . S
H1039 C1048 0.950 . S
H1040 C1050 0.950 . S
H1041 C1052 0.950 . S
H1042 C1054 0.950 . S
H1043 C1055 0.950 . S
C1044 H1036 0.950 . S
C1044 C1045 1.386 . S
C1044 C1046 1.391 . S
C1045 C1044 1.386 . S
C1045 C1049 1.393 . S
C1046 H1038 0.950 . S
C1046 C1044 1.391 . S
C1046 C1047 1.400 . S
C1047 C1046 1.400 . S
C1047 C1048 1.398 . S
C1047 C1053 1.491 . S
C1048 H1039 0.950 . S
C1048 C1047 1.398 . S
C1048 C1049 1.391 . S
C1049 H1037 0.950 . S
C1049 C1045 1.393 . S
C1049 C1048 1.391 . S
C1050 H1040 0.950 . S
C1050 C1051 1.386 . S
C1050 C1052 1.391 1_556 S
C1051 C1050 1.386 . S
C1051 C1055 1.393 . S
C1052 H1041 0.950 . S
C1052 C1050 1.391 1_554 S
C1052 C1053 1.400 . S
C1053 C1047 1.491 . S
C1053 C1052 1.400 . S
C1053 C1054 1.398 . S
C1054 H1042 0.950 . S
C1054 C1053 1.398 . S
C1054 C1055 1.391 1_554 S
C1055 H1043 0.950 . S
C1055 C1051 1.393 . S
C1055 C1054 1.391 1_556 S
H1056 C1064 0.950 . S
H1057 C1069 0.950 . S
H1058 C1066 0.950 . S
H1059 C1068 0.950 . S
H1060 C1070 0.950 . S
H1061 C1072 0.950 . S
H1062 C1074 0.950 . S
H1063 C1075 0.950 . S
C1064 H1056 0.950 . S
C1064 C1065 1.386 . S
C1064 C1066 1.391 . S
C1065 C1064 1.386 . S
C1065 C1069 1.393 . S
C1066 H1058 0.950 . S
C1066 C1064 1.391 . S
C1066 C1067 1.400 . S
C1067 C1066 1.400 . S
C1067 C1068 1.398 . S
C1067 C1073 1.491 . S
C1068 H1059 0.950 . S
C1068 C1067 1.398 . S
C1068 C1069 1.391 . S
C1069 H1057 0.950 . S
C1069 C1065 1.393 . S
C1069 C1068 1.391 . S
C1070 H1060 0.950 . S
C1070 C1071 1.386 . S
C1070 C1072 1.391 . S
C1071 C1070 1.386 . S
C1071 C1075 1.393 . S
C1072 H1061 0.950 . S
C1072 C1070 1.391 . S
C1072 C1073 1.400 . S
C1073 C1067 1.491 . S
C1073 C1072 1.400 . S
C1073 C1074 1.398 . S
C1074 H1062 0.950 . S
C1074 C1073 1.398 . S
C1074 C1075 1.391 . S
C1075 H1063 0.950 . S
C1075 C1071 1.393 . S
C1075 C1074 1.391 . S
H1076 C1084 0.950 . S
H1077 C1089 0.950 . S
H1078 C1086 0.950 . S
H1079 C1088 0.950 . S
H1080 C1090 0.950 . S
H1081 C1092 0.950 . S
H1082 C1094 0.950 . S
H1083 C1095 0.950 . S
C1084 H1076 0.950 . S
C1084 C1085 1.386 . S
C1084 C1086 1.391 . S
C1085 C1084 1.386 . S
C1085 C1089 1.393 . S
C1086 H1078 0.950 . S
C1086 C1084 1.391 . S
C1086 C1087 1.400 . S
C1087 C1086 1.400 . S
C1087 C1088 1.398 . S
C1087 C1093 1.491 . S
C1088 H1079 0.950 . S
C1088 C1087 1.398 . S
C1088 C1089 1.391 . S
C1089 H1077 0.950 . S
C1089 C1085 1.393 . S
C1089 C1088 1.391 . S
C1090 H1080 0.950 . S
C1090 C1091 1.386 . S
C1090 C1092 1.391 . S
C1091 C1090 1.386 . S
C1091 C1095 1.393 . S
C1092 H1081 0.950 . S
C1092 C1090 1.391 . S
C1092 C1093 1.400 . S
C1093 C1087 1.491 . S
C1093 C1092 1.400 . S
C1093 C1094 1.398 . S
C1094 H1082 0.950 . S
C1094 C1093 1.398 . S
C1094 C1095 1.391 . S
C1095 H1083 0.950 . S
C1095 C1091 1.393 . S
C1095 C1094 1.391 . S
H1096 C1104 0.950 . S
H1097 C1109 0.950 . S
H1098 C1106 0.950 . S
H1099 C1108 0.950 . S
H1100 C1110 0.950 . S
H1101 C1112 0.950 . S
H1102 C1114 0.950 . S
H1103 C1115 0.950 . S
C1104 H1096 0.950 . S
C1104 C1105 1.386 . S
C1104 C1106 1.391 . S
C1105 C1104 1.386 . S
C1105 C1109 1.393 . S
C1106 H1098 0.950 . S
C1106 C1104 1.391 . S
C1106 C1107 1.400 . S
C1107 C1106 1.400 . S
C1107 C1108 1.398 . S
C1107 C1113 1.491 . S
C1108 H1099 0.950 . S
C1108 C1107 1.398 . S
C1108 C1109 1.391 . S
C1109 H1097 0.950 . S
C1109 C1105 1.393 . S
C1109 C1108 1.391 . S
C1110 H1100 0.950 . S
C1110 C1111 1.386 . S
C1110 C1112 1.391 . S
C1111 C1110 1.386 . S
C1111 C1115 1.393 . S
C1112 H1101 0.950 . S
C1112 C1110 1.391 . S
C1112 C1113 1.400 . S
C1113 C1107 1.491 . S
C1113 C1112 1.400 . S
C1113 C1114 1.398 . S
C1114 H1102 0.950 . S
C1114 C1113 1.398 . S
C1114 C1115 1.391 . S
C1115 H1103 0.950 . S
C1115 C1111 1.393 . S
C1115 C1114 1.391 . S
H1116 C1124 0.950 . S
H1117 C1129 0.950 . S
H1118 C1126 0.950 . S
H1119 C1128 0.950 . S
H1120 C1130 0.950 . S
H1121 C1132 0.950 . S
H1122 C1134 0.950 . S
H1123 C1135 0.950 . S
C1124 H1116 0.950 . S
C1124 C1125 1.386 . S
C1124 C1126 1.391 . S
C1125 C1124 1.386 . S
C1125 C1129 1.393 . S
C1126 H1118 0.950 . S
C1126 C1124 1.391 . S
C1126 C1127 1.400 . S
C1127 C1126 1.400 . S
C1127 C1128 1.398 . S
C1127 C1133 1.491 . S
C1128 H1119 0.950 . S
C1128 C1127 1.398 . S
C1128 C1129 1.391 . S
C1129 H1117 0.950 . S
C1129 C1125 1.393 . S
C1129 C1128 1.391 . S
C1130 H1120 0.950 . S
C1130 C1131 1.386 . S
C1130 C1132 1.391 1_556 S
C1131 C1130 1.386 . S
C1131 C1135 1.393 . S
C1132 H1121 0.950 . S
C1132 C1130 1.391 1_554 S
C1132 C1133 1.400 . S
C1133 C1127 1.491 . S
C1133 C1132 1.400 . S
C1133 C1134 1.398 . S
C1134 H1122 0.950 . S
C1134 C1133 1.398 . S
C1134 C1135 1.391 1_554 S
C1135 H1123 0.950 . S
C1135 C1131 1.393 . S
C1135 C1134 1.391 1_556 S
H1136 C1144 0.950 . S
H1137 C1149 0.950 . S
H1138 C1146 0.950 . S
H1139 C1148 0.950 . S
H1140 C1150 0.950 . S
H1141 C1152 0.950 . S
H1142 C1154 0.950 . S
H1143 C1155 0.950 . S
C1144 H1136 0.950 . S
C1144 C1145 1.386 . S
C1144 C1146 1.391 . S
C1145 C1144 1.386 . S
C1145 C1149 1.393 . S
C1146 H1138 0.950 . S
C1146 C1144 1.391 . S
C1146 C1147 1.400 . S
C1147 C1146 1.400 . S
C1147 C1148 1.398 . S
C1147 C1153 1.491 . S
C1148 H1139 0.950 . S
C1148 C1147 1.398 . S
C1148 C1149 1.391 . S
C1149 H1137 0.950 . S
C1149 C1145 1.393 . S
C1149 C1148 1.391 . S
C1150 H1140 0.950 . S
C1150 C1151 1.386 . S
C1150 C1152 1.391 . S
C1151 C1150 1.386 . S
C1151 C1155 1.393 . S
C1152 H1141 0.950 . S
C1152 C1150 1.391 . S
C1152 C1153 1.400 . S
C1153 C1147 1.491 . S
C1153 C1152 1.400 . S
C1153 C1154 1.398 . S
C1154 H1142 0.950 . S
C1154 C1153 1.398 . S
C1154 C1155 1.391 . S
C1155 H1143 0.950 . S
C1155 C1151 1.393 . S
C1155 C1154 1.391 . S
H1156 C1164 0.950 . S
H1157 C1169 0.950 . S
H1158 C1166 0.950 . S
H1159 C1168 0.950 . S
H1160 C1170 0.950 . S
H1161 C1172 0.950 . S
H1162 C1174 0.950 . S
H1163 C1175 0.950 . S
C1164 H1156 0.950 . S
C1164 C1165 1.386 . S
C1164 C1166 1.391 . S
C1165 C1164 1.386 . S
C1165 C1169 1.393 . S
C1166 H1158 0.950 . S
C1166 C1164 1.391 . S
C1166 C1167 1.400 . S
C1167 C1166 1.400 . S
C1167 C1168 1.398 . S
C1167 C1173 1.491 . S
C1168 H1159 0.950 . S
C1168 C1167 1.398 . S
C1168 C1169 1.391 . S
C1169 H1157 0.950 . S
C1169 C1165 1.393 . S
C1169 C1168 1.391 . S
C1170 H1160 0.950 . S
C1170 C1171 1.386 . S
C1170 C1172 1.391 . S
C1171 C1170 1.386 . S
C1171 C1175 1.393 . S
C1172 H1161 0.950 . S
C1172 C1170 1.391 . S
C1172 C1173 1.400 . S
C1173 C1167 1.491 . S
C1173 C1172 1.400 . S
C1173 C1174 1.398 . S
C1174 H1162 0.950 . S
C1174 C1173 1.398 . S
C1174 C1175 1.391 . S
C1175 H1163 0.950 . S
C1175 C1171 1.393 . S
C1175 C1174 1.391 . S
H1176 C1184 0.950 . S
H1177 C1189 0.950 . S
H1178 C1186 0.950 . S
H1179 C1188 0.950 . S
H1180 C1190 0.950 . S
H1181 C1192 0.950 . S
H1182 C1194 0.950 . S
H1183 C1195 0.950 . S
C1184 H1176 0.950 . S
C1184 C1185 1.386 . S
C1184 C1186 1.391 . S
C1185 C1184 1.386 . S
C1185 C1189 1.393 . S
C1186 H1178 0.950 . S
C1186 C1184 1.391 . S
C1186 C1187 1.400 . S
C1187 C1186 1.400 . S
C1187 C1188 1.398 . S
C1187 C1193 1.491 . S
C1188 H1179 0.950 . S
C1188 C1187 1.398 . S
C1188 C1189 1.391 . S
C1189 H1177 0.950 . S
C1189 C1185 1.393 . S
C1189 C1188 1.391 . S
C1190 H1180 0.950 . S
C1190 C1191 1.386 . S
C1190 C1192 1.391 . S
C1191 C1190 1.386 . S
C1191 C1195 1.393 . S
C1192 H1181 0.950 . S
C1192 C1190 1.391 . S
C1192 C1193 1.400 . S
C1193 C1187 1.491 . S
C1193 C1192 1.400 . S
C1193 C1194 1.398 . S
C1194 H1182 0.950 . S
C1194 C1193 1.398 . S
C1194 C1195 1.391 . S
C1195 H1183 0.950 . S
C1195 C1191 1.393 . S
C1195 C1194 1.391 . S
H1196 C1204 0.950 . S
H1197 C1209 0.950 . S
H1198 C1206 0.950 . S
H1199 C1208 0.950 . S
H1200 C1210 0.950 . S
H1201 C1212 0.950 . S
H1202 C1214 0.950 . S
H1203 C1215 0.950 . S
C1204 H1196 0.950 . S
C1204 C1205 1.386 . S
C1204 C1206 1.391 1_556 S
C1205 C1204 1.386 . S
C1205 C1209 1.393 . S
C1206 H1198 0.950 . S
C1206 C1204 1.391 1_554 S
C1206 C1207 1.400 . S
C1207 C1206 1.400 . S
C1207 C1208 1.398 . S
C1207 C1213 1.491 . S
C1208 H1199 0.950 . S
C1208 C1207 1.398 . S
C1208 C1209 1.391 1_554 S
C1209 H1197 0.950 . S
C1209 C1205 1.393 . S
C1209 C1208 1.391 1_556 S
C1210 H1200 0.950 . S
C1210 C1211 1.386 . S
C1210 C1212 1.391 . S
C1211 C1210 1.386 . S
C1211 C1215 1.393 . S
C1212 H1201 0.950 . S
C1212 C1210 1.391 . S
C1212 C1213 1.400 . S
C1213 C1207 1.491 . S
C1213 C1212 1.400 . S
C1213 C1214 1.398 . S
C1214 H1202 0.950 . S
C1214 C1213 1.398 . S
C1214 C1215 1.391 . S
C1215 H1203 0.950 . S
C1215 C1211 1.393 . S
C1215 C1214 1.391 . S
H1216 C1224 0.950 . S
H1217 C1229 0.950 . S
H1218 C1226 0.950 . S
H1219 C1228 0.950 . S
H1220 C1230 0.950 . S
H1221 C1232 0.950 . S
H1222 C1234 0.950 . S
H1223 C1235 0.950 . S
C1224 H1216 0.950 . S
C1224 C1225 1.386 1_565 S
C1224 C1226 1.391 . S
C1225 C1224 1.386 1_545 S
C1225 C1229 1.393 . S
C1226 H1218 0.950 . S
C1226 C1224 1.391 . S
C1226 C1227 1.372 1_565 S
C1227 C1226 1.372 1_545 S
C1227 C1228 1.431 . S
C1227 C1233 1.487 1_545 S
C1228 H1219 0.950 . S
C1228 C1227 1.431 . S
C1228 C1229 1.391 . S
C1229 H1217 0.950 . S
C1229 C1225 1.393 . S
C1229 C1228 1.391 . S
C1230 H1220 0.950 . S
C1230 C1231 1.386 1_545 S
C1230 C1232 1.391 . S
C1231 C1230 1.386 1_565 S
C1231 C1235 1.393 . S
C1232 H1221 0.950 . S
C1232 C1230 1.391 . S
C1232 C1233 1.373 1_545 S
C1233 C1227 1.487 1_565 S
C1233 C1232 1.373 1_565 S
C1233 C1234 1.430 . S
C1234 H1222 0.950 . S
C1234 C1233 1.430 . S
C1234 C1235 1.391 . S
C1235 H1223 0.950 . S
C1235 C1231 1.393 . S
C1235 C1234 1.391 . S
H1236 C1244 0.950 . S
H1237 C1249 0.950 . S
H1238 C1246 0.950 . S
H1239 C1248 0.950 . S
H1240 C1250 0.950 . S
H1241 C1252 0.950 . S
H1242 C1254 0.950 . S
H1243 C1255 0.950 . S
C1244 H1236 0.950 . S
C1244 C1245 1.386 . S
C1244 C1246 1.391 . S
C1245 C1244 1.386 . S
C1245 C1249 1.393 . S
C1246 H1238 0.950 . S
C1246 C1244 1.391 . S
C1246 C1247 1.400 . S
C1247 C1246 1.400 . S
C1247 C1248 1.398 . S
C1247 C1253 1.491 . S
C1248 H1239 0.950 . S
C1248 C1247 1.398 . S
C1248 C1249 1.391 . S
C1249 H1237 0.950 . S
C1249 C1245 1.393 . S
C1249 C1248 1.391 . S
C1250 H1240 0.950 . S
C1250 C1251 1.386 . S
C1250 C1252 1.391 1_556 S
C1251 C1250 1.386 . S
C1251 C1255 1.393 . S
C1252 H1241 0.950 . S
C1252 C1250 1.391 1_554 S
C1252 C1253 1.400 . S
C1253 C1247 1.491 . S
C1253 C1252 1.400 . S
C1253 C1254 1.398 . S
C1254 H1242 0.950 . S
C1254 C1253 1.398 . S
C1254 C1255 1.391 1_554 S
C1255 H1243 0.950 . S
C1255 C1251 1.393 . S
C1255 C1254 1.391 1_556 S
H1256 C1264 0.950 . S
H1257 C1269 0.950 . S
H1258 C1266 0.950 . S
H1259 C1268 0.950 . S
H1260 C1270 0.950 . S
H1261 C1272 0.950 . S
H1262 C1274 0.950 . S
H1263 C1275 0.950 . S
C1264 H1256 0.950 . S
C1264 C1265 1.386 . S
C1264 C1266 1.391 . S
C1265 C1264 1.386 . S
C1265 C1269 1.393 1_545 S
C1266 H1258 0.950 . S
C1266 C1264 1.391 . S
C1266 C1267 1.400 . S
C1267 C1266 1.400 . S
C1267 C1268 1.398 1_545 S
C1267 C1273 1.491 1_545 S
C1268 H1259 0.950 . S
C1268 C1267 1.398 1_565 S
C1268 C1269 1.391 . S
C1269 H1257 0.950 . S
C1269 C1265 1.393 1_565 S
C1269 C1268 1.391 . S
C1270 H1260 0.950 . S
C1270 C1271 1.386 . S
C1270 C1272 1.391 . S
C1271 C1270 1.386 . S
C1271 C1275 1.393 1_565 S
C1272 H1261 0.950 . S
C1272 C1270 1.391 . S
C1272 C1273 1.401 . S
C1273 C1267 1.491 1_565 S
C1273 C1272 1.401 . S
C1273 C1274 1.398 1_565 S
C1274 H1262 0.950 . S
C1274 C1273 1.398 1_545 S
C1274 C1275 1.391 . S
C1275 H1263 0.950 . S
C1275 C1271 1.393 1_545 S
C1275 C1274 1.391 . S
H1276 C1284 0.950 . S
H1277 C1289 0.950 . S
H1278 C1286 0.950 . S
H1279 C1288 0.950 . S
H1280 C1290 0.950 . S
H1281 C1292 0.950 . S
H1282 C1294 0.950 . S
H1283 C1295 0.950 . S
C1284 H1276 0.950 . S
C1284 C1285 1.386 . S
C1284 C1286 1.391 . S
C1285 C1284 1.386 . S
C1285 C1289 1.393 . S
C1286 H1278 0.950 . S
C1286 C1284 1.391 . S
C1286 C1287 1.400 . S
C1287 C1286 1.400 . S
C1287 C1288 1.398 . S
C1287 C1293 1.491 . S
C1288 H1279 0.950 . S
C1288 C1287 1.398 . S
C1288 C1289 1.391 . S
C1289 H1277 0.950 . S
C1289 C1285 1.393 . S
C1289 C1288 1.391 . S
C1290 H1280 0.950 . S
C1290 C1291 1.386 . S
C1290 C1292 1.391 . S
C1291 C1290 1.386 . S
C1291 C1295 1.393 . S
C1292 H1281 0.950 . S
C1292 C1290 1.391 . S
C1292 C1293 1.400 . S
C1293 C1287 1.491 . S
C1293 C1292 1.400 . S
C1293 C1294 1.398 . S
C1294 H1282 0.950 . S
C1294 C1293 1.398 . S
C1294 C1295 1.391 . S
C1295 H1283 0.950 . S
C1295 C1291 1.393 . S
C1295 C1294 1.391 . S
H1296 C1304 0.950 . S
H1297 C1309 0.956 . S
H1298 C1306 0.950 . S
H1299 C1308 0.950 . S
H1300 C1310 0.950 . S
H1301 C1312 0.950 . S
H1302 C1314 0.950 . S
H1303 C1315 0.956 . S
C1304 H1296 0.950 . S
C1304 C1305 1.386 . S
C1304 C1306 1.391 . S
C1305 C1304 1.386 . S
C1305 C1309 1.387 1_545 S
C1306 H1298 0.950 . S
C1306 C1304 1.391 . S
C1306 C1307 1.400 . S
C1307 C1306 1.400 . S
C1307 C1308 1.398 1_545 S
C1307 C1313 1.491 1_545 S
C1308 H1299 0.950 . S
C1308 C1307 1.398 1_565 S
C1308 C1309 1.395 . S
C1309 H1297 0.956 . S
C1309 C1305 1.387 1_565 S
C1309 C1308 1.395 . S
C1310 H1300 0.950 . S
C1310 C1311 1.386 . S
C1310 C1312 1.391 . S
C1311 C1310 1.386 . S
C1311 C1315 1.387 1_565 S
C1312 H1301 0.950 . S
C1312 C1310 1.391 . S
C1312 C1313 1.400 . S
C1313 C1307 1.491 1_565 S
C1313 C1312 1.400 . S
C1313 C1314 1.398 1_565 S
C1314 H1302 0.950 . S
C1314 C1313 1.398 1_545 S
C1314 C1315 1.395 . S
C1315 H1303 0.956 . S
C1315 C1311 1.387 1_545 S
C1315 C1314 1.395 . S
H1316 C1324 0.950 . S
H1317 C1329 0.950 . S
H1318 C1326 0.950 . S
H1319 C1328 0.950 . S
H1320 C1330 0.950 . S
H1321 C1332 0.950 . S
H1322 C1334 0.950 . S
H1323 C1335 0.950 . S
C1324 H1316 0.950 . S
C1324 C1325 1.386 . S
C1324 C1326 1.391 . S
C1325 C1324 1.386 . S
C1325 C1329 1.393 . S
C1326 H1318 0.950 . S
C1326 C1324 1.391 . S
C1326 C1327 1.400 . S
C1327 C1326 1.400 . S
C1327 C1328 1.398 . S
C1327 C1333 1.491 . S
C1328 H1319 0.950 . S
C1328 C1327 1.398 . S
C1328 C1329 1.391 . S
C1329 H1317 0.950 . S
C1329 C1325 1.393 . S
C1329 C1328 1.391 . S
C1330 H1320 0.950 . S
C1330 C1331 1.386 . S
C1330 C1332 1.391 1_556 S
C1331 C1330 1.386 . S
C1331 C1335 1.393 . S
C1332 H1321 0.950 . S
C1332 C1330 1.391 1_554 S
C1332 C1333 1.400 . S
C1333 C1327 1.491 . S
C1333 C1332 1.400 . S
C1333 C1334 1.398 . S
C1334 H1322 0.950 . S
C1334 C1333 1.398 . S
C1334 C1335 1.391 1_554 S
C1335 H1323 0.950 . S
C1335 C1331 1.393 . S
C1335 C1334 1.391 1_556 S
H1336 C1344 0.950 . S
H1337 C1349 0.950 . S
H1338 C1346 0.950 . S
H1339 C1348 0.950 . S
H1340 C1350 0.950 . S
H1341 C1352 0.950 . S
H1342 C1354 0.950 . S
H1343 C1355 0.950 . S
C1344 H1336 0.950 . S
C1344 C1345 1.386 1_565 S
C1344 C1346 1.391 . S
C1345 C1344 1.386 1_545 S
C1345 C1349 1.393 . S
C1346 H1338 0.950 . S
C1346 C1344 1.391 . S
C1346 C1347 1.372 1_565 S
C1347 C1346 1.372 1_545 S
C1347 C1348 1.430 . S
C1347 C1353 1.488 1_545 S
C1348 H1339 0.950 . S
C1348 C1347 1.430 . S
C1348 C1349 1.391 . S
C1349 H1337 0.950 . S
C1349 C1345 1.393 . S
C1349 C1348 1.391 . S
C1350 H1340 0.950 . S
C1350 C1351 1.386 1_545 S
C1350 C1352 1.391 . S
C1351 C1350 1.386 1_565 S
C1351 C1355 1.393 . S
C1352 H1341 0.950 . S
C1352 C1350 1.391 . S
C1352 C1353 1.370 1_545 S
C1353 C1347 1.488 1_565 S
C1353 C1352 1.370 1_565 S
C1353 C1354 1.431 . S
C1354 H1342 0.950 . S
C1354 C1353 1.431 . S
C1354 C1355 1.391 . S
C1355 H1343 0.950 . S
C1355 C1351 1.393 . S
C1355 C1354 1.391 . S
H1356 C1364 0.950 . S
H1357 C1369 0.950 . S
H1358 C1366 0.950 . S
H1359 C1368 0.950 . S
H1360 C1370 0.950 . S
H1361 C1372 0.950 . S
H1362 C1374 0.950 . S
H1363 C1375 0.950 . S
C1364 H1356 0.950 . S
C1364 C1365 1.386 . S
C1364 C1366 1.391 . S
C1365 C1364 1.386 . S
C1365 C1369 1.393 . S
C1366 H1358 0.950 . S
C1366 C1364 1.391 . S
C1366 C1367 1.400 . S
C1367 C1366 1.400 . S
C1367 C1368 1.398 . S
C1367 C1373 1.491 . S
C1368 H1359 0.950 . S
C1368 C1367 1.398 . S
C1368 C1369 1.391 . S
C1369 H1357 0.950 . S
C1369 C1365 1.393 . S
C1369 C1368 1.391 . S
C1370 H1360 0.950 . S
C1370 C1371 1.386 . S
C1370 C1372 1.391 . S
C1371 C1370 1.386 . S
C1371 C1375 1.393 . S
C1372 H1361 0.950 . S
C1372 C1370 1.391 . S
C1372 C1373 1.400 . S
C1373 C1367 1.491 . S
C1373 C1372 1.400 . S
C1373 C1374 1.398 . S
C1374 H1362 0.950 . S
C1374 C1373 1.398 . S
C1374 C1375 1.391 . S
C1375 H1363 0.950 . S
C1375 C1371 1.393 . S
C1375 C1374 1.391 . S
H1376 C1384 0.950 . S
H1377 C1389 0.950 . S
H1378 C1386 0.950 . S
H1379 C1388 0.950 . S
H1380 C1390 0.950 . S
H1381 C1392 0.950 . S
H1382 C1394 0.950 . S
H1383 C1395 0.950 . S
C1384 H1376 0.950 . S
C1384 C1385 1.386 . S
C1384 C1386 1.391 . S
C1385 C1384 1.386 . S
C1385 C1389 1.393 . S
C1386 H1378 0.950 . S
C1386 C1384 1.391 . S
C1386 C1387 1.400 . S
C1387 C1386 1.400 . S
C1387 C1388 1.398 . S
C1387 C1393 1.491 . S
C1388 H1379 0.950 . S
C1388 C1387 1.398 . S
C1388 C1389 1.391 . S
C1389 H1377 0.950 . S
C1389 C1385 1.393 . S
C1389 C1388 1.391 . S
C1390 H1380 0.950 . S
C1390 C1391 1.386 . S
C1390 C1392 1.391 . S
C1391 C1390 1.386 . S
C1391 C1395 1.393 . S
C1392 H1381 0.950 . S
C1392 C1390 1.391 . S
C1392 C1393 1.400 . S
C1393 C1387 1.491 . S
C1393 C1392 1.400 . S
C1393 C1394 1.398 . S
C1394 H1382 0.950 . S
C1394 C1393 1.398 . S
C1394 C1395 1.391 . S
C1395 H1383 0.950 . S
C1395 C1391 1.393 . S
C1395 C1394 1.391 . S
H1396 C1404 0.950 . S
H1397 C1409 0.950 . S
H1398 C1406 0.950 . S
H1399 C1408 0.950 . S
H1400 C1410 0.950 . S
H1401 C1412 0.950 . S
H1402 C1414 0.950 . S
H1403 C1415 0.950 . S
C1404 H1396 0.950 . S
C1404 C1405 1.386 . S
C1404 C1406 1.391 . S
C1405 C1404 1.386 . S
C1405 C1409 1.393 . S
C1406 H1398 0.950 . S
C1406 C1404 1.391 . S
C1406 C1407 1.400 . S
C1407 C1406 1.400 . S
C1407 C1408 1.398 . S
C1407 C1413 1.491 . S
C1408 H1399 0.950 . S
C1408 C1407 1.398 . S
C1408 C1409 1.391 . S
C1409 H1397 0.950 . S
C1409 C1405 1.393 . S
C1409 C1408 1.391 . S
C1410 H1400 0.950 . S
C1410 C1411 1.386 . S
C1410 C1412 1.391 . S
C1411 C1410 1.386 . S
C1411 C1415 1.393 . S
C1412 H1401 0.950 . S
C1412 C1410 1.391 . S
C1412 C1413 1.400 . S
C1413 C1407 1.491 . S
C1413 C1412 1.400 . S
C1413 C1414 1.398 . S
C1414 H1402 0.950 . S
C1414 C1413 1.398 . S
C1414 C1415 1.391 . S
C1415 H1403 0.950 . S
C1415 C1411 1.393 . S
C1415 C1414 1.391 . S
H1416 C1424 0.950 . S
H1417 C1429 0.950 . S
H1418 C1426 0.950 . S
H1419 C1428 0.950 . S
H1420 C1430 0.950 . S
H1421 C1432 0.950 . S
H1422 C1434 0.950 . S
H1423 C1435 0.950 . S
C1424 H1416 0.950 . S
C1424 C1425 1.386 . S
C1424 C1426 1.391 . S
C1425 C1424 1.386 . S
C1425 C1429 1.393 . S
C1426 H1418 0.950 . S
C1426 C1424 1.391 . S
C1426 C1427 1.400 . S
C1427 C1426 1.400 . S
C1427 C1428 1.398 . S
C1427 C1433 1.491 . S
C1428 H1419 0.950 . S
C1428 C1427 1.398 . S
C1428 C1429 1.391 . S
C1429 H1417 0.950 . S
C1429 C1425 1.393 . S
C1429 C1428 1.391 . S
C1430 H1420 0.950 . S
C1430 C1431 1.386 . S
C1430 C1432 1.391 . S
C1431 C1430 1.386 . S
C1431 C1435 1.393 . S
C1432 H1421 0.950 . S
C1432 C1430 1.391 . S
C1432 C1433 1.400 . S
C1433 C1427 1.491 . S
C1433 C1432 1.400 . S
C1433 C1434 1.398 . S
C1434 H1422 0.950 . S
C1434 C1433 1.398 . S
C1434 C1435 1.391 . S
C1435 H1423 0.950 . S
C1435 C1431 1.393 . S
C1435 C1434 1.391 . S
H1436 C1444 0.950 . S
H1437 C1449 0.950 . S
H1438 C1446 0.950 . S
H1439 C1448 0.950 . S
H1440 C1450 0.950 . S
H1441 C1452 0.950 . S
H1442 C1454 0.950 1_554 S
H1443 C1455 0.950 . S
C1444 H1436 0.950 . S
C1444 C1445 1.386 . S
C1444 C1446 1.391 . S
C1445 C1444 1.386 . S
C1445 C1449 1.393 . S
C1446 H1438 0.950 . S
C1446 C1444 1.391 . S
C1446 C1447 1.400 . S
C1447 C1446 1.400 . S
C1447 C1448 1.398 . S
C1447 C1453 1.491 . S
C1448 H1439 0.950 . S
C1448 C1447 1.398 . S
C1448 C1449 1.391 . S
C1449 H1437 0.950 . S
C1449 C1445 1.393 . S
C1449 C1448 1.391 . S
C1450 H1440 0.950 . S
C1450 C1451 1.386 . S
C1450 C1452 1.391 . S
C1451 C1450 1.386 . S
C1451 C1455 1.393 1_556 S
C1452 H1441 0.950 . S
C1452 C1450 1.391 . S
C1452 C1453 1.400 . S
C1453 C1447 1.491 . S
C1453 C1452 1.400 . S
C1453 C1454 1.398 . S
C1454 H1442 0.950 1_556 S
C1454 C1453 1.398 . S
C1454 C1455 1.391 1_556 S
C1455 H1443 0.950 . S
C1455 C1451 1.393 1_554 S
C1455 C1454 1.391 1_554 S
H1456 C1464 0.950 . S
H1457 C1469 0.950 . S
H1458 C1466 0.950 . S
H1459 C1468 0.950 . S
H1460 C1470 0.950 . S
H1461 C1472 0.950 . S
H1462 C1474 0.950 . S
H1463 C1475 0.950 . S
C1464 H1456 0.950 . S
C1464 C1465 1.386 . S
C1464 C1466 1.391 . S
C1465 C1464 1.386 . S
C1465 C1469 1.393 . S
C1466 H1458 0.950 . S
C1466 C1464 1.391 . S
C1466 C1467 1.400 . S
C1467 C1466 1.400 . S
C1467 C1468 1.398 . S
C1467 C1473 1.491 . S
C1468 H1459 0.950 . S
C1468 C1467 1.398 . S
C1468 C1469 1.391 . S
C1469 H1457 0.950 . S
C1469 C1465 1.393 . S
C1469 C1468 1.391 . S
C1470 H1460 0.950 . S
C1470 C1471 1.386 . S
C1470 C1472 1.391 . S
C1471 C1470 1.386 . S
C1471 C1475 1.393 . S
C1472 H1461 0.950 . S
C1472 C1470 1.391 . S
C1472 C1473 1.400 . S
C1473 C1467 1.491 . S
C1473 C1472 1.400 . S
C1473 C1474 1.398 . S
C1474 H1462 0.950 . S
C1474 C1473 1.398 . S
C1474 C1475 1.391 . S
C1475 H1463 0.950 . S
C1475 C1471 1.393 . S
C1475 C1474 1.391 . S
H1476 C1484 0.950 . S
H1477 C1489 0.950 . S
H1478 C1486 0.950 . S
H1479 C1488 0.950 . S
H1480 C1490 0.950 . S
H1481 C1492 0.950 . S
H1482 C1494 0.950 . S
H1483 C1495 0.950 . S
C1484 H1476 0.950 . S
C1484 C1485 1.386 . S
C1484 C1486 1.391 . S
C1485 C1484 1.386 . S
C1485 C1489 1.393 . S
C1486 H1478 0.950 . S
C1486 C1484 1.391 . S
C1486 C1487 1.400 . S
C1487 C1486 1.400 . S
C1487 C1488 1.398 . S
C1487 C1493 1.491 . S
C1488 H1479 0.950 . S
C1488 C1487 1.398 . S
C1488 C1489 1.391 . S
C1489 H1477 0.950 . S
C1489 C1485 1.393 . S
C1489 C1488 1.391 . S
C1490 H1480 0.950 . S
C1490 C1491 1.386 . S
C1490 C1492 1.391 . S
C1491 C1490 1.386 . S
C1491 C1495 1.393 . S
C1492 H1481 0.950 . S
C1492 C1490 1.391 . S
C1492 C1493 1.400 . S
C1493 C1487 1.491 . S
C1493 C1492 1.400 . S
C1493 C1494 1.398 . S
C1494 H1482 0.950 . S
C1494 C1493 1.398 . S
C1494 C1495 1.391 . S
C1495 H1483 0.950 . S
C1495 C1491 1.393 . S
C1495 C1494 1.391 . S
H1496 C1504 0.950 . S
H1497 C1509 0.950 . S
H1498 C1506 0.950 . S
H1499 C1508 0.950 . S
H1500 C1510 0.950 . S
H1501 C1512 0.950 . S
H1502 C1514 0.950 . S
H1503 C1515 0.950 . S
C1504 H1496 0.950 . S
C1504 C1505 1.386 . S
C1504 C1506 1.391 . S
C1505 C1504 1.386 . S
C1505 C1509 1.393 . S
C1506 H1498 0.950 . S
C1506 C1504 1.391 . S
C1506 C1507 1.400 . S
C1507 C1506 1.400 . S
C1507 C1508 1.398 . S
C1507 C1513 1.491 . S
C1508 H1499 0.950 . S
C1508 C1507 1.398 . S
C1508 C1509 1.391 . S
C1509 H1497 0.950 . S
C1509 C1505 1.393 . S
C1509 C1508 1.391 . S
C1510 H1500 0.950 . S
C1510 C1511 1.386 . S
C1510 C1512 1.391 . S
C1511 C1510 1.386 . S
C1511 C1515 1.393 1_556 S
C1512 H1501 0.950 . S
C1512 C1510 1.391 . S
C1512 C1513 1.400 . S
C1513 C1507 1.491 . S
C1513 C1512 1.400 . S
C1513 C1514 1.398 . S
C1514 H1502 0.950 . S
C1514 C1513 1.398 . S
C1514 C1515 1.391 1_556 S
C1515 H1503 0.950 . S
C1515 C1511 1.393 1_554 S
C1515 C1514 1.391 1_554 S
H1516 C1524 0.950 . S
H1517 C1529 0.950 . S
H1518 C1526 0.950 . S
H1519 C1528 0.950 . S
H1520 C1530 0.950 . S
H1521 C1532 0.950 . S
H1522 C1534 0.950 . S
H1523 C1535 0.950 . S
C1524 H1516 0.950 . S
C1524 C1525 1.386 . S
C1524 C1526 1.391 . S
C1525 C1524 1.386 . S
C1525 C1529 1.393 . S
C1526 H1518 0.950 . S
C1526 C1524 1.391 . S
C1526 C1527 1.400 . S
C1527 C1526 1.400 . S
C1527 C1528 1.398 . S
C1527 C1533 1.491 . S
C1528 H1519 0.950 . S
C1528 C1527 1.398 . S
C1528 C1529 1.391 . S
C1529 H1517 0.950 . S
C1529 C1525 1.393 . S
C1529 C1528 1.391 . S
C1530 H1520 0.950 . S
C1530 C1531 1.386 . S
C1530 C1532 1.391 . S
C1531 C1530 1.386 . S
C1531 C1535 1.393 . S
C1532 H1521 0.950 . S
C1532 C1530 1.391 . S
C1532 C1533 1.400 . S
C1533 C1527 1.491 . S
C1533 C1532 1.400 . S
C1533 C1534 1.398 . S
C1534 H1522 0.950 . S
C1534 C1533 1.398 . S
C1534 C1535 1.391 . S
C1535 H1523 0.950 . S
C1535 C1531 1.393 . S
C1535 C1534 1.391 . S
H1536 C1544 0.950 . S
H1537 C1549 0.950 . S
H1538 C1546 0.950 . S
H1539 C1548 0.950 1_554 S
H1540 C1550 0.950 . S
H1541 C1552 0.950 . S
H1542 C1554 0.950 . S
H1543 C1555 0.950 . S
C1544 H1536 0.950 . S
C1544 C1545 1.386 . S
C1544 C1546 1.391 . S
C1545 C1544 1.386 . S
C1545 C1549 1.393 1_556 S
C1546 H1538 0.950 . S
C1546 C1544 1.391 . S
C1546 C1547 1.400 . S
C1547 C1546 1.400 . S
C1547 C1548 1.398 . S
C1547 C1553 1.491 . S
C1548 H1539 0.950 1_556 S
C1548 C1547 1.398 . S
C1548 C1549 1.391 1_556 S
C1549 H1537 0.950 . S
C1549 C1545 1.393 1_554 S
C1549 C1548 1.391 1_554 S
C1550 H1540 0.950 . S
C1550 C1551 1.386 . S
C1550 C1552 1.391 . S
C1551 C1550 1.386 . S
C1551 C1555 1.393 . S
C1552 H1541 0.950 . S
C1552 C1550 1.391 . S
C1552 C1553 1.400 . S
C1553 C1547 1.491 . S
C1553 C1552 1.400 . S
C1553 C1554 1.398 . S
C1554 H1542 0.950 . S
C1554 C1553 1.398 . S
C1554 C1555 1.391 . S
C1555 H1543 0.950 . S
C1555 C1551 1.393 . S
C1555 C1554 1.391 . S
H1556 C1564 0.950 . S
H1557 C1569 0.950 . S
H1558 C1566 0.950 . S
H1559 C1568 0.950 . S
H1560 C1570 0.950 . S
H1561 C1572 0.950 . S
H1562 C1574 0.950 . S
H1563 C1575 0.950 . S
C1564 H1556 0.950 . S
C1564 C1565 1.386 . S
C1564 C1566 1.391 . S
C1565 C1564 1.386 . S
C1565 C1569 1.393 . S
C1566 H1558 0.950 . S
C1566 C1564 1.391 . S
C1566 C1567 1.400 . S
C1567 C1566 1.400 . S
C1567 C1568 1.398 . S
C1567 C1573 1.491 . S
C1568 H1559 0.950 . S
C1568 C1567 1.398 . S
C1568 C1569 1.391 . S
C1569 H1557 0.950 . S
C1569 C1565 1.393 . S
C1569 C1568 1.391 . S
C1570 H1560 0.950 . S
C1570 C1571 1.386 . S
C1570 C1572 1.391 . S
C1571 C1570 1.386 . S
C1571 C1575 1.393 . S
C1572 H1561 0.950 . S
C1572 C1570 1.391 . S
C1572 C1573 1.400 . S
C1573 C1567 1.491 . S
C1573 C1572 1.400 . S
C1573 C1574 1.398 . S
C1574 H1562 0.950 . S
C1574 C1573 1.398 . S
C1574 C1575 1.391 . S
C1575 H1563 0.950 . S
C1575 C1571 1.393 . S
C1575 C1574 1.391 . S
H1576 C1584 0.950 . S
H1577 C1589 0.950 . S
H1578 C1586 0.950 . S
H1579 C1588 0.950 . S
H1580 C1590 0.950 . S
H1581 C1592 0.950 . S
H1582 C1594 0.950 . S
H1583 C1595 0.950 . S
C1584 H1576 0.950 . S
C1584 C1585 1.386 . S
C1584 C1586 1.391 . S
C1585 C1584 1.386 . S
C1585 C1589 1.393 . S
C1586 H1578 0.950 . S
C1586 C1584 1.391 . S
C1586 C1587 1.400 . S
C1587 C1586 1.400 . S
C1587 C1588 1.398 . S
C1587 C1593 1.491 . S
C1588 H1579 0.950 . S
C1588 C1587 1.398 . S
C1588 C1589 1.391 . S
C1589 H1577 0.950 . S
C1589 C1585 1.393 . S
C1589 C1588 1.391 . S
C1590 H1580 0.950 . S
C1590 C1591 1.386 . S
C1590 C1592 1.391 . S
C1591 C1590 1.386 . S
C1591 C1595 1.393 . S
C1592 H1581 0.950 . S
C1592 C1590 1.391 . S
C1592 C1593 1.400 . S
C1593 C1587 1.491 . S
C1593 C1592 1.400 . S
C1593 C1594 1.398 . S
C1594 H1582 0.950 . S
C1594 C1593 1.398 . S
C1594 C1595 1.391 . S
C1595 H1583 0.950 . S
C1595 C1591 1.393 . S
C1595 C1594 1.391 . S
H1596 C1604 0.950 . S
H1597 C1609 0.950 . S
H1598 C1606 0.950 . S
H1599 C1608 0.950 . S
H1600 C1610 0.950 . S
H1601 C1612 0.950 . S
H1602 C1614 0.950 . S
H1603 C1615 0.950 . S
C1604 H1596 0.950 . S
C1604 C1605 1.386 . S
C1604 C1606 1.391 . S
C1605 C1604 1.386 . S
C1605 C1609 1.393 . S
C1606 H1598 0.950 . S
C1606 C1604 1.391 . S
C1606 C1607 1.400 . S
C1607 C1606 1.400 . S
C1607 C1608 1.398 . S
C1607 C1613 1.491 . S
C1608 H1599 0.950 . S
C1608 C1607 1.398 . S
C1608 C1609 1.391 . S
C1609 H1597 0.950 . S
C1609 C1605 1.393 . S
C1609 C1608 1.391 . S
C1610 H1600 0.950 . S
C1610 C1611 1.386 . S
C1610 C1612 1.391 . S
C1611 C1610 1.386 . S
C1611 C1615 1.393 . S
C1612 H1601 0.950 . S
C1612 C1610 1.391 . S
C1612 C1613 1.400 . S
C1613 C1607 1.491 . S
C1613 C1612 1.400 . S
C1613 C1614 1.398 . S
C1614 H1602 0.950 . S
C1614 C1613 1.398 . S
C1614 C1615 1.391 . S
C1615 H1603 0.950 . S
C1615 C1611 1.393 . S
C1615 C1614 1.391 . S
H1616 C1624 0.950 . S
H1617 C1629 0.950 . S
H1618 C1626 0.950 . S
H1619 C1628 0.950 . S
H1620 C1630 0.950 . S
H1621 C1632 0.950 . S
H1622 C1634 0.950 . S
H1623 C1635 0.950 . S
C1624 H1616 0.950 . S
C1624 C1625 1.386 . S
C1624 C1626 1.391 . S
C1625 C1624 1.386 . S
C1625 C1629 1.393 . S
C1626 H1618 0.950 . S
C1626 C1624 1.391 . S
C1626 C1627 1.400 . S
C1627 C1626 1.400 . S
C1627 C1628 1.398 . S
C1627 C1633 1.491 . S
C1628 H1619 0.950 . S
C1628 C1627 1.398 . S
C1628 C1629 1.391 . S
C1629 H1617 0.950 . S
C1629 C1625 1.393 . S
C1629 C1628 1.391 . S
C1630 H1620 0.950 . S
C1630 C1631 1.386 . S
C1630 C1632 1.391 . S
C1631 C1630 1.386 . S
C1631 C1635 1.393 . S
C1632 H1621 0.950 . S
C1632 C1630 1.391 . S
C1632 C1633 1.400 . S
C1633 C1627 1.491 . S
C1633 C1632 1.400 . S
C1633 C1634 1.398 . S
C1634 H1622 0.950 . S
C1634 C1633 1.398 . S
C1634 C1635 1.391 . S
C1635 H1623 0.950 . S
C1635 C1631 1.393 . S
C1635 C1634 1.391 . S
H1636 C1644 0.950 . S
H1637 C1649 0.950 . S
H1638 C1646 0.950 . S
H1639 C1648 0.950 . S
H1640 C1650 0.950 . S
H1641 C1652 0.950 . S
H1642 C1654 0.950 . S
H1643 C1655 0.950 . S
C1644 H1636 0.950 . S
C1644 C1645 1.386 . S
C1644 C1646 1.391 . S
C1645 C1644 1.386 . S
C1645 C1649 1.393 . S
C1646 H1638 0.950 . S
C1646 C1644 1.391 . S
C1646 C1647 1.400 . S
C1647 C1646 1.400 . S
C1647 C1648 1.398 . S
C1647 C1653 1.491 . S
C1648 H1639 0.950 . S
C1648 C1647 1.398 . S
C1648 C1649 1.391 . S
C1649 H1637 0.950 . S
C1649 C1645 1.393 . S
C1649 C1648 1.391 . S
C1650 H1640 0.950 . S
C1650 C1651 1.386 . S
C1650 C1652 1.391 . S
C1651 C1650 1.386 . S
C1651 C1655 1.393 . S
C1652 H1641 0.950 . S
C1652 C1650 1.391 . S
C1652 C1653 1.400 . S
C1653 C1647 1.491 . S
C1653 C1652 1.400 . S
C1653 C1654 1.398 . S
C1654 H1642 0.950 . S
C1654 C1653 1.398 . S
C1654 C1655 1.391 . S
C1655 H1643 0.950 . S
C1655 C1651 1.393 . S
C1655 C1654 1.391 . S
H1656 C1664 0.950 . S
H1657 C1669 0.950 . S
H1658 C1666 0.950 . S
H1659 C1668 0.950 . S
H1660 C1670 0.950 . S
H1661 C1672 0.950 . S
H1662 C1674 0.950 . S
H1663 C1675 0.950 . S
C1664 H1656 0.950 . S
C1664 C1665 1.386 . S
C1664 C1666 1.391 . S
C1665 C1664 1.386 . S
C1665 C1669 1.393 . S
C1666 H1658 0.950 . S
C1666 C1664 1.391 . S
C1666 C1667 1.400 . S
C1667 C1666 1.400 . S
C1667 C1668 1.398 . S
C1667 C1673 1.491 . S
C1668 H1659 0.950 . S
C1668 C1667 1.398 . S
C1668 C1669 1.391 . S
C1669 H1657 0.950 . S
C1669 C1665 1.393 . S
C1669 C1668 1.391 . S
C1670 H1660 0.950 . S
C1670 C1671 1.386 . S
C1670 C1672 1.391 . S
C1671 C1670 1.386 . S
C1671 C1675 1.393 . S
C1672 H1661 0.950 . S
C1672 C1670 1.391 . S
C1672 C1673 1.400 . S
C1673 C1667 1.491 . S
C1673 C1672 1.400 . S
C1673 C1674 1.398 . S
C1674 H1662 0.950 . S
C1674 C1673 1.398 . S
C1674 C1675 1.391 . S
C1675 H1663 0.950 . S
C1675 C1671 1.393 . S
C1675 C1674 1.391 . S
H1676 C1684 0.950 . S
H1677 C1689 0.950 . S
H1678 C1686 0.950 . S
H1679 C1688 0.950 . S
H1680 C1690 0.950 . S
H1681 C1692 0.950 . S
H1682 C1694 0.950 1_554 S
H1683 C1695 0.950 . S
C1684 H1676 0.950 . S
C1684 C1685 1.386 . S
C1684 C1686 1.391 . S
C1685 C1684 1.386 . S
C1685 C1689 1.393 . S
C1686 H1678 0.950 . S
C1686 C1684 1.391 . S
C1686 C1687 1.400 . S
C1687 C1686 1.400 . S
C1687 C1688 1.398 . S
C1687 C1693 1.491 . S
C1688 H1679 0.950 . S
C1688 C1687 1.398 . S
C1688 C1689 1.391 . S
C1689 H1677 0.950 . S
C1689 C1685 1.393 . S
C1689 C1688 1.391 . S
C1690 H1680 0.950 . S
C1690 C1691 1.386 . S
C1690 C1692 1.391 . S
C1691 C1690 1.386 . S
C1691 C1695 1.393 1_556 S
C1692 H1681 0.950 . S
C1692 C1690 1.391 . S
C1692 C1693 1.400 . S
C1693 C1687 1.491 . S
C1693 C1692 1.400 . S
C1693 C1694 1.398 . S
C1694 H1682 0.950 1_556 S
C1694 C1693 1.398 . S
C1694 C1695 1.391 1_556 S
C1695 H1683 0.950 . S
C1695 C1691 1.393 1_554 S
C1695 C1694 1.391 1_554 S
C425 C109 1.489 . S
C431 C3 1.489 . S
C445 C18 1.502 . S
C451 C328 1.502 . S
C465 C31 1.502 . S
C471 C135 1.502 . S
C485 C44 1.493 . S
C491 C356 1.493 . S
C505 C55 1.490 . S
C511 C159 1.490 . S
C525 C382 1.502 . S
C531 C68 1.502 . S
C545 C185 1.496 . S
C551 C81 1.496 . S
C565 C406 1.492 . S
C571 C96 1.492 . S
C585 C224 1.497 . S
C591 C122 1.497 . S
C605 C148 1.499 . S
C611 C252 1.499 . S
C625 C172 1.489 . S
C631 C276 1.489 . S
C645 C302 1.489 . S
C651 C198 1.489 . S
C665 C315 1.491 . S
C671 C211 1.491 . S
C685 C237 1.490 . S
C691 C343 1.490 . S
C705 C265 1.490 . S
C711 C367 1.490 . S
C725 C393 1.500 . S
C731 C289 1.500 . S
C745 C5 1.597 . S
C751 C57 1.595 . S
C765 C70 1.595 . S
C771 C16 1.601 . S
C785 C83 1.605 . S
C791 C29 1.608 . S
C805 C42 1.606 . S
C811 C94 1.597 . S
C825 C107 1.606 . S
C831 C161 1.607 . S
C845 C120 1.598 . S
C851 C174 1.594 . S
C865 C187 1.595 . S
C871 C133 1.596 . S
C885 C200 1.601 . S
C891 C146 1.595 . S
C905 C263 1.595 . S
C911 C213 1.602 . S
C925 C278 1.599 . S
C931 C226 1.607 . S
C945 C239 1.595 . S
C951 C291 1.596 . S
C965 C304 1.596 . S
C971 C250 1.605 . S
C985 C369 1.595 . S
C991 C317 1.602 . S
C1005 C330 1.608 . S
C1011 C380 1.602 . S
C1025 C395 1.603 . S
C1031 C341 1.595 . S
C1045 C408 1.607 . S
C1051 C354 1.599 . S
C1065 C56 0.597 . S
C1071 C4 0.599 . S
C1085 C69 0.618 . S
C1091 C23 0.604 . S
C1105 C36 0.653 . S
C1111 C82 0.643 . S
C1125 C101 0.632 . S
C1131 C49 0.646 . S
C1145 C160 0.615 . S
C1151 C114 0.602 . S
C1165 C127 0.651 . S
C1171 C173 0.640 . S
C1185 C186 0.644 . S
C1191 C140 0.653 . S
C1205 C199 0.635 . S
C1211 C153 0.648 . S
C1225 C212 0.652 1_545 S
C1231 C270 0.641 1_565 S
C1245 C277 0.651 . S
C1251 C225 0.655 . S
C1265 C290 0.597 1_545 S
C1271 C238 0.598 1_565 S
C1285 C303 0.644 . S
C1291 C257 0.629 . S
C1305 C368 0.598 1_545 S
C1311 C316 0.598 1_565 S
C1325 C329 0.623 . S
C1331 C387 0.608 . S
C1345 C348 0.635 1_545 S
C1351 C394 0.648 1_565 S
C1365 C361 0.654 . S
C1371 C407 0.647 . S
C1385 C10 1.491 . S
C1391 C283 1.490 . S
C1405 C296 1.508 . S
C1411 C17 1.506 . S
C1425 C30 1.508 . S
C1431 C309 1.507 . S
C1445 C43 1.499 . S
C1451 C264 1.496 1_556 S
C1465 C251 1.499 . S
C1471 C62 1.495 . S
C1485 C218 1.492 . S
C1491 C75 1.495 . S
C1505 C231 1.495 . S
C1511 C88 1.492 1_556 S
C1525 C95 1.500 . S
C1531 C244 1.496 . S
C1545 C108 1.501 1_556 S
C1551 C381 1.505 . S
C1565 C400 1.495 . S
C1571 C121 1.498 . S
C1585 C413 1.491 . S
C1591 C134 1.493 . S
C1605 C374 1.497 . S
C1611 C147 1.501 . S
C1625 C355 1.494 . S
C1631 C166 1.492 . S
C1645 C322 1.494 . S
C1651 C179 1.497 . S
C1665 C192 1.496 . S
C1671 C335 1.493 . S
C1685 C205 1.498 . S
C1691 C342 1.502 1_556 S
