# Generated by pormake.
# Topology whw, (6)-cn, num edge types: 1
# Building blocks:
#     Node 0, Type 0, BuildingBlock: BETFEN_clean_sbu_0, # of connection points: 6
#     Node 1, Type 0, BuildingBlock: BETFEN_clean_sbu_0, # of connection points: 6
#     Node 2, Type 0, BuildingBlock: BETFEN_clean_sbu_0, # of connection points: 6
#     Node 3, Type 0, BuildingBlock: BETFEN_clean_sbu_0, # of connection points: 6
#     Node 4, Type 0, BuildingBlock: BETFEN_clean_sbu_0, # of connection points: 6
#     Node 5, Type 0, BuildingBlock: BETFEN_clean_sbu_0, # of connection points: 6
#     Node 6, Type 0, BuildingBlock: BETFEN_clean_sbu_0, # of connection points: 6
#     Node 7, Type 0, BuildingBlock: BETFEN_clean_sbu_0, # of connection points: 6
#     Node 8, Type 0, BuildingBlock: BETFEN_clean_sbu_0, # of connection points: 6
#     Node 9, Type 0, BuildingBlock: BETFEN_clean_sbu_0, # of connection points: 6
#     Node 10, Type 0, BuildingBlock: BETFEN_clean_sbu_0, # of connection points: 6
#     Node 11, Type 0, BuildingBlock: BETFEN_clean_sbu_0, # of connection points: 6
#     Node 12, Type 0, BuildingBlock: BETFEN_clean_sbu_0, # of connection points: 6
#     Node 13, Type 0, BuildingBlock: BETFEN_clean_sbu_0, # of connection points: 6
#     Node 14, Type 0, BuildingBlock: BETFEN_clean_sbu_0, # of connection points: 6
#     Node 15, Type 0, BuildingBlock: BETFEN_clean_sbu_0, # of connection points: 6
#     Edge 16, Type (0, 0), BuildingBlock: OJICUG_clean_linker_0, # of connection points: 2
#     Edge 17, Type (0, 0), BuildingBlock: OJICUG_clean_linker_0, # of connection points: 2
#     Edge 18, Type (0, 0), BuildingBlock: OJICUG_clean_linker_0, # of connection points: 2
#     Edge 19, Type (0, 0), BuildingBlock: OJICUG_clean_linker_0, # of connection points: 2
#     Edge 20, Type (0, 0), BuildingBlock: OJICUG_clean_linker_0, # of connection points: 2
#     Edge 21, Type (0, 0), BuildingBlock: OJICUG_clean_linker_0, # of connection points: 2
#     Edge 22, Type (0, 0), BuildingBlock: OJICUG_clean_linker_0, # of connection points: 2
#     Edge 23, Type (0, 0), BuildingBlock: OJICUG_clean_linker_0, # of connection points: 2
#     Edge 24, Type (0, 0), BuildingBlock: OJICUG_clean_linker_0, # of connection points: 2
#     Edge 25, Type (0, 0), BuildingBlock: OJICUG_clean_linker_0, # of connection points: 2
#     Edge 26, Type (0, 0), BuildingBlock: OJICUG_clean_linker_0, # of connection points: 2
#     Edge 27, Type (0, 0), BuildingBlock: OJICUG_clean_linker_0, # of connection points: 2
#     Edge 28, Type (0, 0), BuildingBlock: OJICUG_clean_linker_0, # of connection points: 2
#     Edge 29, Type (0, 0), BuildingBlock: OJICUG_clean_linker_0, # of connection points: 2
#     Edge 30, Type (0, 0), BuildingBlock: OJICUG_clean_linker_0, # of connection points: 2
#     Edge 31, Type (0, 0), BuildingBlock: OJICUG_clean_linker_0, # of connection points: 2
#     Edge 32, Type (0, 0), BuildingBlock: OJICUG_clean_linker_0, # of connection points: 2
#     Edge 33, Type (0, 0), BuildingBlock: OJICUG_clean_linker_0, # of connection points: 2
#     Edge 34, Type (0, 0), BuildingBlock: OJICUG_clean_linker_0, # of connection points: 2
#     Edge 35, Type (0, 0), BuildingBlock: OJICUG_clean_linker_0, # of connection points: 2
#     Edge 36, Type (0, 0), BuildingBlock: OJICUG_clean_linker_0, # of connection points: 2
#     Edge 37, Type (0, 0), BuildingBlock: OJICUG_clean_linker_0, # of connection points: 2
#     Edge 38, Type (0, 0), BuildingBlock: OJICUG_clean_linker_0, # of connection points: 2
#     Edge 39, Type (0, 0), BuildingBlock: OJICUG_clean_linker_0, # of connection points: 2
#     Edge 40, Type (0, 0), BuildingBlock: OJICUG_clean_linker_0, # of connection points: 2
#     Edge 41, Type (0, 0), BuildingBlock: OJICUG_clean_linker_0, # of connection points: 2
#     Edge 42, Type (0, 0), BuildingBlock: OJICUG_clean_linker_0, # of connection points: 2
#     Edge 43, Type (0, 0), BuildingBlock: OJICUG_clean_linker_0, # of connection points: 2
#     Edge 44, Type (0, 0), BuildingBlock: OJICUG_clean_linker_0, # of connection points: 2
#     Edge 45, Type (0, 0), BuildingBlock: OJICUG_clean_linker_0, # of connection points: 2
#     Edge 46, Type (0, 0), BuildingBlock: OJICUG_clean_linker_0, # of connection points: 2
#     Edge 47, Type (0, 0), BuildingBlock: OJICUG_clean_linker_0, # of connection points: 2
#     Edge 48, Type (0, 0), BuildingBlock: OJICUG_clean_linker_0, # of connection points: 2
#     Edge 49, Type (0, 0), BuildingBlock: OJICUG_clean_linker_0, # of connection points: 2
#     Edge 50, Type (0, 0), BuildingBlock: OJICUG_clean_linker_0, # of connection points: 2
#     Edge 51, Type (0, 0), BuildingBlock: OJICUG_clean_linker_0, # of connection points: 2
#     Edge 52, Type (0, 0), BuildingBlock: OJICUG_clean_linker_0, # of connection points: 2
#     Edge 53, Type (0, 0), BuildingBlock: OJICUG_clean_linker_0, # of connection points: 2
#     Edge 54, Type (0, 0), BuildingBlock: OJICUG_clean_linker_0, # of connection points: 2
#     Edge 55, Type (0, 0), BuildingBlock: OJICUG_clean_linker_0, # of connection points: 2
#     Edge 56, Type (0, 0), BuildingBlock: OJICUG_clean_linker_0, # of connection points: 2
#     Edge 57, Type (0, 0), BuildingBlock: OJICUG_clean_linker_0, # of connection points: 2
#     Edge 58, Type (0, 0), BuildingBlock: OJICUG_clean_linker_0, # of connection points: 2
#     Edge 59, Type (0, 0), BuildingBlock: OJICUG_clean_linker_0, # of connection points: 2
#     Edge 60, Type (0, 0), BuildingBlock: OJICUG_clean_linker_0, # of connection points: 2
#     Edge 61, Type (0, 0), BuildingBlock: OJICUG_clean_linker_0, # of connection points: 2
#     Edge 62, Type (0, 0), BuildingBlock: OJICUG_clean_linker_0, # of connection points: 2
#     Edge 63, Type (0, 0), BuildingBlock: OJICUG_clean_linker_0, # of connection points: 2
# Relax obj value: 0.412
# Max RMSD: 0.273
# Mean RMSD: 0.229
data_MOF--net-whw--node1-BETFEN_clean_sbu_0--edge1-OJICUG_clean_linker_0
_symmetry_space_group_name_H-M    P1
_symmetry_Int_Tables_number       1
_symmetry_cell_setting            triclinic
loop_
_symmetry_equiv_pos_as_xyz
'x, y, z'
_cell_length_a     33.921919
_cell_length_b     33.701576
_cell_length_c     27.389538
_cell_angle_alpha  90.427729
_cell_angle_beta   81.329843
_cell_angle_gamma 94.904832
loop_
_atom_site_label
_atom_site_type_symbol
_atom_site_fract_x
_atom_site_fract_y
_atom_site_fract_z
_atom_type_partial_charge
Pr0 Pr 0.04878 0.09235 0.21914 0.0
Pr1 Pr 0.02482 0.1318 0.11217 0.0
C2 C 0.07255 0.09675 0.31064 0.0
C3 C 0.07353 0.1112 0.36342 0.0
C4 C 0.07889 0.08445 0.4007 0.0
C5 C 0.08566 0.09771 0.44826 0.0
C6 C 0.08713 0.1386 0.46142 0.0
C7 C 0.08067 0.16527 0.42402 0.0
C8 C 0.07439 0.15194 0.37618 0.0
C9 C 0.0174 0.0413 0.1514 0.0
C10 C 0.95616 0.12189 0.21175 0.0
C11 C 0.00491 0.1513 1.0228 0.0
C12 C -0.00697 0.16396 0.97419 0.0
C13 C 0.97522 0.19995 0.97049 0.0
C14 C 0.96281 0.21171 0.92613 0.0
C15 C 0.96773 0.18816 0.88297 0.0
C16 C -0.01439 0.15202 0.88683 0.0
C17 C -0.00205 0.14019 0.93143 0.0
C18 C 0.06396 0.18085 0.17659 0.0
C19 C 0.11086 0.08596 0.115 0.0
O20 O 0.08591 0.1215 0.27402 0.0
O21 O 0.04652 0.06829 0.29892 0.0
O22 O 0.0082 0.07627 0.16114 0.0
O23 O 0.04051 0.02914 0.18192 0.0
O24 O 0.9626 0.12655 0.16316 0.0
O25 O 0.98373 0.11285 0.23855 0.0
O26 O 0.0186 0.11691 1.0307 0.0
O27 O 0.00282 0.17507 0.06103 0.0
O28 O 0.06718 0.14492 0.16847 0.0
O29 O 0.04224 0.19435 0.14602 0.0
O30 O 0.10588 0.08089 0.16362 0.0
O31 O 0.08502 0.1016 0.08991 0.0
H32 H 0.07922 0.05297 0.39254 0.0
H33 H 0.09097 0.07539 0.47405 0.0
H34 H 0.0805 0.19683 0.43121 0.0
H35 H 0.07084 0.17385 0.3488 0.0
H36 H 0.97045 0.2192 1.00229 0.0
H37 H 0.94865 0.23928 0.9263 0.0
H38 H -0.00938 0.13276 0.85515 0.0
H39 H 0.01137 0.11223 0.93236 0.0
Pr40 Pr 0.1704 0.79768 0.4159 0.0
Pr41 Pr 0.17044 0.7223 0.35916 0.0
C42 C 0.16606 0.85911 0.47902 0.0
C43 C 0.1505 0.868 0.53081 0.0
C44 C 0.16961 0.85669 0.57008 0.0
C45 C 0.1539 0.86525 0.61883 0.0
C46 C 0.11885 0.88517 0.62905 0.0
C47 C 0.10038 0.89711 0.58964 0.0
C48 C 0.11609 0.88871 0.5411 0.0
C49 C 0.23893 0.79384 0.34449 0.0
C50 C 0.17336 0.71362 0.47792 0.0
C51 C 0.18137 0.6594 0.29951 0.0
C52 C 0.1644 0.65143 0.25385 0.0
C53 C 0.16979 0.61603 0.22749 0.0
C54 C 0.1516 0.60878 0.18521 0.0
C55 C 0.12749 0.63668 0.16946 0.0
C56 C 0.1228 0.67227 0.19564 0.0
C57 C 0.14125 0.67963 0.23724 0.0
C58 C 0.09316 0.74485 0.38702 0.0
C59 C 0.15178 0.80405 0.30584 0.0
O60 O 0.13941 0.85009 0.44977 0.0
O61 O 0.19711 0.83808 0.47073 0.0
O62 O 0.2233 0.76557 0.37341 0.0
O63 O 0.22028 0.82545 0.35418 0.0
O64 O 0.17555 0.69426 0.43575 0.0
O65 O 0.17139 0.75245 0.47976 0.0
O66 O 0.20745 0.6905 0.29772 0.0
O67 O 0.1551 0.65799 0.3398 0.0
O68 O 0.1194 0.74687 0.41568 0.0
O69 O 0.10667 0.73138 0.34395 0.0
O70 O 0.14008 0.81725 0.35054 0.0
O71 O 0.17017 0.77108 0.29912 0.0
H72 H 0.19642 0.84094 0.5633 0.0
H73 H 0.16859 0.85546 0.64852 0.0
H74 H 0.07369 0.91305 0.59633 0.0
H75 H 0.10111 0.89829 0.51153 0.0
H76 H 0.18757 0.59396 0.23983 0.0
H77 H 0.15554 0.58105 0.16555 0.0
H78 H 0.10488 0.69448 0.18386 0.0
H79 H 0.13708 0.70731 0.25675 0.0
Pr80 Pr 0.44958 0.82925 0.66466 0.0
Pr81 Pr 0.53314 0.86455 0.67206 0.0
C82 C 0.37595 0.81683 0.64066 0.0
C83 C 0.35974 0.83429 0.59991 0.0
C84 C 0.33497 0.81091 0.57254 0.0
C85 C 0.32683 0.82517 0.52765 0.0
C86 C 0.34399 0.86273 0.50933 0.0
C87 C 0.36602 0.8872 0.53908 0.0
C88 C 0.3738 0.87311 0.58391 0.0
C89 C 0.49836 0.77971 0.70408 0.0
C90 C 0.52201 0.81622 0.56777 0.0
C91 C 0.60193 0.89495 0.69989 0.0
C92 C 0.61703 0.89078 0.74677 0.0
C93 C 0.63821 0.92309 0.76641 0.0
C94 C 0.64682 0.92113 0.81466 0.0
C95 C 0.63453 0.8867 0.84348 0.0
C96 C 0.61431 0.85406 0.82307 0.0
C97 C 0.60541 0.8562 0.77532 0.0
C98 C 0.49572 0.90874 0.61107 0.0
C99 C 0.46485 0.84597 0.77901 0.0
O100 O 0.3848 0.84203 0.67478 0.0
O101 O 0.4037 0.79242 0.62742 0.0
O102 O 0.50739 0.80225 0.6679 0.0
O103 O 0.45997 0.7768 0.71888 0.0
O104 O 0.5483 0.82615 0.59844 0.0
O105 O 0.48322 0.81987 0.58223 0.0
O106 O 0.59953 0.86268 0.67322 0.0
O107 O 0.57018 0.91486 0.7029 0.0
O108 O 0.47774 0.89478 0.65261 0.0
O109 O 0.53308 0.90233 0.60347 0.0
O110 O 0.43692 0.84022 0.75036 0.0
O111 O 0.50292 0.8542 0.75846 0.0
H112 H 0.32378 0.78093 0.58448 0.0
H113 H 0.30887 0.80596 0.50614 0.0
H114 H 0.38003 0.91607 0.52623 0.0
H115 H 0.39315 0.89172 0.6044 0.0
H116 H 0.64674 0.95027 0.74514 0.0
H117 H 0.66238 0.94666 0.82977 0.0
H118 H 0.60372 0.8275 0.84484 0.0
H119 H 0.58793 0.83141 0.76154 0.0
Pr120 Pr 0.34401 0.18191 0.9766 0.0
Pr121 Pr 0.34811 0.26235 0.93406 0.0
C122 C 0.34183 0.11682 1.03313 0.0
C123 C 0.3569 0.10823 0.07879 0.0
C124 C 0.33458 0.08156 0.11344 0.0
C125 C 0.34788 0.07485 0.15827 0.0
C126 C 0.38376 0.09474 0.16879 0.0
C127 C 0.40606 0.12129 0.13355 0.0
C128 C 0.39254 0.12828 0.08922 0.0
C129 C 0.27584 0.19682 0.93653 0.0
C130 C 0.34 0.26018 0.04981 0.0
C131 C 0.34152 0.32387 0.87522 0.0
C132 C 0.36035 0.32965 0.82394 0.0
C133 C 0.34454 0.35392 0.79186 0.0
C134 C 0.36118 0.35626 0.74196 0.0
C135 C 0.39363 0.33416 0.72386 0.0
C136 C 0.40911 0.30975 0.75626 0.0
C137 C 0.39263 0.30756 0.80587 0.0
C138 C 0.42239 0.24616 0.95894 0.0
C139 C 0.36971 0.18487 0.86017 0.0
O140 O 0.36886 0.12467 0.99424 0.0
O141 O 0.31306 0.14062 1.0378 0.0
O142 O 0.29337 0.22071 0.96385 0.0
O143 O 0.29262 0.16374 0.93108 0.0
O144 O 0.32552 0.2786 1.01521 0.0
O145 O 0.35513 0.22571 1.04064 0.0
O146 O 0.31463 0.29356 0.88232 0.0
O147 O 0.36617 0.32564 0.90766 0.0
O148 O 0.39937 0.22138 0.93933 0.0
O149 O 0.40754 0.28038 0.96506 0.0
O150 O 0.37249 0.16347 0.89915 0.0
O151 O 0.358 0.22124 0.8644 0.0
H152 H 0.30666 0.06633 0.10606 0.0
H153 H 0.32982 0.05463 0.18488 0.0
H154 H 0.43423 0.13653 0.13995 0.0
H155 H 0.40992 0.14946 0.06316 0.0
H156 H 0.31926 0.37068 0.80524 0.0
H157 H 0.34897 0.37556 0.71766 0.0
H158 H 0.43365 0.29195 0.74312 0.0
H159 H 0.40477 0.2881 0.83007 0.0
Pr160 Pr 0.04485 0.89401 0.94534 0.0
Pr161 Pr 0.96335 0.89894 0.9153 0.0
C162 C 0.11182 0.89897 0.9873 0.0
C163 C 0.12015 0.90459 1.03775 0.0
C164 C 0.08857 0.90008 0.07723 0.0
C165 C 0.09635 0.89484 0.12504 0.0
C166 C 0.13589 0.89338 0.13368 0.0
C167 C 0.16761 0.90209 0.09489 0.0
C168 C 0.15972 0.90765 1.04698 0.0
C169 C 0.01715 0.82326 0.90262 0.0
C170 C 0.96192 0.87548 1.02831 0.0
C171 C 0.89971 0.89681 0.86728 0.0
C172 C 0.88948 0.88009 0.82027 0.0
C173 C 0.88881 0.90527 0.77974 0.0
C174 C 0.88122 0.8894 0.73439 0.0
C175 C 0.87394 0.84804 0.72884 0.0
C176 C 0.87352 0.82309 0.76989 0.0
C177 C 0.88132 0.83886 0.81496 0.0
C178 C -0.01323 0.96487 0.96984 0.0
C179 C 0.04451 0.90683 0.8302 0.0
O180 O 0.1001 0.92942 0.96584 0.0
O181 O 0.09125 0.86544 0.98017 0.0
O182 O -0.00429 0.84422 0.93265 0.0
O183 O 0.05373 0.83912 0.89371 0.0
O184 O 0.94081 0.87004 0.99186 0.0
O185 O 0.0003 0.88825 1.02019 0.0
O186 O 0.90285 0.87144 0.90225 0.0
O187 O 0.92722 0.92679 0.86373 0.0
O188 O 0.00987 0.94781 0.93698 0.0
O189 O 0.94999 0.95078 0.97064 0.0
O190 O 0.06594 0.91685 0.86519 0.0
O191 O 0.00658 0.89361 0.84108 0.0
H192 H 0.05788 0.89713 0.07068 0.0
H193 H 0.07136 0.88784 0.15413 0.0
H194 H 0.19838 0.90141 0.10097 0.0
H195 H 0.18439 0.9112 1.0168 0.0
H196 H 0.89481 0.9372 0.78289 0.0
H197 H 0.88202 0.90942 0.70344 0.0
H198 H 0.86717 0.79116 0.76726 0.0
H199 H 0.88131 0.81856 0.84543 0.0
Pr200 Pr 0.41623 0.81822 0.11408 0.0
Pr201 Pr 0.38909 0.73441 0.08465 0.0
C202 C 0.41961 0.89038 0.15605 0.0
C203 C 0.39975 0.90371 0.20383 0.0
C204 C 0.42241 0.92396 0.23654 0.0
C205 C 0.40719 0.92519 0.28683 0.0
C206 C 0.36934 0.90614 0.30434 0.0
C207 C 0.34524 0.88974 0.27092 0.0
C208 C 0.36028 0.88864 0.22091 0.0
C209 C 0.48068 0.77278 0.08164 0.0
C210 C 0.41716 0.74472 0.19741 0.0
C211 C 0.37251 0.66622 1.03871 0.0
C212 C 0.3741 0.65927 0.98558 0.0
C213 C 0.34272 0.63663 0.9677 0.0
C214 C 0.3416 0.63445 0.91688 0.0
C215 C 0.37164 0.65531 0.88342 0.0
C216 C 0.40275 0.67822 0.90177 0.0
C217 C 0.40395 0.68018 0.95222 0.0
C218 C 0.33216 0.76453 0.15418 0.0
C219 C 0.41833 0.80558 0.99334 0.0
O220 O 0.39629 0.88048 0.12306 0.0
O221 O 0.44612 0.86486 0.15918 0.0
O222 O 0.44697 0.76118 0.10416 0.0
O223 O 0.48104 0.81057 0.0717 0.0
O224 O 0.41304 0.71909 0.16048 0.0
O225 O 0.41478 0.78348 0.19036 0.0
O226 O 0.40691 0.67476 0.05458 0.0
O227 O 0.34486 0.68923 0.05706 0.0
O228 O 0.35232 0.78595 0.1187 0.0
O229 O 0.33761 0.7272 0.14849 0.0
O230 O 0.42309 0.83214 1.02819 0.0
O231 O 0.40496 0.76831 1.0059 0.0
H232 H 0.45298 0.93568 0.22398 0.0
H233 H 0.42625 0.9378 0.3124 0.0
H234 H 0.31597 0.87515 0.28415 0.0
H235 H 0.34224 0.87312 0.19629 0.0
H236 H 0.31887 0.62111 0.99306 0.0
H237 H 0.31748 0.61632 0.9037 0.0
H238 H 0.42704 0.69373 0.87705 0.0
H239 H 0.42815 0.69842 0.96509 0.0
Pr240 Pr 0.46285 0.07684 0.45017 0.0
Pr241 Pr 0.54173 0.07501 0.3861 0.0
C242 C 0.40187 0.06421 0.5242 0.0
C243 C 0.39612 0.08212 0.57297 0.0
C244 C 0.41753 0.1185 0.58072 0.0
C245 C 0.41479 0.13471 0.62773 0.0
C246 C 0.39083 0.11461 0.66769 0.0
C247 C 0.36988 0.07783 0.66002 0.0
C248 C 0.37254 0.06162 0.61272 0.0
C249 C 0.48675 0.15084 0.40431 0.0
C250 C 0.54756 0.10402 0.49693 0.0
C251 C 0.6031 0.07689 0.31061 0.0
C252 C 0.61549 0.09655 0.26168 0.0
C253 C 0.61303 0.07508 0.21782 0.0
C254 C 0.62463 0.09365 0.1716 0.0
C255 C 0.63916 0.13408 0.16826 0.0
C256 C 0.64244 0.15513 0.21226 0.0
C257 C 0.63069 0.13671 0.25825 0.0
C258 C 0.51674 0.00641 0.44485 0.0
C259 C 0.459 0.06782 0.33761 0.0
O260 O 0.4316 0.04165 0.51675 0.0
O261 O 0.40082 0.08828 0.48725 0.0
O262 O 0.51014 0.12893 0.42127 0.0
O263 O 0.44997 0.13516 0.41233 0.0
O264 O 0.56822 0.10363 0.45225 0.0
O265 O 0.50865 0.09348 0.50533 0.0
O266 O 0.60313 0.09939 0.34976 0.0
O267 O 0.57281 0.0497 0.3148 0.0
O268 O 0.49559 0.02423 0.41949 0.0
O269 O 0.55304 0.023 0.43765 0.0
O270 O 0.44136 0.05124 0.3792 0.0
O271 O 0.49504 0.08627 0.33443 0.0
H272 H 0.43679 0.13412 0.55047 0.0
H273 H 0.43174 0.16276 0.63297 0.0
H274 H 0.35114 0.06192 0.69042 0.0
H275 H 0.35659 0.03308 0.60723 0.0
H276 H 0.60183 0.04396 0.21924 0.0
H277 H 0.62137 0.07656 0.1386 0.0
H278 H 0.65425 0.18605 0.21128 0.0
H279 H 0.63354 0.15413 0.29112 0.0
Pr280 Pr 0.09702 0.18001 0.78481 0.0
Pr281 Pr 0.11247 0.26743 0.75088 0.0
C282 C 0.10273 0.10672 0.82004 0.0
C283 C 0.12136 0.08683 0.85729 0.0
C284 C 0.09711 0.06375 0.89427 0.0
C285 C 0.11355 0.04898 0.93339 0.0
C286 C 0.15456 0.05735 0.93632 0.0
C287 C 0.1794 0.07721 0.89684 0.0
C288 C 0.16296 0.09163 0.85746 0.0
C289 C 0.03666 0.20696 0.73799 0.0
C290 C 0.07196 0.25266 0.86807 0.0
C291 C 0.12558 0.33888 0.70529 0.0
C292 C 0.12529 0.35061 0.65401 0.0
C293 C 0.14187 0.38818 0.6361 0.0
C294 C 0.14544 0.39693 0.58559 0.0
C295 C 0.13265 0.36799 0.55274 0.0
C296 C 0.11487 0.33099 0.57144 0.0
C297 C 0.11171 0.32235 0.62138 0.0
C298 C 0.16829 0.24266 0.8062 0.0
C299 C 0.1156 0.19409 0.66283 0.0
O300 O 0.1271 0.12309 0.78264 0.0
O301 O 0.07286 0.12806 0.83611 0.0
O302 O 0.05557 0.22644 0.76769 0.0
O303 O 0.04395 0.16981 0.73874 0.0
O304 O 0.07454 0.27733 0.82977 0.0
O305 O 0.08299 0.21567 0.86132 0.0
O306 O 0.09092 0.32605 0.73037 0.0
O307 O 0.1542 0.31656 0.71124 0.0
O308 O 0.15484 0.22197 0.7724 0.0
O309 O 0.15452 0.27734 0.80988 0.0
O310 O 0.11352 0.16774 0.69893 0.0
O311 O 0.11549 0.23261 0.67334 0.0
H312 H 0.06509 0.05896 0.89433 0.0
H313 H 0.09335 0.03426 0.96352 0.0
H314 H 0.21101 0.08405 0.89819 0.0
H315 H 0.18263 0.1081 0.82846 0.0
H316 H 0.15298 0.41022 0.66082 0.0
H317 H 0.15929 0.42569 0.57207 0.0
H318 H 0.10381 0.30839 0.54736 0.0
H319 H 0.09946 0.29314 0.63429 0.0
Pr320 Pr 0.91182 0.3145 0.61442 0.0
Pr321 Pr 0.88887 0.22991 0.58375 0.0
C322 C 0.91066 0.38661 0.65691 0.0
C323 C 0.89035 0.40115 0.70405 0.0
C324 C 0.91322 0.41923 0.73803 0.0
C325 C 0.89606 0.42353 0.78722 0.0
C326 C 0.85595 0.40958 0.8028 0.0
C327 C 0.83214 0.39547 0.76776 0.0
C328 C 0.84917 0.39145 0.71862 0.0
C329 C 0.97901 0.2732 0.58091 0.0
C330 C 0.917 0.24048 0.69603 0.0
C331 C 0.87449 0.16082 0.53852 0.0
C332 C 0.87475 0.15321 0.48579 0.0
C333 C 0.84498 0.12701 0.46979 0.0
C334 C 0.84245 0.12353 0.4194 0.0
C335 C 0.8693 0.14676 0.38464 0.0
C336 C 0.89867 0.17334 0.40114 0.0
C337 C 0.90141 0.17645 0.45111 0.0
C338 C 0.83059 0.25775 0.65366 0.0
C339 C 0.91416 0.30211 0.49318 0.0
O340 O 0.88786 0.37501 0.62398 0.0
O341 O 0.93836 0.36254 0.66077 0.0
O342 O 0.94586 0.25951 0.60329 0.0
O343 O 0.97724 0.31088 0.57195 0.0
O344 O 0.91403 0.21517 0.6586 0.0
O345 O 0.91272 0.27904 0.68992 0.0
O346 O 0.90925 0.17151 0.55244 0.0
O347 O 0.84598 0.18245 0.55792 0.0
O348 O 0.84954 0.2795 0.61787 0.0
O349 O 0.83824 0.22092 0.64868 0.0
O350 O 0.9182 0.32858 0.52839 0.0
O351 O 0.90232 0.26442 0.5053 0.0
H352 H 0.94498 0.42718 0.72743 0.0
H353 H 0.91503 0.43444 0.81376 0.0
H354 H 0.80103 0.38512 0.77913 0.0
H355 H 0.83068 0.37829 0.69288 0.0
H356 H 0.82357 0.10953 0.49626 0.0
H357 H 0.81991 0.10247 0.40751 0.0
H358 H 0.92065 0.19074 0.37525 0.0
H359 H 0.92436 0.19723 0.46259 0.0
Pr360 Pr 0.59832 0.67976 0.28487 0.0
Pr361 Pr 0.61199 0.76703 0.24963 0.0
C362 C 0.60647 0.60811 0.32304 0.0
C363 C 0.62626 0.59121 0.36147 0.0
C364 C 0.60357 0.56669 0.39815 0.0
C365 C 0.62065 0.55458 0.43819 0.0
C366 C 0.66059 0.56727 0.44272 0.0
C367 C 0.68421 0.58898 0.40379 0.0
C368 C 0.66725 0.6005 0.36325 0.0
C369 C 0.53628 0.70533 0.24013 0.0
C370 C 0.5729 0.75332 0.36714 0.0
C371 C 0.62456 0.8385 0.20401 0.0
C372 C 0.62409 0.85052 0.15292 0.0
C373 C 0.63977 0.88852 0.13563 0.0
C374 C 0.64349 0.89758 0.08521 0.0
C375 C 0.63177 0.86851 0.05188 0.0
C376 C 0.61478 0.83109 0.06996 0.0
C377 C 0.61143 0.82216 0.11984 0.0
C378 C 0.66877 0.74372 0.30443 0.0
C379 C 0.61401 0.6929 0.16232 0.0
O380 O 0.63005 0.6239 0.28459 0.0
O381 O 0.57567 0.62857 0.338 0.0
O382 O 0.55575 0.7253 0.26889 0.0
O383 O 0.54411 0.6683 0.24082 0.0
O384 O 0.57457 0.77743 0.32851 0.0
O385 O 0.58447 0.71648 0.36076 0.0
O386 O 0.59 0.82547 0.22915 0.0
O387 O 0.6533 0.81621 0.20955 0.0
O388 O 0.6554 0.7226 0.27095 0.0
O389 O 0.6543 0.77804 0.30812 0.0
O390 O 0.61288 0.66675 0.19857 0.0
O391 O 0.61377 0.73149 0.17266 0.0
H392 H 0.57211 0.55852 0.39707 0.0
H393 H 0.60154 0.53811 0.46765 0.0
H394 H 0.71508 0.599 0.40609 0.0
H395 H 0.68585 0.61802 0.33438 0.0
H396 H 0.65015 0.91064 0.16075 0.0
H397 H 0.65669 0.92668 0.07211 0.0
H398 H 0.60461 0.80839 1.04539 0.0
H399 H 0.59985 0.79267 0.1324 0.0
Pr400 Pr 0.67011 0.30002 0.91519 0.0
Pr401 Pr 0.66659 0.22143 0.86608 0.0
C402 C 0.67205 0.36147 0.97821 0.0
C403 C 0.65418 0.37044 1.02925 0.0
C404 C 0.67551 0.3663 0.06889 0.0
C405 C 0.65798 0.37393 0.11724 0.0
C406 C 0.6189 0.38601 0.12672 0.0
C407 C 0.59808 0.39098 0.08688 0.0
C408 C 0.61547 0.38331 1.03878 0.0
C409 C 0.73526 0.29163 0.84123 0.0
C410 C 0.67425 0.21816 0.98007 0.0
C411 C 0.67583 0.16237 0.79933 0.0
C412 C 0.65987 0.15502 0.75301 0.0
C413 C 0.67179 0.1236 0.72203 0.0
C414 C 0.65532 0.11664 0.67853 0.0
C415 C 0.62684 0.14116 0.66569 0.0
C416 C 0.61582 0.1731 0.69648 0.0
C417 C 0.63195 0.17971 0.7399 0.0
C418 C 0.59309 0.23332 0.92413 0.0
C419 C 0.63666 0.30135 0.81288 0.0
O420 O 0.64765 0.35757 0.94539 0.0
O421 O 0.69915 0.33569 0.97265 0.0
O422 O 0.72092 0.26518 0.87344 0.0
O423 O 0.71756 0.32399 0.84918 0.0
O424 O 0.68808 0.20102 0.93834 0.0
O425 O 0.66019 0.25333 0.97946 0.0
O426 O 0.70143 0.19359 0.7993 0.0
O427 O 0.64926 0.1597 0.83917 0.0
O428 O 0.61506 0.25995 0.89813 0.0
O429 O 0.60842 0.19925 0.91924 0.0
O430 O 0.63641 0.32095 0.85454 0.0
O431 O 0.6492 0.26524 0.80751 0.0
H432 H 0.70556 0.35678 0.06263 0.0
H433 H 0.67468 0.36956 0.14722 0.0
H434 H 0.56821 0.40094 0.09285 0.0
H435 H 0.59836 0.38733 1.0091 0.0
H436 H 0.69328 0.10419 0.73181 0.0
H437 H 0.66404 0.09155 0.65569 0.0
H438 H 0.59439 0.19282 0.68725 0.0
H439 H 0.62212 0.20372 0.76378 0.0
Pr440 Pr 0.84719 0.69304 0.47386 0.0
Pr441 Pr 0.84255 0.77105 0.42692 0.0
C442 C 0.84985 0.62876 0.53026 0.0
C443 C 0.8641 0.61897 0.57626 0.0
C444 C 0.83969 0.59364 0.61087 0.0
C445 C 0.85184 0.58553 0.65601 0.0
C446 C 0.88867 0.60263 0.66707 0.0
C447 C 0.91321 0.62765 0.63185 0.0
C448 C 0.9009 0.63601 0.58706 0.0
C449 C 0.77481 0.70127 0.43823 0.0
C450 C 0.84684 0.77353 0.54453 0.0
C451 C 0.82819 0.83599 0.37933 0.0
C452 C 0.8474 0.84945 0.32968 0.0
C453 C 0.88881 0.84754 0.31595 0.0
C454 C 0.90647 0.85335 0.26703 0.0
C455 C 0.88326 0.86143 0.23051 0.0
C456 C 0.84191 0.86426 0.24433 0.0
C457 C 0.82411 0.85823 0.29358 0.0
C458 C 0.92177 0.75162 0.41844 0.0
C459 C 0.86183 0.69348 0.35685 0.0
O460 O 0.87701 0.63876 0.49199 0.0
O461 O 0.81946 0.65062 0.53528 0.0
O462 O 0.79246 0.72698 0.463 0.0
O463 O 0.79434 0.66992 0.43208 0.0
O464 O 0.83625 0.79358 0.50828 0.0
O465 O 0.85495 0.73611 0.53922 0.0
O466 O 0.80517 0.80271 0.38016 0.0
O467 O 0.85124 0.83759 0.41377 0.0
O468 O 0.8966 0.7458 0.45751 0.0
O469 O 0.90595 0.76708 0.38375 0.0
O470 O 0.87552 0.67829 0.39442 0.0
O471 O 0.84156 0.72535 0.36228 0.0
H472 H 0.81095 0.5806 0.60322 0.0
H473 H 0.8321 0.56654 0.68255 0.0
H474 H 0.94212 0.64074 0.63877 0.0
H475 H 0.92005 0.65597 0.56108 0.0
H476 H 0.90753 0.84005 0.34266 0.0
H477 H 0.93821 0.85013 0.25758 0.0
H478 H 0.82329 0.87074 0.21706 0.0
H479 H 0.79203 0.85914 0.30319 0.0
Pr480 Pr 0.5441 0.58921 0.7205 0.0
Pr481 Pr 0.52718 0.63296 0.61145 0.0
C482 C 0.56516 0.59076 0.81354 0.0
C483 C 0.56781 0.6089 0.86457 0.0
C484 C 0.55148 0.58783 0.90836 0.0
C485 C 0.55861 0.60177 0.95568 0.0
C486 C 0.58279 0.63745 0.96175 0.0
C487 C 0.5983 0.65895 0.91772 0.0
C488 C 0.59106 0.64504 0.87049 0.0
C489 C 0.52442 0.53882 0.64433 0.0
C490 C 0.45477 0.62242 0.71001 0.0
C491 C 0.50371 0.65624 0.52561 0.0
C492 C 0.49067 0.6691 0.4777 0.0
C493 C 0.47292 0.70514 0.47409 0.0
C494 C 0.46052 0.71694 0.4296 0.0
C495 C 0.46554 0.6934 0.38634 0.0
C496 C 0.4836 0.6574 0.39016 0.0
C497 C 0.49575 0.6455 0.43477 0.0
C498 C 0.56933 0.67441 0.67918 0.0
C499 C 0.61339 0.59383 0.61964 0.0
O500 O 0.58646 0.60858 0.77457 0.0
O501 O 0.53277 0.56996 0.803 0.0
O502 O 0.51369 0.57341 0.65278 0.0
O503 O 0.54044 0.52584 0.6814 0.0
O504 O 0.46499 0.63339 0.66299 0.0
O505 O 0.47892 0.60747 0.73768 0.0
O506 O 0.51487 0.62051 0.53232 0.0
O507 O 0.50463 0.67971 0.56408 0.0
O508 O 0.54024 0.64911 0.68778 0.0
O509 O 0.57538 0.68334 0.63204 0.0
O510 O 0.60601 0.58978 0.6684 0.0
O511 O 0.58777 0.60528 0.59152 0.0
H512 H 0.53377 0.55976 0.90605 0.0
H513 H 0.54502 0.58414 0.9876 0.0
H514 H 0.61737 0.6862 0.9192 0.0
H515 H 0.6048 0.66232 0.83827 0.0
H516 H 0.46832 0.72436 0.50594 0.0
H517 H 0.44644 0.74455 0.42967 0.0
H518 H 0.48904 0.63831 0.35836 0.0
H519 H 0.50947 0.61769 0.43544 0.0
Pr520 Pr 0.94342 0.32995 0.1634 0.0
Pr521 Pr 0.02801 0.36149 0.17315 0.0
C522 C 0.87022 0.32203 0.13681 0.0
C523 C 0.85516 0.34035 0.0957 0.0
C524 C 0.82389 0.32123 0.07407 0.0
C525 C 0.81376 0.33668 1.03073 0.0
C526 C 0.83543 0.37097 1.00797 0.0
C527 C 0.86521 0.39106 1.03178 0.0
C528 C 0.87469 0.37604 0.07529 0.0
C529 C -0.0135 0.27752 0.20711 0.0
C530 C 0.01776 0.31283 0.06941 0.0
C531 C 0.09613 0.39242 0.20259 0.0
C532 C 0.11109 0.38869 0.24965 0.0
C533 C 0.13615 0.41944 0.2664 0.0
C534 C 0.14582 0.41792 0.31424 0.0
C535 C 0.13083 0.38539 0.34534 0.0
C536 C 0.10635 0.35444 0.328 0.0
C537 C 0.09623 0.35633 0.28084 0.0
C538 C -0.00608 0.40683 0.10951 0.0
C539 C 0.95853 0.34474 0.27897 0.0
O540 O 0.88006 0.34702 0.17069 0.0
O541 O 0.89672 0.29622 0.12422 0.0
O542 O -0.00114 0.29973 0.17092 0.0
O543 O 0.94779 0.27628 0.21838 0.0
O544 O 0.04352 0.32175 0.10103 0.0
O545 O 0.97908 0.31811 0.08244 0.0
O546 O 0.09438 0.3601 0.17587 0.0
O547 O 0.06403 0.41177 0.20537 0.0
O548 O 0.97493 0.39417 0.15119 0.0
O549 O 0.03059 0.39813 0.10276 0.0
O550 O 0.93071 0.34029 0.24983 0.0
O551 O -0.00318 0.3518 0.25894 0.0
H552 H 0.80826 0.29378 0.08969 0.0
H553 H 0.78998 0.32091 1.01418 0.0
H554 H 0.88308 0.41712 1.0155 0.0
H555 H 0.89866 0.3914 0.0919 0.0
H556 H 0.14715 0.44508 0.24312 0.0
H557 H 0.16454 0.44222 0.32716 0.0
H558 H 0.09362 0.32952 0.35171 0.0
H559 H 0.07553 0.33321 0.26957 0.0
Pr560 Pr 0.54432 0.39468 0.44011 0.0
Pr561 Pr 0.46123 0.39101 0.4135 0.0
C562 C 0.60843 0.411 0.48574 0.0
C563 C 0.61596 0.40159 0.53571 0.0
C564 C 0.63661 0.36827 0.54274 0.0
C565 C 0.63759 0.35434 0.59011 0.0
C566 C 0.61839 0.37376 0.63134 0.0
C567 C 0.60014 0.40873 0.62473 0.0
C568 C 0.59884 0.42257 0.57714 0.0
C569 C 0.52256 0.32108 0.39868 0.0
C570 C 0.46605 0.35857 0.52207 0.0
C571 C 0.39551 0.38643 0.36916 0.0
C572 C 0.38392 0.36997 0.32269 0.0
C573 C 0.3882 0.39373 0.27985 0.0
C574 C 0.37918 0.37726 0.23539 0.0
C575 C 0.36565 0.3368 0.2331 0.0
C576 C 0.3601 0.31355 0.27634 0.0
C577 C 0.36907 0.32991 0.32058 0.0
C578 C 0.47987 0.4556 0.47284 0.0
C579 C 0.54057 0.40621 0.32657 0.0
O580 O 0.58212 0.43666 0.48254 0.0
O581 O 0.60481 0.38053 0.45645 0.0
O582 O 0.49961 0.34067 0.42844 0.0
O583 O 0.55856 0.33879 0.39093 0.0
O584 O 0.44381 0.35557 0.48649 0.0
O585 O 0.50339 0.37482 0.51447 0.0
O586 O 0.4015 0.36064 0.40227 0.0
O587 O 0.42151 0.41773 0.36546 0.0
O588 O 0.50269 0.44373 0.43563 0.0
O589 O 0.44509 0.43592 0.4771 0.0
O590 O 0.56093 0.42041 0.36091 0.0
O591 O 0.50434 0.38832 0.33847 0.0
H592 H 0.65051 0.35187 0.51154 0.0
H593 H 0.65275 0.32785 0.5945 0.0
H594 H 0.58549 0.42435 0.65615 0.0
H595 H 0.58304 0.44864 0.57291 0.0
H596 H 0.39918 0.42484 0.28043 0.0
H597 H 0.38388 0.39586 0.2026 0.0
H598 H 0.34897 0.28246 0.27596 0.0
H599 H 0.36484 0.3109 0.35298 0.0
Pr600 Pr 0.96079 0.57771 0.95392 0.0
Pr601 Pr 0.0403 0.5801 0.8895 0.0
C602 C 0.89997 0.56138 1.02735 0.0
C603 C 0.89033 0.58014 0.07539 0.0
C604 C 0.89837 0.62142 0.08008 0.0
C605 C 0.89291 0.639 0.12636 0.0
C606 C 0.87979 0.61555 0.16872 0.0
C607 C 0.87206 0.57418 0.16413 0.0
C608 C 0.87723 0.55656 0.11757 0.0
C609 C 0.98183 0.65312 0.91145 0.0
C610 C 0.04532 0.60564 1.00173 0.0
C611 C 0.10239 0.58511 0.81491 0.0
C612 C 0.11377 0.6016 0.76435 0.0
C613 C 0.1509 0.62361 0.75204 0.0
C614 C 0.16252 0.63989 0.70473 0.0
C615 C 0.13732 0.63435 0.66847 0.0
C616 C 0.10021 0.6119 0.68066 0.0
C617 C 0.08845 0.59582 0.72823 0.0
C618 C 0.0175 0.50991 0.94589 0.0
C619 C 0.95789 0.57241 0.84007 0.0
O620 O 0.9325 0.54267 1.02211 0.0
O621 O 0.89679 0.5829 0.98879 0.0
O622 O 0.0062 0.63163 0.92717 0.0
O623 O 0.94541 0.63664 0.92003 0.0
O624 O 0.06613 0.60637 0.95709 0.0
O625 O 0.00637 0.59492 1.00973 0.0
O626 O 0.09871 0.6108 0.85104 0.0
O627 O 0.07543 0.55465 0.82137 0.0
O628 O -0.00427 0.5273 0.92088 0.0
O629 O 0.0532 0.52798 0.93981 0.0
O630 O 0.94016 0.55452 0.88093 0.0
O631 O -0.0062 0.59091 0.83776 0.0
H632 H 0.90969 0.64003 1.04808 0.0
H633 H 0.89978 0.67086 0.12916 0.0
H634 H 0.86192 0.55559 0.19645 0.0
H635 H 0.87176 0.52455 0.11453 0.0
H636 H 0.17096 0.62834 0.7792 0.0
H637 H 0.19141 0.65671 0.69646 0.0
H638 H 0.07988 0.60754 0.65379 0.0
H639 H 0.05948 0.57916 0.7368 0.0
C640 C 0.14134 0.0321 0.06797 0.0
C641 C 0.14569 0.07142 0.0846 0.0
H642 H 0.14182 -0.00441 1.00371 0.0
C643 C 0.1707 0.09971 0.05482 0.0
H644 H 0.12333 0.00946 0.0912 0.0
C645 C 0.18205 0.0917 1.00496 0.0
C646 C 0.16767 0.05558 0.98527 0.0
H647 H 0.17501 0.13012 0.06743 0.0
H648 H 0.19519 0.11632 0.981 0.0
C649 C 0.15197 0.02415 1.01784 0.0
C650 C 0.16868 0.81859 0.21625 0.0
C651 C 0.14807 0.8281 0.2626 0.0
H652 H 0.18168 0.83263 0.13953 0.0
C653 C 0.12537 0.86126 0.26713 0.0
H654 H 0.18655 0.79329 0.21156 0.0
C655 C 0.12266 0.88399 0.22552 0.0
C656 C 0.14314 0.87415 0.17917 0.0
H657 H 0.10925 0.86925 0.30254 0.0
H658 H 0.10409 0.90877 0.22932 0.0
C659 C 0.16647 0.84153 0.17506 0.0
C660 C 0.35276 0.92506 0.39293 0.0
C661 C 0.35851 0.89574 0.35676 0.0
H662 H 0.34107 0.93739 0.47019 0.0
C663 C 0.35604 0.85555 0.37059 0.0
H664 H 0.35457 0.9562 0.3826 0.0
C665 C 0.34937 0.84476 0.4202 0.0
C666 C 0.3444 0.87397 0.45702 0.0
H667 H 0.36101 0.83258 0.34294 0.0
H668 H 0.3502 0.8137 0.42948 0.0
C669 C 0.34519 0.91419 0.4428 0.0
C670 C 0.37512 0.19017 0.76894 0.0
C671 C 0.37771 0.16738 0.81085 0.0
H672 H 0.37688 0.19098 0.69072 0.0
C673 C 0.38579 0.12726 0.8053 0.0
H674 H 0.36879 0.22112 0.77204 0.0
C675 C 0.3903 0.11 0.75863 0.0
C676 C 0.38705 0.13271 0.71695 0.0
H677 H 0.38795 0.10899 0.837 0.0
H678 H 0.39636 0.07898 0.75509 0.0
C679 C 0.37982 0.17298 0.72239 0.0
C680 C 0.9407 0.88609 0.16675 0.0
C681 C 0.90248 0.86586 0.17825 0.0
H682 H -0.01068 0.90475 0.11078 0.0
C683 C 0.88378 0.84862 0.13979 0.0
H684 H 0.95564 0.90035 0.19534 0.0
C685 C 0.90315 0.85132 0.09093 0.0
C686 C 0.94164 0.87105 0.07977 0.0
H687 H 0.85455 0.8324 0.14753 0.0
H688 H 0.88811 0.83773 0.06201 0.0
C689 C 0.9601 0.88851 0.11818 0.0
C690 C 0.93046 0.18592 0.75498 0.0
C691 C 0.92868 0.22657 0.74425 0.0
H692 H 0.94276 0.14191 0.80579 0.0
C693 C 0.93982 0.25426 0.77972 0.0
H694 H 0.92233 0.16345 0.72899 0.0
C695 C 0.95257 0.24198 0.82365 0.0
C696 C 0.95424 0.20126 0.83487 0.0
H697 H 0.93956 0.28587 0.77313 0.0
H698 H 0.96187 0.26488 0.8484 0.0
C699 C 0.94272 0.17353 0.79936 0.0
C700 C 0.62918 0.12245 0.57648 0.0
C701 C 0.60705 0.13258 0.62172 0.0
H702 H 0.62769 0.10595 0.50108 0.0
C703 C 0.56547 0.13426 0.62509 0.0
H704 H 0.6613 0.1212 0.57279 0.0
C705 C 0.5463 0.12557 0.58428 0.0
C706 C 0.56833 0.11529 0.53911 0.0
H707 H 0.54756 0.14155 0.65963 0.0
H708 H 0.51415 0.12674 0.58825 0.0
C709 C 0.61 0.1141 0.5354 0.0
C710 C 0.56248 0.77026 0.50848 0.0
C711 C 0.53559 0.80022 0.51651 0.0
H712 H 0.59411 0.73118 0.45648 0.0
C713 C 0.52064 0.81393 0.47487 0.0
H714 H 0.57433 0.75846 0.53943 0.0
C715 C 0.53289 0.79908 0.42693 0.0
C716 C 0.55939 0.76874 0.41885 0.0
H717 H 0.49982 0.8368 0.47925 0.0
H718 H 0.52104 0.81106 0.39611 0.0
C719 C 0.57364 0.75436 0.46073 0.0
C720 C 0.65866 0.53434 0.52449 0.0
C721 C 0.67303 0.56643 0.49229 0.0
H722 H 0.62936 0.51835 0.59707 0.0
C723 C 0.6858 0.60291 0.5126 0.0
H724 H 0.64979 0.5055 0.50994 0.0
C725 C 0.67447 0.61001 0.56279 0.0
C726 C 0.65022 0.58082 0.59209 0.0
H727 H 0.69789 0.6281 0.48904 0.0
H728 H 0.67756 0.6404 0.57585 0.0
C729 C 0.64746 0.54157 0.57473 0.0
C730 C 0.61137 0.29783 0.73258 0.0
C731 C 0.62543 0.32088 0.77013 0.0
H732 H 0.59715 0.29702 0.65923 0.0
C733 C 0.63261 0.36234 0.76412 0.0
H734 H 0.60479 0.26597 0.73687 0.0
C735 C 0.62851 0.38013 0.71954 0.0
C736 C 0.61706 0.35657 0.68079 0.0
H737 H 0.64362 0.38067 0.79267 0.0
H738 H 0.63634 0.41183 0.71446 0.0
C739 C 0.60705 0.31557 0.68829 0.0
C740 C 0.82443 0.35338 0.92172 0.0
C741 C 0.83132 0.38282 0.95686 0.0
H742 H 0.82638 0.33929 0.84528 0.0
C743 C 0.84016 0.42272 0.94087 0.0
H744 H 0.81821 0.32229 0.93207 0.0
C745 C 0.84606 0.4322 0.89059 0.0
C746 C 0.8418 0.40219 0.85569 0.0
H747 H 0.84455 0.44642 0.9669 0.0
H748 H 0.85551 0.46262 0.87885 0.0
C749 C 0.82932 0.36306 0.87171 0.0
C750 C 0.85019 0.68836 0.26957 0.0
C751 C 0.86676 0.67337 0.30889 0.0
H752 H 0.84093 0.68124 0.19449 0.0
C753 C 0.88702 0.63862 0.30222 0.0
H754 H 0.83409 0.71489 0.27371 0.0
C755 C 0.89078 0.6193 0.25677 0.0
C756 C 0.87448 0.63461 0.21744 0.0
H757 H 0.90001 0.62636 0.33197 0.0
H758 H 0.907 0.59287 0.25208 0.0
C759 C 0.85407 0.66916 0.22424 0.0
C760 C 0.47164 0.34691 0.61023 0.0
C761 C 0.44775 0.34732 0.57266 0.0
H762 H 0.47306 0.34284 0.68769 0.0
C763 C 0.40594 0.34107 0.58478 0.0
H764 H 0.50396 0.35171 0.60199 0.0
C765 C 0.38825 0.33621 0.63395 0.0
C766 C 0.41212 0.33719 0.67162 0.0
H767 H 0.38675 0.3414 0.55658 0.0
H768 H 0.35592 0.3321 0.64255 0.0
C769 C 0.45397 0.3418 0.65927 0.0
C770 C 0.45074 0.74691 0.32629 0.0
C771 C 0.45224 0.70628 0.33799 0.0
H772 H 0.43855 0.79048 0.27486 0.0
C773 C 0.44096 0.67833 0.30254 0.0
H774 H 0.4597 0.76994 0.35108 0.0
C775 C 0.42928 0.69042 0.25767 0.0
C776 C 0.42793 0.731 0.24627 0.0
H777 H 0.44081 0.64675 0.30937 0.0
H778 H 0.4214 0.66778 0.23174 0.0
C779 C 0.43866 0.7589 0.28179 0.0
C780 C 0.0655 0.63381 0.13001 0.0
C781 C 0.10655 0.62876 0.12637 0.0
H782 H 0.0138 0.63025 0.09337 0.0
C783 C 0.12745 0.61691 0.08125 0.0
H784 H 0.04872 0.64284 0.16454 0.0
C785 C 0.10768 0.6104 1.04035 0.0
C786 C 0.0665 0.61494 1.04416 0.0
H787 H 0.15917 0.61313 0.07748 0.0
H788 H 0.1245 0.60105 1.00602 0.0
C789 C 0.04555 0.6266 0.08939 0.0
C790 C 0.03016 0.29678 0.92821 0.0
C791 C 0.05774 0.26745 0.91991 0.0
H792 H -0.00463 0.33291 0.98079 0.0
C793 C 0.07216 0.25326 0.96179 0.0
H794 H 0.01813 0.30854 0.89739 0.0
C795 C 0.06008 0.26839 1.00977 0.0
C796 C 0.03202 0.29727 1.01803 0.0
H797 H 0.09347 0.23086 0.95738 0.0
H798 H 0.07219 0.25685 1.04066 0.0
C799 C 0.01698 0.31079 0.97633 0.0
C800 C 0.00256 0.22165 0.25832 0.0
C801 C 0.01435 0.2569 0.23146 0.0
H802 H 0.02175 0.16494 0.27493 0.0
C803 C 0.05551 0.26751 0.21721 0.0
H804 H 0.97172 0.21412 0.2743 0.0
C805 C 0.08267 0.239 0.21778 0.0
C806 C 0.06664 0.19971 0.22459 0.0
H807 H 0.06586 0.29509 0.19833 0.0
H808 H 0.11273 0.24557 0.19819 0.0
C809 C 0.03085 0.19369 0.25807 0.0
C810 C -0.01448 0.7404 0.45332 0.0
C811 C 0.9659 0.75151 0.41432 0.0
H812 H 0.04221 0.73022 0.47595 0.0
C813 C -0.01089 0.7635 0.36914 0.0
H814 H 0.96839 0.73124 0.48864 0.0
C815 C 0.03049 0.76318 0.3622 0.0
C816 C 0.05024 0.75099 0.40014 0.0
H817 H 0.97526 0.77261 0.33835 0.0
H818 H 0.04713 0.77164 0.3263 0.0
C819 C 0.02763 0.74027 0.44629 0.0
C820 C 0.54832 0.70131 0.75946 0.0
C821 C 0.57936 0.70163 0.71871 0.0
H822 H 0.49073 0.72424 0.78036 0.0
C823 C 0.59587 0.73887 0.70102 0.0
H824 H 0.53884 0.67407 0.7803 0.0
C825 C 0.5692 0.76783 0.70038 0.0
C826 C 0.52933 0.76037 0.72421 0.0
H827 H 0.62339 0.74158 0.67498 0.0
H828 H 0.57796 0.79238 0.67503 0.0
C829 C 0.52028 0.72942 0.75893 0.0
C830 C 0.53429 0.27354 0.94641 0.0
C831 C 0.5496 0.23618 0.9394 0.0
H832 H 0.48209 0.30592 0.95924 0.0
C833 C 0.52264 0.20179 0.94303 0.0
H834 H 0.55434 0.30051 0.94395 0.0
C835 C 0.4812 0.20487 0.95081 0.0
C836 C 0.46592 0.24235 0.95615 0.0
H837 H 0.53351 0.17253 0.93773 0.0
H838 H 0.46113 0.17801 0.95156 0.0
C839 C 0.4929 0.27658 0.95522 0.0
C840 C 0.9679 0.76325 0.90677 0.0
C841 C 0.00765 0.77992 0.89745 0.0
H842 H 0.92849 0.70987 0.91742 0.0
C843 C 0.03867 0.75441 0.88808 0.0
H844 H 0.94346 0.78222 0.91395 0.0
C845 C 0.03023 0.71305 0.89112 0.0
C846 C -0.00941 0.69642 0.90252 0.0
H847 H 0.06966 0.76637 0.88078 0.0
H848 H 0.05477 0.69412 0.88581 0.0
C849 C 0.95941 0.72186 0.90876 0.0
C850 C 0.52495 0.76466 0.19273 0.0
C851 C 0.52537 0.72331 0.19576 0.0
H852 H 0.51554 0.81431 0.14962 0.0
C853 C 0.51996 0.70004 0.15414 0.0
H854 H 0.52773 0.78298 0.22479 0.0
C855 C 0.51354 0.71797 0.11051 0.0
C856 C 0.51121 0.75931 0.10828 0.0
H857 H 0.52032 0.66797 0.1554 0.0
H858 H 0.50601 0.69913 0.08044 0.0
C859 C 0.51895 0.78262 0.14915 0.0
C860 C 0.5364 0.21072 0.38842 0.0
C861 C 0.4965 0.19415 0.39543 0.0
H862 H 0.57611 0.26415 0.38267 0.0
C863 C 0.46562 0.21975 0.39796 0.0
H864 H 0.56079 0.1917 0.38612 0.0
C865 C 0.47432 0.2611 0.39678 0.0
C866 C 0.51409 0.27772 0.39201 0.0
H867 H 0.43455 0.20794 0.40317 0.0
H868 H 0.44983 0.28011 0.40114 0.0
C869 C 0.54515 0.25217 0.38626 0.0
C870 C 0.02183 0.20218 0.65141 0.0
C871 C 0.02641 0.22526 0.69341 0.0
H872 H 0.00805 0.20117 0.57768 0.0
C873 C 0.025 0.26654 0.69087 0.0
H874 H 0.02286 0.17017 0.65231 0.0
C875 C 0.01809 0.28445 0.64759 0.0
C876 C 0.01077 0.26111 0.60655 0.0
H877 H 0.02749 0.28477 0.72308 0.0
H878 H 0.01357 0.31591 0.64852 0.0
C879 C 0.015 0.22007 0.60798 0.0
C880 C 0.98067 0.03421 0.07897 0.0
C881 C 0.01038 0.02165 0.10459 0.0
H882 H 0.95036 0.02622 1.01582 0.0
C883 C 0.03438 0.99229 0.08345 0.0
H884 H 0.96168 0.0569 0.0943 0.0
C885 C 0.02901 0.97618 1.03734 0.0
C886 C -0.00133 0.98785 1.01237 0.0
H887 H 0.05713 0.98168 0.10257 0.0
H888 H 0.04696 0.95297 1.02269 0.0
C889 C 0.97452 0.01709 1.03374 0.0
C890 C 0.2909 0.75842 0.29036 0.0
C891 C 0.26547 0.78909 0.29671 0.0
H892 H 0.33269 0.72806 0.24106 0.0
C893 C 0.26429 0.8145 0.25614 0.0
H894 H 0.29253 0.73842 0.32065 0.0
C895 C 0.28713 0.8084 0.20969 0.0
C896 C 0.31219 0.77725 0.20333 0.0
H897 H 0.24474 0.83847 0.2599 0.0
H898 H 0.28409 0.82702 0.17865 0.0
C899 C 0.31404 0.75276 0.24453 0.0
C900 C 0.47699 0.94846 0.49201 0.0
C901 C 0.50045 0.98489 0.49159 0.0
H902 H 0.45605 0.89459 0.53274 0.0
C903 C 0.51167 -0.0007 0.53621 0.0
H904 H 0.4681 0.93657 0.45808 0.0
C905 C 0.50193 0.97679 0.57963 0.0
C906 C 0.48264 0.9383 0.57905 0.0
H907 H 0.53018 0.02694 0.53711 0.0
H908 H 0.51432 0.98731 0.6121 0.0
C909 C 0.46897 0.92492 0.5352 0.0
C910 C 0.22925 0.2439 0.91119 0.0
C911 C 0.24672 0.20769 0.90486 0.0
H912 H 0.1907 0.28308 0.88491 0.0
C913 C 0.23778 0.18244 0.866 0.0
H914 H 0.23564 0.26393 0.94065 0.0
C915 C 0.21236 0.19356 0.83359 0.0
C916 C 0.19513 0.22988 0.83978 0.0
H917 H 0.25109 0.15439 0.85995 0.0
H918 H 0.20664 0.17412 0.80335 0.0
C919 C 0.20367 0.25484 0.87905 0.0
C920 C 0.76247 0.31021 0.75286 0.0
C921 C 0.76177 0.2849 0.79403 0.0
H922 H 0.78454 0.32183 0.67569 0.0
C923 C 0.78555 0.25285 0.78889 0.0
H924 H 0.74404 0.33507 0.75557 0.0
C925 C 0.80896 0.24583 0.74362 0.0
C926 C 0.8091 0.27043 0.70194 0.0
H927 H 0.78579 0.23295 0.8197 0.0
H928 H 0.82657 0.22035 0.74112 0.0
C929 C 0.78583 0.30298 0.70715 0.0
C930 C 0.72407 0.74403 0.41439 0.0
C931 C 0.74574 0.7105 0.4057 0.0
H932 H 0.68249 0.78036 0.38928 0.0
C933 C 0.74146 0.68717 0.36359 0.0
H934 H 0.72694 0.7626 0.44633 0.0
C935 C 0.71643 0.69764 0.33034 0.0
C936 C 0.69489 0.73125 0.33903 0.0
H937 H 0.75831 0.66141 0.35555 0.0
H938 H 0.71445 0.67995 0.29749 0.0
C939 C 0.69882 0.75422 0.3815 0.0
C940 C 0.49124 0.48024 0.60569 0.0
C941 C 0.5165 0.51552 0.60026 0.0
H942 H 0.45862 0.43466 0.56963 0.0
C943 C 0.53109 0.5301 0.55232 0.0
H944 H 0.47924 0.46853 0.64214 0.0
C945 C 0.52024 0.51012 0.51061 0.0
C946 C 0.49389 0.47568 0.51614 0.0
H947 H 0.55067 0.55704 0.54672 0.0
H948 H 0.53114 0.52234 0.47418 0.0
C949 C 0.47945 0.46095 0.56411 0.0
C950 C 0.0124 0.49956 1.03693 0.0
C951 C 0.0017 0.48656 0.99145 0.0
H952 H 0.01413 0.48529 0.11253 0.0
C953 C 0.97892 0.44993 0.98981 0.0
H954 H 0.0304 0.52735 1.03938 0.0
C955 C 0.97072 0.42508 1.03181 0.0
C956 C 0.98314 0.43735 0.0768 0.0
H957 H 0.97059 0.43903 0.95516 0.0
H958 H 0.9582 0.3948 1.02772 0.0
C959 C 0.00243 0.47568 0.07927 0.0
C960 C 0.10953 0.193 0.52211 0.0
C961 C 0.09574 0.15301 0.51298 0.0
H962 H 0.1267 0.23706 0.57438 0.0
C963 C 0.09054 0.12688 0.55428 0.0
H964 H 0.11491 0.21476 0.49256 0.0
C965 C 0.0987 0.13976 0.60143 0.0
C966 C 0.11181 0.17968 0.61044 0.0
H967 H 0.07917 0.09619 0.55107 0.0
H968 H 0.09326 0.11837 0.6315 0.0
C969 C 0.11701 0.20602 0.56963 0.0
C970 C 0.05876 0.88516 0.6938 0.0
C971 C 0.10036 0.8922 0.68054 0.0
H972 H 0.00863 0.88496 0.75084 0.0
C973 C 0.12367 0.90574 0.71663 0.0
H974 H 0.04007 0.87404 0.66707 0.0
C975 C 0.10557 0.91192 0.76518 0.0
C976 C 0.06391 0.90448 0.77836 0.0
H977 H 0.1558 0.91167 0.70729 0.0
H978 H 0.12425 0.9218 0.79245 0.0
C979 C 0.04075 0.89135 0.74199 0.0
C980 C 0.46084 0.84709 0.92223 0.0
C981 C 0.42974 0.81719 0.93869 0.0
H982 H 0.4972 0.87887 0.86046 0.0
C983 C 0.41092 0.79731 0.90172 0.0
H984 H 0.47672 0.86287 0.94893 0.0
C985 C 0.42187 0.80745 0.851 0.0
C986 C 0.45317 0.83701 0.83434 0.0
H987 H 0.38725 0.77391 0.91202 0.0
H988 H 0.40615 0.79126 0.82443 0.0
C989 C 0.4728 0.85627 0.87111 0.0
C990 C 0.41366 0.04287 0.27833 0.0
C991 C 0.43575 0.07431 0.29818 0.0
H992 H 0.38056 0.02438 0.22027 0.0
C993 C 0.43716 0.11284 0.27887 0.0
H994 H 0.41208 0.01305 0.29333 0.0
C995 C 0.41825 0.1197 0.23858 0.0
C996 C 0.39856 0.0879 0.21588 0.0
H997 H 0.45328 0.13768 0.2947 0.0
H998 H 0.4199 0.14984 0.22451 0.0
C999 C 0.39548 0.04952 0.23691 0.0
C1000 C 0.87716 0.77645 0.62171 0.0
C1001 C 0.85356 0.79366 0.59102 0.0
H1002 H 0.90326 0.78079 0.68779 0.0
C1003 C 0.83792 0.83008 0.60474 0.0
H1004 H 0.89054 0.7489 0.6117 0.0
C1005 C 0.84481 0.84824 0.64926 0.0
C1006 C 0.86775 0.83041 0.68043 0.0
H1007 H 0.81991 0.84418 0.58156 0.0
H1008 H 0.83149 0.87572 0.65971 0.0
C1009 C 0.88441 0.79472 0.66555 0.0
C1010 C 0.87674 0.09969 0.31492 0.0
C1011 C 0.87226 0.13885 0.33119 0.0
H1012 H 0.90763 0.06331 0.26031 0.0
C1013 C 0.88272 0.17046 0.29711 0.0
H1014 H 0.86862 0.07471 0.34015 0.0
C1015 C 0.90474 0.1637 0.25093 0.0
C1016 C 0.91641 0.1255 0.23933 0.0
H1017 H 0.87875 0.2009 0.30857 0.0
H1018 H 0.91763 0.18899 0.22799 0.0
C1019 C 0.89901 0.09308 0.26906 0.0
C1020 C 0.64933 0.21486 0.07045 0.0
C1021 C 0.6682 0.19642 1.02801 0.0
H1022 H 0.62427 0.20956 0.14647 0.0
C1023 C 0.67784 0.1569 1.03188 0.0
H1024 H 0.64091 0.24507 0.06909 0.0
C1025 C 0.6686 0.13641 0.07727 0.0
C1026 C 0.64946 0.15504 0.11956 0.0
H1027 H 0.69206 0.14169 0.99985 0.0
H1028 H 0.67663 0.10612 0.07927 0.0
C1029 C 0.63988 0.19446 0.11527 0.0
C1030 C 0.65308 0.85098 0.91478 0.0
C1031 C 0.63989 0.88521 0.89586 0.0
H1032 H 0.66166 0.81939 0.97906 0.0
C1033 C 0.62778 0.91593 0.92821 0.0
H1034 H 0.66298 0.8271 0.89048 0.0
C1035 C 0.62672 0.91142 0.97909 0.0
C1036 C 0.63776 0.87614 0.99813 0.0
H1037 H 0.61709 0.94244 0.91445 0.0
H1038 H 0.61538 0.93458 1.00359 0.0
C1039 C 0.65214 0.84654 0.96539 0.0
C1040 C 0.60183 0.69238 1.02326 0.0
C1041 C 0.59224 0.65167 1.01296 0.0
H1042 H 0.61664 0.7369 0.07599 0.0
C1043 C 0.59215 0.62474 0.05256 0.0
H1044 H 0.60191 0.71483 0.99523 0.0
C1045 C 0.60057 0.63777 0.09969 0.0
C1046 C 0.60964 0.67843 0.10994 0.0
H1047 H 0.58578 0.59313 1.04738 0.0
H1048 H 0.59914 0.61572 0.1286 0.0
C1049 C 0.61034 0.70534 0.07037 0.0
C1050 C 0.6008 0.41786 0.26105 0.0
C1051 C 0.56036 0.40411 0.27486 0.0
H1052 H 0.65114 0.42307 0.20313 0.0
C1053 C 0.53952 0.38483 0.23957 0.0
H1054 H 0.61776 0.43254 0.28751 0.0
C1055 C 0.55871 0.3789 0.19182 0.0
C1056 C 0.59913 0.39242 0.17788 0.0
H1057 H 0.50848 0.37341 0.24899 0.0
H1058 H 0.54195 0.36298 0.16601 0.0
C1059 C 0.62003 0.41205 0.21293 0.0
C1060 C 0.96653 0.35455 0.37104 0.0
C1061 C 0.94675 0.33544 0.33427 0.0
H1062 H 0.97124 0.36049 0.44872 0.0
C1063 C 0.91594 0.30539 0.35089 0.0
H1064 H -0.00934 0.37743 0.36041 0.0
C1065 C 0.90569 0.29463 0.40158 0.0
C1066 C 0.92469 0.31436 0.43856 0.0
H1067 H 0.90023 0.28922 0.3243 0.0
H1068 H 0.88245 0.27081 0.41186 0.0
C1069 C 0.95521 0.34479 0.42209 0.0
C1070 C 0.9392 0.61829 0.77985 0.0
C1071 C 0.93536 0.57979 0.79999 0.0
H1072 H 0.926 0.65597 0.7235 0.0
C1073 C 0.91251 0.54925 0.77948 0.0
H1074 H 0.95598 0.64252 0.79594 0.0
C1075 C 0.89602 0.55673 0.73687 0.0
C1076 C 0.9018 0.59497 0.71507 0.0
H1077 H 0.90913 0.51939 0.79481 0.0
H1078 H 0.88032 0.53228 0.71991 0.0
C1079 C 0.92225 0.62591 0.73821 0.0
C1080 C 0.33894 0.33695 0.15208 0.0
C1081 C 0.35881 0.318 0.1857 0.0
H1082 H 0.31677 0.33331 0.08266 0.0
C1083 C 0.37202 0.28024 0.17418 0.0
H1084 H 0.32836 0.36607 0.1601 0.0
C1085 C 0.36499 0.26143 0.13061 0.0
C1086 C 0.34485 0.28001 0.09705 0.0
H1087 H 0.38826 0.26527 0.19871 0.0
H1088 H 0.37592 0.23239 0.1231 0.0
C1089 C 0.33199 0.31807 0.10805 0.0
C1090 C 0.39061 0.6798 0.7964 0.0
C1091 C 0.37494 0.64866 0.82956 0.0
H1092 H 0.42836 0.69516 0.72816 0.0
C1093 C 0.37302 0.60938 0.81208 0.0
H1094 H 0.39155 0.71047 0.80864 0.0
C1095 C 0.39366 0.6008 0.76582 0.0
C1096 C 0.4161 0.6314 0.73694 0.0
H1097 H 0.3608 0.58477 0.8365 0.0
H1098 H 0.39711 0.56991 0.75614 0.0
C1099 C 0.41119 0.67113 0.75 0.0
C1100 C 0.17538 0.71188 0.56877 0.0
C1101 C 0.16862 0.69152 0.52541 0.0
H1102 H 0.17065 0.70999 0.64749 0.0
C1103 C 0.15306 0.65142 0.52912 0.0
H1104 H 0.18715 0.74284 0.56731 0.0
C1105 C 0.14317 0.63261 0.57543 0.0
C1106 C 0.14918 0.65336 0.61886 0.0
H1107 H 0.14707 0.63502 0.4965 0.0
H1108 H 0.13058 0.60193 0.57728 0.0
C1109 C 0.16597 0.69301 0.61481 0.0
C1110 C 0.15006 0.34921 0.41566 0.0
C1111 C 0.13812 0.38413 0.39696 0.0
H1112 H 0.15873 0.31726 0.47961 0.0
C1113 C 0.12849 0.41568 0.42914 0.0
H1114 H 0.15792 0.32465 0.39139 0.0
C1115 C 0.12839 0.41131 0.47989 0.0
C1116 C 0.13805 0.37537 0.4989 0.0
H1117 H 0.1188 0.44274 0.41545 0.0
H1118 H 0.11875 0.43514 0.50438 0.0
C1119 C 0.15024 0.34495 0.46609 0.0
loop_
_geom_bond_atom_site_label_1
_geom_bond_atom_site_label_2
_geom_bond_distance
_geom_bond_site_symmetry_2
_ccdc_geom_bond_type
Pr0 C2 2.880 . S
Pr0 O20 2.562 . S
Pr0 O21 2.490 . S
Pr0 O22 2.695 . S
Pr0 O23 2.512 . S
Pr0 O25 2.437 . S
Pr0 O28 2.436 . S
Pr0 O30 2.438 . S
Pr1 C11 2.880 1_554 S
Pr1 O22 2.436 1_655 S
Pr1 O24 2.438 . S
Pr1 O26 2.562 . S
Pr1 O27 2.490 . S
Pr1 O28 2.695 1_655 S
Pr1 O29 2.512 . S
Pr1 O31 2.437 1_655 S
C2 Pr0 2.880 . S
C2 C3 1.491 . S
C2 O20 1.254 . S
C2 O21 1.225 . S
C3 C2 1.491 . S
C3 C4 1.392 . S
C3 C8 1.356 . S
C4 C3 1.392 . S
C4 C5 1.368 . S
C4 H32 0.929 . S
C5 C4 1.368 . S
C5 C6 1.386 . S
C5 H33 0.929 . S
C6 C5 1.386 . S
C6 C7 1.373 . S
C7 C6 1.373 . S
C7 C8 1.409 . S
C7 H34 0.931 . S
C8 C3 1.356 . S
C8 C7 1.409 . S
C8 H35 0.930 . S
C9 O22 1.270 . S
C9 O23 1.248 . S
C10 O24 1.267 . S
C10 O25 1.278 1_655 S
C11 Pr1 2.880 1_556 S
C11 C12 1.491 . S
C11 O26 1.254 1_556 S
C11 O27 1.225 1_556 S
C12 C11 1.491 . S
C12 C13 1.392 . S
C12 C17 1.356 . S
C13 C12 1.392 . S
C13 C14 1.368 . S
C13 H36 0.929 . S
C14 C13 1.368 . S
C14 C15 1.386 . S
C14 H37 0.929 . S
C15 C14 1.386 . S
C15 C16 1.373 . S
C16 C15 1.373 . S
C16 C17 1.409 . S
C16 H38 0.931 . S
C17 C12 1.356 . S
C17 C16 1.409 . S
C17 H39 0.930 . S
C18 O28 1.270 . S
C18 O29 1.248 1_455 S
C19 O30 1.267 . S
C19 O31 1.278 . S
O20 Pr0 2.562 . S
O20 C2 1.254 . S
O21 Pr0 2.490 . S
O21 C2 1.225 . S
O22 Pr0 2.695 . S
O22 Pr1 2.436 1_455 S
O22 C9 1.270 . S
O23 Pr0 2.512 . S
O23 C9 1.248 . S
O24 Pr1 2.438 . S
O24 C10 1.267 . S
O25 Pr0 2.437 . S
O25 C10 1.278 1_455 S
O26 Pr1 2.562 . S
O26 C11 1.254 1_554 S
O27 Pr1 2.490 . S
O27 C11 1.225 1_554 S
O28 Pr0 2.436 . S
O28 Pr1 2.695 1_455 S
O28 C18 1.270 . S
O29 Pr1 2.512 . S
O29 C18 1.248 1_655 S
O30 Pr0 2.438 . S
O30 C19 1.267 . S
O31 Pr1 2.437 1_455 S
O31 C19 1.278 . S
H32 C4 0.929 . S
H33 C5 0.929 . S
H34 C7 0.931 . S
H35 C8 0.930 . S
H36 C13 0.929 . S
H37 C14 0.929 . S
H38 C16 0.931 . S
H39 C17 0.930 . S
Pr40 C42 2.880 . S
Pr40 O60 2.562 . S
Pr40 O61 2.490 . S
Pr40 O62 2.695 . S
Pr40 O63 2.512 . S
Pr40 O65 2.437 . S
Pr40 O68 2.436 . S
Pr40 O70 2.438 . S
Pr41 C51 2.880 . S
Pr41 O62 2.436 . S
Pr41 O64 2.438 . S
Pr41 O66 2.562 . S
Pr41 O67 2.490 . S
Pr41 O68 2.695 . S
Pr41 O69 2.512 . S
Pr41 O71 2.437 . S
C42 Pr40 2.880 . S
C42 C43 1.491 . S
C42 O60 1.254 . S
C42 O61 1.225 . S
C43 C42 1.491 . S
C43 C44 1.392 . S
C43 C48 1.356 . S
C44 C43 1.392 . S
C44 C45 1.368 . S
C44 H72 0.929 . S
C45 C44 1.368 . S
C45 C46 1.386 . S
C45 H73 0.929 . S
C46 C45 1.386 . S
C46 C47 1.373 . S
C47 C46 1.373 . S
C47 C48 1.409 . S
C47 H74 0.931 . S
C48 C43 1.356 . S
C48 C47 1.409 . S
C48 H75 0.930 . S
C49 O62 1.270 . S
C49 O63 1.248 . S
C50 O64 1.267 . S
C50 O65 1.278 . S
C51 Pr41 2.880 . S
C51 C52 1.491 . S
C51 O66 1.254 . S
C51 O67 1.225 . S
C52 C51 1.491 . S
C52 C53 1.392 . S
C52 C57 1.356 . S
C53 C52 1.392 . S
C53 C54 1.368 . S
C53 H76 0.929 . S
C54 C53 1.368 . S
C54 C55 1.386 . S
C54 H77 0.929 . S
C55 C54 1.386 . S
C55 C56 1.373 . S
C56 C55 1.373 . S
C56 C57 1.409 . S
C56 H78 0.931 . S
C57 C52 1.356 . S
C57 C56 1.409 . S
C57 H79 0.930 . S
C58 O68 1.270 . S
C58 O69 1.248 . S
C59 O70 1.267 . S
C59 O71 1.278 . S
O60 Pr40 2.562 . S
O60 C42 1.254 . S
O61 Pr40 2.490 . S
O61 C42 1.225 . S
O62 Pr40 2.695 . S
O62 Pr41 2.436 . S
O62 C49 1.270 . S
O63 Pr40 2.512 . S
O63 C49 1.248 . S
O64 Pr41 2.438 . S
O64 C50 1.267 . S
O65 Pr40 2.437 . S
O65 C50 1.278 . S
O66 Pr41 2.562 . S
O66 C51 1.254 . S
O67 Pr41 2.490 . S
O67 C51 1.225 . S
O68 Pr40 2.436 . S
O68 Pr41 2.695 . S
O68 C58 1.270 . S
O69 Pr41 2.512 . S
O69 C58 1.248 . S
O70 Pr40 2.438 . S
O70 C59 1.267 . S
O71 Pr41 2.437 . S
O71 C59 1.278 . S
H72 C44 0.929 . S
H73 C45 0.929 . S
H74 C47 0.931 . S
H75 C48 0.930 . S
H76 C53 0.929 . S
H77 C54 0.929 . S
H78 C56 0.931 . S
H79 C57 0.930 . S
Pr80 C82 2.880 . S
Pr80 O100 2.562 . S
Pr80 O101 2.490 . S
Pr80 O102 2.695 . S
Pr80 O103 2.512 . S
Pr80 O105 2.437 . S
Pr80 O108 2.436 . S
Pr80 O110 2.438 . S
Pr81 C91 2.880 . S
Pr81 O102 2.436 . S
Pr81 O104 2.438 . S
Pr81 O106 2.562 . S
Pr81 O107 2.490 . S
Pr81 O108 2.695 . S
Pr81 O109 2.512 . S
Pr81 O111 2.437 . S
C82 Pr80 2.880 . S
C82 C83 1.491 . S
C82 O100 1.254 . S
C82 O101 1.225 . S
C83 C82 1.491 . S
C83 C84 1.392 . S
C83 C88 1.356 . S
C84 C83 1.392 . S
C84 C85 1.368 . S
C84 H112 0.929 . S
C85 C84 1.368 . S
C85 C86 1.386 . S
C85 H113 0.929 . S
C86 C85 1.386 . S
C86 C87 1.373 . S
C87 C86 1.373 . S
C87 C88 1.409 . S
C87 H114 0.931 . S
C88 C83 1.356 . S
C88 C87 1.409 . S
C88 H115 0.930 . S
C89 O102 1.270 . S
C89 O103 1.248 . S
C90 O104 1.267 . S
C90 O105 1.278 . S
C91 Pr81 2.880 . S
C91 C92 1.491 . S
C91 O106 1.254 . S
C91 O107 1.225 . S
C92 C91 1.491 . S
C92 C93 1.392 . S
C92 C97 1.356 . S
C93 C92 1.392 . S
C93 C94 1.368 . S
C93 H116 0.929 . S
C94 C93 1.368 . S
C94 C95 1.386 . S
C94 H117 0.929 . S
C95 C94 1.386 . S
C95 C96 1.373 . S
C96 C95 1.373 . S
C96 C97 1.409 . S
C96 H118 0.931 . S
C97 C92 1.356 . S
C97 C96 1.409 . S
C97 H119 0.930 . S
C98 O108 1.270 . S
C98 O109 1.248 . S
C99 O110 1.267 . S
C99 O111 1.278 . S
O100 Pr80 2.562 . S
O100 C82 1.254 . S
O101 Pr80 2.490 . S
O101 C82 1.225 . S
O102 Pr80 2.695 . S
O102 Pr81 2.436 . S
O102 C89 1.270 . S
O103 Pr80 2.512 . S
O103 C89 1.248 . S
O104 Pr81 2.438 . S
O104 C90 1.267 . S
O105 Pr80 2.437 . S
O105 C90 1.278 . S
O106 Pr81 2.562 . S
O106 C91 1.254 . S
O107 Pr81 2.490 . S
O107 C91 1.225 . S
O108 Pr80 2.436 . S
O108 Pr81 2.695 . S
O108 C98 1.270 . S
O109 Pr81 2.512 . S
O109 C98 1.248 . S
O110 Pr80 2.438 . S
O110 C99 1.267 . S
O111 Pr81 2.437 . S
O111 C99 1.278 . S
H112 C84 0.929 . S
H113 C85 0.929 . S
H114 C87 0.931 . S
H115 C88 0.930 . S
H116 C93 0.929 . S
H117 C94 0.929 . S
H118 C96 0.931 . S
H119 C97 0.930 . S
Pr120 C122 2.880 1_556 S
Pr120 O140 2.562 . S
Pr120 O141 2.490 . S
Pr120 O142 2.695 . S
Pr120 O143 2.512 . S
Pr120 O145 2.437 . S
Pr120 O148 2.436 . S
Pr120 O150 2.438 . S
Pr121 C131 2.880 . S
Pr121 O142 2.436 . S
Pr121 O144 2.438 . S
Pr121 O146 2.562 . S
Pr121 O147 2.490 . S
Pr121 O148 2.695 . S
Pr121 O149 2.512 . S
Pr121 O151 2.437 . S
C122 Pr120 2.880 1_554 S
C122 C123 1.491 . S
C122 O140 1.254 1_554 S
C122 O141 1.225 1_554 S
C123 C122 1.491 . S
C123 C124 1.392 . S
C123 C128 1.356 . S
C124 C123 1.392 . S
C124 C125 1.368 . S
C124 H152 0.929 . S
C125 C124 1.368 . S
C125 C126 1.386 . S
C125 H153 0.929 . S
C126 C125 1.386 . S
C126 C127 1.373 . S
C127 C126 1.373 . S
C127 C128 1.409 . S
C127 H154 0.931 . S
C128 C123 1.356 . S
C128 C127 1.409 . S
C128 H155 0.930 . S
C129 O142 1.270 . S
C129 O143 1.248 . S
C130 O144 1.267 . S
C130 O145 1.278 . S
C131 Pr121 2.880 . S
C131 C132 1.491 . S
C131 O146 1.254 . S
C131 O147 1.225 . S
C132 C131 1.491 . S
C132 C133 1.392 . S
C132 C137 1.356 . S
C133 C132 1.392 . S
C133 C134 1.368 . S
C133 H156 0.929 . S
C134 C133 1.368 . S
C134 C135 1.386 . S
C134 H157 0.929 . S
C135 C134 1.386 . S
C135 C136 1.373 . S
C136 C135 1.373 . S
C136 C137 1.409 . S
C136 H158 0.931 . S
C137 C132 1.356 . S
C137 C136 1.409 . S
C137 H159 0.930 . S
C138 O148 1.270 . S
C138 O149 1.248 . S
C139 O150 1.267 . S
C139 O151 1.278 . S
O140 Pr120 2.562 . S
O140 C122 1.254 1_556 S
O141 Pr120 2.490 . S
O141 C122 1.225 1_556 S
O142 Pr120 2.695 . S
O142 Pr121 2.436 . S
O142 C129 1.270 . S
O143 Pr120 2.512 . S
O143 C129 1.248 . S
O144 Pr121 2.438 . S
O144 C130 1.267 . S
O145 Pr120 2.437 . S
O145 C130 1.278 . S
O146 Pr121 2.562 . S
O146 C131 1.254 . S
O147 Pr121 2.490 . S
O147 C131 1.225 . S
O148 Pr120 2.436 . S
O148 Pr121 2.695 . S
O148 C138 1.270 . S
O149 Pr121 2.512 . S
O149 C138 1.248 . S
O150 Pr120 2.438 . S
O150 C139 1.267 . S
O151 Pr121 2.437 . S
O151 C139 1.278 . S
H152 C124 0.929 . S
H153 C125 0.929 . S
H154 C127 0.931 . S
H155 C128 0.930 . S
H156 C133 0.929 . S
H157 C134 0.929 . S
H158 C136 0.931 . S
H159 C137 0.930 . S
Pr160 C162 2.888 . S
Pr160 O180 2.562 . S
Pr160 O181 2.490 . S
Pr160 O182 2.695 . S
Pr160 O183 2.512 . S
Pr160 O185 2.437 . S
Pr160 O188 2.436 . S
Pr160 O190 2.438 . S
Pr161 C171 2.880 . S
Pr161 O182 2.436 1_655 S
Pr161 O184 2.438 . S
Pr161 O186 2.562 . S
Pr161 O187 2.490 . S
Pr161 O188 2.695 1_655 S
Pr161 O189 2.512 . S
Pr161 O191 2.437 1_655 S
C162 Pr160 2.888 . S
C162 C163 1.483 1_556 S
C162 O180 1.257 . S
C162 O181 1.230 . S
C163 C162 1.483 1_554 S
C163 C164 1.392 . S
C163 C168 1.356 . S
C164 C163 1.392 . S
C164 C165 1.368 . S
C164 H192 0.929 . S
C165 C164 1.368 . S
C165 C166 1.386 . S
C165 H193 0.929 . S
C166 C165 1.386 . S
C166 C167 1.373 . S
C167 C166 1.373 . S
C167 C168 1.409 . S
C167 H194 0.931 . S
C168 C163 1.356 . S
C168 C167 1.409 . S
C168 H195 0.930 . S
C169 O182 1.270 . S
C169 O183 1.248 . S
C170 O184 1.267 . S
C170 O185 1.278 1_655 S
C171 Pr161 2.880 . S
C171 C172 1.491 . S
C171 O186 1.254 . S
C171 O187 1.225 . S
C172 C171 1.491 . S
C172 C173 1.392 . S
C172 C177 1.356 . S
C173 C172 1.392 . S
C173 C174 1.368 . S
C173 H196 0.929 . S
C174 C173 1.368 . S
C174 C175 1.386 . S
C174 H197 0.929 . S
C175 C174 1.386 . S
C175 C176 1.373 . S
C176 C175 1.373 . S
C176 C177 1.409 . S
C176 H198 0.931 . S
C177 C172 1.356 . S
C177 C176 1.409 . S
C177 H199 0.930 . S
C178 O188 1.270 1_655 S
C178 O189 1.248 . S
C179 O190 1.267 . S
C179 O191 1.278 . S
O180 Pr160 2.562 . S
O180 C162 1.257 . S
O181 Pr160 2.490 . S
O181 C162 1.230 . S
O182 Pr160 2.695 . S
O182 Pr161 2.436 1_455 S
O182 C169 1.270 . S
O183 Pr160 2.512 . S
O183 C169 1.248 . S
O184 Pr161 2.438 . S
O184 C170 1.267 . S
O185 Pr160 2.437 . S
O185 C170 1.278 1_455 S
O186 Pr161 2.562 . S
O186 C171 1.254 . S
O187 Pr161 2.490 . S
O187 C171 1.225 . S
O188 Pr160 2.436 . S
O188 Pr161 2.695 1_455 S
O188 C178 1.270 1_455 S
O189 Pr161 2.512 . S
O189 C178 1.248 . S
O190 Pr160 2.438 . S
O190 C179 1.267 . S
O191 Pr161 2.437 1_455 S
O191 C179 1.278 . S
H192 C164 0.929 . S
H193 C165 0.929 . S
H194 C167 0.931 . S
H195 C168 0.930 . S
H196 C173 0.929 . S
H197 C174 0.929 . S
H198 C176 0.931 . S
H199 C177 0.930 . S
Pr200 C202 2.880 . S
Pr200 O220 2.562 . S
Pr200 O221 2.490 . S
Pr200 O222 2.695 . S
Pr200 O223 2.512 . S
Pr200 O225 2.437 . S
Pr200 O228 2.436 . S
Pr200 O230 2.438 . S
Pr201 C211 2.880 1_554 S
Pr201 O222 2.436 . S
Pr201 O224 2.438 . S
Pr201 O226 2.562 1_554 S
Pr201 O227 2.490 1_554 S
Pr201 O228 2.695 . S
Pr201 O229 2.512 . S
Pr201 O231 2.437 . S
C202 Pr200 2.880 . S
C202 C203 1.491 . S
C202 O220 1.254 . S
C202 O221 1.225 . S
C203 C202 1.491 . S
C203 C204 1.392 . S
C203 C208 1.356 . S
C204 C203 1.392 . S
C204 C205 1.368 . S
C204 H232 0.929 . S
C205 C204 1.368 . S
C205 C206 1.386 . S
C205 H233 0.929 . S
C206 C205 1.386 . S
C206 C207 1.373 . S
C207 C206 1.373 . S
C207 C208 1.409 . S
C207 H234 0.931 . S
C208 C203 1.356 . S
C208 C207 1.409 . S
C208 H235 0.930 . S
C209 O222 1.270 . S
C209 O223 1.248 . S
C210 O224 1.267 . S
C210 O225 1.278 . S
C211 Pr201 2.880 1_556 S
C211 C212 1.491 . S
C211 O226 1.254 . S
C211 O227 1.225 . S
C212 C211 1.491 . S
C212 C213 1.392 . S
C212 C217 1.356 . S
C213 C212 1.392 . S
C213 C214 1.368 . S
C213 H236 0.929 . S
C214 C213 1.368 . S
C214 C215 1.386 . S
C214 H237 0.929 . S
C215 C214 1.386 . S
C215 C216 1.373 . S
C216 C215 1.373 . S
C216 C217 1.409 . S
C216 H238 0.931 . S
C217 C212 1.356 . S
C217 C216 1.409 . S
C217 H239 0.930 . S
C218 O228 1.270 . S
C218 O229 1.248 . S
C219 O230 1.268 . S
C219 O231 1.278 . S
O220 Pr200 2.562 . S
O220 C202 1.254 . S
O221 Pr200 2.490 . S
O221 C202 1.225 . S
O222 Pr200 2.695 . S
O222 Pr201 2.436 . S
O222 C209 1.270 . S
O223 Pr200 2.512 . S
O223 C209 1.248 . S
O224 Pr201 2.438 . S
O224 C210 1.267 . S
O225 Pr200 2.437 . S
O225 C210 1.278 . S
O226 Pr201 2.562 1_556 S
O226 C211 1.254 . S
O227 Pr201 2.490 1_556 S
O227 C211 1.225 . S
O228 Pr200 2.436 . S
O228 Pr201 2.695 . S
O228 C218 1.270 . S
O229 Pr201 2.512 . S
O229 C218 1.248 . S
O230 Pr200 2.438 . S
O230 C219 1.268 . S
O231 Pr201 2.437 . S
O231 C219 1.278 . S
H232 C204 0.929 . S
H233 C205 0.929 . S
H234 C207 0.931 . S
H235 C208 0.930 . S
H236 C213 0.929 . S
H237 C214 0.929 . S
H238 C216 0.931 . S
H239 C217 0.930 . S
Pr240 C242 2.880 . S
Pr240 O260 2.562 . S
Pr240 O261 2.490 . S
Pr240 O262 2.695 . S
Pr240 O263 2.512 . S
Pr240 O265 2.437 . S
Pr240 O268 2.436 . S
Pr240 O270 2.438 . S
Pr241 C251 2.880 . S
Pr241 O262 2.436 . S
Pr241 O264 2.438 . S
Pr241 O266 2.562 . S
Pr241 O267 2.490 . S
Pr241 O268 2.695 . S
Pr241 O269 2.512 . S
Pr241 O271 2.437 . S
C242 Pr240 2.880 . S
C242 C243 1.491 . S
C242 O260 1.254 . S
C242 O261 1.225 . S
C243 C242 1.491 . S
C243 C244 1.392 . S
C243 C248 1.356 . S
C244 C243 1.392 . S
C244 C245 1.368 . S
C244 H272 0.929 . S
C245 C244 1.368 . S
C245 C246 1.386 . S
C245 H273 0.929 . S
C246 C245 1.386 . S
C246 C247 1.373 . S
C247 C246 1.373 . S
C247 C248 1.409 . S
C247 H274 0.931 . S
C248 C243 1.356 . S
C248 C247 1.409 . S
C248 H275 0.930 . S
C249 O262 1.270 . S
C249 O263 1.248 . S
C250 O264 1.267 . S
C250 O265 1.278 . S
C251 Pr241 2.880 . S
C251 C252 1.491 . S
C251 O266 1.254 . S
C251 O267 1.225 . S
C252 C251 1.491 . S
C252 C253 1.392 . S
C252 C257 1.356 . S
C253 C252 1.392 . S
C253 C254 1.368 . S
C253 H276 0.929 . S
C254 C253 1.368 . S
C254 C255 1.386 . S
C254 H277 0.929 . S
C255 C254 1.386 . S
C255 C256 1.373 . S
C256 C255 1.373 . S
C256 C257 1.409 . S
C256 H278 0.931 . S
C257 C252 1.356 . S
C257 C256 1.409 . S
C257 H279 0.930 . S
C258 O268 1.270 . S
C258 O269 1.248 . S
C259 O270 1.267 . S
C259 O271 1.278 . S
O260 Pr240 2.562 . S
O260 C242 1.254 . S
O261 Pr240 2.490 . S
O261 C242 1.225 . S
O262 Pr240 2.695 . S
O262 Pr241 2.436 . S
O262 C249 1.270 . S
O263 Pr240 2.512 . S
O263 C249 1.248 . S
O264 Pr241 2.438 . S
O264 C250 1.267 . S
O265 Pr240 2.437 . S
O265 C250 1.278 . S
O266 Pr241 2.562 . S
O266 C251 1.254 . S
O267 Pr241 2.490 . S
O267 C251 1.225 . S
O268 Pr240 2.436 . S
O268 Pr241 2.695 . S
O268 C258 1.270 . S
O269 Pr241 2.512 . S
O269 C258 1.248 . S
O270 Pr240 2.438 . S
O270 C259 1.267 . S
O271 Pr241 2.437 . S
O271 C259 1.278 . S
H272 C244 0.929 . S
H273 C245 0.929 . S
H274 C247 0.931 . S
H275 C248 0.930 . S
H276 C253 0.929 . S
H277 C254 0.929 . S
H278 C256 0.931 . S
H279 C257 0.930 . S
Pr280 C282 2.880 . S
Pr280 O300 2.562 . S
Pr280 O301 2.490 . S
Pr280 O302 2.695 . S
Pr280 O303 2.512 . S
Pr280 O305 2.437 . S
Pr280 O308 2.436 . S
Pr280 O310 2.438 . S
Pr281 C291 2.880 . S
Pr281 O302 2.436 . S
Pr281 O304 2.438 . S
Pr281 O306 2.562 . S
Pr281 O307 2.490 . S
Pr281 O308 2.695 . S
Pr281 O309 2.512 . S
Pr281 O311 2.437 . S
C282 Pr280 2.880 . S
C282 C283 1.491 . S
C282 O300 1.254 . S
C282 O301 1.225 . S
C283 C282 1.491 . S
C283 C284 1.392 . S
C283 C288 1.356 . S
C284 C283 1.392 . S
C284 C285 1.368 . S
C284 H312 0.929 . S
C285 C284 1.368 . S
C285 C286 1.386 . S
C285 H313 0.929 . S
C286 C285 1.386 . S
C286 C287 1.373 . S
C287 C286 1.373 . S
C287 C288 1.409 . S
C287 H314 0.931 . S
C288 C283 1.356 . S
C288 C287 1.409 . S
C288 H315 0.930 . S
C289 O302 1.270 . S
C289 O303 1.248 . S
C290 O304 1.267 . S
C290 O305 1.278 . S
C291 Pr281 2.880 . S
C291 C292 1.491 . S
C291 O306 1.254 . S
C291 O307 1.225 . S
C292 C291 1.491 . S
C292 C293 1.392 . S
C292 C297 1.356 . S
C293 C292 1.392 . S
C293 C294 1.368 . S
C293 H316 0.929 . S
C294 C293 1.368 . S
C294 C295 1.386 . S
C294 H317 0.929 . S
C295 C294 1.386 . S
C295 C296 1.373 . S
C296 C295 1.373 . S
C296 C297 1.409 . S
C296 H318 0.931 . S
C297 C292 1.356 . S
C297 C296 1.409 . S
C297 H319 0.930 . S
C298 O308 1.270 . S
C298 O309 1.248 . S
C299 O310 1.267 . S
C299 O311 1.278 . S
O300 Pr280 2.562 . S
O300 C282 1.254 . S
O301 Pr280 2.490 . S
O301 C282 1.225 . S
O302 Pr280 2.695 . S
O302 Pr281 2.436 . S
O302 C289 1.270 . S
O303 Pr280 2.512 . S
O303 C289 1.248 . S
O304 Pr281 2.438 . S
O304 C290 1.267 . S
O305 Pr280 2.437 . S
O305 C290 1.278 . S
O306 Pr281 2.562 . S
O306 C291 1.254 . S
O307 Pr281 2.490 . S
O307 C291 1.225 . S
O308 Pr280 2.436 . S
O308 Pr281 2.695 . S
O308 C298 1.270 . S
O309 Pr281 2.512 . S
O309 C298 1.248 . S
O310 Pr280 2.438 . S
O310 C299 1.267 . S
O311 Pr281 2.437 . S
O311 C299 1.278 . S
H312 C284 0.929 . S
H313 C285 0.929 . S
H314 C287 0.931 . S
H315 C288 0.930 . S
H316 C293 0.929 . S
H317 C294 0.929 . S
H318 C296 0.931 . S
H319 C297 0.930 . S
Pr320 C322 2.880 . S
Pr320 O340 2.562 . S
Pr320 O341 2.490 . S
Pr320 O342 2.695 . S
Pr320 O343 2.512 . S
Pr320 O345 2.437 . S
Pr320 O348 2.436 . S
Pr320 O350 2.438 . S
Pr321 C331 2.880 . S
Pr321 O342 2.436 . S
Pr321 O344 2.438 . S
Pr321 O346 2.562 . S
Pr321 O347 2.490 . S
Pr321 O348 2.695 . S
Pr321 O349 2.512 . S
Pr321 O351 2.437 . S
C322 Pr320 2.880 . S
C322 C323 1.491 . S
C322 O340 1.254 . S
C322 O341 1.225 . S
C323 C322 1.491 . S
C323 C324 1.392 . S
C323 C328 1.356 . S
C324 C323 1.392 . S
C324 C325 1.368 . S
C324 H352 0.929 . S
C325 C324 1.368 . S
C325 C326 1.386 . S
C325 H353 0.929 . S
C326 C325 1.386 . S
C326 C327 1.373 . S
C327 C326 1.373 . S
C327 C328 1.409 . S
C327 H354 0.931 . S
C328 C323 1.356 . S
C328 C327 1.409 . S
C328 H355 0.930 . S
C329 O342 1.270 . S
C329 O343 1.248 . S
C330 O344 1.267 . S
C330 O345 1.278 . S
C331 Pr321 2.880 . S
C331 C332 1.491 . S
C331 O346 1.254 . S
C331 O347 1.225 . S
C332 C331 1.491 . S
C332 C333 1.392 . S
C332 C337 1.356 . S
C333 C332 1.392 . S
C333 C334 1.368 . S
C333 H356 0.929 . S
C334 C333 1.368 . S
C334 C335 1.386 . S
C334 H357 0.929 . S
C335 C334 1.386 . S
C335 C336 1.373 . S
C336 C335 1.373 . S
C336 C337 1.409 . S
C336 H358 0.931 . S
C337 C332 1.356 . S
C337 C336 1.409 . S
C337 H359 0.930 . S
C338 O348 1.270 . S
C338 O349 1.248 . S
C339 O350 1.267 . S
C339 O351 1.278 . S
O340 Pr320 2.562 . S
O340 C322 1.254 . S
O341 Pr320 2.490 . S
O341 C322 1.225 . S
O342 Pr320 2.695 . S
O342 Pr321 2.436 . S
O342 C329 1.270 . S
O343 Pr320 2.512 . S
O343 C329 1.248 . S
O344 Pr321 2.438 . S
O344 C330 1.267 . S
O345 Pr320 2.437 . S
O345 C330 1.278 . S
O346 Pr321 2.562 . S
O346 C331 1.254 . S
O347 Pr321 2.490 . S
O347 C331 1.225 . S
O348 Pr320 2.436 . S
O348 Pr321 2.695 . S
O348 C338 1.270 . S
O349 Pr321 2.512 . S
O349 C338 1.248 . S
O350 Pr320 2.438 . S
O350 C339 1.267 . S
O351 Pr321 2.437 . S
O351 C339 1.278 . S
H352 C324 0.929 . S
H353 C325 0.929 . S
H354 C327 0.931 . S
H355 C328 0.930 . S
H356 C333 0.929 . S
H357 C334 0.929 . S
H358 C336 0.931 . S
H359 C337 0.930 . S
Pr360 C362 2.880 . S
Pr360 O380 2.562 . S
Pr360 O381 2.490 . S
Pr360 O382 2.695 . S
Pr360 O383 2.512 . S
Pr360 O385 2.437 . S
Pr360 O388 2.436 . S
Pr360 O390 2.438 . S
Pr361 C371 2.880 . S
Pr361 O382 2.436 . S
Pr361 O384 2.438 . S
Pr361 O386 2.562 . S
Pr361 O387 2.490 . S
Pr361 O388 2.695 . S
Pr361 O389 2.512 . S
Pr361 O391 2.437 . S
C362 Pr360 2.880 . S
C362 C363 1.491 . S
C362 O380 1.254 . S
C362 O381 1.225 . S
C363 C362 1.491 . S
C363 C364 1.392 . S
C363 C368 1.356 . S
C364 C363 1.392 . S
C364 C365 1.368 . S
C364 H392 0.929 . S
C365 C364 1.368 . S
C365 C366 1.386 . S
C365 H393 0.929 . S
C366 C365 1.386 . S
C366 C367 1.373 . S
C367 C366 1.373 . S
C367 C368 1.409 . S
C367 H394 0.931 . S
C368 C363 1.356 . S
C368 C367 1.409 . S
C368 H395 0.930 . S
C369 O382 1.270 . S
C369 O383 1.248 . S
C370 O384 1.267 . S
C370 O385 1.278 . S
C371 Pr361 2.880 . S
C371 C372 1.491 . S
C371 O386 1.254 . S
C371 O387 1.225 . S
C372 C371 1.491 . S
C372 C373 1.392 . S
C372 C377 1.356 1_554 S
C373 C372 1.392 . S
C373 C374 1.368 1_554 S
C373 H396 0.929 . S
C374 C373 1.368 1_556 S
C374 C375 1.386 . S
C374 H397 0.929 . S
C375 C374 1.386 . S
C375 C376 1.373 . S
C376 C375 1.373 . S
C376 C377 1.409 . S
C376 H398 0.931 . S
C377 C372 1.356 1_556 S
C377 C376 1.409 . S
C377 H399 0.930 1_556 S
C378 O388 1.270 . S
C378 O389 1.248 . S
C379 O390 1.267 . S
C379 O391 1.278 . S
O380 Pr360 2.562 . S
O380 C362 1.254 . S
O381 Pr360 2.490 . S
O381 C362 1.225 . S
O382 Pr360 2.695 . S
O382 Pr361 2.436 . S
O382 C369 1.270 . S
O383 Pr360 2.512 . S
O383 C369 1.248 . S
O384 Pr361 2.438 . S
O384 C370 1.267 . S
O385 Pr360 2.437 . S
O385 C370 1.278 . S
O386 Pr361 2.562 . S
O386 C371 1.254 . S
O387 Pr361 2.490 . S
O387 C371 1.225 . S
O388 Pr360 2.436 . S
O388 Pr361 2.695 . S
O388 C378 1.270 . S
O389 Pr361 2.512 . S
O389 C378 1.248 . S
O390 Pr360 2.438 . S
O390 C379 1.267 . S
O391 Pr361 2.437 . S
O391 C379 1.278 . S
H392 C364 0.929 . S
H393 C365 0.929 . S
H394 C367 0.931 . S
H395 C368 0.930 . S
H396 C373 0.929 . S
H397 C374 0.929 . S
H398 C376 0.931 . S
H399 C377 0.930 1_554 S
Pr400 C402 2.880 . S
Pr400 O420 2.562 . S
Pr400 O421 2.490 . S
Pr400 O422 2.695 . S
Pr400 O423 2.512 . S
Pr400 O425 2.437 . S
Pr400 O428 2.436 . S
Pr400 O430 2.438 . S
Pr401 C411 2.880 . S
Pr401 O422 2.436 . S
Pr401 O424 2.438 . S
Pr401 O426 2.562 . S
Pr401 O427 2.490 . S
Pr401 O428 2.695 . S
Pr401 O429 2.512 . S
Pr401 O431 2.437 . S
C402 Pr400 2.880 . S
C402 C403 1.491 1_556 S
C402 O420 1.254 . S
C402 O421 1.225 . S
C403 C402 1.491 1_554 S
C403 C404 1.392 . S
C403 C408 1.356 . S
C404 C403 1.392 . S
C404 C405 1.368 . S
C404 H432 0.929 1_554 S
C405 C404 1.368 . S
C405 C406 1.386 . S
C405 H433 0.929 . S
C406 C405 1.386 . S
C406 C407 1.373 . S
C407 C406 1.373 . S
C407 C408 1.409 . S
C407 H434 0.931 . S
C408 C403 1.356 . S
C408 C407 1.409 . S
C408 H435 0.930 . S
C409 O422 1.270 . S
C409 O423 1.248 . S
C410 O424 1.267 . S
C410 O425 1.278 . S
C411 Pr401 2.880 . S
C411 C412 1.491 . S
C411 O426 1.254 . S
C411 O427 1.225 . S
C412 C411 1.491 . S
C412 C413 1.392 . S
C412 C417 1.356 . S
C413 C412 1.392 . S
C413 C414 1.368 . S
C413 H436 0.929 . S
C414 C413 1.368 . S
C414 C415 1.386 . S
C414 H437 0.929 . S
C415 C414 1.386 . S
C415 C416 1.373 . S
C416 C415 1.373 . S
C416 C417 1.409 . S
C416 H438 0.931 . S
C417 C412 1.356 . S
C417 C416 1.409 . S
C417 H439 0.930 . S
C418 O428 1.270 . S
C418 O429 1.248 . S
C419 O430 1.267 . S
C419 O431 1.278 . S
O420 Pr400 2.562 . S
O420 C402 1.254 . S
O421 Pr400 2.490 . S
O421 C402 1.225 . S
O422 Pr400 2.695 . S
O422 Pr401 2.436 . S
O422 C409 1.270 . S
O423 Pr400 2.512 . S
O423 C409 1.248 . S
O424 Pr401 2.438 . S
O424 C410 1.267 . S
O425 Pr400 2.437 . S
O425 C410 1.278 . S
O426 Pr401 2.562 . S
O426 C411 1.254 . S
O427 Pr401 2.490 . S
O427 C411 1.225 . S
O428 Pr400 2.436 . S
O428 Pr401 2.695 . S
O428 C418 1.270 . S
O429 Pr401 2.512 . S
O429 C418 1.248 . S
O430 Pr400 2.438 . S
O430 C419 1.267 . S
O431 Pr401 2.437 . S
O431 C419 1.278 . S
H432 C404 0.929 1_556 S
H433 C405 0.929 . S
H434 C407 0.931 . S
H435 C408 0.930 . S
H436 C413 0.929 . S
H437 C414 0.929 . S
H438 C416 0.931 . S
H439 C417 0.930 . S
Pr440 C442 2.880 . S
Pr440 O460 2.562 . S
Pr440 O461 2.490 . S
Pr440 O462 2.695 . S
Pr440 O463 2.512 . S
Pr440 O465 2.437 . S
Pr440 O468 2.436 . S
Pr440 O470 2.438 . S
Pr441 C451 2.880 . S
Pr441 O462 2.436 . S
Pr441 O464 2.438 . S
Pr441 O466 2.562 . S
Pr441 O467 2.490 . S
Pr441 O468 2.695 . S
Pr441 O469 2.512 . S
Pr441 O471 2.437 . S
C442 Pr440 2.880 . S
C442 C443 1.491 . S
C442 O460 1.254 . S
C442 O461 1.225 . S
C443 C442 1.491 . S
C443 C444 1.392 . S
C443 C448 1.356 . S
C444 C443 1.392 . S
C444 C445 1.368 . S
C444 H472 0.929 . S
C445 C444 1.368 . S
C445 C446 1.386 . S
C445 H473 0.929 . S
C446 C445 1.386 . S
C446 C447 1.373 . S
C447 C446 1.373 . S
C447 C448 1.409 . S
C447 H474 0.931 . S
C448 C443 1.356 . S
C448 C447 1.409 . S
C448 H475 0.930 . S
C449 O462 1.270 . S
C449 O463 1.248 . S
C450 O464 1.267 . S
C450 O465 1.278 . S
C451 Pr441 2.880 . S
C451 C452 1.491 . S
C451 O466 1.254 . S
C451 O467 1.225 . S
C452 C451 1.491 . S
C452 C453 1.392 . S
C452 C457 1.356 . S
C453 C452 1.392 . S
C453 C454 1.368 . S
C453 H476 0.929 . S
C454 C453 1.368 . S
C454 C455 1.386 . S
C454 H477 0.929 . S
C455 C454 1.386 . S
C455 C456 1.373 . S
C456 C455 1.373 . S
C456 C457 1.409 . S
C456 H478 0.931 . S
C457 C452 1.356 . S
C457 C456 1.409 . S
C457 H479 0.930 . S
C458 O468 1.270 . S
C458 O469 1.248 . S
C459 O470 1.267 . S
C459 O471 1.278 . S
O460 Pr440 2.562 . S
O460 C442 1.254 . S
O461 Pr440 2.490 . S
O461 C442 1.225 . S
O462 Pr440 2.695 . S
O462 Pr441 2.436 . S
O462 C449 1.270 . S
O463 Pr440 2.512 . S
O463 C449 1.248 . S
O464 Pr441 2.438 . S
O464 C450 1.267 . S
O465 Pr440 2.437 . S
O465 C450 1.278 . S
O466 Pr441 2.562 . S
O466 C451 1.254 . S
O467 Pr441 2.490 . S
O467 C451 1.225 . S
O468 Pr440 2.436 . S
O468 Pr441 2.695 . S
O468 C458 1.270 . S
O469 Pr441 2.512 . S
O469 C458 1.248 . S
O470 Pr440 2.438 . S
O470 C459 1.267 . S
O471 Pr441 2.437 . S
O471 C459 1.278 . S
H472 C444 0.929 . S
H473 C445 0.929 . S
H474 C447 0.931 . S
H475 C448 0.930 . S
H476 C453 0.929 . S
H477 C454 0.929 . S
H478 C456 0.931 . S
H479 C457 0.930 . S
Pr480 C482 2.880 . S
Pr480 O500 2.562 . S
Pr480 O501 2.490 . S
Pr480 O502 2.695 . S
Pr480 O503 2.512 . S
Pr480 O505 2.437 . S
Pr480 O508 2.436 . S
Pr480 O510 2.438 . S
Pr481 C491 2.880 . S
Pr481 O502 2.436 . S
Pr481 O504 2.438 . S
Pr481 O506 2.562 . S
Pr481 O507 2.490 . S
Pr481 O508 2.695 . S
Pr481 O509 2.512 . S
Pr481 O511 2.437 . S
C482 Pr480 2.880 . S
C482 C483 1.491 . S
C482 O500 1.254 . S
C482 O501 1.225 . S
C483 C482 1.491 . S
C483 C484 1.392 . S
C483 C488 1.356 . S
C484 C483 1.392 . S
C484 C485 1.368 . S
C484 H512 0.929 . S
C485 C484 1.368 . S
C485 C486 1.386 . S
C485 H513 0.929 . S
C486 C485 1.386 . S
C486 C487 1.373 . S
C487 C486 1.373 . S
C487 C488 1.409 . S
C487 H514 0.931 . S
C488 C483 1.356 . S
C488 C487 1.409 . S
C488 H515 0.930 . S
C489 O502 1.270 . S
C489 O503 1.248 . S
C490 O504 1.267 . S
C490 O505 1.278 . S
C491 Pr481 2.880 . S
C491 C492 1.491 . S
C491 O506 1.254 . S
C491 O507 1.225 . S
C492 C491 1.491 . S
C492 C493 1.392 . S
C492 C497 1.356 . S
C493 C492 1.392 . S
C493 C494 1.368 . S
C493 H516 0.929 . S
C494 C493 1.368 . S
C494 C495 1.386 . S
C494 H517 0.929 . S
C495 C494 1.386 . S
C495 C496 1.373 . S
C496 C495 1.373 . S
C496 C497 1.409 . S
C496 H518 0.931 . S
C497 C492 1.356 . S
C497 C496 1.409 . S
C497 H519 0.930 . S
C498 O508 1.270 . S
C498 O509 1.248 . S
C499 O510 1.267 . S
C499 O511 1.278 . S
O500 Pr480 2.562 . S
O500 C482 1.254 . S
O501 Pr480 2.490 . S
O501 C482 1.225 . S
O502 Pr480 2.695 . S
O502 Pr481 2.436 . S
O502 C489 1.270 . S
O503 Pr480 2.512 . S
O503 C489 1.248 . S
O504 Pr481 2.438 . S
O504 C490 1.267 . S
O505 Pr480 2.437 . S
O505 C490 1.278 . S
O506 Pr481 2.562 . S
O506 C491 1.254 . S
O507 Pr481 2.490 . S
O507 C491 1.225 . S
O508 Pr480 2.436 . S
O508 Pr481 2.695 . S
O508 C498 1.270 . S
O509 Pr481 2.512 . S
O509 C498 1.248 . S
O510 Pr480 2.438 . S
O510 C499 1.267 . S
O511 Pr481 2.437 . S
O511 C499 1.278 . S
H512 C484 0.929 . S
H513 C485 0.929 . S
H514 C487 0.931 . S
H515 C488 0.930 . S
H516 C493 0.929 . S
H517 C494 0.929 . S
H518 C496 0.931 . S
H519 C497 0.930 . S
Pr520 C522 2.880 1_554 S
Pr520 O540 2.562 . S
Pr520 O541 2.490 . S
Pr520 O542 2.695 1_655 S
Pr520 O543 2.512 1_655 S
Pr520 O545 2.437 1_655 S
Pr520 O548 2.436 1_655 S
Pr520 O550 2.438 . S
Pr521 C531 2.880 . S
Pr521 O542 2.436 . S
Pr521 O544 2.438 . S
Pr521 O546 2.562 . S
Pr521 O547 2.490 . S
Pr521 O548 2.695 . S
Pr521 O549 2.512 . S
Pr521 O551 2.437 . S
C522 Pr520 2.880 1_556 S
C522 C523 1.491 . S
C522 O540 1.254 1_556 S
C522 O541 1.225 1_556 S
C523 C522 1.491 . S
C523 C524 1.392 . S
C523 C528 1.356 . S
C524 C523 1.392 . S
C524 C525 1.368 . S
C524 H552 0.929 . S
C525 C524 1.368 . S
C525 C526 1.386 . S
C525 H553 0.929 . S
C526 C525 1.386 . S
C526 C527 1.373 . S
C527 C526 1.373 . S
C527 C528 1.409 . S
C527 H554 0.931 . S
C528 C523 1.356 . S
C528 C527 1.409 . S
C528 H555 0.930 . S
C529 O542 1.270 . S
C529 O543 1.248 . S
C530 O544 1.267 . S
C530 O545 1.278 . S
C531 Pr521 2.880 . S
C531 C532 1.491 . S
C531 O546 1.254 . S
C531 O547 1.225 . S
C532 C531 1.491 . S
C532 C533 1.392 . S
C532 C537 1.356 . S
C533 C532 1.392 . S
C533 C534 1.368 . S
C533 H556 0.929 . S
C534 C533 1.368 . S
C534 C535 1.386 . S
C534 H557 0.929 . S
C535 C534 1.386 . S
C535 C536 1.373 . S
C536 C535 1.373 . S
C536 C537 1.409 . S
C536 H558 0.931 . S
C537 C532 1.356 . S
C537 C536 1.409 . S
C537 H559 0.930 . S
C538 O548 1.270 . S
C538 O549 1.248 . S
C539 O550 1.267 . S
C539 O551 1.278 1_655 S
O540 Pr520 2.562 . S
O540 C522 1.254 1_554 S
O541 Pr520 2.490 . S
O541 C522 1.225 1_554 S
O542 Pr520 2.695 1_455 S
O542 Pr521 2.436 . S
O542 C529 1.270 . S
O543 Pr520 2.512 1_455 S
O543 C529 1.248 . S
O544 Pr521 2.438 . S
O544 C530 1.267 . S
O545 Pr520 2.437 1_455 S
O545 C530 1.278 . S
O546 Pr521 2.562 . S
O546 C531 1.254 . S
O547 Pr521 2.490 . S
O547 C531 1.225 . S
O548 Pr520 2.436 1_455 S
O548 Pr521 2.695 . S
O548 C538 1.270 . S
O549 Pr521 2.512 . S
O549 C538 1.248 . S
O550 Pr520 2.438 . S
O550 C539 1.267 . S
O551 Pr521 2.437 . S
O551 C539 1.278 1_455 S
H552 C524 0.929 . S
H553 C525 0.929 . S
H554 C527 0.931 . S
H555 C528 0.930 . S
H556 C533 0.929 . S
H557 C534 0.929 . S
H558 C536 0.931 . S
H559 C537 0.930 . S
Pr560 C562 2.880 . S
Pr560 O580 2.562 . S
Pr560 O581 2.490 . S
Pr560 O582 2.695 . S
Pr560 O583 2.512 . S
Pr560 O585 2.437 . S
Pr560 O588 2.436 . S
Pr560 O590 2.438 . S
Pr561 C571 2.880 . S
Pr561 O582 2.436 . S
Pr561 O584 2.438 . S
Pr561 O586 2.562 . S
Pr561 O587 2.490 . S
Pr561 O588 2.695 . S
Pr561 O589 2.512 . S
Pr561 O591 2.437 . S
C562 Pr560 2.880 . S
C562 C563 1.491 . S
C562 O580 1.254 . S
C562 O581 1.225 . S
C563 C562 1.491 . S
C563 C564 1.392 . S
C563 C568 1.356 . S
C564 C563 1.392 . S
C564 C565 1.368 . S
C564 H592 0.929 . S
C565 C564 1.368 . S
C565 C566 1.386 . S
C565 H593 0.929 . S
C566 C565 1.386 . S
C566 C567 1.373 . S
C567 C566 1.373 . S
C567 C568 1.409 . S
C567 H594 0.931 . S
C568 C563 1.356 . S
C568 C567 1.409 . S
C568 H595 0.930 . S
C569 O582 1.270 . S
C569 O583 1.248 . S
C570 O584 1.267 . S
C570 O585 1.278 . S
C571 Pr561 2.880 . S
C571 C572 1.491 . S
C571 O586 1.254 . S
C571 O587 1.225 . S
C572 C571 1.491 . S
C572 C573 1.392 . S
C572 C577 1.356 . S
C573 C572 1.392 . S
C573 C574 1.368 . S
C573 H596 0.929 . S
C574 C573 1.368 . S
C574 C575 1.386 . S
C574 H597 0.929 . S
C575 C574 1.386 . S
C575 C576 1.373 . S
C576 C575 1.373 . S
C576 C577 1.409 . S
C576 H598 0.931 . S
C577 C572 1.356 . S
C577 C576 1.409 . S
C577 H599 0.930 . S
C578 O588 1.270 . S
C578 O589 1.248 . S
C579 O590 1.267 . S
C579 O591 1.278 . S
O580 Pr560 2.562 . S
O580 C562 1.254 . S
O581 Pr560 2.490 . S
O581 C562 1.225 . S
O582 Pr560 2.695 . S
O582 Pr561 2.436 . S
O582 C569 1.270 . S
O583 Pr560 2.512 . S
O583 C569 1.248 . S
O584 Pr561 2.438 . S
O584 C570 1.267 . S
O585 Pr560 2.437 . S
O585 C570 1.278 . S
O586 Pr561 2.562 . S
O586 C571 1.254 . S
O587 Pr561 2.490 . S
O587 C571 1.225 . S
O588 Pr560 2.436 . S
O588 Pr561 2.695 . S
O588 C578 1.270 . S
O589 Pr561 2.512 . S
O589 C578 1.248 . S
O590 Pr560 2.438 . S
O590 C579 1.267 . S
O591 Pr561 2.437 . S
O591 C579 1.278 . S
H592 C564 0.929 . S
H593 C565 0.929 . S
H594 C567 0.931 . S
H595 C568 0.930 . S
H596 C573 0.929 . S
H597 C574 0.929 . S
H598 C576 0.931 . S
H599 C577 0.930 . S
Pr600 C602 2.880 1_556 S
Pr600 O620 2.562 1_556 S
Pr600 O621 2.490 . S
Pr600 O622 2.695 1_655 S
Pr600 O623 2.512 . S
Pr600 O625 2.437 1_655 S
Pr600 O628 2.436 1_655 S
Pr600 O630 2.438 . S
Pr601 C611 2.880 . S
Pr601 O622 2.436 . S
Pr601 O624 2.438 . S
Pr601 O626 2.562 . S
Pr601 O627 2.490 . S
Pr601 O628 2.695 . S
Pr601 O629 2.512 . S
Pr601 O631 2.437 . S
C602 Pr600 2.880 1_554 S
C602 C603 1.491 . S
C602 O620 1.254 . S
C602 O621 1.225 1_554 S
C603 C602 1.491 . S
C603 C604 1.392 . S
C603 C608 1.356 . S
C604 C603 1.392 . S
C604 C605 1.368 . S
C604 H632 0.929 . S
C605 C604 1.368 . S
C605 C606 1.386 . S
C605 H633 0.929 . S
C606 C605 1.386 . S
C606 C607 1.373 . S
C607 C606 1.373 . S
C607 C608 1.409 . S
C607 H634 0.931 . S
C608 C603 1.356 . S
C608 C607 1.409 . S
C608 H635 0.930 . S
C609 O622 1.270 . S
C609 O623 1.248 1_455 S
C610 O624 1.267 . S
C610 O625 1.278 . S
C611 Pr601 2.880 . S
C611 C612 1.491 . S
C611 O626 1.254 . S
C611 O627 1.225 . S
C612 C611 1.491 . S
C612 C613 1.392 . S
C612 C617 1.356 . S
C613 C612 1.392 . S
C613 C614 1.368 . S
C613 H636 0.929 . S
C614 C613 1.368 . S
C614 C615 1.386 . S
C614 H637 0.929 . S
C615 C614 1.386 . S
C615 C616 1.373 . S
C616 C615 1.373 . S
C616 C617 1.409 . S
C616 H638 0.931 . S
C617 C612 1.356 . S
C617 C616 1.409 . S
C617 H639 0.930 . S
C618 O628 1.270 . S
C618 O629 1.248 . S
C619 O630 1.267 . S
C619 O631 1.278 1_655 S
O620 Pr600 2.562 1_554 S
O620 C602 1.254 . S
O621 Pr600 2.490 . S
O621 C602 1.225 1_556 S
O622 Pr600 2.695 1_455 S
O622 Pr601 2.436 . S
O622 C609 1.270 . S
O623 Pr600 2.512 . S
O623 C609 1.248 1_655 S
O624 Pr601 2.438 . S
O624 C610 1.267 . S
O625 Pr600 2.437 1_455 S
O625 C610 1.278 . S
O626 Pr601 2.562 . S
O626 C611 1.254 . S
O627 Pr601 2.490 . S
O627 C611 1.225 . S
O628 Pr600 2.436 1_455 S
O628 Pr601 2.695 . S
O628 C618 1.270 . S
O629 Pr601 2.512 . S
O629 C618 1.248 . S
O630 Pr600 2.438 . S
O630 C619 1.267 . S
O631 Pr601 2.437 . S
O631 C619 1.278 1_455 S
H632 C604 0.929 . S
H633 C605 0.929 . S
H634 C607 0.931 . S
H635 C608 0.930 . S
H636 C613 0.929 . S
H637 C614 0.929 . S
H638 C616 0.931 . S
H639 C617 0.930 . S
C640 C641 1.387 . S
C640 H644 0.950 . S
C640 C649 1.390 . S
C641 C640 1.387 . S
C641 C643 1.387 1_554 S
H642 C649 0.950 . S
C643 C641 1.387 1_556 S
C643 C645 1.390 . S
C643 H647 0.950 . S
H644 C640 0.950 . S
C645 C643 1.390 . S
C645 C646 1.387 . S
C645 H648 0.950 . S
C646 C645 1.387 . S
C646 C649 1.387 1_556 S
H647 C643 0.950 . S
H648 C645 0.950 . S
C649 C640 1.390 . S
C649 H642 0.950 . S
C649 C646 1.387 1_554 S
C650 C651 1.387 . S
C650 H654 0.950 . S
C650 C659 1.390 . S
C651 C650 1.387 . S
C651 C653 1.387 . S
H652 C659 0.950 . S
C653 C651 1.387 . S
C653 C655 1.390 . S
C653 H657 0.950 . S
H654 C650 0.950 . S
C655 C653 1.390 . S
C655 C656 1.387 . S
C655 H658 0.950 . S
C656 C655 1.387 . S
C656 C659 1.387 . S
H657 C653 0.950 . S
H658 C655 0.950 . S
C659 C650 1.390 . S
C659 H652 0.950 . S
C659 C656 1.387 . S
C660 C661 1.387 . S
C660 H664 0.950 . S
C660 C669 1.390 . S
C661 C660 1.387 . S
C661 C663 1.387 . S
H662 C669 0.950 . S
C663 C661 1.387 . S
C663 C665 1.390 . S
C663 H667 0.950 . S
H664 C660 0.950 . S
C665 C663 1.390 . S
C665 C666 1.387 . S
C665 H668 0.950 . S
C666 C665 1.387 . S
C666 C669 1.387 . S
H667 C663 0.950 . S
H668 C665 0.950 . S
C669 C660 1.390 . S
C669 H662 0.950 . S
C669 C666 1.387 . S
C670 C671 1.387 . S
C670 H674 0.950 . S
C670 C679 1.390 . S
C671 C670 1.387 . S
C671 C673 1.387 . S
H672 C679 0.950 . S
C673 C671 1.387 . S
C673 C675 1.390 . S
C673 H677 0.950 . S
H674 C670 0.950 . S
C675 C673 1.390 . S
C675 C676 1.387 . S
C675 H678 0.950 . S
C676 C675 1.387 . S
C676 C679 1.387 . S
H677 C673 0.950 . S
H678 C675 0.950 . S
C679 C670 1.390 . S
C679 H672 0.950 . S
C679 C676 1.387 . S
C680 C681 1.387 . S
C680 H684 0.950 . S
C680 C689 1.390 . S
C681 C680 1.387 . S
C681 C683 1.387 . S
H682 C689 0.950 . S
C683 C681 1.387 . S
C683 C685 1.390 . S
C683 H687 0.950 . S
H684 C680 0.950 . S
C685 C683 1.390 . S
C685 C686 1.387 . S
C685 H688 0.950 . S
C686 C685 1.387 . S
C686 C689 1.387 . S
H687 C683 0.950 . S
H688 C685 0.950 . S
C689 C680 1.390 . S
C689 H682 0.950 . S
C689 C686 1.387 . S
C690 C691 1.387 . S
C690 H694 0.950 . S
C690 C699 1.390 . S
C691 C690 1.387 . S
C691 C693 1.387 . S
H692 C699 0.950 . S
C693 C691 1.387 . S
C693 C695 1.390 . S
C693 H697 0.950 . S
H694 C690 0.950 . S
C695 C693 1.390 . S
C695 C696 1.387 . S
C695 H698 0.950 . S
C696 C695 1.387 . S
C696 C699 1.387 . S
H697 C693 0.950 . S
H698 C695 0.950 . S
C699 C690 1.390 . S
C699 H692 0.950 . S
C699 C696 1.387 . S
C700 C701 1.387 . S
C700 H704 0.950 . S
C700 C709 1.390 . S
C701 C700 1.387 . S
C701 C703 1.387 . S
H702 C709 0.950 . S
C703 C701 1.387 . S
C703 C705 1.390 . S
C703 H707 0.950 . S
H704 C700 0.950 . S
C705 C703 1.390 . S
C705 C706 1.387 . S
C705 H708 0.950 . S
C706 C705 1.387 . S
C706 C709 1.387 . S
H707 C703 0.950 . S
H708 C705 0.950 . S
C709 C700 1.390 . S
C709 H702 0.950 . S
C709 C706 1.387 . S
C710 C711 1.387 . S
C710 H714 0.950 . S
C710 C719 1.390 . S
C711 C710 1.387 . S
C711 C713 1.387 . S
H712 C719 0.950 . S
C713 C711 1.387 . S
C713 C715 1.390 . S
C713 H717 0.950 . S
H714 C710 0.950 . S
C715 C713 1.390 . S
C715 C716 1.387 . S
C715 H718 0.950 . S
C716 C715 1.387 . S
C716 C719 1.387 . S
H717 C713 0.950 . S
H718 C715 0.950 . S
C719 C710 1.390 . S
C719 H712 0.950 . S
C719 C716 1.387 . S
C720 C721 1.387 . S
C720 H724 0.950 . S
C720 C729 1.390 . S
C721 C720 1.387 . S
C721 C723 1.387 . S
H722 C729 0.950 . S
C723 C721 1.387 . S
C723 C725 1.390 . S
C723 H727 0.950 . S
H724 C720 0.950 . S
C725 C723 1.390 . S
C725 C726 1.387 . S
C725 H728 0.950 . S
C726 C725 1.387 . S
C726 C729 1.387 . S
H727 C723 0.950 . S
H728 C725 0.950 . S
C729 C720 1.390 . S
C729 H722 0.950 . S
C729 C726 1.387 . S
C730 C731 1.387 . S
C730 H734 0.950 . S
C730 C739 1.390 . S
C731 C730 1.387 . S
C731 C733 1.387 . S
H732 C739 0.950 . S
C733 C731 1.387 . S
C733 C735 1.390 . S
C733 H737 0.950 . S
H734 C730 0.950 . S
C735 C733 1.390 . S
C735 C736 1.387 . S
C735 H738 0.950 . S
C736 C735 1.387 . S
C736 C739 1.387 . S
H737 C733 0.950 . S
H738 C735 0.950 . S
C739 C730 1.390 . S
C739 H732 0.950 . S
C739 C736 1.387 . S
C740 C741 1.387 . S
C740 H744 0.950 . S
C740 C749 1.390 . S
C741 C740 1.387 . S
C741 C743 1.387 . S
H742 C749 0.950 . S
C743 C741 1.387 . S
C743 C745 1.390 . S
C743 H747 0.950 . S
H744 C740 0.950 . S
C745 C743 1.390 . S
C745 C746 1.387 . S
C745 H748 0.950 . S
C746 C745 1.387 . S
C746 C749 1.387 . S
H747 C743 0.950 . S
H748 C745 0.950 . S
C749 C740 1.390 . S
C749 H742 0.950 . S
C749 C746 1.387 . S
C750 C751 1.387 . S
C750 H754 0.950 . S
C750 C759 1.390 . S
C751 C750 1.387 . S
C751 C753 1.387 . S
H752 C759 0.950 . S
C753 C751 1.387 . S
C753 C755 1.390 . S
C753 H757 0.950 . S
H754 C750 0.950 . S
C755 C753 1.390 . S
C755 C756 1.387 . S
C755 H758 0.950 . S
C756 C755 1.387 . S
C756 C759 1.387 . S
H757 C753 0.950 . S
H758 C755 0.950 . S
C759 C750 1.390 . S
C759 H752 0.950 . S
C759 C756 1.387 . S
C760 C761 1.387 . S
C760 H764 0.950 . S
C760 C769 1.390 . S
C761 C760 1.387 . S
C761 C763 1.387 . S
H762 C769 0.950 . S
C763 C761 1.387 . S
C763 C765 1.390 . S
C763 H767 0.950 . S
H764 C760 0.950 . S
C765 C763 1.390 . S
C765 C766 1.387 . S
C765 H768 0.950 . S
C766 C765 1.387 . S
C766 C769 1.387 . S
H767 C763 0.950 . S
H768 C765 0.950 . S
C769 C760 1.390 . S
C769 H762 0.950 . S
C769 C766 1.387 . S
C770 C771 1.387 . S
C770 H774 0.950 . S
C770 C779 1.390 . S
C771 C770 1.387 . S
C771 C773 1.387 . S
H772 C779 0.950 . S
C773 C771 1.387 . S
C773 C775 1.390 . S
C773 H777 0.950 . S
H774 C770 0.950 . S
C775 C773 1.390 . S
C775 C776 1.387 . S
C775 H778 0.950 . S
C776 C775 1.387 . S
C776 C779 1.387 . S
H777 C773 0.950 . S
H778 C775 0.950 . S
C779 C770 1.390 . S
C779 H772 0.950 . S
C779 C776 1.387 . S
C780 C781 1.387 . S
C780 H784 0.950 . S
C780 C789 1.390 . S
C781 C780 1.387 . S
C781 C783 1.387 . S
H782 C789 0.950 1_556 S
C783 C781 1.387 . S
C783 C785 1.390 . S
C783 H787 0.950 . S
H784 C780 0.950 . S
C785 C783 1.390 . S
C785 C786 1.387 1_554 S
C785 H788 0.942 1_554 S
C786 C785 1.387 1_556 S
C786 C789 1.387 1_556 S
H787 C783 0.950 . S
H788 C785 0.942 1_556 S
C789 C780 1.390 . S
C789 H782 0.950 1_554 S
C789 C786 1.387 1_554 S
C790 C791 1.387 . S
C790 H794 0.950 . S
C790 C799 1.390 . S
C791 C790 1.387 . S
C791 C793 1.387 . S
H792 C799 0.950 . S
C793 C791 1.387 . S
C793 C795 1.390 . S
C793 H797 0.950 . S
H794 C790 0.950 . S
C795 C793 1.390 . S
C795 C796 1.387 . S
C795 H798 0.950 . S
C796 C795 1.387 . S
C796 C799 1.387 . S
H797 C793 0.950 . S
H798 C795 0.950 . S
C799 C790 1.390 . S
C799 H792 0.950 . S
C799 C796 1.387 . S
C800 C801 1.387 . S
C800 H804 0.950 . S
C800 C809 1.390 . S
C801 C800 1.387 . S
C801 C803 1.387 . S
H802 C809 0.950 . S
C803 C801 1.387 . S
C803 C805 1.390 . S
C803 H807 0.950 . S
H804 C800 0.950 . S
C805 C803 1.390 . S
C805 C806 1.387 . S
C805 H808 0.950 . S
C806 C805 1.387 . S
C806 C809 1.387 . S
H807 C803 0.950 . S
H808 C805 0.950 . S
C809 C800 1.390 . S
C809 H802 0.950 . S
C809 C806 1.387 . S
C810 C811 1.387 1_455 S
C810 H814 0.950 1_455 S
C810 C819 1.390 . S
C811 C810 1.387 1_655 S
C811 C813 1.387 . S
H812 C819 0.950 . S
C813 C811 1.387 . S
C813 C815 1.390 1_655 S
C813 H817 0.950 . S
H814 C810 0.950 1_655 S
C815 C813 1.390 1_455 S
C815 C816 1.387 . S
C815 H818 0.950 . S
C816 C815 1.387 . S
C816 C819 1.387 . S
H817 C813 0.950 . S
H818 C815 0.950 . S
C819 C810 1.390 . S
C819 H812 0.950 . S
C819 C816 1.387 . S
C820 C821 1.387 . S
C820 H824 0.950 . S
C820 C829 1.390 . S
C821 C820 1.387 . S
C821 C823 1.387 . S
H822 C829 0.950 . S
C823 C821 1.387 . S
C823 C825 1.390 . S
C823 H827 0.950 . S
H824 C820 0.950 . S
C825 C823 1.390 . S
C825 C826 1.387 . S
C825 H828 0.950 . S
C826 C825 1.387 . S
C826 C829 1.387 . S
H827 C823 0.950 . S
H828 C825 0.950 . S
C829 C820 1.390 . S
C829 H822 0.950 . S
C829 C826 1.387 . S
C830 C831 1.387 . S
C830 H834 0.950 . S
C830 C839 1.390 . S
C831 C830 1.387 . S
C831 C833 1.387 . S
H832 C839 0.950 . S
C833 C831 1.387 . S
C833 C835 1.390 . S
C833 H837 0.950 . S
H834 C830 0.950 . S
C835 C833 1.390 . S
C835 C836 1.387 . S
C835 H838 0.950 . S
C836 C835 1.387 . S
C836 C839 1.387 . S
H837 C833 0.950 . S
H838 C835 0.950 . S
C839 C830 1.390 . S
C839 H832 0.950 . S
C839 C836 1.387 . S
C840 C841 1.387 . S
C840 H844 0.950 . S
C840 C849 1.390 . S
C841 C840 1.387 . S
C841 C843 1.387 . S
H842 C849 0.950 . S
C843 C841 1.387 . S
C843 C845 1.390 . S
C843 H847 0.950 . S
H844 C840 0.950 . S
C845 C843 1.390 . S
C845 C846 1.387 . S
C845 H848 0.950 . S
C846 C845 1.387 . S
C846 C849 1.387 . S
H847 C843 0.950 . S
H848 C845 0.950 . S
C849 C840 1.390 . S
C849 H842 0.950 . S
C849 C846 1.387 . S
C850 C851 1.387 . S
C850 H854 0.950 . S
C850 C859 1.390 . S
C851 C850 1.387 . S
C851 C853 1.387 . S
H852 C859 0.950 . S
C853 C851 1.387 . S
C853 C855 1.390 . S
C853 H857 0.950 . S
H854 C850 0.950 . S
C855 C853 1.390 . S
C855 C856 1.387 . S
C855 H858 0.950 . S
C856 C855 1.387 . S
C856 C859 1.387 . S
H857 C853 0.950 . S
H858 C855 0.950 . S
C859 C850 1.390 . S
C859 H852 0.950 . S
C859 C856 1.387 . S
C860 C861 1.387 . S
C860 H864 0.950 . S
C860 C869 1.390 . S
C861 C860 1.387 . S
C861 C863 1.387 . S
H862 C869 0.950 . S
C863 C861 1.387 . S
C863 C865 1.390 . S
C863 H867 0.950 . S
H864 C860 0.950 . S
C865 C863 1.390 . S
C865 C866 1.387 . S
C865 H868 0.950 . S
C866 C865 1.387 . S
C866 C869 1.387 . S
H867 C863 0.950 . S
H868 C865 0.950 . S
C869 C860 1.390 . S
C869 H862 0.950 . S
C869 C866 1.387 . S
C870 C871 1.387 . S
C870 H874 0.950 . S
C870 C879 1.390 . S
C871 C870 1.387 . S
C871 C873 1.387 . S
H872 C879 0.950 . S
C873 C871 1.387 . S
C873 C875 1.390 . S
C873 H877 0.950 . S
H874 C870 0.950 . S
C875 C873 1.390 . S
C875 C876 1.387 . S
C875 H878 0.950 . S
C876 C875 1.387 . S
C876 C879 1.387 . S
H877 C873 0.950 . S
H878 C875 0.950 . S
C879 C870 1.390 . S
C879 H872 0.950 . S
C879 C876 1.387 . S
C880 C881 1.387 1_655 S
C880 H884 0.950 . S
C880 C889 1.390 1_554 S
C881 C880 1.387 1_455 S
C881 C883 1.387 1_545 S
H882 C889 0.950 . S
C883 C881 1.387 1_565 S
C883 C885 1.390 1_554 S
C883 H887 0.950 . S
H884 C880 0.950 . S
C885 C883 1.390 1_556 S
C885 C886 1.387 . S
C885 H888 0.950 . S
C886 C885 1.387 . S
C886 C889 1.387 1_465 S
H887 C883 0.950 . S
H888 C885 0.950 . S
C889 C880 1.390 1_556 S
C889 H882 0.950 . S
C889 C886 1.387 1_645 S
C890 C891 1.387 . S
C890 H894 0.950 . S
C890 C899 1.390 . S
C891 C890 1.387 . S
C891 C893 1.387 . S
H892 C899 0.950 . S
C893 C891 1.387 . S
C893 C895 1.390 . S
C893 H897 0.950 . S
H894 C890 0.950 . S
C895 C893 1.390 . S
C895 C896 1.387 . S
C895 H898 0.950 . S
C896 C895 1.387 . S
C896 C899 1.387 . S
H897 C893 0.950 . S
H898 C895 0.950 . S
C899 C890 1.390 . S
C899 H892 0.950 . S
C899 C896 1.387 . S
C900 C901 1.387 1_565 S
C900 H904 0.950 . S
C900 C909 1.390 . S
C901 C900 1.387 1_545 S
C901 C903 1.387 . S
H902 C909 0.950 . S
C903 C901 1.387 . S
C903 C905 1.390 . S
C903 H907 0.950 . S
H904 C900 0.950 . S
C905 C903 1.390 . S
C905 C906 1.387 . S
C905 H908 0.950 . S
C906 C905 1.387 . S
C906 C909 1.387 1_545 S
H907 C903 0.950 . S
H908 C905 0.950 . S
C909 C900 1.390 . S
C909 H902 0.950 . S
C909 C906 1.387 1_565 S
C910 C911 1.387 . S
C910 H914 0.950 . S
C910 C919 1.390 . S
C911 C910 1.387 . S
C911 C913 1.387 . S
H912 C919 0.950 . S
C913 C911 1.387 . S
C913 C915 1.390 . S
C913 H917 0.950 . S
H914 C910 0.950 . S
C915 C913 1.390 . S
C915 C916 1.387 . S
C915 H918 0.950 . S
C916 C915 1.387 . S
C916 C919 1.387 . S
H917 C913 0.950 . S
H918 C915 0.950 . S
C919 C910 1.390 . S
C919 H912 0.950 . S
C919 C916 1.387 . S
C920 C921 1.387 . S
C920 H924 0.950 . S
C920 C929 1.390 . S
C921 C920 1.387 . S
C921 C923 1.387 . S
H922 C929 0.950 . S
C923 C921 1.387 . S
C923 C925 1.390 . S
C923 H927 0.950 . S
H924 C920 0.950 . S
C925 C923 1.390 . S
C925 C926 1.387 . S
C925 H928 0.950 . S
C926 C925 1.387 . S
C926 C929 1.387 . S
H927 C923 0.950 . S
H928 C925 0.950 . S
C929 C920 1.390 . S
C929 H922 0.950 . S
C929 C926 1.387 . S
C930 C931 1.387 . S
C930 H934 0.950 . S
C930 C939 1.390 . S
C931 C930 1.387 . S
C931 C933 1.387 . S
H932 C939 0.950 . S
C933 C931 1.387 . S
C933 C935 1.390 . S
C933 H937 0.950 . S
H934 C930 0.950 . S
C935 C933 1.390 . S
C935 C936 1.387 . S
C935 H938 0.950 . S
C936 C935 1.387 . S
C936 C939 1.387 . S
H937 C933 0.950 . S
H938 C935 0.950 . S
C939 C930 1.390 . S
C939 H932 0.950 . S
C939 C936 1.387 . S
C940 C941 1.387 . S
C940 H944 0.950 . S
C940 C949 1.390 . S
C941 C940 1.387 . S
C941 C943 1.387 . S
H942 C949 0.950 . S
C943 C941 1.387 . S
C943 C945 1.390 . S
C943 H947 0.950 . S
H944 C940 0.950 . S
C945 C943 1.390 . S
C945 C946 1.387 . S
C945 H948 0.950 . S
C946 C945 1.387 . S
C946 C949 1.387 . S
H947 C943 0.950 . S
H948 C945 0.950 . S
C949 C940 1.390 . S
C949 H942 0.950 . S
C949 C946 1.387 . S
C950 C951 1.387 . S
C950 H954 0.950 . S
C950 C959 1.390 1_556 S
C951 C950 1.387 . S
C951 C953 1.387 . S
H952 C959 0.950 . S
C953 C951 1.387 . S
C953 C955 1.390 1_556 S
C953 H957 0.950 . S
H954 C950 0.950 . S
C955 C953 1.390 1_554 S
C955 C956 1.387 . S
C955 H958 0.950 . S
C956 C955 1.387 . S
C956 C959 1.387 . S
H957 C953 0.950 . S
H958 C955 0.950 . S
C959 C950 1.390 1_554 S
C959 H952 0.950 . S
C959 C956 1.387 . S
C960 C961 1.387 . S
C960 H964 0.950 . S
C960 C969 1.390 . S
C961 C960 1.387 . S
C961 C963 1.387 . S
H962 C969 0.950 . S
C963 C961 1.387 . S
C963 C965 1.390 . S
C963 H967 0.950 . S
H964 C960 0.950 . S
C965 C963 1.390 . S
C965 C966 1.387 . S
C965 H968 0.950 . S
C966 C965 1.387 . S
C966 C969 1.387 . S
H967 C963 0.950 . S
H968 C965 0.950 . S
C969 C960 1.390 . S
C969 H962 0.950 . S
C969 C966 1.387 . S
C970 C971 1.387 . S
C970 H974 0.950 . S
C970 C979 1.390 . S
C971 C970 1.387 . S
C971 C973 1.387 . S
H972 C979 0.950 . S
C973 C971 1.387 . S
C973 C975 1.390 . S
C973 H977 0.950 . S
H974 C970 0.950 . S
C975 C973 1.390 . S
C975 C976 1.387 . S
C975 H978 0.950 . S
C976 C975 1.387 . S
C976 C979 1.387 . S
H977 C973 0.950 . S
H978 C975 0.950 . S
C979 C970 1.390 . S
C979 H972 0.950 . S
C979 C976 1.387 . S
C980 C981 1.387 . S
C980 H984 0.950 . S
C980 C989 1.390 . S
C981 C980 1.387 . S
C981 C983 1.387 . S
H982 C989 0.950 . S
C983 C981 1.387 . S
C983 C985 1.390 . S
C983 H987 0.950 . S
H984 C980 0.950 . S
C985 C983 1.390 . S
C985 C986 1.387 . S
C985 H988 0.950 . S
C986 C985 1.387 . S
C986 C989 1.387 . S
H987 C983 0.950 . S
H988 C985 0.950 . S
C989 C980 1.390 . S
C989 H982 0.950 . S
C989 C986 1.387 . S
C990 C991 1.387 . S
C990 H994 0.950 . S
C990 C999 1.390 . S
C991 C990 1.387 . S
C991 C993 1.387 . S
H992 C999 0.950 . S
C993 C991 1.387 . S
C993 C995 1.390 . S
C993 H997 0.950 . S
H994 C990 0.950 . S
C995 C993 1.390 . S
C995 C996 1.387 . S
C995 H998 0.950 . S
C996 C995 1.387 . S
C996 C999 1.387 . S
H997 C993 0.950 . S
H998 C995 0.950 . S
C999 C990 1.390 . S
C999 H992 0.950 . S
C999 C996 1.387 . S
C1000 C1001 1.387 . S
C1000 H1004 0.950 . S
C1000 C1009 1.390 . S
C1001 C1000 1.387 . S
C1001 C1003 1.387 . S
H1002 C1009 0.950 . S
C1003 C1001 1.387 . S
C1003 C1005 1.390 . S
C1003 H1007 0.950 . S
H1004 C1000 0.950 . S
C1005 C1003 1.390 . S
C1005 C1006 1.387 . S
C1005 H1008 0.950 . S
C1006 C1005 1.387 . S
C1006 C1009 1.387 . S
H1007 C1003 0.950 . S
H1008 C1005 0.950 . S
C1009 C1000 1.390 . S
C1009 H1002 0.950 . S
C1009 C1006 1.387 . S
C1010 C1011 1.387 . S
C1010 H1014 0.950 . S
C1010 C1019 1.390 . S
C1011 C1010 1.387 . S
C1011 C1013 1.387 . S
H1012 C1019 0.950 . S
C1013 C1011 1.387 . S
C1013 C1015 1.390 . S
C1013 H1017 0.950 . S
H1014 C1010 0.950 . S
C1015 C1013 1.390 . S
C1015 C1016 1.387 . S
C1015 H1018 0.950 . S
C1016 C1015 1.387 . S
C1016 C1019 1.387 . S
H1017 C1013 0.950 . S
H1018 C1015 0.950 . S
C1019 C1010 1.390 . S
C1019 H1012 0.950 . S
C1019 C1016 1.387 . S
C1020 C1021 1.387 1_554 S
C1020 H1024 0.950 1_554 S
C1020 C1029 1.390 . S
C1021 C1020 1.387 1_556 S
C1021 C1023 1.387 . S
H1022 C1029 0.950 . S
C1023 C1021 1.387 . S
C1023 C1025 1.390 1_556 S
C1023 H1027 0.950 . S
H1024 C1020 0.950 1_556 S
C1025 C1023 1.390 1_554 S
C1025 C1026 1.387 . S
C1025 H1028 0.950 . S
C1026 C1025 1.387 . S
C1026 C1029 1.387 . S
H1027 C1023 0.950 . S
H1028 C1025 0.950 . S
C1029 C1020 1.390 . S
C1029 H1022 0.950 . S
C1029 C1026 1.387 . S
C1030 C1031 1.387 . S
C1030 H1034 0.950 . S
C1030 C1039 1.390 . S
C1031 C1030 1.387 . S
C1031 C1033 1.387 . S
H1032 C1039 0.950 . S
C1033 C1031 1.387 . S
C1033 C1035 1.390 . S
C1033 H1037 0.950 . S
H1034 C1030 0.950 . S
C1035 C1033 1.390 . S
C1035 C1036 1.387 . S
C1035 H1038 0.950 . S
C1036 C1035 1.387 . S
C1036 C1039 1.387 . S
H1037 C1033 0.950 . S
H1038 C1035 0.950 . S
C1039 C1030 1.390 . S
C1039 H1032 0.950 . S
C1039 C1036 1.387 . S
C1040 C1041 1.387 . S
C1040 H1044 0.950 . S
C1040 C1049 1.390 . S
C1041 C1040 1.387 . S
C1041 C1043 1.387 . S
H1042 C1049 0.950 . S
C1043 C1041 1.387 . S
C1043 C1045 1.390 1_556 S
C1043 H1047 0.950 . S
H1044 C1040 0.950 . S
C1045 C1043 1.390 1_554 S
C1045 C1046 1.387 . S
C1045 H1048 0.950 . S
C1046 C1045 1.387 . S
C1046 C1049 1.387 1_554 S
H1047 C1043 0.950 . S
H1048 C1045 0.950 . S
C1049 C1040 1.390 . S
C1049 H1042 0.950 . S
C1049 C1046 1.387 1_556 S
C1050 C1051 1.387 . S
C1050 H1054 0.950 . S
C1050 C1059 1.390 . S
C1051 C1050 1.387 . S
C1051 C1053 1.387 . S
H1052 C1059 0.950 . S
C1053 C1051 1.387 . S
C1053 C1055 1.390 . S
C1053 H1057 0.950 . S
H1054 C1050 0.950 . S
C1055 C1053 1.390 . S
C1055 C1056 1.387 . S
C1055 H1058 0.950 . S
C1056 C1055 1.387 . S
C1056 C1059 1.387 . S
H1057 C1053 0.950 . S
H1058 C1055 0.950 . S
C1059 C1050 1.390 . S
C1059 H1052 0.950 . S
C1059 C1056 1.387 . S
C1060 C1061 1.387 . S
C1060 H1064 0.950 . S
C1060 C1069 1.390 . S
C1061 C1060 1.387 . S
C1061 C1063 1.387 . S
H1062 C1069 0.950 . S
C1063 C1061 1.387 . S
C1063 C1065 1.390 . S
C1063 H1067 0.950 . S
H1064 C1060 0.950 . S
C1065 C1063 1.390 . S
C1065 C1066 1.387 . S
C1065 H1068 0.950 . S
C1066 C1065 1.387 . S
C1066 C1069 1.387 . S
H1067 C1063 0.950 . S
H1068 C1065 0.950 . S
C1069 C1060 1.390 . S
C1069 H1062 0.950 . S
C1069 C1066 1.387 . S
C1070 C1071 1.387 . S
C1070 H1074 0.950 . S
C1070 C1079 1.390 . S
C1071 C1070 1.387 . S
C1071 C1073 1.387 . S
H1072 C1079 0.950 . S
C1073 C1071 1.387 . S
C1073 C1075 1.390 . S
C1073 H1077 0.950 . S
H1074 C1070 0.950 . S
C1075 C1073 1.390 . S
C1075 C1076 1.387 . S
C1075 H1078 0.950 . S
C1076 C1075 1.387 . S
C1076 C1079 1.387 . S
H1077 C1073 0.950 . S
H1078 C1075 0.950 . S
C1079 C1070 1.390 . S
C1079 H1072 0.950 . S
C1079 C1076 1.387 . S
C1080 C1081 1.387 . S
C1080 H1084 0.950 . S
C1080 C1089 1.390 . S
C1081 C1080 1.387 . S
C1081 C1083 1.387 . S
H1082 C1089 0.950 . S
C1083 C1081 1.387 . S
C1083 C1085 1.390 . S
C1083 H1087 0.950 . S
H1084 C1080 0.950 . S
C1085 C1083 1.390 . S
C1085 C1086 1.387 . S
C1085 H1088 0.950 . S
C1086 C1085 1.387 . S
C1086 C1089 1.387 . S
H1087 C1083 0.950 . S
H1088 C1085 0.950 . S
C1089 C1080 1.390 . S
C1089 H1082 0.950 . S
C1089 C1086 1.387 . S
C1090 C1091 1.387 . S
C1090 H1094 0.950 . S
C1090 C1099 1.390 . S
C1091 C1090 1.387 . S
C1091 C1093 1.387 . S
H1092 C1099 0.950 . S
C1093 C1091 1.387 . S
C1093 C1095 1.390 . S
C1093 H1097 0.950 . S
H1094 C1090 0.950 . S
C1095 C1093 1.390 . S
C1095 C1096 1.387 . S
C1095 H1098 0.950 . S
C1096 C1095 1.387 . S
C1096 C1099 1.387 . S
H1097 C1093 0.950 . S
H1098 C1095 0.950 . S
C1099 C1090 1.390 . S
C1099 H1092 0.950 . S
C1099 C1096 1.387 . S
C1100 C1101 1.387 . S
C1100 H1104 0.950 . S
C1100 C1109 1.390 . S
C1101 C1100 1.387 . S
C1101 C1103 1.387 . S
H1102 C1109 0.950 . S
C1103 C1101 1.387 . S
C1103 C1105 1.390 . S
C1103 H1107 0.950 . S
H1104 C1100 0.950 . S
C1105 C1103 1.390 . S
C1105 C1106 1.387 . S
C1105 H1108 0.950 . S
C1106 C1105 1.387 . S
C1106 C1109 1.387 . S
H1107 C1103 0.950 . S
H1108 C1105 0.950 . S
C1109 C1100 1.390 . S
C1109 H1102 0.950 . S
C1109 C1106 1.387 . S
C1110 C1111 1.387 . S
C1110 H1114 0.950 . S
C1110 C1119 1.390 . S
C1111 C1110 1.387 . S
C1111 C1113 1.387 . S
H1112 C1119 0.950 . S
C1113 C1111 1.387 . S
C1113 C1115 1.390 . S
C1113 H1117 0.950 . S
H1114 C1110 0.950 . S
C1115 C1113 1.390 . S
C1115 C1116 1.387 . S
C1115 H1118 0.950 . S
C1116 C1115 1.387 . S
C1116 C1119 1.387 . S
H1117 C1113 0.950 . S
H1118 C1115 0.950 . S
C1119 C1110 1.390 . S
C1119 H1112 0.950 . S
C1119 C1116 1.387 . S
C641 C19 0.482 . S
C646 C286 0.835 . S
C651 C59 1.066 . S
C656 C166 1.024 . S
C661 C206 1.348 . S
C666 C86 1.181 . S
C671 C139 1.165 . S
C676 C246 1.108 . S
C681 C455 1.086 . S
C686 C170 1.135 1_554 S
C691 C330 2.023 . S
C696 C15 2.035 . S
C701 C415 1.025 . S
C706 C250 1.058 . S
C711 C90 2.798 . S
C716 C370 2.888 . S
C721 C366 0.834 . S
C726 C499 0.481 . S
C731 C419 1.068 . S
C736 C566 1.028 . S
C741 C526 1.189 . S
C746 C326 1.353 . S
C751 C459 1.165 . S
C756 C606 1.109 . S
C761 C570 1.133 . S
C766 C135 1.082 . S
C771 C495 2.036 . S
C776 C210 2.021 . S
C781 C55 1.020 . S
C786 C610 1.057 . S
C791 C290 2.889 . S
C796 C530 2.800 1_556 S
C801 C529 0.961 . S
C806 C18 0.959 . S
C811 C458 0.796 . S
C816 C58 0.791 . S
C821 C498 0.959 . S
C826 C89 0.961 . S
C831 C418 0.792 . S
C836 C138 0.791 . S
C841 C169 0.779 . S
C846 C609 0.781 . S
C851 C369 1.670 . S
C856 C209 1.380 . S
C861 C249 0.786 . S
C866 C569 0.785 . S
C871 C289 1.668 . S
C876 C329 1.375 1_455 S
C881 C9 1.997 . S
C886 C178 1.988 1_455 S
C891 C49 2.215 . S
C896 C218 2.172 . S
C901 C258 1.927 . S
C906 C98 1.962 1_545 S
C911 C129 1.788 . S
C916 C298 1.826 . S
C921 C409 2.213 . S
C926 C338 2.170 . S
C931 C449 1.788 . S
C936 C378 1.827 . S
C941 C489 1.994 . S
C946 C578 1.985 . S
C951 C618 1.926 . S
C956 C538 1.965 . S
C961 C6 2.888 . S
C966 C299 2.972 . S
C971 C46 2.049 . S
C976 C179 2.190 . S
C981 C219 3.715 1_556 S
C986 C99 3.690 . S
C991 C259 2.218 . S
C996 C126 2.087 . S
C1001 C450 2.181 . S
C1006 C175 2.052 . S
C1011 C335 1.072 . S
C1016 C10 1.161 . S
C1021 C410 2.171 . S
C1026 C255 2.042 . S
C1031 C95 0.827 . S
C1036 C375 0.832 . S
C1041 C486 2.888 . S
C1046 C379 2.972 . S
C1051 C579 2.191 . S
C1056 C406 2.051 . S
C1061 C539 3.690 . S
C1066 C339 3.716 . S
C1071 C619 2.217 . S
C1076 C446 2.085 . S
C1081 C575 2.050 . S
C1086 C130 2.179 1_554 S
C1091 C215 1.079 . S
C1096 C490 1.165 . S
C1101 C50 2.169 . S
C1106 C615 2.039 . S
C1111 C535 0.824 . S
C1116 C295 0.830 . S
