# Generated by pormake.
# Topology acs-h, (5)-cn, num edge types: 1
# Building blocks:
#     Node 0, Type 0, BuildingBlock: XOMCOT_clean_sbu_0, # of connection points: 5
#     Node 1, Type 0, BuildingBlock: XOMCOT_clean_sbu_0, # of connection points: 5
#     Node 2, Type 0, BuildingBlock: XOMCOT_clean_sbu_0, # of connection points: 5
#     Node 3, Type 0, BuildingBlock: XOMCOT_clean_sbu_0, # of connection points: 5
#     Node 4, Type 0, BuildingBlock: XOMCOT_clean_sbu_0, # of connection points: 5
#     Node 5, Type 0, BuildingBlock: XOMCOT_clean_sbu_0, # of connection points: 5
#     Node 6, Type 0, BuildingBlock: XOMCOT_clean_sbu_0, # of connection points: 5
#     Node 7, Type 0, BuildingBlock: XOMCOT_clean_sbu_0, # of connection points: 5
#     Node 8, Type 0, BuildingBlock: XOMCOT_clean_sbu_0, # of connection points: 5
#     Node 9, Type 0, BuildingBlock: XOMCOT_clean_sbu_0, # of connection points: 5
#     Node 10, Type 0, BuildingBlock: XOMCOT_clean_sbu_0, # of connection points: 5
#     Node 11, Type 0, BuildingBlock: XOMCOT_clean_sbu_0, # of connection points: 5
#     Edge 12, Type (0, 0), BuildingBlock: XUDNAN_clean_linker_2, # of connection points: 2
#     Edge 13, Type (0, 0), BuildingBlock: XUDNAN_clean_linker_2, # of connection points: 2
#     Edge 14, Type (0, 0), BuildingBlock: XUDNAN_clean_linker_2, # of connection points: 2
#     Edge 15, Type (0, 0), BuildingBlock: XUDNAN_clean_linker_2, # of connection points: 2
#     Edge 16, Type (0, 0), BuildingBlock: XUDNAN_clean_linker_2, # of connection points: 2
#     Edge 17, Type (0, 0), BuildingBlock: XUDNAN_clean_linker_2, # of connection points: 2
#     Edge 18, Type (0, 0), BuildingBlock: XUDNAN_clean_linker_2, # of connection points: 2
#     Edge 19, Type (0, 0), BuildingBlock: XUDNAN_clean_linker_2, # of connection points: 2
#     Edge 20, Type (0, 0), BuildingBlock: XUDNAN_clean_linker_2, # of connection points: 2
#     Edge 21, Type (0, 0), BuildingBlock: XUDNAN_clean_linker_2, # of connection points: 2
#     Edge 22, Type (0, 0), BuildingBlock: XUDNAN_clean_linker_2, # of connection points: 2
#     Edge 23, Type (0, 0), BuildingBlock: XUDNAN_clean_linker_2, # of connection points: 2
#     Edge 24, Type (0, 0), BuildingBlock: XUDNAN_clean_linker_2, # of connection points: 2
#     Edge 25, Type (0, 0), BuildingBlock: XUDNAN_clean_linker_2, # of connection points: 2
#     Edge 26, Type (0, 0), BuildingBlock: XUDNAN_clean_linker_2, # of connection points: 2
#     Edge 27, Type (0, 0), BuildingBlock: XUDNAN_clean_linker_2, # of connection points: 2
#     Edge 28, Type (0, 0), BuildingBlock: XUDNAN_clean_linker_2, # of connection points: 2
#     Edge 29, Type (0, 0), BuildingBlock: XUDNAN_clean_linker_2, # of connection points: 2
#     Edge 30, Type (0, 0), BuildingBlock: XUDNAN_clean_linker_2, # of connection points: 2
#     Edge 31, Type (0, 0), BuildingBlock: XUDNAN_clean_linker_2, # of connection points: 2
#     Edge 32, Type (0, 0), BuildingBlock: XUDNAN_clean_linker_2, # of connection points: 2
#     Edge 33, Type (0, 0), BuildingBlock: XUDNAN_clean_linker_2, # of connection points: 2
#     Edge 34, Type (0, 0), BuildingBlock: XUDNAN_clean_linker_2, # of connection points: 2
#     Edge 35, Type (0, 0), BuildingBlock: XUDNAN_clean_linker_2, # of connection points: 2
#     Edge 36, Type (0, 0), BuildingBlock: XUDNAN_clean_linker_2, # of connection points: 2
#     Edge 37, Type (0, 0), BuildingBlock: XUDNAN_clean_linker_2, # of connection points: 2
#     Edge 38, Type (0, 0), BuildingBlock: XUDNAN_clean_linker_2, # of connection points: 2
#     Edge 39, Type (0, 0), BuildingBlock: XUDNAN_clean_linker_2, # of connection points: 2
#     Edge 40, Type (0, 0), BuildingBlock: XUDNAN_clean_linker_2, # of connection points: 2
#     Edge 41, Type (0, 0), BuildingBlock: XUDNAN_clean_linker_2, # of connection points: 2
# Relax obj value: 0.874
# Max RMSD: 0.273
# Mean RMSD: 0.273
data_MOF--net-acs-h--node1-XOMCOT_clean_sbu_0--edge1-XUDNAN_clean_linker_2
_symmetry_space_group_name_H-M    P1
_symmetry_Int_Tables_number       1
_symmetry_cell_setting            triclinic
loop_
_symmetry_equiv_pos_as_xyz
'x, y, z'
_cell_length_a     47.832227
_cell_length_b     47.820073
_cell_length_c     40.153435
_cell_angle_alpha  90.049956
_cell_angle_beta   89.982013
_cell_angle_gamma 120.01268
loop_
_atom_site_label
_atom_site_type_symbol
_atom_site_fract_x
_atom_site_fract_y
_atom_site_fract_z
_atom_type_partial_charge
Co0 Co 0.47442 0.18444 0.11769 0.0
C1 C 0.53941 0.21149 0.08283 0.0
C2 C 0.53231 0.2478 0.10583 0.0
C3 C 0.56346 0.26201 0.09478 0.0
N4 N 0.51683 0.21579 0.09891 0.0
N5 N 0.56816 0.23911 0.08095 0.0
H6 H 0.53623 0.18841 0.07529 0.0
H7 H 0.52286 0.26026 0.12027 0.0
C8 C 0.52028 0.17324 0.15834 0.0
O9 O 0.53011 0.16648 0.13067 0.0
N10 N 0.43326 0.15541 0.13753 0.0
C11 C 0.40459 0.13761 0.12222 0.0
C12 C 0.38032 0.12978 0.14533 0.0
C13 C 0.4262 0.15778 0.16945 0.0
N14 N 0.39412 0.14262 0.17497 0.0
C15 C 0.47552 0.15074 0.06018 0.0
C16 C 0.46611 0.09523 0.09159 0.0
C17 C 0.47038 0.09799 0.05692 0.0
C18 C 0.47467 0.12602 0.04124 0.0
C19 C 0.46696 0.12068 0.10968 0.0
N20 N 0.47335 0.14862 0.09402 0.0
H21 H 0.47909 0.17231 0.04772 0.0
H22 H 0.46301 0.11821 0.13629 0.0
H23 H 0.40149 0.13336 0.09566 0.0
H24 H 0.44411 0.17376 0.18724 0.0
O25 O 0.45351 0.19617 0.08393 0.0
O26 O 0.46935 0.22005 0.133 0.0
O27 O 0.49705 0.17928 0.15818 0.0
C28 C 0.45701 0.21914 0.10376 0.0
H29 H 0.58201 0.28686 0.09899 0.0
H30 H 0.35469 0.11782 0.14018 0.0
H31 H 0.46189 0.07358 0.1045 0.0
H32 H 0.4781 0.12921 0.01456 0.0
Co33 Co 0.85038 0.33444 0.07995 0.0
C34 C 0.82632 0.37627 0.05212 0.0
C35 C 0.87641 0.395 0.04165 0.0
C36 C 0.86821 0.41745 0.03167 0.0
N37 N 0.85 0.36872 0.05396 0.0
N38 N 0.83681 0.40571 0.03862 0.0
H39 H 0.80246 0.3618 0.06256 0.0
H40 H 0.90074 0.39911 0.04259 0.0
C41 C 0.89628 0.37236 0.13749 0.0
O42 O 0.90107 0.34874 0.14661 0.0
N43 N 0.85087 0.30121 0.10663 0.0
C44 C 0.8586 0.27863 0.09811 0.0
C45 C 0.85428 0.25952 0.12568 0.0
C46 C 0.84112 0.29504 0.1385 0.0
N47 N 0.84377 0.27041 0.15099 0.0
C48 C 0.88095 0.33576 0.01931 0.0
C49 C 0.94282 0.36642 0.04472 0.0
C50 C 0.93799 0.37173 0.01135 0.0
C51 C 0.90694 0.35275 0.99784 0.0
C52 C 0.91602 0.34975 0.06536 0.0
N53 N 0.88575 0.33837 0.05289 0.0
H54 H 0.85679 0.32537 0.00935 0.0
H55 H 0.91992 0.3489 0.09152 0.0
H56 H 0.86679 0.2762 0.07373 0.0
H57 H 0.83285 0.30887 0.15254 0.0
O58 O 0.81464 0.30128 0.05459 0.0
O59 O 0.81015 0.32459 0.10046 0.0
O60 O 0.8796 0.3699 0.11167 0.0
C61 C 0.79599 0.30377 0.07658 0.0
H62 H 0.88472 0.44172 0.02311 0.0
H63 H 0.85905 0.23968 0.1272 0.0
H64 H 0.96667 0.37874 0.05576 0.0
H65 H 0.90174 0.35496 0.97207 0.0
Co66 Co 0.66162 0.50521 0.10573 0.0
C67 C 0.60422 0.45404 0.06759 0.0
C68 C 0.64084 0.44143 0.0744 0.0
C69 C 0.61534 0.41661 0.05805 0.0
N70 N 0.63406 0.4652 0.0808 0.0
N71 N 0.59223 0.42445 0.05396 0.0
H72 H 0.5904 0.46621 0.06921 0.0
H73 H 0.66195 0.44073 0.08263 0.0
C74 C 0.60343 0.47244 0.15201 0.0
O75 O 0.58327 0.46677 0.1275 0.0
N76 N 0.68919 0.54401 0.13019 0.0
C77 C 0.70221 0.57515 0.12081 0.0
C78 C 0.72408 0.5944 0.14493 0.0
C79 C 0.70319 0.54459 0.15933 0.0
N80 N 0.7246 0.57487 0.16878 0.0
C81 C 0.63469 0.52684 0.05554 0.0
C82 C 0.60021 0.54345 0.09874 0.0
C83 C 0.59313 0.54059 0.06464 0.0
C84 C 0.61203 0.53414 0.0427 0.0
C85 C 0.62301 0.53583 0.11047 0.0
N86 N 0.63756 0.52484 0.0891 0.0
H87 H 0.64766 0.5197 0.03873 0.0
H88 H 0.62744 0.53675 0.13695 0.0
H89 H 0.69732 0.58317 0.09747 0.0
H90 H 0.69901 0.52312 0.17258 0.0
O91 O 0.69428 0.51835 0.07114 0.0
O92 O 0.69062 0.4899 0.1162 0.0
O93 O 0.63392 0.48762 0.14712 0.0
C94 C 0.70568 0.50333 0.0887 0.0
H95 H 0.61252 0.39311 0.05285 0.0
H96 H 0.73975 0.62034 0.14404 0.0
H97 H 0.58658 0.54901 0.11643 0.0
H98 H 0.60785 0.53267 0.01608 0.0
Co99 Co 0.85039 0.47591 0.38853 0.0
C100 C 0.84702 0.41985 0.42501 0.0
C101 C 0.85566 0.41817 0.37303 0.0
C102 C 0.85245 0.39081 0.38764 0.0
N103 N 0.85382 0.43739 0.39661 0.0
N104 N 0.847 0.3919 0.42029 0.0
H105 H 0.83951 0.42587 0.44803 0.0
H106 H 0.85626 0.42199 0.34649 0.0
C107 C 0.89908 0.48237 0.33786 0.0
O108 O 0.9152 0.47838 0.36214 0.0
N109 N 0.84572 0.51298 0.38023 0.0
C110 C 0.84974 0.53607 0.40207 0.0
C111 C 0.84319 0.5576 0.38606 0.0
C112 C 0.83646 0.52036 0.35155 0.0
N113 N 0.83476 0.54768 0.35424 0.0
C114 C 0.89747 0.49572 0.44107 0.0
C115 C 0.94652 0.54549 0.40524 0.0
C116 C 0.95433 0.53331 0.43321 0.0
C117 C 0.92911 0.50981 0.45265 0.0
C118 C 0.91448 0.5307 0.39467 0.0
N119 N 0.89119 0.50387 0.41066 0.0
H120 H 0.87845 0.47691 0.45553 0.0
H121 H 0.90904 0.53869 0.37165 0.0
H122 H 0.85684 0.53707 0.42781 0.0
H123 H 0.83026 0.50534 0.32957 0.0
O124 O 0.8209 0.46476 0.42576 0.0
O125 O 0.80702 0.44788 0.37353 0.0
O126 O 0.87297 0.48265 0.34412 0.0
C127 C 0.79831 0.4475 0.40428 0.0
H128 H 0.85075 0.37011 0.37473 0.0
H129 H 0.84451 0.57883 0.3972 0.0
H130 H 0.9652 0.56439 0.39018 0.0
H131 H 0.93386 0.50017 0.47498 0.0
Co132 Co 0.47661 0.32356 0.41735 0.0
C133 C 0.54329 0.34263 0.43992 0.0
C134 C 0.5347 0.38241 0.44076 0.0
C135 C 0.56691 0.39391 0.44697 0.0
N136 N 0.51965 0.3501 0.43638 0.0
N137 N 0.5724 0.36889 0.44605 0.0
H138 H 0.53994 0.31884 0.43617 0.0
H139 H 0.52382 0.39721 0.43696 0.0
C140 C 0.49379 0.34978 0.34981 0.0
O141 O 0.4848 0.32028 0.34013 0.0
N142 N 0.43401 0.29718 0.39727 0.0
C143 C 0.40591 0.29678 0.40261 0.0
C144 C 0.38205 0.27293 0.38297 0.0
C145 C 0.42647 0.27323 0.37506 0.0
N146 N 0.39522 0.25805 0.36598 0.0
C147 C 0.46446 0.34734 0.47672 0.0
C148 C 0.46296 0.39853 0.44651 0.0
C149 C 0.47186 0.40096 0.48014 0.0
C150 C 0.46959 0.37376 0.49589 0.0
C151 C 0.45772 0.37146 0.42825 0.0
N152 N 0.46186 0.34804 0.44296 0.0
H153 H 0.46714 0.32851 0.48843 0.0
H154 H 0.45387 0.37117 0.40172 0.0
H155 H 0.40252 0.31227 0.41973 0.0
H156 H 0.44361 0.26703 0.36505 0.0
O157 O 0.46679 0.28907 0.44863 0.0
O158 O 0.49011 0.29496 0.39941 0.0
O159 O 0.49098 0.3556 0.38013 0.0
C160 C 0.47928 0.27842 0.42677 0.0
H161 H 0.58524 0.41912 0.44898 0.0
H162 H 0.35702 0.26678 0.38164 0.0
H163 H 0.46373 0.41872 0.43348 0.0
H164 H 0.47524 0.3743 0.52209 0.0
Co165 Co 0.65902 0.14343 0.41282 0.0
C166 C 0.60992 0.15966 0.43381 0.0
C167 C 0.61928 0.13541 0.47307 0.0
C168 C 0.59686 0.14329 0.48407 0.0
N169 N 0.62645 0.14446 0.44094 0.0
N170 N 0.59071 0.15834 0.45916 0.0
H171 H 0.61285 0.17234 0.41076 0.0
H172 H 0.63075 0.12561 0.48848 0.0
C173 C 0.60761 0.13353 0.362 0.0
O174 O 0.58445 0.11215 0.38109 0.0
N175 N 0.69204 0.1435 0.38541 0.0
C176 C 0.7029 0.12232 0.38536 0.0
C177 C 0.72807 0.1329 0.36295 0.0
C178 C 0.71089 0.16679 0.36377 0.0
N179 N 0.73305 0.16094 0.34985 0.0
C180 C 0.62627 0.07929 0.44017 0.0
C181 C 0.59731 0.0496 0.38095 0.0
C182 C 0.58266 0.03437 0.41102 0.0
C183 C 0.59935 0.04835 0.44082 0.0
C184 C 0.62387 0.08082 0.3817 0.0
N185 N 0.635 0.09651 0.41136 0.0
H186 H 0.63842 0.09029 0.46312 0.0
H187 H 0.6334 0.09341 0.35845 0.0
H188 H 0.69363 0.10106 0.4009 0.0
H189 H 0.70865 0.18781 0.35857 0.0
O190 O 0.68652 0.15149 0.4517 0.0
O191 O 0.68527 0.18873 0.41961 0.0
O192 O 0.63716 0.14667 0.3711 0.0
C193 C 0.69728 0.18197 0.44522 0.0
H194 H 0.58697 0.13926 0.50896 0.0
H195 H 0.74227 0.12155 0.35751 0.0
H196 H 0.58669 0.03886 0.35716 0.0
H197 H 0.5902 0.03726 0.46482 0.0
Co198 Co 0.50893 0.85469 0.88947 0.0
C199 C 0.43794 0.81611 0.88816 0.0
C200 C 0.45501 0.82374 0.93839 0.0
C201 C 0.42225 0.80289 0.93862 0.0
N202 N 0.4649 0.83305 0.90675 0.0
N203 N 0.41147 0.79808 0.90698 0.0
H204 H 0.43802 0.81603 0.86124 0.0
H205 H 0.47042 0.82872 0.95973 0.0
C206 C 0.47562 0.88116 0.84882 0.0
O207 O 0.46366 0.88465 0.87699 0.0
N208 N 0.55204 0.87428 0.87176 0.0
C209 C 0.58029 0.89341 0.88742 0.0
C210 C 0.60515 0.89612 0.86759 0.0
C211 C 0.55992 0.86553 0.84305 0.0
N212 N 0.59205 0.87833 0.83996 0.0
C213 C 0.51653 0.8952 0.94637 0.0
C214 C 0.53112 0.94924 0.90898 0.0
C215 C 0.52087 0.94756 0.94197 0.0
C216 C 0.51589 0.92119 0.9615 0.0
C217 C 0.5314 0.92272 0.89502 0.0
N218 N 0.52036 0.89478 0.91276 0.0
H219 H 0.51275 0.87505 0.96144 0.0
H220 H 0.53794 0.92373 0.86911 0.0
H221 H 0.58254 0.90284 0.91238 0.0
H222 H 0.54236 0.84811 0.8259 0.0
O223 O 0.52022 0.83301 0.92298 0.0
O224 O 0.50035 0.81342 0.87292 0.0
O225 O 0.4947 0.86962 0.84891 0.0
C226 C 0.50987 0.80915 0.90184 0.0
H227 H 0.40796 0.79049 0.96029 0.0
H228 H 0.63049 0.9079 0.87415 0.0
H229 H 0.53685 0.96999 0.89351 0.0
H230 H 0.50936 0.91959 0.98755 0.0
Co231 Co 0.12092 0.64809 0.87602 0.0
C232 C 0.12978 0.59185 0.89002 0.0
C233 C 0.08097 0.57858 0.87814 0.0
C234 C 0.08302 0.55094 0.87932 0.0
N235 N 0.11024 0.60418 0.88464 0.0
N236 N 0.11367 0.55942 0.88687 0.0
H237 H 0.15565 0.60618 0.89316 0.0
H238 H 0.06031 0.58027 0.87011 0.0
C239 C 0.11229 0.62603 0.81008 0.0
O240 O 0.08476 0.62497 0.81615 0.0
N241 N 0.13033 0.69126 0.86651 0.0
C242 C 0.1436 0.71703 0.88695 0.0
C243 C 0.15038 0.7441 0.8686 0.0
C244 C 0.12871 0.70265 0.83646 0.0
N245 N 0.14122 0.73494 0.83677 0.0
C246 C 0.10181 0.63655 0.94331 0.0
C247 C 0.03888 0.61469 0.92334 0.0
C248 C 0.04496 0.59825 0.94874 0.0
C249 C 0.07652 0.61205 0.96137 0.0
C250 C 0.06493 0.63887 0.90582 0.0
N251 N 0.09547 0.64608 0.91367 0.0
H252 H 0.1262 0.64273 0.94957 0.0
H253 H 0.06043 0.64684 0.88225 0.0
H254 H 0.14947 0.71641 0.91285 0.0
H255 H 0.11979 0.68776 0.81448 0.0
O256 O 0.16286 0.66602 0.90061 0.0
O257 O 0.15993 0.65668 0.84864 0.0
O258 O 0.13593 0.64248 0.8303 0.0
C259 C 0.1784 0.66788 0.87436 0.0
H260 H 0.06414 0.5268 0.87284 0.0
H261 H 0.16301 0.76875 0.87756 0.0
H262 H 0.01472 0.60542 0.91357 0.0
H263 H 0.08238 0.6006 0.98128 0.0
Co264 Co 0.31826 0.49347 0.88464 0.0
C265 C 0.36543 0.56092 0.90354 0.0
C266 C 0.32016 0.54479 0.92807 0.0
C267 C 0.34177 0.57513 0.9397 0.0
N268 N 0.33494 0.53577 0.90525 0.0
N269 N 0.37011 0.5851 0.92417 0.0
H270 H 0.38437 0.56119 0.88887 0.0
H271 H 0.29583 0.53002 0.93702 0.0
C272 C 0.36655 0.50279 0.82936 0.0
O273 O 0.35168 0.47198 0.82188 0.0
N274 N 0.30084 0.45099 0.86492 0.0
C275 C 0.29316 0.423 0.88043 0.0
C276 C 0.27572 0.39769 0.85872 0.0
C277 C 0.28725 0.44225 0.83453 0.0
N278 N 0.27249 0.41008 0.82983 0.0
C279 C 0.33713 0.48764 0.95033 0.0
C280 C 0.38845 0.48005 0.93126 0.0
C281 C 0.38646 0.48811 0.96444 0.0
C282 C 0.35945 0.49024 0.97426 0.0
C283 C 0.36563 0.47769 0.90824 0.0
N284 N 0.34174 0.48373 0.91752 0.0
H285 H 0.31738 0.49112 0.95779 0.0
H286 H 0.36821 0.47254 0.88275 0.0
H287 H 0.29843 0.4209 0.90619 0.0
H288 H 0.28738 0.45908 0.81642 0.0
O289 O 0.2774 0.47783 0.90753 0.0
O290 O 0.28957 0.50109 0.85765 0.0
O291 O 0.35693 0.51344 0.85342 0.0
C292 C 0.2686 0.48779 0.88147 0.0
H293 H 0.33709 0.58878 0.95818 0.0
H294 H 0.26556 0.37223 0.86397 0.0
H295 H 0.40865 0.4778 0.9225 0.0
H296 H 0.35644 0.49544 -0.00016 0.0
Co297 Co 0.15153 0.47267 0.61183 0.0
C298 C 0.18004 0.54395 0.6085 0.0
C299 C 0.12838 0.51889 0.60606 0.0
C300 C 0.13952 0.55167 0.6064 0.0
N301 N 0.15385 0.51409 0.60727 0.0
N302 N 0.17197 0.56719 0.60829 0.0
H303 H 0.20464 0.549 0.61027 0.0
H304 H 0.10338 0.49987 0.60625 0.0
C305 C 0.13346 0.4671 0.67888 0.0
O306 O 0.10753 0.44355 0.6648 0.0
N307 N 0.14815 0.43057 0.61699 0.0
C308 C 0.12271 0.40124 0.60969 0.0
C309 C 0.1282 0.37759 0.62246 0.0
C310 C 0.16863 0.42411 0.63391 0.0
N311 N 0.15723 0.39221 0.63752 0.0
C312 C 0.15033 0.47747 0.54096 0.0
C313 C 0.08426 0.45269 0.54176 0.0
C314 C 0.10267 0.4735 0.51597 0.0
C315 C 0.13568 0.48389 0.51425 0.0
C316 C 0.09986 0.44733 0.56805 0.0
N317 N 0.13258 0.46147 0.56833 0.0
H318 H 0.17632 0.48908 0.54129 0.0
H319 H 0.08631 0.4361 0.59045 0.0
H320 H 0.10076 0.39693 0.59765 0.0
H321 H 0.19031 0.4421 0.64606 0.0
O322 O 0.19685 0.49072 0.59618 0.0
O323 O 0.18656 0.49204 0.64736 0.0
O324 O 0.15952 0.48126 0.6614 0.0
C325 C 0.2085 0.49901 0.62511 0.0
H326 H 0.12491 0.56313 0.60703 0.0
H327 H 0.11153 0.35182 0.62209 0.0
H328 H 0.0586 0.44402 0.54368 0.0
H329 H 0.15059 0.49998 0.49462 0.0
Co330 Co 0.53623 0.68923 0.60959 0.0
C331 C 0.46737 0.64305 0.61368 0.0
C332 C 0.48254 0.64608 0.56302 0.0
C333 C 0.44971 0.62534 0.56468 0.0
N334 N 0.4938 0.65652 0.59404 0.0
N335 N 0.44023 0.62337 0.59666 0.0
H336 H 0.46818 0.64796 0.64005 0.0
H337 H 0.49627 0.65393 0.54031 0.0
C338 C 0.51576 0.63231 0.65359 0.0
O339 O 0.50841 0.61463 0.62643 0.0
N340 N 0.57729 0.72209 0.62614 0.0
C341 C 0.60519 0.7398 0.60954 0.0
C342 C 0.62674 0.76387 0.63053 0.0
C343 C 0.58204 0.73526 0.65659 0.0
N344 N 0.61201 0.76091 0.6601 0.0
C345 C 0.55643 0.66713 0.55304 0.0
C346 C 0.57838 0.63303 0.58947 0.0
C347 C 0.57008 0.62502 0.5559 0.0
C348 C 0.5619 0.6445 0.53693 0.0
C349 C 0.57274 0.65612 0.60436 0.0
N350 N 0.55757 0.66917 0.58688 0.0
H351 H 0.54899 0.68128 0.53858 0.0
H352 H 0.57757 0.66101 0.63063 0.0
H353 H 0.60905 0.73641 0.58366 0.0
H354 H 0.56298 0.72754 0.67489 0.0
O355 O 0.53781 0.71793 0.57484 0.0
O356 O 0.51657 0.71332 0.62513 0.0
O357 O 0.52944 0.66308 0.65141 0.0
C358 C 0.52216 0.7261 0.59558 0.0
H359 H 0.43395 0.61381 0.54363 0.0
H360 H 0.65086 0.78273 0.62409 0.0
H361 H 0.58606 0.61956 0.60492 0.0
H362 H 0.55733 0.64055 0.51044 0.0
Co363 Co 0.33051 0.85713 0.60001 0.0
C364 C 0.3726 0.82959 0.57951 0.0
C365 C 0.39735 0.88134 0.57982 0.0
C366 C 0.4185 0.87188 0.5691 0.0
N367 N 0.36834 0.85499 0.586 0.0
N368 N 0.40297 0.83947 0.56897 0.0
H369 H 0.35429 0.80452 0.58237 0.0
H370 H 0.40326 0.90605 0.58349 0.0
C371 C 0.35514 0.89211 0.6619 0.0
O372 O 0.32633 0.8721 0.67373 0.0
N373 N 0.29331 0.86082 0.61358 0.0
C374 C 0.28864 0.88617 0.60886 0.0
C375 C 0.2615 0.8809 0.62601 0.0
C376 C 0.26856 0.84039 0.63324 0.0
N377 N 0.24901 0.85212 0.64138 0.0
C378 C 0.33029 0.87121 0.53157 0.0
C379 C 0.37501 0.93615 0.53737 0.0
C380 C 0.37136 0.92053 0.50686 0.0
C381 C 0.34699 0.88842 0.50336 0.0
C382 C 0.35758 0.91812 0.56493 0.0
N383 N 0.3379 0.88543 0.56227 0.0
H384 H 0.31429 0.84556 0.52907 0.0
H385 H 0.36298 0.92992 0.58888 0.0
H386 H 0.30443 0.90787 0.5953 0.0
H387 H 0.26624 0.8186 0.64387 0.0
O388 O 0.30155 0.81552 0.57959 0.0
O389 O 0.31974 0.82265 0.63137 0.0
O390 O 0.35989 0.89323 0.63054 0.0
C391 C 0.30239 0.80281 0.60794 0.0
H392 H 0.44376 0.88758 0.56317 0.0
H393 H 0.25247 0.89755 0.62812 0.0
H394 H 0.3937 0.9611 0.54073 0.0
H395 H 0.34368 0.87571 0.48003 0.0
H396 H 0.54773 0.11982 0.33827 0.0
H397 H 0.6501 0.17202 0.31451 0.0
H398 H 0.63846 0.19143 0.2626 0.0
H399 H 0.51995 0.09397 0.25572 0.0
H400 H 0.48498 0.09875 0.259 0.0
H401 H 0.50115 0.09029 0.29565 0.0
H402 H 0.50711 0.14182 0.32439 0.0
H403 H 0.49025 0.14959 0.28777 0.0
H404 H 0.52897 0.18012 0.30323 0.0
H405 H 0.61655 0.20271 0.21224 0.0
H406 H 0.58477 0.20409 0.16462 0.0
H407 H 0.49619 0.14629 0.21994 0.0
C408 C 0.56767 0.13541 0.32217 0.0
C409 C 0.59986 0.14437 0.33054 0.0
C410 C 0.62526 0.16483 0.30879 0.0
C411 C 0.61894 0.17612 0.27925 0.0
C412 C 0.58709 0.16699 0.27179 0.0
C413 C 0.56179 0.14713 0.29249 0.0
C414 C 0.52969 0.14004 0.27757 0.0
C415 C 0.50765 0.1036 0.27163 0.0
C416 C 0.51302 0.1537 0.29958 0.0
C417 C 0.54097 0.15843 0.24496 0.0
C418 C 0.57425 0.17397 0.24243 0.0
C419 C 0.59052 0.19101 0.21405 0.0
C420 C 0.5723 0.19166 0.18718 0.0
C421 C 0.53821 0.17563 0.18894 0.0
C422 C 0.5223 0.15933 0.21841 0.0
H423 H 0.92536 0.38289 0.19863 0.0
H424 H 0.8867 0.42374 0.12822 0.0
H425 H 0.89165 0.46334 0.17042 0.0
H426 H 0.88357 0.38434 0.26545 0.0
H427 H 0.91486 0.39488 0.29604 0.0
H428 H 0.91476 0.37428 0.25859 0.0
H429 H 0.97288 0.41996 0.24499 0.0
H430 H 0.97328 0.44068 0.28269 0.0
H431 H 0.98159 0.46123 0.2432 0.0
H432 H 0.88955 0.49011 0.22314 0.0
H433 H 0.88482 0.50464 0.28124 0.0
H434 H 0.92768 0.44887 0.31645 0.0
C435 C 0.91907 0.40092 0.19164 0.0
C436 C 0.90565 0.40014 0.1601 0.0
C437 C 0.89714 0.42383 0.15219 0.0
C438 C 0.89992 0.44654 0.176 0.0
C439 C 0.91182 0.44567 0.2074 0.0
C440 C 0.92187 0.42387 0.21506 0.0
C441 C 0.93056 0.42565 0.25154 0.0
C442 C 0.90968 0.39286 0.2689 0.0
C443 C 0.96673 0.4376 0.25585 0.0
C444 C 0.92227 0.45064 0.26353 0.0
C445 C 0.91175 0.46214 0.23768 0.0
C446 C 0.89875 0.48214 0.24342 0.0
C447 C 0.89604 0.49019 0.27644 0.0
C448 C 0.90652 0.47843 0.30314 0.0
C449 C 0.92053 0.45913 0.29642 0.0
H450 H 0.54521 0.42106 0.16866 0.0
H451 H 0.63293 0.49894 0.21156 0.0
H452 H 0.611 0.47989 0.26818 0.0
H453 H 0.48795 0.41749 0.23184 0.0
H454 H 0.46479 0.37401 0.23044 0.0
H455 H 0.48589 0.39647 0.19387 0.0
H456 H 0.51611 0.36396 0.19086 0.0
H457 H 0.49431 0.34122 0.2267 0.0
H458 H 0.5379 0.36223 0.22646 0.0
H459 H 0.57994 0.45029 0.32025 0.0
H460 H 0.54589 0.4093 0.36225 0.0
H461 H 0.48069 0.34971 0.28422 0.0
C462 C 0.55954 0.43447 0.18998 0.0
C463 C 0.59052 0.4617 0.18587 0.0
C464 C 0.60903 0.47807 0.21429 0.0
C465 C 0.59667 0.46758 0.24648 0.0
C466 C 0.56594 0.44056 0.24969 0.0
C467 C 0.54784 0.42403 0.22215 0.0
C468 C 0.51711 0.3938 0.23213 0.0
C469 C 0.48717 0.39556 0.22143 0.0
C470 C 0.51633 0.36347 0.21829 0.0
C471 C 0.52086 0.39551 0.26944 0.0
C472 C 0.54881 0.42297 0.27932 0.0
C473 C 0.55792 0.42885 0.31273 0.0
C474 C 0.53843 0.40555 0.33639 0.0
C475 C 0.51078 0.37653 0.32622 0.0
C476 C 0.50165 0.37183 0.29251 0.0
H477 H 0.42336 0.88827 0.83826 0.0
H478 H 0.50606 0.89333 0.78805 0.0
H479 H 0.48858 0.90666 0.73521 0.0
H480 H 0.36874 0.84765 0.77484 0.0
H481 H 0.34548 0.86743 0.78116 0.0
H482 H 0.36737 0.86326 0.81532 0.0
H483 H 0.39702 0.92526 0.82455 0.0
H484 H 0.37542 0.92962 0.79002 0.0
H485 H 0.41893 0.95194 0.79059 0.0
H486 H 0.45943 0.91519 0.68708 0.0
H487 H 0.41824 0.91082 0.64715 0.0
H488 H 0.35406 0.89848 0.72921 0.0
C489 C 0.43822 0.89287 0.81633 0.0
C490 C 0.46626 0.89014 0.81728 0.0
C491 C 0.48454 0.89544 0.78784 0.0
C492 C 0.47494 0.90328 0.75783 0.0
C493 C 0.44701 0.90565 0.75775 0.0
C494 C 0.42879 0.90028 0.78624 0.0
C495 C 0.39784 0.90044 0.77901 0.0
C496 C 0.36813 0.86776 0.7881 0.0
C497 C 0.39729 0.9285 0.79712 0.0
C498 C 0.40093 0.90581 0.74176 0.0
C499 C 0.42979 0.90956 0.73001 0.0
C500 C 0.43695 0.91266 0.69608 0.0
C501 C 0.41342 0.91034 0.67354 0.0
C502 C 0.38288 0.90433 0.68505 0.0
C503 C 0.37726 0.90341 0.71966 0.0
H504 H 0.17625 0.52729 0.70466 0.0
H505 H 0.08073 0.44388 0.71877 0.0
H506 H 0.06657 0.47566 0.75594 0.0
H507 H 0.18201 0.5593 0.79411 0.0
H508 H 0.20408 0.60049 0.77975 0.0
H509 H 0.20888 0.56969 0.75898 0.0
H510 H 0.19388 0.58581 0.70339 0.0
H511 H 0.18758 0.61575 0.72366 0.0
H512 H 0.15564 0.58435 0.69927 0.0
H513 H 0.05817 0.51812 0.77936 0.0
H514 H 0.05998 0.56663 0.80188 0.0
H515 H 0.16231 0.62294 0.77891 0.0
C516 C 0.15288 0.51533 0.71675 0.0
C517 C 0.12944 0.48317 0.70847 0.0
C518 C 0.09899 0.46851 0.72449 0.0
C519 C 0.09066 0.48638 0.74562 0.0
C520 C 0.11335 0.51863 0.75127 0.0
C521 C 0.14432 0.53274 0.73861 0.0
C522 C 0.16341 0.56833 0.74786 0.0
C523 C 0.19124 0.57483 0.77159 0.0
C524 C 0.17582 0.58982 0.71668 0.0
C525 C 0.13759 0.57228 0.76564 0.0
C526 C 0.10893 0.54321 0.76703 0.0
C527 C 0.08067 0.54088 0.77929 0.0
C528 C 0.08191 0.56876 0.79161 0.0
C529 C 0.11132 0.5986 0.79217 0.0
C530 C 0.13957 0.60039 0.77892 0.0
H531 H 0.46913 0.56966 0.66353 0.0
H532 H 0.5299 0.65957 0.71591 0.0
H533 H 0.50075 0.63461 0.76823 0.0
H534 H 0.39783 0.5533 0.70265 0.0
H535 H 0.38083 0.51011 0.70396 0.0
H536 H 0.40921 0.53341 0.67183 0.0
H537 H 0.44597 0.51033 0.68894 0.0
H538 H 0.41753 0.48661 0.72095 0.0
H539 H 0.45917 0.51384 0.73156 0.0
H540 H 0.46168 0.60133 0.81341 0.0
H541 H 0.4165 0.56222 0.84811 0.0
H542 H 0.3806 0.49483 0.76539 0.0
C543 C 0.47703 0.58387 0.68617 0.0
C544 C 0.50207 0.61644 0.68577 0.0
C545 C 0.51097 0.63447 0.71576 0.0
C546 C 0.49455 0.62051 0.74555 0.0
C547 C 0.46934 0.58857 0.74482 0.0
C548 C 0.46073 0.57046 0.71591 0.0
C549 C 0.43108 0.53764 0.721 0.0
C550 C 0.4031 0.53339 0.69854 0.0
C551 C 0.43892 0.5105 0.71528 0.0
C552 C 0.42418 0.54013 0.75729 0.0
C553 C 0.44655 0.56964 0.77063 0.0
C554 C 0.44419 0.57807 0.80328 0.0
C555 C 0.41822 0.55579 0.82275 0.0
C556 C 0.39489 0.52553 0.80947 0.0
C557 C 0.39826 0.51759 0.77641 0.0
H558 H 0.50173 0.06447 0.0712 0.0
H559 H 0.44118 0.07424 0.99696 0.0
H560 H 0.44799 0.03699 0.95987 0.0
H561 H 0.55769 0.06261 0.0157 0.0
H562 H 0.56248 0.03262 0.03809 0.0
H563 H 0.55148 0.05851 0.06012 0.0
H564 H 0.50064 0.00855 0.08378 0.0
H565 H 0.51173 0.98247 0.0622 0.0
H566 H 0.47248 0.97812 0.05559 0.0
H567 H 0.46419 0.00244 0.92942 0.0
H568 H 0.48472 0.9676 0.90881 0.0
H569 H 0.53388 0.9785 0.00291 0.0
C570 C 0.48932 0.05816 0.04746 0.0
C571 C 0.4711 0.07238 0.03683 0.0
C572 C 0.45562 0.06395 0.00538 0.0
C573 C 0.45925 0.04277 0.98419 0.0
C574 C 0.47819 0.02999 0.99496 0.0
C575 C 0.49259 0.0369 0.02599 0.0
C576 C 0.51217 0.02023 0.03102 0.0
C577 C 0.54808 0.04497 0.03655 0.0
C578 C 0.49842 0.99589 0.05986 0.0
C579 C 0.5068 0.00327 0.99777 0.0
C580 C 0.48723 0.00942 0.97738 0.0
C581 C 0.47941 0.99727 0.94516 0.0
C582 C 0.49149 0.97782 0.93358 0.0
C583 C 0.51112 0.97063 0.95417 0.0
C584 C 0.51889 0.98359 0.98669 0.0
H585 H 0.97597 0.4302 0.04151 0.0
H586 H 0.95017 0.3845 0.94403 0.0
H587 H 0.97224 0.4382 0.91808 0.0
H588 H 0.95515 0.48719 0.02867 0.0
H589 H 0.98833 0.51967 0.05076 0.0
H590 H 0.9747 0.47842 0.06213 0.0
H591 H 0.0319 0.48648 0.05294 0.0
H592 H 0.04623 0.52824 0.04313 0.0
H593 H 0.0525 0.50311 0.01412 0.0
H594 H 0.98808 0.49525 0.90418 0.0
H595 H 0.01091 0.55383 0.90053 0.0
H596 H 0.03019 0.5627 0.00688 0.0
C597 C 0.97623 0.43117 0.01458 0.0
C598 C 0.96083 0.40277 0.9949 0.0
C599 C 0.96127 0.40574 0.95975 0.0
C600 C 0.97366 0.43614 0.94478 0.0
C601 C 0.98622 0.46328 0.96528 0.0
C602 C 0.98882 0.46121 -0.00073 0.0
C603 C 0.00277 0.49399 0.01581 0.0
C604 C 0.9788 0.49484 0.04081 0.0
C605 C 0.03529 0.50352 0.03247 0.0
C606 C 0.0071 0.51481 0.98579 0.0
C607 C 0.99687 0.49649 0.95702 0.0
C608 C 0.99687 0.50996 0.9264 0.0
C609 C 0.00955 0.54335 0.92475 0.0
C610 C 0.02283 0.5631 0.95341 0.0
C611 C 0.02049 0.54835 0.98452 0.0
H612 H 0.42487 0.46083 0.97055 0.0
H613 H 0.41173 0.53851 0.00861 0.0
H614 H 0.46271 0.55998 0.03996 0.0
H615 H 0.46393 0.45076 0.04474 0.0
H616 H 0.49113 0.44341 0.02014 0.0
H617 H 0.45161 0.43206 0.00434 0.0
H618 H 0.47789 0.46616 0.95131 0.0
H619 H 0.51748 0.47809 0.96722 0.0
H620 H 0.50746 0.5084 0.95546 0.0
H621 H 0.51745 0.5754 0.06374 0.0
H622 H 0.5703 0.58165 0.08004 0.0
H623 H 0.54792 0.49535 0.02392 0.0
C624 C 0.43245 0.4821 0.98582 0.0
C625 C 0.41418 0.49784 0.98725 0.0
C626 C 0.42494 0.52559 0.00765 0.0
C627 C 0.45404 0.53818 0.02532 0.0
C628 C 0.47203 0.52273 0.02232 0.0
C629 C 0.46148 0.49511 0.00333 0.0
C630 C 0.48604 0.48404 0.00273 0.0
C631 C 0.47236 0.45059 0.01897 0.0
C632 C 0.49791 0.4842 0.96706 0.0
C633 C 0.51231 0.51009 0.02382 0.0
C634 C 0.50377 0.53208 0.03515 0.0
C635 C 0.52437 0.55827 0.05511 0.0
C636 C 0.55428 0.56171 0.06413 0.0
C637 C 0.56327 0.53928 0.05281 0.0
C638 C 0.542 0.51332 0.03229 0.0
H639 H 0.07056 0.50207 0.54013 0.0
H640 H 0.1048 0.48246 0.44796 0.0
H641 H 0.07933 0.50853 0.41634 0.0
H642 H 0.9954 0.48108 0.51333 0.0
H643 H 0.99202 0.51156 0.53649 0.0
H644 H 0.01814 0.49739 0.55118 0.0
H645 H 0.06622 0.55626 0.55149 0.0
H646 H 0.0401 0.57056 0.53634 0.0
H647 H 0.07646 0.58002 0.51394 0.0
H648 H 0.04292 0.52816 0.39519 0.0
H649 H 0.99593 0.53507 0.38579 0.0
H650 H 0.98643 0.54292 0.49227 0.0
C651 C 0.07292 0.50349 0.51326 0.0
C652 C 0.08904 0.48985 0.49625 0.0
C653 C 0.09229 0.49267 0.46126 0.0
C654 C 0.07818 0.50765 0.44326 0.0
C655 C 0.06169 0.52021 0.46086 0.0
C656 C 0.05919 0.51836 0.49515 0.0
C657 C 0.03713 0.52998 0.50813 0.0
C658 C 0.00902 0.50342 0.52844 0.0
C659 C 0.05612 0.56106 0.52869 0.0
C660 C 0.02569 0.53663 0.47563 0.0
C661 C 0.04088 0.53186 0.44865 0.0
C662 C 0.03148 0.5328 0.41606 0.0
C663 C 0.00483 0.53698 0.41096 0.0
C664 C 0.98766 0.53972 0.43838 0.0
C665 C -0.00066 0.54121 0.47092 0.0
H666 H 0.45828 0.45061 0.47871 0.0
H667 H 0.52723 0.42443 0.5163 0.0
H668 H 0.56155 0.47977 0.53717 0.0
H669 H 0.51627 0.52931 0.4505 0.0
H670 H 0.49303 0.54788 0.46268 0.0
H671 H 0.47281 0.50569 0.45171 0.0
H672 H 0.44352 0.49054 0.5088 0.0
H673 H 0.46311 0.53271 0.51959 0.0
H674 H 0.46695 0.50469 0.54654 0.0
H675 H 0.5894 0.53842 0.55249 0.0
H676 H 0.60595 0.59512 0.56595 0.0
H677 H 0.5191 0.58279 0.51804 0.0
C678 C 0.48042 0.45647 0.49164 0.0
C679 C 0.48979 0.43306 0.49629 0.0
C680 C 0.51906 0.4417 0.51322 0.0
C681 C 0.53899 0.47321 0.52478 0.0
C682 C 0.5294 0.49585 0.51918 0.0
C683 C 0.50063 0.48783 0.50341 0.0
C684 C 0.49587 0.51672 0.50084 0.0
C685 C 0.49442 0.5254 0.46425 0.0
C686 C 0.46558 0.51081 0.5201 0.0
C687 C 0.52645 0.54214 0.51758 0.0
C688 C 0.54559 0.52972 0.52781 0.0
C689 C 0.57464 0.54849 0.54462 0.0
C690 C 0.58387 0.58063 0.55211 0.0
C691 C 0.56403 0.59351 0.54279 0.0
C692 C 0.53531 0.57404 0.52474 0.0
H693 H 0.55219 0.98477 0.45643 0.0
H694 H 0.53409 0.02706 0.36918 0.0
H695 H 0.47595 0.9953 0.37973 0.0
H696 H 0.47383 0.90426 0.45545 0.0
H697 H 0.47125 0.90508 0.50019 0.0
H698 H 0.51016 0.92305 0.48019 0.0
H699 H 0.52649 0.97678 0.51097 0.0
H700 H 0.48742 0.95916 0.53023 0.0
H701 H 0.5021 0.99551 0.50591 0.0
H702 H 0.42082 0.96788 0.40567 0.0
H703 H 0.37375 0.94498 0.44422 0.0
H704 H 0.42891 0.92532 0.51644 0.0
C705 C 0.53604 0.9867 0.43892 0.0
C706 C 0.54808 0.00854 0.41196 0.0
C707 C 0.52583 0.01006 0.38964 0.0
C708 C 0.49254 0.99223 0.39556 0.0
C709 C 0.48173 0.97289 0.42383 0.0
C710 C 0.50282 0.96965 0.44493 0.0
C711 C 0.48592 0.95146 0.47622 0.0
C712 C 0.48525 0.91903 0.47809 0.0
C713 C 0.50141 0.97197 0.50766 0.0
C714 C 0.45258 0.9465 0.47016 0.0
C715 C 0.45027 0.95828 0.4395 0.0
C716 C 0.42217 0.95808 0.42951 0.0
C717 C 0.39575 0.94538 0.45148 0.0
C718 C 0.39824 0.93395 0.48309 0.0
C719 C 0.42677 0.93421 0.49231 0.0
H720 H 0.41189 0.21285 0.35317 0.0
H721 H 0.34688 0.24642 0.3225 0.0
H722 H 0.33045 0.2098 0.27371 0.0
H723 H 0.4432 0.2167 0.27718 0.0
H724 H 0.44814 0.18189 0.28153 0.0
H725 H 0.44809 0.20374 0.31785 0.0
H726 H 0.40131 0.15121 0.34298 0.0
H727 H 0.40128 0.1291 0.30657 0.0
H728 H 0.36464 0.12799 0.31947 0.0
H729 H 0.32918 0.17752 0.22316 0.0
H730 H 0.34464 0.15513 0.17566 0.0
H731 H 0.41227 0.14481 0.23873 0.0
C732 C 0.39362 0.21198 0.33663 0.0
C733 C 0.38074 0.23258 0.34154 0.0
C734 C 0.35675 0.23056 0.31944 0.0
C735 C 0.34735 0.20984 0.29165 0.0
C736 C 0.36191 0.1911 0.2866 0.0
C737 C 0.3844 0.19186 0.30876 0.0
C738 C 0.40011 0.17333 0.29569 0.0
C739 C 0.43704 0.19523 0.29288 0.0
C740 C 0.39128 0.14363 0.31748 0.0
C741 C 0.38432 0.16347 0.26184 0.0
C742 C 0.36167 0.17307 0.25732 0.0
C743 C 0.34628 0.16923 0.22674 0.0
C744 C 0.35507 0.15633 0.19991 0.0
C745 C 0.37944 0.148 0.20373 0.0
C746 C 0.39328 0.15061 0.23539 0.0
H747 H 0.74841 0.14315 0.29197 0.0
H748 H 0.77187 0.22506 0.35566 0.0
H749 H 0.8105 0.26184 0.31359 0.0
H750 H 0.83027 0.1758 0.25203 0.0
H751 H 0.81276 0.15941 0.21194 0.0
H752 H 0.79188 0.13897 0.24949 0.0
H753 H 0.74132 0.14107 0.22999 0.0
H754 H 0.762 0.16151 0.19253 0.0
H755 H 0.74514 0.17948 0.21947 0.0
H756 H 0.84046 0.2898 0.26298 0.0
H757 H 0.85817 0.30796 0.20546 0.0
H758 H 0.8144 0.20845 0.17277 0.0
C759 C 0.76259 0.16874 0.29727 0.0
C760 C 0.75774 0.18151 0.32694 0.0
C761 C 0.7756 0.21511 0.33296 0.0
C762 C 0.79767 0.23602 0.30939 0.0
C763 C 0.80141 0.22286 0.27991 0.0
C764 C 0.78437 0.19001 0.27367 0.0
C765 C 0.78972 0.18263 0.23827 0.0
C766 C 0.8072 0.16304 0.23793 0.0
C767 C 0.75764 0.16516 0.21894 0.0
C768 C 0.81132 0.21653 0.22524 0.0
C769 C 0.8183 0.23926 0.24996 0.0
C770 C 0.83559 0.27226 0.24353 0.0
C771 C 0.84533 0.28234 0.21081 0.0
C772 C 0.83755 0.25952 0.18488 0.0
C773 C 0.82112 0.22625 0.19235 0.0
H774 H 0.82931 0.53521 0.28755 0.0
H775 H 0.81538 0.59221 0.36313 0.0
H776 H 0.79312 0.6126 0.32058 0.0
H777 H 0.84672 0.59081 0.2167 0.0
H778 H 0.82409 0.55785 0.18827 0.0
H779 H 0.84442 0.55243 0.22335 0.0
H780 H 0.79045 0.50329 0.24277 0.0
H781 H 0.77013 0.50852 0.20777 0.0
H782 H 0.75584 0.50817 0.24941 0.0
H783 H 0.76633 0.62194 0.27084 0.0
H784 H 0.73466 0.616 0.21953 0.0
H785 H 0.76369 0.55074 0.17862 0.0
C786 C 0.82193 0.55217 0.29539 0.0
C787 C 0.82424 0.56192 0.32899 0.0
C788 C 0.8144 0.58451 0.33764 0.0
C789 C 0.80166 0.59631 0.31357 0.0
C790 C 0.79897 0.58544 0.2809 0.0
C791 C 0.80884 0.56382 0.27186 0.0
C792 C 0.80017 0.55295 0.23614 0.0
C793 C 0.83067 0.5642 0.21486 0.0
C794 C 0.77781 0.51607 0.23392 0.0
C795 C 0.78268 0.57078 0.22689 0.0
C796 C 0.78289 0.59009 0.25265 0.0
C797 C 0.76644 0.6073 0.25034 0.0
C798 C 0.74865 0.60393 0.22126 0.0
C799 C 0.74712 0.58309 0.19552 0.0
C800 C 0.76492 0.56701 0.19808 0.0
H801 H 0.57678 0.8172 0.82888 0.0
H802 H 0.64083 0.91569 0.79802 0.0
H803 H 0.66112 0.89598 0.75176 0.0
H804 H 0.63168 0.7846 0.80512 0.0
H805 H 0.59767 0.74682 0.79193 0.0
H806 H 0.59322 0.76922 0.82564 0.0
H807 H 0.5457 0.76901 0.79451 0.0
H808 H 0.55004 0.74686 0.76074 0.0
H809 H 0.55182 0.7848 0.75272 0.0
H810 H 0.66604 0.86464 0.70347 0.0
H811 H 0.65616 0.82534 0.65869 0.0
H812 H 0.59136 0.74736 0.72383 0.0
C813 C 0.59578 0.83451 0.81286 0.0
C814 C 0.60746 0.8678 0.81661 0.0
C815 C 0.63202 0.89008 0.79536 0.0
C816 C 0.64359 0.87906 0.76922 0.0
C817 C 0.63078 0.8458 0.76546 0.0
C818 C 0.60778 0.8239 0.78716 0.0
C819 C 0.59544 0.78946 0.77618 0.0
C820 C 0.6051 0.77148 0.80121 0.0
C821 C 0.55859 0.77152 0.7707 0.0
C822 C 0.61356 0.79531 0.74377 0.0
C823 C 0.63424 0.82786 0.73816 0.0
C824 C 0.65061 0.83906 0.70801 0.0
C825 C 0.64492 0.81651 0.6827 0.0
C826 C 0.62287 0.78321 0.68767 0.0
C827 C 0.6082 0.77262 0.71915 0.0
H828 H 0.15006 0.72088 0.7735 0.0
H829 H 0.1516 0.79638 0.83485 0.0
H830 H 0.17158 0.83354 0.78669 0.0
H831 H 0.22076 0.76714 0.73444 0.0
H832 H 0.2087 0.74747 0.69447 0.0
H833 H 0.18907 0.72554 0.73159 0.0
H834 H 0.13345 0.71209 0.70744 0.0
H835 H 0.153 0.73393 0.66999 0.0
H836 H 0.12722 0.74433 0.69324 0.0
H837 H 0.19907 0.86425 0.73451 0.0
H838 H 0.23295 0.88592 0.68426 0.0
H839 H 0.21082 0.78925 0.65697 0.0
C840 C 0.15323 0.74474 0.77671 0.0
C841 C 0.14893 0.75555 0.80803 0.0
C842 C 0.1548 0.78756 0.81116 0.0
C843 C 0.16586 0.80873 0.78385 0.0
C844 C 0.17053 0.79737 0.75354 0.0
C845 C 0.16413 0.76598 0.74984 0.0
C846 C 0.17456 0.76051 0.71608 0.0
C847 C 0.19977 0.74955 0.71937 0.0
C848 C 0.1453 0.73628 0.69547 0.0
C849 C 0.18925 0.79414 0.70185 0.0
C850 C 0.18621 0.81499 0.72348 0.0
C851 C 0.20092 0.84801 0.71704 0.0
C852 C 0.22003 0.8601 0.68834 0.0
C853 C 0.22448 0.83921 0.66671 0.0
C854 C 0.20783 0.80574 0.67306 0.0
H855 H 0.22033 0.4151 0.6488 0.0
H856 H 0.12481 0.34 0.6779 0.0
H857 H 0.14807 0.32742 0.72662 0.0
H858 H 0.26887 0.37873 0.68654 0.0
H859 H 0.29979 0.41835 0.69967 0.0
H860 H 0.27764 0.41361 0.66174 0.0
H861 H 0.26195 0.4549 0.68353 0.0
H862 H 0.28346 0.45943 0.72153 0.0
H863 H 0.24131 0.44766 0.7229 0.0
H864 H 0.17923 0.33238 0.77856 0.0
H865 H 0.21469 0.35462 0.82797 0.0
H866 H 0.28908 0.42869 0.76644 0.0
C867 C 0.20454 0.39511 0.66473 0.0
C868 C 0.17085 0.37853 0.65966 0.0
C869 C 0.15075 0.35268 0.68103 0.0
C870 C 0.16381 0.34546 0.70885 0.0
C871 C 0.19698 0.36412 0.71464 0.0
C872 C 0.21714 0.38821 0.6928 0.0
C873 C 0.25053 0.40892 0.70731 0.0
C874 C 0.27569 0.40462 0.68765 0.0
C875 C 0.2598 0.4448 0.70893 0.0
C876 C 0.24543 0.39421 0.74161 0.0
C877 C 0.21479 0.36772 0.74511 0.0
C878 C 0.20355 0.3525 0.77583 0.0
C879 C 0.22378 0.36522 0.80375 0.0
C880 C 0.25449 0.39323 0.80075 0.0
C881 C 0.26572 0.4071 0.76914 0.0
H882 H 0.46843 0.27318 0.13737 0.0
H883 H 0.44653 0.22974 0.03928 0.0
H884 H 0.46724 0.28328 0.01399 0.0
H885 H 0.45906 0.34737 0.11609 0.0
H886 H 0.49368 0.37321 0.14112 0.0
H887 H 0.46691 0.33189 0.15368 0.0
H888 H 0.51425 0.32055 0.15592 0.0
H889 H 0.54266 0.36106 0.14355 0.0
H890 H 0.5389 0.32767 0.1195 0.0
H891 H 0.50862 0.33916 -0.00028 0.0
H892 H 0.55981 0.39159 0.99908 0.0
H893 H 0.55201 0.40121 0.10486 0.0
C894 C 0.4661 0.27479 0.11073 0.0
C895 C 0.45614 0.24745 0.09036 0.0
C896 C 0.45402 0.2504 0.05548 0.0
C897 C 0.46579 0.28085 0.04082 0.0
C898 C 0.47878 0.30796 0.06142 0.0
C899 C 0.47793 0.30508 0.0958 0.0
C900 C 0.499 0.33743 0.11221 0.0
C901 C 0.47844 0.34808 0.13199 0.0
C902 C 0.52518 0.33662 0.13408 0.0
C903 C 0.51368 0.35853 0.08196 0.0
C904 C 0.50156 0.34129 0.05272 0.0
C905 C 0.51703 0.35349 0.02221 0.0
C906 C 0.54603 0.38326 0.02193 0.0
C907 C 0.55875 0.40062 0.05177 0.0
C908 C 0.54147 0.38892 0.08164 0.0
H909 H 0.75314 0.30835 0.11737 0.0
H910 H 0.75877 0.26043 0.02795 0.0
H911 H 0.69957 0.23542 0.0205 0.0
H912 H 0.67441 0.24344 0.1464 0.0
H913 H 0.66285 0.27173 0.16143 0.0
H914 H 0.70478 0.28265 0.16116 0.0
H915 H 0.71843 0.33345 0.1264 0.0
H916 H 0.67663 0.32268 0.12593 0.0
H917 H 0.69816 0.3291 0.08726 0.0
H918 H 0.63923 0.21803 0.02183 0.0
H919 H 0.58479 0.21144 0.03136 0.0
H920 H 0.62124 0.27241 0.11874 0.0
C921 C 0.74193 0.29215 0.09651 0.0
C922 C 0.76048 0.28618 0.07332 0.0
C923 C 0.74491 0.26516 0.04613 0.0
C924 C 0.71133 0.25086 0.04172 0.0
C925 C 0.69382 0.25781 0.06478 0.0
C926 C 0.70871 0.27789 0.09172 0.0
C927 C 0.68521 0.28324 0.11199 0.0
C928 C 0.6816 0.26943 0.14733 0.0
C929 C 0.6952 0.31924 0.11291 0.0
C930 C 0.65487 0.26376 0.09184 0.0
C931 C 0.65995 0.24878 0.06497 0.0
C932 C 0.63505 0.22964 0.04285 0.0
C933 C 0.60432 0.22602 0.04835 0.0
C934 C 0.59914 0.24192 0.07534 0.0
C935 C 0.62473 0.26062 0.09742 0.0
H936 H 0.80002 0.40709 0.08871 0.0
H937 H 0.83819 0.44675 0.99139 0.0
H938 H 0.81141 0.47983 0.99423 0.0
H939 H 0.72354 0.40095 0.08005 0.0
H940 H 0.72215 0.41255 0.12248 0.0
H941 H 0.74482 0.39298 0.11231 0.0
H942 H 0.79601 0.44044 0.13862 0.0
H943 H 0.77368 0.46048 0.14872 0.0
H944 H 0.81003 0.48102 0.12422 0.0
H945 H 0.77734 0.5062 0.00743 0.0
H946 H 0.73992 0.52344 0.0298 0.0
H947 H 0.72807 0.46813 0.11959 0.0
C948 C 0.80243 0.42248 0.06785 0.0
C949 C 0.82059 0.42411 0.03956 0.0
C950 C 0.82408 0.44517 0.01313 0.0
C951 C 0.80908 0.46401 0.01461 0.0
C952 C 0.7913 0.46185 0.04302 0.0
C953 C 0.78821 0.44175 0.06924 0.0
C954 C 0.76806 0.4437 0.09707 0.0
C955 C 0.73784 0.41059 0.10331 0.0
C956 C 0.78815 0.45722 0.12904 0.0
C957 C 0.7595 0.46741 0.08215 0.0
C958 C 0.7731 0.4778 0.05103 0.0
C959 C 0.7669 0.49851 0.03196 0.0
C960 C 0.74574 0.50826 0.04485 0.0
C961 C 0.73128 0.49731 0.07648 0.0
C962 C 0.73895 0.47724 0.09546 0.0
H963 H 0.76338 0.46339 0.44628 0.0
H964 H 0.75687 0.38693 0.38297 0.0
H965 H 0.69836 0.35444 0.39432 0.0
H966 H 0.69846 0.41086 0.5072 0.0
H967 H 0.68378 0.43893 0.50994 0.0
H968 H 0.726 0.45353 0.50218 0.0
H969 H 0.72305 0.48246 0.44887 0.0
H970 H 0.68093 0.46791 0.45638 0.0
H971 H 0.69365 0.45943 0.41725 0.0
H972 H 0.64044 0.33345 0.4065 0.0
H973 H 0.58667 0.32633 0.41593 0.0
H974 H 0.62949 0.41676 0.47083 0.0
C975 C 0.74966 0.43939 0.43571 0.0
C976 C 0.76436 0.42733 0.41408 0.0
C977 C 0.74579 0.39638 0.39968 0.0
C978 C 0.71267 0.37773 0.40616 0.0
C979 C 0.69853 0.39057 0.42688 0.0
C980 C 0.71635 0.42071 0.44142 0.0
C981 C 0.69459 0.4305 0.45919 0.0
C982 C 0.7011 0.43363 0.49687 0.0
C983 C 0.69828 0.46192 0.44453 0.0
C984 C 0.66177 0.40173 0.45127 0.0
C985 C 0.66467 0.37869 0.43327 0.0
C986 C 0.63782 0.35104 0.42111 0.0
C987 C 0.6072 0.34714 0.4268 0.0
C988 C 0.60354 0.37092 0.44433 0.0
C989 C 0.63132 0.39815 0.45734 0.0
H990 H 0.5842 0.1955 0.41139 0.0
H991 H 0.54598 0.14923 0.507 0.0
H992 H 0.50867 0.17057 0.50674 0.0
H993 H 0.58313 0.26649 0.42742 0.0
H994 H 0.57182 0.27019 0.38555 0.0
H995 H 0.59411 0.24972 0.39298 0.0
H996 H 0.54954 0.19891 0.36274 0.0
H997 H 0.52698 0.21926 0.35542 0.0
H998 H 0.50825 0.1809 0.37658 0.0
H999 H 0.47848 0.20095 0.49785 0.0
H1000 H 0.45926 0.23834 0.48124 0.0
H1001 H 0.51553 0.26072 0.39034 0.0
C1002 C 0.56797 0.18922 0.43228 0.0
C1003 C 0.56854 0.17057 0.45929 0.0
C1004 C 0.54662 0.1637 0.48606 0.0
C1005 C 0.525 0.17549 0.48605 0.0
C1006 C 0.52529 0.19375 0.45894 0.0
C1007 C 0.54619 0.20045 0.43255 0.0
C1008 C 0.54294 0.22175 0.40699 0.0
C1009 C 0.57488 0.25393 0.40304 0.0
C1010 C 0.53121 0.20415 0.37346 0.0
C1011 C 0.51733 0.22659 0.42344 0.0
C1012 C 0.50728 0.21021 0.45334 0.0
C1013 C 0.48575 0.21344 0.47421 0.0
C1014 C 0.47494 0.23465 0.46459 0.0
C1015 C 0.48571 0.25212 0.43441 0.0
C1016 C 0.50639 0.24723 0.41327 0.0
H1017 H 0.78934 0.36449 0.45033 0.0
H1018 H 0.87404 0.35591 0.43506 0.0
H1019 H 0.84572 0.30095 0.45911 0.0
H1020 H 0.75387 0.30603 0.52636 0.0
H1021 H 0.71379 0.29046 0.5097 0.0
H1022 H 0.74375 0.3324 0.50391 0.0
H1023 H 0.73456 0.32577 0.44018 0.0
H1024 H 0.70482 0.28419 0.44571 0.0
H1025 H 0.73891 0.29497 0.41879 0.0
H1026 H 0.80528 0.2439 0.46964 0.0
H1027 H 0.75661 0.19058 0.46055 0.0
H1028 H 0.69693 0.23465 0.46706 0.0
C1029 C 0.80233 0.3516 0.45414 0.0
C1030 C 0.83397 0.3644 0.44191 0.0
C1031 C 0.84999 0.3465 0.44516 0.0
C1032 C 0.83408 0.31538 0.45889 0.0
C1033 C 0.80206 0.30246 0.46908 0.0
C1034 C 0.78638 0.32019 0.46703 0.0
C1035 C 0.75038 0.29892 0.47221 0.0
C1036 C 0.73984 0.30746 0.50501 0.0
C1037 C 0.73109 0.30108 0.44245 0.0
C1038 C 0.7479 0.26613 0.47443 0.0
C1039 C 0.77804 0.26873 0.47417 0.0
C1040 C 0.78159 0.24153 0.47104 0.0
C1041 C 0.75385 0.21124 0.46613 0.0
C1042 C 0.72327 0.20876 0.4638 0.0
C1043 C 0.72016 0.23612 0.4698 0.0
H1044 H 0.40872 0.62321 0.87518 0.0
H1045 H 0.39542 0.61639 0.98201 0.0
H1046 H 0.44123 0.6721 0.98834 0.0
H1047 H 0.49979 0.6807 0.87426 0.0
H1048 H 0.49642 0.70223 0.83909 0.0
H1049 H 0.46876 0.65949 0.84351 0.0
H1050 H 0.42033 0.66948 0.83996 0.0
H1051 H 0.44773 0.71197 0.83536 0.0
H1052 H 0.41829 0.69761 0.86843 0.0
H1053 H 0.4814 0.73031 0.98253 0.0
H1054 H 0.50796 0.78734 0.9651 0.0
H1055 H 0.49391 0.75744 0.86159 0.0
C1056 C 0.41645 0.63317 0.8999 0.0
C1057 C 0.39908 0.61568 0.92818 0.0
C1058 C 0.40872 0.6296 0.96016 0.0
C1059 C 0.43486 0.66102 0.96394 0.0
C1060 C 0.45098 0.67817 0.93544 0.0
C1061 C 0.44207 0.66474 0.90396 0.0
C1062 C 0.45926 0.68986 0.87713 0.0
C1063 C 0.48244 0.68263 0.85734 0.0
C1064 C 0.43495 0.69238 0.8539 0.0
C1065 C 0.47765 0.71983 0.89838 0.0
C1066 C 0.47353 0.71241 0.93195 0.0
C1067 C 0.48541 0.7364 0.95635 0.0
C1068 C 0.50056 0.76877 0.94623 0.0
C1069 C 0.50303 0.77672 0.91202 0.0
C1070 C 0.4927 0.752 0.88791 0.0
H1071 H 0.22084 0.69923 0.9247 0.0
H1072 H 0.2157 0.67085 0.82125 0.0
H1073 H 0.27545 0.69966 0.81859 0.0
H1074 H 0.28665 0.77812 0.91541 0.0
H1075 H 0.30456 0.77888 0.95513 0.0
H1076 H 0.26165 0.75397 0.94944 0.0
H1077 H 0.26454 0.70363 0.96831 0.0
H1078 H 0.30749 0.72843 0.97422 0.0
H1079 H 0.2917 0.69355 0.9474 0.0
H1080 H 0.33604 0.73396 0.82698 0.0
H1081 H 0.39201 0.7701 0.84561 0.0
H1082 H 0.35646 0.77708 0.94299 0.0
C1083 C 0.23229 0.69866 0.90163 0.0
C1084 C 0.2138 0.68274 0.87322 0.0
C1085 C 0.22955 0.68286 0.84333 0.0
C1086 C 0.26342 0.69913 0.8416 0.0
C1087 C 0.28101 0.7151 0.86999 0.0
C1088 C 0.26593 0.71487 0.89945 0.0
C1089 C 0.29015 0.73496 0.92599 0.0
C1090 C 0.28547 0.76315 0.93712 0.0
C1091 C 0.28836 0.71388 0.95573 0.0
C1092 C 0.32127 0.74686 0.90681 0.0
C1093 C 0.31559 0.73505 0.87463 0.0
C1094 C 0.34075 0.74329 0.85217 0.0
C1095 C 0.37251 0.76409 0.86294 0.0
C1096 C 0.37886 0.77657 0.89587 0.0
C1097 C 0.35268 0.76767 0.91789 0.0
H1098 H 0.15279 0.55341 0.93096 0.0
H1099 H 0.10786 0.52202 0.83434 0.0
H1100 H 0.13854 0.49373 0.82447 0.0
H1101 H 0.22905 0.56918 0.90989 0.0
H1102 H 0.23695 0.55387 0.94758 0.0
H1103 H 0.20908 0.56874 0.94815 0.0
H1104 H 0.16448 0.51406 0.97191 0.0
H1105 H 0.19231 0.49899 0.9715 0.0
H1106 H 0.15416 0.47715 0.95013 0.0
H1107 H 0.18104 0.47783 0.82165 0.0
H1108 H 0.22852 0.47059 0.82816 0.0
H1109 H 0.24035 0.50521 0.92979 0.0
C1110 C 0.14897 0.53982 0.90819 0.0
C1111 C 0.12816 0.53965 0.88333 0.0
C1112 C 0.12366 0.52205 0.8536 0.0
C1113 C 0.1409 0.50593 0.84789 0.0
C1114 C 0.1617 0.50688 0.87274 0.0
C1115 C 0.16523 0.52274 0.90264 0.0
C1116 C 0.19006 0.52116 0.92467 0.0
C1117 C 0.21793 0.55526 0.93304 0.0
C1118 C 0.1743 0.50167 0.95644 0.0
C1119 C 0.20106 0.5033 0.9019 0.0
C1120 C 0.18447 0.49536 0.872 0.0
C1121 C 0.19344 0.48285 0.84533 0.0
C1122 C 0.22038 0.47887 0.84919 0.0
C1123 C 0.23747 0.48675 0.87965 0.0
C1124 C 0.22709 0.49816 0.90659 0.0
H1125 H 0.38906 0.57178 0.56777 0.0
H1126 H 0.41742 0.63333 0.65536 0.0
H1127 H 0.36166 0.60312 0.67625 0.0
H1128 H 0.31669 0.57025 0.5548 0.0
H1129 H 0.2949 0.52894 0.54068 0.0
H1130 H 0.33791 0.55233 0.53522 0.0
H1131 H 0.34453 0.50882 0.56714 0.0
H1132 H 0.30142 0.4853 0.5728 0.0
H1133 H 0.32786 0.49705 0.60841 0.0
H1134 H 0.30112 0.5691 0.68508 0.0
H1135 H 0.24153 0.53619 0.67909 0.0
H1136 H 0.25377 0.49927 0.58489 0.0
C1137 C 0.38375 0.57894 0.59141 0.0
C1138 C 0.40789 0.60502 0.60977 0.0
C1139 C 0.39968 0.61321 0.64085 0.0
C1140 C 0.36795 0.59617 0.65301 0.0
C1141 C 0.34469 0.57094 0.63391 0.0
C1142 C 0.35229 0.56239 0.60376 0.0
C1143 C 0.32262 0.53623 0.58657 0.0
C1144 C 0.31775 0.54764 0.55231 0.0
C1145 C 0.32422 0.505 0.58357 0.0
C1146 C 0.29696 0.53229 0.61107 0.0
C1147 C 0.31006 0.55194 0.63863 0.0
C1148 C 0.29063 0.55334 0.6638 0.0
C1149 C 0.25692 0.53462 0.66027 0.0
C1150 C 0.24336 0.51541 0.63154 0.0
C1151 C 0.26364 0.51381 0.60712 0.0
H1152 H 0.39925 0.79191 0.60799 0.0
H1153 H 0.44219 0.84617 0.5179 0.0
H1154 H 0.47629 0.8209 0.51301 0.0
H1155 H 0.47015 0.802 0.6416 0.0
H1156 H 0.45309 0.76251 0.66018 0.0
H1157 H 0.42825 0.78047 0.65377 0.0
H1158 H 0.3875 0.73072 0.61941 0.0
H1159 H 0.41188 0.71225 0.62629 0.0
H1160 H 0.40169 0.71757 0.58447 0.0
H1161 H 0.50872 0.79316 0.52073 0.0
H1162 H 0.53637 0.76398 0.53992 0.0
H1163 H 0.47407 0.73054 0.62678 0.0
C1164 C 0.41499 0.79741 0.58664 0.0
C1165 C 0.41796 0.82046 0.563 0.0
C1166 C 0.43961 0.82826 0.53599 0.0
C1167 C 0.45898 0.81407 0.53307 0.0
C1168 C 0.45644 0.7923 0.55754 0.0
C1169 C 0.43483 0.78382 0.5837 0.0
C1170 C 0.43885 0.7621 0.60823 0.0
C1171 C 0.44814 0.77772 0.64299 0.0
C1172 C 0.40816 0.72868 0.60967 0.0
C1173 C 0.46651 0.76031 0.59218 0.0
C1174 C 0.47605 0.77749 0.56274 0.0
C1175 C 0.50137 0.77948 0.54367 0.0
C1176 C 0.51703 0.76304 0.55482 0.0
C1177 C 0.50758 0.74539 0.58495 0.0
C1178 C 0.48213 0.74423 0.60385 0.0
H1179 H 0.24772 0.75594 0.57679 0.0
H1180 H 0.31943 0.77063 0.65139 0.0
H1181 H 0.29293 0.71177 0.66024 0.0
H1182 H 0.18006 0.68983 0.62094 0.0
H1183 H 0.1606 0.6682 0.58334 0.0
H1184 H 0.18513 0.71159 0.5827 0.0
H1185 H 0.21989 0.70788 0.53528 0.0
H1186 H 0.19551 0.66451 0.53574 0.0
H1187 H 0.23862 0.68357 0.54112 0.0
H1188 H 0.26128 0.65183 0.65845 0.0
H1189 H 0.22351 0.59381 0.64928 0.0
H1190 H 0.16943 0.6171 0.57896 0.0
C1191 C 0.25773 0.74664 0.59496 0.0
C1192 C 0.28566 0.76765 0.61332 0.0
C1193 C 0.29796 0.75485 0.63718 0.0
C1194 C 0.28314 0.72149 0.64233 0.0
C1195 C 0.25568 0.70136 0.62384 0.0
C1196 C 0.24277 0.71335 0.60096 0.0
C1197 C 0.21264 0.68627 0.58491 0.0
C1198 C 0.18284 0.68915 0.5935 0.0
C1199 C 0.21694 0.68552 0.54702 0.0
C1200 C 0.21119 0.6572 0.60173 0.0
C1201 C 0.23638 0.66655 0.62399 0.0
C1202 C 0.24125 0.64419 0.64138 0.0
C1203 C 0.2198 0.61133 0.63589 0.0
C1204 C 0.19354 0.60111 0.61359 0.0
C1205 C 0.18907 0.62438 0.59649 0.0
loop_
_geom_bond_atom_site_label_1
_geom_bond_atom_site_label_2
_geom_bond_distance
_geom_bond_site_symmetry_2
_ccdc_geom_bond_type
Co0 N4 2.148 . S
Co0 N10 2.128 . S
Co0 N20 2.194 . S
Co0 O25 2.351 . S
Co0 O26 2.155 . S
Co0 O27 2.096 . S
C1 N4 1.301 . S
C1 N5 1.328 . S
C1 H6 0.930 . S
C2 C3 1.333 . S
C2 N4 1.317 . S
C2 H7 0.930 . S
C3 C2 1.333 . S
C3 N5 1.350 . S
C3 H29 0.931 . S
N4 Co0 2.148 . S
N4 C1 1.301 . S
N4 C2 1.317 . S
N5 C1 1.328 . S
N5 C3 1.350 . S
H6 C1 0.930 . S
H7 C2 0.930 . S
C8 O9 1.224 . S
C8 O27 1.247 . S
O9 C8 1.224 . S
N10 Co0 2.128 . S
N10 C11 1.355 . S
N10 C13 1.311 . S
C11 N10 1.355 . S
C11 C12 1.363 . S
C11 H23 0.929 . S
C12 C11 1.363 . S
C12 N14 1.375 . S
C12 H30 0.931 . S
C13 N10 1.311 . S
C13 N14 1.347 . S
C13 H24 0.929 . S
N14 C12 1.375 . S
N14 C13 1.347 . S
C15 C18 1.365 . S
C15 N20 1.328 . S
C15 H21 0.929 . S
C16 C17 1.362 . S
C16 C19 1.378 . S
C16 H31 0.929 . S
C17 C16 1.362 . S
C17 C18 1.366 . S
C18 C15 1.365 . S
C18 C17 1.366 . S
C18 H32 0.930 1_554 S
C19 C16 1.378 . S
C19 N20 1.315 . S
C19 H22 0.930 . S
N20 Co0 2.194 . S
N20 C15 1.328 . S
N20 C19 1.315 . S
H21 C15 0.929 . S
H22 C19 0.930 . S
H23 C11 0.929 . S
H24 C13 0.929 . S
O25 Co0 2.351 . S
O25 C28 1.244 . S
O26 Co0 2.155 . S
O26 C28 1.240 . S
O27 Co0 2.096 . S
O27 C8 1.247 . S
C28 O25 1.244 . S
C28 O26 1.240 . S
H29 C3 0.931 . S
H30 C12 0.931 . S
H31 C16 0.929 . S
H32 C18 0.930 1_556 S
Co33 N37 2.148 . S
Co33 N43 2.128 . S
Co33 N53 2.194 . S
Co33 O58 2.351 . S
Co33 O59 2.155 . S
Co33 O60 2.096 . S
C34 N37 1.301 . S
C34 N38 1.328 . S
C34 H39 0.930 . S
C35 C36 1.333 . S
C35 N37 1.317 . S
C35 H40 0.930 . S
C36 C35 1.333 . S
C36 N38 1.350 . S
C36 H62 0.931 . S
N37 Co33 2.148 . S
N37 C34 1.301 . S
N37 C35 1.317 . S
N38 C34 1.328 . S
N38 C36 1.350 . S
H39 C34 0.930 . S
H40 C35 0.930 . S
C41 O42 1.224 . S
C41 O60 1.247 . S
O42 C41 1.224 . S
N43 Co33 2.128 . S
N43 C44 1.355 . S
N43 C46 1.311 . S
C44 N43 1.355 . S
C44 C45 1.363 . S
C44 H56 0.929 . S
C45 C44 1.363 . S
C45 N47 1.375 . S
C45 H63 0.931 . S
C46 N43 1.311 . S
C46 N47 1.347 . S
C46 H57 0.929 . S
N47 C45 1.375 . S
N47 C46 1.347 . S
C48 C51 1.365 . S
C48 N53 1.328 . S
C48 H54 0.929 . S
C49 C50 1.362 . S
C49 C52 1.378 . S
C49 H64 0.929 . S
C50 C49 1.362 . S
C50 C51 1.366 . S
C51 C48 1.365 . S
C51 C50 1.366 . S
C51 H65 0.930 1_554 S
C52 C49 1.378 . S
C52 N53 1.315 . S
C52 H55 0.930 . S
N53 Co33 2.194 . S
N53 C48 1.328 . S
N53 C52 1.315 . S
H54 C48 0.929 . S
H55 C52 0.930 . S
H56 C44 0.929 . S
H57 C46 0.929 . S
O58 Co33 2.351 . S
O58 C61 1.244 . S
O59 Co33 2.155 . S
O59 C61 1.240 . S
O60 Co33 2.096 . S
O60 C41 1.247 . S
C61 O58 1.244 . S
C61 O59 1.240 . S
H62 C36 0.931 . S
H63 C45 0.931 . S
H64 C49 0.929 . S
H65 C51 0.930 1_556 S
Co66 N70 2.148 . S
Co66 N76 2.128 . S
Co66 N86 2.194 . S
Co66 O91 2.351 . S
Co66 O92 2.155 . S
Co66 O93 2.096 . S
C67 N70 1.301 . S
C67 N71 1.328 . S
C67 H72 0.930 . S
C68 C69 1.333 . S
C68 N70 1.317 . S
C68 H73 0.930 . S
C69 C68 1.333 . S
C69 N71 1.350 . S
C69 H95 0.931 . S
N70 Co66 2.148 . S
N70 C67 1.301 . S
N70 C68 1.317 . S
N71 C67 1.328 . S
N71 C69 1.350 . S
H72 C67 0.930 . S
H73 C68 0.930 . S
C74 O75 1.224 . S
C74 O93 1.247 . S
O75 C74 1.224 . S
N76 Co66 2.128 . S
N76 C77 1.355 . S
N76 C79 1.311 . S
C77 N76 1.355 . S
C77 C78 1.363 . S
C77 H89 0.929 . S
C78 C77 1.363 . S
C78 N80 1.375 . S
C78 H96 0.931 . S
C79 N76 1.311 . S
C79 N80 1.347 . S
C79 H90 0.929 . S
N80 C78 1.375 . S
N80 C79 1.347 . S
C81 C84 1.365 . S
C81 N86 1.328 . S
C81 H87 0.929 . S
C82 C83 1.362 . S
C82 C85 1.378 . S
C82 H97 0.929 . S
C83 C82 1.362 . S
C83 C84 1.366 . S
C84 C81 1.365 . S
C84 C83 1.366 . S
C84 H98 0.930 1_554 S
C85 C82 1.378 . S
C85 N86 1.315 . S
C85 H88 0.930 . S
N86 Co66 2.194 . S
N86 C81 1.328 . S
N86 C85 1.315 . S
H87 C81 0.929 . S
H88 C85 0.930 . S
H89 C77 0.929 . S
H90 C79 0.929 . S
O91 Co66 2.351 . S
O91 C94 1.244 . S
O92 Co66 2.155 . S
O92 C94 1.240 . S
O93 Co66 2.096 . S
O93 C74 1.247 . S
C94 O91 1.244 . S
C94 O92 1.240 . S
H95 C69 0.931 . S
H96 C78 0.931 . S
H97 C82 0.929 . S
H98 C84 0.930 1_556 S
Co99 N103 2.148 . S
Co99 N109 2.128 . S
Co99 N119 2.194 . S
Co99 O124 2.351 . S
Co99 O125 2.155 . S
Co99 O126 2.096 . S
C100 N103 1.301 . S
C100 N104 1.328 . S
C100 H105 0.930 . S
C101 C102 1.333 . S
C101 N103 1.317 . S
C101 H106 0.930 . S
C102 C101 1.333 . S
C102 N104 1.350 . S
C102 H128 0.931 . S
N103 Co99 2.148 . S
N103 C100 1.301 . S
N103 C101 1.317 . S
N104 C100 1.328 . S
N104 C102 1.350 . S
H105 C100 0.930 . S
H106 C101 0.930 . S
C107 O108 1.224 . S
C107 O126 1.247 . S
O108 C107 1.224 . S
N109 Co99 2.128 . S
N109 C110 1.355 . S
N109 C112 1.311 . S
C110 N109 1.355 . S
C110 C111 1.363 . S
C110 H122 0.929 . S
C111 C110 1.363 . S
C111 N113 1.375 . S
C111 H129 0.931 . S
C112 N109 1.311 . S
C112 N113 1.347 . S
C112 H123 0.929 . S
N113 C111 1.375 . S
N113 C112 1.347 . S
C114 C117 1.365 . S
C114 N119 1.328 . S
C114 H120 0.929 . S
C115 C116 1.362 . S
C115 C118 1.378 . S
C115 H130 0.929 . S
C116 C115 1.362 . S
C116 C117 1.366 . S
C117 C114 1.365 . S
C117 C116 1.366 . S
C117 H131 0.930 . S
C118 C115 1.378 . S
C118 N119 1.315 . S
C118 H121 0.930 . S
N119 Co99 2.194 . S
N119 C114 1.328 . S
N119 C118 1.315 . S
H120 C114 0.929 . S
H121 C118 0.930 . S
H122 C110 0.929 . S
H123 C112 0.929 . S
O124 Co99 2.351 . S
O124 C127 1.244 . S
O125 Co99 2.155 . S
O125 C127 1.240 . S
O126 Co99 2.096 . S
O126 C107 1.247 . S
C127 O124 1.244 . S
C127 O125 1.240 . S
H128 C102 0.931 . S
H129 C111 0.931 . S
H130 C115 0.929 . S
H131 C117 0.930 . S
Co132 N136 2.148 . S
Co132 N142 2.128 . S
Co132 N152 2.194 . S
Co132 O157 2.351 . S
Co132 O158 2.155 . S
Co132 O159 2.096 . S
C133 N136 1.301 . S
C133 N137 1.328 . S
C133 H138 0.930 . S
C134 C135 1.333 . S
C134 N136 1.317 . S
C134 H139 0.930 . S
C135 C134 1.333 . S
C135 N137 1.350 . S
C135 H161 0.931 . S
N136 Co132 2.148 . S
N136 C133 1.301 . S
N136 C134 1.317 . S
N137 C133 1.328 . S
N137 C135 1.350 . S
H138 C133 0.930 . S
H139 C134 0.930 . S
C140 O141 1.224 . S
C140 O159 1.247 . S
O141 C140 1.224 . S
N142 Co132 2.128 . S
N142 C143 1.355 . S
N142 C145 1.311 . S
C143 N142 1.355 . S
C143 C144 1.363 . S
C143 H155 0.929 . S
C144 C143 1.363 . S
C144 N146 1.375 . S
C144 H162 0.931 . S
C145 N142 1.311 . S
C145 N146 1.347 . S
C145 H156 0.929 . S
N146 C144 1.375 . S
N146 C145 1.347 . S
C147 C150 1.365 . S
C147 N152 1.328 . S
C147 H153 0.929 . S
C148 C149 1.362 . S
C148 C151 1.378 . S
C148 H163 0.929 . S
C149 C148 1.362 . S
C149 C150 1.366 . S
C150 C147 1.365 . S
C150 C149 1.366 . S
C150 H164 0.930 . S
C151 C148 1.378 . S
C151 N152 1.315 . S
C151 H154 0.930 . S
N152 Co132 2.194 . S
N152 C147 1.328 . S
N152 C151 1.315 . S
H153 C147 0.929 . S
H154 C151 0.930 . S
H155 C143 0.929 . S
H156 C145 0.929 . S
O157 Co132 2.351 . S
O157 C160 1.244 . S
O158 Co132 2.155 . S
O158 C160 1.240 . S
O159 Co132 2.096 . S
O159 C140 1.247 . S
C160 O157 1.244 . S
C160 O158 1.240 . S
H161 C135 0.931 . S
H162 C144 0.931 . S
H163 C148 0.929 . S
H164 C150 0.930 . S
Co165 N169 2.148 . S
Co165 N175 2.128 . S
Co165 N185 2.194 . S
Co165 O190 2.351 . S
Co165 O191 2.155 . S
Co165 O192 2.096 . S
C166 N169 1.301 . S
C166 N170 1.328 . S
C166 H171 0.930 . S
C167 C168 1.333 . S
C167 N169 1.317 . S
C167 H172 0.930 . S
C168 C167 1.333 . S
C168 N170 1.350 . S
C168 H194 0.931 . S
N169 Co165 2.148 . S
N169 C166 1.301 . S
N169 C167 1.317 . S
N170 C166 1.328 . S
N170 C168 1.350 . S
H171 C166 0.930 . S
H172 C167 0.930 . S
C173 O174 1.224 . S
C173 O192 1.247 . S
O174 C173 1.224 . S
N175 Co165 2.128 . S
N175 C176 1.355 . S
N175 C178 1.311 . S
C176 N175 1.355 . S
C176 C177 1.363 . S
C176 H188 0.929 . S
C177 C176 1.363 . S
C177 N179 1.375 . S
C177 H195 0.931 . S
C178 N175 1.311 . S
C178 N179 1.347 . S
C178 H189 0.929 . S
N179 C177 1.375 . S
N179 C178 1.347 . S
C180 C183 1.365 . S
C180 N185 1.328 . S
C180 H186 0.929 . S
C181 C182 1.362 . S
C181 C184 1.378 . S
C181 H196 0.929 . S
C182 C181 1.362 . S
C182 C183 1.366 . S
C183 C180 1.365 . S
C183 C182 1.366 . S
C183 H197 0.930 . S
C184 C181 1.378 . S
C184 N185 1.315 . S
C184 H187 0.930 . S
N185 Co165 2.194 . S
N185 C180 1.328 . S
N185 C184 1.315 . S
H186 C180 0.929 . S
H187 C184 0.930 . S
H188 C176 0.929 . S
H189 C178 0.929 . S
O190 Co165 2.351 . S
O190 C193 1.244 . S
O191 Co165 2.155 . S
O191 C193 1.240 . S
O192 Co165 2.096 . S
O192 C173 1.247 . S
C193 O190 1.244 . S
C193 O191 1.240 . S
H194 C168 0.931 . S
H195 C177 0.931 . S
H196 C181 0.929 . S
H197 C183 0.930 . S
Co198 N202 2.148 . S
Co198 N208 2.128 . S
Co198 N218 2.194 . S
Co198 O223 2.351 . S
Co198 O224 2.155 . S
Co198 O225 2.096 . S
C199 N202 1.301 . S
C199 N203 1.328 . S
C199 H204 0.930 . S
C200 C201 1.333 . S
C200 N202 1.317 . S
C200 H205 0.930 . S
C201 C200 1.333 . S
C201 N203 1.350 . S
C201 H227 0.931 . S
N202 Co198 2.148 . S
N202 C199 1.301 . S
N202 C200 1.317 . S
N203 C199 1.328 . S
N203 C201 1.350 . S
H204 C199 0.930 . S
H205 C200 0.930 . S
C206 O207 1.224 . S
C206 O225 1.247 . S
O207 C206 1.224 . S
N208 Co198 2.128 . S
N208 C209 1.355 . S
N208 C211 1.311 . S
C209 N208 1.355 . S
C209 C210 1.363 . S
C209 H221 0.929 . S
C210 C209 1.363 . S
C210 N212 1.375 . S
C210 H228 0.931 . S
C211 N208 1.311 . S
C211 N212 1.347 . S
C211 H222 0.929 . S
N212 C210 1.375 . S
N212 C211 1.347 . S
C213 C216 1.365 . S
C213 N218 1.328 . S
C213 H219 0.929 . S
C214 C215 1.362 . S
C214 C217 1.378 . S
C214 H229 0.929 . S
C215 C214 1.362 . S
C215 C216 1.366 . S
C216 C213 1.365 . S
C216 C215 1.366 . S
C216 H230 0.930 1_556 S
C217 C214 1.378 . S
C217 N218 1.315 . S
C217 H220 0.930 . S
N218 Co198 2.194 . S
N218 C213 1.328 . S
N218 C217 1.315 . S
H219 C213 0.929 . S
H220 C217 0.930 . S
H221 C209 0.929 . S
H222 C211 0.929 . S
O223 Co198 2.351 . S
O223 C226 1.244 . S
O224 Co198 2.155 . S
O224 C226 1.240 . S
O225 Co198 2.096 . S
O225 C206 1.247 . S
C226 O223 1.244 . S
C226 O224 1.240 . S
H227 C201 0.931 . S
H228 C210 0.931 . S
H229 C214 0.929 . S
H230 C216 0.930 1_554 S
Co231 N235 2.148 . S
Co231 N241 2.128 . S
Co231 N251 2.194 . S
Co231 O256 2.351 . S
Co231 O257 2.155 . S
Co231 O258 2.096 . S
C232 N235 1.301 . S
C232 N236 1.328 . S
C232 H237 0.930 . S
C233 C234 1.333 . S
C233 N235 1.317 . S
C233 H238 0.930 . S
C234 C233 1.333 . S
C234 N236 1.350 . S
C234 H260 0.931 . S
N235 Co231 2.148 . S
N235 C232 1.301 . S
N235 C233 1.317 . S
N236 C232 1.328 . S
N236 C234 1.350 . S
H237 C232 0.930 . S
H238 C233 0.930 . S
C239 O240 1.224 . S
C239 O258 1.247 . S
O240 C239 1.224 . S
N241 Co231 2.128 . S
N241 C242 1.355 . S
N241 C244 1.311 . S
C242 N241 1.355 . S
C242 C243 1.363 . S
C242 H254 0.929 . S
C243 C242 1.363 . S
C243 N245 1.375 . S
C243 H261 0.931 . S
C244 N241 1.311 . S
C244 N245 1.347 . S
C244 H255 0.929 . S
N245 C243 1.375 . S
N245 C244 1.347 . S
C246 C249 1.365 . S
C246 N251 1.328 . S
C246 H252 0.929 . S
C247 C248 1.362 . S
C247 C250 1.378 . S
C247 H262 0.929 . S
C248 C247 1.362 . S
C248 C249 1.366 . S
C249 C246 1.365 . S
C249 C248 1.366 . S
C249 H263 0.930 1_556 S
C250 C247 1.378 . S
C250 N251 1.315 . S
C250 H253 0.930 . S
N251 Co231 2.194 . S
N251 C246 1.328 . S
N251 C250 1.315 . S
H252 C246 0.929 . S
H253 C250 0.930 . S
H254 C242 0.929 . S
H255 C244 0.929 . S
O256 Co231 2.351 . S
O256 C259 1.244 . S
O257 Co231 2.155 . S
O257 C259 1.240 . S
O258 Co231 2.096 . S
O258 C239 1.247 . S
C259 O256 1.244 . S
C259 O257 1.240 . S
H260 C234 0.931 . S
H261 C243 0.931 . S
H262 C247 0.929 . S
H263 C249 0.930 1_554 S
Co264 N268 2.148 . S
Co264 N274 2.128 . S
Co264 N284 2.194 . S
Co264 O289 2.351 . S
Co264 O290 2.155 . S
Co264 O291 2.096 . S
C265 N268 1.301 . S
C265 N269 1.328 . S
C265 H270 0.930 . S
C266 C267 1.333 . S
C266 N268 1.317 . S
C266 H271 0.930 . S
C267 C266 1.333 . S
C267 N269 1.350 . S
C267 H293 0.931 . S
N268 Co264 2.148 . S
N268 C265 1.301 . S
N268 C266 1.317 . S
N269 C265 1.328 . S
N269 C267 1.350 . S
H270 C265 0.930 . S
H271 C266 0.930 . S
C272 O273 1.224 . S
C272 O291 1.247 . S
O273 C272 1.224 . S
N274 Co264 2.128 . S
N274 C275 1.355 . S
N274 C277 1.311 . S
C275 N274 1.355 . S
C275 C276 1.363 . S
C275 H287 0.929 . S
C276 C275 1.363 . S
C276 N278 1.375 . S
C276 H294 0.931 . S
C277 N274 1.311 . S
C277 N278 1.347 . S
C277 H288 0.929 . S
N278 C276 1.375 . S
N278 C277 1.347 . S
C279 C282 1.365 . S
C279 N284 1.328 . S
C279 H285 0.929 . S
C280 C281 1.362 . S
C280 C283 1.378 . S
C280 H295 0.929 . S
C281 C280 1.362 . S
C281 C282 1.366 . S
C282 C279 1.365 . S
C282 C281 1.366 . S
C282 H296 0.930 1_556 S
C283 C280 1.378 . S
C283 N284 1.315 . S
C283 H286 0.930 . S
N284 Co264 2.194 . S
N284 C279 1.328 . S
N284 C283 1.315 . S
H285 C279 0.929 . S
H286 C283 0.930 . S
H287 C275 0.929 . S
H288 C277 0.929 . S
O289 Co264 2.351 . S
O289 C292 1.244 . S
O290 Co264 2.155 . S
O290 C292 1.240 . S
O291 Co264 2.096 . S
O291 C272 1.247 . S
C292 O289 1.244 . S
C292 O290 1.240 . S
H293 C267 0.931 . S
H294 C276 0.931 . S
H295 C280 0.929 . S
H296 C282 0.930 1_554 S
Co297 N301 2.148 . S
Co297 N307 2.128 . S
Co297 N317 2.194 . S
Co297 O322 2.351 . S
Co297 O323 2.155 . S
Co297 O324 2.096 . S
C298 N301 1.301 . S
C298 N302 1.328 . S
C298 H303 0.930 . S
C299 C300 1.333 . S
C299 N301 1.317 . S
C299 H304 0.930 . S
C300 C299 1.333 . S
C300 N302 1.350 . S
C300 H326 0.931 . S
N301 Co297 2.148 . S
N301 C298 1.301 . S
N301 C299 1.317 . S
N302 C298 1.328 . S
N302 C300 1.350 . S
H303 C298 0.930 . S
H304 C299 0.930 . S
C305 O306 1.224 . S
C305 O324 1.247 . S
O306 C305 1.224 . S
N307 Co297 2.128 . S
N307 C308 1.355 . S
N307 C310 1.311 . S
C308 N307 1.355 . S
C308 C309 1.363 . S
C308 H320 0.929 . S
C309 C308 1.363 . S
C309 N311 1.375 . S
C309 H327 0.931 . S
C310 N307 1.311 . S
C310 N311 1.347 . S
C310 H321 0.929 . S
N311 C309 1.375 . S
N311 C310 1.347 . S
C312 C315 1.365 . S
C312 N317 1.328 . S
C312 H318 0.929 . S
C313 C314 1.362 . S
C313 C316 1.378 . S
C313 H328 0.929 . S
C314 C313 1.362 . S
C314 C315 1.366 . S
C315 C312 1.365 . S
C315 C314 1.366 . S
C315 H329 0.930 . S
C316 C313 1.378 . S
C316 N317 1.315 . S
C316 H319 0.930 . S
N317 Co297 2.194 . S
N317 C312 1.328 . S
N317 C316 1.315 . S
H318 C312 0.929 . S
H319 C316 0.930 . S
H320 C308 0.929 . S
H321 C310 0.929 . S
O322 Co297 2.351 . S
O322 C325 1.244 . S
O323 Co297 2.155 . S
O323 C325 1.240 . S
O324 Co297 2.096 . S
O324 C305 1.247 . S
C325 O322 1.244 . S
C325 O323 1.240 . S
H326 C300 0.931 . S
H327 C309 0.931 . S
H328 C313 0.929 . S
H329 C315 0.930 . S
Co330 N334 2.148 . S
Co330 N340 2.128 . S
Co330 N350 2.194 . S
Co330 O355 2.351 . S
Co330 O356 2.155 . S
Co330 O357 2.096 . S
C331 N334 1.301 . S
C331 N335 1.328 . S
C331 H336 0.930 . S
C332 C333 1.333 . S
C332 N334 1.317 . S
C332 H337 0.930 . S
C333 C332 1.333 . S
C333 N335 1.350 . S
C333 H359 0.931 . S
N334 Co330 2.148 . S
N334 C331 1.301 . S
N334 C332 1.317 . S
N335 C331 1.328 . S
N335 C333 1.350 . S
H336 C331 0.930 . S
H337 C332 0.930 . S
C338 O339 1.224 . S
C338 O357 1.247 . S
O339 C338 1.224 . S
N340 Co330 2.128 . S
N340 C341 1.355 . S
N340 C343 1.311 . S
C341 N340 1.355 . S
C341 C342 1.363 . S
C341 H353 0.929 . S
C342 C341 1.363 . S
C342 N344 1.375 . S
C342 H360 0.931 . S
C343 N340 1.311 . S
C343 N344 1.347 . S
C343 H354 0.929 . S
N344 C342 1.375 . S
N344 C343 1.347 . S
C345 C348 1.365 . S
C345 N350 1.328 . S
C345 H351 0.929 . S
C346 C347 1.362 . S
C346 C349 1.378 . S
C346 H361 0.929 . S
C347 C346 1.362 . S
C347 C348 1.366 . S
C348 C345 1.365 . S
C348 C347 1.366 . S
C348 H362 0.930 . S
C349 C346 1.378 . S
C349 N350 1.315 . S
C349 H352 0.930 . S
N350 Co330 2.194 . S
N350 C345 1.328 . S
N350 C349 1.315 . S
H351 C345 0.929 . S
H352 C349 0.930 . S
H353 C341 0.929 . S
H354 C343 0.929 . S
O355 Co330 2.351 . S
O355 C358 1.244 . S
O356 Co330 2.155 . S
O356 C358 1.240 . S
O357 Co330 2.096 . S
O357 C338 1.247 . S
C358 O355 1.244 . S
C358 O356 1.240 . S
H359 C333 0.931 . S
H360 C342 0.931 . S
H361 C346 0.929 . S
H362 C348 0.930 . S
Co363 N367 2.148 . S
Co363 N373 2.128 . S
Co363 N383 2.194 . S
Co363 O388 2.351 . S
Co363 O389 2.155 . S
Co363 O390 2.096 . S
C364 N367 1.301 . S
C364 N368 1.328 . S
C364 H369 0.930 . S
C365 C366 1.333 . S
C365 N367 1.317 . S
C365 H370 0.930 . S
C366 C365 1.333 . S
C366 N368 1.350 . S
C366 H392 0.931 . S
N367 Co363 2.148 . S
N367 C364 1.301 . S
N367 C365 1.317 . S
N368 C364 1.328 . S
N368 C366 1.350 . S
H369 C364 0.930 . S
H370 C365 0.930 . S
C371 O372 1.224 . S
C371 O390 1.247 . S
O372 C371 1.224 . S
N373 Co363 2.128 . S
N373 C374 1.355 . S
N373 C376 1.311 . S
C374 N373 1.355 . S
C374 C375 1.363 . S
C374 H386 0.929 . S
C375 C374 1.363 . S
C375 N377 1.375 . S
C375 H393 0.931 . S
C376 N373 1.311 . S
C376 N377 1.347 . S
C376 H387 0.929 . S
N377 C375 1.375 . S
N377 C376 1.347 . S
C378 C381 1.365 . S
C378 N383 1.328 . S
C378 H384 0.929 . S
C379 C380 1.362 . S
C379 C382 1.378 . S
C379 H394 0.929 . S
C380 C379 1.362 . S
C380 C381 1.366 . S
C381 C378 1.365 . S
C381 C380 1.366 . S
C381 H395 0.930 . S
C382 C379 1.378 . S
C382 N383 1.315 . S
C382 H385 0.930 . S
N383 Co363 2.194 . S
N383 C378 1.328 . S
N383 C382 1.315 . S
H384 C378 0.929 . S
H385 C382 0.930 . S
H386 C374 0.929 . S
H387 C376 0.929 . S
O388 Co363 2.351 . S
O388 C391 1.244 . S
O389 Co363 2.155 . S
O389 C391 1.240 . S
O390 Co363 2.096 . S
O390 C371 1.247 . S
C391 O388 1.244 . S
C391 O389 1.240 . S
H392 C366 0.931 . S
H393 C375 0.931 . S
H394 C379 0.929 . S
H395 C381 0.930 . S
H396 C408 0.930 . S
H397 C410 0.930 . S
H398 C411 0.930 . S
H399 C415 0.959 . S
H400 C415 0.959 . S
H401 C415 0.961 . S
H402 C416 0.960 . S
H403 C416 0.961 . S
H404 C416 0.959 . S
H405 C419 0.929 . S
H406 C420 0.931 . S
H407 C422 0.930 . S
C408 H396 0.930 . S
C408 C409 1.399 . S
C408 C413 1.399 . S
C409 C408 1.399 . S
C409 C410 1.376 . S
C410 H397 0.930 . S
C410 C409 1.376 . S
C410 C411 1.388 . S
C411 H398 0.930 . S
C411 C410 1.388 . S
C411 C412 1.390 . S
C412 C411 1.390 . S
C412 C413 1.394 . S
C412 C418 1.465 . S
C413 C408 1.399 . S
C413 C412 1.394 . S
C413 C414 1.516 . S
C414 C413 1.516 . S
C414 C415 1.502 . S
C414 C416 1.561 . S
C414 C417 1.526 . S
C415 H399 0.959 . S
C415 H400 0.959 . S
C415 H401 0.961 . S
C415 C414 1.502 . S
C416 H402 0.960 . S
C416 H403 0.961 . S
C416 H404 0.959 . S
C416 C414 1.561 . S
C417 C414 1.526 . S
C417 C418 1.396 . S
C417 C422 1.390 . S
C418 C412 1.465 . S
C418 C417 1.396 . S
C418 C419 1.399 . S
C419 H405 0.929 . S
C419 C418 1.399 . S
C419 C420 1.385 . S
C420 H406 0.931 . S
C420 C419 1.385 . S
C420 C421 1.389 . S
C421 C420 1.389 . S
C421 C422 1.387 . S
C422 H407 0.930 . S
C422 C417 1.390 . S
C422 C421 1.387 . S
H423 C435 0.930 . S
H424 C437 0.930 . S
H425 C438 0.930 . S
H426 C442 0.959 . S
H427 C442 0.959 . S
H428 C442 0.961 . S
H429 C443 0.960 . S
H430 C443 0.961 . S
H431 C443 0.959 . S
H432 C446 0.929 . S
H433 C447 0.931 . S
H434 C449 0.930 . S
C435 H423 0.930 . S
C435 C436 1.399 . S
C435 C440 1.399 . S
C436 C435 1.399 . S
C436 C437 1.376 . S
C437 H424 0.930 . S
C437 C436 1.376 . S
C437 C438 1.388 . S
C438 H425 0.930 . S
C438 C437 1.388 . S
C438 C439 1.390 . S
C439 C438 1.390 . S
C439 C440 1.394 . S
C439 C445 1.465 . S
C440 C435 1.399 . S
C440 C439 1.394 . S
C440 C441 1.516 . S
C441 C440 1.516 . S
C441 C442 1.502 . S
C441 C443 1.561 . S
C441 C444 1.526 . S
C442 H426 0.959 . S
C442 H427 0.959 . S
C442 H428 0.961 . S
C442 C441 1.502 . S
C443 H429 0.960 . S
C443 H430 0.961 . S
C443 H431 0.959 . S
C443 C441 1.561 . S
C444 C441 1.526 . S
C444 C445 1.396 . S
C444 C449 1.390 . S
C445 C439 1.465 . S
C445 C444 1.396 . S
C445 C446 1.399 . S
C446 H432 0.929 . S
C446 C445 1.399 . S
C446 C447 1.385 . S
C447 H433 0.931 . S
C447 C446 1.385 . S
C447 C448 1.389 . S
C448 C447 1.389 . S
C448 C449 1.387 . S
C449 H434 0.930 . S
C449 C444 1.390 . S
C449 C448 1.387 . S
H450 C462 0.930 . S
H451 C464 0.930 . S
H452 C465 0.930 . S
H453 C469 0.959 . S
H454 C469 0.959 . S
H455 C469 0.961 . S
H456 C470 0.960 . S
H457 C470 0.961 . S
H458 C470 0.959 . S
H459 C473 0.929 . S
H460 C474 0.931 . S
H461 C476 0.930 . S
C462 H450 0.930 . S
C462 C463 1.399 . S
C462 C467 1.399 . S
C463 C462 1.399 . S
C463 C464 1.376 . S
C464 H451 0.930 . S
C464 C463 1.376 . S
C464 C465 1.388 . S
C465 H452 0.930 . S
C465 C464 1.388 . S
C465 C466 1.390 . S
C466 C465 1.390 . S
C466 C467 1.394 . S
C466 C472 1.465 . S
C467 C462 1.399 . S
C467 C466 1.394 . S
C467 C468 1.516 . S
C468 C467 1.516 . S
C468 C469 1.502 . S
C468 C470 1.561 . S
C468 C471 1.526 . S
C469 H453 0.959 . S
C469 H454 0.959 . S
C469 H455 0.961 . S
C469 C468 1.502 . S
C470 H456 0.960 . S
C470 H457 0.961 . S
C470 H458 0.959 . S
C470 C468 1.561 . S
C471 C468 1.526 . S
C471 C472 1.396 . S
C471 C476 1.390 . S
C472 C466 1.465 . S
C472 C471 1.396 . S
C472 C473 1.399 . S
C473 H459 0.929 . S
C473 C472 1.399 . S
C473 C474 1.385 . S
C474 H460 0.931 . S
C474 C473 1.385 . S
C474 C475 1.389 . S
C475 C474 1.389 . S
C475 C476 1.387 . S
C476 H461 0.930 . S
C476 C471 1.390 . S
C476 C475 1.387 . S
H477 C489 0.930 . S
H478 C491 0.930 . S
H479 C492 0.930 . S
H480 C496 0.959 . S
H481 C496 0.959 . S
H482 C496 0.961 . S
H483 C497 0.960 . S
H484 C497 0.961 . S
H485 C497 0.959 . S
H486 C500 0.929 . S
H487 C501 0.931 . S
H488 C503 0.930 . S
C489 H477 0.930 . S
C489 C490 1.399 . S
C489 C494 1.399 . S
C490 C489 1.399 . S
C490 C491 1.376 . S
C491 H478 0.930 . S
C491 C490 1.376 . S
C491 C492 1.388 . S
C492 H479 0.930 . S
C492 C491 1.388 . S
C492 C493 1.390 . S
C493 C492 1.390 . S
C493 C494 1.394 . S
C493 C499 1.465 . S
C494 C489 1.399 . S
C494 C493 1.394 . S
C494 C495 1.516 . S
C495 C494 1.516 . S
C495 C496 1.502 . S
C495 C497 1.561 . S
C495 C498 1.526 . S
C496 H480 0.959 . S
C496 H481 0.959 . S
C496 H482 0.961 . S
C496 C495 1.502 . S
C497 H483 0.960 . S
C497 H484 0.961 . S
C497 H485 0.959 . S
C497 C495 1.561 . S
C498 C495 1.526 . S
C498 C499 1.396 . S
C498 C503 1.390 . S
C499 C493 1.465 . S
C499 C498 1.396 . S
C499 C500 1.399 . S
C500 H486 0.929 . S
C500 C499 1.399 . S
C500 C501 1.385 . S
C501 H487 0.931 . S
C501 C500 1.385 . S
C501 C502 1.389 . S
C502 C501 1.389 . S
C502 C503 1.387 . S
C503 H488 0.930 . S
C503 C498 1.390 . S
C503 C502 1.387 . S
H504 C516 0.930 . S
H505 C518 0.930 . S
H506 C519 0.930 . S
H507 C523 0.959 . S
H508 C523 0.959 . S
H509 C523 0.961 . S
H510 C524 0.960 . S
H511 C524 0.961 . S
H512 C524 0.959 . S
H513 C527 0.929 . S
H514 C528 0.931 . S
H515 C530 0.930 . S
C516 H504 0.930 . S
C516 C517 1.399 . S
C516 C521 1.399 . S
C517 C516 1.399 . S
C517 C518 1.376 . S
C518 H505 0.930 . S
C518 C517 1.376 . S
C518 C519 1.388 . S
C519 H506 0.930 . S
C519 C518 1.388 . S
C519 C520 1.390 . S
C520 C519 1.390 . S
C520 C521 1.394 . S
C520 C526 1.465 . S
C521 C516 1.399 . S
C521 C520 1.394 . S
C521 C522 1.516 . S
C522 C521 1.516 . S
C522 C523 1.502 . S
C522 C524 1.561 . S
C522 C525 1.526 . S
C523 H507 0.959 . S
C523 H508 0.959 . S
C523 H509 0.961 . S
C523 C522 1.502 . S
C524 H510 0.960 . S
C524 H511 0.961 . S
C524 H512 0.959 . S
C524 C522 1.561 . S
C525 C522 1.526 . S
C525 C526 1.396 . S
C525 C530 1.390 . S
C526 C520 1.465 . S
C526 C525 1.396 . S
C526 C527 1.399 . S
C527 H513 0.929 . S
C527 C526 1.399 . S
C527 C528 1.385 . S
C528 H514 0.931 . S
C528 C527 1.385 . S
C528 C529 1.389 . S
C529 C528 1.389 . S
C529 C530 1.387 . S
C530 H515 0.930 . S
C530 C525 1.390 . S
C530 C529 1.387 . S
H531 C543 0.930 . S
H532 C545 0.930 . S
H533 C546 0.930 . S
H534 C550 0.959 . S
H535 C550 0.959 . S
H536 C550 0.961 . S
H537 C551 0.960 . S
H538 C551 0.961 . S
H539 C551 0.959 . S
H540 C554 0.929 . S
H541 C555 0.931 . S
H542 C557 0.930 . S
C543 H531 0.930 . S
C543 C544 1.399 . S
C543 C548 1.399 . S
C544 C543 1.399 . S
C544 C545 1.376 . S
C545 H532 0.930 . S
C545 C544 1.376 . S
C545 C546 1.388 . S
C546 H533 0.930 . S
C546 C545 1.388 . S
C546 C547 1.390 . S
C547 C546 1.390 . S
C547 C548 1.394 . S
C547 C553 1.465 . S
C548 C543 1.399 . S
C548 C547 1.394 . S
C548 C549 1.516 . S
C549 C548 1.516 . S
C549 C550 1.502 . S
C549 C551 1.561 . S
C549 C552 1.526 . S
C550 H534 0.959 . S
C550 H535 0.959 . S
C550 H536 0.961 . S
C550 C549 1.502 . S
C551 H537 0.960 . S
C551 H538 0.961 . S
C551 H539 0.959 . S
C551 C549 1.561 . S
C552 C549 1.526 . S
C552 C553 1.396 . S
C552 C557 1.390 . S
C553 C547 1.465 . S
C553 C552 1.396 . S
C553 C554 1.399 . S
C554 H540 0.929 . S
C554 C553 1.399 . S
C554 C555 1.385 . S
C555 H541 0.931 . S
C555 C554 1.385 . S
C555 C556 1.389 . S
C556 C555 1.389 . S
C556 C557 1.387 . S
C557 H542 0.930 . S
C557 C552 1.390 . S
C557 C556 1.387 . S
H558 C570 0.930 . S
H559 C572 0.930 . S
H560 C573 0.930 . S
H561 C577 0.959 . S
H562 C577 0.959 . S
H563 C577 0.961 . S
H564 C578 0.960 . S
H565 C578 0.961 . S
H566 C578 0.959 . S
H567 C581 0.929 . S
H568 C582 0.931 . S
H569 C584 0.930 . S
C570 H558 0.930 . S
C570 C571 1.399 . S
C570 C575 1.399 . S
C571 C570 1.399 . S
C571 C572 1.376 1_554 S
C572 H559 0.930 . S
C572 C571 1.376 1_556 S
C572 C573 1.388 . S
C573 H560 0.930 . S
C573 C572 1.388 . S
C573 C574 1.390 . S
C574 C573 1.390 . S
C574 C575 1.394 1_556 S
C574 C580 1.465 1_545 S
C575 C570 1.399 . S
C575 C574 1.394 1_554 S
C575 C576 1.516 1_545 S
C576 C575 1.516 1_565 S
C576 C577 1.502 1_565 S
C576 C578 1.561 . S
C576 C579 1.526 . S
C577 H561 0.959 . S
C577 H562 0.959 . S
C577 H563 0.961 . S
C577 C576 1.502 1_545 S
C578 H564 0.960 . S
C578 H565 0.961 . S
C578 H566 0.959 . S
C578 C576 1.561 . S
C579 C576 1.526 . S
C579 C580 1.396 1_554 S
C579 C584 1.390 . S
C580 C574 1.465 1_565 S
C580 C579 1.396 1_556 S
C580 C581 1.399 . S
C581 H567 0.929 . S
C581 C580 1.399 . S
C581 C582 1.385 . S
C582 H568 0.931 . S
C582 C581 1.385 . S
C582 C583 1.389 . S
C583 C582 1.389 . S
C583 C584 1.387 1_556 S
C584 H569 0.930 . S
C584 C579 1.390 . S
C584 C583 1.387 1_554 S
H585 C597 0.930 . S
H586 C599 0.930 . S
H587 C600 0.930 1_455 S
H588 C604 0.959 . S
H589 C604 0.959 . S
H590 C604 0.961 . S
H591 C605 0.960 1_655 S
H592 C605 0.961 . S
H593 C605 0.959 . S
H594 C608 0.929 . S
H595 C609 0.931 . S
H596 C611 0.930 . S
C597 H585 0.930 . S
C597 C598 1.399 . S
C597 C602 1.399 . S
C598 C597 1.399 . S
C598 C599 1.376 1_554 S
C599 H586 0.930 . S
C599 C598 1.376 1_556 S
C599 C600 1.388 . S
C600 H587 0.930 1_655 S
C600 C599 1.388 . S
C600 C601 1.390 . S
C601 C600 1.390 . S
C601 C602 1.394 1_556 S
C601 C607 1.465 1_655 S
C602 C597 1.399 . S
C602 C601 1.394 1_554 S
C602 C603 1.516 . S
C603 C602 1.516 . S
C603 C604 1.502 . S
C603 C605 1.561 1_655 S
C603 C606 1.526 1_655 S
C604 H588 0.959 . S
C604 H589 0.959 . S
C604 H590 0.961 . S
C604 C603 1.502 . S
C605 H591 0.960 1_455 S
C605 H592 0.961 . S
C605 H593 0.959 . S
C605 C603 1.561 1_455 S
C606 C603 1.526 1_455 S
C606 C607 1.396 1_554 S
C606 C611 1.390 . S
C607 C601 1.465 1_455 S
C607 C606 1.396 1_556 S
C607 C608 1.399 . S
C608 H594 0.929 . S
C608 C607 1.399 . S
C608 C609 1.385 . S
C609 H595 0.931 . S
C609 C608 1.385 . S
C609 C610 1.389 . S
C610 C609 1.389 . S
C610 C611 1.387 1_556 S
C611 H596 0.930 . S
C611 C606 1.390 . S
C611 C610 1.387 1_554 S
H612 C624 0.930 . S
H613 C626 0.930 . S
H614 C627 0.930 . S
H615 C631 0.959 . S
H616 C631 0.959 . S
H617 C631 0.961 . S
H618 C632 0.960 . S
H619 C632 0.961 . S
H620 C632 0.959 . S
H621 C635 0.929 . S
H622 C636 0.931 . S
H623 C638 0.930 . S
C624 H612 0.930 . S
C624 C625 1.399 . S
C624 C629 1.399 . S
C625 C624 1.399 . S
C625 C626 1.376 1_556 S
C626 H613 0.930 . S
C626 C625 1.376 1_554 S
C626 C627 1.388 . S
C627 H614 0.930 . S
C627 C626 1.388 . S
C627 C628 1.390 . S
C628 C627 1.390 . S
C628 C629 1.394 1_554 S
C628 C634 1.465 . S
C629 C624 1.399 . S
C629 C628 1.394 1_556 S
C629 C630 1.516 . S
C630 C629 1.516 . S
C630 C631 1.502 . S
C630 C632 1.561 . S
C630 C633 1.526 . S
C631 H615 0.959 . S
C631 H616 0.959 . S
C631 H617 0.961 . S
C631 C630 1.502 . S
C632 H618 0.960 . S
C632 H619 0.961 . S
C632 H620 0.959 . S
C632 C630 1.561 . S
C633 C630 1.526 . S
C633 C634 1.396 1_556 S
C633 C638 1.390 . S
C634 C628 1.465 . S
C634 C633 1.396 1_554 S
C634 C635 1.399 . S
C635 H621 0.929 . S
C635 C634 1.399 . S
C635 C636 1.385 . S
C636 H622 0.931 . S
C636 C635 1.385 . S
C636 C637 1.389 . S
C637 C636 1.389 . S
C637 C638 1.387 1_554 S
C638 H623 0.930 . S
C638 C633 1.390 . S
C638 C637 1.387 1_556 S
H639 C651 0.930 . S
H640 C653 0.930 . S
H641 C654 0.930 . S
H642 C658 0.959 . S
H643 C658 0.959 . S
H644 C658 0.961 . S
H645 C659 0.960 . S
H646 C659 0.961 . S
H647 C659 0.959 . S
H648 C662 0.929 1_455 S
H649 C663 0.931 . S
H650 C665 0.930 . S
C651 H639 0.930 . S
C651 C652 1.399 . S
C651 C656 1.399 . S
C652 C651 1.399 . S
C652 C653 1.376 . S
C653 H640 0.930 . S
C653 C652 1.376 . S
C653 C654 1.388 . S
C654 H641 0.930 . S
C654 C653 1.388 . S
C654 C655 1.390 . S
C655 C654 1.390 . S
C655 C656 1.394 . S
C655 C661 1.465 1_455 S
C656 C651 1.399 . S
C656 C655 1.394 . S
C656 C657 1.516 1_455 S
C657 C656 1.516 1_655 S
C657 C658 1.502 . S
C657 C659 1.561 1_655 S
C657 C660 1.526 . S
C658 H642 0.959 . S
C658 H643 0.959 . S
C658 H644 0.961 . S
C658 C657 1.502 . S
C659 H645 0.960 . S
C659 H646 0.961 . S
C659 H647 0.959 . S
C659 C657 1.561 1_455 S
C660 C657 1.526 . S
C660 C661 1.396 . S
C660 C665 1.390 . S
C661 C655 1.465 1_655 S
C661 C660 1.396 . S
C661 C662 1.399 . S
C662 H648 0.929 1_655 S
C662 C661 1.399 . S
C662 C663 1.385 . S
C663 H649 0.931 . S
C663 C662 1.385 . S
C663 C664 1.389 . S
C664 C663 1.389 . S
C664 C665 1.387 . S
C665 H650 0.930 . S
C665 C660 1.390 . S
C665 C664 1.387 . S
H666 C678 0.930 . S
H667 C680 0.930 . S
H668 C681 0.930 . S
H669 C685 0.959 . S
H670 C685 0.959 . S
H671 C685 0.961 . S
H672 C686 0.960 . S
H673 C686 0.961 . S
H674 C686 0.959 . S
H675 C689 0.929 . S
H676 C690 0.931 . S
H677 C692 0.930 . S
C678 H666 0.930 . S
C678 C679 1.399 . S
C678 C683 1.399 . S
C679 C678 1.399 . S
C679 C680 1.376 . S
C680 H667 0.930 . S
C680 C679 1.376 . S
C680 C681 1.388 . S
C681 H668 0.930 . S
C681 C680 1.388 . S
C681 C682 1.390 . S
C682 C681 1.390 . S
C682 C683 1.394 . S
C682 C688 1.465 . S
C683 C678 1.399 . S
C683 C682 1.394 . S
C683 C684 1.516 . S
C684 C683 1.516 . S
C684 C685 1.502 . S
C684 C686 1.561 . S
C684 C687 1.526 . S
C685 H669 0.959 . S
C685 H670 0.959 . S
C685 H671 0.961 . S
C685 C684 1.502 . S
C686 H672 0.960 . S
C686 H673 0.961 . S
C686 H674 0.959 . S
C686 C684 1.561 . S
C687 C684 1.526 . S
C687 C688 1.396 . S
C687 C692 1.390 . S
C688 C682 1.465 . S
C688 C687 1.396 . S
C688 C689 1.399 . S
C689 H675 0.929 . S
C689 C688 1.399 . S
C689 C690 1.385 . S
C690 H676 0.931 . S
C690 C689 1.385 . S
C690 C691 1.389 . S
C691 C690 1.389 . S
C691 C692 1.387 . S
C692 H677 0.930 . S
C692 C687 1.390 . S
C692 C691 1.387 . S
H693 C705 0.930 . S
H694 C707 0.930 . S
H695 C708 0.930 . S
H696 C712 0.959 . S
H697 C712 0.959 . S
H698 C712 0.961 . S
H699 C713 0.960 . S
H700 C713 0.961 . S
H701 C713 0.959 . S
H702 C716 0.929 . S
H703 C717 0.931 . S
H704 C719 0.930 . S
C705 H693 0.930 . S
C705 C706 1.399 . S
C705 C710 1.399 . S
C706 C705 1.399 . S
C706 C707 1.376 . S
C707 H694 0.930 . S
C707 C706 1.376 . S
C707 C708 1.388 . S
C708 H695 0.930 . S
C708 C707 1.388 . S
C708 C709 1.390 . S
C709 C708 1.390 . S
C709 C710 1.394 . S
C709 C715 1.465 1_545 S
C710 C705 1.399 . S
C710 C709 1.394 . S
C710 C711 1.516 . S
C711 C710 1.516 . S
C711 C712 1.502 1_545 S
C711 C713 1.561 . S
C711 C714 1.526 1_545 S
C712 H696 0.959 . S
C712 H697 0.959 . S
C712 H698 0.961 . S
C712 C711 1.502 1_565 S
C713 H699 0.960 . S
C713 H700 0.961 . S
C713 H701 0.959 . S
C713 C711 1.561 . S
C714 C711 1.526 1_565 S
C714 C715 1.396 . S
C714 C719 1.390 . S
C715 C709 1.465 1_565 S
C715 C714 1.396 . S
C715 C716 1.399 . S
C716 H702 0.929 . S
C716 C715 1.399 . S
C716 C717 1.385 . S
C717 H703 0.931 . S
C717 C716 1.385 . S
C717 C718 1.389 . S
C718 C717 1.389 . S
C718 C719 1.387 . S
C719 H704 0.930 . S
C719 C714 1.390 . S
C719 C718 1.387 . S
H720 C732 0.930 . S
H721 C734 0.930 . S
H722 C735 0.930 . S
H723 C739 0.959 . S
H724 C739 0.959 . S
H725 C739 0.961 . S
H726 C740 0.960 . S
H727 C740 0.961 . S
H728 C740 0.959 . S
H729 C743 0.929 . S
H730 C744 0.931 . S
H731 C746 0.930 . S
C732 H720 0.930 . S
C732 C733 1.399 . S
C732 C737 1.399 . S
C733 C732 1.399 . S
C733 C734 1.376 . S
C734 H721 0.930 . S
C734 C733 1.376 . S
C734 C735 1.388 . S
C735 H722 0.930 . S
C735 C734 1.388 . S
C735 C736 1.390 . S
C736 C735 1.390 . S
C736 C737 1.394 . S
C736 C742 1.465 . S
C737 C732 1.399 . S
C737 C736 1.394 . S
C737 C738 1.516 . S
C738 C737 1.516 . S
C738 C739 1.502 . S
C738 C740 1.561 . S
C738 C741 1.526 . S
C739 H723 0.959 . S
C739 H724 0.959 . S
C739 H725 0.961 . S
C739 C738 1.502 . S
C740 H726 0.960 . S
C740 H727 0.961 . S
C740 H728 0.959 . S
C740 C738 1.561 . S
C741 C738 1.526 . S
C741 C742 1.396 . S
C741 C746 1.390 . S
C742 C736 1.465 . S
C742 C741 1.396 . S
C742 C743 1.399 . S
C743 H729 0.929 . S
C743 C742 1.399 . S
C743 C744 1.385 . S
C744 H730 0.931 . S
C744 C743 1.385 . S
C744 C745 1.389 . S
C745 C744 1.389 . S
C745 C746 1.387 . S
C746 H731 0.930 . S
C746 C741 1.390 . S
C746 C745 1.387 . S
H747 C759 0.930 . S
H748 C761 0.930 . S
H749 C762 0.930 . S
H750 C766 0.959 . S
H751 C766 0.959 . S
H752 C766 0.961 . S
H753 C767 0.960 . S
H754 C767 0.961 . S
H755 C767 0.959 . S
H756 C770 0.929 . S
H757 C771 0.931 . S
H758 C773 0.930 . S
C759 H747 0.930 . S
C759 C760 1.399 . S
C759 C764 1.399 . S
C760 C759 1.399 . S
C760 C761 1.376 . S
C761 H748 0.930 . S
C761 C760 1.376 . S
C761 C762 1.388 . S
C762 H749 0.930 . S
C762 C761 1.388 . S
C762 C763 1.390 . S
C763 C762 1.390 . S
C763 C764 1.394 . S
C763 C769 1.465 . S
C764 C759 1.399 . S
C764 C763 1.394 . S
C764 C765 1.516 . S
C765 C764 1.516 . S
C765 C766 1.502 . S
C765 C767 1.561 . S
C765 C768 1.526 . S
C766 H750 0.959 . S
C766 H751 0.959 . S
C766 H752 0.961 . S
C766 C765 1.502 . S
C767 H753 0.960 . S
C767 H754 0.961 . S
C767 H755 0.959 . S
C767 C765 1.561 . S
C768 C765 1.526 . S
C768 C769 1.396 . S
C768 C773 1.390 . S
C769 C763 1.465 . S
C769 C768 1.396 . S
C769 C770 1.399 . S
C770 H756 0.929 . S
C770 C769 1.399 . S
C770 C771 1.385 . S
C771 H757 0.931 . S
C771 C770 1.385 . S
C771 C772 1.389 . S
C772 C771 1.389 . S
C772 C773 1.387 . S
C773 H758 0.930 . S
C773 C768 1.390 . S
C773 C772 1.387 . S
H774 C786 0.930 . S
H775 C788 0.930 . S
H776 C789 0.930 . S
H777 C793 0.959 . S
H778 C793 0.959 . S
H779 C793 0.961 . S
H780 C794 0.960 . S
H781 C794 0.961 . S
H782 C794 0.959 . S
H783 C797 0.929 . S
H784 C798 0.931 . S
H785 C800 0.930 . S
C786 H774 0.930 . S
C786 C787 1.399 . S
C786 C791 1.399 . S
C787 C786 1.399 . S
C787 C788 1.376 . S
C788 H775 0.930 . S
C788 C787 1.376 . S
C788 C789 1.388 . S
C789 H776 0.930 . S
C789 C788 1.388 . S
C789 C790 1.390 . S
C790 C789 1.390 . S
C790 C791 1.394 . S
C790 C796 1.465 . S
C791 C786 1.399 . S
C791 C790 1.394 . S
C791 C792 1.516 . S
C792 C791 1.516 . S
C792 C793 1.502 . S
C792 C794 1.561 . S
C792 C795 1.526 . S
C793 H777 0.959 . S
C793 H778 0.959 . S
C793 H779 0.961 . S
C793 C792 1.502 . S
C794 H780 0.960 . S
C794 H781 0.961 . S
C794 H782 0.959 . S
C794 C792 1.561 . S
C795 C792 1.526 . S
C795 C796 1.396 . S
C795 C800 1.390 . S
C796 C790 1.465 . S
C796 C795 1.396 . S
C796 C797 1.399 . S
C797 H783 0.929 . S
C797 C796 1.399 . S
C797 C798 1.385 . S
C798 H784 0.931 . S
C798 C797 1.385 . S
C798 C799 1.389 . S
C799 C798 1.389 . S
C799 C800 1.387 . S
C800 H785 0.930 . S
C800 C795 1.390 . S
C800 C799 1.387 . S
H801 C813 0.930 . S
H802 C815 0.930 . S
H803 C816 0.930 . S
H804 C820 0.959 . S
H805 C820 0.959 . S
H806 C820 0.961 . S
H807 C821 0.960 . S
H808 C821 0.961 . S
H809 C821 0.959 . S
H810 C824 0.929 . S
H811 C825 0.931 . S
H812 C827 0.930 . S
C813 H801 0.930 . S
C813 C814 1.399 . S
C813 C818 1.399 . S
C814 C813 1.399 . S
C814 C815 1.376 . S
C815 H802 0.930 . S
C815 C814 1.376 . S
C815 C816 1.388 . S
C816 H803 0.930 . S
C816 C815 1.388 . S
C816 C817 1.390 . S
C817 C816 1.390 . S
C817 C818 1.394 . S
C817 C823 1.465 . S
C818 C813 1.399 . S
C818 C817 1.394 . S
C818 C819 1.516 . S
C819 C818 1.516 . S
C819 C820 1.502 . S
C819 C821 1.561 . S
C819 C822 1.526 . S
C820 H804 0.959 . S
C820 H805 0.959 . S
C820 H806 0.961 . S
C820 C819 1.502 . S
C821 H807 0.960 . S
C821 H808 0.961 . S
C821 H809 0.959 . S
C821 C819 1.561 . S
C822 C819 1.526 . S
C822 C823 1.396 . S
C822 C827 1.390 . S
C823 C817 1.465 . S
C823 C822 1.396 . S
C823 C824 1.399 . S
C824 H810 0.929 . S
C824 C823 1.399 . S
C824 C825 1.385 . S
C825 H811 0.931 . S
C825 C824 1.385 . S
C825 C826 1.389 . S
C826 C825 1.389 . S
C826 C827 1.387 . S
C827 H812 0.930 . S
C827 C822 1.390 . S
C827 C826 1.387 . S
H828 C840 0.930 . S
H829 C842 0.930 . S
H830 C843 0.930 . S
H831 C847 0.959 . S
H832 C847 0.959 . S
H833 C847 0.961 . S
H834 C848 0.960 . S
H835 C848 0.961 . S
H836 C848 0.959 . S
H837 C851 0.929 . S
H838 C852 0.931 . S
H839 C854 0.930 . S
C840 H828 0.930 . S
C840 C841 1.399 . S
C840 C845 1.399 . S
C841 C840 1.399 . S
C841 C842 1.376 . S
C842 H829 0.930 . S
C842 C841 1.376 . S
C842 C843 1.388 . S
C843 H830 0.930 . S
C843 C842 1.388 . S
C843 C844 1.390 . S
C844 C843 1.390 . S
C844 C845 1.394 . S
C844 C850 1.465 . S
C845 C840 1.399 . S
C845 C844 1.394 . S
C845 C846 1.516 . S
C846 C845 1.516 . S
C846 C847 1.502 . S
C846 C848 1.561 . S
C846 C849 1.526 . S
C847 H831 0.959 . S
C847 H832 0.959 . S
C847 H833 0.961 . S
C847 C846 1.502 . S
C848 H834 0.960 . S
C848 H835 0.961 . S
C848 H836 0.959 . S
C848 C846 1.561 . S
C849 C846 1.526 . S
C849 C850 1.396 . S
C849 C854 1.390 . S
C850 C844 1.465 . S
C850 C849 1.396 . S
C850 C851 1.399 . S
C851 H837 0.929 . S
C851 C850 1.399 . S
C851 C852 1.385 . S
C852 H838 0.931 . S
C852 C851 1.385 . S
C852 C853 1.389 . S
C853 C852 1.389 . S
C853 C854 1.387 . S
C854 H839 0.930 . S
C854 C849 1.390 . S
C854 C853 1.387 . S
H855 C867 0.930 . S
H856 C869 0.930 . S
H857 C870 0.930 . S
H858 C874 0.959 . S
H859 C874 0.959 . S
H860 C874 0.961 . S
H861 C875 0.960 . S
H862 C875 0.961 . S
H863 C875 0.959 . S
H864 C878 0.929 . S
H865 C879 0.931 . S
H866 C881 0.930 . S
C867 H855 0.930 . S
C867 C868 1.399 . S
C867 C872 1.399 . S
C868 C867 1.399 . S
C868 C869 1.376 . S
C869 H856 0.930 . S
C869 C868 1.376 . S
C869 C870 1.388 . S
C870 H857 0.930 . S
C870 C869 1.388 . S
C870 C871 1.390 . S
C871 C870 1.390 . S
C871 C872 1.394 . S
C871 C877 1.465 . S
C872 C867 1.399 . S
C872 C871 1.394 . S
C872 C873 1.516 . S
C873 C872 1.516 . S
C873 C874 1.502 . S
C873 C875 1.561 . S
C873 C876 1.526 . S
C874 H858 0.959 . S
C874 H859 0.959 . S
C874 H860 0.961 . S
C874 C873 1.502 . S
C875 H861 0.960 . S
C875 H862 0.961 . S
C875 H863 0.959 . S
C875 C873 1.561 . S
C876 C873 1.526 . S
C876 C877 1.396 . S
C876 C881 1.390 . S
C877 C871 1.465 . S
C877 C876 1.396 . S
C877 C878 1.399 . S
C878 H864 0.929 . S
C878 C877 1.399 . S
C878 C879 1.385 . S
C879 H865 0.931 . S
C879 C878 1.385 . S
C879 C880 1.389 . S
C880 C879 1.389 . S
C880 C881 1.387 . S
C881 H866 0.930 . S
C881 C876 1.390 . S
C881 C880 1.387 . S
H882 C894 0.930 . S
H883 C896 0.949 . S
H884 C897 0.896 1_556 S
H885 C901 0.959 . S
H886 C901 0.959 . S
H887 C901 0.961 . S
H888 C902 0.960 . S
H889 C902 0.961 . S
H890 C902 0.959 . S
H891 C905 0.929 . S
H892 C906 0.931 . S
H893 C908 0.930 . S
C894 H882 0.930 . S
C894 C895 1.399 . S
C894 C899 1.399 . S
C895 C894 1.399 . S
C895 C896 1.376 . S
C896 H883 0.949 . S
C896 C895 1.376 . S
C896 C897 1.402 . S
C897 H884 0.896 1_554 S
C897 C896 1.402 . S
C897 C898 1.411 . S
C898 C897 1.411 . S
C898 C899 1.394 . S
C898 C904 1.465 . S
C899 C894 1.399 . S
C899 C898 1.394 . S
C899 C900 1.516 . S
C900 C899 1.516 . S
C900 C901 1.502 . S
C900 C902 1.561 . S
C900 C903 1.526 . S
C901 H885 0.959 . S
C901 H886 0.959 . S
C901 H887 0.961 . S
C901 C900 1.502 . S
C902 H888 0.960 . S
C902 H889 0.961 . S
C902 H890 0.959 . S
C902 C900 1.561 . S
C903 C900 1.526 . S
C903 C904 1.396 . S
C903 C908 1.390 . S
C904 C898 1.465 . S
C904 C903 1.396 . S
C904 C905 1.399 1_554 S
C905 H891 0.929 . S
C905 C904 1.399 1_556 S
C905 C906 1.385 . S
C906 H892 0.931 . S
C906 C905 1.385 . S
C906 C907 1.389 1_556 S
C907 C906 1.389 1_554 S
C907 C908 1.387 . S
C908 H893 0.930 . S
C908 C903 1.390 . S
C908 C907 1.387 . S
H909 C921 0.930 . S
H910 C923 0.930 . S
H911 C924 0.930 . S
H912 C928 0.959 . S
H913 C928 0.959 . S
H914 C928 0.961 . S
H915 C929 0.960 . S
H916 C929 0.961 . S
H917 C929 0.959 . S
H918 C932 0.929 1_556 S
H919 C933 0.931 . S
H920 C935 0.930 . S
C921 H909 0.930 . S
C921 C922 1.399 . S
C921 C926 1.399 . S
C922 C921 1.399 . S
C922 C923 1.376 . S
C923 H910 0.930 . S
C923 C922 1.376 . S
C923 C924 1.388 . S
C924 H911 0.930 . S
C924 C923 1.388 . S
C924 C925 1.390 . S
C925 C924 1.390 . S
C925 C926 1.394 . S
C925 C931 1.465 . S
C926 C921 1.399 . S
C926 C925 1.394 . S
C926 C927 1.516 . S
C927 C926 1.516 . S
C927 C928 1.502 . S
C927 C929 1.561 . S
C927 C930 1.526 . S
C928 H912 0.959 . S
C928 H913 0.959 . S
C928 H914 0.961 . S
C928 C927 1.502 . S
C929 H915 0.960 . S
C929 H916 0.961 . S
C929 H917 0.959 . S
C929 C927 1.561 . S
C930 C927 1.526 . S
C930 C931 1.396 . S
C930 C935 1.390 . S
C931 C925 1.465 . S
C931 C930 1.396 . S
C931 C932 1.399 . S
C932 H918 0.929 1_554 S
C932 C931 1.399 . S
C932 C933 1.385 1_554 S
C933 H919 0.931 . S
C933 C932 1.385 1_556 S
C933 C934 1.389 1_556 S
C934 C933 1.389 1_554 S
C934 C935 1.387 . S
C935 H920 0.930 . S
C935 C930 1.390 . S
C935 C934 1.387 . S
H936 C948 0.930 . S
H937 C950 0.930 . S
H938 C951 0.930 . S
H939 C955 0.959 . S
H940 C955 0.959 . S
H941 C955 0.961 . S
H942 C956 0.960 . S
H943 C956 0.961 . S
H944 C956 0.959 . S
H945 C959 0.929 1_556 S
H946 C960 0.948 . S
H947 C962 0.930 . S
C948 H936 0.930 . S
C948 C949 1.399 . S
C948 C953 1.399 . S
C949 C948 1.399 . S
C949 C950 1.376 1_554 S
C950 H937 0.930 . S
C950 C949 1.376 1_556 S
C950 C951 1.388 . S
C951 H938 0.930 . S
C951 C950 1.388 . S
C951 C952 1.390 1_556 S
C952 C951 1.390 1_554 S
C952 C953 1.394 . S
C952 C958 1.465 . S
C953 C948 1.399 . S
C953 C952 1.394 . S
C953 C954 1.516 . S
C954 C953 1.516 . S
C954 C955 1.502 . S
C954 C956 1.561 . S
C954 C957 1.526 . S
C955 H939 0.959 . S
C955 H940 0.959 . S
C955 H941 0.961 . S
C955 C954 1.502 . S
C956 H942 0.960 . S
C956 H943 0.961 . S
C956 H944 0.959 . S
C956 C954 1.561 . S
C957 C954 1.526 . S
C957 C958 1.396 . S
C957 C962 1.390 . S
C958 C952 1.465 . S
C958 C957 1.396 . S
C958 C959 1.399 . S
C959 H945 0.929 1_554 S
C959 C958 1.399 . S
C959 C960 1.385 . S
C960 H946 0.948 . S
C960 C959 1.385 . S
C960 C961 1.389 . S
C961 C960 1.389 . S
C961 C962 1.387 . S
C962 H947 0.930 . S
C962 C957 1.390 . S
C962 C961 1.387 . S
H963 C975 0.930 . S
H964 C977 0.930 . S
H965 C978 0.930 . S
H966 C982 0.959 . S
H967 C982 0.959 . S
H968 C982 0.961 . S
H969 C983 0.960 . S
H970 C983 0.961 . S
H971 C983 0.959 . S
H972 C986 0.929 . S
H973 C987 0.931 . S
H974 C989 0.930 . S
C975 H963 0.930 . S
C975 C976 1.399 . S
C975 C980 1.399 . S
C976 C975 1.399 . S
C976 C977 1.376 . S
C977 H964 0.930 . S
C977 C976 1.376 . S
C977 C978 1.388 . S
C978 H965 0.930 . S
C978 C977 1.388 . S
C978 C979 1.390 . S
C979 C978 1.390 . S
C979 C980 1.394 . S
C979 C985 1.465 . S
C980 C975 1.399 . S
C980 C979 1.394 . S
C980 C981 1.516 . S
C981 C980 1.516 . S
C981 C982 1.502 . S
C981 C983 1.561 . S
C981 C984 1.526 . S
C982 H966 0.959 . S
C982 H967 0.959 . S
C982 H968 0.961 . S
C982 C981 1.502 . S
C983 H969 0.960 . S
C983 H970 0.961 . S
C983 H971 0.959 . S
C983 C981 1.561 . S
C984 C981 1.526 . S
C984 C985 1.396 . S
C984 C989 1.390 . S
C985 C979 1.465 . S
C985 C984 1.396 . S
C985 C986 1.399 . S
C986 H972 0.929 . S
C986 C985 1.399 . S
C986 C987 1.385 . S
C987 H973 0.931 . S
C987 C986 1.385 . S
C987 C988 1.389 . S
C988 C987 1.389 . S
C988 C989 1.387 . S
C989 H974 0.930 . S
C989 C984 1.390 . S
C989 C988 1.387 . S
H990 C1002 0.930 . S
H991 C1004 0.930 . S
H992 C1005 0.930 . S
H993 C1009 0.959 . S
H994 C1009 0.959 . S
H995 C1009 0.961 . S
H996 C1010 0.960 . S
H997 C1010 0.961 . S
H998 C1010 0.959 . S
H999 C1013 0.929 . S
H1000 C1014 0.931 . S
H1001 C1016 0.930 . S
C1002 H990 0.930 . S
C1002 C1003 1.399 . S
C1002 C1007 1.399 . S
C1003 C1002 1.399 . S
C1003 C1004 1.376 . S
C1004 H991 0.930 . S
C1004 C1003 1.376 . S
C1004 C1005 1.388 . S
C1005 H992 0.930 . S
C1005 C1004 1.388 . S
C1005 C1006 1.390 . S
C1006 C1005 1.390 . S
C1006 C1007 1.394 . S
C1006 C1012 1.465 . S
C1007 C1002 1.399 . S
C1007 C1006 1.394 . S
C1007 C1008 1.516 . S
C1008 C1007 1.516 . S
C1008 C1009 1.502 . S
C1008 C1010 1.561 . S
C1008 C1011 1.526 . S
C1009 H993 0.959 . S
C1009 H994 0.959 . S
C1009 H995 0.961 . S
C1009 C1008 1.502 . S
C1010 H996 0.960 . S
C1010 H997 0.961 . S
C1010 H998 0.959 . S
C1010 C1008 1.561 . S
C1011 C1008 1.526 . S
C1011 C1012 1.396 . S
C1011 C1016 1.390 . S
C1012 C1006 1.465 . S
C1012 C1011 1.396 . S
C1012 C1013 1.399 . S
C1013 H999 0.929 . S
C1013 C1012 1.399 . S
C1013 C1014 1.385 . S
C1014 H1000 0.931 . S
C1014 C1013 1.385 . S
C1014 C1015 1.389 . S
C1015 C1014 1.389 . S
C1015 C1016 1.387 . S
C1016 H1001 0.930 . S
C1016 C1011 1.390 . S
C1016 C1015 1.387 . S
H1017 C1029 0.930 . S
H1018 C1031 0.930 . S
H1019 C1032 0.930 . S
H1020 C1036 0.959 . S
H1021 C1036 0.959 . S
H1022 C1036 0.961 . S
H1023 C1037 0.960 . S
H1024 C1037 0.961 . S
H1025 C1037 0.959 . S
H1026 C1040 0.929 . S
H1027 C1041 0.931 . S
H1028 C1043 0.930 . S
C1029 H1017 0.930 . S
C1029 C1030 1.399 . S
C1029 C1034 1.399 . S
C1030 C1029 1.399 . S
C1030 C1031 1.376 . S
C1031 H1018 0.930 . S
C1031 C1030 1.376 . S
C1031 C1032 1.388 . S
C1032 H1019 0.930 . S
C1032 C1031 1.388 . S
C1032 C1033 1.390 . S
C1033 C1032 1.390 . S
C1033 C1034 1.394 . S
C1033 C1039 1.465 . S
C1034 C1029 1.399 . S
C1034 C1033 1.394 . S
C1034 C1035 1.516 . S
C1035 C1034 1.516 . S
C1035 C1036 1.502 . S
C1035 C1037 1.561 . S
C1035 C1038 1.526 . S
C1036 H1020 0.959 . S
C1036 H1021 0.959 . S
C1036 H1022 0.961 . S
C1036 C1035 1.502 . S
C1037 H1023 0.960 . S
C1037 H1024 0.961 . S
C1037 H1025 0.959 . S
C1037 C1035 1.561 . S
C1038 C1035 1.526 . S
C1038 C1039 1.396 . S
C1038 C1043 1.390 . S
C1039 C1033 1.465 . S
C1039 C1038 1.396 . S
C1039 C1040 1.399 . S
C1040 H1026 0.929 . S
C1040 C1039 1.399 . S
C1040 C1041 1.385 . S
C1041 H1027 0.931 . S
C1041 C1040 1.385 . S
C1041 C1042 1.389 . S
C1042 C1041 1.389 . S
C1042 C1043 1.387 . S
C1043 H1028 0.930 . S
C1043 C1038 1.390 . S
C1043 C1042 1.387 . S
H1044 C1056 0.930 . S
H1045 C1058 0.930 . S
H1046 C1059 0.930 . S
H1047 C1063 0.959 . S
H1048 C1063 0.959 . S
H1049 C1063 0.961 . S
H1050 C1064 0.960 . S
H1051 C1064 0.961 . S
H1052 C1064 0.959 . S
H1053 C1067 0.914 1_554 S
H1054 C1068 0.926 1_554 S
H1055 C1070 0.930 . S
C1056 H1044 0.930 . S
C1056 C1057 1.399 . S
C1056 C1061 1.399 . S
C1057 C1056 1.399 . S
C1057 C1058 1.376 1_556 S
C1058 H1045 0.930 . S
C1058 C1057 1.376 1_554 S
C1058 C1059 1.388 . S
C1059 H1046 0.930 . S
C1059 C1058 1.388 . S
C1059 C1060 1.390 1_554 S
C1060 C1059 1.390 1_556 S
C1060 C1061 1.394 . S
C1060 C1066 1.465 . S
C1061 C1056 1.399 . S
C1061 C1060 1.394 . S
C1061 C1062 1.516 . S
C1062 C1061 1.516 . S
C1062 C1063 1.502 . S
C1062 C1064 1.561 . S
C1062 C1065 1.526 . S
C1063 H1047 0.959 . S
C1063 H1048 0.959 . S
C1063 H1049 0.961 . S
C1063 C1062 1.502 . S
C1064 H1050 0.960 . S
C1064 H1051 0.961 . S
C1064 H1052 0.959 . S
C1064 C1062 1.561 . S
C1065 C1062 1.526 . S
C1065 C1066 1.396 . S
C1065 C1070 1.390 . S
C1066 C1060 1.465 . S
C1066 C1065 1.396 . S
C1066 C1067 1.408 . S
C1067 H1053 0.914 1_556 S
C1067 C1066 1.408 . S
C1067 C1068 1.391 . S
C1068 H1054 0.926 1_556 S
C1068 C1067 1.391 . S
C1068 C1069 1.389 . S
C1069 C1068 1.389 . S
C1069 C1070 1.387 . S
C1070 H1055 0.930 . S
C1070 C1065 1.390 . S
C1070 C1069 1.387 . S
H1071 C1083 0.930 . S
H1072 C1085 0.930 . S
H1073 C1086 0.930 . S
H1074 C1090 0.959 1_556 S
H1075 C1090 0.959 . S
H1076 C1090 0.961 . S
H1077 C1091 0.960 . S
H1078 C1091 0.961 . S
H1079 C1091 0.959 . S
H1080 C1094 0.929 . S
H1081 C1095 0.931 . S
H1082 C1097 0.930 1_554 S
C1083 H1071 0.930 . S
C1083 C1084 1.399 . S
C1083 C1088 1.399 . S
C1084 C1083 1.399 . S
C1084 C1085 1.376 . S
C1085 H1072 0.930 . S
C1085 C1084 1.376 . S
C1085 C1086 1.388 . S
C1086 H1073 0.930 . S
C1086 C1085 1.388 . S
C1086 C1087 1.390 . S
C1087 C1086 1.390 . S
C1087 C1088 1.394 . S
C1087 C1093 1.465 . S
C1088 C1083 1.399 . S
C1088 C1087 1.394 . S
C1088 C1089 1.516 1_556 S
C1089 C1088 1.516 1_554 S
C1089 C1090 1.502 . S
C1089 C1091 1.561 . S
C1089 C1092 1.526 1_554 S
C1090 H1074 0.959 1_554 S
C1090 H1075 0.959 . S
C1090 H1076 0.961 . S
C1090 C1089 1.502 . S
C1091 H1077 0.960 . S
C1091 H1078 0.961 . S
C1091 H1079 0.959 . S
C1091 C1089 1.561 . S
C1092 C1089 1.526 1_556 S
C1092 C1093 1.396 . S
C1092 C1097 1.390 . S
C1093 C1087 1.465 . S
C1093 C1092 1.396 . S
C1093 C1094 1.399 . S
C1094 H1080 0.929 . S
C1094 C1093 1.399 . S
C1094 C1095 1.385 . S
C1095 H1081 0.931 . S
C1095 C1094 1.385 . S
C1095 C1096 1.389 . S
C1096 C1095 1.389 . S
C1096 C1097 1.387 . S
C1097 H1082 0.930 1_556 S
C1097 C1092 1.390 . S
C1097 C1096 1.387 . S
H1098 C1110 0.930 . S
H1099 C1112 0.930 . S
H1100 C1113 0.930 . S
H1101 C1117 0.959 . S
H1102 C1117 0.959 . S
H1103 C1117 0.961 . S
H1104 C1118 0.960 . S
H1105 C1118 0.961 . S
H1106 C1118 0.959 . S
H1107 C1121 0.929 . S
H1108 C1122 0.931 . S
H1109 C1124 0.930 . S
C1110 H1098 0.930 . S
C1110 C1111 1.399 1_554 S
C1110 C1115 1.399 1_554 S
C1111 C1110 1.399 1_556 S
C1111 C1112 1.376 . S
C1112 H1099 0.930 . S
C1112 C1111 1.376 . S
C1112 C1113 1.388 . S
C1113 H1100 0.930 . S
C1113 C1112 1.388 . S
C1113 C1114 1.390 . S
C1114 C1113 1.390 . S
C1114 C1115 1.394 . S
C1114 C1120 1.465 . S
C1115 C1110 1.399 1_556 S
C1115 C1114 1.394 . S
C1115 C1116 1.516 1_556 S
C1116 C1115 1.516 1_554 S
C1116 C1117 1.502 . S
C1116 C1118 1.561 . S
C1116 C1119 1.526 1_554 S
C1117 H1101 0.959 . S
C1117 H1102 0.959 . S
C1117 H1103 0.961 . S
C1117 C1116 1.502 . S
C1118 H1104 0.960 . S
C1118 H1105 0.961 . S
C1118 H1106 0.959 . S
C1118 C1116 1.561 . S
C1119 C1116 1.526 1_556 S
C1119 C1120 1.396 . S
C1119 C1124 1.390 . S
C1120 C1114 1.465 . S
C1120 C1119 1.396 . S
C1120 C1121 1.399 . S
C1121 H1107 0.929 . S
C1121 C1120 1.399 . S
C1121 C1122 1.385 . S
C1122 H1108 0.931 . S
C1122 C1121 1.385 . S
C1122 C1123 1.389 . S
C1123 C1122 1.389 . S
C1123 C1124 1.387 . S
C1124 H1109 0.930 . S
C1124 C1119 1.390 . S
C1124 C1123 1.387 . S
H1125 C1137 0.930 . S
H1126 C1139 0.930 . S
H1127 C1140 0.930 . S
H1128 C1144 0.959 . S
H1129 C1144 0.959 . S
H1130 C1144 0.961 . S
H1131 C1145 0.960 . S
H1132 C1145 0.961 . S
H1133 C1145 0.959 . S
H1134 C1148 0.929 . S
H1135 C1149 0.931 . S
H1136 C1151 0.930 . S
C1137 H1125 0.930 . S
C1137 C1138 1.399 . S
C1137 C1142 1.399 . S
C1138 C1137 1.399 . S
C1138 C1139 1.376 . S
C1139 H1126 0.930 . S
C1139 C1138 1.376 . S
C1139 C1140 1.388 . S
C1140 H1127 0.930 . S
C1140 C1139 1.388 . S
C1140 C1141 1.390 . S
C1141 C1140 1.390 . S
C1141 C1142 1.394 . S
C1141 C1147 1.465 . S
C1142 C1137 1.399 . S
C1142 C1141 1.394 . S
C1142 C1143 1.516 . S
C1143 C1142 1.516 . S
C1143 C1144 1.502 . S
C1143 C1145 1.561 . S
C1143 C1146 1.526 . S
C1144 H1128 0.959 . S
C1144 H1129 0.959 . S
C1144 H1130 0.961 . S
C1144 C1143 1.502 . S
C1145 H1131 0.960 . S
C1145 H1132 0.961 . S
C1145 H1133 0.959 . S
C1145 C1143 1.561 . S
C1146 C1143 1.526 . S
C1146 C1147 1.396 . S
C1146 C1151 1.390 . S
C1147 C1141 1.465 . S
C1147 C1146 1.396 . S
C1147 C1148 1.399 . S
C1148 H1134 0.929 . S
C1148 C1147 1.399 . S
C1148 C1149 1.385 . S
C1149 H1135 0.931 . S
C1149 C1148 1.385 . S
C1149 C1150 1.389 . S
C1150 C1149 1.389 . S
C1150 C1151 1.387 . S
C1151 H1136 0.930 . S
C1151 C1146 1.390 . S
C1151 C1150 1.387 . S
H1152 C1164 0.930 . S
H1153 C1166 0.930 . S
H1154 C1167 0.930 . S
H1155 C1171 0.959 . S
H1156 C1171 0.959 . S
H1157 C1171 0.961 . S
H1158 C1172 0.960 . S
H1159 C1172 0.961 . S
H1160 C1172 0.959 . S
H1161 C1175 0.929 . S
H1162 C1176 0.931 . S
H1163 C1178 0.930 . S
C1164 H1152 0.930 . S
C1164 C1165 1.399 . S
C1164 C1169 1.399 . S
C1165 C1164 1.399 . S
C1165 C1166 1.376 . S
C1166 H1153 0.930 . S
C1166 C1165 1.376 . S
C1166 C1167 1.388 . S
C1167 H1154 0.930 . S
C1167 C1166 1.388 . S
C1167 C1168 1.390 . S
C1168 C1167 1.390 . S
C1168 C1169 1.394 . S
C1168 C1174 1.465 . S
C1169 C1164 1.399 . S
C1169 C1168 1.394 . S
C1169 C1170 1.516 . S
C1170 C1169 1.516 . S
C1170 C1171 1.502 . S
C1170 C1172 1.561 . S
C1170 C1173 1.526 . S
C1171 H1155 0.959 . S
C1171 H1156 0.959 . S
C1171 H1157 0.961 . S
C1171 C1170 1.502 . S
C1172 H1158 0.960 . S
C1172 H1159 0.961 . S
C1172 H1160 0.959 . S
C1172 C1170 1.561 . S
C1173 C1170 1.526 . S
C1173 C1174 1.396 . S
C1173 C1178 1.390 . S
C1174 C1168 1.465 . S
C1174 C1173 1.396 . S
C1174 C1175 1.399 . S
C1175 H1161 0.929 . S
C1175 C1174 1.399 . S
C1175 C1176 1.385 . S
C1176 H1162 0.931 . S
C1176 C1175 1.385 . S
C1176 C1177 1.389 . S
C1177 C1176 1.389 . S
C1177 C1178 1.387 . S
C1178 H1163 0.930 . S
C1178 C1173 1.390 . S
C1178 C1177 1.387 . S
H1179 C1191 0.930 . S
H1180 C1193 0.930 . S
H1181 C1194 0.930 . S
H1182 C1198 0.959 . S
H1183 C1198 0.959 . S
H1184 C1198 0.961 . S
H1185 C1199 0.960 . S
H1186 C1199 0.961 . S
H1187 C1199 0.959 . S
H1188 C1202 0.929 . S
H1189 C1203 0.931 . S
H1190 C1205 0.930 . S
C1191 H1179 0.930 . S
C1191 C1192 1.399 . S
C1191 C1196 1.399 . S
C1192 C1191 1.399 . S
C1192 C1193 1.376 . S
C1193 H1180 0.930 . S
C1193 C1192 1.376 . S
C1193 C1194 1.388 . S
C1194 H1181 0.930 . S
C1194 C1193 1.388 . S
C1194 C1195 1.390 . S
C1195 C1194 1.390 . S
C1195 C1196 1.394 . S
C1195 C1201 1.465 . S
C1196 C1191 1.399 . S
C1196 C1195 1.394 . S
C1196 C1197 1.516 . S
C1197 C1196 1.516 . S
C1197 C1198 1.502 . S
C1197 C1199 1.561 . S
C1197 C1200 1.526 . S
C1198 H1182 0.959 . S
C1198 H1183 0.959 . S
C1198 H1184 0.961 . S
C1198 C1197 1.502 . S
C1199 H1185 0.960 . S
C1199 H1186 0.961 . S
C1199 H1187 0.959 . S
C1199 C1197 1.561 . S
C1200 C1197 1.526 . S
C1200 C1201 1.396 . S
C1200 C1205 1.390 . S
C1201 C1195 1.465 . S
C1201 C1200 1.396 . S
C1201 C1202 1.399 . S
C1202 H1188 0.929 . S
C1202 C1201 1.399 . S
C1202 C1203 1.385 . S
C1203 H1189 0.931 . S
C1203 C1202 1.385 . S
C1203 C1204 1.389 . S
C1204 C1203 1.389 . S
C1204 C1205 1.387 . S
C1205 H1190 0.930 . S
C1205 C1200 1.390 . S
C1205 C1204 1.387 . S
C409 C173 1.568 . S
C421 C8 1.572 . S
C436 C41 1.569 . S
C448 C107 1.582 . S
C463 C74 1.585 . S
C475 C140 1.558 . S
C490 C206 1.580 . S
C502 C371 1.563 . S
C517 C305 1.579 . S
C529 C239 1.563 . S
C544 C338 1.587 . S
C556 C272 1.557 . S
C571 C17 2.209 . S
C583 C215 2.139 . S
C598 C50 2.215 . S
C610 C248 2.128 . S
C625 C281 2.148 . S
C637 C83 2.175 . S
C652 C314 2.160 . S
C664 C116 2.163 . S
C679 C149 2.194 . S
C691 C347 2.158 . S
C706 C182 2.127 . S
C718 C380 2.201 . S
C733 N146 1.814 . S
C745 N14 1.756 . S
C760 N179 1.748 . S
C772 N47 1.765 . S
C787 N113 1.790 . S
C799 N80 1.824 . S
C814 N212 1.807 . S
C826 N344 1.770 . S
C841 N245 1.810 . S
C853 N377 1.824 . S
C868 N311 1.822 . S
C880 N278 1.793 . S
C895 C28 0.436 . S
C907 N71 0.823 . S
C922 C61 0.365 . S
C934 N5 0.772 . S
C949 N38 0.800 . S
C961 C94 0.527 . S
C976 C127 0.389 . S
C988 N137 0.549 . S
C1003 N170 0.736 . S
C1015 C160 0.532 . S
C1030 N104 0.554 . S
C1042 C193 0.424 . S
C1057 N269 0.805 . S
C1069 C226 0.465 . S
C1084 C259 0.310 . S
C1096 N203 0.588 . S
C1111 N236 0.558 . S
C1123 C292 0.365 . S
C1138 N335 0.552 . S
C1150 C325 0.354 . S
C1165 N368 0.835 . S
C1177 C358 0.514 . S
C1192 C391 0.312 . S
C1204 N302 0.600 . S
