# Generated by pormake.
# Topology sxg, (6)-cn, num edge types: 1
# Building blocks:
#     Node 0, Type 0, BuildingBlock: UKALOJ_clean_sbu_0, # of connection points: 6
#     Node 1, Type 0, BuildingBlock: UKALOJ_clean_sbu_0, # of connection points: 6
#     Node 2, Type 0, BuildingBlock: UKALOJ_clean_sbu_0, # of connection points: 6
#     Node 3, Type 0, BuildingBlock: UKALOJ_clean_sbu_0, # of connection points: 6
#     Node 4, Type 0, BuildingBlock: UKALOJ_clean_sbu_0, # of connection points: 6
#     Node 5, Type 0, BuildingBlock: UKALOJ_clean_sbu_0, # of connection points: 6
#     Node 6, Type 0, BuildingBlock: UKALOJ_clean_sbu_0, # of connection points: 6
#     Node 7, Type 0, BuildingBlock: UKALOJ_clean_sbu_0, # of connection points: 6
#     Node 8, Type 0, BuildingBlock: UKALOJ_clean_sbu_0, # of connection points: 6
#     Node 9, Type 0, BuildingBlock: UKALOJ_clean_sbu_0, # of connection points: 6
#     Node 10, Type 0, BuildingBlock: UKALOJ_clean_sbu_0, # of connection points: 6
#     Node 11, Type 0, BuildingBlock: UKALOJ_clean_sbu_0, # of connection points: 6
#     Node 12, Type 0, BuildingBlock: UKALOJ_clean_sbu_0, # of connection points: 6
#     Node 13, Type 0, BuildingBlock: UKALOJ_clean_sbu_0, # of connection points: 6
#     Node 14, Type 0, BuildingBlock: UKALOJ_clean_sbu_0, # of connection points: 6
#     Node 15, Type 0, BuildingBlock: UKALOJ_clean_sbu_0, # of connection points: 6
#     Node 16, Type 0, BuildingBlock: UKALOJ_clean_sbu_0, # of connection points: 6
#     Node 17, Type 0, BuildingBlock: UKALOJ_clean_sbu_0, # of connection points: 6
#     Node 18, Type 0, BuildingBlock: UKALOJ_clean_sbu_0, # of connection points: 6
#     Node 19, Type 0, BuildingBlock: UKALOJ_clean_sbu_0, # of connection points: 6
#     Node 20, Type 0, BuildingBlock: UKALOJ_clean_sbu_0, # of connection points: 6
#     Node 21, Type 0, BuildingBlock: UKALOJ_clean_sbu_0, # of connection points: 6
#     Node 22, Type 0, BuildingBlock: UKALOJ_clean_sbu_0, # of connection points: 6
#     Node 23, Type 0, BuildingBlock: UKALOJ_clean_sbu_0, # of connection points: 6
#     Edge 24, Type (0, 0), BuildingBlock: UVAHIK_clean_linker_0, # of connection points: 2
#     Edge 25, Type (0, 0), BuildingBlock: UVAHIK_clean_linker_0, # of connection points: 2
#     Edge 26, Type (0, 0), BuildingBlock: UVAHIK_clean_linker_0, # of connection points: 2
#     Edge 27, Type (0, 0), BuildingBlock: UVAHIK_clean_linker_0, # of connection points: 2
#     Edge 28, Type (0, 0), BuildingBlock: UVAHIK_clean_linker_0, # of connection points: 2
#     Edge 29, Type (0, 0), BuildingBlock: UVAHIK_clean_linker_0, # of connection points: 2
#     Edge 30, Type (0, 0), BuildingBlock: UVAHIK_clean_linker_0, # of connection points: 2
#     Edge 31, Type (0, 0), BuildingBlock: UVAHIK_clean_linker_0, # of connection points: 2
#     Edge 32, Type (0, 0), BuildingBlock: UVAHIK_clean_linker_0, # of connection points: 2
#     Edge 33, Type (0, 0), BuildingBlock: UVAHIK_clean_linker_0, # of connection points: 2
#     Edge 34, Type (0, 0), BuildingBlock: UVAHIK_clean_linker_0, # of connection points: 2
#     Edge 35, Type (0, 0), BuildingBlock: UVAHIK_clean_linker_0, # of connection points: 2
#     Edge 36, Type (0, 0), BuildingBlock: UVAHIK_clean_linker_0, # of connection points: 2
#     Edge 37, Type (0, 0), BuildingBlock: UVAHIK_clean_linker_0, # of connection points: 2
#     Edge 38, Type (0, 0), BuildingBlock: UVAHIK_clean_linker_0, # of connection points: 2
#     Edge 39, Type (0, 0), BuildingBlock: UVAHIK_clean_linker_0, # of connection points: 2
#     Edge 40, Type (0, 0), BuildingBlock: UVAHIK_clean_linker_0, # of connection points: 2
#     Edge 41, Type (0, 0), BuildingBlock: UVAHIK_clean_linker_0, # of connection points: 2
#     Edge 42, Type (0, 0), BuildingBlock: UVAHIK_clean_linker_0, # of connection points: 2
#     Edge 43, Type (0, 0), BuildingBlock: UVAHIK_clean_linker_0, # of connection points: 2
#     Edge 44, Type (0, 0), BuildingBlock: UVAHIK_clean_linker_0, # of connection points: 2
#     Edge 45, Type (0, 0), BuildingBlock: UVAHIK_clean_linker_0, # of connection points: 2
#     Edge 46, Type (0, 0), BuildingBlock: UVAHIK_clean_linker_0, # of connection points: 2
#     Edge 47, Type (0, 0), BuildingBlock: UVAHIK_clean_linker_0, # of connection points: 2
#     Edge 48, Type (0, 0), BuildingBlock: UVAHIK_clean_linker_0, # of connection points: 2
#     Edge 49, Type (0, 0), BuildingBlock: UVAHIK_clean_linker_0, # of connection points: 2
#     Edge 50, Type (0, 0), BuildingBlock: UVAHIK_clean_linker_0, # of connection points: 2
#     Edge 51, Type (0, 0), BuildingBlock: UVAHIK_clean_linker_0, # of connection points: 2
#     Edge 52, Type (0, 0), BuildingBlock: UVAHIK_clean_linker_0, # of connection points: 2
#     Edge 53, Type (0, 0), BuildingBlock: UVAHIK_clean_linker_0, # of connection points: 2
#     Edge 54, Type (0, 0), BuildingBlock: UVAHIK_clean_linker_0, # of connection points: 2
#     Edge 55, Type (0, 0), BuildingBlock: UVAHIK_clean_linker_0, # of connection points: 2
#     Edge 56, Type (0, 0), BuildingBlock: UVAHIK_clean_linker_0, # of connection points: 2
#     Edge 57, Type (0, 0), BuildingBlock: UVAHIK_clean_linker_0, # of connection points: 2
#     Edge 58, Type (0, 0), BuildingBlock: UVAHIK_clean_linker_0, # of connection points: 2
#     Edge 59, Type (0, 0), BuildingBlock: UVAHIK_clean_linker_0, # of connection points: 2
#     Edge 60, Type (0, 0), BuildingBlock: UVAHIK_clean_linker_0, # of connection points: 2
#     Edge 61, Type (0, 0), BuildingBlock: UVAHIK_clean_linker_0, # of connection points: 2
#     Edge 62, Type (0, 0), BuildingBlock: UVAHIK_clean_linker_0, # of connection points: 2
#     Edge 63, Type (0, 0), BuildingBlock: UVAHIK_clean_linker_0, # of connection points: 2
#     Edge 64, Type (0, 0), BuildingBlock: UVAHIK_clean_linker_0, # of connection points: 2
#     Edge 65, Type (0, 0), BuildingBlock: UVAHIK_clean_linker_0, # of connection points: 2
#     Edge 66, Type (0, 0), BuildingBlock: UVAHIK_clean_linker_0, # of connection points: 2
#     Edge 67, Type (0, 0), BuildingBlock: UVAHIK_clean_linker_0, # of connection points: 2
#     Edge 68, Type (0, 0), BuildingBlock: UVAHIK_clean_linker_0, # of connection points: 2
#     Edge 69, Type (0, 0), BuildingBlock: UVAHIK_clean_linker_0, # of connection points: 2
#     Edge 70, Type (0, 0), BuildingBlock: UVAHIK_clean_linker_0, # of connection points: 2
#     Edge 71, Type (0, 0), BuildingBlock: UVAHIK_clean_linker_0, # of connection points: 2
#     Edge 72, Type (0, 0), BuildingBlock: UVAHIK_clean_linker_0, # of connection points: 2
#     Edge 73, Type (0, 0), BuildingBlock: UVAHIK_clean_linker_0, # of connection points: 2
#     Edge 74, Type (0, 0), BuildingBlock: UVAHIK_clean_linker_0, # of connection points: 2
#     Edge 75, Type (0, 0), BuildingBlock: UVAHIK_clean_linker_0, # of connection points: 2
#     Edge 76, Type (0, 0), BuildingBlock: UVAHIK_clean_linker_0, # of connection points: 2
#     Edge 77, Type (0, 0), BuildingBlock: UVAHIK_clean_linker_0, # of connection points: 2
#     Edge 78, Type (0, 0), BuildingBlock: UVAHIK_clean_linker_0, # of connection points: 2
#     Edge 79, Type (0, 0), BuildingBlock: UVAHIK_clean_linker_0, # of connection points: 2
#     Edge 80, Type (0, 0), BuildingBlock: UVAHIK_clean_linker_0, # of connection points: 2
#     Edge 81, Type (0, 0), BuildingBlock: UVAHIK_clean_linker_0, # of connection points: 2
#     Edge 82, Type (0, 0), BuildingBlock: UVAHIK_clean_linker_0, # of connection points: 2
#     Edge 83, Type (0, 0), BuildingBlock: UVAHIK_clean_linker_0, # of connection points: 2
#     Edge 84, Type (0, 0), BuildingBlock: UVAHIK_clean_linker_0, # of connection points: 2
#     Edge 85, Type (0, 0), BuildingBlock: UVAHIK_clean_linker_0, # of connection points: 2
#     Edge 86, Type (0, 0), BuildingBlock: UVAHIK_clean_linker_0, # of connection points: 2
#     Edge 87, Type (0, 0), BuildingBlock: UVAHIK_clean_linker_0, # of connection points: 2
#     Edge 88, Type (0, 0), BuildingBlock: UVAHIK_clean_linker_0, # of connection points: 2
#     Edge 89, Type (0, 0), BuildingBlock: UVAHIK_clean_linker_0, # of connection points: 2
#     Edge 90, Type (0, 0), BuildingBlock: UVAHIK_clean_linker_0, # of connection points: 2
#     Edge 91, Type (0, 0), BuildingBlock: UVAHIK_clean_linker_0, # of connection points: 2
#     Edge 92, Type (0, 0), BuildingBlock: UVAHIK_clean_linker_0, # of connection points: 2
#     Edge 93, Type (0, 0), BuildingBlock: UVAHIK_clean_linker_0, # of connection points: 2
#     Edge 94, Type (0, 0), BuildingBlock: UVAHIK_clean_linker_0, # of connection points: 2
#     Edge 95, Type (0, 0), BuildingBlock: UVAHIK_clean_linker_0, # of connection points: 2
# Relax obj value: 0.279
# Max RMSD: 0.277
# Mean RMSD: 0.277
data_MOF--net-sxg--node1-UKALOJ_clean_sbu_0--edge1-UVAHIK_clean_linker_0
_symmetry_space_group_name_H-M    P1
_symmetry_Int_Tables_number       1
_symmetry_cell_setting            triclinic
loop_
_symmetry_equiv_pos_as_xyz
'x, y, z'
_cell_length_a     60.443933
_cell_length_b     60.430648
_cell_length_c     60.436256
_cell_angle_alpha  89.999876
_cell_angle_beta   89.974651
_cell_angle_gamma 89.927375
loop_
_atom_site_label
_atom_site_type_symbol
_atom_site_fract_x
_atom_site_fract_y
_atom_site_fract_z
_atom_type_partial_charge
Zn0 Zn 0.01617 0.26998 0.20863 0.0
O1 O 0.99272 0.2673 0.23432 0.0
C2 C 0.01063 0.31907 0.20942 0.0
Zn3 Zn 0.03939 0.28644 0.23186 0.0
C4 C -0.00355 0.276 0.25308 0.0
O5 O 0.015 0.28515 0.25675 0.0
C6 C 0.05885 0.28048 0.18688 0.0
O7 O 0.05137 0.25535 0.2416 0.0
O8 O 0.02965 0.23867 0.2177 0.0
N9 N 0.05996 0.30249 0.25318 0.0
C10 C 0.08217 0.30398 0.25412 0.0
C11 C 0.06905 0.32863 0.2756 0.0
N12 N 0.05185 0.31762 0.26678 0.0
N13 N 0.08835 0.32058 0.2678 0.0
C14 C 0.97507 0.262 0.17941 0.0
C15 C 0.98563 0.23582 0.15833 0.0
N16 N 0.99504 0.25531 0.18673 0.0
N17 N 0.00146 0.23882 0.17376 0.0
N18 N 0.96891 0.2502 0.16156 0.0
H19 H 0.96542 0.2825 0.20717 0.0
H20 H 0.94357 0.2763 0.18773 0.0
H21 H 0.96458 0.2958 0.1805 0.0
C22 C 0.96143 0.28015 0.18947 0.0
C23 C 0.09762 0.28848 0.24248 0.0
H24 H 0.09003 0.27191 0.24059 0.0
H25 H 0.11342 0.28694 0.25171 0.0
H26 H 0.10121 0.29501 0.22577 0.0
O27 O 0.06344 0.28757 0.20615 0.0
O28 O 0.03974 0.2727 0.18305 0.0
C29 C 0.0445 0.23763 0.23261 0.0
O30 O 0.0032 0.30166 0.20034 0.0
O31 O 0.02684 0.31752 0.22262 0.0
Zn32 Zn 0.4816 0.72748 0.70347 0.0
O33 O 0.50508 0.73094 0.72853 0.0
C34 C 0.49335 0.67968 0.69815 0.0
Zn35 Zn 0.46108 0.70522 0.72416 0.0
C36 C 0.50303 0.71966 0.74613 0.0
O37 O 0.48612 0.70743 0.7487 0.0
C38 C 0.44016 0.71287 0.68076 0.0
O39 O 0.44546 0.73327 0.73745 0.0
O40 O 0.46443 0.75546 0.71578 0.0
N41 N 0.44355 0.68462 0.74415 0.0
C42 C 0.42168 0.68084 0.74608 0.0
C43 C 0.43836 0.65615 0.76495 0.0
N44 N 0.45387 0.6694 0.75605 0.0
N45 N 0.41798 0.66284 0.75883 0.0
C46 C 0.52047 0.74439 0.67551 0.0
C47 C 0.50366 0.76294 0.65076 0.0
N48 N 0.49932 0.74665 0.68215 0.0
N49 N 0.48899 0.75854 0.66693 0.0
N50 N 0.52353 0.75399 0.65556 0.0
H51 H 0.53822 0.74184 0.70611 0.0
H52 H 0.55506 0.73745 0.68207 0.0
H53 H 0.53601 0.71635 0.69121 0.0
C54 C 0.53851 0.73437 0.68937 0.0
C55 C 0.40408 0.69541 0.73638 0.0
H56 H 0.40981 0.71276 0.73529 0.0
H57 H 0.38879 0.69474 0.74653 0.0
H58 H 0.40014 0.68972 0.71943 0.0
O59 O 0.43656 0.70299 0.69897 0.0
O60 O 0.45786 0.72384 0.67843 0.0
C61 C 0.44984 0.7527 0.73073 0.0
O62 O 0.49869 0.69897 0.69175 0.0
O63 O 0.47711 0.67743 0.71122 0.0
Zn64 Zn 0.53474 0.21052 0.75474 0.0
O65 O 0.54465 0.24248 0.74689 0.0
C66 C 0.55854 0.21353 0.79762 0.0
Zn67 Zn 0.51333 0.22399 0.78148 0.0
C68 C 0.53831 0.25928 0.75778 0.0
O69 O 0.52489 0.25675 0.77387 0.0
C70 C 0.50974 0.17488 0.77683 0.0
O71 O 0.48709 0.22781 0.7592 0.0
O72 O 0.50742 0.21327 0.73275 0.0
N73 N 0.49495 0.23574 0.8074 0.0
C74 C 0.47627 0.22806 0.81686 0.0
C75 C 0.48997 0.25198 0.83878 0.0
N76 N 0.50332 0.25075 0.82097 0.0
N77 N 0.47297 0.23771 0.83678 0.0
C78 C 0.5703 0.18306 0.73058 0.0
C79 C 0.567 0.19296 0.69686 0.0
N80 N 0.55401 0.19825 0.72979 0.0
N81 N 0.55191 0.20437 0.70882 0.0
N82 N 0.57878 0.17968 0.71028 0.0
H83 H 0.59162 0.17965 0.75856 0.0
H84 H 0.58319 0.15384 0.74663 0.0
H85 H 0.56402 0.16948 0.76321 0.0
C86 C 0.5775 0.17077 0.75094 0.0
C87 C 0.46074 0.21203 0.80604 0.0
H88 H 0.46171 0.21321 0.78782 0.0
H89 H 0.44347 0.21519 0.81141 0.0
H90 H 0.46527 0.19496 0.81083 0.0
O91 O 0.50236 0.19102 0.78815 0.0
O92 O 0.5243 0.17849 0.76218 0.0
C93 C 0.489 0.22111 0.73936 0.0
O94 O 0.56171 0.20839 0.77749 0.0
O95 O 0.53953 0.22004 0.80364 0.0
Zn96 Zn 0.96131 0.77936 0.26824 0.0
O97 O 0.94491 0.75122 0.25619 0.0
C98 C 0.94181 0.77181 0.31214 0.0
Zn99 Zn 0.98303 0.75749 0.28829 0.0
C100 C 0.95031 0.73183 0.26233 0.0
O101 O 0.9661 0.72928 0.27606 0.0
C102 C 0.99463 0.80523 0.29296 0.0
O103 O 0.00647 0.75489 0.26288 0.0
O104 O 0.98524 0.77645 0.24271 0.0
N105 N 0.00132 0.7386 0.30949 0.0
C106 C 0.02263 0.74125 0.31535 0.0
C107 C 0.00659 0.72439 0.34173 0.0
N108 N 0.99145 0.72776 0.32575 0.0
N109 N 0.0263 0.73299 0.3358 0.0
C110 C 0.92138 0.80428 0.24759 0.0
C111 C 0.93776 0.82779 0.22709 0.0
N112 N 0.94321 0.79987 0.24856 0.0
N113 N 0.95333 0.81436 0.23564 0.0
N114 N 0.91753 0.82196 0.23442 0.0
H115 H 0.90931 0.77307 0.25995 0.0
H116 H 0.88817 0.79135 0.24921 0.0
H117 H 0.90097 0.79686 0.27554 0.0
C118 C 0.90393 0.79053 0.2586 0.0
C119 C 0.04025 0.74963 0.30002 0.0
H120 H 0.04004 0.73945 0.28477 0.0
H121 H 0.05698 0.74826 0.30742 0.0
H122 H 0.03692 0.76697 0.29522 0.0
O123 O -0.00013 0.78607 0.29983 0.0
O124 O 0.97822 0.80731 0.28006 0.0
C125 C 0.00306 0.76549 0.24505 0.0
O126 O 0.93785 0.78222 0.29432 0.0
O127 O 0.95945 0.76056 0.31369 0.0
Zn128 Zn 0.22174 0.02881 0.28454 0.0
O129 O 0.2338 0.04484 0.25605 0.0
C130 C 0.17765 0.04824 0.27639 0.0
Zn131 Zn 0.20168 0.00705 0.26269 0.0
C132 C 0.22749 0.03953 0.23671 0.0
O133 O 0.21369 0.02382 0.23429 0.0
C134 C 0.19702 -0.00369 0.31101 0.0
O135 O 0.22758 0.98394 0.26001 0.0
O136 O 0.2472 0.0048 0.28229 0.0
N137 N 0.18139 0.98796 0.24344 0.0
C138 C 0.17429 0.96696 0.24599 0.0
C139 C 0.15341 0.98225 0.22213 0.0
N140 N 0.16864 -0.00272 0.22827 0.0
N141 N 0.15648 0.96301 0.23303 0.0
C142 C 0.24257 0.06923 0.30851 0.0
C143 C 0.26566 0.05352 0.33004 0.0
N144 N 0.24174 0.04738 0.30429 0.0
N145 N 0.25625 0.03767 0.31754 0.0
N146 N 0.25732 0.07348 0.32471 0.0
H147 H 0.22659 0.08113 0.27892 0.0
H148 H 0.23877 0.10244 0.29608 0.0
H149 H 0.21361 0.08908 0.30453 0.0
C150 C 0.22971 0.08647 0.29618 0.0
C151 C 0.18388 0.95075 0.26217 0.0
H152 H 0.19809 0.95759 0.27131 0.0
H153 H 0.18999 0.93602 0.25312 0.0
H154 H 0.17086 0.94524 0.27388 0.0
O155 O 0.19026 0.99072 0.2919 0.0
O156 O 0.20998 0.01268 0.31286 0.0
C157 C 0.24519 0.9872 0.27097 0.0
O158 O 0.19553 0.05213 0.28674 0.0
O159 O 0.17588 0.03045 0.26535 0.0
Zn160 Zn 0.29109 0.97766 0.76273 0.0
O161 O 0.26712 0.00206 0.75692 0.0
C162 C 0.29335 0.98967 0.81062 0.0
Zn163 Zn 0.26784 0.95821 0.78342 0.0
C164 C 0.2487 0.00078 0.76697 0.0
O165 O 0.24467 0.98414 0.7792 0.0
C166 C 0.31072 0.93542 0.77949 0.0
O167 O 0.25594 0.94277 0.75479 0.0
O168 O 0.28024 0.96022 0.73416 0.0
N169 N 0.24597 0.94164 0.80296 0.0
C170 C 0.2433 0.91985 0.80683 0.0
C171 C 0.22501 0.93724 0.83144 0.0
N172 N 0.23437 0.95241 0.8181 0.0
N173 N 0.2305 0.91663 0.8249 0.0
C174 C 0.32263 0.01457 0.74664 0.0
C175 C 0.34617 0.99588 0.72825 0.0
N176 N 0.31456 0.9939 0.74463 0.0
N177 N 0.32906 0.98241 0.73288 0.0
N178 N 0.34271 0.01612 0.73693 0.0
H179 H 0.29275 0.03334 0.75123 0.0
H180 H 0.31758 0.04963 0.75183 0.0
H181 H 0.31046 0.03224 0.77495 0.0
C182 C 0.3102 0.03356 0.75674 0.0
C183 C 0.25226 0.90185 0.79224 0.0
H184 H 0.25287 0.9073 0.77479 0.0
H185 H 0.24187 0.88677 0.79345 0.0
H186 H 0.26931 0.8976 0.79739 0.0
O187 O 0.29158 0.9328 0.78771 0.0
O188 O 0.31489 0.95292 0.76871 0.0
C189 C 0.26449 0.94636 0.73592 0.0
O190 O 0.30128 0.99495 0.79186 0.0
O191 O 0.27956 0.97395 0.81179 0.0
Zn192 Zn 0.70712 0.4825 0.73292 0.0
O193 O 0.73287 0.50551 0.7344 0.0
C194 C 0.70353 0.48973 0.68372 0.0
Zn195 Zn 0.72765 0.45948 0.7128 0.0
C196 C 0.75077 0.5018 0.72408 0.0
O197 O 0.75326 0.4836 0.71382 0.0
C198 C 0.68301 0.44103 0.72185 0.0
O199 O 0.73913 0.44556 0.74225 0.0
O200 O 0.71875 0.46767 0.76279 0.0
N201 N 0.74804 0.43951 0.69467 0.0
C202 C 0.74722 0.41792 0.68923 0.0
C203 C 0.77316 0.43238 0.6703 0.0
N204 N 0.76438 0.44839 0.68308 0.0
N205 N 0.76266 0.41309 0.67386 0.0
C206 C 0.67887 0.52335 0.74442 0.0
C207 C 0.65751 0.5108 0.76933 0.0
N208 N 0.68652 0.50317 0.75001 0.0
N209 N 0.67343 0.49555 0.76584 0.0
N210 N 0.66061 0.52847 0.75612 0.0
H211 H 0.7053 0.53331 0.72226 0.0
H212 H 0.68704 0.55526 0.73124 0.0
H213 H 0.67761 0.53568 0.71127 0.0
C214 C 0.68796 0.5376 0.72626 0.0
C215 C 0.73185 0.40137 0.69937 0.0
H216 H 0.72894 0.40536 0.71705 0.0
H217 H 0.73882 0.38441 0.69804 0.0
H218 H 0.71588 0.40173 0.6904 0.0
O219 O 0.70093 0.43628 0.71186 0.0
O220 O 0.68137 0.45945 0.73174 0.0
C221 C 0.73279 0.452 0.76124 0.0
O222 O 0.69619 0.49666 0.70218 0.0
O223 O 0.71673 0.47345 0.68344 0.0
Zn224 Zn 0.76042 0.53375 0.20418 0.0
O225 O 0.74964 0.54774 0.2339 0.0
C226 C 0.80406 0.55442 0.20948 0.0
Zn227 Zn 0.78274 0.5118 0.22343 0.0
C228 C 0.75781 0.5425 0.25253 0.0
O229 O 0.77269 0.52757 0.25349 0.0
C230 C 0.78381 0.50304 0.17465 0.0
O231 O 0.75808 0.48774 0.22767 0.0
O232 O 0.73642 0.50838 0.20701 0.0
N233 N 0.80593 0.49329 0.23982 0.0
C234 C 0.81467 0.47333 0.23496 0.0
C235 C 0.8363 0.48889 0.25799 0.0
N236 N 0.81927 0.50281 0.25433 0.0
N237 N 0.83401 0.47034 0.24582 0.0
C238 C 0.73595 0.57421 0.18407 0.0
C239 C 0.71446 0.55853 0.16098 0.0
N240 N 0.73846 0.5522 0.18653 0.0
N241 N 0.72493 0.54249 0.17234 0.0
N242 N 0.72114 0.57864 0.16789 0.0
H243 H 0.73698 0.6064 0.19945 0.0
H244 H 0.76334 0.59553 0.19075 0.0
H245 H 0.75035 0.58463 0.21502 0.0
C246 C 0.74719 0.59118 0.19822 0.0
C247 C 0.8036 0.45631 0.2207 0.0
H248 H 0.7854 0.4577 0.22187 0.0
H249 H 0.8087 0.4394 0.22574 0.0
H250 H 0.80837 0.45878 0.20322 0.0
O251 O 0.79191 0.49648 0.19291 0.0
O252 O 0.77078 0.51947 0.17457 0.0
C253 C 0.73979 0.49057 0.21771 0.0
O254 O 0.78516 0.55858 0.20127 0.0
O255 O 0.80725 0.53601 0.21904 0.0
Zn256 Zn 0.26852 0.20592 0.0136 0.0
O257 O 0.26668 0.23041 0.9889 0.0
C258 C 0.31793 0.20428 0.00864 0.0
Zn259 Zn 0.28621 0.22922 0.03574 0.0
C260 C 0.27653 0.24875 0.99167 0.0
O261 O 0.28608 0.25274 0.00996 0.0
C262 C 0.27846 0.18565 0.05726 0.0
O263 O 0.25531 0.24088 0.0466 0.0
O264 O 0.23742 0.21641 0.02649 0.0
N265 N 0.30256 0.25108 0.05537 0.0
C266 C 0.30334 0.25362 0.07749 0.0
C267 C 0.32894 0.27345 0.06367 0.0
N268 N 0.31829 0.26363 0.0468 0.0
N269 N 0.32005 0.26736 0.08321 0.0
C270 C 0.26033 0.1747 0.97411 0.0
C271 C 0.23413 0.1543 0.98581 0.0
N272 N 0.25351 0.18326 0.99354 0.0
N273 N 0.23701 0.17072 0.00066 0.0
N274 N 0.24863 0.15645 0.96903 0.0
H275 H 0.28076 0.20189 0.96286 0.0
H276 H 0.27463 0.18117 0.94219 0.0
H277 H 0.29417 0.1753 0.9636 0.0
C278 C 0.27846 0.18398 0.95993 0.0
C279 C 0.28692 0.24368 0.0932 0.0
H280 H 0.27049 0.24216 0.08528 0.0
H281 H 0.28539 0.25394 0.10836 0.0
H282 H 0.29242 0.22688 0.09798 0.0
O283 O 0.28645 0.20471 0.06123 0.0
O284 O 0.27034 0.18171 0.03832 0.0
C285 C 0.23719 0.23228 0.04034 0.0
O286 O 0.3001 0.19597 0.0013 0.0
O287 O 0.31699 0.21818 0.02429 0.0
Zn288 Zn 0.76103 0.2841 0.98088 0.0
O289 O 0.75569 0.25849 0.00354 0.0
C290 C 0.80816 0.28784 0.99548 0.0
Zn291 Zn 0.784 0.26349 0.96092 0.0
C292 C 0.7664 0.24056 0.00122 0.0
O293 O 0.77924 0.23819 0.98472 0.0
C294 C 0.77876 0.30758 0.94094 0.0
O295 O 0.75659 0.25198 0.94277 0.0
O296 O 0.73382 0.27301 0.96189 0.0
N297 N 0.80509 0.24331 0.94415 0.0
C298 C 0.81062 0.24215 0.9226 0.0
C299 C 0.83298 0.22141 0.94031 0.0
N300 N 0.81885 0.23024 0.9551 0.0
N301 N 0.8283 0.22872 0.91977 0.0
C302 C 0.74306 0.31138 0.01967 0.0
C303 C 0.72697 0.33775 0.0028 0.0
N304 N 0.74155 0.30555 -0.00178 0.0
N305 N 0.73118 0.3218 0.98782 0.0
N306 N 0.73454 0.33181 0.02293 0.0
H307 H 0.74225 0.28021 0.03651 0.0
H308 H 0.7477 0.30327 0.05433 0.0
H309 H 0.76894 0.29294 0.03595 0.0
C310 C 0.75103 0.29624 0.03771 0.0
C311 C 0.79801 0.2533 0.90436 0.0
H312 H 0.7803 0.25491 0.90873 0.0
H313 H 0.79958 0.24384 0.8887 0.0
H314 H 0.80469 0.27014 0.90172 0.0
O315 O 0.78874 0.28936 0.93765 0.0
O316 O 0.76653 0.30964 0.95786 0.0
C317 C 0.7371 0.259 0.94649 0.0
O318 O 0.78876 0.29472 -0.00028 0.0
O319 O 0.81109 0.27486 0.97927 0.0
Zn320 Zn 0.72364 0.70647 0.47797 0.0
O321 O 0.72719 0.72996 0.50308 0.0
C322 C 0.67449 0.70871 0.48319 0.0
Zn323 Zn 0.70779 0.73125 0.45587 0.0
C324 C 0.71968 0.7494 0.50045 0.0
O325 O 0.71099 0.75471 0.48203 0.0
C326 C 0.71183 0.68751 0.43399 0.0
O327 O 0.73909 0.73984 0.44414 0.0
O328 O 0.75544 0.71513 0.46528 0.0
N329 N 0.69295 0.75485 0.43693 0.0
C330 C 0.69112 0.75747 0.41487 0.0
C331 C 0.66927 0.7806 0.43006 0.0
N332 N 0.67956 0.76942 0.44633 0.0
N333 N 0.67607 0.77336 0.41008 0.0
C334 C 0.72955 0.67359 0.51672 0.0
C335 C 0.75221 0.65025 0.50311 0.0
N336 N 0.73669 0.68187 0.49726 0.0
N337 N 0.75094 0.66743 0.48894 0.0
N338 N 0.73872 0.65355 0.52056 0.0
H339 H 0.71659 0.70362 0.53121 0.0
H340 H 0.71783 0.68038 0.54976 0.0
H341 H 0.69704 0.68165 0.52858 0.0
C342 C 0.71448 0.68554 0.53246 0.0
C343 C 0.70502 0.74535 0.39828 0.0
H344 H 0.72149 0.74142 0.4053 0.0
H345 H 0.7071 0.75537 0.38303 0.0
H346 H 0.69687 0.72957 0.39385 0.0
O347 O 0.70469 0.70696 0.43019 0.0
O348 O 0.72013 0.68316 0.45274 0.0
C349 C 0.75667 0.73038 0.45076 0.0
O350 O 0.69158 0.69863 0.49012 0.0
O351 O 0.67652 0.723 0.468 0.0
Zn352 Zn 0.20862 0.75905 0.53344 0.0
O353 O 0.23853 0.7482 0.54687 0.0
C354 C 0.21578 0.80281 0.55451 0.0
Zn355 Zn 0.22665 0.78214 0.51126 0.0
C356 C 0.2569 0.75552 0.53978 0.0
O357 O 0.25708 0.76993 0.52439 0.0
C358 C 0.17796 0.78441 0.50484 0.0
O359 O 0.22754 0.75791 0.4863 0.0
O360 O 0.21096 0.7345 0.5086 0.0
N361 N 0.24325 0.80417 0.49167 0.0
C362 C 0.23831 0.8127 0.47164 0.0
C363 C 0.26373 0.83268 0.48556 0.0
N364 N 0.25932 0.8164 0.50011 0.0
N365 N 0.25076 0.83082 0.46751 0.0
C366 C 0.18804 0.73655 0.5747 0.0
C367 C 0.16365 0.71603 0.55977 0.0
N368 N 0.19086 0.73783 0.55263 0.0
N369 N 0.17588 0.72484 0.5434 0.0
N370 N 0.17076 0.72322 0.57965 0.0
H371 H 0.22016 0.74829 0.58472 0.0
H372 H 0.20316 0.73777 0.607 0.0
H373 H 0.19732 0.76428 0.59473 0.0
C374 C 0.20308 0.74724 0.59127 0.0
C375 C 0.22022 0.80433 0.45684 0.0
H376 H 0.21256 0.78904 0.46321 0.0
H377 H 0.2271 0.80032 0.44035 0.0
H378 H 0.20748 0.81738 0.45465 0.0
O379 O 0.19579 0.79376 0.49886 0.0
O380 O 0.17874 0.76953 0.51958 0.0
C381 C 0.2194 0.73887 0.48983 0.0
O382 O 0.20642 0.78429 0.55785 0.0
O383 O 0.22566 0.80618 0.53629 0.0
Zn384 Zn 0.95493 0.71109 0.76023 0.0
O385 O 0.93932 0.74044 0.75054 0.0
C386 C 0.9354 0.71489 0.80482 0.0
Zn387 Zn 0.97667 0.7307 0.78239 0.0
C388 C 0.94418 0.7591 0.75888 0.0
O389 O 0.95948 0.7603 0.77334 0.0
C390 C 0.98749 0.6823 0.78211 0.0
O391 O -0.00038 0.73636 0.75715 0.0
O392 O 0.9794 0.71552 0.73534 0.0
N393 N 0.99535 0.74737 0.80514 0.0
C394 C 0.01579 0.74302 0.81296 0.0
C395 C 0.00039 0.76517 0.83564 0.0
N396 N 0.98592 0.76136 0.81913 0.0
N397 N 0.01921 0.75364 0.83234 0.0
C398 C 0.91473 0.68919 0.73692 0.0
C399 C 0.93092 0.66734 0.71447 0.0
N400 N 0.93662 0.69296 0.73857 0.0
N401 N 0.94663 0.67953 0.72445 0.0
N402 N 0.91071 0.67293 0.72208 0.0
H403 H 0.90314 0.7194 0.75199 0.0
H404 H 0.88176 0.70268 0.73945 0.0
H405 H 0.89421 0.69449 0.76528 0.0
C406 C 0.89743 0.70226 0.749 0.0
C407 C 0.0328 0.72938 0.80103 0.0
H408 H 0.03075 0.73076 0.7829 0.0
H409 H 0.04973 0.73482 0.80556 0.0
H410 H 0.03105 0.71175 0.80562 0.0
O411 O 0.99346 0.70059 0.79056 0.0
O412 O 0.97081 0.6819 0.76944 0.0
C413 C -0.00325 0.72694 0.7386 0.0
O414 O 0.93102 0.70673 0.78593 0.0
O415 O 0.95351 0.72509 0.80756 0.0
Zn416 Zn 0.51473 0.26922 0.28466 0.0
O417 O 0.4899 0.26301 0.26141 0.0
C418 C 0.5064 0.31797 0.28136 0.0
Zn419 Zn 0.53572 0.28568 0.2594 0.0
C420 C 0.49184 0.27087 0.24202 0.0
O421 O 0.50944 0.28105 0.23662 0.0
C422 C 0.55812 0.28416 0.30278 0.0
O423 O 0.549 0.25487 0.25081 0.0
O424 O 0.52985 0.23815 0.27679 0.0
N425 N 0.55372 0.30132 0.23557 0.0
C426 C 0.57571 0.30363 0.23277 0.0
C427 C 0.55987 0.32625 0.21087 0.0
N428 N 0.54391 0.31519 0.22175 0.0
N429 N 0.58005 0.31949 0.21757 0.0
C430 C 0.4772 0.2606 0.3185 0.0
C431 C 0.49302 0.23877 0.34121 0.0
N432 N 0.49694 0.25505 0.3097 0.0
N433 N 0.50663 0.24129 0.32373 0.0
N434 N 0.47452 0.25093 0.33848 0.0
H435 H 0.46132 0.27271 0.28887 0.0
H436 H 0.44325 0.26977 0.31248 0.0
H437 H 0.46273 0.29212 0.31118 0.0
C438 C 0.46013 0.27451 0.30704 0.0
C439 C 0.59276 0.28952 0.24401 0.0
H440 H 0.58624 0.2727 0.24714 0.0
H441 H 0.60794 0.28829 0.23375 0.0
H442 H 0.59719 0.29691 0.26016 0.0
O443 O 0.56141 0.29041 0.28298 0.0
O444 O 0.53977 0.27536 0.3078 0.0
C445 C 0.54393 0.23727 0.26112 0.0
O446 O 0.49993 0.30077 0.29159 0.0
O447 O 0.52215 0.31631 0.26762 0.0
Zn448 Zn 0.45933 0.78692 0.23345 0.0
O449 O 0.44677 0.75695 0.2455 0.0
C450 C 0.4377 0.77912 0.19035 0.0
Zn451 Zn 0.48127 0.76778 0.21101 0.0
C452 C 0.4527 0.73835 0.23768 0.0
O453 O 0.46718 0.73763 0.22237 0.0
C454 C 0.48832 0.81672 0.20831 0.0
O455 O 0.50581 0.76539 0.23529 0.0
O456 O 0.4853 0.78595 0.25714 0.0
N457 N 0.50022 0.75154 0.18812 0.0
C458 C 0.52058 0.75623 0.18028 0.0
C459 C 0.50513 0.73478 0.15702 0.0
N460 N 0.49078 0.73796 0.17377 0.0
N461 N 0.52388 0.7463 0.16051 0.0
C462 C 0.41852 0.80687 0.25751 0.0
C463 C 0.43374 0.83126 0.27787 0.0
N464 N 0.44057 0.80474 0.25505 0.0
N465 N 0.44999 0.81975 0.2679 0.0
N466 N 0.41377 0.82365 0.27155 0.0
H467 H 0.40882 0.77497 0.24485 0.0
H468 H 0.38669 0.79078 0.2574 0.0
H469 H 0.39727 0.79823 0.23056 0.0
C470 C 0.40185 0.79178 0.24708 0.0
C471 C 0.53771 0.76929 0.19264 0.0
H472 H 0.53746 0.76498 0.21041 0.0
H473 H 0.55454 0.7658 0.18617 0.0
H474 H 0.53437 0.78721 0.191 0.0
O475 O 0.49517 0.79844 0.20048 0.0
O476 O 0.47225 0.81667 0.22177 0.0
C477 C 0.5033 0.77567 0.25343 0.0
O478 O 0.43394 0.78797 0.20906 0.0
O479 O 0.45635 0.77015 0.18685 0.0
Zn480 Zn 0.03433 0.20703 0.72623 0.0
O481 O 0.05059 0.23566 0.73723 0.0
C482 C 0.05147 0.21468 0.68092 0.0
Zn483 Zn 0.0116 0.22823 0.70662 0.0
C484 C 0.04474 0.25488 0.73104 0.0
O485 O 0.02854 0.25699 0.71775 0.0
C486 C 0.0009 0.17995 0.70339 0.0
O487 O 0.98982 0.23098 0.73338 0.0
O488 O 0.01176 0.20958 0.75298 0.0
N489 N 0.99162 0.24714 0.687 0.0
C490 C 0.97106 0.24331 0.67934 0.0
C491 C 0.98516 0.26828 0.65904 0.0
N492 N 0.00021 0.26303 0.67462 0.0
N493 N 0.96663 0.2562 0.6617 0.0
C494 C 0.07633 0.18414 0.74487 0.0
C495 C 0.06222 0.15996 0.76628 0.0
N496 N 0.05428 0.18737 0.74493 0.0
N497 N 0.04556 0.17246 0.75839 0.0
N498 N 0.08174 0.16681 0.75795 0.0
H499 H 0.08616 0.21576 0.73149 0.0
H500 H 0.10866 0.19888 0.7416 0.0
H501 H 0.09509 0.19219 0.71595 0.0
C502 C 0.09251 0.19865 0.7329 0.0
C503 C 0.95588 0.22555 0.68758 0.0
H504 H 0.95996 0.22069 0.70477 0.0
H505 H 0.9385 0.23144 0.68688 0.0
H506 H 0.95717 0.21097 0.67654 0.0
O507 O 0.99502 0.19879 0.69614 0.0
O508 O 0.01768 0.17858 0.71588 0.0
C509 C 0.99404 0.22082 0.75129 0.0
O510 O 0.05635 0.20463 0.69874 0.0
O511 O 0.03356 0.22558 0.67989 0.0
Zn512 Zn 0.75258 0.95828 0.70605 0.0
O513 O 0.74407 0.94602 0.73728 0.0
C514 C 0.79764 0.93865 0.70995 0.0
Zn515 Zn 0.77633 0.98131 0.72212 0.0
C516 C 0.75362 0.95259 0.75482 0.0
O517 O 0.76862 0.96734 0.75368 0.0
C518 C 0.77371 0.9872 0.67307 0.0
O519 O 0.75122 0.00498 0.72621 0.0
O520 O 0.72793 0.98308 0.70904 0.0
N521 N 0.79968 0.00166 0.73575 0.0
C522 C 0.80725 0.02159 0.72915 0.0
C523 C 0.83045 0.00869 0.75231 0.0
N524 N 0.81402 0.9938 0.75032 0.0
N525 N 0.8268 0.02622 0.73899 0.0
C526 C 0.7296 0.91604 0.68824 0.0
C527 C 0.7054 0.92971 0.66662 0.0
N528 N 0.73014 0.93814 0.69089 0.0
N529 N 0.71483 0.94659 0.67768 0.0
N530 N 0.71443 0.91032 0.6729 0.0
H531 H 0.7476 0.9067 0.71757 0.0
H532 H 0.73455 0.884 0.70293 0.0
H533 H 0.75897 0.89667 0.69191 0.0
C534 C 0.74344 0.89994 0.70103 0.0
C535 C 0.79487 0.03698 0.71408 0.0
H536 H 0.77681 0.03478 0.71585 0.0
H537 H 0.79911 0.05445 0.7178 0.0
H538 H 0.79932 0.03352 0.69667 0.0
O539 O 0.78329 0.99463 0.69024 0.0
O540 O 0.76053 0.97102 0.67494 0.0
C541 C 0.73208 0.00152 0.71825 0.0
O542 O 0.77831 0.93396 0.7031 0.0
O543 O 0.80121 0.95762 0.7181 0.0
Zn544 Zn 0.70748 0.01003 0.23409 0.0
O545 O 0.73321 0.9872 0.23779 0.0
C546 C 0.70323 -0.00202 0.18616 0.0
Zn547 Zn 0.72786 0.03108 0.21201 0.0
C548 C 0.751 0.98985 0.22695 0.0
O549 O 0.75328 0.00687 0.21478 0.0
C550 C 0.6838 0.05105 0.2194 0.0
O551 O 0.74006 0.04731 0.24026 0.0
O552 O 0.71902 0.02742 0.26226 0.0
N553 N 0.74757 0.04923 0.19165 0.0
C554 C 0.74858 0.07111 0.18759 0.0
C555 C 0.76855 0.05497 0.16342 0.0
N556 N 0.76017 0.03924 0.17677 0.0
N557 N 0.76142 0.07515 0.16972 0.0
C558 C 0.68065 0.97015 0.25038 0.0
C559 C 0.65466 0.98605 0.26805 0.0
N560 N 0.6864 0.99154 0.25284 0.0
N561 N 0.6704 0.00131 0.26417 0.0
N562 N 0.6605 0.96637 0.25928 0.0
H563 H 0.71196 0.95354 0.24943 0.0
H564 H 0.6889 0.93581 0.24388 0.0
H565 H 0.69835 0.95525 0.2232 0.0
C566 C 0.69566 0.95263 0.2411 0.0
C567 C 0.73792 0.08846 0.20179 0.0
H568 H 0.73691 0.08291 0.2192 0.0
H569 H 0.74736 0.10418 0.20097 0.0
H570 H 0.72088 0.0916 0.19588 0.0
O571 O 0.70188 0.05483 0.20936 0.0
O572 O 0.6818 0.03331 0.23041 0.0
C573 C 0.73332 0.04264 0.25963 0.0
O574 O 0.69658 0.99268 0.20538 0.0
O575 O 0.71598 0.01448 0.18401 0.0
Zn576 Zn 0.29082 0.51444 0.26103 0.0
O577 O 0.26702 0.49026 0.25452 0.0
C578 C 0.29334 0.50009 0.30845 0.0
Zn579 Zn 0.26878 0.53388 0.28331 0.0
C580 C 0.24871 0.49195 0.26466 0.0
O581 O 0.2452 0.50856 0.2771 0.0
C582 C 0.31193 0.55545 0.27985 0.0
O583 O 0.25749 0.55183 0.25585 0.0
O584 O 0.27927 0.53322 0.23344 0.0
N585 N 0.24595 0.54917 0.3031 0.0
C586 C 0.24344 0.57011 0.31035 0.0
C587 C 0.21874 0.55052 0.32616 0.0
N588 N 0.23043 0.53711 0.31277 0.0
N589 N 0.22644 0.57138 0.32485 0.0
C590 C 0.32332 0.47891 0.24297 0.0
C591 C 0.34334 0.49831 0.22151 0.0
N592 N 0.31374 0.499 0.24142 0.0
N593 N 0.32599 0.51089 0.22771 0.0
N594 N 0.34203 0.4781 0.23081 0.0
H595 H 0.29875 0.4636 0.26407 0.0
H596 H 0.31659 0.4447 0.24956 0.0
H597 H 0.32741 0.45997 0.27245 0.0
C598 C 0.31588 0.46086 0.25821 0.0
C599 C 0.25907 0.58856 0.30484 0.0
H600 H 0.26393 0.58758 0.28717 0.0
H601 H 0.25191 0.60508 0.308 0.0
H602 H 0.27407 0.58686 0.31526 0.0
O603 O 0.29335 0.55825 0.2893 0.0
O604 O 0.3148 0.53864 0.26763 0.0
C605 C 0.26474 0.54821 0.23646 0.0
O606 O 0.3013 0.496 0.28939 0.0
O607 O 0.27975 0.51592 0.31072 0.0
Zn608 Zn 0.22982 0.45555 0.78931 0.0
O609 O 0.23864 0.44046 0.75944 0.0
C610 C 0.18543 0.43529 0.78689 0.0
Zn611 Zn 0.2066 0.47682 0.77038 0.0
C612 C 0.22949 0.44498 0.74107 0.0
O613 O 0.21457 0.45989 0.74032 0.0
C614 C 0.2084 0.48753 0.81891 0.0
O615 O 0.23157 0.49995 0.76379 0.0
O616 O 0.25419 0.48013 0.78418 0.0
N617 N 0.18313 0.49565 0.75484 0.0
C618 C 0.17575 0.51622 0.75944 0.0
C619 C 0.15212 0.50117 0.7381 0.0
N620 N 0.16853 0.48642 0.74139 0.0
N621 N 0.15608 0.51994 0.74947 0.0
C622 C 0.25487 0.41518 0.80893 0.0
C623 C 0.27766 0.43105 0.8306 0.0
N624 N 0.25236 0.43717 0.80627 0.0
N625 N 0.26669 0.44699 0.81958 0.0
N626 N 0.2705 0.41089 0.82436 0.0
H627 H 0.25277 0.38278 0.79408 0.0
H628 H 0.22702 0.39396 0.80416 0.0
H629 H 0.23862 0.40438 0.77902 0.0
C630 C 0.24273 0.39808 0.7957 0.0
C631 C 0.18832 0.53302 0.77272 0.0
H632 H 0.20636 0.5307 0.77085 0.0
H633 H 0.18393 0.55004 0.76739 0.0
H634 H 0.18418 0.53131 0.79048 0.0
O635 O 0.19939 0.4933 0.80081 0.0
O636 O 0.22145 0.4711 0.81905 0.0
C637 C 0.25044 0.4973 0.77263 0.0
O638 O 0.2047 0.43128 0.79433 0.0
O639 O 0.18187 0.45339 0.77688 0.0
Zn640 Zn 0.7255 0.78549 0.97961 0.0
O641 O 0.72832 0.76047 0.00373 0.0
C642 C 0.67643 0.78681 0.9865 0.0
Zn643 Zn 0.70718 0.76262 0.95744 0.0
C644 C 0.71843 0.74217 0.00082 0.0
O645 O 0.70835 0.7386 0.98273 0.0
C646 C 0.71409 0.80649 0.93655 0.0
O647 O 0.73725 0.75132 0.94484 0.0
O648 O 0.75609 0.77492 0.96508 0.0
N649 N 0.68983 0.74104 0.93829 0.0
C650 C 0.6875 0.73915 0.91622 0.0
C651 C 0.66354 0.71811 0.93115 0.0
N652 N 0.67511 0.72774 0.94753 0.0
N653 N 0.67083 0.72509 0.91126 0.0
C654 C 0.73571 0.81559 0.01964 0.0
C655 C 0.76098 0.83664 0.00715 0.0
N656 N 0.74147 0.80771 -0.00041 0.0
N657 N 0.75742 0.82066 0.99196 0.0
N658 N 0.74757 0.83375 0.0247 0.0
H659 H 0.7147 0.78862 0.03043 0.0
H660 H 0.72295 0.80776 0.05185 0.0
H661 H 0.7026 0.81588 0.03204 0.0
C662 C 0.718 0.8062 0.03424 0.0
C663 C 0.70224 0.75029 0.8997 0.0
H664 H 0.71909 0.75254 0.90654 0.0
H665 H 0.70321 0.74048 0.8842 0.0
H666 H 0.69543 0.76684 0.89576 0.0
O667 O 0.70617 0.78742 0.93259 0.0
O668 O 0.72261 0.81042 0.95533 0.0
C669 C 0.75568 0.75962 0.95055 0.0
O670 O 0.6944 0.79513 0.99351 0.0
O671 O 0.67704 0.77347 0.97035 0.0
Zn672 Zn 0.2213 0.71228 0.01834 0.0
O673 O 0.22925 0.73619 0.99451 0.0
C674 C 0.17312 0.71724 0.00746 0.0
Zn675 Zn 0.20381 0.7368 0.03964 0.0
C676 C 0.22198 0.75571 -0.00269 0.0
O677 O 0.21126 0.76038 0.01479 0.0
C678 C 0.20343 0.69251 0.06014 0.0
O679 O 0.23383 0.74333 0.05546 0.0
O680 O 0.2517 0.71897 0.03516 0.0
N681 N 0.18861 0.76153 0.05725 0.0
C682 C 0.18176 0.76343 0.0784 0.0
C683 C 0.16977 0.79165 0.06098 0.0
N684 N 0.18138 0.77926 0.04658 0.0
N685 N 0.16988 0.78221 0.08116 0.0
C686 C 0.23059 0.67941 0.98011 0.0
C687 C 0.25187 0.65604 0.99573 0.0
N688 N 0.23569 0.68753 0.00025 0.0
N689 N 0.24909 0.67308 0.00983 0.0
N690 N 0.24022 0.65944 0.97702 0.0
H691 H 0.21905 0.70968 0.965 0.0
H692 H 0.22242 0.68674 0.94616 0.0
H693 H 0.19948 0.68747 0.96506 0.0
C694 C 0.21721 0.69158 0.96309 0.0
C695 C 0.18502 0.74585 0.0956 0.0
H696 H 0.20199 0.73898 0.09432 0.0
H697 H 0.18266 0.75209 0.11261 0.0
H698 H 0.17283 0.73244 0.09278 0.0
O699 O 0.19665 0.71208 0.0638 0.0
O700 O 0.21356 0.6884 0.04224 0.0
C701 C 0.25172 0.73344 0.05051 0.0
O702 O 0.19047 0.7066 0.00209 0.0
O703 O 0.17386 0.73066 0.02356 0.0
Zn704 Zn 0.26587 0.28414 0.51254 0.0
O705 O 0.26388 0.26019 0.48755 0.0
C706 C 0.31512 0.28285 0.50735 0.0
Zn707 Zn 0.28212 0.25963 0.53463 0.0
C708 C 0.27088 0.24063 0.49068 0.0
O709 O 0.27894 0.23538 0.50939 0.0
C710 C 0.27677 0.30389 0.55603 0.0
O711 O 0.25111 0.25088 0.54696 0.0
O712 O 0.23418 0.27421 0.52476 0.0
N713 N 0.29733 0.23686 0.55436 0.0
C714 C 0.29954 0.23566 0.57649 0.0
C715 C 0.32135 0.21176 0.56254 0.0
N716 N 0.31067 0.22176 0.54572 0.0
N717 N 0.31471 0.22024 0.58206 0.0
C718 C 0.25898 0.31593 0.47314 0.0
C719 C 0.23247 0.33636 0.48419 0.0
N720 N 0.25174 0.3074 0.49242 0.0
N721 N 0.23507 0.31997 0.49915 0.0
N722 N 0.24733 0.33414 0.46774 0.0
H723 H 0.2798 0.28876 0.46244 0.0
H724 H 0.27402 0.30937 0.44156 0.0
H725 H 0.29301 0.31543 0.46341 0.0
C726 C 0.27746 0.30665 0.4594 0.0
C727 C 0.28632 0.24898 0.59272 0.0
H728 H 0.26981 0.25305 0.58587 0.0
H729 H 0.28436 0.23973 0.60847 0.0
H730 H 0.29509 0.26461 0.59638 0.0
O731 O 0.28506 0.28482 0.5594 0.0
O732 O 0.26771 0.30798 0.53755 0.0
C733 C 0.2333 0.25946 0.53981 0.0
O734 O 0.298 0.29329 0.501 0.0
O735 O 0.31315 0.26791 0.52191 0.0
Zn736 Zn 0.78706 0.2334 0.45796 0.0
O737 O 0.75891 0.24432 0.44142 0.0
C738 C 0.78366 0.18966 0.43672 0.0
Zn739 Zn 0.76639 0.21072 0.47816 0.0
C740 C 0.73992 0.23629 0.44537 0.0
O741 O 0.73784 0.22137 0.46012 0.0
C742 C 0.81401 0.20921 0.49088 0.0
O743 O 0.76041 0.23506 0.50197 0.0
O744 O 0.7816 0.25761 0.48293 0.0
N745 N 0.74813 0.1876 0.49477 0.0
C746 C 0.75089 0.17888 0.5151 0.0
C747 C 0.73011 0.15692 0.49706 0.0
N748 N 0.73495 0.17408 0.48369 0.0
N749 N 0.74014 0.15936 0.51682 0.0
C750 C 0.81095 0.25765 0.41955 0.0
C751 C 0.83329 0.2784 0.4372 0.0
N752 N 0.80658 0.25518 0.44126 0.0
N753 N 0.82032 0.26825 0.45218 0.0
N754 N 0.8279 0.27193 0.41655 0.0
H755 H 0.78062 0.24406 0.40653 0.0
H756 H 0.79819 0.25717 0.38622 0.0
H757 H 0.80537 0.23054 0.39753 0.0
C758 C 0.79796 0.24684 0.4014 0.0
C759 C 0.76303 0.19005 0.53363 0.0
H760 H 0.76114 0.20819 0.53258 0.0
H761 H 0.7567 0.18432 0.54989 0.0
H762 H 0.78085 0.18612 0.53267 0.0
O763 O 0.79535 0.2009 0.49585 0.0
O764 O 0.8152 0.22277 0.47493 0.0
C765 C 0.7697 0.25377 0.49987 0.0
O766 O 0.79221 0.20856 0.43334 0.0
O767 O 0.77256 0.18647 0.45423 0.0
C768 C 0.12306 0.33416 0.25091 0.0
C769 C 0.1092 0.33198 0.26947 0.0
C770 C 0.14096 0.34865 0.25124 0.0
C771 C 0.17371 0.38669 0.2872 0.0
H772 H 0.17981 0.41934 0.23223 0.0
C773 C 0.21636 0.4718 0.28042 0.0
C774 C 0.23263 0.47366 0.2639 0.0
C775 C 0.20264 0.45327 0.28124 0.0
C776 C 0.17842 0.41022 0.2476 0.0
H777 H 0.10362 0.34305 0.30305 0.0
H778 H 0.13422 0.36929 0.30332 0.0
H779 H 0.15441 0.38828 0.23412 0.0
H780 H 0.24695 0.45791 0.23498 0.0
H781 H 0.2224 0.42578 0.23606 0.0
H782 H 0.1971 0.40962 0.3008 0.0
C783 C 0.13179 0.35914 0.28877 0.0
C784 C 0.164 0.39228 0.2487 0.0
C785 C 0.11416 0.3442 0.2886 0.0
C786 C 0.2345 0.45695 0.24785 0.0
C787 C 0.22052 0.43858 0.24847 0.0
C788 C 0.1879 0.4049 0.28616 0.0
C789 C 0.14499 0.36203 0.2698 0.0
C790 C 0.16141 0.38029 0.26853 0.0
C791 C 0.20472 0.43647 0.26537 0.0
C792 C 0.19027 0.41683 0.26637 0.0
H793 H 0.11941 0.32597 0.23552 0.0
H794 H 0.15101 0.35008 0.23648 0.0
H795 H 0.17236 0.37769 0.30263 0.0
H796 H 0.21463 0.48434 0.29312 0.0
H797 H 0.19038 0.45208 0.29427 0.0
C798 C 0.2851 0.51548 0.78572 0.0
C799 C 0.26735 0.51473 0.77072 0.0
C800 C 0.30027 0.53284 0.78495 0.0
C801 C 0.32474 0.57316 0.74813 0.0
H802 H 0.33809 0.60638 0.8014 0.0
C803 C 0.38286 0.64759 0.74457 0.0
C804 C 0.39809 0.65016 0.76192 0.0
C805 C 0.3652 0.63293 0.74653 0.0
C806 C 0.33475 0.59713 0.78644 0.0
H807 H 0.25176 0.53127 0.74293 0.0
H808 H 0.27874 0.56134 0.74124 0.0
H809 H 0.31125 0.57621 0.80282 0.0
H810 H 0.40682 0.63927 0.79487 0.0
H811 H 0.3765 0.61283 0.79806 0.0
H812 H 0.34873 0.59318 0.73182 0.0
C813 C 0.2807 0.54858 0.75367 0.0
C814 C 0.31935 0.57993 0.78726 0.0
C815 C 0.26531 0.53142 0.75467 0.0
C816 C 0.39513 0.63782 0.78138 0.0
C817 C 0.37767 0.62281 0.78322 0.0
C818 C 0.34037 0.59008 0.74736 0.0
C819 C 0.29816 0.54953 0.76895 0.0
C820 C 0.31424 0.56784 0.76811 0.0
C821 C 0.36272 0.61988 0.76562 0.0
C822 C 0.34556 0.60232 0.76649 0.0
H823 H 0.287 0.50292 0.79837 0.0
H824 H 0.31374 0.53316 0.79676 0.0
H825 H 0.32124 0.56386 0.73321 0.0
H826 H 0.38511 0.65595 0.72895 0.0
H827 H 0.35386 0.63138 0.73276 0.0
C828 C 0.59183 0.1456 0.69252 0.0
C829 C 0.59634 0.1649 0.70451 0.0
C830 C 0.60757 0.12864 0.69148 0.0
C831 C 0.65313 0.10736 0.72534 0.0
H832 H 0.66412 0.06821 0.67571 0.0
C833 C 0.72058 0.0402 0.72729 0.0
C834 C 0.71558 0.01956 0.71785 0.0
C835 C 0.70601 0.05797 0.72503 0.0
C836 C 0.66101 0.0789 0.68977 0.0
H837 H 0.62085 0.18271 0.72335 0.0
H838 H 0.64877 0.15347 0.72105 0.0
H839 H 0.6398 0.10025 0.67096 0.0
H840 H 0.69111 0.00125 0.69901 0.0
H841 H 0.66551 0.0323 0.69534 0.0
H842 H 0.67413 0.08605 0.7442 0.0
C843 C 0.633 0.15105 0.7129 0.0
C844 C 0.64717 0.09726 0.68702 0.0
C845 C 0.61724 0.16784 0.71403 0.0
C846 C 0.69544 0.01694 0.70652 0.0
C847 C 0.68087 0.03476 0.70422 0.0
C848 C 0.66693 0.08908 0.72807 0.0
C849 C 0.62801 0.1309 0.70241 0.0
C850 C 0.64317 0.11173 0.70477 0.0
C851 C 0.68612 0.05552 0.71327 0.0
C852 C 0.67107 0.07467 0.71033 0.0
H853 H 0.57562 0.14306 0.68534 0.0
H854 H 0.6032 0.11328 0.68336 0.0
H855 H 0.64994 0.11786 0.73951 0.0
H856 H 0.73601 0.04282 0.73602 0.0
H857 H 0.71062 0.07382 0.73201 0.0
C858 C 0.88371 0.83892 0.24996 0.0
C859 C 0.8979 0.83523 0.23192 0.0
C860 C 0.86655 0.85428 0.24846 0.0
C861 C 0.83507 0.88992 0.20923 0.0
H862 H 0.82571 0.92518 0.26207 0.0
C863 C 0.78454 0.97152 0.21103 0.0
C864 C 0.76833 0.97268 0.22767 0.0
C865 C 0.80006 0.95436 0.211 0.0
C866 C 0.82807 0.91537 0.24725 0.0
H867 H 0.90525 0.84475 0.19822 0.0
H868 H 0.87576 0.87228 0.19577 0.0
H869 H 0.85271 0.89532 0.26261 0.0
H870 H 0.75587 0.9571 0.25752 0.0
H871 H 0.78331 0.92744 0.2577 0.0
H872 H 0.81076 0.91069 0.19379 0.0
C873 C 0.87738 0.86274 0.21084 0.0
C874 C 0.84341 0.89814 0.24756 0.0
C875 C 0.89435 0.84708 0.21225 0.0
C876 C 0.76817 0.95663 0.24448 0.0
C877 C 0.78388 0.9397 0.24463 0.0
C878 C 0.8199 0.9074 0.20885 0.0
C879 C 0.86355 0.86685 0.22912 0.0
C880 C 0.847 0.88507 0.22861 0.0
C881 C 0.79983 0.93832 0.2278 0.0
C882 C 0.81621 0.92017 0.22791 0.0
H883 H 0.88646 0.83093 0.26568 0.0
H884 H 0.85603 0.85673 0.26276 0.0
H885 H 0.83723 0.88007 0.19442 0.0
H886 H 0.78496 0.98359 0.19778 0.0
H887 H 0.81233 0.9537 0.19795 0.0
C888 C 0.26684 0.23183 0.45056 0.0
C889 C 0.27051 0.22454 0.47233 0.0
C890 C 0.26713 0.21687 0.43299 0.0
C891 C 0.28515 0.16013 0.4177 0.0
H892 H 0.24221 0.16764 0.37064 0.0
C893 C 0.28157 0.09994 0.3438 0.0
C894 C 0.26031 0.09334 0.33733 0.0
C895 C 0.28434 0.11781 0.35823 0.0
C896 C 0.25426 0.16524 0.38369 0.0
H897 H 0.27726 0.19587 0.4928 0.0
H898 H 0.27699 0.16957 0.46221 0.0
H899 H 0.24356 0.19433 0.40064 0.0
H900 H 0.22528 0.09959 0.34128 0.0
H901 H 0.22991 0.13058 0.36644 0.0
H902 H 0.29502 0.13037 0.40133 0.0
C903 C 0.27445 0.18694 0.45862 0.0
C904 C 0.25522 0.18072 0.40078 0.0
C905 C 0.27442 0.20197 0.47619 0.0
C906 C 0.24186 0.10493 0.34534 0.0
C907 C 0.24457 0.12264 0.35985 0.0
C908 C 0.28403 0.14452 0.4007 0.0
C909 C 0.27084 0.19423 0.4368 0.0
C910 C 0.27052 0.17824 0.41813 0.0
C911 C 0.26582 0.12914 0.3667 0.0
C912 C 0.26838 0.14675 0.38364 0.0
H913 H 0.26405 0.24918 0.447 0.0
H914 H 0.26469 0.22314 0.41638 0.0
H915 H 0.29739 0.15791 0.43059 0.0
H916 H 0.29597 0.09103 0.33792 0.0
H917 H 0.30094 0.12254 0.36298 0.0
C918 C 0.20873 0.89473 0.85146 0.0
C919 C 0.22767 0.89707 0.8382 0.0
C920 C 0.20746 0.87788 0.86725 0.0
C921 C 0.24476 0.84162 0.8998 0.0
H922 H 0.18985 0.81406 0.91815 0.0
C923 C 0.2391 0.76898 0.96206 0.0
C924 C 0.22408 0.77223 0.97951 0.0
C925 C 0.23967 0.78374 0.94429 0.0
C926 C 0.20526 0.82172 0.91316 0.0
H927 H 0.2603 0.88353 0.83158 0.0
H928 H 0.25732 0.85325 0.85737 0.0
H929 H 0.18987 0.83942 0.88667 0.0
H930 H 0.19795 0.79347 0.99212 0.0
H931 H 0.1988 0.81903 0.96084 0.0
H932 H 0.26013 0.82345 0.92607 0.0
C933 C 0.24356 0.86466 0.856 0.0
C934 C 0.20529 0.83629 0.89522 0.0
C935 C 0.24501 0.88175 0.84061 0.0
C936 C 0.20982 0.79062 0.97899 0.0
C937 C 0.21014 0.80513 0.96104 0.0
C938 C 0.24476 0.82678 0.91747 0.0
C939 C 0.2251 0.86291 0.87002 0.0
C940 C 0.22503 0.84655 0.8884 0.0
C941 C 0.22496 0.80172 0.94351 0.0
C942 C 0.225 0.81688 0.9244 0.0
H943 H 0.19528 0.90651 0.85018 0.0
H944 H 0.19309 0.87727 0.87793 0.0
H945 H 0.26019 0.84959 0.89547 0.0
H946 H 0.25022 0.75491 0.96202 0.0
H947 H 0.25123 0.78081 0.93089 0.0
C948 C 0.76004 0.26408 0.53869 0.0
C949 C 0.76794 0.27033 0.51772 0.0
C950 C 0.75995 0.27918 0.55613 0.0
C951 C 0.7575 0.3376 0.56894 0.0
H952 H 0.78425 0.32118 0.62501 0.0
C953 C 0.74406 0.38768 0.6483 0.0
C954 C 0.7634 0.39449 0.65918 0.0
C955 C 0.74505 0.3717 0.63173 0.0
C956 C 0.77679 0.32593 0.60941 0.0
H957 H 0.78138 0.29744 0.49842 0.0
H958 H 0.78062 0.32406 0.52891 0.0
H959 H 0.78497 0.29506 0.59394 0.0
H960 H 0.79879 0.39008 0.6616 0.0
H961 H 0.80055 0.36142 0.6327 0.0
H962 H 0.74899 0.3683 0.58446 0.0
C963 C 0.77477 0.30737 0.53178 0.0
C964 C 0.77709 0.31102 0.59175 0.0
C965 C 0.7752 0.29215 0.51439 0.0
C966 C 0.7837 0.38474 0.65357 0.0
C967 C 0.78467 0.36846 0.63714 0.0
C968 C 0.75688 0.35234 0.58668 0.0
C969 C 0.7674 0.3009 0.55284 0.0
C970 C 0.76743 0.31676 0.5714 0.0
C971 C 0.76538 0.36219 0.6258 0.0
C972 C 0.76647 0.3466 0.60706 0.0
H973 H 0.75435 0.24739 0.5418 0.0
H974 H 0.75397 0.27392 0.57219 0.0
H975 H 0.74987 0.34232 0.55342 0.0
H976 H 0.72834 0.39547 0.65191 0.0
H977 H 0.72997 0.36706 0.62323 0.0
C978 C 0.73342 0.61453 0.15263 0.0
C979 C 0.71651 0.59905 0.15654 0.0
C980 C 0.72987 0.63249 0.13861 0.0
C981 C 0.70137 0.64494 0.08859 0.0
H982 H 0.71949 0.70552 0.09936 0.0
C983 C 0.69986 0.71033 0.01927 0.0
C984 C 0.71696 0.72602 0.01902 0.0
C985 C 0.69725 0.69616 0.0373 0.0
C986 C 0.71459 0.68862 0.096 0.0
H987 H 0.68262 0.5904 0.14892 0.0
H988 H 0.67662 0.6216 0.12365 0.0
H989 H 0.71857 0.67916 0.12997 0.0
H990 H 0.745 0.739 0.03717 0.0
H991 H 0.74122 0.71351 0.06816 0.0
H992 H 0.69868 0.65374 0.05452 0.0
C993 C 0.69241 0.61998 0.13198 0.0
C994 C 0.71384 0.67365 0.11358 0.0
C995 C 0.69583 0.60222 0.14639 0.0
C996 C 0.73165 0.72705 0.03695 0.0
C997 C 0.72929 0.71261 0.05483 0.0
C998 C 0.70247 0.65978 0.07095 0.0
C999 C 0.70957 0.63501 0.12769 0.0
C1000 C 0.70749 0.65164 0.10995 0.0
C1001 C 0.71193 0.6971 0.05533 0.0
C1002 C 0.70941 0.68173 0.07436 0.0
H1003 H 0.74987 0.61208 0.15911 0.0
H1004 H 0.74352 0.64358 0.13515 0.0
H1005 H 0.69677 0.62793 0.08534 0.0
H1006 H 0.68806 0.7094 0.00581 0.0
H1007 H 0.68347 0.68473 0.03724 0.0
C1008 C 0.34346 0.28968 0.10786 0.0
C1009 C 0.33071 0.27059 0.10427 0.0
C1010 C 0.35804 0.29089 0.12575 0.0
C1011 C 0.3893 0.25247 0.16157 0.0
H1012 H 0.40949 0.30667 0.18927 0.0
C1013 C 0.4554 0.25521 0.23058 0.0
C1014 C 0.47294 0.26993 0.22667 0.0
C1015 C 0.43666 0.25557 0.21711 0.0
C1016 C 0.40396 0.29144 0.1816 0.0
H1017 H 0.32305 0.23802 0.11739 0.0
H1018 H 0.3466 0.24095 0.14938 0.0
H1019 H 0.37723 0.30758 0.1649 0.0
H1020 H 0.48466 0.2966 0.20568 0.0
H1021 H 0.45169 0.29735 0.18227 0.0
H1022 H 0.41591 0.23638 0.17853 0.0
C1023 C 0.34592 0.25478 0.13801 0.0
C1024 C 0.38555 0.29194 0.16763 0.0
C1025 C 0.3318 0.25335 0.11985 0.0
C1026 C 0.47147 0.28493 0.20896 0.0
C1027 C 0.45256 0.28553 0.19573 0.0
C1028 C 0.40743 0.25194 0.1758 0.0
C1029 C 0.35999 0.27308 0.14062 0.0
C1030 C 0.37816 0.27249 0.15719 0.0
C1031 C 0.43499 0.27092 0.19976 0.0
C1032 C 0.41509 0.27145 0.18566 0.0
H1033 H 0.3431 0.30314 0.09603 0.0
H1034 H 0.3687 0.30521 0.12705 0.0
H1035 H 0.38456 0.23724 0.15344 0.0
H1036 H 0.45606 0.24353 0.24417 0.0
H1037 H 0.42327 0.24416 0.22051 0.0
C1038 C 0.85415 0.2062 0.89772 0.0
C1039 C 0.84256 0.22611 0.90089 0.0
C1040 C 0.87043 0.20455 0.88135 0.0
C1041 C 0.90738 0.24058 0.84834 0.0
H1042 H 0.91812 0.18724 0.81431 0.0
C1043 C 0.9617 0.23796 0.7703 0.0
C1044 C 0.97793 0.22134 0.76956 0.0
C1045 C 0.94577 0.23797 0.78699 0.0
C1046 C 0.91535 0.20215 0.82388 0.0
H1047 H 0.83952 0.26007 0.88967 0.0
H1048 H 0.86634 0.25676 0.86022 0.0
H1049 H 0.88798 0.18802 0.84132 0.0
H1050 H 0.99023 0.19163 0.78555 0.0
H1051 H 0.96197 0.19147 0.81461 0.0
H1052 H 0.93431 0.25488 0.83034 0.0
C1053 C 0.86321 0.24245 0.87054 0.0
C1054 C 0.89816 0.20261 0.83935 0.0
C1055 C 0.84728 0.24418 0.88709 0.0
C1056 C 0.97799 0.20473 0.78584 0.0
C1057 C 0.96178 0.20453 0.80233 0.0
C1058 C 0.92429 0.2402 0.83268 0.0
C1059 C 0.8754 0.22282 0.86782 0.0
C1060 C 0.89386 0.22192 0.85162 0.0
C1061 C 0.94558 0.22116 0.803 0.0
C1062 C 0.92833 0.22105 0.82025 0.0
H1063 H 0.85105 0.19214 0.90839 0.0
H1064 H 0.87965 0.18924 0.8799 0.0
H1065 H 0.90499 0.25553 0.85793 0.0
H1066 H 0.96126 0.25096 0.75796 0.0
H1067 H 0.93333 0.25089 0.78714 0.0
C1068 C 0.53967 0.76236 0.26779 0.0
C1069 C 0.52193 0.77732 0.26907 0.0
C1070 C 0.55816 0.76496 0.28135 0.0
C1071 C 0.57722 0.79328 0.3324 0.0
H1072 H 0.63491 0.77552 0.31047 0.0
C1073 C 0.65519 0.79915 0.38643 0.0
C1074 C 0.66486 0.77821 0.38961 0.0
C1075 C 0.64028 0.80271 0.36912 0.0
C1076 C 0.61891 0.78072 0.31669 0.0
H1077 H 0.50967 0.80684 0.28538 0.0
H1078 H 0.54219 0.8118 0.30861 0.0
H1079 H 0.60299 0.77451 0.28576 0.0
H1080 H 0.66629 0.74467 0.37678 0.0
H1081 H 0.6415 0.75126 0.34605 0.0
H1082 H 0.59331 0.7995 0.36333 0.0
C1083 C 0.54163 0.79768 0.29759 0.0
C1084 C 0.60057 0.77993 0.30267 0.0
C1085 C 0.52297 0.79486 0.28427 0.0
C1086 C 0.66017 0.76127 0.37437 0.0
C1087 C 0.64565 0.76496 0.35684 0.0
C1088 C 0.59563 0.79442 0.34629 0.0
C1089 C 0.55952 0.78281 0.29625 0.0
C1090 C 0.57938 0.78564 0.31052 0.0
C1091 C 0.63501 0.78546 0.35451 0.0
C1092 C 0.61651 0.78767 0.3387 0.0
H1093 H 0.53929 0.74866 0.25624 0.0
H1094 H 0.57133 0.75285 0.28022 0.0
H1095 H 0.56118 0.79754 0.33917 0.0
H1096 H 0.65834 0.81242 0.39805 0.0
H1097 H 0.63224 0.81868 0.36763 0.0
C1098 C 0.15556 0.73974 0.61387 0.0
C1099 C 0.15813 0.72142 0.59978 0.0
C1100 C 0.14005 0.7394 0.63093 0.0
C1101 C 0.10018 0.70338 0.66136 0.0
H1102 H 0.06846 0.75887 0.66806 0.0
C1103 C 0.01549 0.71124 0.70526 0.0
C1104 C 0.01447 0.72753 0.72184 0.0
C1105 C 0.0336 0.71027 0.69094 0.0
C1106 C 0.07728 0.74333 0.66644 0.0
H1107 H 0.14669 0.68823 0.59288 0.0
H1108 H 0.11883 0.68789 0.62207 0.0
H1109 H 0.09998 0.75687 0.64313 0.0
H1110 H 0.03119 0.75592 0.73603 0.0
H1111 H 0.06252 0.75457 0.71051 0.0
H1112 H 0.07664 0.68979 0.68416 0.0
C1113 C 0.12935 0.70229 0.62046 0.0
C1114 C 0.09548 0.74217 0.65231 0.0
C1115 C 0.14523 0.70248 0.60365 0.0
C1116 C 0.03152 0.74323 0.72337 0.0
C1117 C 0.04942 0.74247 0.70881 0.0
C1118 C 0.08172 0.70449 0.67526 0.0
C1119 C 0.12613 0.72103 0.6339 0.0
C1120 C 0.10723 0.72221 0.64962 0.0
C1121 C 0.05077 0.72578 0.69271 0.0
C1122 C 0.07017 0.72448 0.67791 0.0
H1123 H 0.16436 0.75498 0.61099 0.0
H1124 H 0.13836 0.75397 0.64122 0.0
H1125 H 0.10895 0.68782 0.65991 0.0
H1126 H 0.00267 0.69882 0.7038 0.0
H1127 H 0.03421 0.69738 0.67849 0.0
C1128 C 0.88772 0.64989 0.69759 0.0
C1129 C 0.8909 0.66033 0.71814 0.0
C1130 C 0.87072 0.6345 0.69474 0.0
C1131 C 0.81838 0.61433 0.71747 0.0
H1132 H 0.8395 0.55571 0.70195 0.0
C1133 C 0.76725 0.53718 0.73733 0.0
C1134 C 0.76757 0.51937 0.72244 0.0
C1135 C 0.78168 0.55495 0.7346 0.0
C1136 C 0.83316 0.57201 0.70587 0.0
H1137 H 0.87875 0.66223 0.75191 0.0
H1138 H 0.84845 0.63661 0.74653 0.0
H1139 H 0.86446 0.58726 0.69932 0.0
H1140 H 0.78329 0.50607 0.69305 0.0
H1141 H 0.80813 0.53739 0.68787 0.0
H1142 H 0.78709 0.59931 0.72397 0.0
C1143 C 0.85897 0.64058 0.73256 0.0
C1144 C 0.84748 0.59006 0.70436 0.0
C1145 C 0.87621 0.65557 0.73554 0.0
C1146 C 0.78286 0.51948 0.70494 0.0
C1147 C 0.7971 0.53744 0.70199 0.0
C1148 C 0.80395 0.59636 0.71866 0.0
C1149 C 0.85642 0.62951 0.71234 0.0
C1150 C 0.84034 0.61125 0.71064 0.0
C1151 C 0.79652 0.55551 0.71666 0.0
C1152 C 0.81133 0.57488 0.71345 0.0
H1153 H 0.89897 0.65305 0.684 0.0
H1154 H 0.86907 0.62608 0.679 0.0
H1155 H 0.81251 0.63058 0.72227 0.0
H1156 H 0.75569 0.53748 0.75104 0.0
H1157 H 0.78117 0.56825 0.74659 0.0
C1158 C 0.61543 0.33545 0.23044 0.0
C1159 C 0.60027 0.33133 0.21328 0.0
C1160 C 0.63293 0.35012 0.22736 0.0
C1161 C 0.64402 0.40109 0.19998 0.0
H1162 H 0.7047 0.39188 0.21864 0.0
C1163 C 0.70769 0.47207 0.1996 0.0
C1164 C 0.72354 0.47242 0.21658 0.0
C1165 C 0.69374 0.45388 0.19699 0.0
C1166 C 0.68776 0.39481 0.21362 0.0
H1167 H 0.59176 0.33927 0.17941 0.0
H1168 H 0.62214 0.36568 0.17425 0.0
H1169 H 0.67938 0.36049 0.21685 0.0
H1170 H 0.73687 0.45431 0.24452 0.0
H1171 H 0.71177 0.42303 0.24073 0.0
H1172 H 0.65174 0.43548 0.198 0.0
C1173 C 0.62064 0.357 0.18987 0.0
C1174 C 0.67338 0.37678 0.21236 0.0
C1175 C 0.60335 0.34193 0.1928 0.0
C1176 C 0.72481 0.45447 0.23126 0.0
C1177 C 0.7106 0.43642 0.22889 0.0
C1178 C 0.65826 0.41918 0.20159 0.0
C1179 C 0.6353 0.3615 0.2073 0.0
C1180 C 0.65134 0.37983 0.20577 0.0
C1181 C 0.69507 0.43576 0.21154 0.0
C1182 C 0.68024 0.41633 0.20873 0.0
H1183 H 0.61303 0.32869 0.24678 0.0
H1184 H 0.64373 0.3537 0.24121 0.0
H1185 H 0.62696 0.40389 0.19522 0.0
H1186 H 0.70654 0.48553 0.18781 0.0
H1187 H 0.68228 0.45385 0.18324 0.0
C1188 C 0.37782 0.83791 0.25823 0.0
C1189 C 0.39318 0.83498 0.27545 0.0
C1190 C 0.35971 0.85197 0.26091 0.0
C1191 C 0.34594 0.90299 0.28779 0.0
H1192 H 0.28592 0.89055 0.26895 0.0
C1193 C 0.27801 0.97004 0.28926 0.0
C1194 C 0.26232 0.96984 0.27212 0.0
C1195 C 0.29302 0.95263 0.29161 0.0
C1196 C 0.30267 0.89438 0.27402 0.0
H1197 H 0.40146 0.84435 0.309 0.0
H1198 H 0.36994 0.86955 0.3135 0.0
H1199 H 0.31301 0.86059 0.27059 0.0
H1200 H 0.25036 0.95156 0.24369 0.0
H1201 H 0.27721 0.92168 0.24713 0.0
H1202 H 0.33618 0.93686 0.29013 0.0
C1203 C 0.3718 0.86052 0.29813 0.0
C1204 C 0.31807 0.87717 0.27516 0.0
C1205 C 0.38973 0.84612 0.29558 0.0
C1206 C 0.26225 0.95213 0.25709 0.0
C1207 C 0.27749 0.93488 0.25923 0.0
C1208 C 0.33066 0.92025 0.28634 0.0
C1209 C 0.35689 0.86386 0.28064 0.0
C1210 C 0.33988 0.88139 0.28185 0.0
C1211 C 0.29291 0.93478 0.27668 0.0
C1212 C 0.30889 0.91622 0.27919 0.0
H1213 H 0.38046 0.8306 0.24215 0.0
H1214 H 0.3487 0.85463 0.24701 0.0
H1215 H 0.36279 0.90671 0.29263 0.0
H1216 H 0.27829 0.98333 0.30129 0.0
H1217 H 0.3044 0.95299 0.30544 0.0
C1218 C 0.23451 0.0351 0.74873 0.0
C1219 C 0.23269 0.01912 0.76552 0.0
C1220 C 0.21987 0.05298 0.74799 0.0
C1221 C 0.18419 0.08722 0.78233 0.0
H1222 H 0.15113 0.09815 0.72849 0.0
C1223 C 0.10722 0.14365 0.77967 0.0
C1224 C 0.10228 0.15492 0.75997 0.0
C1225 C 0.1253 0.12927 0.78078 0.0
C1226 C 0.16055 0.09574 0.74353 0.0
H1227 H 0.21431 0.0094 0.79481 0.0
H1228 H 0.18893 0.04086 0.79362 0.0
H1229 H 0.17861 0.06875 0.72932 0.0
H1230 H 0.11245 0.15954 0.72584 0.0
H1231 H 0.14479 0.13611 0.72824 0.0
H1232 H 0.16644 0.11436 0.79654 0.0
C1233 C 0.20163 0.03944 0.78104 0.0
C1234 C 0.17618 0.07877 0.744 0.0
C1235 C 0.21601 0.02138 0.78158 0.0
C1236 C 0.11621 0.15201 0.74158 0.0
C1237 C 0.13451 0.13799 0.7428 0.0
C1238 C 0.16879 0.10446 0.78178 0.0
C1239 C 0.20344 0.05536 0.76424 0.0
C1240 C 0.1879 0.07418 0.76347 0.0
C1241 C 0.13892 0.12594 0.76219 0.0
C1242 C 0.15656 0.10876 0.76245 0.0
H1243 H 0.24725 0.0338 0.73618 0.0
H1244 H 0.22157 0.06511 0.7349 0.0
H1245 H 0.19324 0.08408 0.79748 0.0
H1246 H 0.09658 0.14539 0.79399 0.0
H1247 H 0.12793 0.12005 0.79591 0.0
C1248 C 0.6933 0.88138 0.65353 0.0
C1249 C 0.71365 0.89043 0.65998 0.0
C1250 C 0.6926 0.86381 0.63845 0.0
C1251 C 0.7284 0.82179 0.61076 0.0
H1252 H 0.68457 0.82548 0.56411 0.0
C1253 C 0.7248 0.75747 0.54063 0.0
C1254 C 0.71944 0.76498 0.51929 0.0
C1255 C 0.72291 0.77152 0.55883 0.0
C1256 C 0.69705 0.82432 0.57691 0.0
H1257 H 0.7491 0.88896 0.65509 0.0
H1258 H 0.74806 0.85853 0.62906 0.0
H1259 H 0.68315 0.85153 0.5948 0.0
H1260 H 0.70838 0.7933 0.50022 0.0
H1261 H 0.70598 0.81818 0.53191 0.0
H1262 H 0.74308 0.79547 0.59235 0.0
C1263 C 0.73261 0.8642 0.63617 0.0
C1264 C 0.69599 0.83902 0.59473 0.0
C1265 C 0.73326 0.88159 0.65125 0.0
C1266 C 0.7126 0.78701 0.51647 0.0
C1267 C 0.71098 0.80119 0.53468 0.0
C1268 C 0.72961 0.80728 0.59286 0.0
C1269 C 0.71228 0.85524 0.62935 0.0
C1270 C 0.71186 0.83814 0.6117 0.0
C1271 C 0.71594 0.79355 0.55612 0.0
C1272 C 0.7141 0.80852 0.57557 0.0
H1273 H 0.67799 0.88825 0.65984 0.0
H1274 H 0.67667 0.85718 0.63366 0.0
H1275 H 0.74071 0.82042 0.62371 0.0
H1276 H 0.72999 0.74055 0.54343 0.0
H1277 H 0.72655 0.76494 0.57509 0.0
C1278 C 0.74838 0.22384 0.03444 0.0
C1279 C 0.76522 0.22333 0.01843 0.0
C1280 C 0.74819 0.20845 0.05165 0.0
C1281 C 0.78439 0.17326 0.08442 0.0
H1282 H 0.73112 0.14012 0.09755 0.0
C1283 C 0.78287 0.09873 0.14442 0.0
C1284 C 0.76348 0.09491 0.15661 0.0
C1285 C 0.78379 0.11584 0.12889 0.0
C1286 C 0.74604 0.14953 0.09445 0.0
H1287 H 0.79502 0.2063 0.00779 0.0
H1288 H 0.79476 0.17953 0.03808 0.0
H1289 H 0.73097 0.16688 0.06748 0.0
H1290 H 0.72968 0.10597 0.16167 0.0
H1291 H 0.73179 0.13665 0.13613 0.0
H1292 H 0.79941 0.15627 0.11161 0.0
C1293 C 0.78174 0.19183 0.03723 0.0
C1294 C 0.74594 0.16474 0.07711 0.0
C1295 C 0.78175 0.20701 0.01983 0.0
C1296 C 0.74523 0.10896 0.15341 0.0
C1297 C 0.74625 0.12626 0.13821 0.0
C1298 C 0.78442 0.15825 0.102 0.0
C1299 C 0.76501 0.19251 0.05333 0.0
C1300 C 0.76513 0.17663 0.07188 0.0
C1301 C 0.76529 0.12953 0.12529 0.0
C1302 C 0.76525 0.14614 0.10718 0.0
H1303 H 0.73544 0.23624 0.03379 0.0
H1304 H 0.73516 0.20932 0.06395 0.0
H1305 H 0.79934 0.18246 0.0808 0.0
H1306 H 0.79705 0.08793 0.14636 0.0
H1307 H 0.79865 0.11767 0.11905 0.0
C1308 C 0.21463 0.70002 0.47661 0.0
C1309 C 0.21863 0.72239 0.47188 0.0
C1310 C 0.21302 0.68459 0.45951 0.0
C1311 C 0.2269 0.67643 0.40028 0.0
H1312 H 0.18702 0.62656 0.40637 0.0
C1313 C 0.21602 0.61024 0.33215 0.0
C1314 C 0.22093 0.5889 0.33988 0.0
C1315 C 0.21267 0.62755 0.34713 0.0
C1316 C 0.19813 0.64048 0.40445 0.0
H1317 H 0.22376 0.74628 0.4456 0.0
H1318 H 0.22029 0.71951 0.41572 0.0
H1319 H 0.18749 0.65527 0.43475 0.0
H1320 H 0.22438 0.56834 0.36897 0.0
H1321 H 0.21791 0.59844 0.39523 0.0
H1322 H 0.23736 0.66156 0.36985 0.0
C1323 C 0.219 0.7137 0.43262 0.0
C1324 C 0.19858 0.65683 0.42076 0.0
C1325 C 0.22094 0.72907 0.44974 0.0
C1326 C 0.22082 0.58476 0.36271 0.0
C1327 C 0.21709 0.60191 0.37767 0.0
C1328 C 0.2262 0.66025 0.38382 0.0
C1329 C 0.21502 0.69125 0.43729 0.0
C1330 C 0.21331 0.67476 0.41912 0.0
C1331 C 0.2135 0.62354 0.37001 0.0
C1332 C 0.21213 0.64194 0.386 0.0
H1333 H 0.21285 0.6944 0.49354 0.0
H1334 H 0.21044 0.66738 0.46378 0.0
H1335 H 0.23868 0.68981 0.39857 0.0
H1336 H 0.21513 0.61354 0.31457 0.0
H1337 H 0.2096 0.64408 0.34088 0.0
C1338 C 0.26383 0.26328 0.95515 0.0
C1339 C 0.27839 0.26451 0.97318 0.0
C1340 C 0.2664 0.27743 0.93709 0.0
C1341 C 0.29328 0.33004 0.92054 0.0
H1342 H 0.27629 0.31038 0.86186 0.0
C1343 C 0.29697 0.38753 0.84471 0.0
C1344 C 0.27578 0.39057 0.83561 0.0
C1345 C 0.30122 0.3698 0.85894 0.0
C1346 C 0.28131 0.31595 0.87814 0.0
H1347 H 0.3073 0.28113 0.98634 0.0
H1348 H 0.31226 0.30531 0.95456 0.0
H1349 H 0.27619 0.28407 0.89253 0.0
H1350 H 0.24239 0.37737 0.83482 0.0
H1351 H 0.25016 0.3459 0.85836 0.0
H1352 H 0.29839 0.36192 0.90597 0.0
C1353 C 0.29843 0.29394 0.95457 0.0
C1354 C 0.28102 0.30101 0.89576 0.0
C1355 C 0.29561 0.28006 0.9728 0.0
C1356 C 0.25918 0.37502 0.84041 0.0
C1357 C 0.26355 0.35708 0.85421 0.0
C1358 C 0.29394 0.34483 0.90284 0.0
C1359 C 0.28384 0.29283 0.93647 0.0
C1360 C 0.28639 0.30803 0.91731 0.0
C1361 C 0.2844 0.35466 0.86405 0.0
C1362 C 0.28743 0.33804 0.88164 0.0
H1363 H 0.25039 0.25144 0.95504 0.0
H1364 H 0.25451 0.27642 0.92373 0.0
H1365 H 0.29724 0.33617 0.93689 0.0
H1366 H 0.30998 0.39941 0.84149 0.0
H1367 H 0.31741 0.36828 0.86648 0.0
C1368 C 0.5371 0.73638 0.76226 0.0
C1369 C 0.52081 0.71983 0.76278 0.0
C1370 C 0.55458 0.736 0.77729 0.0
C1371 C 0.58742 0.69946 0.81218 0.0
H1372 H 0.60035 0.75286 0.84523 0.0
C1373 C 0.64736 0.70235 0.88697 0.0
C1374 C 0.65895 0.72212 0.89084 0.0
C1375 C 0.63225 0.70081 0.86954 0.0
C1376 C 0.59732 0.73791 0.83584 0.0
H1377 H 0.51011 0.68981 0.7793 0.0
H1378 H 0.54091 0.68909 0.80554 0.0
H1379 H 0.57017 0.75282 0.81872 0.0
H1380 H 0.66356 0.75577 0.87912 0.0
H1381 H 0.63897 0.75252 0.84794 0.0
H1382 H 0.61481 0.68461 0.82907 0.0
C1383 C 0.54003 0.70233 0.79349 0.0
C1384 C 0.5799 0.73789 0.82077 0.0
C1385 C 0.52234 0.70288 0.77863 0.0
C1386 C 0.65584 0.73995 0.87625 0.0
C1387 C 0.64112 0.73829 0.85862 0.0
C1388 C 0.6051 0.69954 0.8271 0.0
C1389 C 0.55626 0.71891 0.79293 0.0
C1390 C 0.57477 0.71868 0.80885 0.0
C1391 C 0.6285 0.71903 0.85555 0.0
C1392 C 0.61026 0.7188 0.83909 0.0
H1393 H 0.53638 0.74963 0.7502 0.0
H1394 H 0.56698 0.7489 0.7765 0.0
H1395 H 0.58383 0.68449 0.80301 0.0
H1396 H 0.64925 0.68845 0.89812 0.0
H1397 H 0.62269 0.68577 0.8678 0.0
C1398 C 0.04281 0.76363 0.23425 0.0
C1399 C 0.02066 0.76722 0.22826 0.0
C1400 C 0.05982 0.76778 0.21923 0.0
C1401 C 0.07152 0.79786 0.16691 0.0
H1402 H 0.1234 0.76004 0.16588 0.0
C1403 C 0.13194 0.7888 0.0938 0.0
C1404 C 0.1546 0.7873 0.09858 0.0
C1405 C 0.11651 0.79045 0.11087 0.0
C1406 C 0.10917 0.77096 0.16626 0.0
H1407 H -0.00117 0.77735 0.20169 0.0
H1408 H 0.02845 0.7836 0.17502 0.0
H1409 H 0.09412 0.75285 0.19256 0.0
H1410 H 0.17923 0.78882 0.12446 0.0
H1411 H 0.15206 0.79078 0.15469 0.0
H1412 H 0.0863 0.81517 0.1397 0.0
C1413 C 0.03279 0.77828 0.19157 0.0
C1414 C 0.09236 0.76685 0.18153 0.0
C1415 C 0.01578 0.77445 0.20674 0.0
C1416 C 0.16175 0.78919 0.12057 0.0
C1417 C 0.1463 0.79045 0.13773 0.0
C1418 C 0.08821 0.80173 0.15141 0.0
C1419 C 0.05504 0.77531 0.19775 0.0
C1420 C 0.07322 0.78012 0.18191 0.0
C1421 C 0.12354 0.79049 0.13299 0.0
C1422 C 0.10707 0.78819 0.15086 0.0
H1423 H 0.04713 0.75847 0.25082 0.0
H1424 H 0.07673 0.76565 0.22472 0.0
H1425 H 0.05727 0.80873 0.16705 0.0
H1426 H 0.12613 0.78749 0.0769 0.0
H1427 H 0.09906 0.79036 0.10681 0.0
C1428 C 0.44822 0.2243 0.73365 0.0
C1429 C 0.46942 0.22076 0.72477 0.0
C1430 C 0.42946 0.22235 0.72036 0.0
C1431 C 0.41035 0.1993 0.66669 0.0
H1432 H 0.36202 0.24073 0.67486 0.0
C1433 C 0.33365 0.1975 0.61008 0.0
C1434 C 0.32694 0.21833 0.60232 0.0
C1435 C 0.34842 0.19585 0.62783 0.0
C1436 C 0.37537 0.22903 0.67234 0.0
H1437 H 0.48763 0.2128 0.69489 0.0
H1438 H 0.45494 0.21025 0.67143 0.0
H1439 H 0.39392 0.24246 0.69921 0.0
H1440 H 0.33089 0.25369 0.60648 0.0
H1441 H 0.3563 0.25097 0.63729 0.0
H1442 H 0.39234 0.18676 0.63897 0.0
C1443 C 0.45274 0.21389 0.68884 0.0
C1444 C 0.39359 0.22986 0.68647 0.0
C1445 C 0.47151 0.2156 0.70221 0.0
C1446 C 0.33492 0.23743 0.61278 0.0
C1447 C 0.34967 0.23583 0.63039 0.0
C1448 C 0.3922 0.19861 0.65241 0.0
C1449 C 0.43147 0.21707 0.6978 0.0
C1450 C 0.41149 0.21526 0.68359 0.0
C1451 C 0.35692 0.21505 0.6379 0.0
C1452 C 0.3747 0.21377 0.65481 0.0
H1453 H 0.44601 0.2281 0.75102 0.0
H1454 H 0.41337 0.2246 0.7279 0.0
H1455 H 0.42363 0.1875 0.66428 0.0
H1456 H 0.3279 0.18259 0.60199 0.0
H1457 H 0.35356 0.17958 0.63333 0.0
C1458 C 0.84526 0.25953 0.38164 0.0
C1459 C 0.84089 0.27637 0.39709 0.0
C1460 C 0.86005 0.26303 0.36431 0.0
C1461 C 0.91069 0.29053 0.35276 0.0
H1462 H 0.89895 0.2758 0.29144 0.0
C1463 C 0.97934 0.29326 0.28645 0.0
C1464 C 0.97874 0.27708 0.26978 0.0
C1465 C 0.96169 0.29557 0.30117 0.0
C1466 C 0.90259 0.27972 0.30853 0.0
H1467 H 0.84891 0.30994 0.40666 0.0
H1468 H 0.87562 0.3158 0.37661 0.0
H1469 H 0.86859 0.27635 0.31806 0.0
H1470 H 0.95955 0.25027 0.25573 0.0
H1471 H 0.92926 0.25349 0.28209 0.0
H1472 H 0.94478 0.29259 0.3438 0.0
C1473 C 0.86696 0.30016 0.37769 0.0
C1474 C 0.88515 0.28027 0.32366 0.0
C1475 C 0.85174 0.29681 0.39479 0.0
C1476 C 0.96041 0.26294 0.26839 0.0
C1477 C 0.94293 0.26498 0.28336 0.0
C1478 C 0.9282 0.2896 0.33774 0.0
C1479 C 0.87134 0.28318 0.36246 0.0
C1480 C 0.88913 0.28541 0.34593 0.0
C1481 C 0.94322 0.2815 0.29978 0.0
C1482 C 0.92443 0.28385 0.31549 0.0
H1483 H 0.83834 0.24319 0.38353 0.0
H1484 H 0.86361 0.24951 0.35307 0.0
H1485 H 0.91415 0.29422 0.36996 0.0
H1486 H 0.99315 0.3046 0.28771 0.0
H1487 H 0.96238 0.30869 0.31335 0.0
C1488 C 0.14137 0.06167 0.26167 0.0
C1489 C 0.15967 0.06486 0.27567 0.0
C1490 C 0.12555 0.07832 0.25902 0.0
C1491 C 0.10475 0.1309 0.2829 0.0
H1492 H 0.08917 0.14422 0.22208 0.0
C1493 C 0.0705 0.2154 0.25583 0.0
C1494 C 0.0542 0.21616 0.23926 0.0
C1495 C 0.08044 0.19539 0.26164 0.0
C1496 C 0.093 0.1405 0.23918 0.0
H1497 H 0.17496 0.08754 0.29884 0.0
H1498 H 0.14759 0.11673 0.29396 0.0
H1499 H 0.11167 0.1118 0.23023 0.0
H1500 H 0.03524 0.19639 0.21609 0.0
H1501 H 0.05263 0.16132 0.22633 0.0
H1502 H 0.0865 0.15996 0.29176 0.0
C1503 C 0.14541 0.10131 0.2851 0.0
C1504 C 0.10591 0.12191 0.24387 0.0
C1505 C 0.16123 0.08465 0.28775 0.0
C1506 C 0.04779 0.19637 0.22888 0.0
C1507 C 0.0578 0.17631 0.23468 0.0
C1508 C 0.09183 0.1495 0.27821 0.0
C1509 C 0.12765 0.09851 0.27035 0.0
C1510 C 0.11224 0.1171 0.26574 0.0
C1511 C 0.07437 0.17564 0.25101 0.0
C1512 C 0.08615 0.15472 0.25626 0.0
H1513 H 0.13955 0.04655 0.25222 0.0
H1514 H 0.11186 0.07552 0.24782 0.0
H1515 H 0.10907 0.12744 0.29994 0.0
H1516 H 0.07587 0.23033 0.26415 0.0
H1517 H 0.09338 0.19552 0.27403 0.0
C1518 C 0.32354 0.89835 0.79307 0.0
C1519 C 0.32758 0.91776 0.78094 0.0
C1520 C 0.33854 0.88075 0.79229 0.0
C1521 C 0.39551 0.86516 0.77512 0.0
H1522 H 0.3687 0.80817 0.76301 0.0
C1523 C 0.44205 0.79338 0.73276 0.0
C1524 C 0.43777 0.77176 0.74013 0.0
C1525 C 0.42999 0.81122 0.7412 0.0
C1526 C 0.37649 0.82387 0.76675 0.0
H1527 H 0.35109 0.93442 0.75949 0.0
H1528 H 0.37699 0.90373 0.75795 0.0
H1529 H 0.34532 0.8395 0.77263 0.0
H1530 H 0.4179 0.75196 0.76259 0.0
H1531 H 0.397 0.78309 0.77734 0.0
H1532 H 0.42667 0.84956 0.76856 0.0
C1533 C 0.36238 0.9021 0.7682 0.0
C1534 C 0.36308 0.84182 0.77232 0.0
C1535 C 0.34742 0.91966 0.76897 0.0
C1536 C 0.42152 0.7684 0.75644 0.0
C1537 C 0.40948 0.78621 0.76486 0.0
C1538 C 0.40893 0.84718 0.76951 0.0
C1539 C 0.35787 0.88226 0.77944 0.0
C1540 C 0.3724 0.86275 0.77618 0.0
C1541 C 0.41342 0.80778 0.75717 0.0
C1542 C 0.39951 0.82645 0.7649 0.0
H1543 H 0.3086 0.89653 0.80277 0.0
H1544 H 0.3348 0.86579 0.80143 0.0
H1545 H 0.40319 0.88102 0.77831 0.0
H1546 H 0.45448 0.79651 0.72023 0.0
H1547 H 0.43321 0.82763 0.73476 0.0
C1548 C 0.64715 0.42876 0.73827 0.0
C1549 C 0.66453 0.42506 0.7232 0.0
C1550 C 0.63028 0.41323 0.74081 0.0
C1551 C 0.60283 0.36609 0.71401 0.0
H1552 H 0.58969 0.34751 0.77403 0.0
C1553 C 0.56155 0.28322 0.73361 0.0
C1554 C 0.54766 0.28119 0.75216 0.0
C1555 C 0.57236 0.30305 0.72912 0.0
C1556 C 0.59275 0.35281 0.75719 0.0
H1557 H 0.67727 0.40255 0.69836 0.0
H1558 H 0.64772 0.37534 0.70279 0.0
H1559 H 0.61546 0.37783 0.76772 0.0
H1560 H 0.53344 0.29876 0.78002 0.0
H1561 H 0.55221 0.33375 0.77198 0.0
H1562 H 0.58028 0.34099 0.70343 0.0
C1563 C 0.64725 0.39031 0.71264 0.0
C1564 C 0.60761 0.37012 0.75357 0.0
C1565 C 0.66427 0.40579 0.71023 0.0
C1566 C 0.5441 0.29979 0.76565 0.0
C1567 C 0.55496 0.31976 0.76112 0.0
C1568 C 0.58782 0.34891 0.71762 0.0
C1569 C 0.63027 0.39375 0.72819 0.0
C1570 C 0.61313 0.37663 0.73194 0.0
C1571 C 0.56951 0.32148 0.74299 0.0
C1572 C 0.58299 0.3417 0.73924 0.0
H1573 H 0.64679 0.44347 0.74852 0.0
H1574 H 0.61729 0.41642 0.75274 0.0
H1575 H 0.60651 0.37103 0.69718 0.0
H1576 H 0.56465 0.26926 0.72279 0.0
H1577 H 0.58367 0.30359 0.71523 0.0
C1578 C 0.84243 0.56609 0.21919 0.0
C1579 C 0.82184 0.5712 0.20963 0.0
C1580 C 0.85845 0.58243 0.22194 0.0
C1581 C 0.87516 0.63882 0.20527 0.0
H1582 H 0.90102 0.64049 0.26398 0.0
C1583 C 0.91936 0.71572 0.24018 0.0
C1584 C 0.93791 0.71256 0.25385 0.0
C1585 C 0.90703 0.69767 0.2328 0.0
C1586 C 0.89429 0.64007 0.24738 0.0
H1587 H 0.80249 0.59723 0.19427 0.0
H1588 H 0.83043 0.62591 0.19933 0.0
H1589 H 0.87634 0.61038 0.25401 0.0
H1590 H 0.95842 0.68791 0.27 0.0
H1591 H 0.93701 0.65633 0.25688 0.0
H1592 H 0.89295 0.66874 0.19878 0.0
C1593 C 0.83416 0.60919 0.20462 0.0
C1594 C 0.88011 0.62281 0.24167 0.0
C1595 C 0.81809 0.59279 0.20183 0.0
C1596 C 0.94413 0.69091 0.25961 0.0
C1597 C 0.93181 0.67283 0.25217 0.0
C1598 C 0.88943 0.65609 0.21097 0.0
C1599 C 0.85428 0.60427 0.21521 0.0
C1600 C 0.87025 0.62207 0.22062 0.0
C1601 C 0.91299 0.67603 0.23887 0.0
C1602 C 0.89898 0.65701 0.23218 0.0
H1603 H 0.846 0.54957 0.22518 0.0
H1604 H 0.87397 0.57805 0.22977 0.0
H1605 H 0.86799 0.63855 0.18885 0.0
H1606 H 0.91408 0.7322 0.23546 0.0
H1607 H 0.89244 0.70075 0.22286 0.0
C1608 C 0.22906 0.0464 0.19582 0.0
C1609 C 0.2356 0.05213 0.21737 0.0
C1610 C 0.23587 0.0591 0.17774 0.0
C1611 C 0.27658 0.1016 0.16023 0.0
H1612 H 0.23201 0.11568 0.11631 0.0
C1613 C 0.28555 0.17236 0.09604 0.0
C1614 C 0.27723 0.16849 0.07468 0.0
C1615 C 0.28245 0.15675 0.11285 0.0
C1616 C 0.24476 0.11167 0.12825 0.0
H1617 H 0.25479 0.07545 0.2368 0.0
H1618 H 0.26637 0.09772 0.20535 0.0
H1619 H 0.22291 0.09078 0.14657 0.0
H1620 H 0.26009 0.14466 0.05397 0.0
H1621 H 0.25495 0.11748 0.08313 0.0
H1622 H 0.29829 0.12289 0.14199 0.0
C1623 C 0.25625 0.08325 0.20235 0.0
C1624 C 0.23954 0.09735 0.14559 0.0
C1625 C 0.24948 0.07054 0.2204 0.0
C1626 C 0.26655 0.1483 0.07028 0.0
C1627 C 0.26347 0.13274 0.08703 0.0
C1628 C 0.28179 0.11598 0.14287 0.0
C1629 C 0.24933 0.07783 0.18083 0.0
C1630 C 0.25535 0.09223 0.16185 0.0
C1631 C 0.27099 0.13696 0.1086 0.0
C1632 C 0.26589 0.12122 0.12673 0.0
H1633 H 0.21847 0.03225 0.19292 0.0
H1634 H 0.23052 0.0543 0.16133 0.0
H1635 H 0.28922 0.09776 0.17234 0.0
H1636 H 0.29405 0.18762 0.09992 0.0
H1637 H 0.28837 0.16051 0.12933 0.0
C1638 C 0.23924 0.91849 0.71888 0.0
C1639 C 0.25645 0.93394 0.71647 0.0
C1640 C 0.23221 0.90588 0.7009 0.0
C1641 C 0.23315 0.90261 0.63996 0.0
H1642 H 0.22539 0.83975 0.65029 0.0
C1643 C 0.23042 0.83831 0.56969 0.0
C1644 C 0.21645 0.81988 0.572 0.0
C1645 C 0.23267 0.85355 0.58687 0.0
C1646 C 0.22708 0.85731 0.64718 0.0
H1647 H 0.27944 0.94861 0.69315 0.0
H1648 H 0.26724 0.92638 0.6617 0.0
H1649 H 0.23452 0.86398 0.6811 0.0
H1650 H 0.1929 0.80369 0.59367 0.0
H1651 H 0.19675 0.83039 0.62371 0.0
H1652 H 0.22597 0.89585 0.60595 0.0
C1653 C 0.25908 0.92421 0.67751 0.0
C1654 C 0.23237 0.8712 0.66483 0.0
C1655 C 0.26615 0.93685 0.69554 0.0
C1656 C 0.2041 0.81748 0.59154 0.0
C1657 C 0.20632 0.83277 0.60875 0.0
C1658 C 0.2278 0.88871 0.62228 0.0
C1659 C 0.24222 0.9084 0.68009 0.0
C1660 C 0.23566 0.89395 0.66139 0.0
C1661 C 0.22093 0.85076 0.60674 0.0
C1662 C 0.22493 0.86587 0.62567 0.0
H1663 H 0.2313 0.91591 0.73475 0.0
H1664 H 0.21897 0.89406 0.70332 0.0
H1665 H 0.23529 0.92013 0.63687 0.0
H1666 H 0.24019 0.84066 0.55484 0.0
H1667 H 0.24425 0.86707 0.58487 0.0
C1668 C 0.73222 0.44424 0.8021 0.0
C1669 C 0.74156 0.44074 0.7811 0.0
C1670 C 0.7397 0.43211 0.82037 0.0
C1671 C 0.76674 0.37913 0.83302 0.0
H1672 H 0.77236 0.40322 0.8922 0.0
C1673 C 0.79308 0.3239 0.90556 0.0
C1674 C 0.77979 0.3257 0.92454 0.0
C1675 C 0.79191 0.33992 0.88892 0.0
C1676 C 0.7708 0.39627 0.87576 0.0
H1677 H 0.76682 0.42264 0.763 0.0
H1678 H 0.77994 0.40185 0.79475 0.0
H1679 H 0.76319 0.4278 0.86138 0.0
H1680 H 0.75578 0.34639 0.94153 0.0
H1681 H 0.75355 0.37405 0.91248 0.0
H1682 H 0.77378 0.34759 0.84729 0.0
C1683 C 0.76655 0.41355 0.79708 0.0
C1684 C 0.76551 0.41032 0.85815 0.0
C1685 C 0.75905 0.42554 0.77889 0.0
C1686 C 0.7662 0.34443 0.92707 0.0
C1687 C 0.76501 0.36041 0.91045 0.0
C1688 C 0.77199 0.36512 0.85056 0.0
C1689 C 0.75668 0.41634 0.81792 0.0
C1690 C 0.76325 0.40185 0.83662 0.0
C1691 C 0.77743 0.35806 0.89096 0.0
C1692 C 0.77388 0.37346 0.87217 0.0
H1693 H 0.71874 0.45586 0.80431 0.0
H1694 H 0.73166 0.43452 0.8362 0.0
H1695 H 0.76472 0.372 0.8167 0.0
H1696 H 0.80399 0.30988 0.90327 0.0
H1697 H 0.80199 0.33787 0.87424 0.0
C1698 C 0.73565 0.57237 0.27052 0.0
C1699 C 0.75046 0.55451 0.27256 0.0
C1700 C 0.72942 0.58468 0.289 0.0
C1701 C 0.74823 0.59889 0.34515 0.0
H1702 H 0.68932 0.62397 0.35037 0.0
C1703 C 0.72233 0.64978 0.42094 0.0
C1704 C 0.7122 0.6703 0.41657 0.0
C1705 C 0.72497 0.63415 0.4042 0.0
C1706 C 0.70585 0.61715 0.34905 0.0
H1707 H 0.76983 0.53519 0.29576 0.0
H1708 H 0.75858 0.55651 0.32825 0.0
H1709 H 0.69768 0.59856 0.32006 0.0
H1710 H 0.69585 0.68994 0.39139 0.0
H1711 H 0.70055 0.66251 0.36198 0.0
H1712 H 0.75638 0.61749 0.37411 0.0
C1713 C 0.75213 0.56121 0.31221 0.0
C1714 C 0.71068 0.60262 0.3317 0.0
C1715 C 0.75849 0.54892 0.29363 0.0
C1716 C 0.70388 0.67441 0.39525 0.0
C1717 C 0.70645 0.65865 0.37846 0.0
C1718 C 0.74336 0.61327 0.36256 0.0
C1719 C 0.73769 0.57939 0.31006 0.0
C1720 C 0.73201 0.5935 0.32941 0.0
C1721 C 0.71747 0.63857 0.38269 0.0
C1722 C 0.72218 0.62269 0.36458 0.0
H1723 H 0.72918 0.57721 0.25452 0.0
H1724 H 0.71859 0.59877 0.28662 0.0
H1725 H 0.76493 0.59253 0.34369 0.0
H1726 H 0.72881 0.64594 0.4372 0.0
H1727 H 0.73319 0.61867 0.40803 0.0
C1728 C 0.19828 0.22593 0.05299 0.0
C1729 C 0.21629 0.24026 0.05006 0.0
C1730 C 0.17966 0.23288 0.06489 0.0
C1731 C 0.16407 0.27489 0.10691 0.0
H1732 H 0.10545 0.25061 0.09797 0.0
C1733 C 0.09835 0.27784 0.17519 0.0
C1734 C 0.07595 0.27976 0.16945 0.0
C1735 C 0.11447 0.27533 0.15886 0.0
C1736 C 0.12162 0.25786 0.10053 0.0
H1737 H 0.2284 0.27351 0.05574 0.0
H1738 H 0.1956 0.28602 0.0754 0.0
H1739 H 0.13456 0.24261 0.0713 0.0
H1740 H 0.05281 0.28089 0.1421 0.0
H1741 H 0.08108 0.27725 0.11341 0.0
H1742 H 0.15106 0.29068 0.1357 0.0
C1743 C 0.19609 0.26911 0.06948 0.0
C1744 C 0.13844 0.25298 0.08538 0.0
C1745 C 0.21484 0.26202 0.05805 0.0
C1746 C 0.07 0.27947 0.14699 0.0
C1747 C 0.08618 0.27722 0.13058 0.0
C1748 C 0.14722 0.28001 0.12183 0.0
C1749 C 0.17853 0.25444 0.07372 0.0
C1750 C 0.16 0.2611 0.08859 0.0
C1751 C 0.10863 0.2749 0.13633 0.0
C1752 C 0.12589 0.27118 0.11914 0.0
H1753 H 0.19905 0.20902 0.04707 0.0
H1754 H 0.16663 0.22099 0.06797 0.0
H1755 H 0.18047 0.28124 0.11023 0.0
H1756 H 0.10339 0.27731 0.19232 0.0
H1757 H 0.13146 0.27301 0.16403 0.0
C1758 C 0.72281 0.23968 0.91283 0.0
C1759 C 0.71859 0.25144 0.93246 0.0
C1760 C 0.70545 0.2335 0.89892 0.0
C1761 C 0.64758 0.24826 0.88597 0.0
H1762 H 0.64818 0.19294 0.85338 0.0
C1763 C 0.57271 0.21984 0.83582 0.0
C1764 C 0.57687 0.21359 0.81379 0.0
C1765 C 0.59006 0.22236 0.85075 0.0
C1766 C 0.64791 0.20849 0.86231 0.0
H1767 H 0.69284 0.26526 0.95329 0.0
H1768 H 0.66249 0.25396 0.92934 0.0
H1769 H 0.67818 0.20125 0.87922 0.0
H1770 H 0.60246 0.20411 0.79046 0.0
H1771 H 0.63293 0.20838 0.81681 0.0
H1772 H 0.61725 0.25539 0.86925 0.0
C1773 C 0.67925 0.25002 0.92437 0.0
C1774 C 0.66507 0.21329 0.87705 0.0
C1775 C 0.69663 0.25639 0.93818 0.0
C1776 C 0.59872 0.20892 0.80731 0.0
C1777 C 0.61614 0.21132 0.82237 0.0
C1778 C 0.63039 0.24337 0.87143 0.0
C1779 C 0.68347 0.23877 0.90442 0.0
C1780 C 0.6651 0.23326 0.88906 0.0
C1781 C 0.61197 0.21857 0.84408 0.0
C1782 C 0.63036 0.22345 0.85947 0.0
H1783 H 0.73958 0.23568 0.90791 0.0
H1784 H 0.70935 0.22513 0.88356 0.0
H1785 H 0.64731 0.26402 0.89451 0.0
H1786 H 0.55606 0.22341 0.84144 0.0
H1787 H 0.58636 0.22762 0.86749 0.0
C1788 C 0.77877 0.75383 0.42502 0.0
C1789 C 0.77811 0.73694 0.441 0.0
C1790 C 0.7986 0.75951 0.41476 0.0
C1791 C 0.85266 0.73624 0.40048 0.0
H1792 H 0.86545 0.79677 0.38332 0.0
C1793 C 0.92955 0.75792 0.34907 0.0
C1794 C 0.92562 0.77138 0.33049 0.0
C1795 C 0.91351 0.75561 0.36549 0.0
C1796 C 0.86205 0.77979 0.38796 0.0
H1797 H 0.79791 0.71316 0.4592 0.0
H1798 H 0.83278 0.72325 0.44128 0.0
H1799 H 0.83402 0.78907 0.40751 0.0
H1800 H 0.90222 0.7939 0.31522 0.0
H1801 H 0.87405 0.78967 0.34384 0.0
H1802 H 0.88041 0.7269 0.3806 0.0
C1803 C 0.8178 0.7319 0.43657 0.0
C1804 C 0.84408 0.77537 0.40181 0.0
C1805 C 0.79788 0.72619 0.44689 0.0
C1806 C 0.90568 0.78326 0.3292 0.0
C1807 C 0.88961 0.78096 0.34569 0.0
C1808 C 0.87067 0.74067 0.38671 0.0
C1809 C 0.81832 0.74849 0.42023 0.0
C1810 C 0.83891 0.75349 0.40784 0.0
C1811 C 0.8932 0.76675 0.36377 0.0
C1812 C 0.87531 0.76244 0.37998 0.0
H1813 H 0.76386 0.76246 0.42006 0.0
H1814 H 0.79831 0.77209 0.402 0.0
H1815 H 0.84896 0.71918 0.40454 0.0
H1816 H 0.94482 0.74866 0.3507 0.0
H1817 H 0.91688 0.74481 0.3794 0.0
C1818 C 0.42785 0.72465 0.64315 0.0
C1819 C 0.42362 0.71283 0.66274 0.0
C1820 C 0.41166 0.72653 0.62684 0.0
C1821 C 0.35848 0.70368 0.60715 0.0
H1822 H 0.34909 0.76337 0.58547 0.0
C1823 C 0.27699 0.73224 0.56735 0.0
C1824 C 0.27769 0.74778 0.55006 0.0
C1825 C 0.29631 0.72588 0.57822 0.0
C1826 C 0.35173 0.74652 0.59098 0.0
H1827 H 0.39945 0.69275 0.68002 0.0
H1828 H 0.37097 0.69634 0.65163 0.0
H1829 H 0.38013 0.75571 0.60988 0.0
H1830 H 0.29934 0.76826 0.53008 0.0
H1831 H 0.33323 0.75698 0.54903 0.0
H1832 H 0.32974 0.69463 0.58856 0.0
C1833 C 0.38691 0.70404 0.64888 0.0
C1834 C 0.36951 0.74213 0.60502 0.0
C1835 C 0.40316 0.70213 0.66523 0.0
C1836 C 0.29825 0.75634 0.54342 0.0
C1837 C 0.31763 0.74995 0.55433 0.0
C1838 C 0.34069 0.70807 0.59306 0.0
C1839 C 0.39085 0.71666 0.62973 0.0
C1840 C 0.37291 0.72074 0.61351 0.0
C1841 C 0.31681 0.73489 0.57206 0.0
C1842 C 0.33693 0.72962 0.5851 0.0
H1843 H 0.44353 0.73292 0.64056 0.0
H1844 H 0.41533 0.73603 0.61209 0.0
H1845 H 0.36087 0.68697 0.61319 0.0
H1846 H 0.26142 0.7253 0.57289 0.0
H1847 H 0.29504 0.71449 0.592 0.0
C1848 C 0.81239 0.90058 0.70166 0.0
C1849 C 0.81549 0.92185 0.7105 0.0
C1850 C 0.82846 0.88416 0.70465 0.0
C1851 C 0.87277 0.86896 0.74321 0.0
H1852 H 0.88882 0.82609 0.69827 0.0
C1853 C 0.93708 0.8001 0.75989 0.0
C1854 C 0.93168 0.77896 0.75187 0.0
C1855 C 0.92473 0.81861 0.75341 0.0
C1856 C 0.88438 0.83785 0.71105 0.0
H1857 H 0.83852 0.94288 0.72835 0.0
H1858 H 0.86645 0.91437 0.73336 0.0
H1859 H 0.86374 0.8564 0.68896 0.0
H1860 H 0.90913 0.76072 0.73068 0.0
H1861 H 0.8875 0.79274 0.71981 0.0
H1862 H 0.89288 0.85021 0.76547 0.0
C1863 C 0.85145 0.91025 0.72448 0.0
C1864 C 0.87004 0.8552 0.70569 0.0
C1865 C 0.83546 0.92662 0.72145 0.0
C1866 C 0.91383 0.77677 0.73712 0.0
C1867 C 0.90149 0.79519 0.73072 0.0
C1868 C 0.88701 0.85157 0.7486 0.0
C1869 C 0.84793 0.88871 0.71655 0.0
C1870 C 0.86396 0.87085 0.72176 0.0
C1871 C 0.90671 0.81633 0.73883 0.0
C1872 C 0.89282 0.83568 0.73265 0.0
H1873 H 0.79738 0.89643 0.6929 0.0
H1874 H 0.82526 0.86768 0.69837 0.0
H1875 H 0.86812 0.88057 0.75606 0.0
H1876 H 0.95079 0.80235 0.7712 0.0
H1877 H 0.92933 0.83471 0.75977 0.0
C1878 C 0.64743 0.06447 0.23384 0.0
C1879 C 0.66585 0.06774 0.21999 0.0
C1880 C 0.63159 0.08108 0.23649 0.0
C1881 C 0.61013 0.13314 0.21256 0.0
H1882 H 0.59399 0.14634 0.27328 0.0
C1883 C 0.57097 0.216 0.23819 0.0
C1884 C 0.55492 0.21622 0.25503 0.0
C1885 C 0.58214 0.19653 0.2328 0.0
C1886 C 0.59797 0.14265 0.2562 0.0
H1887 H 0.68136 0.09059 0.19711 0.0
H1888 H 0.65377 0.11972 0.2019 0.0
H1889 H 0.61768 0.1147 0.26536 0.0
H1890 H 0.5377 0.196 0.27914 0.0
H1891 H 0.55712 0.1618 0.26954 0.0
H1892 H 0.59063 0.16127 0.20344 0.0
C1893 C 0.6516 0.10426 0.21068 0.0
C1894 C 0.61159 0.12453 0.25165 0.0
C1895 C 0.66752 0.08762 0.20806 0.0
C1896 C 0.55003 0.19639 0.26614 0.0
C1897 C 0.56123 0.17683 0.2607 0.0
C1898 C 0.59643 0.15123 0.2171 0.0
C1899 C 0.63372 0.10133 0.2253 0.0
C1900 C 0.61806 0.11973 0.22982 0.0
C1901 C 0.57753 0.17673 0.24406 0.0
C1902 C 0.59046 0.1564 0.23901 0.0
H1903 H 0.64552 0.0493 0.24319 0.0
H1904 H 0.6178 0.07819 0.24758 0.0
H1905 H 0.61457 0.12967 0.19554 0.0
H1906 H 0.57523 0.23098 0.22931 0.0
H1907 H 0.59485 0.19716 0.22017 0.0
C1908 C 0.42419 0.71933 0.26071 0.0
C1909 C 0.44207 0.71793 0.24589 0.0
C1910 C 0.41308 0.70031 0.26752 0.0
C1911 C 0.40203 0.64342 0.24927 0.0
H1912 H 0.37599 0.63771 0.30769 0.0
C1913 C 0.35061 0.56752 0.2723 0.0
C1914 C 0.32973 0.5721 0.28151 0.0
C1915 C 0.36673 0.58393 0.27108 0.0
C1916 C 0.38315 0.63913 0.29132 0.0
H1917 H 0.46289 0.69538 0.22728 0.0
H1918 H 0.4437 0.66201 0.2395 0.0
H1919 H 0.40055 0.6688 0.29967 0.0
H1920 H 0.30985 0.59718 0.29776 0.0
H1921 H 0.33809 0.626 0.29553 0.0
H1922 H 0.38447 0.61397 0.24082 0.0
C1923 C 0.43801 0.67792 0.2455 0.0
C1924 C 0.39717 0.65692 0.28669 0.0
C1925 C 0.44906 0.69701 0.23857 0.0
C1926 C 0.32575 0.59313 0.29058 0.0
C1927 C 0.34195 0.60961 0.28936 0.0
C1928 C 0.38815 0.62561 0.25393 0.0
C1929 C 0.41966 0.67939 0.25979 0.0
C1930 C 0.40651 0.65944 0.2655 0.0
C1931 C 0.36237 0.60531 0.27904 0.0
C1932 C 0.37835 0.62342 0.2749 0.0
H1933 H 0.41834 0.73521 0.26667 0.0
H1934 H 0.39884 0.70211 0.27825 0.0
H1935 H 0.40856 0.64505 0.23266 0.0
H1936 H 0.35433 0.55139 0.26538 0.0
H1937 H 0.38246 0.58004 0.2634 0.0
C1938 C 0.07571 0.27168 0.75263 0.0
C1939 C 0.05678 0.27445 0.73939 0.0
C1940 C 0.08733 0.29001 0.76045 0.0
C1941 C 0.09701 0.34887 0.74847 0.0
H1942 H 0.12378 0.34879 0.80681 0.0
C1943 C 0.14674 0.42333 0.77891 0.0
C1944 C 0.16776 0.41839 0.78759 0.0
C1945 C 0.131 0.40672 0.77612 0.0
C1946 C 0.11645 0.349 0.79046 0.0
H1947 H 0.035 0.29866 0.72429 0.0
H1948 H 0.0552 0.33074 0.73817 0.0
H1949 H 0.10018 0.31797 0.7956 0.0
H1950 H 0.18808 0.39237 0.80164 0.0
H1951 H 0.16066 0.36324 0.79652 0.0
H1952 H 0.11348 0.37967 0.74318 0.0
C1953 C 0.06121 0.31435 0.74223 0.0
C1954 C 0.10297 0.33136 0.78401 0.0
C1955 C 0.0496 0.29598 0.73433 0.0
C1956 C 0.17215 0.3967 0.79476 0.0
C1957 C 0.15637 0.38003 0.79192 0.0
C1958 C 0.1104 0.3665 0.75494 0.0
C1959 C 0.08028 0.31156 0.75529 0.0
C1960 C 0.09332 0.33097 0.76283 0.0
C1961 C 0.1359 0.38476 0.78193 0.0
C1962 C 0.12045 0.36667 0.77591 0.0
H1963 H 0.08174 0.25532 0.75679 0.0
H1964 H 0.10215 0.28725 0.77013 0.0
H1965 H 0.09017 0.34893 0.73191 0.0
H1966 H 0.14267 0.43993 0.77346 0.0
H1967 H 0.11519 0.41096 0.76881 0.0
C1968 C 0.71525 0.81739 0.89675 0.0
C1969 C 0.71478 0.82356 0.91911 0.0
C1970 C 0.71769 0.83333 0.88024 0.0
C1971 C 0.73674 0.89103 0.8713 0.0
H1972 H 0.70942 0.8817 0.8141 0.0
C1973 C 0.76321 0.93921 0.79283 0.0
C1974 C 0.74746 0.94243 0.77609 0.0
C1975 C 0.7578 0.92695 0.81172 0.0
C1976 C 0.7169 0.8849 0.83004 0.0
H1977 H 0.71608 0.85129 0.9418 0.0
H1978 H 0.71948 0.87933 0.91292 0.0
H1979 H 0.70144 0.85647 0.8441 0.0
H1980 H 0.71337 0.93693 0.76655 0.0
H1981 H 0.70355 0.91671 0.79987 0.0
H1982 H 0.75158 0.91999 0.85736 0.0
C1983 C 0.71853 0.86211 0.9081 0.0
C1984 C 0.71261 0.87011 0.84722 0.0
C1985 C 0.71641 0.84607 0.92465 0.0
C1986 C 0.72592 0.93437 0.7791 0.0
C1987 C 0.72036 0.92261 0.79814 0.0
C1988 C 0.74078 0.90607 0.85417 0.0
C1989 C 0.71943 0.85591 0.88567 0.0
C1990 C 0.72276 0.87272 0.86796 0.0
C1991 C 0.7364 0.91809 0.81439 0.0
C1992 C 0.73113 0.90304 0.83321 0.0
H1993 H 0.71463 0.80015 0.89199 0.0
H1994 H 0.71886 0.82781 0.86323 0.0
H1995 H 0.74505 0.8935 0.88697 0.0
H1996 H 0.77998 0.94519 0.79081 0.0
H1997 H 0.77067 0.92367 0.82373 0.0
C1998 C 0.73626 0.04909 0.30048 0.0
C1999 C 0.74184 0.05522 0.27878 0.0
C2000 C 0.7438 0.06153 0.31845 0.0
C2001 C 0.78467 0.10455 0.33467 0.0
H2002 H 0.74201 0.1167 0.38103 0.0
C2003 C 0.79233 0.17604 0.39838 0.0
C2004 C 0.78476 0.17187 0.41997 0.0
C2005 C 0.79015 0.15991 0.38191 0.0
C2006 C 0.75425 0.1132 0.3684 0.0
H2007 H 0.75999 0.079 0.25889 0.0
H2008 H 0.77266 0.10091 0.29014 0.0
H2009 H 0.73208 0.092 0.35094 0.0
H2010 H 0.77056 0.14693 0.44159 0.0
H2011 H 0.76702 0.1189 0.413 0.0
H2012 H 0.80659 0.12639 0.35201 0.0
C2013 C 0.76284 0.08629 0.29336 0.0
C2014 C 0.74857 0.099 0.35116 0.0
C2015 C 0.75541 0.0738 0.27543 0.0
C2016 C 0.77628 0.15082 0.42505 0.0
C2017 C 0.77415 0.13476 0.40866 0.0
C2018 C 0.79032 0.11889 0.35193 0.0
C2019 C 0.75696 0.08042 0.31508 0.0
C2020 C 0.76364 0.09459 0.33401 0.0
C2021 C 0.78041 0.13935 0.38678 0.0
C2022 C 0.77512 0.12342 0.36892 0.0
H2023 H 0.72598 0.03476 0.30362 0.0
H2024 H 0.73925 0.05636 0.335 0.0
H2025 H 0.79676 0.10127 0.32186 0.0
H2026 H 0.79901 0.19202 0.39395 0.0
H2027 H 0.79509 0.16393 0.36515 0.0
C2028 C 0.19732 0.68039 0.09945 0.0
C2029 C 0.20233 0.67513 0.07735 0.0
C2030 C 0.2006 0.66475 0.11623 0.0
C2031 C 0.23671 0.61778 0.12772 0.0
H2032 H 0.19916 0.6082 0.17882 0.0
C2033 C 0.26048 0.55523 0.19576 0.0
C2034 C 0.25612 0.56141 0.21773 0.0
C2035 C 0.25201 0.56772 0.17821 0.0
C2036 C 0.20994 0.61086 0.16475 0.0
H2037 H 0.21292 0.64876 0.05533 0.0
H2038 H 0.2185 0.62162 0.08451 0.0
H2039 H 0.18654 0.63244 0.14899 0.0
H2040 H 0.23962 0.58562 0.23854 0.0
H2041 H 0.22548 0.60768 0.20805 0.0
H2042 H 0.26043 0.59693 0.14359 0.0
C2043 C 0.21247 0.63792 0.08893 0.0
C2044 C 0.20265 0.62467 0.14766 0.0
C2045 C 0.20915 0.65347 0.07221 0.0
C2046 C 0.24318 0.58032 0.22179 0.0
C2047 C 0.23491 0.5929 0.20427 0.0
C2048 C 0.24408 0.60416 0.14485 0.0
C2049 C 0.20898 0.64363 0.11117 0.0
C2050 C 0.21599 0.62829 0.12899 0.0
C2051 C 0.23919 0.58678 0.18225 0.0
C2052 C 0.23085 0.60059 0.16364 0.0
H2053 H 0.19206 0.69691 0.10397 0.0
H2054 H 0.19781 0.66961 0.13325 0.0
H2055 H 0.24755 0.62059 0.11373 0.0
H2056 H 0.27025 0.54065 0.19211 0.0
H2057 H 0.25539 0.56232 0.16146 0.0
C2058 C 0.22614 0.43633 0.70046 0.0
C2059 C 0.2361 0.43243 0.7211 0.0
C2060 C 0.23216 0.42369 0.68198 0.0
C2061 C 0.25657 0.36972 0.66749 0.0
H2062 H 0.26524 0.39586 0.60956 0.0
C2063 C 0.28714 0.31751 0.5939 0.0
C2064 C 0.27584 0.32065 0.57385 0.0
C2065 C 0.28423 0.33235 0.61143 0.0
C2066 C 0.26273 0.3883 0.62561 0.0
H2067 H 0.26054 0.41248 0.73839 0.0
H2068 H 0.27101 0.39072 0.70632 0.0
H2069 H 0.25556 0.41949 0.64093 0.0
H2070 H 0.25334 0.3424 0.55615 0.0
H2071 H 0.24812 0.36802 0.58666 0.0
H2072 H 0.26337 0.33853 0.65226 0.0
C2073 C 0.25836 0.40329 0.70441 0.0
C2074 C 0.25715 0.40183 0.64354 0.0
C2075 C 0.25241 0.41589 0.72278 0.0
C2076 C 0.26232 0.33946 0.57138 0.0
C2077 C 0.25938 0.35424 0.58887 0.0
C2078 C 0.26208 0.3562 0.64959 0.0
C2079 C 0.24818 0.40687 0.68385 0.0
C2080 C 0.25401 0.39267 0.66467 0.0
C2081 C 0.26997 0.35066 0.60924 0.0
C2082 C 0.26519 0.36531 0.62842 0.0
H2083 H 0.21353 0.44895 0.69863 0.0
H2084 H 0.22391 0.42672 0.66636 0.0
H2085 H 0.25391 0.3621 0.68349 0.0
H2086 H 0.298 0.30347 0.59619 0.0
H2087 H 0.29298 0.32937 0.62678 0.0
C2088 C 0.89806 0.70499 0.82031 0.0
C2089 C 0.91913 0.71438 0.82312 0.0
C2090 C 0.88202 0.70707 0.8369 0.0
C2091 C 0.86673 0.74451 0.88194 0.0
H2092 H 0.82552 0.69827 0.89842 0.0
C2093 C 0.79695 0.76047 0.9452 0.0
C2094 C 0.77612 0.75194 0.93946 0.0
C2095 C 0.8159 0.75388 0.93359 0.0
C2096 C 0.83683 0.7114 0.8939 0.0
H2097 H 0.94025 0.73221 0.84611 0.0
H2098 H 0.91235 0.73571 0.87485 0.0
H2099 H 0.85576 0.68992 0.87291 0.0
H2100 H 0.75893 0.72948 0.91729 0.0
H2101 H 0.79165 0.71849 0.89692 0.0
H2102 H 0.84751 0.76621 0.9022 0.0
C2103 C 0.90812 0.72706 0.85974 0.0
C2104 C 0.85414 0.70659 0.87932 0.0
C2105 C 0.92413 0.72493 0.84326 0.0
C2106 C 0.77472 0.73637 0.92223 0.0
C2107 C 0.79356 0.72989 0.91061 0.0
C2108 C 0.84937 0.74936 0.89638 0.0
C2109 C 0.88675 0.71862 0.85654 0.0
C2110 C 0.86913 0.72315 0.87302 0.0
C2111 C 0.81436 0.7387 0.91597 0.0
C2112 C 0.83402 0.73295 0.90232 0.0
H2113 H 0.89373 0.69665 0.80509 0.0
H2114 H 0.86563 0.70045 0.83395 0.0
H2115 H 0.87785 0.75771 0.87715 0.0
H2116 H 0.79859 0.77241 0.95846 0.0
H2117 H 0.83173 0.76079 0.93832 0.0
C2118 C 0.27129 0.75424 0.0803 0.0
C2119 C 0.27217 0.73896 0.06277 0.0
C2120 C 0.29031 0.75965 0.09213 0.0
C2121 C 0.34581 0.73898 0.1061 0.0
H2122 H 0.35486 0.79939 0.12587 0.0
C2123 C 0.42377 0.7648 0.15418 0.0
C2124 C 0.42021 0.77758 0.1733 0.0
C2125 C 0.40673 0.7614 0.13898 0.0
C2126 C 0.35248 0.78244 0.12057 0.0
H2127 H 0.2938 0.71745 0.04386 0.0
H2128 H 0.32724 0.7271 0.0645 0.0
H2129 H 0.32343 0.79067 0.10211 0.0
H2130 H 0.39623 0.79768 0.19089 0.0
H2131 H 0.36638 0.79161 0.16439 0.0
H2132 H 0.37477 0.73073 0.1247 0.0
C2133 C 0.31169 0.7347 0.06918 0.0
C2134 C 0.33449 0.77742 0.10698 0.0
C2135 C 0.29258 0.72924 0.0573 0.0
C2136 C 0.39946 0.7876 0.17645 0.0
C2137 C 0.3824 0.78425 0.16118 0.0
C2138 C 0.36385 0.74401 0.11963 0.0
C2139 C 0.31075 0.75 0.08673 0.0
C2140 C 0.33078 0.75558 0.09982 0.0
C2141 C 0.38577 0.77077 0.14249 0.0
C2142 C 0.36724 0.76575 0.1272 0.0
H2143 H 0.25583 0.76198 0.08507 0.0
H2144 H 0.28888 0.77115 0.10581 0.0
H2145 H 0.34326 0.72195 0.10115 0.0
H2146 H 0.43958 0.7569 0.15116 0.0
H2147 H 0.40993 0.75123 0.12457 0.0
C2148 C 0.21169 0.23554 0.56553 0.0
C2149 C 0.21198 0.25241 0.54951 0.0
C2150 C 0.19198 0.2294 0.57576 0.0
C2151 C 0.13754 0.2515 0.5902 0.0
H2152 H 0.12619 0.19073 0.60751 0.0
C2153 C 0.06228 0.22857 0.64352 0.0
C2154 C 0.06697 0.21519 0.66198 0.0
C2155 C 0.07778 0.23109 0.62659 0.0
C2156 C 0.12917 0.20777 0.60282 0.0
H2157 H 0.19165 0.27567 0.53123 0.0
H2158 H 0.157 0.26483 0.54916 0.0
H2159 H 0.15715 0.19906 0.58294 0.0
H2160 H 0.0911 0.19293 0.67647 0.0
H2161 H 0.11832 0.19754 0.64703 0.0
H2162 H 0.1099 0.26029 0.61047 0.0
C2163 C 0.17216 0.25652 0.55388 0.0
C2164 C 0.14687 0.21255 0.58876 0.0
C2165 C 0.19197 0.26267 0.54356 0.0
C2166 C 0.08708 0.20354 0.66262 0.0
C2167 C 0.1026 0.20604 0.64564 0.0
C2168 C 0.1198 0.24672 0.60421 0.0
C2169 C 0.17202 0.23995 0.57025 0.0
C2170 C 0.15156 0.23453 0.5827 0.0
C2171 C 0.09829 0.22023 0.6277 0.0
C2172 C 0.11571 0.22486 0.61103 0.0
H2173 H 0.22679 0.22727 0.57052 0.0
H2174 H 0.19255 0.21686 0.58855 0.0
H2175 H 0.14086 0.26863 0.58611 0.0
H2176 H 0.04686 0.23766 0.64238 0.0
H2177 H 0.07386 0.24185 0.61281 0.0
C2178 C 0.59635 0.29508 0.31474 0.0
C2179 C 0.57591 0.28512 0.31951 0.0
C2180 C 0.61389 0.29349 0.32974 0.0
C2181 C 0.628 0.27776 0.38766 0.0
H2182 H 0.68441 0.26163 0.36167 0.0
C2183 C 0.69924 0.23655 0.43684 0.0
C2184 C 0.72073 0.24423 0.43247 0.0
C2185 C 0.68138 0.24391 0.42407 0.0
C2186 C 0.66884 0.26638 0.36918 0.0
H2187 H 0.55751 0.26665 0.34424 0.0
H2188 H 0.58804 0.26358 0.37005 0.0
H2189 H 0.65362 0.27154 0.33771 0.0
H2190 H 0.74027 0.26594 0.41149 0.0
H2191 H 0.70922 0.27863 0.38936 0.0
H2192 H 0.64321 0.27192 0.41916 0.0
C2193 C 0.59056 0.27284 0.35492 0.0
C2194 C 0.65121 0.27218 0.35546 0.0
C2195 C 0.57305 0.2745 0.34001 0.0
C2196 C 0.72394 0.25959 0.41528 0.0
C2197 C 0.70618 0.26683 0.40251 0.0
C2198 C 0.64562 0.27183 0.4014 0.0
C2199 C 0.61132 0.28188 0.34976 0.0
C2200 C 0.63052 0.27773 0.36452 0.0
C2201 C 0.68475 0.25896 0.40664 0.0
C2202 C 0.66616 0.26592 0.39227 0.0
H2203 H 0.59897 0.30369 0.29926 0.0
H2204 H 0.62958 0.301 0.32547 0.0
H2205 H 0.61235 0.28224 0.39518 0.0
H2206 H 0.69624 0.22474 0.44998 0.0
H2207 H 0.66503 0.23743 0.42749 0.0
C2208 C 0.95346 0.27739 0.13573 0.0
C2209 C 0.9527 0.25629 0.14538 0.0
C2210 C 0.9381 0.28347 0.11966 0.0
C2211 C 0.88289 0.27089 0.0986 0.0
H2212 H 0.90371 0.29871 0.0446 0.0
C2213 C 0.84779 0.28385 0.00638 0.0
C2214 C 0.8265 0.29196 0.01109 0.0
C2215 C 0.86402 0.28336 0.02278 0.0
C2216 C 0.89769 0.29107 0.05965 0.0
H2217 H 0.93591 0.2248 0.14578 0.0
H2218 H 0.90855 0.23544 0.11754 0.0
H2219 H 0.9302 0.28867 0.0735 0.0
H2220 H 0.80616 0.30775 0.03614 0.0
H2221 H 0.83448 0.30662 0.06489 0.0
H2222 H 0.85043 0.27296 0.08462 0.0
C2223 C 0.92092 0.24735 0.12262 0.0
C2224 C 0.91279 0.2854 0.07619 0.0
C2225 C 0.93651 0.2412 0.13861 0.0
C2226 C 0.82229 0.30113 0.03205 0.0
C2227 C 0.83846 0.30041 0.04855 0.0
C2228 C 0.86776 0.27678 0.08217 0.0
C2229 C 0.92165 0.26854 0.11296 0.0
C2230 C 0.90555 0.27503 0.09571 0.0
C2231 C 0.85921 0.29085 0.04425 0.0
C2232 C 0.87505 0.28671 0.06244 0.0
H2233 H 0.96619 0.28906 0.14045 0.0
H2234 H 0.939 0.29991 0.11256 0.0
H2235 H 0.87687 0.2631 0.11359 0.0
H2236 H 0.85162 0.27678 0.99035 0.0
H2237 H 0.87987 0.27587 0.01903 0.0
C2238 C 0.63836 0.72487 0.49445 0.0
C2239 C 0.65355 0.70729 0.49564 0.0
C2240 C 0.6217 0.72702 0.51025 0.0
C2241 C 0.61241 0.71151 0.56825 0.0
H2242 H 0.5569 0.74256 0.55955 0.0
C2243 C 0.54863 0.72727 0.63758 0.0
C2244 C 0.54003 0.74886 0.63919 0.0
C2245 C 0.56214 0.72128 0.61989 0.0
C2246 C 0.57244 0.73401 0.56217 0.0
H2247 H 0.66139 0.67659 0.51242 0.0
H2248 H 0.63186 0.67999 0.53978 0.0
H2249 H 0.57851 0.7309 0.52745 0.0
H2250 H 0.5384 0.78087 0.62328 0.0
H2251 H 0.56203 0.77028 0.59194 0.0
H2252 H 0.60612 0.71445 0.60299 0.0
C2253 C 0.63344 0.69265 0.5272 0.0
C2254 C 0.58479 0.72728 0.54383 0.0
C2255 C 0.65028 0.69062 0.51148 0.0
C2256 C 0.54519 0.76429 0.62261 0.0
C2257 C 0.55849 0.75819 0.60468 0.0
C2258 C 0.59992 0.71799 0.58655 0.0
C2259 C 0.61967 0.71146 0.52741 0.0
C2260 C 0.6051 0.71622 0.54664 0.0
C2261 C 0.5669 0.73655 0.6031 0.0
C2262 C 0.58 0.72957 0.58367 0.0
H2263 H 0.64038 0.738 0.4824 0.0
H2264 H 0.61151 0.74176 0.50988 0.0
H2265 H 0.62817 0.70348 0.57111 0.0
H2266 H 0.54405 0.71461 0.64937 0.0
H2267 H 0.56809 0.70439 0.61884 0.0
C2268 C 0.35471 0.21832 -0.00321 0.0
C2269 C 0.33878 0.20142 -0.00378 0.0
C2270 C 0.3718 0.21881 0.9813 0.0
C2271 C 0.38356 0.19824 0.92484 0.0
H2272 H 0.43876 0.22955 0.93413 0.0
C2273 C 0.45169 0.20988 0.85808 0.0
C2274 C 0.45771 0.23204 0.85421 0.0
C2275 C 0.43812 0.20432 0.87592 0.0
C2276 C 0.42337 0.2208 0.93136 0.0
H2277 H 0.32967 0.17048 0.98067 0.0
H2278 H 0.36011 0.17077 0.9541 0.0
H2279 H 0.41532 0.22066 0.96578 0.0
H2280 H 0.45503 0.26552 0.86664 0.0
H2281 H 0.43171 0.25566 0.89837 0.0
H2282 H 0.39208 0.19805 0.89039 0.0
C2283 C 0.35882 0.18423 0.96585 0.0
C2284 C 0.40988 0.21574 0.94945 0.0
C2285 C 0.34146 0.18394 0.98117 0.0
C2286 C 0.45035 0.2484 0.86902 0.0
C2287 C 0.43714 0.24276 0.88716 0.0
C2288 C 0.39729 0.20291 0.90684 0.0
C2289 C 0.37365 0.20219 0.9651 0.0
C2290 C 0.38952 0.20485 0.94638 0.0
C2291 C 0.4309 0.22067 0.8907 0.0
C2292 C 0.41705 0.21464 0.90991 0.0
H2293 H 0.35306 0.23211 0.00812 0.0
H2294 H 0.38265 0.23305 0.98124 0.0
H2295 H 0.36788 0.19022 0.92165 0.0
H2296 H 0.45809 0.19666 0.84793 0.0
H2297 H 0.43383 0.18712 0.87859 0.0
C2298 C 0.14004 0.77216 0.49461 0.0
C2299 C 0.15752 0.7872 0.49174 0.0
C2300 C 0.12357 0.77021 0.47862 0.0
C2301 C 0.11737 0.77953 0.41871 0.0
H2302 H 0.05908 0.75502 0.42943 0.0
C2303 C 0.05221 0.7607 0.35092 0.0
C2304 C 0.04319 0.73923 0.35137 0.0
C2305 C 0.06605 0.76798 0.36785 0.0
C2306 C 0.07537 0.76177 0.42627 0.0
H2307 H 0.16984 0.814 0.47136 0.0
H2308 H 0.14052 0.81123 0.44379 0.0
H2309 H 0.08091 0.76872 0.46049 0.0
H2310 H 0.04118 0.70886 0.37019 0.0
H2311 H 0.06514 0.72186 0.4003 0.0
H2312 H 0.11143 0.77293 0.38437 0.0
C2313 C 0.14012 0.80021 0.45791 0.0
C2314 C 0.0879 0.76964 0.44401 0.0
C2315 C 0.15681 0.80197 0.47382 0.0
C2316 C 0.04827 0.72528 0.36925 0.0
C2317 C 0.06178 0.73275 0.38646 0.0
C2318 C 0.10466 0.77205 0.40095 0.0
C2319 C 0.12396 0.78352 0.45954 0.0
C2320 C 0.10927 0.77819 0.44053 0.0
C2321 C 0.07059 0.75424 0.38595 0.0
C2322 C 0.08377 0.76271 0.40466 0.0
H2323 H 0.13998 0.76059 0.50831 0.0
H2324 H 0.11153 0.7571 0.48053 0.0
H2325 H 0.13389 0.78556 0.41534 0.0
H2326 H 0.04772 0.77235 0.3381 0.0
H2327 H 0.07238 0.78474 0.36731 0.0
C2328 C 0.1452 0.9241 0.23926 0.0
C2329 C 0.13968 0.9465 0.23653 0.0
C2330 C 0.12945 0.90903 0.24698 0.0
C2331 C 0.07541 0.90833 0.27682 0.0
H2332 H 0.07635 0.84615 0.26112 0.0
C2333 C 0.00411 0.84513 0.28805 0.0
C2334 C 0.01001 0.824 0.29582 0.0
C2335 C 0.02029 0.86127 0.2847 0.0
C2336 C 0.07612 0.86345 0.26585 0.0
H2337 H 0.1128 0.97022 0.23746 0.0
H2338 H 0.08499 0.94379 0.2494 0.0
H2339 H 0.10313 0.87119 0.24445 0.0
H2340 H 0.03711 0.80409 0.30849 0.0
H2341 H 0.0654 0.83212 0.30199 0.0
H2342 H 0.04751 0.90049 0.29736 0.0
C2343 C 0.10176 0.93799 0.24692 0.0
C2344 C 0.09147 0.87783 0.25632 0.0
C2345 C 0.11761 0.95309 0.23965 0.0
C2346 C 0.03205 0.82007 0.30219 0.0
C2347 C 0.04828 0.83606 0.29841 0.0
C2348 C 0.05978 0.89399 0.286 0.0
C2349 C 0.10765 0.91594 0.25151 0.0
C2350 C 0.09129 0.9005 0.2616 0.0
C2351 C 0.04262 0.85643 0.28882 0.0
C2352 C 0.06003 0.87145 0.28059 0.0
H2353 H 0.16182 0.91834 0.23607 0.0
H2354 H 0.13467 0.89219 0.25015 0.0
H2355 H 0.07505 0.92554 0.28177 0.0
H2356 H 0.98725 0.84873 0.28313 0.0
H2357 H 0.01556 0.87692 0.27733 0.0
C2358 C 0.48221 0.1485 0.79319 0.0
C2359 C 0.49867 0.15309 0.77743 0.0
C2360 C 0.46797 0.13052 0.79025 0.0
C2361 C 0.44307 0.10117 0.74452 0.0
H2362 H 0.42003 0.06133 0.78911 0.0
C2363 C 0.37595 0.03613 0.72447 0.0
C2364 C 0.35985 0.03218 0.74073 0.0
C2365 C 0.39422 0.04953 0.72908 0.0
C2366 C 0.42609 0.07253 0.77652 0.0
H2367 H 0.51469 0.14098 0.74758 0.0
H2368 H 0.48988 0.10975 0.74257 0.0
H2369 H 0.45076 0.08587 0.79826 0.0
H2370 H 0.35093 0.03837 0.77496 0.0
H2371 H 0.38169 0.06286 0.78252 0.0
H2372 H 0.41799 0.08869 0.72301 0.0
C2373 C 0.48772 0.12028 0.75692 0.0
C2374 C 0.44378 0.08644 0.78176 0.0
C2375 C 0.50201 0.13811 0.75992 0.0
C2376 C 0.36241 0.04189 0.7617 0.0
C2377 C 0.38046 0.05547 0.76624 0.0
C2378 C 0.42523 0.0875 0.73935 0.0
C2379 C 0.47 0.1169 0.77151 0.0
C2380 C 0.45236 0.10095 0.76583 0.0
C2381 C 0.39677 0.05924 0.75011 0.0
C2382 C 0.41637 0.07314 0.75534 0.0
H2383 H 0.47957 0.15941 0.80712 0.0
H2384 H 0.45449 0.12816 0.80184 0.0
H2385 H 0.44913 0.11251 0.73202 0.0
H2386 H 0.37459 0.02842 0.70835 0.0
H2387 H 0.40662 0.05178 0.71635 0.0
C2388 C 0.63789 0.56219 0.75915 0.0
C2389 C 0.64315 0.54242 0.74831 0.0
C2390 C 0.62152 0.57612 0.75049 0.0
C2391 C 0.57326 0.57619 0.71295 0.0
H2392 H 0.58241 0.63966 0.71275 0.0
C2393 C 0.50353 0.64014 0.70401 0.0
C2394 C 0.50828 0.66069 0.69422 0.0
C2395 C 0.51994 0.62401 0.7059 0.0
C2396 C 0.57975 0.62195 0.71232 0.0
H2397 H 0.63579 0.52127 0.72046 0.0
H2398 H 0.60731 0.54555 0.70513 0.0
H2399 H 0.61132 0.61539 0.72697 0.0
H2400 H 0.53312 0.67935 0.67625 0.0
H2401 H 0.56179 0.65107 0.6795 0.0
H2402 H 0.54167 0.58275 0.69834 0.0
C2403 C 0.61548 0.55034 0.72034 0.0
C2404 C 0.59617 0.60808 0.72083 0.0
C2405 C 0.63176 0.53652 0.72899 0.0
C2406 C 0.52906 0.66387 0.68427 0.0
C2407 C 0.54552 0.64773 0.68624 0.0
C2408 C 0.55684 0.59005 0.70446 0.0
C2409 C 0.61021 0.57035 0.73093 0.0
C2410 C 0.59299 0.58507 0.72147 0.0
C2411 C 0.5414 0.62808 0.69798 0.0
C2412 C 0.55979 0.6131 0.70431 0.0
H2413 H 0.64662 0.56688 0.77406 0.0
H2414 H 0.61761 0.59132 0.75916 0.0
H2415 H 0.57027 0.55853 0.71333 0.0
H2416 H 0.48763 0.63706 0.71168 0.0
H2417 H 0.5162 0.60906 0.71504 0.0
C2418 C -0.00119 0.35464 0.22651 0.0
C2419 C -0.00239 0.33977 0.20864 0.0
C2420 C 0.98273 0.37099 0.22923 0.0
C2421 C 0.93844 0.40275 0.20321 0.0
H2422 H 0.90845 0.39625 0.25962 0.0
C2423 C 0.85571 0.44669 0.22034 0.0
C2424 C 0.85137 0.45444 0.24184 0.0
C2425 C 0.87392 0.43313 0.21611 0.0
C2426 C 0.91681 0.39864 0.24395 0.0
H2427 H 0.98012 0.33195 0.17836 0.0
H2428 H 0.95212 0.36093 0.18296 0.0
H2429 H 0.94107 0.37398 0.25164 0.0
H2430 H 0.86323 0.45468 0.27558 0.0
H2431 H 0.89562 0.43168 0.26817 0.0
H2432 H 0.91466 0.42778 0.19562 0.0
C2433 C 0.9653 0.35956 0.19502 0.0
C2434 C 0.93547 0.3858 0.23938 0.0
C2435 C 0.98125 0.34295 0.19244 0.0
C2436 C 0.86593 0.44856 0.25896 0.0
C2437 C 0.88442 0.43528 0.25467 0.0
C2438 C 0.91999 0.41591 0.20793 0.0
C2439 C 0.96539 0.37306 0.21395 0.0
C2440 C 0.94636 0.38764 0.21893 0.0
C2441 C 0.88874 0.42748 0.23313 0.0
C2442 C 0.90877 0.41388 0.2283 0.0
H2443 H 0.0112 0.35265 0.23931 0.0
H2444 H 0.98328 0.38141 0.24381 0.0
H2445 H 0.94665 0.4045 0.18737 0.0
H2446 H 0.84565 0.45177 0.20649 0.0
H2447 H 0.87647 0.42729 0.19937 0.0
C2448 C 0.27625 0.13021 0.95502 0.0
C2449 C 0.25488 0.13924 0.95397 0.0
C2450 C 0.28252 0.11325 0.94072 0.0
C2451 C 0.25961 0.06949 0.905 0.0
H2452 H 0.31845 0.06967 0.8793 0.0
C2453 C 0.28751 -0.00233 0.85066 0.0
C2454 C 0.2969 0.00378 0.83028 0.0
C2455 C 0.2857 0.01302 0.86779 0.0
C2456 C 0.30196 0.0694 0.88631 0.0
H2457 H 0.22307 0.1375 0.93788 0.0
H2458 H 0.23404 0.10787 0.91229 0.0
H2459 H 0.30724 0.09967 0.90387 0.0
H2460 H 0.31409 0.02999 0.81286 0.0
H2461 H 0.3104 0.05698 0.84247 0.0
H2462 H 0.25396 0.03976 0.88682 0.0
C2463 C 0.24596 0.11382 0.92426 0.0
C2464 C 0.29559 0.08649 0.90054 0.0
C2465 C 0.23967 0.13079 0.93872 0.0
C2466 C 0.3064 0.02487 0.82818 0.0
C2467 C 0.3044 0.04033 0.84526 0.0
C2468 C 0.26594 0.05248 0.89073 0.0
C2469 C 0.2675 0.1049 0.92509 0.0
C2470 C 0.2743 0.08676 0.90997 0.0
C2471 C 0.29312 0.03485 0.86487 0.0
C2472 C 0.28717 0.05225 0.88117 0.0
H2473 H 0.28796 0.13603 0.96723 0.0
H2474 H 0.29902 0.1064 0.9422 0.0
H2475 H 0.24321 0.06903 0.91221 0.0
H2476 H 0.28037 0.9814 0.85299 0.0
H2477 H 0.27756 0.00807 0.88297 0.0
C2478 C 0.72541 0.3651 0.04462 0.0
C2479 C 0.73978 0.34737 0.04017 0.0
C2480 C 0.73205 0.38238 0.05849 0.0
C2481 C 0.77036 0.39751 0.10255 0.0
H2482 H 0.76549 0.45701 0.07901 0.0
C2483 C 0.80051 0.47134 0.15367 0.0
C2484 C 0.78561 0.48916 0.15461 0.0
C2485 C 0.79825 0.45508 0.13736 0.0
C2486 C 0.76682 0.44054 0.08593 0.0
H2487 H 0.77277 0.33441 0.0463 0.0
H2488 H 0.78374 0.36376 0.07141 0.0
H2489 H 0.75253 0.42571 0.05708 0.0
H2490 H 0.75797 0.505 0.13797 0.0
H2491 H 0.75374 0.47669 0.11011 0.0
H2492 H 0.78376 0.41215 0.13175 0.0
C2493 C 0.76726 0.36413 0.06437 0.0
C2494 C 0.75936 0.42266 0.07337 0.0
C2495 C 0.76079 0.34711 0.05023 0.0
C2496 C 0.76973 0.49145 0.13779 0.0
C2497 C 0.76732 0.47515 0.12168 0.0
C2498 C 0.7775 0.4154 0.11528 0.0
C2499 C 0.75314 0.38212 0.06827 0.0
C2500 C 0.7609 0.40102 0.08166 0.0
C2501 C 0.78096 0.4563 0.12179 0.0
C2502 C 0.77564 0.43719 0.10722 0.0
H2503 H 0.70934 0.3659 0.03676 0.0
H2504 H 0.72086 0.39611 0.06134 0.0
H2505 H 0.7717 0.38094 0.10928 0.0
H2506 H 0.81327 0.46943 0.16607 0.0
H2507 H 0.8095 0.44112 0.1375 0.0
C2508 C 0.74859 0.62211 0.54464 0.0
C2509 C 0.73266 0.63703 0.53662 0.0
C2510 C 0.74248 0.60507 0.55905 0.0
C2511 C 0.70455 0.58992 0.60162 0.0
H2512 H 0.71396 0.52886 0.58428 0.0
C2513 C 0.68414 0.51943 0.66203 0.0
C2514 C 0.70017 0.50266 0.66326 0.0
C2515 C 0.68417 0.53434 0.64429 0.0
C2516 C 0.71141 0.5458 0.58953 0.0
H2517 H 0.69749 0.64448 0.53613 0.0
H2518 H 0.68722 0.61587 0.56252 0.0
H2519 H 0.72378 0.55863 0.55883 0.0
H2520 H 0.72785 0.48741 0.64613 0.0
H2521 H 0.72842 0.5135 0.61598 0.0
H2522 H 0.69347 0.5775 0.63277 0.0
C2523 C 0.70443 0.61762 0.55781 0.0
C2524 C 0.71698 0.56278 0.57489 0.0
C2525 C 0.71043 0.63429 0.54304 0.0
C2526 C 0.71522 0.50013 0.64571 0.0
C2527 C 0.71547 0.51514 0.62824 0.0
C2528 C 0.69944 0.57298 0.61649 0.0
C2529 C 0.72037 0.60284 0.56581 0.0
C2530 C 0.71383 0.58492 0.58096 0.0
C2531 C 0.7004 0.53287 0.62761 0.0
C2532 C 0.70312 0.55068 0.61078 0.0
H2533 H 0.76572 0.6236 0.53962 0.0
H2534 H 0.755 0.59371 0.56503 0.0
H2535 H 0.70198 0.60697 0.60655 0.0
H2536 H 0.67203 0.52147 0.67507 0.0
H2537 H 0.67189 0.5474 0.64405 0.0
C2538 C 0.24344 0.87015 0.46011 0.0
C2539 C 0.24602 0.84843 0.4522 0.0
C2540 C 0.2363 0.88701 0.44604 0.0
C2541 C 0.20337 0.8965 0.39684 0.0
H2542 H 0.23477 0.95219 0.39246 0.0
C2543 C 0.18809 0.95925 0.32687 0.0
C2544 C 0.19365 0.98155 0.33021 0.0
C2545 C 0.19096 0.94378 0.34378 0.0
C2546 C 0.22541 0.93699 0.39384 0.0
H2547 H 0.24512 0.82779 0.42293 0.0
H2548 H 0.23164 0.85714 0.39842 0.0
H2549 H 0.24837 0.92357 0.41728 0.0
H2550 H 0.20401 0.00562 0.35469 0.0
H2551 H 0.20789 0.97888 0.38458 0.0
H2552 H 0.18014 0.90992 0.37377 0.0
C2553 C 0.2348 0.86092 0.41565 0.0
C2554 C 0.2334 0.92052 0.40792 0.0
C2555 C 0.24232 0.84412 0.42967 0.0
C2556 C 0.19987 0.98848 0.3515 0.0
C2557 C 0.20237 0.97307 0.36856 0.0
C2558 C 0.19513 0.91312 0.38302 0.0
C2559 C 0.23143 0.88242 0.42382 0.0
C2560 C 0.22264 0.90003 0.40929 0.0
C2561 C 0.19907 0.95037 0.36459 0.0
C2562 C 0.20623 0.9335 0.38108 0.0
H2563 H 0.24616 0.87391 0.47741 0.0
H2564 H 0.23387 0.90348 0.4527 0.0
H2565 H 0.19459 0.88091 0.39792 0.0
H2566 H 0.1832 0.95336 0.31072 0.0
H2567 H 0.18828 0.9265 0.33996 0.0
C2568 C 0.04393 0.72816 0.85269 0.0
C2569 C 0.03583 0.74967 0.84894 0.0
C2570 C 0.0584 0.72389 0.87013 0.0
C2571 C 0.0725 0.74223 0.92523 0.0
H2572 H 0.12773 0.71083 0.91608 0.0
C2573 C 0.13904 0.73523 0.99293 0.0
C2574 C 0.15351 0.71702 0.99289 0.0
C2575 C 0.12309 0.73759 0.97642 0.0
C2576 C 0.11216 0.71918 0.91906 0.0
H2577 H 0.03591 0.78335 0.86108 0.0
H2578 H 0.061 0.77575 0.89213 0.0
H2579 H 0.10401 0.71909 0.88455 0.0
H2580 H 0.16131 0.68598 0.97674 0.0
H2581 H 0.13288 0.68962 0.9483 0.0
H2582 H 0.08016 0.74187 0.95974 0.0
C2583 C 0.05644 0.76237 0.88111 0.0
C2584 C 0.09871 0.7241 0.90093 0.0
C2585 C 0.04223 0.76673 0.86336 0.0
C2586 C 0.15064 0.70038 0.97695 0.0
C2587 C 0.13444 0.70258 0.96057 0.0
C2588 C 0.08576 0.737 0.94343 0.0
C2589 C 0.06459 0.74088 0.88464 0.0
C2590 C 0.07889 0.73585 0.90384 0.0
C2591 C 0.12097 0.7216 0.95966 0.0
C2592 C 0.1059 0.7256 0.94057 0.0
H2593 H 0.03835 0.71435 0.84285 0.0
H2594 H 0.06408 0.70708 0.87281 0.0
H2595 H 0.05707 0.75098 0.92791 0.0
H2596 H 0.14089 0.74844 0.00491 0.0
H2597 H 0.11327 0.75258 0.97622 0.0
C2598 C 0.45216 0.23922 0.37053 0.0
C2599 C 0.45868 0.2558 0.35561 0.0
C2600 C 0.43836 0.24429 0.38841 0.0
C2601 C 0.39666 0.28349 0.40717 0.0
H2602 H 0.413 0.26459 0.46626 0.0
C2603 C 0.33983 0.30281 0.48066 0.0
C2604 C 0.33618 0.28503 0.49514 0.0
C2605 C 0.35748 0.30224 0.46569 0.0
C2606 C 0.40807 0.26985 0.44986 0.0
H2607 H 0.45704 0.29103 0.34883 0.0
H2608 H 0.432 0.29959 0.37913 0.0
H2609 H 0.4373 0.25612 0.43512 0.0
H2610 H 0.34913 0.25349 0.50648 0.0
H2611 H 0.37928 0.25218 0.48023 0.0
H2612 H 0.36701 0.2963 0.42147 0.0
C2613 C 0.43726 0.28261 0.37673 0.0
C2614 C 0.42202 0.26499 0.43207 0.0
C2615 C 0.45132 0.27761 0.35912 0.0
C2616 C 0.35146 0.2675 0.49554 0.0
C2617 C 0.36889 0.26678 0.48045 0.0
C2618 C 0.38254 0.28804 0.42489 0.0
C2619 C 0.43079 0.26605 0.39162 0.0
C2620 C 0.41631 0.27159 0.41055 0.0
C2621 C 0.37169 0.28376 0.46479 0.0
C2622 C 0.38792 0.28106 0.44645 0.0
H2623 H 0.45794 0.22238 0.36841 0.0
H2624 H 0.43354 0.23122 0.39968 0.0
H2625 H 0.39188 0.28867 0.39069 0.0
H2626 H 0.32861 0.31678 0.48034 0.0
H2627 H 0.35951 0.31593 0.45432 0.0
C2628 C 0.63988 0.77181 -0.0021 0.0
C2629 C 0.65602 0.78845 -0.00013 0.0
C2630 C 0.62369 0.76928 0.01412 0.0
C2631 C 0.59391 0.79385 0.06005 0.0
H2632 H 0.59935 0.73591 0.08722 0.0
C2633 C 0.54815 0.77275 0.14089 0.0
C2634 C 0.54015 0.7511 0.14377 0.0
C2635 C 0.56218 0.77788 0.1233 0.0
C2636 C 0.59726 0.75202 0.07966 0.0
H2637 H 0.66612 0.81714 0.01884 0.0
H2638 H 0.6374 0.81285 0.04718 0.0
H2639 H 0.62187 0.74509 0.05513 0.0
H2640 H 0.53985 0.71812 0.12993 0.0
H2641 H 0.56362 0.72715 0.09858 0.0
H2642 H 0.56881 0.80066 0.084 0.0
C2643 C 0.63773 0.80154 0.03327 0.0
C2644 C 0.61026 0.75729 0.06134 0.0
C2645 C 0.65419 0.80391 0.01715 0.0
C2646 C 0.54619 0.7348 0.12837 0.0
C2647 C 0.55991 0.74001 0.11049 0.0
C2648 C 0.58055 0.78845 0.07816 0.0
C2649 C 0.62303 0.78358 0.03236 0.0
C2650 C 0.60871 0.77823 0.05141 0.0
C2651 C 0.56803 0.76168 0.10766 0.0
C2652 C 0.58213 0.76747 0.08828 0.0
H2653 H 0.64072 0.75964 0.98476 0.0
H2654 H 0.61231 0.75549 0.01296 0.0
H2655 H 0.59244 0.81008 0.05258 0.0
H2656 H 0.54298 0.78601 0.15172 0.0
H2657 H 0.56823 0.79468 0.1219 0.0
C2658 C 0.85212 0.21971 0.50249 0.0
C2659 C 0.83336 0.20631 0.50556 0.0
C2660 C 0.86836 0.22102 0.51879 0.0
C2661 C 0.90416 0.21719 0.55332 0.0
H2662 H 0.88025 0.22414 0.61248 0.0
C2663 C 0.96008 0.23469 0.62818 0.0
C2664 C 0.95241 0.24993 0.64388 0.0
C2665 C 0.94615 0.22716 0.61147 0.0
C2666 C 0.88715 0.22239 0.59604 0.0
H2667 H 0.81832 0.18182 0.52699 0.0
H2668 H 0.84676 0.18412 0.55558 0.0
H2669 H 0.85592 0.21306 0.58232 0.0
H2670 H 0.92448 0.26923 0.65498 0.0
H2671 H 0.89988 0.25663 0.62513 0.0
H2672 H 0.93514 0.22752 0.56674 0.0
C2673 C 0.8485 0.1941 0.54079 0.0
C2674 C 0.87329 0.21566 0.57882 0.0
C2675 C 0.83222 0.19275 0.52441 0.0
C2676 C 0.93061 0.25763 0.64277 0.0
C2677 C 0.9166 0.25021 0.62589 0.0
C2678 C 0.91798 0.224 0.57049 0.0
C2679 C 0.86631 0.20887 0.53849 0.0
C2680 C 0.88158 0.21329 0.5572 0.0
C2681 C 0.92424 0.23484 0.61006 0.0
C2682 C 0.90959 0.22694 0.592 0.0
H2683 H 0.85365 0.23029 0.4881 0.0
H2684 H 0.88178 0.23265 0.51649 0.0
H2685 H 0.91109 0.21534 0.53689 0.0
H2686 H 0.97682 0.22835 0.6292 0.0
H2687 H 0.95246 0.21504 0.59986 0.0
C2688 C 0.84593 0.05026 0.7118 0.0
C2689 C 0.84298 0.04293 0.73372 0.0
C2690 C 0.86305 0.06478 0.70643 0.0
C2691 C 0.91871 0.07812 0.7204 0.0
H2692 H 0.90862 0.13637 0.69548 0.0
C2693 C 0.98717 0.14354 0.71671 0.0
C2694 C 0.98617 0.16061 0.70097 0.0
C2695 C 0.97059 0.12758 0.71778 0.0
C2696 C 0.91185 0.11997 0.70191 0.0
H2697 H 0.85621 0.04454 0.76696 0.0
H2698 H 0.8868 0.06941 0.75733 0.0
H2699 H 0.87719 0.11249 0.70384 0.0
H2700 H 0.96816 0.17309 0.67262 0.0
H2701 H 0.93955 0.14461 0.67384 0.0
H2702 H 0.95325 0.08497 0.71789 0.0
C2703 C 0.87533 0.06431 0.74455 0.0
C2704 C 0.89378 0.10644 0.70692 0.0
C2705 C 0.85786 0.0502 0.75004 0.0
C2706 C 0.96913 0.16037 0.68519 0.0
C2707 C 0.95266 0.14412 0.68602 0.0
C2708 C 0.93679 0.0914 0.71494 0.0
C2709 C 0.87806 0.07163 0.72268 0.0
C2710 C 0.8971 0.08562 0.71661 0.0
C2711 C 0.95274 0.12798 0.70285 0.0
C2712 C 0.93363 0.11273 0.70607 0.0
H2713 H 0.83576 0.04407 0.69852 0.0
H2714 H 0.86514 0.06992 0.68938 0.0
H2715 H 0.9216 0.06191 0.72751 0.0
H2716 H 0.0 0.1433 0.72923 0.0
H2717 H 0.97122 0.11572 0.73118 0.0
C2718 C 0.62775 0.94409 0.26869 0.0
C2719 C 0.64495 0.94915 0.25395 0.0
C2720 C 0.61039 0.93029 0.26217 0.0
C2721 C 0.58324 0.90875 0.21117 0.0
H2722 H 0.55304 0.8708 0.25309 0.0
C2723 C 0.52082 0.83711 0.19256 0.0
C2724 C 0.50193 0.83691 0.20615 0.0
C2725 C 0.53718 0.85318 0.19561 0.0
C2726 C 0.56127 0.88148 0.24127 0.0
H2727 H 0.657 0.94401 0.22048 0.0
H2728 H 0.62803 0.9186 0.20981 0.0
H2729 H 0.58512 0.89193 0.26509 0.0
H2730 H 0.48417 0.85495 0.23174 0.0
H2731 H 0.5128 0.88267 0.23709 0.0
H2732 H 0.55966 0.89731 0.18718 0.0
C2733 C 0.62758 0.92559 0.2263 0.0
C2734 C 0.5796 0.89366 0.24814 0.0
C2735 C 0.64465 0.93971 0.23267 0.0
C2736 C 0.49861 0.85444 0.22112 0.0
C2737 C 0.51503 0.87027 0.22433 0.0
C2738 C 0.56512 0.89619 0.20421 0.0
C2739 C 0.60993 0.9211 0.24076 0.0
C2740 C 0.59077 0.90759 0.23324 0.0
C2741 C 0.53484 0.86914 0.21233 0.0
C2742 C 0.5539 0.88265 0.21929 0.0
H2743 H 0.62734 0.95153 0.28499 0.0
H2744 H 0.59694 0.92757 0.27368 0.0
H2745 H 0.59109 0.91961 0.1993 0.0
H2746 H 0.52367 0.82405 0.18062 0.0
H2747 H 0.55233 0.85215 0.18607 0.0
C2748 C 0.47541 0.3412 0.29659 0.0
C2749 C 0.49346 0.33877 0.28215 0.0
C2750 C 0.46042 0.35865 0.29378 0.0
C2751 C 0.45113 0.41154 0.26311 0.0
H2752 H 0.38967 0.39342 0.26553 0.0
C2753 C 0.37926 0.47201 0.24559 0.0
C2754 C 0.3605 0.46374 0.23476 0.0
C2755 C 0.39618 0.45777 0.25224 0.0
C2756 C 0.40676 0.39869 0.26455 0.0
H2757 H 0.51101 0.3539 0.25467 0.0
H2758 H 0.48496 0.38388 0.24965 0.0
H2759 H 0.41841 0.36789 0.27748 0.0
H2760 H 0.34483 0.43451 0.22156 0.0
H2761 H 0.37477 0.40938 0.23255 0.0
H2762 H 0.43957 0.44192 0.24918 0.0
C2763 C 0.48226 0.37249 0.26321 0.0
C2764 C 0.42324 0.38419 0.27182 0.0
C2765 C 0.49723 0.35516 0.26607 0.0
C2766 C 0.35919 0.4411 0.22998 0.0
C2767 C 0.37621 0.42681 0.23647 0.0
C2768 C 0.43467 0.42597 0.25568 0.0
C2769 C 0.46325 0.37401 0.2765 0.0
C2770 C 0.44566 0.39034 0.27098 0.0
C2771 C 0.39475 0.43493 0.24802 0.0
C2772 C 0.41228 0.41965 0.25611 0.0
H2773 H 0.47235 0.3292 0.30949 0.0
H2774 H 0.44624 0.35969 0.3047 0.0
H2775 H 0.4682 0.41692 0.26243 0.0
H2776 H 0.38035 0.48941 0.24972 0.0
H2777 H 0.41 0.46459 0.26135 0.0
C2778 C 0.13728 0.54617 0.77467 0.0
C2779 C 0.14015 0.53725 0.75339 0.0
C2780 C 0.12073 0.56173 0.77883 0.0
C2781 C 0.08082 0.59934 0.75054 0.0
H2782 H 0.0519 0.59882 0.80791 0.0
C2783 C 0.00015 0.64609 0.76714 0.0
C2784 C 0.00193 0.66259 0.78346 0.0
C2785 C 0.01635 0.62979 0.76514 0.0
C2786 C 0.05995 0.59914 0.79189 0.0
H2787 H 0.12723 0.53685 0.72005 0.0
H2788 H 0.09759 0.56331 0.72739 0.0
H2789 H 0.08164 0.57252 0.80026 0.0
H2790 H 0.02099 0.67374 0.81171 0.0
H2791 H 0.04922 0.64468 0.80845 0.0
H2792 H 0.05836 0.62541 0.74203 0.0
C2793 C 0.10881 0.55912 0.74071 0.0
C2794 C 0.07709 0.58422 0.78748 0.0
C2795 C 0.12568 0.54384 0.73647 0.0
C2796 C 0.01935 0.66141 0.79882 0.0
C2797 C 0.03542 0.6448 0.79702 0.0
C2798 C 0.06342 0.61391 0.75482 0.0
C2799 C 0.10608 0.56826 0.76199 0.0
C2800 C 0.08781 0.58415 0.76674 0.0
C2801 C 0.0344 0.62938 0.77966 0.0
C2802 C 0.05286 0.61393 0.77551 0.0
H2803 H 0.14725 0.54063 0.78842 0.0
H2804 H 0.11937 0.56848 0.79537 0.0
H2805 H 0.08891 0.60017 0.73458 0.0
H2806 H 0.98696 0.64648 0.75502 0.0
H2807 H 0.01515 0.61789 0.75178 0.0
C2808 C 0.75567 0.85666 0.0574 0.0
C2809 C 0.74144 0.85062 0.04018 0.0
C2810 C 0.74914 0.87281 0.0727 0.0
C2811 C 0.71146 0.92016 0.07953 0.0
H2812 H 0.7201 0.91004 0.14229 0.0
C2813 C 0.70843 0.9884 0.14629 0.0
C2814 C 0.69962 0.98301 0.16714 0.0
C2815 C 0.70989 0.97242 0.12968 0.0
C2816 C 0.71733 0.91298 0.12482 0.0
H2817 H 0.70981 0.85679 0.02467 0.0
H2818 H 0.6983 0.88504 0.05129 0.0
H2819 H 0.73138 0.8817 0.11574 0.0
H2820 H 0.68343 0.95719 0.18612 0.0
H2821 H 0.68615 0.92923 0.1571 0.0
H2822 H 0.69763 0.95155 0.08861 0.0
C2823 C 0.71441 0.87738 0.05316 0.0
C2824 C 0.72407 0.8969 0.10964 0.0
C2825 C 0.72086 0.86117 0.03807 0.0
C2826 C 0.6906 0.96181 0.17038 0.0
C2827 C 0.69226 0.94576 0.15381 0.0
C2828 C 0.7049 0.93633 0.09471 0.0
C2829 C 0.72841 0.88331 0.0707 0.0
C2830 C 0.72129 0.90037 0.08684 0.0
C2831 C 0.70264 0.9507 0.1336 0.0
C2832 C 0.70785 0.93293 0.1175 0.0
H2833 H 0.77164 0.8487 0.05911 0.0
H2834 H 0.76036 0.87725 0.08595 0.0
H2835 H 0.70922 0.92332 0.06203 0.0
H2836 H 0.71542 0.00461 0.1432 0.0
H2837 H 0.71798 0.97672 0.11427 0.0
C2838 C 0.2235 0.501 0.85476 0.0
C2839 C 0.20678 0.50185 0.83865 0.0
C2840 C 0.22475 0.51711 0.87121 0.0
C2841 C 0.20683 0.57479 0.88179 0.0
H2842 H 0.23415 0.56397 0.93885 0.0
C2843 C 0.21456 0.64002 0.95169 0.0
C2844 C 0.23596 0.64291 0.96038 0.0
C2845 C 0.21007 0.62282 0.93697 0.0
C2846 C 0.2266 0.56718 0.92291 0.0
H2847 H 0.17711 0.51911 0.82828 0.0
H2848 H 0.17872 0.54686 0.85759 0.0
H2849 H 0.22568 0.53284 0.91461 0.0
H2850 H 0.26914 0.62945 0.96112 0.0
H2851 H 0.26111 0.59883 0.93569 0.0
H2852 H 0.20729 0.60917 0.89058 0.0
C2853 C 0.19144 0.53424 0.85698 0.0
C2854 C 0.22177 0.54939 0.90898 0.0
C2855 C 0.19039 0.51825 0.84027 0.0
C2856 C 0.25263 0.62783 0.95438 0.0
C2857 C 0.24802 0.61032 0.93997 0.0
C2858 C 0.2113 0.59252 0.89593 0.0
C2859 C 0.20907 0.53431 0.87223 0.0
C2860 C 0.21215 0.55297 0.88805 0.0
C2861 C 0.22668 0.6077 0.93117 0.0
C2862 C 0.22153 0.58889 0.91644 0.0
H2863 H 0.23648 0.48865 0.85391 0.0
H2864 H 0.23874 0.51667 0.88238 0.0
H2865 H 0.19984 0.57833 0.86569 0.0
H2866 H 0.20099 0.6504 0.95692 0.0
H2867 H 0.19338 0.62085 0.93074 0.0
C2868 C 0.23868 0.35857 0.43631 0.0
C2869 C 0.25358 0.35107 0.45238 0.0
C2870 C 0.24512 0.37495 0.42125 0.0
C2871 C 0.28478 0.42043 0.41374 0.0
H2872 H 0.27222 0.41274 0.35131 0.0
C2873 C 0.28906 0.49009 0.34831 0.0
C2874 C 0.29661 0.48451 0.32702 0.0
C2875 C 0.28722 0.47392 0.3647 0.0
C2876 C 0.27607 0.41499 0.36867 0.0
H2877 H 0.28626 0.35523 0.46633 0.0
H2878 H 0.29766 0.38372 0.44002 0.0
H2879 H 0.2608 0.38431 0.37762 0.0
H2880 H 0.30963 0.45789 0.3068 0.0
H2881 H 0.30656 0.42971 0.33543 0.0
H2882 H 0.2999 0.45121 0.40477 0.0
C2883 C 0.28112 0.37694 0.43882 0.0
C2884 C 0.26926 0.39887 0.38374 0.0
C2885 C 0.27473 0.3605 0.45367 0.0
C2886 C 0.30383 0.46278 0.32298 0.0
C2887 C 0.30184 0.44656 0.33932 0.0
C2888 C 0.29142 0.43665 0.39868 0.0
C2889 C 0.26644 0.38425 0.42238 0.0
C2890 C 0.2735 0.40145 0.40642 0.0
C2891 C 0.29277 0.45182 0.36006 0.0
C2892 C 0.28711 0.43409 0.376 0.0
H2893 H 0.22223 0.35157 0.43529 0.0
H2894 H 0.2334 0.38049 0.40888 0.0
H2895 H 0.28815 0.42289 0.43117 0.0
H2896 H 0.28341 0.50672 0.35198 0.0
H2897 H 0.28015 0.47845 0.38054 0.0
C2898 C 0.72618 0.12694 0.53725 0.0
C2899 C 0.74335 0.14186 0.53266 0.0
C2900 C 0.72995 0.10846 0.55069 0.0
C2901 C 0.77605 0.07389 0.57298 0.0
H2902 H 0.73092 0.05319 0.61353 0.0
C2903 C 0.79021 0.01647 0.64878 0.0
C2904 C 0.77442 -0.00024 0.65213 0.0
C2905 C 0.78771 0.03155 0.6314 0.0
C2906 C 0.74357 0.05867 0.60208 0.0
H2907 H 0.77832 0.14824 0.53761 0.0
H2908 H 0.78446 0.11744 0.5623 0.0
H2909 H 0.72323 0.08485 0.5898 0.0
H2910 H 0.74463 0.98465 0.63888 0.0
H2911 H 0.74027 0.0111 0.6088 0.0
H2912 H 0.79668 0.04817 0.5862 0.0
C2913 C 0.76809 0.11968 0.55538 0.0
C2914 C 0.73917 0.07676 0.58842 0.0
C2915 C 0.76439 0.13786 0.54171 0.0
C2916 C 0.75707 -0.00263 0.63681 0.0
C2917 C 0.75444 0.01259 0.61967 0.0
C2918 C 0.78057 0.05602 0.58692 0.0
C2919 C 0.75103 0.10455 0.55983 0.0
C2920 C 0.7554 0.08473 0.57379 0.0
C2921 C 0.7693 0.03022 0.61729 0.0
C2922 C 0.76438 0.04831 0.60161 0.0
H2923 H 0.70995 0.12939 0.53007 0.0
H2924 H 0.71649 0.09699 0.55342 0.0
H2925 H 0.7888 0.07919 0.56156 0.0
H2926 H 0.8039 0.01851 0.66013 0.0
H2927 H 0.79943 0.04501 0.62982 0.0
loop_
_geom_bond_atom_site_label_1
_geom_bond_atom_site_label_2
_geom_bond_distance
_geom_bond_site_symmetry_2
_ccdc_geom_bond_type
Zn0 O1 2.055 . S
Zn0 O8 2.046 . S
Zn0 N16 2.036 . S
Zn0 O28 2.053 . S
Zn0 O30 2.066 . S
O1 Zn0 2.055 . S
O1 C4 1.259 . S
C2 O30 1.256 . S
C2 O31 1.244 . S
Zn3 O5 2.046 . S
Zn3 O7 2.055 . S
Zn3 N9 2.036 . S
Zn3 O27 2.066 . S
Zn3 O31 2.053 . S
C4 O1 1.259 . S
C4 O5 1.254 . S
O5 Zn3 2.046 . S
O5 C4 1.254 . S
C6 O27 1.256 . S
C6 O28 1.244 . S
O7 Zn3 2.055 . S
O7 C29 1.259 . S
O8 Zn0 2.046 . S
O8 C29 1.254 . S
N9 Zn3 2.036 . S
N9 C10 1.298 . S
N9 N12 1.398 . S
C10 N9 1.298 . S
C10 N13 1.367 . S
C10 C23 1.481 . S
C11 N12 1.299 . S
C11 N13 1.379 . S
N12 N9 1.398 . S
N12 C11 1.299 . S
N13 C10 1.367 . S
N13 C11 1.379 . S
C14 N16 1.298 1_655 S
C14 N18 1.367 . S
C14 C22 1.481 . S
C15 N17 1.299 1_655 S
C15 N18 1.379 . S
N16 Zn0 2.036 . S
N16 C14 1.298 1_455 S
N16 N17 1.398 . S
N17 C15 1.299 1_455 S
N17 N16 1.398 . S
N18 C14 1.367 . S
N18 C15 1.379 . S
H19 C22 0.980 . S
H20 C22 0.981 . S
H21 C22 0.981 . S
C22 C14 1.481 . S
C22 H19 0.980 . S
C22 H20 0.981 . S
C22 H21 0.981 . S
C23 C10 1.481 . S
C23 H24 0.980 . S
C23 H25 0.981 . S
C23 H26 0.981 . S
H24 C23 0.980 . S
H25 C23 0.981 . S
H26 C23 0.981 . S
O27 Zn3 2.066 . S
O27 C6 1.256 . S
O28 Zn0 2.053 . S
O28 C6 1.244 . S
C29 O7 1.259 . S
C29 O8 1.254 . S
O30 Zn0 2.066 . S
O30 C2 1.256 . S
O31 C2 1.244 . S
O31 Zn3 2.053 . S
Zn32 O33 2.055 . S
Zn32 O40 2.046 . S
Zn32 N48 2.036 . S
Zn32 O60 2.053 . S
Zn32 O62 2.066 . S
O33 Zn32 2.055 . S
O33 C36 1.259 . S
C34 O62 1.256 . S
C34 O63 1.244 . S
Zn35 O37 2.046 . S
Zn35 O39 2.055 . S
Zn35 N41 2.036 . S
Zn35 O59 2.066 . S
Zn35 O63 2.053 . S
C36 O33 1.259 . S
C36 O37 1.254 . S
O37 Zn35 2.046 . S
O37 C36 1.254 . S
C38 O59 1.256 . S
C38 O60 1.244 . S
O39 Zn35 2.055 . S
O39 C61 1.259 . S
O40 Zn32 2.046 . S
O40 C61 1.254 . S
N41 Zn35 2.036 . S
N41 C42 1.298 . S
N41 N44 1.398 . S
C42 N41 1.298 . S
C42 N45 1.367 . S
C42 C55 1.481 . S
C43 N44 1.299 . S
C43 N45 1.379 . S
N44 N41 1.398 . S
N44 C43 1.299 . S
N45 C42 1.367 . S
N45 C43 1.379 . S
C46 N48 1.298 . S
C46 N50 1.367 . S
C46 C54 1.481 . S
C47 N49 1.299 . S
C47 N50 1.379 . S
N48 Zn32 2.036 . S
N48 C46 1.298 . S
N48 N49 1.398 . S
N49 C47 1.299 . S
N49 N48 1.398 . S
N50 C46 1.367 . S
N50 C47 1.379 . S
H51 C54 0.980 . S
H52 C54 0.981 . S
H53 C54 0.981 . S
C54 C46 1.481 . S
C54 H51 0.980 . S
C54 H52 0.981 . S
C54 H53 0.981 . S
C55 C42 1.481 . S
C55 H56 0.980 . S
C55 H57 0.981 . S
C55 H58 0.981 . S
H56 C55 0.980 . S
H57 C55 0.981 . S
H58 C55 0.981 . S
O59 Zn35 2.066 . S
O59 C38 1.256 . S
O60 Zn32 2.053 . S
O60 C38 1.244 . S
C61 O39 1.259 . S
C61 O40 1.254 . S
O62 Zn32 2.066 . S
O62 C34 1.256 . S
O63 C34 1.244 . S
O63 Zn35 2.053 . S
Zn64 O65 2.055 . S
Zn64 O72 2.046 . S
Zn64 N80 2.036 . S
Zn64 O92 2.053 . S
Zn64 O94 2.066 . S
O65 Zn64 2.055 . S
O65 C68 1.259 . S
C66 O94 1.256 . S
C66 O95 1.244 . S
Zn67 O69 2.046 . S
Zn67 O71 2.055 . S
Zn67 N73 2.036 . S
Zn67 O91 2.066 . S
Zn67 O95 2.053 . S
C68 O65 1.259 . S
C68 O69 1.254 . S
O69 Zn67 2.046 . S
O69 C68 1.254 . S
C70 O91 1.256 . S
C70 O92 1.244 . S
O71 Zn67 2.055 . S
O71 C93 1.259 . S
O72 Zn64 2.046 . S
O72 C93 1.254 . S
N73 Zn67 2.036 . S
N73 C74 1.298 . S
N73 N76 1.398 . S
C74 N73 1.298 . S
C74 N77 1.367 . S
C74 C87 1.481 . S
C75 N76 1.299 . S
C75 N77 1.379 . S
N76 N73 1.398 . S
N76 C75 1.299 . S
N77 C74 1.367 . S
N77 C75 1.379 . S
C78 N80 1.298 . S
C78 N82 1.367 . S
C78 C86 1.481 . S
C79 N81 1.299 . S
C79 N82 1.379 . S
N80 Zn64 2.036 . S
N80 C78 1.298 . S
N80 N81 1.398 . S
N81 C79 1.299 . S
N81 N80 1.398 . S
N82 C78 1.367 . S
N82 C79 1.379 . S
H83 C86 0.980 . S
H84 C86 0.981 . S
H85 C86 0.981 . S
C86 C78 1.481 . S
C86 H83 0.980 . S
C86 H84 0.981 . S
C86 H85 0.981 . S
C87 C74 1.481 . S
C87 H88 0.980 . S
C87 H89 0.981 . S
C87 H90 0.981 . S
H88 C87 0.980 . S
H89 C87 0.981 . S
H90 C87 0.981 . S
O91 Zn67 2.066 . S
O91 C70 1.256 . S
O92 Zn64 2.053 . S
O92 C70 1.244 . S
C93 O71 1.259 . S
C93 O72 1.254 . S
O94 Zn64 2.066 . S
O94 C66 1.256 . S
O95 C66 1.244 . S
O95 Zn67 2.053 . S
Zn96 O97 2.055 . S
Zn96 O104 2.046 . S
Zn96 N112 2.036 . S
Zn96 O124 2.053 . S
Zn96 O126 2.066 . S
O97 Zn96 2.055 . S
O97 C100 1.259 . S
C98 O126 1.256 . S
C98 O127 1.244 . S
Zn99 O101 2.046 . S
Zn99 O103 2.055 . S
Zn99 N105 2.036 . S
Zn99 O123 2.066 . S
Zn99 O127 2.053 . S
C100 O97 1.259 . S
C100 O101 1.254 . S
O101 Zn99 2.046 . S
O101 C100 1.254 . S
C102 O123 1.256 . S
C102 O124 1.244 . S
O103 Zn99 2.055 . S
O103 C125 1.259 . S
O104 Zn96 2.046 . S
O104 C125 1.254 . S
N105 Zn99 2.036 . S
N105 C106 1.298 1_655 S
N105 N108 1.398 . S
C106 N105 1.298 1_455 S
C106 N109 1.367 . S
C106 C119 1.481 . S
C107 N108 1.299 1_455 S
C107 N109 1.379 . S
N108 N105 1.398 . S
N108 C107 1.299 1_655 S
N109 C106 1.367 . S
N109 C107 1.379 . S
C110 N112 1.298 . S
C110 N114 1.367 . S
C110 C118 1.481 . S
C111 N113 1.299 . S
C111 N114 1.379 . S
N112 Zn96 2.036 . S
N112 C110 1.298 . S
N112 N113 1.398 . S
N113 C111 1.299 . S
N113 N112 1.398 . S
N114 C110 1.367 . S
N114 C111 1.379 . S
H115 C118 0.980 . S
H116 C118 0.981 . S
H117 C118 0.981 . S
C118 C110 1.481 . S
C118 H115 0.980 . S
C118 H116 0.981 . S
C118 H117 0.981 . S
C119 C106 1.481 . S
C119 H120 0.980 . S
C119 H121 0.981 . S
C119 H122 0.981 . S
H120 C119 0.980 . S
H121 C119 0.981 . S
H122 C119 0.981 . S
O123 Zn99 2.066 . S
O123 C102 1.256 . S
O124 Zn96 2.053 . S
O124 C102 1.244 . S
C125 O103 1.259 . S
C125 O104 1.254 . S
O126 Zn96 2.066 . S
O126 C98 1.256 . S
O127 C98 1.244 . S
O127 Zn99 2.053 . S
Zn128 O129 2.055 . S
Zn128 O136 2.046 . S
Zn128 N144 2.036 . S
Zn128 O156 2.053 . S
Zn128 O158 2.066 . S
O129 Zn128 2.055 . S
O129 C132 1.259 . S
C130 O158 1.256 . S
C130 O159 1.244 . S
Zn131 O133 2.046 . S
Zn131 O135 2.055 . S
Zn131 N137 2.036 . S
Zn131 O155 2.066 . S
Zn131 O159 2.053 . S
C132 O129 1.259 . S
C132 O133 1.254 . S
O133 Zn131 2.046 . S
O133 C132 1.254 . S
C134 O155 1.256 . S
C134 O156 1.244 . S
O135 Zn131 2.055 . S
O135 C157 1.259 . S
O136 Zn128 2.046 . S
O136 C157 1.254 . S
N137 Zn131 2.036 . S
N137 C138 1.298 1_545 S
N137 N140 1.398 . S
C138 N137 1.298 1_565 S
C138 N141 1.367 . S
C138 C151 1.481 . S
C139 N140 1.299 1_565 S
C139 N141 1.379 . S
N140 N137 1.398 . S
N140 C139 1.299 1_545 S
N141 C138 1.367 . S
N141 C139 1.379 . S
C142 N144 1.298 . S
C142 N146 1.367 . S
C142 C150 1.481 . S
C143 N145 1.299 . S
C143 N146 1.379 . S
N144 Zn128 2.036 . S
N144 C142 1.298 . S
N144 N145 1.398 . S
N145 C143 1.299 . S
N145 N144 1.398 . S
N146 C142 1.367 . S
N146 C143 1.379 . S
H147 C150 0.980 . S
H148 C150 0.981 . S
H149 C150 0.981 . S
C150 C142 1.481 . S
C150 H147 0.980 . S
C150 H148 0.981 . S
C150 H149 0.981 . S
C151 C138 1.481 . S
C151 H152 0.980 . S
C151 H153 0.981 . S
C151 H154 0.981 . S
H152 C151 0.980 . S
H153 C151 0.981 . S
H154 C151 0.981 . S
O155 Zn131 2.066 . S
O155 C134 1.256 . S
O156 Zn128 2.053 . S
O156 C134 1.244 . S
C157 O135 1.259 . S
C157 O136 1.254 . S
O158 Zn128 2.066 . S
O158 C130 1.256 . S
O159 C130 1.244 . S
O159 Zn131 2.053 . S
Zn160 O161 2.055 . S
Zn160 O168 2.046 . S
Zn160 N176 2.036 . S
Zn160 O188 2.053 . S
Zn160 O190 2.066 . S
O161 Zn160 2.055 . S
O161 C164 1.259 . S
C162 O190 1.256 . S
C162 O191 1.244 . S
Zn163 O165 2.046 . S
Zn163 O167 2.055 . S
Zn163 N169 2.036 . S
Zn163 O187 2.066 . S
Zn163 O191 2.053 . S
C164 O161 1.259 . S
C164 O165 1.254 . S
O165 Zn163 2.046 . S
O165 C164 1.254 . S
C166 O187 1.256 . S
C166 O188 1.244 . S
O167 Zn163 2.055 . S
O167 C189 1.259 . S
O168 Zn160 2.046 . S
O168 C189 1.254 . S
N169 Zn163 2.036 . S
N169 C170 1.298 . S
N169 N172 1.398 . S
C170 N169 1.298 . S
C170 N173 1.367 . S
C170 C183 1.481 . S
C171 N172 1.299 . S
C171 N173 1.379 . S
N172 N169 1.398 . S
N172 C171 1.299 . S
N173 C170 1.367 . S
N173 C171 1.379 . S
C174 N176 1.298 1_545 S
C174 N178 1.367 . S
C174 C182 1.481 . S
C175 N177 1.299 1_545 S
C175 N178 1.379 . S
N176 Zn160 2.036 . S
N176 C174 1.298 1_565 S
N176 N177 1.398 . S
N177 C175 1.299 1_565 S
N177 N176 1.398 . S
N178 C174 1.367 . S
N178 C175 1.379 . S
H179 C182 0.980 . S
H180 C182 0.981 . S
H181 C182 0.981 . S
C182 C174 1.481 . S
C182 H179 0.980 . S
C182 H180 0.981 . S
C182 H181 0.981 . S
C183 C170 1.481 . S
C183 H184 0.980 . S
C183 H185 0.981 . S
C183 H186 0.981 . S
H184 C183 0.980 . S
H185 C183 0.981 . S
H186 C183 0.981 . S
O187 Zn163 2.066 . S
O187 C166 1.256 . S
O188 Zn160 2.053 . S
O188 C166 1.244 . S
C189 O167 1.259 . S
C189 O168 1.254 . S
O190 Zn160 2.066 . S
O190 C162 1.256 . S
O191 C162 1.244 . S
O191 Zn163 2.053 . S
Zn192 O193 2.055 . S
Zn192 O200 2.046 . S
Zn192 N208 2.036 . S
Zn192 O220 2.053 . S
Zn192 O222 2.066 . S
O193 Zn192 2.055 . S
O193 C196 1.259 . S
C194 O222 1.256 . S
C194 O223 1.244 . S
Zn195 O197 2.046 . S
Zn195 O199 2.055 . S
Zn195 N201 2.036 . S
Zn195 O219 2.066 . S
Zn195 O223 2.053 . S
C196 O193 1.259 . S
C196 O197 1.254 . S
O197 Zn195 2.046 . S
O197 C196 1.254 . S
C198 O219 1.256 . S
C198 O220 1.244 . S
O199 Zn195 2.055 . S
O199 C221 1.259 . S
O200 Zn192 2.046 . S
O200 C221 1.254 . S
N201 Zn195 2.036 . S
N201 C202 1.298 . S
N201 N204 1.398 . S
C202 N201 1.298 . S
C202 N205 1.367 . S
C202 C215 1.481 . S
C203 N204 1.299 . S
C203 N205 1.379 . S
N204 N201 1.398 . S
N204 C203 1.299 . S
N205 C202 1.367 . S
N205 C203 1.379 . S
C206 N208 1.298 . S
C206 N210 1.367 . S
C206 C214 1.481 . S
C207 N209 1.299 . S
C207 N210 1.379 . S
N208 Zn192 2.036 . S
N208 C206 1.298 . S
N208 N209 1.398 . S
N209 C207 1.299 . S
N209 N208 1.398 . S
N210 C206 1.367 . S
N210 C207 1.379 . S
H211 C214 0.980 . S
H212 C214 0.981 . S
H213 C214 0.981 . S
C214 C206 1.481 . S
C214 H211 0.980 . S
C214 H212 0.981 . S
C214 H213 0.981 . S
C215 C202 1.481 . S
C215 H216 0.980 . S
C215 H217 0.981 . S
C215 H218 0.981 . S
H216 C215 0.980 . S
H217 C215 0.981 . S
H218 C215 0.981 . S
O219 Zn195 2.066 . S
O219 C198 1.256 . S
O220 Zn192 2.053 . S
O220 C198 1.244 . S
C221 O199 1.259 . S
C221 O200 1.254 . S
O222 Zn192 2.066 . S
O222 C194 1.256 . S
O223 C194 1.244 . S
O223 Zn195 2.053 . S
Zn224 O225 2.055 . S
Zn224 O232 2.046 . S
Zn224 N240 2.036 . S
Zn224 O252 2.053 . S
Zn224 O254 2.066 . S
O225 Zn224 2.055 . S
O225 C228 1.259 . S
C226 O254 1.256 . S
C226 O255 1.244 . S
Zn227 O229 2.046 . S
Zn227 O231 2.055 . S
Zn227 N233 2.036 . S
Zn227 O251 2.066 . S
Zn227 O255 2.053 . S
C228 O225 1.259 . S
C228 O229 1.254 . S
O229 Zn227 2.046 . S
O229 C228 1.254 . S
C230 O251 1.256 . S
C230 O252 1.244 . S
O231 Zn227 2.055 . S
O231 C253 1.259 . S
O232 Zn224 2.046 . S
O232 C253 1.254 . S
N233 Zn227 2.036 . S
N233 C234 1.298 . S
N233 N236 1.398 . S
C234 N233 1.298 . S
C234 N237 1.367 . S
C234 C247 1.481 . S
C235 N236 1.299 . S
C235 N237 1.379 . S
N236 N233 1.398 . S
N236 C235 1.299 . S
N237 C234 1.367 . S
N237 C235 1.379 . S
C238 N240 1.298 . S
C238 N242 1.367 . S
C238 C246 1.481 . S
C239 N241 1.299 . S
C239 N242 1.379 . S
N240 Zn224 2.036 . S
N240 C238 1.298 . S
N240 N241 1.398 . S
N241 C239 1.299 . S
N241 N240 1.398 . S
N242 C238 1.367 . S
N242 C239 1.379 . S
H243 C246 0.980 . S
H244 C246 0.981 . S
H245 C246 0.981 . S
C246 C238 1.481 . S
C246 H243 0.980 . S
C246 H244 0.981 . S
C246 H245 0.981 . S
C247 C234 1.481 . S
C247 H248 0.980 . S
C247 H249 0.981 . S
C247 H250 0.981 . S
H248 C247 0.980 . S
H249 C247 0.981 . S
H250 C247 0.981 . S
O251 Zn227 2.066 . S
O251 C230 1.256 . S
O252 Zn224 2.053 . S
O252 C230 1.244 . S
C253 O231 1.259 . S
C253 O232 1.254 . S
O254 Zn224 2.066 . S
O254 C226 1.256 . S
O255 C226 1.244 . S
O255 Zn227 2.053 . S
Zn256 O257 2.055 . S
Zn256 O264 2.046 . S
Zn256 N272 2.036 . S
Zn256 O284 2.053 . S
Zn256 O286 2.066 . S
O257 Zn256 2.055 . S
O257 C260 1.259 . S
C258 O286 1.256 . S
C258 O287 1.244 . S
Zn259 O261 2.046 . S
Zn259 O263 2.055 . S
Zn259 N265 2.036 . S
Zn259 O283 2.066 . S
Zn259 O287 2.053 . S
C260 O257 1.259 . S
C260 O261 1.254 . S
O261 Zn259 2.046 . S
O261 C260 1.254 . S
C262 O283 1.256 . S
C262 O284 1.244 . S
O263 Zn259 2.055 . S
O263 C285 1.259 . S
O264 Zn256 2.046 . S
O264 C285 1.254 . S
N265 Zn259 2.036 . S
N265 C266 1.298 . S
N265 N268 1.398 . S
C266 N265 1.298 . S
C266 N269 1.367 . S
C266 C279 1.481 . S
C267 N268 1.299 . S
C267 N269 1.379 . S
N268 N265 1.398 . S
N268 C267 1.299 . S
N269 C266 1.367 . S
N269 C267 1.379 . S
C270 N272 1.298 1_556 S
C270 N274 1.367 . S
C270 C278 1.481 . S
C271 N273 1.299 1_556 S
C271 N274 1.379 . S
N272 Zn256 2.036 . S
N272 C270 1.298 1_554 S
N272 N273 1.398 . S
N273 C271 1.299 1_554 S
N273 N272 1.398 . S
N274 C270 1.367 . S
N274 C271 1.379 . S
H275 C278 0.980 . S
H276 C278 0.981 . S
H277 C278 0.981 . S
C278 C270 1.481 . S
C278 H275 0.980 . S
C278 H276 0.981 . S
C278 H277 0.981 . S
C279 C266 1.481 . S
C279 H280 0.980 . S
C279 H281 0.981 . S
C279 H282 0.981 . S
H280 C279 0.980 . S
H281 C279 0.981 . S
H282 C279 0.981 . S
O283 Zn259 2.066 . S
O283 C262 1.256 . S
O284 Zn256 2.053 . S
O284 C262 1.244 . S
C285 O263 1.259 . S
C285 O264 1.254 . S
O286 Zn256 2.066 . S
O286 C258 1.256 . S
O287 C258 1.244 . S
O287 Zn259 2.053 . S
Zn288 O289 2.055 . S
Zn288 O296 2.046 . S
Zn288 N304 2.036 . S
Zn288 O316 2.053 . S
Zn288 O318 2.066 . S
O289 Zn288 2.055 . S
O289 C292 1.259 . S
C290 O318 1.256 . S
C290 O319 1.244 . S
Zn291 O293 2.046 . S
Zn291 O295 2.055 . S
Zn291 N297 2.036 . S
Zn291 O315 2.066 . S
Zn291 O319 2.053 . S
C292 O289 1.259 . S
C292 O293 1.254 . S
O293 Zn291 2.046 . S
O293 C292 1.254 . S
C294 O315 1.256 . S
C294 O316 1.244 . S
O295 Zn291 2.055 . S
O295 C317 1.259 . S
O296 Zn288 2.046 . S
O296 C317 1.254 . S
N297 Zn291 2.036 . S
N297 C298 1.298 . S
N297 N300 1.398 . S
C298 N297 1.298 . S
C298 N301 1.367 . S
C298 C311 1.481 . S
C299 N300 1.299 . S
C299 N301 1.379 . S
N300 N297 1.398 . S
N300 C299 1.299 . S
N301 C298 1.367 . S
N301 C299 1.379 . S
C302 N304 1.298 1_554 S
C302 N306 1.367 . S
C302 C310 1.481 . S
C303 N305 1.299 1_554 S
C303 N306 1.379 . S
N304 Zn288 2.036 . S
N304 C302 1.298 1_556 S
N304 N305 1.398 . S
N305 C303 1.299 1_556 S
N305 N304 1.398 . S
N306 C302 1.367 . S
N306 C303 1.379 . S
H307 C310 0.980 . S
H308 C310 0.981 . S
H309 C310 0.981 . S
C310 C302 1.481 . S
C310 H307 0.980 . S
C310 H308 0.981 . S
C310 H309 0.981 . S
C311 C298 1.481 . S
C311 H312 0.980 . S
C311 H313 0.981 . S
C311 H314 0.981 . S
H312 C311 0.980 . S
H313 C311 0.981 . S
H314 C311 0.981 . S
O315 Zn291 2.066 . S
O315 C294 1.256 . S
O316 Zn288 2.053 . S
O316 C294 1.244 . S
C317 O295 1.259 . S
C317 O296 1.254 . S
O318 Zn288 2.066 . S
O318 C290 1.256 . S
O319 C290 1.244 . S
O319 Zn291 2.053 . S
Zn320 O321 2.055 . S
Zn320 O328 2.046 . S
Zn320 N336 2.036 . S
Zn320 O348 2.053 . S
Zn320 O350 2.066 . S
O321 Zn320 2.055 . S
O321 C324 1.259 . S
C322 O350 1.256 . S
C322 O351 1.244 . S
Zn323 O325 2.046 . S
Zn323 O327 2.055 . S
Zn323 N329 2.036 . S
Zn323 O347 2.066 . S
Zn323 O351 2.053 . S
C324 O321 1.259 . S
C324 O325 1.254 . S
O325 Zn323 2.046 . S
O325 C324 1.254 . S
C326 O347 1.256 . S
C326 O348 1.244 . S
O327 Zn323 2.055 . S
O327 C349 1.259 . S
O328 Zn320 2.046 . S
O328 C349 1.254 . S
N329 Zn323 2.036 . S
N329 C330 1.298 . S
N329 N332 1.398 . S
C330 N329 1.298 . S
C330 N333 1.367 . S
C330 C343 1.481 . S
C331 N332 1.299 . S
C331 N333 1.379 . S
N332 N329 1.398 . S
N332 C331 1.299 . S
N333 C330 1.367 . S
N333 C331 1.379 . S
C334 N336 1.298 . S
C334 N338 1.367 . S
C334 C342 1.481 . S
C335 N337 1.299 . S
C335 N338 1.379 . S
N336 Zn320 2.036 . S
N336 C334 1.298 . S
N336 N337 1.398 . S
N337 C335 1.299 . S
N337 N336 1.398 . S
N338 C334 1.367 . S
N338 C335 1.379 . S
H339 C342 0.980 . S
H340 C342 0.981 . S
H341 C342 0.981 . S
C342 C334 1.481 . S
C342 H339 0.980 . S
C342 H340 0.981 . S
C342 H341 0.981 . S
C343 C330 1.481 . S
C343 H344 0.980 . S
C343 H345 0.981 . S
C343 H346 0.981 . S
H344 C343 0.980 . S
H345 C343 0.981 . S
H346 C343 0.981 . S
O347 Zn323 2.066 . S
O347 C326 1.256 . S
O348 Zn320 2.053 . S
O348 C326 1.244 . S
C349 O327 1.259 . S
C349 O328 1.254 . S
O350 Zn320 2.066 . S
O350 C322 1.256 . S
O351 C322 1.244 . S
O351 Zn323 2.053 . S
Zn352 O353 2.055 . S
Zn352 O360 2.046 . S
Zn352 N368 2.036 . S
Zn352 O380 2.053 . S
Zn352 O382 2.066 . S
O353 Zn352 2.055 . S
O353 C356 1.259 . S
C354 O382 1.256 . S
C354 O383 1.244 . S
Zn355 O357 2.046 . S
Zn355 O359 2.055 . S
Zn355 N361 2.036 . S
Zn355 O379 2.066 . S
Zn355 O383 2.053 . S
C356 O353 1.259 . S
C356 O357 1.254 . S
O357 Zn355 2.046 . S
O357 C356 1.254 . S
C358 O379 1.256 . S
C358 O380 1.244 . S
O359 Zn355 2.055 . S
O359 C381 1.259 . S
O360 Zn352 2.046 . S
O360 C381 1.254 . S
N361 Zn355 2.036 . S
N361 C362 1.298 . S
N361 N364 1.398 . S
C362 N361 1.298 . S
C362 N365 1.367 . S
C362 C375 1.481 . S
C363 N364 1.299 . S
C363 N365 1.379 . S
N364 N361 1.398 . S
N364 C363 1.299 . S
N365 C362 1.367 . S
N365 C363 1.379 . S
C366 N368 1.298 . S
C366 N370 1.367 . S
C366 C374 1.481 . S
C367 N369 1.299 . S
C367 N370 1.379 . S
N368 Zn352 2.036 . S
N368 C366 1.298 . S
N368 N369 1.398 . S
N369 C367 1.299 . S
N369 N368 1.398 . S
N370 C366 1.367 . S
N370 C367 1.379 . S
H371 C374 0.980 . S
H372 C374 0.981 . S
H373 C374 0.981 . S
C374 C366 1.481 . S
C374 H371 0.980 . S
C374 H372 0.981 . S
C374 H373 0.981 . S
C375 C362 1.481 . S
C375 H376 0.980 . S
C375 H377 0.981 . S
C375 H378 0.981 . S
H376 C375 0.980 . S
H377 C375 0.981 . S
H378 C375 0.981 . S
O379 Zn355 2.066 . S
O379 C358 1.256 . S
O380 Zn352 2.053 . S
O380 C358 1.244 . S
C381 O359 1.259 . S
C381 O360 1.254 . S
O382 Zn352 2.066 . S
O382 C354 1.256 . S
O383 C354 1.244 . S
O383 Zn355 2.053 . S
Zn384 O385 2.055 . S
Zn384 O392 2.046 . S
Zn384 N400 2.036 . S
Zn384 O412 2.053 . S
Zn384 O414 2.066 . S
O385 Zn384 2.055 . S
O385 C388 1.259 . S
C386 O414 1.256 . S
C386 O415 1.244 . S
Zn387 O389 2.046 . S
Zn387 O391 2.055 . S
Zn387 N393 2.036 . S
Zn387 O411 2.066 . S
Zn387 O415 2.053 . S
C388 O385 1.259 . S
C388 O389 1.254 . S
O389 Zn387 2.046 . S
O389 C388 1.254 . S
C390 O411 1.256 . S
C390 O412 1.244 . S
O391 Zn387 2.055 . S
O391 C413 1.259 . S
O392 Zn384 2.046 . S
O392 C413 1.254 . S
N393 Zn387 2.036 . S
N393 C394 1.298 1_655 S
N393 N396 1.398 . S
C394 N393 1.298 1_455 S
C394 N397 1.367 . S
C394 C407 1.481 . S
C395 N396 1.299 1_455 S
C395 N397 1.379 . S
N396 N393 1.398 . S
N396 C395 1.299 1_655 S
N397 C394 1.367 . S
N397 C395 1.379 . S
C398 N400 1.298 . S
C398 N402 1.367 . S
C398 C406 1.481 . S
C399 N401 1.299 . S
C399 N402 1.379 . S
N400 Zn384 2.036 . S
N400 C398 1.298 . S
N400 N401 1.398 . S
N401 C399 1.299 . S
N401 N400 1.398 . S
N402 C398 1.367 . S
N402 C399 1.379 . S
H403 C406 0.980 . S
H404 C406 0.981 . S
H405 C406 0.981 . S
C406 C398 1.481 . S
C406 H403 0.980 . S
C406 H404 0.981 . S
C406 H405 0.981 . S
C407 C394 1.481 . S
C407 H408 0.980 . S
C407 H409 0.981 . S
C407 H410 0.981 . S
H408 C407 0.980 . S
H409 C407 0.981 . S
H410 C407 0.981 . S
O411 Zn387 2.066 . S
O411 C390 1.256 . S
O412 Zn384 2.053 . S
O412 C390 1.244 . S
C413 O391 1.259 . S
C413 O392 1.254 . S
O414 Zn384 2.066 . S
O414 C386 1.256 . S
O415 C386 1.244 . S
O415 Zn387 2.053 . S
Zn416 O417 2.055 . S
Zn416 O424 2.046 . S
Zn416 N432 2.036 . S
Zn416 O444 2.053 . S
Zn416 O446 2.066 . S
O417 Zn416 2.055 . S
O417 C420 1.259 . S
C418 O446 1.256 . S
C418 O447 1.244 . S
Zn419 O421 2.046 . S
Zn419 O423 2.055 . S
Zn419 N425 2.036 . S
Zn419 O443 2.066 . S
Zn419 O447 2.053 . S
C420 O417 1.259 . S
C420 O421 1.254 . S
O421 Zn419 2.046 . S
O421 C420 1.254 . S
C422 O443 1.256 . S
C422 O444 1.244 . S
O423 Zn419 2.055 . S
O423 C445 1.259 . S
O424 Zn416 2.046 . S
O424 C445 1.254 . S
N425 Zn419 2.036 . S
N425 C426 1.298 . S
N425 N428 1.398 . S
C426 N425 1.298 . S
C426 N429 1.367 . S
C426 C439 1.481 . S
C427 N428 1.299 . S
C427 N429 1.379 . S
N428 N425 1.398 . S
N428 C427 1.299 . S
N429 C426 1.367 . S
N429 C427 1.379 . S
C430 N432 1.298 . S
C430 N434 1.367 . S
C430 C438 1.481 . S
C431 N433 1.299 . S
C431 N434 1.379 . S
N432 Zn416 2.036 . S
N432 C430 1.298 . S
N432 N433 1.398 . S
N433 C431 1.299 . S
N433 N432 1.398 . S
N434 C430 1.367 . S
N434 C431 1.379 . S
H435 C438 0.980 . S
H436 C438 0.981 . S
H437 C438 0.981 . S
C438 C430 1.481 . S
C438 H435 0.980 . S
C438 H436 0.981 . S
C438 H437 0.981 . S
C439 C426 1.481 . S
C439 H440 0.980 . S
C439 H441 0.981 . S
C439 H442 0.981 . S
H440 C439 0.980 . S
H441 C439 0.981 . S
H442 C439 0.981 . S
O443 Zn419 2.066 . S
O443 C422 1.256 . S
O444 Zn416 2.053 . S
O444 C422 1.244 . S
C445 O423 1.259 . S
C445 O424 1.254 . S
O446 Zn416 2.066 . S
O446 C418 1.256 . S
O447 C418 1.244 . S
O447 Zn419 2.053 . S
Zn448 O449 2.055 . S
Zn448 O456 2.046 . S
Zn448 N464 2.036 . S
Zn448 O476 2.053 . S
Zn448 O478 2.066 . S
O449 Zn448 2.055 . S
O449 C452 1.259 . S
C450 O478 1.256 . S
C450 O479 1.244 . S
Zn451 O453 2.046 . S
Zn451 O455 2.055 . S
Zn451 N457 2.036 . S
Zn451 O475 2.066 . S
Zn451 O479 2.053 . S
C452 O449 1.259 . S
C452 O453 1.254 . S
O453 Zn451 2.046 . S
O453 C452 1.254 . S
C454 O475 1.256 . S
C454 O476 1.244 . S
O455 Zn451 2.055 . S
O455 C477 1.259 . S
O456 Zn448 2.046 . S
O456 C477 1.254 . S
N457 Zn451 2.036 . S
N457 C458 1.298 . S
N457 N460 1.398 . S
C458 N457 1.298 . S
C458 N461 1.367 . S
C458 C471 1.481 . S
C459 N460 1.299 . S
C459 N461 1.379 . S
N460 N457 1.398 . S
N460 C459 1.299 . S
N461 C458 1.367 . S
N461 C459 1.379 . S
C462 N464 1.298 . S
C462 N466 1.367 . S
C462 C470 1.481 . S
C463 N465 1.299 . S
C463 N466 1.379 . S
N464 Zn448 2.036 . S
N464 C462 1.298 . S
N464 N465 1.398 . S
N465 C463 1.299 . S
N465 N464 1.398 . S
N466 C462 1.367 . S
N466 C463 1.379 . S
H467 C470 0.980 . S
H468 C470 0.981 . S
H469 C470 0.981 . S
C470 C462 1.481 . S
C470 H467 0.980 . S
C470 H468 0.981 . S
C470 H469 0.981 . S
C471 C458 1.481 . S
C471 H472 0.980 . S
C471 H473 0.981 . S
C471 H474 0.981 . S
H472 C471 0.980 . S
H473 C471 0.981 . S
H474 C471 0.981 . S
O475 Zn451 2.066 . S
O475 C454 1.256 . S
O476 Zn448 2.053 . S
O476 C454 1.244 . S
C477 O455 1.259 . S
C477 O456 1.254 . S
O478 Zn448 2.066 . S
O478 C450 1.256 . S
O479 C450 1.244 . S
O479 Zn451 2.053 . S
Zn480 O481 2.055 . S
Zn480 O488 2.046 . S
Zn480 N496 2.036 . S
Zn480 O508 2.053 . S
Zn480 O510 2.066 . S
O481 Zn480 2.055 . S
O481 C484 1.259 . S
C482 O510 1.256 . S
C482 O511 1.244 . S
Zn483 O485 2.046 . S
Zn483 O487 2.055 . S
Zn483 N489 2.036 . S
Zn483 O507 2.066 . S
Zn483 O511 2.053 . S
C484 O481 1.259 . S
C484 O485 1.254 . S
O485 Zn483 2.046 . S
O485 C484 1.254 . S
C486 O507 1.256 . S
C486 O508 1.244 . S
O487 Zn483 2.055 . S
O487 C509 1.259 . S
O488 Zn480 2.046 . S
O488 C509 1.254 . S
N489 Zn483 2.036 . S
N489 C490 1.298 1_455 S
N489 N492 1.398 . S
C490 N489 1.298 1_655 S
C490 N493 1.367 . S
C490 C503 1.481 . S
C491 N492 1.299 1_655 S
C491 N493 1.379 . S
N492 N489 1.398 . S
N492 C491 1.299 1_455 S
N493 C490 1.367 . S
N493 C491 1.379 . S
C494 N496 1.298 . S
C494 N498 1.367 . S
C494 C502 1.481 . S
C495 N497 1.299 . S
C495 N498 1.379 . S
N496 Zn480 2.036 . S
N496 C494 1.298 . S
N496 N497 1.398 . S
N497 C495 1.299 . S
N497 N496 1.398 . S
N498 C494 1.367 . S
N498 C495 1.379 . S
H499 C502 0.980 . S
H500 C502 0.981 . S
H501 C502 0.981 . S
C502 C494 1.481 . S
C502 H499 0.980 . S
C502 H500 0.981 . S
C502 H501 0.981 . S
C503 C490 1.481 . S
C503 H504 0.980 . S
C503 H505 0.981 . S
C503 H506 0.981 . S
H504 C503 0.980 . S
H505 C503 0.981 . S
H506 C503 0.981 . S
O507 Zn483 2.066 . S
O507 C486 1.256 . S
O508 Zn480 2.053 . S
O508 C486 1.244 . S
C509 O487 1.259 . S
C509 O488 1.254 . S
O510 Zn480 2.066 . S
O510 C482 1.256 . S
O511 C482 1.244 . S
O511 Zn483 2.053 . S
Zn512 O513 2.055 . S
Zn512 O520 2.046 . S
Zn512 N528 2.036 . S
Zn512 O540 2.053 . S
Zn512 O542 2.066 . S
O513 Zn512 2.055 . S
O513 C516 1.259 . S
C514 O542 1.256 . S
C514 O543 1.244 . S
Zn515 O517 2.046 . S
Zn515 O519 2.055 . S
Zn515 N521 2.036 . S
Zn515 O539 2.066 . S
Zn515 O543 2.053 . S
C516 O513 1.259 . S
C516 O517 1.254 . S
O517 Zn515 2.046 . S
O517 C516 1.254 . S
C518 O539 1.256 . S
C518 O540 1.244 . S
O519 Zn515 2.055 . S
O519 C541 1.259 . S
O520 Zn512 2.046 . S
O520 C541 1.254 . S
N521 Zn515 2.036 . S
N521 C522 1.298 1_565 S
N521 N524 1.398 . S
C522 N521 1.298 1_545 S
C522 N525 1.367 . S
C522 C535 1.481 . S
C523 N524 1.299 1_545 S
C523 N525 1.379 . S
N524 N521 1.398 . S
N524 C523 1.299 1_565 S
N525 C522 1.367 . S
N525 C523 1.379 . S
C526 N528 1.298 . S
C526 N530 1.367 . S
C526 C534 1.481 . S
C527 N529 1.299 . S
C527 N530 1.379 . S
N528 Zn512 2.036 . S
N528 C526 1.298 . S
N528 N529 1.398 . S
N529 C527 1.299 . S
N529 N528 1.398 . S
N530 C526 1.367 . S
N530 C527 1.379 . S
H531 C534 0.980 . S
H532 C534 0.981 . S
H533 C534 0.981 . S
C534 C526 1.481 . S
C534 H531 0.980 . S
C534 H532 0.981 . S
C534 H533 0.981 . S
C535 C522 1.481 . S
C535 H536 0.980 . S
C535 H537 0.981 . S
C535 H538 0.981 . S
H536 C535 0.980 . S
H537 C535 0.981 . S
H538 C535 0.981 . S
O539 Zn515 2.066 . S
O539 C518 1.256 . S
O540 Zn512 2.053 . S
O540 C518 1.244 . S
C541 O519 1.259 . S
C541 O520 1.254 . S
O542 Zn512 2.066 . S
O542 C514 1.256 . S
O543 C514 1.244 . S
O543 Zn515 2.053 . S
Zn544 O545 2.055 . S
Zn544 O552 2.046 . S
Zn544 N560 2.036 . S
Zn544 O572 2.053 . S
Zn544 O574 2.066 . S
O545 Zn544 2.055 . S
O545 C548 1.259 . S
C546 O574 1.256 . S
C546 O575 1.244 . S
Zn547 O549 2.046 . S
Zn547 O551 2.055 . S
Zn547 N553 2.036 . S
Zn547 O571 2.066 . S
Zn547 O575 2.053 . S
C548 O545 1.259 . S
C548 O549 1.254 . S
O549 Zn547 2.046 . S
O549 C548 1.254 . S
C550 O571 1.256 . S
C550 O572 1.244 . S
O551 Zn547 2.055 . S
O551 C573 1.259 . S
O552 Zn544 2.046 . S
O552 C573 1.254 . S
N553 Zn547 2.036 . S
N553 C554 1.298 . S
N553 N556 1.398 . S
C554 N553 1.298 . S
C554 N557 1.367 . S
C554 C567 1.481 . S
C555 N556 1.299 . S
C555 N557 1.379 . S
N556 N553 1.398 . S
N556 C555 1.299 . S
N557 C554 1.367 . S
N557 C555 1.379 . S
C558 N560 1.298 1_565 S
C558 N562 1.367 . S
C558 C566 1.481 . S
C559 N561 1.299 1_565 S
C559 N562 1.379 . S
N560 Zn544 2.036 . S
N560 C558 1.298 1_545 S
N560 N561 1.398 . S
N561 C559 1.299 1_545 S
N561 N560 1.398 . S
N562 C558 1.367 . S
N562 C559 1.379 . S
H563 C566 0.980 . S
H564 C566 0.981 . S
H565 C566 0.981 . S
C566 C558 1.481 . S
C566 H563 0.980 . S
C566 H564 0.981 . S
C566 H565 0.981 . S
C567 C554 1.481 . S
C567 H568 0.980 . S
C567 H569 0.981 . S
C567 H570 0.981 . S
H568 C567 0.980 . S
H569 C567 0.981 . S
H570 C567 0.981 . S
O571 Zn547 2.066 . S
O571 C550 1.256 . S
O572 Zn544 2.053 . S
O572 C550 1.244 . S
C573 O551 1.259 . S
C573 O552 1.254 . S
O574 Zn544 2.066 . S
O574 C546 1.256 . S
O575 C546 1.244 . S
O575 Zn547 2.053 . S
Zn576 O577 2.055 . S
Zn576 O584 2.046 . S
Zn576 N592 2.036 . S
Zn576 O604 2.053 . S
Zn576 O606 2.066 . S
O577 Zn576 2.055 . S
O577 C580 1.259 . S
C578 O606 1.256 . S
C578 O607 1.244 . S
Zn579 O581 2.046 . S
Zn579 O583 2.055 . S
Zn579 N585 2.036 . S
Zn579 O603 2.066 . S
Zn579 O607 2.053 . S
C580 O577 1.259 . S
C580 O581 1.254 . S
O581 Zn579 2.046 . S
O581 C580 1.254 . S
C582 O603 1.256 . S
C582 O604 1.244 . S
O583 Zn579 2.055 . S
O583 C605 1.259 . S
O584 Zn576 2.046 . S
O584 C605 1.254 . S
N585 Zn579 2.036 . S
N585 C586 1.298 . S
N585 N588 1.398 . S
C586 N585 1.298 . S
C586 N589 1.367 . S
C586 C599 1.481 . S
C587 N588 1.299 . S
C587 N589 1.379 . S
N588 N585 1.398 . S
N588 C587 1.299 . S
N589 C586 1.367 . S
N589 C587 1.379 . S
C590 N592 1.298 . S
C590 N594 1.367 . S
C590 C598 1.481 . S
C591 N593 1.299 . S
C591 N594 1.379 . S
N592 Zn576 2.036 . S
N592 C590 1.298 . S
N592 N593 1.398 . S
N593 C591 1.299 . S
N593 N592 1.398 . S
N594 C590 1.367 . S
N594 C591 1.379 . S
H595 C598 0.980 . S
H596 C598 0.981 . S
H597 C598 0.981 . S
C598 C590 1.481 . S
C598 H595 0.980 . S
C598 H596 0.981 . S
C598 H597 0.981 . S
C599 C586 1.481 . S
C599 H600 0.980 . S
C599 H601 0.981 . S
C599 H602 0.981 . S
H600 C599 0.980 . S
H601 C599 0.981 . S
H602 C599 0.981 . S
O603 Zn579 2.066 . S
O603 C582 1.256 . S
O604 Zn576 2.053 . S
O604 C582 1.244 . S
C605 O583 1.259 . S
C605 O584 1.254 . S
O606 Zn576 2.066 . S
O606 C578 1.256 . S
O607 C578 1.244 . S
O607 Zn579 2.053 . S
Zn608 O609 2.055 . S
Zn608 O616 2.046 . S
Zn608 N624 2.036 . S
Zn608 O636 2.053 . S
Zn608 O638 2.066 . S
O609 Zn608 2.055 . S
O609 C612 1.259 . S
C610 O638 1.256 . S
C610 O639 1.244 . S
Zn611 O613 2.046 . S
Zn611 O615 2.055 . S
Zn611 N617 2.036 . S
Zn611 O635 2.066 . S
Zn611 O639 2.053 . S
C612 O609 1.259 . S
C612 O613 1.254 . S
O613 Zn611 2.046 . S
O613 C612 1.254 . S
C614 O635 1.256 . S
C614 O636 1.244 . S
O615 Zn611 2.055 . S
O615 C637 1.259 . S
O616 Zn608 2.046 . S
O616 C637 1.254 . S
N617 Zn611 2.036 . S
N617 C618 1.298 . S
N617 N620 1.398 . S
C618 N617 1.298 . S
C618 N621 1.367 . S
C618 C631 1.481 . S
C619 N620 1.299 . S
C619 N621 1.379 . S
N620 N617 1.398 . S
N620 C619 1.299 . S
N621 C618 1.367 . S
N621 C619 1.379 . S
C622 N624 1.298 . S
C622 N626 1.367 . S
C622 C630 1.481 . S
C623 N625 1.299 . S
C623 N626 1.379 . S
N624 Zn608 2.036 . S
N624 C622 1.298 . S
N624 N625 1.398 . S
N625 C623 1.299 . S
N625 N624 1.398 . S
N626 C622 1.367 . S
N626 C623 1.379 . S
H627 C630 0.980 . S
H628 C630 0.981 . S
H629 C630 0.981 . S
C630 C622 1.481 . S
C630 H627 0.980 . S
C630 H628 0.981 . S
C630 H629 0.981 . S
C631 C618 1.481 . S
C631 H632 0.980 . S
C631 H633 0.981 . S
C631 H634 0.981 . S
H632 C631 0.980 . S
H633 C631 0.981 . S
H634 C631 0.981 . S
O635 Zn611 2.066 . S
O635 C614 1.256 . S
O636 Zn608 2.053 . S
O636 C614 1.244 . S
C637 O615 1.259 . S
C637 O616 1.254 . S
O638 Zn608 2.066 . S
O638 C610 1.256 . S
O639 C610 1.244 . S
O639 Zn611 2.053 . S
Zn640 O641 2.055 . S
Zn640 O648 2.046 . S
Zn640 N656 2.036 . S
Zn640 O668 2.053 . S
Zn640 O670 2.066 . S
O641 Zn640 2.055 . S
O641 C644 1.259 . S
C642 O670 1.256 . S
C642 O671 1.244 . S
Zn643 O645 2.046 . S
Zn643 O647 2.055 . S
Zn643 N649 2.036 . S
Zn643 O667 2.066 . S
Zn643 O671 2.053 . S
C644 O641 1.259 . S
C644 O645 1.254 . S
O645 Zn643 2.046 . S
O645 C644 1.254 . S
C646 O667 1.256 . S
C646 O668 1.244 . S
O647 Zn643 2.055 . S
O647 C669 1.259 . S
O648 Zn640 2.046 . S
O648 C669 1.254 . S
N649 Zn643 2.036 . S
N649 C650 1.298 . S
N649 N652 1.398 . S
C650 N649 1.298 . S
C650 N653 1.367 . S
C650 C663 1.481 . S
C651 N652 1.299 . S
C651 N653 1.379 . S
N652 N649 1.398 . S
N652 C651 1.299 . S
N653 C650 1.367 . S
N653 C651 1.379 . S
C654 N656 1.298 1_554 S
C654 N658 1.367 . S
C654 C662 1.481 . S
C655 N657 1.299 1_554 S
C655 N658 1.379 . S
N656 Zn640 2.036 . S
N656 C654 1.298 1_556 S
N656 N657 1.398 . S
N657 C655 1.299 1_556 S
N657 N656 1.398 . S
N658 C654 1.367 . S
N658 C655 1.379 . S
H659 C662 0.980 . S
H660 C662 0.981 . S
H661 C662 0.981 . S
C662 C654 1.481 . S
C662 H659 0.980 . S
C662 H660 0.981 . S
C662 H661 0.981 . S
C663 C650 1.481 . S
C663 H664 0.980 . S
C663 H665 0.981 . S
C663 H666 0.981 . S
H664 C663 0.980 . S
H665 C663 0.981 . S
H666 C663 0.981 . S
O667 Zn643 2.066 . S
O667 C646 1.256 . S
O668 Zn640 2.053 . S
O668 C646 1.244 . S
C669 O647 1.259 . S
C669 O648 1.254 . S
O670 Zn640 2.066 . S
O670 C642 1.256 . S
O671 C642 1.244 . S
O671 Zn643 2.053 . S
Zn672 O673 2.055 . S
Zn672 O680 2.046 . S
Zn672 N688 2.036 . S
Zn672 O700 2.053 . S
Zn672 O702 2.066 . S
O673 Zn672 2.055 . S
O673 C676 1.259 . S
C674 O702 1.256 . S
C674 O703 1.244 . S
Zn675 O677 2.046 . S
Zn675 O679 2.055 . S
Zn675 N681 2.036 . S
Zn675 O699 2.066 . S
Zn675 O703 2.053 . S
C676 O673 1.259 . S
C676 O677 1.254 . S
O677 Zn675 2.046 . S
O677 C676 1.254 . S
C678 O699 1.256 . S
C678 O700 1.244 . S
O679 Zn675 2.055 . S
O679 C701 1.259 . S
O680 Zn672 2.046 . S
O680 C701 1.254 . S
N681 Zn675 2.036 . S
N681 C682 1.298 . S
N681 N684 1.398 . S
C682 N681 1.298 . S
C682 N685 1.367 . S
C682 C695 1.481 . S
C683 N684 1.299 . S
C683 N685 1.379 . S
N684 N681 1.398 . S
N684 C683 1.299 . S
N685 C682 1.367 . S
N685 C683 1.379 . S
C686 N688 1.298 1_556 S
C686 N690 1.367 . S
C686 C694 1.481 . S
C687 N689 1.299 1_556 S
C687 N690 1.379 . S
N688 Zn672 2.036 . S
N688 C686 1.298 1_554 S
N688 N689 1.398 . S
N689 C687 1.299 1_554 S
N689 N688 1.398 . S
N690 C686 1.367 . S
N690 C687 1.379 . S
H691 C694 0.980 . S
H692 C694 0.981 . S
H693 C694 0.981 . S
C694 C686 1.481 . S
C694 H691 0.980 . S
C694 H692 0.981 . S
C694 H693 0.981 . S
C695 C682 1.481 . S
C695 H696 0.980 . S
C695 H697 0.981 . S
C695 H698 0.981 . S
H696 C695 0.980 . S
H697 C695 0.981 . S
H698 C695 0.981 . S
O699 Zn675 2.066 . S
O699 C678 1.256 . S
O700 Zn672 2.053 . S
O700 C678 1.244 . S
C701 O679 1.259 . S
C701 O680 1.254 . S
O702 Zn672 2.066 . S
O702 C674 1.256 . S
O703 C674 1.244 . S
O703 Zn675 2.053 . S
Zn704 O705 2.055 . S
Zn704 O712 2.046 . S
Zn704 N720 2.036 . S
Zn704 O732 2.053 . S
Zn704 O734 2.066 . S
O705 Zn704 2.055 . S
O705 C708 1.259 . S
C706 O734 1.256 . S
C706 O735 1.244 . S
Zn707 O709 2.046 . S
Zn707 O711 2.055 . S
Zn707 N713 2.036 . S
Zn707 O731 2.066 . S
Zn707 O735 2.053 . S
C708 O705 1.259 . S
C708 O709 1.254 . S
O709 Zn707 2.046 . S
O709 C708 1.254 . S
C710 O731 1.256 . S
C710 O732 1.244 . S
O711 Zn707 2.055 . S
O711 C733 1.259 . S
O712 Zn704 2.046 . S
O712 C733 1.254 . S
N713 Zn707 2.036 . S
N713 C714 1.298 . S
N713 N716 1.398 . S
C714 N713 1.298 . S
C714 N717 1.367 . S
C714 C727 1.481 . S
C715 N716 1.299 . S
C715 N717 1.379 . S
N716 N713 1.398 . S
N716 C715 1.299 . S
N717 C714 1.367 . S
N717 C715 1.379 . S
C718 N720 1.298 . S
C718 N722 1.367 . S
C718 C726 1.481 . S
C719 N721 1.299 . S
C719 N722 1.379 . S
N720 Zn704 2.036 . S
N720 C718 1.298 . S
N720 N721 1.398 . S
N721 C719 1.299 . S
N721 N720 1.398 . S
N722 C718 1.367 . S
N722 C719 1.379 . S
H723 C726 0.980 . S
H724 C726 0.981 . S
H725 C726 0.981 . S
C726 C718 1.481 . S
C726 H723 0.980 . S
C726 H724 0.981 . S
C726 H725 0.981 . S
C727 C714 1.481 . S
C727 H728 0.980 . S
C727 H729 0.981 . S
C727 H730 0.981 . S
H728 C727 0.980 . S
H729 C727 0.981 . S
H730 C727 0.981 . S
O731 Zn707 2.066 . S
O731 C710 1.256 . S
O732 Zn704 2.053 . S
O732 C710 1.244 . S
C733 O711 1.259 . S
C733 O712 1.254 . S
O734 Zn704 2.066 . S
O734 C706 1.256 . S
O735 C706 1.244 . S
O735 Zn707 2.053 . S
Zn736 O737 2.055 . S
Zn736 O744 2.046 . S
Zn736 N752 2.036 . S
Zn736 O764 2.053 . S
Zn736 O766 2.066 . S
O737 Zn736 2.055 . S
O737 C740 1.259 . S
C738 O766 1.256 . S
C738 O767 1.244 . S
Zn739 O741 2.046 . S
Zn739 O743 2.055 . S
Zn739 N745 2.036 . S
Zn739 O763 2.066 . S
Zn739 O767 2.053 . S
C740 O737 1.259 . S
C740 O741 1.254 . S
O741 Zn739 2.046 . S
O741 C740 1.254 . S
C742 O763 1.256 . S
C742 O764 1.244 . S
O743 Zn739 2.055 . S
O743 C765 1.259 . S
O744 Zn736 2.046 . S
O744 C765 1.254 . S
N745 Zn739 2.036 . S
N745 C746 1.298 . S
N745 N748 1.398 . S
C746 N745 1.298 . S
C746 N749 1.367 . S
C746 C759 1.481 . S
C747 N748 1.299 . S
C747 N749 1.379 . S
N748 N745 1.398 . S
N748 C747 1.299 . S
N749 C746 1.367 . S
N749 C747 1.379 . S
C750 N752 1.298 . S
C750 N754 1.367 . S
C750 C758 1.481 . S
C751 N753 1.299 . S
C751 N754 1.379 . S
N752 Zn736 2.036 . S
N752 C750 1.298 . S
N752 N753 1.398 . S
N753 C751 1.299 . S
N753 N752 1.398 . S
N754 C750 1.367 . S
N754 C751 1.379 . S
H755 C758 0.980 . S
H756 C758 0.981 . S
H757 C758 0.981 . S
C758 C750 1.481 . S
C758 H755 0.980 . S
C758 H756 0.981 . S
C758 H757 0.981 . S
C759 C746 1.481 . S
C759 H760 0.980 . S
C759 H761 0.981 . S
C759 H762 0.981 . S
H760 C759 0.980 . S
H761 C759 0.981 . S
H762 C759 0.981 . S
O763 Zn739 2.066 . S
O763 C742 1.256 . S
O764 Zn736 2.053 . S
O764 C742 1.244 . S
C765 O743 1.259 . S
C765 O744 1.254 . S
O766 Zn736 2.066 . S
O766 C738 1.256 . S
O767 C738 1.244 . S
O767 Zn739 2.053 . S
C768 C769 1.349 . S
C768 C770 1.327 . S
C768 H793 0.950 . S
C769 C768 1.349 . S
C769 C785 1.349 . S
C770 C768 1.327 . S
C770 C789 1.429 . S
C770 H794 0.950 . S
C771 C788 1.574 . S
C771 C790 1.368 . S
C771 H795 0.949 . S
H772 C776 0.949 . S
C773 C774 1.349 . S
C773 C775 1.327 . S
C773 H796 0.950 . S
C774 C773 1.349 . S
C774 C786 1.349 . S
C775 C773 1.327 . S
C775 C791 1.429 . S
C775 H797 0.950 . S
C776 H772 0.949 . S
C776 C784 1.574 . S
C776 C792 1.368 . S
H777 C785 0.950 . S
H778 C783 0.950 . S
H779 C784 0.949 . S
H780 C786 0.950 . S
H781 C787 0.950 . S
H782 C788 0.949 . S
C783 H778 0.950 . S
C783 C785 1.327 . S
C783 C789 1.429 . S
C784 C776 1.574 . S
C784 H779 0.949 . S
C784 C790 1.368 . S
C785 C769 1.349 . S
C785 H777 0.950 . S
C785 C783 1.327 . S
C786 C774 1.349 . S
C786 H780 0.950 . S
C786 C787 1.327 . S
C787 H781 0.950 . S
C787 C786 1.327 . S
C787 C791 1.429 . S
C788 C771 1.574 . S
C788 H782 0.949 . S
C788 C792 1.368 . S
C789 C770 1.429 . S
C789 C783 1.429 . S
C789 C790 1.523 . S
C790 C771 1.368 . S
C790 C784 1.368 . S
C790 C789 1.523 . S
C791 C775 1.429 . S
C791 C787 1.429 . S
C791 C792 1.523 . S
C792 C776 1.368 . S
C792 C788 1.368 . S
C792 C791 1.523 . S
H793 C768 0.950 . S
H794 C770 0.950 . S
H795 C771 0.949 . S
H796 C773 0.950 . S
H797 C775 0.950 . S
C798 C799 1.349 . S
C798 C800 1.327 . S
C798 H823 0.950 . S
C799 C798 1.349 . S
C799 C815 1.349 . S
C800 C798 1.327 . S
C800 C819 1.429 . S
C800 H824 0.950 . S
C801 C818 1.574 . S
C801 C820 1.368 . S
C801 H825 0.949 . S
H802 C806 0.949 . S
C803 C804 1.349 . S
C803 C805 1.327 . S
C803 H826 0.950 . S
C804 C803 1.349 . S
C804 C816 1.349 . S
C805 C803 1.327 . S
C805 C821 1.429 . S
C805 H827 0.950 . S
C806 H802 0.949 . S
C806 C814 1.574 . S
C806 C822 1.368 . S
H807 C815 0.950 . S
H808 C813 0.950 . S
H809 C814 0.949 . S
H810 C816 0.950 . S
H811 C817 0.950 . S
H812 C818 0.949 . S
C813 H808 0.950 . S
C813 C815 1.327 . S
C813 C819 1.429 . S
C814 C806 1.574 . S
C814 H809 0.949 . S
C814 C820 1.368 . S
C815 C799 1.349 . S
C815 H807 0.950 . S
C815 C813 1.327 . S
C816 C804 1.349 . S
C816 H810 0.950 . S
C816 C817 1.327 . S
C817 H811 0.950 . S
C817 C816 1.327 . S
C817 C821 1.429 . S
C818 C801 1.574 . S
C818 H812 0.949 . S
C818 C822 1.368 . S
C819 C800 1.429 . S
C819 C813 1.429 . S
C819 C820 1.523 . S
C820 C801 1.368 . S
C820 C814 1.368 . S
C820 C819 1.523 . S
C821 C805 1.429 . S
C821 C817 1.429 . S
C821 C822 1.523 . S
C822 C806 1.368 . S
C822 C818 1.368 . S
C822 C821 1.523 . S
H823 C798 0.950 . S
H824 C800 0.950 . S
H825 C801 0.949 . S
H826 C803 0.950 . S
H827 C805 0.950 . S
C828 C829 1.349 . S
C828 C830 1.327 . S
C828 H853 0.950 . S
C829 C828 1.349 . S
C829 C845 1.349 . S
C830 C828 1.327 . S
C830 C849 1.429 . S
C830 H854 0.950 . S
C831 C848 1.574 . S
C831 C850 1.368 . S
C831 H855 0.949 . S
H832 C836 0.949 . S
C833 C834 1.349 . S
C833 C835 1.327 . S
C833 H856 0.950 . S
C834 C833 1.349 . S
C834 C846 1.349 . S
C835 C833 1.327 . S
C835 C851 1.429 . S
C835 H857 0.950 . S
C836 H832 0.949 . S
C836 C844 1.574 . S
C836 C852 1.368 . S
H837 C845 0.950 . S
H838 C843 0.950 . S
H839 C844 0.949 . S
H840 C846 0.950 1_565 S
H841 C847 0.950 . S
H842 C848 0.949 . S
C843 H838 0.950 . S
C843 C845 1.327 . S
C843 C849 1.429 . S
C844 C836 1.574 . S
C844 H839 0.949 . S
C844 C850 1.368 . S
C845 C829 1.349 . S
C845 H837 0.950 . S
C845 C843 1.327 . S
C846 C834 1.349 . S
C846 H840 0.950 1_545 S
C846 C847 1.327 . S
C847 H841 0.950 . S
C847 C846 1.327 . S
C847 C851 1.429 . S
C848 C831 1.574 . S
C848 H842 0.949 . S
C848 C852 1.368 . S
C849 C830 1.429 . S
C849 C843 1.429 . S
C849 C850 1.523 . S
C850 C831 1.368 . S
C850 C844 1.368 . S
C850 C849 1.523 . S
C851 C835 1.429 . S
C851 C847 1.429 . S
C851 C852 1.523 . S
C852 C836 1.368 . S
C852 C848 1.368 . S
C852 C851 1.523 . S
H853 C828 0.950 . S
H854 C830 0.950 . S
H855 C831 0.949 . S
H856 C833 0.950 . S
H857 C835 0.950 . S
C858 C859 1.349 . S
C858 C860 1.327 . S
C858 H883 0.950 . S
C859 C858 1.349 . S
C859 C875 1.349 . S
C860 C858 1.327 . S
C860 C879 1.429 . S
C860 H884 0.950 . S
C861 C878 1.574 . S
C861 C880 1.368 . S
C861 H885 0.949 . S
H862 C866 0.949 . S
C863 C864 1.349 . S
C863 C865 1.327 . S
C863 H886 0.950 . S
C864 C863 1.349 . S
C864 C876 1.349 . S
C865 C863 1.327 . S
C865 C881 1.429 . S
C865 H887 0.950 . S
C866 H862 0.949 . S
C866 C874 1.574 . S
C866 C882 1.368 . S
H867 C875 0.950 . S
H868 C873 0.950 . S
H869 C874 0.949 . S
H870 C876 0.950 1_545 S
H871 C877 0.950 . S
H872 C878 0.949 . S
C873 H868 0.950 . S
C873 C875 1.327 . S
C873 C879 1.429 . S
C874 C866 1.574 . S
C874 H869 0.949 . S
C874 C880 1.368 . S
C875 C859 1.349 . S
C875 H867 0.950 . S
C875 C873 1.327 . S
C876 C864 1.349 . S
C876 H870 0.950 1_565 S
C876 C877 1.327 . S
C877 H871 0.950 . S
C877 C876 1.327 . S
C877 C881 1.429 . S
C878 C861 1.574 . S
C878 H872 0.949 . S
C878 C882 1.368 . S
C879 C860 1.429 . S
C879 C873 1.429 . S
C879 C880 1.523 . S
C880 C861 1.368 . S
C880 C874 1.368 . S
C880 C879 1.523 . S
C881 C865 1.429 . S
C881 C877 1.429 . S
C881 C882 1.523 . S
C882 C866 1.368 . S
C882 C878 1.368 . S
C882 C881 1.523 . S
H883 C858 0.950 . S
H884 C860 0.950 . S
H885 C861 0.949 . S
H886 C863 0.950 . S
H887 C865 0.950 . S
C888 C889 1.349 . S
C888 C890 1.327 . S
C888 H913 0.950 . S
C889 C888 1.349 . S
C889 C905 1.349 . S
C890 C888 1.327 . S
C890 C909 1.429 . S
C890 H914 0.950 . S
C891 C908 1.574 . S
C891 C910 1.368 . S
C891 H915 0.949 . S
H892 C896 0.949 . S
C893 C894 1.349 . S
C893 C895 1.327 . S
C893 H916 0.950 . S
C894 C893 1.349 . S
C894 C906 1.349 . S
C895 C893 1.327 . S
C895 C911 1.429 . S
C895 H917 0.950 . S
C896 H892 0.949 . S
C896 C904 1.574 . S
C896 C912 1.368 . S
H897 C905 0.950 . S
H898 C903 0.950 . S
H899 C904 0.949 . S
H900 C906 0.950 . S
H901 C907 0.950 . S
H902 C908 0.949 . S
C903 H898 0.950 . S
C903 C905 1.327 . S
C903 C909 1.429 . S
C904 C896 1.574 . S
C904 H899 0.949 . S
C904 C910 1.368 . S
C905 C889 1.349 . S
C905 H897 0.950 . S
C905 C903 1.327 . S
C906 C894 1.349 . S
C906 H900 0.950 . S
C906 C907 1.327 . S
C907 H901 0.950 . S
C907 C906 1.327 . S
C907 C911 1.429 . S
C908 C891 1.574 . S
C908 H902 0.949 . S
C908 C912 1.368 . S
C909 C890 1.429 . S
C909 C903 1.429 . S
C909 C910 1.523 . S
C910 C891 1.368 . S
C910 C904 1.368 . S
C910 C909 1.523 . S
C911 C895 1.429 . S
C911 C907 1.429 . S
C911 C912 1.523 . S
C912 C896 1.368 . S
C912 C908 1.368 . S
C912 C911 1.523 . S
H913 C888 0.950 . S
H914 C890 0.950 . S
H915 C891 0.949 . S
H916 C893 0.950 . S
H917 C895 0.950 . S
C918 C919 1.349 . S
C918 C920 1.327 . S
C918 H943 0.950 . S
C919 C918 1.349 . S
C919 C935 1.349 . S
C920 C918 1.327 . S
C920 C939 1.429 . S
C920 H944 0.950 . S
C921 C938 1.574 . S
C921 C940 1.368 . S
C921 H945 0.949 . S
H922 C926 0.949 . S
C923 C924 1.349 . S
C923 C925 1.327 . S
C923 H946 0.950 1_556 S
C924 C923 1.349 . S
C924 C936 1.349 . S
C925 C923 1.327 . S
C925 C941 1.429 . S
C925 H947 0.950 . S
C926 H922 0.949 . S
C926 C934 1.574 . S
C926 C942 1.368 . S
H927 C935 0.950 . S
H928 C933 0.950 . S
H929 C934 0.949 . S
H930 C936 0.950 . S
H931 C937 0.950 . S
H932 C938 0.949 . S
C933 H928 0.950 . S
C933 C935 1.327 . S
C933 C939 1.429 . S
C934 C926 1.574 . S
C934 H929 0.949 . S
C934 C940 1.368 . S
C935 C919 1.349 . S
C935 H927 0.950 . S
C935 C933 1.327 . S
C936 C924 1.349 . S
C936 H930 0.950 . S
C936 C937 1.327 . S
C937 H931 0.950 . S
C937 C936 1.327 . S
C937 C941 1.429 . S
C938 C921 1.574 . S
C938 H932 0.949 . S
C938 C942 1.368 . S
C939 C920 1.429 . S
C939 C933 1.429 . S
C939 C940 1.523 . S
C940 C921 1.368 . S
C940 C934 1.368 . S
C940 C939 1.523 . S
C941 C925 1.429 . S
C941 C937 1.429 . S
C941 C942 1.523 . S
C942 C926 1.368 . S
C942 C938 1.368 . S
C942 C941 1.523 . S
H943 C918 0.950 . S
H944 C920 0.950 . S
H945 C921 0.949 . S
H946 C923 0.950 1_554 S
H947 C925 0.950 . S
C948 C949 1.349 . S
C948 C950 1.327 . S
C948 H973 0.950 . S
C949 C948 1.349 . S
C949 C965 1.349 . S
C950 C948 1.327 . S
C950 C969 1.429 . S
C950 H974 0.950 . S
C951 C968 1.574 . S
C951 C970 1.368 . S
C951 H975 0.949 . S
H952 C956 0.949 . S
C953 C954 1.349 . S
C953 C955 1.327 . S
C953 H976 0.950 . S
C954 C953 1.349 . S
C954 C966 1.349 . S
C955 C953 1.327 . S
C955 C971 1.429 . S
C955 H977 0.950 . S
C956 H952 0.949 . S
C956 C964 1.574 . S
C956 C972 1.368 . S
H957 C965 0.950 . S
H958 C963 0.950 . S
H959 C964 0.949 . S
H960 C966 0.950 . S
H961 C967 0.950 . S
H962 C968 0.949 . S
C963 H958 0.950 . S
C963 C965 1.327 . S
C963 C969 1.429 . S
C964 C956 1.574 . S
C964 H959 0.949 . S
C964 C970 1.368 . S
C965 C949 1.349 . S
C965 H957 0.950 . S
C965 C963 1.327 . S
C966 C954 1.349 . S
C966 H960 0.950 . S
C966 C967 1.327 . S
C967 H961 0.950 . S
C967 C966 1.327 . S
C967 C971 1.429 . S
C968 C951 1.574 . S
C968 H962 0.949 . S
C968 C972 1.368 . S
C969 C950 1.429 . S
C969 C963 1.429 . S
C969 C970 1.523 . S
C970 C951 1.368 . S
C970 C964 1.368 . S
C970 C969 1.523 . S
C971 C955 1.429 . S
C971 C967 1.429 . S
C971 C972 1.523 . S
C972 C956 1.368 . S
C972 C968 1.368 . S
C972 C971 1.523 . S
H973 C948 0.950 . S
H974 C950 0.950 . S
H975 C951 0.949 . S
H976 C953 0.950 . S
H977 C955 0.950 . S
C978 C979 1.349 . S
C978 C980 1.327 . S
C978 H1003 0.950 . S
C979 C978 1.349 . S
C979 C995 1.349 . S
C980 C978 1.327 . S
C980 C999 1.429 . S
C980 H1004 0.950 . S
C981 C998 1.574 . S
C981 C1000 1.368 . S
C981 H1005 0.949 . S
H982 C986 0.949 . S
C983 C984 1.349 . S
C983 C985 1.327 . S
C983 H1006 0.950 1_554 S
C984 C983 1.349 . S
C984 C996 1.349 . S
C985 C983 1.327 . S
C985 C1001 1.429 . S
C985 H1007 0.950 . S
C986 H982 0.949 . S
C986 C994 1.574 . S
C986 C1002 1.368 . S
H987 C995 0.950 . S
H988 C993 0.950 . S
H989 C994 0.949 . S
H990 C996 0.950 . S
H991 C997 0.950 . S
H992 C998 0.949 . S
C993 H988 0.950 . S
C993 C995 1.327 . S
C993 C999 1.429 . S
C994 C986 1.574 . S
C994 H989 0.949 . S
C994 C1000 1.368 . S
C995 C979 1.349 . S
C995 H987 0.950 . S
C995 C993 1.327 . S
C996 C984 1.349 . S
C996 H990 0.950 . S
C996 C997 1.327 . S
C997 H991 0.950 . S
C997 C996 1.327 . S
C997 C1001 1.429 . S
C998 C981 1.574 . S
C998 H992 0.949 . S
C998 C1002 1.368 . S
C999 C980 1.429 . S
C999 C993 1.429 . S
C999 C1000 1.523 . S
C1000 C981 1.368 . S
C1000 C994 1.368 . S
C1000 C999 1.523 . S
C1001 C985 1.429 . S
C1001 C997 1.429 . S
C1001 C1002 1.523 . S
C1002 C986 1.368 . S
C1002 C998 1.368 . S
C1002 C1001 1.523 . S
H1003 C978 0.950 . S
H1004 C980 0.950 . S
H1005 C981 0.949 . S
H1006 C983 0.950 1_556 S
H1007 C985 0.950 . S
C1008 C1009 1.349 . S
C1008 C1010 1.327 . S
C1008 H1033 0.950 . S
C1009 C1008 1.349 . S
C1009 C1025 1.349 . S
C1010 C1008 1.327 . S
C1010 C1029 1.429 . S
C1010 H1034 0.950 . S
C1011 C1028 1.574 . S
C1011 C1030 1.368 . S
C1011 H1035 0.949 . S
H1012 C1016 0.949 . S
C1013 C1014 1.349 . S
C1013 C1015 1.327 . S
C1013 H1036 0.950 . S
C1014 C1013 1.349 . S
C1014 C1026 1.349 . S
C1015 C1013 1.327 . S
C1015 C1031 1.429 . S
C1015 H1037 0.950 . S
C1016 H1012 0.949 . S
C1016 C1024 1.574 . S
C1016 C1032 1.368 . S
H1017 C1025 0.950 . S
H1018 C1023 0.950 . S
H1019 C1024 0.949 . S
H1020 C1026 0.950 . S
H1021 C1027 0.950 . S
H1022 C1028 0.949 . S
C1023 H1018 0.950 . S
C1023 C1025 1.327 . S
C1023 C1029 1.429 . S
C1024 C1016 1.574 . S
C1024 H1019 0.949 . S
C1024 C1030 1.368 . S
C1025 C1009 1.349 . S
C1025 H1017 0.950 . S
C1025 C1023 1.327 . S
C1026 C1014 1.349 . S
C1026 H1020 0.950 . S
C1026 C1027 1.327 . S
C1027 H1021 0.950 . S
C1027 C1026 1.327 . S
C1027 C1031 1.429 . S
C1028 C1011 1.574 . S
C1028 H1022 0.949 . S
C1028 C1032 1.368 . S
C1029 C1010 1.429 . S
C1029 C1023 1.429 . S
C1029 C1030 1.523 . S
C1030 C1011 1.368 . S
C1030 C1024 1.368 . S
C1030 C1029 1.523 . S
C1031 C1015 1.429 . S
C1031 C1027 1.429 . S
C1031 C1032 1.523 . S
C1032 C1016 1.368 . S
C1032 C1028 1.368 . S
C1032 C1031 1.523 . S
H1033 C1008 0.950 . S
H1034 C1010 0.950 . S
H1035 C1011 0.949 . S
H1036 C1013 0.950 . S
H1037 C1015 0.950 . S
C1038 C1039 1.349 . S
C1038 C1040 1.327 . S
C1038 H1063 0.950 . S
C1039 C1038 1.349 . S
C1039 C1055 1.349 . S
C1040 C1038 1.327 . S
C1040 C1059 1.429 . S
C1040 H1064 0.950 . S
C1041 C1058 1.574 . S
C1041 C1060 1.368 . S
C1041 H1065 0.949 . S
H1042 C1046 0.949 . S
C1043 C1044 1.349 . S
C1043 C1045 1.327 . S
C1043 H1066 0.950 1_655 S
C1044 C1043 1.349 . S
C1044 C1056 1.349 . S
C1045 C1043 1.327 . S
C1045 C1061 1.429 . S
C1045 H1067 0.950 . S
C1046 H1042 0.949 . S
C1046 C1054 1.574 . S
C1046 C1062 1.368 . S
H1047 C1055 0.950 . S
H1048 C1053 0.950 . S
H1049 C1054 0.949 . S
H1050 C1056 0.950 . S
H1051 C1057 0.950 . S
H1052 C1058 0.949 . S
C1053 H1048 0.950 . S
C1053 C1055 1.327 . S
C1053 C1059 1.429 . S
C1054 C1046 1.574 . S
C1054 H1049 0.949 . S
C1054 C1060 1.368 . S
C1055 C1039 1.349 . S
C1055 H1047 0.950 . S
C1055 C1053 1.327 . S
C1056 C1044 1.349 . S
C1056 H1050 0.950 . S
C1056 C1057 1.327 . S
C1057 H1051 0.950 . S
C1057 C1056 1.327 . S
C1057 C1061 1.429 . S
C1058 C1041 1.574 . S
C1058 H1052 0.949 . S
C1058 C1062 1.368 . S
C1059 C1040 1.429 . S
C1059 C1053 1.429 . S
C1059 C1060 1.523 . S
C1060 C1041 1.368 . S
C1060 C1054 1.368 . S
C1060 C1059 1.523 . S
C1061 C1045 1.429 . S
C1061 C1057 1.429 . S
C1061 C1062 1.523 . S
C1062 C1046 1.368 . S
C1062 C1058 1.368 . S
C1062 C1061 1.523 . S
H1063 C1038 0.950 . S
H1064 C1040 0.950 . S
H1065 C1041 0.949 . S
H1066 C1043 0.950 1_455 S
H1067 C1045 0.950 . S
C1068 C1069 1.349 . S
C1068 C1070 1.327 . S
C1068 H1093 0.950 . S
C1069 C1068 1.349 . S
C1069 C1085 1.349 . S
C1070 C1068 1.327 . S
C1070 C1089 1.429 . S
C1070 H1094 0.950 . S
C1071 C1088 1.574 . S
C1071 C1090 1.368 . S
C1071 H1095 0.949 . S
H1072 C1076 0.949 . S
C1073 C1074 1.349 . S
C1073 C1075 1.327 . S
C1073 H1096 0.950 . S
C1074 C1073 1.349 . S
C1074 C1086 1.349 . S
C1075 C1073 1.327 . S
C1075 C1091 1.429 . S
C1075 H1097 0.950 . S
C1076 H1072 0.949 . S
C1076 C1084 1.574 . S
C1076 C1092 1.368 . S
H1077 C1085 0.950 . S
H1078 C1083 0.950 . S
H1079 C1084 0.949 . S
H1080 C1086 0.950 . S
H1081 C1087 0.950 . S
H1082 C1088 0.949 . S
C1083 H1078 0.950 . S
C1083 C1085 1.327 . S
C1083 C1089 1.429 . S
C1084 C1076 1.574 . S
C1084 H1079 0.949 . S
C1084 C1090 1.368 . S
C1085 C1069 1.349 . S
C1085 H1077 0.950 . S
C1085 C1083 1.327 . S
C1086 C1074 1.349 . S
C1086 H1080 0.950 . S
C1086 C1087 1.327 . S
C1087 H1081 0.950 . S
C1087 C1086 1.327 . S
C1087 C1091 1.429 . S
C1088 C1071 1.574 . S
C1088 H1082 0.949 . S
C1088 C1092 1.368 . S
C1089 C1070 1.429 . S
C1089 C1083 1.429 . S
C1089 C1090 1.523 . S
C1090 C1071 1.368 . S
C1090 C1084 1.368 . S
C1090 C1089 1.523 . S
C1091 C1075 1.429 . S
C1091 C1087 1.429 . S
C1091 C1092 1.523 . S
C1092 C1076 1.368 . S
C1092 C1088 1.368 . S
C1092 C1091 1.523 . S
H1093 C1068 0.950 . S
H1094 C1070 0.950 . S
H1095 C1071 0.949 . S
H1096 C1073 0.950 . S
H1097 C1075 0.950 . S
C1098 C1099 1.349 . S
C1098 C1100 1.327 . S
C1098 H1123 0.950 . S
C1099 C1098 1.349 . S
C1099 C1115 1.349 . S
C1100 C1098 1.327 . S
C1100 C1119 1.429 . S
C1100 H1124 0.950 . S
C1101 C1118 1.574 . S
C1101 C1120 1.368 . S
C1101 H1125 0.949 . S
H1102 C1106 0.949 . S
C1103 C1104 1.349 . S
C1103 C1105 1.327 . S
C1103 H1126 0.950 . S
C1104 C1103 1.349 . S
C1104 C1116 1.349 . S
C1105 C1103 1.327 . S
C1105 C1121 1.429 . S
C1105 H1127 0.950 . S
C1106 H1102 0.949 . S
C1106 C1114 1.574 . S
C1106 C1122 1.368 . S
H1107 C1115 0.950 . S
H1108 C1113 0.950 . S
H1109 C1114 0.949 . S
H1110 C1116 0.950 1_655 S
H1111 C1117 0.950 . S
H1112 C1118 0.949 . S
C1113 H1108 0.950 . S
C1113 C1115 1.327 . S
C1113 C1119 1.429 . S
C1114 C1106 1.574 . S
C1114 H1109 0.949 . S
C1114 C1120 1.368 . S
C1115 C1099 1.349 . S
C1115 H1107 0.950 . S
C1115 C1113 1.327 . S
C1116 C1104 1.349 . S
C1116 H1110 0.950 1_455 S
C1116 C1117 1.327 . S
C1117 H1111 0.950 . S
C1117 C1116 1.327 . S
C1117 C1121 1.429 . S
C1118 C1101 1.574 . S
C1118 H1112 0.949 . S
C1118 C1122 1.368 . S
C1119 C1100 1.429 . S
C1119 C1113 1.429 . S
C1119 C1120 1.523 . S
C1120 C1101 1.368 . S
C1120 C1114 1.368 . S
C1120 C1119 1.523 . S
C1121 C1105 1.429 . S
C1121 C1117 1.429 . S
C1121 C1122 1.523 . S
C1122 C1106 1.368 . S
C1122 C1118 1.368 . S
C1122 C1121 1.523 . S
H1123 C1098 0.950 . S
H1124 C1100 0.950 . S
H1125 C1101 0.949 . S
H1126 C1103 0.950 . S
H1127 C1105 0.950 . S
C1128 C1129 1.349 . S
C1128 C1130 1.327 . S
C1128 H1153 0.950 . S
C1129 C1128 1.349 . S
C1129 C1145 1.349 . S
C1130 C1128 1.327 . S
C1130 C1149 1.429 . S
C1130 H1154 0.950 . S
C1131 C1148 1.574 . S
C1131 C1150 1.368 . S
C1131 H1155 0.949 . S
H1132 C1136 0.949 . S
C1133 C1134 1.349 . S
C1133 C1135 1.327 . S
C1133 H1156 0.950 . S
C1134 C1133 1.349 . S
C1134 C1146 1.349 . S
C1135 C1133 1.327 . S
C1135 C1151 1.429 . S
C1135 H1157 0.950 . S
C1136 H1132 0.949 . S
C1136 C1144 1.574 . S
C1136 C1152 1.368 . S
H1137 C1145 0.950 . S
H1138 C1143 0.950 . S
H1139 C1144 0.949 . S
H1140 C1146 0.950 . S
H1141 C1147 0.950 . S
H1142 C1148 0.949 . S
C1143 H1138 0.950 . S
C1143 C1145 1.327 . S
C1143 C1149 1.429 . S
C1144 C1136 1.574 . S
C1144 H1139 0.949 . S
C1144 C1150 1.368 . S
C1145 C1129 1.349 . S
C1145 H1137 0.950 . S
C1145 C1143 1.327 . S
C1146 C1134 1.349 . S
C1146 H1140 0.950 . S
C1146 C1147 1.327 . S
C1147 H1141 0.950 . S
C1147 C1146 1.327 . S
C1147 C1151 1.429 . S
C1148 C1131 1.574 . S
C1148 H1142 0.949 . S
C1148 C1152 1.368 . S
C1149 C1130 1.429 . S
C1149 C1143 1.429 . S
C1149 C1150 1.523 . S
C1150 C1131 1.368 . S
C1150 C1144 1.368 . S
C1150 C1149 1.523 . S
C1151 C1135 1.429 . S
C1151 C1147 1.429 . S
C1151 C1152 1.523 . S
C1152 C1136 1.368 . S
C1152 C1148 1.368 . S
C1152 C1151 1.523 . S
H1153 C1128 0.950 . S
H1154 C1130 0.950 . S
H1155 C1131 0.949 . S
H1156 C1133 0.950 . S
H1157 C1135 0.950 . S
C1158 C1159 1.349 . S
C1158 C1160 1.327 . S
C1158 H1183 0.950 . S
C1159 C1158 1.349 . S
C1159 C1175 1.349 . S
C1160 C1158 1.327 . S
C1160 C1179 1.429 . S
C1160 H1184 0.950 . S
C1161 C1178 1.574 . S
C1161 C1180 1.368 . S
C1161 H1185 0.949 . S
H1162 C1166 0.949 . S
C1163 C1164 1.349 . S
C1163 C1165 1.327 . S
C1163 H1186 0.950 . S
C1164 C1163 1.349 . S
C1164 C1176 1.349 . S
C1165 C1163 1.327 . S
C1165 C1181 1.429 . S
C1165 H1187 0.950 . S
C1166 H1162 0.949 . S
C1166 C1174 1.574 . S
C1166 C1182 1.368 . S
H1167 C1175 0.950 . S
H1168 C1173 0.950 . S
H1169 C1174 0.949 . S
H1170 C1176 0.950 . S
H1171 C1177 0.950 . S
H1172 C1178 0.949 . S
C1173 H1168 0.950 . S
C1173 C1175 1.327 . S
C1173 C1179 1.429 . S
C1174 C1166 1.574 . S
C1174 H1169 0.949 . S
C1174 C1180 1.368 . S
C1175 C1159 1.349 . S
C1175 H1167 0.950 . S
C1175 C1173 1.327 . S
C1176 C1164 1.349 . S
C1176 H1170 0.950 . S
C1176 C1177 1.327 . S
C1177 H1171 0.950 . S
C1177 C1176 1.327 . S
C1177 C1181 1.429 . S
C1178 C1161 1.574 . S
C1178 H1172 0.949 . S
C1178 C1182 1.368 . S
C1179 C1160 1.429 . S
C1179 C1173 1.429 . S
C1179 C1180 1.523 . S
C1180 C1161 1.368 . S
C1180 C1174 1.368 . S
C1180 C1179 1.523 . S
C1181 C1165 1.429 . S
C1181 C1177 1.429 . S
C1181 C1182 1.523 . S
C1182 C1166 1.368 . S
C1182 C1178 1.368 . S
C1182 C1181 1.523 . S
H1183 C1158 0.950 . S
H1184 C1160 0.950 . S
H1185 C1161 0.949 . S
H1186 C1163 0.950 . S
H1187 C1165 0.950 . S
C1188 C1189 1.349 . S
C1188 C1190 1.327 . S
C1188 H1213 0.950 . S
C1189 C1188 1.349 . S
C1189 C1205 1.349 . S
C1190 C1188 1.327 . S
C1190 C1209 1.429 . S
C1190 H1214 0.950 . S
C1191 C1208 1.574 . S
C1191 C1210 1.368 . S
C1191 H1215 0.949 . S
H1192 C1196 0.949 . S
C1193 C1194 1.349 . S
C1193 C1195 1.327 . S
C1193 H1216 0.950 1_565 S
C1194 C1193 1.349 . S
C1194 C1206 1.349 . S
C1195 C1193 1.327 . S
C1195 C1211 1.429 . S
C1195 H1217 0.950 . S
C1196 H1192 0.949 . S
C1196 C1204 1.574 . S
C1196 C1212 1.368 . S
H1197 C1205 0.950 . S
H1198 C1203 0.950 . S
H1199 C1204 0.949 . S
H1200 C1206 0.950 . S
H1201 C1207 0.950 . S
H1202 C1208 0.949 . S
C1203 H1198 0.950 . S
C1203 C1205 1.327 . S
C1203 C1209 1.429 . S
C1204 C1196 1.574 . S
C1204 H1199 0.949 . S
C1204 C1210 1.368 . S
C1205 C1189 1.349 . S
C1205 H1197 0.950 . S
C1205 C1203 1.327 . S
C1206 C1194 1.349 . S
C1206 H1200 0.950 . S
C1206 C1207 1.327 . S
C1207 H1201 0.950 . S
C1207 C1206 1.327 . S
C1207 C1211 1.429 . S
C1208 C1191 1.574 . S
C1208 H1202 0.949 . S
C1208 C1212 1.368 . S
C1209 C1190 1.429 . S
C1209 C1203 1.429 . S
C1209 C1210 1.523 . S
C1210 C1191 1.368 . S
C1210 C1204 1.368 . S
C1210 C1209 1.523 . S
C1211 C1195 1.429 . S
C1211 C1207 1.429 . S
C1211 C1212 1.523 . S
C1212 C1196 1.368 . S
C1212 C1208 1.368 . S
C1212 C1211 1.523 . S
H1213 C1188 0.950 . S
H1214 C1190 0.950 . S
H1215 C1191 0.949 . S
H1216 C1193 0.950 1_545 S
H1217 C1195 0.950 . S
C1218 C1219 1.349 . S
C1218 C1220 1.327 . S
C1218 H1243 0.950 1_545 S
C1219 C1218 1.349 . S
C1219 C1235 1.349 . S
C1220 C1218 1.327 . S
C1220 C1239 1.429 . S
C1220 H1244 0.950 . S
C1221 C1238 1.574 . S
C1221 C1240 1.368 . S
C1221 H1245 0.949 . S
H1222 C1226 0.949 . S
C1223 C1224 1.349 . S
C1223 C1225 1.327 . S
C1223 H1246 0.950 . S
C1224 C1223 1.349 . S
C1224 C1236 1.349 . S
C1225 C1223 1.327 . S
C1225 C1241 1.429 . S
C1225 H1247 0.950 . S
C1226 H1222 0.949 . S
C1226 C1234 1.574 . S
C1226 C1242 1.368 . S
H1227 C1235 0.950 . S
H1228 C1233 0.950 . S
H1229 C1234 0.949 . S
H1230 C1236 0.950 . S
H1231 C1237 0.950 . S
H1232 C1238 0.949 . S
C1233 H1228 0.950 . S
C1233 C1235 1.327 . S
C1233 C1239 1.429 . S
C1234 C1226 1.574 . S
C1234 H1229 0.949 . S
C1234 C1240 1.368 . S
C1235 C1219 1.349 . S
C1235 H1227 0.950 . S
C1235 C1233 1.327 . S
C1236 C1224 1.349 . S
C1236 H1230 0.950 . S
C1236 C1237 1.327 . S
C1237 H1231 0.950 . S
C1237 C1236 1.327 . S
C1237 C1241 1.429 . S
C1238 C1221 1.574 . S
C1238 H1232 0.949 . S
C1238 C1242 1.368 . S
C1239 C1220 1.429 . S
C1239 C1233 1.429 . S
C1239 C1240 1.523 . S
C1240 C1221 1.368 . S
C1240 C1234 1.368 . S
C1240 C1239 1.523 . S
C1241 C1225 1.429 . S
C1241 C1237 1.429 . S
C1241 C1242 1.523 . S
C1242 C1226 1.368 . S
C1242 C1238 1.368 . S
C1242 C1241 1.523 . S
H1243 C1218 0.950 1_565 S
H1244 C1220 0.950 . S
H1245 C1221 0.949 . S
H1246 C1223 0.950 . S
H1247 C1225 0.950 . S
C1248 C1249 1.349 . S
C1248 C1250 1.327 . S
C1248 H1273 0.950 . S
C1249 C1248 1.349 . S
C1249 C1265 1.349 . S
C1250 C1248 1.327 . S
C1250 C1269 1.429 . S
C1250 H1274 0.950 . S
C1251 C1268 1.574 . S
C1251 C1270 1.368 . S
C1251 H1275 0.949 . S
H1252 C1256 0.949 . S
C1253 C1254 1.349 . S
C1253 C1255 1.327 . S
C1253 H1276 0.950 . S
C1254 C1253 1.349 . S
C1254 C1266 1.349 . S
C1255 C1253 1.327 . S
C1255 C1271 1.429 . S
C1255 H1277 0.950 . S
C1256 H1252 0.949 . S
C1256 C1264 1.574 . S
C1256 C1272 1.368 . S
H1257 C1265 0.950 . S
H1258 C1263 0.950 . S
H1259 C1264 0.949 . S
H1260 C1266 0.950 . S
H1261 C1267 0.950 . S
H1262 C1268 0.949 . S
C1263 H1258 0.950 . S
C1263 C1265 1.327 . S
C1263 C1269 1.429 . S
C1264 C1256 1.574 . S
C1264 H1259 0.949 . S
C1264 C1270 1.368 . S
C1265 C1249 1.349 . S
C1265 H1257 0.950 . S
C1265 C1263 1.327 . S
C1266 C1254 1.349 . S
C1266 H1260 0.950 . S
C1266 C1267 1.327 . S
C1267 H1261 0.950 . S
C1267 C1266 1.327 . S
C1267 C1271 1.429 . S
C1268 C1251 1.574 . S
C1268 H1262 0.949 . S
C1268 C1272 1.368 . S
C1269 C1250 1.429 . S
C1269 C1263 1.429 . S
C1269 C1270 1.523 . S
C1270 C1251 1.368 . S
C1270 C1264 1.368 . S
C1270 C1269 1.523 . S
C1271 C1255 1.429 . S
C1271 C1267 1.429 . S
C1271 C1272 1.523 . S
C1272 C1256 1.368 . S
C1272 C1268 1.368 . S
C1272 C1271 1.523 . S
H1273 C1248 0.950 . S
H1274 C1250 0.950 . S
H1275 C1251 0.949 . S
H1276 C1253 0.950 . S
H1277 C1255 0.950 . S
C1278 C1279 1.349 . S
C1278 C1280 1.327 . S
C1278 H1303 0.950 . S
C1279 C1278 1.349 . S
C1279 C1295 1.349 . S
C1280 C1278 1.327 . S
C1280 C1299 1.429 . S
C1280 H1304 0.950 . S
C1281 C1298 1.574 . S
C1281 C1300 1.368 . S
C1281 H1305 0.949 . S
H1282 C1286 0.949 . S
C1283 C1284 1.349 . S
C1283 C1285 1.327 . S
C1283 H1306 0.950 . S
C1284 C1283 1.349 . S
C1284 C1296 1.349 . S
C1285 C1283 1.327 . S
C1285 C1301 1.429 . S
C1285 H1307 0.950 . S
C1286 H1282 0.949 . S
C1286 C1294 1.574 . S
C1286 C1302 1.368 . S
H1287 C1295 0.950 . S
H1288 C1293 0.950 . S
H1289 C1294 0.949 . S
H1290 C1296 0.950 . S
H1291 C1297 0.950 . S
H1292 C1298 0.949 . S
C1293 H1288 0.950 . S
C1293 C1295 1.327 . S
C1293 C1299 1.429 . S
C1294 C1286 1.574 . S
C1294 H1289 0.949 . S
C1294 C1300 1.368 . S
C1295 C1279 1.349 . S
C1295 H1287 0.950 . S
C1295 C1293 1.327 . S
C1296 C1284 1.349 . S
C1296 H1290 0.950 . S
C1296 C1297 1.327 . S
C1297 H1291 0.950 . S
C1297 C1296 1.327 . S
C1297 C1301 1.429 . S
C1298 C1281 1.574 . S
C1298 H1292 0.949 . S
C1298 C1302 1.368 . S
C1299 C1280 1.429 . S
C1299 C1293 1.429 . S
C1299 C1300 1.523 . S
C1300 C1281 1.368 . S
C1300 C1294 1.368 . S
C1300 C1299 1.523 . S
C1301 C1285 1.429 . S
C1301 C1297 1.429 . S
C1301 C1302 1.523 . S
C1302 C1286 1.368 . S
C1302 C1298 1.368 . S
C1302 C1301 1.523 . S
H1303 C1278 0.950 . S
H1304 C1280 0.950 . S
H1305 C1281 0.949 . S
H1306 C1283 0.950 . S
H1307 C1285 0.950 . S
C1308 C1309 1.349 . S
C1308 C1310 1.327 . S
C1308 H1333 0.950 . S
C1309 C1308 1.349 . S
C1309 C1325 1.349 . S
C1310 C1308 1.327 . S
C1310 C1329 1.429 . S
C1310 H1334 0.950 . S
C1311 C1328 1.574 . S
C1311 C1330 1.368 . S
C1311 H1335 0.949 . S
H1312 C1316 0.949 . S
C1313 C1314 1.349 . S
C1313 C1315 1.327 . S
C1313 H1336 0.950 . S
C1314 C1313 1.349 . S
C1314 C1326 1.349 . S
C1315 C1313 1.327 . S
C1315 C1331 1.429 . S
C1315 H1337 0.950 . S
C1316 H1312 0.949 . S
C1316 C1324 1.574 . S
C1316 C1332 1.368 . S
H1317 C1325 0.950 . S
H1318 C1323 0.950 . S
H1319 C1324 0.949 . S
H1320 C1326 0.950 . S
H1321 C1327 0.950 . S
H1322 C1328 0.949 . S
C1323 H1318 0.950 . S
C1323 C1325 1.327 . S
C1323 C1329 1.429 . S
C1324 C1316 1.574 . S
C1324 H1319 0.949 . S
C1324 C1330 1.368 . S
C1325 C1309 1.349 . S
C1325 H1317 0.950 . S
C1325 C1323 1.327 . S
C1326 C1314 1.349 . S
C1326 H1320 0.950 . S
C1326 C1327 1.327 . S
C1327 H1321 0.950 . S
C1327 C1326 1.327 . S
C1327 C1331 1.429 . S
C1328 C1311 1.574 . S
C1328 H1322 0.949 . S
C1328 C1332 1.368 . S
C1329 C1310 1.429 . S
C1329 C1323 1.429 . S
C1329 C1330 1.523 . S
C1330 C1311 1.368 . S
C1330 C1324 1.368 . S
C1330 C1329 1.523 . S
C1331 C1315 1.429 . S
C1331 C1327 1.429 . S
C1331 C1332 1.523 . S
C1332 C1316 1.368 . S
C1332 C1328 1.368 . S
C1332 C1331 1.523 . S
H1333 C1308 0.950 . S
H1334 C1310 0.950 . S
H1335 C1311 0.949 . S
H1336 C1313 0.950 . S
H1337 C1315 0.950 . S
C1338 C1339 1.349 . S
C1338 C1340 1.327 . S
C1338 H1363 0.950 . S
C1339 C1338 1.349 . S
C1339 C1355 1.349 . S
C1340 C1338 1.327 . S
C1340 C1359 1.429 . S
C1340 H1364 0.950 . S
C1341 C1358 1.574 . S
C1341 C1360 1.368 . S
C1341 H1365 0.949 . S
H1342 C1346 0.949 . S
C1343 C1344 1.349 . S
C1343 C1345 1.327 . S
C1343 H1366 0.950 . S
C1344 C1343 1.349 . S
C1344 C1356 1.349 . S
C1345 C1343 1.327 . S
C1345 C1361 1.429 . S
C1345 H1367 0.950 . S
C1346 H1342 0.949 . S
C1346 C1354 1.574 . S
C1346 C1362 1.368 . S
H1347 C1355 0.950 1_554 S
H1348 C1353 0.950 . S
H1349 C1354 0.949 . S
H1350 C1356 0.950 . S
H1351 C1357 0.950 . S
H1352 C1358 0.949 . S
C1353 H1348 0.950 . S
C1353 C1355 1.327 . S
C1353 C1359 1.429 . S
C1354 C1346 1.574 . S
C1354 H1349 0.949 . S
C1354 C1360 1.368 . S
C1355 C1339 1.349 . S
C1355 H1347 0.950 1_556 S
C1355 C1353 1.327 . S
C1356 C1344 1.349 . S
C1356 H1350 0.950 . S
C1356 C1357 1.327 . S
C1357 H1351 0.950 . S
C1357 C1356 1.327 . S
C1357 C1361 1.429 . S
C1358 C1341 1.574 . S
C1358 H1352 0.949 . S
C1358 C1362 1.368 . S
C1359 C1340 1.429 . S
C1359 C1353 1.429 . S
C1359 C1360 1.523 . S
C1360 C1341 1.368 . S
C1360 C1354 1.368 . S
C1360 C1359 1.523 . S
C1361 C1345 1.429 . S
C1361 C1357 1.429 . S
C1361 C1362 1.523 . S
C1362 C1346 1.368 . S
C1362 C1358 1.368 . S
C1362 C1361 1.523 . S
H1363 C1338 0.950 . S
H1364 C1340 0.950 . S
H1365 C1341 0.949 . S
H1366 C1343 0.950 . S
H1367 C1345 0.950 . S
C1368 C1369 1.349 . S
C1368 C1370 1.327 . S
C1368 H1393 0.950 . S
C1369 C1368 1.349 . S
C1369 C1385 1.349 . S
C1370 C1368 1.327 . S
C1370 C1389 1.429 . S
C1370 H1394 0.950 . S
C1371 C1388 1.574 . S
C1371 C1390 1.368 . S
C1371 H1395 0.949 . S
H1372 C1376 0.949 . S
C1373 C1374 1.349 . S
C1373 C1375 1.327 . S
C1373 H1396 0.950 . S
C1374 C1373 1.349 . S
C1374 C1386 1.349 . S
C1375 C1373 1.327 . S
C1375 C1391 1.429 . S
C1375 H1397 0.950 . S
C1376 H1372 0.949 . S
C1376 C1384 1.574 . S
C1376 C1392 1.368 . S
H1377 C1385 0.950 . S
H1378 C1383 0.950 . S
H1379 C1384 0.949 . S
H1380 C1386 0.950 . S
H1381 C1387 0.950 . S
H1382 C1388 0.949 . S
C1383 H1378 0.950 . S
C1383 C1385 1.327 . S
C1383 C1389 1.429 . S
C1384 C1376 1.574 . S
C1384 H1379 0.949 . S
C1384 C1390 1.368 . S
C1385 C1369 1.349 . S
C1385 H1377 0.950 . S
C1385 C1383 1.327 . S
C1386 C1374 1.349 . S
C1386 H1380 0.950 . S
C1386 C1387 1.327 . S
C1387 H1381 0.950 . S
C1387 C1386 1.327 . S
C1387 C1391 1.429 . S
C1388 C1371 1.574 . S
C1388 H1382 0.949 . S
C1388 C1392 1.368 . S
C1389 C1370 1.429 . S
C1389 C1383 1.429 . S
C1389 C1390 1.523 . S
C1390 C1371 1.368 . S
C1390 C1384 1.368 . S
C1390 C1389 1.523 . S
C1391 C1375 1.429 . S
C1391 C1387 1.429 . S
C1391 C1392 1.523 . S
C1392 C1376 1.368 . S
C1392 C1388 1.368 . S
C1392 C1391 1.523 . S
H1393 C1368 0.950 . S
H1394 C1370 0.950 . S
H1395 C1371 0.949 . S
H1396 C1373 0.950 . S
H1397 C1375 0.950 . S
C1398 C1399 1.349 . S
C1398 C1400 1.327 . S
C1398 H1423 0.950 . S
C1399 C1398 1.349 . S
C1399 C1415 1.349 . S
C1400 C1398 1.327 . S
C1400 C1419 1.429 . S
C1400 H1424 0.950 . S
C1401 C1418 1.574 . S
C1401 C1420 1.368 . S
C1401 H1425 0.949 . S
H1402 C1406 0.949 . S
C1403 C1404 1.349 . S
C1403 C1405 1.327 . S
C1403 H1426 0.950 . S
C1404 C1403 1.349 . S
C1404 C1416 1.349 . S
C1405 C1403 1.327 . S
C1405 C1421 1.429 . S
C1405 H1427 0.950 . S
C1406 H1402 0.949 . S
C1406 C1414 1.574 . S
C1406 C1422 1.368 . S
H1407 C1415 0.950 1_655 S
H1408 C1413 0.950 . S
H1409 C1414 0.949 . S
H1410 C1416 0.950 . S
H1411 C1417 0.950 . S
H1412 C1418 0.949 . S
C1413 H1408 0.950 . S
C1413 C1415 1.327 . S
C1413 C1419 1.429 . S
C1414 C1406 1.574 . S
C1414 H1409 0.949 . S
C1414 C1420 1.368 . S
C1415 C1399 1.349 . S
C1415 H1407 0.950 1_455 S
C1415 C1413 1.327 . S
C1416 C1404 1.349 . S
C1416 H1410 0.950 . S
C1416 C1417 1.327 . S
C1417 H1411 0.950 . S
C1417 C1416 1.327 . S
C1417 C1421 1.429 . S
C1418 C1401 1.574 . S
C1418 H1412 0.949 . S
C1418 C1422 1.368 . S
C1419 C1400 1.429 . S
C1419 C1413 1.429 . S
C1419 C1420 1.523 . S
C1420 C1401 1.368 . S
C1420 C1414 1.368 . S
C1420 C1419 1.523 . S
C1421 C1405 1.429 . S
C1421 C1417 1.429 . S
C1421 C1422 1.523 . S
C1422 C1406 1.368 . S
C1422 C1418 1.368 . S
C1422 C1421 1.523 . S
H1423 C1398 0.950 . S
H1424 C1400 0.950 . S
H1425 C1401 0.949 . S
H1426 C1403 0.950 . S
H1427 C1405 0.950 . S
C1428 C1429 1.349 . S
C1428 C1430 1.327 . S
C1428 H1453 0.950 . S
C1429 C1428 1.349 . S
C1429 C1445 1.349 . S
C1430 C1428 1.327 . S
C1430 C1449 1.429 . S
C1430 H1454 0.950 . S
C1431 C1448 1.574 . S
C1431 C1450 1.368 . S
C1431 H1455 0.949 . S
H1432 C1436 0.949 . S
C1433 C1434 1.349 . S
C1433 C1435 1.327 . S
C1433 H1456 0.950 . S
C1434 C1433 1.349 . S
C1434 C1446 1.349 . S
C1435 C1433 1.327 . S
C1435 C1451 1.429 . S
C1435 H1457 0.950 . S
C1436 H1432 0.949 . S
C1436 C1444 1.574 . S
C1436 C1452 1.368 . S
H1437 C1445 0.950 . S
H1438 C1443 0.950 . S
H1439 C1444 0.949 . S
H1440 C1446 0.950 . S
H1441 C1447 0.950 . S
H1442 C1448 0.949 . S
C1443 H1438 0.950 . S
C1443 C1445 1.327 . S
C1443 C1449 1.429 . S
C1444 C1436 1.574 . S
C1444 H1439 0.949 . S
C1444 C1450 1.368 . S
C1445 C1429 1.349 . S
C1445 H1437 0.950 . S
C1445 C1443 1.327 . S
C1446 C1434 1.349 . S
C1446 H1440 0.950 . S
C1446 C1447 1.327 . S
C1447 H1441 0.950 . S
C1447 C1446 1.327 . S
C1447 C1451 1.429 . S
C1448 C1431 1.574 . S
C1448 H1442 0.949 . S
C1448 C1452 1.368 . S
C1449 C1430 1.429 . S
C1449 C1443 1.429 . S
C1449 C1450 1.523 . S
C1450 C1431 1.368 . S
C1450 C1444 1.368 . S
C1450 C1449 1.523 . S
C1451 C1435 1.429 . S
C1451 C1447 1.429 . S
C1451 C1452 1.523 . S
C1452 C1436 1.368 . S
C1452 C1448 1.368 . S
C1452 C1451 1.523 . S
H1453 C1428 0.950 . S
H1454 C1430 0.950 . S
H1455 C1431 0.949 . S
H1456 C1433 0.950 . S
H1457 C1435 0.950 . S
C1458 C1459 1.349 . S
C1458 C1460 1.327 . S
C1458 H1483 0.950 . S
C1459 C1458 1.349 . S
C1459 C1475 1.349 . S
C1460 C1458 1.327 . S
C1460 C1479 1.429 . S
C1460 H1484 0.950 . S
C1461 C1478 1.574 . S
C1461 C1480 1.368 . S
C1461 H1485 0.949 . S
H1462 C1466 0.949 . S
C1463 C1464 1.349 . S
C1463 C1465 1.327 . S
C1463 H1486 0.950 1_655 S
C1464 C1463 1.349 . S
C1464 C1476 1.349 . S
C1465 C1463 1.327 . S
C1465 C1481 1.429 . S
C1465 H1487 0.950 . S
C1466 H1462 0.949 . S
C1466 C1474 1.574 . S
C1466 C1482 1.368 . S
H1467 C1475 0.950 . S
H1468 C1473 0.950 . S
H1469 C1474 0.949 . S
H1470 C1476 0.950 . S
H1471 C1477 0.950 . S
H1472 C1478 0.949 . S
C1473 H1468 0.950 . S
C1473 C1475 1.327 . S
C1473 C1479 1.429 . S
C1474 C1466 1.574 . S
C1474 H1469 0.949 . S
C1474 C1480 1.368 . S
C1475 C1459 1.349 . S
C1475 H1467 0.950 . S
C1475 C1473 1.327 . S
C1476 C1464 1.349 . S
C1476 H1470 0.950 . S
C1476 C1477 1.327 . S
C1477 H1471 0.950 . S
C1477 C1476 1.327 . S
C1477 C1481 1.429 . S
C1478 C1461 1.574 . S
C1478 H1472 0.949 . S
C1478 C1482 1.368 . S
C1479 C1460 1.429 . S
C1479 C1473 1.429 . S
C1479 C1480 1.523 . S
C1480 C1461 1.368 . S
C1480 C1474 1.368 . S
C1480 C1479 1.523 . S
C1481 C1465 1.429 . S
C1481 C1477 1.429 . S
C1481 C1482 1.523 . S
C1482 C1466 1.368 . S
C1482 C1478 1.368 . S
C1482 C1481 1.523 . S
H1483 C1458 0.950 . S
H1484 C1460 0.950 . S
H1485 C1461 0.949 . S
H1486 C1463 0.950 1_455 S
H1487 C1465 0.950 . S
C1488 C1489 1.349 . S
C1488 C1490 1.327 . S
C1488 H1513 0.950 . S
C1489 C1488 1.349 . S
C1489 C1505 1.349 . S
C1490 C1488 1.327 . S
C1490 C1509 1.429 . S
C1490 H1514 0.950 . S
C1491 C1508 1.574 . S
C1491 C1510 1.368 . S
C1491 H1515 0.949 . S
H1492 C1496 0.949 . S
C1493 C1494 1.349 . S
C1493 C1495 1.327 . S
C1493 H1516 0.950 . S
C1494 C1493 1.349 . S
C1494 C1506 1.349 . S
C1495 C1493 1.327 . S
C1495 C1511 1.429 . S
C1495 H1517 0.950 . S
C1496 H1492 0.949 . S
C1496 C1504 1.574 . S
C1496 C1512 1.368 . S
H1497 C1505 0.950 . S
H1498 C1503 0.950 . S
H1499 C1504 0.949 . S
H1500 C1506 0.950 . S
H1501 C1507 0.950 . S
H1502 C1508 0.949 . S
C1503 H1498 0.950 . S
C1503 C1505 1.327 . S
C1503 C1509 1.429 . S
C1504 C1496 1.574 . S
C1504 H1499 0.949 . S
C1504 C1510 1.368 . S
C1505 C1489 1.349 . S
C1505 H1497 0.950 . S
C1505 C1503 1.327 . S
C1506 C1494 1.349 . S
C1506 H1500 0.950 . S
C1506 C1507 1.327 . S
C1507 H1501 0.950 . S
C1507 C1506 1.327 . S
C1507 C1511 1.429 . S
C1508 C1491 1.574 . S
C1508 H1502 0.949 . S
C1508 C1512 1.368 . S
C1509 C1490 1.429 . S
C1509 C1503 1.429 . S
C1509 C1510 1.523 . S
C1510 C1491 1.368 . S
C1510 C1504 1.368 . S
C1510 C1509 1.523 . S
C1511 C1495 1.429 . S
C1511 C1507 1.429 . S
C1511 C1512 1.523 . S
C1512 C1496 1.368 . S
C1512 C1508 1.368 . S
C1512 C1511 1.523 . S
H1513 C1488 0.950 . S
H1514 C1490 0.950 . S
H1515 C1491 0.949 . S
H1516 C1493 0.950 . S
H1517 C1495 0.950 . S
C1518 C1519 1.349 . S
C1518 C1520 1.327 . S
C1518 H1543 0.950 . S
C1519 C1518 1.349 . S
C1519 C1535 1.349 . S
C1520 C1518 1.327 . S
C1520 C1539 1.429 . S
C1520 H1544 0.950 . S
C1521 C1538 1.574 . S
C1521 C1540 1.368 . S
C1521 H1545 0.949 . S
H1522 C1526 0.949 . S
C1523 C1524 1.349 . S
C1523 C1525 1.327 . S
C1523 H1546 0.950 . S
C1524 C1523 1.349 . S
C1524 C1536 1.349 . S
C1525 C1523 1.327 . S
C1525 C1541 1.429 . S
C1525 H1547 0.950 . S
C1526 H1522 0.949 . S
C1526 C1534 1.574 . S
C1526 C1542 1.368 . S
H1527 C1535 0.950 . S
H1528 C1533 0.950 . S
H1529 C1534 0.949 . S
H1530 C1536 0.950 . S
H1531 C1537 0.950 . S
H1532 C1538 0.949 . S
C1533 H1528 0.950 . S
C1533 C1535 1.327 . S
C1533 C1539 1.429 . S
C1534 C1526 1.574 . S
C1534 H1529 0.949 . S
C1534 C1540 1.368 . S
C1535 C1519 1.349 . S
C1535 H1527 0.950 . S
C1535 C1533 1.327 . S
C1536 C1524 1.349 . S
C1536 H1530 0.950 . S
C1536 C1537 1.327 . S
C1537 H1531 0.950 . S
C1537 C1536 1.327 . S
C1537 C1541 1.429 . S
C1538 C1521 1.574 . S
C1538 H1532 0.949 . S
C1538 C1542 1.368 . S
C1539 C1520 1.429 . S
C1539 C1533 1.429 . S
C1539 C1540 1.523 . S
C1540 C1521 1.368 . S
C1540 C1534 1.368 . S
C1540 C1539 1.523 . S
C1541 C1525 1.429 . S
C1541 C1537 1.429 . S
C1541 C1542 1.523 . S
C1542 C1526 1.368 . S
C1542 C1538 1.368 . S
C1542 C1541 1.523 . S
H1543 C1518 0.950 . S
H1544 C1520 0.950 . S
H1545 C1521 0.949 . S
H1546 C1523 0.950 . S
H1547 C1525 0.950 . S
C1548 C1549 1.349 . S
C1548 C1550 1.327 . S
C1548 H1573 0.950 . S
C1549 C1548 1.349 . S
C1549 C1565 1.349 . S
C1550 C1548 1.327 . S
C1550 C1569 1.429 . S
C1550 H1574 0.950 . S
C1551 C1568 1.574 . S
C1551 C1570 1.368 . S
C1551 H1575 0.949 . S
H1552 C1556 0.949 . S
C1553 C1554 1.349 . S
C1553 C1555 1.327 . S
C1553 H1576 0.950 . S
C1554 C1553 1.349 . S
C1554 C1566 1.349 . S
C1555 C1553 1.327 . S
C1555 C1571 1.429 . S
C1555 H1577 0.950 . S
C1556 H1552 0.949 . S
C1556 C1564 1.574 . S
C1556 C1572 1.368 . S
H1557 C1565 0.950 . S
H1558 C1563 0.950 . S
H1559 C1564 0.949 . S
H1560 C1566 0.950 . S
H1561 C1567 0.950 . S
H1562 C1568 0.949 . S
C1563 H1558 0.950 . S
C1563 C1565 1.327 . S
C1563 C1569 1.429 . S
C1564 C1556 1.574 . S
C1564 H1559 0.949 . S
C1564 C1570 1.368 . S
C1565 C1549 1.349 . S
C1565 H1557 0.950 . S
C1565 C1563 1.327 . S
C1566 C1554 1.349 . S
C1566 H1560 0.950 . S
C1566 C1567 1.327 . S
C1567 H1561 0.950 . S
C1567 C1566 1.327 . S
C1567 C1571 1.429 . S
C1568 C1551 1.574 . S
C1568 H1562 0.949 . S
C1568 C1572 1.368 . S
C1569 C1550 1.429 . S
C1569 C1563 1.429 . S
C1569 C1570 1.523 . S
C1570 C1551 1.368 . S
C1570 C1564 1.368 . S
C1570 C1569 1.523 . S
C1571 C1555 1.429 . S
C1571 C1567 1.429 . S
C1571 C1572 1.523 . S
C1572 C1556 1.368 . S
C1572 C1568 1.368 . S
C1572 C1571 1.523 . S
H1573 C1548 0.950 . S
H1574 C1550 0.950 . S
H1575 C1551 0.949 . S
H1576 C1553 0.950 . S
H1577 C1555 0.950 . S
C1578 C1579 1.349 . S
C1578 C1580 1.327 . S
C1578 H1603 0.950 . S
C1579 C1578 1.349 . S
C1579 C1595 1.349 . S
C1580 C1578 1.327 . S
C1580 C1599 1.429 . S
C1580 H1604 0.950 . S
C1581 C1598 1.574 . S
C1581 C1600 1.368 . S
C1581 H1605 0.949 . S
H1582 C1586 0.949 . S
C1583 C1584 1.349 . S
C1583 C1585 1.327 . S
C1583 H1606 0.950 . S
C1584 C1583 1.349 . S
C1584 C1596 1.349 . S
C1585 C1583 1.327 . S
C1585 C1601 1.429 . S
C1585 H1607 0.950 . S
C1586 H1582 0.949 . S
C1586 C1594 1.574 . S
C1586 C1602 1.368 . S
H1587 C1595 0.950 . S
H1588 C1593 0.950 . S
H1589 C1594 0.949 . S
H1590 C1596 0.950 . S
H1591 C1597 0.950 . S
H1592 C1598 0.949 . S
C1593 H1588 0.950 . S
C1593 C1595 1.327 . S
C1593 C1599 1.429 . S
C1594 C1586 1.574 . S
C1594 H1589 0.949 . S
C1594 C1600 1.368 . S
C1595 C1579 1.349 . S
C1595 H1587 0.950 . S
C1595 C1593 1.327 . S
C1596 C1584 1.349 . S
C1596 H1590 0.950 . S
C1596 C1597 1.327 . S
C1597 H1591 0.950 . S
C1597 C1596 1.327 . S
C1597 C1601 1.429 . S
C1598 C1581 1.574 . S
C1598 H1592 0.949 . S
C1598 C1602 1.368 . S
C1599 C1580 1.429 . S
C1599 C1593 1.429 . S
C1599 C1600 1.523 . S
C1600 C1581 1.368 . S
C1600 C1594 1.368 . S
C1600 C1599 1.523 . S
C1601 C1585 1.429 . S
C1601 C1597 1.429 . S
C1601 C1602 1.523 . S
C1602 C1586 1.368 . S
C1602 C1598 1.368 . S
C1602 C1601 1.523 . S
H1603 C1578 0.950 . S
H1604 C1580 0.950 . S
H1605 C1581 0.949 . S
H1606 C1583 0.950 . S
H1607 C1585 0.950 . S
C1608 C1609 1.349 . S
C1608 C1610 1.327 . S
C1608 H1633 0.950 . S
C1609 C1608 1.349 . S
C1609 C1625 1.349 . S
C1610 C1608 1.327 . S
C1610 C1629 1.429 . S
C1610 H1634 0.950 . S
C1611 C1628 1.574 . S
C1611 C1630 1.368 . S
C1611 H1635 0.949 . S
H1612 C1616 0.949 . S
C1613 C1614 1.349 . S
C1613 C1615 1.327 . S
C1613 H1636 0.950 . S
C1614 C1613 1.349 . S
C1614 C1626 1.349 . S
C1615 C1613 1.327 . S
C1615 C1631 1.429 . S
C1615 H1637 0.950 . S
C1616 H1612 0.949 . S
C1616 C1624 1.574 . S
C1616 C1632 1.368 . S
H1617 C1625 0.950 . S
H1618 C1623 0.950 . S
H1619 C1624 0.949 . S
H1620 C1626 0.950 . S
H1621 C1627 0.950 . S
H1622 C1628 0.949 . S
C1623 H1618 0.950 . S
C1623 C1625 1.327 . S
C1623 C1629 1.429 . S
C1624 C1616 1.574 . S
C1624 H1619 0.949 . S
C1624 C1630 1.368 . S
C1625 C1609 1.349 . S
C1625 H1617 0.950 . S
C1625 C1623 1.327 . S
C1626 C1614 1.349 . S
C1626 H1620 0.950 . S
C1626 C1627 1.327 . S
C1627 H1621 0.950 . S
C1627 C1626 1.327 . S
C1627 C1631 1.429 . S
C1628 C1611 1.574 . S
C1628 H1622 0.949 . S
C1628 C1632 1.368 . S
C1629 C1610 1.429 . S
C1629 C1623 1.429 . S
C1629 C1630 1.523 . S
C1630 C1611 1.368 . S
C1630 C1624 1.368 . S
C1630 C1629 1.523 . S
C1631 C1615 1.429 . S
C1631 C1627 1.429 . S
C1631 C1632 1.523 . S
C1632 C1616 1.368 . S
C1632 C1628 1.368 . S
C1632 C1631 1.523 . S
H1633 C1608 0.950 . S
H1634 C1610 0.950 . S
H1635 C1611 0.949 . S
H1636 C1613 0.950 . S
H1637 C1615 0.950 . S
C1638 C1639 1.349 . S
C1638 C1640 1.327 . S
C1638 H1663 0.950 . S
C1639 C1638 1.349 . S
C1639 C1655 1.349 . S
C1640 C1638 1.327 . S
C1640 C1659 1.429 . S
C1640 H1664 0.950 . S
C1641 C1658 1.574 . S
C1641 C1660 1.368 . S
C1641 H1665 0.949 . S
H1642 C1646 0.949 . S
C1643 C1644 1.349 . S
C1643 C1645 1.327 . S
C1643 H1666 0.950 . S
C1644 C1643 1.349 . S
C1644 C1656 1.349 . S
C1645 C1643 1.327 . S
C1645 C1661 1.429 . S
C1645 H1667 0.950 . S
C1646 H1642 0.949 . S
C1646 C1654 1.574 . S
C1646 C1662 1.368 . S
H1647 C1655 0.950 . S
H1648 C1653 0.950 . S
H1649 C1654 0.949 . S
H1650 C1656 0.950 . S
H1651 C1657 0.950 . S
H1652 C1658 0.949 . S
C1653 H1648 0.950 . S
C1653 C1655 1.327 . S
C1653 C1659 1.429 . S
C1654 C1646 1.574 . S
C1654 H1649 0.949 . S
C1654 C1660 1.368 . S
C1655 C1639 1.349 . S
C1655 H1647 0.950 . S
C1655 C1653 1.327 . S
C1656 C1644 1.349 . S
C1656 H1650 0.950 . S
C1656 C1657 1.327 . S
C1657 H1651 0.950 . S
C1657 C1656 1.327 . S
C1657 C1661 1.429 . S
C1658 C1641 1.574 . S
C1658 H1652 0.949 . S
C1658 C1662 1.368 . S
C1659 C1640 1.429 . S
C1659 C1653 1.429 . S
C1659 C1660 1.523 . S
C1660 C1641 1.368 . S
C1660 C1654 1.368 . S
C1660 C1659 1.523 . S
C1661 C1645 1.429 . S
C1661 C1657 1.429 . S
C1661 C1662 1.523 . S
C1662 C1646 1.368 . S
C1662 C1658 1.368 . S
C1662 C1661 1.523 . S
H1663 C1638 0.950 . S
H1664 C1640 0.950 . S
H1665 C1641 0.949 . S
H1666 C1643 0.950 . S
H1667 C1645 0.950 . S
C1668 C1669 1.349 . S
C1668 C1670 1.327 . S
C1668 H1693 0.950 . S
C1669 C1668 1.349 . S
C1669 C1685 1.349 . S
C1670 C1668 1.327 . S
C1670 C1689 1.429 . S
C1670 H1694 0.950 . S
C1671 C1688 1.574 . S
C1671 C1690 1.368 . S
C1671 H1695 0.949 . S
H1672 C1676 0.949 . S
C1673 C1674 1.349 . S
C1673 C1675 1.327 . S
C1673 H1696 0.950 . S
C1674 C1673 1.349 . S
C1674 C1686 1.349 . S
C1675 C1673 1.327 . S
C1675 C1691 1.429 . S
C1675 H1697 0.950 . S
C1676 H1672 0.949 . S
C1676 C1684 1.574 . S
C1676 C1692 1.368 . S
H1677 C1685 0.950 . S
H1678 C1683 0.950 . S
H1679 C1684 0.949 . S
H1680 C1686 0.950 . S
H1681 C1687 0.950 . S
H1682 C1688 0.949 . S
C1683 H1678 0.950 . S
C1683 C1685 1.327 . S
C1683 C1689 1.429 . S
C1684 C1676 1.574 . S
C1684 H1679 0.949 . S
C1684 C1690 1.368 . S
C1685 C1669 1.349 . S
C1685 H1677 0.950 . S
C1685 C1683 1.327 . S
C1686 C1674 1.349 . S
C1686 H1680 0.950 . S
C1686 C1687 1.327 . S
C1687 H1681 0.950 . S
C1687 C1686 1.327 . S
C1687 C1691 1.429 . S
C1688 C1671 1.574 . S
C1688 H1682 0.949 . S
C1688 C1692 1.368 . S
C1689 C1670 1.429 . S
C1689 C1683 1.429 . S
C1689 C1690 1.523 . S
C1690 C1671 1.368 . S
C1690 C1684 1.368 . S
C1690 C1689 1.523 . S
C1691 C1675 1.429 . S
C1691 C1687 1.429 . S
C1691 C1692 1.523 . S
C1692 C1676 1.368 . S
C1692 C1688 1.368 . S
C1692 C1691 1.523 . S
H1693 C1668 0.950 . S
H1694 C1670 0.950 . S
H1695 C1671 0.949 . S
H1696 C1673 0.950 . S
H1697 C1675 0.950 . S
C1698 C1699 1.349 . S
C1698 C1700 1.327 . S
C1698 H1723 0.950 . S
C1699 C1698 1.349 . S
C1699 C1715 1.349 . S
C1700 C1698 1.327 . S
C1700 C1719 1.429 . S
C1700 H1724 0.950 . S
C1701 C1718 1.574 . S
C1701 C1720 1.368 . S
C1701 H1725 0.949 . S
H1702 C1706 0.949 . S
C1703 C1704 1.349 . S
C1703 C1705 1.327 . S
C1703 H1726 0.950 . S
C1704 C1703 1.349 . S
C1704 C1716 1.349 . S
C1705 C1703 1.327 . S
C1705 C1721 1.429 . S
C1705 H1727 0.950 . S
C1706 H1702 0.949 . S
C1706 C1714 1.574 . S
C1706 C1722 1.368 . S
H1707 C1715 0.950 . S
H1708 C1713 0.950 . S
H1709 C1714 0.949 . S
H1710 C1716 0.950 . S
H1711 C1717 0.950 . S
H1712 C1718 0.949 . S
C1713 H1708 0.950 . S
C1713 C1715 1.327 . S
C1713 C1719 1.429 . S
C1714 C1706 1.574 . S
C1714 H1709 0.949 . S
C1714 C1720 1.368 . S
C1715 C1699 1.349 . S
C1715 H1707 0.950 . S
C1715 C1713 1.327 . S
C1716 C1704 1.349 . S
C1716 H1710 0.950 . S
C1716 C1717 1.327 . S
C1717 H1711 0.950 . S
C1717 C1716 1.327 . S
C1717 C1721 1.429 . S
C1718 C1701 1.574 . S
C1718 H1712 0.949 . S
C1718 C1722 1.368 . S
C1719 C1700 1.429 . S
C1719 C1713 1.429 . S
C1719 C1720 1.523 . S
C1720 C1701 1.368 . S
C1720 C1714 1.368 . S
C1720 C1719 1.523 . S
C1721 C1705 1.429 . S
C1721 C1717 1.429 . S
C1721 C1722 1.523 . S
C1722 C1706 1.368 . S
C1722 C1718 1.368 . S
C1722 C1721 1.523 . S
H1723 C1698 0.950 . S
H1724 C1700 0.950 . S
H1725 C1701 0.949 . S
H1726 C1703 0.950 . S
H1727 C1705 0.950 . S
C1728 C1729 1.349 . S
C1728 C1730 1.327 . S
C1728 H1753 0.950 . S
C1729 C1728 1.349 . S
C1729 C1745 1.349 . S
C1730 C1728 1.327 . S
C1730 C1749 1.429 . S
C1730 H1754 0.950 . S
C1731 C1748 1.574 . S
C1731 C1750 1.368 . S
C1731 H1755 0.949 . S
H1732 C1736 0.949 . S
C1733 C1734 1.349 . S
C1733 C1735 1.327 . S
C1733 H1756 0.950 . S
C1734 C1733 1.349 . S
C1734 C1746 1.349 . S
C1735 C1733 1.327 . S
C1735 C1751 1.429 . S
C1735 H1757 0.950 . S
C1736 H1732 0.949 . S
C1736 C1744 1.574 . S
C1736 C1752 1.368 . S
H1737 C1745 0.950 . S
H1738 C1743 0.950 . S
H1739 C1744 0.949 . S
H1740 C1746 0.950 . S
H1741 C1747 0.950 . S
H1742 C1748 0.949 . S
C1743 H1738 0.950 . S
C1743 C1745 1.327 . S
C1743 C1749 1.429 . S
C1744 C1736 1.574 . S
C1744 H1739 0.949 . S
C1744 C1750 1.368 . S
C1745 C1729 1.349 . S
C1745 H1737 0.950 . S
C1745 C1743 1.327 . S
C1746 C1734 1.349 . S
C1746 H1740 0.950 . S
C1746 C1747 1.327 . S
C1747 H1741 0.950 . S
C1747 C1746 1.327 . S
C1747 C1751 1.429 . S
C1748 C1731 1.574 . S
C1748 H1742 0.949 . S
C1748 C1752 1.368 . S
C1749 C1730 1.429 . S
C1749 C1743 1.429 . S
C1749 C1750 1.523 . S
C1750 C1731 1.368 . S
C1750 C1744 1.368 . S
C1750 C1749 1.523 . S
C1751 C1735 1.429 . S
C1751 C1747 1.429 . S
C1751 C1752 1.523 . S
C1752 C1736 1.368 . S
C1752 C1748 1.368 . S
C1752 C1751 1.523 . S
H1753 C1728 0.950 . S
H1754 C1730 0.950 . S
H1755 C1731 0.949 . S
H1756 C1733 0.950 . S
H1757 C1735 0.950 . S
C1758 C1759 1.349 . S
C1758 C1760 1.327 . S
C1758 H1783 0.950 . S
C1759 C1758 1.349 . S
C1759 C1775 1.349 . S
C1760 C1758 1.327 . S
C1760 C1779 1.429 . S
C1760 H1784 0.950 . S
C1761 C1778 1.574 . S
C1761 C1780 1.368 . S
C1761 H1785 0.949 . S
H1762 C1766 0.949 . S
C1763 C1764 1.349 . S
C1763 C1765 1.327 . S
C1763 H1786 0.950 . S
C1764 C1763 1.349 . S
C1764 C1776 1.349 . S
C1765 C1763 1.327 . S
C1765 C1781 1.429 . S
C1765 H1787 0.950 . S
C1766 H1762 0.949 . S
C1766 C1774 1.574 . S
C1766 C1782 1.368 . S
H1767 C1775 0.950 . S
H1768 C1773 0.950 . S
H1769 C1774 0.949 . S
H1770 C1776 0.950 . S
H1771 C1777 0.950 . S
H1772 C1778 0.949 . S
C1773 H1768 0.950 . S
C1773 C1775 1.327 . S
C1773 C1779 1.429 . S
C1774 C1766 1.574 . S
C1774 H1769 0.949 . S
C1774 C1780 1.368 . S
C1775 C1759 1.349 . S
C1775 H1767 0.950 . S
C1775 C1773 1.327 . S
C1776 C1764 1.349 . S
C1776 H1770 0.950 . S
C1776 C1777 1.327 . S
C1777 H1771 0.950 . S
C1777 C1776 1.327 . S
C1777 C1781 1.429 . S
C1778 C1761 1.574 . S
C1778 H1772 0.949 . S
C1778 C1782 1.368 . S
C1779 C1760 1.429 . S
C1779 C1773 1.429 . S
C1779 C1780 1.523 . S
C1780 C1761 1.368 . S
C1780 C1774 1.368 . S
C1780 C1779 1.523 . S
C1781 C1765 1.429 . S
C1781 C1777 1.429 . S
C1781 C1782 1.523 . S
C1782 C1766 1.368 . S
C1782 C1778 1.368 . S
C1782 C1781 1.523 . S
H1783 C1758 0.950 . S
H1784 C1760 0.950 . S
H1785 C1761 0.949 . S
H1786 C1763 0.950 . S
H1787 C1765 0.950 . S
C1788 C1789 1.349 . S
C1788 C1790 1.327 . S
C1788 H1813 0.950 . S
C1789 C1788 1.349 . S
C1789 C1805 1.349 . S
C1790 C1788 1.327 . S
C1790 C1809 1.429 . S
C1790 H1814 0.950 . S
C1791 C1808 1.574 . S
C1791 C1810 1.368 . S
C1791 H1815 0.949 . S
H1792 C1796 0.949 . S
C1793 C1794 1.349 . S
C1793 C1795 1.327 . S
C1793 H1816 0.950 . S
C1794 C1793 1.349 . S
C1794 C1806 1.349 . S
C1795 C1793 1.327 . S
C1795 C1811 1.429 . S
C1795 H1817 0.950 . S
C1796 H1792 0.949 . S
C1796 C1804 1.574 . S
C1796 C1812 1.368 . S
H1797 C1805 0.950 . S
H1798 C1803 0.950 . S
H1799 C1804 0.949 . S
H1800 C1806 0.950 . S
H1801 C1807 0.950 . S
H1802 C1808 0.949 . S
C1803 H1798 0.950 . S
C1803 C1805 1.327 . S
C1803 C1809 1.429 . S
C1804 C1796 1.574 . S
C1804 H1799 0.949 . S
C1804 C1810 1.368 . S
C1805 C1789 1.349 . S
C1805 H1797 0.950 . S
C1805 C1803 1.327 . S
C1806 C1794 1.349 . S
C1806 H1800 0.950 . S
C1806 C1807 1.327 . S
C1807 H1801 0.950 . S
C1807 C1806 1.327 . S
C1807 C1811 1.429 . S
C1808 C1791 1.574 . S
C1808 H1802 0.949 . S
C1808 C1812 1.368 . S
C1809 C1790 1.429 . S
C1809 C1803 1.429 . S
C1809 C1810 1.523 . S
C1810 C1791 1.368 . S
C1810 C1804 1.368 . S
C1810 C1809 1.523 . S
C1811 C1795 1.429 . S
C1811 C1807 1.429 . S
C1811 C1812 1.523 . S
C1812 C1796 1.368 . S
C1812 C1808 1.368 . S
C1812 C1811 1.523 . S
H1813 C1788 0.950 . S
H1814 C1790 0.950 . S
H1815 C1791 0.949 . S
H1816 C1793 0.950 . S
H1817 C1795 0.950 . S
C1818 C1819 1.349 . S
C1818 C1820 1.327 . S
C1818 H1843 0.950 . S
C1819 C1818 1.349 . S
C1819 C1835 1.349 . S
C1820 C1818 1.327 . S
C1820 C1839 1.429 . S
C1820 H1844 0.950 . S
C1821 C1838 1.574 . S
C1821 C1840 1.368 . S
C1821 H1845 0.949 . S
H1822 C1826 0.949 . S
C1823 C1824 1.349 . S
C1823 C1825 1.327 . S
C1823 H1846 0.950 . S
C1824 C1823 1.349 . S
C1824 C1836 1.349 . S
C1825 C1823 1.327 . S
C1825 C1841 1.429 . S
C1825 H1847 0.950 . S
C1826 H1822 0.949 . S
C1826 C1834 1.574 . S
C1826 C1842 1.368 . S
H1827 C1835 0.950 . S
H1828 C1833 0.950 . S
H1829 C1834 0.949 . S
H1830 C1836 0.950 . S
H1831 C1837 0.950 . S
H1832 C1838 0.949 . S
C1833 H1828 0.950 . S
C1833 C1835 1.327 . S
C1833 C1839 1.429 . S
C1834 C1826 1.574 . S
C1834 H1829 0.949 . S
C1834 C1840 1.368 . S
C1835 C1819 1.349 . S
C1835 H1827 0.950 . S
C1835 C1833 1.327 . S
C1836 C1824 1.349 . S
C1836 H1830 0.950 . S
C1836 C1837 1.327 . S
C1837 H1831 0.950 . S
C1837 C1836 1.327 . S
C1837 C1841 1.429 . S
C1838 C1821 1.574 . S
C1838 H1832 0.949 . S
C1838 C1842 1.368 . S
C1839 C1820 1.429 . S
C1839 C1833 1.429 . S
C1839 C1840 1.523 . S
C1840 C1821 1.368 . S
C1840 C1834 1.368 . S
C1840 C1839 1.523 . S
C1841 C1825 1.429 . S
C1841 C1837 1.429 . S
C1841 C1842 1.523 . S
C1842 C1826 1.368 . S
C1842 C1838 1.368 . S
C1842 C1841 1.523 . S
H1843 C1818 0.950 . S
H1844 C1820 0.950 . S
H1845 C1821 0.949 . S
H1846 C1823 0.950 . S
H1847 C1825 0.950 . S
C1848 C1849 1.349 . S
C1848 C1850 1.327 . S
C1848 H1873 0.950 . S
C1849 C1848 1.349 . S
C1849 C1865 1.349 . S
C1850 C1848 1.327 . S
C1850 C1869 1.429 . S
C1850 H1874 0.950 . S
C1851 C1868 1.574 . S
C1851 C1870 1.368 . S
C1851 H1875 0.949 . S
H1852 C1856 0.949 . S
C1853 C1854 1.349 . S
C1853 C1855 1.327 . S
C1853 H1876 0.950 . S
C1854 C1853 1.349 . S
C1854 C1866 1.349 . S
C1855 C1853 1.327 . S
C1855 C1871 1.429 . S
C1855 H1877 0.950 . S
C1856 H1852 0.949 . S
C1856 C1864 1.574 . S
C1856 C1872 1.368 . S
H1857 C1865 0.950 . S
H1858 C1863 0.950 . S
H1859 C1864 0.949 . S
H1860 C1866 0.950 . S
H1861 C1867 0.950 . S
H1862 C1868 0.949 . S
C1863 H1858 0.950 . S
C1863 C1865 1.327 . S
C1863 C1869 1.429 . S
C1864 C1856 1.574 . S
C1864 H1859 0.949 . S
C1864 C1870 1.368 . S
C1865 C1849 1.349 . S
C1865 H1857 0.950 . S
C1865 C1863 1.327 . S
C1866 C1854 1.349 . S
C1866 H1860 0.950 . S
C1866 C1867 1.327 . S
C1867 H1861 0.950 . S
C1867 C1866 1.327 . S
C1867 C1871 1.429 . S
C1868 C1851 1.574 . S
C1868 H1862 0.949 . S
C1868 C1872 1.368 . S
C1869 C1850 1.429 . S
C1869 C1863 1.429 . S
C1869 C1870 1.523 . S
C1870 C1851 1.368 . S
C1870 C1864 1.368 . S
C1870 C1869 1.523 . S
C1871 C1855 1.429 . S
C1871 C1867 1.429 . S
C1871 C1872 1.523 . S
C1872 C1856 1.368 . S
C1872 C1868 1.368 . S
C1872 C1871 1.523 . S
H1873 C1848 0.950 . S
H1874 C1850 0.950 . S
H1875 C1851 0.949 . S
H1876 C1853 0.950 . S
H1877 C1855 0.950 . S
C1878 C1879 1.349 . S
C1878 C1880 1.327 . S
C1878 H1903 0.950 . S
C1879 C1878 1.349 . S
C1879 C1895 1.349 . S
C1880 C1878 1.327 . S
C1880 C1899 1.429 . S
C1880 H1904 0.950 . S
C1881 C1898 1.574 . S
C1881 C1900 1.368 . S
C1881 H1905 0.949 . S
H1882 C1886 0.949 . S
C1883 C1884 1.349 . S
C1883 C1885 1.327 . S
C1883 H1906 0.950 . S
C1884 C1883 1.349 . S
C1884 C1896 1.349 . S
C1885 C1883 1.327 . S
C1885 C1901 1.429 . S
C1885 H1907 0.950 . S
C1886 H1882 0.949 . S
C1886 C1894 1.574 . S
C1886 C1902 1.368 . S
H1887 C1895 0.950 . S
H1888 C1893 0.950 . S
H1889 C1894 0.949 . S
H1890 C1896 0.950 . S
H1891 C1897 0.950 . S
H1892 C1898 0.949 . S
C1893 H1888 0.950 . S
C1893 C1895 1.327 . S
C1893 C1899 1.429 . S
C1894 C1886 1.574 . S
C1894 H1889 0.949 . S
C1894 C1900 1.368 . S
C1895 C1879 1.349 . S
C1895 H1887 0.950 . S
C1895 C1893 1.327 . S
C1896 C1884 1.349 . S
C1896 H1890 0.950 . S
C1896 C1897 1.327 . S
C1897 H1891 0.950 . S
C1897 C1896 1.327 . S
C1897 C1901 1.429 . S
C1898 C1881 1.574 . S
C1898 H1892 0.949 . S
C1898 C1902 1.368 . S
C1899 C1880 1.429 . S
C1899 C1893 1.429 . S
C1899 C1900 1.523 . S
C1900 C1881 1.368 . S
C1900 C1894 1.368 . S
C1900 C1899 1.523 . S
C1901 C1885 1.429 . S
C1901 C1897 1.429 . S
C1901 C1902 1.523 . S
C1902 C1886 1.368 . S
C1902 C1898 1.368 . S
C1902 C1901 1.523 . S
H1903 C1878 0.950 . S
H1904 C1880 0.950 . S
H1905 C1881 0.949 . S
H1906 C1883 0.950 . S
H1907 C1885 0.950 . S
C1908 C1909 1.349 . S
C1908 C1910 1.327 . S
C1908 H1933 0.950 . S
C1909 C1908 1.349 . S
C1909 C1925 1.349 . S
C1910 C1908 1.327 . S
C1910 C1929 1.429 . S
C1910 H1934 0.950 . S
C1911 C1928 1.574 . S
C1911 C1930 1.368 . S
C1911 H1935 0.949 . S
H1912 C1916 0.949 . S
C1913 C1914 1.349 . S
C1913 C1915 1.327 . S
C1913 H1936 0.950 . S
C1914 C1913 1.349 . S
C1914 C1926 1.349 . S
C1915 C1913 1.327 . S
C1915 C1931 1.429 . S
C1915 H1937 0.950 . S
C1916 H1912 0.949 . S
C1916 C1924 1.574 . S
C1916 C1932 1.368 . S
H1917 C1925 0.950 . S
H1918 C1923 0.950 . S
H1919 C1924 0.949 . S
H1920 C1926 0.950 . S
H1921 C1927 0.950 . S
H1922 C1928 0.949 . S
C1923 H1918 0.950 . S
C1923 C1925 1.327 . S
C1923 C1929 1.429 . S
C1924 C1916 1.574 . S
C1924 H1919 0.949 . S
C1924 C1930 1.368 . S
C1925 C1909 1.349 . S
C1925 H1917 0.950 . S
C1925 C1923 1.327 . S
C1926 C1914 1.349 . S
C1926 H1920 0.950 . S
C1926 C1927 1.327 . S
C1927 H1921 0.950 . S
C1927 C1926 1.327 . S
C1927 C1931 1.429 . S
C1928 C1911 1.574 . S
C1928 H1922 0.949 . S
C1928 C1932 1.368 . S
C1929 C1910 1.429 . S
C1929 C1923 1.429 . S
C1929 C1930 1.523 . S
C1930 C1911 1.368 . S
C1930 C1924 1.368 . S
C1930 C1929 1.523 . S
C1931 C1915 1.429 . S
C1931 C1927 1.429 . S
C1931 C1932 1.523 . S
C1932 C1916 1.368 . S
C1932 C1928 1.368 . S
C1932 C1931 1.523 . S
H1933 C1908 0.950 . S
H1934 C1910 0.950 . S
H1935 C1911 0.949 . S
H1936 C1913 0.950 . S
H1937 C1915 0.950 . S
C1938 C1939 1.349 . S
C1938 C1940 1.327 . S
C1938 H1963 0.950 . S
C1939 C1938 1.349 . S
C1939 C1955 1.349 . S
C1940 C1938 1.327 . S
C1940 C1959 1.429 . S
C1940 H1964 0.950 . S
C1941 C1958 1.574 . S
C1941 C1960 1.368 . S
C1941 H1965 0.949 . S
H1942 C1946 0.949 . S
C1943 C1944 1.349 . S
C1943 C1945 1.327 . S
C1943 H1966 0.950 . S
C1944 C1943 1.349 . S
C1944 C1956 1.349 . S
C1945 C1943 1.327 . S
C1945 C1961 1.429 . S
C1945 H1967 0.950 . S
C1946 H1942 0.949 . S
C1946 C1954 1.574 . S
C1946 C1962 1.368 . S
H1947 C1955 0.950 . S
H1948 C1953 0.950 . S
H1949 C1954 0.949 . S
H1950 C1956 0.950 . S
H1951 C1957 0.950 . S
H1952 C1958 0.949 . S
C1953 H1948 0.950 . S
C1953 C1955 1.327 . S
C1953 C1959 1.429 . S
C1954 C1946 1.574 . S
C1954 H1949 0.949 . S
C1954 C1960 1.368 . S
C1955 C1939 1.349 . S
C1955 H1947 0.950 . S
C1955 C1953 1.327 . S
C1956 C1944 1.349 . S
C1956 H1950 0.950 . S
C1956 C1957 1.327 . S
C1957 H1951 0.950 . S
C1957 C1956 1.327 . S
C1957 C1961 1.429 . S
C1958 C1941 1.574 . S
C1958 H1952 0.949 . S
C1958 C1962 1.368 . S
C1959 C1940 1.429 . S
C1959 C1953 1.429 . S
C1959 C1960 1.523 . S
C1960 C1941 1.368 . S
C1960 C1954 1.368 . S
C1960 C1959 1.523 . S
C1961 C1945 1.429 . S
C1961 C1957 1.429 . S
C1961 C1962 1.523 . S
C1962 C1946 1.368 . S
C1962 C1958 1.368 . S
C1962 C1961 1.523 . S
H1963 C1938 0.950 . S
H1964 C1940 0.950 . S
H1965 C1941 0.949 . S
H1966 C1943 0.950 . S
H1967 C1945 0.950 . S
C1968 C1969 1.349 . S
C1968 C1970 1.327 . S
C1968 H1993 0.950 . S
C1969 C1968 1.349 . S
C1969 C1985 1.349 . S
C1970 C1968 1.327 . S
C1970 C1989 1.429 . S
C1970 H1994 0.950 . S
C1971 C1988 1.574 . S
C1971 C1990 1.368 . S
C1971 H1995 0.949 . S
H1972 C1976 0.949 . S
C1973 C1974 1.349 . S
C1973 C1975 1.327 . S
C1973 H1996 0.950 . S
C1974 C1973 1.349 . S
C1974 C1986 1.349 . S
C1975 C1973 1.327 . S
C1975 C1991 1.429 . S
C1975 H1997 0.950 . S
C1976 H1972 0.949 . S
C1976 C1984 1.574 . S
C1976 C1992 1.368 . S
H1977 C1985 0.950 . S
H1978 C1983 0.950 . S
H1979 C1984 0.949 . S
H1980 C1986 0.950 . S
H1981 C1987 0.950 . S
H1982 C1988 0.949 . S
C1983 H1978 0.950 . S
C1983 C1985 1.327 . S
C1983 C1989 1.429 . S
C1984 C1976 1.574 . S
C1984 H1979 0.949 . S
C1984 C1990 1.368 . S
C1985 C1969 1.349 . S
C1985 H1977 0.950 . S
C1985 C1983 1.327 . S
C1986 C1974 1.349 . S
C1986 H1980 0.950 . S
C1986 C1987 1.327 . S
C1987 H1981 0.950 . S
C1987 C1986 1.327 . S
C1987 C1991 1.429 . S
C1988 C1971 1.574 . S
C1988 H1982 0.949 . S
C1988 C1992 1.368 . S
C1989 C1970 1.429 . S
C1989 C1983 1.429 . S
C1989 C1990 1.523 . S
C1990 C1971 1.368 . S
C1990 C1984 1.368 . S
C1990 C1989 1.523 . S
C1991 C1975 1.429 . S
C1991 C1987 1.429 . S
C1991 C1992 1.523 . S
C1992 C1976 1.368 . S
C1992 C1988 1.368 . S
C1992 C1991 1.523 . S
H1993 C1968 0.950 . S
H1994 C1970 0.950 . S
H1995 C1971 0.949 . S
H1996 C1973 0.950 . S
H1997 C1975 0.950 . S
C1998 C1999 1.349 . S
C1998 C2000 1.327 . S
C1998 H2023 0.950 . S
C1999 C1998 1.349 . S
C1999 C2015 1.349 . S
C2000 C1998 1.327 . S
C2000 C2019 1.429 . S
C2000 H2024 0.950 . S
C2001 C2018 1.574 . S
C2001 C2020 1.368 . S
C2001 H2025 0.949 . S
H2002 C2006 0.949 . S
C2003 C2004 1.349 . S
C2003 C2005 1.327 . S
C2003 H2026 0.950 . S
C2004 C2003 1.349 . S
C2004 C2016 1.349 . S
C2005 C2003 1.327 . S
C2005 C2021 1.429 . S
C2005 H2027 0.950 . S
C2006 H2002 0.949 . S
C2006 C2014 1.574 . S
C2006 C2022 1.368 . S
H2007 C2015 0.950 . S
H2008 C2013 0.950 . S
H2009 C2014 0.949 . S
H2010 C2016 0.950 . S
H2011 C2017 0.950 . S
H2012 C2018 0.949 . S
C2013 H2008 0.950 . S
C2013 C2015 1.327 . S
C2013 C2019 1.429 . S
C2014 C2006 1.574 . S
C2014 H2009 0.949 . S
C2014 C2020 1.368 . S
C2015 C1999 1.349 . S
C2015 H2007 0.950 . S
C2015 C2013 1.327 . S
C2016 C2004 1.349 . S
C2016 H2010 0.950 . S
C2016 C2017 1.327 . S
C2017 H2011 0.950 . S
C2017 C2016 1.327 . S
C2017 C2021 1.429 . S
C2018 C2001 1.574 . S
C2018 H2012 0.949 . S
C2018 C2022 1.368 . S
C2019 C2000 1.429 . S
C2019 C2013 1.429 . S
C2019 C2020 1.523 . S
C2020 C2001 1.368 . S
C2020 C2014 1.368 . S
C2020 C2019 1.523 . S
C2021 C2005 1.429 . S
C2021 C2017 1.429 . S
C2021 C2022 1.523 . S
C2022 C2006 1.368 . S
C2022 C2018 1.368 . S
C2022 C2021 1.523 . S
H2023 C1998 0.950 . S
H2024 C2000 0.950 . S
H2025 C2001 0.949 . S
H2026 C2003 0.950 . S
H2027 C2005 0.950 . S
C2028 C2029 1.349 . S
C2028 C2030 1.327 . S
C2028 H2053 0.950 . S
C2029 C2028 1.349 . S
C2029 C2045 1.349 . S
C2030 C2028 1.327 . S
C2030 C2049 1.429 . S
C2030 H2054 0.950 . S
C2031 C2048 1.574 . S
C2031 C2050 1.368 . S
C2031 H2055 0.949 . S
H2032 C2036 0.949 . S
C2033 C2034 1.349 . S
C2033 C2035 1.327 . S
C2033 H2056 0.950 . S
C2034 C2033 1.349 . S
C2034 C2046 1.349 . S
C2035 C2033 1.327 . S
C2035 C2051 1.429 . S
C2035 H2057 0.950 . S
C2036 H2032 0.949 . S
C2036 C2044 1.574 . S
C2036 C2052 1.368 . S
H2037 C2045 0.950 . S
H2038 C2043 0.950 . S
H2039 C2044 0.949 . S
H2040 C2046 0.950 . S
H2041 C2047 0.950 . S
H2042 C2048 0.949 . S
C2043 H2038 0.950 . S
C2043 C2045 1.327 . S
C2043 C2049 1.429 . S
C2044 C2036 1.574 . S
C2044 H2039 0.949 . S
C2044 C2050 1.368 . S
C2045 C2029 1.349 . S
C2045 H2037 0.950 . S
C2045 C2043 1.327 . S
C2046 C2034 1.349 . S
C2046 H2040 0.950 . S
C2046 C2047 1.327 . S
C2047 H2041 0.950 . S
C2047 C2046 1.327 . S
C2047 C2051 1.429 . S
C2048 C2031 1.574 . S
C2048 H2042 0.949 . S
C2048 C2052 1.368 . S
C2049 C2030 1.429 . S
C2049 C2043 1.429 . S
C2049 C2050 1.523 . S
C2050 C2031 1.368 . S
C2050 C2044 1.368 . S
C2050 C2049 1.523 . S
C2051 C2035 1.429 . S
C2051 C2047 1.429 . S
C2051 C2052 1.523 . S
C2052 C2036 1.368 . S
C2052 C2048 1.368 . S
C2052 C2051 1.523 . S
H2053 C2028 0.950 . S
H2054 C2030 0.950 . S
H2055 C2031 0.949 . S
H2056 C2033 0.950 . S
H2057 C2035 0.950 . S
C2058 C2059 1.349 . S
C2058 C2060 1.327 . S
C2058 H2083 0.950 . S
C2059 C2058 1.349 . S
C2059 C2075 1.349 . S
C2060 C2058 1.327 . S
C2060 C2079 1.429 . S
C2060 H2084 0.950 . S
C2061 C2078 1.574 . S
C2061 C2080 1.368 . S
C2061 H2085 0.949 . S
H2062 C2066 0.949 . S
C2063 C2064 1.349 . S
C2063 C2065 1.327 . S
C2063 H2086 0.950 . S
C2064 C2063 1.349 . S
C2064 C2076 1.349 . S
C2065 C2063 1.327 . S
C2065 C2081 1.429 . S
C2065 H2087 0.950 . S
C2066 H2062 0.949 . S
C2066 C2074 1.574 . S
C2066 C2082 1.368 . S
H2067 C2075 0.950 . S
H2068 C2073 0.950 . S
H2069 C2074 0.949 . S
H2070 C2076 0.950 . S
H2071 C2077 0.950 . S
H2072 C2078 0.949 . S
C2073 H2068 0.950 . S
C2073 C2075 1.327 . S
C2073 C2079 1.429 . S
C2074 C2066 1.574 . S
C2074 H2069 0.949 . S
C2074 C2080 1.368 . S
C2075 C2059 1.349 . S
C2075 H2067 0.950 . S
C2075 C2073 1.327 . S
C2076 C2064 1.349 . S
C2076 H2070 0.950 . S
C2076 C2077 1.327 . S
C2077 H2071 0.950 . S
C2077 C2076 1.327 . S
C2077 C2081 1.429 . S
C2078 C2061 1.574 . S
C2078 H2072 0.949 . S
C2078 C2082 1.368 . S
C2079 C2060 1.429 . S
C2079 C2073 1.429 . S
C2079 C2080 1.523 . S
C2080 C2061 1.368 . S
C2080 C2074 1.368 . S
C2080 C2079 1.523 . S
C2081 C2065 1.429 . S
C2081 C2077 1.429 . S
C2081 C2082 1.523 . S
C2082 C2066 1.368 . S
C2082 C2078 1.368 . S
C2082 C2081 1.523 . S
H2083 C2058 0.950 . S
H2084 C2060 0.950 . S
H2085 C2061 0.949 . S
H2086 C2063 0.950 . S
H2087 C2065 0.950 . S
C2088 C2089 1.349 . S
C2088 C2090 1.327 . S
C2088 H2113 0.950 . S
C2089 C2088 1.349 . S
C2089 C2105 1.349 . S
C2090 C2088 1.327 . S
C2090 C2109 1.429 . S
C2090 H2114 0.950 . S
C2091 C2108 1.574 . S
C2091 C2110 1.368 . S
C2091 H2115 0.949 . S
H2092 C2096 0.949 . S
C2093 C2094 1.349 . S
C2093 C2095 1.327 . S
C2093 H2116 0.950 . S
C2094 C2093 1.349 . S
C2094 C2106 1.349 . S
C2095 C2093 1.327 . S
C2095 C2111 1.429 . S
C2095 H2117 0.950 . S
C2096 H2092 0.949 . S
C2096 C2104 1.574 . S
C2096 C2112 1.368 . S
H2097 C2105 0.950 . S
H2098 C2103 0.950 . S
H2099 C2104 0.949 . S
H2100 C2106 0.950 . S
H2101 C2107 0.950 . S
H2102 C2108 0.949 . S
C2103 H2098 0.950 . S
C2103 C2105 1.327 . S
C2103 C2109 1.429 . S
C2104 C2096 1.574 . S
C2104 H2099 0.949 . S
C2104 C2110 1.368 . S
C2105 C2089 1.349 . S
C2105 H2097 0.950 . S
C2105 C2103 1.327 . S
C2106 C2094 1.349 . S
C2106 H2100 0.950 . S
C2106 C2107 1.327 . S
C2107 H2101 0.950 . S
C2107 C2106 1.327 . S
C2107 C2111 1.429 . S
C2108 C2091 1.574 . S
C2108 H2102 0.949 . S
C2108 C2112 1.368 . S
C2109 C2090 1.429 . S
C2109 C2103 1.429 . S
C2109 C2110 1.523 . S
C2110 C2091 1.368 . S
C2110 C2104 1.368 . S
C2110 C2109 1.523 . S
C2111 C2095 1.429 . S
C2111 C2107 1.429 . S
C2111 C2112 1.523 . S
C2112 C2096 1.368 . S
C2112 C2108 1.368 . S
C2112 C2111 1.523 . S
H2113 C2088 0.950 . S
H2114 C2090 0.950 . S
H2115 C2091 0.949 . S
H2116 C2093 0.950 . S
H2117 C2095 0.950 . S
C2118 C2119 1.349 . S
C2118 C2120 1.327 . S
C2118 H2143 0.950 . S
C2119 C2118 1.349 . S
C2119 C2135 1.349 . S
C2120 C2118 1.327 . S
C2120 C2139 1.429 . S
C2120 H2144 0.950 . S
C2121 C2138 1.574 . S
C2121 C2140 1.368 . S
C2121 H2145 0.949 . S
H2122 C2126 0.949 . S
C2123 C2124 1.349 . S
C2123 C2125 1.327 . S
C2123 H2146 0.950 . S
C2124 C2123 1.349 . S
C2124 C2136 1.349 . S
C2125 C2123 1.327 . S
C2125 C2141 1.429 . S
C2125 H2147 0.950 . S
C2126 H2122 0.949 . S
C2126 C2134 1.574 . S
C2126 C2142 1.368 . S
H2127 C2135 0.950 . S
H2128 C2133 0.950 . S
H2129 C2134 0.949 . S
H2130 C2136 0.950 . S
H2131 C2137 0.950 . S
H2132 C2138 0.949 . S
C2133 H2128 0.950 . S
C2133 C2135 1.327 . S
C2133 C2139 1.429 . S
C2134 C2126 1.574 . S
C2134 H2129 0.949 . S
C2134 C2140 1.368 . S
C2135 C2119 1.349 . S
C2135 H2127 0.950 . S
C2135 C2133 1.327 . S
C2136 C2124 1.349 . S
C2136 H2130 0.950 . S
C2136 C2137 1.327 . S
C2137 H2131 0.950 . S
C2137 C2136 1.327 . S
C2137 C2141 1.429 . S
C2138 C2121 1.574 . S
C2138 H2132 0.949 . S
C2138 C2142 1.368 . S
C2139 C2120 1.429 . S
C2139 C2133 1.429 . S
C2139 C2140 1.523 . S
C2140 C2121 1.368 . S
C2140 C2134 1.368 . S
C2140 C2139 1.523 . S
C2141 C2125 1.429 . S
C2141 C2137 1.429 . S
C2141 C2142 1.523 . S
C2142 C2126 1.368 . S
C2142 C2138 1.368 . S
C2142 C2141 1.523 . S
H2143 C2118 0.950 . S
H2144 C2120 0.950 . S
H2145 C2121 0.949 . S
H2146 C2123 0.950 . S
H2147 C2125 0.950 . S
C2148 C2149 1.349 . S
C2148 C2150 1.327 . S
C2148 H2173 0.950 . S
C2149 C2148 1.349 . S
C2149 C2165 1.349 . S
C2150 C2148 1.327 . S
C2150 C2169 1.429 . S
C2150 H2174 0.950 . S
C2151 C2168 1.574 . S
C2151 C2170 1.368 . S
C2151 H2175 0.949 . S
H2152 C2156 0.949 . S
C2153 C2154 1.349 . S
C2153 C2155 1.327 . S
C2153 H2176 0.950 . S
C2154 C2153 1.349 . S
C2154 C2166 1.349 . S
C2155 C2153 1.327 . S
C2155 C2171 1.429 . S
C2155 H2177 0.950 . S
C2156 H2152 0.949 . S
C2156 C2164 1.574 . S
C2156 C2172 1.368 . S
H2157 C2165 0.950 . S
H2158 C2163 0.950 . S
H2159 C2164 0.949 . S
H2160 C2166 0.950 . S
H2161 C2167 0.950 . S
H2162 C2168 0.949 . S
C2163 H2158 0.950 . S
C2163 C2165 1.327 . S
C2163 C2169 1.429 . S
C2164 C2156 1.574 . S
C2164 H2159 0.949 . S
C2164 C2170 1.368 . S
C2165 C2149 1.349 . S
C2165 H2157 0.950 . S
C2165 C2163 1.327 . S
C2166 C2154 1.349 . S
C2166 H2160 0.950 . S
C2166 C2167 1.327 . S
C2167 H2161 0.950 . S
C2167 C2166 1.327 . S
C2167 C2171 1.429 . S
C2168 C2151 1.574 . S
C2168 H2162 0.949 . S
C2168 C2172 1.368 . S
C2169 C2150 1.429 . S
C2169 C2163 1.429 . S
C2169 C2170 1.523 . S
C2170 C2151 1.368 . S
C2170 C2164 1.368 . S
C2170 C2169 1.523 . S
C2171 C2155 1.429 . S
C2171 C2167 1.429 . S
C2171 C2172 1.523 . S
C2172 C2156 1.368 . S
C2172 C2168 1.368 . S
C2172 C2171 1.523 . S
H2173 C2148 0.950 . S
H2174 C2150 0.950 . S
H2175 C2151 0.949 . S
H2176 C2153 0.950 . S
H2177 C2155 0.950 . S
C2178 C2179 1.349 . S
C2178 C2180 1.327 . S
C2178 H2203 0.950 . S
C2179 C2178 1.349 . S
C2179 C2195 1.349 . S
C2180 C2178 1.327 . S
C2180 C2199 1.429 . S
C2180 H2204 0.950 . S
C2181 C2198 1.574 . S
C2181 C2200 1.368 . S
C2181 H2205 0.949 . S
H2182 C2186 0.949 . S
C2183 C2184 1.349 . S
C2183 C2185 1.327 . S
C2183 H2206 0.950 . S
C2184 C2183 1.349 . S
C2184 C2196 1.349 . S
C2185 C2183 1.327 . S
C2185 C2201 1.429 . S
C2185 H2207 0.950 . S
C2186 H2182 0.949 . S
C2186 C2194 1.574 . S
C2186 C2202 1.368 . S
H2187 C2195 0.950 . S
H2188 C2193 0.950 . S
H2189 C2194 0.949 . S
H2190 C2196 0.950 . S
H2191 C2197 0.950 . S
H2192 C2198 0.949 . S
C2193 H2188 0.950 . S
C2193 C2195 1.327 . S
C2193 C2199 1.429 . S
C2194 C2186 1.574 . S
C2194 H2189 0.949 . S
C2194 C2200 1.368 . S
C2195 C2179 1.349 . S
C2195 H2187 0.950 . S
C2195 C2193 1.327 . S
C2196 C2184 1.349 . S
C2196 H2190 0.950 . S
C2196 C2197 1.327 . S
C2197 H2191 0.950 . S
C2197 C2196 1.327 . S
C2197 C2201 1.429 . S
C2198 C2181 1.574 . S
C2198 H2192 0.949 . S
C2198 C2202 1.368 . S
C2199 C2180 1.429 . S
C2199 C2193 1.429 . S
C2199 C2200 1.523 . S
C2200 C2181 1.368 . S
C2200 C2194 1.368 . S
C2200 C2199 1.523 . S
C2201 C2185 1.429 . S
C2201 C2197 1.429 . S
C2201 C2202 1.523 . S
C2202 C2186 1.368 . S
C2202 C2198 1.368 . S
C2202 C2201 1.523 . S
H2203 C2178 0.950 . S
H2204 C2180 0.950 . S
H2205 C2181 0.949 . S
H2206 C2183 0.950 . S
H2207 C2185 0.950 . S
C2208 C2209 1.349 . S
C2208 C2210 1.327 . S
C2208 H2233 0.950 . S
C2209 C2208 1.349 . S
C2209 C2225 1.349 . S
C2210 C2208 1.327 . S
C2210 C2229 1.429 . S
C2210 H2234 0.950 . S
C2211 C2228 1.574 . S
C2211 C2230 1.368 . S
C2211 H2235 0.949 . S
H2212 C2216 0.949 . S
C2213 C2214 1.349 . S
C2213 C2215 1.327 . S
C2213 H2236 0.950 . S
C2214 C2213 1.349 . S
C2214 C2226 1.349 . S
C2215 C2213 1.327 . S
C2215 C2231 1.429 . S
C2215 H2237 0.950 . S
C2216 H2212 0.949 . S
C2216 C2224 1.574 . S
C2216 C2232 1.368 . S
H2217 C2225 0.950 . S
H2218 C2223 0.950 . S
H2219 C2224 0.949 . S
H2220 C2226 0.950 1_556 S
H2221 C2227 0.950 . S
H2222 C2228 0.949 . S
C2223 H2218 0.950 . S
C2223 C2225 1.327 . S
C2223 C2229 1.429 . S
C2224 C2216 1.574 . S
C2224 H2219 0.949 . S
C2224 C2230 1.368 . S
C2225 C2209 1.349 . S
C2225 H2217 0.950 . S
C2225 C2223 1.327 . S
C2226 C2214 1.349 . S
C2226 H2220 0.950 1_554 S
C2226 C2227 1.327 . S
C2227 H2221 0.950 . S
C2227 C2226 1.327 . S
C2227 C2231 1.429 . S
C2228 C2211 1.574 . S
C2228 H2222 0.949 . S
C2228 C2232 1.368 . S
C2229 C2210 1.429 . S
C2229 C2223 1.429 . S
C2229 C2230 1.523 . S
C2230 C2211 1.368 . S
C2230 C2224 1.368 . S
C2230 C2229 1.523 . S
C2231 C2215 1.429 . S
C2231 C2227 1.429 . S
C2231 C2232 1.523 . S
C2232 C2216 1.368 . S
C2232 C2228 1.368 . S
C2232 C2231 1.523 . S
H2233 C2208 0.950 . S
H2234 C2210 0.950 . S
H2235 C2211 0.949 . S
H2236 C2213 0.950 . S
H2237 C2215 0.950 . S
C2238 C2239 1.349 . S
C2238 C2240 1.327 . S
C2238 H2263 0.950 . S
C2239 C2238 1.349 . S
C2239 C2255 1.349 . S
C2240 C2238 1.327 . S
C2240 C2259 1.429 . S
C2240 H2264 0.950 . S
C2241 C2258 1.574 . S
C2241 C2260 1.368 . S
C2241 H2265 0.949 . S
H2242 C2246 0.949 . S
C2243 C2244 1.349 . S
C2243 C2245 1.327 . S
C2243 H2266 0.950 . S
C2244 C2243 1.349 . S
C2244 C2256 1.349 . S
C2245 C2243 1.327 . S
C2245 C2261 1.429 . S
C2245 H2267 0.950 . S
C2246 H2242 0.949 . S
C2246 C2254 1.574 . S
C2246 C2262 1.368 . S
H2247 C2255 0.950 . S
H2248 C2253 0.950 . S
H2249 C2254 0.949 . S
H2250 C2256 0.950 . S
H2251 C2257 0.950 . S
H2252 C2258 0.949 . S
C2253 H2248 0.950 . S
C2253 C2255 1.327 . S
C2253 C2259 1.429 . S
C2254 C2246 1.574 . S
C2254 H2249 0.949 . S
C2254 C2260 1.368 . S
C2255 C2239 1.349 . S
C2255 H2247 0.950 . S
C2255 C2253 1.327 . S
C2256 C2244 1.349 . S
C2256 H2250 0.950 . S
C2256 C2257 1.327 . S
C2257 H2251 0.950 . S
C2257 C2256 1.327 . S
C2257 C2261 1.429 . S
C2258 C2241 1.574 . S
C2258 H2252 0.949 . S
C2258 C2262 1.368 . S
C2259 C2240 1.429 . S
C2259 C2253 1.429 . S
C2259 C2260 1.523 . S
C2260 C2241 1.368 . S
C2260 C2254 1.368 . S
C2260 C2259 1.523 . S
C2261 C2245 1.429 . S
C2261 C2257 1.429 . S
C2261 C2262 1.523 . S
C2262 C2246 1.368 . S
C2262 C2258 1.368 . S
C2262 C2261 1.523 . S
H2263 C2238 0.950 . S
H2264 C2240 0.950 . S
H2265 C2241 0.949 . S
H2266 C2243 0.950 . S
H2267 C2245 0.950 . S
C2268 C2269 1.350 . S
C2268 C2270 1.337 . S
C2268 H2293 0.939 1_556 S
C2269 C2268 1.350 . S
C2269 C2285 1.349 . S
C2270 C2268 1.337 . S
C2270 C2289 1.429 . S
C2270 H2294 0.950 . S
C2271 C2288 1.574 . S
C2271 C2290 1.368 . S
C2271 H2295 0.949 . S
H2272 C2276 0.949 . S
C2273 C2274 1.349 . S
C2273 C2275 1.327 . S
C2273 H2296 0.950 . S
C2274 C2273 1.349 . S
C2274 C2286 1.349 . S
C2275 C2273 1.327 . S
C2275 C2291 1.429 . S
C2275 H2297 0.950 . S
C2276 H2272 0.949 . S
C2276 C2284 1.574 . S
C2276 C2292 1.368 . S
H2277 C2285 0.950 . S
H2278 C2283 0.950 . S
H2279 C2284 0.949 . S
H2280 C2286 0.950 . S
H2281 C2287 0.950 . S
H2282 C2288 0.949 . S
C2283 H2278 0.950 . S
C2283 C2285 1.327 . S
C2283 C2289 1.429 . S
C2284 C2276 1.574 . S
C2284 H2279 0.949 . S
C2284 C2290 1.368 . S
C2285 C2269 1.349 . S
C2285 H2277 0.950 . S
C2285 C2283 1.327 . S
C2286 C2274 1.349 . S
C2286 H2280 0.950 . S
C2286 C2287 1.327 . S
C2287 H2281 0.950 . S
C2287 C2286 1.327 . S
C2287 C2291 1.429 . S
C2288 C2271 1.574 . S
C2288 H2282 0.949 . S
C2288 C2292 1.368 . S
C2289 C2270 1.429 . S
C2289 C2283 1.429 . S
C2289 C2290 1.523 . S
C2290 C2271 1.368 . S
C2290 C2284 1.368 . S
C2290 C2289 1.523 . S
C2291 C2275 1.429 . S
C2291 C2287 1.429 . S
C2291 C2292 1.523 . S
C2292 C2276 1.368 . S
C2292 C2288 1.368 . S
C2292 C2291 1.523 . S
H2293 C2268 0.939 1_554 S
H2294 C2270 0.950 . S
H2295 C2271 0.949 . S
H2296 C2273 0.950 . S
H2297 C2275 0.950 . S
C2298 C2299 1.349 . S
C2298 C2300 1.327 . S
C2298 H2323 0.950 . S
C2299 C2298 1.349 . S
C2299 C2315 1.349 . S
C2300 C2298 1.327 . S
C2300 C2319 1.429 . S
C2300 H2324 0.950 . S
C2301 C2318 1.574 . S
C2301 C2320 1.368 . S
C2301 H2325 0.949 . S
H2302 C2306 0.949 . S
C2303 C2304 1.349 . S
C2303 C2305 1.327 . S
C2303 H2326 0.950 . S
C2304 C2303 1.349 . S
C2304 C2316 1.349 . S
C2305 C2303 1.327 . S
C2305 C2321 1.429 . S
C2305 H2327 0.950 . S
C2306 H2302 0.949 . S
C2306 C2314 1.574 . S
C2306 C2322 1.368 . S
H2307 C2315 0.950 . S
H2308 C2313 0.950 . S
H2309 C2314 0.949 . S
H2310 C2316 0.950 . S
H2311 C2317 0.950 . S
H2312 C2318 0.949 . S
C2313 H2308 0.950 . S
C2313 C2315 1.327 . S
C2313 C2319 1.429 . S
C2314 C2306 1.574 . S
C2314 H2309 0.949 . S
C2314 C2320 1.368 . S
C2315 C2299 1.349 . S
C2315 H2307 0.950 . S
C2315 C2313 1.327 . S
C2316 C2304 1.349 . S
C2316 H2310 0.950 . S
C2316 C2317 1.327 . S
C2317 H2311 0.950 . S
C2317 C2316 1.327 . S
C2317 C2321 1.429 . S
C2318 C2301 1.574 . S
C2318 H2312 0.949 . S
C2318 C2322 1.368 . S
C2319 C2300 1.429 . S
C2319 C2313 1.429 . S
C2319 C2320 1.523 . S
C2320 C2301 1.368 . S
C2320 C2314 1.368 . S
C2320 C2319 1.523 . S
C2321 C2305 1.429 . S
C2321 C2317 1.429 . S
C2321 C2322 1.523 . S
C2322 C2306 1.368 . S
C2322 C2318 1.368 . S
C2322 C2321 1.523 . S
H2323 C2298 0.950 . S
H2324 C2300 0.950 . S
H2325 C2301 0.949 . S
H2326 C2303 0.950 . S
H2327 C2305 0.950 . S
C2328 C2329 1.349 . S
C2328 C2330 1.327 . S
C2328 H2353 0.950 . S
C2329 C2328 1.349 . S
C2329 C2345 1.349 . S
C2330 C2328 1.327 . S
C2330 C2349 1.429 . S
C2330 H2354 0.950 . S
C2331 C2348 1.574 . S
C2331 C2350 1.368 . S
C2331 H2355 0.949 . S
H2332 C2336 0.949 . S
C2333 C2334 1.349 1_655 S
C2333 C2335 1.327 1_655 S
C2333 H2356 0.950 . S
C2334 C2333 1.349 1_455 S
C2334 C2346 1.349 . S
C2335 C2333 1.327 1_455 S
C2335 C2351 1.429 . S
C2335 H2357 0.950 . S
C2336 H2332 0.949 . S
C2336 C2344 1.574 . S
C2336 C2352 1.368 . S
H2337 C2345 0.950 . S
H2338 C2343 0.950 . S
H2339 C2344 0.949 . S
H2340 C2346 0.950 . S
H2341 C2347 0.950 . S
H2342 C2348 0.949 . S
C2343 H2338 0.950 . S
C2343 C2345 1.327 . S
C2343 C2349 1.429 . S
C2344 C2336 1.574 . S
C2344 H2339 0.949 . S
C2344 C2350 1.368 . S
C2345 C2329 1.349 . S
C2345 H2337 0.950 . S
C2345 C2343 1.327 . S
C2346 C2334 1.349 . S
C2346 H2340 0.950 . S
C2346 C2347 1.327 . S
C2347 H2341 0.950 . S
C2347 C2346 1.327 . S
C2347 C2351 1.429 . S
C2348 C2331 1.574 . S
C2348 H2342 0.949 . S
C2348 C2352 1.368 . S
C2349 C2330 1.429 . S
C2349 C2343 1.429 . S
C2349 C2350 1.523 . S
C2350 C2331 1.368 . S
C2350 C2344 1.368 . S
C2350 C2349 1.523 . S
C2351 C2335 1.429 . S
C2351 C2347 1.429 . S
C2351 C2352 1.523 . S
C2352 C2336 1.368 . S
C2352 C2348 1.368 . S
C2352 C2351 1.523 . S
H2353 C2328 0.950 . S
H2354 C2330 0.950 . S
H2355 C2331 0.949 . S
H2356 C2333 0.950 . S
H2357 C2335 0.950 . S
C2358 C2359 1.349 . S
C2358 C2360 1.327 . S
C2358 H2383 0.950 . S
C2359 C2358 1.349 . S
C2359 C2375 1.349 . S
C2360 C2358 1.327 . S
C2360 C2379 1.429 . S
C2360 H2384 0.950 . S
C2361 C2378 1.574 . S
C2361 C2380 1.368 . S
C2361 H2385 0.949 . S
H2362 C2366 0.949 . S
C2363 C2364 1.349 . S
C2363 C2365 1.327 . S
C2363 H2386 0.950 . S
C2364 C2363 1.349 . S
C2364 C2376 1.349 . S
C2365 C2363 1.327 . S
C2365 C2381 1.429 . S
C2365 H2387 0.950 . S
C2366 H2362 0.949 . S
C2366 C2374 1.574 . S
C2366 C2382 1.368 . S
H2367 C2375 0.950 . S
H2368 C2373 0.950 . S
H2369 C2374 0.949 . S
H2370 C2376 0.950 . S
H2371 C2377 0.950 . S
H2372 C2378 0.949 . S
C2373 H2368 0.950 . S
C2373 C2375 1.327 . S
C2373 C2379 1.429 . S
C2374 C2366 1.574 . S
C2374 H2369 0.949 . S
C2374 C2380 1.368 . S
C2375 C2359 1.349 . S
C2375 H2367 0.950 . S
C2375 C2373 1.327 . S
C2376 C2364 1.349 . S
C2376 H2370 0.950 . S
C2376 C2377 1.327 . S
C2377 H2371 0.950 . S
C2377 C2376 1.327 . S
C2377 C2381 1.429 . S
C2378 C2361 1.574 . S
C2378 H2372 0.949 . S
C2378 C2382 1.368 . S
C2379 C2360 1.429 . S
C2379 C2373 1.429 . S
C2379 C2380 1.523 . S
C2380 C2361 1.368 . S
C2380 C2374 1.368 . S
C2380 C2379 1.523 . S
C2381 C2365 1.429 . S
C2381 C2377 1.429 . S
C2381 C2382 1.523 . S
C2382 C2366 1.368 . S
C2382 C2378 1.368 . S
C2382 C2381 1.523 . S
H2383 C2358 0.950 . S
H2384 C2360 0.950 . S
H2385 C2361 0.949 . S
H2386 C2363 0.950 . S
H2387 C2365 0.950 . S
C2388 C2389 1.349 . S
C2388 C2390 1.327 . S
C2388 H2413 0.950 . S
C2389 C2388 1.349 . S
C2389 C2405 1.349 . S
C2390 C2388 1.327 . S
C2390 C2409 1.429 . S
C2390 H2414 0.950 . S
C2391 C2408 1.574 . S
C2391 C2410 1.368 . S
C2391 H2415 0.949 . S
H2392 C2396 0.949 . S
C2393 C2394 1.349 . S
C2393 C2395 1.327 . S
C2393 H2416 0.950 . S
C2394 C2393 1.349 . S
C2394 C2406 1.349 . S
C2395 C2393 1.327 . S
C2395 C2411 1.429 . S
C2395 H2417 0.950 . S
C2396 H2392 0.949 . S
C2396 C2404 1.574 . S
C2396 C2412 1.368 . S
H2397 C2405 0.950 . S
H2398 C2403 0.950 . S
H2399 C2404 0.949 . S
H2400 C2406 0.950 . S
H2401 C2407 0.950 . S
H2402 C2408 0.949 . S
C2403 H2398 0.950 . S
C2403 C2405 1.327 . S
C2403 C2409 1.429 . S
C2404 C2396 1.574 . S
C2404 H2399 0.949 . S
C2404 C2410 1.368 . S
C2405 C2389 1.349 . S
C2405 H2397 0.950 . S
C2405 C2403 1.327 . S
C2406 C2394 1.349 . S
C2406 H2400 0.950 . S
C2406 C2407 1.327 . S
C2407 H2401 0.950 . S
C2407 C2406 1.327 . S
C2407 C2411 1.429 . S
C2408 C2391 1.574 . S
C2408 H2402 0.949 . S
C2408 C2412 1.368 . S
C2409 C2390 1.429 . S
C2409 C2403 1.429 . S
C2409 C2410 1.523 . S
C2410 C2391 1.368 . S
C2410 C2404 1.368 . S
C2410 C2409 1.523 . S
C2411 C2395 1.429 . S
C2411 C2407 1.429 . S
C2411 C2412 1.523 . S
C2412 C2396 1.368 . S
C2412 C2408 1.368 . S
C2412 C2411 1.523 . S
H2413 C2388 0.950 . S
H2414 C2390 0.950 . S
H2415 C2391 0.949 . S
H2416 C2393 0.950 . S
H2417 C2395 0.950 . S
C2418 C2419 1.349 . S
C2418 C2420 1.327 . S
C2418 H2443 0.950 1_655 S
C2419 C2418 1.349 . S
C2419 C2435 1.349 . S
C2420 C2418 1.327 . S
C2420 C2439 1.429 . S
C2420 H2444 0.950 . S
C2421 C2438 1.574 . S
C2421 C2440 1.368 . S
C2421 H2445 0.949 . S
H2422 C2426 0.949 . S
C2423 C2424 1.349 . S
C2423 C2425 1.327 . S
C2423 H2446 0.950 . S
C2424 C2423 1.349 . S
C2424 C2436 1.349 . S
C2425 C2423 1.327 . S
C2425 C2441 1.429 . S
C2425 H2447 0.950 . S
C2426 H2422 0.949 . S
C2426 C2434 1.574 . S
C2426 C2442 1.368 . S
H2427 C2435 0.950 . S
H2428 C2433 0.950 . S
H2429 C2434 0.949 . S
H2430 C2436 0.950 . S
H2431 C2437 0.950 . S
H2432 C2438 0.949 . S
C2433 H2428 0.950 . S
C2433 C2435 1.327 . S
C2433 C2439 1.429 . S
C2434 C2426 1.574 . S
C2434 H2429 0.949 . S
C2434 C2440 1.368 . S
C2435 C2419 1.349 . S
C2435 H2427 0.950 . S
C2435 C2433 1.327 . S
C2436 C2424 1.349 . S
C2436 H2430 0.950 . S
C2436 C2437 1.327 . S
C2437 H2431 0.950 . S
C2437 C2436 1.327 . S
C2437 C2441 1.429 . S
C2438 C2421 1.574 . S
C2438 H2432 0.949 . S
C2438 C2442 1.368 . S
C2439 C2420 1.429 . S
C2439 C2433 1.429 . S
C2439 C2440 1.523 . S
C2440 C2421 1.368 . S
C2440 C2434 1.368 . S
C2440 C2439 1.523 . S
C2441 C2425 1.429 . S
C2441 C2437 1.429 . S
C2441 C2442 1.523 . S
C2442 C2426 1.368 . S
C2442 C2438 1.368 . S
C2442 C2441 1.523 . S
H2443 C2418 0.950 1_455 S
H2444 C2420 0.950 . S
H2445 C2421 0.949 . S
H2446 C2423 0.950 . S
H2447 C2425 0.950 . S
C2448 C2449 1.349 . S
C2448 C2450 1.327 . S
C2448 H2473 0.950 . S
C2449 C2448 1.349 . S
C2449 C2465 1.349 . S
C2450 C2448 1.327 . S
C2450 C2469 1.429 . S
C2450 H2474 0.950 . S
C2451 C2468 1.574 . S
C2451 C2470 1.368 . S
C2451 H2475 0.949 . S
H2452 C2456 0.949 . S
C2453 C2454 1.349 . S
C2453 C2455 1.327 . S
C2453 H2476 0.950 1_545 S
C2454 C2453 1.349 . S
C2454 C2466 1.349 . S
C2455 C2453 1.327 . S
C2455 C2471 1.429 . S
C2455 H2477 0.950 . S
C2456 H2452 0.949 . S
C2456 C2464 1.574 . S
C2456 C2472 1.368 . S
H2457 C2465 0.950 . S
H2458 C2463 0.950 . S
H2459 C2464 0.949 . S
H2460 C2466 0.950 . S
H2461 C2467 0.950 . S
H2462 C2468 0.949 . S
C2463 H2458 0.950 . S
C2463 C2465 1.327 . S
C2463 C2469 1.429 . S
C2464 C2456 1.574 . S
C2464 H2459 0.949 . S
C2464 C2470 1.368 . S
C2465 C2449 1.349 . S
C2465 H2457 0.950 . S
C2465 C2463 1.327 . S
C2466 C2454 1.349 . S
C2466 H2460 0.950 . S
C2466 C2467 1.327 . S
C2467 H2461 0.950 . S
C2467 C2466 1.327 . S
C2467 C2471 1.429 . S
C2468 C2451 1.574 . S
C2468 H2462 0.949 . S
C2468 C2472 1.368 . S
C2469 C2450 1.429 . S
C2469 C2463 1.429 . S
C2469 C2470 1.523 . S
C2470 C2451 1.368 . S
C2470 C2464 1.368 . S
C2470 C2469 1.523 . S
C2471 C2455 1.429 . S
C2471 C2467 1.429 . S
C2471 C2472 1.523 . S
C2472 C2456 1.368 . S
C2472 C2468 1.368 . S
C2472 C2471 1.523 . S
H2473 C2448 0.950 . S
H2474 C2450 0.950 . S
H2475 C2451 0.949 . S
H2476 C2453 0.950 1_565 S
H2477 C2455 0.950 . S
C2478 C2479 1.349 . S
C2478 C2480 1.327 . S
C2478 H2503 0.950 . S
C2479 C2478 1.349 . S
C2479 C2495 1.349 . S
C2480 C2478 1.327 . S
C2480 C2499 1.429 . S
C2480 H2504 0.950 . S
C2481 C2498 1.574 . S
C2481 C2500 1.368 . S
C2481 H2505 0.949 . S
H2482 C2486 0.949 . S
C2483 C2484 1.349 . S
C2483 C2485 1.327 . S
C2483 H2506 0.950 . S
C2484 C2483 1.349 . S
C2484 C2496 1.349 . S
C2485 C2483 1.327 . S
C2485 C2501 1.429 . S
C2485 H2507 0.950 . S
C2486 H2482 0.949 . S
C2486 C2494 1.574 . S
C2486 C2502 1.368 . S
H2487 C2495 0.950 . S
H2488 C2493 0.950 . S
H2489 C2494 0.949 . S
H2490 C2496 0.950 . S
H2491 C2497 0.950 . S
H2492 C2498 0.949 . S
C2493 H2488 0.950 . S
C2493 C2495 1.327 . S
C2493 C2499 1.429 . S
C2494 C2486 1.574 . S
C2494 H2489 0.949 . S
C2494 C2500 1.368 . S
C2495 C2479 1.349 . S
C2495 H2487 0.950 . S
C2495 C2493 1.327 . S
C2496 C2484 1.349 . S
C2496 H2490 0.950 . S
C2496 C2497 1.327 . S
C2497 H2491 0.950 . S
C2497 C2496 1.327 . S
C2497 C2501 1.429 . S
C2498 C2481 1.574 . S
C2498 H2492 0.949 . S
C2498 C2502 1.368 . S
C2499 C2480 1.429 . S
C2499 C2493 1.429 . S
C2499 C2500 1.523 . S
C2500 C2481 1.368 . S
C2500 C2494 1.368 . S
C2500 C2499 1.523 . S
C2501 C2485 1.429 . S
C2501 C2497 1.429 . S
C2501 C2502 1.523 . S
C2502 C2486 1.368 . S
C2502 C2498 1.368 . S
C2502 C2501 1.523 . S
H2503 C2478 0.950 . S
H2504 C2480 0.950 . S
H2505 C2481 0.949 . S
H2506 C2483 0.950 . S
H2507 C2485 0.950 . S
C2508 C2509 1.349 . S
C2508 C2510 1.327 . S
C2508 H2533 0.950 . S
C2509 C2508 1.349 . S
C2509 C2525 1.349 . S
C2510 C2508 1.327 . S
C2510 C2529 1.429 . S
C2510 H2534 0.950 . S
C2511 C2528 1.574 . S
C2511 C2530 1.368 . S
C2511 H2535 0.949 . S
H2512 C2516 0.949 . S
C2513 C2514 1.349 . S
C2513 C2515 1.327 . S
C2513 H2536 0.950 . S
C2514 C2513 1.349 . S
C2514 C2526 1.349 . S
C2515 C2513 1.327 . S
C2515 C2531 1.429 . S
C2515 H2537 0.950 . S
C2516 H2512 0.949 . S
C2516 C2524 1.574 . S
C2516 C2532 1.368 . S
H2517 C2525 0.950 . S
H2518 C2523 0.950 . S
H2519 C2524 0.949 . S
H2520 C2526 0.950 . S
H2521 C2527 0.950 . S
H2522 C2528 0.949 . S
C2523 H2518 0.950 . S
C2523 C2525 1.327 . S
C2523 C2529 1.429 . S
C2524 C2516 1.574 . S
C2524 H2519 0.949 . S
C2524 C2530 1.368 . S
C2525 C2509 1.349 . S
C2525 H2517 0.950 . S
C2525 C2523 1.327 . S
C2526 C2514 1.349 . S
C2526 H2520 0.950 . S
C2526 C2527 1.327 . S
C2527 H2521 0.950 . S
C2527 C2526 1.327 . S
C2527 C2531 1.429 . S
C2528 C2511 1.574 . S
C2528 H2522 0.949 . S
C2528 C2532 1.368 . S
C2529 C2510 1.429 . S
C2529 C2523 1.429 . S
C2529 C2530 1.523 . S
C2530 C2511 1.368 . S
C2530 C2524 1.368 . S
C2530 C2529 1.523 . S
C2531 C2515 1.429 . S
C2531 C2527 1.429 . S
C2531 C2532 1.523 . S
C2532 C2516 1.368 . S
C2532 C2528 1.368 . S
C2532 C2531 1.523 . S
H2533 C2508 0.950 . S
H2534 C2510 0.950 . S
H2535 C2511 0.949 . S
H2536 C2513 0.950 . S
H2537 C2515 0.950 . S
C2538 C2539 1.349 . S
C2538 C2540 1.327 . S
C2538 H2563 0.950 . S
C2539 C2538 1.349 . S
C2539 C2555 1.349 . S
C2540 C2538 1.327 . S
C2540 C2559 1.429 . S
C2540 H2564 0.950 . S
C2541 C2558 1.574 . S
C2541 C2560 1.368 . S
C2541 H2565 0.949 . S
H2542 C2546 0.949 . S
C2543 C2544 1.349 . S
C2543 C2545 1.327 . S
C2543 H2566 0.950 . S
C2544 C2543 1.349 . S
C2544 C2556 1.349 1_565 S
C2545 C2543 1.327 . S
C2545 C2561 1.429 . S
C2545 H2567 0.950 . S
C2546 H2542 0.949 . S
C2546 C2554 1.574 . S
C2546 C2562 1.368 . S
H2547 C2555 0.950 . S
H2548 C2553 0.950 . S
H2549 C2554 0.949 . S
H2550 C2556 0.950 . S
H2551 C2557 0.950 . S
H2552 C2558 0.949 . S
C2553 H2548 0.950 . S
C2553 C2555 1.327 . S
C2553 C2559 1.429 . S
C2554 C2546 1.574 . S
C2554 H2549 0.949 . S
C2554 C2560 1.368 . S
C2555 C2539 1.349 . S
C2555 H2547 0.950 . S
C2555 C2553 1.327 . S
C2556 C2544 1.349 1_545 S
C2556 H2550 0.950 . S
C2556 C2557 1.327 1_545 S
C2557 H2551 0.950 . S
C2557 C2556 1.327 1_565 S
C2557 C2561 1.429 . S
C2558 C2541 1.574 . S
C2558 H2552 0.949 . S
C2558 C2562 1.368 . S
C2559 C2540 1.429 . S
C2559 C2553 1.429 . S
C2559 C2560 1.523 . S
C2560 C2541 1.368 . S
C2560 C2554 1.368 . S
C2560 C2559 1.523 . S
C2561 C2545 1.429 . S
C2561 C2557 1.429 . S
C2561 C2562 1.523 . S
C2562 C2546 1.368 . S
C2562 C2558 1.368 . S
C2562 C2561 1.523 . S
H2563 C2538 0.950 . S
H2564 C2540 0.950 . S
H2565 C2541 0.949 . S
H2566 C2543 0.950 . S
H2567 C2545 0.950 . S
C2568 C2569 1.349 . S
C2568 C2570 1.327 . S
C2568 H2593 0.950 . S
C2569 C2568 1.349 . S
C2569 C2585 1.349 . S
C2570 C2568 1.327 . S
C2570 C2589 1.429 . S
C2570 H2594 0.950 . S
C2571 C2588 1.574 . S
C2571 C2590 1.368 . S
C2571 H2595 0.949 . S
H2572 C2576 0.949 . S
C2573 C2574 1.350 . S
C2573 C2575 1.349 . S
C2573 H2596 0.927 1_556 S
C2574 C2573 1.350 . S
C2574 C2586 1.349 . S
C2575 C2573 1.349 . S
C2575 C2591 1.429 . S
C2575 H2597 0.950 . S
C2576 H2572 0.949 . S
C2576 C2584 1.574 . S
C2576 C2592 1.368 . S
H2577 C2585 0.950 . S
H2578 C2583 0.950 . S
H2579 C2584 0.949 . S
H2580 C2586 0.950 . S
H2581 C2587 0.950 . S
H2582 C2588 0.949 . S
C2583 H2578 0.950 . S
C2583 C2585 1.327 . S
C2583 C2589 1.429 . S
C2584 C2576 1.574 . S
C2584 H2579 0.949 . S
C2584 C2590 1.368 . S
C2585 C2569 1.349 . S
C2585 H2577 0.950 . S
C2585 C2583 1.327 . S
C2586 C2574 1.349 . S
C2586 H2580 0.950 . S
C2586 C2587 1.327 . S
C2587 H2581 0.950 . S
C2587 C2586 1.327 . S
C2587 C2591 1.429 . S
C2588 C2571 1.574 . S
C2588 H2582 0.949 . S
C2588 C2592 1.368 . S
C2589 C2570 1.429 . S
C2589 C2583 1.429 . S
C2589 C2590 1.523 . S
C2590 C2571 1.368 . S
C2590 C2584 1.368 . S
C2590 C2589 1.523 . S
C2591 C2575 1.429 . S
C2591 C2587 1.429 . S
C2591 C2592 1.523 . S
C2592 C2576 1.368 . S
C2592 C2588 1.368 . S
C2592 C2591 1.523 . S
H2593 C2568 0.950 . S
H2594 C2570 0.950 . S
H2595 C2571 0.949 . S
H2596 C2573 0.927 1_554 S
H2597 C2575 0.950 . S
C2598 C2599 1.349 . S
C2598 C2600 1.327 . S
C2598 H2623 0.950 . S
C2599 C2598 1.349 . S
C2599 C2615 1.349 . S
C2600 C2598 1.327 . S
C2600 C2619 1.429 . S
C2600 H2624 0.950 . S
C2601 C2618 1.574 . S
C2601 C2620 1.368 . S
C2601 H2625 0.949 . S
H2602 C2606 0.949 . S
C2603 C2604 1.349 . S
C2603 C2605 1.327 . S
C2603 H2626 0.950 . S
C2604 C2603 1.349 . S
C2604 C2616 1.349 . S
C2605 C2603 1.327 . S
C2605 C2621 1.429 . S
C2605 H2627 0.950 . S
C2606 H2602 0.949 . S
C2606 C2614 1.574 . S
C2606 C2622 1.368 . S
H2607 C2615 0.950 . S
H2608 C2613 0.950 . S
H2609 C2614 0.949 . S
H2610 C2616 0.950 . S
H2611 C2617 0.950 . S
H2612 C2618 0.949 . S
C2613 H2608 0.950 . S
C2613 C2615 1.327 . S
C2613 C2619 1.429 . S
C2614 C2606 1.574 . S
C2614 H2609 0.949 . S
C2614 C2620 1.368 . S
C2615 C2599 1.349 . S
C2615 H2607 0.950 . S
C2615 C2613 1.327 . S
C2616 C2604 1.349 . S
C2616 H2610 0.950 . S
C2616 C2617 1.327 . S
C2617 H2611 0.950 . S
C2617 C2616 1.327 . S
C2617 C2621 1.429 . S
C2618 C2601 1.574 . S
C2618 H2612 0.949 . S
C2618 C2622 1.368 . S
C2619 C2600 1.429 . S
C2619 C2613 1.429 . S
C2619 C2620 1.523 . S
C2620 C2601 1.368 . S
C2620 C2614 1.368 . S
C2620 C2619 1.523 . S
C2621 C2605 1.429 . S
C2621 C2617 1.429 . S
C2621 C2622 1.523 . S
C2622 C2606 1.368 . S
C2622 C2618 1.368 . S
C2622 C2621 1.523 . S
H2623 C2598 0.950 . S
H2624 C2600 0.950 . S
H2625 C2601 0.949 . S
H2626 C2603 0.950 . S
H2627 C2605 0.950 . S
C2628 C2629 1.349 . S
C2628 C2630 1.327 . S
C2628 H2653 0.950 . S
C2629 C2628 1.349 . S
C2629 C2645 1.349 . S
C2630 C2628 1.327 . S
C2630 C2649 1.429 . S
C2630 H2654 0.950 . S
C2631 C2648 1.574 . S
C2631 C2650 1.368 . S
C2631 H2655 0.949 . S
H2632 C2636 0.949 . S
C2633 C2634 1.349 . S
C2633 C2635 1.327 . S
C2633 H2656 0.950 . S
C2634 C2633 1.349 . S
C2634 C2646 1.349 . S
C2635 C2633 1.327 . S
C2635 C2651 1.429 . S
C2635 H2657 0.950 . S
C2636 H2632 0.949 . S
C2636 C2644 1.574 . S
C2636 C2652 1.368 . S
H2637 C2645 0.950 1_556 S
H2638 C2643 0.950 . S
H2639 C2644 0.949 . S
H2640 C2646 0.950 . S
H2641 C2647 0.950 . S
H2642 C2648 0.949 . S
C2643 H2638 0.950 . S
C2643 C2645 1.327 . S
C2643 C2649 1.429 . S
C2644 C2636 1.574 . S
C2644 H2639 0.949 . S
C2644 C2650 1.368 . S
C2645 C2629 1.349 . S
C2645 H2637 0.950 1_554 S
C2645 C2643 1.327 . S
C2646 C2634 1.349 . S
C2646 H2640 0.950 . S
C2646 C2647 1.327 . S
C2647 H2641 0.950 . S
C2647 C2646 1.327 . S
C2647 C2651 1.429 . S
C2648 C2631 1.574 . S
C2648 H2642 0.949 . S
C2648 C2652 1.368 . S
C2649 C2630 1.429 . S
C2649 C2643 1.429 . S
C2649 C2650 1.523 . S
C2650 C2631 1.368 . S
C2650 C2644 1.368 . S
C2650 C2649 1.523 . S
C2651 C2635 1.429 . S
C2651 C2647 1.429 . S
C2651 C2652 1.523 . S
C2652 C2636 1.368 . S
C2652 C2648 1.368 . S
C2652 C2651 1.523 . S
H2653 C2628 0.950 . S
H2654 C2630 0.950 . S
H2655 C2631 0.949 . S
H2656 C2633 0.950 . S
H2657 C2635 0.950 . S
C2658 C2659 1.349 . S
C2658 C2660 1.327 . S
C2658 H2683 0.950 . S
C2659 C2658 1.349 . S
C2659 C2675 1.349 . S
C2660 C2658 1.327 . S
C2660 C2679 1.429 . S
C2660 H2684 0.950 . S
C2661 C2678 1.574 . S
C2661 C2680 1.368 . S
C2661 H2685 0.949 . S
H2662 C2666 0.949 . S
C2663 C2664 1.349 . S
C2663 C2665 1.327 . S
C2663 H2686 0.950 . S
C2664 C2663 1.349 . S
C2664 C2676 1.349 . S
C2665 C2663 1.327 . S
C2665 C2681 1.429 . S
C2665 H2687 0.950 . S
C2666 H2662 0.949 . S
C2666 C2674 1.574 . S
C2666 C2682 1.368 . S
H2667 C2675 0.950 . S
H2668 C2673 0.950 . S
H2669 C2674 0.949 . S
H2670 C2676 0.950 . S
H2671 C2677 0.950 . S
H2672 C2678 0.949 . S
C2673 H2668 0.950 . S
C2673 C2675 1.327 . S
C2673 C2679 1.429 . S
C2674 C2666 1.574 . S
C2674 H2669 0.949 . S
C2674 C2680 1.368 . S
C2675 C2659 1.349 . S
C2675 H2667 0.950 . S
C2675 C2673 1.327 . S
C2676 C2664 1.349 . S
C2676 H2670 0.950 . S
C2676 C2677 1.327 . S
C2677 H2671 0.950 . S
C2677 C2676 1.327 . S
C2677 C2681 1.429 . S
C2678 C2661 1.574 . S
C2678 H2672 0.949 . S
C2678 C2682 1.368 . S
C2679 C2660 1.429 . S
C2679 C2673 1.429 . S
C2679 C2680 1.523 . S
C2680 C2661 1.368 . S
C2680 C2674 1.368 . S
C2680 C2679 1.523 . S
C2681 C2665 1.429 . S
C2681 C2677 1.429 . S
C2681 C2682 1.523 . S
C2682 C2666 1.368 . S
C2682 C2678 1.368 . S
C2682 C2681 1.523 . S
H2683 C2658 0.950 . S
H2684 C2660 0.950 . S
H2685 C2661 0.949 . S
H2686 C2663 0.950 . S
H2687 C2665 0.950 . S
C2688 C2689 1.349 . S
C2688 C2690 1.327 . S
C2688 H2713 0.950 . S
C2689 C2688 1.349 . S
C2689 C2705 1.349 . S
C2690 C2688 1.327 . S
C2690 C2709 1.429 . S
C2690 H2714 0.950 . S
C2691 C2708 1.574 . S
C2691 C2710 1.368 . S
C2691 H2715 0.949 . S
H2692 C2696 0.949 . S
C2693 C2694 1.345 1_455 S
C2693 C2695 1.294 1_455 S
C2693 H2716 0.989 . S
C2694 C2693 1.345 1_655 S
C2694 C2706 1.349 . S
C2695 C2693 1.294 1_655 S
C2695 C2711 1.429 . S
C2695 H2717 0.950 . S
C2696 H2692 0.949 . S
C2696 C2704 1.574 . S
C2696 C2712 1.368 . S
H2697 C2705 0.950 . S
H2698 C2703 0.950 . S
H2699 C2704 0.949 . S
H2700 C2706 0.950 . S
H2701 C2707 0.950 . S
H2702 C2708 0.949 . S
C2703 H2698 0.950 . S
C2703 C2705 1.327 . S
C2703 C2709 1.429 . S
C2704 C2696 1.574 . S
C2704 H2699 0.949 . S
C2704 C2710 1.368 . S
C2705 C2689 1.349 . S
C2705 H2697 0.950 . S
C2705 C2703 1.327 . S
C2706 C2694 1.349 . S
C2706 H2700 0.950 . S
C2706 C2707 1.327 . S
C2707 H2701 0.950 . S
C2707 C2706 1.327 . S
C2707 C2711 1.429 . S
C2708 C2691 1.574 . S
C2708 H2702 0.949 . S
C2708 C2712 1.368 . S
C2709 C2690 1.429 . S
C2709 C2703 1.429 . S
C2709 C2710 1.523 . S
C2710 C2691 1.368 . S
C2710 C2704 1.368 . S
C2710 C2709 1.523 . S
C2711 C2695 1.429 . S
C2711 C2707 1.429 . S
C2711 C2712 1.523 . S
C2712 C2696 1.368 . S
C2712 C2708 1.368 . S
C2712 C2711 1.523 . S
H2713 C2688 0.950 . S
H2714 C2690 0.950 . S
H2715 C2691 0.949 . S
H2716 C2693 0.989 . S
H2717 C2695 0.950 . S
C2718 C2719 1.349 . S
C2718 C2720 1.327 . S
C2718 H2743 0.950 . S
C2719 C2718 1.349 . S
C2719 C2735 1.349 . S
C2720 C2718 1.327 . S
C2720 C2739 1.429 . S
C2720 H2744 0.950 . S
C2721 C2738 1.574 . S
C2721 C2740 1.368 . S
C2721 H2745 0.949 . S
H2722 C2726 0.949 . S
C2723 C2724 1.349 . S
C2723 C2725 1.327 . S
C2723 H2746 0.950 . S
C2724 C2723 1.349 . S
C2724 C2736 1.349 . S
C2725 C2723 1.327 . S
C2725 C2741 1.429 . S
C2725 H2747 0.950 . S
C2726 H2722 0.949 . S
C2726 C2734 1.574 . S
C2726 C2742 1.368 . S
H2727 C2735 0.950 . S
H2728 C2733 0.950 . S
H2729 C2734 0.949 . S
H2730 C2736 0.950 . S
H2731 C2737 0.950 . S
H2732 C2738 0.949 . S
C2733 H2728 0.950 . S
C2733 C2735 1.327 . S
C2733 C2739 1.429 . S
C2734 C2726 1.574 . S
C2734 H2729 0.949 . S
C2734 C2740 1.368 . S
C2735 C2719 1.349 . S
C2735 H2727 0.950 . S
C2735 C2733 1.327 . S
C2736 C2724 1.349 . S
C2736 H2730 0.950 . S
C2736 C2737 1.327 . S
C2737 H2731 0.950 . S
C2737 C2736 1.327 . S
C2737 C2741 1.429 . S
C2738 C2721 1.574 . S
C2738 H2732 0.949 . S
C2738 C2742 1.368 . S
C2739 C2720 1.429 . S
C2739 C2733 1.429 . S
C2739 C2740 1.523 . S
C2740 C2721 1.368 . S
C2740 C2734 1.368 . S
C2740 C2739 1.523 . S
C2741 C2725 1.429 . S
C2741 C2737 1.429 . S
C2741 C2742 1.523 . S
C2742 C2726 1.368 . S
C2742 C2738 1.368 . S
C2742 C2741 1.523 . S
H2743 C2718 0.950 . S
H2744 C2720 0.950 . S
H2745 C2721 0.949 . S
H2746 C2723 0.950 . S
H2747 C2725 0.950 . S
C2748 C2749 1.349 . S
C2748 C2750 1.327 . S
C2748 H2773 0.950 . S
C2749 C2748 1.349 . S
C2749 C2765 1.349 . S
C2750 C2748 1.327 . S
C2750 C2769 1.429 . S
C2750 H2774 0.950 . S
C2751 C2768 1.574 . S
C2751 C2770 1.368 . S
C2751 H2775 0.949 . S
H2752 C2756 0.949 . S
C2753 C2754 1.349 . S
C2753 C2755 1.327 . S
C2753 H2776 0.950 . S
C2754 C2753 1.349 . S
C2754 C2766 1.349 . S
C2755 C2753 1.327 . S
C2755 C2771 1.429 . S
C2755 H2777 0.950 . S
C2756 H2752 0.949 . S
C2756 C2764 1.574 . S
C2756 C2772 1.368 . S
H2757 C2765 0.950 . S
H2758 C2763 0.950 . S
H2759 C2764 0.949 . S
H2760 C2766 0.950 . S
H2761 C2767 0.950 . S
H2762 C2768 0.949 . S
C2763 H2758 0.950 . S
C2763 C2765 1.327 . S
C2763 C2769 1.429 . S
C2764 C2756 1.574 . S
C2764 H2759 0.949 . S
C2764 C2770 1.368 . S
C2765 C2749 1.349 . S
C2765 H2757 0.950 . S
C2765 C2763 1.327 . S
C2766 C2754 1.349 . S
C2766 H2760 0.950 . S
C2766 C2767 1.327 . S
C2767 H2761 0.950 . S
C2767 C2766 1.327 . S
C2767 C2771 1.429 . S
C2768 C2751 1.574 . S
C2768 H2762 0.949 . S
C2768 C2772 1.368 . S
C2769 C2750 1.429 . S
C2769 C2763 1.429 . S
C2769 C2770 1.523 . S
C2770 C2751 1.368 . S
C2770 C2764 1.368 . S
C2770 C2769 1.523 . S
C2771 C2755 1.429 . S
C2771 C2767 1.429 . S
C2771 C2772 1.523 . S
C2772 C2756 1.368 . S
C2772 C2768 1.368 . S
C2772 C2771 1.523 . S
H2773 C2748 0.950 . S
H2774 C2750 0.950 . S
H2775 C2751 0.949 . S
H2776 C2753 0.950 . S
H2777 C2755 0.950 . S
C2778 C2779 1.349 . S
C2778 C2780 1.327 . S
C2778 H2803 0.950 . S
C2779 C2778 1.349 . S
C2779 C2795 1.349 . S
C2780 C2778 1.327 . S
C2780 C2799 1.429 . S
C2780 H2804 0.950 . S
C2781 C2798 1.574 . S
C2781 C2800 1.368 . S
C2781 H2805 0.949 . S
H2782 C2786 0.949 . S
C2783 C2784 1.349 . S
C2783 C2785 1.327 . S
C2783 H2806 0.950 1_455 S
C2784 C2783 1.349 . S
C2784 C2796 1.349 . S
C2785 C2783 1.327 . S
C2785 C2801 1.429 . S
C2785 H2807 0.950 . S
C2786 H2782 0.949 . S
C2786 C2794 1.574 . S
C2786 C2802 1.368 . S
H2787 C2795 0.950 . S
H2788 C2793 0.950 . S
H2789 C2794 0.949 . S
H2790 C2796 0.950 . S
H2791 C2797 0.950 . S
H2792 C2798 0.949 . S
C2793 H2788 0.950 . S
C2793 C2795 1.327 . S
C2793 C2799 1.429 . S
C2794 C2786 1.574 . S
C2794 H2789 0.949 . S
C2794 C2800 1.368 . S
C2795 C2779 1.349 . S
C2795 H2787 0.950 . S
C2795 C2793 1.327 . S
C2796 C2784 1.349 . S
C2796 H2790 0.950 . S
C2796 C2797 1.327 . S
C2797 H2791 0.950 . S
C2797 C2796 1.327 . S
C2797 C2801 1.429 . S
C2798 C2781 1.574 . S
C2798 H2792 0.949 . S
C2798 C2802 1.368 . S
C2799 C2780 1.429 . S
C2799 C2793 1.429 . S
C2799 C2800 1.523 . S
C2800 C2781 1.368 . S
C2800 C2794 1.368 . S
C2800 C2799 1.523 . S
C2801 C2785 1.429 . S
C2801 C2797 1.429 . S
C2801 C2802 1.523 . S
C2802 C2786 1.368 . S
C2802 C2798 1.368 . S
C2802 C2801 1.523 . S
H2803 C2778 0.950 . S
H2804 C2780 0.950 . S
H2805 C2781 0.949 . S
H2806 C2783 0.950 1_655 S
H2807 C2785 0.950 . S
C2808 C2809 1.349 . S
C2808 C2810 1.327 . S
C2808 H2833 0.950 . S
C2809 C2808 1.349 . S
C2809 C2825 1.349 . S
C2810 C2808 1.327 . S
C2810 C2829 1.429 . S
C2810 H2834 0.950 . S
C2811 C2828 1.574 . S
C2811 C2830 1.368 . S
C2811 H2835 0.949 . S
H2812 C2816 0.949 . S
C2813 C2814 1.349 . S
C2813 C2815 1.327 . S
C2813 H2836 0.950 1_565 S
C2814 C2813 1.349 . S
C2814 C2826 1.349 . S
C2815 C2813 1.327 . S
C2815 C2831 1.429 . S
C2815 H2837 0.950 . S
C2816 H2812 0.949 . S
C2816 C2824 1.574 . S
C2816 C2832 1.368 . S
H2817 C2825 0.950 . S
H2818 C2823 0.950 . S
H2819 C2824 0.949 . S
H2820 C2826 0.950 . S
H2821 C2827 0.950 . S
H2822 C2828 0.949 . S
C2823 H2818 0.950 . S
C2823 C2825 1.327 . S
C2823 C2829 1.429 . S
C2824 C2816 1.574 . S
C2824 H2819 0.949 . S
C2824 C2830 1.368 . S
C2825 C2809 1.349 . S
C2825 H2817 0.950 . S
C2825 C2823 1.327 . S
C2826 C2814 1.349 . S
C2826 H2820 0.950 . S
C2826 C2827 1.327 . S
C2827 H2821 0.950 . S
C2827 C2826 1.327 . S
C2827 C2831 1.429 . S
C2828 C2811 1.574 . S
C2828 H2822 0.949 . S
C2828 C2832 1.368 . S
C2829 C2810 1.429 . S
C2829 C2823 1.429 . S
C2829 C2830 1.523 . S
C2830 C2811 1.368 . S
C2830 C2824 1.368 . S
C2830 C2829 1.523 . S
C2831 C2815 1.429 . S
C2831 C2827 1.429 . S
C2831 C2832 1.523 . S
C2832 C2816 1.368 . S
C2832 C2828 1.368 . S
C2832 C2831 1.523 . S
H2833 C2808 0.950 . S
H2834 C2810 0.950 . S
H2835 C2811 0.949 . S
H2836 C2813 0.950 1_545 S
H2837 C2815 0.950 . S
C2838 C2839 1.349 . S
C2838 C2840 1.327 . S
C2838 H2863 0.950 . S
C2839 C2838 1.349 . S
C2839 C2855 1.349 . S
C2840 C2838 1.327 . S
C2840 C2859 1.429 . S
C2840 H2864 0.950 . S
C2841 C2858 1.574 . S
C2841 C2860 1.368 . S
C2841 H2865 0.949 . S
H2842 C2846 0.949 . S
C2843 C2844 1.349 . S
C2843 C2845 1.327 . S
C2843 H2866 0.950 . S
C2844 C2843 1.349 . S
C2844 C2856 1.349 . S
C2845 C2843 1.327 . S
C2845 C2861 1.429 . S
C2845 H2867 0.950 . S
C2846 H2842 0.949 . S
C2846 C2854 1.574 . S
C2846 C2862 1.368 . S
H2847 C2855 0.950 . S
H2848 C2853 0.950 . S
H2849 C2854 0.949 . S
H2850 C2856 0.950 . S
H2851 C2857 0.950 . S
H2852 C2858 0.949 . S
C2853 H2848 0.950 . S
C2853 C2855 1.327 . S
C2853 C2859 1.429 . S
C2854 C2846 1.574 . S
C2854 H2849 0.949 . S
C2854 C2860 1.368 . S
C2855 C2839 1.349 . S
C2855 H2847 0.950 . S
C2855 C2853 1.327 . S
C2856 C2844 1.349 . S
C2856 H2850 0.950 . S
C2856 C2857 1.327 . S
C2857 H2851 0.950 . S
C2857 C2856 1.327 . S
C2857 C2861 1.429 . S
C2858 C2841 1.574 . S
C2858 H2852 0.949 . S
C2858 C2862 1.368 . S
C2859 C2840 1.429 . S
C2859 C2853 1.429 . S
C2859 C2860 1.523 . S
C2860 C2841 1.368 . S
C2860 C2854 1.368 . S
C2860 C2859 1.523 . S
C2861 C2845 1.429 . S
C2861 C2857 1.429 . S
C2861 C2862 1.523 . S
C2862 C2846 1.368 . S
C2862 C2858 1.368 . S
C2862 C2861 1.523 . S
H2863 C2838 0.950 . S
H2864 C2840 0.950 . S
H2865 C2841 0.949 . S
H2866 C2843 0.950 . S
H2867 C2845 0.950 . S
C2868 C2869 1.349 . S
C2868 C2870 1.327 . S
C2868 H2893 0.950 . S
C2869 C2868 1.349 . S
C2869 C2885 1.349 . S
C2870 C2868 1.327 . S
C2870 C2889 1.429 . S
C2870 H2894 0.950 . S
C2871 C2888 1.574 . S
C2871 C2890 1.368 . S
C2871 H2895 0.949 . S
H2872 C2876 0.949 . S
C2873 C2874 1.349 . S
C2873 C2875 1.327 . S
C2873 H2896 0.950 . S
C2874 C2873 1.349 . S
C2874 C2886 1.349 . S
C2875 C2873 1.327 . S
C2875 C2891 1.429 . S
C2875 H2897 0.950 . S
C2876 H2872 0.949 . S
C2876 C2884 1.574 . S
C2876 C2892 1.368 . S
H2877 C2885 0.950 . S
H2878 C2883 0.950 . S
H2879 C2884 0.949 . S
H2880 C2886 0.950 . S
H2881 C2887 0.950 . S
H2882 C2888 0.949 . S
C2883 H2878 0.950 . S
C2883 C2885 1.327 . S
C2883 C2889 1.429 . S
C2884 C2876 1.574 . S
C2884 H2879 0.949 . S
C2884 C2890 1.368 . S
C2885 C2869 1.349 . S
C2885 H2877 0.950 . S
C2885 C2883 1.327 . S
C2886 C2874 1.349 . S
C2886 H2880 0.950 . S
C2886 C2887 1.327 . S
C2887 H2881 0.950 . S
C2887 C2886 1.327 . S
C2887 C2891 1.429 . S
C2888 C2871 1.574 . S
C2888 H2882 0.949 . S
C2888 C2892 1.368 . S
C2889 C2870 1.429 . S
C2889 C2883 1.429 . S
C2889 C2890 1.523 . S
C2890 C2871 1.368 . S
C2890 C2884 1.368 . S
C2890 C2889 1.523 . S
C2891 C2875 1.429 . S
C2891 C2887 1.429 . S
C2891 C2892 1.523 . S
C2892 C2876 1.368 . S
C2892 C2888 1.368 . S
C2892 C2891 1.523 . S
H2893 C2868 0.950 . S
H2894 C2870 0.950 . S
H2895 C2871 0.949 . S
H2896 C2873 0.950 . S
H2897 C2875 0.950 . S
C2898 C2899 1.349 . S
C2898 C2900 1.327 . S
C2898 H2923 0.950 . S
C2899 C2898 1.349 . S
C2899 C2915 1.349 . S
C2900 C2898 1.327 . S
C2900 C2919 1.429 . S
C2900 H2924 0.950 . S
C2901 C2918 1.574 . S
C2901 C2920 1.368 . S
C2901 H2925 0.949 . S
H2902 C2906 0.949 . S
C2903 C2904 1.349 . S
C2903 C2905 1.327 . S
C2903 H2926 0.950 . S
C2904 C2903 1.349 . S
C2904 C2916 1.349 . S
C2905 C2903 1.327 . S
C2905 C2921 1.429 . S
C2905 H2927 0.950 . S
C2906 H2902 0.949 . S
C2906 C2914 1.574 . S
C2906 C2922 1.368 . S
H2907 C2915 0.950 . S
H2908 C2913 0.950 . S
H2909 C2914 0.949 . S
H2910 C2916 0.961 . S
H2911 C2917 0.950 . S
H2912 C2918 0.949 . S
C2913 H2908 0.950 . S
C2913 C2915 1.327 . S
C2913 C2919 1.429 . S
C2914 C2906 1.574 . S
C2914 H2909 0.949 . S
C2914 C2920 1.368 . S
C2915 C2899 1.349 . S
C2915 H2907 0.950 . S
C2915 C2913 1.327 . S
C2916 C2904 1.349 . S
C2916 H2910 0.961 . S
C2916 C2917 1.327 . S
C2917 H2911 0.950 . S
C2917 C2916 1.327 . S
C2917 C2921 1.429 . S
C2918 C2901 1.574 . S
C2918 H2912 0.949 . S
C2918 C2922 1.368 . S
C2919 C2900 1.429 . S
C2919 C2913 1.429 . S
C2919 C2920 1.523 . S
C2920 C2901 1.368 . S
C2920 C2914 1.368 . S
C2920 C2919 1.523 . S
C2921 C2905 1.429 . S
C2921 C2917 1.429 . S
C2921 C2922 1.523 . S
C2922 C2906 1.368 . S
C2922 C2918 1.368 . S
C2922 C2921 1.523 . S
H2923 C2898 0.950 . S
H2924 C2900 0.950 . S
H2925 C2901 0.949 . S
H2926 C2903 0.950 . S
H2927 C2905 0.950 . S
C769 N13 0.993 . S
C774 C580 1.033 . S
C799 C637 1.033 . S
C804 N45 0.993 . S
C829 N82 0.993 . S
C834 C541 1.033 1_545 S
C859 N114 0.993 . S
C864 C548 1.033 1_565 S
C889 C708 1.033 . S
C894 N146 0.993 . S
C919 N173 0.993 . S
C924 C676 1.033 1_556 S
C949 C765 1.033 . S
C954 N205 0.993 . S
C979 N242 0.993 . S
C984 C644 1.033 1_554 S
C1009 N269 0.993 . S
C1014 C420 1.033 . S
C1039 N301 0.993 . S
C1044 C509 1.033 1_655 S
C1069 C477 1.033 . S
C1074 N333 0.993 . S
C1099 N370 0.993 . S
C1104 C413 1.033 1_455 S
C1129 N402 0.993 . S
C1134 C196 1.033 . S
C1159 N429 0.993 . S
C1164 C253 1.033 . S
C1189 N466 0.993 . S
C1194 C157 1.033 1_565 S
C1219 C164 1.033 1_545 S
C1224 N498 0.993 . S
C1249 N530 0.993 . S
C1254 C324 1.033 . S
C1279 C292 1.033 1_554 S
C1284 N557 0.993 . S
C1309 C381 1.033 . S
C1314 N589 0.993 . S
C1339 C260 1.033 1_556 S
C1344 N626 0.993 . S
C1369 C36 1.033 . S
C1374 N653 0.993 . S
C1399 C125 1.033 1_455 S
C1404 N685 0.993 . S
C1429 C93 1.033 . S
C1434 N717 0.993 . S
C1459 N754 0.993 . S
C1464 C4 1.033 1_655 S
C1489 C130 1.701 . S
C1494 C29 1.722 . S
C1519 C166 1.701 . S
C1524 C61 1.722 . S
C1549 C198 1.701 . S
C1554 C68 1.722 . S
C1579 C226 1.701 . S
C1584 C100 1.722 . S
C1609 C132 1.722 . S
C1614 C262 1.701 . S
C1639 C189 1.722 . S
C1644 C354 1.701 . S
C1669 C221 1.722 . S
C1674 C294 1.701 . S
C1699 C228 1.722 . S
C1704 C326 1.701 . S
C1729 C285 1.722 . S
C1734 C6 1.701 . S
C1759 C317 1.722 . S
C1764 C66 1.701 . S
C1789 C349 1.722 . S
C1794 C98 1.701 . S
C1819 C38 1.701 . S
C1824 C356 1.722 . S
C1849 C514 1.701 . S
C1854 C388 1.722 . S
C1879 C550 1.701 . S
C1884 C445 1.722 . S
C1909 C452 1.722 . S
C1914 C582 1.701 . S
C1939 C484 1.722 . S
C1944 C610 1.701 . S
C1969 C646 1.701 . S
C1974 C516 1.722 . S
C1999 C573 1.722 . S
C2004 C738 1.701 . S
C2029 C678 1.701 . S
C2034 C605 1.722 . S
C2059 C612 1.722 . S
C2064 C710 1.701 . S
C2089 C386 1.701 . S
C2094 C669 1.722 . S
C2119 C701 1.722 . S
C2124 C450 1.701 . S
C2149 C733 1.722 . S
C2154 C482 1.701 . S
C2179 C422 1.701 . S
C2184 C740 1.722 . S
C2209 N18 1.363 . S
C2214 C290 1.387 1_554 S
C2239 C322 1.387 . S
C2244 N50 1.363 . S
C2269 C258 1.387 1_556 S
C2274 N77 1.363 . S
C2299 C358 1.387 . S
C2304 N109 1.363 . S
C2329 N141 1.363 . S
C2334 C102 1.387 1_455 S
C2359 C70 1.387 . S
C2364 N178 1.363 . S
C2389 N210 1.363 . S
C2394 C34 1.387 . S
C2419 C2 1.387 1_655 S
C2424 N237 1.363 . S
C2449 N274 1.363 . S
C2454 C162 1.387 1_545 S
C2479 N306 1.363 . S
C2484 C230 1.387 . S
C2509 N338 1.363 . S
C2514 C194 1.387 . S
C2539 N365 1.363 . S
C2544 C134 1.387 1_565 S
C2569 N397 1.363 . S
C2574 C674 1.387 1_556 S
C2599 N434 1.363 . S
C2604 C706 1.387 . S
C2629 C642 1.387 1_554 S
C2634 N461 1.363 . S
C2659 C742 1.387 . S
C2664 N493 1.363 . S
C2689 N525 1.363 . S
C2694 C486 1.387 1_655 S
C2719 N562 1.363 . S
C2724 C454 1.387 . S
C2749 C418 1.387 . S
C2754 N594 1.363 . S
C2779 N621 1.363 . S
C2784 C390 1.387 1_455 S
C2809 N658 1.363 . S
C2814 C546 1.387 1_565 S
C2839 C614 1.387 . S
C2844 N690 1.363 . S
C2869 N722 1.363 . S
C2874 C578 1.387 . S
C2899 N749 1.363 . S
C2904 C518 1.387 1_545 S
