# Generated by pormake.
# Topology tfs, (6)-cn, num edge types: 1
# Building blocks:
#     Node 0, Type 0, BuildingBlock: BETDAH_clean_sbu_0, # of connection points: 6
#     Node 1, Type 0, BuildingBlock: BETDAH_clean_sbu_0, # of connection points: 6
#     Node 2, Type 0, BuildingBlock: BETDAH_clean_sbu_0, # of connection points: 6
#     Node 3, Type 0, BuildingBlock: BETDAH_clean_sbu_0, # of connection points: 6
#     Node 4, Type 0, BuildingBlock: BETDAH_clean_sbu_0, # of connection points: 6
#     Node 5, Type 0, BuildingBlock: BETDAH_clean_sbu_0, # of connection points: 6
#     Edge 6, Type (0, 0), BuildingBlock: KIFKEQ_clean_linker_1, # of connection points: 2
#     Edge 7, Type (0, 0), BuildingBlock: KIFKEQ_clean_linker_1, # of connection points: 2
#     Edge 8, Type (0, 0), BuildingBlock: KIFKEQ_clean_linker_1, # of connection points: 2
#     Edge 9, Type (0, 0), BuildingBlock: KIFKEQ_clean_linker_1, # of connection points: 2
#     Edge 10, Type (0, 0), BuildingBlock: KIFKEQ_clean_linker_1, # of connection points: 2
#     Edge 11, Type (0, 0), BuildingBlock: KIFKEQ_clean_linker_1, # of connection points: 2
#     Edge 12, Type (0, 0), BuildingBlock: KIFKEQ_clean_linker_1, # of connection points: 2
#     Edge 13, Type (0, 0), BuildingBlock: KIFKEQ_clean_linker_1, # of connection points: 2
#     Edge 14, Type (0, 0), BuildingBlock: KIFKEQ_clean_linker_1, # of connection points: 2
#     Edge 15, Type (0, 0), BuildingBlock: KIFKEQ_clean_linker_1, # of connection points: 2
#     Edge 16, Type (0, 0), BuildingBlock: KIFKEQ_clean_linker_1, # of connection points: 2
#     Edge 17, Type (0, 0), BuildingBlock: KIFKEQ_clean_linker_1, # of connection points: 2
#     Edge 18, Type (0, 0), BuildingBlock: KIFKEQ_clean_linker_1, # of connection points: 2
#     Edge 19, Type (0, 0), BuildingBlock: KIFKEQ_clean_linker_1, # of connection points: 2
#     Edge 20, Type (0, 0), BuildingBlock: KIFKEQ_clean_linker_1, # of connection points: 2
#     Edge 21, Type (0, 0), BuildingBlock: KIFKEQ_clean_linker_1, # of connection points: 2
#     Edge 22, Type (0, 0), BuildingBlock: KIFKEQ_clean_linker_1, # of connection points: 2
#     Edge 23, Type (0, 0), BuildingBlock: KIFKEQ_clean_linker_1, # of connection points: 2
# Relax obj value: 0.553
# Max RMSD: 0.462
# Mean RMSD: 0.362
data_MOF--net-tfs--node1-BETDAH_clean_sbu_0--edge1-KIFKEQ_clean_linker_1
_symmetry_space_group_name_H-M    P1
_symmetry_Int_Tables_number       1
_symmetry_cell_setting            triclinic
loop_
_symmetry_equiv_pos_as_xyz
'x, y, z'
_cell_length_a     53.774153
_cell_length_b     50.276263
_cell_length_c     13.037945
_cell_angle_alpha  98.822962
_cell_angle_beta   92.541899
_cell_angle_gamma 127.26874
loop_
_atom_site_label
_atom_site_type_symbol
_atom_site_fract_x
_atom_site_fract_y
_atom_site_fract_z
_atom_type_partial_charge
Ho0 Ho 0.35594 0.48295 0.66775 0.0
Ho1 Ho 0.33565 0.52644 0.75358 0.0
C2 C 0.28086 0.45271 0.61955 0.0
C3 C 0.3643 0.43771 0.61253 0.0
C4 C 0.36915 0.4118 0.57661 0.0
C5 C 0.37207 0.39484 0.64681 0.0
C6 C 0.37672 0.37051 0.61143 0.0
C7 C 0.37872 0.36265 0.50497 0.0
C8 C 0.37619 0.38013 0.43559 0.0
C9 C 0.37133 0.40415 0.47072 0.0
C10 C 0.36833 0.53081 0.5647 0.0
C11 C 0.41123 0.56139 0.78497 0.0
C12 C 0.32799 0.5717 0.81507 0.0
C13 C 0.32357 0.59773 0.85024 0.0
C14 C 0.31321 0.6081 0.77627 0.0
C15 C 0.30898 0.6327 0.80926 0.0
C16 C 0.31505 0.64751 0.91703 0.0
C17 C 0.32564 0.63726 -0.00904 0.0
C18 C 0.32982 0.6126 0.9579 0.0
C19 C 0.32522 0.47941 0.8605 0.0
O20 O 0.30098 0.44564 0.6314 0.0
O21 O 0.29069 0.48445 0.64583 0.0
O22 O 0.3557 0.44867 0.54494 0.0
O23 O 0.3678 0.45106 0.71195 0.0
O24 O 0.38574 0.52115 0.57265 0.0
O25 O 0.34339 0.51165 0.60068 0.0
O26 O 0.38897 0.56526 0.78182 0.0
O27 O 0.40408 0.53058 0.75725 0.0
O28 O 0.33625 0.56011 0.8813 0.0
O29 O 0.32378 0.55837 0.71522 0.0
O30 O 0.30593 0.48635 0.84407 0.0
O31 O 0.34941 0.49883 0.82151 0.0
H32 H 0.37053 0.40018 0.72898 0.0
H33 H 0.37825 0.35751 0.66734 0.0
H34 H 0.37837 0.37563 0.35377 0.0
H35 H 0.36958 0.41701 0.41468 0.0
H36 H 0.30836 0.59723 0.6927 0.0
H37 H 0.30131 0.64041 0.75011 0.0
H38 H 0.33025 0.64792 0.07457 0.0
H39 H 0.33791 0.60515 0.01675 0.0
Ho40 Ho 0.87581 0.17838 0.29057 0.0
Ho41 Ho 0.80437 0.14796 0.19595 0.0
C42 C 0.81692 0.10678 0.33789 0.0
C43 C 0.9354 0.21337 0.36695 0.0
C44 C 0.97075 0.23499 0.39743 0.0
C45 C 0.98594 0.24095 0.49853 0.0
C46 C 1.01945 0.26234 0.52353 0.0
C47 C 0.03853 0.27835 0.44809 0.0
C48 C 1.02303 0.27159 0.34674 0.0
C49 C 0.98994 0.25054 0.32214 0.0
C50 C 0.85213 0.13866 0.08979 0.0
C51 C 0.8633 0.21885 0.15952 0.0
C52 C 0.75095 0.12411 0.08225 0.0
C53 C 0.72508 0.12717 0.08374 0.0
C54 C 0.71059 0.12568 -0.01149 0.0
C55 C 0.68606 0.12834 -0.01416 0.0
C56 C 0.67532 0.13287 0.07879 0.0
C57 C 0.6901 0.13451 0.17461 0.0
C58 C 0.71462 0.13166 0.17704 0.0
C59 C 0.82552 0.18431 0.39749 0.0
O60 O 0.84775 0.13319 0.36488 0.0
O61 O 0.7971 0.10518 0.26617 0.0
O62 O 0.9239 0.20924 0.27058 0.0
O63 O 0.91371 0.19758 0.42641 0.0
O64 O 0.88173 0.16023 0.13128 0.0
O65 O 0.83663 0.13622 0.16207 0.0
O66 O 0.83647 0.18905 0.11138 0.0
O67 O 0.87885 0.22203 0.24811 0.0
O68 O 0.75337 0.10842 0.1488 0.0
O69 O 0.77862 0.1512 0.07188 0.0
O70 O 0.79698 0.16795 0.34743 0.0
O71 O 0.84226 0.18845 0.32742 0.0
H72 H 0.97201 0.2294 0.55843 0.0
H73 H 1.03038 0.26693 0.60265 0.0
H74 H 1.03647 0.2825 0.28524 0.0
H75 H 0.97944 0.24661 0.24301 0.0
H76 H 0.71818 0.12225 0.91539 0.0
H77 H 0.67524 0.12628 0.91003 0.0
H78 H 0.68312 0.13852 0.2484 0.0
H79 H 0.72548 0.13315 0.25189 0.0
Ho80 Ho 0.69852 0.8411 0.75945 0.0
Ho81 Ho 0.66453 0.87131 0.84462 0.0
C82 C 0.72913 0.91842 0.7437 0.0
C83 C 0.71808 0.80944 0.66811 0.0
C84 C 0.74936 0.81849 0.65667 0.0
C85 C 0.75805 0.81973 0.55676 0.0
C86 C 0.78657 0.82604 0.5425 0.0
C87 C 0.80702 0.8311 0.62791 0.0
C88 C 0.79888 0.83117 0.72888 0.0
C89 C 0.77031 0.82491 0.74319 0.0
C90 C 0.71853 0.87582 0.96216 0.0
C91 C 0.62586 0.79096 0.81433 0.0
C92 C 0.65646 0.91001 0.96637 0.0
C93 C 0.63645 0.91424 0.0273 0.0
C94 C 0.61941 0.89352 0.09767 0.0
C95 C 0.60282 0.90067 0.16054 0.0
C96 C 0.6036 0.92884 0.1546 0.0
C97 C 0.62089 0.94945 0.0845 0.0
C98 C 0.63714 0.9422 0.02164 0.0
C99 C 0.6483 0.84266 0.63573 0.0
O100 O 0.72737 0.89112 0.70571 0.0
O101 O 0.71122 0.91737 0.81269 0.0
O102 O 0.7106 0.80741 0.76235 0.0
O103 O 0.70965 0.82435 0.61867 0.0
O104 O 0.73693 0.87439 0.90457 0.0
O105 O 0.69058 0.85592 0.91222 0.0
O106 O 0.62865 0.81793 0.86394 0.0
O107 O 0.64755 0.79399 0.75966 0.0
O108 O 0.6504 0.90382 0.86343 0.0
O109 O 0.66607 0.89401 0.00028 0.0
O110 O 0.6298 0.84554 0.68964 0.0
O111 O 0.67419 0.85821 0.69564 0.0
H112 H 0.74233 0.81486 0.48887 0.0
H113 H 0.79171 0.82512 0.46325 0.0
H114 H 0.81421 0.83519 0.79634 0.0
H115 H 0.7644 0.82439 0.82158 0.0
H116 H 0.61903 0.87207 0.10433 0.0
H117 H 0.58942 0.88428 0.21345 0.0
H118 H 0.62121 0.97075 0.07609 0.0
H119 H 0.65051 0.95867 0.96879 0.0
Ho120 Ho 0.86713 0.58303 0.06187 0.0
Ho121 Ho 0.89566 0.54777 0.97811 0.0
C122 C 0.94337 0.62697 0.08195 0.0
C123 C 0.85221 0.61743 0.16963 0.0
C124 C 0.86644 0.65348 0.21577 0.0
C125 C 0.87162 0.66428 0.32549 0.0
C126 C 0.88112 0.69672 0.37127 0.0
C127 C 0.88564 0.71917 0.30821 0.0
C128 C 0.88219 0.70905 0.1984 0.0
C129 C 0.87257 0.67646 0.1525 0.0
C130 C 0.86963 0.57559 0.85486 0.0
C131 C 0.81941 0.50486 0.95869 0.0
C132 C 0.9075 0.50853 0.8813 0.0
C133 C 0.90654 0.48042 0.90674 0.0
C134 C 0.8934 0.45084 0.82772 0.0
C135 C 0.88998 0.42271 0.85145 0.0
C136 C 0.89984 0.42378 0.95467 0.0
C137 C 0.9131 0.45351 0.03379 0.0
C138 C 0.91622 0.48152 0.01022 0.0
C139 C 0.88888 0.54885 0.18046 0.0
O140 O 0.91928 0.62357 0.11831 0.0
O141 O 0.93955 0.60257 0.00991 0.0
O142 O 0.84506 0.60735 0.06679 0.0
O143 O 0.86421 0.60476 0.2129 0.0
O144 O 0.84756 0.57486 0.89409 0.0
O145 O 0.89052 0.58381 0.92841 0.0
O146 O 0.84285 0.50901 0.91412 0.0
O147 O 0.82443 0.5288 0.03556 0.0
O148 O 0.92951 0.53943 0.9383 0.0
O149 O 0.87997 0.50185 0.86538 0.0
O150 O 0.91177 0.55119 0.14324 0.0
O151 O 0.86997 0.54435 0.10749 0.0
H152 H 0.86698 0.64703 0.3759 0.0
H153 H 0.88298 0.70323 0.4558 0.0
H154 H 0.88586 0.72585 0.14756 0.0
H155 H 0.86895 0.66895 0.06747 0.0
H156 H 0.88538 0.44934 0.74778 0.0
H157 H 0.87981 0.4002 0.78888 0.0
H158 H 0.92045 0.45482 0.11433 0.0
H159 H 0.92578 0.50378 0.07311 0.0
Ho160 Ho 0.2369 0.83829 0.94409 0.0
Ho161 Ho 0.30991 0.89095 0.91544 0.0
C162 C 0.25825 0.89403 0.80019 0.0
C163 C 0.17991 0.80783 0.97923 0.0
C164 C 0.15306 0.79482 0.89693 0.0
C165 C 0.12135 0.77132 0.90852 0.0
C166 C 0.09684 0.7576 0.82345 0.0
C167 C 0.10397 0.76744 0.72659 0.0
C168 C 0.13572 0.79163 0.71728 0.0
C169 C 0.15979 0.80501 0.80108 0.0
C170 C 0.24879 0.82163 0.75564 0.0
C171 C 0.28743 0.8278 0.02498 0.0
C172 C 0.36652 0.92809 0.87419 0.0
C173 C 0.39668 0.94293 0.94063 0.0
C174 C 0.42149 0.94702 0.89465 0.0
C175 C 0.44794 0.95527 0.95796 0.0
C176 C 0.44967 0.95916 0.06793 0.0
C177 C 0.42544 0.95658 0.11394 0.0
C178 C 0.39924 0.94866 0.05081 0.0
C179 C 0.29549 0.90506 0.10197 0.0
O180 O 0.23694 0.87345 0.85463 0.0
O181 O 0.28647 0.90167 0.80352 0.0
O182 O 0.19248 0.7922 0.96489 0.0
O183 O 0.20137 0.84131 0.00299 0.0
O184 O 0.22078 0.80769 0.77804 0.0
O185 O 0.26803 0.8386 0.84137 0.0
O186 O 0.30824 0.85032 0.97303 0.0
O187 O 0.26059 0.82275 0.03861 0.0
O188 O 0.35205 0.94068 0.90546 0.0
O189 O 0.34736 0.89452 0.84658 0.0
O190 O 0.32301 0.91367 0.09006 0.0
O191 O 0.27806 0.89155 0.01303 0.0
H192 H 0.11561 0.76306 -0.01821 0.0
H193 H 0.07245 0.73891 0.83261 0.0
H194 H 0.1422 0.79914 0.64337 0.0
H195 H 0.1838 0.82265 0.78897 0.0
H196 H 0.41976 0.94232 0.80974 0.0
H197 H 0.46615 0.95669 0.92034 0.0
H198 H 0.42632 0.95967 0.19843 0.0
H199 H 0.38046 0.94573 0.08816 0.0
Ho200 Ho 0.44027 0.14764 0.16104 0.0
Ho201 Ho 0.48474 0.21356 0.08215 0.0
C202 C 0.43188 0.20798 0.19591 0.0
C203 C 0.40517 0.10053 0.26171 0.0
C204 C 0.3715 0.07454 0.26679 0.0
C205 C 0.35152 0.0831 0.28936 0.0
C206 C 0.32093 0.0582 0.30759 0.0
C207 C 0.31003 0.02453 0.30464 0.0
C208 C 0.32948 1.01579 0.27419 0.0
C209 C 0.35981 0.04052 0.25572 0.0
C210 C 0.42402 0.14388 0.95614 0.0
C211 C 0.50214 0.16126 0.08001 0.0
C212 C 0.51306 0.2544 0.95793 0.0
C213 C 0.5397 0.26587 0.903 0.0
C214 C 0.54131 0.27871 0.81358 0.0
C215 C 0.56892 0.29482 0.77022 0.0
C216 C 0.59517 0.29843 0.81687 0.0
C217 C 0.59199 0.28201 0.8991 0.0
C218 C 0.56429 0.26571 0.94189 0.0
C219 C 0.49887 0.21717 0.28828 0.0
O220 O 0.42754 0.18209 0.23065 0.0
O221 O 0.44893 0.22033 0.12166 0.0
O222 O 0.41451 0.09522 0.17556 0.0
O223 O 0.41798 0.13282 0.29747 0.0
O224 O 0.41958 0.11873 -0.00969 0.0
O225 O 0.43496 0.16829 0.03368 0.0
O226 O 0.50541 0.18566 0.03902 0.0
O227 O 0.4812 0.1462 0.14342 0.0
O228 O 0.51994 0.26477 0.06102 0.0
O229 O 0.48869 0.22207 0.925 0.0
O230 O 0.50357 0.24273 0.2545 0.0
O231 O 0.48923 0.19321 0.21099 0.0
H232 H 0.35988 0.10918 0.29699 0.0
H233 H 0.30648 0.06578 0.32907 0.0
H234 H 0.32244 0.99048 0.27237 0.0
H235 H 0.37481 0.03337 0.23798 0.0
H236 H 0.52198 0.27804 0.78115 0.0
H237 H 0.57065 0.30678 0.70561 0.0
H238 H 0.61183 0.28441 0.93682 0.0
H239 H 0.56288 0.255 0.00948 0.0
H240 H 0.41558 0.21135 0.39341 0.0
H241 H 0.42114 0.24621 0.10644 0.0
H242 H 0.40073 0.24645 0.47352 0.0
H243 H 0.4071 0.28124 0.18581 0.0
H244 H 0.35351 0.31699 0.31276 0.0
H245 H 0.36336 0.27717 0.243 0.0
H246 H 0.42362 0.30759 0.53699 0.0
H247 H 0.41412 0.34814 0.60709 0.0
C248 C 0.41311 0.22596 0.34688 0.0
C249 C 0.41922 0.2256 0.24302 0.0
C250 C 0.40501 0.24644 0.39315 0.0
C251 C 0.4025 0.26665 0.3361 0.0
C252 C 0.40817 0.26567 0.23187 0.0
C253 C 0.41641 0.24557 0.18629 0.0
C254 C 0.36911 0.31559 0.36278 0.0
C255 C 0.38335 0.33645 0.46544 0.0
C256 C 0.37468 0.2925 0.32263 0.0
C257 C 0.39457 0.28926 0.38372 0.0
C258 C 0.40797 0.30914 0.48777 0.0
C259 C 0.4025 0.33247 0.52801 0.0
H260 H 0.23606 0.46099 0.58038 0.0
H261 H 0.24529 0.38166 0.58699 0.0
H262 H 0.17913 0.4187 0.54351 0.0
H263 H 0.18711 0.33831 0.54523 0.0
H264 H 0.07931 0.27533 0.57522 0.0
H265 H 0.13751 0.31534 0.61267 0.0
H266 H 0.13692 0.37546 0.41043 0.0
H267 H 0.07956 0.33716 0.37843 0.0
C268 C 0.22603 0.43435 0.57242 0.0
C269 C 0.24572 0.425 0.58627 0.0
C270 C 0.19299 0.40982 0.55036 0.0
C271 C 0.17804 0.37472 0.53997 0.0
C272 C 0.1976 0.36506 0.55317 0.0
C273 C 0.23103 0.3899 0.57594 0.0
C274 C 0.09162 0.29733 0.53981 0.0
C275 C 0.07432 0.3027 0.47346 0.0
C276 C 0.12512 0.32008 0.56014 0.0
C277 C 0.14231 0.34896 0.51514 0.0
C278 C 0.12488 0.35401 0.44833 0.0
C279 C 0.09166 0.33155 0.42859 0.0
H280 H 0.75551 0.05922 0.36569 0.0
H281 H 0.84977 0.08969 0.437 0.0
H282 H 0.73573 1.01438 0.46526 0.0
H283 H 0.82983 0.04457 0.53464 0.0
H284 H 0.76882 0.93229 0.59756 0.0
H285 H 0.78989 0.97693 0.49643 0.0
H286 H 0.74588 1.01473 0.66348 0.0
H287 H 0.72539 0.97091 0.76568 0.0
C288 C 0.77193 0.05609 0.40121 0.0
C289 C 0.80421 0.07798 0.39247 0.0
C290 C 0.76064 0.03056 0.45895 0.0
C291 C 0.78121 0.02584 0.50771 0.0
C292 C 0.81333 0.04731 0.49733 0.0
C293 C 0.82474 0.07326 0.44152 0.0
C294 C 0.76417 0.95053 0.61439 0.0
C295 C 0.74574 0.94811 0.6914 0.0
C296 C 0.77612 0.97602 0.55595 0.0
C297 C 0.7694 0.99927 0.57148 0.0
C298 C 0.75125 0.99705 0.64888 0.0
C299 C 0.73982 0.97206 0.70844 0.0
H300 H 0.91993 0.76363 0.50087 0.0
H301 H 0.85913 0.74524 0.22553 0.0
H302 H 0.91387 0.80472 0.5961 0.0
H303 H 0.85444 0.78711 0.31896 0.0
H304 H 0.8263 0.79892 0.71451 0.0
H305 H 0.85978 0.78578 0.64546 0.0
H306 H 0.8816 0.84925 0.42245 0.0
H307 H 0.84874 0.86347 0.49392 0.0
C308 C 0.90601 0.76897 0.45969 0.0
C309 C 0.88947 0.75054 0.35615 0.0
C310 C 0.90281 0.79269 0.51404 0.0
C311 C 0.88362 0.79892 0.46494 0.0
C312 C 0.86976 0.78315 0.35831 0.0
C313 C 0.87251 0.75908 0.30459 0.0
C314 C 0.83937 0.81145 0.65424 0.0
C315 C 0.8342 0.83155 0.6078 0.0
C316 C 0.85862 0.8039 0.61465 0.0
C317 C 0.87282 0.8161 0.52756 0.0
C318 C 0.87055 0.83923 0.48887 0.0
C319 C 0.85158 0.84713 0.52929 0.0
H320 H 0.09783 0.79721 0.57874 0.0
H321 H 0.05545 0.6991 0.65643 0.0
H322 H 0.06443 0.76803 0.40421 0.0
H323 H 1.02161 0.67008 0.48319 0.0
H324 H 0.99146 0.62557 0.14062 0.0
H325 H 1.0326 0.66348 0.29647 0.0
H326 H 1.0061 0.72964 0.32207 0.0
H327 H 0.96492 0.69167 0.16644 0.0
C328 C 0.08103 0.76943 0.55905 0.0
C329 C 0.07939 0.75037 0.6309 0.0
C330 C 0.06203 0.75282 0.45925 0.0
C331 C 0.04115 0.71687 0.42949 0.0
C332 C 0.03823 0.69787 0.5033 0.0
C333 C 0.05712 0.71446 0.60316 0.0
C334 C 0.99547 0.64908 0.17641 0.0
C335 C 0.97499 0.65567 0.14225 0.0
C336 C 1.01859 0.67041 0.26669 0.0
C337 C 1.0218 0.69884 0.3227 0.0
C338 C 1.00393 0.70772 0.28082 0.0
C339 C 0.98055 0.68616 0.19138 0.0
H340 H 0.20703 0.8641 0.64427 0.0
H341 H 0.29527 0.96095 0.80419 0.0
H342 H 0.20367 0.89166 0.50907 0.0
H343 H 0.2916 0.98849 0.67408 0.0
H344 H 0.28939 0.041 0.47309 0.0
H345 H 0.26061 1.00443 0.5924 0.0
H346 H 0.24058 0.91765 0.37241 0.0
H347 H 0.26738 0.95368 0.2482 0.0
C348 C 0.22499 0.89145 0.65233 0.0
C349 C 0.25145 0.91061 0.73376 0.0
C350 C 0.2231 0.90713 0.57536 0.0
C351 C 0.24709 0.94231 0.58189 0.0
C352 C 0.27229 0.96157 0.66795 0.0
C353 C 0.27457 0.94582 0.7423 0.0
C354 C 0.27732 1.0138 0.44646 0.0
C355 C 0.28213 1.00067 0.35285 0.0
C356 C 0.26091 0.99282 0.51572 0.0
C357 C 0.24962 0.95865 0.4935 0.0
C358 C 0.24949 0.94408 0.39241 0.0
C359 C 0.26534 0.96493 0.32189 0.0
H360 H 0.24212 0.762 0.04382 0.0
H361 H 0.34305 0.83749 0.05694 0.0
H362 H 0.24825 0.71743 0.03544 0.0
H363 H 0.34909 0.79301 0.04693 0.0
H364 H 0.35282 0.70677 0.07137 0.0
H365 H 0.34554 0.75003 0.12512 0.0
H366 H 0.25993 0.69088 0.89231 0.0
H367 H 0.26654 0.64713 0.84139 0.0
C368 C 0.26574 0.76929 0.04835 0.0
C369 C 0.29206 0.80322 0.05018 0.0
C370 C 0.26919 0.74367 0.04205 0.0
C371 C 0.29906 0.75156 0.03857 0.0
C372 C 0.32575 0.78601 0.04965 0.0
C373 C 0.32227 0.81154 0.05522 0.0
C374 C 0.33216 0.70273 0.03292 0.0
C375 C 0.31029 0.67351 0.95189 0.0
C376 C 0.32812 0.72765 0.0632 0.0
C377 C 0.30208 0.72386 0.0134 0.0
C378 C 0.27996 0.69435 0.9336 0.0
C379 C 0.28402 0.6695 0.90324 0.0
H380 H 0.55843 0.19928 0.00657 0.0
H381 H 0.49957 0.10855 0.12964 0.0
H382 H 0.59922 0.19215 0.00578 0.0
H383 H 0.53954 0.10003 0.1233 0.0
H384 H 0.62917 0.11141 0.20472 0.0
H385 H 0.58777 0.1176 0.20126 0.0
H386 H 0.61806 0.16463 0.93466 0.0
H387 H 0.66108 0.16122 0.94431 0.0
C388 C 0.55389 0.17737 0.03171 0.0
C389 C 0.52563 0.15463 0.06867 0.0
C390 C 0.57738 0.17307 0.03074 0.0
C391 C 0.57323 0.14551 0.06502 0.0
C392 C 0.54436 0.12211 0.09869 0.0
C393 C 0.52109 0.12676 0.10127 0.0
C394 C 0.62748 0.12367 0.1464 0.0
C395 C 0.64901 0.1359 0.07523 0.0
C396 C 0.60311 0.12667 0.14305 0.0
C397 C 0.59904 0.14165 0.0675 0.0
C398 C 0.62035 0.15348 -0.00448 0.0
C399 C 0.64497 0.15093 -0.00012 0.0
H400 H 0.60193 0.72758 0.69107 0.0
H401 H 0.58386 0.77494 0.94989 0.0
H402 H 0.55216 0.67151 0.69296 0.0
H403 H 0.53535 0.71936 0.95513 0.0
H404 H 0.43241 0.62689 0.85373 0.0
H405 H 0.48442 0.67997 0.86287 0.0
H406 H 0.52002 0.62397 0.77324 0.0
H407 H 0.46654 0.56975 0.75883 0.0
C408 C 0.58757 0.72605 0.74914 0.0
C409 C 0.59679 0.75607 0.81902 0.0
C410 C 0.55903 0.69375 0.75079 0.0
C411 C 0.53906 0.69053 0.82307 0.0
C412 C 0.54925 0.72051 0.89588 0.0
C413 C 0.5774 0.75265 0.89332 0.0
C414 C 0.45121 0.62554 0.83685 0.0
C415 C 0.44493 0.59363 0.8057 0.0
C416 C 0.48147 0.65639 0.84294 0.0
C417 C 0.507 0.65681 0.81961 0.0
C418 C 0.50105 0.62492 0.79092 0.0
C419 C 0.47041 0.59373 0.78398 0.0
H420 H 0.84771 0.35621 0.89681 0.0
H421 H 0.94371 0.42401 0.0691 0.0
H422 H 0.84133 0.30723 0.94078 0.0
H423 H 0.93793 0.37504 0.11022 0.0
H424 H 0.9033 0.28565 0.26885 0.0
H425 H 0.91312 0.33508 0.21565 0.0
H426 H 0.8557 0.27118 0.90994 0.0
H427 H 0.84478 0.22144 0.96533 0.0
C428 C 0.86759 0.36053 0.94297 0.0
C429 C 0.89618 0.39391 0.97978 0.0
C430 C 0.86404 0.33244 0.96777 0.0
C431 C 0.88915 0.33703 0.02903 0.0
C432 C 0.91788 0.37049 0.06453 0.0
C433 C 0.92127 0.39859 0.0408 0.0
C434 C 0.89311 0.28226 0.18986 0.0
C435 C 0.87303 0.24962 0.12178 0.0
C436 C 0.89882 0.31067 0.159 0.0
C437 C 0.88497 0.30722 0.05867 0.0
C438 C 0.86613 0.27475 -0.01128 0.0
C439 C 0.86008 0.24625 0.02013 0.0
H440 H 0.51307 1.00153 0.06419 0.0
H441 H 0.44297 0.92318 0.21517 0.0
H442 H 0.55263 0.99798 0.14211 0.0
H443 H 0.48281 0.92005 0.29525 0.0
H444 H 0.54129 0.88208 0.16537 0.0
H445 H 0.50515 0.89511 0.19603 0.0
H446 H 0.58475 1.00301 0.29733 0.0
H447 H 0.62101 0.98982 0.26644 0.0
C448 C 0.50642 0.98425 0.11645 0.0
C449 C 0.47496 0.9623 0.13241 0.0
C450 C 0.52914 0.9825 0.16239 0.0
C451 C 0.52073 0.9586 0.22461 0.0
C452 C 0.48986 0.9386 0.2474 0.0
C453 C 0.46714 0.94049 0.20183 0.0
C454 C 0.55114 0.90836 0.19926 0.0
C455 C 0.58377 0.93507 0.21071 0.0
C456 C 0.53043 0.91589 0.21699 0.0
C457 C 0.54218 0.95022 0.24632 0.0
C458 C 0.5751 0.97641 0.27262 0.0
C459 C 0.59579 0.96887 0.255 0.0
H460 H 0.79731 0.45215 0.78882 0.0
H461 H 0.76865 0.48462 0.05357 0.0
H462 H 0.74241 0.39943 0.73094 0.0
H463 H 0.71445 0.43252 -0.00464 0.0
H464 H 0.61878 0.3627 0.80444 0.0
H465 H 0.67425 0.41165 0.82338 0.0
H466 H 0.70037 0.34547 0.81644 0.0
H467 H 0.64422 0.29569 0.79556 0.0
C468 C 0.7794 0.44798 0.83466 0.0
C469 C 0.78709 0.47258 0.92487 0.0
C470 C 0.74819 0.41796 0.80158 0.0
C471 C 0.72449 0.41254 0.85797 0.0
C472 C 0.73237 0.43667 0.94954 0.0
C473 C 0.76338 0.46641 -0.01723 0.0
C474 C 0.63607 0.35818 0.80207 0.0
C475 C 0.62721 0.32536 0.79849 0.0
C476 C 0.66783 0.38629 0.81422 0.0
C477 C 0.69126 0.38209 0.82258 0.0
C478 C 0.68248 0.34907 0.80991 0.0
C479 C 0.65053 0.32077 0.79827 0.0
H480 H 0.32328 0.53422 0.47684 0.0
H481 H 0.41945 0.57227 0.47385 0.0
H482 H 0.31223 0.51882 0.28702 0.0
H483 H 0.40888 0.55565 0.28548 0.0
H484 H 0.37703 0.49066 0.96343 0.0
H485 H 0.39365 0.51965 0.14456 0.0
H486 H 0.29581 0.47471 0.1694 0.0
H487 H 0.28034 0.44793 -0.01516 0.0
C488 C 0.34242 0.54028 0.43468 0.0
C489 C 0.37079 0.54969 0.48676 0.0
C490 C 0.33571 0.52984 0.32553 0.0
C491 C 0.35773 0.52939 0.27165 0.0
C492 C 0.38955 0.55055 0.32395 0.0
C493 C 0.39621 0.56157 0.43279 0.0
C494 C 0.35904 0.48643 0.00908 0.0
C495 C 0.32822 0.47076 0.95941 0.0
C496 C 0.36874 0.50434 0.1133 0.0
C497 C 0.34696 0.50455 0.16933 0.0
C498 C 0.31432 0.4796 0.12624 0.0
C499 C 0.30495 0.46251 0.02108 0.0
H500 H 0.88563 0.14219 0.9375 0.0
H501 H 0.79598 0.1183 -0.01549 0.0
H502 H 0.87768 0.14826 0.7601 0.0
H503 H 0.78899 0.12754 0.81084 0.0
H504 H 0.77784 0.13444 0.47977 0.0
H505 H 0.78109 0.11376 0.62993 0.0
H506 H 0.88309 0.1923 0.69421 0.0
H507 H 0.87986 0.21178 0.53639 0.0
C508 C 0.86398 0.13795 0.90914 0.0
C509 C 0.842 0.13149 0.97589 0.0
C510 C 0.85969 0.14198 0.80816 0.0
C511 C 0.83355 0.14013 0.7728 0.0
C512 C 0.80975 0.1297 0.83556 0.0
C513 C 0.81374 0.12475 0.93572 0.0
C514 C 0.80113 0.14763 0.52578 0.0
C515 C 0.82877 0.17505 0.49641 0.0
C516 C 0.80288 0.13562 0.61255 0.0
C517 C 0.83223 0.15135 0.6751 0.0
C518 C 0.86003 0.17908 0.64661 0.0
C519 C 0.85831 0.19065 0.5573 0.0
H520 H 0.66764 0.89885 0.56808 0.0
H521 H 0.63877 0.79685 0.46745 0.0
H522 H 0.69607 0.91592 0.42223 0.0
H523 H 0.66414 0.81226 0.31377 0.0
H524 H 0.72869 0.84529 0.0936 0.0
H525 H 0.71247 0.84032 0.26553 0.0
H526 H 0.70014 0.91741 0.25322 0.0
H527 H 0.72115 0.92556 0.09 0.0
C528 C 0.66563 0.87943 0.51003 0.0
C529 C 0.65037 0.84629 0.52697 0.0
C530 C 0.68241 0.88932 0.42684 0.0
C531 C 0.68335 0.86585 0.35646 0.0
C532 C 0.6653 0.83166 0.36832 0.0
C533 C 0.64956 0.82221 0.45401 0.0
C534 C 0.72419 0.86242 0.1312 0.0
C535 C 0.72455 0.88464 0.07743 0.0
C536 C 0.7138 0.85882 0.22807 0.0
C537 C 0.7025 0.87648 0.27019 0.0
C538 C 0.70759 0.90245 0.22304 0.0
C539 C 0.71935 0.907 0.12861 0.0
H540 H 0.81925 0.54355 0.69463 0.0
H541 H 0.90363 0.55518 0.79319 0.0
H542 H 0.81201 0.51057 0.52308 0.0
H543 H 0.89123 0.51429 0.6356 0.0
H544 H 0.92679 0.56224 0.35144 0.0
H545 H 0.91187 0.54353 0.51076 0.0
H546 H 0.81224 0.48103 0.37088 0.0
H547 H 0.82822 0.50177 0.2102 0.0
C548 C 0.83552 0.53796 0.68077 0.0
C549 C 0.86276 0.55301 0.75482 0.0
C550 C 0.83071 0.51786 0.58403 0.0
C551 C 0.85271 0.51198 0.56292 0.0
C552 C 0.87539 0.52064 0.64662 0.0
C553 C 0.88245 0.54395 0.73725 0.0
C554 C 0.90175 0.5443 0.35489 0.0
C555 C 0.87869 0.53483 0.2724 0.0
C556 C 0.89283 0.53262 0.4457 0.0
C557 C 0.86048 0.51133 0.45586 0.0
C558 C 0.83728 0.4984 0.36723 0.0
C559 C 0.84637 0.51062 0.27622 0.0
H560 H 0.32817 0.94483 0.29702 0.0
H561 H 0.23923 0.85048 0.13188 0.0
H562 H 0.31525 0.92627 0.46287 0.0
H563 H 0.22695 0.83084 0.29077 0.0
H564 H 0.20506 0.80517 0.59693 0.0
H565 H 0.21425 0.83253 0.45262 0.0
H566 H 0.31509 0.88527 0.53301 0.0
H567 H 0.30566 0.85936 0.68541 0.0
C568 C 0.30544 0.92057 0.29672 0.0
C569 C 0.28439 0.89895 0.20195 0.0
C570 C 0.29829 0.90971 0.3908 0.0
C571 C 0.27046 0.87672 0.38969 0.0
C572 C 0.2484 0.85662 0.29576 0.0
C573 C 0.25523 0.86796 0.20339 0.0
C574 C 0.22928 0.82238 0.58378 0.0
C575 C 0.25493 0.83106 0.65407 0.0
C576 C 0.23453 0.83814 0.50055 0.0
C577 C 0.26546 0.8616 0.48213 0.0
C578 C 0.29105 0.86831 0.54772 0.0
C579 C 0.28576 0.85309 0.63357 0.0
H580 H 0.45754 0.13012 0.84411 0.0
H581 H 0.40788 0.17238 0.83549 0.0
H582 H 0.47975 0.15143 0.69083 0.0
H583 H 0.42785 0.19148 0.67573 0.0
H584 H 0.49137 0.25183 0.45318 0.0
H585 H 0.47276 0.2329 0.61483 0.0
H586 H 0.47215 0.14627 0.51499 0.0
H587 H 0.49292 0.16675 0.36051 0.0
C588 C 0.45043 0.14285 0.8064 0.0
C589 C 0.43093 0.1495 0.85054 0.0
C590 C 0.4632 0.15523 0.71837 0.0
C591 C 0.45596 0.17364 0.6705 0.0
C592 C 0.43479 0.17838 0.71175 0.0
C593 C 0.42275 0.16683 0.80185 0.0
C594 C 0.48816 0.22942 0.46824 0.0
C595 C 0.49348 0.2107 0.39452 0.0
C596 C 0.47686 0.21807 0.55966 0.0
C597 C 0.47034 0.18759 0.57798 0.0
C598 C 0.47716 0.17001 0.50558 0.0
C599 C 0.48895 0.18168 0.41605 0.0
loop_
_geom_bond_atom_site_label_1
_geom_bond_atom_site_label_2
_geom_bond_distance
_geom_bond_site_symmetry_2
_ccdc_geom_bond_type
Ho0 C3 2.811 . S
Ho0 O20 2.322 . S
Ho0 O22 2.378 . S
Ho0 O23 2.524 . S
Ho0 O24 2.381 . S
Ho0 O25 2.669 . S
Ho0 O27 2.346 . S
Ho0 O31 2.305 1_556 S
Ho1 C12 2.811 . S
Ho1 O21 2.346 . S
Ho1 O25 2.305 . S
Ho1 O26 2.322 1_556 S
Ho1 O28 2.378 1_556 S
Ho1 O29 2.524 . S
Ho1 O30 2.381 1_556 S
Ho1 O31 2.669 1_556 S
C2 O20 1.259 . S
C2 O21 1.268 . S
C3 Ho0 2.811 . S
C3 C4 1.488 . S
C3 O22 1.215 . S
C3 O23 1.289 . S
C4 C3 1.488 . S
C4 C5 1.348 . S
C4 C9 1.413 . S
C5 C4 1.348 . S
C5 C6 1.442 . S
C5 H32 0.930 . S
C6 C5 1.442 . S
C6 C7 1.381 . S
C6 H33 0.931 . S
C7 C6 1.381 . S
C7 C8 1.321 . S
C8 C7 1.321 . S
C8 C9 1.403 . S
C8 H34 0.934 . S
C9 C4 1.413 . S
C9 C8 1.403 . S
C9 H35 0.930 . S
C10 O24 1.275 . S
C10 O25 1.256 . S
C11 O26 1.259 . S
C11 O27 1.268 1_554 S
C12 Ho1 2.811 . S
C12 C13 1.488 1_556 S
C12 O28 1.215 1_556 S
C12 O29 1.289 . S
C13 C12 1.488 1_554 S
C13 C14 1.348 1_554 S
C13 C18 1.413 . S
C14 C13 1.348 1_556 S
C14 C15 1.442 . S
C14 H36 0.930 . S
C15 C14 1.442 . S
C15 C16 1.381 1_556 S
C15 H37 0.931 . S
C16 C15 1.381 1_554 S
C16 C17 1.321 . S
C17 C16 1.321 . S
C17 C18 1.403 . S
C17 H38 0.934 . S
C18 C13 1.413 . S
C18 C17 1.403 . S
C18 H39 0.930 . S
C19 O30 1.275 . S
C19 O31 1.256 . S
O20 Ho0 2.322 . S
O20 C2 1.259 . S
O21 Ho1 2.346 . S
O21 C2 1.268 . S
O22 Ho0 2.378 . S
O22 C3 1.215 . S
O23 Ho0 2.524 . S
O23 C3 1.289 . S
O24 Ho0 2.381 . S
O24 C10 1.275 . S
O25 Ho0 2.669 . S
O25 Ho1 2.305 . S
O25 C10 1.256 . S
O26 Ho1 2.322 1_554 S
O26 C11 1.259 . S
O27 Ho0 2.346 . S
O27 C11 1.268 1_556 S
O28 Ho1 2.378 1_554 S
O28 C12 1.215 1_554 S
O29 Ho1 2.524 . S
O29 C12 1.289 . S
O30 Ho1 2.381 1_554 S
O30 C19 1.275 . S
O31 Ho0 2.305 1_554 S
O31 Ho1 2.669 1_554 S
O31 C19 1.256 . S
H32 C5 0.930 . S
H33 C6 0.931 . S
H34 C8 0.934 . S
H35 C9 0.930 . S
H36 C14 0.930 . S
H37 C15 0.931 . S
H38 C17 0.934 . S
H39 C18 0.930 . S
Ho40 C43 2.811 . S
Ho40 O60 2.322 . S
Ho40 O62 2.378 . S
Ho40 O63 2.524 . S
Ho40 O64 2.381 1_554 S
Ho40 O65 2.669 1_554 S
Ho40 O67 2.346 . S
Ho40 O71 2.305 . S
Ho41 C52 2.811 1_554 S
Ho41 O61 2.346 . S
Ho41 O65 2.305 1_554 S
Ho41 O66 2.322 . S
Ho41 O68 2.378 . S
Ho41 O69 2.524 1_554 S
Ho41 O70 2.381 . S
Ho41 O71 2.669 . S
C42 O60 1.259 . S
C42 O61 1.268 . S
C43 Ho40 2.811 . S
C43 C44 1.488 . S
C43 O62 1.215 . S
C43 O63 1.289 . S
C44 C43 1.488 . S
C44 C45 1.348 . S
C44 C49 1.413 . S
C45 C44 1.348 . S
C45 C46 1.442 . S
C45 H72 0.930 . S
C46 C45 1.442 . S
C46 C47 1.381 . S
C46 H73 0.931 . S
C47 C46 1.381 . S
C47 C48 1.321 . S
C48 C47 1.321 . S
C48 C49 1.403 . S
C48 H74 0.934 . S
C49 C44 1.413 . S
C49 C48 1.403 . S
C49 H75 0.930 . S
C50 O64 1.275 . S
C50 O65 1.256 . S
C51 O66 1.259 . S
C51 O67 1.268 . S
C52 Ho41 2.811 1_556 S
C52 C53 1.488 . S
C52 O68 1.215 1_556 S
C52 O69 1.289 . S
C53 C52 1.488 . S
C53 C54 1.348 . S
C53 C58 1.411 1_556 S
C54 C53 1.348 . S
C54 C55 1.442 . S
C54 H76 0.930 . S
C55 C54 1.442 . S
C55 C56 1.381 . S
C55 H77 0.931 . S
C56 C55 1.381 . S
C56 C57 1.321 . S
C57 C56 1.321 . S
C57 C58 1.402 1_556 S
C57 H78 0.934 1_556 S
C58 C53 1.411 1_554 S
C58 C57 1.402 1_554 S
C58 H79 0.932 . S
C59 O70 1.275 . S
C59 O71 1.256 . S
O60 Ho40 2.322 . S
O60 C42 1.259 . S
O61 Ho41 2.346 . S
O61 C42 1.268 . S
O62 Ho40 2.378 . S
O62 C43 1.215 . S
O63 Ho40 2.524 . S
O63 C43 1.289 . S
O64 Ho40 2.381 1_556 S
O64 C50 1.275 . S
O65 Ho40 2.669 1_556 S
O65 Ho41 2.305 1_556 S
O65 C50 1.256 . S
O66 Ho41 2.322 . S
O66 C51 1.259 . S
O67 Ho40 2.346 . S
O67 C51 1.268 . S
O68 Ho41 2.378 . S
O68 C52 1.215 1_554 S
O69 Ho41 2.524 1_556 S
O69 C52 1.289 . S
O70 Ho41 2.381 . S
O70 C59 1.275 . S
O71 Ho40 2.305 . S
O71 Ho41 2.669 . S
O71 C59 1.256 . S
H72 C45 0.930 . S
H73 C46 0.931 . S
H74 C48 0.934 . S
H75 C49 0.930 . S
H76 C54 0.930 . S
H77 C55 0.931 . S
H78 C57 0.934 1_554 S
H79 C58 0.932 . S
Ho80 C83 2.811 . S
Ho80 O100 2.322 1_556 S
Ho80 O102 2.378 1_556 S
Ho80 O103 2.524 . S
Ho80 O104 2.381 1_556 S
Ho80 O105 2.669 1_556 S
Ho80 O107 2.346 1_556 S
Ho80 O111 2.305 . S
Ho81 C92 2.811 . S
Ho81 O101 2.346 1_554 S
Ho81 O105 2.305 . S
Ho81 O106 2.322 1_554 S
Ho81 O108 2.378 1_554 S
Ho81 O109 2.524 . S
Ho81 O110 2.381 1_554 S
Ho81 O111 2.669 1_554 S
C82 O100 1.259 1_556 S
C82 O101 1.268 . S
C83 Ho80 2.811 . S
C83 C84 1.488 . S
C83 O102 1.215 1_556 S
C83 O103 1.289 . S
C84 C83 1.488 . S
C84 C85 1.348 . S
C84 C89 1.413 . S
C85 C84 1.348 . S
C85 C86 1.442 . S
C85 H112 0.930 . S
C86 C85 1.442 . S
C86 C87 1.381 . S
C86 H113 0.931 . S
C87 C86 1.381 . S
C87 C88 1.321 . S
C88 C87 1.321 . S
C88 C89 1.403 . S
C88 H114 0.934 . S
C89 C84 1.413 . S
C89 C88 1.403 . S
C89 H115 0.930 1_556 S
C90 O104 1.275 . S
C90 O105 1.256 . S
C91 O106 1.259 1_554 S
C91 O107 1.268 . S
C92 Ho81 2.811 . S
C92 C93 1.488 . S
C92 O108 1.215 1_554 S
C92 O109 1.289 . S
C93 C92 1.488 . S
C93 C94 1.348 . S
C93 C98 1.413 . S
C94 C93 1.348 . S
C94 C95 1.442 . S
C94 H116 0.930 . S
C95 C94 1.442 . S
C95 C96 1.381 . S
C95 H117 0.931 . S
C96 C95 1.381 . S
C96 C97 1.321 . S
C97 C96 1.321 . S
C97 C98 1.403 . S
C97 H118 0.934 . S
C98 C93 1.413 . S
C98 C97 1.403 . S
C98 H119 0.930 1_554 S
C99 O110 1.275 . S
C99 O111 1.256 . S
O100 Ho80 2.322 1_554 S
O100 C82 1.259 1_554 S
O101 Ho81 2.346 1_556 S
O101 C82 1.268 . S
O102 Ho80 2.378 1_554 S
O102 C83 1.215 1_554 S
O103 Ho80 2.524 . S
O103 C83 1.289 . S
O104 Ho80 2.381 1_554 S
O104 C90 1.275 . S
O105 Ho80 2.669 1_554 S
O105 Ho81 2.305 . S
O105 C90 1.256 . S
O106 Ho81 2.322 1_556 S
O106 C91 1.259 1_556 S
O107 Ho80 2.346 1_554 S
O107 C91 1.268 . S
O108 Ho81 2.378 1_556 S
O108 C92 1.215 1_556 S
O109 Ho81 2.524 . S
O109 C92 1.289 . S
O110 Ho81 2.381 1_556 S
O110 C99 1.275 . S
O111 Ho80 2.305 . S
O111 Ho81 2.669 1_556 S
O111 C99 1.256 . S
H112 C85 0.930 . S
H113 C86 0.931 . S
H114 C88 0.934 . S
H115 C89 0.930 1_554 S
H116 C94 0.930 . S
H117 C95 0.931 . S
H118 C97 0.934 . S
H119 C98 0.930 1_556 S
Ho120 C123 2.811 . S
Ho120 O140 2.322 . S
Ho120 O142 2.378 1_554 S
Ho120 O143 2.524 . S
Ho120 O144 2.381 1_554 S
Ho120 O145 2.669 1_554 S
Ho120 O147 2.346 1_554 S
Ho120 O151 2.305 . S
Ho121 C132 2.811 . S
Ho121 O141 2.346 1_556 S
Ho121 O145 2.305 . S
Ho121 O146 2.322 . S
Ho121 O148 2.378 1_556 S
Ho121 O149 2.524 . S
Ho121 O150 2.381 1_556 S
Ho121 O151 2.669 1_556 S
C122 O140 1.259 . S
C122 O141 1.268 . S
C123 Ho120 2.811 . S
C123 C124 1.488 . S
C123 O142 1.215 1_554 S
C123 O143 1.289 . S
C124 C123 1.488 . S
C124 C125 1.348 . S
C124 C129 1.413 . S
C125 C124 1.348 . S
C125 C126 1.442 . S
C125 H152 0.930 . S
C126 C125 1.442 . S
C126 C127 1.381 . S
C126 H153 0.931 . S
C127 C126 1.381 . S
C127 C128 1.321 . S
C128 C127 1.321 . S
C128 C129 1.403 . S
C128 H154 0.934 . S
C129 C124 1.413 . S
C129 C128 1.403 . S
C129 H155 0.930 1_554 S
C130 O144 1.275 . S
C130 O145 1.256 . S
C131 O146 1.259 . S
C131 O147 1.268 . S
C132 Ho121 2.811 . S
C132 C133 1.488 . S
C132 O148 1.215 1_556 S
C132 O149 1.289 . S
C133 C132 1.488 . S
C133 C134 1.348 . S
C133 C138 1.413 . S
C134 C133 1.348 . S
C134 C135 1.442 . S
C134 H156 0.930 . S
C135 C134 1.442 . S
C135 C136 1.381 . S
C135 H157 0.931 . S
C136 C135 1.381 . S
C136 C137 1.321 . S
C137 C136 1.321 . S
C137 C138 1.403 . S
C137 H158 0.934 . S
C138 C133 1.413 . S
C138 C137 1.403 . S
C138 H159 0.930 1_556 S
C139 O150 1.275 . S
C139 O151 1.256 . S
O140 Ho120 2.322 . S
O140 C122 1.259 . S
O141 Ho121 2.346 1_554 S
O141 C122 1.268 . S
O142 Ho120 2.378 1_556 S
O142 C123 1.215 1_556 S
O143 Ho120 2.524 . S
O143 C123 1.289 . S
O144 Ho120 2.381 1_556 S
O144 C130 1.275 . S
O145 Ho120 2.669 1_556 S
O145 Ho121 2.305 . S
O145 C130 1.256 . S
O146 Ho121 2.322 . S
O146 C131 1.259 . S
O147 Ho120 2.346 1_556 S
O147 C131 1.268 . S
O148 Ho121 2.378 1_554 S
O148 C132 1.215 1_554 S
O149 Ho121 2.524 . S
O149 C132 1.289 . S
O150 Ho121 2.381 1_554 S
O150 C139 1.275 . S
O151 Ho120 2.305 . S
O151 Ho121 2.669 1_554 S
O151 C139 1.256 . S
H152 C125 0.930 . S
H153 C126 0.931 . S
H154 C128 0.934 . S
H155 C129 0.930 1_556 S
H156 C134 0.930 . S
H157 C135 0.931 . S
H158 C137 0.934 . S
H159 C138 0.930 1_554 S
Ho160 C163 2.811 . S
Ho160 O180 2.322 . S
Ho160 O182 2.378 . S
Ho160 O183 2.524 1_556 S
Ho160 O184 2.381 . S
Ho160 O185 2.669 . S
Ho160 O187 2.346 . S
Ho160 O191 2.305 1_556 S
Ho161 C172 2.811 . S
Ho161 O181 2.346 . S
Ho161 O185 2.305 1_554 S
Ho161 O186 2.322 . S
Ho161 O188 2.378 . S
Ho161 O189 2.524 1_554 S
Ho161 O190 2.381 . S
Ho161 O191 2.669 . S
C162 O180 1.259 . S
C162 O181 1.268 1_556 S
C163 Ho160 2.811 . S
C163 C164 1.488 . S
C163 O182 1.215 . S
C163 O183 1.289 1_556 S
C164 C163 1.488 . S
C164 C165 1.348 . S
C164 C169 1.413 . S
C165 C164 1.348 . S
C165 C166 1.442 . S
C165 H192 0.930 1_556 S
C166 C165 1.442 . S
C166 C167 1.381 . S
C166 H193 0.931 1_556 S
C167 C166 1.381 . S
C167 C168 1.321 . S
C168 C167 1.321 . S
C168 C169 1.403 . S
C168 H194 0.934 . S
C169 C164 1.413 . S
C169 C168 1.403 . S
C169 H195 0.930 . S
C170 O184 1.275 . S
C170 O185 1.256 . S
C171 O186 1.259 . S
C171 O187 1.268 1_554 S
C172 Ho161 2.811 . S
C172 C173 1.488 . S
C172 O188 1.215 . S
C172 O189 1.289 1_554 S
C173 C172 1.488 . S
C173 C174 1.348 . S
C173 C178 1.413 . S
C174 C173 1.348 . S
C174 C175 1.442 . S
C174 H196 0.930 1_554 S
C175 C174 1.442 . S
C175 C176 1.381 . S
C175 H197 0.931 1_554 S
C176 C175 1.381 . S
C176 C177 1.321 . S
C177 C176 1.321 . S
C177 C178 1.403 . S
C177 H198 0.934 . S
C178 C173 1.413 . S
C178 C177 1.403 . S
C178 H199 0.930 . S
C179 O190 1.275 . S
C179 O191 1.256 . S
O180 Ho160 2.322 . S
O180 C162 1.259 . S
O181 Ho161 2.346 . S
O181 C162 1.268 1_554 S
O182 Ho160 2.378 . S
O182 C163 1.215 . S
O183 Ho160 2.524 1_554 S
O183 C163 1.289 1_554 S
O184 Ho160 2.381 . S
O184 C170 1.275 . S
O185 Ho160 2.669 . S
O185 Ho161 2.305 1_556 S
O185 C170 1.256 . S
O186 Ho161 2.322 . S
O186 C171 1.259 . S
O187 Ho160 2.346 . S
O187 C171 1.268 1_556 S
O188 Ho161 2.378 . S
O188 C172 1.215 . S
O189 Ho161 2.524 1_556 S
O189 C172 1.289 1_556 S
O190 Ho161 2.381 . S
O190 C179 1.275 . S
O191 Ho160 2.305 1_554 S
O191 Ho161 2.669 . S
O191 C179 1.256 . S
H192 C165 0.930 1_554 S
H193 C166 0.931 1_554 S
H194 C168 0.934 . S
H195 C169 0.930 . S
H196 C174 0.930 1_556 S
H197 C175 0.931 1_556 S
H198 C177 0.934 . S
H199 C178 0.930 . S
Ho200 C203 2.811 1_556 S
Ho200 O220 2.322 . S
Ho200 O222 2.378 . S
Ho200 O223 2.524 1_556 S
Ho200 O224 2.381 . S
Ho200 O225 2.669 . S
Ho200 O227 2.346 . S
Ho200 O231 2.305 1_556 S
Ho201 C212 2.811 1_554 S
Ho201 O221 2.346 . S
Ho201 O225 2.305 1_554 S
Ho201 O226 2.322 . S
Ho201 O228 2.378 . S
Ho201 O229 2.524 1_554 S
Ho201 O230 2.381 . S
Ho201 O231 2.669 . S
C202 O220 1.259 1_554 S
C202 O221 1.268 . S
C203 Ho200 2.811 1_554 S
C203 C204 1.488 . S
C203 O222 1.215 1_554 S
C203 O223 1.289 . S
C204 C203 1.488 . S
C204 C205 1.348 . S
C204 C209 1.413 1_544 S
C205 C204 1.348 . S
C205 C206 1.440 1_545 S
C205 H232 0.930 . S
C206 C205 1.440 1_565 S
C206 C207 1.389 . S
C206 H233 0.925 1_565 S
C207 C206 1.389 . S
C207 C208 1.321 1_554 S
C208 C207 1.321 1_556 S
C208 C209 1.403 . S
C208 H234 0.934 . S
C209 C204 1.413 1_566 S
C209 C208 1.403 . S
C209 H235 0.930 . S
C210 O224 1.275 . S
C210 O225 1.256 . S
C211 O226 1.259 1_556 S
C211 O227 1.268 . S
C212 Ho201 2.811 1_556 S
C212 C213 1.488 . S
C212 O228 1.215 1_556 S
C212 O229 1.289 . S
C213 C212 1.488 . S
C213 C214 1.348 . S
C213 C218 1.413 1_556 S
C214 C213 1.348 . S
C214 C215 1.442 . S
C214 H236 0.930 . S
C215 C214 1.442 . S
C215 C216 1.381 . S
C215 H237 0.931 . S
C216 C215 1.381 . S
C216 C217 1.321 1_556 S
C217 C216 1.321 1_554 S
C217 C218 1.403 . S
C217 H238 0.934 . S
C218 C213 1.413 1_554 S
C218 C217 1.403 . S
C218 H239 0.930 . S
C219 O230 1.275 . S
C219 O231 1.256 . S
O220 Ho200 2.322 . S
O220 C202 1.259 1_556 S
O221 Ho201 2.346 . S
O221 C202 1.268 . S
O222 Ho200 2.378 . S
O222 C203 1.215 1_556 S
O223 Ho200 2.524 1_554 S
O223 C203 1.289 . S
O224 Ho200 2.381 . S
O224 C210 1.275 . S
O225 Ho200 2.669 . S
O225 Ho201 2.305 1_556 S
O225 C210 1.256 . S
O226 Ho201 2.322 . S
O226 C211 1.259 1_554 S
O227 Ho200 2.346 . S
O227 C211 1.268 . S
O228 Ho201 2.378 . S
O228 C212 1.215 1_554 S
O229 Ho201 2.524 1_556 S
O229 C212 1.289 . S
O230 Ho201 2.381 . S
O230 C219 1.275 . S
O231 Ho200 2.305 1_554 S
O231 Ho201 2.669 . S
O231 C219 1.256 . S
H232 C205 0.930 . S
H233 C206 0.925 1_545 S
H234 C208 0.934 . S
H235 C209 0.930 . S
H236 C214 0.930 . S
H237 C215 0.931 . S
H238 C217 0.934 . S
H239 C218 0.930 . S
H240 C248 0.950 . S
H241 C253 0.950 . S
H242 C250 0.950 . S
H243 C252 0.950 . S
H244 C254 0.950 . S
H245 C256 0.950 . S
H246 C258 0.950 . S
H247 C259 0.950 . S
C248 H240 0.950 . S
C248 C249 1.386 . S
C248 C250 1.391 . S
C249 C248 1.386 . S
C249 C253 1.393 . S
C250 H242 0.950 . S
C250 C248 1.391 . S
C250 C251 1.400 . S
C251 C250 1.400 . S
C251 C252 1.398 . S
C251 C257 1.491 . S
C252 H243 0.950 . S
C252 C251 1.398 . S
C252 C253 1.391 . S
C253 H241 0.950 . S
C253 C249 1.393 . S
C253 C252 1.391 . S
C254 H244 0.950 . S
C254 C255 1.386 . S
C254 C256 1.391 . S
C255 C254 1.386 . S
C255 C259 1.393 . S
C256 H245 0.950 . S
C256 C254 1.391 . S
C256 C257 1.400 . S
C257 C251 1.491 . S
C257 C256 1.400 . S
C257 C258 1.398 . S
C258 H246 0.950 . S
C258 C257 1.398 . S
C258 C259 1.391 . S
C259 H247 0.950 . S
C259 C255 1.393 . S
C259 C258 1.391 . S
H260 C268 0.950 . S
H261 C273 0.950 . S
H262 C270 0.950 . S
H263 C272 0.950 . S
H264 C274 0.950 . S
H265 C276 0.950 . S
H266 C278 0.950 . S
H267 C279 0.950 . S
C268 H260 0.950 . S
C268 C269 1.386 . S
C268 C270 1.391 . S
C269 C268 1.386 . S
C269 C273 1.393 . S
C270 H262 0.950 . S
C270 C268 1.391 . S
C270 C271 1.400 . S
C271 C270 1.400 . S
C271 C272 1.398 . S
C271 C277 1.491 . S
C272 H263 0.950 . S
C272 C271 1.398 . S
C272 C273 1.391 . S
C273 H261 0.950 . S
C273 C269 1.393 . S
C273 C272 1.391 . S
C274 H264 0.950 . S
C274 C275 1.386 . S
C274 C276 1.391 . S
C275 C274 1.386 . S
C275 C279 1.393 . S
C276 H265 0.950 . S
C276 C274 1.391 . S
C276 C277 1.400 . S
C277 C271 1.491 . S
C277 C276 1.400 . S
C277 C278 1.398 . S
C278 H266 0.950 . S
C278 C277 1.398 . S
C278 C279 1.391 . S
C279 H267 0.950 . S
C279 C275 1.393 . S
C279 C278 1.391 . S
H280 C288 0.950 . S
H281 C293 0.950 . S
H282 C290 0.950 1_565 S
H283 C292 0.950 . S
H284 C294 0.950 1_545 S
H285 C296 0.950 . S
H286 C298 0.950 . S
H287 C299 0.950 . S
C288 H280 0.950 . S
C288 C289 1.386 . S
C288 C290 1.391 . S
C289 C288 1.386 . S
C289 C293 1.393 . S
C290 H282 0.950 1_545 S
C290 C288 1.391 . S
C290 C291 1.400 . S
C291 C290 1.400 . S
C291 C292 1.398 . S
C291 C297 1.490 . S
C292 H283 0.950 . S
C292 C291 1.398 . S
C292 C293 1.391 . S
C293 H281 0.950 . S
C293 C289 1.393 . S
C293 C292 1.391 . S
C294 H284 0.950 1_565 S
C294 C295 1.386 . S
C294 C296 1.391 1_565 S
C295 C294 1.386 . S
C295 C299 1.393 . S
C296 H285 0.950 . S
C296 C294 1.391 1_545 S
C296 C297 1.401 . S
C297 C291 1.490 . S
C297 C296 1.401 . S
C297 C298 1.398 1_545 S
C298 H286 0.950 . S
C298 C297 1.398 1_565 S
C298 C299 1.391 . S
C299 H287 0.950 . S
C299 C295 1.393 . S
C299 C298 1.391 . S
H300 C308 0.950 . S
H301 C313 0.950 . S
H302 C310 0.950 . S
H303 C312 0.950 . S
H304 C314 0.950 . S
H305 C316 0.950 . S
H306 C318 0.950 . S
H307 C319 0.950 . S
C308 H300 0.950 . S
C308 C309 1.386 . S
C308 C310 1.391 . S
C309 C308 1.386 . S
C309 C313 1.393 . S
C310 H302 0.950 . S
C310 C308 1.391 . S
C310 C311 1.400 . S
C311 C310 1.400 . S
C311 C312 1.398 . S
C311 C317 1.491 . S
C312 H303 0.950 . S
C312 C311 1.398 . S
C312 C313 1.391 . S
C313 H301 0.950 . S
C313 C309 1.393 . S
C313 C312 1.391 . S
C314 H304 0.950 . S
C314 C315 1.386 . S
C314 C316 1.391 . S
C315 C314 1.386 . S
C315 C319 1.393 . S
C316 H305 0.950 . S
C316 C314 1.391 . S
C316 C317 1.400 . S
C317 C311 1.491 . S
C317 C316 1.400 . S
C317 C318 1.398 . S
C318 H306 0.950 . S
C318 C317 1.398 . S
C318 C319 1.391 . S
C319 H307 0.950 . S
C319 C315 1.393 . S
C319 C318 1.391 . S
H320 C328 0.950 . S
H321 C333 0.950 . S
H322 C330 0.950 . S
H323 C332 0.949 1_655 S
H324 C334 0.950 . S
H325 C336 0.950 . S
H326 C338 0.950 . S
H327 C339 0.950 . S
C328 H320 0.950 . S
C328 C329 1.386 . S
C328 C330 1.391 1_455 S
C329 C328 1.386 . S
C329 C333 1.393 . S
C330 H322 0.950 . S
C330 C328 1.391 1_655 S
C330 C331 1.400 . S
C331 C330 1.400 . S
C331 C332 1.400 1_655 S
C331 C337 1.491 . S
C332 H323 0.949 1_455 S
C332 C331 1.400 1_455 S
C332 C333 1.390 . S
C333 H321 0.950 . S
C333 C329 1.393 . S
C333 C332 1.390 . S
C334 H324 0.950 . S
C334 C335 1.386 . S
C334 C336 1.391 . S
C335 C334 1.386 . S
C335 C339 1.393 . S
C336 H325 0.950 . S
C336 C334 1.391 . S
C336 C337 1.400 . S
C337 C331 1.491 . S
C337 C336 1.400 . S
C337 C338 1.398 . S
C338 H326 0.950 . S
C338 C337 1.398 . S
C338 C339 1.391 . S
C339 H327 0.950 . S
C339 C335 1.393 . S
C339 C338 1.391 . S
H340 C348 0.950 . S
H341 C353 0.950 . S
H342 C350 0.950 . S
H343 C352 0.950 . S
H344 C354 0.950 . S
H345 C356 0.950 . S
H346 C358 0.950 . S
H347 C359 0.950 . S
C348 H340 0.950 . S
C348 C349 1.386 . S
C348 C350 1.391 . S
C349 C348 1.386 . S
C349 C353 1.393 . S
C350 H342 0.950 . S
C350 C348 1.391 . S
C350 C351 1.400 . S
C351 C350 1.400 . S
C351 C352 1.398 . S
C351 C357 1.491 . S
C352 H343 0.950 . S
C352 C351 1.398 . S
C352 C353 1.391 . S
C353 H341 0.950 . S
C353 C349 1.393 . S
C353 C352 1.391 . S
C354 H344 0.950 . S
C354 C355 1.386 . S
C354 C356 1.391 . S
C355 C354 1.386 . S
C355 C359 1.393 . S
C356 H345 0.950 . S
C356 C354 1.391 . S
C356 C357 1.400 . S
C357 C351 1.491 . S
C357 C356 1.400 . S
C357 C358 1.398 . S
C358 H346 0.950 . S
C358 C357 1.398 . S
C358 C359 1.391 . S
C359 H347 0.950 . S
C359 C355 1.393 . S
C359 C358 1.391 . S
H360 C368 0.950 . S
H361 C373 0.950 . S
H362 C370 0.950 . S
H363 C372 0.950 . S
H364 C374 0.950 . S
H365 C376 0.950 . S
H366 C378 0.950 1_556 S
H367 C379 0.950 1_556 S
C368 H360 0.950 . S
C368 C369 1.386 1_556 S
C368 C370 1.391 . S
C369 C368 1.386 1_554 S
C369 C373 1.393 . S
C370 H362 0.950 . S
C370 C368 1.391 . S
C370 C371 1.400 1_556 S
C371 C370 1.400 1_554 S
C371 C372 1.398 . S
C371 C377 1.491 . S
C372 H363 0.950 . S
C372 C371 1.398 . S
C372 C373 1.391 . S
C373 H361 0.950 . S
C373 C369 1.393 . S
C373 C372 1.391 . S
C374 H364 0.950 . S
C374 C375 1.386 . S
C374 C376 1.391 . S
C375 C374 1.386 . S
C375 C379 1.393 . S
C376 H365 0.950 . S
C376 C374 1.391 . S
C376 C377 1.400 . S
C377 C371 1.491 . S
C377 C376 1.400 . S
C377 C378 1.398 . S
C378 H366 0.950 1_554 S
C378 C377 1.398 . S
C378 C379 1.391 . S
C379 H367 0.950 1_554 S
C379 C375 1.393 . S
C379 C378 1.391 . S
H380 C388 0.950 . S
H381 C393 0.950 1_554 S
H382 C390 0.950 . S
H383 C392 0.950 1_554 S
H384 C394 0.950 . S
H385 C396 0.950 . S
H386 C398 0.950 . S
H387 C399 0.950 . S
C388 H380 0.950 . S
C388 C389 1.386 . S
C388 C390 1.391 . S
C389 C388 1.386 . S
C389 C393 1.393 . S
C390 H382 0.950 . S
C390 C388 1.391 . S
C390 C391 1.400 . S
C391 C390 1.400 . S
C391 C392 1.398 . S
C391 C397 1.491 . S
C392 H383 0.950 1_556 S
C392 C391 1.398 . S
C392 C393 1.391 . S
C393 H381 0.950 1_556 S
C393 C389 1.393 . S
C393 C392 1.391 . S
C394 H384 0.950 . S
C394 C395 1.386 . S
C394 C396 1.391 . S
C395 C394 1.386 . S
C395 C399 1.393 . S
C396 H385 0.950 . S
C396 C394 1.391 . S
C396 C397 1.400 . S
C397 C391 1.491 . S
C397 C396 1.400 . S
C397 C398 1.398 . S
C398 H386 0.950 . S
C398 C397 1.398 . S
C398 C399 1.391 . S
C399 H387 0.950 . S
C399 C395 1.393 . S
C399 C398 1.391 . S
H400 C408 0.950 1_556 S
H401 C413 0.950 . S
H402 C410 0.950 1_556 S
H403 C412 0.950 . S
H404 C414 0.950 . S
H405 C416 0.950 . S
H406 C418 0.950 . S
H407 C419 0.950 . S
C408 H400 0.950 1_554 S
C408 C409 1.386 . S
C408 C410 1.391 . S
C409 C408 1.386 . S
C409 C413 1.393 . S
C410 H402 0.950 1_554 S
C410 C408 1.391 . S
C410 C411 1.400 . S
C411 C410 1.400 . S
C411 C412 1.398 . S
C411 C417 1.491 . S
C412 H403 0.950 . S
C412 C411 1.398 . S
C412 C413 1.391 . S
C413 H401 0.950 . S
C413 C409 1.393 . S
C413 C412 1.391 . S
C414 H404 0.950 . S
C414 C415 1.386 . S
C414 C416 1.391 . S
C415 C414 1.386 . S
C415 C419 1.393 1_554 S
C416 H405 0.950 . S
C416 C414 1.391 . S
C416 C417 1.400 . S
C417 C411 1.491 . S
C417 C416 1.400 . S
C417 C418 1.398 1_554 S
C418 H406 0.950 . S
C418 C417 1.398 1_556 S
C418 C419 1.391 . S
C419 H407 0.950 . S
C419 C415 1.393 1_556 S
C419 C418 1.391 . S
H420 C428 0.950 . S
H421 C433 0.950 . S
H422 C430 0.950 . S
H423 C432 0.950 1_554 S
H424 C434 0.950 . S
H425 C436 0.950 . S
H426 C438 0.950 . S
H427 C439 0.950 . S
C428 H420 0.950 . S
C428 C429 1.386 . S
C428 C430 1.391 . S
C429 C428 1.386 . S
C429 C433 1.393 . S
C430 H422 0.950 . S
C430 C428 1.391 . S
C430 C431 1.400 . S
C431 C430 1.400 . S
C431 C432 1.398 . S
C431 C437 1.491 . S
C432 H423 0.950 1_556 S
C432 C431 1.398 . S
C432 C433 1.391 . S
C433 H421 0.950 . S
C433 C429 1.393 . S
C433 C432 1.391 . S
C434 H424 0.950 . S
C434 C435 1.386 1_554 S
C434 C436 1.391 . S
C435 C434 1.386 1_556 S
C435 C439 1.393 . S
C436 H425 0.950 . S
C436 C434 1.391 . S
C436 C437 1.400 1_554 S
C437 C431 1.491 . S
C437 C436 1.400 1_556 S
C437 C438 1.398 . S
C438 H426 0.950 . S
C438 C437 1.398 . S
C438 C439 1.391 . S
C439 H427 0.950 . S
C439 C435 1.393 . S
C439 C438 1.391 . S
H440 C448 0.950 . S
H441 C453 0.950 . S
H442 C450 0.950 . S
H443 C452 0.950 . S
H444 C454 0.950 . S
H445 C456 0.950 . S
H446 C458 0.950 . S
H447 C459 0.950 . S
C448 H440 0.950 . S
C448 C449 1.386 . S
C448 C450 1.391 . S
C449 C448 1.386 . S
C449 C453 1.393 . S
C450 H442 0.950 . S
C450 C448 1.391 . S
C450 C451 1.400 . S
C451 C450 1.400 . S
C451 C452 1.398 . S
C451 C457 1.491 . S
C452 H443 0.950 . S
C452 C451 1.398 . S
C452 C453 1.391 . S
C453 H441 0.950 . S
C453 C449 1.393 . S
C453 C452 1.391 . S
C454 H444 0.950 . S
C454 C455 1.386 . S
C454 C456 1.391 . S
C455 C454 1.386 . S
C455 C459 1.393 . S
C456 H445 0.950 . S
C456 C454 1.391 . S
C456 C457 1.400 . S
C457 C451 1.491 . S
C457 C456 1.400 . S
C457 C458 1.398 . S
C458 H446 0.950 . S
C458 C457 1.398 . S
C458 C459 1.391 . S
C459 H447 0.950 . S
C459 C455 1.393 . S
C459 C458 1.391 . S
H460 C468 0.950 . S
H461 C473 0.950 . S
H462 C470 0.950 . S
H463 C472 0.950 . S
H464 C474 0.950 1_554 S
H465 C476 0.950 1_554 S
H466 C478 0.950 . S
H467 C479 0.950 . S
C468 H460 0.950 . S
C468 C469 1.386 . S
C468 C470 1.391 . S
C469 C468 1.386 . S
C469 C473 1.393 1_556 S
C470 H462 0.950 . S
C470 C468 1.391 . S
C470 C471 1.400 . S
C471 C470 1.400 . S
C471 C472 1.398 1_556 S
C471 C477 1.491 . S
C472 H463 0.950 . S
C472 C471 1.398 1_554 S
C472 C473 1.391 . S
C473 H461 0.950 . S
C473 C469 1.393 1_554 S
C473 C472 1.391 . S
C474 H464 0.950 1_556 S
C474 C475 1.386 . S
C474 C476 1.391 . S
C475 C474 1.386 . S
C475 C479 1.393 . S
C476 H465 0.950 1_556 S
C476 C474 1.391 . S
C476 C477 1.400 . S
C477 C471 1.491 . S
C477 C476 1.400 . S
C477 C478 1.398 . S
C478 H466 0.950 . S
C478 C477 1.398 . S
C478 C479 1.391 . S
C479 H467 0.950 . S
C479 C475 1.393 . S
C479 C478 1.391 . S
H480 C488 0.950 . S
H481 C493 0.950 . S
H482 C490 0.950 . S
H483 C492 0.950 . S
H484 C494 0.950 . S
H485 C496 0.950 . S
H486 C498 0.950 . S
H487 C499 0.950 . S
C488 H480 0.950 . S
C488 C489 1.386 . S
C488 C490 1.391 . S
C489 C488 1.386 . S
C489 C493 1.393 . S
C490 H482 0.950 . S
C490 C488 1.391 . S
C490 C491 1.400 . S
C491 C490 1.400 . S
C491 C492 1.398 . S
C491 C497 1.491 . S
C492 H483 0.950 . S
C492 C491 1.398 . S
C492 C493 1.391 . S
C493 H481 0.950 . S
C493 C489 1.393 . S
C493 C492 1.391 . S
C494 H484 0.950 . S
C494 C495 1.386 . S
C494 C496 1.391 . S
C495 C494 1.386 . S
C495 C499 1.393 . S
C496 H485 0.950 . S
C496 C494 1.391 . S
C496 C497 1.400 . S
C497 C491 1.491 . S
C497 C496 1.400 . S
C497 C498 1.398 . S
C498 H486 0.950 . S
C498 C497 1.398 . S
C498 C499 1.391 . S
C499 H487 0.950 . S
C499 C495 1.393 . S
C499 C498 1.391 . S
H500 C508 0.950 . S
H501 C513 0.950 . S
H502 C510 0.950 . S
H503 C512 0.950 . S
H504 C514 0.950 . S
H505 C516 0.950 . S
H506 C518 0.950 . S
H507 C519 0.950 . S
C508 H500 0.950 . S
C508 C509 1.386 . S
C508 C510 1.391 . S
C509 C508 1.386 . S
C509 C513 1.393 . S
C510 H502 0.950 . S
C510 C508 1.391 . S
C510 C511 1.400 . S
C511 C510 1.400 . S
C511 C512 1.398 . S
C511 C517 1.491 . S
C512 H503 0.950 . S
C512 C511 1.398 . S
C512 C513 1.391 . S
C513 H501 0.950 . S
C513 C509 1.393 . S
C513 C512 1.391 . S
C514 H504 0.950 . S
C514 C515 1.386 . S
C514 C516 1.391 . S
C515 C514 1.386 . S
C515 C519 1.393 . S
C516 H505 0.950 . S
C516 C514 1.391 . S
C516 C517 1.400 . S
C517 C511 1.491 . S
C517 C516 1.400 . S
C517 C518 1.398 . S
C518 H506 0.950 . S
C518 C517 1.398 . S
C518 C519 1.391 . S
C519 H507 0.950 . S
C519 C515 1.393 . S
C519 C518 1.391 . S
H520 C528 0.950 . S
H521 C533 0.950 . S
H522 C530 0.950 . S
H523 C532 0.950 . S
H524 C534 0.950 . S
H525 C536 0.950 . S
H526 C538 0.950 . S
H527 C539 0.950 . S
C528 H520 0.950 . S
C528 C529 1.386 . S
C528 C530 1.391 . S
C529 C528 1.386 . S
C529 C533 1.393 . S
C530 H522 0.950 . S
C530 C528 1.391 . S
C530 C531 1.400 . S
C531 C530 1.400 . S
C531 C532 1.398 . S
C531 C537 1.491 . S
C532 H523 0.950 . S
C532 C531 1.398 . S
C532 C533 1.391 . S
C533 H521 0.950 . S
C533 C529 1.393 . S
C533 C532 1.391 . S
C534 H524 0.950 . S
C534 C535 1.386 . S
C534 C536 1.391 . S
C535 C534 1.386 . S
C535 C539 1.393 . S
C536 H525 0.950 . S
C536 C534 1.391 . S
C536 C537 1.400 . S
C537 C531 1.491 . S
C537 C536 1.400 . S
C537 C538 1.398 . S
C538 H526 0.950 . S
C538 C537 1.398 . S
C538 C539 1.391 . S
C539 H527 0.950 . S
C539 C535 1.393 . S
C539 C538 1.391 . S
H540 C548 0.950 . S
H541 C553 0.950 . S
H542 C550 0.950 . S
H543 C552 0.950 . S
H544 C554 0.950 . S
H545 C556 0.950 . S
H546 C558 0.950 . S
H547 C559 0.950 . S
C548 H540 0.950 . S
C548 C549 1.386 . S
C548 C550 1.391 . S
C549 C548 1.386 . S
C549 C553 1.393 . S
C550 H542 0.950 . S
C550 C548 1.391 . S
C550 C551 1.400 . S
C551 C550 1.400 . S
C551 C552 1.398 . S
C551 C557 1.491 . S
C552 H543 0.950 . S
C552 C551 1.398 . S
C552 C553 1.391 . S
C553 H541 0.950 . S
C553 C549 1.393 . S
C553 C552 1.391 . S
C554 H544 0.950 . S
C554 C555 1.386 . S
C554 C556 1.391 . S
C555 C554 1.386 . S
C555 C559 1.393 . S
C556 H545 0.950 . S
C556 C554 1.391 . S
C556 C557 1.400 . S
C557 C551 1.491 . S
C557 C556 1.400 . S
C557 C558 1.398 . S
C558 H546 0.950 . S
C558 C557 1.398 . S
C558 C559 1.391 . S
C559 H547 0.950 . S
C559 C555 1.393 . S
C559 C558 1.391 . S
H560 C568 0.950 . S
H561 C573 0.950 . S
H562 C570 0.950 . S
H563 C572 0.950 . S
H564 C574 0.950 . S
H565 C576 0.950 . S
H566 C578 0.950 . S
H567 C579 0.950 . S
C568 H560 0.950 . S
C568 C569 1.386 . S
C568 C570 1.391 . S
C569 C568 1.386 . S
C569 C573 1.393 . S
C570 H562 0.950 . S
C570 C568 1.391 . S
C570 C571 1.400 . S
C571 C570 1.400 . S
C571 C572 1.398 . S
C571 C577 1.491 . S
C572 H563 0.950 . S
C572 C571 1.398 . S
C572 C573 1.391 . S
C573 H561 0.950 . S
C573 C569 1.393 . S
C573 C572 1.391 . S
C574 H564 0.950 . S
C574 C575 1.386 . S
C574 C576 1.391 . S
C575 C574 1.386 . S
C575 C579 1.393 . S
C576 H565 0.950 . S
C576 C574 1.391 . S
C576 C577 1.400 . S
C577 C571 1.491 . S
C577 C576 1.400 . S
C577 C578 1.398 . S
C578 H566 0.950 . S
C578 C577 1.398 . S
C578 C579 1.391 . S
C579 H567 0.950 . S
C579 C575 1.393 . S
C579 C578 1.391 . S
H580 C588 0.950 . S
H581 C593 0.950 . S
H582 C590 0.950 . S
H583 C592 0.950 . S
H584 C594 0.950 . S
H585 C596 0.950 . S
H586 C598 0.950 . S
H587 C599 0.950 . S
C588 H580 0.950 . S
C588 C589 1.386 . S
C588 C590 1.391 . S
C589 C588 1.386 . S
C589 C593 1.393 . S
C590 H582 0.950 . S
C590 C588 1.391 . S
C590 C591 1.400 . S
C591 C590 1.400 . S
C591 C592 1.398 . S
C591 C597 1.491 . S
C592 H583 0.950 . S
C592 C591 1.398 . S
C592 C593 1.391 . S
C593 H581 0.950 . S
C593 C589 1.393 . S
C593 C592 1.391 . S
C594 H584 0.950 . S
C594 C595 1.386 . S
C594 C596 1.391 . S
C595 C594 1.386 . S
C595 C599 1.393 . S
C596 H585 0.950 . S
C596 C594 1.391 . S
C596 C597 1.400 . S
C597 C591 1.491 . S
C597 C596 1.400 . S
C597 C598 1.398 . S
C598 H586 0.950 . S
C598 C597 1.398 . S
C598 C599 1.391 . S
C599 H587 0.950 . S
C599 C595 1.393 . S
C599 C598 1.391 . S
C249 C202 3.703 . S
C255 C7 3.624 . S
C269 C2 3.556 . S
C275 C47 3.356 1_455 S
C289 C42 3.074 . S
C295 C82 3.041 . S
C309 C127 2.391 . S
C315 C87 2.260 . S
C329 C167 2.817 . S
C335 C122 3.231 . S
C349 C162 2.589 . S
C355 C207 2.520 . S
C369 C171 2.476 . S
C375 C16 2.411 . S
C389 C211 3.218 . S
C395 C56 3.207 . S
C409 C91 3.705 . S
C415 C11 3.730 . S
C429 C136 2.005 . S
C435 C51 2.105 1_556 S
C449 C176 0.863 . S
C455 C96 0.843 . S
C469 C131 1.220 . S
C475 C216 1.255 . S
C489 C10 0.530 . S
C495 C19 0.530 . S
C509 C50 0.528 . S
C515 C59 0.528 . S
C529 C99 0.481 . S
C535 C90 0.481 . S
C549 C130 0.317 . S
C555 C139 0.317 . S
C569 C179 0.632 . S
C575 C170 0.632 . S
C589 C210 0.423 . S
C595 C219 0.423 . S
