# Generated by pormake.
# Topology qtz-a, (4)-cn, num edge types: 1
# Building blocks:
#     Node 0, Type 0, BuildingBlock: NAHDIM_clean_sbu_0, # of connection points: 4
#     Node 1, Type 0, BuildingBlock: NAHDIM_clean_sbu_0, # of connection points: 4
#     Node 2, Type 0, BuildingBlock: NAHDIM_clean_sbu_0, # of connection points: 4
#     Node 3, Type 0, BuildingBlock: NAHDIM_clean_sbu_0, # of connection points: 4
#     Node 4, Type 0, BuildingBlock: NAHDIM_clean_sbu_0, # of connection points: 4
#     Node 5, Type 0, BuildingBlock: NAHDIM_clean_sbu_0, # of connection points: 4
#     Node 6, Type 0, BuildingBlock: NAHDIM_clean_sbu_0, # of connection points: 4
#     Node 7, Type 0, BuildingBlock: NAHDIM_clean_sbu_0, # of connection points: 4
#     Node 8, Type 0, BuildingBlock: NAHDIM_clean_sbu_0, # of connection points: 4
#     Node 9, Type 0, BuildingBlock: NAHDIM_clean_sbu_0, # of connection points: 4
#     Node 10, Type 0, BuildingBlock: NAHDIM_clean_sbu_0, # of connection points: 4
#     Node 11, Type 0, BuildingBlock: NAHDIM_clean_sbu_0, # of connection points: 4
#     Edge 12, Type (0, 0), BuildingBlock: XIVTED_clean_linker_0, # of connection points: 2
#     Edge 13, Type (0, 0), BuildingBlock: XIVTED_clean_linker_0, # of connection points: 2
#     Edge 14, Type (0, 0), BuildingBlock: XIVTED_clean_linker_0, # of connection points: 2
#     Edge 15, Type (0, 0), BuildingBlock: XIVTED_clean_linker_0, # of connection points: 2
#     Edge 16, Type (0, 0), BuildingBlock: XIVTED_clean_linker_0, # of connection points: 2
#     Edge 17, Type (0, 0), BuildingBlock: XIVTED_clean_linker_0, # of connection points: 2
#     Edge 18, Type (0, 0), BuildingBlock: XIVTED_clean_linker_0, # of connection points: 2
#     Edge 19, Type (0, 0), BuildingBlock: XIVTED_clean_linker_0, # of connection points: 2
#     Edge 20, Type (0, 0), BuildingBlock: XIVTED_clean_linker_0, # of connection points: 2
#     Edge 21, Type (0, 0), BuildingBlock: XIVTED_clean_linker_0, # of connection points: 2
#     Edge 22, Type (0, 0), BuildingBlock: XIVTED_clean_linker_0, # of connection points: 2
#     Edge 23, Type (0, 0), BuildingBlock: XIVTED_clean_linker_0, # of connection points: 2
#     Edge 24, Type (0, 0), BuildingBlock: XIVTED_clean_linker_0, # of connection points: 2
#     Edge 25, Type (0, 0), BuildingBlock: XIVTED_clean_linker_0, # of connection points: 2
#     Edge 26, Type (0, 0), BuildingBlock: XIVTED_clean_linker_0, # of connection points: 2
#     Edge 27, Type (0, 0), BuildingBlock: XIVTED_clean_linker_0, # of connection points: 2
#     Edge 28, Type (0, 0), BuildingBlock: XIVTED_clean_linker_0, # of connection points: 2
#     Edge 29, Type (0, 0), BuildingBlock: XIVTED_clean_linker_0, # of connection points: 2
#     Edge 30, Type (0, 0), BuildingBlock: XIVTED_clean_linker_0, # of connection points: 2
#     Edge 31, Type (0, 0), BuildingBlock: XIVTED_clean_linker_0, # of connection points: 2
#     Edge 32, Type (0, 0), BuildingBlock: XIVTED_clean_linker_0, # of connection points: 2
#     Edge 33, Type (0, 0), BuildingBlock: XIVTED_clean_linker_0, # of connection points: 2
#     Edge 34, Type (0, 0), BuildingBlock: XIVTED_clean_linker_0, # of connection points: 2
#     Edge 35, Type (0, 0), BuildingBlock: XIVTED_clean_linker_0, # of connection points: 2
# Relax obj value: 0.793
# Max RMSD: 0.440
# Mean RMSD: 0.311
data_MOF--net-qtz-a--node1-NAHDIM_clean_sbu_0--edge1-XIVTED_clean_linker_0
_symmetry_space_group_name_H-M    P1
_symmetry_Int_Tables_number       1
_symmetry_cell_setting            triclinic
loop_
_symmetry_equiv_pos_as_xyz
'x, y, z'
_cell_length_a     49.756864
_cell_length_b     38.592809
_cell_length_c     41.625666
_cell_angle_alpha  90.130994
_cell_angle_beta   102.79771
_cell_angle_gamma 112.6955
loop_
_atom_site_label
_atom_site_type_symbol
_atom_site_fract_x
_atom_site_fract_y
_atom_site_fract_z
_atom_type_partial_charge
C0 C 0.45827 0.09825 0.16841 0.0
O1 O 0.48345 0.10737 0.19124 0.0
O2 O 0.50859 0.04836 0.15511 0.0
Zn3 Zn 0.49418 0.08482 0.12918 0.0
O4 O 0.52539 0.1376 0.13279 0.0
C5 C 0.48199 0.08472 0.05734 0.0
O6 O 0.4784 0.1161 0.06241 0.0
O7 O 0.457 0.08647 0.13937 0.0
C8 C 0.55065 0.14188 0.12766 0.0
O9 O 0.5571 0.11211 0.12569 0.0
C10 C 0.53206 0.05533 0.17816 0.0
O11 O 0.54889 0.09039 0.19043 0.0
O12 O 0.48667 0.0662 0.08165 0.0
C13 C 0.28867 0.51108 0.42723 0.0
O14 O 0.30382 0.48949 0.43298 0.0
O15 O 0.36576 0.55064 0.47057 0.0
Zn16 Zn 0.34686 0.56772 0.4289 0.0
O17 O 0.36084 0.62481 0.43438 0.0
C18 C 0.37566 0.53222 0.39422 0.0
O19 O 0.39573 0.5412 0.42265 0.0
O20 O 0.30248 0.54586 0.42436 0.0
C21 C 0.36945 0.65279 0.41755 0.0
O22 O 0.37772 0.68681 0.43204 0.0
C23 C 0.38932 0.5723 0.49143 0.0
O24 O 0.40151 0.60821 0.48694 0.0
O25 O 0.35443 0.54359 0.39034 0.0
C26 C 0.91687 0.31848 0.84165 0.0
O27 O 0.9438 0.3374 0.86063 0.0
O28 O 0.97705 0.39264 0.8163 0.0
Zn29 Zn 0.94438 0.34749 0.78713 0.0
O30 O 0.92436 0.37159 0.75256 0.0
C31 C 0.98544 0.32607 0.75993 0.0
O32 O 0.00634 0.3549 0.77982 0.0
O33 O 0.91304 0.31714 0.81041 0.0
C34 C 0.94082 0.39371 0.73565 0.0
O35 O 0.96897 0.39795 0.74059 0.0
C36 C 0.9667 0.41462 0.82702 0.0
O37 O 0.93746 0.40315 0.82227 0.0
O38 O 0.95834 0.31606 0.76164 0.0
C39 C 0.68762 0.82682 0.13284 0.0
O40 O 0.71008 0.81716 0.14535 0.0
O41 O 0.64621 0.89417 0.13711 0.0
Zn42 Zn 0.66338 0.88095 0.10123 0.0
O43 O 0.63089 0.85325 0.06031 0.0
C44 C 0.69774 0.96135 0.10387 0.0
O45 O 0.69734 0.96105 0.13532 0.0
O46 O 0.69255 0.85668 0.11815 0.0
C47 C 0.61103 0.86668 0.05137 0.0
O48 O 0.61204 0.89502 0.06982 0.0
C49 C 0.6201 0.87686 0.14186 0.0
O50 O 0.60245 0.84432 0.12472 0.0
O51 O 0.68611 0.93036 0.08555 0.0
C52 C 0.6005 0.42688 0.52149 0.0
O53 O 0.5822 0.40225 0.49644 0.0
O54 O 0.53087 0.45244 0.55695 0.0
Zn55 Zn 0.54517 0.42603 0.52684 0.0
O56 O 0.52133 0.36985 0.51689 0.0
C57 C 0.51896 0.46037 0.47352 0.0
O58 O 0.50201 0.46133 0.49334 0.0
O59 O 0.58947 0.43993 0.54088 0.0
C60 C 0.49287 0.35795 0.50885 0.0
O61 O 0.48027 0.38183 0.51111 0.0
C62 C 0.51251 0.43883 0.57505 0.0
O63 O 0.50336 0.40283 0.57962 0.0
O64 O 0.5387 0.44683 0.48278 0.0
C65 C 0.17562 0.74336 0.80101 0.0
O66 O 0.16292 0.70766 0.80596 0.0
O67 O 0.09742 0.69748 0.80488 0.0
Zn68 Zn 0.11582 0.72605 0.76948 0.0
O69 O 0.11534 0.68554 0.7388 0.0
C70 C 0.07393 0.7652 0.74888 0.0
O71 O 0.06964 0.76404 0.77895 0.0
O72 O 0.1591 0.75977 0.78682 0.0
C73 C 0.11501 0.68866 0.70837 0.0
O74 O 0.11518 0.71991 0.69579 0.0
C75 C 0.06933 0.67792 0.79788 0.0
O76 O 0.05271 0.68145 0.76984 0.0
O77 O 0.09215 0.75237 0.74188 0.0
C78 C 0.8159 0.56186 0.51565 0.0
O79 O 0.82999 0.54239 0.50644 0.0
O80 O 0.88689 0.60093 0.49452 0.0
Zn81 Zn 0.87558 0.61322 0.53533 0.0
O82 O 0.88722 0.57973 0.56719 0.0
C83 C 0.91903 0.69354 0.55062 0.0
O84 O 0.92488 0.69138 0.52159 0.0
O85 O 0.83098 0.59592 0.52783 0.0
C86 C 0.87383 0.56544 0.5896 0.0
O87 O 0.85113 0.57318 0.59329 0.0
C88 C 0.91361 0.60343 0.49799 0.0
O89 O 0.9338 0.62176 0.52506 0.0
O90 O 0.89847 0.66571 0.55859 0.0
C91 C 0.39428 0.85251 0.80521 0.0
O92 O 0.4105 0.83307 0.81601 0.0
O93 O 0.45886 0.90896 0.75413 0.0
Zn94 Zn 0.45128 0.90953 0.80006 0.0
O95 O 0.47049 0.88052 0.83054 0.0
C96 C 0.4896 0.97434 0.84632 0.0
O97 O 0.50896 0.9587 0.84727 0.0
O98 O 0.40676 0.88504 0.79599 0.0
C99 C 0.49353 0.87384 0.83027 0.0
O100 O 0.50736 0.88494 0.80636 0.0
C101 C 0.47984 0.93132 0.7422 0.0
O102 O 0.48112 0.92281 0.71218 0.0
O103 O 0.46449 0.96044 0.82517 0.0
C104 C 0.28962 0.14845 0.22339 0.0
O105 O 0.26177 0.12422 0.21223 0.0
O106 O 0.35251 0.23792 0.21479 0.0
Zn107 Zn 0.33623 0.22103 0.25465 0.0
O108 O 0.36493 0.20994 0.29121 0.0
C109 C 0.33049 0.29384 0.25887 0.0
O110 O 0.32368 0.28969 0.22636 0.0
O111 O 0.29499 0.17863 0.24072 0.0
C112 C 0.3555 0.20057 0.31719 0.0
O113 O 0.32722 0.19334 0.31605 0.0
C114 C 0.3795 0.26147 0.2192 0.0
O115 O 0.39733 0.26787 0.24898 0.0
O116 O 0.33437 0.26744 0.27491 0.0
C117 C 0.08323 0.43033 0.46305 0.0
O118 O 0.07074 0.45495 0.4591 0.0
O119 O 0.00874 0.41137 0.47423 0.0
Zn120 Zn 0.04425 0.40679 0.50525 0.0
O121 O 0.06362 0.45645 0.53337 0.0
C122 C 0.01204 0.33735 0.53719 0.0
O123 O 0.98909 0.32631 0.51128 0.0
O124 O 0.07429 0.40408 0.48139 0.0
C125 C 0.07837 0.46042 0.56321 0.0
O126 O 0.0826 0.43142 0.57626 0.0
C127 C 0.98717 0.41147 0.48575 0.0
O128 O 0.98583 0.40122 0.51562 0.0
O129 O 0.03496 0.36723 0.53731 0.0
C130 C 0.73497 0.26151 0.93058 0.0
O131 O 0.73707 0.26245 0.96261 0.0
O132 O 0.63859 0.18372 0.89435 0.0
Zn133 Zn 0.67454 0.21635 0.92995 0.0
O134 O 0.66515 0.24796 0.96059 0.0
C135 C 0.69638 0.18487 0.98879 0.0
O136 O 0.69868 0.21564 0.00479 0.0
O137 O 0.70928 0.24555 0.91084 0.0
C138 C 0.63936 0.24847 0.95768 0.0
O139 O 0.6186 0.23274 0.93029 0.0
C140 C 0.64356 0.16042 0.87737 0.0
O141 O 0.67108 0.16205 0.88259 0.0
O142 O 0.68685 0.17977 0.95748 0.0
C143 C 0.49103 0.63539 0.15561 0.0
O144 O 0.4681 0.61889 0.13023 0.0
O145 O 0.44554 0.53127 0.16611 0.0
Zn146 Zn 0.45684 0.57899 0.19489 0.0
O147 O 0.42185 0.59072 0.19987 0.0
C148 C 0.48862 0.54963 0.24757 0.0
O149 O 0.49793 0.53847 0.22388 0.0
O150 O 0.49029 0.62296 0.18376 0.0
C151 C 0.42787 0.62394 0.21177 0.0
O152 O 0.45445 0.6503 0.21261 0.0
C153 C 0.4186 0.50813 0.15471 0.0
O154 O 0.39668 0.51804 0.15745 0.0
O155 O 0.47208 0.56804 0.24073 0.0
H156 H 0.5304 0.19145 0.09444 0.0
H157 H 0.67461 0.26895 0.02093 0.0
H158 H 0.61031 0.16983 0.12908 0.0
H159 H 0.58421 0.2433 0.96411 0.0
H160 H 0.65645 0.25963 0.07139 0.0
H161 H 0.55593 0.23629 0.05853 0.0
C162 C 0.55368 0.19719 0.09545 0.0
C163 C 0.56818 0.17647 0.11429 0.0
C164 C 0.64078 0.25711 0.04794 0.0
C165 C 0.59731 0.22761 0.07351 0.0
C166 C 0.65108 0.26245 0.01907 0.0
C167 C 0.63067 0.25548 0.98807 0.0
C168 C 0.60997 0.24513 0.0458 0.0
C169 C 0.6006 0.24799 0.98739 0.0
C170 C 0.56812 0.22261 0.07482 0.0
C171 C 0.59825 0.18486 0.11454 0.0
N172 N 0.591 0.24219 0.01581 0.0
N173 N 0.61172 0.20945 0.09404 0.0
H174 H 0.43409 0.69076 0.24112 0.0
H175 H 0.33615 0.59324 0.3697 0.0
H176 H 0.38133 0.57086 0.23279 0.0
H177 H 0.40733 0.70422 0.38673 0.0
H178 H 0.34392 0.5866 0.31396 0.0
H179 H 0.41397 0.69885 0.28761 0.0
C180 C 0.41778 0.6662 0.2486 0.0
C181 C 0.40986 0.63001 0.23343 0.0
C182 C 0.35776 0.61238 0.32996 0.0
C183 C 0.38714 0.63899 0.28712 0.0
C184 C 0.35373 0.61581 0.36188 0.0
C185 C 0.37206 0.64851 0.38327 0.0
C186 C 0.37979 0.64236 0.31929 0.0
C187 C 0.39305 0.6782 0.37124 0.0
C188 C 0.40644 0.67081 0.27532 0.0
C189 C 0.38832 0.59927 0.24398 0.0
N190 N 0.39647 0.67432 0.34019 0.0
N191 N 0.37808 0.60436 0.2706 0.0
H192 H 0.92215 0.54774 0.59095 0.0
H193 H 0.88689 0.40062 0.72645 0.0
H194 H 0.84732 0.52394 0.63587 0.0
H195 H 0.96871 0.43913 0.6926 0.0
H196 H 0.8698 0.44166 0.69026 0.0
H197 H 0.9375 0.50437 0.62523 0.0
C198 C 0.90893 0.53341 0.60806 0.0
C199 C 0.88344 0.53956 0.61063 0.0
C200 C 0.89146 0.44103 0.69072 0.0
C201 C 0.90087 0.48967 0.64988 0.0
C202 C 0.90117 0.4175 0.71125 0.0
C203 C 0.9293 0.41653 0.71258 0.0
C204 C 0.90994 0.46355 0.67128 0.0
C205 C 0.94691 0.43908 0.69245 0.0
C206 C 0.91774 0.50864 0.62764 0.0
C207 C 0.86719 0.52015 0.63319 0.0
N208 N 0.93694 0.46168 0.67266 0.0
N209 N 0.87617 0.496 0.65194 0.0
H210 H 0.55531 0.86706 0.03488 0.0
H211 H 0.54717 0.86502 0.84402 0.0
H212 H 0.61808 0.84022 0.99389 0.0
H213 H 0.47139 0.85146 0.88459 0.0
H214 H 0.57271 0.85238 0.89736 0.0
H215 H 0.52317 0.85801 0.97936 0.0
C216 C 0.56205 0.85864 0.01414 0.0
C217 C 0.58939 0.85458 0.01885 0.0
C218 C 0.55027 0.85152 0.89432 0.0
C219 C 0.55312 0.84504 0.95507 0.0
C220 C 0.53569 0.85876 0.86389 0.0
C221 C 0.5073 0.85996 0.85996 0.0
C222 C 0.53646 0.8459 0.92099 0.0
C223 C 0.49344 0.85143 0.88655 0.0
C224 C 0.5437 0.85343 0.98243 0.0
C225 C 0.59708 0.84353 0.99122 0.0
N226 N 0.50833 0.84537 0.91602 0.0
N227 N 0.5793 0.83987 0.96032 0.0
H228 H 0.43368 0.3155 0.50359 0.0
H229 H 0.41675 0.22337 0.33013 0.0
H230 H 0.51015 0.31687 0.47021 0.0
H231 H 0.34354 0.19327 0.37837 0.0
H232 H 0.45212 0.24934 0.38375 0.0
H233 H 0.40104 0.26304 0.46185 0.0
C234 C 0.44364 0.30408 0.48795 0.0
C235 C 0.47453 0.32079 0.49 0.0
C236 C 0.42835 0.23623 0.38273 0.0
C237 C 0.4373 0.26151 0.44151 0.0
C238 C 0.40812 0.22138 0.35208 0.0
C239 C 0.37709 0.20704 0.34963 0.0
C240 C 0.41741 0.23719 0.41094 0.0
C241 C 0.36724 0.20478 0.37895 0.0
C242 C 0.42502 0.27412 0.46409 0.0
C243 C 0.48638 0.30485 0.4693 0.0
N244 N 0.38729 0.22052 0.40827 0.0
N245 N 0.46764 0.27667 0.4453 0.0
H246 H 0.07591 0.52692 0.54334 0.0
H247 H 0.11962 0.6231 0.7277 0.0
H248 H 0.10249 0.4756 0.63007 0.0
H249 H 0.10628 0.68123 0.64092 0.0
H250 H 0.1142 0.56921 0.69227 0.0
H251 H 0.08793 0.58419 0.57848 0.0
C252 C 0.0845 0.52778 0.56975 0.0
C253 C 0.08804 0.49632 0.58382 0.0
C254 C 0.11264 0.59383 0.68096 0.0
C255 C 0.10164 0.56174 0.62421 0.0
C256 C 0.11566 0.62461 0.70118 0.0
C257 C 0.11324 0.65667 0.68722 0.0
C258 C 0.10692 0.59494 0.64649 0.0
C259 C 0.10825 0.65707 0.65273 0.0
C260 C 0.09137 0.56052 0.5898 0.0
C261 C 0.09934 0.49912 0.61817 0.0
N262 N 0.10505 0.62655 0.63351 0.0
N263 N 0.10551 0.53115 0.63722 0.0
H264 H 0.45987 0.10348 0.99639 0.0
H265 H 0.53496 0.99833 0.90249 0.0
H266 H 0.51062 0.04095 0.04397 0.0
H267 H 0.45378 0.01155 0.85384 0.0
H268 H 0.53563 0.03109 0.95305 0.0
H269 H 0.46554 0.08445 0.94259 0.0
C270 C 0.4722 0.08583 0.99551 0.0
C271 C 0.48446 0.07334 0.02457 0.0
C272 C 0.5179 0.02724 0.93114 0.0
C273 C 0.49171 0.0526 0.96368 0.0
C274 C 0.51759 0.00877 0.90218 0.0
C275 C 0.49392 0.00148 0.87406 0.0
C276 C 0.49457 0.03887 0.93193 0.0
C277 C 0.47221 0.01607 0.87512 0.0
C278 C 0.47546 0.07511 0.96492 0.0
C279 C 0.5004 0.05075 0.02214 0.0
N280 N 0.47285 0.03376 0.90376 0.0
N281 N 0.50365 0.04124 0.99227 0.0
H282 H 0.31664 0.35287 0.23525 0.0
H283 H 0.40942 0.48983 0.40131 0.0
H284 H 0.36107 0.31905 0.32312 0.0
H285 H 0.33737 0.50628 0.33264 0.0
H286 H 0.39997 0.43351 0.36632 0.0
H287 H 0.3308 0.41463 0.26526 0.0
C288 C 0.32927 0.35836 0.26083 0.0
C289 C 0.33744 0.33062 0.27679 0.0
C290 C 0.38639 0.44964 0.35879 0.0
C291 C 0.35426 0.40129 0.31083 0.0
C292 C 0.39191 0.48199 0.37862 0.0
C293 C 0.37384 0.50254 0.37018 0.0
C294 C 0.36284 0.43787 0.33013 0.0
C295 C 0.35161 0.49104 0.34031 0.0
C296 C 0.33738 0.39358 0.27786 0.0
C297 C 0.35398 0.33938 0.30991 0.0
N298 N 0.34658 0.45929 0.32144 0.0
N299 N 0.36196 0.37396 0.32574 0.0
H300 H 0.96148 0.28739 0.55393 0.0
H301 H 0.03986 0.34483 0.7446 0.0
H302 H 0.0567 0.34935 0.59291 0.0
H303 H 0.94531 0.27723 0.70698 0.0
H304 H 0.04798 0.33492 0.69023 0.0
H305 H 0.95654 0.27173 0.60986 0.0
C306 C 0.98144 0.29699 0.57408 0.0
C307 C 0.00943 0.32043 0.56884 0.0
C308 C 0.02552 0.32165 0.69399 0.0
C309 C 0.00391 0.30302 0.63291 0.0
C310 C 0.02089 0.32723 0.72513 0.0
C311 C 0.99177 0.31259 0.73021 0.0
C312 C 0.0008 0.30167 0.66762 0.0
C313 C 0.96811 0.28962 0.7041 0.0
C314 C 0.97861 0.28815 0.60607 0.0
C315 C 0.03455 0.33186 0.59589 0.0
N316 N 0.97304 0.28553 0.67376 0.0
N317 N 0.03112 0.3236 0.62678 0.0
H318 H 0.70152 0.97184 0.03984 0.0
H319 H 0.71282 0.18341 0.05596 0.0
H320 H 0.71329 0.03255 0.13263 0.0
H321 H 0.69588 0.11926 0.9632 0.0
H322 H 0.72043 0.13196 0.08543 0.0
H323 H 0.70751 0.02927 0.01262 0.0
C324 C 0.70578 0.99739 0.05461 0.0
C325 C 0.70646 0.99725 0.08849 0.0
C326 C 0.71531 0.12931 0.05863 0.0
C327 C 0.71301 0.06306 0.05735 0.0
C328 C 0.71094 0.15866 0.04179 0.0
C329 C 0.70335 0.15543 0.00706 0.0
C330 C 0.71204 0.09653 0.04061 0.0
C331 C 0.70138 0.12281 0.98999 0.0
C332 C 0.70913 0.03019 0.03901 0.0
C333 C 0.71235 0.0313 0.1064 0.0
N334 N 0.70548 0.09454 0.00694 0.0
N335 N 0.71501 0.06275 0.09052 0.0
H336 H 0.52472 0.51243 0.2723 0.0
H337 H 0.47995 0.49269 0.4465 0.0
H338 H 0.46696 0.56084 0.29981 0.0
H339 H 0.54873 0.46032 0.42551 0.0
H340 H 0.47345 0.51557 0.39187 0.0
H341 H 0.5328 0.49134 0.32767 0.0
C342 C 0.51386 0.51878 0.29 0.0
C343 C 0.49514 0.53841 0.28139 0.0
C344 C 0.49006 0.50361 0.39927 0.0
C345 C 0.50408 0.51413 0.34463 0.0
C346 C 0.49374 0.49046 0.43045 0.0
C347 C 0.51495 0.4746 0.44063 0.0
C348 C 0.50765 0.5008 0.37804 0.0
C349 C 0.53214 0.47239 0.41872 0.0
C350 C 0.51847 0.50673 0.32159 0.0
C351 C 0.48162 0.54584 0.30535 0.0
N352 N 0.52807 0.48528 0.38844 0.0
N353 N 0.48625 0.53354 0.33579 0.0
H354 H 0.01912 0.76715 0.7477 0.0
H355 H 0.97631 0.74285 0.55106 0.0
H356 H 0.08185 0.78114 0.68697 0.0
H357 H 0.91198 0.70964 0.61148 0.0
H358 H 0.01579 0.77656 0.60021 0.0
H359 H 0.98122 0.76553 0.6982 0.0
C360 C 0.02518 0.77087 0.72413 0.0
C361 C 0.05346 0.77342 0.72132 0.0
C362 C 0.99291 0.76259 0.60258 0.0
C363 C 0.0102 0.77131 0.66465 0.0
C364 C 0.9703 0.74351 0.57445 0.0
C365 C 0.94093 0.72255 0.57731 0.0
C366 C 0.98607 0.76064 0.63371 0.0
C367 C 0.93447 0.72472 0.60827 0.0
C368 C 0.00349 0.76978 0.69584 0.0
C369 C 0.06011 0.77834 0.69015 0.0
N370 N 0.95695 0.74273 0.63537 0.0
N371 N 0.0385 0.77651 0.66297 0.0
H372 H 0.65018 0.94439 0.18038 0.0
H373 H 0.50096 0.97917 0.16293 0.0
H374 H 0.56133 0.85782 0.1436 0.0
H375 H 0.58914 0.06265 0.20871 0.0
H376 H 0.52203 0.93148 0.16418 0.0
H377 H 0.62808 0.98469 0.19942 0.0
C378 C 0.62604 0.93353 0.17686 0.0
C379 C 0.60756 0.89785 0.15983 0.0
C380 C 0.53673 0.96007 0.17448 0.0
C381 C 0.58205 0.94419 0.18122 0.0
C382 C 0.52469 0.98736 0.1738 0.0
C383 C 0.54339 0.02513 0.18527 0.0
C384 C 0.5678 0.97064 0.1863 0.0
C385 C 0.5739 0.03396 0.19938 0.0
C386 C 0.61341 0.95664 0.18772 0.0
C387 C 0.57646 0.88523 0.15629 0.0
N388 N 0.58525 0.00707 0.19895 0.0
N389 N 0.56466 0.90862 0.16634 0.0
H390 H 0.45406 0.41192 0.57976 0.0
H391 H 0.44516 0.60772 0.533 0.0
H392 H 0.53085 0.51531 0.58193 0.0
H393 H 0.3704 0.4995 0.50803 0.0
H394 H 0.47478 0.57764 0.56749 0.0
H395 H 0.42199 0.44744 0.57111 0.0
C396 C 0.46435 0.44228 0.57963 0.0
C397 C 0.49507 0.46065 0.58096 0.0
C398 C 0.45171 0.56061 0.55491 0.0
C399 C 0.45853 0.50123 0.57056 0.0
C400 C 0.43476 0.57777 0.53522 0.0
C401 C 0.40546 0.55595 0.517 0.0
C402 C 0.43928 0.52139 0.55642 0.0
C403 C 0.39309 0.51731 0.52116 0.0
C404 C 0.44598 0.46248 0.57436 0.0
C405 C 0.50716 0.50001 0.58051 0.0
N406 N 0.4102 0.50116 0.54006 0.0
N407 N 0.4888 0.51891 0.57477 0.0
H408 H 0.01133 0.64228 0.80222 0.0
H409 H 0.02738 0.45181 0.83231 0.0
H410 H 0.09857 0.63814 0.8338 0.0
H411 H 0.94958 0.46971 0.84444 0.0
H412 H 0.05528 0.52032 0.83708 0.0
H413 H 0.98894 0.58019 0.8215 0.0
C414 C 0.02583 0.62863 0.81392 0.0
C415 C 0.05676 0.64517 0.81621 0.0
C416 C 0.0323 0.50918 0.83945 0.0
C417 C 0.0313 0.57374 0.83744 0.0
C418 C 0.01636 0.47007 0.83672 0.0
C419 C 0.98592 0.45498 0.83731 0.0
C420 C 0.0175 0.53317 0.84223 0.0
C421 C 0.97286 0.48003 0.84326 0.0
C422 C 0.01308 0.5932 0.82494 0.0
C423 C 0.07459 0.62632 0.83159 0.0
N424 N 0.98851 0.51785 0.84477 0.0
N425 N 0.06151 0.59115 0.84091 0.0
H426 H 0.87392 0.53363 0.46866 0.0
H427 H 0.00428 0.47023 0.44797 0.0
H428 H 0.96682 0.61019 0.48518 0.0
H429 H 0.93156 0.40415 0.49118 0.0
H430 H 0.98191 0.51685 0.43709 0.0
H431 H 0.88711 0.48243 0.45212 0.0
C432 C 0.89688 0.54003 0.46756 0.0
C433 C 0.91944 0.57611 0.47864 0.0
C434 C 0.97046 0.49154 0.44802 0.0
C435 C 0.93443 0.51784 0.45964 0.0
C436 C 0.98304 0.4648 0.45407 0.0
C437 C 0.96986 0.4335 0.47086 0.0
C438 C 0.94426 0.48645 0.45823 0.0
C439 C 0.94253 0.42809 0.47847 0.0
C440 C 0.90436 0.51073 0.45837 0.0
C441 C 0.94885 0.58268 0.47707 0.0
N442 N 0.93074 0.45455 0.47238 0.0
N443 N 0.95559 0.55368 0.46811 0.0
H444 H 0.53937 0.9475 0.75936 0.0
H445 H 0.58286 0.14307 0.86509 0.0
H446 H 0.47403 0.99241 0.76768 0.0
H447 H 0.64751 0.1062 0.83886 0.0
H448 H 0.54232 0.08768 0.83133 0.0
H449 H 0.57924 0.00491 0.79069 0.0
C450 C 0.53354 0.96953 0.76807 0.0
C451 C 0.50357 0.96515 0.76191 0.0
C452 C 0.56541 0.09197 0.83278 0.0
C453 C 0.54878 0.03101 0.79713 0.0
C454 C 0.58855 0.12359 0.85199 0.0
C455 C 0.61865 0.12926 0.85487 0.0
C456 C 0.57248 0.06586 0.81649 0.0
C457 C 0.62468 0.10299 0.83747 0.0
C458 C 0.5562 0.00229 0.78581 0.0
C459 C 0.49697 0.99458 0.77291 0.0
N460 N 0.60184 0.07241 0.81921 0.0
N461 N 0.51943 0.02632 0.79022 0.0
H462 H 0.34345 0.26699 0.16074 0.0
H463 H 0.36402 0.44878 0.13426 0.0
H464 H 0.43348 0.31997 0.22231 0.0
H465 H 0.45926 0.47556 0.15901 0.0
H466 H 0.35455 0.38225 0.1367 0.0
H467 H 0.35264 0.3227 0.13022 0.0
C468 C 0.36537 0.29002 0.16747 0.0
C469 C 0.38743 0.28931 0.19487 0.0
C470 C 0.37752 0.40236 0.14038 0.0
C471 C 0.3977 0.35363 0.16071 0.0
C472 C 0.38294 0.44057 0.13919 0.0
C473 C 0.41247 0.46791 0.14713 0.0
C474 C 0.40186 0.39146 0.14981 0.0
C475 C 0.43609 0.45555 0.1532 0.0
C476 C 0.37044 0.32208 0.15027 0.0
C477 C 0.41555 0.31965 0.20192 0.0
N478 N 0.43028 0.41833 0.15525 0.0
N479 N 0.4197 0.35086 0.18535 0.0
H480 H 0.33647 0.14169 0.26631 0.0
H481 H 0.40547 0.09099 0.12543 0.0
H482 H 0.29696 0.13463 0.1623 0.0
H483 H 0.45216 0.11819 0.22867 0.0
H484 H 0.36391 0.10264 0.13845 0.0
H485 H 0.37785 0.12968 0.25316 0.0
C486 C 0.33709 0.13864 0.24071 0.0
C487 C 0.31421 0.14073 0.21538 0.0
C488 C 0.38324 0.106 0.15824 0.0
C489 C 0.36037 0.12498 0.19985 0.0
C490 C 0.40694 0.09923 0.15086 0.0
C491 C 0.43238 0.10364 0.17601 0.0
C492 C 0.38489 0.11705 0.19103 0.0
C493 C 0.43305 0.11449 0.20848 0.0
C494 C 0.36035 0.13114 0.23313 0.0
C495 C 0.3146 0.1338 0.18248 0.0
N496 N 0.40967 0.12079 0.21504 0.0
N497 N 0.33743 0.12635 0.1756 0.0
H498 H 0.11721 0.38796 0.47027 0.0
H499 H 0.24984 0.54596 0.40968 0.0
H500 H 0.11084 0.48727 0.42771 0.0
H501 H 0.25374 0.44154 0.44237 0.0
H502 H 0.19738 0.52238 0.41219 0.0
H503 H 0.16541 0.40411 0.45597 0.0
C504 C 0.12574 0.41289 0.45754 0.0
C505 C 0.11014 0.43656 0.45054 0.0
C506 C 0.20959 0.50445 0.41856 0.0
C507 C 0.16538 0.45536 0.4344 0.0
C508 C 0.2396 0.51795 0.41721 0.0
C509 C 0.25628 0.49583 0.42616 0.0
C510 C 0.19617 0.46867 0.42924 0.0
C511 C 0.24176 0.45963 0.43543 0.0
C512 C 0.15329 0.42212 0.44942 0.0
C513 C 0.12221 0.46838 0.43387 0.0
N514 N 0.2126 0.44731 0.43706 0.0
N515 N 0.14925 0.47706 0.42671 0.0
H516 H 0.79353 0.29334 0.96598 0.0
H517 H 0.85827 0.27966 0.80903 0.0
H518 H 0.73871 0.25435 0.86648 0.0
H519 H 0.91476 0.32846 0.90621 0.0
H520 H 0.81414 0.2665 0.83084 0.0
H521 H 0.83822 0.30487 0.94527 0.0
C522 C 0.7909 0.28755 0.93973 0.0
C523 C 0.76232 0.27281 0.91793 0.0
C524 C 0.83617 0.27992 0.84747 0.0
C525 C 0.81332 0.28542 0.8942 0.0
C526 C 0.86142 0.28725 0.83507 0.0
C527 C 0.89029 0.30543 0.85578 0.0
C528 C 0.83973 0.29084 0.88084 0.0
C529 C 0.89293 0.31446 0.88933 0.0
C530 C 0.81641 0.29396 0.92797 0.0
C531 C 0.76028 0.26577 0.8842 0.0
N532 N 0.86795 0.30728 0.9008 0.0
N533 N 0.78541 0.27197 0.87342 0.0
H534 H 0.50347 0.66658 0.09852 0.0
H535 H 0.67165 0.80396 0.18983 0.0
H536 H 0.5407 0.677 0.20389 0.0
H537 H 0.63607 0.79504 0.08461 0.0
H538 H 0.62224 0.76075 0.19571 0.0
H539 H 0.55022 0.71708 0.09295 0.0
C540 C 0.52137 0.67959 0.12048 0.0
C541 C 0.51825 0.66728 0.15167 0.0
C542 C 0.62503 0.76858 0.17132 0.0
C543 C 0.57172 0.72494 0.14548 0.0
C544 C 0.65318 0.79322 0.16804 0.0
C545 C 0.65749 0.80355 0.1368 0.0
C546 C 0.60119 0.7536 0.14302 0.0
C547 C 0.63316 0.78866 0.1092 0.0
C548 C 0.54804 0.7084 0.11729 0.0
C549 C 0.54215 0.68528 0.17929 0.0
N550 N 0.60601 0.76418 0.11288 0.0
N551 N 0.56786 0.71301 0.17551 0.0
H552 H 0.78247 0.58855 0.54481 0.0
H553 H 0.63174 0.40302 0.48663 0.0
H554 H 0.77659 0.49145 0.48739 0.0
H555 H 0.64328 0.48976 0.56036 0.0
H556 H 0.68432 0.43575 0.4852 0.0
H557 H 0.73052 0.55427 0.54825 0.0
C558 C 0.77018 0.56015 0.53269 0.0
C559 C 0.78386 0.54283 0.51575 0.0
C560 C 0.67542 0.44747 0.50188 0.0
C561 C 0.72455 0.50339 0.51983 0.0
C562 C 0.64542 0.42874 0.50278 0.0
C563 C 0.63307 0.44374 0.52357 0.0
C564 C 0.69314 0.48165 0.52167 0.0
C565 C 0.65186 0.47715 0.54397 0.0
C566 C 0.74061 0.5405 0.53488 0.0
C567 C 0.76694 0.50589 0.50072 0.0
N568 N 0.6809 0.49517 0.54229 0.0
N569 N 0.73816 0.48742 0.50308 0.0
H570 H 0.21705 0.71495 0.82848 0.0
H571 H 0.35456 0.8862 0.78652 0.0
H572 H 0.20931 0.81389 0.78648 0.0
H573 H 0.36107 0.78539 0.82556 0.0
H574 H 0.302 0.86187 0.78913 0.0
H575 H 0.27077 0.74265 0.83153 0.0
C576 C 0.22669 0.7427 0.82022 0.0
C577 C 0.20861 0.762 0.80695 0.0
C578 C 0.31494 0.84509 0.79715 0.0
C579 C 0.2701 0.79373 0.81007 0.0
C580 C 0.34493 0.8589 0.79557 0.0
C581 C 0.36222 0.83772 0.80572 0.0
C582 C 0.30212 0.80985 0.80897 0.0
C583 C 0.34858 0.80263 0.81736 0.0
C584 C 0.25737 0.75844 0.82185 0.0
C585 C 0.22239 0.79792 0.79675 0.0
N586 N 0.31933 0.78979 0.81863 0.0
N587 N 0.25228 0.81251 0.79829 0.0
loop_
_geom_bond_atom_site_label_1
_geom_bond_atom_site_label_2
_geom_bond_distance
_geom_bond_site_symmetry_2
_ccdc_geom_bond_type
C0 O1 1.160 . S
C0 O7 1.185 . S
O1 C0 1.160 . S
O2 Zn3 1.899 . S
O2 C10 1.284 . S
Zn3 O2 1.899 . S
Zn3 O4 2.032 . S
Zn3 O7 2.086 . S
Zn3 O12 1.977 . S
O4 Zn3 2.032 . S
O4 C8 1.278 . S
C5 O6 1.203 . S
C5 O12 1.267 . S
O6 C5 1.203 . S
O7 C0 1.185 . S
O7 Zn3 2.086 . S
C8 O4 1.278 . S
C8 O9 1.211 . S
O9 C8 1.211 . S
C10 O2 1.284 . S
C10 O11 1.273 . S
O11 C10 1.273 . S
O12 Zn3 1.977 . S
O12 C5 1.267 . S
C13 O14 1.160 . S
C13 O20 1.185 . S
O14 C13 1.160 . S
O15 Zn16 1.899 . S
O15 C23 1.284 . S
Zn16 O15 1.899 . S
Zn16 O17 2.032 . S
Zn16 O20 2.086 . S
Zn16 O25 1.977 . S
O17 Zn16 2.032 . S
O17 C21 1.278 . S
C18 O19 1.203 . S
C18 O25 1.267 . S
O19 C18 1.203 . S
O20 C13 1.185 . S
O20 Zn16 2.086 . S
C21 O17 1.278 . S
C21 O22 1.211 . S
O22 C21 1.211 . S
C23 O15 1.284 . S
C23 O24 1.273 . S
O24 C23 1.273 . S
O25 Zn16 1.977 . S
O25 C18 1.267 . S
C26 O27 1.160 . S
C26 O33 1.185 . S
O27 C26 1.160 . S
O28 Zn29 1.899 . S
O28 C36 1.284 . S
Zn29 O28 1.899 . S
Zn29 O30 2.032 . S
Zn29 O33 2.086 . S
Zn29 O38 1.977 . S
O30 Zn29 2.032 . S
O30 C34 1.278 . S
C31 O32 1.203 . S
C31 O38 1.267 . S
O32 C31 1.203 . S
O33 C26 1.185 . S
O33 Zn29 2.086 . S
C34 O30 1.278 . S
C34 O35 1.211 . S
O35 C34 1.211 . S
C36 O28 1.284 . S
C36 O37 1.273 . S
O37 C36 1.273 . S
O38 Zn29 1.977 . S
O38 C31 1.267 . S
C39 O40 1.160 . S
C39 O46 1.185 . S
O40 C39 1.160 . S
O41 Zn42 1.899 . S
O41 C49 1.284 . S
Zn42 O41 1.899 . S
Zn42 O43 2.032 . S
Zn42 O46 2.086 . S
Zn42 O51 1.977 . S
O43 Zn42 2.032 . S
O43 C47 1.278 . S
C44 O45 1.203 . S
C44 O51 1.267 . S
O45 C44 1.203 . S
O46 C39 1.185 . S
O46 Zn42 2.086 . S
C47 O43 1.278 . S
C47 O48 1.211 1_554 S
O48 C47 1.211 1_556 S
C49 O41 1.284 . S
C49 O50 1.273 . S
O50 C49 1.273 . S
O51 Zn42 1.977 . S
O51 C44 1.267 . S
C52 O53 1.160 . S
C52 O59 1.185 . S
O53 C52 1.160 . S
O54 Zn55 1.899 . S
O54 C62 1.284 . S
Zn55 O54 1.899 . S
Zn55 O56 2.032 . S
Zn55 O59 2.086 . S
Zn55 O64 1.977 . S
O56 Zn55 2.032 . S
O56 C60 1.278 . S
C57 O58 1.203 . S
C57 O64 1.267 . S
O58 C57 1.203 . S
O59 C52 1.185 . S
O59 Zn55 2.086 . S
C60 O56 1.278 . S
C60 O61 1.211 . S
O61 C60 1.211 . S
C62 O54 1.284 . S
C62 O63 1.273 . S
O63 C62 1.273 . S
O64 Zn55 1.977 . S
O64 C57 1.267 . S
C65 O66 1.160 . S
C65 O72 1.185 . S
O66 C65 1.160 . S
O67 Zn68 1.899 . S
O67 C75 1.284 . S
Zn68 O67 1.899 . S
Zn68 O69 2.032 . S
Zn68 O72 2.086 . S
Zn68 O77 1.977 . S
O69 Zn68 2.032 . S
O69 C73 1.278 . S
C70 O71 1.203 . S
C70 O77 1.267 . S
O71 C70 1.203 . S
O72 C65 1.185 . S
O72 Zn68 2.086 . S
C73 O69 1.278 . S
C73 O74 1.211 . S
O74 C73 1.211 . S
C75 O67 1.284 . S
C75 O76 1.273 . S
O76 C75 1.273 . S
O77 Zn68 1.977 . S
O77 C70 1.267 . S
C78 O79 1.160 . S
C78 O85 1.185 . S
O79 C78 1.160 . S
O80 Zn81 1.899 . S
O80 C88 1.284 . S
Zn81 O80 1.899 . S
Zn81 O82 2.032 . S
Zn81 O85 2.086 . S
Zn81 O90 1.977 . S
O82 Zn81 2.032 . S
O82 C86 1.278 . S
C83 O84 1.203 . S
C83 O90 1.267 . S
O84 C83 1.203 . S
O85 C78 1.185 . S
O85 Zn81 2.086 . S
C86 O82 1.278 . S
C86 O87 1.211 . S
O87 C86 1.211 . S
C88 O80 1.284 . S
C88 O89 1.273 . S
O89 C88 1.273 . S
O90 Zn81 1.977 . S
O90 C83 1.267 . S
C91 O92 1.160 . S
C91 O98 1.185 . S
O92 C91 1.160 . S
O93 Zn94 1.899 . S
O93 C101 1.284 . S
Zn94 O93 1.899 . S
Zn94 O95 2.032 . S
Zn94 O98 2.086 . S
Zn94 O103 1.977 . S
O95 Zn94 2.032 . S
O95 C99 1.278 . S
C96 O97 1.203 . S
C96 O103 1.267 . S
O97 C96 1.203 . S
O98 C91 1.185 . S
O98 Zn94 2.086 . S
C99 O95 1.278 . S
C99 O100 1.211 . S
O100 C99 1.211 . S
C101 O93 1.284 . S
C101 O102 1.273 . S
O102 C101 1.273 . S
O103 Zn94 1.977 . S
O103 C96 1.267 . S
C104 O105 1.160 . S
C104 O111 1.185 . S
O105 C104 1.160 . S
O106 Zn107 1.899 . S
O106 C114 1.284 . S
Zn107 O106 1.899 . S
Zn107 O108 2.032 . S
Zn107 O111 2.086 . S
Zn107 O116 1.977 . S
O108 Zn107 2.032 . S
O108 C112 1.278 . S
C109 O110 1.203 . S
C109 O116 1.267 . S
O110 C109 1.203 . S
O111 C104 1.185 . S
O111 Zn107 2.086 . S
C112 O108 1.278 . S
C112 O113 1.211 . S
O113 C112 1.211 . S
C114 O106 1.284 . S
C114 O115 1.273 . S
O115 C114 1.273 . S
O116 Zn107 1.977 . S
O116 C109 1.267 . S
C117 O118 1.160 . S
C117 O124 1.185 . S
O118 C117 1.160 . S
O119 Zn120 1.899 . S
O119 C127 1.284 . S
Zn120 O119 1.899 . S
Zn120 O121 2.032 . S
Zn120 O124 2.086 . S
Zn120 O129 1.977 . S
O121 Zn120 2.032 . S
O121 C125 1.278 . S
C122 O123 1.203 . S
C122 O129 1.267 . S
O123 C122 1.203 . S
O124 C117 1.185 . S
O124 Zn120 2.086 . S
C125 O121 1.278 . S
C125 O126 1.211 . S
O126 C125 1.211 . S
C127 O119 1.284 . S
C127 O128 1.273 . S
O128 C127 1.273 . S
O129 Zn120 1.977 . S
O129 C122 1.267 . S
C130 O131 1.160 . S
C130 O137 1.185 . S
O131 C130 1.160 . S
O132 Zn133 1.899 . S
O132 C140 1.284 . S
Zn133 O132 1.899 . S
Zn133 O134 2.032 . S
Zn133 O137 2.086 . S
Zn133 O142 1.977 . S
O134 Zn133 2.032 . S
O134 C138 1.278 . S
C135 O136 1.203 . S
C135 O142 1.267 . S
O136 C135 1.203 . S
O137 C130 1.185 . S
O137 Zn133 2.086 . S
C138 O134 1.278 . S
C138 O139 1.211 . S
O139 C138 1.211 . S
C140 O132 1.284 . S
C140 O141 1.273 . S
O141 C140 1.273 . S
O142 Zn133 1.977 . S
O142 C135 1.267 . S
C143 O144 1.160 . S
C143 O150 1.185 . S
O144 C143 1.160 . S
O145 Zn146 1.899 . S
O145 C153 1.284 . S
Zn146 O145 1.899 . S
Zn146 O147 2.032 . S
Zn146 O150 2.086 . S
Zn146 O155 1.977 . S
O147 Zn146 2.032 . S
O147 C151 1.278 . S
C148 O149 1.203 . S
C148 O155 1.267 . S
O149 C148 1.203 . S
O150 C143 1.185 . S
O150 Zn146 2.086 . S
C151 O147 1.278 . S
C151 O152 1.211 . S
O152 C151 1.211 . S
C153 O145 1.284 . S
C153 O154 1.273 . S
O154 C153 1.273 . S
O155 Zn146 1.977 . S
O155 C148 1.267 . S
H156 C162 0.930 . S
H157 C166 0.930 . S
H158 C171 0.929 . S
H159 C169 0.929 . S
H160 C164 0.929 . S
H161 C170 0.929 . S
C162 H156 0.930 . S
C162 C163 1.367 . S
C162 C170 1.378 . S
C163 C162 1.367 . S
C163 C171 1.433 . S
C164 H160 0.929 . S
C164 C166 1.378 . S
C164 C168 1.350 . S
C165 C168 1.463 1_554 S
C165 C170 1.350 . S
C165 N173 1.427 . S
C166 H157 0.930 . S
C166 C164 1.378 . S
C166 C167 1.367 . S
C167 C166 1.367 . S
C167 C169 1.433 . S
C168 C164 1.350 . S
C168 C165 1.463 1_556 S
C168 N172 1.427 . S
C169 H159 0.929 . S
C169 C167 1.433 . S
C169 N172 1.384 . S
C170 H161 0.929 . S
C170 C162 1.378 . S
C170 C165 1.350 . S
C171 H158 0.929 . S
C171 C163 1.433 . S
C171 N173 1.384 . S
N172 C168 1.427 . S
N172 C169 1.384 . S
N173 C165 1.427 . S
N173 C171 1.384 . S
H174 C180 0.930 . S
H175 C184 0.930 . S
H176 C189 0.929 . S
H177 C187 0.929 . S
H178 C182 0.929 . S
H179 C188 0.929 . S
C180 H174 0.930 . S
C180 C181 1.367 . S
C180 C188 1.378 . S
C181 C180 1.367 . S
C181 C189 1.433 . S
C182 H178 0.929 . S
C182 C184 1.378 . S
C182 C186 1.350 . S
C183 C186 1.463 . S
C183 C188 1.350 . S
C183 N191 1.427 . S
C184 H175 0.930 . S
C184 C182 1.378 . S
C184 C185 1.367 . S
C185 C184 1.367 . S
C185 C187 1.433 . S
C186 C182 1.350 . S
C186 C183 1.463 . S
C186 N190 1.427 . S
C187 H177 0.929 . S
C187 C185 1.433 . S
C187 N190 1.384 . S
C188 H179 0.929 . S
C188 C180 1.378 . S
C188 C183 1.350 . S
C189 H176 0.929 . S
C189 C181 1.433 . S
C189 N191 1.384 . S
N190 C186 1.427 . S
N190 C187 1.384 . S
N191 C183 1.427 . S
N191 C189 1.384 . S
H192 C198 0.930 . S
H193 C202 0.930 . S
H194 C207 0.929 . S
H195 C205 0.929 . S
H196 C200 0.929 . S
H197 C206 0.929 . S
C198 H192 0.930 . S
C198 C199 1.367 . S
C198 C206 1.378 . S
C199 C198 1.367 . S
C199 C207 1.433 . S
C200 H196 0.929 . S
C200 C202 1.378 . S
C200 C204 1.350 . S
C201 C204 1.463 . S
C201 C206 1.350 . S
C201 N209 1.427 . S
C202 H193 0.930 . S
C202 C200 1.378 . S
C202 C203 1.367 . S
C203 C202 1.367 . S
C203 C205 1.433 . S
C204 C200 1.350 . S
C204 C201 1.463 . S
C204 N208 1.427 . S
C205 H195 0.929 . S
C205 C203 1.433 . S
C205 N208 1.384 . S
C206 H197 0.929 . S
C206 C198 1.378 . S
C206 C201 1.350 . S
C207 H194 0.929 . S
C207 C199 1.433 . S
C207 N209 1.384 . S
N208 C204 1.427 . S
N208 C205 1.384 . S
N209 C201 1.427 . S
N209 C207 1.384 . S
H210 C216 0.917 1_554 S
H211 C220 0.930 . S
H212 C225 0.929 . S
H213 C223 0.929 . S
H214 C218 0.929 . S
H215 C224 0.929 . S
C216 H210 0.917 1_556 S
C216 C217 1.363 1_556 S
C216 C224 1.395 . S
C217 C216 1.363 1_554 S
C217 C225 1.433 1_554 S
C218 H214 0.929 . S
C218 C220 1.378 . S
C218 C222 1.350 . S
C219 C222 1.463 . S
C219 C224 1.350 . S
C219 N227 1.427 . S
C220 H211 0.930 . S
C220 C218 1.378 . S
C220 C221 1.367 . S
C221 C220 1.367 . S
C221 C223 1.433 . S
C222 C218 1.350 . S
C222 C219 1.463 . S
C222 N226 1.427 . S
C223 H213 0.929 . S
C223 C221 1.433 . S
C223 N226 1.384 . S
C224 H215 0.929 . S
C224 C216 1.395 . S
C224 C219 1.350 . S
C225 H212 0.929 . S
C225 C217 1.433 1_556 S
C225 N227 1.384 . S
N226 C222 1.427 . S
N226 C223 1.384 . S
N227 C219 1.427 . S
N227 C225 1.384 . S
H228 C234 0.930 . S
H229 C238 0.930 . S
H230 C243 0.929 . S
H231 C241 0.929 . S
H232 C236 0.929 . S
H233 C242 0.929 . S
C234 H228 0.930 . S
C234 C235 1.367 . S
C234 C242 1.378 . S
C235 C234 1.367 . S
C235 C243 1.433 . S
C236 H232 0.929 . S
C236 C238 1.378 . S
C236 C240 1.350 . S
C237 C240 1.463 . S
C237 C242 1.350 . S
C237 N245 1.427 . S
C238 H229 0.930 . S
C238 C236 1.378 . S
C238 C239 1.367 . S
C239 C238 1.367 . S
C239 C241 1.433 . S
C240 C236 1.350 . S
C240 C237 1.463 . S
C240 N244 1.427 . S
C241 H231 0.929 . S
C241 C239 1.433 . S
C241 N244 1.384 . S
C242 H233 0.929 . S
C242 C234 1.378 . S
C242 C237 1.350 . S
C243 H230 0.929 . S
C243 C235 1.433 . S
C243 N245 1.384 . S
N244 C240 1.427 . S
N244 C241 1.384 . S
N245 C237 1.427 . S
N245 C243 1.384 . S
H246 C252 0.930 . S
H247 C256 0.930 . S
H248 C261 0.929 . S
H249 C259 0.929 . S
H250 C254 0.929 . S
H251 C260 0.929 . S
C252 H246 0.930 . S
C252 C253 1.367 . S
C252 C260 1.378 . S
C253 C252 1.367 . S
C253 C261 1.433 . S
C254 H250 0.929 . S
C254 C256 1.378 . S
C254 C258 1.350 . S
C255 C258 1.463 . S
C255 C260 1.350 . S
C255 N263 1.427 . S
C256 H247 0.930 . S
C256 C254 1.378 . S
C256 C257 1.367 . S
C257 C256 1.367 . S
C257 C259 1.433 . S
C258 C254 1.350 . S
C258 C255 1.463 . S
C258 N262 1.427 . S
C259 H249 0.929 . S
C259 C257 1.433 . S
C259 N262 1.384 . S
C260 H251 0.929 . S
C260 C252 1.378 . S
C260 C255 1.350 . S
C261 H248 0.929 . S
C261 C253 1.433 . S
C261 N263 1.384 . S
N262 C258 1.427 . S
N262 C259 1.384 . S
N263 C255 1.427 . S
N263 C261 1.384 . S
H264 C270 0.930 . S
H265 C274 0.930 . S
H266 C279 0.929 . S
H267 C277 0.929 . S
H268 C272 0.929 . S
H269 C278 0.929 . S
C270 H264 0.930 . S
C270 C271 1.367 . S
C270 C278 1.378 . S
C271 C270 1.367 . S
C271 C279 1.433 . S
C272 H268 0.929 . S
C272 C274 1.378 . S
C272 C276 1.350 . S
C273 C276 1.463 . S
C273 C278 1.350 1_556 S
C273 N281 1.427 . S
C274 H265 0.930 . S
C274 C272 1.378 . S
C274 C275 1.367 1_545 S
C275 C274 1.367 1_565 S
C275 C277 1.433 . S
C276 C272 1.350 . S
C276 C273 1.463 . S
C276 N280 1.427 1_545 S
C277 H267 0.929 . S
C277 C275 1.433 . S
C277 N280 1.384 . S
C278 H269 0.929 . S
C278 C270 1.378 . S
C278 C273 1.350 1_554 S
C279 H266 0.929 . S
C279 C271 1.433 . S
C279 N281 1.384 1_554 S
N280 C276 1.427 1_565 S
N280 C277 1.384 . S
N281 C273 1.427 . S
N281 C279 1.384 1_556 S
H282 C288 0.930 . S
H283 C292 0.930 . S
H284 C297 0.929 . S
H285 C295 0.929 . S
H286 C290 0.929 . S
H287 C296 0.929 . S
C288 H282 0.930 . S
C288 C289 1.367 . S
C288 C296 1.378 . S
C289 C288 1.367 . S
C289 C297 1.433 . S
C290 H286 0.929 . S
C290 C292 1.378 . S
C290 C294 1.350 . S
C291 C294 1.463 . S
C291 C296 1.350 . S
C291 N299 1.427 . S
C292 H283 0.930 . S
C292 C290 1.378 . S
C292 C293 1.367 . S
C293 C292 1.367 . S
C293 C295 1.433 . S
C294 C290 1.350 . S
C294 C291 1.463 . S
C294 N298 1.427 . S
C295 H285 0.929 . S
C295 C293 1.433 . S
C295 N298 1.384 . S
C296 H287 0.929 . S
C296 C288 1.378 . S
C296 C291 1.350 . S
C297 H284 0.929 . S
C297 C289 1.433 . S
C297 N299 1.384 . S
N298 C294 1.427 . S
N298 C295 1.384 . S
N299 C291 1.427 . S
N299 C297 1.384 . S
H300 C306 0.934 . S
H301 C310 0.940 . S
H302 C315 0.929 . S
H303 C313 0.929 . S
H304 C308 0.929 . S
H305 C314 0.929 . S
C306 H300 0.934 . S
C306 C307 1.360 1_655 S
C306 C314 1.381 . S
C307 C306 1.360 1_455 S
C307 C315 1.433 . S
C308 H304 0.929 . S
C308 C310 1.386 . S
C308 C312 1.350 1_455 S
C309 C312 1.463 1_455 S
C309 C314 1.350 1_455 S
C309 N317 1.427 . S
C310 H301 0.940 . S
C310 C308 1.386 . S
C310 C311 1.349 1_455 S
C311 C310 1.349 1_655 S
C311 C313 1.433 . S
C312 C308 1.350 1_655 S
C312 C309 1.463 1_655 S
C312 N316 1.427 . S
C313 H303 0.929 . S
C313 C311 1.433 . S
C313 N316 1.384 . S
C314 H305 0.929 . S
C314 C306 1.381 . S
C314 C309 1.350 1_655 S
C315 H302 0.929 . S
C315 C307 1.433 . S
C315 N317 1.384 . S
N316 C312 1.427 . S
N316 C313 1.384 . S
N317 C309 1.427 . S
N317 C315 1.384 . S
H318 C324 0.930 . S
H319 C328 0.930 . S
H320 C333 0.929 . S
H321 C331 0.929 . S
H322 C326 0.929 1_554 S
H323 C332 0.929 . S
C324 H318 0.930 . S
C324 C325 1.367 1_556 S
C324 C332 1.378 . S
C325 C324 1.367 1_554 S
C325 C333 1.433 . S
C326 H322 0.929 1_556 S
C326 C328 1.378 . S
C326 C330 1.350 . S
C327 C330 1.463 1_565 S
C327 C332 1.350 . S
C327 N335 1.427 1_556 S
C328 H319 0.930 . S
C328 C326 1.378 . S
C328 C329 1.367 . S
C329 C328 1.367 . S
C329 C331 1.433 . S
C330 C326 1.350 . S
C330 C327 1.463 1_545 S
C330 N334 1.427 . S
C331 H321 0.929 . S
C331 C329 1.433 . S
C331 N334 1.384 . S
C332 H323 0.929 . S
C332 C324 1.378 . S
C332 C327 1.350 . S
C333 H320 0.929 . S
C333 C325 1.433 . S
C333 N335 1.384 . S
N334 C330 1.427 . S
N334 C331 1.384 . S
N335 C327 1.427 1_554 S
N335 C333 1.384 . S
H336 C342 0.930 . S
H337 C346 0.930 . S
H338 C351 0.929 . S
H339 C349 0.929 . S
H340 C344 0.929 . S
H341 C350 0.929 . S
C342 H336 0.930 . S
C342 C343 1.367 . S
C342 C350 1.378 . S
C343 C342 1.367 . S
C343 C351 1.433 . S
C344 H340 0.929 . S
C344 C346 1.378 . S
C344 C348 1.350 . S
C345 C348 1.463 . S
C345 C350 1.350 . S
C345 N353 1.427 . S
C346 H337 0.930 . S
C346 C344 1.378 . S
C346 C347 1.367 . S
C347 C346 1.367 . S
C347 C349 1.433 . S
C348 C344 1.350 . S
C348 C345 1.463 . S
C348 N352 1.427 . S
C349 H339 0.929 . S
C349 C347 1.433 . S
C349 N352 1.384 . S
C350 H341 0.929 . S
C350 C342 1.378 . S
C350 C345 1.350 . S
C351 H338 0.929 . S
C351 C343 1.433 . S
C351 N353 1.384 . S
N352 C348 1.427 . S
N352 C349 1.384 . S
N353 C345 1.427 . S
N353 C351 1.384 . S
H354 C360 0.930 . S
H355 C364 0.930 . S
H356 C369 0.929 . S
H357 C367 0.929 . S
H358 C362 0.929 1_455 S
H359 C368 0.929 1_655 S
C360 H354 0.930 . S
C360 C361 1.367 . S
C360 C368 1.378 . S
C361 C360 1.367 . S
C361 C369 1.433 . S
C362 H358 0.929 1_655 S
C362 C364 1.378 . S
C362 C366 1.350 . S
C363 C366 1.463 1_455 S
C363 C368 1.350 . S
C363 N371 1.427 . S
C364 H355 0.930 . S
C364 C362 1.378 . S
C364 C365 1.367 . S
C365 C364 1.367 . S
C365 C367 1.433 . S
C366 C362 1.350 . S
C366 C363 1.463 1_655 S
C366 N370 1.427 . S
C367 H357 0.929 . S
C367 C365 1.433 . S
C367 N370 1.384 . S
C368 H359 0.929 1_455 S
C368 C360 1.378 . S
C368 C363 1.350 . S
C369 H356 0.929 . S
C369 C361 1.433 . S
C369 N371 1.384 . S
N370 C366 1.427 . S
N370 C367 1.384 . S
N371 C363 1.427 . S
N371 C369 1.384 . S
H372 C378 0.930 . S
H373 C382 0.930 . S
H374 C387 0.929 . S
H375 C385 0.929 . S
H376 C380 0.929 . S
H377 C386 0.929 . S
C378 H372 0.930 . S
C378 C379 1.367 . S
C378 C386 1.378 1_565 S
C379 C378 1.367 . S
C379 C387 1.433 . S
C380 H376 0.929 . S
C380 C382 1.378 . S
C380 C384 1.350 . S
C381 C384 1.463 . S
C381 C386 1.350 . S
C381 N389 1.427 1_545 S
C382 H373 0.930 . S
C382 C380 1.378 . S
C382 C383 1.367 . S
C383 C382 1.367 . S
C383 C385 1.433 . S
C384 C380 1.350 . S
C384 C381 1.463 . S
C384 N388 1.427 . S
C385 H375 0.929 . S
C385 C383 1.433 . S
C385 N388 1.384 . S
C386 H377 0.929 . S
C386 C378 1.378 1_545 S
C386 C381 1.350 . S
C387 H374 0.929 . S
C387 C379 1.433 . S
C387 N389 1.384 . S
N388 C384 1.427 . S
N388 C385 1.384 . S
N389 C381 1.427 1_565 S
N389 C387 1.384 . S
H390 C396 0.930 . S
H391 C400 0.930 . S
H392 C405 0.929 . S
H393 C403 0.929 . S
H394 C398 0.929 . S
H395 C404 0.929 . S
C396 H390 0.930 . S
C396 C397 1.367 . S
C396 C404 1.378 . S
C397 C396 1.367 . S
C397 C405 1.433 . S
C398 H394 0.929 . S
C398 C400 1.378 . S
C398 C402 1.350 . S
C399 C402 1.463 . S
C399 C404 1.350 . S
C399 N407 1.427 . S
C400 H391 0.930 . S
C400 C398 1.378 . S
C400 C401 1.367 . S
C401 C400 1.367 . S
C401 C403 1.433 . S
C402 C398 1.350 . S
C402 C399 1.463 . S
C402 N406 1.427 . S
C403 H393 0.929 . S
C403 C401 1.433 . S
C403 N406 1.384 . S
C404 H395 0.929 . S
C404 C396 1.378 . S
C404 C399 1.350 . S
C405 H392 0.929 . S
C405 C397 1.433 . S
C405 N407 1.384 . S
N406 C402 1.427 . S
N406 C403 1.384 . S
N407 C399 1.427 . S
N407 C405 1.384 . S
H408 C414 0.930 . S
H409 C418 0.930 . S
H410 C423 0.929 . S
H411 C421 0.929 . S
H412 C416 0.929 . S
H413 C422 0.929 . S
C414 H408 0.930 . S
C414 C415 1.367 . S
C414 C422 1.378 . S
C415 C414 1.367 . S
C415 C423 1.433 . S
C416 H412 0.929 . S
C416 C418 1.378 . S
C416 C420 1.350 . S
C417 C420 1.463 . S
C417 C422 1.350 . S
C417 N425 1.427 . S
C418 H409 0.930 . S
C418 C416 1.378 . S
C418 C419 1.367 . S
C419 C418 1.367 . S
C419 C421 1.433 1_455 S
C420 C416 1.350 . S
C420 C417 1.463 . S
C420 N424 1.427 . S
C421 H411 0.929 . S
C421 C419 1.433 1_655 S
C421 N424 1.384 1_655 S
C422 H413 0.929 . S
C422 C414 1.378 . S
C422 C417 1.350 . S
C423 H410 0.929 . S
C423 C415 1.433 . S
C423 N425 1.384 . S
N424 C420 1.427 . S
N424 C421 1.384 1_455 S
N425 C417 1.427 . S
N425 C423 1.384 . S
H426 C432 0.930 . S
H427 C436 0.930 . S
H428 C441 0.929 . S
H429 C439 0.929 . S
H430 C434 0.929 . S
H431 C440 0.929 . S
C432 H426 0.930 . S
C432 C433 1.367 . S
C432 C440 1.378 . S
C433 C432 1.367 . S
C433 C441 1.433 . S
C434 H430 0.929 . S
C434 C436 1.378 1_655 S
C434 C438 1.350 . S
C435 C438 1.463 . S
C435 C440 1.350 . S
C435 N443 1.427 . S
C436 H427 0.930 . S
C436 C434 1.378 1_455 S
C436 C437 1.367 1_455 S
C437 C436 1.367 1_655 S
C437 C439 1.433 . S
C438 C434 1.350 . S
C438 C435 1.463 . S
C438 N442 1.427 . S
C439 H429 0.929 . S
C439 C437 1.433 . S
C439 N442 1.384 . S
C440 H431 0.929 . S
C440 C432 1.378 . S
C440 C435 1.350 . S
C441 H428 0.929 . S
C441 C433 1.433 . S
C441 N443 1.384 . S
N442 C438 1.427 . S
N442 C439 1.384 . S
N443 C435 1.427 . S
N443 C441 1.384 . S
H444 C450 0.930 . S
H445 C454 0.930 . S
H446 C459 0.929 . S
H447 C457 0.929 . S
H448 C452 0.929 . S
H449 C458 0.929 . S
C450 H444 0.930 . S
C450 C451 1.367 . S
C450 C458 1.378 1_565 S
C451 C450 1.367 . S
C451 C459 1.433 . S
C452 H448 0.929 . S
C452 C454 1.378 . S
C452 C456 1.350 . S
C453 C456 1.463 . S
C453 C458 1.350 . S
C453 N461 1.427 . S
C454 H445 0.930 . S
C454 C452 1.378 . S
C454 C455 1.367 . S
C455 C454 1.367 . S
C455 C457 1.433 . S
C456 C452 1.350 . S
C456 C453 1.463 . S
C456 N460 1.427 . S
C457 H447 0.929 . S
C457 C455 1.433 . S
C457 N460 1.384 . S
C458 H449 0.929 . S
C458 C450 1.378 1_545 S
C458 C453 1.350 . S
C459 H446 0.929 . S
C459 C451 1.433 . S
C459 N461 1.384 1_565 S
N460 C456 1.427 . S
N460 C457 1.384 . S
N461 C453 1.427 . S
N461 C459 1.384 1_545 S
H462 C468 0.930 . S
H463 C472 0.930 . S
H464 C477 0.929 . S
H465 C475 0.929 . S
H466 C470 0.929 . S
H467 C476 0.929 . S
C468 H462 0.930 . S
C468 C469 1.367 . S
C468 C476 1.378 . S
C469 C468 1.367 . S
C469 C477 1.433 . S
C470 H466 0.929 . S
C470 C472 1.378 . S
C470 C474 1.350 . S
C471 C474 1.463 . S
C471 C476 1.350 . S
C471 N479 1.427 . S
C472 H463 0.930 . S
C472 C470 1.378 . S
C472 C473 1.367 . S
C473 C472 1.367 . S
C473 C475 1.433 . S
C474 C470 1.350 . S
C474 C471 1.463 . S
C474 N478 1.427 . S
C475 H465 0.929 . S
C475 C473 1.433 . S
C475 N478 1.384 . S
C476 H467 0.929 . S
C476 C468 1.378 . S
C476 C471 1.350 . S
C477 H464 0.929 . S
C477 C469 1.433 . S
C477 N479 1.384 . S
N478 C474 1.427 . S
N478 C475 1.384 . S
N479 C471 1.427 . S
N479 C477 1.384 . S
H480 C486 0.930 . S
H481 C490 0.930 . S
H482 C495 0.929 . S
H483 C493 0.929 . S
H484 C488 0.929 . S
H485 C494 0.929 . S
C486 H480 0.930 . S
C486 C487 1.367 . S
C486 C494 1.378 . S
C487 C486 1.367 . S
C487 C495 1.433 . S
C488 H484 0.929 . S
C488 C490 1.378 . S
C488 C492 1.350 . S
C489 C492 1.463 . S
C489 C494 1.350 . S
C489 N497 1.427 . S
C490 H481 0.930 . S
C490 C488 1.378 . S
C490 C491 1.367 . S
C491 C490 1.367 . S
C491 C493 1.433 . S
C492 C488 1.350 . S
C492 C489 1.463 . S
C492 N496 1.427 . S
C493 H483 0.929 . S
C493 C491 1.433 . S
C493 N496 1.384 . S
C494 H485 0.929 . S
C494 C486 1.378 . S
C494 C489 1.350 . S
C495 H482 0.929 . S
C495 C487 1.433 . S
C495 N497 1.384 . S
N496 C492 1.427 . S
N496 C493 1.384 . S
N497 C489 1.427 . S
N497 C495 1.384 . S
H498 C504 0.930 . S
H499 C508 0.930 . S
H500 C513 0.929 . S
H501 C511 0.929 . S
H502 C506 0.929 . S
H503 C512 0.929 . S
C504 H498 0.930 . S
C504 C505 1.367 . S
C504 C512 1.378 . S
C505 C504 1.367 . S
C505 C513 1.433 . S
C506 H502 0.929 . S
C506 C508 1.378 . S
C506 C510 1.350 . S
C507 C510 1.463 . S
C507 C512 1.350 . S
C507 N515 1.427 . S
C508 H499 0.930 . S
C508 C506 1.378 . S
C508 C509 1.367 . S
C509 C508 1.367 . S
C509 C511 1.433 . S
C510 C506 1.350 . S
C510 C507 1.463 . S
C510 N514 1.427 . S
C511 H501 0.929 . S
C511 C509 1.433 . S
C511 N514 1.384 . S
C512 H503 0.929 . S
C512 C504 1.378 . S
C512 C507 1.350 . S
C513 H500 0.929 . S
C513 C505 1.433 . S
C513 N515 1.384 . S
N514 C510 1.427 . S
N514 C511 1.384 . S
N515 C507 1.427 . S
N515 C513 1.384 . S
H516 C522 0.930 . S
H517 C526 0.930 . S
H518 C531 0.929 . S
H519 C529 0.929 . S
H520 C524 0.929 . S
H521 C530 0.929 . S
C522 H516 0.930 . S
C522 C523 1.367 . S
C522 C530 1.378 . S
C523 C522 1.367 . S
C523 C531 1.433 . S
C524 H520 0.929 . S
C524 C526 1.378 . S
C524 C528 1.350 . S
C525 C528 1.463 . S
C525 C530 1.350 . S
C525 N533 1.427 . S
C526 H517 0.930 . S
C526 C524 1.378 . S
C526 C527 1.367 . S
C527 C526 1.367 . S
C527 C529 1.433 . S
C528 C524 1.350 . S
C528 C525 1.463 . S
C528 N532 1.427 . S
C529 H519 0.929 . S
C529 C527 1.433 . S
C529 N532 1.384 . S
C530 H521 0.929 . S
C530 C522 1.378 . S
C530 C525 1.350 . S
C531 H518 0.929 . S
C531 C523 1.433 . S
C531 N533 1.384 . S
N532 C528 1.427 . S
N532 C529 1.384 . S
N533 C525 1.427 . S
N533 C531 1.384 . S
H534 C540 0.930 . S
H535 C544 0.930 . S
H536 C549 0.929 . S
H537 C547 0.929 . S
H538 C542 0.929 . S
H539 C548 0.929 . S
C540 H534 0.930 . S
C540 C541 1.367 . S
C540 C548 1.378 . S
C541 C540 1.367 . S
C541 C549 1.433 . S
C542 H538 0.929 . S
C542 C544 1.378 . S
C542 C546 1.350 . S
C543 C546 1.463 . S
C543 C548 1.350 . S
C543 N551 1.427 . S
C544 H535 0.930 . S
C544 C542 1.378 . S
C544 C545 1.367 . S
C545 C544 1.367 . S
C545 C547 1.433 . S
C546 C542 1.350 . S
C546 C543 1.463 . S
C546 N550 1.427 . S
C547 H537 0.929 . S
C547 C545 1.433 . S
C547 N550 1.384 . S
C548 H539 0.929 . S
C548 C540 1.378 . S
C548 C543 1.350 . S
C549 H536 0.929 . S
C549 C541 1.433 . S
C549 N551 1.384 . S
N550 C546 1.427 . S
N550 C547 1.384 . S
N551 C543 1.427 . S
N551 C549 1.384 . S
H552 C558 0.930 . S
H553 C562 0.930 . S
H554 C567 0.929 . S
H555 C565 0.929 . S
H556 C560 0.929 . S
H557 C566 0.929 . S
C558 H552 0.930 . S
C558 C559 1.367 . S
C558 C566 1.378 . S
C559 C558 1.367 . S
C559 C567 1.433 . S
C560 H556 0.929 . S
C560 C562 1.378 . S
C560 C564 1.350 . S
C561 C564 1.463 . S
C561 C566 1.350 . S
C561 N569 1.427 . S
C562 H553 0.930 . S
C562 C560 1.378 . S
C562 C563 1.367 . S
C563 C562 1.367 . S
C563 C565 1.433 . S
C564 C560 1.350 . S
C564 C561 1.463 . S
C564 N568 1.427 . S
C565 H555 0.929 . S
C565 C563 1.433 . S
C565 N568 1.384 . S
C566 H557 0.929 . S
C566 C558 1.378 . S
C566 C561 1.350 . S
C567 H554 0.929 . S
C567 C559 1.433 . S
C567 N569 1.384 . S
N568 C564 1.427 . S
N568 C565 1.384 . S
N569 C561 1.427 . S
N569 C567 1.384 . S
H570 C576 0.930 . S
H571 C580 0.930 . S
H572 C585 0.929 . S
H573 C583 0.929 . S
H574 C578 0.929 . S
H575 C584 0.929 . S
C576 H570 0.930 . S
C576 C577 1.367 . S
C576 C584 1.378 . S
C577 C576 1.367 . S
C577 C585 1.433 . S
C578 H574 0.929 . S
C578 C580 1.378 . S
C578 C582 1.350 . S
C579 C582 1.463 . S
C579 C584 1.350 . S
C579 N587 1.427 . S
C580 H571 0.930 . S
C580 C578 1.378 . S
C580 C581 1.367 . S
C581 C580 1.367 . S
C581 C583 1.433 . S
C582 C578 1.350 . S
C582 C579 1.463 . S
C582 N586 1.427 . S
C583 H573 0.929 . S
C583 C581 1.433 . S
C583 N586 1.384 . S
C584 H575 0.929 . S
C584 C576 1.378 . S
C584 C579 1.350 . S
C585 H572 0.929 . S
C585 C577 1.433 . S
C585 N587 1.384 . S
N586 C582 1.427 . S
N586 C583 1.384 . S
N587 C579 1.427 . S
N587 C585 1.384 . S
C163 C8 0.788 . S
C167 C138 0.719 . S
C181 C151 0.826 . S
C185 C21 0.695 . S
C199 C86 0.596 . S
C203 C34 0.596 . S
C217 C47 0.468 . S
C221 C99 0.796 . S
C235 C60 0.760 . S
C239 C112 0.504 . S
C253 C125 0.596 . S
C257 C73 0.597 . S
C271 C5 0.696 . S
C275 C96 0.675 . S
C289 C109 1.117 . S
C293 C18 1.619 . S
C307 C122 0.736 . S
C311 C31 0.774 . S
C325 C44 1.119 . S
C329 C135 1.622 . S
C343 C148 0.684 . S
C347 C57 0.685 . S
C361 C70 0.765 . S
C365 C83 0.765 . S
C379 C49 0.463 . S
C383 C10 0.620 . S
C397 C62 0.663 . S
C401 C23 0.591 . S
C415 C75 0.761 . S
C419 C36 0.735 1_455 S
C433 C88 0.719 . S
C437 C127 0.740 1_655 S
C451 C101 0.674 . S
C455 C140 0.579 . S
C469 C114 0.502 . S
C473 C153 0.570 . S
C487 C104 1.633 . S
C491 C0 1.799 . S
C505 C117 1.491 . S
C509 C13 1.511 . S
C523 C130 1.512 . S
C527 C26 1.492 . S
C541 C143 1.802 . S
C545 C39 1.636 . S
C559 C78 1.539 . S
C563 C52 1.553 . S
C577 C65 1.534 . S
C581 C91 1.550 . S
