# Generated by pormake.
# Topology yfh, (5)-cn, num edge types: 1
# Building blocks:
#     Node 0, Type 0, BuildingBlock: BEQFEK_clean_sbu_0, # of connection points: 5
#     Node 1, Type 0, BuildingBlock: BEQFEK_clean_sbu_0, # of connection points: 5
#     Node 2, Type 0, BuildingBlock: BEQFEK_clean_sbu_0, # of connection points: 5
#     Node 3, Type 0, BuildingBlock: BEQFEK_clean_sbu_0, # of connection points: 5
#     Node 4, Type 0, BuildingBlock: BEQFEK_clean_sbu_0, # of connection points: 5
#     Node 5, Type 0, BuildingBlock: BEQFEK_clean_sbu_0, # of connection points: 5
#     Node 6, Type 0, BuildingBlock: BEQFEK_clean_sbu_0, # of connection points: 5
#     Node 7, Type 0, BuildingBlock: BEQFEK_clean_sbu_0, # of connection points: 5
#     Edge 8, Type (0, 0), BuildingBlock: CIFDUS_clean_linker_0, # of connection points: 2
#     Edge 9, Type (0, 0), BuildingBlock: CIFDUS_clean_linker_0, # of connection points: 2
#     Edge 10, Type (0, 0), BuildingBlock: CIFDUS_clean_linker_0, # of connection points: 2
#     Edge 11, Type (0, 0), BuildingBlock: CIFDUS_clean_linker_0, # of connection points: 2
#     Edge 12, Type (0, 0), BuildingBlock: CIFDUS_clean_linker_0, # of connection points: 2
#     Edge 13, Type (0, 0), BuildingBlock: CIFDUS_clean_linker_0, # of connection points: 2
#     Edge 14, Type (0, 0), BuildingBlock: CIFDUS_clean_linker_0, # of connection points: 2
#     Edge 15, Type (0, 0), BuildingBlock: CIFDUS_clean_linker_0, # of connection points: 2
#     Edge 16, Type (0, 0), BuildingBlock: CIFDUS_clean_linker_0, # of connection points: 2
#     Edge 17, Type (0, 0), BuildingBlock: CIFDUS_clean_linker_0, # of connection points: 2
#     Edge 18, Type (0, 0), BuildingBlock: CIFDUS_clean_linker_0, # of connection points: 2
#     Edge 19, Type (0, 0), BuildingBlock: CIFDUS_clean_linker_0, # of connection points: 2
#     Edge 20, Type (0, 0), BuildingBlock: CIFDUS_clean_linker_0, # of connection points: 2
#     Edge 21, Type (0, 0), BuildingBlock: CIFDUS_clean_linker_0, # of connection points: 2
#     Edge 22, Type (0, 0), BuildingBlock: CIFDUS_clean_linker_0, # of connection points: 2
#     Edge 23, Type (0, 0), BuildingBlock: CIFDUS_clean_linker_0, # of connection points: 2
#     Edge 24, Type (0, 0), BuildingBlock: CIFDUS_clean_linker_0, # of connection points: 2
#     Edge 25, Type (0, 0), BuildingBlock: CIFDUS_clean_linker_0, # of connection points: 2
#     Edge 26, Type (0, 0), BuildingBlock: CIFDUS_clean_linker_0, # of connection points: 2
#     Edge 27, Type (0, 0), BuildingBlock: CIFDUS_clean_linker_0, # of connection points: 2
# Relax obj value: 0.478
# Max RMSD: 0.267
# Mean RMSD: 0.267
data_MOF--net-yfh--node1-BEQFEK_clean_sbu_0--edge1-CIFDUS_clean_linker_0
_symmetry_space_group_name_H-M    P1
_symmetry_Int_Tables_number       1
_symmetry_cell_setting            triclinic
loop_
_symmetry_equiv_pos_as_xyz
'x, y, z'
_cell_length_a     25.947602
_cell_length_b     25.95442
_cell_length_c     52.55215
_cell_angle_alpha  90.07918
_cell_angle_beta   90.097401
_cell_angle_gamma 90.081009
loop_
_atom_site_label
_atom_site_type_symbol
_atom_site_fract_x
_atom_site_fract_y
_atom_site_fract_z
_atom_type_partial_charge
Co0 Co 0.29297 0.99323 0.0502 0.0
Co1 Co 0.40223 0.98343 0.07508 0.0
C2 C 0.33758 0.07851 0.08126 0.0
O3 O 0.30013 0.05929 0.0688 0.0
O4 O 0.37936 0.05387 0.08449 0.0
C5 C 0.18595 0.01756 0.04275 0.0
O6 O 0.19044 0.03863 0.0654 0.0
C7 C 0.46291 0.97209 0.12051 0.0
C8 C 0.53626 0.93952 0.10662 0.0
C9 C 0.50973 0.95238 0.12863 0.0
N10 N 0.4617 0.97057 0.09503 0.0
N11 N 0.50609 0.95228 0.08671 0.0
C12 C 0.41702 0.98528 0.13652 0.0
H13 H 0.3816 0.98741 0.12473 0.0
H14 H 0.41168 0.95625 0.15178 0.0
H15 H 0.42337 0.02335 0.14563 0.0
C16 C 0.27539 0.89621 0.07895 0.0
N17 N 0.30433 0.93719 0.07234 0.0
N18 N 0.35114 0.93166 0.08166 0.0
C19 C 0.35392 0.88598 0.09376 0.0
C20 C 0.30587 0.86232 0.09284 0.0
C21 C 0.21985 0.89 0.07194 0.0
H22 H 0.21709 0.87697 0.05187 0.0
H23 H 0.1999 0.92759 0.07354 0.0
H24 H 0.20038 0.8615 0.08438 0.0
O25 O 0.34332 0.98859 0.0217 0.0
O26 O 0.4211 0.98146 0.0391 0.0
H27 H 0.40058 0.81926 0.10253 0.0
H28 H 0.41117 0.87446 0.12256 0.0
C29 C 0.40314 0.86193 0.10278 0.0
H30 H 0.43553 0.87375 0.0904 0.0
H31 H 0.51457 0.94576 0.06758 0.0
O32 O 0.22392 0.99274 0.03365 0.0
C33 C 0.39203 0.9836 0.01964 0.0
Co34 Co 0.50632 0.77953 0.30441 0.0
Co35 Co 0.51005 0.88746 0.33091 0.0
C36 C 0.41871 0.8181 0.33626 0.0
O37 O 0.44028 0.78208 0.32377 0.0
O38 O 0.44072 0.86128 0.33969 0.0
C39 C 0.4873 0.6713 0.29607 0.0
O40 O 0.46776 0.67294 0.31911 0.0
C41 C 0.51009 0.95475 0.37495 0.0
C42 C 0.55382 0.02236 0.36137 0.0
C43 C 0.53101 0.00125 0.38281 0.0
N44 N 0.52045 0.94848 0.35013 0.0
N45 N 0.5453 0.98966 0.3419 0.0
C46 C 0.48821 0.91314 0.39148 0.0
H47 H 0.49148 0.87505 0.38203 0.0
H48 H 0.50839 0.91182 0.4101 0.0
H49 H 0.44689 0.92137 0.39504 0.0
C50 C 0.60945 0.77063 0.32849 0.0
N51 N 0.56365 0.79426 0.32546 0.0
N52 N 0.56432 0.83872 0.33758 0.0
C53 C 0.61025 0.84397 0.34941 0.0
C54 C 0.64084 0.80141 0.34376 0.0
C55 C 0.62467 0.7231 0.3142 0.0
H56 H 0.60663 0.72308 0.29507 0.0
H57 H 0.61056 0.68877 0.32466 0.0
H58 H 0.66709 0.72034 0.31205 0.0
O59 O 0.50654 0.82989 0.27632 0.0
O60 O 0.51127 0.90694 0.29461 0.0
H61 H 0.62874 0.92387 0.35407 0.0
H62 H 0.6605 0.88204 0.37676 0.0
C63 C 0.62445 0.88886 0.36595 0.0
H64 H 0.59354 0.89553 0.37999 0.0
H65 H 0.55917 0.99396 0.32339 0.0
O66 O 0.5093 0.71126 0.28727 0.0
C67 C 0.50962 0.87874 0.2748 0.0
Co68 Co 0.73876 0.02971 0.55854 0.0
Co69 Co 0.62409 0.04048 0.57526 0.0
C70 C 0.68956 0.94759 0.58906 0.0
O71 O 0.73 0.96615 0.5789 0.0
O72 O 0.64684 0.97164 0.58822 0.0
C73 C 0.84462 0.00135 0.5494 0.0
O74 O 0.83807 0.9695 0.56854 0.0
C75 C 0.55268 0.05194 0.61619 0.0
C76 C 0.4824 0.08314 0.59814 0.0
C77 C 0.50369 0.06991 0.62145 0.0
N78 N 0.56004 0.05398 0.59103 0.0
N79 N 0.51766 0.07175 0.58016 0.0
C80 C 0.59457 0.03961 0.63487 0.0
H81 H 0.63291 0.04088 0.62561 0.0
H82 H 0.59391 0.06716 0.65105 0.0
H83 H 0.58827 0.00027 0.6425 0.0
C84 C 0.74694 0.13125 0.5838 0.0
N85 N 0.72051 0.08848 0.57751 0.0
N86 N 0.67168 0.09459 0.58345 0.0
C87 C 0.66518 0.14236 0.5931 0.0
C88 C 0.71276 0.16726 0.5938 0.0
C89 C 0.80374 0.13716 0.57989 0.0
H90 H 0.81104 0.14894 0.55993 0.0
H91 H 0.82328 0.09975 0.58315 0.0
H92 H 0.8201 0.16664 0.59292 0.0
O93 O 0.69563 0.02736 0.52735 0.0
O94 O 0.61384 0.03756 0.53833 0.0
H95 H 0.58512 0.1521 0.58407 0.0
H96 H 0.61516 0.20865 0.59726 0.0
C97 C 0.61359 0.166 0.59823 0.0
H98 H 0.60048 0.15455 0.61749 0.0
H99 H 0.51373 0.0784 0.56068 0.0
O100 O 0.80927 0.0335 0.54424 0.0
C101 C 0.64826 0.03174 0.5214 0.0
Co102 Co 0.49723 0.21412 0.80239 0.0
Co103 Co 0.49193 0.10189 0.82373 0.0
C104 C 0.58625 0.16881 0.83005 0.0
O105 O 0.5652 0.20694 0.81896 0.0
O106 O 0.56261 0.12614 0.83268 0.0
C107 C 0.51574 0.32346 0.79624 0.0
O108 O 0.54371 0.31901 0.81698 0.0
C109 C 0.48389 0.03494 0.86695 0.0
C110 C 0.45009 0.96374 0.85094 0.0
C111 C 0.46398 0.98731 0.87366 0.0
N112 N 0.48148 0.03946 0.84159 0.0
N113 N 0.46256 0.99632 0.83198 0.0
C114 C 0.49745 0.07874 0.88434 0.0
H115 H 0.50018 0.11546 0.87366 0.0
H116 H 0.46828 0.08259 0.89965 0.0
H117 H 0.53529 0.07093 0.89339 0.0
C118 C 0.40344 0.22577 0.83358 0.0
N119 N 0.44411 0.19834 0.82538 0.0
N120 N 0.43963 0.15034 0.8331 0.0
C121 C 0.39468 0.14528 0.84573 0.0
C122 C 0.37054 0.19302 0.84672 0.0
C123 C 0.39665 0.28213 0.82872 0.0
H124 H 0.38348 0.2878 0.80882 0.0
H125 H 0.43409 0.30218 0.83106 0.0
H126 H 0.36817 0.2994 0.84193 0.0
O127 O 0.49127 0.16776 0.77243 0.0
O128 O 0.48736 0.08777 0.78722 0.0
H129 H 0.38336 0.06408 0.83987 0.0
H130 H 0.32885 0.09658 0.85354 0.0
C131 C 0.37156 0.09467 0.85334 0.0
H132 H 0.3849 0.08443 0.87273 0.0
H133 H 0.45498 0.99051 0.81268 0.0
O134 O 0.491 0.2845 0.78807 0.0
C135 C 0.48714 0.11939 0.76878 0.0
Co136 Co 0.74224 0.53845 0.68771 0.0
Co137 Co 0.83176 0.53208 0.64816 0.0
C138 C 0.75087 0.45021 0.65093 0.0
O139 O 0.72806 0.47253 0.6693 0.0
O140 O 0.79062 0.47002 0.64079 0.0
C141 C 0.64125 0.52954 0.70803 0.0
O142 O 0.62987 0.5163 0.68454 0.0
C143 C 0.87034 0.53447 0.59667 0.0
C144 C 0.95307 0.55179 0.60164 0.0
C145 C 0.91523 0.5444 0.58335 0.0
N146 N 0.8809 0.5366 0.62163 0.0
N147 N 0.93065 0.54583 0.62456 0.0
C148 C 0.81783 0.5232 0.58611 0.0
H149 H 0.81128 0.481 0.5868 0.0
H150 H 0.78783 0.54164 0.59807 0.0
H151 H 0.81392 0.53576 0.56606 0.0
C152 C 0.72987 0.64247 0.66468 0.0
N153 N 0.7515 0.59528 0.66562 0.0
N154 N 0.79046 0.59339 0.64962 0.0
C155 C 0.79508 0.6396 0.63813 0.0
C156 C 0.75689 0.67232 0.64724 0.0
C157 C 0.6875 0.65962 0.68198 0.0
H158 H 0.6976 0.64986 0.70192 0.0
H159 H 0.65173 0.6383 0.67708 0.0
H160 H 0.68037 0.70164 0.68046 0.0
O161 O 0.80522 0.53002 0.70836 0.0
O162 O 0.86916 0.52111 0.68056 0.0
H163 H 0.87371 0.6405 0.62564 0.0
H164 H 0.83559 0.69297 0.61309 0.0
C165 C 0.8351 0.65183 0.61855 0.0
H166 H 0.82643 0.62945 0.60118 0.0
H167 H 0.94884 0.55009 0.64217 0.0
O168 O 0.68601 0.54705 0.71273 0.0
C169 C 0.85259 0.52273 0.70332 0.0
Co170 Co -8e-05 0.24002 0.91999 0.0
Co171 Co 0.99405 0.34248 0.88827 0.0
C172 C 0.0836 0.27336 0.88325 0.0
O173 O 0.06472 0.24306 0.89985 0.0
O174 O 0.05984 0.31375 0.87621 0.0
C175 C 0.02455 0.13453 0.9303 0.0
O176 O 0.04016 0.13476 0.90653 0.0
C177 C 0.98926 0.41848 0.84627 0.0
C178 C 0.9298 0.47114 0.86129 0.0
C179 C 0.95942 0.46118 0.83991 0.0
N180 N 0.97613 0.40315 0.86984 0.0
N181 N 0.94163 0.43566 0.87892 0.0
C182 C 0.03074 0.3934 0.83088 0.0
H183 H 0.01574 0.35713 0.82244 0.0
H184 H 0.0449 0.4193 0.81563 0.0
H185 H 0.06372 0.38363 0.84336 0.0
C186 C 0.89626 0.22489 0.89647 0.0
N187 N 0.94117 0.25052 0.89924 0.0
N188 N 0.94014 0.29239 0.88511 0.0
C189 C 0.8954 0.29352 0.87211 0.0
C190 C 0.86545 0.25156 0.87926 0.0
C191 C 0.88174 0.17853 0.91176 0.0
H192 H 0.90111 0.17961 0.93058 0.0
H193 H 0.89467 0.14341 0.90155 0.0
H194 H 0.83939 0.17628 0.91445 0.0
O195 O 0.00198 0.29338 0.94623 0.0
O196 O 0.00155 0.36601 0.92411 0.0
H197 H 0.86895 0.36843 0.86137 0.0
H198 H 0.852 0.31824 0.83911 0.0
C199 C 0.88256 0.33255 0.85213 0.0
H200 H 0.91729 0.34129 0.8407 0.0
H201 H 0.92439 0.43214 0.89676 0.0
O202 O 0.00104 0.17381 0.93888 0.0
C203 C 0.00314 0.34226 0.94525 0.0
Co204 Co 0.26376 0.49477 0.16799 0.0
Co205 Co 0.16203 0.48238 0.13604 0.0
C206 C 0.23011 0.57389 0.12951 0.0
O207 O 0.26115 0.55697 0.14631 0.0
O208 O 0.19003 0.54864 0.12309 0.0
C209 C 0.36869 0.52103 0.18001 0.0
O210 O 0.36973 0.53731 0.15635 0.0
C211 C 0.09533 0.46441 0.09167 0.0
C212 C 0.02737 0.42903 0.11001 0.0
C213 C 0.0481 0.44121 0.08648 0.0
N214 N 0.10232 0.46464 0.117 0.0
N215 N 0.061 0.44475 0.12787 0.0
C216 C 0.1359 0.48073 0.0731 0.0
H217 H 0.12489 0.51833 0.06469 0.0
H218 H 0.17371 0.48519 0.08276 0.0
H219 H 0.13933 0.45218 0.05745 0.0
C220 C 0.28114 0.38879 0.14804 0.0
N221 N 0.25442 0.43327 0.14889 0.0
N222 N 0.21204 0.42835 0.13523 0.0
C223 C 0.21064 0.38058 0.12516 0.0
C224 C 0.25409 0.35371 0.13308 0.0
C225 C 0.32889 0.37903 0.16326 0.0
H226 H 0.36141 0.40064 0.15466 0.0
H227 H 0.33861 0.33744 0.16388 0.0
H228 H 0.32358 0.39369 0.18292 0.0
O229 O 0.20898 0.50089 0.1935 0.0
O230 O 0.13688 0.49089 0.17123 0.0
H231 H 0.17594 0.32179 0.1009 0.0
H232 H 0.16547 0.38666 0.09141 0.0
C233 C 0.16852 0.36116 0.10813 0.0
H234 H 0.13134 0.36176 0.11849 0.0
H235 H 0.05687 0.4395 0.14745 0.0
O236 O 0.3289 0.49737 0.18791 0.0
C237 C 0.16016 0.49817 0.19219 0.0
Co238 Co 0.0053 0.74394 0.42404 0.0
Co239 Co 0.01375 0.64353 0.39194 0.0
C240 C 0.92369 0.71952 0.38824 0.0
O241 O 0.94415 0.75412 0.40214 0.0
O242 O 0.94621 0.67674 0.38425 0.0
C243 C 0.99483 0.84652 0.4459 0.0
O244 O 0.97733 0.86039 0.42346 0.0
C245 C 0.03064 0.60692 0.34104 0.0
C246 C 0.04413 0.52352 0.34582 0.0
C247 C 0.04415 0.56275 0.32794 0.0
N248 N 0.02403 0.59479 0.3656 0.0
N249 N 0.03104 0.54468 0.36835 0.0
C250 C 0.02471 0.66025 0.33053 0.0
H251 H 0.99208 0.68007 0.33995 0.0
H252 H 0.05996 0.68305 0.33448 0.0
H253 H 0.01816 0.6592 0.30966 0.0
C254 C 0.11158 0.75942 0.4045 0.0
N255 N 0.06641 0.73379 0.40531 0.0
N256 N 0.07109 0.68982 0.39309 0.0
C257 C 0.12013 0.68502 0.38496 0.0
C258 C 0.14732 0.72934 0.39156 0.0
C259 C 0.12123 0.80918 0.41811 0.0
H260 H 0.11428 0.80367 0.43876 0.0
H261 H 0.09348 0.83855 0.41125 0.0
H262 H 0.16121 0.8232 0.41532 0.0
O263 O 0.99253 0.68253 0.44571 0.0
O264 O 0.00723 0.60926 0.42496 0.0
H265 H 0.12086 0.60306 0.37897 0.0
H266 H 0.18257 0.63312 0.37454 0.0
C267 C 0.14065 0.638 0.37186 0.0
H268 H 0.1338 0.64151 0.35119 0.0
H269 H 0.0291 0.52538 0.38573 0.0
O270 O 0.01107 0.80083 0.44901 0.0
C271 C 0.99536 0.6335 0.44515 0.0
H272 H 0.17132 0.99157 -0.00705 0.0
H273 H 0.10175 0.07561 0.05496 0.0
H274 H 0.03925 0.1132 0.02569 0.0
H275 H 0.01321 0.13227 0.98184 0.0
H276 H 0.08549 0.0514 0.91958 0.0
H277 H 0.13718 0.00188 0.94965 0.0
C278 C 0.14187 0.01731 0.00019 0.0
C279 C 0.14192 0.03144 0.02608 0.0
C280 C 0.10671 0.03978 0.98314 0.0
C281 C 0.10309 0.06446 0.0351 0.0
C282 C 0.06735 0.08616 0.01834 0.0
C283 C 0.03942 0.10304 0.97481 0.0
C284 C 0.04607 0.09634 0.94842 0.0
C285 C 0.07012 0.07566 -0.00781 0.0
C286 C 0.0799 0.05785 0.93975 0.0
C287 C 0.10974 0.02964 0.95695 0.0
H288 H 0.37052 0.50534 0.23131 0.0
H289 H 0.45214 0.58268 0.17083 0.0
H290 H 0.5023 0.63105 0.20208 0.0
H291 H 0.51326 0.66083 0.24609 0.0
H292 H 0.42892 0.58608 0.30645 0.0
H293 H 0.39035 0.52683 0.27576 0.0
C294 C 0.40002 0.53197 0.22491 0.0
C295 C 0.40678 0.541 0.1987 0.0
C296 C 0.42793 0.56064 0.243 0.0
C297 C 0.44563 0.57528 0.19084 0.0
C298 C 0.47424 0.6032 0.20873 0.0
C299 C 0.48723 0.63095 0.25265 0.0
C300 C 0.4733 0.62864 0.27852 0.0
C301 C 0.46421 0.59771 0.23481 0.0
C302 C 0.43998 0.5892 0.28665 0.0
C303 C 0.41767 0.55537 0.26907 0.0
H304 H 0.95276 0.94276 0.44756 0.0
H305 H 0.01452 0.82287 0.49561 0.0
H306 H 0.98034 0.86593 0.53312 0.0
H307 H 0.92045 0.92902 0.55126 0.0
H308 H 0.85731 0.04812 0.50319 0.0
H309 H 0.90545 0.01467 0.46702 0.0
C310 C 0.95974 0.92661 0.46627 0.0
C311 C 0.98502 0.87895 0.46863 0.0
C312 C 0.93926 0.95119 0.48785 0.0
C313 C 0.99446 0.85909 0.49311 0.0
C314 C 0.97477 0.88361 0.51465 0.0
C315 C 0.91815 0.94846 0.53304 0.0
C316 C 0.88424 0.99018 0.52986 0.0
C317 C 0.94513 0.9284 0.51211 0.0
C318 C 0.88249 0.01542 0.50617 0.0
C319 C 0.90982 0.99613 0.48537 0.0
H320 H 0.55313 0.47288 0.7051 0.0
H321 H 0.6598 0.53938 0.75911 0.0
H322 H 0.62397 0.48584 0.79282 0.0
H323 H 0.57376 0.40938 0.80489 0.0
H324 H 0.46947 0.34092 0.75033 0.0
H325 H 0.49254 0.40632 0.71914 0.0
C326 C 0.56771 0.4767 0.72437 0.0
C327 C 0.60999 0.50918 0.72937 0.0
C328 C 0.54794 0.4447 0.74355 0.0
C329 C 0.62779 0.51413 0.75457 0.0
C330 C 0.60753 0.48325 0.77388 0.0
C331 C 0.55523 0.40938 0.78637 0.0
C332 C 0.52092 0.36949 0.77979 0.0
C333 C 0.56941 0.44659 0.76828 0.0
C334 C 0.49668 0.37062 0.75582 0.0
C335 C 0.50993 0.408 0.7379 0.0
H336 H 0.51846 0.99171 0.9176 0.0
H337 H 0.36998 0.95037 0.88678 0.0
H338 H 0.33477 0.94303 0.92974 0.0
H339 H 0.34403 0.95763 0.97562 0.0
H340 H 0.49236 0.00034 0.00652 0.0
H341 H 0.52972 0.99871 0.96391 0.0
C342 C 0.47856 0.98065 0.9204 0.0
C343 C 0.44655 0.9724 0.89924 0.0
C344 C 0.45839 0.97772 0.94506 0.0
C345 C 0.39528 0.95681 0.9029 0.0
C346 C 0.37502 0.95319 0.92741 0.0
C347 C 0.38456 0.96648 0.97303 0.0
C348 C 0.41518 0.97995 -0.0059 0.0
C349 C 0.40582 0.96519 0.94856 0.0
C350 C 0.46788 0.99024 -0.00945 0.0
C351 C 0.48929 0.98928 0.96622 0.0
H352 H 0.53973 0.83331 0.23102 0.0
H353 H 0.4869 0.97817 0.26176 0.0
H354 H 0.48753 0.01591 0.21911 0.0
H355 H 0.49772 0.0056 0.17279 0.0
H356 H 0.54988 0.86032 0.14246 0.0
H357 H 0.55658 0.82525 0.18544 0.0
C358 C 0.52837 0.87317 0.22841 0.0
C359 C 0.51242 0.90267 0.2494 0.0
C360 C 0.52918 0.89458 0.20399 0.0
C361 C 0.49896 0.95458 0.24583 0.0
C362 C 0.49933 0.97616 0.22149 0.0
C363 C 0.51071 0.96636 0.17568 0.0
C364 C 0.52235 0.93519 0.15461 0.0
C365 C 0.51356 0.94623 0.20039 0.0
C366 C 0.54069 0.88496 0.15848 0.0
C367 C 0.54404 0.86475 0.18299 0.0
H368 H 0.62419 0.02224 0.40227 0.0
H369 H 0.46376 0.01014 0.4224 0.0
H370 H 0.4857 0.02104 0.46752 0.0
H371 H 0.55147 0.02764 0.50119 0.0
H372 H 0.71241 0.03478 0.48044 0.0
H373 H 0.68931 0.03203 0.43557 0.0
C374 C 0.59401 0.02317 0.41654 0.0
C375 C 0.54254 0.01579 0.40926 0.0
C376 C 0.6071 0.0277 0.44229 0.0
C377 C 0.50367 0.01594 0.42778 0.0
C378 C 0.51625 0.02187 0.45349 0.0
C379 C 0.58146 0.02884 0.48685 0.0
C380 C 0.63358 0.03104 0.49421 0.0
C381 C 0.56799 0.02664 0.46099 0.0
C382 C 0.67198 0.0326 0.47537 0.0
C383 C 0.65886 0.03124 0.44966 0.0
H384 H 0.46168 0.17334 0.72642 0.0
H385 H 0.50237 0.02084 0.75232 0.0
H386 H 0.50307 0.98987 0.70846 0.0
H387 H 0.50131 0.0085 0.66272 0.0
H388 H 0.46314 0.16114 0.63673 0.0
H389 H 0.45041 0.18944 0.68074 0.0
C390 C 0.4704 0.13325 0.72248 0.0
C391 C 0.48297 0.09968 0.74252 0.0
C392 C 0.4708 0.11572 0.69726 0.0
C393 C 0.49307 0.04759 0.73719 0.0
C394 C 0.49346 0.02982 0.71214 0.0
C395 C 0.48944 0.04771 0.66679 0.0
C396 C 0.48396 0.08304 0.64682 0.0
C397 C 0.48369 0.06387 0.69203 0.0
C398 C 0.4675 0.13342 0.65198 0.0
C399 C 0.46084 0.14969 0.67709 0.0
H400 H 0.9695 0.41803 0.79237 0.0
H401 H 0.92422 0.5578 0.83096 0.0
H402 H 0.89056 0.59208 0.79108 0.0
H403 H 0.86469 0.57735 0.74654 0.0
H404 H 0.91676 0.44105 0.70747 0.0
H405 H 0.9597 0.41116 0.74626 0.0
C406 C 0.95515 0.45709 0.79206 0.0
C407 C 0.95021 0.48545 0.81478 0.0
C408 C 0.9367 0.47698 0.76899 0.0
C409 C 0.92849 0.53504 0.8138 0.0
C410 C 0.90915 0.5547 0.79101 0.0
C411 C 0.88663 0.54178 0.74647 0.0
C412 C 0.88745 0.51106 0.72451 0.0
C413 C 0.91157 0.52527 0.76869 0.0
C414 C 0.91599 0.46522 0.7243 0.0
C415 C 0.94012 0.44802 0.74648 0.0
H416 H 0.98258 0.30752 -0.00752 0.0
H417 H 0.03366 0.44262 0.95187 0.0
H418 H 0.04844 0.48744 -0.00773 0.0
H419 H 0.05199 0.48569 0.03924 0.0
H420 H 0.00196 0.34906 0.07897 0.0
H421 H 0.98035 0.30789 0.03874 0.0
C422 C 0.99677 0.34686 -0.00758 0.0
C423 C 0.00774 0.37144 0.96927 0.0
C424 C 0.00524 0.37215 0.01555 0.0
C425 C 0.02516 0.42276 0.96949 0.0
C426 C 0.03373 0.44834 -0.00744 0.0
C427 C 0.03661 0.44687 0.03903 0.0
C428 C 0.02972 0.42005 0.062 0.0
C429 C 0.02485 0.42301 0.01573 0.0
C430 C 0.00783 0.3705 0.06154 0.0
C431 C 0.99575 0.34673 0.03854 0.0
H432 H 0.17703 0.56869 0.2284 0.0
H433 H 0.07615 0.44345 0.20771 0.0
H434 H 0.03007 0.45237 0.24827 0.0
H435 H 0.02143 0.49433 0.29049 0.0
H436 H 0.11913 0.62385 0.30866 0.0
H437 H 0.16339 0.61515 0.2682 0.0
C438 C 0.14483 0.54351 0.23282 0.0
C439 C 0.13018 0.50512 0.21554 0.0
C440 C 0.11803 0.54977 0.25565 0.0
C441 C 0.08792 0.47321 0.22099 0.0
C442 C 0.06178 0.47823 0.24411 0.0
C443 C 0.0521 0.52077 0.28535 0.0
C444 C 0.06703 0.55965 0.30241 0.0
C445 C 0.07687 0.51612 0.26171 0.0
C446 C 0.10664 0.59393 0.29572 0.0
C447 C 0.13219 0.58884 0.27263 0.0
H448 H 0.92183 0.6577 0.47847 0.0
H449 H 0.0412 0.54633 0.46389 0.0
H450 H 0.02542 0.50637 0.50555 0.0
H451 H 0.98119 0.50805 0.5475 0.0
H452 H 0.86047 0.61909 0.56022 0.0
H453 H 0.87291 0.65428 0.51782 0.0
C454 C 0.94414 0.62443 0.48438 0.0
C455 C 0.98301 0.60526 0.46854 0.0
C456 C 0.93454 0.60177 0.50797 0.0
C457 C 0.01111 0.56163 0.47598 0.0
C458 C 0.00224 0.53904 0.49977 0.0
C459 C 0.95728 0.5394 0.54069 0.0
C460 C 0.91961 0.56067 0.55669 0.0
C461 C 0.96462 0.55944 0.51613 0.0
C462 C 0.88898 0.60155 0.54799 0.0
C463 C 0.89632 0.62193 0.52384 0.0
H464 H 0.28061 0.65291 0.15174 0.0
H465 H 0.19913 0.61089 0.08316 0.0
H466 H 0.21444 0.69713 0.06569 0.0
H467 H 0.25308 0.78397 0.06977 0.0
H468 H 0.32868 0.82656 0.13987 0.0
H469 H 0.31387 0.74038 0.1569 0.0
C470 C 0.26641 0.66251 0.1329 0.0
C471 C 0.23936 0.6255 0.11861 0.0
C472 C 0.27425 0.71225 0.12332 0.0
C473 C 0.22026 0.63878 0.09446 0.0
C474 C 0.22897 0.68802 0.0845 0.0
C475 C 0.2654 0.77457 0.08893 0.0
C476 C 0.2922 0.81136 0.10352 0.0
C477 C 0.25597 0.72508 0.09877 0.0
C478 C 0.30862 0.79855 0.12818 0.0
C479 C 0.30007 0.74938 0.13794 0.0
H480 H 0.87844 0.80772 0.37121 0.0
H481 H 0.84978 0.64625 0.38432 0.0
H482 H 0.7596 0.65712 0.3721 0.0
H483 H 0.68784 0.71338 0.35942 0.0
H484 H 0.71871 0.87223 0.34095 0.0
H485 H 0.80853 0.86191 0.35385 0.0
C486 C 0.8524 0.77498 0.3712 0.0
C487 C 0.87053 0.72639 0.37877 0.0
C488 C 0.80082 0.7812 0.3635 0.0
C489 C 0.83669 0.68404 0.37844 0.0
C490 C 0.78507 0.69024 0.37157 0.0
C491 C 0.7144 0.74552 0.35791 0.0
C492 C 0.69622 0.79386 0.34998 0.0
C493 C 0.76658 0.73873 0.36428 0.0
C494 C 0.73123 0.83508 0.34796 0.0
C495 C 0.78278 0.8291 0.35507 0.0
H496 H 0.67749 0.22008 0.63501 0.0
H497 H 0.7704 0.23711 0.56756 0.0
H498 H 0.78921 0.32632 0.57896 0.0
H499 H 0.78051 0.39893 0.60834 0.0
H500 H 0.68381 0.38434 0.67472 0.0
H501 H 0.66379 0.29529 0.66302 0.0
C502 C 0.70145 0.24355 0.62272 0.0
C503 C 0.72327 0.22174 0.60071 0.0
C504 C 0.71097 0.29536 0.62904 0.0
C505 C 0.75436 0.25248 0.58499 0.0
C506 C 0.76466 0.3037 0.59134 0.0
C507 C 0.75472 0.37651 0.62019 0.0
C508 C 0.73398 0.39832 0.64246 0.0
C509 C 0.74342 0.32543 0.61339 0.0
C510 C 0.70029 0.36865 0.65744 0.0
C511 C 0.68905 0.31759 0.65085 0.0
H512 H 0.29334 0.24687 0.82422 0.0
H513 H 0.33231 0.16405 0.89264 0.0
H514 H 0.24589 0.17943 0.90953 0.0
H515 H 0.15974 0.21719 0.90493 0.0
H516 H 0.12268 0.30501 0.83769 0.0
H517 H 0.2083 0.28772 0.82036 0.0
C518 C 0.28316 0.23302 0.84301 0.0
C519 C 0.31902 0.20458 0.85724 0.0
C520 C 0.23385 0.24288 0.85275 0.0
C521 C 0.30505 0.18575 0.8813 0.0
C522 C 0.25579 0.19465 0.89097 0.0
C523 C 0.17035 0.23234 0.88643 0.0
C524 C 0.13494 0.26216 0.87256 0.0
C525 C 0.21987 0.22309 0.87683 0.0
C526 C 0.14937 0.28211 0.84876 0.0
C527 C 0.19826 0.27218 0.83884 0.0
H528 H 0.66991 0.71943 0.6301 0.0
H529 H 0.82802 0.74878 0.6507 0.0
H530 H 0.82128 0.8369 0.63466 0.0
H531 H 0.77208 0.90371 0.61219 0.0
H532 H 0.61209 0.87707 0.59406 0.0
H533 H 0.61758 0.79015 0.61187 0.0
C534 C 0.7025 0.74552 0.63139 0.0
C535 C 0.74978 0.7275 0.64091 0.0
C536 C 0.69809 0.79642 0.62239 0.0
C537 C 0.79164 0.76164 0.64282 0.0
C538 C 0.78779 0.81196 0.63369 0.0
C539 C 0.73838 0.87892 0.61224 0.0
C540 C 0.69198 0.89649 0.60151 0.0
C541 C 0.74156 0.8294 0.62291 0.0
C542 C 0.64834 0.86434 0.60214 0.0
C543 C 0.65146 0.8146 0.61227 0.0
H544 H 0.63204 0.25633 0.84638 0.0
H545 H 0.65879 0.09359 0.83655 0.0
H546 H 0.7477 0.10411 0.85148 0.0
H547 H 0.81907 0.16089 0.86569 0.0
H548 H 0.78862 0.32216 0.8785 0.0
H549 H 0.70016 0.31103 0.86391 0.0
C550 C 0.65735 0.22317 0.8475 0.0
C551 C 0.63918 0.17443 0.8401 0.0
C552 C 0.70787 0.22932 0.85652 0.0
C553 C 0.67202 0.13159 0.84211 0.0
C554 C 0.72285 0.13759 0.85059 0.0
C555 C 0.79278 0.19332 0.86557 0.0
C556 C 0.81067 0.24251 0.87254 0.0
C557 C 0.74136 0.1864 0.85767 0.0
C558 C 0.7762 0.28422 0.87244 0.0
C559 C 0.72549 0.27786 0.86427 0.0
H560 H 0.34297 0.31188 0.11501 0.0
H561 H 0.1906 0.27234 0.14108 0.0
H562 H 0.20274 0.18336 0.12715 0.0
H563 H 0.25445 0.11832 0.10485 0.0
H564 H 0.40977 0.15471 0.08217 0.0
H565 H 0.39917 0.24327 0.09761 0.0
C566 C 0.31293 0.28343 0.11801 0.0
C567 C 0.26545 0.29867 0.12834 0.0
C568 C 0.32057 0.23204 0.11035 0.0
C569 C 0.22695 0.26154 0.13249 0.0
C570 C 0.23387 0.21075 0.12457 0.0
C571 C 0.28595 0.1457 0.10342 0.0
C572 C 0.33245 0.13062 0.09208 0.0
C573 C 0.28002 0.19588 0.11291 0.0
C574 C 0.37351 0.16582 0.09076 0.0
C575 C 0.36744 0.21636 0.09954 0.0
H576 H 0.38375 0.73765 0.36408 0.0
H577 H 0.33715 0.88226 0.33119 0.0
H578 H 0.24874 0.86858 0.34608 0.0
H579 H 0.18386 0.81307 0.3668 0.0
H580 H 0.23293 0.674 0.40428 0.0
H581 H 0.32117 0.68765 0.3894 0.0
C582 C 0.3541 0.76606 0.36027 0.0
C583 C 0.36634 0.81043 0.3463 0.0
C584 C 0.30391 0.75874 0.36962 0.0
C585 C 0.3282 0.84768 0.34185 0.0
C586 C 0.27778 0.83986 0.35033 0.0
C587 C 0.21413 0.78622 0.37194 0.0
C588 C 0.20179 0.74158 0.38572 0.0
C589 C 0.26507 0.7953 0.36405 0.0
C590 C 0.24128 0.70747 0.39271 0.0
C591 C 0.29176 0.71547 0.38439 0.0
loop_
_geom_bond_atom_site_label_1
_geom_bond_atom_site_label_2
_geom_bond_distance
_geom_bond_site_symmetry_2
_ccdc_geom_bond_type
Co0 O3 1.970 . S
Co0 N17 1.989 . S
Co0 O25 1.967 . S
Co0 O32 1.920 . S
Co1 O4 1.966 . S
Co1 N10 2.022 . S
Co1 N18 1.993 . S
Co1 O26 1.941 . S
C2 O3 1.258 . S
C2 O4 1.263 . S
O3 Co0 1.970 . S
O3 C2 1.258 . S
O4 Co1 1.966 . S
O4 C2 1.263 . S
C5 O6 1.235 . S
C5 O32 1.289 . S
O6 C5 1.235 . S
C7 C9 1.400 . S
C7 N10 1.351 . S
C7 C12 1.501 . S
C8 C9 1.387 1_565 S
C8 N11 1.341 . S
C9 C7 1.400 . S
C9 C8 1.387 1_545 S
N10 Co1 2.022 . S
N10 C7 1.351 . S
N10 N11 1.365 1_545 S
N11 C8 1.341 . S
N11 N10 1.365 1_565 S
N11 H31 0.862 . S
C12 C7 1.501 . S
C12 H13 0.961 . S
C12 H14 0.961 . S
C12 H15 0.960 . S
H13 C12 0.961 . S
H14 C12 0.961 . S
H15 C12 0.960 . S
C16 N17 1.342 1_565 S
C16 C20 1.401 . S
C16 C21 1.499 . S
N17 Co0 1.989 . S
N17 C16 1.342 1_545 S
N17 N18 1.388 . S
N18 Co1 1.993 . S
N18 N17 1.388 . S
N18 C19 1.346 1_545 S
C19 N18 1.346 1_565 S
C19 C20 1.396 . S
C19 C29 1.510 . S
C20 C16 1.401 . S
C20 C19 1.396 . S
C21 C16 1.499 . S
C21 H22 0.959 1_565 S
C21 H23 0.960 . S
C21 H24 0.961 . S
H22 C21 0.959 1_545 S
H23 C21 0.960 . S
H24 C21 0.961 . S
O25 Co0 1.967 . S
O25 C33 1.258 . S
O26 Co1 1.941 . S
O26 C33 1.266 . S
H27 C29 0.959 . S
H28 C29 0.961 . S
C29 C19 1.510 . S
C29 H27 0.959 . S
C29 H28 0.961 . S
C29 H30 0.960 . S
H30 C29 0.960 . S
H31 N11 0.862 . S
O32 Co0 1.920 . S
O32 C5 1.289 . S
C33 O25 1.258 . S
C33 O26 1.266 . S
Co34 O37 1.970 . S
Co34 N51 1.989 . S
Co34 O59 1.967 . S
Co34 O66 1.920 . S
Co35 O38 1.966 . S
Co35 N44 2.022 . S
Co35 N52 1.993 . S
Co35 O60 1.941 . S
C36 O37 1.258 . S
C36 O38 1.263 . S
O37 Co34 1.970 . S
O37 C36 1.258 . S
O38 Co35 1.966 . S
O38 C36 1.263 . S
C39 O40 1.235 . S
C39 O66 1.289 . S
O40 C39 1.235 . S
C41 C43 1.400 . S
C41 N44 1.351 . S
C41 C46 1.501 . S
C42 C43 1.387 . S
C42 N45 1.341 . S
C43 C41 1.400 . S
C43 C42 1.387 . S
N44 Co35 2.022 . S
N44 C41 1.351 . S
N44 N45 1.365 . S
N45 C42 1.341 . S
N45 N44 1.365 . S
N45 H65 0.862 . S
C46 C41 1.501 . S
C46 H47 0.961 . S
C46 H48 0.961 . S
C46 H49 0.960 . S
H47 C46 0.961 . S
H48 C46 0.961 . S
H49 C46 0.960 . S
C50 N51 1.342 . S
C50 C54 1.401 . S
C50 C55 1.499 . S
N51 Co34 1.989 . S
N51 C50 1.342 . S
N51 N52 1.388 . S
N52 Co35 1.993 . S
N52 N51 1.388 . S
N52 C53 1.346 . S
C53 N52 1.346 . S
C53 C54 1.396 . S
C53 C63 1.510 . S
C54 C50 1.401 . S
C54 C53 1.396 . S
C55 C50 1.499 . S
C55 H56 0.959 . S
C55 H57 0.960 . S
C55 H58 0.961 . S
H56 C55 0.959 . S
H57 C55 0.960 . S
H58 C55 0.961 . S
O59 Co34 1.967 . S
O59 C67 1.258 . S
O60 Co35 1.941 . S
O60 C67 1.266 . S
H61 C63 0.959 . S
H62 C63 0.961 . S
C63 C53 1.510 . S
C63 H61 0.959 . S
C63 H62 0.961 . S
C63 H64 0.960 . S
H64 C63 0.960 . S
H65 N45 0.862 . S
O66 Co34 1.920 . S
O66 C39 1.289 . S
C67 O59 1.258 . S
C67 O60 1.266 . S
Co68 O71 1.970 . S
Co68 N85 1.989 . S
Co68 O93 1.967 . S
Co68 O100 1.920 . S
Co69 O72 1.966 . S
Co69 N78 2.022 . S
Co69 N86 1.993 1_565 S
Co69 O94 1.941 . S
C70 O71 1.258 . S
C70 O72 1.263 . S
O71 Co68 1.970 . S
O71 C70 1.258 . S
O72 Co69 1.966 . S
O72 C70 1.263 . S
C73 O74 1.235 . S
C73 O100 1.289 . S
O74 C73 1.235 . S
C75 C77 1.400 1_565 S
C75 N78 1.351 . S
C75 C80 1.501 . S
C76 C77 1.387 . S
C76 N79 1.341 . S
C77 C75 1.400 1_545 S
C77 C76 1.387 . S
N78 Co69 2.022 . S
N78 C75 1.351 . S
N78 N79 1.365 1_565 S
N79 C76 1.341 . S
N79 N78 1.365 1_545 S
N79 H99 0.862 . S
C80 C75 1.501 . S
C80 H81 0.961 . S
C80 H82 0.961 . S
C80 H83 0.960 . S
H81 C80 0.961 . S
H82 C80 0.961 . S
H83 C80 0.960 . S
C84 N85 1.342 1_545 S
C84 C88 1.401 . S
C84 C89 1.499 . S
N85 Co68 1.989 . S
N85 C84 1.342 1_565 S
N85 N86 1.388 1_565 S
N86 Co69 1.993 1_545 S
N86 N85 1.388 1_545 S
N86 C87 1.346 . S
C87 N86 1.346 . S
C87 C88 1.396 . S
C87 C97 1.510 . S
C88 C84 1.401 . S
C88 C87 1.396 . S
C89 C84 1.499 . S
C89 H90 0.959 . S
C89 H91 0.960 . S
C89 H92 0.961 . S
H90 C89 0.959 . S
H91 C89 0.960 . S
H92 C89 0.961 . S
O93 Co68 1.967 . S
O93 C101 1.258 . S
O94 Co69 1.941 . S
O94 C101 1.266 . S
H95 C97 0.959 . S
H96 C97 0.961 . S
C97 C87 1.510 . S
C97 H95 0.959 . S
C97 H96 0.961 . S
C97 H98 0.960 . S
H98 C97 0.960 . S
H99 N79 0.862 . S
O100 Co68 1.920 . S
O100 C73 1.289 . S
C101 O93 1.258 . S
C101 O94 1.266 . S
Co102 O105 1.970 . S
Co102 N119 1.989 . S
Co102 O127 1.967 . S
Co102 O134 1.920 . S
Co103 O106 1.966 . S
Co103 N112 2.022 . S
Co103 N120 1.993 . S
Co103 O128 1.941 . S
C104 O105 1.258 . S
C104 O106 1.263 . S
O105 Co102 1.970 . S
O105 C104 1.258 . S
O106 Co103 1.966 . S
O106 C104 1.263 . S
C107 O108 1.235 . S
C107 O134 1.289 . S
O108 C107 1.235 . S
C109 C111 1.400 . S
C109 N112 1.351 . S
C109 C114 1.501 . S
C110 C111 1.387 . S
C110 N113 1.341 . S
C111 C109 1.400 . S
C111 C110 1.387 . S
N112 Co103 2.022 . S
N112 C109 1.351 . S
N112 N113 1.365 . S
N113 C110 1.341 . S
N113 N112 1.365 . S
N113 H133 0.862 . S
C114 C109 1.501 . S
C114 H115 0.961 . S
C114 H116 0.961 . S
C114 H117 0.960 . S
H115 C114 0.961 . S
H116 C114 0.961 . S
H117 C114 0.960 . S
C118 N119 1.342 . S
C118 C122 1.401 . S
C118 C123 1.499 . S
N119 Co102 1.989 . S
N119 C118 1.342 . S
N119 N120 1.388 . S
N120 Co103 1.993 . S
N120 N119 1.388 . S
N120 C121 1.346 . S
C121 N120 1.346 . S
C121 C122 1.396 . S
C121 C131 1.510 . S
C122 C118 1.401 . S
C122 C121 1.396 . S
C123 C118 1.499 . S
C123 H124 0.959 . S
C123 H125 0.960 . S
C123 H126 0.961 . S
H124 C123 0.959 . S
H125 C123 0.960 . S
H126 C123 0.961 . S
O127 Co102 1.967 . S
O127 C135 1.258 . S
O128 Co103 1.941 . S
O128 C135 1.266 . S
H129 C131 0.959 . S
H130 C131 0.961 . S
C131 C121 1.510 . S
C131 H129 0.959 . S
C131 H130 0.961 . S
C131 H132 0.960 . S
H132 C131 0.960 . S
H133 N113 0.862 . S
O134 Co102 1.920 . S
O134 C107 1.289 . S
C135 O127 1.258 . S
C135 O128 1.266 . S
Co136 O139 1.970 . S
Co136 N153 1.989 . S
Co136 O161 1.967 . S
Co136 O168 1.920 . S
Co137 O140 1.966 . S
Co137 N146 2.022 . S
Co137 N154 1.993 . S
Co137 O162 1.941 . S
C138 O139 1.258 . S
C138 O140 1.263 . S
O139 Co136 1.970 . S
O139 C138 1.258 . S
O140 Co137 1.966 . S
O140 C138 1.263 . S
C141 O142 1.235 . S
C141 O168 1.289 . S
O142 C141 1.235 . S
C143 C145 1.400 . S
C143 N146 1.351 . S
C143 C148 1.501 . S
C144 C145 1.387 . S
C144 N147 1.341 . S
C145 C143 1.400 . S
C145 C144 1.387 . S
N146 Co137 2.022 . S
N146 C143 1.351 . S
N146 N147 1.365 . S
N147 C144 1.341 . S
N147 N146 1.365 . S
N147 H167 0.862 . S
C148 C143 1.501 . S
C148 H149 0.961 . S
C148 H150 0.961 . S
C148 H151 0.960 . S
H149 C148 0.961 . S
H150 C148 0.961 . S
H151 C148 0.960 . S
C152 N153 1.342 . S
C152 C156 1.401 . S
C152 C157 1.499 . S
N153 Co136 1.989 . S
N153 C152 1.342 . S
N153 N154 1.388 . S
N154 Co137 1.993 . S
N154 N153 1.388 . S
N154 C155 1.346 . S
C155 N154 1.346 . S
C155 C156 1.396 . S
C155 C165 1.510 . S
C156 C152 1.401 . S
C156 C155 1.396 . S
C157 C152 1.499 . S
C157 H158 0.959 . S
C157 H159 0.960 . S
C157 H160 0.961 . S
H158 C157 0.959 . S
H159 C157 0.960 . S
H160 C157 0.961 . S
O161 Co136 1.967 . S
O161 C169 1.258 . S
O162 Co137 1.941 . S
O162 C169 1.266 . S
H163 C165 0.959 . S
H164 C165 0.961 . S
C165 C155 1.510 . S
C165 H163 0.959 . S
C165 H164 0.961 . S
C165 H166 0.960 . S
H166 C165 0.960 . S
H167 N147 0.862 . S
O168 Co136 1.920 . S
O168 C141 1.289 . S
C169 O161 1.258 . S
C169 O162 1.266 . S
Co170 O173 1.970 . S
Co170 N187 1.989 . S
Co170 O195 1.967 . S
Co170 O202 1.920 . S
Co171 O174 1.966 . S
Co171 N180 2.022 . S
Co171 N188 1.993 . S
Co171 O196 1.941 . S
C172 O173 1.258 . S
C172 O174 1.263 . S
O173 Co170 1.970 . S
O173 C172 1.258 . S
O174 Co171 1.966 . S
O174 C172 1.263 . S
C175 O176 1.235 . S
C175 O202 1.289 . S
O176 C175 1.235 . S
C177 C179 1.400 . S
C177 N180 1.351 . S
C177 C182 1.501 . S
C178 C179 1.387 1_655 S
C178 N181 1.341 . S
C179 C177 1.400 . S
C179 C178 1.387 1_455 S
N180 Co171 2.022 . S
N180 C177 1.351 . S
N180 N181 1.365 1_455 S
N181 C178 1.341 . S
N181 N180 1.365 1_655 S
N181 H201 0.862 . S
C182 C177 1.501 . S
C182 H183 0.961 . S
C182 H184 0.961 . S
C182 H185 0.960 . S
H183 C182 0.961 . S
H184 C182 0.961 . S
H185 C182 0.960 . S
C186 N187 1.342 1_655 S
C186 C190 1.401 . S
C186 C191 1.499 . S
N187 Co170 1.989 . S
N187 C186 1.342 1_455 S
N187 N188 1.388 . S
N188 Co171 1.993 . S
N188 N187 1.388 . S
N188 C189 1.346 1_455 S
C189 N188 1.346 1_655 S
C189 C190 1.396 . S
C189 C199 1.510 . S
C190 C186 1.401 . S
C190 C189 1.396 . S
C191 C186 1.499 . S
C191 H192 0.959 1_655 S
C191 H193 0.960 . S
C191 H194 0.961 . S
H192 C191 0.959 1_455 S
H193 C191 0.960 . S
H194 C191 0.961 . S
O195 Co170 1.967 . S
O195 C203 1.258 . S
O196 Co171 1.941 . S
O196 C203 1.266 . S
H197 C199 0.959 . S
H198 C199 0.961 . S
C199 C189 1.510 . S
C199 H197 0.959 . S
C199 H198 0.961 . S
C199 H200 0.960 . S
H200 C199 0.960 . S
H201 N181 0.862 . S
O202 Co170 1.920 . S
O202 C175 1.289 . S
C203 O195 1.258 . S
C203 O196 1.266 . S
Co204 O207 1.970 . S
Co204 N221 1.989 . S
Co204 O229 1.967 . S
Co204 O236 1.920 . S
Co205 O208 1.966 . S
Co205 N214 2.022 . S
Co205 N222 1.993 . S
Co205 O230 1.941 . S
C206 O207 1.258 . S
C206 O208 1.263 . S
O207 Co204 1.970 . S
O207 C206 1.258 . S
O208 Co205 1.966 . S
O208 C206 1.263 . S
C209 O210 1.235 . S
C209 O236 1.289 . S
O210 C209 1.235 . S
C211 C213 1.400 . S
C211 N214 1.351 . S
C211 C216 1.501 . S
C212 C213 1.387 . S
C212 N215 1.341 . S
C213 C211 1.400 . S
C213 C212 1.387 . S
N214 Co205 2.022 . S
N214 C211 1.351 . S
N214 N215 1.365 . S
N215 C212 1.341 . S
N215 N214 1.365 . S
N215 H235 0.862 . S
C216 C211 1.501 . S
C216 H217 0.961 . S
C216 H218 0.961 . S
C216 H219 0.960 . S
H217 C216 0.961 . S
H218 C216 0.961 . S
H219 C216 0.960 . S
C220 N221 1.342 . S
C220 C224 1.401 . S
C220 C225 1.499 . S
N221 Co204 1.989 . S
N221 C220 1.342 . S
N221 N222 1.388 . S
N222 Co205 1.993 . S
N222 N221 1.388 . S
N222 C223 1.346 . S
C223 N222 1.346 . S
C223 C224 1.396 . S
C223 C233 1.510 . S
C224 C220 1.401 . S
C224 C223 1.396 . S
C225 C220 1.499 . S
C225 H226 0.959 . S
C225 H227 0.960 . S
C225 H228 0.961 . S
H226 C225 0.959 . S
H227 C225 0.960 . S
H228 C225 0.961 . S
O229 Co204 1.967 . S
O229 C237 1.258 . S
O230 Co205 1.941 . S
O230 C237 1.266 . S
H231 C233 0.959 . S
H232 C233 0.961 . S
C233 C223 1.510 . S
C233 H231 0.959 . S
C233 H232 0.961 . S
C233 H234 0.960 . S
H234 C233 0.960 . S
H235 N215 0.862 . S
O236 Co204 1.920 . S
O236 C209 1.289 . S
C237 O229 1.258 . S
C237 O230 1.266 . S
Co238 O241 1.970 . S
Co238 N255 1.989 . S
Co238 O263 1.967 . S
Co238 O270 1.920 . S
Co239 O242 1.966 . S
Co239 N248 2.022 . S
Co239 N256 1.993 1_655 S
Co239 O264 1.941 . S
C240 O241 1.258 . S
C240 O242 1.263 . S
O241 Co238 1.970 . S
O241 C240 1.258 . S
O242 Co239 1.966 . S
O242 C240 1.263 . S
C243 O244 1.235 . S
C243 O270 1.289 . S
O244 C243 1.235 . S
C245 C247 1.400 1_655 S
C245 N248 1.351 . S
C245 C250 1.501 . S
C246 C247 1.387 . S
C246 N249 1.341 . S
C247 C245 1.400 1_455 S
C247 C246 1.387 . S
N248 Co239 2.022 . S
N248 C245 1.351 . S
N248 N249 1.365 1_655 S
N249 C246 1.341 . S
N249 N248 1.365 1_455 S
N249 H269 0.862 . S
C250 C245 1.501 . S
C250 H251 0.961 . S
C250 H252 0.961 . S
C250 H253 0.960 . S
H251 C250 0.961 . S
H252 C250 0.961 . S
H253 C250 0.960 . S
C254 N255 1.342 1_455 S
C254 C258 1.401 . S
C254 C259 1.499 . S
N255 Co238 1.989 . S
N255 C254 1.342 1_655 S
N255 N256 1.388 1_655 S
N256 Co239 1.993 1_455 S
N256 N255 1.388 1_455 S
N256 C257 1.346 . S
C257 N256 1.346 . S
C257 C258 1.396 . S
C257 C267 1.510 . S
C258 C254 1.401 . S
C258 C257 1.396 . S
C259 C254 1.499 . S
C259 H260 0.959 . S
C259 H261 0.960 . S
C259 H262 0.961 . S
H260 C259 0.959 . S
H261 C259 0.960 . S
H262 C259 0.961 . S
O263 Co238 1.967 . S
O263 C271 1.258 . S
O264 Co239 1.941 . S
O264 C271 1.266 . S
H265 C267 0.959 . S
H266 C267 0.961 . S
C267 C257 1.510 . S
C267 H265 0.959 . S
C267 H266 0.961 . S
C267 H268 0.960 . S
H268 C267 0.960 . S
H269 N249 0.862 . S
O270 Co238 1.920 . S
O270 C243 1.289 . S
C271 O263 1.258 . S
C271 O264 1.266 . S
H272 C278 0.930 . S
H273 C281 0.930 . S
H274 C282 0.930 . S
H275 C283 0.930 . S
H276 C286 0.930 . S
H277 C287 0.930 . S
C278 H272 0.930 . S
C278 C279 1.355 . S
C278 C280 1.415 . S
C279 C278 1.355 . S
C279 C281 1.419 . S
C280 C278 1.415 . S
C280 C285 1.425 1_554 S
C280 C287 1.409 1_554 S
C281 H273 0.930 . S
C281 C279 1.419 . S
C281 C282 1.362 . S
C282 H274 0.930 . S
C282 C281 1.362 . S
C282 C285 1.409 1_554 S
C283 H275 0.930 . S
C283 C284 1.355 . S
C283 C285 1.415 . S
C284 C283 1.355 . S
C284 C286 1.419 . S
C285 C280 1.425 1_556 S
C285 C282 1.409 1_556 S
C285 C283 1.415 . S
C286 H276 0.930 . S
C286 C284 1.419 . S
C286 C287 1.362 . S
C287 H277 0.930 . S
C287 C280 1.409 1_556 S
C287 C286 1.362 . S
H288 C294 0.930 . S
H289 C297 0.930 . S
H290 C298 0.930 . S
H291 C299 0.930 . S
H292 C302 0.930 . S
H293 C303 0.930 . S
C294 H288 0.930 . S
C294 C295 1.355 . S
C294 C296 1.415 . S
C295 C294 1.355 . S
C295 C297 1.419 . S
C296 C294 1.415 . S
C296 C301 1.425 . S
C296 C303 1.409 . S
C297 H289 0.930 . S
C297 C295 1.419 . S
C297 C298 1.362 . S
C298 H290 0.930 . S
C298 C297 1.362 . S
C298 C301 1.409 . S
C299 H291 0.930 . S
C299 C300 1.355 . S
C299 C301 1.415 . S
C300 C299 1.355 . S
C300 C302 1.419 . S
C301 C296 1.425 . S
C301 C298 1.409 . S
C301 C299 1.415 . S
C302 H292 0.930 . S
C302 C300 1.419 . S
C302 C303 1.362 . S
C303 H293 0.930 . S
C303 C296 1.409 . S
C303 C302 1.362 . S
H304 C310 0.930 . S
H305 C313 0.930 . S
H306 C314 0.930 . S
H307 C315 0.930 . S
H308 C318 0.930 . S
H309 C319 0.930 . S
C310 H304 0.930 . S
C310 C311 1.355 . S
C310 C312 1.415 . S
C311 C310 1.355 . S
C311 C313 1.419 . S
C312 C310 1.415 . S
C312 C317 1.425 . S
C312 C319 1.409 . S
C313 H305 0.930 . S
C313 C311 1.419 . S
C313 C314 1.362 . S
C314 H306 0.930 . S
C314 C313 1.362 . S
C314 C317 1.409 . S
C315 H307 0.930 . S
C315 C316 1.355 . S
C315 C317 1.415 . S
C316 C315 1.355 . S
C316 C318 1.419 . S
C317 C312 1.425 . S
C317 C314 1.409 . S
C317 C315 1.415 . S
C318 H308 0.930 . S
C318 C316 1.419 . S
C318 C319 1.362 . S
C319 H309 0.930 . S
C319 C312 1.409 . S
C319 C318 1.362 . S
H320 C326 0.930 . S
H321 C329 0.930 . S
H322 C330 0.930 . S
H323 C331 0.930 . S
H324 C334 0.930 . S
H325 C335 0.930 . S
C326 H320 0.930 . S
C326 C327 1.355 . S
C326 C328 1.415 . S
C327 C326 1.355 . S
C327 C329 1.419 . S
C328 C326 1.415 . S
C328 C333 1.425 . S
C328 C335 1.409 . S
C329 H321 0.930 . S
C329 C327 1.419 . S
C329 C330 1.362 . S
C330 H322 0.930 . S
C330 C329 1.362 . S
C330 C333 1.409 . S
C331 H323 0.930 . S
C331 C332 1.355 . S
C331 C333 1.415 . S
C332 C331 1.355 . S
C332 C334 1.419 . S
C333 C328 1.425 . S
C333 C330 1.409 . S
C333 C331 1.415 . S
C334 H324 0.930 . S
C334 C332 1.419 . S
C334 C335 1.362 . S
C335 H325 0.930 . S
C335 C328 1.409 . S
C335 C334 1.362 . S
H336 C342 0.930 . S
H337 C345 0.930 . S
H338 C346 0.930 . S
H339 C347 0.930 . S
H340 C350 0.930 . S
H341 C351 0.930 . S
C342 H336 0.930 . S
C342 C343 1.355 . S
C342 C344 1.415 1_556 S
C343 C342 1.355 . S
C343 C345 1.419 . S
C344 C342 1.415 1_554 S
C344 C349 1.425 . S
C344 C351 1.409 . S
C345 H337 0.930 . S
C345 C343 1.419 . S
C345 C346 1.362 . S
C346 H338 0.930 . S
C346 C345 1.362 . S
C346 C349 1.409 1_556 S
C347 H339 0.930 . S
C347 C348 1.355 . S
C347 C349 1.415 . S
C348 C347 1.355 . S
C348 C350 1.419 . S
C349 C344 1.425 . S
C349 C346 1.409 1_554 S
C349 C347 1.415 . S
C350 H340 0.930 . S
C350 C348 1.419 . S
C350 C351 1.362 . S
C351 H341 0.930 . S
C351 C344 1.409 . S
C351 C350 1.362 . S
H352 C358 0.930 . S
H353 C361 0.930 . S
H354 C362 0.930 . S
H355 C363 0.930 . S
H356 C366 0.930 . S
H357 C367 0.930 . S
C358 H352 0.930 . S
C358 C359 1.355 . S
C358 C360 1.415 . S
C359 C358 1.355 . S
C359 C361 1.419 . S
C360 C358 1.415 . S
C360 C365 1.425 . S
C360 C367 1.409 . S
C361 H353 0.930 . S
C361 C359 1.419 . S
C361 C362 1.362 1_565 S
C362 H354 0.930 . S
C362 C361 1.362 1_545 S
C362 C365 1.409 1_545 S
C363 H355 0.930 . S
C363 C364 1.361 . S
C363 C365 1.415 1_545 S
C364 C363 1.361 . S
C364 C366 1.404 1_545 S
C365 C360 1.425 . S
C365 C362 1.409 1_565 S
C365 C363 1.415 1_565 S
C366 H356 0.930 . S
C366 C364 1.404 1_565 S
C366 C367 1.362 . S
C367 H357 0.930 . S
C367 C360 1.409 . S
C367 C366 1.362 . S
H368 C374 0.930 . S
H369 C377 0.930 . S
H370 C378 0.930 . S
H371 C379 0.930 . S
H372 C382 0.930 . S
H373 C383 0.930 . S
C374 H368 0.930 . S
C374 C375 1.355 . S
C374 C376 1.415 . S
C375 C374 1.355 . S
C375 C377 1.419 . S
C376 C374 1.415 . S
C376 C381 1.425 . S
C376 C383 1.409 . S
C377 H369 0.930 . S
C377 C375 1.419 . S
C377 C378 1.362 . S
C378 H370 0.930 . S
C378 C377 1.362 . S
C378 C381 1.409 . S
C379 H371 0.930 . S
C379 C380 1.355 . S
C379 C381 1.415 . S
C380 C379 1.355 . S
C380 C382 1.419 . S
C381 C376 1.425 . S
C381 C378 1.409 . S
C381 C379 1.415 . S
C382 H372 0.930 . S
C382 C380 1.419 . S
C382 C383 1.362 . S
C383 H373 0.930 . S
C383 C376 1.409 . S
C383 C382 1.362 . S
H384 C390 0.930 . S
H385 C393 0.930 . S
H386 C394 0.914 1_565 S
H387 C395 0.930 . S
H388 C398 0.930 . S
H389 C399 0.930 . S
C390 H384 0.930 . S
C390 C391 1.355 . S
C390 C392 1.415 . S
C391 C390 1.355 . S
C391 C393 1.419 . S
C392 C390 1.415 . S
C392 C397 1.425 . S
C392 C399 1.409 . S
C393 H385 0.930 . S
C393 C391 1.419 . S
C393 C394 1.372 . S
C394 H386 0.914 1_545 S
C394 C393 1.372 . S
C394 C397 1.416 . S
C395 H387 0.930 . S
C395 C396 1.355 1_565 S
C395 C397 1.415 1_565 S
C396 C395 1.355 1_545 S
C396 C398 1.419 . S
C397 C392 1.425 . S
C397 C394 1.416 . S
C397 C395 1.415 1_545 S
C398 H388 0.930 . S
C398 C396 1.419 . S
C398 C399 1.362 . S
C399 H389 0.930 . S
C399 C392 1.409 . S
C399 C398 1.362 . S
H400 C406 0.930 . S
H401 C409 0.930 . S
H402 C410 0.930 . S
H403 C411 0.930 1_455 S
H404 C414 0.930 . S
H405 C415 0.930 . S
C406 H400 0.930 . S
C406 C407 1.355 1_655 S
C406 C408 1.415 . S
C407 C406 1.355 1_455 S
C407 C409 1.419 . S
C408 C406 1.415 . S
C408 C413 1.425 . S
C408 C415 1.409 . S
C409 H401 0.930 . S
C409 C407 1.419 . S
C409 C410 1.362 . S
C410 H402 0.930 . S
C410 C409 1.362 . S
C410 C413 1.409 1_455 S
C411 H403 0.930 1_655 S
C411 C412 1.355 . S
C411 C413 1.415 . S
C412 C411 1.355 . S
C412 C414 1.419 . S
C413 C408 1.425 . S
C413 C410 1.409 1_655 S
C413 C411 1.415 . S
C414 H404 0.930 . S
C414 C412 1.419 . S
C414 C415 1.362 . S
C415 H405 0.930 . S
C415 C408 1.409 . S
C415 C414 1.362 . S
H416 C422 0.930 . S
H417 C425 0.930 . S
H418 C426 0.930 . S
H419 C427 0.930 . S
H420 C430 0.930 . S
H421 C431 0.930 . S
C422 H416 0.930 . S
C422 C423 1.355 . S
C422 C424 1.415 . S
C423 C422 1.355 . S
C423 C425 1.419 . S
C424 C422 1.415 . S
C424 C429 1.425 . S
C424 C431 1.409 1_556 S
C425 H417 0.930 . S
C425 C423 1.419 . S
C425 C426 1.362 . S
C426 H418 0.930 . S
C426 C425 1.362 . S
C426 C429 1.409 . S
C427 H419 0.930 . S
C427 C428 1.355 . S
C427 C429 1.415 1_554 S
C428 C427 1.355 . S
C428 C430 1.419 . S
C429 C424 1.425 . S
C429 C426 1.409 . S
C429 C427 1.415 1_556 S
C430 H420 0.930 . S
C430 C428 1.419 . S
C430 C431 1.362 . S
C431 H421 0.930 . S
C431 C424 1.409 1_554 S
C431 C430 1.362 . S
H432 C438 0.930 . S
H433 C441 0.930 . S
H434 C442 0.930 . S
H435 C443 0.930 . S
H436 C446 0.930 1_655 S
H437 C447 0.930 . S
C438 H432 0.930 . S
C438 C439 1.355 . S
C438 C440 1.415 . S
C439 C438 1.355 . S
C439 C441 1.419 . S
C440 C438 1.415 . S
C440 C445 1.425 . S
C440 C447 1.409 . S
C441 H433 0.930 . S
C441 C439 1.419 . S
C441 C442 1.362 . S
C442 H434 0.930 . S
C442 C441 1.362 . S
C442 C445 1.409 . S
C443 H435 0.930 . S
C443 C444 1.355 . S
C443 C445 1.415 . S
C444 C443 1.355 . S
C444 C446 1.419 . S
C445 C440 1.425 . S
C445 C442 1.409 . S
C445 C443 1.415 . S
C446 H436 0.930 1_455 S
C446 C444 1.419 . S
C446 C447 1.362 . S
C447 H437 0.930 . S
C447 C440 1.409 . S
C447 C446 1.362 . S
H448 C454 0.930 . S
H449 C457 0.930 1_455 S
H450 C458 0.930 1_455 S
H451 C459 0.930 . S
H452 C462 0.930 . S
H453 C463 0.930 . S
C454 H448 0.930 . S
C454 C455 1.355 . S
C454 C456 1.415 . S
C455 C454 1.355 . S
C455 C457 1.419 . S
C456 C454 1.415 . S
C456 C461 1.425 . S
C456 C463 1.409 . S
C457 H449 0.930 1_655 S
C457 C455 1.419 . S
C457 C458 1.362 . S
C458 H450 0.930 1_655 S
C458 C457 1.362 . S
C458 C461 1.409 . S
C459 H451 0.930 . S
C459 C460 1.355 . S
C459 C461 1.415 . S
C460 C459 1.355 . S
C460 C462 1.419 . S
C461 C456 1.425 . S
C461 C458 1.409 . S
C461 C459 1.415 . S
C462 H452 0.930 . S
C462 C460 1.419 . S
C462 C463 1.362 . S
C463 H453 0.930 . S
C463 C456 1.409 . S
C463 C462 1.362 . S
H464 C470 0.930 . S
H465 C473 0.930 . S
H466 C474 0.930 . S
H467 C475 0.930 . S
H468 C478 0.930 . S
H469 C479 0.930 . S
C470 H464 0.930 . S
C470 C471 1.355 . S
C470 C472 1.415 . S
C471 C470 1.355 . S
C471 C473 1.419 . S
C472 C470 1.415 . S
C472 C477 1.425 . S
C472 C479 1.409 . S
C473 H465 0.930 . S
C473 C471 1.419 . S
C473 C474 1.362 . S
C474 H466 0.930 . S
C474 C473 1.362 . S
C474 C477 1.409 . S
C475 H467 0.930 . S
C475 C476 1.355 . S
C475 C477 1.415 . S
C476 C475 1.355 . S
C476 C478 1.419 . S
C477 C472 1.425 . S
C477 C474 1.409 . S
C477 C475 1.415 . S
C478 H468 0.930 . S
C478 C476 1.419 . S
C478 C479 1.362 . S
C479 H469 0.930 . S
C479 C472 1.409 . S
C479 C478 1.362 . S
H480 C486 0.930 . S
H481 C489 0.930 . S
H482 C490 0.930 . S
H483 C491 0.930 . S
H484 C494 0.930 . S
H485 C495 0.930 . S
C486 H480 0.930 . S
C486 C487 1.355 . S
C486 C488 1.415 . S
C487 C486 1.355 . S
C487 C489 1.419 . S
C488 C486 1.415 . S
C488 C493 1.425 . S
C488 C495 1.409 . S
C489 H481 0.930 . S
C489 C487 1.419 . S
C489 C490 1.362 . S
C490 H482 0.930 . S
C490 C489 1.362 . S
C490 C493 1.409 . S
C491 H483 0.930 . S
C491 C492 1.355 . S
C491 C493 1.415 . S
C492 C491 1.355 . S
C492 C494 1.419 . S
C493 C488 1.425 . S
C493 C490 1.409 . S
C493 C491 1.415 . S
C494 H484 0.930 . S
C494 C492 1.419 . S
C494 C495 1.362 . S
C495 H485 0.930 . S
C495 C488 1.409 . S
C495 C494 1.362 . S
H496 C502 0.930 . S
H497 C505 0.930 . S
H498 C506 0.930 . S
H499 C507 0.930 . S
H500 C510 0.930 . S
H501 C511 0.930 . S
C502 H496 0.930 . S
C502 C503 1.355 . S
C502 C504 1.415 . S
C503 C502 1.355 . S
C503 C505 1.419 . S
C504 C502 1.415 . S
C504 C509 1.425 . S
C504 C511 1.409 . S
C505 H497 0.930 . S
C505 C503 1.419 . S
C505 C506 1.362 . S
C506 H498 0.930 . S
C506 C505 1.362 . S
C506 C509 1.409 . S
C507 H499 0.930 . S
C507 C508 1.355 . S
C507 C509 1.415 . S
C508 C507 1.355 . S
C508 C510 1.419 . S
C509 C504 1.425 . S
C509 C506 1.409 . S
C509 C507 1.415 . S
C510 H500 0.930 . S
C510 C508 1.419 . S
C510 C511 1.362 . S
C511 H501 0.930 . S
C511 C504 1.409 . S
C511 C510 1.362 . S
H512 C518 0.930 . S
H513 C521 0.930 . S
H514 C522 0.930 . S
H515 C523 0.930 . S
H516 C526 0.930 . S
H517 C527 0.930 . S
C518 H512 0.930 . S
C518 C519 1.355 . S
C518 C520 1.415 . S
C519 C518 1.355 . S
C519 C521 1.419 . S
C520 C518 1.415 . S
C520 C525 1.425 . S
C520 C527 1.409 . S
C521 H513 0.930 . S
C521 C519 1.419 . S
C521 C522 1.362 . S
C522 H514 0.930 . S
C522 C521 1.362 . S
C522 C525 1.409 . S
C523 H515 0.930 . S
C523 C524 1.355 . S
C523 C525 1.415 . S
C524 C523 1.355 . S
C524 C526 1.419 . S
C525 C520 1.425 . S
C525 C522 1.409 . S
C525 C523 1.415 . S
C526 H516 0.930 . S
C526 C524 1.419 . S
C526 C527 1.362 . S
C527 H517 0.930 . S
C527 C520 1.409 . S
C527 C526 1.362 . S
H528 C534 0.930 . S
H529 C537 0.930 . S
H530 C538 0.930 . S
H531 C539 0.930 . S
H532 C542 0.930 . S
H533 C543 0.930 . S
C534 H528 0.930 . S
C534 C535 1.355 . S
C534 C536 1.415 . S
C535 C534 1.355 . S
C535 C537 1.419 . S
C536 C534 1.415 . S
C536 C541 1.425 . S
C536 C543 1.409 . S
C537 H529 0.930 . S
C537 C535 1.419 . S
C537 C538 1.362 . S
C538 H530 0.930 . S
C538 C537 1.362 . S
C538 C541 1.409 . S
C539 H531 0.930 . S
C539 C540 1.355 . S
C539 C541 1.415 . S
C540 C539 1.355 . S
C540 C542 1.419 . S
C541 C536 1.425 . S
C541 C538 1.409 . S
C541 C539 1.415 . S
C542 H532 0.930 . S
C542 C540 1.419 . S
C542 C543 1.362 . S
C543 H533 0.930 . S
C543 C536 1.409 . S
C543 C542 1.362 . S
H544 C550 0.930 . S
H545 C553 0.930 . S
H546 C554 0.930 . S
H547 C555 0.930 . S
H548 C558 0.930 . S
H549 C559 0.930 . S
C550 H544 0.930 . S
C550 C551 1.355 . S
C550 C552 1.415 . S
C551 C550 1.355 . S
C551 C553 1.419 . S
C552 C550 1.415 . S
C552 C557 1.425 . S
C552 C559 1.409 . S
C553 H545 0.930 . S
C553 C551 1.419 . S
C553 C554 1.362 . S
C554 H546 0.930 . S
C554 C553 1.362 . S
C554 C557 1.409 . S
C555 H547 0.930 . S
C555 C556 1.355 . S
C555 C557 1.415 . S
C556 C555 1.355 . S
C556 C558 1.419 . S
C557 C552 1.425 . S
C557 C554 1.409 . S
C557 C555 1.415 . S
C558 H548 0.930 . S
C558 C556 1.419 . S
C558 C559 1.362 . S
C559 H549 0.930 . S
C559 C552 1.409 . S
C559 C558 1.362 . S
H560 C566 0.930 . S
H561 C569 0.930 . S
H562 C570 0.930 . S
H563 C571 0.930 . S
H564 C574 0.930 . S
H565 C575 0.930 . S
C566 H560 0.930 . S
C566 C567 1.355 . S
C566 C568 1.415 . S
C567 C566 1.355 . S
C567 C569 1.419 . S
C568 C566 1.415 . S
C568 C573 1.425 . S
C568 C575 1.409 . S
C569 H561 0.930 . S
C569 C567 1.419 . S
C569 C570 1.362 . S
C570 H562 0.930 . S
C570 C569 1.362 . S
C570 C573 1.409 . S
C571 H563 0.930 . S
C571 C572 1.355 . S
C571 C573 1.415 . S
C572 C571 1.355 . S
C572 C574 1.419 . S
C573 C568 1.425 . S
C573 C570 1.409 . S
C573 C571 1.415 . S
C574 H564 0.930 . S
C574 C572 1.419 . S
C574 C575 1.362 . S
C575 H565 0.930 . S
C575 C568 1.409 . S
C575 C574 1.362 . S
H576 C582 0.930 . S
H577 C585 0.930 . S
H578 C586 0.930 . S
H579 C587 0.930 . S
H580 C590 0.930 . S
H581 C591 0.930 . S
C582 H576 0.930 . S
C582 C583 1.355 . S
C582 C584 1.415 . S
C583 C582 1.355 . S
C583 C585 1.419 . S
C584 C582 1.415 . S
C584 C589 1.425 . S
C584 C591 1.409 . S
C585 H577 0.930 . S
C585 C583 1.419 . S
C585 C586 1.362 . S
C586 H578 0.930 . S
C586 C585 1.362 . S
C586 C589 1.409 . S
C587 H579 0.930 . S
C587 C588 1.355 . S
C587 C589 1.415 . S
C588 C587 1.355 . S
C588 C590 1.419 . S
C589 C584 1.425 . S
C589 C586 1.409 . S
C589 C587 1.415 . S
C590 H580 0.930 . S
C590 C588 1.419 . S
C590 C591 1.362 . S
C591 H581 0.930 . S
C591 C584 1.409 . S
C591 C590 1.362 . S
C279 C5 0.835 . S
C284 C175 0.793 . S
C295 C209 0.799 . S
C300 C39 0.845 . S
C311 C243 0.857 . S
C316 C73 0.822 . S
C327 C141 0.848 . S
C332 C107 0.848 . S
C343 C111 0.995 . S
C348 C33 1.055 . S
C359 C67 1.020 . S
C364 C9 1.011 . S
C375 C43 1.054 . S
C380 C101 0.959 . S
C391 C135 1.017 . S
C396 C77 1.009 . S
C407 C179 1.059 . S
C412 C169 0.965 . S
C423 C203 1.011 . S
C428 C213 1.012 . S
C439 C237 0.971 . S
C444 C247 1.040 . S
C455 C271 0.974 . S
C460 C145 1.038 . S
C471 C206 1.311 . S
C476 C20 1.303 . S
C487 C240 1.277 . S
C492 C54 1.306 . S
C503 C88 1.303 . S
C508 C138 1.307 . S
C519 C122 1.308 . S
C524 C172 1.253 . S
C535 C156 1.307 . S
C540 C70 1.265 . S
C551 C104 1.272 . S
C556 C190 1.307 . S
C567 C224 1.308 . S
C572 C2 1.253 . S
C583 C36 1.251 . S
C588 C258 1.309 . S
