# Generated by pormake.
# Topology snp, (6)-cn, num edge types: 1
# Building blocks:
#     Node 0, Type 0, BuildingBlock: KUMBUR_clean_sbu_0, # of connection points: 6
#     Node 1, Type 0, BuildingBlock: KUMBUR_clean_sbu_0, # of connection points: 6
#     Node 2, Type 0, BuildingBlock: KUMBUR_clean_sbu_0, # of connection points: 6
#     Node 3, Type 0, BuildingBlock: KUMBUR_clean_sbu_0, # of connection points: 6
#     Edge 4, Type (0, 0), BuildingBlock: EZIPEK_clean_linker_0, # of connection points: 2
#     Edge 5, Type (0, 0), BuildingBlock: EZIPEK_clean_linker_0, # of connection points: 2
#     Edge 6, Type (0, 0), BuildingBlock: EZIPEK_clean_linker_0, # of connection points: 2
#     Edge 7, Type (0, 0), BuildingBlock: EZIPEK_clean_linker_0, # of connection points: 2
#     Edge 8, Type (0, 0), BuildingBlock: EZIPEK_clean_linker_0, # of connection points: 2
#     Edge 9, Type (0, 0), BuildingBlock: EZIPEK_clean_linker_0, # of connection points: 2
#     Edge 10, Type (0, 0), BuildingBlock: EZIPEK_clean_linker_0, # of connection points: 2
#     Edge 11, Type (0, 0), BuildingBlock: EZIPEK_clean_linker_0, # of connection points: 2
#     Edge 12, Type (0, 0), BuildingBlock: EZIPEK_clean_linker_0, # of connection points: 2
#     Edge 13, Type (0, 0), BuildingBlock: EZIPEK_clean_linker_0, # of connection points: 2
#     Edge 14, Type (0, 0), BuildingBlock: EZIPEK_clean_linker_0, # of connection points: 2
#     Edge 15, Type (0, 0), BuildingBlock: EZIPEK_clean_linker_0, # of connection points: 2
# Relax obj value: 0.255
# Max RMSD: 0.289
# Mean RMSD: 0.256
data_MOF--net-snp--node1-KUMBUR_clean_sbu_0--edge1-EZIPEK_clean_linker_0
_symmetry_space_group_name_H-M    P1
_symmetry_Int_Tables_number       1
_symmetry_cell_setting            triclinic
loop_
_symmetry_equiv_pos_as_xyz
'x, y, z'
_cell_length_a     17.931547
_cell_length_b     19.865696
_cell_length_c     26.499236
_cell_angle_alpha  118.76039
_cell_angle_beta   93.265041
_cell_angle_gamma 97.029463
loop_
_atom_site_label
_atom_site_type_symbol
_atom_site_fract_x
_atom_site_fract_y
_atom_site_fract_z
_atom_type_partial_charge
Tb0 Tb 0.39665 0.1928 0.26885 0.0
C1 C 0.48262 0.89207 0.24816 0.0
C2 C 0.41596 0.77435 0.1641 0.0
C3 C 0.53972 0.77473 0.2066 0.0
C4 C 0.42082 0.8539 0.20557 0.0
C5 C 0.54323 0.85308 0.24884 0.0
C6 C 0.47618 0.73542 0.16431 0.0
C7 C 0.60907 0.9733 0.33014 0.0
N8 N 0.48528 0.96881 0.28687 0.0
C9 C 0.54791 0.00962 0.32779 0.0
C10 C 0.60666 0.89467 0.29073 0.0
Tb11 Tb 0.37817 0.01996 0.28057 0.0
N12 N 0.36292 0.89295 0.20743 0.0
C13 C 0.29529 0.85256 0.17385 0.0
C14 C 0.34918 0.73531 0.12545 0.0
C15 C 0.28787 0.77419 0.13132 0.0
H16 H 0.55309 0.07097 0.35789 0.0
H17 H 0.23424 0.74341 0.10409 0.0
H18 H 0.47355 0.67453 0.13262 0.0
H19 H 0.65846 0.00633 0.36219 0.0
H20 H 0.2459 0.87979 0.18126 0.0
H21 H 0.59929 0.34461 0.46653 0.0
H22 H 0.34304 0.67427 0.09306 0.0
H23 H 0.26188 0.2535 0.22046 0.0
H24 H 0.54544 0.23663 0.37081 0.0
H25 H 0.20359 0.37227 0.2545 0.0
H26 H 0.58584 0.74405 0.20628 0.0
H27 H 0.54017 0.46257 0.51199 0.0
H28 H 0.43922 0.53576 0.50494 0.0
H29 H 0.65454 0.867 0.29239 0.0
H30 H 0.33113 0.54307 0.44721 0.0
N31 N 0.45391 0.29045 0.36004 0.0
C32 C 0.51852 0.28734 0.38864 0.0
C33 C 0.51575 0.41494 0.46946 0.0
C34 C 0.45188 0.41966 0.43938 0.0
C35 C 0.54942 0.34864 0.4438 0.0
C36 C 0.42226 0.35592 0.38409 0.0
H37 H 0.24332 0.4827 0.35365 0.0
N38 N 0.33324 0.29635 0.30014 0.0
C39 C 0.24631 0.36845 0.28305 0.0
C40 C 0.36039 0.35938 0.35267 0.0
C41 C 0.27941 0.30142 0.26408 0.0
C42 C 0.26929 0.43105 0.33896 0.0
C43 C 0.32768 0.42748 0.37437 0.0
O44 O 0.38809 0.20898 0.19631 0.0
O45 O 0.38731 0.0672 0.22153 0.0
O46 O 0.47785 0.02213 0.23501 0.0
O47 O 0.50769 0.15446 0.27206 0.0
O48 O 0.33569 0.11581 0.18093 0.0
O49 O 0.48834 0.26244 0.25916 0.0
O50 O 0.3754 0.00976 0.35613 0.0
O51 O 0.36635 0.14352 0.32512 0.0
O52 O 0.27643 0.16373 0.27185 0.0
O53 O 0.26538 0.03237 0.24803 0.0
O54 O 0.43597 0.10874 0.36492 0.0
O55 O 0.28093 0.95498 0.28875 0.0
C56 C 0.35063 0.04973 0.17282 0.0
C57 C 0.45246 0.32368 0.20392 0.0
C58 C 0.43531 0.37319 0.13604 0.0
C59 C 0.44597 0.31198 0.14688 0.0
C60 C 0.43172 0.44668 0.18328 0.0
C61 C 0.45137 0.39811 0.25053 0.0
C62 C 0.44076 0.45916 0.24011 0.0
C63 C 0.52674 0.08413 0.24387 0.0
C64 C 0.45281 0.25518 0.21191 0.0
C65 C 0.35585 0.49051 0.42976 0.0
C66 C 0.41754 0.48642 0.46244 0.0
C67 C 0.40015 0.16482 0.37522 0.0
C68 C 0.30398 0.8958 0.34798 0.0
C69 C 0.28741 0.90208 0.40174 0.0
C70 C 0.28905 0.83853 0.41225 0.0
C71 C 0.30778 0.76931 0.36853 0.0
C72 C 0.31877 0.82422 0.30467 0.0
C73 C 0.32148 0.76202 0.31503 0.0
C74 C 0.23498 0.09405 0.25398 0.0
C75 C 0.30959 0.96475 0.33873 0.0
H76 H 0.44716 0.2546 0.11064 0.0
H77 H 0.42283 0.49456 0.17612 0.0
H78 H 0.45738 0.40882 0.29472 0.0
H79 H 0.43878 0.51622 0.27621 0.0
H80 H 0.27274 0.95559 0.43493 0.0
H81 H 0.30977 0.71996 0.37537 0.0
H82 H 0.32813 0.81573 0.2626 0.0
H83 H 0.33401 0.70761 0.28121 0.0
Tb84 Tb 0.08423 0.26011 0.6033 0.0
C85 C 0.37269 0.47811 0.69098 0.0
C86 C 0.45913 0.40291 0.62857 0.0
C87 C 0.47781 0.54274 0.66725 0.0
C88 C 0.39308 0.40673 0.65585 0.0
C89 C 0.41775 0.54702 0.69987 0.0
C90 C 0.49839 0.47048 0.63138 0.0
C91 C 0.35223 0.6187 0.78166 0.0
N92 N 0.31587 0.4805 0.72329 0.0
C93 C 0.30704 0.54928 0.76985 0.0
C94 C 0.40623 0.61783 0.74536 0.0
Tb95 Tb 0.25013 0.36319 0.70348 0.0
N96 N 0.35596 0.34351 0.65667 0.0
C97 C 0.38901 0.27872 0.63887 0.0
C98 C 0.48854 0.33366 0.60504 0.0
C99 C 0.45551 0.27288 0.61304 0.0
H100 H 0.26593 0.55031 0.79834 0.0
H101 H 0.48117 0.22135 0.59938 0.0
H102 H 0.54842 0.46838 0.60994 0.0
H103 H 0.34651 0.67195 0.81983 0.0
H104 H 0.36475 0.23076 0.64387 0.0
H105 H 0.83027 0.39105 0.64793 0.0
H106 H 0.5399 0.32873 0.58475 0.0
H107 H 0.0942 0.06815 0.53213 0.0
H108 H 0.95884 0.38183 0.62387 0.0
H109 H 0.01538 0.94663 0.51073 0.0
H110 H 0.51205 0.59524 0.67267 0.0
H111 H 0.75303 0.28285 0.65243 0.0
H112 H 0.73716 0.14455 0.63026 0.0
H113 H 0.44302 0.6709 0.75497 0.0
H114 H 0.78529 0.02081 0.58709 0.0
N115 N 0.9633 0.27593 0.62644 0.0
C116 C 0.92976 0.3367 0.63062 0.0
C117 C 0.81157 0.28001 0.64473 0.0
C118 C 0.84189 0.21274 0.63129 0.0
C119 C 0.85496 0.34121 0.64233 0.0
C120 C 0.91857 0.21181 0.62126 0.0
H121 H 0.88736 0.94699 0.54124 0.0
N122 N 0.01614 0.14076 0.58034 0.0
C123 C 0.99482 1.00092 0.53493 0.0
C124 C 0.94549 0.14174 0.5966 0.0
C125 C 0.03958 0.07077 0.54727 0.0
C126 C 0.92301 1.00132 0.55231 0.0
C127 C 0.8968 0.07181 0.58228 0.0
O128 O 0.09919 0.30193 0.54409 0.0
O129 O 0.20555 0.29784 0.61145 0.0
O130 O 0.20928 0.44199 0.67607 0.0
O131 O 0.08331 0.38412 0.64779 0.0
O132 O 0.16124 0.18726 0.5492 0.0
O133 O 0.00489 0.21401 0.52838 0.0
O134 O 0.3453 0.40627 0.7686 0.0
O135 O 0.12956 0.3214 0.69746 0.0
O136 O 0.1136 0.19126 0.64177 0.0
O137 O 0.24167 0.23871 0.66945 0.0
O138 O 0.17074 0.42979 0.76023 0.0
O139 O 0.24969 0.33273 0.76945 0.0
C140 C 0.22295 0.2371 0.56966 0.0
C141 C 0.04681 0.21328 0.44611 0.0
C142 C 0.99054 0.17083 0.34787 0.0
C143 C 0.99339 0.2183 0.4079 0.0
C144 C 0.04079 0.11781 0.32603 0.0
C145 C 0.0992 0.16237 0.42353 0.0
C146 C 0.09621 0.11503 0.36369 0.0
C147 C 0.13864 0.44095 0.65838 0.0
C148 C 0.04009 0.25519 0.50836 0.0
C149 C 0.82277 0.07388 0.59681 0.0
C150 C 0.7956 0.14442 0.62186 0.0
C151 C 0.11154 0.37656 0.74408 0.0
C152 C 0.36508 0.33448 0.81761 0.0
C153 C 0.3664 0.35113 0.87575 0.0
C154 C 0.41095 0.31478 0.89754 0.0
C155 C 0.45434 0.26166 0.86077 0.0
C156 C 0.40927 0.28159 0.78174 0.0
C157 C 0.45358 0.24542 0.80323 0.0
C158 C 0.18046 0.19045 0.66408 0.0
C159 C 0.31606 0.37196 0.79562 0.0
H160 H 0.95191 0.25645 0.42472 0.0
H161 H 0.0362 0.07804 0.27986 0.0
H162 H 0.14096 0.1568 0.45128 0.0
H163 H 0.13558 0.07465 0.34657 0.0
H164 H 0.33346 0.39272 0.90425 0.0
H165 H 0.48891 0.23303 0.87672 0.0
H166 H 0.40961 0.26812 0.73728 0.0
H167 H 0.48722 0.20437 0.77508 0.0
Tb168 Tb 0.87122 0.11418 0.03866 0.0
C169 C 0.87993 0.77772 0.96647 0.0
C170 C 0.79399 0.72287 0.87726 0.0
C171 C 0.88825 0.64991 0.88642 0.0
C172 C 0.82072 0.78383 0.93426 0.0
C173 C 0.91335 0.71003 0.94355 0.0
C174 C 0.82883 0.65647 0.85324 0.0
C175 C 0.99061 0.76453 0.03638 0.0
N176 N 0.90462 0.83826 0.0206 0.0
C177 C 0.95625 0.83083 0.05673 0.0
C178 C 0.9701 0.70442 0.97913 0.0
Tb179 Tb 0.84374 0.9434 0.05209 0.0
N180 N 0.78898 0.84919 0.95906 0.0
C181 C 0.72737 0.85513 0.92914 0.0
C182 C 0.73274 0.73014 0.84626 0.0
C183 C 0.69902 0.79635 0.87251 0.0
H184 H 0.97141 0.87656 0.10137 0.0
H185 H 0.65144 0.80256 0.84895 0.0
H186 H 0.80953 0.60941 0.80936 0.0
H187 H 0.03273 0.75976 0.06487 0.0
H188 H 0.70141 0.90645 0.94687 0.0
H189 H 1.00087 0.38611 0.22506 0.0
H190 H 0.71072 0.68482 0.80231 0.0
H191 H 0.70401 0.06076 0.95215 0.0
H192 H 0.98187 0.24407 0.15901 0.0
H193 H 0.6054 0.12666 0.93672 0.0
H194 H 0.91377 0.59781 0.86774 0.0
H195 H 0.90666 0.46224 0.21594 0.0
H196 H 0.78703 0.46472 0.16299 0.0
H197 H 0.99698 0.65326 0.96333 0.0
H198 H 0.68143 0.3945 0.08342 0.0
N199 N 0.88197 0.24004 0.11107 0.0
C200 C 0.94252 0.27694 0.15353 0.0
C201 C 0.89922 0.40009 0.18626 0.0
C202 C 0.83717 0.36206 0.1425 0.0
C203 C 0.95266 0.35743 0.19136 0.0
C204 C 0.83067 0.28118 0.10458 0.0
H205 H 0.61236 0.2686 0.99959 0.0
N206 N 0.76845 0.1644 0.02367 0.0
C207 C 0.65239 0.15997 0.97101 0.0
C208 C 0.77247 0.24231 0.05891 0.0
C209 C 0.70922 0.12288 0.9798 0.0
C210 C 0.6565 0.2401 1.00657 0.0
C211 C 0.71694 0.2823 0.05129 0.0
O212 O 0.88594 0.12732 0.96483 0.0
O213 O 0.88595 0.99135 0.9977 0.0
O214 O 0.96614 0.97638 0.05984 0.0
O215 O 0.97856 0.10645 0.08111 0.0
O216 O 0.82371 0.02416 0.95176 0.0
O217 O 0.97257 0.18114 0.0382 0.0
O218 O 0.84804 0.92839 0.1253 0.0
O219 O 0.84937 0.06791 0.09698 0.0
O220 O 0.76387 0.11328 0.07678 0.0
O221 O 0.73374 0.98194 0.04603 0.0
O222 O 0.89765 0.02235 0.14109 0.0
O223 O 0.75147 0.87226 0.05965 0.0
C224 C 0.85879 0.96901 0.9458 0.0
C225 C 0.96232 0.24506 0.98048 0.0
C226 C 0.98955 0.3097 0.92148 0.0
C227 C 0.97675 0.24097 0.92668 0.0
C228 C 0.98394 0.38106 0.96998 0.0
C229 C 0.96139 0.31871 0.02815 0.0
C230 C 0.97013 0.38543 0.0226 0.0
C231 C 0.00752 0.04676 0.08007 0.0
C232 C 0.95097 0.17363 0.98746 0.0
C233 C 0.72287 0.36267 0.08905 0.0
C234 C 0.78293 0.40257 0.13447 0.0
C235 C 0.87964 0.08681 0.14768 0.0
C236 C 0.78895 0.809 0.11292 0.0
C237 C 0.80065 0.8167 0.16881 0.0
C238 C 0.81741 0.75384 0.17598 0.0
C239 C 0.82185 0.6831 0.12613 0.0
C240 C 0.78941 0.73634 0.06403 0.0
C241 C 0.80646 0.67412 0.07072 0.0
C242 C 0.71384 0.05214 0.06841 0.0
C243 C 0.78503 0.87938 0.10745 0.0
H244 H 0.97975 0.1852 0.89006 0.0
H245 H 0.99346 0.43446 0.96775 0.0
H246 H 0.95538 0.32548 0.07034 0.0
H247 H 0.96834 0.44147 0.05996 0.0
H248 H 0.79897 0.87224 0.2068 0.0
H249 H 0.83585 0.6342 0.13013 0.0
H250 H 0.77864 0.7281 0.0207 0.0
H251 H 0.80864 0.61885 0.03274 0.0
Tb252 Tb 0.03929 0.84483 0.63903 0.0
C253 C 0.36387 0.9012 0.7432 0.0
C254 C 0.4121 0.81154 0.65638 0.0
C255 C 0.49846 0.92015 0.73564 0.0
C256 C 0.35127 0.83595 0.68851 0.0
C257 C 0.43807 0.94212 0.76838 0.0
C258 C 0.48541 0.85528 0.67958 0.0
C259 C 0.38862 0.01674 0.85858 0.0
N260 N 0.30415 0.92028 0.77359 0.0
C261 C 0.31593 0.97489 0.8315 0.0
C262 C 0.44981 1.00115 0.82662 0.0
Tb263 Tb 0.19083 0.83876 0.72904 0.0
N264 N 0.28033 0.79339 0.66867 0.0
C265 C 0.26744 0.72306 0.61886 0.0
C266 C 0.39791 0.74207 0.60312 0.0
C267 C 0.32538 0.69714 0.58467 0.0
H268 H 0.26887 0.98686 0.85649 0.0
H269 H 0.31426 0.64199 0.54466 0.0
H270 H 0.53286 0.83771 0.65546 0.0
H271 H 0.39715 0.06158 0.90378 0.0
H272 H 0.21239 0.68717 0.60555 0.0
H273 H 0.93601 0.11513 0.69919 0.0
H274 H 0.44303 0.72123 0.57703 0.0
H275 H 0.92685 0.66811 0.59161 0.0
H276 H 0.02559 0.02177 0.66201 0.0
H277 H 0.80752 0.61733 0.60823 0.0
H278 H 0.5558 0.95136 0.75394 0.0
H279 H 0.81364 0.07727 0.72247 0.0
H280 H 0.72006 0.97307 0.72215 0.0
H281 H 0.50602 0.03358 0.84766 0.0
H282 H 0.68785 0.83872 0.70362 0.0
N283 N 0.95822 0.93469 0.67285 0.0
C284 C 0.97394 0.00575 0.67567 0.0
C285 C 0.85346 0.03689 0.70863 0.0
C286 C 0.83457 0.96214 0.70087 0.0
C287 C 0.92331 0.05863 0.69586 0.0
C288 C 0.8892 0.9123 0.68364 0.0
H289 H 0.72114 0.70592 0.66305 0.0
N290 N 0.92181 0.78925 0.64847 0.0
C291 C 0.82531 0.67976 0.62826 0.0
C292 C 0.87122 0.83734 0.67289 0.0
C293 C 0.89576 0.7102 0.62089 0.0
C294 C 0.77678 0.72978 0.65911 0.0
C295 C 0.79752 0.80915 0.67878 0.0
O296 O 0.99839 0.75669 0.55248 0.0
O297 O 0.15462 0.81987 0.64103 0.0
O298 O 0.2185 0.95291 0.74147 0.0
O299 O 0.10033 0.96517 0.7068 0.0
O300 O 0.13276 0.90135 0.61771 0.0
O301 O 0.01947 0.87548 0.57406 0.0
O302 O 0.19645 0.84304 0.81001 0.0
O303 O 0.06921 0.84208 0.71818 0.0
O304 O 0.04988 0.7224 0.61234 0.0
O305 O 0.11871 0.72896 0.69153 0.0
O306 O 0.13013 0.91524 0.7981 0.0
O307 O 0.23658 0.75141 0.73767 0.0
C308 C 0.18334 0.86183 0.6197 0.0
C309 C 0.92314 0.79365 0.49583 0.0
C310 C 0.85734 0.78198 0.40693 0.0
C311 C 0.92489 0.78687 0.44008 0.0
C312 C 0.7889 0.78436 0.43064 0.0
C313 C 0.85332 0.79359 0.51708 0.0
C314 C 0.78693 0.78938 0.48488 0.0
C315 C 0.17022 0.99483 0.73767 0.0
C316 C 0.9941 0.80496 0.53293 0.0
C317 C 0.74435 0.85936 0.69877 0.0
C318 C 0.76239 0.93545 0.70872 0.0
C319 C 0.06299 0.89359 0.76963 0.0
C320 C 0.30893 0.80713 0.83107 0.0
C321 C 0.31028 0.84015 0.89145 0.0
C322 C 0.37932 0.86259 0.92794 0.0
C323 C 0.44699 0.84943 0.90335 0.0
C324 C 0.37793 0.799 0.80783 0.0
C325 C 0.44636 0.81959 0.84378 0.0
C326 C 0.07136 0.69107 0.64382 0.0
C327 C 0.23613 0.78733 0.79377 0.0
H328 H 0.97834 0.78623 0.42288 0.0
H329 H 0.73647 0.78133 0.40661 0.0
H330 H 0.85013 0.79842 0.55913 0.0
H331 H 0.73362 0.79049 0.50224 0.0
H332 H 0.25788 0.85044 0.9103 0.0
H333 H 0.50056 0.86566 0.93055 0.0
H334 H 0.37909 0.77487 0.76167 0.0
H335 H 0.49907 0.81224 0.82532 0.0
C336 C 0.10265 0.13766 0.16805 0.0
C337 C 0.07839 0.06243 0.11976 0.0
C338 C 0.12811 0.00661 0.17654 0.0
C339 C 0.15792 0.08137 0.22259 0.0
N340 N 0.13881 0.21531 0.27059 0.0
N341 N 0.10049 0.92939 0.07371 0.0
C342 C 0.13345 0.1457 0.22127 0.0
C343 C 0.10085 0.99826 0.1226 0.0
N344 N 0.10246 0.20198 0.16232 0.0
N345 N 0.12574 0.94327 0.18395 0.0
H346 H 0.08788 0.9213 0.03199 0.0
H347 H 0.08788 0.9213 0.03199 0.0
H348 H 0.13979 0.94915 0.22484 0.0
H349 H 0.10455 0.88696 0.1502 0.0
H350 H 0.11754 0.2582 0.19756 0.0
H351 H 0.09377 0.19807 0.12165 0.0
H352 H 0.158 0.22403 0.31159 0.0
H353 H 0.158 0.22403 0.31159 0.0
C354 C 0.26354 0.09478 0.73993 0.0
C355 C 0.20055 0.0781 0.76323 0.0
C356 C 0.13299 0.1561 0.73818 0.0
C357 C 0.18489 0.14942 0.69715 0.0
N358 N 0.30631 0.11612 0.66491 0.0
N359 N 0.10465 0.13591 0.81826 0.0
C360 C 0.25262 0.12038 0.70007 0.0
C361 C 0.14654 0.12545 0.77485 0.0
N362 N 0.33346 0.08542 0.7544 0.0
N363 N 0.06951 0.18831 0.7434 0.0
H364 H 0.1163 0.11312 0.84558 0.0
H365 H 0.06058 0.1677 0.82646 0.0
H366 H 0.04792 0.20809 0.71676 0.0
H367 H 0.04792 0.20809 0.71676 0.0
H368 H 0.34465 0.0719 0.78708 0.0
H369 H 0.34465 0.0719 0.78708 0.0
H370 H 0.35964 0.10332 0.67104 0.0
H371 H 0.29502 0.12005 0.6278 0.0
C372 C 0.60489 0.9988 0.10099 0.0
C373 C 0.65067 0.065 0.10533 0.0
C374 C 0.63053 0.14048 0.2074 0.0
C375 C 0.58625 0.07357 0.20364 0.0
N376 N 0.56509 0.93362 0.15355 0.0
N377 N 0.67135 0.20474 0.15386 0.0
C378 C 0.58155 1.00097 0.15188 0.0
C379 C 0.65413 0.13787 0.15629 0.0
N380 N 0.58331 0.93398 0.04795 0.0
N381 N 0.65328 0.20538 0.26027 0.0
H382 H 0.675 0.20286 0.11422 0.0
H383 H 0.66902 0.25975 0.18841 0.0
H384 H 0.64274 0.20599 0.29881 0.0
H385 H 0.69053 0.2538 0.2659 0.0
H386 H 0.54479 0.88587 0.04145 0.0
H387 H 0.59706 0.93336 1.01 0.0
H388 H 0.56468 0.87855 0.11818 0.0
H389 H 0.56811 0.9356 0.19337 0.0
C390 C 0.05342 0.53949 0.68146 0.0
C391 C 0.11642 0.50766 0.65438 0.0
C392 C 0.10004 0.56231 0.59047 0.0
C393 C 0.05052 0.60808 0.62552 0.0
N394 N 0.97138 0.63507 0.70086 0.0
N395 N 0.21342 0.51186 0.59573 0.0
C396 C 0.02199 0.59231 0.66833 0.0
C397 C 0.14359 0.52479 0.61193 0.0
N398 N 0.02739 0.52338 0.72259 0.0
N399 N 0.10917 0.55978 0.53901 0.0
H400 H 0.25204 0.49667 0.61764 0.0
H401 H 0.23664 0.52795 0.5671 0.0
H402 H 0.07555 0.58688 0.52337 0.0
H403 H 0.14341 0.52464 0.51037 0.0
H404 H 0.97591 0.53509 0.7383 0.0
H405 H 0.0578 0.49716 0.74079 0.0
H406 H 0.95148 0.63177 0.73583 0.0
H407 H 0.95267 0.67839 0.69479 0.0
C408 C 0.28209 0.27787 0.50093 0.0
C409 C 0.28018 0.23233 0.52884 0.0
C410 C 0.37838 0.16957 0.47141 0.0
C411 C 0.36457 0.19822 0.43212 0.0
N412 N 0.28355 0.27103 0.40871 0.0
N413 N 0.31288 0.11488 0.52366 0.0
C414 C 0.31127 0.25058 0.44686 0.0
C415 C 0.32352 0.17134 0.50842 0.0
N416 N 0.25437 0.34572 0.52414 0.0
N417 N 0.44386 0.14284 0.47523 0.0
H418 H 0.26713 0.10885 0.54443 0.0
H419 H 0.34411 0.06957 0.50946 0.0
H420 H 0.49167 0.15468 0.45829 0.0
H421 H 0.45425 0.12022 0.50271 0.0
H422 H 0.2599 0.38308 0.50678 0.0
H423 H 0.23472 0.36838 0.56408 0.0
H424 H 0.23909 0.30247 0.41532 0.0
H425 H 0.30002 0.24901 0.36834 0.0
C426 C 0.99804 0.34342 0.79 0.0
C427 C 0.07751 0.36465 0.79235 0.0
C428 C 0.09733 0.33931 0.8747 0.0
C429 C 0.01889 0.31359 0.87014 0.0
N430 N 0.89409 0.28368 0.81896 0.0
N431 N 0.18734 0.43198 0.86701 0.0
C432 C 0.96905 0.31371 0.82647 0.0
C433 C 0.12383 0.37603 0.84273 0.0
N434 N 0.9502 0.36211 0.75896 0.0
N435 N 0.14742 0.33031 0.91088 0.0
H436 H 0.20247 0.47342 0.85457 0.0
H437 H 0.21782 0.44648 0.90659 0.0
H438 H 0.1304 0.30405 0.93523 0.0
H439 H 0.20593 0.34138 0.9116 0.0
H440 H 0.89191 0.35693 0.7599 0.0
H441 H 0.97128 0.39464 0.74012 0.0
H442 H 0.85574 0.27388 0.78412 0.0
H443 H 0.87211 0.26192 0.8449 0.0
C444 C 0.80781 0.70622 0.29987 0.0
C445 C 0.8551 0.77215 0.3467 0.0
C446 C 0.88719 0.82023 0.2791 0.0
C447 C 0.83044 0.76106 0.23522 0.0
N448 N 0.72422 0.65814 0.21047 0.0
N449 N 0.92828 0.90033 0.38229 0.0
C450 C 0.78732 0.70676 0.2474 0.0
C451 C 0.89194 0.83147 0.33669 0.0
N452 N 0.78328 0.64222 0.30504 0.0
N453 N 0.93833 0.86416 0.26572 0.0
H454 H 0.9301 0.91164 0.42493 0.0
H455 H 0.94942 0.94848 0.37818 0.0
H456 H 0.93918 0.85561 0.22374 0.0
H457 H 0.98474 0.90331 0.29499 0.0
H458 H 0.7545 0.58994 0.27031 0.0
H459 H 0.79904 0.63871 0.34211 0.0
H460 H 0.6872 0.62248 0.22012 0.0
H461 H 0.70405 0.65982 0.17347 0.0
C462 C 0.33806 0.87227 1.01987 0.0
C463 C 0.38087 0.90603 0.9921 0.0
C464 C 0.41965 0.0243 0.08607 0.0
C465 C 0.36881 0.99447 0.11297 0.0
N466 N 0.25646 0.90201 0.09309 0.0
N467 N 0.44841 0.02273 0.99741 0.0
C468 C 0.32215 0.92108 0.07673 0.0
C469 C 0.41792 0.98457 0.02478 0.0
N470 N 0.31037 0.79424 0.99164 0.0
N471 N 0.46931 0.09153 0.11908 0.0
H472 H 0.44796 0.99645 0.95265 0.0
H473 H 0.46737 0.08264 1.01825 0.0
H474 H 0.47679 0.11693 0.16373 0.0
H475 H 0.50861 0.11646 0.10284 0.0
H476 H 0.28269 0.76687 1.01219 0.0
H477 H 0.32161 0.75645 0.94993 0.0
H478 H 0.21671 0.85213 0.06608 0.0
H479 H 0.23996 0.94084 0.13188 0.0
C480 C 0.89139 0.95724 0.85003 0.0
C481 C 0.89986 0.93205 0.89182 0.0
C482 C 0.99134 0.85412 0.83242 0.0
C483 C 0.99633 0.89625 0.80195 0.0
N484 N 0.96704 0.01165 0.80248 0.0
N485 N 0.97914 0.86738 0.92548 0.0
C486 C 0.95085 0.95479 0.81651 0.0
C487 C 0.95484 0.88224 0.88332 0.0
N488 N 0.82799 0.98457 0.84248 0.0
N489 N 0.02607 0.79076 0.81585 0.0
H490 H 0.95966 0.89277 0.96465 0.0
H491 H 0.02435 0.83824 0.92373 0.0
H492 H 0.0556 0.77042 0.78019 0.0
H493 H 0.01882 0.75461 0.83419 0.0
H494 H 0.82399 0.0115 0.81739 0.0
H495 H 0.77689 0.9716 0.85552 0.0
H496 H 0.93853 0.05895 0.81649 0.0
H497 H 0.01235 0.01329 0.78035 0.0
C498 C 0.2033 0.78953 0.46421 0.0
C499 C 0.26822 0.84074 0.4673 0.0
C500 C 0.29352 0.8886 0.57271 0.0
C501 C 0.22833 0.83706 0.56908 0.0
N502 N 0.14278 0.71769 0.50701 0.0
N503 N 0.38474 0.92706 0.52226 0.0
C504 C 0.1904 0.78076 0.51331 0.0
C505 C 0.31681 0.88627 0.52096 0.0
N506 N 0.15167 0.7515 0.41507 0.0
N507 N 0.33219 0.94057 0.62605 0.0
H508 H 0.40256 0.92686 0.48541 0.0
H509 H 0.42576 0.95711 0.55851 0.0
H510 H 0.31431 0.94425 0.66379 0.0
H511 H 0.38094 0.97977 0.63334 0.0
H512 H 0.09964 0.71961 0.4127 0.0
H513 H 0.1572 0.75831 0.37873 0.0
H514 H 0.11794 0.67108 0.46682 0.0
H515 H 0.13663 0.70806 0.54177 0.0
C516 C 0.47086 0.39289 1.00191 0.0
C517 C 0.41381 0.33303 0.95931 0.0
C518 C 0.36475 0.30675 0.03398 0.0
C519 C 0.4272 0.36017 0.07517 0.0
N520 N 0.54543 0.4472 0.09636 0.0
N521 N 0.31106 0.22681 0.9325 0.0
C522 C 0.48163 0.40177 0.05867 0.0
C523 C 0.36203 0.28816 0.97471 0.0
N524 N 0.51447 0.44162 0.98811 0.0
N525 N 0.3062 0.2765 0.05199 0.0
H526 H 0.30542 0.21329 0.88907 0.0
H527 H 0.27802 0.18611 0.93968 0.0
H528 H 0.30488 0.29038 0.09519 0.0
H529 H 0.25567 0.24365 0.02535 0.0
H530 H 0.55105 0.49189 1.01861 0.0
H531 H 0.50958 0.43548 0.94663 0.0
H532 H 0.58991 0.47465 0.08565 0.0
H533 H 0.55749 0.45235 0.13714 0.0
C534 C 0.82285 0.09311 0.23166 0.0
C535 C 0.84834 0.13455 0.20303 0.0
C536 C 0.93681 0.22494 0.288 0.0
C537 C 0.92991 0.16947 0.30726 0.0
N538 N 0.85277 0.0615 0.30782 0.0
N539 N 0.85798 0.27028 0.23869 0.0
C540 C 0.86683 0.1079 0.28341 0.0
C541 C 0.88595 0.21073 0.23998 0.0
N542 N 0.7619 0.03515 0.20566 0.0
N543 N 0.99046 0.29053 0.31488 0.0
H544 H 0.81357 0.25946 0.20714 0.0
H545 H 0.87557 0.32815 0.27119 0.0
H546 H 0.02796 0.30375 0.35124 0.0
H547 H 0.99819 0.32936 0.29885 0.0
H548 H 0.73625 1.00442 0.22448 0.0
H549 H 0.73669 0.02012 0.16459 0.0
H550 H 0.81122 0.0119 0.29006 0.0
H551 H 0.88371 0.07295 0.34649 0.0
loop_
_geom_bond_atom_site_label_1
_geom_bond_atom_site_label_2
_geom_bond_distance
_geom_bond_site_symmetry_2
_ccdc_geom_bond_type
Tb0 N31 2.660 . S
Tb0 N38 2.600 . S
Tb0 O44 2.546 . S
Tb0 O45 2.610 1_545 S
Tb0 O47 2.320 . S
Tb0 O48 2.552 . S
Tb0 O49 2.413 . S
Tb0 O51 2.362 . S
Tb0 O52 2.421 . S
Tb0 C64 2.833 . S
C1 C4 1.432 . S
C1 C5 1.414 . S
C1 N8 1.359 . S
C2 C4 1.417 . S
C2 C6 1.432 1_554 S
C2 C14 1.410 . S
C3 C5 1.444 . S
C3 C6 1.318 1_554 S
C3 H26 0.929 1_554 S
C4 C1 1.432 . S
C4 C2 1.417 . S
C4 N12 1.360 . S
C5 C1 1.414 . S
C5 C3 1.444 . S
C5 C10 1.385 . S
C6 C2 1.432 1_556 S
C6 C3 1.318 1_556 S
C6 H18 0.929 . S
C7 C9 1.392 . S
C7 C10 1.370 . S
C7 H19 0.931 . S
N8 C1 1.359 . S
N8 C9 1.327 . S
N8 Tb11 2.600 . S
C9 C7 1.392 . S
C9 N8 1.327 . S
C9 H16 0.930 . S
C10 C5 1.385 . S
C10 C7 1.370 . S
C10 H29 0.930 . S
Tb11 N8 2.600 . S
Tb11 N12 2.660 . S
Tb11 O45 2.362 . S
Tb11 O46 2.421 . S
Tb11 O50 2.546 . S
Tb11 O51 2.610 1_565 S
Tb11 O53 2.320 . S
Tb11 O54 2.552 1_565 S
Tb11 O55 2.413 . S
Tb11 C75 2.833 . S
N12 C4 1.360 . S
N12 Tb11 2.660 . S
N12 C13 1.305 . S
C13 N12 1.305 . S
C13 C15 1.407 . S
C13 H20 0.930 . S
C14 C2 1.410 . S
C14 C15 1.345 . S
C14 H22 0.930 1_554 S
C15 C13 1.407 . S
C15 C14 1.345 . S
C15 H17 0.930 . S
H16 C9 0.930 . S
H17 C15 0.930 . S
H18 C6 0.929 . S
H19 C7 0.931 . S
H20 C13 0.930 . S
H21 C35 0.930 . S
H22 C14 0.930 1_556 S
H23 C41 0.930 . S
H24 C32 0.930 . S
H25 C39 0.931 . S
H26 C3 0.929 1_556 S
H27 C33 0.930 . S
H28 C66 0.930 . S
H29 C10 0.930 . S
H30 C65 0.929 . S
N31 Tb0 2.660 . S
N31 C32 1.305 . S
N31 C36 1.360 . S
C32 H24 0.930 . S
C32 N31 1.305 . S
C32 C35 1.407 . S
C33 H27 0.930 . S
C33 C34 1.410 . S
C33 C35 1.345 . S
C34 C33 1.410 . S
C34 C36 1.417 . S
C34 C66 1.432 . S
C35 H21 0.930 . S
C35 C32 1.407 . S
C35 C33 1.345 . S
C36 N31 1.360 . S
C36 C34 1.417 . S
C36 C40 1.432 . S
H37 C42 0.930 . S
N38 Tb0 2.600 . S
N38 C40 1.359 . S
N38 C41 1.327 . S
C39 H25 0.931 . S
C39 C41 1.392 . S
C39 C42 1.370 . S
C40 C36 1.432 . S
C40 N38 1.359 . S
C40 C43 1.414 . S
C41 H23 0.930 . S
C41 N38 1.327 . S
C41 C39 1.392 . S
C42 H37 0.930 . S
C42 C39 1.370 . S
C42 C43 1.385 . S
C43 C40 1.414 . S
C43 C42 1.385 . S
C43 C65 1.444 . S
O44 Tb0 2.546 . S
O44 C64 1.251 . S
O45 Tb0 2.610 1_565 S
O45 Tb11 2.362 . S
O45 C56 1.283 . S
O46 Tb11 2.421 . S
O46 C63 1.262 1_565 S
O47 Tb0 2.320 . S
O47 C63 1.260 . S
O48 Tb0 2.552 . S
O48 C56 1.243 1_545 S
O49 Tb0 2.413 . S
O49 C64 1.256 . S
O50 Tb11 2.546 . S
O50 C75 1.251 . S
O51 Tb0 2.362 . S
O51 Tb11 2.610 1_545 S
O51 C67 1.283 . S
O52 Tb0 2.421 . S
O52 C74 1.262 . S
O53 Tb11 2.320 . S
O53 C74 1.260 1_565 S
O54 Tb11 2.552 1_545 S
O54 C67 1.243 . S
O55 Tb11 2.413 . S
O55 C75 1.256 . S
C56 O45 1.283 . S
C56 O48 1.243 1_565 S
C57 C59 1.382 . S
C57 C61 1.393 . S
C57 C64 1.500 . S
C58 C59 1.400 . S
C58 C60 1.384 . S
C59 C57 1.382 . S
C59 C58 1.400 . S
C59 H76 0.930 . S
C60 C58 1.384 . S
C60 C62 1.392 . S
C60 H77 0.931 . S
C61 C57 1.393 . S
C61 C62 1.401 . S
C61 H78 0.930 . S
C62 C60 1.392 . S
C62 C61 1.401 . S
C62 H79 0.930 . S
C63 O46 1.262 1_545 S
C63 O47 1.260 . S
C64 Tb0 2.833 . S
C64 O44 1.251 . S
C64 O49 1.256 . S
C64 C57 1.500 . S
C65 H30 0.929 . S
C65 C43 1.444 . S
C65 C66 1.317 . S
C66 H28 0.930 . S
C66 C34 1.432 . S
C66 C65 1.317 . S
C67 O51 1.283 . S
C67 O54 1.243 . S
C68 C69 1.382 . S
C68 C72 1.393 . S
C68 C75 1.500 . S
C69 C68 1.382 . S
C69 C70 1.400 . S
C69 H80 0.930 . S
C70 C69 1.400 . S
C70 C71 1.384 . S
C71 C70 1.384 . S
C71 C73 1.392 . S
C71 H81 0.931 . S
C72 C68 1.393 . S
C72 C73 1.401 . S
C72 H82 0.930 . S
C73 C71 1.392 . S
C73 C72 1.401 . S
C73 H83 0.930 . S
C74 O52 1.262 . S
C74 O53 1.260 1_545 S
C75 Tb11 2.833 . S
C75 O50 1.251 . S
C75 O55 1.256 . S
C75 C68 1.500 . S
H76 C59 0.930 . S
H77 C60 0.931 . S
H78 C61 0.930 . S
H79 C62 0.930 . S
H80 C69 0.930 . S
H81 C71 0.931 . S
H82 C72 0.930 . S
H83 C73 0.930 . S
Tb84 N115 2.660 . S
Tb84 N122 2.600 . S
Tb84 O128 2.546 . S
Tb84 O129 2.610 . S
Tb84 O131 2.320 . S
Tb84 O132 2.552 . S
Tb84 O133 2.413 . S
Tb84 O135 2.362 . S
Tb84 O136 2.421 . S
Tb84 C148 2.833 . S
C85 C88 1.432 . S
C85 C89 1.414 . S
C85 N92 1.359 . S
C86 C88 1.417 . S
C86 C90 1.432 . S
C86 C98 1.410 . S
C87 C89 1.444 . S
C87 C90 1.317 . S
C87 H110 0.929 . S
C88 C85 1.432 . S
C88 C86 1.417 . S
C88 N96 1.360 . S
C89 C85 1.414 . S
C89 C87 1.444 . S
C89 C94 1.385 . S
C90 C86 1.432 . S
C90 C87 1.317 . S
C90 H102 0.930 . S
C91 C93 1.392 . S
C91 C94 1.370 . S
C91 H103 0.931 . S
N92 C85 1.359 . S
N92 C93 1.327 . S
N92 Tb95 2.600 . S
C93 C91 1.392 . S
C93 N92 1.327 . S
C93 H100 0.930 . S
C94 C89 1.385 . S
C94 C91 1.370 . S
C94 H113 0.930 . S
Tb95 N92 2.600 . S
Tb95 N96 2.660 . S
Tb95 O129 2.362 . S
Tb95 O130 2.421 . S
Tb95 O134 2.546 . S
Tb95 O135 2.610 . S
Tb95 O137 2.320 . S
Tb95 O138 2.552 . S
Tb95 O139 2.413 . S
Tb95 C159 2.833 . S
N96 C88 1.360 . S
N96 Tb95 2.660 . S
N96 C97 1.305 . S
C97 N96 1.305 . S
C97 C99 1.407 . S
C97 H104 0.930 . S
C98 C86 1.410 . S
C98 C99 1.345 . S
C98 H106 0.930 . S
C99 C97 1.407 . S
C99 C98 1.345 . S
C99 H101 0.930 . S
H100 C93 0.930 . S
H101 C99 0.930 . S
H102 C90 0.930 . S
H103 C91 0.931 . S
H104 C97 0.930 . S
H105 C119 0.930 . S
H106 C98 0.930 . S
H107 C125 0.930 . S
H108 C116 0.930 . S
H109 C123 0.931 1_565 S
H110 C87 0.929 . S
H111 C117 0.930 . S
H112 C150 0.930 . S
H113 C94 0.930 . S
H114 C149 0.929 . S
N115 Tb84 2.660 . S
N115 C116 1.305 . S
N115 C120 1.360 1_455 S
C116 H108 0.930 . S
C116 N115 1.305 . S
C116 C119 1.407 1_455 S
C117 H111 0.930 . S
C117 C118 1.410 . S
C117 C119 1.345 . S
C118 C117 1.410 . S
C118 C120 1.417 . S
C118 C150 1.432 . S
C119 H105 0.930 . S
C119 C116 1.407 1_655 S
C119 C117 1.345 . S
C120 N115 1.360 1_655 S
C120 C118 1.417 . S
C120 C124 1.432 . S
H121 C126 0.930 . S
N122 Tb84 2.600 . S
N122 C124 1.359 1_455 S
N122 C125 1.327 . S
C123 H109 0.931 1_545 S
C123 C125 1.392 1_655 S
C123 C126 1.370 . S
C124 C120 1.432 . S
C124 N122 1.359 1_655 S
C124 C127 1.414 . S
C125 H107 0.930 . S
C125 N122 1.327 . S
C125 C123 1.392 1_455 S
C126 H121 0.930 . S
C126 C123 1.370 . S
C126 C127 1.385 . S
C127 C124 1.414 . S
C127 C126 1.385 . S
C127 C149 1.444 . S
O128 Tb84 2.546 . S
O128 C148 1.251 . S
O129 Tb84 2.610 . S
O129 Tb95 2.362 . S
O129 C140 1.283 . S
O130 Tb95 2.421 . S
O130 C147 1.262 . S
O131 Tb84 2.320 . S
O131 C147 1.260 . S
O132 Tb84 2.552 . S
O132 C140 1.243 . S
O133 Tb84 2.413 . S
O133 C148 1.256 . S
O134 Tb95 2.546 . S
O134 C159 1.251 . S
O135 Tb84 2.362 . S
O135 Tb95 2.610 . S
O135 C151 1.283 . S
O136 Tb84 2.421 . S
O136 C158 1.262 . S
O137 Tb95 2.320 . S
O137 C158 1.260 . S
O138 Tb95 2.552 . S
O138 C151 1.243 . S
O139 Tb95 2.413 . S
O139 C159 1.256 . S
C140 O129 1.283 . S
C140 O132 1.243 . S
C141 C143 1.382 . S
C141 C145 1.393 1_455 S
C141 C148 1.500 . S
C142 C143 1.400 1_655 S
C142 C144 1.384 . S
C143 C141 1.382 . S
C143 C142 1.400 1_455 S
C143 H160 0.930 . S
C144 C142 1.384 . S
C144 C146 1.392 . S
C144 H161 0.931 . S
C145 C141 1.393 1_655 S
C145 C146 1.401 . S
C145 H162 0.930 . S
C146 C144 1.392 . S
C146 C145 1.401 . S
C146 H163 0.930 . S
C147 O130 1.262 . S
C147 O131 1.260 . S
C148 Tb84 2.833 . S
C148 O128 1.251 . S
C148 O133 1.256 . S
C148 C141 1.500 . S
C149 H114 0.929 . S
C149 C127 1.444 . S
C149 C150 1.317 . S
C150 H112 0.930 . S
C150 C118 1.432 . S
C150 C149 1.317 . S
C151 O135 1.283 . S
C151 O138 1.243 . S
C152 C153 1.382 . S
C152 C156 1.393 . S
C152 C159 1.500 . S
C153 C152 1.382 . S
C153 C154 1.400 . S
C153 H164 0.930 . S
C154 C153 1.400 . S
C154 C155 1.384 . S
C155 C154 1.384 . S
C155 C157 1.392 . S
C155 H165 0.931 . S
C156 C152 1.393 . S
C156 C157 1.401 . S
C156 H166 0.930 . S
C157 C155 1.392 . S
C157 C156 1.401 . S
C157 H167 0.930 . S
C158 O136 1.262 . S
C158 O137 1.260 . S
C159 Tb95 2.833 . S
C159 O134 1.251 . S
C159 O139 1.256 . S
C159 C152 1.500 . S
H160 C143 0.930 . S
H161 C144 0.931 . S
H162 C145 0.930 . S
H163 C146 0.930 . S
H164 C153 0.930 . S
H165 C155 0.931 . S
H166 C156 0.930 . S
H167 C157 0.930 . S
Tb168 N199 2.660 . S
Tb168 N206 2.600 . S
Tb168 O212 2.546 . S
Tb168 O213 2.610 . S
Tb168 O215 2.320 1_655 S
Tb168 O216 2.552 1_554 S
Tb168 O217 2.413 . S
Tb168 O219 2.362 . S
Tb168 O220 2.421 . S
Tb168 C232 2.833 . S
C169 C172 1.432 . S
C169 C173 1.414 . S
C169 N176 1.359 1_556 S
C170 C172 1.417 . S
C170 C174 1.432 . S
C170 C182 1.410 . S
C171 C173 1.444 . S
C171 C174 1.317 . S
C171 H194 0.929 . S
C172 C169 1.432 . S
C172 C170 1.417 . S
C172 N180 1.360 1_556 S
C173 C169 1.414 . S
C173 C171 1.444 . S
C173 C178 1.385 1_655 S
C174 C170 1.432 . S
C174 C171 1.317 . S
C174 H186 0.930 . S
C175 C177 1.392 . S
C175 C178 1.370 1_554 S
C175 H187 0.931 . S
N176 C169 1.359 1_554 S
N176 C177 1.327 1_655 S
N176 Tb179 2.600 1_565 S
C177 C175 1.392 . S
C177 N176 1.327 1_455 S
C177 H184 0.930 . S
C178 C173 1.385 1_455 S
C178 C175 1.370 1_556 S
C178 H197 0.930 . S
Tb179 N176 2.600 1_545 S
Tb179 N180 2.660 1_545 S
Tb179 O213 2.362 . S
Tb179 O214 2.421 1_655 S
Tb179 O218 2.546 1_545 S
Tb179 O219 2.610 . S
Tb179 O221 2.320 . S
Tb179 O222 2.552 . S
Tb179 O223 2.413 1_545 S
Tb179 C243 2.833 1_545 S
N180 C172 1.360 1_554 S
N180 Tb179 2.660 1_565 S
N180 C181 1.305 1_554 S
C181 N180 1.305 1_556 S
C181 C183 1.407 . S
C181 H188 0.930 1_556 S
C182 C170 1.410 . S
C182 C183 1.345 . S
C182 H190 0.930 . S
C183 C181 1.407 . S
C183 C182 1.345 . S
C183 H185 0.930 . S
H184 C177 0.930 . S
H185 C183 0.930 . S
H186 C174 0.930 . S
H187 C175 0.931 . S
H188 C181 0.930 1_554 S
H189 C203 0.930 . S
H190 C182 0.930 . S
H191 C209 0.930 . S
H192 C200 0.930 . S
H193 C207 0.931 . S
H194 C171 0.929 . S
H195 C201 0.930 . S
H196 C234 0.930 . S
H197 C178 0.930 . S
H198 C233 0.929 . S
N199 Tb168 2.660 . S
N199 C200 1.305 1_655 S
N199 C204 1.360 . S
C200 H192 0.930 . S
C200 N199 1.305 1_455 S
C200 C203 1.407 . S
C201 H195 0.930 . S
C201 C202 1.410 . S
C201 C203 1.345 . S
C202 C201 1.410 . S
C202 C204 1.417 1_455 S
C202 C234 1.432 1_455 S
C203 H189 0.930 . S
C203 C200 1.407 . S
C203 C201 1.345 . S
C204 N199 1.360 . S
C204 C202 1.417 1_655 S
C204 C208 1.432 . S
H205 C210 0.930 . S
N206 Tb168 2.600 . S
N206 C208 1.359 . S
N206 C209 1.327 . S
C207 H193 0.931 . S
C207 C209 1.392 . S
C207 C210 1.370 . S
C208 C204 1.432 . S
C208 N206 1.359 . S
C208 C211 1.414 . S
C209 H191 0.930 . S
C209 N206 1.327 . S
C209 C207 1.392 . S
C210 H205 0.930 . S
C210 C207 1.370 . S
C210 C211 1.385 . S
C211 C208 1.414 . S
C211 C210 1.385 . S
C211 C233 1.444 . S
O212 Tb168 2.546 . S
O212 C232 1.251 . S
O213 Tb168 2.610 . S
O213 Tb179 2.362 . S
O213 C224 1.283 1_554 S
O214 Tb179 2.421 1_455 S
O214 C231 1.262 . S
O215 Tb168 2.320 1_455 S
O215 C231 1.260 . S
O216 Tb168 2.552 1_556 S
O216 C224 1.243 . S
O217 Tb168 2.413 . S
O217 C232 1.256 . S
O218 Tb179 2.546 1_565 S
O218 C243 1.251 . S
O219 Tb168 2.362 . S
O219 Tb179 2.610 . S
O219 C235 1.283 . S
O220 Tb168 2.421 . S
O220 C242 1.262 . S
O221 Tb179 2.320 . S
O221 C242 1.260 . S
O222 Tb179 2.552 . S
O222 C235 1.243 . S
O223 Tb179 2.413 1_565 S
O223 C243 1.256 . S
C224 O213 1.283 1_556 S
C224 O216 1.243 . S
C225 C227 1.382 . S
C225 C229 1.393 . S
C225 C232 1.500 1_556 S
C226 C227 1.400 1_455 S
C226 C228 1.384 1_455 S
C227 C225 1.382 . S
C227 C226 1.400 1_655 S
C227 H244 0.930 1_655 S
C228 C226 1.384 1_655 S
C228 C230 1.392 . S
C228 H245 0.931 . S
C229 C225 1.393 . S
C229 C230 1.401 . S
C229 H246 0.930 1_556 S
C230 C228 1.392 . S
C230 C229 1.401 . S
C230 H247 0.930 . S
C231 O214 1.262 . S
C231 O215 1.260 . S
C232 Tb168 2.833 . S
C232 O212 1.251 . S
C232 O217 1.256 . S
C232 C225 1.500 1_554 S
C233 H198 0.929 . S
C233 C211 1.444 . S
C233 C234 1.317 . S
C234 H196 0.930 . S
C234 C202 1.432 1_655 S
C234 C233 1.317 . S
C235 O219 1.283 . S
C235 O222 1.243 . S
C236 C237 1.382 . S
C236 C240 1.393 . S
C236 C243 1.500 . S
C237 C236 1.382 . S
C237 C238 1.400 . S
C237 H248 0.930 . S
C238 C237 1.400 . S
C238 C239 1.384 . S
C239 C238 1.384 . S
C239 C241 1.392 . S
C239 H249 0.931 . S
C240 C236 1.393 . S
C240 C241 1.401 . S
C240 H250 0.930 . S
C241 C239 1.392 . S
C241 C240 1.401 . S
C241 H251 0.930 . S
C242 O220 1.262 . S
C242 O221 1.260 . S
C243 Tb179 2.833 1_565 S
C243 O218 1.251 . S
C243 O223 1.256 . S
C243 C236 1.500 . S
H244 C227 0.930 1_455 S
H245 C228 0.931 . S
H246 C229 0.930 1_554 S
H247 C230 0.930 . S
H248 C237 0.930 . S
H249 C239 0.931 . S
H250 C240 0.930 . S
H251 C241 0.930 . S
Tb252 N283 2.660 . S
Tb252 N290 2.600 . S
Tb252 O296 2.546 . S
Tb252 O297 2.610 1_655 S
Tb252 O299 2.320 . S
Tb252 O300 2.552 1_655 S
Tb252 O301 2.413 . S
Tb252 O303 2.362 . S
Tb252 O304 2.421 . S
Tb252 C316 2.833 . S
C253 C256 1.432 . S
C253 C257 1.414 . S
C253 N260 1.359 . S
C254 C256 1.417 . S
C254 C258 1.432 . S
C254 C266 1.410 . S
C255 C257 1.444 . S
C255 C258 1.317 . S
C255 H278 0.929 . S
C256 C253 1.432 . S
C256 C254 1.417 . S
C256 N264 1.360 . S
C257 C253 1.414 . S
C257 C255 1.444 . S
C257 C262 1.385 1_565 S
C258 C254 1.432 . S
C258 C255 1.317 . S
C258 H270 0.930 . S
C259 C261 1.392 . S
C259 C262 1.370 . S
C259 H271 0.931 . S
N260 C253 1.359 . S
N260 C261 1.327 1_565 S
N260 Tb263 2.600 . S
C261 C259 1.392 . S
C261 N260 1.327 1_545 S
C261 H268 0.930 . S
C262 C257 1.385 1_545 S
C262 C259 1.370 . S
C262 H281 0.930 . S
Tb263 N260 2.600 . S
Tb263 N264 2.660 . S
Tb263 O297 2.362 . S
Tb263 O298 2.421 . S
Tb263 O302 2.546 . S
Tb263 O303 2.610 1_455 S
Tb263 O305 2.320 . S
Tb263 O306 2.552 . S
Tb263 O307 2.413 . S
Tb263 C327 2.833 . S
N264 C256 1.360 . S
N264 Tb263 2.660 . S
N264 C265 1.305 . S
C265 N264 1.305 . S
C265 C267 1.407 . S
C265 H272 0.930 . S
C266 C254 1.410 . S
C266 C267 1.345 . S
C266 H274 0.930 . S
C267 C265 1.407 . S
C267 C266 1.345 . S
C267 H269 0.930 . S
H268 C261 0.930 . S
H269 C267 0.930 . S
H270 C258 0.930 . S
H271 C259 0.931 . S
H272 C265 0.930 . S
H273 C287 0.930 1_545 S
H274 C266 0.930 . S
H275 C293 0.930 . S
H276 C284 0.930 . S
H277 C291 0.931 . S
H278 C255 0.929 . S
H279 C285 0.930 . S
H280 C318 0.930 . S
H281 C262 0.930 . S
H282 C317 0.929 . S
N283 Tb252 2.660 . S
N283 C284 1.305 . S
N283 C288 1.360 . S
C284 H276 0.930 . S
C284 N283 1.305 . S
C284 C287 1.407 . S
C285 H279 0.930 . S
C285 C286 1.410 . S
C285 C287 1.345 . S
C286 C285 1.410 . S
C286 C288 1.417 . S
C286 C318 1.432 . S
C287 H273 0.930 1_565 S
C287 C284 1.407 . S
C287 C285 1.345 . S
C288 N283 1.360 . S
C288 C286 1.417 . S
C288 C292 1.432 . S
H289 C294 0.930 . S
N290 Tb252 2.600 . S
N290 C292 1.359 . S
N290 C293 1.327 . S
C291 H277 0.931 . S
C291 C293 1.392 . S
C291 C294 1.370 . S
C292 C288 1.432 . S
C292 N290 1.359 . S
C292 C295 1.414 . S
C293 H275 0.930 . S
C293 N290 1.327 . S
C293 C291 1.392 . S
C294 H289 0.930 . S
C294 C291 1.370 . S
C294 C295 1.385 . S
C295 C292 1.414 . S
C295 C294 1.385 . S
C295 C317 1.444 . S
O296 Tb252 2.546 . S
O296 C316 1.251 . S
O297 Tb252 2.610 1_455 S
O297 Tb263 2.362 . S
O297 C308 1.283 . S
O298 Tb263 2.421 . S
O298 C315 1.262 . S
O299 Tb252 2.320 . S
O299 C315 1.260 1_655 S
O300 Tb252 2.552 1_455 S
O300 C308 1.243 . S
O301 Tb252 2.413 . S
O301 C316 1.256 . S
O302 Tb263 2.546 . S
O302 C327 1.251 . S
O303 Tb252 2.362 . S
O303 Tb263 2.610 1_655 S
O303 C319 1.283 . S
O304 Tb252 2.421 . S
O304 C326 1.262 1_655 S
O305 Tb263 2.320 . S
O305 C326 1.260 . S
O306 Tb263 2.552 . S
O306 C319 1.243 1_455 S
O307 Tb263 2.413 . S
O307 C327 1.256 . S
C308 O297 1.283 . S
C308 O300 1.243 . S
C309 C311 1.382 . S
C309 C313 1.393 . S
C309 C316 1.500 . S
C310 C311 1.400 . S
C310 C312 1.384 . S
C311 C309 1.382 . S
C311 C310 1.400 . S
C311 H328 0.930 . S
C312 C310 1.384 . S
C312 C314 1.392 . S
C312 H329 0.931 . S
C313 C309 1.393 . S
C313 C314 1.401 . S
C313 H330 0.930 . S
C314 C312 1.392 . S
C314 C313 1.401 . S
C314 H331 0.930 . S
C315 O298 1.262 . S
C315 O299 1.260 1_455 S
C316 Tb252 2.833 . S
C316 O296 1.251 . S
C316 O301 1.256 . S
C316 C309 1.500 . S
C317 H282 0.929 . S
C317 C295 1.444 . S
C317 C318 1.317 . S
C318 H280 0.930 . S
C318 C286 1.432 . S
C318 C317 1.317 . S
C319 O303 1.283 . S
C319 O306 1.243 1_655 S
C320 C321 1.382 . S
C320 C324 1.393 . S
C320 C327 1.500 . S
C321 C320 1.382 . S
C321 C322 1.400 . S
C321 H332 0.930 . S
C322 C321 1.400 . S
C322 C323 1.384 . S
C323 C322 1.384 . S
C323 C325 1.392 . S
C323 H333 0.931 . S
C324 C320 1.393 . S
C324 C325 1.401 . S
C324 H334 0.930 1_565 S
C325 C323 1.392 . S
C325 C324 1.401 . S
C325 H335 0.930 1_565 S
C326 O304 1.262 1_455 S
C326 O305 1.260 . S
C327 Tb263 2.833 . S
C327 O302 1.251 . S
C327 O307 1.256 . S
C327 C320 1.500 . S
H328 C311 0.930 . S
H329 C312 0.931 . S
H330 C313 0.930 . S
H331 C314 0.930 . S
H332 C321 0.930 . S
H333 C323 0.931 . S
H334 C324 0.930 1_545 S
H335 C325 0.930 1_545 S
C336 C337 1.363 . S
C336 C342 1.379 . S
C336 N344 1.356 . S
C337 C336 1.363 . S
C337 C343 1.363 . S
C338 C339 1.363 1_565 S
C338 C343 1.379 1_565 S
C338 N345 1.356 . S
C339 C338 1.363 1_545 S
C339 C342 1.363 . S
N340 C342 1.356 . S
N340 H352 0.984 . S
N340 H353 0.985 . S
N341 C343 1.356 1_565 S
N341 H346 0.984 1_565 S
N341 H347 0.985 1_455 S
C342 C336 1.379 . S
C342 C339 1.363 . S
C342 N340 1.356 . S
C343 C337 1.363 . S
C343 C338 1.379 1_545 S
C343 N341 1.356 1_545 S
N344 C336 1.356 . S
N344 H350 0.984 . S
N344 H351 0.984 . S
N345 C338 1.356 . S
N345 H348 0.984 . S
N345 H349 0.985 . S
H346 N341 0.984 1_545 S
H347 N341 0.985 1_655 S
H348 N345 0.984 . S
H349 N345 0.985 . S
H350 N344 0.984 . S
H351 N344 0.984 . S
H352 N340 0.984 . S
H353 N340 0.985 . S
C354 C355 1.363 . S
C354 C360 1.379 . S
C354 N362 1.356 1_545 S
C355 C354 1.363 . S
C355 C361 1.363 . S
C356 C357 1.363 . S
C356 C361 1.379 . S
C356 N363 1.356 . S
C357 C356 1.363 . S
C357 C360 1.363 . S
N358 C360 1.356 . S
N358 H370 0.984 . S
N358 H371 0.985 . S
N359 C361 1.356 1_655 S
N359 H364 0.984 1_545 S
N359 H365 0.985 . S
C360 C354 1.379 . S
C360 C357 1.363 . S
C360 N358 1.356 . S
C361 C355 1.363 . S
C361 C356 1.379 . S
C361 N359 1.356 1_455 S
N362 C354 1.356 1_565 S
N362 H368 0.984 . S
N362 H369 0.984 . S
N363 C356 1.356 . S
N363 H366 0.984 . S
N363 H367 0.985 . S
H364 N359 0.984 1_565 S
H365 N359 0.985 . S
H366 N363 0.984 . S
H367 N363 0.985 . S
H368 N362 0.984 . S
H369 N362 0.984 . S
H370 N358 0.984 . S
H371 N358 0.985 . S
C372 C373 1.363 . S
C372 C378 1.379 . S
C372 N380 1.356 . S
C373 C372 1.363 . S
C373 C379 1.363 . S
C374 C375 1.363 . S
C374 C379 1.379 . S
C374 N381 1.356 . S
C375 C374 1.363 . S
C375 C378 1.363 . S
N376 C378 1.356 1_565 S
N376 H388 0.984 . S
N376 H389 0.985 . S
N377 C379 1.356 . S
N377 H382 0.984 . S
N377 H383 0.985 . S
C378 C372 1.379 . S
C378 C375 1.363 . S
C378 N376 1.356 1_545 S
C379 C373 1.363 . S
C379 C374 1.379 . S
C379 N377 1.356 . S
N380 C372 1.356 . S
N380 H386 0.984 . S
N380 H387 0.984 . S
N381 C374 1.356 . S
N381 H384 0.984 . S
N381 H385 0.985 . S
H382 N377 0.984 . S
H383 N377 0.985 . S
H384 N381 0.984 . S
H385 N381 0.985 . S
H386 N380 0.984 . S
H387 N380 0.984 . S
H388 N376 0.984 . S
H389 N376 0.985 . S
C390 C391 1.363 . S
C390 C396 1.379 . S
C390 N398 1.356 . S
C391 C390 1.363 . S
C391 C397 1.363 . S
C392 C393 1.363 . S
C392 C397 1.379 . S
C392 N399 1.356 . S
C393 C392 1.363 . S
C393 C396 1.363 . S
N394 C396 1.356 . S
N394 H406 0.984 . S
N394 H407 0.985 . S
N395 C397 1.356 . S
N395 H400 0.984 . S
N395 H401 0.985 . S
C396 C390 1.379 . S
C396 C393 1.363 . S
C396 N394 1.356 . S
C397 C391 1.363 . S
C397 C392 1.379 . S
C397 N395 1.356 . S
N398 C390 1.356 . S
N398 H404 0.984 . S
N398 H405 0.984 . S
N399 C392 1.356 . S
N399 H402 0.984 . S
N399 H403 0.985 . S
H400 N395 0.984 . S
H401 N395 0.985 . S
H402 N399 0.984 . S
H403 N399 0.985 . S
H404 N398 0.984 . S
H405 N398 0.984 . S
H406 N394 0.984 . S
H407 N394 0.985 . S
C408 C409 1.363 . S
C408 C414 1.379 . S
C408 N416 1.356 . S
C409 C408 1.363 . S
C409 C415 1.363 . S
C410 C411 1.363 . S
C410 C415 1.379 . S
C410 N417 1.356 . S
C411 C410 1.363 . S
C411 C414 1.363 . S
N412 C414 1.356 . S
N412 H424 0.984 . S
N412 H425 0.985 . S
N413 C415 1.356 . S
N413 H418 0.984 . S
N413 H419 0.985 . S
C414 C408 1.379 . S
C414 C411 1.363 . S
C414 N412 1.356 . S
C415 C409 1.363 . S
C415 C410 1.379 . S
C415 N413 1.356 . S
N416 C408 1.356 . S
N416 H422 0.984 . S
N416 H423 0.984 . S
N417 C410 1.356 . S
N417 H420 0.984 . S
N417 H421 0.985 . S
H418 N413 0.984 . S
H419 N413 0.985 . S
H420 N417 0.984 . S
H421 N417 0.985 . S
H422 N416 0.984 . S
H423 N416 0.984 . S
H424 N412 0.984 . S
H425 N412 0.985 . S
C426 C427 1.363 . S
C426 C432 1.379 . S
C426 N434 1.356 . S
C427 C426 1.363 . S
C427 C433 1.363 . S
C428 C429 1.363 . S
C428 C433 1.379 . S
C428 N435 1.356 . S
C429 C428 1.363 . S
C429 C432 1.363 . S
N430 C432 1.356 1_655 S
N430 H442 0.984 . S
N430 H443 0.985 . S
N431 C433 1.356 . S
N431 H436 0.984 . S
N431 H437 0.985 . S
C432 C426 1.379 . S
C432 C429 1.363 . S
C432 N430 1.356 1_455 S
C433 C427 1.363 . S
C433 C428 1.379 . S
C433 N431 1.356 . S
N434 C426 1.356 . S
N434 H440 0.984 1_455 S
N434 H441 0.984 . S
N435 C428 1.356 . S
N435 H438 0.984 . S
N435 H439 0.985 . S
H436 N431 0.984 . S
H437 N431 0.985 . S
H438 N435 0.984 . S
H439 N435 0.985 . S
H440 N434 0.984 1_655 S
H441 N434 0.984 . S
H442 N430 0.984 . S
H443 N430 0.985 . S
C444 C445 1.363 . S
C444 C450 1.379 . S
C444 N452 1.356 . S
C445 C444 1.363 . S
C445 C451 1.363 . S
C446 C447 1.363 . S
C446 C451 1.379 . S
C446 N453 1.356 . S
C447 C446 1.363 . S
C447 C450 1.363 . S
N448 C450 1.356 . S
N448 H460 0.984 . S
N448 H461 0.985 . S
N449 C451 1.356 . S
N449 H454 0.984 . S
N449 H455 0.985 . S
C450 C444 1.379 . S
C450 C447 1.363 . S
C450 N448 1.356 . S
C451 C445 1.363 . S
C451 C446 1.379 . S
C451 N449 1.356 . S
N452 C444 1.356 . S
N452 H458 0.984 . S
N452 H459 0.984 . S
N453 C446 1.356 . S
N453 H456 0.984 . S
N453 H457 0.985 1_565 S
H454 N449 0.984 . S
H455 N449 0.985 . S
H456 N453 0.984 . S
H457 N453 0.985 1_545 S
H458 N452 0.984 . S
H459 N452 0.984 . S
H460 N448 0.984 . S
H461 N448 0.985 . S
C462 C463 1.363 . S
C462 C468 1.379 1_556 S
C462 N470 1.356 . S
C463 C462 1.363 . S
C463 C469 1.363 . S
C464 C465 1.363 . S
C464 C469 1.379 1_554 S
C464 N471 1.356 1_565 S
C465 C464 1.363 . S
C465 C468 1.363 . S
N466 C468 1.356 . S
N466 H478 0.984 . S
N466 H479 0.985 . S
N467 C469 1.356 . S
N467 H472 0.984 . S
N467 H473 0.985 . S
C468 C462 1.379 1_554 S
C468 C465 1.363 . S
C468 N466 1.356 . S
C469 C463 1.363 . S
C469 C464 1.379 1_556 S
C469 N467 1.356 . S
N470 C462 1.356 . S
N470 H476 0.984 . S
N470 H477 0.984 . S
N471 C464 1.356 1_545 S
N471 H474 0.984 . S
N471 H475 0.985 . S
H472 N467 0.984 . S
H473 N467 0.985 . S
H474 N471 0.984 . S
H475 N471 0.985 . S
H476 N470 0.984 . S
H477 N470 0.984 . S
H478 N466 0.984 . S
H479 N466 0.985 . S
C480 C481 1.363 . S
C480 C486 1.379 . S
C480 N488 1.356 1_565 S
C481 C480 1.363 . S
C481 C487 1.363 . S
C482 C483 1.363 . S
C482 C487 1.379 . S
C482 N489 1.356 . S
C483 C482 1.363 . S
C483 C486 1.363 . S
N484 C486 1.356 . S
N484 H496 0.984 . S
N484 H497 0.985 . S
N485 C487 1.356 . S
N485 H490 0.984 . S
N485 H491 0.985 . S
C486 C480 1.379 . S
C486 C483 1.363 . S
C486 N484 1.356 . S
C487 C481 1.363 . S
C487 C482 1.379 . S
C487 N485 1.356 . S
N488 C480 1.356 1_545 S
N488 H494 0.984 . S
N488 H495 0.984 . S
N489 C482 1.356 . S
N489 H492 0.984 . S
N489 H493 0.985 . S
H490 N485 0.984 . S
H491 N485 0.985 . S
H492 N489 0.984 . S
H493 N489 0.985 . S
H494 N488 0.984 . S
H495 N488 0.984 . S
H496 N484 0.984 . S
H497 N484 0.985 . S
C498 C499 1.363 . S
C498 C504 1.379 . S
C498 N506 1.356 . S
C499 C498 1.363 . S
C499 C505 1.363 . S
C500 C501 1.363 . S
C500 C505 1.379 . S
C500 N507 1.356 . S
C501 C500 1.363 . S
C501 C504 1.363 . S
N502 C504 1.356 . S
N502 H514 0.984 . S
N502 H515 0.985 . S
N503 C505 1.356 . S
N503 H508 0.984 . S
N503 H509 0.985 . S
C504 C498 1.379 . S
C504 C501 1.363 . S
C504 N502 1.356 . S
C505 C499 1.363 . S
C505 C500 1.379 . S
C505 N503 1.356 . S
N506 C498 1.356 . S
N506 H512 0.984 . S
N506 H513 0.984 . S
N507 C500 1.356 . S
N507 H510 0.984 . S
N507 H511 0.985 . S
H508 N503 0.984 . S
H509 N503 0.985 . S
H510 N507 0.984 . S
H511 N507 0.985 . S
H512 N506 0.984 . S
H513 N506 0.984 . S
H514 N502 0.984 . S
H515 N502 0.985 . S
C516 C517 1.363 . S
C516 C522 1.379 1_556 S
C516 N524 1.356 . S
C517 C516 1.363 . S
C517 C523 1.363 . S
C518 C519 1.363 1_556 S
C518 C523 1.379 . S
C518 N525 1.356 . S
C519 C518 1.363 1_554 S
C519 C522 1.363 . S
N520 C522 1.356 . S
N520 H532 0.984 . S
N520 H533 0.985 . S
N521 C523 1.356 . S
N521 H526 0.984 . S
N521 H527 0.985 . S
C522 C516 1.379 1_554 S
C522 C519 1.363 . S
C522 N520 1.356 . S
C523 C517 1.363 . S
C523 C518 1.379 . S
C523 N521 1.356 . S
N524 C516 1.356 . S
N524 H530 0.984 1_556 S
N524 H531 0.984 . S
N525 C518 1.356 . S
N525 H528 0.984 . S
N525 H529 0.985 . S
H526 N521 0.984 . S
H527 N521 0.985 . S
H528 N525 0.984 . S
H529 N525 0.985 . S
H530 N524 0.984 1_554 S
H531 N524 0.984 . S
H532 N520 0.984 . S
H533 N520 0.985 . S
C534 C535 1.363 . S
C534 C540 1.379 . S
C534 N542 1.356 . S
C535 C534 1.363 . S
C535 C541 1.363 . S
C536 C537 1.363 1_455 S
C536 C541 1.379 1_455 S
C536 N543 1.356 . S
C537 C536 1.363 1_655 S
C537 C540 1.363 . S
N538 C540 1.356 . S
N538 H550 0.984 . S
N538 H551 0.985 . S
N539 C541 1.356 . S
N539 H544 0.984 . S
N539 H545 0.985 1_655 S
C540 C534 1.379 . S
C540 C537 1.363 . S
C540 N538 1.356 . S
C541 C535 1.363 . S
C541 C536 1.379 1_655 S
C541 N539 1.356 . S
N542 C534 1.356 . S
N542 H548 0.984 . S
N542 H549 0.984 . S
N543 C536 1.356 . S
N543 H546 0.984 . S
N543 H547 0.985 . S
H544 N539 0.984 . S
H545 N539 0.985 1_455 S
H546 N543 0.984 . S
H547 N543 0.985 . S
H548 N542 0.984 . S
H549 N542 0.984 . S
H550 N538 0.984 . S
H551 N538 0.985 . S
C337 C231 1.432 . S
C339 C74 1.432 . S
C355 C315 1.315 1_545 S
C357 C158 1.315 . S
C373 C242 1.449 . S
C375 C63 1.449 . S
C391 C147 1.550 . S
C393 C326 1.550 . S
C409 C140 1.937 . S
C411 C67 2.116 . S
C427 C151 1.923 . S
C429 C226 1.961 . S
C445 C310 1.182 . S
C447 C238 0.970 . S
C463 C322 0.887 . S
C465 C56 1.017 . S
C481 C224 2.116 1_565 S
C483 C319 1.936 . S
C499 C70 1.961 . S
C501 C308 1.923 . S
C517 C154 1.182 . S
C519 C58 0.970 . S
C535 C235 1.017 . S
C537 C142 0.887 . S
