# Generated by pormake.
# Topology wjd, (6)-cn, num edge types: 1
# Building blocks:
#     Node 0, Type 0, BuildingBlock: KUMBOL_clean_sbu_0, # of connection points: 6
#     Node 1, Type 0, BuildingBlock: KUMBOL_clean_sbu_0, # of connection points: 6
#     Node 2, Type 0, BuildingBlock: KUMBOL_clean_sbu_0, # of connection points: 6
#     Node 3, Type 0, BuildingBlock: KUMBOL_clean_sbu_0, # of connection points: 6
#     Node 4, Type 0, BuildingBlock: KUMBOL_clean_sbu_0, # of connection points: 6
#     Node 5, Type 0, BuildingBlock: KUMBOL_clean_sbu_0, # of connection points: 6
#     Node 6, Type 0, BuildingBlock: KUMBOL_clean_sbu_0, # of connection points: 6
#     Node 7, Type 0, BuildingBlock: KUMBOL_clean_sbu_0, # of connection points: 6
#     Node 8, Type 0, BuildingBlock: KUMBOL_clean_sbu_0, # of connection points: 6
#     Node 9, Type 0, BuildingBlock: KUMBOL_clean_sbu_0, # of connection points: 6
#     Node 10, Type 0, BuildingBlock: KUMBOL_clean_sbu_0, # of connection points: 6
#     Node 11, Type 0, BuildingBlock: KUMBOL_clean_sbu_0, # of connection points: 6
#     Edge 12, Type (0, 0), BuildingBlock: TEMPAE_clean_linker_10, # of connection points: 2
#     Edge 13, Type (0, 0), BuildingBlock: TEMPAE_clean_linker_10, # of connection points: 2
#     Edge 14, Type (0, 0), BuildingBlock: TEMPAE_clean_linker_10, # of connection points: 2
#     Edge 15, Type (0, 0), BuildingBlock: TEMPAE_clean_linker_10, # of connection points: 2
#     Edge 16, Type (0, 0), BuildingBlock: TEMPAE_clean_linker_10, # of connection points: 2
#     Edge 17, Type (0, 0), BuildingBlock: TEMPAE_clean_linker_10, # of connection points: 2
#     Edge 18, Type (0, 0), BuildingBlock: TEMPAE_clean_linker_10, # of connection points: 2
#     Edge 19, Type (0, 0), BuildingBlock: TEMPAE_clean_linker_10, # of connection points: 2
#     Edge 20, Type (0, 0), BuildingBlock: TEMPAE_clean_linker_10, # of connection points: 2
#     Edge 21, Type (0, 0), BuildingBlock: TEMPAE_clean_linker_10, # of connection points: 2
#     Edge 22, Type (0, 0), BuildingBlock: TEMPAE_clean_linker_10, # of connection points: 2
#     Edge 23, Type (0, 0), BuildingBlock: TEMPAE_clean_linker_10, # of connection points: 2
#     Edge 24, Type (0, 0), BuildingBlock: TEMPAE_clean_linker_10, # of connection points: 2
#     Edge 25, Type (0, 0), BuildingBlock: TEMPAE_clean_linker_10, # of connection points: 2
#     Edge 26, Type (0, 0), BuildingBlock: TEMPAE_clean_linker_10, # of connection points: 2
#     Edge 27, Type (0, 0), BuildingBlock: TEMPAE_clean_linker_10, # of connection points: 2
#     Edge 28, Type (0, 0), BuildingBlock: TEMPAE_clean_linker_10, # of connection points: 2
#     Edge 29, Type (0, 0), BuildingBlock: TEMPAE_clean_linker_10, # of connection points: 2
#     Edge 30, Type (0, 0), BuildingBlock: TEMPAE_clean_linker_10, # of connection points: 2
#     Edge 31, Type (0, 0), BuildingBlock: TEMPAE_clean_linker_10, # of connection points: 2
#     Edge 32, Type (0, 0), BuildingBlock: TEMPAE_clean_linker_10, # of connection points: 2
#     Edge 33, Type (0, 0), BuildingBlock: TEMPAE_clean_linker_10, # of connection points: 2
#     Edge 34, Type (0, 0), BuildingBlock: TEMPAE_clean_linker_10, # of connection points: 2
#     Edge 35, Type (0, 0), BuildingBlock: TEMPAE_clean_linker_10, # of connection points: 2
#     Edge 36, Type (0, 0), BuildingBlock: TEMPAE_clean_linker_10, # of connection points: 2
#     Edge 37, Type (0, 0), BuildingBlock: TEMPAE_clean_linker_10, # of connection points: 2
#     Edge 38, Type (0, 0), BuildingBlock: TEMPAE_clean_linker_10, # of connection points: 2
#     Edge 39, Type (0, 0), BuildingBlock: TEMPAE_clean_linker_10, # of connection points: 2
#     Edge 40, Type (0, 0), BuildingBlock: TEMPAE_clean_linker_10, # of connection points: 2
#     Edge 41, Type (0, 0), BuildingBlock: TEMPAE_clean_linker_10, # of connection points: 2
#     Edge 42, Type (0, 0), BuildingBlock: TEMPAE_clean_linker_10, # of connection points: 2
#     Edge 43, Type (0, 0), BuildingBlock: TEMPAE_clean_linker_10, # of connection points: 2
#     Edge 44, Type (0, 0), BuildingBlock: TEMPAE_clean_linker_10, # of connection points: 2
#     Edge 45, Type (0, 0), BuildingBlock: TEMPAE_clean_linker_10, # of connection points: 2
#     Edge 46, Type (0, 0), BuildingBlock: TEMPAE_clean_linker_10, # of connection points: 2
#     Edge 47, Type (0, 0), BuildingBlock: TEMPAE_clean_linker_10, # of connection points: 2
# Relax obj value: 0.097
# Max RMSD: 0.214
# Mean RMSD: 0.214
data_MOF--net-wjd--node1-KUMBOL_clean_sbu_0--edge1-TEMPAE_clean_linker_10
_symmetry_space_group_name_H-M    P1
_symmetry_Int_Tables_number       1
_symmetry_cell_setting            triclinic
loop_
_symmetry_equiv_pos_as_xyz
'x, y, z'
_cell_length_a     39.072054
_cell_length_b     39.075749
_cell_length_c     55.246758
_cell_angle_alpha  89.966521
_cell_angle_beta   90.081761
_cell_angle_gamma 119.89778
loop_
_atom_site_label
_atom_site_type_symbol
_atom_site_fract_x
_atom_site_fract_y
_atom_site_fract_z
_atom_type_partial_charge
Gd0 Gd 0.32281 0.09408 0.136 0.0
Gd1 Gd 0.37476 0.19165 0.10679 0.0
C2 C 0.31504 0.26433 0.0904 0.0
C3 C 0.30543 0.25649 0.04691 0.0
C4 C 0.3368 0.22513 0.06848 0.0
C5 C 0.33123 0.23911 0.09016 0.0
C6 C 0.32538 0.23495 0.04649 0.0
C7 C 0.30042 0.27134 0.06887 0.0
C8 C 0.31722 0.28448 0.11176 0.0
C9 C 0.33695 0.28078 0.13173 0.0
N10 N 0.34698 0.2329 0.11043 0.0
C11 C 0.35193 0.25496 0.13071 0.0
H12 H 0.36722 0.2529 0.14638 0.0
C13 C 0.37315 0.20107 0.04751 0.0
N14 N 0.35849 0.20684 0.06867 0.0
C15 C 0.36159 0.20907 0.02524 0.0
C16 C 0.33691 0.22538 0.02472 0.0
H17 H 0.39243 0.18863 0.0479 0.0
H18 H 0.2873 0.29009 0.06879 0.0
H19 H 0.36246 0.0546 0.09827 0.0
H20 H 0.30569 0.30457 0.1126 0.0
H21 H 0.34053 0.29768 0.148 0.0
H22 H 0.29598 0.26392 0.03024 0.0
H23 H 0.28257 0.08246 0.19075 0.0
H24 H 0.4278 0.01602 0.14107 0.0
H25 H 0.40597 0.02634 0.10106 0.0
H26 H 0.39252 0.0285 0.22229 0.0
H27 H 0.37197 0.20296 0.00854 0.0
H28 H 0.32866 0.23235 0.00745 0.0
H29 H 0.42366 0.01814 0.18642 0.0
H30 H 0.29281 0.06501 0.23217 0.0
N31 N 0.36067 0.06231 0.13641 0.0
C32 C 0.40888 0.02887 0.13998 0.0
C33 C 0.39638 0.03436 0.11739 0.0
C34 C 0.39525 0.03826 0.16093 0.0
C35 C 0.3705 0.05473 0.15849 0.0
C36 C 0.37153 0.05049 0.11594 0.0
N37 N 0.32761 0.07405 0.17525 0.0
C38 C 0.35323 0.06064 0.17859 0.0
C39 C 0.31025 0.06403 0.21727 0.0
C40 C 0.33859 0.05278 0.22124 0.0
C41 C 0.30463 0.07401 0.19388 0.0
C42 C 0.35993 0.05019 0.20175 0.0
H43 H 0.34305 0.045 0.23921 0.0
O44 O 0.25921 0.06192 0.14147 0.0
O45 O 0.31768 0.14383 0.12019 0.0
O46 O 0.37376 0.19599 0.14889 0.0
O47 O 0.35925 0.135 0.16554 0.0
O48 O 0.28724 0.11976 0.15182 0.0
O49 O 0.28662 0.03538 0.12082 0.0
O50 O 0.43235 0.22859 0.09025 0.0
O51 O 0.38119 0.14326 0.12317 0.0
O52 O 0.326 0.08779 0.09583 0.0
O53 O 0.33212 0.14508 0.07916 0.0
O54 O 0.40854 0.1653 0.09025 0.0
O55 O 0.42071 0.24359 0.12552 0.0
C56 C 0.2952 0.1464 0.13561 0.0
C57 C 0.38651 0.03613 0.20454 0.0
C58 C 0.40422 0.03023 0.18413 0.0
C59 C 0.25383 0.03071 0.12993 0.0
C60 C 0.22796 0.99285 0.14185 0.0
C61 C 0.24214 0.98055 0.16136 0.0
C62 C 0.18866 0.96903 0.13396 0.0
C63 C 0.16385 0.93273 0.14546 0.0
C64 C 0.21747 0.94512 0.17311 0.0
C65 C 0.17867 0.92139 0.16528 0.0
C66 C 0.37107 0.17293 0.16758 0.0
C67 C 0.40411 0.14151 0.10765 0.0
C68 C 0.44505 0.25511 0.10733 0.0
C69 C 0.46101 0.29667 0.09945 0.0
C70 C 0.44027 0.30515 0.08193 0.0
C71 C 0.49622 0.32812 0.10933 0.0
C72 C 0.50971 0.36753 0.10181 0.0
C73 C 0.45364 0.3437 0.07436 0.0
C74 C 0.48796 0.37459 0.08417 0.0
C75 C 0.32118 0.10689 0.07775 0.0
H76 H 0.27228 0.99825 0.16749 0.0
H77 H 0.17778 0.9783 0.11869 0.0
H78 H 0.22851 0.9359 0.18827 0.0
H79 H 0.16014 0.89397 0.17476 0.0
H80 H 0.41372 0.2819 0.07389 0.0
H81 H 0.51256 0.32207 0.12289 0.0
H82 H 0.43734 0.34965 0.06075 0.0
H83 H 0.49784 0.40426 0.07769 0.0
Gd84 Gd 0.84018 0.65139 0.40395 0.0
Gd85 Gd 0.79673 0.70879 0.38037 0.0
C86 C 0.67088 0.6412 0.35096 0.0
C87 C 0.68049 0.65941 0.30839 0.0
C88 C 0.7364 0.68634 0.33595 0.0
C89 C 0.7118 0.66527 0.35483 0.0
C90 C 0.72101 0.68439 0.31261 0.0
C91 C 0.65547 0.63777 0.32753 0.0
C92 C 0.64664 0.62191 0.37081 0.0
C93 C 0.66325 0.62784 0.39389 0.0
N94 N 0.7277 0.66949 0.3772 0.0
C95 C 0.70398 0.65225 0.39679 0.0
H96 H 0.71642 0.65575 0.4146 0.0
C97 C 0.80035 0.73451 0.32319 0.0
N98 N 0.77545 0.7098 0.34063 0.0
C99 C 0.78648 0.73358 0.29973 0.0
C100 C 0.7467 0.70817 0.29437 0.0
H101 H 0.83109 0.75435 0.32725 0.0
H102 H 0.62416 0.61911 0.32413 0.0
H103 H 0.8918 0.63898 0.35812 0.0
H104 H 0.61509 0.60294 0.36859 0.0
H105 H 0.64479 0.61331 0.40942 0.0
H106 H 0.66812 0.65714 0.2905 0.0
H107 H 0.84607 0.65524 0.46578 0.0
H108 H 1.01434 0.71141 0.37207 0.0
H109 H 0.96005 0.66726 0.34485 0.0
H110 H 0.01766 0.74635 0.45489 0.0
H111 H 0.80642 0.75251 0.28581 0.0
H112 H 0.73596 0.70777 0.27629 0.0
H113 H 0.03514 0.73869 0.41339 0.0
H114 H 0.89553 0.69044 0.49701 0.0
N115 N 0.90566 0.67408 0.39029 0.0
C116 C 0.98404 0.70094 0.37741 0.0
C117 C 0.95356 0.67627 0.36196 0.0
C118 C 0.975 0.70925 0.40033 0.0
C119 C 0.93505 0.69535 0.40641 0.0
C120 C 0.91452 0.66162 0.3692 0.0
N121 N 0.8863 0.68101 0.43605 0.0
C122 C 0.92507 0.6993 0.4299 0.0
C123 C 0.90428 0.69407 0.47818 0.0
C124 C 0.94389 0.71623 0.47191 0.0
C125 C 0.87607 0.67504 0.46011 0.0
C126 C 0.95487 0.71728 0.44774 0.0
H127 H 0.96591 0.72988 0.48603 0.0
O128 O 0.81366 0.60273 0.42973 0.0
O129 O 0.7834 0.65063 0.39695 0.0
O130 O 0.78498 0.70482 0.41967 0.0
O131 O 0.81819 0.67444 0.43578 0.0
O132 O 0.78943 0.60457 0.38314 0.0
O133 O 0.8529 0.603 0.40137 0.0
O134 O 0.82882 0.77309 0.37848 0.0
O135 O 0.85067 0.71113 0.39658 0.0
O136 O 0.8437 0.65549 0.36196 0.0
O137 O 0.79827 0.67392 0.34908 0.0
O138 O 0.85833 0.74301 0.36519 0.0
O139 O 0.77168 0.7429 0.39534 0.0
C140 C 0.76535 0.61768 0.38593 0.0
C141 C 0.99455 0.73268 0.44139 0.0
C142 C 1.00455 0.72853 0.41776 0.0
C143 C 0.83093 0.58485 0.41996 0.0
C144 C 0.82561 0.54676 0.42914 0.0
C145 C 0.80573 0.53217 0.45116 0.0
C146 C 0.84009 0.52484 0.41655 0.0
C147 C 0.83364 0.48831 0.42591 0.0
C148 C 0.80013 0.49672 0.46059 0.0
C149 C 0.81383 0.47499 0.44813 0.0
C150 C 0.79789 0.69338 0.43805 0.0
C151 C 0.87599 0.73409 0.38154 0.0
C152 C 0.80075 0.77677 0.38838 0.0
C153 C 0.79005 0.8035 0.37607 0.0
C154 C 0.76224 0.78934 0.35724 0.0
C155 C 0.80718 0.84328 0.38333 0.0
C156 C 0.79578 0.86835 0.37202 0.0
C157 C 0.75165 0.81435 0.34566 0.0
C158 C 0.76814 0.85352 0.35302 0.0
C159 C 0.82257 0.66052 0.34477 0.0
H160 H 0.79458 0.54831 0.46126 0.0
H161 H 0.85538 0.53555 0.39947 0.0
H162 H 0.78493 0.48594 0.47766 0.0
H163 H 0.80898 0.4475 0.45598 0.0
H164 H 0.74832 0.75885 0.35166 0.0
H165 H 0.82829 0.85428 0.3981 0.0
H166 H 0.7302 0.8032 0.33112 0.0
H167 H 0.75906 0.87231 0.34395 0.0
Gd168 Gd 0.93484 0.23357 0.13411 0.0
Gd169 Gd 0.83592 0.18779 0.10762 0.0
C170 C 0.75608 0.05692 0.0925 0.0
C171 C 0.75623 0.05433 0.04859 0.0
C172 C 0.79594 0.11664 0.06964 0.0
C173 C 0.78409 0.0975 0.09167 0.0
C174 C 0.78144 0.09539 0.04783 0.0
C175 C 0.74314 0.0352 0.07091 0.0
C176 C 0.7403 0.0398 0.11492 0.0
C177 C 0.75445 0.06217 0.13596 0.0
N178 N 0.79713 0.11916 0.11228 0.0
C179 C 0.78298 0.10198 0.13431 0.0
H180 H 0.79274 0.11888 0.15075 0.0
C181 C 0.82339 0.17727 0.04854 0.0
N182 N 0.81771 0.15659 0.0696 0.0
C183 C 0.81109 0.15752 0.02641 0.0
C184 C 0.79049 0.11632 0.02601 0.0
H185 H 0.8384 0.20916 0.04887 0.0
H186 H 0.72215 1.00383 0.07126 0.0
H187 H 0.9709 0.31216 0.09626 0.0
H188 H 0.71682 1.00939 0.11616 0.0
H189 H 0.74284 0.04895 0.15343 0.0
H190 H 0.74503 0.03745 0.03205 0.0
H191 H 0.94338 0.2025 0.18915 0.0
H192 H 0.01826 0.41666 0.13923 0.0
H193 H 1.00148 0.38409 0.09918 0.0
H194 H 1.01501 0.36913 0.21964 0.0
H195 H 0.81686 0.17406 0.00974 0.0
H196 H 0.78004 0.10104 0.00889 0.0
H197 H 0.02303 0.41077 0.18423 0.0
H198 H 0.96753 0.23067 0.22968 0.0
N199 N 0.96817 0.30305 0.13446 0.0
C200 C 1.00453 0.38483 0.1381 0.0
C201 C 0.99527 0.36659 0.11547 0.0
C202 C 0.99744 0.3619 0.15893 0.0
C203 C 0.97911 0.32055 0.15647 0.0
C204 C 0.97779 0.32554 0.11395 0.0
N205 N 0.95738 0.25763 0.17322 0.0
C206 C 0.9741 0.29718 0.17643 0.0
C207 C 0.96921 0.2496 0.21487 0.0
C208 C 0.98537 0.29009 0.21856 0.0
C209 C 0.95558 0.23378 0.19187 0.0
C210 C 0.98788 0.31442 0.1993 0.0
H211 H 0.99697 0.30261 0.23607 0.0
O212 O 0.96648 0.20132 0.13828 0.0
O213 O 0.88402 0.17798 0.11966 0.0
O214 O 0.83505 0.18772 0.14998 0.0
O215 O 0.89725 0.23631 0.1633 0.0
O216 O 0.90883 0.17332 0.15154 0.0
O217 O 0.99265 0.25543 0.11768 0.0
O218 O 0.79813 0.20941 0.09348 0.0
O219 O 0.88531 0.24306 0.1223 0.0
O220 O 0.93833 0.24247 0.09394 0.0
O221 O 0.88034 0.18994 0.07907 0.0
O222 O 0.8602 0.2473 0.09033 0.0
O223 O 0.78197 0.17568 0.12653 0.0
C224 C 0.88223 0.15382 0.13548 0.0
C225 C 1.00471 0.3554 0.20209 0.0
C226 C 1.00925 0.37909 0.18194 0.0
C227 C 0.99734 0.22704 0.12642 0.0
C228 C 0.0355 0.23816 0.13774 0.0
C229 C 0.05062 0.26674 0.15609 0.0
C230 C 0.05597 0.21843 0.13112 0.0
C231 C 0.09097 0.22677 0.14323 0.0
C232 C 0.08548 0.27521 0.16799 0.0
C233 C 0.10544 0.25521 0.16173 0.0
C234 C 0.85964 0.21107 0.1673 0.0
C235 C 0.88585 0.26721 0.10679 0.0
C236 C 0.77084 0.19165 0.10986 0.0
C237 C 0.7297 0.16738 0.1009 0.0
C238 C 0.72219 0.14276 0.08077 0.0
C239 C 0.69764 0.16815 0.11228 0.0
C240 C 0.65862 0.14358 0.10376 0.0
C241 C 0.68391 0.11839 0.07249 0.0
C242 C 0.65235 0.11866 0.08389 0.0
C243 C 0.91812 0.21768 0.07652 0.0
H244 H 0.03538 0.28227 0.16134 0.0
H245 H 0.0443 0.19613 0.11704 0.0
H246 H 0.09694 0.29718 0.18221 0.0
H247 H 0.13242 0.26211 0.17122 0.0
H248 H 0.7459 0.14263 0.07112 0.0
H249 H 0.70293 0.18741 0.12765 0.0
H250 H 0.67872 0.0995 0.05698 0.0
H251 H 0.6229 0.09993 0.07675 0.0
Gd252 Gd 0.37554 0.19131 0.4079 0.0
Gd253 Gd 0.32226 0.09329 0.38062 0.0
C254 C 0.38457 0.02718 0.35557 0.0
C255 C 0.37159 0.02131 0.31232 0.0
C256 C 0.34558 0.05342 0.33805 0.0
C257 C 0.36299 0.04709 0.35803 0.0
C258 C 0.34884 0.03974 0.31508 0.0
C259 C 0.38956 0.01518 0.33253 0.0
C260 C 0.39937 0.01879 0.37643 0.0
C261 C 0.39094 0.02858 0.39905 0.0
N262 N 0.35689 0.05836 0.38005 0.0
C263 C 0.369 0.04786 0.40056 0.0
H264 H 0.36281 0.05506 0.41823 0.0
C265 C 0.3029 0.07479 0.32253 0.0
N266 N 0.32385 0.07135 0.3413 0.0
C267 C 0.30508 0.06151 0.29943 0.0
C268 C 0.32824 0.04401 0.29571 0.0
H269 H 0.28473 0.08805 0.32519 0.0
H270 H 0.40633 1.00014 0.33025 0.0
H271 H 0.3481 0.23551 0.36649 0.0
H272 H 0.41628 1.00375 0.37531 0.0
H273 H 0.40142 0.02141 0.41536 0.0
H274 H 0.37479 1.01098 0.29473 0.0
H275 H 0.39485 0.18496 0.4663 0.0
H276 H 0.31292 0.30852 0.40364 0.0
H277 H 0.32604 0.28425 0.36542 0.0
H278 H 0.31927 0.28013 0.48712 0.0
H279 H 0.28873 0.06454 0.28455 0.0
H280 H 0.32922 0.0329 0.27803 0.0
H281 H 0.30583 0.30328 0.44877 0.0
H282 H 0.38314 0.20581 0.50618 0.0
N283 N 0.3457 0.23036 0.40492 0.0
C284 C 0.32087 0.28567 0.40416 0.0
C285 C 0.32883 0.27251 0.38259 0.0
C286 C 0.32448 0.27023 0.42622 0.0
C287 C 0.33802 0.24288 0.42606 0.0
C288 C 0.34132 0.24474 0.3833 0.0
N289 N 0.36389 0.20807 0.44671 0.0
C290 C 0.34642 0.23055 0.44762 0.0
C291 C 0.37233 0.21266 0.48989 0.0
C292 C 0.35262 0.23414 0.49123 0.0
C293 C 0.37874 0.20075 0.46732 0.0
C294 C 0.34039 0.24431 0.46992 0.0
H295 H 0.34842 0.24408 0.50871 0.0
O296 O 0.43616 0.22671 0.42053 0.0
O297 O 0.38126 0.14208 0.3926 0.0
O298 O 0.3268 0.08895 0.4209 0.0
O299 O 0.332 0.14683 0.43586 0.0
O300 O 0.40987 0.16552 0.42488 0.0
O301 O 0.41601 0.24785 0.39085 0.0
O302 O 0.25886 0.06172 0.37487 0.0
O303 O 0.31757 0.14407 0.39528 0.0
O304 O 0.37598 0.1932 0.3655 0.0
O305 O 0.36402 0.13156 0.35214 0.0
O306 O 0.2888 0.12001 0.36317 0.0
O307 O 0.2853 0.03661 0.39803 0.0
C308 C 0.40432 0.14043 0.40809 0.0
C309 C 0.32436 0.26945 0.47017 0.0
C310 C 0.31677 0.28269 0.44834 0.0
C311 C 0.44456 0.25633 0.40613 0.0
C312 C 0.46309 0.29608 0.41757 0.0
C313 C 0.44925 0.30056 0.44009 0.0
C314 C 0.49479 0.32968 0.40649 0.0
C315 C 0.51157 0.36718 0.41789 0.0
C316 C 0.4656 0.33721 0.4513 0.0
C317 C 0.49645 0.37019 0.44038 0.0
C318 C 0.32183 0.10896 0.43831 0.0
C319 C 0.29553 0.14628 0.37935 0.0
C320 C 0.2529 0.03167 0.38802 0.0
C321 C 0.2263 0.99284 0.37751 0.0
C322 C 0.23983 0.97679 0.35978 0.0
C323 C 0.18648 0.9722 0.38467 0.0
C324 C 0.1604 0.93569 0.37401 0.0
C325 C 0.21387 0.94046 0.34923 0.0
C326 C 0.17432 0.91996 0.35629 0.0
C327 C 0.37545 0.16901 0.34811 0.0
H328 H 0.42614 0.27565 0.44936 0.0
H329 H 0.50605 0.32673 0.38917 0.0
H330 H 0.45454 0.33997 0.46872 0.0
H331 H 0.50905 0.39817 0.44984 0.0
H332 H 0.27035 0.9923 0.35408 0.0
H333 H 0.17585 0.98446 0.39839 0.0
H334 H 0.22443 0.92815 0.33556 0.0
H335 H 0.15457 0.89167 0.34805 0.0
Gd336 Gd 0.79404 0.70628 0.13193 0.0
Gd337 Gd 0.84263 0.65555 0.10513 0.0
C338 C 0.97337 0.70785 0.0887 0.0
C339 C 0.97465 0.71068 0.04479 0.0
C340 C 0.91282 0.68746 0.0665 0.0
C341 C 0.93262 0.69482 0.08834 0.0
C342 C 0.93352 0.69454 0.04447 0.0
C343 C 0.99447 0.71685 0.06688 0.0
C344 C 0.99128 0.70936 0.11086 0.0
C345 C 0.96944 0.70062 0.13214 0.0
N346 N 0.91151 0.68587 0.10918 0.0
C347 C 0.92947 0.68898 0.13099 0.0
H348 H 0.91321 0.68156 0.14768 0.0
C349 C 0.85162 0.65458 0.04592 0.0
N350 N 0.87286 0.66903 0.06685 0.0
C351 C 0.87082 0.66227 0.0236 0.0
C352 C 0.91201 0.68281 0.02283 0.0
H353 H 0.81973 0.63796 0.0465 0.0
H354 H 0.02594 0.72753 0.06689 0.0
H355 H 0.71442 0.66164 0.09524 0.0
H356 H 0.02184 0.71659 0.11171 0.0
H357 H 0.98321 0.70214 0.14942 0.0
H358 H 0.9911 0.71657 0.02806 0.0
H359 H 0.8231 0.75113 0.18581 0.0
H360 H 0.61226 0.59681 0.13938 0.0
H361 H 0.64305 0.61628 0.09891 0.0
H362 H 0.66155 0.63967 0.2197 0.0
H363 H 0.85386 0.6518 1.00705 0.0
H364 H 0.92685 0.68787 1.00555 0.0
H365 H 0.61964 0.60479 0.18459 0.0
H366 H 0.79658 0.74303 0.22729 0.0
N367 N 0.72481 0.66661 0.13331 0.0
C368 C 0.6438 0.6165 0.13789 0.0
C369 C 0.66102 0.62766 0.11503 0.0
C370 C 0.66722 0.63242 0.15854 0.0
C371 C 0.70808 0.65806 0.15557 0.0
C372 C 0.70167 0.6535 0.11306 0.0
N373 N 0.77007 0.70391 0.17127 0.0
C374 C 0.73148 0.67754 0.17524 0.0
C375 C 0.77805 0.72419 0.21284 0.0
C376 C 0.739 0.69533 0.2175 0.0
C377 C 0.793 0.72861 0.18936 0.0
C378 C 0.71494 0.67209 0.19851 0.0
H379 H 0.72729 0.692 0.2356 0.0
O380 O 0.82421 0.77031 0.13472 0.0
O381 O 0.85023 0.71249 0.1175 0.0
O382 O 0.84534 0.65617 0.14699 0.0
O383 O 0.79931 0.67219 0.16257 0.0
O384 O 0.85443 0.74393 0.14846 0.0
O385 O 0.769 0.73962 0.11555 0.0
O386 O 0.82224 0.59662 0.0907 0.0
O387 O 0.78665 0.64774 0.12051 0.0
O388 O 0.78469 0.69931 0.0917 0.0
O389 O 0.84032 0.69884 0.07763 0.0
O390 O 0.783 0.61935 0.08821 0.0
O391 O 0.85474 0.61382 0.12426 0.0
C392 C 0.87425 0.73635 0.13289 0.0
C393 C 0.67473 0.64472 0.20188 0.0
C394 C 0.65089 0.62485 0.1819 0.0
C395 C 0.7967 0.77355 0.12362 0.0
C396 C 0.78401 0.79888 0.13565 0.0
C397 C 0.75616 0.78353 0.15436 0.0
C398 C 0.80055 0.83888 0.12899 0.0
C399 C 0.78866 0.86315 0.14086 0.0
C400 C 0.74504 0.80765 0.1665 0.0
C401 C 0.76111 0.84711 0.15986 0.0
C402 C 0.82499 0.65991 0.16515 0.0
C403 C 0.76273 0.62362 0.10508 0.0
C404 C 0.83935 0.58688 0.10748 0.0
C405 C 0.86393 0.56999 0.09909 0.0
C406 C 0.89086 0.58851 0.08018 0.0
C407 C 0.86117 0.53576 0.10983 0.0
C408 C 0.88611 0.52133 0.10192 0.0
C409 C 0.91549 0.57451 0.07247 0.0
C410 C 0.91329 0.54132 0.08326 0.0
C411 C 0.81075 0.70619 0.07466 0.0
H412 H 0.74296 0.7529 0.15959 0.0
H413 H 0.82188 0.85076 0.11439 0.0
H414 H 0.72373 0.79567 0.18105 0.0
H415 H 0.75187 0.86518 0.1696 0.0
H416 H 0.89265 0.61362 0.0711 0.0
H417 H 0.84018 0.52077 0.12427 0.0
H418 H 0.93619 0.58931 0.05789 0.0
H419 H 0.93241 0.53069 0.07664 0.0
Gd420 Gd 0.83993 0.19009 0.40845 0.0
Gd421 Gd 0.93699 0.2374 0.37934 0.0
C422 C 0.9865 0.36229 0.35032 0.0
C423 C 0.98932 0.35251 0.3071 0.0
C424 C 0.96746 0.29726 0.33482 0.0
C425 C 0.97205 0.32169 0.3541 0.0
C426 C 0.97729 0.31262 0.31124 0.0
C427 C 0.99383 0.37731 0.32662 0.0
C428 C 0.99474 0.38682 0.3705 0.0
C429 C 0.99074 0.37104 0.39368 0.0
N430 N 0.96537 0.30632 0.37673 0.0
C431 C 0.97678 0.33063 0.39646 0.0
H432 H 0.97385 0.31895 0.4145 0.0
C433 C 0.95707 0.23517 0.32164 0.0
N434 N 0.95575 0.25886 0.33939 0.0
C435 C 0.96659 0.24907 0.29792 0.0
C436 C 0.9761 0.28778 0.29269 0.0
H437 H 0.95013 0.20536 0.32569 0.0
H438 H 1.00442 0.40833 0.3233 0.0
H439 H 0.79267 0.11809 0.36727 0.0
H440 H 1.00565 0.41814 0.36838 0.0
H441 H 0.99821 0.38991 0.40943 0.0
H442 H 0.99644 0.36472 0.28899 0.0
H443 H 0.84658 0.2149 0.46674 0.0
H444 H 0.72262 1.01047 0.40509 0.0
H445 H 0.74391 0.04782 0.36678 0.0
H446 H 0.75825 0.04427 0.4879 0.0
H447 H 0.96666 0.23003 0.28372 0.0
H448 H 0.98357 0.29867 0.27447 0.0
H449 H 0.73261 1.00795 0.44972 0.0
H450 H 0.82867 0.18233 0.50672 0.0
N451 N 0.80156 0.12101 0.40554 0.0
C452 C 0.74575 0.04112 0.40533 0.0
C453 C 0.75721 0.06223 0.38373 0.0
C454 C 0.7636 0.05979 0.42705 0.0
C455 C 0.79101 0.10058 0.42667 0.0
C456 C 0.78519 0.10232 0.38416 0.0
N457 N 0.82486 0.16114 0.44715 0.0
C458 C 0.80422 0.1212 0.44815 0.0
C459 C 0.8218 0.16475 0.49042 0.0
C460 C 0.80226 0.12365 0.49184 0.0
C461 C 0.83195 0.18308 0.46777 0.0
C462 C 0.792 0.10132 0.47054 0.0
H463 H 0.79358 0.10946 0.50938 0.0
O464 O 0.80172 0.21047 0.42357 0.0
O465 O 0.88702 0.24619 0.39215 0.0
O466 O 0.94091 0.24856 0.41926 0.0
O467 O 0.88727 0.19361 0.43548 0.0
O468 O 0.86423 0.24947 0.42539 0.0
O469 O 0.78572 0.17823 0.38995 0.0
O470 O 0.96991 0.20581 0.38075 0.0
O471 O 0.88824 0.18199 0.39493 0.0
O472 O 0.835 0.18616 0.36639 0.0
O473 O 0.89626 0.22993 0.34908 0.0
O474 O 0.91329 0.17629 0.3634 0.0
O475 O 0.99868 0.26723 0.39022 0.0
C476 C 0.88751 0.26991 0.4081 0.0
C477 C 0.76769 0.06012 0.4709 0.0
C478 C 0.75306 0.03945 0.44917 0.0
C479 C 0.77464 0.19373 0.40693 0.0
C480 C 0.73334 0.16952 0.41547 0.0
C481 C 0.7244 0.14067 0.43326 0.0
C482 C 0.70249 0.17455 0.40591 0.0
C483 C 0.66325 0.1502 0.41398 0.0
C484 C 0.68576 0.11659 0.44111 0.0
C485 C 0.65535 0.12119 0.4315 0.0
C486 C 0.92478 0.22268 0.43682 0.0
C487 C 0.88683 0.15727 0.37966 0.0
C488 C 1.00295 0.23665 0.38678 0.0
C489 C 0.03796 0.24319 0.37307 0.0
C490 C 0.04801 0.26491 0.35147 0.0
C491 C 0.06176 0.22794 0.38159 0.0
C492 C 0.09574 0.23508 0.36862 0.0
C493 C 0.0809 0.271 0.33828 0.0
C494 C 0.10464 0.25631 0.34676 0.0
C495 C 0.85807 0.20504 0.34746 0.0
H496 H 0.7473 0.13684 0.44129 0.0
H497 H 0.70886 0.19692 0.3923 0.0
H498 H 0.6794 0.09438 0.4548 0.0
H499 H 0.62552 0.10232 0.43799 0.0
H500 H 0.03072 0.27757 0.34489 0.0
H501 H 0.05451 0.21164 0.39847 0.0
H502 H 0.0883 0.28761 0.32155 0.0
H503 H 0.13032 0.26181 0.33629 0.0
Gd504 Gd 0.19785 0.36827 0.60873 0.0
Gd505 Gd 0.0988 0.31555 0.63465 0.0
C506 C 0.0343 0.37907 0.66059 0.0
C507 C 0.02743 0.36446 0.70364 0.0
C508 C 0.05855 0.33799 0.67746 0.0
C509 C 0.05311 0.35651 0.65776 0.0
C510 C 0.04493 0.34092 0.7005 0.0
C511 C 0.0223 0.38368 0.68372 0.0
C512 C 0.0272 0.39547 0.64 0.0
C513 C 0.0373 0.38781 0.61725 0.0
N514 N 0.06452 0.3509 0.63566 0.0
C515 C 0.05534 0.36474 0.61536 0.0
H516 H 0.06288 0.35932 0.59759 0.0
C517 C 0.07881 0.29411 0.69236 0.0
N518 N 0.07593 0.31583 0.67388 0.0
C519 C 0.06549 0.29586 0.71553 0.0
C520 C 0.04856 0.31945 0.71959 0.0
H521 H 0.09181 0.27575 0.68944 0.0
H522 H 1.00814 0.40121 0.68629 0.0
H523 H 0.24023 0.34048 0.65127 0.0
H524 H 1.01305 0.41319 0.64142 0.0
H525 H 0.03132 0.39975 0.60115 0.0
H526 H 1.0172 0.36747 0.7213 0.0
H527 H 0.19286 0.38664 0.55006 0.0
H528 H 0.31756 0.30936 0.61581 0.0
H529 H 0.29057 0.32067 0.65343 0.0
H530 H 0.29002 0.3125 0.5318 0.0
H531 H 0.0682 0.27899 0.7302 0.0
H532 H 0.03759 0.32027 0.73734 0.0
H533 H 0.31325 0.30101 0.57072 0.0
H534 H 0.21498 0.3747 0.51069 0.0
N535 N 0.23651 0.33814 0.61276 0.0
C536 C 0.29399 0.31628 0.61478 0.0
C537 C 0.27921 0.32312 0.63603 0.0
C538 C 0.27844 0.31855 0.59243 0.0
C539 C 0.24997 0.33063 0.59194 0.0
C540 C 0.25043 0.3342 0.63468 0.0
N541 N 0.21553 0.35598 0.57038 0.0
C542 C 0.23803 0.33851 0.57007 0.0
C543 C 0.22138 0.36406 0.52721 0.0
C544 C 0.24306 0.34451 0.52646 0.0
C545 C 0.2088 0.37063 0.54949 0.0
C546 C 0.25273 0.33262 0.54809 0.0
H547 H 0.25367 0.34035 0.50922 0.0
O548 O 0.23515 0.42809 0.59541 0.0
O549 O 0.14864 0.37493 0.62349 0.0
O550 O 0.09664 0.32355 0.59467 0.0
O551 O 0.15325 0.32524 0.58057 0.0
O552 O 0.17424 0.40397 0.59147 0.0
O553 O 0.25269 0.40892 0.62735 0.0
O554 O 0.06501 0.25212 0.64035 0.0
O555 O 0.14948 0.31078 0.62027 0.0
O556 O 0.19844 0.36829 0.65101 0.0
O557 O 0.13646 0.35611 0.66374 0.0
O558 O 0.12428 0.28002 0.65145 0.0
O559 O 0.0442 0.27962 0.61487 0.0
C560 C 0.14875 0.39886 0.60788 0.0
C561 C 0.27859 0.31745 0.54848 0.0
C562 C 0.29188 0.31098 0.57063 0.0
C563 C 0.2631 0.43676 0.61126 0.0
C564 C 0.30386 0.45419 0.6016 0.0
C565 C 0.31047 0.43909 0.58019 0.0
C566 C 0.33639 0.48591 0.61342 0.0
C567 C 0.37503 0.50139 0.60398 0.0
C568 C 0.34835 0.45406 0.57095 0.0
C569 C 0.38036 0.48487 0.5827 0.0
C570 C 0.1164 0.31798 0.57742 0.0
C571 C 0.15112 0.28774 0.63554 0.0
C572 C 0.0368 0.24696 0.62568 0.0
C573 C 0.99658 0.22214 0.63493 0.0
C574 C 0.98001 0.23837 0.65041 0.0
C575 C 0.97468 0.1819 0.62853 0.0
C576 C 0.93595 0.1583 0.63725 0.0
C577 C 0.94195 0.21494 0.65937 0.0
C578 C 0.92002 0.17527 0.65283 0.0
C579 C 0.17385 0.36769 0.66808 0.0
H580 H 0.28634 0.41606 0.57027 0.0
H581 H 0.33173 0.49826 0.62981 0.0
H582 H 0.35285 0.44201 0.5544 0.0
H583 H 0.40941 0.49647 0.57476 0.0
H584 H 0.99644 0.26915 0.6555 0.0
H585 H 0.98735 0.16931 0.61647 0.0
H586 H 0.92932 0.22762 0.67134 0.0
H587 H 0.89043 0.15772 0.66 0.0
Gd588 Gd 0.24132 0.93189 0.88099 0.0
Gd589 Gd 0.19181 0.83167 0.90604 0.0
C590 C 0.05989 0.75229 0.91888 0.0
C591 C 0.05668 0.74585 0.96267 0.0
C592 C 0.11952 0.78791 0.94277 0.0
C593 C 0.10092 0.77857 0.92047 0.0
C594 C 0.0977 0.77109 0.9641 0.0
C595 C 0.03785 0.73633 0.9401 0.0
C596 C 0.0423 0.7422 0.896 0.0
C597 C 0.06559 0.75776 0.87542 0.0
N598 N 0.12308 0.79423 0.90026 0.0
C599 C 0.10597 0.78398 0.87786 0.0
H600 H 0.12302 0.79552 0.8616 0.0
C601 C 0.17952 0.81606 0.96467 0.0
N602 N 0.15937 0.81085 0.94345 0.0
C603 C 0.15914 0.80093 0.98636 0.0
C604 C 0.11798 0.77865 0.98612 0.0
H605 H 0.21145 0.83239 0.96481 0.0
H606 H 1.00629 0.71627 0.93921 0.0
H607 H 0.32039 0.96569 0.91815 0.0
H608 H 1.01091 0.72201 0.89402 0.0
H609 H 0.05252 0.74943 0.85758 0.0
H610 H 0.03942 0.73275 0.97886 0.0
H611 H 0.21347 0.95053 0.82747 0.0
H612 H 0.42336 1.00431 0.87456 0.0
H613 H 0.39183 0.99177 0.91486 0.0
H614 H 0.37544 1.00082 0.79411 0.0
H615 H 0.1752 0.80591 1.00317 0.0
H616 H 0.10226 0.76629 1.00289 0.0
H617 H 0.41678 1.00655 0.82933 0.0
H618 H 0.24044 0.9698 0.78616 0.0
N619 N 0.31068 0.96168 0.88001 0.0
C620 C 0.3918 0.99256 0.87588 0.0
C621 C 0.37416 0.98579 0.89864 0.0
C622 C 0.36877 0.98591 0.85512 0.0
C623 C 0.32787 0.97077 0.85789 0.0
C624 C 0.33345 0.97093 0.9004 0.0
N625 N 0.26634 0.95589 0.84211 0.0
C626 C 0.3049 0.96789 0.83822 0.0
C627 C 0.25886 0.96921 0.80062 0.0
C628 C 0.29791 0.97924 0.79601 0.0
C629 C 0.24368 0.95829 0.82404 0.0
C630 C 0.32175 0.97954 0.81505 0.0
H631 H 0.3097 0.98787 0.77792 0.0
O632 O 0.21306 0.96745 0.87704 0.0
O633 O 0.18454 0.88214 0.89513 0.0
O634 O 0.19132 0.8311 0.8641 0.0
O635 O 0.23618 0.89412 0.84946 0.0
O636 O 0.18156 0.91037 0.86433 0.0
O637 O 0.26369 0.98731 0.90044 0.0
O638 O 0.21511 0.79481 0.91919 0.0
O639 O 0.24797 0.87998 0.89117 0.0
O640 O 0.25023 0.93258 0.92128 0.0
O641 O 0.19485 0.87589 0.935 0.0
O642 O 0.25115 0.85443 0.92335 0.0
O643 O 0.17756 0.77661 0.88764 0.0
C644 C 0.16094 0.88321 0.87981 0.0
C645 C 0.36199 0.99222 0.81184 0.0
C646 C 0.3855 0.99544 0.83188 0.0
C647 C 0.23819 0.9956 0.89089 0.0
C648 C 0.25363 0.03566 0.88146 0.0
C649 C 0.28655 0.05227 0.8661 0.0
C650 C 0.23511 0.05741 0.88769 0.0
C651 C 0.25022 0.09613 0.87907 0.0
C652 C 0.30131 0.09051 0.85731 0.0
C653 C 0.28346 0.11243 0.86383 0.0
C654 C 0.21135 0.85617 0.84627 0.0
C655 C 0.27161 0.87928 0.90665 0.0
C656 C 0.19635 0.76695 0.90326 0.0
C657 C 0.17516 0.72592 0.91272 0.0
C658 C 0.15128 0.71714 0.93333 0.0
C659 C 0.17962 0.69551 0.90192 0.0
C660 C 0.16023 0.65706 0.91193 0.0
C661 C 0.13175 0.67917 0.94294 0.0
C662 C 0.13621 0.64934 0.93237 0.0
C663 C 0.22441 0.9127 0.93832 0.0
H664 H 0.30091 0.03575 0.86101 0.0
H665 H 0.20964 0.04462 0.89957 0.0
H666 H 0.32679 0.1033 0.84551 0.0
H667 H 0.29555 0.1422 0.85692 0.0
H668 H 0.14819 0.73971 0.94239 0.0
H669 H 0.19842 0.70179 0.88621 0.0
H670 H 0.11347 0.67299 0.95886 0.0
H671 H 0.12117 0.62009 0.94032 0.0
Gd672 Gd 0.661 0.83339 0.60699 0.0
Gd673 Gd 0.71207 0.78823 0.6375 0.0
C674 C 0.64352 0.66529 0.67088 0.0
C675 C 0.66064 0.67897 0.71346 0.0
C676 C 0.68868 0.73208 0.68393 0.0
C677 C 0.66776 0.70577 0.66568 0.0
C678 C 0.68649 0.71882 0.70788 0.0
C679 C 0.63906 0.65225 0.69497 0.0
C680 C 0.62584 0.63896 0.65164 0.0
C681 C 0.63409 0.65297 0.62792 0.0
N682 N 0.6735 0.71932 0.64261 0.0
C683 C 0.65877 0.69333 0.6237 0.0
H684 H 0.66472 0.7034 0.60523 0.0
C685 C 0.73947 0.79608 0.6945 0.0
N686 N 0.71344 0.77029 0.6779 0.0
C687 C 0.73848 0.78435 0.7185 0.0
C688 C 0.71153 0.74569 0.72527 0.0
H689 H 0.76088 0.82584 0.68938 0.0
H690 H 0.62016 0.62134 0.69937 0.0
H691 H 0.68792 0.90804 0.64615 0.0
H692 H 0.60696 0.60765 0.65488 0.0
H693 H 0.62138 0.63276 0.61286 0.0
H694 H 0.65807 0.66832 0.73185 0.0
H695 H 0.64143 0.80408 0.54932 0.0
H696 H 0.7231 0.01287 0.60543 0.0
H697 H 0.70923 0.97845 0.64478 0.0
H698 H 0.72149 0.97306 0.5236 0.0
H699 H 0.75866 0.80503 0.73171 0.0
H700 H 0.71124 0.73662 0.74375 0.0
H701 H 0.73362 0.01212 0.56076 0.0
H702 H 0.65443 0.83379 0.50849 0.0
N703 N 0.69209 0.90251 0.60799 0.0
C704 C 0.71569 0.98224 0.60604 0.0
C705 C 0.70731 0.9628 0.62822 0.0
C706 C 0.71389 0.96198 0.58482 0.0
C707 C 0.70072 0.92127 0.5863 0.0
C708 C 0.69537 0.92272 0.62887 0.0
N709 N 0.67381 0.85925 0.56747 0.0
C710 C 0.6925 0.89908 0.5654 0.0
C711 C 0.66559 0.85251 0.52431 0.0
C712 C 0.68658 0.8935 0.52181 0.0
C713 C 0.65841 0.83582 0.54742 0.0
C714 C 0.69917 0.91733 0.5425 0.0
H715 H 0.69128 0.90642 0.50391 0.0
O716 O 0.6013 0.81077 0.59318 0.0
O717 O 0.65273 0.77886 0.6252 0.0
O718 O 0.701 0.77237 0.59846 0.0
O719 O 0.70249 0.82583 0.57992 0.0
O720 O 0.62414 0.7728 0.59233 0.0
O721 O 0.62082 0.85015 0.62378 0.0
O722 O 0.77646 0.81989 0.63738 0.0
O723 O 0.71801 0.84254 0.62016 0.0
O724 O 0.6609 0.83907 0.64904 0.0
O725 O 0.67803 0.79535 0.66719 0.0
O726 O 0.74898 0.85044 0.65187 0.0
O727 O 0.74462 0.76075 0.62353 0.0
C728 C 0.62816 0.75392 0.6102 0.0
C729 C 0.71581 0.95845 0.54102 0.0
C730 C 0.72266 0.98068 0.56216 0.0
C731 C 0.59283 0.83155 0.60793 0.0
C732 C 0.57549 0.85419 0.59687 0.0
C733 C 0.59107 0.87435 0.57505 0.0
C734 C 0.54333 0.85574 0.60765 0.0
C735 C 0.5277 0.87791 0.59667 0.0
C736 C 0.5758 0.896 0.5642 0.0
C737 C 0.54445 0.89775 0.57482 0.0
C738 C 0.70948 0.79566 0.57966 0.0
C739 C 0.74133 0.86829 0.63495 0.0
C740 C 0.77916 0.79043 0.62886 0.0
C741 C 0.80658 0.78124 0.64175 0.0
C742 C 0.79365 0.75687 0.66226 0.0
C743 C 0.84594 0.79703 0.63382 0.0
C744 C 0.87186 0.78777 0.64622 0.0
C745 C 0.81944 0.7485 0.67489 0.0
C746 C 0.85819 0.76374 0.66697 0.0
C747 C 0.66495 0.82053 0.66828 0.0
H748 H 0.61474 0.87298 0.56608 0.0
H749 H 0.53084 0.84014 0.62443 0.0
H750 H 0.5881 0.91121 0.54731 0.0
H751 H 0.53277 0.91421 0.56559 0.0
H752 H 0.76355 0.7441 0.66846 0.0
H753 H 0.85599 0.81555 0.61782 0.0
H754 H 0.80927 0.72983 0.69077 0.0
H755 H 0.87757 0.75654 0.67707 0.0
Gd756 Gd 0.09905 0.31394 0.8793 0.0
Gd757 Gd 0.19607 0.36963 0.90862 0.0
C758 C 0.27291 0.31667 0.92895 0.0
C759 C 0.26811 0.31364 0.97279 0.0
C760 C 0.23202 0.33803 0.94926 0.0
C761 C 0.24554 0.33015 0.92804 0.0
C762 C 0.244 0.3308 0.9719 0.0
C763 C 0.28302 0.30712 0.95134 0.0
C764 C 0.29126 0.31556 0.9075 0.0
C765 C 0.28084 0.32576 0.88569 0.0
N766 N 0.23568 0.34011 0.90666 0.0
C767 C 0.25314 0.33835 0.88562 0.0
H768 H 0.24649 0.34716 0.86861 0.0
C769 C 0.20487 0.37347 0.96807 0.0
N770 N 0.2116 0.3576 0.94776 0.0
C771 C 0.21471 0.36568 0.99094 0.0
C772 C 0.23381 0.34367 0.9929 0.0
H773 H 0.1906 0.39102 0.96656 0.0
H774 H 0.30342 0.29597 0.95231 0.0
H775 H 0.05599 0.34919 0.9177 0.0
H776 H 0.31438 0.30799 0.90771 0.0
H777 H 0.29478 0.32479 0.86899 0.0
H778 H 0.2773 0.3075 0.98999 0.0
H779 H 0.09101 0.27665 0.82399 0.0
H780 H 1.00942 0.40829 0.87585 0.0
H781 H 0.02208 0.38741 0.91552 0.0
H782 H 0.02469 0.37702 0.79422 0.0
H783 H 0.20808 0.37714 1.007 0.0
H784 H 0.24234 0.33853 0.01061 0.0
H785 H 1.01124 0.40492 0.83052 0.0
H786 H 0.0719 0.28591 0.78282 0.0
N787 N 0.06389 0.34857 0.87947 0.0
C788 C 0.02448 0.39136 0.87664 0.0
C789 C 0.03138 0.37947 0.89903 0.0
C790 C 0.03546 0.37969 0.85549 0.0
C791 C 0.05504 0.35771 0.85755 0.0
C792 C 0.05084 0.35765 0.90013 0.0
N793 N 0.07865 0.31869 0.84012 0.0
C794 C 0.06258 0.34216 0.83719 0.0
C795 C 0.06948 0.30217 0.79794 0.0
C796 C 0.05524 0.32825 0.79441 0.0
C797 C 0.08042 0.29714 0.82118 0.0
C798 C 0.05081 0.34796 0.81418 0.0
H799 H 0.04651 0.33208 0.77656 0.0
O800 O 0.06888 0.25106 0.87162 0.0
O801 O 0.14972 0.31129 0.89591 0.0
O802 O 0.20077 0.36925 0.86669 0.0
O803 O 0.13916 0.35198 0.84997 0.0
O804 O 0.12761 0.28066 0.86391 0.0
O805 O 0.04164 0.27445 0.89524 0.0
O806 O 0.23325 0.42894 0.92303 0.0
O807 O 0.14675 0.37348 0.89157 0.0
O808 O 0.09187 0.31627 0.91949 0.0
O809 O 0.15101 0.32753 0.9366 0.0
O810 O 0.16825 0.40335 0.92363 0.0
O811 O 0.24975 0.41216 0.88986 0.0
C812 C 0.15335 0.2891 0.8808 0.0
C813 C 0.03352 0.37183 0.81182 0.0
C814 C 0.02588 0.38772 0.83247 0.0
C815 C 0.03779 0.24324 0.88423 0.0
C816 C 0.99983 0.21775 0.87227 0.0
C817 C 0.98768 0.23238 0.85292 0.0
C818 C 0.97599 0.17825 0.87972 0.0
C819 C 0.93992 0.15371 0.86788 0.0
C820 C 0.9526 0.20794 0.84077 0.0
C821 C 0.92891 0.16891 0.84811 0.0
C822 C 0.17739 0.36543 0.84801 0.0
C823 C 0.14375 0.39672 0.90624 0.0
C824 C 0.26067 0.43894 0.90667 0.0
C825 C 0.30184 0.45552 0.9156 0.0
C826 C 0.30946 0.43664 0.93472 0.0
C827 C 0.3339 0.48929 0.90493 0.0
C828 C 0.373 0.50291 0.91317 0.0
C829 C 0.34777 0.44983 0.94276 0.0
C830 C 0.37928 0.48258 0.93208 0.0
C831 C 0.11261 0.31532 0.93796 0.0
H832 H 1.00525 0.26267 0.84718 0.0
H833 H 0.98508 0.167 0.89488 0.0
H834 H 0.9436 0.21933 0.82567 0.0
H835 H 0.90172 0.15055 0.83834 0.0
H836 H 0.28579 0.41178 0.94367 0.0
H837 H 0.32857 0.50446 0.89026 0.0
H838 H 0.35301 0.43472 0.95748 0.0
H839 H 0.40875 0.49255 0.93897 0.0
Gd840 Gd 0.19319 0.83023 0.60671 0.0
Gd841 Gd 0.24157 0.92989 0.63189 0.0
C842 C 0.37086 0.99335 0.65507 0.0
C843 C 0.36593 1.00053 0.69842 0.0
C844 C 0.30683 0.97008 0.67346 0.0
C845 C 0.32943 0.975 0.65317 0.0
C846 C 0.32483 0.98355 0.69624 0.0
C847 C 0.3889 1.00533 0.67787 0.0
C848 C 0.39296 0.99993 0.63393 0.0
C849 C 0.37379 0.98955 0.61158 0.0
N850 N 0.31105 0.96337 0.63142 0.0
C851 C 0.33267 0.97182 0.61062 0.0
H852 H 0.31854 0.96394 0.59315 0.0
C853 C 0.244 0.95136 0.6898 0.0
N854 N 0.26721 0.95332 0.67073 0.0
C855 C 0.26053 0.96449 0.71273 0.0
C856 C 0.30107 0.98025 0.71603 0.0
H857 H 0.21263 0.93909 0.68753 0.0
H858 H 0.42066 0.01914 0.67972 0.0
H859 H 0.12494 0.78938 0.65034 0.0
H860 H 0.42483 0.01382 0.63463 0.0
H861 H 0.39063 0.99504 0.59507 0.0
H862 H 0.38029 1.01069 0.71582 0.0
H863 H 0.21367 0.83331 0.54766 0.0
H864 H 1.01469 0.7126 0.61666 0.0
H865 H 0.0549 0.73988 0.65364 0.0
H866 H 0.0417 0.73738 0.53218 0.0
H867 H 0.24201 0.96239 0.72785 0.0
H868 H 0.31381 0.99035 0.73381 0.0
H869 H 1.00865 0.71588 0.57165 0.0
H870 H 0.1778 0.81039 0.50888 0.0
N871 N 0.12465 0.79205 0.61181 0.0
C872 C 0.04517 0.73583 0.61513 0.0
C873 C 0.06789 0.7507 0.63601 0.0
C874 C 0.06208 0.75047 0.5925 0.0
C875 C 0.10272 0.77822 0.59135 0.0
C876 C 0.10774 0.77896 0.63402 0.0
N877 N 0.16144 0.81168 0.56885 0.0
C878 C 0.12152 0.78939 0.56918 0.0
C879 C 0.16157 0.80458 0.52566 0.0
C880 C 0.12039 0.78323 0.52558 0.0
C881 C 0.18176 0.81764 0.54762 0.0
C882 C 0.09988 0.77434 0.54754 0.0
H883 H 0.1048 0.77231 0.50859 0.0
O884 O 0.21545 0.79252 0.5935 0.0
O885 O 0.25004 0.87941 0.62046 0.0
O886 O 0.24874 0.93169 0.59155 0.0
O887 O 0.19378 0.87419 0.57835 0.0
O888 O 0.25137 0.85316 0.58826 0.0
O889 O 0.17882 0.77523 0.62532 0.0
O890 O 0.21216 0.96384 0.63805 0.0
O891 O 0.18488 0.87921 0.61864 0.0
O892 O 0.19427 0.83088 0.64898 0.0
O893 O 0.24555 0.89253 0.66086 0.0
O894 O 0.18206 0.9057 0.6501 0.0
O895 O 0.26047 0.98502 0.61266 0.0
C896 C 0.27287 0.87877 0.60434 0.0
C897 C 0.05885 0.74904 0.5486 0.0
C898 C 0.04005 0.73675 0.57105 0.0
C899 C 0.19608 0.76457 0.60927 0.0
C900 C 0.17256 0.72382 0.59947 0.0
C901 C 0.15119 0.71769 0.57794 0.0
C902 C 0.17136 0.69089 0.61113 0.0
C903 C 0.14819 0.6524 0.60137 0.0
C904 C 0.12837 0.68005 0.56837 0.0
C905 C 0.12683 0.64771 0.57992 0.0
C906 C 0.22243 0.91136 0.57484 0.0
C907 C 0.16151 0.87858 0.6346 0.0
C908 C 0.23523 0.99232 0.6236 0.0
C909 C 0.25057 0.03227 0.6333 0.0
C910 C 0.28261 0.04793 0.64936 0.0
C911 C 0.23261 0.05462 0.62698 0.0
C912 C 0.24722 0.09284 0.6365 0.0
C913 C 0.2967 0.08542 0.65913 0.0
C914 C 0.27921 0.10773 0.6528 0.0
C915 C 0.21917 0.85556 0.66569 0.0
H916 H 0.15255 0.74205 0.56813 0.0
H917 H 0.18806 0.69512 0.62762 0.0
H918 H 0.11215 0.67598 0.55171 0.0
H919 H 0.10948 0.61888 0.57168 0.0
H920 H 0.29672 0.03118 0.65435 0.0
H921 H 0.20796 0.04263 0.61444 0.0
H922 H 0.32134 0.09729 0.67162 0.0
H923 H 0.29074 0.1368 0.66071 0.0
Gd924 Gd 0.71047 0.78498 0.8804 0.0
Gd925 Gd 0.66024 0.83433 0.90672 0.0
C926 C 0.71369 0.96547 0.92224 0.0
C927 C 0.71616 0.96762 0.96616 0.0
C928 C 0.69248 0.90528 0.94493 0.0
C929 C 0.70028 0.92467 0.92296 0.0
C930 C 0.69952 0.92644 0.9668 0.0
C931 C 0.72274 0.98704 0.9439 0.0
C932 C 0.71543 0.98294 0.89988 0.0
C933 C 0.70663 0.9606 0.87878 0.0
N934 N 0.69122 0.90309 0.90229 0.0
C935 C 0.69463 0.92058 0.88031 0.0
H936 H 0.68719 0.90377 0.86383 0.0
C937 C 0.65817 0.84454 0.9658 0.0
N938 N 0.67343 0.86529 0.94482 0.0
C939 C 0.6659 0.86416 0.988 0.0
C940 C 0.68716 0.90534 0.98854 0.0
H941 H 0.64091 0.81269 0.96539 0.0
H942 H 0.73373 0.01856 0.94363 0.0
H943 H 0.67104 0.71019 0.92123 0.0
H944 H 0.72295 0.01356 0.89873 0.0
H945 H 0.7084 0.97403 0.86134 0.0
H946 H 0.72206 0.98442 0.98275 0.0
H947 H 0.74375 0.80969 0.82381 0.0
H948 H 0.60772 0.60185 0.88245 0.0
H949 H 0.62852 0.63834 0.92117 0.0
H950 H 0.64187 0.64091 0.79973 0.0
H951 H 0.65488 0.84753 1.00461 0.0
H952 H 0.69221 0.92054 1.0057 0.0
H953 H 0.61256 0.60313 0.83707 0.0
H954 H 0.73333 0.77769 0.78385 0.0
N955 N 0.6737 0.7155 0.88272 0.0
C956 C 0.62647 0.63365 0.88231 0.0
C957 C 0.63829 0.65411 0.90419 0.0
C958 C 0.64016 0.65434 0.86055 0.0
C959 C 0.66429 0.69574 0.86139 0.0
C960 C 0.66259 0.69514 0.90408 0.0
N961 N 0.70449 0.75643 0.84215 0.0
C962 C 0.68056 0.71685 0.84044 0.0
C963 C 0.71828 0.76022 0.79962 0.0
C964 C 0.69244 0.71964 0.79745 0.0
C965 C 0.72422 0.77823 0.82229 0.0
C966 C 0.67342 0.69739 0.818 0.0
H967 H 0.68762 0.70553 0.77997 0.0
O968 O 0.77192 0.80777 0.86979 0.0
O969 O 0.71696 0.84172 0.89386 0.0
O970 O 0.65999 0.83485 0.8646 0.0
O971 O 0.66879 0.78284 0.852 0.0
O972 O 0.74649 0.84454 0.86245 0.0
O973 O 0.74851 0.77133 0.90169 0.0
O974 O 0.60086 0.81366 0.92052 0.0
O975 O 0.65274 0.77797 0.89249 0.0
O976 O 0.70754 0.77949 0.92095 0.0
O977 O 0.70352 0.83344 0.93493 0.0
O978 O 0.62468 0.77528 0.92461 0.0
O979 O 0.61906 0.84705 0.8874 0.0
C980 C 0.74001 0.86507 0.87803 0.0
C981 C 0.64811 0.65637 0.81687 0.0
C982 C 0.6314 0.63487 0.83812 0.0
C983 C 0.77906 0.79044 0.88763 0.0
C984 C 0.80142 0.77033 0.88211 0.0
C985 C 0.7813 0.73009 0.87636 0.0
C986 C 0.84298 0.79081 0.88404 0.0
C987 C 0.86446 0.77079 0.88092 0.0
C988 C 0.80204 0.70998 0.87355 0.0
C989 C 0.84298 0.72981 0.87622 0.0
C990 C 0.6589 0.80997 0.84762 0.0
C991 C 0.62937 0.75451 0.90827 0.0
C992 C 0.59158 0.8312 0.9038 0.0
C993 C 0.57448 0.85559 0.91223 0.0
C994 C 0.59365 0.88341 0.93064 0.0
C995 C 0.53947 0.85184 0.90203 0.0
C996 C 0.52493 0.8767 0.90996 0.0
C997 C 0.57952 0.90792 0.93839 0.0
C998 C 0.54556 0.90474 0.92811 0.0
C999 C 0.71334 0.80556 0.93787 0.0
H1000 H 0.74943 0.71401 0.87463 0.0
H1001 H 0.85822 0.82216 0.88791 0.0
H1002 H 0.78625 0.67867 0.86965 0.0
H1003 H 0.85759 0.71256 0.87478 0.0
H1004 H 0.61941 0.88605 0.93929 0.0
H1005 H 0.52398 0.83021 0.88796 0.0
H1006 H 0.59486 0.92931 0.95257 0.0
H1007 H 0.5349 0.92386 0.9347 0.0
C1008 C 0.11754 0.18291 0.15465 0.0
C1009 C 0.11293 0.20617 0.13712 0.0
C1010 C 0.14404 0.16899 0.15114 0.0
C1011 C 0.16757 0.17989 0.12993 0.0
C1012 C 0.1612 0.20138 0.1115 0.0
C1013 C 0.13351 0.21392 0.11522 0.0
C1014 C 0.1486 0.14477 0.17087 0.0
C1015 C 0.18584 0.21396 0.08876 0.0
C1016 C 0.26697 0.18964 0.14402 0.0
C1017 C 0.26614 0.15902 0.13055 0.0
C1018 C 0.23678 0.19897 0.14191 0.0
C1019 C 0.20212 0.17347 0.12877 0.0
C1020 C 0.19974 0.14049 0.11652 0.0
C1021 C 0.23247 0.13454 0.1168 0.0
C1022 C 0.24165 0.23573 0.15414 0.0
C1023 C 0.16169 0.10965 0.10503 0.0
H1024 H 0.10141 0.17685 0.17154 0.0
H1025 H 0.12988 0.23201 0.10172 0.0
H1026 H 0.15108 0.11998 0.16299 0.0
H1027 H 0.176 0.16344 0.18129 0.0
H1028 H 0.12341 0.13267 0.18372 0.0
H1029 H 0.17389 0.22591 0.07494 0.0
H1030 H 0.21639 0.23715 0.09336 0.0
H1031 H 0.18762 0.18891 0.0807 0.0
H1032 H 0.29094 0.20591 0.15662 0.0
H1033 H 0.23054 0.10894 0.10784 0.0
H1034 H 0.21802 0.22823 0.16763 0.0
H1035 H 0.23913 0.25513 0.14041 0.0
H1036 H 0.2705 0.25255 0.16353 0.0
H1037 H 0.14025 0.09264 0.11954 0.0
H1038 H 0.166 0.08866 0.09366 0.0
H1039 H 0.14825 0.12342 0.09382 0.0
C1040 C 0.10843 0.88445 0.3999 0.0
C1041 C 0.11885 0.91267 0.3817 0.0
C1042 C 0.06873 0.85668 0.40432 0.0
C1043 C 0.03872 0.85689 0.3899 0.0
C1044 C 0.04925 0.8881 0.37313 0.0
C1045 C 0.08933 0.91531 0.36893 0.0
C1046 C 0.0603 0.82652 0.42368 0.0
C1047 C 0.01831 0.8919 0.35889 0.0
C1048 C 0.94589 0.7647 0.36895 0.0
C1049 C 0.91825 0.76077 0.38635 0.0
C1050 C 0.98571 0.79401 0.37106 0.0
C1051 C 0.99754 0.82245 0.38983 0.0
C1052 C 0.9694 0.81895 0.40731 0.0
C1053 C 0.93025 0.7874 0.40574 0.0
C1054 C 1.015 0.79472 0.35297 0.0
C1055 C 0.98016 0.84943 0.42697 0.0
H1056 H 0.13148 0.88288 0.40997 0.0
H1057 H 0.09764 0.93767 0.35502 0.0
H1058 H 0.02853 0.80824 0.42769 0.0
H1059 H 0.07241 0.80748 0.41797 0.0
H1060 H 0.07587 0.84151 0.44063 0.0
H1061 H 0.03038 0.92177 0.35083 0.0
H1062 H 1.00711 0.86999 0.34398 0.0
H1063 H 0.99286 0.88588 0.37063 0.0
H1064 H 0.93627 0.74461 0.35366 0.0
H1065 H 0.90843 0.78504 0.41876 0.0
H1066 H 0.0411 0.79711 0.36258 0.0
H1067 H 0.02554 0.8208 0.34099 0.0
H1068 H 1.00199 0.76784 0.34145 0.0
H1069 H 1.00164 0.8483 0.43961 0.0
H1070 H 0.954 0.84476 0.43753 0.0
H1071 H 0.99453 0.87948 0.41896 0.0
C1072 C 0.86037 0.09286 0.10978 0.0
C1073 C 0.86579 0.11062 0.13259 0.0
C1074 C 0.84797 0.05229 0.10762 0.0
C1075 C 0.84212 0.02932 0.12876 0.0
C1076 C 0.84779 0.04743 0.15176 0.0
C1077 C 0.85948 0.08766 0.15335 0.0
C1078 C 0.84202 0.03435 0.08273 0.0
C1079 C 0.84163 0.02431 0.17483 0.0
C1080 C 0.77595 0.91781 0.13091 0.0
C1081 C 0.80323 0.9048 0.13347 0.0
C1082 C 0.78824 0.95787 0.12818 0.0
C1083 C 0.82898 0.98612 0.12733 0.0
C1084 C 0.85682 0.97285 0.12803 0.0
C1085 C 0.84363 0.93224 0.13115 0.0
C1086 C 0.75734 0.96986 0.12694 0.0
C1087 C 0.90052 1.00174 0.12679 0.0
H1088 H 0.8663 0.11075 0.09365 0.0
H1089 H 0.86408 0.10141 0.17101 0.0
H1090 H 0.86564 0.02715 0.07905 0.0
H1091 H 0.8134 1.0064 0.08163 0.0
H1092 H 0.84278 0.05465 0.06838 0.0
H1093 H 0.84703 0.04268 0.19127 0.0
H1094 H 0.81097 0.99907 0.17551 0.0
H1095 H 0.8618 0.012 0.17524 0.0
H1096 H 0.74465 0.89653 0.13195 0.0
H1097 H 0.86491 0.9223 0.13295 0.0
H1098 H 0.75867 0.98238 0.10876 0.0
H1099 H 0.76334 0.99267 0.14082 0.0
H1100 H 0.727 0.94473 0.1298 0.0
H1101 H 0.90716 0.02225 0.11134 0.0
H1102 H 0.91809 0.98665 0.12484 0.0
H1103 H 0.91009 0.01981 0.14354 0.0
C1104 C 0.25023 0.16626 0.36114 0.0
C1105 C 0.26829 0.16225 0.38203 0.0
C1106 C 0.22118 0.17728 0.3624 0.0
C1107 C 0.21013 0.18535 0.38518 0.0
C1108 C 0.22869 0.18196 0.40643 0.0
C1109 C 0.25686 0.16943 0.40467 0.0
C1110 C 0.20247 0.18051 0.33921 0.0
C1111 C 0.21889 0.19164 0.43096 0.0
C1112 C 0.16383 0.2503 0.37857 0.0
C1113 C 0.12356 0.2225 0.37774 0.0
C1114 C 0.19213 0.23888 0.38242 0.0
C1115 C 0.18011 0.19858 0.38609 0.0
C1116 C 0.13913 0.17059 0.38714 0.0
C1117 C 0.11123 0.18289 0.38295 0.0
C1118 C 0.23492 0.27023 0.38208 0.0
C1119 C 0.12484 0.12733 0.39103 0.0
H1120 H 0.25857 0.16022 0.34362 0.0
H1121 H 0.2698 0.16515 0.42093 0.0
H1122 H 0.16989 0.16159 0.34022 0.0
H1123 H 0.20914 0.21141 0.33667 0.0
H1124 H 0.21315 0.17163 0.32308 0.0
H1125 H 0.23635 0.18818 0.44567 0.0
H1126 H 0.22484 0.22252 0.4311 0.0
H1127 H 0.18701 0.17224 0.4348 0.0
H1128 H 0.17334 0.28112 0.37518 0.0
H1129 H 0.08 0.16128 0.38241 0.0
H1130 H 0.25247 0.26082 0.37109 0.0
H1131 H 0.24574 0.27505 0.40098 0.0
H1132 H 0.2396 0.29877 0.37482 0.0
H1133 H 0.13131 0.11506 0.37468 0.0
H1134 H 0.09258 0.11021 0.39455 0.0
H1135 H 0.14064 0.12319 0.40645 0.0
C1136 C 0.11044 0.86525 0.13471 0.0
C1137 C 0.12293 0.90543 0.13689 0.0
C1138 C 0.07072 0.83733 0.13088 0.0
C1139 C 0.04236 0.84957 0.12838 0.0
C1140 C 0.05528 0.89058 0.12868 0.0
C1141 C 0.0955 0.91813 0.13298 0.0
C1142 C 0.05932 0.7946 0.12996 0.0
C1143 C 0.0263 0.90518 0.12591 0.0
C1144 C 0.93684 0.77448 0.10842 0.0
C1145 C 0.91767 0.76205 0.13082 0.0
C1146 C 0.97758 0.80246 0.10718 0.0
C1147 C 0.99916 0.81946 0.1288 0.0
C1148 C 0.97959 0.80693 0.15137 0.0
C1149 C 0.93934 0.77846 0.15206 0.0
C1150 C 0.99736 0.81415 0.08279 0.0
C1151 C 1.00118 0.82368 0.17492 0.0
H1152 H 0.13179 0.85543 0.13691 0.0
H1153 H 0.10504 0.94928 0.13448 0.0
H1154 H 0.03341 0.77682 0.14169 0.0
H1155 H 0.05164 0.78461 0.11099 0.0
H1156 H 0.08363 0.78945 0.13573 0.0
H1157 H 0.04136 0.93771 0.12351 0.0
H1158 H 1.00664 0.89081 0.11016 0.0
H1159 H 1.00736 0.89716 0.14225 0.0
H1160 H 0.91992 0.76279 0.09192 0.0
H1161 H 0.92448 0.76933 0.1694 0.0
H1162 H 0.02314 0.80952 0.08232 0.0
H1163 H 1.00857 0.84604 0.07962 0.0
H1164 H 0.97699 0.79698 0.06781 0.0
H1165 H 0.02571 0.81725 0.17675 0.0
H1166 H 0.98153 0.81132 0.19091 0.0
H1167 H 1.01433 0.85624 0.17505 0.0
C1168 C 0.85063 0.93784 0.38002 0.0
C1169 C 0.81038 0.90943 0.38033 0.0
C1170 C 0.86313 0.97819 0.38354 0.0
C1171 C 0.83468 0.99011 0.38742 0.0
C1172 C 0.7944 0.96082 0.38941 0.0
C1173 C 0.78283 0.92105 0.38597 0.0
C1174 C 0.90646 1.00821 0.38171 0.0
C1175 C 0.76309 0.97147 0.39397 0.0
C1176 C 0.86751 0.09699 0.40536 0.0
C1177 C 0.86938 0.11407 0.38271 0.0
C1178 C 0.85575 0.05657 0.40738 0.0
C1179 C 0.84613 0.03289 0.38622 0.0
C1180 C 0.84724 0.05011 0.36343 0.0
C1181 C 0.8592 0.09041 0.36197 0.0
C1182 C 0.85516 0.03972 0.43205 0.0
C1183 C 0.83619 0.02606 0.34042 0.0
H1184 H 0.87205 0.92882 0.37574 0.0
H1185 H 0.75175 0.89892 0.38665 0.0
H1186 H 0.91198 0.02555 0.36481 0.0
H1187 H 0.91563 0.02922 0.39709 0.0
H1188 H 0.92514 0.99415 0.38152 0.0
H1189 H 0.733 0.94526 0.39504 0.0
H1190 H 0.76959 0.98769 0.41133 0.0
H1191 H 0.76349 0.99085 0.37918 0.0
H1192 H 0.8763 0.11545 0.42139 0.0
H1193 H 0.86097 0.10369 0.34443 0.0
H1194 H 0.88088 0.03512 0.43375 0.0
H1195 H 0.82816 1.01061 0.43451 0.0
H1196 H 0.85667 0.05973 0.44682 0.0
H1197 H 0.85639 0.01416 0.33756 0.0
H1198 H 0.83758 0.04364 0.32426 0.0
H1199 H 0.80581 1.00052 0.34194 0.0
C1200 C 0.25667 0.15779 0.62347 0.0
C1201 C 0.23064 0.11838 0.62942 0.0
C1202 C 0.24352 0.18499 0.62106 0.0
C1203 C 0.20311 0.17274 0.62425 0.0
C1204 C 0.17598 0.13208 0.62813 0.0
C1205 C 0.19008 0.10528 0.6308 0.0
C1206 C 0.27359 0.22742 0.61695 0.0
C1207 C 0.13239 0.11731 0.63064 0.0
C1208 C 0.17717 0.24614 0.65206 0.0
C1209 C 0.16738 0.26102 0.63179 0.0
C1210 C 0.18928 0.21798 0.64971 0.0
C1211 C 0.19032 0.20301 0.6265 0.0
C1212 C 0.18019 0.21784 0.60587 0.0
C1213 C 0.16921 0.24698 0.60874 0.0
C1214 C 0.20104 0.20427 0.67217 0.0
C1215 C 0.1808 0.20305 0.58074 0.0
H1216 H 0.28792 0.16783 0.62176 0.0
H1217 H 0.16968 0.07465 0.63515 0.0
H1218 H 0.26405 0.2391 0.60172 0.0
H1219 H 0.2757 0.24423 0.63358 0.0
H1220 H 0.30335 0.23187 0.61277 0.0
H1221 H 0.1147 0.08455 0.63032 0.0
H1222 H 0.12673 0.12787 0.648 0.0
H1223 H 0.12214 0.12925 0.61583 0.0
H1224 H 0.17551 0.25682 0.6699 0.0
H1225 H 0.16103 0.25797 0.59304 0.0
H1226 H 0.23148 0.20937 0.67014 0.0
H1227 H 0.18113 0.17211 0.67471 0.0
H1228 H 0.19987 0.21979 0.68873 0.0
H1229 H 0.21157 0.21811 0.57392 0.0
H1230 H 0.1627 0.20932 0.5679 0.0
H1231 H 0.16979 0.17081 0.58078 0.0
C1232 C 0.0985 0.87588 0.86346 0.0
C1233 C 0.11824 0.86996 0.88284 0.0
C1234 C 0.0589 0.86617 0.86522 0.0
C1235 C 0.03692 0.84662 0.88614 0.0
C1236 C 0.05706 0.84224 0.90632 0.0
C1237 C 0.09797 0.85572 0.90476 0.0
C1238 C 0.04049 0.87578 0.84415 0.0
C1239 C 0.03547 0.82283 0.92938 0.0
C1240 C 0.93079 0.82499 0.89704 0.0
C1241 C 0.90883 0.79169 0.88228 0.0
C1242 C 0.9724 0.84369 0.89835 0.0
C1243 C 0.9927 0.82759 0.88555 0.0
C1244 C 0.97047 0.79409 0.87057 0.0
C1245 C 0.92952 0.77759 0.86868 0.0
C1246 C 0.9937 0.88106 0.91312 0.0
C1247 C 0.98875 0.77473 0.85591 0.0
H1248 H 0.11423 0.8887 0.84674 0.0
H1249 H 0.11382 0.8543 0.92045 0.0
H1250 H 0.0274 0.85048 0.83142 0.0
H1251 H 1.01689 0.88176 0.85022 0.0
H1252 H 0.06299 0.90192 0.83403 0.0
H1253 H 0.05447 0.8182 0.94239 0.0
H1254 H 0.02557 0.84169 0.93838 0.0
H1255 H 1.00885 0.794 0.92532 0.0
H1256 H 0.91572 0.83669 0.90771 0.0
H1257 H 0.91381 0.7533 0.85618 0.0
H1258 H 0.02618 0.89692 0.91071 0.0
H1259 H 0.98677 0.87377 0.93257 0.0
H1260 H 0.98266 0.90142 0.9082 0.0
H1261 H 0.9829 0.77636 0.83638 0.0
H1262 H 0.9744 0.74291 0.86064 0.0
H1263 H 0.02086 0.78802 0.85849 0.0
C1264 C 0.78379 0.92654 0.60816 0.0
C1265 C 0.76716 0.91121 0.63085 0.0
C1266 C 0.81291 0.96668 0.60552 0.0
C1267 C 0.82519 0.99206 0.626 0.0
C1268 C 0.80736 0.97664 0.64874 0.0
C1269 C 0.77929 0.9364 0.65094 0.0
C1270 C 0.83158 0.98152 0.58106 0.0
C1271 C 0.81814 1.00256 0.67092 0.0
C1272 C 0.92305 0.08844 0.63321 0.0
C1273 C 0.91086 0.11637 0.6299 0.0
C1274 C 0.89612 0.04771 0.6303 0.0
C1275 C 0.85625 0.03484 0.62405 0.0
C1276 C 0.84515 0.06349 0.61899 0.0
C1277 C 0.87246 0.10364 0.62184 0.0
C1278 C 0.90973 0.01842 0.63527 0.0
C1279 C 0.80359 0.05189 0.61235 0.0
H1280 H 0.7751 0.90686 0.5927 0.0
H1281 H 0.76664 0.92445 0.66852 0.0
H1282 H 0.83008 1.00814 0.57584 0.0
H1283 H 0.86329 0.99028 0.58195 0.0
H1284 H 0.81716 0.95884 0.5667 0.0
H1285 H 0.80024 0.98639 0.68696 0.0
H1286 H 0.84978 0.01449 0.67537 0.0
H1287 H 0.81378 0.02807 0.66732 0.0
H1288 H 0.9529 0.09821 0.63932 0.0
H1289 H 0.8632 0.12526 0.6188 0.0
H1290 H 0.89898 0.99549 0.62093 0.0
H1291 H 0.89717 1.00325 0.65271 0.0
H1292 H 0.94242 0.03289 0.63636 0.0
H1293 H 0.79346 0.03031 0.59732 0.0
H1294 H 0.80042 0.07747 0.6067 0.0
H1295 H 0.78452 0.03795 0.62834 0.0
C1296 C 0.18692 0.25388 0.86558 0.0
C1297 C 0.17089 0.26377 0.88517 0.0
C1298 C 0.19986 0.22641 0.86808 0.0
C1299 C 0.19454 0.20645 0.8904 0.0
C1300 C 0.17826 0.21635 0.91034 0.0
C1301 C 0.16713 0.24538 0.90758 0.0
C1302 C 0.21893 0.21852 0.84669 0.0
C1303 C 0.17139 0.19533 0.93428 0.0
C1304 C 0.19354 0.10938 0.88096 0.0
C1305 C 0.23287 0.12071 0.8863 0.0
C1306 C 0.17963 0.13621 0.8839 0.0
C1307 C 0.20571 0.17502 0.89236 0.0
C1308 C 0.24433 0.18492 0.89964 0.0
C1309 C 0.25742 0.15781 0.89643 0.0
C1310 C 0.13781 0.12381 0.87661 0.0
C1311 C 0.27347 0.2253 0.9087 0.0
H1312 H 0.18953 0.26798 0.84822 0.0
H1313 H 0.15391 0.25244 0.92261 0.0
H1314 H 0.2003 0.18758 0.84053 0.0
H1315 H 0.22334 0.23848 0.83121 0.0
H1316 H 0.24805 0.22239 0.85203 0.0
H1317 H 0.15871 0.20658 0.94803 0.0
H1318 H 0.15091 0.16325 0.9317 0.0
H1319 H 0.1995 0.19881 0.94139 0.0
H1320 H 0.17439 0.08046 0.87325 0.0
H1321 H 0.2877 0.16633 0.90087 0.0
H1322 H 0.13805 0.13866 0.85944 0.0
H1323 H 0.12357 0.13297 0.89056 0.0
H1324 H 0.1197 0.09139 0.87389 0.0
H1325 H 0.28697 0.2446 0.89273 0.0
H1326 H 0.29745 0.22518 0.91947 0.0
H1327 H 0.25878 0.23747 0.92003 0.0
C1328 C 0.09886 0.85506 0.61011 0.0
C1329 C 0.11818 0.86229 0.63253 0.0
C1330 C 0.05817 0.84263 0.60876 0.0
C1331 C 0.0367 0.83875 0.63029 0.0
C1332 C 0.0564 0.84635 0.65289 0.0
C1333 C 0.09665 0.8579 0.65369 0.0
C1334 C 0.03831 0.83403 0.58434 0.0
C1335 C 0.03488 0.84212 0.67637 0.0
C1336 C 0.94006 0.84112 0.63352 0.0
C1337 C 0.9127 0.80116 0.63764 0.0
C1338 C 0.98036 0.8537 0.62955 0.0
C1339 C 0.99343 0.82566 0.62975 0.0
C1340 C 0.96513 0.78518 0.63246 0.0
C1341 C 0.92535 0.77348 0.63604 0.0
C1342 C 1.00928 0.89714 0.62656 0.0
C1343 C 0.97672 0.75392 0.63211 0.0
H1344 H 0.11561 0.85946 0.59364 0.0
H1345 H 0.11156 0.86387 0.67105 0.0
H1346 H 1.01237 0.80378 0.5841 0.0
H1347 H 0.02732 0.85483 0.58082 0.0
H1348 H 0.05856 0.83657 0.56947 0.0
H1349 H 0.05462 0.84986 0.69238 0.0
H1350 H 0.02159 0.86145 0.67617 0.0
H1351 H 1.01046 0.81125 0.67843 0.0
H1352 H 0.93038 0.86269 0.63465 0.0
H1353 H 0.90406 0.74244 0.63856 0.0
H1354 H 0.02887 0.90213 0.61084 0.0
H1355 H 0.02831 0.90831 0.64289 0.0
H1356 H 0.99418 0.91459 0.62399 0.0
H1357 H 0.98518 0.75155 0.61334 0.0
H1358 H 0.95227 0.7245 0.63769 0.0
H1359 H 1.00221 0.76211 0.64428 0.0
C1360 C 0.87225 0.10045 0.878 0.0
C1361 C 0.91241 0.11274 0.87612 0.0
C1362 C 0.84411 0.06074 0.88142 0.0
C1363 C 0.85611 0.03221 0.88388 0.0
C1364 C 0.89707 0.0449 0.88397 0.0
C1365 C 0.92486 0.08512 0.88 0.0
C1366 C 0.80143 0.04956 0.88192 0.0
C1367 C 0.91138 0.01571 0.88683 0.0
C1368 C 0.77936 0.92697 0.90288 0.0
C1369 C 0.76716 0.90822 0.88032 0.0
C1370 C 0.80798 0.96742 0.90449 0.0
C1371 C 0.82583 0.98914 0.88308 0.0
C1372 C 0.8137 0.96997 0.86035 0.0
C1373 C 0.78457 0.92997 0.85929 0.0
C1374 C 0.8193 0.98678 0.92904 0.0
C1375 C 0.83138 0.99181 0.83702 0.0
H1376 H 0.86263 0.12196 0.87586 0.0
H1377 H 0.956 0.09454 0.87875 0.0
H1378 H 0.78379 0.02379 0.87004 0.0
H1379 H 0.79101 0.04179 0.90081 0.0
H1380 H 0.79657 0.07403 0.87608 0.0
H1381 H 0.94382 0.03058 0.88966 0.0
H1382 H 0.89643 0.99574 0.90235 0.0
H1383 H 0.90383 0.9971 0.87034 0.0
H1384 H 0.76686 0.90994 0.91923 0.0
H1385 H 0.77559 0.91542 0.84184 0.0
H1386 H 0.81496 0.01274 0.92956 0.0
H1387 H 0.85107 0.99766 0.93248 0.0
H1388 H 0.80169 0.96626 0.94382 0.0
H1389 H 0.82538 0.0166 0.83511 0.0
H1390 H 0.81936 0.97242 0.82088 0.0
H1391 H 0.8639 1.00461 0.83731 0.0
C1392 C 0.39211 0.15878 0.30601 0.0
C1393 C 0.38417 0.18177 0.32218 0.0
C1394 C 0.39298 0.16422 0.28084 0.0
C1395 C 0.38682 0.19427 0.27113 0.0
C1396 C 0.38143 0.21945 0.28734 0.0
C1397 C 0.37987 0.21276 0.31265 0.0
C1398 C 0.39786 0.13588 0.2646 0.0
C1399 C 0.37563 0.25241 0.27791 0.0
C1400 C 0.41211 0.21141 0.20349 0.0
C1401 C 0.37508 0.18732 0.1929 0.0
C1402 C 0.41613 0.2166 0.22891 0.0
C1403 C 0.38251 0.19638 0.24411 0.0
C1404 C 0.34486 0.17371 0.23321 0.0
C1405 C 0.34165 0.17005 0.20785 0.0
C1406 C 0.45671 0.24175 0.23957 0.0
C1407 C 0.30818 0.15086 0.24838 0.0
H1408 H 0.39606 0.13505 0.313 0.0
H1409 H 0.37363 0.23069 0.32481 0.0
H1410 H 0.37014 0.11794 0.25435 0.0
H1411 H 0.4217 0.1522 0.25123 0.0
H1412 H 0.40469 0.11558 0.2749 0.0
H1413 H 0.37856 0.27328 0.29249 0.0
H1414 H 0.39735 0.269 0.26345 0.0
H1415 H 0.34573 0.23985 0.26986 0.0
H1416 H 0.43811 0.22446 0.19207 0.0
H1417 H 0.31293 0.15173 0.19969 0.0
H1418 H 0.46697 0.22247 0.2477 0.0
H1419 H 0.45595 0.26083 0.25419 0.0
H1420 H 0.47848 0.26067 0.22567 0.0
H1421 H 0.3108 0.12847 0.25935 0.0
H1422 H 0.281 0.1355 0.23717 0.0
H1423 H 0.30493 0.17091 0.26116 0.0
C1424 C 0.86034 0.65561 0.30905 0.0
C1425 C 0.82542 0.65135 0.31898 0.0
C1426 C 0.86414 0.65272 0.28384 0.0
C1427 C 0.83266 0.64642 0.2682 0.0
C1428 C 0.79686 0.64055 0.27831 0.0
C1429 C 0.79355 0.64247 0.30345 0.0
C1430 C 0.90253 0.6584 0.27387 0.0
C1431 C 0.76282 0.63489 0.26252 0.0
C1432 C 0.85098 0.6902 0.20506 0.0
C1433 C 0.83511 0.65644 0.19045 0.0
C1434 C 0.85217 0.68754 0.23033 0.0
C1435 C 0.83804 0.65013 0.24132 0.0
C1436 C 0.82475 0.61618 0.22645 0.0
C1437 C 0.82306 0.61968 0.2011 0.0
C1438 C 0.86578 0.72446 0.2453 0.0
C1439 C 0.80998 0.57589 0.23741 0.0
H1440 H 0.88536 0.66315 0.32072 0.0
H1441 H 0.76617 0.6385 0.31092 0.0
H1442 H 0.89689 0.63586 0.25984 0.0
H1443 H 0.919 0.68779 0.26511 0.0
H1444 H 0.92147 0.65663 0.28826 0.0
H1445 H 0.73603 0.62788 0.2732 0.0
H1446 H 0.77167 0.66236 0.25215 0.0
H1447 H 0.75516 0.61088 0.24923 0.0
H1448 H 0.86069 0.71868 0.19672 0.0
H1449 H 0.81042 0.59352 0.1898 0.0
H1450 H 0.88875 0.72779 0.25841 0.0
H1451 H 0.84058 0.72212 0.25588 0.0
H1452 H 0.87788 0.75149 0.23395 0.0
H1453 H 0.83052 0.57708 0.25171 0.0
H1454 H 0.80652 0.55372 0.22361 0.0
H1455 H 0.78089 0.56587 0.24605 0.0
C1456 C 0.87012 0.23877 0.20917 0.0
C1457 C 0.84692 0.20769 0.19318 0.0
C1458 C 0.8647 0.23465 0.23435 0.0
C1459 C 0.83456 0.19876 0.2442 0.0
C1460 C 0.80909 0.16814 0.22814 0.0
C1461 C 0.81568 0.17284 0.20283 0.0
C1462 C 0.89319 0.26797 0.25045 0.0
C1463 C 0.77603 0.12972 0.23774 0.0
C1464 C 0.86011 0.1783 0.30716 0.0
C1465 C 0.843 0.19445 0.32229 0.0
C1466 C 0.85582 0.17757 0.28186 0.0
C1467 C 0.83289 0.19251 0.2712 0.0
C1468 C 0.81294 0.20603 0.28658 0.0
C1469 C 0.81857 0.20727 0.31195 0.0
C1470 C 0.8784 0.16359 0.26648 0.0
C1471 C 0.78767 0.22158 0.27615 0.0
H1472 H 0.89396 0.26617 0.20206 0.0
H1473 H 0.79752 0.14859 0.19079 0.0
H1474 H 0.87697 0.276 0.26362 0.0
H1475 H 0.91086 0.25807 0.26095 0.0
H1476 H 0.91374 0.29477 0.24004 0.0
H1477 H 0.75508 0.11164 0.22323 0.0
H1478 H 0.78849 0.1124 0.24599 0.0
H1479 H 0.75955 0.13528 0.2521 0.0
H1480 H 0.87885 0.16817 0.31513 0.0
H1481 H 0.80571 0.22028 0.32352 0.0
H1482 H 0.90123 0.18873 0.25585 0.0
H1483 H 0.85831 0.14094 0.25339 0.0
H1484 H 0.89323 0.15097 0.27752 0.0
H1485 H 0.80689 0.25116 0.26814 0.0
H1486 H 0.76883 0.22433 0.29017 0.0
H1487 H 0.76852 0.20196 0.26148 0.0
C1488 C 0.16241 0.38395 0.70993 0.0
C1489 C 0.18638 0.37714 0.69395 0.0
C1490 C 0.1681 0.38566 0.73507 0.0
C1491 C 0.19945 0.38172 0.74486 0.0
C1492 C 0.22568 0.3778 0.7288 0.0
C1493 C 0.21866 0.3752 0.70353 0.0
C1494 C 0.13863 0.38889 0.75119 0.0
C1495 C 0.26019 0.37469 0.73835 0.0
C1496 C 0.21466 0.40757 0.81232 0.0
C1497 C 0.19221 0.37023 0.82283 0.0
C1498 C 0.22017 0.41172 0.78696 0.0
C1499 C 0.2018 0.37783 0.77181 0.0
C1500 C 0.18086 0.34001 0.78267 0.0
C1501 C 0.177 0.33675 0.80798 0.0
C1502 C 0.24348 0.45253 0.77629 0.0
C1503 C 0.15985 0.30302 0.7675 0.0
H1504 H 0.13781 0.38635 0.70286 0.0
H1505 H 0.2375 0.3701 0.69146 0.0
H1506 H 0.12121 0.36072 0.76109 0.0
H1507 H 0.1539 0.41252 0.76484 0.0
H1508 H 0.11789 0.395 0.74081 0.0
H1509 H 0.28148 0.37872 0.72381 0.0
H1510 H 0.27586 0.39705 0.75269 0.0
H1511 H 0.24935 0.34517 0.74659 0.0
H1512 H 0.22612 0.43356 0.82372 0.0
H1513 H 0.16004 0.30783 0.81615 0.0
H1514 H 0.22295 0.46116 0.76809 0.0
H1515 H 0.26324 0.45301 0.76172 0.0
H1516 H 0.2615 0.47483 0.79021 0.0
H1517 H 0.13642 0.30387 0.75656 0.0
H1518 H 0.146 0.2758 0.7787 0.0
H1519 H 0.18075 0.30132 0.75468 0.0
C1520 C 0.21427 0.81745 0.81069 0.0
C1521 C 0.20292 0.8432 0.82069 0.0
C1522 C 0.21357 0.812 0.78535 0.0
C1523 C 0.20162 0.83309 0.76976 0.0
C1524 C 0.18818 0.85746 0.78009 0.0
C1525 C 0.18873 0.8619 0.80534 0.0
C1526 C 0.22786 0.78554 0.77521 0.0
C1527 C 0.17566 0.881 0.76443 0.0
C1528 C 0.24756 0.86716 0.70745 0.0
C1529 C 0.21597 0.84398 0.69175 0.0
C1530 C 0.24367 0.86283 0.73269 0.0
C1531 C 0.20748 0.83377 0.74285 0.0
C1532 C 0.17626 0.80836 0.72713 0.0
C1533 C 0.18076 0.81387 0.70177 0.0
C1534 C 0.27765 0.8912 0.74849 0.0
C1535 C 0.13741 0.77663 0.73715 0.0
H1536 H 0.2256 0.80324 0.82252 0.0
H1537 H 0.17943 0.8814 0.81311 0.0
H1538 H 0.20739 0.76601 0.76097 0.0
H1539 H 0.25718 0.80385 0.76666 0.0
H1540 H 0.23068 0.76702 0.78946 0.0
H1541 H 0.16338 0.89636 0.77523 0.0
H1542 H 0.20149 0.90349 0.75415 0.0
H1543 H 0.15318 0.86152 0.75105 0.0
H1544 H 0.27519 0.89015 0.70003 0.0
H1545 H 0.15614 0.79578 0.68995 0.0
H1546 H 0.28418 0.87497 0.76254 0.0
H1547 H 0.26946 0.91112 0.75797 0.0
H1548 H 0.30495 0.90962 0.7379 0.0
H1549 H 0.14239 0.7596 0.75143 0.0
H1550 H 0.11822 0.75593 0.72285 0.0
H1551 H 0.12153 0.79045 0.74562 0.0
C1552 C 0.69326 0.84768 0.70846 0.0
C1553 C 0.66017 0.83147 0.6932 0.0
C1554 C 0.68938 0.84745 0.73374 0.0
C1555 C 0.65138 0.83178 0.74418 0.0
C1556 C 0.61807 0.81857 0.72869 0.0
C1557 C 0.62277 0.81799 0.70334 0.0
C1558 C 0.72573 0.86102 0.74929 0.0
C1559 C 0.57717 0.8026 0.73893 0.0
C1560 C 0.64182 0.78332 0.80546 0.0
C1561 C 0.65003 0.81408 0.82178 0.0
C1562 C 0.64057 0.78823 0.78036 0.0
C1563 C 0.64654 0.82456 0.77101 0.0
C1564 C 0.65177 0.85475 0.78743 0.0
C1565 C 0.65379 0.84932 0.81261 0.0
C1566 C 0.63554 0.75529 0.76379 0.0
C1567 C 0.65699 0.89347 0.77836 0.0
H1568 H 0.72222 0.85832 0.7006 0.0
H1569 H 0.59706 0.80489 0.69164 0.0
H1570 H 0.72809 0.88331 0.7626 0.0
H1571 H 0.72339 0.8356 0.75966 0.0
H1572 H 0.75327 0.87397 0.7384 0.0
H1573 H 0.55582 0.80057 0.72491 0.0
H1574 H 0.56669 0.77263 0.74637 0.0
H1575 H 0.57739 0.82152 0.75397 0.0
H1576 H 0.63791 0.75556 0.81224 0.0
H1577 H 0.65987 0.87324 0.82492 0.0
H1578 H 0.66337 0.76493 0.75371 0.0
H1579 H 0.61201 0.74844 0.75026 0.0
H1580 H 0.62815 0.72782 0.77382 0.0
H1581 H 0.68688 0.91127 0.77045 0.0
H1582 H 0.65364 0.91088 0.79311 0.0
H1583 H 0.63524 0.88838 0.76388 0.0
C1584 C 0.26205 0.94212 0.97648 0.0
C1585 C 0.23016 0.93461 0.96137 0.0
C1586 C 0.27513 0.97117 0.99482 0.0
C1587 C 0.25659 0.99425 0.9979 0.0
C1588 C 0.22404 0.9864 0.98277 0.0
C1589 C 0.21133 0.95684 0.96474 0.0
C1590 C 0.30962 0.97795 0.01049 0.0
C1591 C 0.20354 1.0103 0.98502 0.0
C1592 C 0.2696 0.04355 0.05966 0.0
C1593 C 0.30126 0.082 0.05593 0.0
C1594 C 0.25427 0.0154 0.04095 0.0
C1595 C 0.27055 0.02557 0.01741 0.0
C1596 C 0.30128 0.06503 0.01309 0.0
C1597 C 0.3164 0.09271 0.03239 0.0
C1598 C 0.22164 0.97411 0.04673 0.0
C1599 C 0.31935 0.07754 0.98829 0.0
H1600 H 0.27776 0.92618 0.97333 0.0
H1601 H 0.18787 0.95246 0.9524 0.0
H1602 H 0.33441 1.00849 0.00788 0.0
H1603 H 0.30115 0.97481 0.02987 0.0
H1604 H 0.32022 0.95698 1.00631 0.0
H1605 H 0.17786 0.99975 0.97259 0.0
H1606 H 0.19321 1.00906 1.00386 0.0
H1607 H 0.22469 0.04172 0.98087 0.0
H1608 H 0.25735 0.03494 0.07765 0.0
H1609 H 0.34125 0.12192 0.02927 0.0
H1610 H 0.2325 0.95297 0.04419 0.0
H1611 H 0.19643 0.96526 0.03417 0.0
H1612 H 0.2108 0.97137 0.06562 0.0
H1613 H 0.33591 0.06215 0.9838 0.0
H1614 H 0.33987 0.1099 0.98716 0.0
H1615 H 0.29592 0.06898 0.9744 0.0
C1616 C 0.74815 0.69068 0.46702 0.0
C1617 C 0.78792 0.70347 0.46196 0.0
C1618 C 0.7371 0.70849 0.48519 0.0
C1619 C 0.7665 0.74022 0.49889 0.0
C1620 C 0.80684 0.75257 0.49438 0.0
C1621 C 0.81707 0.73419 0.47591 0.0
C1622 C 0.69377 0.69368 0.48943 0.0
C1623 C 0.83921 0.78598 0.50862 0.0
C1624 C 0.73314 0.80274 0.53552 0.0
C1625 C 0.72556 0.78431 0.55826 0.0
C1626 C 0.74738 0.78952 0.51604 0.0
C1627 C 0.75454 0.75745 0.51941 0.0
C1628 C 0.74777 0.7396 0.54243 0.0
C1629 C 0.73342 0.75296 0.56122 0.0
C1630 C 0.75428 0.80945 0.49174 0.0
C1631 C 0.75479 0.70546 0.5472 0.0
H1632 H 0.72549 0.66752 0.45603 0.0
H1633 H 0.84787 0.74527 0.47151 0.0
H1634 H 0.68577 0.68264 0.50825 0.0
H1635 H 0.68747 0.71824 0.48723 0.0
H1636 H 0.67457 0.66953 0.47679 0.0
H1637 H 0.86902 0.79169 0.50331 0.0
H1638 H 0.83773 0.81332 0.50577 0.0
H1639 H 0.83508 0.77923 0.52826 0.0
H1640 H 0.72763 0.82704 0.53285 0.0
H1641 H 0.72806 0.738 0.57845 0.0
H1642 H 0.73463 0.78785 0.47801 0.0
H1643 H 0.78513 0.82024 0.48583 0.0
H1644 H 0.74873 0.8347 0.49211 0.0
H1645 H 0.73456 0.67981 0.53587 0.0
H1646 H 0.75001 0.69608 0.56647 0.0
H1647 H 0.78541 0.71364 0.54218 0.0
C1648 C 0.06148 0.25764 0.9609 0.0
C1649 C 0.08959 0.29802 0.96048 0.0
C1650 C 0.03238 0.24133 0.97912 0.0
C1651 C 0.0305 0.26606 0.99722 0.0
C1652 C 0.0593 0.30691 0.99705 0.0
C1653 C 0.08842 0.32236 0.9787 0.0
C1654 C 1.00285 0.19771 0.97853 0.0
C1655 C 0.05845 0.3346 0.01575 0.0
C1656 C 0.93359 0.23357 0.03206 0.0
C1657 C 0.94153 0.2217 0.05433 0.0
C1658 C 0.96175 0.24713 0.01308 0.0
C1659 C 0.99886 0.24915 0.01648 0.0
C1660 C 1.00611 0.23571 0.03867 0.0
C1661 C 0.97756 0.22231 0.05715 0.0
C1662 C 0.95255 0.26105 0.98979 0.0
C1663 C 0.0448 0.23694 0.04334 0.0
H1664 H 0.06143 0.23896 0.94638 0.0
H1665 H 0.10909 0.35382 0.97793 0.0
H1666 H 1.00272 0.18402 0.99615 0.0
H1667 H 0.97274 0.19313 0.97564 0.0
H1668 H 1.00928 0.18217 0.96395 0.0
H1669 H 0.08319 0.36532 0.01349 0.0
H1670 H 0.03017 0.33472 0.01443 0.0
H1671 H 0.06002 0.32426 0.0342 0.0
H1672 H 0.90644 0.23437 0.02992 0.0
H1673 H 0.98412 0.21363 0.0744 0.0
H1674 H 0.95739 0.24629 0.97409 0.0
H1675 H 0.97286 0.29326 0.98769 0.0
H1676 H 0.92167 0.2552 0.98924 0.0
H1677 H 0.05063 0.22089 0.02884 0.0
H1678 H 0.0452 0.22375 0.06109 0.0
H1679 H 0.06932 0.26798 0.04303 0.0
C1680 C 0.26412 0.05232 0.45787 0.0
C1681 C 0.30196 0.08545 0.46037 0.0
C1682 C 0.24754 0.02295 0.47591 0.0
C1683 C 0.26941 0.02617 0.49713 0.0
C1684 C 0.30728 0.06029 0.50011 0.0
C1685 C 0.32312 0.08942 0.48171 0.0
C1686 C 0.20715 0.9876 0.47175 0.0
C1687 C 0.3319 0.06512 0.52227 0.0
C1688 C 0.21758 0.96492 0.55364 0.0
C1689 C 0.22575 0.93382 0.55235 0.0
C1690 C 0.23063 0.99441 0.53562 0.0
C1691 C 0.25311 0.99342 0.51577 0.0
C1692 C 0.26048 0.96133 0.51403 0.0
C1693 C 0.24691 0.9321 0.53236 0.0
C1694 C 0.22175 0.02761 0.53842 0.0
C1695 C 0.2844 0.95889 0.49338 0.0
H1696 H 0.24798 0.04856 0.44118 0.0
H1697 H 0.35289 0.11411 0.48344 0.0
H1698 H 0.20954 0.96055 0.47026 0.0
H1699 H 0.18765 0.98348 0.48738 0.0
H1700 H 0.19299 0.99049 0.45501 0.0
H1701 H 0.35962 0.09413 0.52263 0.0
H1702 H 0.31481 0.06219 0.53891 0.0
H1703 H 0.33963 0.04138 0.5227 0.0
H1704 H 0.20249 0.96723 0.56948 0.0
H1705 H 0.25474 0.90912 0.53172 0.0
H1706 H 0.20779 0.03073 0.52169 0.0
H1707 H 0.24966 0.05586 0.54119 0.0
H1708 H 0.2019 0.02291 0.55399 0.0
H1709 H 0.27144 0.96039 0.4758 0.0
H1710 H 0.28599 0.9313 0.49389 0.0
H1711 H 0.31485 0.98448 0.49413 0.0
C1712 C 0.77809 0.70053 0.03482 0.0
C1713 C 0.80591 0.72429 0.05226 0.0
C1714 C 0.76499 0.71706 0.01681 0.0
C1715 C 0.77948 0.75841 0.01643 0.0
C1716 C 0.80815 0.78253 0.03384 0.0
C1717 C 0.82082 0.76518 0.05155 0.0
C1718 C 0.73461 0.69006 0.99866 0.0
C1719 C 0.82426 0.82654 0.03441 0.0
C1720 C 0.76927 0.80232 0.95684 0.0
C1721 C 0.73387 0.80285 0.95994 0.0
C1722 C 0.78474 0.78881 0.97512 0.0
C1723 C 0.76501 0.77628 0.99761 0.0
C1724 C 0.73057 0.77925 1.0015 0.0
C1725 C 0.71513 0.79205 0.98253 0.0
C1726 C 0.82115 0.78597 0.96979 0.0
C1727 C 0.70891 0.76704 0.02531 0.0
H1728 H 0.76532 0.66876 0.0359 0.0
H1729 H 0.84106 0.78345 0.06563 0.0
H1730 H 0.70711 0.69148 1.00079 0.0
H1731 H 0.74552 0.69988 0.97998 0.0
H1732 H 0.72734 0.65887 1.00078 0.0
H1733 H 0.84759 0.84143 0.04837 0.0
H1734 H 0.83668 0.83964 0.01649 0.0
H1735 H 0.79998 0.8327 0.03826 0.0
H1736 H 0.78415 0.81093 0.93954 0.0
H1737 H 0.68736 0.7915 0.98499 0.0
H1738 H 0.81363 0.75459 0.97034 0.0
H1739 H 0.84401 0.80194 0.98381 0.0
H1740 H 0.8339 0.79825 0.95174 0.0
H1741 H 0.69513 0.73461 0.02753 0.0
H1742 H 0.68544 0.77513 0.02651 0.0
H1743 H 0.72982 0.78104 0.04058 0.0
C1744 C 0.07575 0.32351 0.54482 0.0
C1745 C 0.09482 0.30394 0.55411 0.0
C1746 C 0.0471 0.30676 0.52645 0.0
C1747 C 0.03644 0.26891 0.51719 0.0
C1748 C 0.05617 0.24923 0.52619 0.0
C1749 C 0.08521 0.26702 0.54451 0.0
C1750 C 0.02777 0.32944 0.51723 0.0
C1751 C 0.0457 0.20885 0.51698 0.0
C1752 C 0.93828 0.21759 0.48176 0.0
C1753 C 0.95152 0.22874 0.45791 0.0
C1754 C 0.96548 0.22903 0.5013 0.0
C1755 C 1.00684 0.25173 0.49686 0.0
C1756 C 0.0201 0.26112 0.47273 0.0
C1757 C 0.99256 0.24966 0.45384 0.0
C1758 C 0.94997 0.21813 0.52676 0.0
C1759 C 0.06357 0.28509 0.46678 0.0
H1760 H 0.0825 0.35171 0.55256 0.0
H1761 H 0.09883 0.25116 0.55219 0.0
H1762 H 0.03293 0.33466 0.49748 0.0
H1763 H 0.99538 0.31192 0.52001 0.0
H1764 H 0.03915 0.3584 0.52641 0.0
H1765 H 0.06414 0.19773 0.52537 0.0
H1766 H 1.01421 0.18768 0.5209 0.0
H1767 H 0.0494 0.20957 0.49705 0.0
H1768 H 0.90692 0.20138 0.48531 0.0
H1769 H 1.00362 0.2582 0.43565 0.0
H1770 H 0.95654 0.2452 0.53694 0.0
H1771 H 0.965 0.20429 0.53632 0.0
H1772 H 0.91758 0.19751 0.52716 0.0
H1773 H 0.07579 0.31542 0.47409 0.0
H1774 H 0.06919 0.28717 0.44698 0.0
H1775 H 0.07995 0.27191 0.47541 0.0
C1776 C 0.58973 0.10787 0.1198 0.0
C1777 C 0.62365 0.14386 0.11424 0.0
C1778 C 0.55305 0.10555 0.12341 0.0
C1779 C 0.55007 0.14009 0.12149 0.0
C1780 C 0.58488 0.17705 0.11791 0.0
C1781 C 0.62133 0.17851 0.11435 0.0
C1782 C 0.51693 0.06564 0.12733 0.0
C1783 C 0.58311 0.21463 0.11575 0.0
C1784 C 0.45699 0.12989 0.09293 0.0
C1785 C 0.43729 0.13444 0.11273 0.0
C1786 C 0.49314 0.13097 0.09572 0.0
C1787 C 0.51028 0.13662 0.11903 0.0
C1788 C 0.48964 0.13942 0.13937 0.0
C1789 C 0.45336 0.13854 0.13598 0.0
C1790 C 0.51361 0.12743 0.07347 0.0
C1791 C 0.50656 0.14482 0.16454 0.0
H1792 H 0.59147 0.08103 0.11984 0.0
H1793 H 0.64735 0.20633 0.10986 0.0
H1794 H 0.50016 0.06661 0.14322 0.0
H1795 H 0.49716 0.05764 0.11134 0.0
H1796 H 0.52454 0.04208 0.13023 0.0
H1797 H 0.61293 0.24129 0.11643 0.0
H1798 H 0.56904 0.21465 0.09829 0.0
H1799 H 0.56478 0.2165 0.13044 0.0
H1800 H 0.44463 0.12687 0.07494 0.0
H1801 H 0.43847 0.14262 0.1513 0.0
H1802 H 0.51973 0.10276 0.07567 0.0
H1803 H 0.54239 0.15489 0.07103 0.0
H1804 H 0.4958 0.1222 0.05676 0.0
H1805 H 0.51351 0.12116 0.16867 0.0
H1806 H 0.48599 0.14442 0.17855 0.0
H1807 H 0.53464 0.17335 0.16565 0.0
C1808 C 0.7108 0.57057 0.41223 0.0
C1809 C 0.72356 0.58763 0.38935 0.0
C1810 C 0.67515 0.53476 0.41503 0.0
C1811 C 0.65132 0.51591 0.39447 0.0
C1812 C 0.66332 0.53424 0.37148 0.0
C1813 C 0.69976 0.56941 0.36913 0.0
C1814 C 0.66397 0.51618 0.43983 0.0
C1815 C 0.63847 0.51595 0.34921 0.0
C1816 C 0.58028 0.40476 0.40032 0.0
C1817 C 0.54535 0.40375 0.40748 0.0
C1818 C 0.61471 0.44096 0.39517 0.0
C1819 C 0.61414 0.47692 0.39714 0.0
C1820 C 0.57835 0.47571 0.40306 0.0
C1821 C 0.54451 0.43929 0.40803 0.0
C1822 C 0.65223 0.44089 0.38883 0.0
C1823 C 0.57622 0.51313 0.40524 0.0
H1824 H 0.72993 0.58405 0.42775 0.0
H1825 H 0.71023 0.58214 0.35136 0.0
H1826 H 0.63416 0.51066 0.44483 0.0
H1827 H 0.66276 0.48719 0.43963 0.0
H1828 H 0.68527 0.53495 0.45401 0.0
H1829 H 0.64972 0.53598 0.33331 0.0
H1830 H 0.6383 0.48819 0.34474 0.0
H1831 H 0.60746 0.50825 0.35259 0.0
H1832 H 0.5813 0.37755 0.40002 0.0
H1833 H 0.51752 0.43873 0.41329 0.0
H1834 H 0.67434 0.45564 0.40343 0.0
H1835 H 0.66508 0.45786 0.37194 0.0
H1836 H 0.64729 0.41054 0.38638 0.0
H1837 H 0.59502 0.53115 0.42051 0.0
H1838 H 0.54562 0.50707 0.40839 0.0
H1839 H 0.5878 0.53113 0.38857 0.0
C1840 C 0.90062 0.33264 0.0919 0.0
C1841 C 0.89365 0.30768 0.11171 0.0
C1842 C 0.89971 0.36789 0.09424 0.0
C1843 C 0.89084 0.37832 0.11698 0.0
C1844 C 0.88524 0.35394 0.13738 0.0
C1845 C 0.88686 0.31885 0.13453 0.0
C1846 C 0.9068 0.39319 0.07206 0.0
C1847 C 0.87553 0.36381 0.16188 0.0
C1848 C 0.91924 0.48638 0.1195 0.0
C1849 C 0.88427 0.48501 0.11191 0.0
C1850 C 0.92105 0.45169 0.12304 0.0
C1851 C 0.88705 0.41454 0.11885 0.0
C1852 C 0.85084 0.41289 0.11299 0.0
C1853 C 0.84986 0.4482 0.10962 0.0
C1854 C 0.96019 0.45496 0.12931 0.0
C1855 C 0.81384 0.37393 0.10842 0.0
H1856 H 0.90556 0.3238 0.07423 0.0
H1857 H 0.88064 0.29919 0.1498 0.0
H1858 H 0.87968 0.39427 0.06758 0.0
H1859 H 0.9306 0.42388 0.07565 0.0
H1860 H 0.91523 0.38185 0.05604 0.0
H1861 H 0.87656 0.3446 0.17637 0.0
H1862 H 0.89632 0.39508 0.16657 0.0
H1863 H 0.84544 0.36001 0.1614 0.0
H1864 H 0.94591 0.51482 0.12129 0.0
H1865 H 0.82288 0.44696 0.10351 0.0
H1866 H 0.97166 0.44668 0.11332 0.0
H1867 H 0.9566 0.43426 0.14413 0.0
H1868 H 0.98251 0.48537 0.13489 0.0
H1869 H 0.81689 0.36117 0.09116 0.0
H1870 H 0.78722 0.37717 0.10718 0.0
H1871 H 0.80939 0.35261 0.12303 0.0
C1872 C 0.46206 0.15322 0.38229 0.0
C1873 C 0.43799 0.13458 0.40239 0.0
C1874 C 0.50013 0.15772 0.38056 0.0
C1875 C 0.51382 0.14217 0.39899 0.0
C1876 C 0.48846 0.12131 0.41853 0.0
C1877 C 0.45148 0.11887 0.42033 0.0
C1878 C 0.5266 0.18133 0.3599 0.0
C1879 C 0.50099 0.10302 0.43821 0.0
C1880 C 0.60014 0.12384 0.39102 0.0
C1881 C 0.62953 0.15414 0.40506 0.0
C1882 C 0.56311 0.121 0.38757 0.0
C1883 C 0.55508 0.1489 0.39869 0.0
C1884 C 0.58553 0.18085 0.4118 0.0
C1885 C 0.62241 0.18307 0.41483 0.0
C1886 C 0.53163 0.08646 0.37355 0.0
C1887 C 0.57832 0.21122 0.42403 0.0
H1888 H 0.45237 0.16684 0.36888 0.0
H1889 H 0.43334 0.10549 0.43621 0.0
H1890 H 0.5512 0.20947 0.36698 0.0
H1891 H 0.53993 0.16512 0.35126 0.0
H1892 H 0.51053 0.18828 0.34591 0.0
H1893 H 0.47634 0.08439 0.45068 0.0
H1894 H 0.51228 0.08455 0.43017 0.0
H1895 H 0.52532 0.12661 0.44895 0.0
H1896 H 0.60543 0.10107 0.38384 0.0
H1897 H 0.6448 0.20599 0.42614 0.0
H1898 H 0.51762 0.09669 0.36007 0.0
H1899 H 0.50812 0.06614 0.38614 0.0
H1900 H 0.54361 0.0697 0.36399 0.0
H1901 H 0.56428 0.22245 0.41124 0.0
H1902 H 0.60603 0.23656 0.43106 0.0
H1903 H 0.55772 0.19735 0.43942 0.0
C1904 C 0.54511 0.43614 0.11852 0.0
C1905 C 0.54636 0.40228 0.1114 0.0
C1906 C 0.57979 0.47263 0.12176 0.0
C1907 C 0.61699 0.47555 0.11806 0.0
C1908 C 0.61856 0.44073 0.1129 0.0
C1909 C 0.5832 0.40447 0.10959 0.0
C1910 C 0.57647 0.50868 0.12726 0.0
C1911 C 0.65756 0.44233 0.10909 0.0
C1912 C 0.69837 0.57049 0.09027 0.0
C1913 C 0.7229 0.58971 0.11009 0.0
C1914 C 0.66371 0.53395 0.09283 0.0
C1915 C 0.65325 0.51549 0.11583 0.0
C1916 C 0.67727 0.53538 0.13618 0.0
C1917 C 0.71189 0.57239 0.13309 0.0
C1918 C 0.63886 0.5146 0.07065 0.0
C1919 C 0.66736 0.51682 0.16097 0.0
H1920 H 0.5167 0.43456 0.12017 0.0
H1921 H 0.58447 0.37853 0.104 0.0
H1922 H 0.59574 0.52508 0.14276 0.0
H1923 H 0.58664 0.52881 0.1114 0.0
H1924 H 0.54571 0.50108 0.13157 0.0
H1925 H 0.65427 0.41241 0.10874 0.0
H1926 H 0.67049 0.45712 0.09161 0.0
H1927 H 0.67874 0.45993 0.12359 0.0
H1928 H 0.70703 0.58376 0.07246 0.0
H1929 H 0.73118 0.58681 0.14838 0.0
H1930 H 0.60804 0.50778 0.07377 0.0
H1931 H 0.63803 0.48629 0.067 0.0
H1932 H 0.65036 0.53353 0.05429 0.0
H1933 H 0.63633 0.50745 0.16568 0.0
H1934 H 0.68706 0.53725 0.1752 0.0
H1935 H 0.67019 0.48994 0.16098 0.0
C1936 C 0.81859 0.42231 0.41033 0.0
C1937 C 0.84617 0.46255 0.41321 0.0
C1938 C 0.8304 0.39476 0.4045 0.0
C1939 C 0.87096 0.40761 0.40105 0.0
C1940 C 0.89861 0.4487 0.40158 0.0
C1941 C 0.88595 0.47577 0.40779 0.0
C1942 C 0.79967 0.35144 0.40424 0.0
C1943 C 0.94193 0.46375 0.39732 0.0
C1944 C 0.89704 0.33246 0.42488 0.0
C1945 C 0.89342 0.31009 0.40422 0.0
C1946 C 0.89223 0.36564 0.42376 0.0
C1947 C 0.88436 0.37764 0.40122 0.0
C1948 C 0.88424 0.35725 0.37987 0.0
C1949 C 0.88818 0.32325 0.38164 0.0
C1950 C 0.89222 0.38571 0.44714 0.0
C1951 C 0.8774 0.36966 0.35535 0.0
H1952 H 0.78776 0.41199 0.41422 0.0
H1953 H 0.90749 0.50679 0.40995 0.0
H1954 H 0.80249 0.33716 0.38761 0.0
H1955 H 0.80436 0.33656 0.41997 0.0
H1956 H 0.76914 0.34652 0.40516 0.0
H1957 H 0.95823 0.49593 0.39348 0.0
H1958 H 0.95505 0.45827 0.41365 0.0
H1959 H 0.94616 0.44785 0.382 0.0
H1960 H 0.90114 0.32236 0.44237 0.0
H1961 H 0.88511 0.30596 0.3656 0.0
H1962 H 0.86214 0.38086 0.45061 0.0
H1963 H 0.9125 0.41799 0.44582 0.0
H1964 H 0.90123 0.37434 0.4629 0.0
H1965 H 0.84521 0.35665 0.35231 0.0
H1966 H 0.88934 0.35915 0.34068 0.0
H1967 H 0.89121 0.40223 0.35411 0.0
C1968 C 0.18092 0.61484 0.61666 0.0
C1969 C 0.1464 0.61644 0.61217 0.0
C1970 C 0.17931 0.57838 0.62074 0.0
C1971 C 0.14236 0.54276 0.62029 0.0
C1972 C 0.10735 0.54475 0.61783 0.0
C1973 C 0.10979 0.58145 0.61394 0.0
C1974 C 0.2174 0.57772 0.62345 0.0
C1975 C 0.06736 0.50778 0.61716 0.0
C1976 C 0.14111 0.45361 0.59194 0.0
C1977 C 0.14031 0.43143 0.6121 0.0
C1978 C 0.1418 0.48959 0.59451 0.0
C1979 C 0.14061 0.50369 0.61792 0.0
C1980 C 0.13762 0.48039 0.63843 0.0
C1981 C 0.1381 0.4447 0.63532 0.0
C1982 C 0.14513 0.51313 0.57203 0.0
C1983 C 0.13507 0.49371 0.66363 0.0
H1984 H 0.20931 0.64163 0.61523 0.0
H1985 H 0.08293 0.5825 0.61077 0.0
H1986 H 0.21504 0.5575 0.63828 0.0
H1987 H 0.22346 0.56648 0.60648 0.0
H1988 H 0.24283 0.60756 0.62719 0.0
H1989 H 0.04288 0.51441 0.61837 0.0
H1990 H 0.0641 0.49172 0.59998 0.0
H1991 H 0.06449 0.48772 0.63221 0.0
H1992 H 0.14293 0.44351 0.57396 0.0
H1993 H 0.138 0.42798 0.651 0.0
H1994 H 0.17249 0.54235 0.57285 0.0
H1995 H 0.11984 0.51849 0.57094 0.0
H1996 H 0.1458 0.49797 0.55518 0.0
H1997 H 0.16291 0.52118 0.66806 0.0
H1998 H 0.12991 0.47098 0.67747 0.0
H1999 H 0.11082 0.50064 0.66467 0.0
C2000 C 0.32158 0.87687 0.87904 0.0
C2001 C 0.3115 0.88543 0.90169 0.0
C2002 C 0.35616 0.8743 0.87619 0.0
C2003 C 0.38137 0.88112 0.89635 0.0
C2004 C 0.372 0.89171 0.91889 0.0
C2005 C 0.33698 0.89306 0.92133 0.0
C2006 C 0.36467 0.86238 0.85198 0.0
C2007 C 0.39837 0.90049 0.94074 0.0
C2008 C 0.45133 0.84023 0.9042 0.0
C2009 C 0.48805 0.87416 0.90043 0.0
C2010 C 0.41594 0.84122 0.90128 0.0
C2011 C 0.41739 0.87696 0.8944 0.0
C2012 C 0.45434 0.91035 0.88884 0.0
C2013 C 0.48911 0.90853 0.89193 0.0
C2014 C 0.37721 0.80485 0.9073 0.0
C2015 C 0.45749 0.94904 0.88156 0.0
H2016 H 0.30143 0.87005 0.86395 0.0
H2017 H 0.32895 0.89935 0.93888 0.0
H2018 H 0.3954 0.88327 0.8463 0.0
H2019 H 0.36189 0.83278 0.85353 0.0
H2020 H 0.34413 0.86124 0.83767 0.0
H2021 H 0.38799 0.91044 0.95652 0.0
H2022 H 0.39946 0.87366 0.94604 0.0
H2023 H 0.42895 0.92377 0.93634 0.0
H2024 H 0.45037 0.81376 0.91106 0.0
H2025 H 0.51749 0.93487 0.88909 0.0
H2026 H 0.35491 0.79927 0.8931 0.0
H2027 H 0.36576 0.80953 0.92461 0.0
H2028 H 0.38035 0.77824 0.90919 0.0
H2029 H 0.43587 0.94437 0.86709 0.0
H2030 H 0.48755 0.97068 0.87506 0.0
H2031 H 0.45045 0.96195 0.89735 0.0
C2032 C 0.57357 0.69112 0.59511 0.0
C2033 C 0.59507 0.71361 0.61514 0.0
C2034 C 0.53737 0.65631 0.59781 0.0
C2035 C 0.52255 0.64237 0.62129 0.0
C2036 C 0.5451 0.66379 0.64178 0.0
C2037 C 0.58083 0.69975 0.63849 0.0
C2038 C 0.51446 0.63515 0.57533 0.0
C2039 C 0.53109 0.6491 0.66708 0.0
C2040 C 0.41169 0.57167 0.61883 0.0
C2041 C 0.41045 0.53559 0.61502 0.0
C2042 C 0.44788 0.60655 0.62315 0.0
C2043 C 0.48354 0.60521 0.62373 0.0
C2044 C 0.48179 0.56823 0.622 0.0
C2045 C 0.44536 0.53399 0.61774 0.0
C2046 C 0.44831 0.6453 0.62483 0.0
C2047 C 0.51883 0.56524 0.62248 0.0
H2048 H 0.58439 0.7018 0.57702 0.0
H2049 H 0.59704 0.7173 0.65403 0.0
H2050 H 0.50962 0.60468 0.57488 0.0
H2051 H 0.485 0.6329 0.57557 0.0
H2052 H 0.52983 0.65046 0.55842 0.0
H2053 H 0.55291 0.66794 0.68102 0.0
H2054 H 0.50278 0.64838 0.67052 0.0
H2055 H 0.52546 0.61846 0.66906 0.0
H2056 H 0.38491 0.5732 0.61662 0.0
H2057 H 0.44452 0.50609 0.61505 0.0
H2058 H 0.45991 0.6619 0.60767 0.0
H2059 H 0.46811 0.66374 0.63964 0.0
H2060 H 0.41833 0.64097 0.62797 0.0
H2061 H 0.5357 0.57771 0.60551 0.0
H2062 H 0.51223 0.53421 0.6242 0.0
H2063 H 0.5381 0.58268 0.63774 0.0
C2064 C 0.18955 0.61348 0.91464 0.0
C2065 C 0.1649 0.62417 0.90235 0.0
C2066 C 0.1864 0.57641 0.91091 0.0
C2067 C 0.15751 0.54908 0.8947 0.0
C2068 C 0.13425 0.56081 0.88112 0.0
C2069 C 0.13818 0.59823 0.88516 0.0
C2070 C 0.21211 0.56548 0.92566 0.0
C2071 C 0.10299 0.53266 0.86381 0.0
C2072 C 0.16164 0.45546 0.88013 0.0
C2073 C 0.1388 0.43042 0.89898 0.0
C2074 C 0.16729 0.49393 0.87795 0.0
C2075 C 0.1484 0.507 0.89444 0.0
C2076 C 0.1231 0.48058 0.91238 0.0
C2077 C 0.12 0.44342 0.91501 0.0
C2078 C 0.19602 0.52156 0.85934 0.0
C2079 C 0.10102 0.49231 0.9298 0.0
H2080 H 0.20962 0.63321 0.92831 0.0
H2081 H 0.1185 0.60616 0.87607 0.0
H2082 H 0.19394 0.54348 0.93962 0.0
H2083 H 0.22502 0.55174 0.91396 0.0
H2084 H 0.23644 0.59149 0.93492 0.0
H2085 H 0.09075 0.5476 0.85255 0.0
H2086 H 0.11515 0.5187 0.85169 0.0
H2087 H 0.07851 0.50864 0.87422 0.0
H2088 H 0.17781 0.44626 0.86839 0.0
H2089 H 0.10378 0.42485 0.93022 0.0
H2090 H 0.22357 0.5434 0.8686 0.0
H2091 H 0.1839 0.53827 0.84991 0.0
H2092 H 0.20366 0.50559 0.84568 0.0
H2093 H 0.12206 0.51428 0.94288 0.0
H2094 H 0.07828 0.46659 0.94012 0.0
H2095 H 0.08635 0.50624 0.91995 0.0
C2096 C 0.33316 0.88231 0.58762 0.0
C2097 C 0.31372 0.88604 0.60791 0.0
C2098 C 0.36834 0.88123 0.58981 0.0
C2099 C 0.38577 0.88537 0.61289 0.0
C2100 C 0.36733 0.89103 0.63346 0.0
C2101 C 0.33103 0.89051 0.63082 0.0
C2102 C 0.38629 0.87466 0.56732 0.0
C2103 C 0.38561 0.897 0.65825 0.0
C2104 C 0.45802 0.84633 0.61302 0.0
C2105 C 0.49342 0.88039 0.60675 0.0
C2106 C 0.42313 0.84792 0.6171 0.0
C2107 C 0.42363 0.8844 0.61482 0.0
C2108 C 0.45999 0.9192 0.61038 0.0
C2109 C 0.49429 0.9168 0.60658 0.0
C2110 C 0.38512 0.81007 0.62191 0.0
C2111 C 0.46214 0.95869 0.60772 0.0
H2112 H 0.31988 0.87864 0.56987 0.0
H2113 H 0.31591 0.89273 0.64664 0.0
H2114 H 0.41649 0.89992 0.56451 0.0
H2115 H 0.38884 0.84778 0.5695 0.0
H2116 H 0.36853 0.87112 0.55082 0.0
H2117 H 0.36836 0.90225 0.67226 0.0
H2118 H 0.38773 0.87069 0.66344 0.0
H2119 H 0.41608 0.92259 0.65801 0.0
H2120 H 0.45693 0.81806 0.61315 0.0
H2121 H 0.52163 0.94341 0.60215 0.0
H2122 H 0.3663 0.8015 0.60546 0.0
H2123 H 0.36841 0.8142 0.63675 0.0
H2124 H 0.39039 0.78549 0.62677 0.0
H2125 H 0.44719 0.95909 0.59071 0.0
H2126 H 0.49307 0.98351 0.60717 0.0
H2127 H 0.44654 0.9636 0.62288 0.0
C2128 C 0.5788 0.70227 0.88076 0.0
C2129 C 0.59613 0.71418 0.90371 0.0
C2130 C 0.54193 0.66748 0.87793 0.0
C2131 C 0.52222 0.64417 0.8985 0.0
C2132 C 0.54081 0.65533 0.92145 0.0
C2133 C 0.57723 0.69022 0.92375 0.0
C2134 C 0.52321 0.65679 0.85317 0.0
C2135 C 0.52161 0.63115 0.94385 0.0
C2136 C 0.41102 0.57584 0.90459 0.0
C2137 C 0.40813 0.53866 0.90325 0.0
C2138 C 0.44764 0.61069 0.90131 0.0
C2139 C 0.48208 0.60823 0.89655 0.0
C2140 C 0.47853 0.57068 0.89333 0.0
C2141 C 0.44169 0.53646 0.89668 0.0
C2142 C 0.45 0.65012 0.90476 0.0
C2143 C 0.51425 0.56652 0.88828 0.0
H2144 H 0.59294 0.72111 0.86527 0.0
H2145 H 0.59053 0.69958 0.94152 0.0
H2146 H 0.51252 0.62524 0.84914 0.0
H2147 H 0.49719 0.66106 0.85274 0.0
H2148 H 0.54403 0.67518 0.83871 0.0
H2149 H 0.54079 0.64297 0.96011 0.0
H2150 H 0.49349 0.63073 0.94749 0.0
H2151 H 0.51444 0.60017 0.94105 0.0
H2152 H 0.38532 0.57776 0.90988 0.0
H2153 H 0.43957 0.50776 0.89557 0.0
H2154 H 0.46759 0.67074 0.89004 0.0
H2155 H 0.4652 0.6634 0.9221 0.0
H2156 H 0.42032 0.6474 0.90515 0.0
H2157 H 0.5319 0.58632 0.87327 0.0
H2158 H 0.50603 0.53574 0.88353 0.0
H2159 H 0.53348 0.57544 0.90455 0.0
loop_
_geom_bond_atom_site_label_1
_geom_bond_atom_site_label_2
_geom_bond_distance
_geom_bond_site_symmetry_2
_ccdc_geom_bond_type
Gd0 N31 2.661 . S
Gd0 N37 2.601 . S
Gd0 O44 2.545 . S
Gd0 O45 2.606 . S
Gd0 O47 2.429 . S
Gd0 O48 2.545 . S
Gd0 O49 2.412 . S
Gd0 O51 2.362 . S
Gd0 O52 2.324 . S
Gd0 C59 2.828 . S
Gd1 N10 2.661 . S
Gd1 N14 2.601 . S
Gd1 O45 2.362 . S
Gd1 O46 2.324 . S
Gd1 O50 2.545 . S
Gd1 O51 2.606 . S
Gd1 O53 2.429 . S
Gd1 O54 2.545 . S
Gd1 O55 2.412 . S
Gd1 C68 2.828 . S
C2 C5 1.417 . S
C2 C7 1.431 . S
C2 C8 1.412 . S
C3 C6 1.437 . S
C3 C7 1.317 . S
C3 H22 0.929 . S
C4 C5 1.426 . S
C4 C6 1.413 . S
C4 N14 1.359 . S
C5 C2 1.417 . S
C5 C4 1.426 . S
C5 N10 1.350 . S
C6 C3 1.437 . S
C6 C4 1.413 . S
C6 C16 1.391 . S
C7 C2 1.431 . S
C7 C3 1.317 . S
C7 H18 0.930 . S
C8 C2 1.412 . S
C8 C9 1.355 . S
C8 H20 0.930 . S
C9 C8 1.355 . S
C9 C11 1.402 . S
C9 H21 0.930 . S
N10 Gd1 2.661 . S
N10 C5 1.350 . S
N10 C11 1.307 . S
C11 C9 1.402 . S
C11 N10 1.307 . S
C11 H12 0.930 . S
H12 C11 0.930 . S
C13 N14 1.334 . S
C13 C15 1.394 . S
C13 H17 0.930 . S
N14 Gd1 2.601 . S
N14 C4 1.359 . S
N14 C13 1.334 . S
C15 C13 1.394 . S
C15 C16 1.359 . S
C15 H27 0.930 . S
C16 C6 1.391 . S
C16 C15 1.359 . S
C16 H28 0.929 . S
H17 C13 0.930 . S
H18 C7 0.930 . S
H19 C36 0.930 . S
H20 C8 0.930 . S
H21 C9 0.930 . S
H22 C3 0.929 . S
H23 C41 0.930 . S
H24 C32 0.930 . S
H25 C33 0.930 . S
H26 C57 0.929 1_565 S
H27 C15 0.930 . S
H28 C16 0.929 . S
H29 C58 0.930 1_565 S
H30 C39 0.930 . S
N31 Gd0 2.661 . S
N31 C35 1.350 . S
N31 C36 1.307 . S
C32 H24 0.930 . S
C32 C33 1.355 . S
C32 C34 1.412 . S
C33 H25 0.930 . S
C33 C32 1.355 . S
C33 C36 1.402 . S
C34 C32 1.412 . S
C34 C35 1.417 . S
C34 C58 1.431 . S
C35 N31 1.350 . S
C35 C34 1.417 . S
C35 C38 1.426 . S
C36 H19 0.930 . S
C36 N31 1.307 . S
C36 C33 1.402 . S
N37 Gd0 2.601 . S
N37 C38 1.359 . S
N37 C41 1.334 . S
C38 C35 1.426 . S
C38 N37 1.359 . S
C38 C42 1.413 . S
C39 H30 0.930 . S
C39 C40 1.359 . S
C39 C41 1.394 . S
C40 C39 1.359 . S
C40 C42 1.391 . S
C40 H43 0.929 . S
C41 H23 0.930 . S
C41 N37 1.334 . S
C41 C39 1.394 . S
C42 C38 1.413 . S
C42 C40 1.391 . S
C42 C57 1.437 . S
H43 C40 0.929 . S
O44 Gd0 2.545 . S
O44 C59 1.258 . S
O45 Gd0 2.606 . S
O45 Gd1 2.362 . S
O45 C56 1.284 . S
O46 Gd1 2.324 . S
O46 C66 1.254 . S
O47 Gd0 2.429 . S
O47 C66 1.268 . S
O48 Gd0 2.545 . S
O48 C56 1.250 . S
O49 Gd0 2.412 . S
O49 C59 1.252 . S
O50 Gd1 2.545 . S
O50 C68 1.258 . S
O51 Gd0 2.362 . S
O51 Gd1 2.606 . S
O51 C67 1.284 . S
O52 Gd0 2.324 . S
O52 C75 1.254 . S
O53 Gd1 2.429 . S
O53 C75 1.268 . S
O54 Gd1 2.545 . S
O54 C67 1.250 . S
O55 Gd1 2.412 . S
O55 C68 1.252 . S
C56 O45 1.284 . S
C56 O48 1.250 . S
C57 H26 0.929 1_545 S
C57 C42 1.437 . S
C57 C58 1.317 . S
C58 H29 0.930 1_545 S
C58 C34 1.431 . S
C58 C57 1.317 . S
C59 Gd0 2.828 . S
C59 O44 1.258 . S
C59 O49 1.252 . S
C59 C60 1.497 1_545 S
C60 C59 1.497 1_565 S
C60 C61 1.395 . S
C60 C62 1.380 . S
C61 C60 1.395 . S
C61 C64 1.398 . S
C61 H76 0.930 . S
C62 C60 1.380 . S
C62 C63 1.391 . S
C62 H77 0.930 . S
C63 C62 1.391 . S
C63 C65 1.387 . S
C64 C61 1.398 . S
C64 C65 1.380 . S
C64 H78 0.930 . S
C65 C63 1.387 . S
C65 C64 1.380 . S
C65 H79 0.930 . S
C66 O46 1.254 . S
C66 O47 1.268 . S
C67 O51 1.284 . S
C67 O54 1.250 . S
C68 Gd1 2.828 . S
C68 O50 1.258 . S
C68 O55 1.252 . S
C68 C69 1.497 . S
C69 C68 1.497 . S
C69 C70 1.395 . S
C69 C71 1.380 . S
C70 C69 1.395 . S
C70 C73 1.398 . S
C70 H80 0.930 . S
C71 C69 1.380 . S
C71 C72 1.391 . S
C71 H81 0.930 . S
C72 C71 1.391 . S
C72 C74 1.387 . S
C73 C70 1.398 . S
C73 C74 1.380 . S
C73 H82 0.930 . S
C74 C72 1.387 . S
C74 C73 1.380 . S
C74 H83 0.930 . S
C75 O52 1.254 . S
C75 O53 1.268 . S
H76 C61 0.930 . S
H77 C62 0.930 . S
H78 C64 0.930 . S
H79 C65 0.930 . S
H80 C70 0.930 . S
H81 C71 0.930 . S
H82 C73 0.930 . S
H83 C74 0.930 . S
Gd84 N115 2.661 . S
Gd84 N121 2.601 . S
Gd84 O128 2.545 . S
Gd84 O129 2.606 . S
Gd84 O131 2.429 . S
Gd84 O132 2.545 . S
Gd84 O133 2.412 . S
Gd84 O135 2.362 . S
Gd84 O136 2.324 . S
Gd84 C143 2.828 . S
Gd85 N94 2.661 . S
Gd85 N98 2.601 . S
Gd85 O129 2.362 . S
Gd85 O130 2.324 . S
Gd85 O134 2.545 . S
Gd85 O135 2.606 . S
Gd85 O137 2.429 . S
Gd85 O138 2.545 . S
Gd85 O139 2.412 . S
Gd85 C152 2.828 . S
C86 C89 1.417 . S
C86 C91 1.431 . S
C86 C92 1.412 . S
C87 C90 1.437 . S
C87 C91 1.317 . S
C87 H106 0.929 . S
C88 C89 1.426 . S
C88 C90 1.413 . S
C88 N98 1.359 . S
C89 C86 1.417 . S
C89 C88 1.426 . S
C89 N94 1.350 . S
C90 C87 1.437 . S
C90 C88 1.413 . S
C90 C100 1.391 . S
C91 C86 1.431 . S
C91 C87 1.317 . S
C91 H102 0.930 . S
C92 C86 1.412 . S
C92 C93 1.355 . S
C92 H104 0.930 . S
C93 C92 1.355 . S
C93 C95 1.402 . S
C93 H105 0.930 . S
N94 Gd85 2.661 . S
N94 C89 1.350 . S
N94 C95 1.307 . S
C95 C93 1.402 . S
C95 N94 1.307 . S
C95 H96 0.930 . S
H96 C95 0.930 . S
C97 N98 1.334 . S
C97 C99 1.394 . S
C97 H101 0.930 . S
N98 Gd85 2.601 . S
N98 C88 1.359 . S
N98 C97 1.334 . S
C99 C97 1.394 . S
C99 C100 1.359 . S
C99 H111 0.930 . S
C100 C90 1.391 . S
C100 C99 1.359 . S
C100 H112 0.929 . S
H101 C97 0.930 . S
H102 C91 0.930 . S
H103 C120 0.930 . S
H104 C92 0.930 . S
H105 C93 0.930 . S
H106 C87 0.929 . S
H107 C125 0.930 . S
H108 C116 0.930 1_455 S
H109 C117 0.930 . S
H110 C141 0.929 . S
H111 C99 0.930 . S
H112 C100 0.929 . S
H113 C142 0.930 . S
H114 C123 0.930 . S
N115 Gd84 2.661 . S
N115 C119 1.350 . S
N115 C120 1.307 . S
C116 H108 0.930 1_655 S
C116 C117 1.355 . S
C116 C118 1.412 . S
C117 H109 0.930 . S
C117 C116 1.355 . S
C117 C120 1.402 . S
C118 C116 1.412 . S
C118 C119 1.417 . S
C118 C142 1.431 1_655 S
C119 N115 1.350 . S
C119 C118 1.417 . S
C119 C122 1.426 . S
C120 H103 0.930 . S
C120 N115 1.307 . S
C120 C117 1.402 . S
N121 Gd84 2.601 . S
N121 C122 1.359 . S
N121 C125 1.334 . S
C122 C119 1.426 . S
C122 N121 1.359 . S
C122 C126 1.413 . S
C123 H114 0.930 . S
C123 C124 1.359 . S
C123 C125 1.394 . S
C124 C123 1.359 . S
C124 C126 1.391 . S
C124 H127 0.929 . S
C125 H107 0.930 . S
C125 N121 1.334 . S
C125 C123 1.394 . S
C126 C122 1.413 . S
C126 C124 1.391 . S
C126 C141 1.437 1_655 S
H127 C124 0.929 . S
O128 Gd84 2.545 . S
O128 C143 1.258 . S
O129 Gd84 2.606 . S
O129 Gd85 2.362 . S
O129 C140 1.284 . S
O130 Gd85 2.324 . S
O130 C150 1.254 . S
O131 Gd84 2.429 . S
O131 C150 1.268 . S
O132 Gd84 2.545 . S
O132 C140 1.250 . S
O133 Gd84 2.412 . S
O133 C143 1.252 . S
O134 Gd85 2.545 . S
O134 C152 1.258 . S
O135 Gd84 2.362 . S
O135 Gd85 2.606 . S
O135 C151 1.284 . S
O136 Gd84 2.324 . S
O136 C159 1.254 . S
O137 Gd85 2.429 . S
O137 C159 1.268 . S
O138 Gd85 2.545 . S
O138 C151 1.250 . S
O139 Gd85 2.412 . S
O139 C152 1.252 . S
C140 O129 1.284 . S
C140 O132 1.250 . S
C141 H110 0.929 . S
C141 C126 1.437 1_455 S
C141 C142 1.317 . S
C142 H113 0.930 . S
C142 C118 1.431 1_455 S
C142 C141 1.317 . S
C143 Gd84 2.828 . S
C143 O128 1.258 . S
C143 O133 1.252 . S
C143 C144 1.497 . S
C144 C143 1.497 . S
C144 C145 1.395 . S
C144 C146 1.380 . S
C145 C144 1.395 . S
C145 C148 1.398 . S
C145 H160 0.930 . S
C146 C144 1.380 . S
C146 C147 1.391 . S
C146 H161 0.930 . S
C147 C146 1.391 . S
C147 C149 1.387 . S
C148 C145 1.398 . S
C148 C149 1.380 . S
C148 H162 0.930 . S
C149 C147 1.387 . S
C149 C148 1.380 . S
C149 H163 0.930 . S
C150 O130 1.254 . S
C150 O131 1.268 . S
C151 O135 1.284 . S
C151 O138 1.250 . S
C152 Gd85 2.828 . S
C152 O134 1.258 . S
C152 O139 1.252 . S
C152 C153 1.497 . S
C153 C152 1.497 . S
C153 C154 1.395 . S
C153 C155 1.380 . S
C154 C153 1.395 . S
C154 C157 1.398 . S
C154 H164 0.930 . S
C155 C153 1.380 . S
C155 C156 1.391 . S
C155 H165 0.930 . S
C156 C155 1.391 . S
C156 C158 1.387 . S
C157 C154 1.398 . S
C157 C158 1.380 . S
C157 H166 0.930 . S
C158 C156 1.387 . S
C158 C157 1.380 . S
C158 H167 0.930 . S
C159 O136 1.254 . S
C159 O137 1.268 . S
H160 C145 0.930 . S
H161 C146 0.930 . S
H162 C148 0.930 . S
H163 C149 0.930 . S
H164 C154 0.930 . S
H165 C155 0.930 . S
H166 C157 0.930 . S
H167 C158 0.930 . S
Gd168 N199 2.661 . S
Gd168 N205 2.601 . S
Gd168 O212 2.545 . S
Gd168 O213 2.606 . S
Gd168 O215 2.429 . S
Gd168 O216 2.545 . S
Gd168 O217 2.412 . S
Gd168 O219 2.362 . S
Gd168 O220 2.324 . S
Gd168 C227 2.828 . S
Gd169 N178 2.661 . S
Gd169 N182 2.601 . S
Gd169 O213 2.362 . S
Gd169 O214 2.324 . S
Gd169 O218 2.545 . S
Gd169 O219 2.606 . S
Gd169 O221 2.429 . S
Gd169 O222 2.545 . S
Gd169 O223 2.412 . S
Gd169 C236 2.828 . S
C170 C173 1.417 . S
C170 C175 1.431 1_545 S
C170 C176 1.412 . S
C171 C174 1.437 1_565 S
C171 C175 1.317 . S
C171 H190 0.929 . S
C172 C173 1.426 . S
C172 C174 1.413 . S
C172 N182 1.359 . S
C173 C170 1.417 . S
C173 C172 1.426 . S
C173 N178 1.350 . S
C174 C171 1.437 1_545 S
C174 C172 1.413 . S
C174 C184 1.391 . S
C175 C170 1.431 1_565 S
C175 C171 1.317 . S
C175 H186 0.930 . S
C176 C170 1.412 . S
C176 C177 1.355 . S
C176 H188 0.930 1_545 S
C177 C176 1.355 . S
C177 C179 1.402 . S
C177 H189 0.930 . S
N178 Gd169 2.661 . S
N178 C173 1.350 . S
N178 C179 1.307 . S
C179 C177 1.402 . S
C179 N178 1.307 . S
C179 H180 0.930 . S
H180 C179 0.930 . S
C181 N182 1.334 . S
C181 C183 1.394 . S
C181 H185 0.930 . S
N182 Gd169 2.601 . S
N182 C172 1.359 . S
N182 C181 1.334 . S
C183 C181 1.394 . S
C183 C184 1.359 . S
C183 H195 0.930 . S
C184 C174 1.391 . S
C184 C183 1.359 . S
C184 H196 0.929 . S
H185 C181 0.930 . S
H186 C175 0.930 . S
H187 C204 0.930 . S
H188 C176 0.930 1_565 S
H189 C177 0.930 . S
H190 C171 0.929 . S
H191 C209 0.930 . S
H192 C200 0.930 . S
H193 C201 0.930 . S
H194 C225 0.929 1_455 S
H195 C183 0.930 . S
H196 C184 0.929 . S
H197 C226 0.930 1_455 S
H198 C207 0.930 . S
N199 Gd168 2.661 . S
N199 C203 1.350 . S
N199 C204 1.307 . S
C200 H192 0.930 . S
C200 C201 1.355 . S
C200 C202 1.412 . S
C201 H193 0.930 . S
C201 C200 1.355 . S
C201 C204 1.402 . S
C202 C200 1.412 . S
C202 C203 1.417 . S
C202 C226 1.431 . S
C203 N199 1.350 . S
C203 C202 1.417 . S
C203 C206 1.426 . S
C204 H187 0.930 . S
C204 N199 1.307 . S
C204 C201 1.402 . S
N205 Gd168 2.601 . S
N205 C206 1.359 . S
N205 C209 1.334 . S
C206 C203 1.426 . S
C206 N205 1.359 . S
C206 C210 1.413 . S
C207 H198 0.930 . S
C207 C208 1.359 . S
C207 C209 1.394 . S
C208 C207 1.359 . S
C208 C210 1.391 . S
C208 H211 0.929 . S
C209 H191 0.930 . S
C209 N205 1.334 . S
C209 C207 1.394 . S
C210 C206 1.413 . S
C210 C208 1.391 . S
C210 C225 1.437 . S
H211 C208 0.929 . S
O212 Gd168 2.545 . S
O212 C227 1.258 . S
O213 Gd168 2.606 . S
O213 Gd169 2.362 . S
O213 C224 1.284 . S
O214 Gd169 2.324 . S
O214 C234 1.254 . S
O215 Gd168 2.429 . S
O215 C234 1.268 . S
O216 Gd168 2.545 . S
O216 C224 1.250 . S
O217 Gd168 2.412 . S
O217 C227 1.252 . S
O218 Gd169 2.545 . S
O218 C236 1.258 . S
O219 Gd168 2.362 . S
O219 Gd169 2.606 . S
O219 C235 1.284 . S
O220 Gd168 2.324 . S
O220 C243 1.254 . S
O221 Gd169 2.429 . S
O221 C243 1.268 . S
O222 Gd169 2.545 . S
O222 C235 1.250 . S
O223 Gd169 2.412 . S
O223 C236 1.252 . S
C224 O213 1.284 . S
C224 O216 1.250 . S
C225 H194 0.929 1_655 S
C225 C210 1.437 . S
C225 C226 1.317 . S
C226 H197 0.930 1_655 S
C226 C202 1.431 . S
C226 C225 1.317 . S
C227 Gd168 2.828 . S
C227 O212 1.258 . S
C227 O217 1.252 . S
C227 C228 1.497 1_655 S
C228 C227 1.497 1_455 S
C228 C229 1.395 . S
C228 C230 1.380 . S
C229 C228 1.395 . S
C229 C232 1.398 . S
C229 H244 0.930 . S
C230 C228 1.380 . S
C230 C231 1.391 . S
C230 H245 0.930 . S
C231 C230 1.391 . S
C231 C233 1.387 . S
C232 C229 1.398 . S
C232 C233 1.380 . S
C232 H246 0.930 . S
C233 C231 1.387 . S
C233 C232 1.380 . S
C233 H247 0.930 . S
C234 O214 1.254 . S
C234 O215 1.268 . S
C235 O219 1.284 . S
C235 O222 1.250 . S
C236 Gd169 2.828 . S
C236 O218 1.258 . S
C236 O223 1.252 . S
C236 C237 1.497 . S
C237 C236 1.497 . S
C237 C238 1.395 . S
C237 C239 1.380 . S
C238 C237 1.395 . S
C238 C241 1.398 . S
C238 H248 0.930 . S
C239 C237 1.380 . S
C239 C240 1.391 . S
C239 H249 0.930 . S
C240 C239 1.391 . S
C240 C242 1.387 . S
C241 C238 1.398 . S
C241 C242 1.380 . S
C241 H250 0.930 . S
C242 C240 1.387 . S
C242 C241 1.380 . S
C242 H251 0.930 . S
C243 O220 1.254 . S
C243 O221 1.268 . S
H244 C229 0.930 . S
H245 C230 0.930 . S
H246 C232 0.930 . S
H247 C233 0.930 . S
H248 C238 0.930 . S
H249 C239 0.930 . S
H250 C241 0.930 . S
H251 C242 0.930 . S
Gd252 N283 2.661 . S
Gd252 N289 2.601 . S
Gd252 O296 2.545 . S
Gd252 O297 2.606 . S
Gd252 O299 2.429 . S
Gd252 O300 2.545 . S
Gd252 O301 2.412 . S
Gd252 O303 2.362 . S
Gd252 O304 2.324 . S
Gd252 C311 2.828 . S
Gd253 N262 2.661 . S
Gd253 N266 2.601 . S
Gd253 O297 2.362 . S
Gd253 O298 2.324 . S
Gd253 O302 2.545 . S
Gd253 O303 2.606 . S
Gd253 O305 2.429 . S
Gd253 O306 2.545 . S
Gd253 O307 2.412 . S
Gd253 C320 2.828 . S
C254 C257 1.417 . S
C254 C259 1.431 . S
C254 C260 1.412 . S
C255 C258 1.437 . S
C255 C259 1.317 . S
C255 H274 0.929 1_545 S
C256 C257 1.426 . S
C256 C258 1.413 . S
C256 N266 1.359 . S
C257 C254 1.417 . S
C257 C256 1.426 . S
C257 N262 1.350 . S
C258 C255 1.437 . S
C258 C256 1.413 . S
C258 C268 1.391 . S
C259 C254 1.431 . S
C259 C255 1.317 . S
C259 H270 0.930 1_545 S
C260 C254 1.412 . S
C260 C261 1.355 . S
C260 H272 0.930 . S
C261 C260 1.355 . S
C261 C263 1.402 . S
C261 H273 0.930 . S
N262 Gd253 2.661 . S
N262 C257 1.350 . S
N262 C263 1.307 . S
C263 C261 1.402 . S
C263 N262 1.307 . S
C263 H264 0.930 . S
H264 C263 0.930 . S
C265 N266 1.334 . S
C265 C267 1.394 . S
C265 H269 0.930 . S
N266 Gd253 2.601 . S
N266 C256 1.359 . S
N266 C265 1.334 . S
C267 C265 1.394 . S
C267 C268 1.359 . S
C267 H279 0.930 . S
C268 C258 1.391 . S
C268 C267 1.359 . S
C268 H280 0.929 . S
H269 C265 0.930 . S
H270 C259 0.930 1_565 S
H271 C288 0.930 . S
H272 C260 0.930 . S
H273 C261 0.930 . S
H274 C255 0.929 1_565 S
H275 C293 0.930 . S
H276 C284 0.930 . S
H277 C285 0.930 . S
H278 C309 0.929 . S
H279 C267 0.930 . S
H280 C268 0.929 . S
H281 C310 0.930 . S
H282 C291 0.930 . S
N283 Gd252 2.661 . S
N283 C287 1.350 . S
N283 C288 1.307 . S
C284 H276 0.930 . S
C284 C285 1.355 . S
C284 C286 1.412 . S
C285 H277 0.930 . S
C285 C284 1.355 . S
C285 C288 1.402 . S
C286 C284 1.412 . S
C286 C287 1.417 . S
C286 C310 1.431 . S
C287 N283 1.350 . S
C287 C286 1.417 . S
C287 C290 1.426 . S
C288 H271 0.930 . S
C288 N283 1.307 . S
C288 C285 1.402 . S
N289 Gd252 2.601 . S
N289 C290 1.359 . S
N289 C293 1.334 . S
C290 C287 1.426 . S
C290 N289 1.359 . S
C290 C294 1.413 . S
C291 H282 0.930 . S
C291 C292 1.359 . S
C291 C293 1.394 . S
C292 C291 1.359 . S
C292 C294 1.391 . S
C292 H295 0.929 . S
C293 H275 0.930 . S
C293 N289 1.334 . S
C293 C291 1.394 . S
C294 C290 1.413 . S
C294 C292 1.391 . S
C294 C309 1.437 . S
H295 C292 0.929 . S
O296 Gd252 2.545 . S
O296 C311 1.258 . S
O297 Gd252 2.606 . S
O297 Gd253 2.362 . S
O297 C308 1.284 . S
O298 Gd253 2.324 . S
O298 C318 1.254 . S
O299 Gd252 2.429 . S
O299 C318 1.268 . S
O300 Gd252 2.545 . S
O300 C308 1.250 . S
O301 Gd252 2.412 . S
O301 C311 1.252 . S
O302 Gd253 2.545 . S
O302 C320 1.258 . S
O303 Gd252 2.362 . S
O303 Gd253 2.606 . S
O303 C319 1.284 . S
O304 Gd252 2.324 . S
O304 C327 1.254 . S
O305 Gd253 2.429 . S
O305 C327 1.268 . S
O306 Gd253 2.545 . S
O306 C319 1.250 . S
O307 Gd253 2.412 . S
O307 C320 1.252 . S
C308 O297 1.284 . S
C308 O300 1.250 . S
C309 H278 0.929 . S
C309 C294 1.437 . S
C309 C310 1.317 . S
C310 H281 0.930 . S
C310 C286 1.431 . S
C310 C309 1.317 . S
C311 Gd252 2.828 . S
C311 O296 1.258 . S
C311 O301 1.252 . S
C311 C312 1.497 . S
C312 C311 1.497 . S
C312 C313 1.395 . S
C312 C314 1.380 . S
C313 C312 1.395 . S
C313 C316 1.398 . S
C313 H328 0.930 . S
C314 C312 1.380 . S
C314 C315 1.391 . S
C314 H329 0.930 . S
C315 C314 1.391 . S
C315 C317 1.387 . S
C316 C313 1.398 . S
C316 C317 1.380 . S
C316 H330 0.930 . S
C317 C315 1.387 . S
C317 C316 1.380 . S
C317 H331 0.930 . S
C318 O298 1.254 . S
C318 O299 1.268 . S
C319 O303 1.284 . S
C319 O306 1.250 . S
C320 Gd253 2.828 . S
C320 O302 1.258 . S
C320 O307 1.252 . S
C320 C321 1.497 1_545 S
C321 C320 1.497 1_565 S
C321 C322 1.395 . S
C321 C323 1.380 . S
C322 C321 1.395 . S
C322 C325 1.398 . S
C322 H332 0.930 . S
C323 C321 1.380 . S
C323 C324 1.391 . S
C323 H333 0.930 . S
C324 C323 1.391 . S
C324 C326 1.387 . S
C325 C322 1.398 . S
C325 C326 1.380 . S
C325 H334 0.930 . S
C326 C324 1.387 . S
C326 C325 1.380 . S
C326 H335 0.930 . S
C327 O304 1.254 . S
C327 O305 1.268 . S
H328 C313 0.930 . S
H329 C314 0.930 . S
H330 C316 0.930 . S
H331 C317 0.930 . S
H332 C322 0.930 . S
H333 C323 0.930 . S
H334 C325 0.930 . S
H335 C326 0.930 . S
Gd336 N367 2.661 . S
Gd336 N373 2.601 . S
Gd336 O380 2.545 . S
Gd336 O381 2.606 . S
Gd336 O383 2.429 . S
Gd336 O384 2.545 . S
Gd336 O385 2.412 . S
Gd336 O387 2.362 . S
Gd336 O388 2.324 . S
Gd336 C395 2.828 . S
Gd337 N346 2.661 . S
Gd337 N350 2.601 . S
Gd337 O381 2.362 . S
Gd337 O382 2.324 . S
Gd337 O386 2.545 . S
Gd337 O387 2.606 . S
Gd337 O389 2.429 . S
Gd337 O390 2.545 . S
Gd337 O391 2.412 . S
Gd337 C404 2.828 . S
C338 C341 1.417 . S
C338 C343 1.431 1_655 S
C338 C344 1.412 . S
C339 C342 1.437 1_455 S
C339 C343 1.317 . S
C339 H358 0.929 . S
C340 C341 1.426 . S
C340 C342 1.413 . S
C340 N350 1.359 . S
C341 C338 1.417 . S
C341 C340 1.426 . S
C341 N346 1.350 . S
C342 C339 1.437 1_655 S
C342 C340 1.413 . S
C342 C352 1.391 . S
C343 C338 1.431 1_455 S
C343 C339 1.317 . S
C343 H354 0.930 . S
C344 C338 1.412 . S
C344 C345 1.355 . S
C344 H356 0.930 1_655 S
C345 C344 1.355 . S
C345 C347 1.402 . S
C345 H357 0.930 . S
N346 Gd337 2.661 . S
N346 C341 1.350 . S
N346 C347 1.307 . S
C347 C345 1.402 . S
C347 N346 1.307 . S
C347 H348 0.930 . S
H348 C347 0.930 . S
C349 N350 1.334 . S
C349 C351 1.394 . S
C349 H353 0.930 . S
N350 Gd337 2.601 . S
N350 C340 1.359 . S
N350 C349 1.334 . S
C351 C349 1.394 . S
C351 C352 1.359 . S
C351 H363 0.930 . S
C352 C342 1.391 . S
C352 C351 1.359 . S
C352 H364 0.929 . S
H353 C349 0.930 . S
H354 C343 0.930 . S
H355 C372 0.930 . S
H356 C344 0.930 1_455 S
H357 C345 0.930 . S
H358 C339 0.929 . S
H359 C377 0.930 . S
H360 C368 0.930 . S
H361 C369 0.930 . S
H362 C393 0.929 . S
H363 C351 0.930 . S
H364 C352 0.929 . S
H365 C394 0.930 . S
H366 C375 0.930 . S
N367 Gd336 2.661 . S
N367 C371 1.350 . S
N367 C372 1.307 . S
C368 H360 0.930 . S
C368 C369 1.355 . S
C368 C370 1.412 . S
C369 H361 0.930 . S
C369 C368 1.355 . S
C369 C372 1.402 . S
C370 C368 1.412 . S
C370 C371 1.417 . S
C370 C394 1.431 . S
C371 N367 1.350 . S
C371 C370 1.417 . S
C371 C374 1.426 . S
C372 H355 0.930 . S
C372 N367 1.307 . S
C372 C369 1.402 . S
N373 Gd336 2.601 . S
N373 C374 1.359 . S
N373 C377 1.334 . S
C374 C371 1.426 . S
C374 N373 1.359 . S
C374 C378 1.413 . S
C375 H366 0.930 . S
C375 C376 1.359 . S
C375 C377 1.394 . S
C376 C375 1.359 . S
C376 C378 1.391 . S
C376 H379 0.929 . S
C377 H359 0.930 . S
C377 N373 1.334 . S
C377 C375 1.394 . S
C378 C374 1.413 . S
C378 C376 1.391 . S
C378 C393 1.437 . S
H379 C376 0.929 . S
O380 Gd336 2.545 . S
O380 C395 1.258 . S
O381 Gd336 2.606 . S
O381 Gd337 2.362 . S
O381 C392 1.284 . S
O382 Gd337 2.324 . S
O382 C402 1.254 . S
O383 Gd336 2.429 . S
O383 C402 1.268 . S
O384 Gd336 2.545 . S
O384 C392 1.250 . S
O385 Gd336 2.412 . S
O385 C395 1.252 . S
O386 Gd337 2.545 . S
O386 C404 1.258 . S
O387 Gd336 2.362 . S
O387 Gd337 2.606 . S
O387 C403 1.284 . S
O388 Gd336 2.324 . S
O388 C411 1.254 . S
O389 Gd337 2.429 . S
O389 C411 1.268 . S
O390 Gd337 2.545 . S
O390 C403 1.250 . S
O391 Gd337 2.412 . S
O391 C404 1.252 . S
C392 O381 1.284 . S
C392 O384 1.250 . S
C393 H362 0.929 . S
C393 C378 1.437 . S
C393 C394 1.317 . S
C394 H365 0.930 . S
C394 C370 1.431 . S
C394 C393 1.317 . S
C395 Gd336 2.828 . S
C395 O380 1.258 . S
C395 O385 1.252 . S
C395 C396 1.497 . S
C396 C395 1.497 . S
C396 C397 1.395 . S
C396 C398 1.380 . S
C397 C396 1.395 . S
C397 C400 1.398 . S
C397 H412 0.930 . S
C398 C396 1.380 . S
C398 C399 1.391 . S
C398 H413 0.930 . S
C399 C398 1.391 . S
C399 C401 1.387 . S
C400 C397 1.398 . S
C400 C401 1.380 . S
C400 H414 0.930 . S
C401 C399 1.387 . S
C401 C400 1.380 . S
C401 H415 0.930 . S
C402 O382 1.254 . S
C402 O383 1.268 . S
C403 O387 1.284 . S
C403 O390 1.250 . S
C404 Gd337 2.828 . S
C404 O386 1.258 . S
C404 O391 1.252 . S
C404 C405 1.497 . S
C405 C404 1.497 . S
C405 C406 1.395 . S
C405 C407 1.380 . S
C406 C405 1.395 . S
C406 C409 1.398 . S
C406 H416 0.930 . S
C407 C405 1.380 . S
C407 C408 1.391 . S
C407 H417 0.930 . S
C408 C407 1.391 . S
C408 C410 1.387 . S
C409 C406 1.398 . S
C409 C410 1.380 . S
C409 H418 0.930 . S
C410 C408 1.387 . S
C410 C409 1.380 . S
C410 H419 0.930 . S
C411 O388 1.254 . S
C411 O389 1.268 . S
H412 C397 0.930 . S
H413 C398 0.930 . S
H414 C400 0.930 . S
H415 C401 0.930 . S
H416 C406 0.930 . S
H417 C407 0.930 . S
H418 C409 0.930 . S
H419 C410 0.930 . S
Gd420 N451 2.661 . S
Gd420 N457 2.601 . S
Gd420 O464 2.545 . S
Gd420 O465 2.606 . S
Gd420 O467 2.429 . S
Gd420 O468 2.545 . S
Gd420 O469 2.412 . S
Gd420 O471 2.362 . S
Gd420 O472 2.324 . S
Gd420 C479 2.828 . S
Gd421 N430 2.661 . S
Gd421 N434 2.601 . S
Gd421 O465 2.362 . S
Gd421 O466 2.324 . S
Gd421 O470 2.545 . S
Gd421 O471 2.606 . S
Gd421 O473 2.429 . S
Gd421 O474 2.545 . S
Gd421 O475 2.412 . S
Gd421 C488 2.828 . S
C422 C425 1.417 . S
C422 C427 1.431 . S
C422 C428 1.412 . S
C423 C426 1.437 . S
C423 C427 1.317 . S
C423 H442 0.929 1_655 S
C424 C425 1.426 . S
C424 C426 1.413 . S
C424 N434 1.359 . S
C425 C422 1.417 . S
C425 C424 1.426 . S
C425 N430 1.350 . S
C426 C423 1.437 . S
C426 C424 1.413 . S
C426 C436 1.391 . S
C427 C422 1.431 . S
C427 C423 1.317 . S
C427 H438 0.930 1_655 S
C428 C422 1.412 . S
C428 C429 1.355 . S
C428 H440 0.930 . S
C429 C428 1.355 . S
C429 C431 1.402 . S
C429 H441 0.930 . S
N430 Gd421 2.661 . S
N430 C425 1.350 . S
N430 C431 1.307 . S
C431 C429 1.402 . S
C431 N430 1.307 . S
C431 H432 0.930 . S
H432 C431 0.930 . S
C433 N434 1.334 . S
C433 C435 1.394 . S
C433 H437 0.930 . S
N434 Gd421 2.601 . S
N434 C424 1.359 . S
N434 C433 1.334 . S
C435 C433 1.394 . S
C435 C436 1.359 . S
C435 H447 0.930 . S
C436 C426 1.391 . S
C436 C435 1.359 . S
C436 H448 0.929 . S
H437 C433 0.930 . S
H438 C427 0.930 1_455 S
H439 C456 0.930 . S
H440 C428 0.930 . S
H441 C429 0.930 . S
H442 C423 0.929 1_455 S
H443 C461 0.930 . S
H444 C452 0.930 1_565 S
H445 C453 0.930 . S
H446 C477 0.929 . S
H447 C435 0.930 . S
H448 C436 0.929 . S
H449 C478 0.930 . S
H450 C459 0.930 . S
N451 Gd420 2.661 . S
N451 C455 1.350 . S
N451 C456 1.307 . S
C452 H444 0.930 1_545 S
C452 C453 1.355 . S
C452 C454 1.412 . S
C453 H445 0.930 . S
C453 C452 1.355 . S
C453 C456 1.402 . S
C454 C452 1.412 . S
C454 C455 1.417 . S
C454 C478 1.431 1_545 S
C455 N451 1.350 . S
C455 C454 1.417 . S
C455 C458 1.426 . S
C456 H439 0.930 . S
C456 N451 1.307 . S
C456 C453 1.402 . S
N457 Gd420 2.601 . S
N457 C458 1.359 . S
N457 C461 1.334 . S
C458 C455 1.426 . S
C458 N457 1.359 . S
C458 C462 1.413 . S
C459 H450 0.930 . S
C459 C460 1.359 . S
C459 C461 1.394 . S
C460 C459 1.359 . S
C460 C462 1.391 . S
C460 H463 0.929 . S
C461 H443 0.930 . S
C461 N457 1.334 . S
C461 C459 1.394 . S
C462 C458 1.413 . S
C462 C460 1.391 . S
C462 C477 1.437 1_545 S
H463 C460 0.929 . S
O464 Gd420 2.545 . S
O464 C479 1.258 . S
O465 Gd420 2.606 . S
O465 Gd421 2.362 . S
O465 C476 1.284 . S
O466 Gd421 2.324 . S
O466 C486 1.254 . S
O467 Gd420 2.429 . S
O467 C486 1.268 . S
O468 Gd420 2.545 . S
O468 C476 1.250 . S
O469 Gd420 2.412 . S
O469 C479 1.252 . S
O470 Gd421 2.545 . S
O470 C488 1.258 . S
O471 Gd420 2.362 . S
O471 Gd421 2.606 . S
O471 C487 1.284 . S
O472 Gd420 2.324 . S
O472 C495 1.254 . S
O473 Gd421 2.429 . S
O473 C495 1.268 . S
O474 Gd421 2.545 . S
O474 C487 1.250 . S
O475 Gd421 2.412 . S
O475 C488 1.252 . S
C476 O465 1.284 . S
C476 O468 1.250 . S
C477 H446 0.929 . S
C477 C462 1.437 1_565 S
C477 C478 1.317 . S
C478 H449 0.930 . S
C478 C454 1.431 1_565 S
C478 C477 1.317 . S
C479 Gd420 2.828 . S
C479 O464 1.258 . S
C479 O469 1.252 . S
C479 C480 1.497 . S
C480 C479 1.497 . S
C480 C481 1.395 . S
C480 C482 1.380 . S
C481 C480 1.395 . S
C481 C484 1.398 . S
C481 H496 0.930 . S
C482 C480 1.380 . S
C482 C483 1.391 . S
C482 H497 0.930 . S
C483 C482 1.391 . S
C483 C485 1.387 . S
C484 C481 1.398 . S
C484 C485 1.380 . S
C484 H498 0.930 . S
C485 C483 1.387 . S
C485 C484 1.380 . S
C485 H499 0.930 . S
C486 O466 1.254 . S
C486 O467 1.268 . S
C487 O471 1.284 . S
C487 O474 1.250 . S
C488 Gd421 2.828 . S
C488 O470 1.258 . S
C488 O475 1.252 . S
C488 C489 1.497 1_655 S
C489 C488 1.497 1_455 S
C489 C490 1.395 . S
C489 C491 1.380 . S
C490 C489 1.395 . S
C490 C493 1.398 . S
C490 H500 0.930 . S
C491 C489 1.380 . S
C491 C492 1.391 . S
C491 H501 0.930 . S
C492 C491 1.391 . S
C492 C494 1.387 . S
C493 C490 1.398 . S
C493 C494 1.380 . S
C493 H502 0.930 . S
C494 C492 1.387 . S
C494 C493 1.380 . S
C494 H503 0.930 . S
C495 O472 1.254 . S
C495 O473 1.268 . S
H496 C481 0.930 . S
H497 C482 0.930 . S
H498 C484 0.930 . S
H499 C485 0.930 . S
H500 C490 0.930 . S
H501 C491 0.930 . S
H502 C493 0.930 . S
H503 C494 0.930 . S
Gd504 N535 2.661 . S
Gd504 N541 2.601 . S
Gd504 O548 2.545 . S
Gd504 O549 2.606 . S
Gd504 O551 2.429 . S
Gd504 O552 2.545 . S
Gd504 O553 2.412 . S
Gd504 O555 2.362 . S
Gd504 O556 2.324 . S
Gd504 C563 2.828 . S
Gd505 N514 2.661 . S
Gd505 N518 2.601 . S
Gd505 O549 2.362 . S
Gd505 O550 2.324 . S
Gd505 O554 2.545 . S
Gd505 O555 2.606 . S
Gd505 O557 2.429 . S
Gd505 O558 2.545 . S
Gd505 O559 2.412 . S
Gd505 C572 2.828 . S
C506 C509 1.417 . S
C506 C511 1.431 . S
C506 C512 1.412 . S
C507 C510 1.437 . S
C507 C511 1.317 . S
C507 H526 0.929 1_455 S
C508 C509 1.426 . S
C508 C510 1.413 . S
C508 N518 1.359 . S
C509 C506 1.417 . S
C509 C508 1.426 . S
C509 N514 1.350 . S
C510 C507 1.437 . S
C510 C508 1.413 . S
C510 C520 1.391 . S
C511 C506 1.431 . S
C511 C507 1.317 . S
C511 H522 0.930 1_455 S
C512 C506 1.412 . S
C512 C513 1.355 . S
C512 H524 0.930 . S
C513 C512 1.355 . S
C513 C515 1.402 . S
C513 H525 0.930 . S
N514 Gd505 2.661 . S
N514 C509 1.350 . S
N514 C515 1.307 . S
C515 C513 1.402 . S
C515 N514 1.307 . S
C515 H516 0.930 . S
H516 C515 0.930 . S
C517 N518 1.334 . S
C517 C519 1.394 . S
C517 H521 0.930 . S
N518 Gd505 2.601 . S
N518 C508 1.359 . S
N518 C517 1.334 . S
C519 C517 1.394 . S
C519 C520 1.359 . S
C519 H531 0.930 . S
C520 C510 1.391 . S
C520 C519 1.359 . S
C520 H532 0.929 . S
H521 C517 0.930 . S
H522 C511 0.930 1_655 S
H523 C540 0.930 . S
H524 C512 0.930 . S
H525 C513 0.930 . S
H526 C507 0.929 1_655 S
H527 C545 0.930 . S
H528 C536 0.930 . S
H529 C537 0.930 . S
H530 C561 0.929 . S
H531 C519 0.930 . S
H532 C520 0.929 . S
H533 C562 0.930 . S
H534 C543 0.930 . S
N535 Gd504 2.661 . S
N535 C539 1.350 . S
N535 C540 1.307 . S
C536 H528 0.930 . S
C536 C537 1.355 . S
C536 C538 1.412 . S
C537 H529 0.930 . S
C537 C536 1.355 . S
C537 C540 1.402 . S
C538 C536 1.412 . S
C538 C539 1.417 . S
C538 C562 1.431 . S
C539 N535 1.350 . S
C539 C538 1.417 . S
C539 C542 1.426 . S
C540 H523 0.930 . S
C540 N535 1.307 . S
C540 C537 1.402 . S
N541 Gd504 2.601 . S
N541 C542 1.359 . S
N541 C545 1.334 . S
C542 C539 1.426 . S
C542 N541 1.359 . S
C542 C546 1.413 . S
C543 H534 0.930 . S
C543 C544 1.359 . S
C543 C545 1.394 . S
C544 C543 1.359 . S
C544 C546 1.391 . S
C544 H547 0.929 . S
C545 H527 0.930 . S
C545 N541 1.334 . S
C545 C543 1.394 . S
C546 C542 1.413 . S
C546 C544 1.391 . S
C546 C561 1.437 . S
H547 C544 0.929 . S
O548 Gd504 2.545 . S
O548 C563 1.258 . S
O549 Gd504 2.606 . S
O549 Gd505 2.362 . S
O549 C560 1.284 . S
O550 Gd505 2.324 . S
O550 C570 1.254 . S
O551 Gd504 2.429 . S
O551 C570 1.268 . S
O552 Gd504 2.545 . S
O552 C560 1.250 . S
O553 Gd504 2.412 . S
O553 C563 1.252 . S
O554 Gd505 2.545 . S
O554 C572 1.258 . S
O555 Gd504 2.362 . S
O555 Gd505 2.606 . S
O555 C571 1.284 . S
O556 Gd504 2.324 . S
O556 C579 1.254 . S
O557 Gd505 2.429 . S
O557 C579 1.268 . S
O558 Gd505 2.545 . S
O558 C571 1.250 . S
O559 Gd505 2.412 . S
O559 C572 1.252 . S
C560 O549 1.284 . S
C560 O552 1.250 . S
C561 H530 0.929 . S
C561 C546 1.437 . S
C561 C562 1.317 . S
C562 H533 0.930 . S
C562 C538 1.431 . S
C562 C561 1.317 . S
C563 Gd504 2.828 . S
C563 O548 1.258 . S
C563 O553 1.252 . S
C563 C564 1.497 . S
C564 C563 1.497 . S
C564 C565 1.395 . S
C564 C566 1.380 . S
C565 C564 1.395 . S
C565 C568 1.398 . S
C565 H580 0.930 . S
C566 C564 1.380 . S
C566 C567 1.391 . S
C566 H581 0.930 . S
C567 C566 1.391 . S
C567 C569 1.387 . S
C568 C565 1.398 . S
C568 C569 1.380 . S
C568 H582 0.930 . S
C569 C567 1.387 . S
C569 C568 1.380 . S
C569 H583 0.930 . S
C570 O550 1.254 . S
C570 O551 1.268 . S
C571 O555 1.284 . S
C571 O558 1.250 . S
C572 Gd505 2.828 . S
C572 O554 1.258 . S
C572 O559 1.252 . S
C572 C573 1.497 1_455 S
C573 C572 1.497 1_655 S
C573 C574 1.395 . S
C573 C575 1.380 . S
C574 C573 1.395 . S
C574 C577 1.398 . S
C574 H584 0.930 . S
C575 C573 1.380 . S
C575 C576 1.391 . S
C575 H585 0.930 . S
C576 C575 1.391 . S
C576 C578 1.387 . S
C577 C574 1.398 . S
C577 C578 1.380 . S
C577 H586 0.930 . S
C578 C576 1.387 . S
C578 C577 1.380 . S
C578 H587 0.930 . S
C579 O556 1.254 . S
C579 O557 1.268 . S
H580 C565 0.930 . S
H581 C566 0.930 . S
H582 C568 0.930 . S
H583 C569 0.930 . S
H584 C574 0.930 . S
H585 C575 0.930 . S
H586 C577 0.930 . S
H587 C578 0.930 . S
Gd588 N619 2.661 . S
Gd588 N625 2.601 . S
Gd588 O632 2.545 . S
Gd588 O633 2.606 . S
Gd588 O635 2.429 . S
Gd588 O636 2.545 . S
Gd588 O637 2.412 . S
Gd588 O639 2.362 . S
Gd588 O640 2.324 . S
Gd588 C647 2.828 . S
Gd589 N598 2.661 . S
Gd589 N602 2.601 . S
Gd589 O633 2.362 . S
Gd589 O634 2.324 . S
Gd589 O638 2.545 . S
Gd589 O639 2.606 . S
Gd589 O641 2.429 . S
Gd589 O642 2.545 . S
Gd589 O643 2.412 . S
Gd589 C656 2.828 . S
C590 C593 1.417 . S
C590 C595 1.431 1_455 S
C590 C596 1.412 . S
C591 C594 1.437 1_655 S
C591 C595 1.317 . S
C591 H610 0.929 . S
C592 C593 1.426 . S
C592 C594 1.413 . S
C592 N602 1.359 . S
C593 C590 1.417 . S
C593 C592 1.426 . S
C593 N598 1.350 . S
C594 C591 1.437 1_455 S
C594 C592 1.413 . S
C594 C604 1.391 . S
C595 C590 1.431 1_655 S
C595 C591 1.317 . S
C595 H606 0.930 . S
C596 C590 1.412 . S
C596 C597 1.355 . S
C596 H608 0.930 1_455 S
C597 C596 1.355 . S
C597 C599 1.402 . S
C597 H609 0.930 . S
N598 Gd589 2.661 . S
N598 C593 1.350 . S
N598 C599 1.307 . S
C599 C597 1.402 . S
C599 N598 1.307 . S
C599 H600 0.930 . S
H600 C599 0.930 . S
C601 N602 1.334 . S
C601 C603 1.394 . S
C601 H605 0.930 . S
N602 Gd589 2.601 . S
N602 C592 1.359 . S
N602 C601 1.334 . S
C603 C601 1.394 . S
C603 C604 1.359 . S
C603 H615 0.930 . S
C604 C594 1.391 . S
C604 C603 1.359 . S
C604 H616 0.929 . S
H605 C601 0.930 . S
H606 C595 0.930 . S
H607 C624 0.930 . S
H608 C596 0.930 1_655 S
H609 C597 0.930 . S
H610 C591 0.929 . S
H611 C629 0.930 . S
H612 C620 0.930 . S
H613 C621 0.930 . S
H614 C645 0.929 1_545 S
H615 C603 0.930 . S
H616 C604 0.929 . S
H617 C646 0.930 1_545 S
H618 C627 0.930 . S
N619 Gd588 2.661 . S
N619 C623 1.350 . S
N619 C624 1.307 . S
C620 H612 0.930 . S
C620 C621 1.355 . S
C620 C622 1.412 . S
C621 H613 0.930 . S
C621 C620 1.355 . S
C621 C624 1.402 . S
C622 C620 1.412 . S
C622 C623 1.417 . S
C622 C646 1.431 . S
C623 N619 1.350 . S
C623 C622 1.417 . S
C623 C626 1.426 . S
C624 H607 0.930 . S
C624 N619 1.307 . S
C624 C621 1.402 . S
N625 Gd588 2.601 . S
N625 C626 1.359 . S
N625 C629 1.334 . S
C626 C623 1.426 . S
C626 N625 1.359 . S
C626 C630 1.413 . S
C627 H618 0.930 . S
C627 C628 1.359 . S
C627 C629 1.394 . S
C628 C627 1.359 . S
C628 C630 1.391 . S
C628 H631 0.929 . S
C629 H611 0.930 . S
C629 N625 1.334 . S
C629 C627 1.394 . S
C630 C626 1.413 . S
C630 C628 1.391 . S
C630 C645 1.437 . S
H631 C628 0.929 . S
O632 Gd588 2.545 . S
O632 C647 1.258 . S
O633 Gd588 2.606 . S
O633 Gd589 2.362 . S
O633 C644 1.284 . S
O634 Gd589 2.324 . S
O634 C654 1.254 . S
O635 Gd588 2.429 . S
O635 C654 1.268 . S
O636 Gd588 2.545 . S
O636 C644 1.250 . S
O637 Gd588 2.412 . S
O637 C647 1.252 . S
O638 Gd589 2.545 . S
O638 C656 1.258 . S
O639 Gd588 2.362 . S
O639 Gd589 2.606 . S
O639 C655 1.284 . S
O640 Gd588 2.324 . S
O640 C663 1.254 . S
O641 Gd589 2.429 . S
O641 C663 1.268 . S
O642 Gd589 2.545 . S
O642 C655 1.250 . S
O643 Gd589 2.412 . S
O643 C656 1.252 . S
C644 O633 1.284 . S
C644 O636 1.250 . S
C645 H614 0.929 1_565 S
C645 C630 1.437 . S
C645 C646 1.317 . S
C646 H617 0.930 1_565 S
C646 C622 1.431 . S
C646 C645 1.317 . S
C647 Gd588 2.828 . S
C647 O632 1.258 . S
C647 O637 1.252 . S
C647 C648 1.497 1_565 S
C648 C647 1.497 1_545 S
C648 C649 1.395 . S
C648 C650 1.380 . S
C649 C648 1.395 . S
C649 C652 1.398 . S
C649 H664 0.930 . S
C650 C648 1.380 . S
C650 C651 1.391 . S
C650 H665 0.930 . S
C651 C650 1.391 . S
C651 C653 1.387 . S
C652 C649 1.398 . S
C652 C653 1.380 . S
C652 H666 0.930 . S
C653 C651 1.387 . S
C653 C652 1.380 . S
C653 H667 0.930 . S
C654 O634 1.254 . S
C654 O635 1.268 . S
C655 O639 1.284 . S
C655 O642 1.250 . S
C656 Gd589 2.828 . S
C656 O638 1.258 . S
C656 O643 1.252 . S
C656 C657 1.497 . S
C657 C656 1.497 . S
C657 C658 1.395 . S
C657 C659 1.380 . S
C658 C657 1.395 . S
C658 C661 1.398 . S
C658 H668 0.930 . S
C659 C657 1.380 . S
C659 C660 1.391 . S
C659 H669 0.930 . S
C660 C659 1.391 . S
C660 C662 1.387 . S
C661 C658 1.398 . S
C661 C662 1.380 . S
C661 H670 0.930 . S
C662 C660 1.387 . S
C662 C661 1.380 . S
C662 H671 0.930 . S
C663 O640 1.254 . S
C663 O641 1.268 . S
H664 C649 0.930 . S
H665 C650 0.930 . S
H666 C652 0.930 . S
H667 C653 0.930 . S
H668 C658 0.930 . S
H669 C659 0.930 . S
H670 C661 0.930 . S
H671 C662 0.930 . S
Gd672 N703 2.661 . S
Gd672 N709 2.601 . S
Gd672 O716 2.545 . S
Gd672 O717 2.606 . S
Gd672 O719 2.429 . S
Gd672 O720 2.545 . S
Gd672 O721 2.412 . S
Gd672 O723 2.362 . S
Gd672 O724 2.324 . S
Gd672 C731 2.828 . S
Gd673 N682 2.661 . S
Gd673 N686 2.601 . S
Gd673 O717 2.362 . S
Gd673 O718 2.324 . S
Gd673 O722 2.545 . S
Gd673 O723 2.606 . S
Gd673 O725 2.429 . S
Gd673 O726 2.545 . S
Gd673 O727 2.412 . S
Gd673 C740 2.828 . S
C674 C677 1.417 . S
C674 C679 1.431 . S
C674 C680 1.412 . S
C675 C678 1.437 . S
C675 C679 1.317 . S
C675 H694 0.929 . S
C676 C677 1.426 . S
C676 C678 1.413 . S
C676 N686 1.359 . S
C677 C674 1.417 . S
C677 C676 1.426 . S
C677 N682 1.350 . S
C678 C675 1.437 . S
C678 C676 1.413 . S
C678 C688 1.391 . S
C679 C674 1.431 . S
C679 C675 1.317 . S
C679 H690 0.930 . S
C680 C674 1.412 . S
C680 C681 1.355 . S
C680 H692 0.930 . S
C681 C680 1.355 . S
C681 C683 1.402 . S
C681 H693 0.930 . S
N682 Gd673 2.661 . S
N682 C677 1.350 . S
N682 C683 1.307 . S
C683 C681 1.402 . S
C683 N682 1.307 . S
C683 H684 0.930 . S
H684 C683 0.930 . S
C685 N686 1.334 . S
C685 C687 1.394 . S
C685 H689 0.930 . S
N686 Gd673 2.601 . S
N686 C676 1.359 . S
N686 C685 1.334 . S
C687 C685 1.394 . S
C687 C688 1.359 . S
C687 H699 0.930 . S
C688 C678 1.391 . S
C688 C687 1.359 . S
C688 H700 0.929 . S
H689 C685 0.930 . S
H690 C679 0.930 . S
H691 C708 0.930 . S
H692 C680 0.930 . S
H693 C681 0.930 . S
H694 C675 0.929 . S
H695 C713 0.930 . S
H696 C704 0.930 1_545 S
H697 C705 0.930 . S
H698 C729 0.929 . S
H699 C687 0.930 . S
H700 C688 0.929 . S
H701 C730 0.930 . S
H702 C711 0.930 . S
N703 Gd672 2.661 . S
N703 C707 1.350 . S
N703 C708 1.307 . S
C704 H696 0.930 1_565 S
C704 C705 1.355 . S
C704 C706 1.412 . S
C705 H697 0.930 . S
C705 C704 1.355 . S
C705 C708 1.402 . S
C706 C704 1.412 . S
C706 C707 1.417 . S
C706 C730 1.431 1_565 S
C707 N703 1.350 . S
C707 C706 1.417 . S
C707 C710 1.426 . S
C708 H691 0.930 . S
C708 N703 1.307 . S
C708 C705 1.402 . S
N709 Gd672 2.601 . S
N709 C710 1.359 . S
N709 C713 1.334 . S
C710 C707 1.426 . S
C710 N709 1.359 . S
C710 C714 1.413 . S
C711 H702 0.930 . S
C711 C712 1.359 . S
C711 C713 1.394 . S
C712 C711 1.359 . S
C712 C714 1.391 . S
C712 H715 0.929 . S
C713 H695 0.930 . S
C713 N709 1.334 . S
C713 C711 1.394 . S
C714 C710 1.413 . S
C714 C712 1.391 . S
C714 C729 1.437 1_565 S
H715 C712 0.929 . S
O716 Gd672 2.545 . S
O716 C731 1.258 . S
O717 Gd672 2.606 . S
O717 Gd673 2.362 . S
O717 C728 1.284 . S
O718 Gd673 2.324 . S
O718 C738 1.254 . S
O719 Gd672 2.429 . S
O719 C738 1.268 . S
O720 Gd672 2.545 . S
O720 C728 1.250 . S
O721 Gd672 2.412 . S
O721 C731 1.252 . S
O722 Gd673 2.545 . S
O722 C740 1.258 . S
O723 Gd672 2.362 . S
O723 Gd673 2.606 . S
O723 C739 1.284 . S
O724 Gd672 2.324 . S
O724 C747 1.254 . S
O725 Gd673 2.429 . S
O725 C747 1.268 . S
O726 Gd673 2.545 . S
O726 C739 1.250 . S
O727 Gd673 2.412 . S
O727 C740 1.252 . S
C728 O717 1.284 . S
C728 O720 1.250 . S
C729 H698 0.929 . S
C729 C714 1.437 1_545 S
C729 C730 1.317 . S
C730 H701 0.930 . S
C730 C706 1.431 1_545 S
C730 C729 1.317 . S
C731 Gd672 2.828 . S
C731 O716 1.258 . S
C731 O721 1.252 . S
C731 C732 1.497 . S
C732 C731 1.497 . S
C732 C733 1.395 . S
C732 C734 1.380 . S
C733 C732 1.395 . S
C733 C736 1.398 . S
C733 H748 0.930 . S
C734 C732 1.380 . S
C734 C735 1.391 . S
C734 H749 0.930 . S
C735 C734 1.391 . S
C735 C737 1.387 . S
C736 C733 1.398 . S
C736 C737 1.380 . S
C736 H750 0.930 . S
C737 C735 1.387 . S
C737 C736 1.380 . S
C737 H751 0.930 . S
C738 O718 1.254 . S
C738 O719 1.268 . S
C739 O723 1.284 . S
C739 O726 1.250 . S
C740 Gd673 2.828 . S
C740 O722 1.258 . S
C740 O727 1.252 . S
C740 C741 1.497 . S
C741 C740 1.497 . S
C741 C742 1.395 . S
C741 C743 1.380 . S
C742 C741 1.395 . S
C742 C745 1.398 . S
C742 H752 0.930 . S
C743 C741 1.380 . S
C743 C744 1.391 . S
C743 H753 0.930 . S
C744 C743 1.391 . S
C744 C746 1.387 . S
C745 C742 1.398 . S
C745 C746 1.380 . S
C745 H754 0.930 . S
C746 C744 1.387 . S
C746 C745 1.380 . S
C746 H755 0.930 . S
C747 O724 1.254 . S
C747 O725 1.268 . S
H748 C733 0.930 . S
H749 C734 0.930 . S
H750 C736 0.930 . S
H751 C737 0.930 . S
H752 C742 0.930 . S
H753 C743 0.930 . S
H754 C745 0.930 . S
H755 C746 0.930 . S
Gd756 N787 2.661 . S
Gd756 N793 2.601 . S
Gd756 O800 2.545 . S
Gd756 O801 2.606 . S
Gd756 O803 2.429 . S
Gd756 O804 2.545 . S
Gd756 O805 2.412 . S
Gd756 O807 2.362 . S
Gd756 O808 2.324 . S
Gd756 C815 2.828 . S
Gd757 N766 2.661 . S
Gd757 N770 2.601 . S
Gd757 O801 2.362 . S
Gd757 O802 2.324 . S
Gd757 O806 2.545 . S
Gd757 O807 2.606 . S
Gd757 O809 2.429 . S
Gd757 O810 2.545 . S
Gd757 O811 2.412 . S
Gd757 C824 2.828 . S
C758 C761 1.417 . S
C758 C763 1.431 . S
C758 C764 1.412 . S
C759 C762 1.437 . S
C759 C763 1.317 . S
C759 H778 0.929 . S
C760 C761 1.426 . S
C760 C762 1.413 . S
C760 N770 1.359 . S
C761 C758 1.417 . S
C761 C760 1.426 . S
C761 N766 1.350 . S
C762 C759 1.437 . S
C762 C760 1.413 . S
C762 C772 1.391 . S
C763 C758 1.431 . S
C763 C759 1.317 . S
C763 H774 0.930 . S
C764 C758 1.412 . S
C764 C765 1.355 . S
C764 H776 0.930 . S
C765 C764 1.355 . S
C765 C767 1.402 . S
C765 H777 0.930 . S
N766 Gd757 2.661 . S
N766 C761 1.350 . S
N766 C767 1.307 . S
C767 C765 1.402 . S
C767 N766 1.307 . S
C767 H768 0.930 . S
H768 C767 0.930 . S
C769 N770 1.334 . S
C769 C771 1.394 . S
C769 H773 0.930 . S
N770 Gd757 2.601 . S
N770 C760 1.359 . S
N770 C769 1.334 . S
C771 C769 1.394 . S
C771 C772 1.359 . S
C771 H783 0.930 . S
C772 C762 1.391 . S
C772 C771 1.359 . S
C772 H784 0.929 . S
H773 C769 0.930 . S
H774 C763 0.930 . S
H775 C792 0.930 . S
H776 C764 0.930 . S
H777 C765 0.930 . S
H778 C759 0.929 . S
H779 C797 0.930 . S
H780 C788 0.930 . S
H781 C789 0.930 . S
H782 C813 0.929 1_655 S
H783 C771 0.930 . S
H784 C772 0.929 . S
H785 C814 0.930 1_655 S
H786 C795 0.930 . S
N787 Gd756 2.661 . S
N787 C791 1.350 . S
N787 C792 1.307 . S
C788 H780 0.930 . S
C788 C789 1.355 . S
C788 C790 1.412 . S
C789 H781 0.930 . S
C789 C788 1.355 . S
C789 C792 1.402 . S
C790 C788 1.412 . S
C790 C791 1.417 . S
C790 C814 1.431 . S
C791 N787 1.350 . S
C791 C790 1.417 . S
C791 C794 1.426 . S
C792 H775 0.930 . S
C792 N787 1.307 . S
C792 C789 1.402 . S
N793 Gd756 2.601 . S
N793 C794 1.359 . S
N793 C797 1.334 . S
C794 C791 1.426 . S
C794 N793 1.359 . S
C794 C798 1.413 . S
C795 H786 0.930 . S
C795 C796 1.359 . S
C795 C797 1.394 . S
C796 C795 1.359 . S
C796 C798 1.391 . S
C796 H799 0.929 . S
C797 H779 0.930 . S
C797 N793 1.334 . S
C797 C795 1.394 . S
C798 C794 1.413 . S
C798 C796 1.391 . S
C798 C813 1.437 . S
H799 C796 0.929 . S
O800 Gd756 2.545 . S
O800 C815 1.258 . S
O801 Gd756 2.606 . S
O801 Gd757 2.362 . S
O801 C812 1.284 . S
O802 Gd757 2.324 . S
O802 C822 1.254 . S
O803 Gd756 2.429 . S
O803 C822 1.268 . S
O804 Gd756 2.545 . S
O804 C812 1.250 . S
O805 Gd756 2.412 . S
O805 C815 1.252 . S
O806 Gd757 2.545 . S
O806 C824 1.258 . S
O807 Gd756 2.362 . S
O807 Gd757 2.606 . S
O807 C823 1.284 . S
O808 Gd756 2.324 . S
O808 C831 1.254 . S
O809 Gd757 2.429 . S
O809 C831 1.268 . S
O810 Gd757 2.545 . S
O810 C823 1.250 . S
O811 Gd757 2.412 . S
O811 C824 1.252 . S
C812 O801 1.284 . S
C812 O804 1.250 . S
C813 H782 0.929 1_455 S
C813 C798 1.437 . S
C813 C814 1.317 . S
C814 H785 0.930 1_455 S
C814 C790 1.431 . S
C814 C813 1.317 . S
C815 Gd756 2.828 . S
C815 O800 1.258 . S
C815 O805 1.252 . S
C815 C816 1.497 1_455 S
C816 C815 1.497 1_655 S
C816 C817 1.395 . S
C816 C818 1.380 . S
C817 C816 1.395 . S
C817 C820 1.398 . S
C817 H832 0.930 . S
C818 C816 1.380 . S
C818 C819 1.391 . S
C818 H833 0.930 . S
C819 C818 1.391 . S
C819 C821 1.387 . S
C820 C817 1.398 . S
C820 C821 1.380 . S
C820 H834 0.930 . S
C821 C819 1.387 . S
C821 C820 1.380 . S
C821 H835 0.930 . S
C822 O802 1.254 . S
C822 O803 1.268 . S
C823 O807 1.284 . S
C823 O810 1.250 . S
C824 Gd757 2.828 . S
C824 O806 1.258 . S
C824 O811 1.252 . S
C824 C825 1.497 . S
C825 C824 1.497 . S
C825 C826 1.395 . S
C825 C827 1.380 . S
C826 C825 1.395 . S
C826 C829 1.398 . S
C826 H836 0.930 . S
C827 C825 1.380 . S
C827 C828 1.391 . S
C827 H837 0.930 . S
C828 C827 1.391 . S
C828 C830 1.387 . S
C829 C826 1.398 . S
C829 C830 1.380 . S
C829 H838 0.930 . S
C830 C828 1.387 . S
C830 C829 1.380 . S
C830 H839 0.930 . S
C831 O808 1.254 . S
C831 O809 1.268 . S
H832 C817 0.930 . S
H833 C818 0.930 . S
H834 C820 0.930 . S
H835 C821 0.930 . S
H836 C826 0.930 . S
H837 C827 0.930 . S
H838 C829 0.930 . S
H839 C830 0.930 . S
Gd840 N871 2.661 . S
Gd840 N877 2.601 . S
Gd840 O884 2.545 . S
Gd840 O885 2.606 . S
Gd840 O887 2.429 . S
Gd840 O888 2.545 . S
Gd840 O889 2.412 . S
Gd840 O891 2.362 . S
Gd840 O892 2.324 . S
Gd840 C899 2.828 . S
Gd841 N850 2.661 . S
Gd841 N854 2.601 . S
Gd841 O885 2.362 . S
Gd841 O886 2.324 . S
Gd841 O890 2.545 . S
Gd841 O891 2.606 . S
Gd841 O893 2.429 . S
Gd841 O894 2.545 . S
Gd841 O895 2.412 . S
Gd841 C908 2.828 . S
C842 C845 1.417 . S
C842 C847 1.431 . S
C842 C848 1.412 . S
C843 C846 1.437 . S
C843 C847 1.317 . S
C843 H862 0.929 1_565 S
C844 C845 1.426 . S
C844 C846 1.413 . S
C844 N854 1.359 . S
C845 C842 1.417 . S
C845 C844 1.426 . S
C845 N850 1.350 . S
C846 C843 1.437 . S
C846 C844 1.413 . S
C846 C856 1.391 . S
C847 C842 1.431 . S
C847 C843 1.317 . S
C847 H858 0.930 1_565 S
C848 C842 1.412 . S
C848 C849 1.355 . S
C848 H860 0.930 . S
C849 C848 1.355 . S
C849 C851 1.402 . S
C849 H861 0.930 . S
N850 Gd841 2.661 . S
N850 C845 1.350 . S
N850 C851 1.307 . S
C851 C849 1.402 . S
C851 N850 1.307 . S
C851 H852 0.930 . S
H852 C851 0.930 . S
C853 N854 1.334 . S
C853 C855 1.394 . S
C853 H857 0.930 . S
N854 Gd841 2.601 . S
N854 C844 1.359 . S
N854 C853 1.334 . S
C855 C853 1.394 . S
C855 C856 1.359 . S
C855 H867 0.930 . S
C856 C846 1.391 . S
C856 C855 1.359 . S
C856 H868 0.929 . S
H857 C853 0.930 . S
H858 C847 0.930 1_545 S
H859 C876 0.930 . S
H860 C848 0.930 . S
H861 C849 0.930 . S
H862 C843 0.929 1_545 S
H863 C881 0.930 . S
H864 C872 0.930 1_655 S
H865 C873 0.930 . S
H866 C897 0.929 . S
H867 C855 0.930 . S
H868 C856 0.929 . S
H869 C898 0.930 . S
H870 C879 0.930 . S
N871 Gd840 2.661 . S
N871 C875 1.350 . S
N871 C876 1.307 . S
C872 H864 0.930 1_455 S
C872 C873 1.355 . S
C872 C874 1.412 . S
C873 H865 0.930 . S
C873 C872 1.355 . S
C873 C876 1.402 . S
C874 C872 1.412 . S
C874 C875 1.417 . S
C874 C898 1.431 1_455 S
C875 N871 1.350 . S
C875 C874 1.417 . S
C875 C878 1.426 . S
C876 H859 0.930 . S
C876 N871 1.307 . S
C876 C873 1.402 . S
N877 Gd840 2.601 . S
N877 C878 1.359 . S
N877 C881 1.334 . S
C878 C875 1.426 . S
C878 N877 1.359 . S
C878 C882 1.413 . S
C879 H870 0.930 . S
C879 C880 1.359 . S
C879 C881 1.394 . S
C880 C879 1.359 . S
C880 C882 1.391 . S
C880 H883 0.929 . S
C881 H863 0.930 . S
C881 N877 1.334 . S
C881 C879 1.394 . S
C882 C878 1.413 . S
C882 C880 1.391 . S
C882 C897 1.437 1_455 S
H883 C880 0.929 . S
O884 Gd840 2.545 . S
O884 C899 1.258 . S
O885 Gd840 2.606 . S
O885 Gd841 2.362 . S
O885 C896 1.284 . S
O886 Gd841 2.324 . S
O886 C906 1.254 . S
O887 Gd840 2.429 . S
O887 C906 1.268 . S
O888 Gd840 2.545 . S
O888 C896 1.250 . S
O889 Gd840 2.412 . S
O889 C899 1.252 . S
O890 Gd841 2.545 . S
O890 C908 1.258 . S
O891 Gd840 2.362 . S
O891 Gd841 2.606 . S
O891 C907 1.284 . S
O892 Gd840 2.324 . S
O892 C915 1.254 . S
O893 Gd841 2.429 . S
O893 C915 1.268 . S
O894 Gd841 2.545 . S
O894 C907 1.250 . S
O895 Gd841 2.412 . S
O895 C908 1.252 . S
C896 O885 1.284 . S
C896 O888 1.250 . S
C897 H866 0.929 . S
C897 C882 1.437 1_655 S
C897 C898 1.317 . S
C898 H869 0.930 . S
C898 C874 1.431 1_655 S
C898 C897 1.317 . S
C899 Gd840 2.828 . S
C899 O884 1.258 . S
C899 O889 1.252 . S
C899 C900 1.497 . S
C900 C899 1.497 . S
C900 C901 1.395 . S
C900 C902 1.380 . S
C901 C900 1.395 . S
C901 C904 1.398 . S
C901 H916 0.930 . S
C902 C900 1.380 . S
C902 C903 1.391 . S
C902 H917 0.930 . S
C903 C902 1.391 . S
C903 C905 1.387 . S
C904 C901 1.398 . S
C904 C905 1.380 . S
C904 H918 0.930 . S
C905 C903 1.387 . S
C905 C904 1.380 . S
C905 H919 0.930 . S
C906 O886 1.254 . S
C906 O887 1.268 . S
C907 O891 1.284 . S
C907 O894 1.250 . S
C908 Gd841 2.828 . S
C908 O890 1.258 . S
C908 O895 1.252 . S
C908 C909 1.497 1_565 S
C909 C908 1.497 1_545 S
C909 C910 1.395 . S
C909 C911 1.380 . S
C910 C909 1.395 . S
C910 C913 1.398 . S
C910 H920 0.930 . S
C911 C909 1.380 . S
C911 C912 1.391 . S
C911 H921 0.930 . S
C912 C911 1.391 . S
C912 C914 1.387 . S
C913 C910 1.398 . S
C913 C914 1.380 . S
C913 H922 0.930 . S
C914 C912 1.387 . S
C914 C913 1.380 . S
C914 H923 0.930 . S
C915 O892 1.254 . S
C915 O893 1.268 . S
H916 C901 0.930 . S
H917 C902 0.930 . S
H918 C904 0.930 . S
H919 C905 0.930 . S
H920 C910 0.930 . S
H921 C911 0.930 . S
H922 C913 0.930 . S
H923 C914 0.930 . S
Gd924 N955 2.661 . S
Gd924 N961 2.601 . S
Gd924 O968 2.545 . S
Gd924 O969 2.606 . S
Gd924 O971 2.429 . S
Gd924 O972 2.545 . S
Gd924 O973 2.412 . S
Gd924 O975 2.362 . S
Gd924 O976 2.324 . S
Gd924 C983 2.828 . S
Gd925 N934 2.661 . S
Gd925 N938 2.601 . S
Gd925 O969 2.362 . S
Gd925 O970 2.324 . S
Gd925 O974 2.545 . S
Gd925 O975 2.606 . S
Gd925 O977 2.429 . S
Gd925 O978 2.545 . S
Gd925 O979 2.412 . S
Gd925 C992 2.828 . S
C926 C929 1.417 . S
C926 C931 1.431 1_565 S
C926 C932 1.412 . S
C927 C930 1.437 1_545 S
C927 C931 1.317 . S
C927 H946 0.929 . S
C928 C929 1.426 . S
C928 C930 1.413 . S
C928 N938 1.359 . S
C929 C926 1.417 . S
C929 C928 1.426 . S
C929 N934 1.350 . S
C930 C927 1.437 1_565 S
C930 C928 1.413 . S
C930 C940 1.391 . S
C931 C926 1.431 1_545 S
C931 C927 1.317 . S
C931 H942 0.930 . S
C932 C926 1.412 . S
C932 C933 1.355 . S
C932 H944 0.930 1_565 S
C933 C932 1.355 . S
C933 C935 1.402 . S
C933 H945 0.930 . S
N934 Gd925 2.661 . S
N934 C929 1.350 . S
N934 C935 1.307 . S
C935 C933 1.402 . S
C935 N934 1.307 . S
C935 H936 0.930 . S
H936 C935 0.930 . S
C937 N938 1.334 . S
C937 C939 1.394 . S
C937 H941 0.930 . S
N938 Gd925 2.601 . S
N938 C928 1.359 . S
N938 C937 1.334 . S
C939 C937 1.394 . S
C939 C940 1.359 . S
C939 H951 0.930 . S
C940 C930 1.391 . S
C940 C939 1.359 . S
C940 H952 0.929 . S
H941 C937 0.930 . S
H942 C931 0.930 . S
H943 C960 0.930 . S
H944 C932 0.930 1_545 S
H945 C933 0.930 . S
H946 C927 0.929 . S
H947 C965 0.930 . S
H948 C956 0.930 . S
H949 C957 0.930 . S
H950 C981 0.929 . S
H951 C939 0.930 . S
H952 C940 0.929 . S
H953 C982 0.930 . S
H954 C963 0.930 . S
N955 Gd924 2.661 . S
N955 C959 1.350 . S
N955 C960 1.307 . S
C956 H948 0.930 . S
C956 C957 1.355 . S
C956 C958 1.412 . S
C957 H949 0.930 . S
C957 C956 1.355 . S
C957 C960 1.402 . S
C958 C956 1.412 . S
C958 C959 1.417 . S
C958 C982 1.431 . S
C959 N955 1.350 . S
C959 C958 1.417 . S
C959 C962 1.426 . S
C960 H943 0.930 . S
C960 N955 1.307 . S
C960 C957 1.402 . S
N961 Gd924 2.601 . S
N961 C962 1.359 . S
N961 C965 1.334 . S
C962 C959 1.426 . S
C962 N961 1.359 . S
C962 C966 1.413 . S
C963 H954 0.930 . S
C963 C964 1.359 . S
C963 C965 1.394 . S
C964 C963 1.359 . S
C964 C966 1.391 . S
C964 H967 0.929 . S
C965 H947 0.930 . S
C965 N961 1.334 . S
C965 C963 1.394 . S
C966 C962 1.413 . S
C966 C964 1.391 . S
C966 C981 1.437 . S
H967 C964 0.929 . S
O968 Gd924 2.545 . S
O968 C983 1.258 . S
O969 Gd924 2.606 . S
O969 Gd925 2.362 . S
O969 C980 1.284 . S
O970 Gd925 2.324 . S
O970 C990 1.254 . S
O971 Gd924 2.429 . S
O971 C990 1.268 . S
O972 Gd924 2.545 . S
O972 C980 1.250 . S
O973 Gd924 2.412 . S
O973 C983 1.252 . S
O974 Gd925 2.545 . S
O974 C992 1.258 . S
O975 Gd924 2.362 . S
O975 Gd925 2.606 . S
O975 C991 1.284 . S
O976 Gd924 2.324 . S
O976 C999 1.254 . S
O977 Gd925 2.429 . S
O977 C999 1.268 . S
O978 Gd925 2.545 . S
O978 C991 1.250 . S
O979 Gd925 2.412 . S
O979 C992 1.252 . S
C980 O969 1.284 . S
C980 O972 1.250 . S
C981 H950 0.929 . S
C981 C966 1.437 . S
C981 C982 1.317 . S
C982 H953 0.930 . S
C982 C958 1.431 . S
C982 C981 1.317 . S
C983 Gd924 2.828 . S
C983 O968 1.258 . S
C983 O973 1.252 . S
C983 C984 1.497 . S
C984 C983 1.497 . S
C984 C985 1.395 . S
C984 C986 1.380 . S
C985 C984 1.395 . S
C985 C988 1.398 . S
C985 H1000 0.930 . S
C986 C984 1.380 . S
C986 C987 1.391 . S
C986 H1001 0.930 . S
C987 C986 1.391 . S
C987 C989 1.387 . S
C988 C985 1.398 . S
C988 C989 1.380 . S
C988 H1002 0.930 . S
C989 C987 1.387 . S
C989 C988 1.380 . S
C989 H1003 0.930 . S
C990 O970 1.254 . S
C990 O971 1.268 . S
C991 O975 1.284 . S
C991 O978 1.250 . S
C992 Gd925 2.828 . S
C992 O974 1.258 . S
C992 O979 1.252 . S
C992 C993 1.497 . S
C993 C992 1.497 . S
C993 C994 1.395 . S
C993 C995 1.380 . S
C994 C993 1.395 . S
C994 C997 1.398 . S
C994 H1004 0.930 . S
C995 C993 1.380 . S
C995 C996 1.391 . S
C995 H1005 0.930 . S
C996 C995 1.391 . S
C996 C998 1.387 . S
C997 C994 1.398 . S
C997 C998 1.380 . S
C997 H1006 0.930 . S
C998 C996 1.387 . S
C998 C997 1.380 . S
C998 H1007 0.930 . S
C999 O976 1.254 . S
C999 O977 1.268 . S
H1000 C985 0.930 . S
H1001 C986 0.930 . S
H1002 C988 0.930 . S
H1003 C989 0.930 . S
H1004 C994 0.930 . S
H1005 C995 0.930 . S
H1006 C997 0.930 . S
H1007 C998 0.930 . S
C1008 C1009 1.391 . S
C1008 C1010 1.394 . S
C1008 H1024 0.931 . S
C1009 C1008 1.391 . S
C1009 C1013 1.376 . S
C1010 C1008 1.394 . S
C1010 C1011 1.369 . S
C1010 C1014 1.531 . S
C1011 C1010 1.369 . S
C1011 C1012 1.410 . S
C1011 C1019 1.503 . S
C1012 C1011 1.410 . S
C1012 C1013 1.392 . S
C1012 C1015 1.511 . S
C1013 C1009 1.376 . S
C1013 C1012 1.392 . S
C1013 H1025 0.929 . S
C1014 C1010 1.531 . S
C1014 H1026 0.960 . S
C1014 H1027 0.962 . S
C1014 H1028 0.960 . S
C1015 C1012 1.511 . S
C1015 H1029 0.961 . S
C1015 H1030 0.961 . S
C1015 H1031 0.961 . S
C1016 C1017 1.370 . S
C1016 C1018 1.363 . S
C1016 H1032 0.931 . S
C1017 C1016 1.370 . S
C1017 C1021 1.408 . S
C1018 C1016 1.363 . S
C1018 C1019 1.370 . S
C1018 C1022 1.524 . S
C1019 C1011 1.503 . S
C1019 C1018 1.370 . S
C1019 C1020 1.403 . S
C1020 C1019 1.403 . S
C1020 C1021 1.404 . S
C1020 C1023 1.539 . S
C1021 C1017 1.408 . S
C1021 C1020 1.404 . S
C1021 H1033 0.930 . S
C1022 C1018 1.524 . S
C1022 H1034 0.956 . S
C1022 H1035 0.961 . S
C1022 H1036 0.961 . S
C1023 C1020 1.539 . S
C1023 H1037 0.958 . S
C1023 H1038 0.961 . S
C1023 H1039 0.960 . S
H1024 C1008 0.931 . S
H1025 C1013 0.929 . S
H1026 C1014 0.960 . S
H1027 C1014 0.962 . S
H1028 C1014 0.960 . S
H1029 C1015 0.961 . S
H1030 C1015 0.961 . S
H1031 C1015 0.961 . S
H1032 C1016 0.931 . S
H1033 C1021 0.930 . S
H1034 C1022 0.956 . S
H1035 C1022 0.961 . S
H1036 C1022 0.961 . S
H1037 C1023 0.958 . S
H1038 C1023 0.961 . S
H1039 C1023 0.960 . S
C1040 C1041 1.391 . S
C1040 C1042 1.394 . S
C1040 H1056 0.931 . S
C1041 C1040 1.391 . S
C1041 C1045 1.376 . S
C1042 C1040 1.394 . S
C1042 C1043 1.369 . S
C1042 C1046 1.531 . S
C1043 C1042 1.369 . S
C1043 C1044 1.410 . S
C1043 C1051 1.503 1_455 S
C1044 C1043 1.410 . S
C1044 C1045 1.392 . S
C1044 C1047 1.511 . S
C1045 C1041 1.376 . S
C1045 C1044 1.392 . S
C1045 H1057 0.929 . S
C1046 C1042 1.531 . S
C1046 H1058 0.960 . S
C1046 H1059 0.962 . S
C1046 H1060 0.960 . S
C1047 C1044 1.511 . S
C1047 H1061 0.961 . S
C1047 H1062 0.961 1_455 S
C1047 H1063 0.961 . S
C1048 C1049 1.370 . S
C1048 C1050 1.363 . S
C1048 H1064 0.931 . S
C1049 C1048 1.370 . S
C1049 C1053 1.408 . S
C1050 C1048 1.363 . S
C1050 C1051 1.370 . S
C1050 C1054 1.524 1_655 S
C1051 C1043 1.503 1_655 S
C1051 C1050 1.370 . S
C1051 C1052 1.403 . S
C1052 C1051 1.403 . S
C1052 C1053 1.404 . S
C1052 C1055 1.539 . S
C1053 C1049 1.408 . S
C1053 C1052 1.404 . S
C1053 H1065 0.930 . S
C1054 C1050 1.524 1_455 S
C1054 H1066 0.956 . S
C1054 H1067 0.961 . S
C1054 H1068 0.961 . S
C1055 C1052 1.539 . S
C1055 H1069 0.958 . S
C1055 H1070 0.961 . S
C1055 H1071 0.960 . S
H1056 C1040 0.931 . S
H1057 C1045 0.929 . S
H1058 C1046 0.960 . S
H1059 C1046 0.962 . S
H1060 C1046 0.960 . S
H1061 C1047 0.961 . S
H1062 C1047 0.961 1_655 S
H1063 C1047 0.961 . S
H1064 C1048 0.931 . S
H1065 C1053 0.930 . S
H1066 C1054 0.956 . S
H1067 C1054 0.961 . S
H1068 C1054 0.961 . S
H1069 C1055 0.958 . S
H1070 C1055 0.961 . S
H1071 C1055 0.960 . S
C1072 C1073 1.391 . S
C1072 C1074 1.394 . S
C1072 H1088 0.931 . S
C1073 C1072 1.391 . S
C1073 C1077 1.376 . S
C1074 C1072 1.394 . S
C1074 C1075 1.369 . S
C1074 C1078 1.531 1_545 S
C1075 C1074 1.369 . S
C1075 C1076 1.410 . S
C1075 C1083 1.503 1_545 S
C1076 C1075 1.410 . S
C1076 C1077 1.392 . S
C1076 C1079 1.511 . S
C1077 C1073 1.376 . S
C1077 C1076 1.392 . S
C1077 H1089 0.929 . S
C1078 C1074 1.531 1_565 S
C1078 H1090 0.960 . S
C1078 H1091 0.962 . S
C1078 H1092 0.960 1_565 S
C1079 C1076 1.511 . S
C1079 H1093 0.961 . S
C1079 H1094 0.977 . S
C1079 H1095 0.961 . S
C1080 C1081 1.370 . S
C1080 C1082 1.363 . S
C1080 H1096 0.931 . S
C1081 C1080 1.370 . S
C1081 C1085 1.408 . S
C1082 C1080 1.363 . S
C1082 C1083 1.370 . S
C1082 C1086 1.524 . S
C1083 C1075 1.503 1_565 S
C1083 C1082 1.370 . S
C1083 C1084 1.403 . S
C1084 C1083 1.403 . S
C1084 C1085 1.404 . S
C1084 C1087 1.539 . S
C1085 C1081 1.408 . S
C1085 C1084 1.404 . S
C1085 H1097 0.930 . S
C1086 C1082 1.524 . S
C1086 H1098 0.956 . S
C1086 H1099 0.961 . S
C1086 H1100 0.961 . S
C1087 C1084 1.539 . S
C1087 H1101 0.958 . S
C1087 H1102 0.961 . S
C1087 H1103 0.960 1_565 S
H1088 C1072 0.931 . S
H1089 C1077 0.929 . S
H1090 C1078 0.960 . S
H1091 C1078 0.962 . S
H1092 C1078 0.960 1_545 S
H1093 C1079 0.961 . S
H1094 C1079 0.977 . S
H1095 C1079 0.961 . S
H1096 C1080 0.931 . S
H1097 C1085 0.930 . S
H1098 C1086 0.956 . S
H1099 C1086 0.961 . S
H1100 C1086 0.961 . S
H1101 C1087 0.958 . S
H1102 C1087 0.961 . S
H1103 C1087 0.960 1_545 S
C1104 C1105 1.391 . S
C1104 C1106 1.394 . S
C1104 H1120 0.931 . S
C1105 C1104 1.391 . S
C1105 C1109 1.376 . S
C1106 C1104 1.394 . S
C1106 C1107 1.369 . S
C1106 C1110 1.531 . S
C1107 C1106 1.369 . S
C1107 C1108 1.410 . S
C1107 C1115 1.503 . S
C1108 C1107 1.410 . S
C1108 C1109 1.392 . S
C1108 C1111 1.511 . S
C1109 C1105 1.376 . S
C1109 C1108 1.392 . S
C1109 H1121 0.929 . S
C1110 C1106 1.531 . S
C1110 H1122 0.960 . S
C1110 H1123 0.962 . S
C1110 H1124 0.960 . S
C1111 C1108 1.511 . S
C1111 H1125 0.961 . S
C1111 H1126 0.961 . S
C1111 H1127 0.961 . S
C1112 C1113 1.370 . S
C1112 C1114 1.363 . S
C1112 H1128 0.931 . S
C1113 C1112 1.370 . S
C1113 C1117 1.408 . S
C1114 C1112 1.363 . S
C1114 C1115 1.370 . S
C1114 C1118 1.524 . S
C1115 C1107 1.503 . S
C1115 C1114 1.370 . S
C1115 C1116 1.403 . S
C1116 C1115 1.403 . S
C1116 C1117 1.404 . S
C1116 C1119 1.539 . S
C1117 C1113 1.408 . S
C1117 C1116 1.404 . S
C1117 H1129 0.930 . S
C1118 C1114 1.524 . S
C1118 H1130 0.956 . S
C1118 H1131 0.961 . S
C1118 H1132 0.961 . S
C1119 C1116 1.539 . S
C1119 H1133 0.958 . S
C1119 H1134 0.961 . S
C1119 H1135 0.960 . S
H1120 C1104 0.931 . S
H1121 C1109 0.929 . S
H1122 C1110 0.960 . S
H1123 C1110 0.962 . S
H1124 C1110 0.960 . S
H1125 C1111 0.961 . S
H1126 C1111 0.961 . S
H1127 C1111 0.961 . S
H1128 C1112 0.931 . S
H1129 C1117 0.930 . S
H1130 C1118 0.956 . S
H1131 C1118 0.961 . S
H1132 C1118 0.961 . S
H1133 C1119 0.958 . S
H1134 C1119 0.961 . S
H1135 C1119 0.960 . S
C1136 C1137 1.391 . S
C1136 C1138 1.394 . S
C1136 H1152 0.931 . S
C1137 C1136 1.391 . S
C1137 C1141 1.376 . S
C1138 C1136 1.394 . S
C1138 C1139 1.369 . S
C1138 C1142 1.531 . S
C1139 C1138 1.369 . S
C1139 C1140 1.410 . S
C1139 C1147 1.503 1_455 S
C1140 C1139 1.410 . S
C1140 C1141 1.392 . S
C1140 C1143 1.511 . S
C1141 C1137 1.376 . S
C1141 C1140 1.392 . S
C1141 H1153 0.929 . S
C1142 C1138 1.531 . S
C1142 H1154 0.960 . S
C1142 H1155 0.962 . S
C1142 H1156 0.960 . S
C1143 C1140 1.511 . S
C1143 H1157 0.961 . S
C1143 H1158 0.961 1_455 S
C1143 H1159 0.969 . S
C1144 C1145 1.370 . S
C1144 C1146 1.363 . S
C1144 H1160 0.931 . S
C1145 C1144 1.370 . S
C1145 C1149 1.408 . S
C1146 C1144 1.363 . S
C1146 C1147 1.370 . S
C1146 C1150 1.524 1_655 S
C1147 C1139 1.503 1_655 S
C1147 C1146 1.370 . S
C1147 C1148 1.403 . S
C1148 C1147 1.403 . S
C1148 C1149 1.404 . S
C1148 C1151 1.539 . S
C1149 C1145 1.408 . S
C1149 C1148 1.404 . S
C1149 H1161 0.930 . S
C1150 C1146 1.524 1_455 S
C1150 H1162 0.956 . S
C1150 H1163 0.961 . S
C1150 H1164 0.961 . S
C1151 C1148 1.539 . S
C1151 H1165 0.958 . S
C1151 H1166 0.961 . S
C1151 H1167 0.960 . S
H1152 C1136 0.931 . S
H1153 C1141 0.929 . S
H1154 C1142 0.960 . S
H1155 C1142 0.962 . S
H1156 C1142 0.960 . S
H1157 C1143 0.961 . S
H1158 C1143 0.961 1_655 S
H1159 C1143 0.969 . S
H1160 C1144 0.931 . S
H1161 C1149 0.930 . S
H1162 C1150 0.956 . S
H1163 C1150 0.961 . S
H1164 C1150 0.961 . S
H1165 C1151 0.958 . S
H1166 C1151 0.961 . S
H1167 C1151 0.960 . S
C1168 C1169 1.391 . S
C1168 C1170 1.394 . S
C1168 H1184 0.931 . S
C1169 C1168 1.391 . S
C1169 C1173 1.376 . S
C1170 C1168 1.394 . S
C1170 C1171 1.369 . S
C1170 C1174 1.531 . S
C1171 C1170 1.369 . S
C1171 C1172 1.410 . S
C1171 C1179 1.503 1_565 S
C1172 C1171 1.410 . S
C1172 C1173 1.392 . S
C1172 C1175 1.511 . S
C1173 C1169 1.376 . S
C1173 C1172 1.392 . S
C1173 H1185 0.929 . S
C1174 C1170 1.531 . S
C1174 H1186 0.960 1_565 S
C1174 H1187 0.962 1_565 S
C1174 H1188 0.960 . S
C1175 C1172 1.511 . S
C1175 H1189 0.961 . S
C1175 H1190 0.961 . S
C1175 H1191 0.961 . S
C1176 C1177 1.370 . S
C1176 C1178 1.363 . S
C1176 H1192 0.931 . S
C1177 C1176 1.370 . S
C1177 C1181 1.408 . S
C1178 C1176 1.363 . S
C1178 C1179 1.370 . S
C1178 C1182 1.524 . S
C1179 C1171 1.503 1_545 S
C1179 C1178 1.370 . S
C1179 C1180 1.403 . S
C1180 C1179 1.403 . S
C1180 C1181 1.404 . S
C1180 C1183 1.539 . S
C1181 C1177 1.408 . S
C1181 C1180 1.404 . S
C1181 H1193 0.930 . S
C1182 C1178 1.524 . S
C1182 H1194 0.956 . S
C1182 H1195 0.961 1_545 S
C1182 H1196 0.961 . S
C1183 C1180 1.539 . S
C1183 H1197 0.958 . S
C1183 H1198 0.961 . S
C1183 H1199 0.960 1_545 S
H1184 C1168 0.931 . S
H1185 C1173 0.929 . S
H1186 C1174 0.960 1_545 S
H1187 C1174 0.962 1_545 S
H1188 C1174 0.960 . S
H1189 C1175 0.961 . S
H1190 C1175 0.961 . S
H1191 C1175 0.961 . S
H1192 C1176 0.931 . S
H1193 C1181 0.930 . S
H1194 C1182 0.956 . S
H1195 C1182 0.961 1_565 S
H1196 C1182 0.961 . S
H1197 C1183 0.958 . S
H1198 C1183 0.961 . S
H1199 C1183 0.960 1_565 S
C1200 C1201 1.391 . S
C1200 C1202 1.394 . S
C1200 H1216 0.931 . S
C1201 C1200 1.391 . S
C1201 C1205 1.376 . S
C1202 C1200 1.394 . S
C1202 C1203 1.369 . S
C1202 C1206 1.531 . S
C1203 C1202 1.369 . S
C1203 C1204 1.410 . S
C1203 C1211 1.503 . S
C1204 C1203 1.410 . S
C1204 C1205 1.392 . S
C1204 C1207 1.511 . S
C1205 C1201 1.376 . S
C1205 C1204 1.392 . S
C1205 H1217 0.929 . S
C1206 C1202 1.531 . S
C1206 H1218 0.960 . S
C1206 H1219 0.962 . S
C1206 H1220 0.960 . S
C1207 C1204 1.511 . S
C1207 H1221 0.961 . S
C1207 H1222 0.961 . S
C1207 H1223 0.961 . S
C1208 C1209 1.370 . S
C1208 C1210 1.363 . S
C1208 H1224 0.931 . S
C1209 C1208 1.370 . S
C1209 C1213 1.408 . S
C1210 C1208 1.363 . S
C1210 C1211 1.370 . S
C1210 C1214 1.524 . S
C1211 C1203 1.503 . S
C1211 C1210 1.370 . S
C1211 C1212 1.403 . S
C1212 C1211 1.403 . S
C1212 C1213 1.404 . S
C1212 C1215 1.539 . S
C1213 C1209 1.408 . S
C1213 C1212 1.404 . S
C1213 H1225 0.930 . S
C1214 C1210 1.524 . S
C1214 H1226 0.956 . S
C1214 H1227 0.961 . S
C1214 H1228 0.961 . S
C1215 C1212 1.539 . S
C1215 H1229 0.958 . S
C1215 H1230 0.961 . S
C1215 H1231 0.960 . S
H1216 C1200 0.931 . S
H1217 C1205 0.929 . S
H1218 C1206 0.960 . S
H1219 C1206 0.962 . S
H1220 C1206 0.960 . S
H1221 C1207 0.961 . S
H1222 C1207 0.961 . S
H1223 C1207 0.961 . S
H1224 C1208 0.931 . S
H1225 C1213 0.930 . S
H1226 C1214 0.956 . S
H1227 C1214 0.961 . S
H1228 C1214 0.961 . S
H1229 C1215 0.958 . S
H1230 C1215 0.961 . S
H1231 C1215 0.960 . S
C1232 C1233 1.391 . S
C1232 C1234 1.394 . S
C1232 H1248 0.931 . S
C1233 C1232 1.391 . S
C1233 C1237 1.376 . S
C1234 C1232 1.394 . S
C1234 C1235 1.369 . S
C1234 C1238 1.531 . S
C1235 C1234 1.369 . S
C1235 C1236 1.410 . S
C1235 C1243 1.503 1_455 S
C1236 C1235 1.410 . S
C1236 C1237 1.392 . S
C1236 C1239 1.511 1_455 S
C1237 C1233 1.376 . S
C1237 C1236 1.392 . S
C1237 H1249 0.929 . S
C1238 C1234 1.531 . S
C1238 H1250 0.960 . S
C1238 H1251 0.962 . S
C1238 H1252 0.960 . S
C1239 C1236 1.511 1_655 S
C1239 H1253 0.961 . S
C1239 H1254 0.961 . S
C1239 H1255 0.961 . S
C1240 C1241 1.370 . S
C1240 C1242 1.363 . S
C1240 H1256 0.931 . S
C1241 C1240 1.370 . S
C1241 C1245 1.408 . S
C1242 C1240 1.363 . S
C1242 C1243 1.370 . S
C1242 C1246 1.524 . S
C1243 C1235 1.503 1_655 S
C1243 C1242 1.370 . S
C1243 C1244 1.403 . S
C1244 C1243 1.403 . S
C1244 C1245 1.404 . S
C1244 C1247 1.539 . S
C1245 C1241 1.408 . S
C1245 C1244 1.404 . S
C1245 H1257 0.930 . S
C1246 C1242 1.524 . S
C1246 H1258 0.956 . S
C1246 H1259 0.961 . S
C1246 H1260 0.961 . S
C1247 C1244 1.539 . S
C1247 H1261 0.958 . S
C1247 H1262 0.961 . S
C1247 H1263 0.960 . S
H1248 C1232 0.931 . S
H1249 C1237 0.929 . S
H1250 C1238 0.960 . S
H1251 C1238 0.962 . S
H1252 C1238 0.960 . S
H1253 C1239 0.961 . S
H1254 C1239 0.961 . S
H1255 C1239 0.961 . S
H1256 C1240 0.931 . S
H1257 C1245 0.930 . S
H1258 C1246 0.956 . S
H1259 C1246 0.961 . S
H1260 C1246 0.961 . S
H1261 C1247 0.958 . S
H1262 C1247 0.961 . S
H1263 C1247 0.960 . S
C1264 C1265 1.391 . S
C1264 C1266 1.394 . S
C1264 H1280 0.931 . S
C1265 C1264 1.391 . S
C1265 C1269 1.376 . S
C1266 C1264 1.394 . S
C1266 C1267 1.369 . S
C1266 C1270 1.531 . S
C1267 C1266 1.369 . S
C1267 C1268 1.410 . S
C1267 C1275 1.503 1_565 S
C1268 C1267 1.410 . S
C1268 C1269 1.392 . S
C1268 C1271 1.511 1_565 S
C1269 C1265 1.376 . S
C1269 C1268 1.392 . S
C1269 H1281 0.929 . S
C1270 C1266 1.531 . S
C1270 H1282 0.960 1_565 S
C1270 H1283 0.962 . S
C1270 H1284 0.960 . S
C1271 C1268 1.511 1_545 S
C1271 H1285 0.961 1_545 S
C1271 H1286 0.961 . S
C1271 H1287 0.961 . S
C1272 C1273 1.370 . S
C1272 C1274 1.363 . S
C1272 H1288 0.931 . S
C1273 C1272 1.370 . S
C1273 C1277 1.408 . S
C1274 C1272 1.363 . S
C1274 C1275 1.370 . S
C1274 C1278 1.524 . S
C1275 C1267 1.503 1_545 S
C1275 C1274 1.370 . S
C1275 C1276 1.403 . S
C1276 C1275 1.403 . S
C1276 C1277 1.404 . S
C1276 C1279 1.539 . S
C1277 C1273 1.408 . S
C1277 C1276 1.404 . S
C1277 H1289 0.930 . S
C1278 C1274 1.524 . S
C1278 H1290 0.956 1_545 S
C1278 H1291 0.961 1_545 S
C1278 H1292 0.961 . S
C1279 C1276 1.539 . S
C1279 H1293 0.958 . S
C1279 H1294 0.961 . S
C1279 H1295 0.960 . S
H1280 C1264 0.931 . S
H1281 C1269 0.929 . S
H1282 C1270 0.960 1_545 S
H1283 C1270 0.962 . S
H1284 C1270 0.960 . S
H1285 C1271 0.961 1_565 S
H1286 C1271 0.961 . S
H1287 C1271 0.961 . S
H1288 C1272 0.931 . S
H1289 C1277 0.930 . S
H1290 C1278 0.956 1_565 S
H1291 C1278 0.961 1_565 S
H1292 C1278 0.961 . S
H1293 C1279 0.958 . S
H1294 C1279 0.961 . S
H1295 C1279 0.960 . S
C1296 C1297 1.391 . S
C1296 C1298 1.394 . S
C1296 H1312 0.931 . S
C1297 C1296 1.391 . S
C1297 C1301 1.376 . S
C1298 C1296 1.394 . S
C1298 C1299 1.369 . S
C1298 C1302 1.531 . S
C1299 C1298 1.369 . S
C1299 C1300 1.410 . S
C1299 C1307 1.503 . S
C1300 C1299 1.410 . S
C1300 C1301 1.392 . S
C1300 C1303 1.511 . S
C1301 C1297 1.376 . S
C1301 C1300 1.392 . S
C1301 H1313 0.929 . S
C1302 C1298 1.531 . S
C1302 H1314 0.960 . S
C1302 H1315 0.962 . S
C1302 H1316 0.960 . S
C1303 C1300 1.511 . S
C1303 H1317 0.961 . S
C1303 H1318 0.961 . S
C1303 H1319 0.961 . S
C1304 C1305 1.370 . S
C1304 C1306 1.363 . S
C1304 H1320 0.931 . S
C1305 C1304 1.370 . S
C1305 C1309 1.408 . S
C1306 C1304 1.363 . S
C1306 C1307 1.370 . S
C1306 C1310 1.524 . S
C1307 C1299 1.503 . S
C1307 C1306 1.370 . S
C1307 C1308 1.403 . S
C1308 C1307 1.403 . S
C1308 C1309 1.404 . S
C1308 C1311 1.539 . S
C1309 C1305 1.408 . S
C1309 C1308 1.404 . S
C1309 H1321 0.930 . S
C1310 C1306 1.524 . S
C1310 H1322 0.956 . S
C1310 H1323 0.961 . S
C1310 H1324 0.961 . S
C1311 C1308 1.539 . S
C1311 H1325 0.958 . S
C1311 H1326 0.961 . S
C1311 H1327 0.960 . S
H1312 C1296 0.931 . S
H1313 C1301 0.929 . S
H1314 C1302 0.960 . S
H1315 C1302 0.962 . S
H1316 C1302 0.960 . S
H1317 C1303 0.961 . S
H1318 C1303 0.961 . S
H1319 C1303 0.961 . S
H1320 C1304 0.931 . S
H1321 C1309 0.930 . S
H1322 C1310 0.956 . S
H1323 C1310 0.961 . S
H1324 C1310 0.961 . S
H1325 C1311 0.958 . S
H1326 C1311 0.961 . S
H1327 C1311 0.960 . S
C1328 C1329 1.391 . S
C1328 C1330 1.394 . S
C1328 H1344 0.931 . S
C1329 C1328 1.391 . S
C1329 C1333 1.376 . S
C1330 C1328 1.394 . S
C1330 C1331 1.369 . S
C1330 C1334 1.531 1_455 S
C1331 C1330 1.369 . S
C1331 C1332 1.410 . S
C1331 C1339 1.503 1_455 S
C1332 C1331 1.410 . S
C1332 C1333 1.392 . S
C1332 C1335 1.511 . S
C1333 C1329 1.376 . S
C1333 C1332 1.392 . S
C1333 H1345 0.929 . S
C1334 C1330 1.531 1_655 S
C1334 H1346 0.960 . S
C1334 H1347 0.962 . S
C1334 H1348 0.960 . S
C1335 C1332 1.511 . S
C1335 H1349 0.961 . S
C1335 H1350 0.961 . S
C1335 H1351 0.961 . S
C1336 C1337 1.370 . S
C1336 C1338 1.363 . S
C1336 H1352 0.931 . S
C1337 C1336 1.370 . S
C1337 C1341 1.408 . S
C1338 C1336 1.363 . S
C1338 C1339 1.370 . S
C1338 C1342 1.524 . S
C1339 C1331 1.503 1_655 S
C1339 C1338 1.370 . S
C1339 C1340 1.403 . S
C1340 C1339 1.403 . S
C1340 C1341 1.404 . S
C1340 C1343 1.539 . S
C1341 C1337 1.408 . S
C1341 C1340 1.404 . S
C1341 H1353 0.930 . S
C1342 C1338 1.524 . S
C1342 H1354 0.956 . S
C1342 H1355 0.961 1_655 S
C1342 H1356 0.961 . S
C1343 C1340 1.539 . S
C1343 H1357 0.958 . S
C1343 H1358 0.961 . S
C1343 H1359 0.960 . S
H1344 C1328 0.931 . S
H1345 C1333 0.929 . S
H1346 C1334 0.960 . S
H1347 C1334 0.962 . S
H1348 C1334 0.960 . S
H1349 C1335 0.961 . S
H1350 C1335 0.961 . S
H1351 C1335 0.961 . S
H1352 C1336 0.931 . S
H1353 C1341 0.930 . S
H1354 C1342 0.956 . S
H1355 C1342 0.961 1_455 S
H1356 C1342 0.961 . S
H1357 C1343 0.958 . S
H1358 C1343 0.961 . S
H1359 C1343 0.960 . S
C1360 C1361 1.391 . S
C1360 C1362 1.394 . S
C1360 H1376 0.931 . S
C1361 C1360 1.391 . S
C1361 C1365 1.376 . S
C1362 C1360 1.394 . S
C1362 C1363 1.369 . S
C1362 C1366 1.531 . S
C1363 C1362 1.369 . S
C1363 C1364 1.410 . S
C1363 C1371 1.503 1_545 S
C1364 C1363 1.410 . S
C1364 C1365 1.392 . S
C1364 C1367 1.511 . S
C1365 C1361 1.376 . S
C1365 C1364 1.392 . S
C1365 H1377 0.929 . S
C1366 C1362 1.531 . S
C1366 H1378 0.960 . S
C1366 H1379 0.962 . S
C1366 H1380 0.960 . S
C1367 C1364 1.511 . S
C1367 H1381 0.961 . S
C1367 H1382 0.961 1_545 S
C1367 H1383 0.961 . S
C1368 C1369 1.370 . S
C1368 C1370 1.363 . S
C1368 H1384 0.931 . S
C1369 C1368 1.370 . S
C1369 C1373 1.408 . S
C1370 C1368 1.363 . S
C1370 C1371 1.370 . S
C1370 C1374 1.524 1_565 S
C1371 C1363 1.503 1_565 S
C1371 C1370 1.370 . S
C1371 C1372 1.403 . S
C1372 C1371 1.403 . S
C1372 C1373 1.404 . S
C1372 C1375 1.539 . S
C1373 C1369 1.408 . S
C1373 C1372 1.404 . S
C1373 H1385 0.930 . S
C1374 C1370 1.524 1_545 S
C1374 H1386 0.956 . S
C1374 H1387 0.961 . S
C1374 H1388 0.961 . S
C1375 C1372 1.539 . S
C1375 H1389 0.958 . S
C1375 H1390 0.961 . S
C1375 H1391 0.960 . S
H1376 C1360 0.931 . S
H1377 C1365 0.929 . S
H1378 C1366 0.960 . S
H1379 C1366 0.962 . S
H1380 C1366 0.960 . S
H1381 C1367 0.961 . S
H1382 C1367 0.961 1_565 S
H1383 C1367 0.961 . S
H1384 C1368 0.931 . S
H1385 C1373 0.930 . S
H1386 C1374 0.956 . S
H1387 C1374 0.961 . S
H1388 C1374 0.961 . S
H1389 C1375 0.958 . S
H1390 C1375 0.961 . S
H1391 C1375 0.960 . S
C1392 C1393 1.391 . S
C1392 C1394 1.394 . S
C1392 H1408 0.931 . S
C1393 C1392 1.391 . S
C1393 C1397 1.376 . S
C1394 C1392 1.394 . S
C1394 C1395 1.369 . S
C1394 C1398 1.531 . S
C1395 C1394 1.369 . S
C1395 C1396 1.410 . S
C1395 C1403 1.503 . S
C1396 C1395 1.410 . S
C1396 C1397 1.392 . S
C1396 C1399 1.511 . S
C1397 C1393 1.376 . S
C1397 C1396 1.392 . S
C1397 H1409 0.929 . S
C1398 C1394 1.531 . S
C1398 H1410 0.960 . S
C1398 H1411 0.962 . S
C1398 H1412 0.960 . S
C1399 C1396 1.511 . S
C1399 H1413 0.961 . S
C1399 H1414 0.961 . S
C1399 H1415 0.961 . S
C1400 C1401 1.370 . S
C1400 C1402 1.363 . S
C1400 H1416 0.931 . S
C1401 C1400 1.370 . S
C1401 C1405 1.408 . S
C1402 C1400 1.363 . S
C1402 C1403 1.370 . S
C1402 C1406 1.524 . S
C1403 C1395 1.503 . S
C1403 C1402 1.370 . S
C1403 C1404 1.403 . S
C1404 C1403 1.403 . S
C1404 C1405 1.404 . S
C1404 C1407 1.539 . S
C1405 C1401 1.408 . S
C1405 C1404 1.404 . S
C1405 H1417 0.930 . S
C1406 C1402 1.524 . S
C1406 H1418 0.956 . S
C1406 H1419 0.961 . S
C1406 H1420 0.961 . S
C1407 C1404 1.539 . S
C1407 H1421 0.958 . S
C1407 H1422 0.961 . S
C1407 H1423 0.960 . S
H1408 C1392 0.931 . S
H1409 C1397 0.929 . S
H1410 C1398 0.960 . S
H1411 C1398 0.962 . S
H1412 C1398 0.960 . S
H1413 C1399 0.961 . S
H1414 C1399 0.961 . S
H1415 C1399 0.961 . S
H1416 C1400 0.931 . S
H1417 C1405 0.930 . S
H1418 C1406 0.956 . S
H1419 C1406 0.961 . S
H1420 C1406 0.961 . S
H1421 C1407 0.958 . S
H1422 C1407 0.961 . S
H1423 C1407 0.960 . S
C1424 C1425 1.391 . S
C1424 C1426 1.394 . S
C1424 H1440 0.931 . S
C1425 C1424 1.391 . S
C1425 C1429 1.376 . S
C1426 C1424 1.394 . S
C1426 C1427 1.369 . S
C1426 C1430 1.531 . S
C1427 C1426 1.369 . S
C1427 C1428 1.410 . S
C1427 C1435 1.503 . S
C1428 C1427 1.410 . S
C1428 C1429 1.392 . S
C1428 C1431 1.511 . S
C1429 C1425 1.376 . S
C1429 C1428 1.392 . S
C1429 H1441 0.929 . S
C1430 C1426 1.531 . S
C1430 H1442 0.960 . S
C1430 H1443 0.962 . S
C1430 H1444 0.960 . S
C1431 C1428 1.511 . S
C1431 H1445 0.961 . S
C1431 H1446 0.961 . S
C1431 H1447 0.961 . S
C1432 C1433 1.370 . S
C1432 C1434 1.363 . S
C1432 H1448 0.931 . S
C1433 C1432 1.370 . S
C1433 C1437 1.408 . S
C1434 C1432 1.363 . S
C1434 C1435 1.370 . S
C1434 C1438 1.524 . S
C1435 C1427 1.503 . S
C1435 C1434 1.370 . S
C1435 C1436 1.403 . S
C1436 C1435 1.403 . S
C1436 C1437 1.404 . S
C1436 C1439 1.539 . S
C1437 C1433 1.408 . S
C1437 C1436 1.404 . S
C1437 H1449 0.930 . S
C1438 C1434 1.524 . S
C1438 H1450 0.956 . S
C1438 H1451 0.961 . S
C1438 H1452 0.961 . S
C1439 C1436 1.539 . S
C1439 H1453 0.958 . S
C1439 H1454 0.961 . S
C1439 H1455 0.960 . S
H1440 C1424 0.931 . S
H1441 C1429 0.929 . S
H1442 C1430 0.960 . S
H1443 C1430 0.962 . S
H1444 C1430 0.960 . S
H1445 C1431 0.961 . S
H1446 C1431 0.961 . S
H1447 C1431 0.961 . S
H1448 C1432 0.931 . S
H1449 C1437 0.930 . S
H1450 C1438 0.956 . S
H1451 C1438 0.961 . S
H1452 C1438 0.961 . S
H1453 C1439 0.958 . S
H1454 C1439 0.961 . S
H1455 C1439 0.960 . S
C1456 C1457 1.391 . S
C1456 C1458 1.394 . S
C1456 H1472 0.931 . S
C1457 C1456 1.391 . S
C1457 C1461 1.376 . S
C1458 C1456 1.394 . S
C1458 C1459 1.369 . S
C1458 C1462 1.531 . S
C1459 C1458 1.369 . S
C1459 C1460 1.410 . S
C1459 C1467 1.503 . S
C1460 C1459 1.410 . S
C1460 C1461 1.392 . S
C1460 C1463 1.511 . S
C1461 C1457 1.376 . S
C1461 C1460 1.392 . S
C1461 H1473 0.929 . S
C1462 C1458 1.531 . S
C1462 H1474 0.960 . S
C1462 H1475 0.962 . S
C1462 H1476 0.960 . S
C1463 C1460 1.511 . S
C1463 H1477 0.961 . S
C1463 H1478 0.961 . S
C1463 H1479 0.961 . S
C1464 C1465 1.370 . S
C1464 C1466 1.363 . S
C1464 H1480 0.931 . S
C1465 C1464 1.370 . S
C1465 C1469 1.408 . S
C1466 C1464 1.363 . S
C1466 C1467 1.370 . S
C1466 C1470 1.524 . S
C1467 C1459 1.503 . S
C1467 C1466 1.370 . S
C1467 C1468 1.403 . S
C1468 C1467 1.403 . S
C1468 C1469 1.404 . S
C1468 C1471 1.539 . S
C1469 C1465 1.408 . S
C1469 C1468 1.404 . S
C1469 H1481 0.930 . S
C1470 C1466 1.524 . S
C1470 H1482 0.956 . S
C1470 H1483 0.961 . S
C1470 H1484 0.961 . S
C1471 C1468 1.539 . S
C1471 H1485 0.958 . S
C1471 H1486 0.961 . S
C1471 H1487 0.960 . S
H1472 C1456 0.931 . S
H1473 C1461 0.929 . S
H1474 C1462 0.960 . S
H1475 C1462 0.962 . S
H1476 C1462 0.960 . S
H1477 C1463 0.961 . S
H1478 C1463 0.961 . S
H1479 C1463 0.961 . S
H1480 C1464 0.931 . S
H1481 C1469 0.930 . S
H1482 C1470 0.956 . S
H1483 C1470 0.961 . S
H1484 C1470 0.961 . S
H1485 C1471 0.958 . S
H1486 C1471 0.961 . S
H1487 C1471 0.960 . S
C1488 C1489 1.391 . S
C1488 C1490 1.394 . S
C1488 H1504 0.931 . S
C1489 C1488 1.391 . S
C1489 C1493 1.376 . S
C1490 C1488 1.394 . S
C1490 C1491 1.369 . S
C1490 C1494 1.531 . S
C1491 C1490 1.369 . S
C1491 C1492 1.410 . S
C1491 C1499 1.503 . S
C1492 C1491 1.410 . S
C1492 C1493 1.392 . S
C1492 C1495 1.511 . S
C1493 C1489 1.376 . S
C1493 C1492 1.392 . S
C1493 H1505 0.929 . S
C1494 C1490 1.531 . S
C1494 H1506 0.960 . S
C1494 H1507 0.962 . S
C1494 H1508 0.960 . S
C1495 C1492 1.511 . S
C1495 H1509 0.961 . S
C1495 H1510 0.961 . S
C1495 H1511 0.961 . S
C1496 C1497 1.370 . S
C1496 C1498 1.363 . S
C1496 H1512 0.931 . S
C1497 C1496 1.370 . S
C1497 C1501 1.408 . S
C1498 C1496 1.363 . S
C1498 C1499 1.370 . S
C1498 C1502 1.524 . S
C1499 C1491 1.503 . S
C1499 C1498 1.370 . S
C1499 C1500 1.403 . S
C1500 C1499 1.403 . S
C1500 C1501 1.404 . S
C1500 C1503 1.539 . S
C1501 C1497 1.408 . S
C1501 C1500 1.404 . S
C1501 H1513 0.930 . S
C1502 C1498 1.524 . S
C1502 H1514 0.956 . S
C1502 H1515 0.961 . S
C1502 H1516 0.961 . S
C1503 C1500 1.539 . S
C1503 H1517 0.958 . S
C1503 H1518 0.961 . S
C1503 H1519 0.960 . S
H1504 C1488 0.931 . S
H1505 C1493 0.929 . S
H1506 C1494 0.960 . S
H1507 C1494 0.962 . S
H1508 C1494 0.960 . S
H1509 C1495 0.961 . S
H1510 C1495 0.961 . S
H1511 C1495 0.961 . S
H1512 C1496 0.931 . S
H1513 C1501 0.930 . S
H1514 C1502 0.956 . S
H1515 C1502 0.961 . S
H1516 C1502 0.961 . S
H1517 C1503 0.958 . S
H1518 C1503 0.961 . S
H1519 C1503 0.960 . S
C1520 C1521 1.391 . S
C1520 C1522 1.394 . S
C1520 H1536 0.931 . S
C1521 C1520 1.391 . S
C1521 C1525 1.376 . S
C1522 C1520 1.394 . S
C1522 C1523 1.369 . S
C1522 C1526 1.531 . S
C1523 C1522 1.369 . S
C1523 C1524 1.410 . S
C1523 C1531 1.503 . S
C1524 C1523 1.410 . S
C1524 C1525 1.392 . S
C1524 C1527 1.511 . S
C1525 C1521 1.376 . S
C1525 C1524 1.392 . S
C1525 H1537 0.929 . S
C1526 C1522 1.531 . S
C1526 H1538 0.960 . S
C1526 H1539 0.962 . S
C1526 H1540 0.960 . S
C1527 C1524 1.511 . S
C1527 H1541 0.961 . S
C1527 H1542 0.961 . S
C1527 H1543 0.961 . S
C1528 C1529 1.370 . S
C1528 C1530 1.363 . S
C1528 H1544 0.931 . S
C1529 C1528 1.370 . S
C1529 C1533 1.408 . S
C1530 C1528 1.363 . S
C1530 C1531 1.370 . S
C1530 C1534 1.524 . S
C1531 C1523 1.503 . S
C1531 C1530 1.370 . S
C1531 C1532 1.403 . S
C1532 C1531 1.403 . S
C1532 C1533 1.404 . S
C1532 C1535 1.539 . S
C1533 C1529 1.408 . S
C1533 C1532 1.404 . S
C1533 H1545 0.930 . S
C1534 C1530 1.524 . S
C1534 H1546 0.956 . S
C1534 H1547 0.961 . S
C1534 H1548 0.961 . S
C1535 C1532 1.539 . S
C1535 H1549 0.958 . S
C1535 H1550 0.961 . S
C1535 H1551 0.960 . S
H1536 C1520 0.931 . S
H1537 C1525 0.929 . S
H1538 C1526 0.960 . S
H1539 C1526 0.962 . S
H1540 C1526 0.960 . S
H1541 C1527 0.961 . S
H1542 C1527 0.961 . S
H1543 C1527 0.961 . S
H1544 C1528 0.931 . S
H1545 C1533 0.930 . S
H1546 C1534 0.956 . S
H1547 C1534 0.961 . S
H1548 C1534 0.961 . S
H1549 C1535 0.958 . S
H1550 C1535 0.961 . S
H1551 C1535 0.960 . S
C1552 C1553 1.391 . S
C1552 C1554 1.394 . S
C1552 H1568 0.931 . S
C1553 C1552 1.391 . S
C1553 C1557 1.376 . S
C1554 C1552 1.394 . S
C1554 C1555 1.369 . S
C1554 C1558 1.531 . S
C1555 C1554 1.369 . S
C1555 C1556 1.410 . S
C1555 C1563 1.503 . S
C1556 C1555 1.410 . S
C1556 C1557 1.392 . S
C1556 C1559 1.511 . S
C1557 C1553 1.376 . S
C1557 C1556 1.392 . S
C1557 H1569 0.929 . S
C1558 C1554 1.531 . S
C1558 H1570 0.960 . S
C1558 H1571 0.962 . S
C1558 H1572 0.960 . S
C1559 C1556 1.511 . S
C1559 H1573 0.961 . S
C1559 H1574 0.961 . S
C1559 H1575 0.961 . S
C1560 C1561 1.370 . S
C1560 C1562 1.363 . S
C1560 H1576 0.931 . S
C1561 C1560 1.370 . S
C1561 C1565 1.408 . S
C1562 C1560 1.363 . S
C1562 C1563 1.370 . S
C1562 C1566 1.524 . S
C1563 C1555 1.503 . S
C1563 C1562 1.370 . S
C1563 C1564 1.403 . S
C1564 C1563 1.403 . S
C1564 C1565 1.404 . S
C1564 C1567 1.539 . S
C1565 C1561 1.408 . S
C1565 C1564 1.404 . S
C1565 H1577 0.930 . S
C1566 C1562 1.524 . S
C1566 H1578 0.956 . S
C1566 H1579 0.961 . S
C1566 H1580 0.961 . S
C1567 C1564 1.539 . S
C1567 H1581 0.958 . S
C1567 H1582 0.961 . S
C1567 H1583 0.960 . S
H1568 C1552 0.931 . S
H1569 C1557 0.929 . S
H1570 C1558 0.960 . S
H1571 C1558 0.962 . S
H1572 C1558 0.960 . S
H1573 C1559 0.961 . S
H1574 C1559 0.961 . S
H1575 C1559 0.961 . S
H1576 C1560 0.931 . S
H1577 C1565 0.930 . S
H1578 C1566 0.956 . S
H1579 C1566 0.961 . S
H1580 C1566 0.961 . S
H1581 C1567 0.958 . S
H1582 C1567 0.961 . S
H1583 C1567 0.960 . S
C1584 C1585 1.391 . S
C1584 C1586 1.394 . S
C1584 H1600 0.931 . S
C1585 C1584 1.391 . S
C1585 C1589 1.376 . S
C1586 C1584 1.394 . S
C1586 C1587 1.369 . S
C1586 C1590 1.531 . S
C1587 C1586 1.369 . S
C1587 C1588 1.410 . S
C1587 C1595 1.503 1_566 S
C1588 C1587 1.410 . S
C1588 C1589 1.392 . S
C1588 C1591 1.511 . S
C1589 C1585 1.376 . S
C1589 C1588 1.392 . S
C1589 H1601 0.929 . S
C1590 C1586 1.531 . S
C1590 H1602 0.960 1_565 S
C1590 H1603 0.920 1_556 S
C1590 H1604 0.960 . S
C1591 C1588 1.511 . S
C1591 H1605 0.961 . S
C1591 H1606 0.957 1_566 S
C1591 H1607 0.961 1_565 S
C1592 C1593 1.370 . S
C1592 C1594 1.363 . S
C1592 H1608 0.931 . S
C1593 C1592 1.370 . S
C1593 C1597 1.408 . S
C1594 C1592 1.363 . S
C1594 C1595 1.370 . S
C1594 C1598 1.524 1_545 S
C1595 C1587 1.503 1_544 S
C1595 C1594 1.370 . S
C1595 C1596 1.403 1_554 S
C1596 C1595 1.403 1_556 S
C1596 C1597 1.404 1_556 S
C1596 C1599 1.539 . S
C1597 C1593 1.408 . S
C1597 C1596 1.404 1_554 S
C1597 H1609 0.930 . S
C1598 C1594 1.524 1_565 S
C1598 H1610 0.956 . S
C1598 H1611 0.961 . S
C1598 H1612 0.961 . S
C1599 C1596 1.539 . S
C1599 H1613 0.958 . S
C1599 H1614 0.961 . S
C1599 H1615 0.960 . S
H1600 C1584 0.931 . S
H1601 C1589 0.929 . S
H1602 C1590 0.960 1_545 S
H1603 C1590 0.920 1_554 S
H1604 C1590 0.960 . S
H1605 C1591 0.961 . S
H1606 C1591 0.957 1_544 S
H1607 C1591 0.961 1_545 S
H1608 C1592 0.931 . S
H1609 C1597 0.930 . S
H1610 C1598 0.956 . S
H1611 C1598 0.961 . S
H1612 C1598 0.961 . S
H1613 C1599 0.958 . S
H1614 C1599 0.961 . S
H1615 C1599 0.960 . S
C1616 C1617 1.391 . S
C1616 C1618 1.394 . S
C1616 H1632 0.931 . S
C1617 C1616 1.391 . S
C1617 C1621 1.376 . S
C1618 C1616 1.394 . S
C1618 C1619 1.369 . S
C1618 C1622 1.531 . S
C1619 C1618 1.369 . S
C1619 C1620 1.410 . S
C1619 C1627 1.503 . S
C1620 C1619 1.410 . S
C1620 C1621 1.392 . S
C1620 C1623 1.511 . S
C1621 C1617 1.376 . S
C1621 C1620 1.392 . S
C1621 H1633 0.929 . S
C1622 C1618 1.531 . S
C1622 H1634 0.960 . S
C1622 H1635 0.962 . S
C1622 H1636 0.960 . S
C1623 C1620 1.511 . S
C1623 H1637 0.961 . S
C1623 H1638 0.961 . S
C1623 H1639 0.961 . S
C1624 C1625 1.370 . S
C1624 C1626 1.363 . S
C1624 H1640 0.931 . S
C1625 C1624 1.370 . S
C1625 C1629 1.408 . S
C1626 C1624 1.363 . S
C1626 C1627 1.370 . S
C1626 C1630 1.524 . S
C1627 C1619 1.503 . S
C1627 C1626 1.370 . S
C1627 C1628 1.403 . S
C1628 C1627 1.403 . S
C1628 C1629 1.404 . S
C1628 C1631 1.539 . S
C1629 C1625 1.408 . S
C1629 C1628 1.404 . S
C1629 H1641 0.930 . S
C1630 C1626 1.524 . S
C1630 H1642 0.956 . S
C1630 H1643 0.961 . S
C1630 H1644 0.961 . S
C1631 C1628 1.539 . S
C1631 H1645 0.958 . S
C1631 H1646 0.961 . S
C1631 H1647 0.960 . S
H1632 C1616 0.931 . S
H1633 C1621 0.929 . S
H1634 C1622 0.960 . S
H1635 C1622 0.962 . S
H1636 C1622 0.960 . S
H1637 C1623 0.961 . S
H1638 C1623 0.961 . S
H1639 C1623 0.961 . S
H1640 C1624 0.931 . S
H1641 C1629 0.930 . S
H1642 C1630 0.956 . S
H1643 C1630 0.961 . S
H1644 C1630 0.961 . S
H1645 C1631 0.958 . S
H1646 C1631 0.961 . S
H1647 C1631 0.960 . S
C1648 C1649 1.391 . S
C1648 C1650 1.394 . S
C1648 H1664 0.931 . S
C1649 C1648 1.391 . S
C1649 C1653 1.376 . S
C1650 C1648 1.394 . S
C1650 C1651 1.369 . S
C1650 C1654 1.540 . S
C1651 C1650 1.369 . S
C1651 C1652 1.410 . S
C1651 C1659 1.503 1_456 S
C1652 C1651 1.410 . S
C1652 C1653 1.392 . S
C1652 C1655 1.511 . S
C1653 C1649 1.376 . S
C1653 C1652 1.392 . S
C1653 H1665 0.929 . S
C1654 C1650 1.540 . S
C1654 H1666 0.937 1_556 S
C1654 H1667 0.977 . S
C1654 H1668 0.960 1_556 S
C1655 C1652 1.511 . S
C1655 H1669 0.961 . S
C1655 H1670 0.961 1_455 S
C1655 H1671 0.961 1_556 S
C1656 C1657 1.370 . S
C1656 C1658 1.368 . S
C1656 H1672 0.931 . S
C1657 C1656 1.370 . S
C1657 C1661 1.408 . S
C1658 C1656 1.368 . S
C1658 C1659 1.374 . S
C1658 C1662 1.516 1_554 S
C1659 C1651 1.503 1_654 S
C1659 C1658 1.374 . S
C1659 C1660 1.403 . S
C1660 C1659 1.403 . S
C1660 C1661 1.404 . S
C1660 C1663 1.539 1_655 S
C1661 C1657 1.408 . S
C1661 C1660 1.404 . S
C1661 H1673 0.930 . S
C1662 C1658 1.516 1_556 S
C1662 H1674 0.956 . S
C1662 H1675 0.961 . S
C1662 H1676 0.961 . S
C1663 C1660 1.539 1_455 S
C1663 H1677 0.958 . S
C1663 H1678 0.961 . S
C1663 H1679 0.960 . S
H1664 C1648 0.931 . S
H1665 C1653 0.929 . S
H1666 C1654 0.937 1_554 S
H1667 C1654 0.977 . S
H1668 C1654 0.960 1_554 S
H1669 C1655 0.961 . S
H1670 C1655 0.961 1_655 S
H1671 C1655 0.961 1_554 S
H1672 C1656 0.931 . S
H1673 C1661 0.930 . S
H1674 C1662 0.956 . S
H1675 C1662 0.961 . S
H1676 C1662 0.961 . S
H1677 C1663 0.958 . S
H1678 C1663 0.961 . S
H1679 C1663 0.960 . S
C1680 C1681 1.391 . S
C1680 C1682 1.394 . S
C1680 H1696 0.931 . S
C1681 C1680 1.391 . S
C1681 C1685 1.376 . S
C1682 C1680 1.394 . S
C1682 C1683 1.369 . S
C1682 C1686 1.531 1_545 S
C1683 C1682 1.369 . S
C1683 C1684 1.410 . S
C1683 C1691 1.503 1_545 S
C1684 C1683 1.410 . S
C1684 C1685 1.392 . S
C1684 C1687 1.511 . S
C1685 C1681 1.376 . S
C1685 C1684 1.392 . S
C1685 H1697 0.929 . S
C1686 C1682 1.531 1_565 S
C1686 H1698 0.960 . S
C1686 H1699 0.962 . S
C1686 H1700 0.960 . S
C1687 C1684 1.511 . S
C1687 H1701 0.961 . S
C1687 H1702 0.961 . S
C1687 H1703 0.961 . S
C1688 C1689 1.370 . S
C1688 C1690 1.363 . S
C1688 H1704 0.931 . S
C1689 C1688 1.370 . S
C1689 C1693 1.408 . S
C1690 C1688 1.363 . S
C1690 C1691 1.370 . S
C1690 C1694 1.524 1_565 S
C1691 C1683 1.503 1_565 S
C1691 C1690 1.370 . S
C1691 C1692 1.403 . S
C1692 C1691 1.403 . S
C1692 C1693 1.404 . S
C1692 C1695 1.539 . S
C1693 C1689 1.408 . S
C1693 C1692 1.404 . S
C1693 H1705 0.930 . S
C1694 C1690 1.524 1_545 S
C1694 H1706 0.956 . S
C1694 H1707 0.961 . S
C1694 H1708 0.961 . S
C1695 C1692 1.539 . S
C1695 H1709 0.958 . S
C1695 H1710 0.961 . S
C1695 H1711 0.960 . S
H1696 C1680 0.931 . S
H1697 C1685 0.929 . S
H1698 C1686 0.960 . S
H1699 C1686 0.962 . S
H1700 C1686 0.960 . S
H1701 C1687 0.961 . S
H1702 C1687 0.961 . S
H1703 C1687 0.961 . S
H1704 C1688 0.931 . S
H1705 C1693 0.930 . S
H1706 C1694 0.956 . S
H1707 C1694 0.961 . S
H1708 C1694 0.961 . S
H1709 C1695 0.958 . S
H1710 C1695 0.961 . S
H1711 C1695 0.960 . S
C1712 C1713 1.391 . S
C1712 C1714 1.394 . S
C1712 H1728 0.931 . S
C1713 C1712 1.391 . S
C1713 C1717 1.376 . S
C1714 C1712 1.394 . S
C1714 C1715 1.369 . S
C1714 C1718 1.531 . S
C1715 C1714 1.369 . S
C1715 C1716 1.410 . S
C1715 C1723 1.503 1_554 S
C1716 C1715 1.410 . S
C1716 C1717 1.392 . S
C1716 C1719 1.511 . S
C1717 C1713 1.376 . S
C1717 C1716 1.392 . S
C1717 H1729 0.929 . S
C1718 C1714 1.531 . S
C1718 H1730 0.960 . S
C1718 H1731 0.962 1_554 S
C1718 H1732 0.960 . S
C1719 C1716 1.511 . S
C1719 H1733 0.961 . S
C1719 H1734 0.921 1_554 S
C1719 H1735 0.961 . S
C1720 C1721 1.370 . S
C1720 C1722 1.363 . S
C1720 H1736 0.931 . S
C1721 C1720 1.370 . S
C1721 C1725 1.408 . S
C1722 C1720 1.363 . S
C1722 C1723 1.370 . S
C1722 C1726 1.524 . S
C1723 C1715 1.503 1_556 S
C1723 C1722 1.370 . S
C1723 C1724 1.403 1_556 S
C1724 C1723 1.403 1_554 S
C1724 C1725 1.404 1_554 S
C1724 C1727 1.539 . S
C1725 C1721 1.408 . S
C1725 C1724 1.404 1_556 S
C1725 H1737 0.930 . S
C1726 C1722 1.524 . S
C1726 H1738 0.956 . S
C1726 H1739 0.961 . S
C1726 H1740 0.961 . S
C1727 C1724 1.539 . S
C1727 H1741 0.958 . S
C1727 H1742 0.961 . S
C1727 H1743 0.960 . S
H1728 C1712 0.931 . S
H1729 C1717 0.929 . S
H1730 C1718 0.960 . S
H1731 C1718 0.962 1_556 S
H1732 C1718 0.960 . S
H1733 C1719 0.961 . S
H1734 C1719 0.921 1_556 S
H1735 C1719 0.961 . S
H1736 C1720 0.931 . S
H1737 C1725 0.930 . S
H1738 C1726 0.956 . S
H1739 C1726 0.961 . S
H1740 C1726 0.961 . S
H1741 C1727 0.958 . S
H1742 C1727 0.961 . S
H1743 C1727 0.960 . S
C1744 C1745 1.391 . S
C1744 C1746 1.394 . S
C1744 H1760 0.931 . S
C1745 C1744 1.391 . S
C1745 C1749 1.376 . S
C1746 C1744 1.394 . S
C1746 C1747 1.369 . S
C1746 C1750 1.531 . S
C1747 C1746 1.369 . S
C1747 C1748 1.410 . S
C1747 C1755 1.503 1_455 S
C1748 C1747 1.410 . S
C1748 C1749 1.392 . S
C1748 C1751 1.511 . S
C1749 C1745 1.376 . S
C1749 C1748 1.392 . S
C1749 H1761 0.929 . S
C1750 C1746 1.531 . S
C1750 H1762 0.960 1_455 S
C1750 H1763 0.962 1_455 S
C1750 H1764 0.960 . S
C1751 C1748 1.511 . S
C1751 H1765 0.961 . S
C1751 H1766 0.961 . S
C1751 H1767 0.961 . S
C1752 C1753 1.370 . S
C1752 C1754 1.363 . S
C1752 H1768 0.931 . S
C1753 C1752 1.370 . S
C1753 C1757 1.408 . S
C1754 C1752 1.363 . S
C1754 C1755 1.370 . S
C1754 C1758 1.524 . S
C1755 C1747 1.503 1_655 S
C1755 C1754 1.370 . S
C1755 C1756 1.403 . S
C1756 C1755 1.403 . S
C1756 C1757 1.404 . S
C1756 C1759 1.539 1_655 S
C1757 C1753 1.408 . S
C1757 C1756 1.404 . S
C1757 H1769 0.930 . S
C1758 C1754 1.524 . S
C1758 H1770 0.956 . S
C1758 H1771 0.961 . S
C1758 H1772 0.961 . S
C1759 C1756 1.539 1_455 S
C1759 H1773 0.958 . S
C1759 H1774 0.961 . S
C1759 H1775 0.960 . S
H1760 C1744 0.931 . S
H1761 C1749 0.929 . S
H1762 C1750 0.960 1_655 S
H1763 C1750 0.962 1_655 S
H1764 C1750 0.960 . S
H1765 C1751 0.961 . S
H1766 C1751 0.961 . S
H1767 C1751 0.961 . S
H1768 C1752 0.931 . S
H1769 C1757 0.930 . S
H1770 C1758 0.956 . S
H1771 C1758 0.961 . S
H1772 C1758 0.961 . S
H1773 C1759 0.958 . S
H1774 C1759 0.961 . S
H1775 C1759 0.960 . S
C1776 C1777 1.391 . S
C1776 C1778 1.394 . S
C1776 H1792 0.931 . S
C1777 C1776 1.391 . S
C1777 C1781 1.376 . S
C1778 C1776 1.394 . S
C1778 C1779 1.369 . S
C1778 C1782 1.531 . S
C1779 C1778 1.369 . S
C1779 C1780 1.410 . S
C1779 C1787 1.503 . S
C1780 C1779 1.410 . S
C1780 C1781 1.392 . S
C1780 C1783 1.511 . S
C1781 C1777 1.376 . S
C1781 C1780 1.392 . S
C1781 H1793 0.929 . S
C1782 C1778 1.531 . S
C1782 H1794 0.960 . S
C1782 H1795 0.962 . S
C1782 H1796 0.960 . S
C1783 C1780 1.511 . S
C1783 H1797 0.961 . S
C1783 H1798 0.961 . S
C1783 H1799 0.961 . S
C1784 C1785 1.370 . S
C1784 C1786 1.363 . S
C1784 H1800 0.931 . S
C1785 C1784 1.370 . S
C1785 C1789 1.408 . S
C1786 C1784 1.363 . S
C1786 C1787 1.370 . S
C1786 C1790 1.524 . S
C1787 C1779 1.503 . S
C1787 C1786 1.370 . S
C1787 C1788 1.403 . S
C1788 C1787 1.403 . S
C1788 C1789 1.404 . S
C1788 C1791 1.539 . S
C1789 C1785 1.408 . S
C1789 C1788 1.404 . S
C1789 H1801 0.930 . S
C1790 C1786 1.524 . S
C1790 H1802 0.956 . S
C1790 H1803 0.961 . S
C1790 H1804 0.961 . S
C1791 C1788 1.539 . S
C1791 H1805 0.958 . S
C1791 H1806 0.961 . S
C1791 H1807 0.960 . S
H1792 C1776 0.931 . S
H1793 C1781 0.929 . S
H1794 C1782 0.960 . S
H1795 C1782 0.962 . S
H1796 C1782 0.960 . S
H1797 C1783 0.961 . S
H1798 C1783 0.961 . S
H1799 C1783 0.961 . S
H1800 C1784 0.931 . S
H1801 C1789 0.930 . S
H1802 C1790 0.956 . S
H1803 C1790 0.961 . S
H1804 C1790 0.961 . S
H1805 C1791 0.958 . S
H1806 C1791 0.961 . S
H1807 C1791 0.960 . S
C1808 C1809 1.391 . S
C1808 C1810 1.394 . S
C1808 H1824 0.931 . S
C1809 C1808 1.391 . S
C1809 C1813 1.376 . S
C1810 C1808 1.394 . S
C1810 C1811 1.369 . S
C1810 C1814 1.531 . S
C1811 C1810 1.369 . S
C1811 C1812 1.410 . S
C1811 C1819 1.503 . S
C1812 C1811 1.410 . S
C1812 C1813 1.392 . S
C1812 C1815 1.511 . S
C1813 C1809 1.376 . S
C1813 C1812 1.392 . S
C1813 H1825 0.929 . S
C1814 C1810 1.531 . S
C1814 H1826 0.960 . S
C1814 H1827 0.962 . S
C1814 H1828 0.960 . S
C1815 C1812 1.511 . S
C1815 H1829 0.961 . S
C1815 H1830 0.961 . S
C1815 H1831 0.961 . S
C1816 C1817 1.370 . S
C1816 C1818 1.363 . S
C1816 H1832 0.931 . S
C1817 C1816 1.370 . S
C1817 C1821 1.408 . S
C1818 C1816 1.363 . S
C1818 C1819 1.370 . S
C1818 C1822 1.524 . S
C1819 C1811 1.503 . S
C1819 C1818 1.370 . S
C1819 C1820 1.403 . S
C1820 C1819 1.403 . S
C1820 C1821 1.404 . S
C1820 C1823 1.539 . S
C1821 C1817 1.408 . S
C1821 C1820 1.404 . S
C1821 H1833 0.930 . S
C1822 C1818 1.524 . S
C1822 H1834 0.956 . S
C1822 H1835 0.961 . S
C1822 H1836 0.961 . S
C1823 C1820 1.539 . S
C1823 H1837 0.958 . S
C1823 H1838 0.961 . S
C1823 H1839 0.960 . S
H1824 C1808 0.931 . S
H1825 C1813 0.929 . S
H1826 C1814 0.960 . S
H1827 C1814 0.962 . S
H1828 C1814 0.960 . S
H1829 C1815 0.961 . S
H1830 C1815 0.961 . S
H1831 C1815 0.961 . S
H1832 C1816 0.931 . S
H1833 C1821 0.930 . S
H1834 C1822 0.956 . S
H1835 C1822 0.961 . S
H1836 C1822 0.961 . S
H1837 C1823 0.958 . S
H1838 C1823 0.961 . S
H1839 C1823 0.960 . S
C1840 C1841 1.391 . S
C1840 C1842 1.394 . S
C1840 H1856 0.931 . S
C1841 C1840 1.391 . S
C1841 C1845 1.376 . S
C1842 C1840 1.394 . S
C1842 C1843 1.369 . S
C1842 C1846 1.531 . S
C1843 C1842 1.369 . S
C1843 C1844 1.410 . S
C1843 C1851 1.503 . S
C1844 C1843 1.410 . S
C1844 C1845 1.392 . S
C1844 C1847 1.511 . S
C1845 C1841 1.376 . S
C1845 C1844 1.392 . S
C1845 H1857 0.929 . S
C1846 C1842 1.531 . S
C1846 H1858 0.960 . S
C1846 H1859 0.962 . S
C1846 H1860 0.960 . S
C1847 C1844 1.511 . S
C1847 H1861 0.961 . S
C1847 H1862 0.961 . S
C1847 H1863 0.961 . S
C1848 C1849 1.370 . S
C1848 C1850 1.363 . S
C1848 H1864 0.931 . S
C1849 C1848 1.370 . S
C1849 C1853 1.408 . S
C1850 C1848 1.363 . S
C1850 C1851 1.370 . S
C1850 C1854 1.524 . S
C1851 C1843 1.503 . S
C1851 C1850 1.370 . S
C1851 C1852 1.403 . S
C1852 C1851 1.403 . S
C1852 C1853 1.404 . S
C1852 C1855 1.539 . S
C1853 C1849 1.408 . S
C1853 C1852 1.404 . S
C1853 H1865 0.930 . S
C1854 C1850 1.524 . S
C1854 H1866 0.956 . S
C1854 H1867 0.961 . S
C1854 H1868 0.961 . S
C1855 C1852 1.539 . S
C1855 H1869 0.958 . S
C1855 H1870 0.961 . S
C1855 H1871 0.960 . S
H1856 C1840 0.931 . S
H1857 C1845 0.929 . S
H1858 C1846 0.960 . S
H1859 C1846 0.962 . S
H1860 C1846 0.960 . S
H1861 C1847 0.961 . S
H1862 C1847 0.961 . S
H1863 C1847 0.961 . S
H1864 C1848 0.931 . S
H1865 C1853 0.930 . S
H1866 C1854 0.956 . S
H1867 C1854 0.961 . S
H1868 C1854 0.961 . S
H1869 C1855 0.958 . S
H1870 C1855 0.961 . S
H1871 C1855 0.960 . S
C1872 C1873 1.391 . S
C1872 C1874 1.394 . S
C1872 H1888 0.931 . S
C1873 C1872 1.391 . S
C1873 C1877 1.376 . S
C1874 C1872 1.394 . S
C1874 C1875 1.369 . S
C1874 C1878 1.531 . S
C1875 C1874 1.369 . S
C1875 C1876 1.410 . S
C1875 C1883 1.503 . S
C1876 C1875 1.410 . S
C1876 C1877 1.392 . S
C1876 C1879 1.511 . S
C1877 C1873 1.376 . S
C1877 C1876 1.392 . S
C1877 H1889 0.929 . S
C1878 C1874 1.531 . S
C1878 H1890 0.960 . S
C1878 H1891 0.962 . S
C1878 H1892 0.960 . S
C1879 C1876 1.511 . S
C1879 H1893 0.961 . S
C1879 H1894 0.961 . S
C1879 H1895 0.961 . S
C1880 C1881 1.370 . S
C1880 C1882 1.363 . S
C1880 H1896 0.931 . S
C1881 C1880 1.370 . S
C1881 C1885 1.408 . S
C1882 C1880 1.363 . S
C1882 C1883 1.370 . S
C1882 C1886 1.524 . S
C1883 C1875 1.503 . S
C1883 C1882 1.370 . S
C1883 C1884 1.403 . S
C1884 C1883 1.403 . S
C1884 C1885 1.404 . S
C1884 C1887 1.539 . S
C1885 C1881 1.408 . S
C1885 C1884 1.404 . S
C1885 H1897 0.930 . S
C1886 C1882 1.524 . S
C1886 H1898 0.956 . S
C1886 H1899 0.961 . S
C1886 H1900 0.961 . S
C1887 C1884 1.539 . S
C1887 H1901 0.958 . S
C1887 H1902 0.961 . S
C1887 H1903 0.960 . S
H1888 C1872 0.931 . S
H1889 C1877 0.929 . S
H1890 C1878 0.960 . S
H1891 C1878 0.962 . S
H1892 C1878 0.960 . S
H1893 C1879 0.961 . S
H1894 C1879 0.961 . S
H1895 C1879 0.961 . S
H1896 C1880 0.931 . S
H1897 C1885 0.930 . S
H1898 C1886 0.956 . S
H1899 C1886 0.961 . S
H1900 C1886 0.961 . S
H1901 C1887 0.958 . S
H1902 C1887 0.961 . S
H1903 C1887 0.960 . S
C1904 C1905 1.391 . S
C1904 C1906 1.394 . S
C1904 H1920 0.931 . S
C1905 C1904 1.391 . S
C1905 C1909 1.376 . S
C1906 C1904 1.394 . S
C1906 C1907 1.369 . S
C1906 C1910 1.531 . S
C1907 C1906 1.369 . S
C1907 C1908 1.410 . S
C1907 C1915 1.503 . S
C1908 C1907 1.410 . S
C1908 C1909 1.392 . S
C1908 C1911 1.511 . S
C1909 C1905 1.376 . S
C1909 C1908 1.392 . S
C1909 H1921 0.929 . S
C1910 C1906 1.531 . S
C1910 H1922 0.960 . S
C1910 H1923 0.962 . S
C1910 H1924 0.960 . S
C1911 C1908 1.511 . S
C1911 H1925 0.961 . S
C1911 H1926 0.961 . S
C1911 H1927 0.961 . S
C1912 C1913 1.370 . S
C1912 C1914 1.363 . S
C1912 H1928 0.931 . S
C1913 C1912 1.370 . S
C1913 C1917 1.408 . S
C1914 C1912 1.363 . S
C1914 C1915 1.370 . S
C1914 C1918 1.524 . S
C1915 C1907 1.503 . S
C1915 C1914 1.370 . S
C1915 C1916 1.403 . S
C1916 C1915 1.403 . S
C1916 C1917 1.404 . S
C1916 C1919 1.539 . S
C1917 C1913 1.408 . S
C1917 C1916 1.404 . S
C1917 H1929 0.930 . S
C1918 C1914 1.524 . S
C1918 H1930 0.956 . S
C1918 H1931 0.961 . S
C1918 H1932 0.961 . S
C1919 C1916 1.539 . S
C1919 H1933 0.958 . S
C1919 H1934 0.961 . S
C1919 H1935 0.960 . S
H1920 C1904 0.931 . S
H1921 C1909 0.929 . S
H1922 C1910 0.960 . S
H1923 C1910 0.962 . S
H1924 C1910 0.960 . S
H1925 C1911 0.961 . S
H1926 C1911 0.961 . S
H1927 C1911 0.961 . S
H1928 C1912 0.931 . S
H1929 C1917 0.930 . S
H1930 C1918 0.956 . S
H1931 C1918 0.961 . S
H1932 C1918 0.961 . S
H1933 C1919 0.958 . S
H1934 C1919 0.961 . S
H1935 C1919 0.960 . S
C1936 C1937 1.391 . S
C1936 C1938 1.394 . S
C1936 H1952 0.931 . S
C1937 C1936 1.391 . S
C1937 C1941 1.376 . S
C1938 C1936 1.394 . S
C1938 C1939 1.369 . S
C1938 C1942 1.531 . S
C1939 C1938 1.369 . S
C1939 C1940 1.410 . S
C1939 C1947 1.503 . S
C1940 C1939 1.410 . S
C1940 C1941 1.392 . S
C1940 C1943 1.511 . S
C1941 C1937 1.376 . S
C1941 C1940 1.392 . S
C1941 H1953 0.929 . S
C1942 C1938 1.531 . S
C1942 H1954 0.960 . S
C1942 H1955 0.962 . S
C1942 H1956 0.960 . S
C1943 C1940 1.511 . S
C1943 H1957 0.961 . S
C1943 H1958 0.961 . S
C1943 H1959 0.961 . S
C1944 C1945 1.370 . S
C1944 C1946 1.363 . S
C1944 H1960 0.931 . S
C1945 C1944 1.370 . S
C1945 C1949 1.408 . S
C1946 C1944 1.363 . S
C1946 C1947 1.370 . S
C1946 C1950 1.524 . S
C1947 C1939 1.503 . S
C1947 C1946 1.370 . S
C1947 C1948 1.403 . S
C1948 C1947 1.403 . S
C1948 C1949 1.404 . S
C1948 C1951 1.539 . S
C1949 C1945 1.408 . S
C1949 C1948 1.404 . S
C1949 H1961 0.930 . S
C1950 C1946 1.524 . S
C1950 H1962 0.956 . S
C1950 H1963 0.961 . S
C1950 H1964 0.961 . S
C1951 C1948 1.539 . S
C1951 H1965 0.958 . S
C1951 H1966 0.961 . S
C1951 H1967 0.960 . S
H1952 C1936 0.931 . S
H1953 C1941 0.929 . S
H1954 C1942 0.960 . S
H1955 C1942 0.962 . S
H1956 C1942 0.960 . S
H1957 C1943 0.961 . S
H1958 C1943 0.961 . S
H1959 C1943 0.961 . S
H1960 C1944 0.931 . S
H1961 C1949 0.930 . S
H1962 C1950 0.956 . S
H1963 C1950 0.961 . S
H1964 C1950 0.961 . S
H1965 C1951 0.958 . S
H1966 C1951 0.961 . S
H1967 C1951 0.960 . S
C1968 C1969 1.391 . S
C1968 C1970 1.394 . S
C1968 H1984 0.931 . S
C1969 C1968 1.391 . S
C1969 C1973 1.376 . S
C1970 C1968 1.394 . S
C1970 C1971 1.369 . S
C1970 C1974 1.531 . S
C1971 C1970 1.369 . S
C1971 C1972 1.410 . S
C1971 C1979 1.503 . S
C1972 C1971 1.410 . S
C1972 C1973 1.392 . S
C1972 C1975 1.511 . S
C1973 C1969 1.376 . S
C1973 C1972 1.392 . S
C1973 H1985 0.929 . S
C1974 C1970 1.531 . S
C1974 H1986 0.960 . S
C1974 H1987 0.962 . S
C1974 H1988 0.960 . S
C1975 C1972 1.511 . S
C1975 H1989 0.961 . S
C1975 H1990 0.961 . S
C1975 H1991 0.961 . S
C1976 C1977 1.370 . S
C1976 C1978 1.363 . S
C1976 H1992 0.931 . S
C1977 C1976 1.370 . S
C1977 C1981 1.408 . S
C1978 C1976 1.363 . S
C1978 C1979 1.370 . S
C1978 C1982 1.524 . S
C1979 C1971 1.503 . S
C1979 C1978 1.370 . S
C1979 C1980 1.403 . S
C1980 C1979 1.403 . S
C1980 C1981 1.404 . S
C1980 C1983 1.539 . S
C1981 C1977 1.408 . S
C1981 C1980 1.404 . S
C1981 H1993 0.930 . S
C1982 C1978 1.524 . S
C1982 H1994 0.956 . S
C1982 H1995 0.961 . S
C1982 H1996 0.961 . S
C1983 C1980 1.539 . S
C1983 H1997 0.958 . S
C1983 H1998 0.961 . S
C1983 H1999 0.960 . S
H1984 C1968 0.931 . S
H1985 C1973 0.929 . S
H1986 C1974 0.960 . S
H1987 C1974 0.962 . S
H1988 C1974 0.960 . S
H1989 C1975 0.961 . S
H1990 C1975 0.961 . S
H1991 C1975 0.961 . S
H1992 C1976 0.931 . S
H1993 C1981 0.930 . S
H1994 C1982 0.956 . S
H1995 C1982 0.961 . S
H1996 C1982 0.961 . S
H1997 C1983 0.958 . S
H1998 C1983 0.961 . S
H1999 C1983 0.960 . S
C2000 C2001 1.391 . S
C2000 C2002 1.394 . S
C2000 H2016 0.931 . S
C2001 C2000 1.391 . S
C2001 C2005 1.376 . S
C2002 C2000 1.394 . S
C2002 C2003 1.369 . S
C2002 C2006 1.531 . S
C2003 C2002 1.369 . S
C2003 C2004 1.410 . S
C2003 C2011 1.503 . S
C2004 C2003 1.410 . S
C2004 C2005 1.392 . S
C2004 C2007 1.511 . S
C2005 C2001 1.376 . S
C2005 C2004 1.392 . S
C2005 H2017 0.929 . S
C2006 C2002 1.531 . S
C2006 H2018 0.960 . S
C2006 H2019 0.962 . S
C2006 H2020 0.960 . S
C2007 C2004 1.511 . S
C2007 H2021 0.961 . S
C2007 H2022 0.961 . S
C2007 H2023 0.961 . S
C2008 C2009 1.370 . S
C2008 C2010 1.363 . S
C2008 H2024 0.931 . S
C2009 C2008 1.370 . S
C2009 C2013 1.408 . S
C2010 C2008 1.363 . S
C2010 C2011 1.370 . S
C2010 C2014 1.524 . S
C2011 C2003 1.503 . S
C2011 C2010 1.370 . S
C2011 C2012 1.403 . S
C2012 C2011 1.403 . S
C2012 C2013 1.404 . S
C2012 C2015 1.539 . S
C2013 C2009 1.408 . S
C2013 C2012 1.404 . S
C2013 H2025 0.930 . S
C2014 C2010 1.524 . S
C2014 H2026 0.956 . S
C2014 H2027 0.961 . S
C2014 H2028 0.961 . S
C2015 C2012 1.539 . S
C2015 H2029 0.958 . S
C2015 H2030 0.961 . S
C2015 H2031 0.960 . S
H2016 C2000 0.931 . S
H2017 C2005 0.929 . S
H2018 C2006 0.960 . S
H2019 C2006 0.962 . S
H2020 C2006 0.960 . S
H2021 C2007 0.961 . S
H2022 C2007 0.961 . S
H2023 C2007 0.961 . S
H2024 C2008 0.931 . S
H2025 C2013 0.930 . S
H2026 C2014 0.956 . S
H2027 C2014 0.961 . S
H2028 C2014 0.961 . S
H2029 C2015 0.958 . S
H2030 C2015 0.961 . S
H2031 C2015 0.960 . S
C2032 C2033 1.391 . S
C2032 C2034 1.394 . S
C2032 H2048 0.931 . S
C2033 C2032 1.391 . S
C2033 C2037 1.376 . S
C2034 C2032 1.394 . S
C2034 C2035 1.369 . S
C2034 C2038 1.531 . S
C2035 C2034 1.369 . S
C2035 C2036 1.410 . S
C2035 C2043 1.503 . S
C2036 C2035 1.410 . S
C2036 C2037 1.392 . S
C2036 C2039 1.511 . S
C2037 C2033 1.376 . S
C2037 C2036 1.392 . S
C2037 H2049 0.929 . S
C2038 C2034 1.531 . S
C2038 H2050 0.960 . S
C2038 H2051 0.962 . S
C2038 H2052 0.960 . S
C2039 C2036 1.511 . S
C2039 H2053 0.961 . S
C2039 H2054 0.961 . S
C2039 H2055 0.961 . S
C2040 C2041 1.370 . S
C2040 C2042 1.363 . S
C2040 H2056 0.931 . S
C2041 C2040 1.370 . S
C2041 C2045 1.408 . S
C2042 C2040 1.363 . S
C2042 C2043 1.370 . S
C2042 C2046 1.524 . S
C2043 C2035 1.503 . S
C2043 C2042 1.370 . S
C2043 C2044 1.403 . S
C2044 C2043 1.403 . S
C2044 C2045 1.404 . S
C2044 C2047 1.539 . S
C2045 C2041 1.408 . S
C2045 C2044 1.404 . S
C2045 H2057 0.930 . S
C2046 C2042 1.524 . S
C2046 H2058 0.956 . S
C2046 H2059 0.961 . S
C2046 H2060 0.961 . S
C2047 C2044 1.539 . S
C2047 H2061 0.958 . S
C2047 H2062 0.961 . S
C2047 H2063 0.960 . S
H2048 C2032 0.931 . S
H2049 C2037 0.929 . S
H2050 C2038 0.960 . S
H2051 C2038 0.962 . S
H2052 C2038 0.960 . S
H2053 C2039 0.961 . S
H2054 C2039 0.961 . S
H2055 C2039 0.961 . S
H2056 C2040 0.931 . S
H2057 C2045 0.930 . S
H2058 C2046 0.956 . S
H2059 C2046 0.961 . S
H2060 C2046 0.961 . S
H2061 C2047 0.958 . S
H2062 C2047 0.961 . S
H2063 C2047 0.960 . S
C2064 C2065 1.391 . S
C2064 C2066 1.394 . S
C2064 H2080 0.931 . S
C2065 C2064 1.391 . S
C2065 C2069 1.376 . S
C2066 C2064 1.394 . S
C2066 C2067 1.369 . S
C2066 C2070 1.531 . S
C2067 C2066 1.369 . S
C2067 C2068 1.410 . S
C2067 C2075 1.503 . S
C2068 C2067 1.410 . S
C2068 C2069 1.392 . S
C2068 C2071 1.511 . S
C2069 C2065 1.376 . S
C2069 C2068 1.392 . S
C2069 H2081 0.929 . S
C2070 C2066 1.531 . S
C2070 H2082 0.960 . S
C2070 H2083 0.962 . S
C2070 H2084 0.960 . S
C2071 C2068 1.511 . S
C2071 H2085 0.961 . S
C2071 H2086 0.961 . S
C2071 H2087 0.961 . S
C2072 C2073 1.370 . S
C2072 C2074 1.363 . S
C2072 H2088 0.931 . S
C2073 C2072 1.370 . S
C2073 C2077 1.408 . S
C2074 C2072 1.363 . S
C2074 C2075 1.370 . S
C2074 C2078 1.524 . S
C2075 C2067 1.503 . S
C2075 C2074 1.370 . S
C2075 C2076 1.403 . S
C2076 C2075 1.403 . S
C2076 C2077 1.404 . S
C2076 C2079 1.539 . S
C2077 C2073 1.408 . S
C2077 C2076 1.404 . S
C2077 H2089 0.930 . S
C2078 C2074 1.524 . S
C2078 H2090 0.956 . S
C2078 H2091 0.961 . S
C2078 H2092 0.961 . S
C2079 C2076 1.539 . S
C2079 H2093 0.958 . S
C2079 H2094 0.961 . S
C2079 H2095 0.960 . S
H2080 C2064 0.931 . S
H2081 C2069 0.929 . S
H2082 C2070 0.960 . S
H2083 C2070 0.962 . S
H2084 C2070 0.960 . S
H2085 C2071 0.961 . S
H2086 C2071 0.961 . S
H2087 C2071 0.961 . S
H2088 C2072 0.931 . S
H2089 C2077 0.930 . S
H2090 C2078 0.956 . S
H2091 C2078 0.961 . S
H2092 C2078 0.961 . S
H2093 C2079 0.958 . S
H2094 C2079 0.961 . S
H2095 C2079 0.960 . S
C2096 C2097 1.391 . S
C2096 C2098 1.394 . S
C2096 H2112 0.931 . S
C2097 C2096 1.391 . S
C2097 C2101 1.376 . S
C2098 C2096 1.394 . S
C2098 C2099 1.369 . S
C2098 C2102 1.531 . S
C2099 C2098 1.369 . S
C2099 C2100 1.410 . S
C2099 C2107 1.503 . S
C2100 C2099 1.410 . S
C2100 C2101 1.392 . S
C2100 C2103 1.511 . S
C2101 C2097 1.376 . S
C2101 C2100 1.392 . S
C2101 H2113 0.929 . S
C2102 C2098 1.531 . S
C2102 H2114 0.960 . S
C2102 H2115 0.962 . S
C2102 H2116 0.960 . S
C2103 C2100 1.511 . S
C2103 H2117 0.961 . S
C2103 H2118 0.961 . S
C2103 H2119 0.961 . S
C2104 C2105 1.370 . S
C2104 C2106 1.363 . S
C2104 H2120 0.931 . S
C2105 C2104 1.370 . S
C2105 C2109 1.408 . S
C2106 C2104 1.363 . S
C2106 C2107 1.370 . S
C2106 C2110 1.524 . S
C2107 C2099 1.503 . S
C2107 C2106 1.370 . S
C2107 C2108 1.403 . S
C2108 C2107 1.403 . S
C2108 C2109 1.404 . S
C2108 C2111 1.539 . S
C2109 C2105 1.408 . S
C2109 C2108 1.404 . S
C2109 H2121 0.930 . S
C2110 C2106 1.524 . S
C2110 H2122 0.956 . S
C2110 H2123 0.961 . S
C2110 H2124 0.961 . S
C2111 C2108 1.539 . S
C2111 H2125 0.958 . S
C2111 H2126 0.961 . S
C2111 H2127 0.960 . S
H2112 C2096 0.931 . S
H2113 C2101 0.929 . S
H2114 C2102 0.960 . S
H2115 C2102 0.962 . S
H2116 C2102 0.960 . S
H2117 C2103 0.961 . S
H2118 C2103 0.961 . S
H2119 C2103 0.961 . S
H2120 C2104 0.931 . S
H2121 C2109 0.930 . S
H2122 C2110 0.956 . S
H2123 C2110 0.961 . S
H2124 C2110 0.961 . S
H2125 C2111 0.958 . S
H2126 C2111 0.961 . S
H2127 C2111 0.960 . S
C2128 C2129 1.391 . S
C2128 C2130 1.394 . S
C2128 H2144 0.931 . S
C2129 C2128 1.391 . S
C2129 C2133 1.376 . S
C2130 C2128 1.394 . S
C2130 C2131 1.369 . S
C2130 C2134 1.531 . S
C2131 C2130 1.369 . S
C2131 C2132 1.410 . S
C2131 C2139 1.503 . S
C2132 C2131 1.410 . S
C2132 C2133 1.392 . S
C2132 C2135 1.511 . S
C2133 C2129 1.376 . S
C2133 C2132 1.392 . S
C2133 H2145 0.929 . S
C2134 C2130 1.531 . S
C2134 H2146 0.960 . S
C2134 H2147 0.962 . S
C2134 H2148 0.960 . S
C2135 C2132 1.511 . S
C2135 H2149 0.961 . S
C2135 H2150 0.961 . S
C2135 H2151 0.961 . S
C2136 C2137 1.370 . S
C2136 C2138 1.363 . S
C2136 H2152 0.931 . S
C2137 C2136 1.370 . S
C2137 C2141 1.408 . S
C2138 C2136 1.363 . S
C2138 C2139 1.370 . S
C2138 C2142 1.524 . S
C2139 C2131 1.503 . S
C2139 C2138 1.370 . S
C2139 C2140 1.403 . S
C2140 C2139 1.403 . S
C2140 C2141 1.404 . S
C2140 C2143 1.539 . S
C2141 C2137 1.408 . S
C2141 C2140 1.404 . S
C2141 H2153 0.930 . S
C2142 C2138 1.524 . S
C2142 H2154 0.956 . S
C2142 H2155 0.961 . S
C2142 H2156 0.961 . S
C2143 C2140 1.539 . S
C2143 H2157 0.958 . S
C2143 H2158 0.961 . S
C2143 H2159 0.960 . S
H2144 C2128 0.931 . S
H2145 C2133 0.929 . S
H2146 C2134 0.960 . S
H2147 C2134 0.962 . S
H2148 C2134 0.960 . S
H2149 C2135 0.961 . S
H2150 C2135 0.961 . S
H2151 C2135 0.961 . S
H2152 C2136 0.931 . S
H2153 C2141 0.930 . S
H2154 C2142 0.956 . S
H2155 C2142 0.961 . S
H2156 C2142 0.961 . S
H2157 C2143 0.958 . S
H2158 C2143 0.961 . S
H2159 C2143 0.960 . S
C1009 C231 1.222 . S
C1017 C56 1.299 . S
C1041 C324 1.245 . S
C1049 C151 1.300 . S
C1073 C224 1.302 . S
C1081 C399 1.230 . S
C1105 C319 1.322 . S
C1113 C492 1.239 . S
C1137 C63 1.198 . S
C1145 C392 1.295 . S
C1169 C156 1.152 . S
C1177 C487 1.301 . S
C1201 C912 1.271 . S
C1209 C571 1.315 . S
C1233 C644 1.279 . S
C1241 C987 1.190 . S
C1265 C739 1.340 . S
C1273 C576 1.221 . S
C1297 C812 1.341 . S
C1305 C651 1.235 . S
C1329 C907 1.298 . S
C1337 C744 1.191 . S
C1361 C819 1.203 . S
C1369 C980 1.295 . S
C1393 C327 1.900 . S
C1401 C66 1.921 . S
C1425 C159 1.956 . S
C1433 C402 1.943 . S
C1457 C234 1.957 . S
C1465 C495 1.945 . S
C1489 C579 1.899 . S
C1497 C822 1.921 . S
C1521 C654 1.932 . S
C1529 C915 1.933 . S
C1553 C747 1.932 . S
C1561 C990 1.936 . S
C1585 C663 2.123 . S
C1593 C75 2.152 . S
C1617 C150 2.136 . S
C1625 C738 2.132 . S
C1649 C831 2.153 . S
C1657 C243 2.134 . S
C1681 C318 2.111 . S
C1689 C906 2.139 . S
C1713 C411 2.121 . S
C1721 C999 2.151 . S
C1745 C570 2.147 . S
C1753 C486 2.135 . S
C1777 C240 1.357 . S
C1785 C67 1.416 . S
C1809 C140 1.402 . S
C1817 C315 1.290 . S
C1841 C235 1.360 . S
C1849 C408 1.310 . S
C1873 C308 1.368 . S
C1881 C483 1.290 . S
C1905 C72 1.366 . S
C1913 C403 1.409 . S
C1937 C147 1.363 . S
C1945 C476 1.417 . S
C1969 C903 1.323 . S
C1977 C560 1.422 . S
C2001 C655 1.442 . S
C2009 C996 1.319 . S
C2033 C728 1.398 . S
C2041 C567 1.289 . S
C2065 C660 1.285 . S
C2073 C823 1.419 . S
C2097 C896 1.387 . S
C2105 C735 1.288 . S
C2129 C991 1.441 . S
C2137 C828 1.309 . S
