# Generated by pormake.
# Topology umc, (4)-cn, num edge types: 1
# Building blocks:
#     Node 0, Type 0, BuildingBlock: GALJAG_clean_sbu_0, # of connection points: 4
#     Node 1, Type 0, BuildingBlock: GALJAG_clean_sbu_0, # of connection points: 4
#     Node 2, Type 0, BuildingBlock: GALJAG_clean_sbu_0, # of connection points: 4
#     Node 3, Type 0, BuildingBlock: GALJAG_clean_sbu_0, # of connection points: 4
#     Node 4, Type 0, BuildingBlock: GALJAG_clean_sbu_0, # of connection points: 4
#     Node 5, Type 0, BuildingBlock: GALJAG_clean_sbu_0, # of connection points: 4
#     Node 6, Type 0, BuildingBlock: GALJAG_clean_sbu_0, # of connection points: 4
#     Node 7, Type 0, BuildingBlock: GALJAG_clean_sbu_0, # of connection points: 4
#     Node 8, Type 0, BuildingBlock: GALJAG_clean_sbu_0, # of connection points: 4
#     Node 9, Type 0, BuildingBlock: GALJAG_clean_sbu_0, # of connection points: 4
#     Node 10, Type 0, BuildingBlock: GALJAG_clean_sbu_0, # of connection points: 4
#     Node 11, Type 0, BuildingBlock: GALJAG_clean_sbu_0, # of connection points: 4
#     Node 12, Type 0, BuildingBlock: GALJAG_clean_sbu_0, # of connection points: 4
#     Node 13, Type 0, BuildingBlock: GALJAG_clean_sbu_0, # of connection points: 4
#     Node 14, Type 0, BuildingBlock: GALJAG_clean_sbu_0, # of connection points: 4
#     Node 15, Type 0, BuildingBlock: GALJAG_clean_sbu_0, # of connection points: 4
#     Edge 16, Type (0, 0), BuildingBlock: MIFKUJ_clean_linker_0, # of connection points: 2
#     Edge 17, Type (0, 0), BuildingBlock: MIFKUJ_clean_linker_0, # of connection points: 2
#     Edge 18, Type (0, 0), BuildingBlock: MIFKUJ_clean_linker_0, # of connection points: 2
#     Edge 19, Type (0, 0), BuildingBlock: MIFKUJ_clean_linker_0, # of connection points: 2
#     Edge 20, Type (0, 0), BuildingBlock: MIFKUJ_clean_linker_0, # of connection points: 2
#     Edge 21, Type (0, 0), BuildingBlock: MIFKUJ_clean_linker_0, # of connection points: 2
#     Edge 22, Type (0, 0), BuildingBlock: MIFKUJ_clean_linker_0, # of connection points: 2
#     Edge 23, Type (0, 0), BuildingBlock: MIFKUJ_clean_linker_0, # of connection points: 2
#     Edge 24, Type (0, 0), BuildingBlock: MIFKUJ_clean_linker_0, # of connection points: 2
#     Edge 25, Type (0, 0), BuildingBlock: MIFKUJ_clean_linker_0, # of connection points: 2
#     Edge 26, Type (0, 0), BuildingBlock: MIFKUJ_clean_linker_0, # of connection points: 2
#     Edge 27, Type (0, 0), BuildingBlock: MIFKUJ_clean_linker_0, # of connection points: 2
#     Edge 28, Type (0, 0), BuildingBlock: MIFKUJ_clean_linker_0, # of connection points: 2
#     Edge 29, Type (0, 0), BuildingBlock: MIFKUJ_clean_linker_0, # of connection points: 2
#     Edge 30, Type (0, 0), BuildingBlock: MIFKUJ_clean_linker_0, # of connection points: 2
#     Edge 31, Type (0, 0), BuildingBlock: MIFKUJ_clean_linker_0, # of connection points: 2
#     Edge 32, Type (0, 0), BuildingBlock: MIFKUJ_clean_linker_0, # of connection points: 2
#     Edge 33, Type (0, 0), BuildingBlock: MIFKUJ_clean_linker_0, # of connection points: 2
#     Edge 34, Type (0, 0), BuildingBlock: MIFKUJ_clean_linker_0, # of connection points: 2
#     Edge 35, Type (0, 0), BuildingBlock: MIFKUJ_clean_linker_0, # of connection points: 2
#     Edge 36, Type (0, 0), BuildingBlock: MIFKUJ_clean_linker_0, # of connection points: 2
#     Edge 37, Type (0, 0), BuildingBlock: MIFKUJ_clean_linker_0, # of connection points: 2
#     Edge 38, Type (0, 0), BuildingBlock: MIFKUJ_clean_linker_0, # of connection points: 2
#     Edge 39, Type (0, 0), BuildingBlock: MIFKUJ_clean_linker_0, # of connection points: 2
#     Edge 40, Type (0, 0), BuildingBlock: MIFKUJ_clean_linker_0, # of connection points: 2
#     Edge 41, Type (0, 0), BuildingBlock: MIFKUJ_clean_linker_0, # of connection points: 2
#     Edge 42, Type (0, 0), BuildingBlock: MIFKUJ_clean_linker_0, # of connection points: 2
#     Edge 43, Type (0, 0), BuildingBlock: MIFKUJ_clean_linker_0, # of connection points: 2
#     Edge 44, Type (0, 0), BuildingBlock: MIFKUJ_clean_linker_0, # of connection points: 2
#     Edge 45, Type (0, 0), BuildingBlock: MIFKUJ_clean_linker_0, # of connection points: 2
#     Edge 46, Type (0, 0), BuildingBlock: MIFKUJ_clean_linker_0, # of connection points: 2
#     Edge 47, Type (0, 0), BuildingBlock: MIFKUJ_clean_linker_0, # of connection points: 2
# Relax obj value: 0.064
# Max RMSD: 0.131
# Mean RMSD: 0.131
data_MOF--net-umc--node1-GALJAG_clean_sbu_0--edge1-MIFKUJ_clean_linker_0
_symmetry_space_group_name_H-M    P1
_symmetry_Int_Tables_number       1
_symmetry_cell_setting            triclinic
loop_
_symmetry_equiv_pos_as_xyz
'x, y, z'
_cell_length_a     53.806041
_cell_length_b     49.237834
_cell_length_c     73.49787
_cell_angle_alpha  89.991366
_cell_angle_beta   89.97805
_cell_angle_gamma 89.977047
loop_
_atom_site_label
_atom_site_type_symbol
_atom_site_fract_x
_atom_site_fract_y
_atom_site_fract_z
_atom_type_partial_charge
In0 In 0.32698 0.07039 0.36979 0.0
O1 O 0.32875 0.11667 0.36752 0.0
O2 O 0.29351 0.09816 0.37214 0.0
C3 C 0.37451 0.05488 0.36403 0.0
C4 C 0.32111 0.05773 0.40514 0.0
C5 C 0.30691 0.04851 0.33971 0.0
O6 O 0.36803 0.07956 0.36353 0.0
O7 O 0.35714 0.03847 0.36739 0.0
O8 O 0.30584 0.03677 0.35499 0.0
O9 O 0.31767 0.07125 0.33978 0.0
C10 C 0.30562 0.11985 0.36982 0.0
O11 O 0.30781 0.04713 0.39288 0.0
O12 O 0.33699 0.07458 0.39948 0.0
In13 In 0.6718 0.93839 0.36521 0.0
O14 O 0.69395 0.96016 0.3875 0.0
O15 O 0.65948 0.94167 0.39449 0.0
C16 C 0.69811 0.956 0.33628 0.0
C17 C 0.68716 0.88644 0.36796 0.0
C18 C 0.6247 0.95441 0.35794 0.0
O19 O 0.69385 0.97102 0.34985 0.0
O20 O 0.68949 0.93231 0.33751 0.0
O21 O 0.62998 0.93012 0.36193 0.0
O22 O 0.64311 0.97017 0.35732 0.0
C23 C 0.67828 0.95476 0.39981 0.0
O24 O 0.66901 0.89324 0.35802 0.0
O25 O 0.69722 0.9057 0.37655 0.0
In26 In 0.33285 0.92872 0.12769 0.0
O27 O 0.33516 0.88243 0.12556 0.0
O28 O 0.29965 0.90065 0.12969 0.0
C29 C 0.38084 0.94514 0.1271 0.0
C30 C 0.31709 0.94418 0.09457 0.0
C31 C 0.31925 0.94477 0.16116 0.0
O32 O 0.37491 0.92044 0.12893 0.0
O33 O 0.36269 0.96116 0.12561 0.0
O34 O 0.31235 0.95734 0.14703 0.0
O35 O 0.33304 0.92448 0.15831 0.0
C36 C 0.31199 0.87907 0.12757 0.0
O37 O 0.31056 0.95676 0.10878 0.0
O38 O 0.3314 0.92428 0.09722 0.0
In39 In 0.6777 0.06836 0.1259 0.0
O40 O 0.67376 0.11447 0.12846 0.0
O41 O 0.71 0.09783 0.12483 0.0
C42 C 0.63041 0.05014 0.12816 0.0
C43 C 0.68884 0.05624 0.09113 0.0
C44 C 0.69627 0.0505 0.15765 0.0
O45 O 0.63556 0.07516 0.12752 0.0
O46 O 0.64902 0.03459 0.12772 0.0
O47 O 0.70159 0.03921 0.14269 0.0
O48 O 0.68165 0.07046 0.15647 0.0
C49 C 0.69684 0.11885 0.12687 0.0
O50 O 0.69853 0.0435 0.10427 0.0
O51 O 0.67361 0.07449 0.09565 0.0
In52 In 0.67482 0.92585 0.62611 0.0
O53 O 0.69592 0.94859 0.60363 0.0
O54 O 0.66695 0.92143 0.5961 0.0
C55 C 0.69329 0.94607 0.65717 0.0
C56 C 0.69525 0.87596 0.62728 0.0
C57 C 0.62758 0.94326 0.63035 0.0
O58 O 0.69662 0.95777 0.64204 0.0
O59 O 0.68098 0.9243 0.65647 0.0
O60 O 0.63302 0.91827 0.62996 0.0
O61 O 0.64584 0.95907 0.62856 0.0
C62 C 0.68348 0.93785 0.59093 0.0
O63 O 0.67199 0.87959 0.62825 0.0
O64 O 0.70792 0.89739 0.62562 0.0
In65 In 0.33261 0.07042 0.63119 0.0
O66 O 0.33479 0.11681 0.63355 0.0
O67 O 0.2995 0.0985 0.62895 0.0
C68 C 0.37954 0.05187 0.63444 0.0
C69 C 0.32561 0.0567 0.59622 0.0
C70 C 0.31413 0.05265 0.66293 0.0
O71 O 0.37458 0.07701 0.63443 0.0
O72 O 0.3609 0.03647 0.63294 0.0
O73 O 0.30631 0.0436 0.64787 0.0
O74 O 0.33108 0.07026 0.66178 0.0
C75 C 0.31165 0.1201 0.63135 0.0
O76 O 0.31414 0.04476 0.60896 0.0
O77 O 0.34015 0.07533 0.60126 0.0
In78 In 0.6707 0.07225 0.86793 0.0
O79 O 0.66876 0.11854 0.86611 0.0
O80 O 0.70441 0.09965 0.86734 0.0
C81 C 0.62272 0.05623 0.86768 0.0
C82 C 0.68433 0.05987 0.90215 0.0
C83 C 0.68545 0.054 0.83522 0.0
O84 O 0.6288 0.08102 0.86728 0.0
O85 O 0.64074 0.03988 0.8682 0.0
O86 O 0.69069 0.04145 0.84974 0.0
O87 O 0.67284 0.07537 0.83732 0.0
C88 C 0.69214 0.12147 0.86631 0.0
O89 O 0.69264 0.04681 0.88864 0.0
O90 O 0.66919 0.07855 0.89827 0.0
In91 In 0.32516 0.93575 0.87287 0.0
O92 O 0.30557 0.96314 0.89378 0.0
O93 O 0.32928 0.93142 0.90312 0.0
C94 C 0.30822 0.95151 0.84017 0.0
C95 C 0.30643 0.88508 0.87354 0.0
C96 C 0.37221 0.95431 0.87083 0.0
O97 O 0.29883 0.96047 0.85478 0.0
O98 O 0.32587 0.93493 0.84225 0.0
O99 O 0.36715 0.92923 0.87056 0.0
O100 O 0.35358 0.96979 0.87206 0.0
C101 C 0.31513 0.9509 0.9072 0.0
O102 O 0.32956 0.88955 0.87281 0.0
O103 O 0.29301 0.90609 0.87383 0.0
In104 In 0.82433 0.57349 0.36524 0.0
O105 O 0.80535 0.54476 0.38547 0.0
O106 O 0.82691 0.57771 0.39573 0.0
C107 C 0.80691 0.55769 0.33262 0.0
C108 C 0.80388 0.6234 0.36623 0.0
C109 C 0.87198 0.55633 0.3638 0.0
O110 O 0.79931 0.54705 0.34726 0.0
O111 O 0.82299 0.57607 0.3346 0.0
O112 O 0.86645 0.58122 0.36517 0.0
O113 O 0.85359 0.5405 0.36316 0.0
C114 C 0.81337 0.55745 0.39924 0.0
O115 O 0.82654 0.61977 0.36229 0.0
O116 O 0.79181 0.60199 0.36954 0.0
In117 In 0.16852 0.4326 0.37128 0.0
O118 O 0.16476 0.38637 0.36902 0.0
O119 O 0.20098 0.40333 0.37173 0.0
C120 C 0.12132 0.45064 0.36801 0.0
C121 C 0.17841 0.44336 0.40641 0.0
C122 C 0.18747 0.45327 0.34044 0.0
O123 O 0.12672 0.42568 0.36703 0.0
O124 O 0.13962 0.46615 0.37057 0.0
O125 O 0.19083 0.46452 0.35571 0.0
O126 O 0.1747 0.43179 0.34087 0.0
C127 C 0.18792 0.38219 0.37011 0.0
O128 O 0.19064 0.45423 0.39365 0.0
O129 O 0.16132 0.42758 0.40132 0.0
In130 In 0.82634 0.43529 0.12114 0.0
O131 O 0.83018 0.38903 0.1226 0.0
O132 O 0.79392 0.40622 0.1241 0.0
C133 C 0.87404 0.45208 0.12051 0.0
C134 C 0.81274 0.44813 0.08696 0.0
C135 C 0.81234 0.45476 0.15376 0.0
O136 O 0.86826 0.42735 0.12242 0.0
O137 O 0.85584 0.46801 0.11868 0.0
O138 O 0.80049 0.4605 0.1394 0.0
O139 O 0.83089 0.4395 0.15149 0.0
C140 C 0.80704 0.38498 0.12406 0.0
O141 O 0.80753 0.46335 0.10028 0.0
O142 O 0.82458 0.42687 0.091 0.0
In143 In 0.17272 0.56792 0.12872 0.0
O144 O 0.19743 0.54285 0.10961 0.0
O145 O 0.16514 0.56194 0.09878 0.0
C146 C 0.1903 0.55376 0.16165 0.0
C147 C 0.19182 0.6182 0.12498 0.0
C148 C 0.1248 0.55224 0.13158 0.0
O149 O 0.19259 0.53853 0.14792 0.0
O150 O 0.17931 0.57593 0.15869 0.0
O151 O 0.13082 0.57663 0.12843 0.0
O152 O 0.14288 0.53622 0.1336 0.0
C153 C 0.18394 0.54726 0.09585 0.0
O154 O 0.16932 0.6143 0.12924 0.0
O155 O 0.20431 0.59684 0.12244 0.0
In156 In 0.16754 0.42852 0.63193 0.0
O157 O 0.1644 0.38211 0.63408 0.0
O158 O 0.20021 0.40026 0.63583 0.0
C159 C 0.12059 0.44737 0.63109 0.0
C160 C 0.18 0.43772 0.5971 0.0
C161 C 0.18098 0.45084 0.66369 0.0
O162 O 0.1255 0.42282 0.63479 0.0
O163 O 0.13929 0.46203 0.62771 0.0
O164 O 0.19275 0.45581 0.64915 0.0
O165 O 0.16282 0.43484 0.66204 0.0
C166 C 0.18759 0.3787 0.63582 0.0
O167 O 0.18908 0.45175 0.60991 0.0
O168 O 0.1649 0.41954 0.60202 0.0
In169 In 0.82118 0.55837 0.62227 0.0
O170 O 0.80354 0.5302 0.60076 0.0
O171 O 0.81715 0.56882 0.59257 0.0
C172 C 0.80136 0.52783 0.64925 0.0
C173 C 0.80442 0.60956 0.62679 0.0
C174 C 0.8711 0.55194 0.6245 0.0
O175 O 0.81694 0.51836 0.63809 0.0
O176 O 0.79524 0.55209 0.64631 0.0
O177 O 0.85824 0.55969 0.6379 0.0
O178 O 0.85893 0.5484 0.61007 0.0
C179 C 0.80689 0.54691 0.58793 0.0
O180 O 0.82719 0.60365 0.62851 0.0
O181 O 0.79053 0.58975 0.62297 0.0
In182 In 0.17993 0.56769 0.87612 0.0
O183 O 0.17533 0.61386 0.87688 0.0
O184 O 0.21179 0.59743 0.87919 0.0
C185 C 0.13282 0.54982 0.87299 0.0
C186 C 0.19011 0.54912 0.90967 0.0
C187 C 0.19652 0.55272 0.84314 0.0
O188 O 0.13798 0.57482 0.87415 0.0
O189 O 0.15137 0.53413 0.87327 0.0
O190 O 0.2025 0.53992 0.8574 0.0
O191 O 0.18251 0.5729 0.84568 0.0
C192 C 0.19834 0.6184 0.87855 0.0
O193 O 0.20364 0.54314 0.89618 0.0
O194 O 0.17196 0.56445 0.90614 0.0
In195 In 0.83495 0.43063 0.86519 0.0
O196 O 0.81514 0.45953 0.88504 0.0
O197 O 0.83344 0.42449 0.89554 0.0
C198 C 0.82052 0.44539 0.83162 0.0
C199 C 0.81423 0.38101 0.8645 0.0
C200 C 0.88264 0.44742 0.86553 0.0
O201 O 0.81137 0.45626 0.84572 0.0
O202 O 0.83699 0.42771 0.83461 0.0
O203 O 0.87688 0.42252 0.86579 0.0
O204 O 0.86442 0.46352 0.86512 0.0
C205 C 0.82072 0.44543 0.89884 0.0
O206 O 0.83757 0.38428 0.86476 0.0
O207 O 0.80166 0.40267 0.86463 0.0
H208 H 0.34825 0.07838 0.43292 0.0
H209 H 0.34543 0.06731 0.46511 0.0
H210 H 0.28624 0.01064 0.45392 0.0
H211 H 0.28881 0.02194 0.42136 0.0
H212 H 0.27647 0.04318 0.4838 0.0
H213 H 0.34167 0.98543 0.46429 0.0
H214 H 0.38001 0.97274 0.44799 0.0
H215 H 0.42167 0.02977 0.47994 0.0
H216 H 0.38353 0.04312 0.49625 0.0
H217 H 0.29338 0.02 0.58076 0.0
H218 H 0.28908 0.00935 0.5482 0.0
H219 H 0.3471 0.0669 0.53573 0.0
H220 H 0.35152 0.07745 0.56788 0.0
H221 H 0.35321 0.019 0.51755 0.0
H222 H 0.28611 0.08338 0.53108 0.0
H223 H 0.24772 0.09735 0.54689 0.0
H224 H 0.20986 0.02721 0.526 0.0
H225 H 0.24815 0.01268 0.51024 0.0
C226 C 0.33463 0.06352 0.43724 0.0
C227 C 0.31883 0.05092 0.42462 0.0
C228 C 0.33313 0.0571 0.45565 0.0
C229 C 0.31594 0.03778 0.46184 0.0
C230 C 0.29976 0.02545 0.44935 0.0
C231 C 0.30127 0.03189 0.43081 0.0
C232 C 0.3149 0.03134 0.48151 0.0
C233 C 0.29305 0.03716 0.49117 0.0
C234 C 0.33655 0.02349 0.49109 0.0
C235 C 0.35967 0.01532 0.48147 0.0
C236 C 0.35898 0.99537 0.46778 0.0
C237 C 0.38069 0.98805 0.45854 0.0
C238 C 0.40326 0.00045 0.46292 0.0
C239 C 0.40417 0.02016 0.47658 0.0
C240 C 0.38252 0.02757 0.48585 0.0
C241 C 0.30521 0.03027 0.57102 0.0
C242 C 0.32273 0.0496 0.57683 0.0
C243 C 0.30273 0.02419 0.55248 0.0
C244 C 0.31778 0.03736 0.53959 0.0
C245 C 0.33541 0.05639 0.54546 0.0
C246 C 0.33781 0.0625 0.56385 0.0
C247 C 0.31521 0.03227 0.51983 0.0
C248 C 0.33641 0.02415 0.51015 0.0
C249 C 0.293 0.03796 0.51027 0.0
C250 C 0.27004 0.04677 0.5197 0.0
C251 C 0.26965 0.07083 0.52999 0.0
C252 C 0.24791 0.07887 0.53891 0.0
C253 C 0.22639 0.06312 0.53751 0.0
C254 C 0.22655 0.03935 0.52712 0.0
C255 C 0.24826 0.03121 0.51819 0.0
H256 H 0.20957 0.06938 0.54442 0.0
H257 H 0.42004 0.99477 0.45574 0.0
H258 H 0.71816 0.97183 0.57554 0.0
H259 H 0.72495 0.98009 0.54291 0.0
H260 H 0.66507 0.92504 0.5301 0.0
H261 H 0.65844 0.91655 0.56234 0.0
H262 H 0.70499 0.9151 0.50937 0.0
H263 H 0.65744 0.99403 0.52902 0.0
H264 H 0.65037 0.0353 0.54732 0.0
H265 H 0.71732 0.07055 0.52601 0.0
H266 H 0.72494 0.0293 0.50774 0.0
H267 H 0.64763 0.94255 0.4279 0.0
H268 H 0.6565 0.9461 0.46031 0.0
H269 H 0.72704 0.98365 0.44845 0.0
H270 H 0.71841 0.97988 0.41565 0.0
H271 H 0.69345 0.00567 0.48092 0.0
H272 H 0.73658 0.9275 0.45737 0.0
H273 H 0.73997 0.88671 0.43806 0.0
H274 H 0.67898 0.85004 0.46662 0.0
H275 H 0.67491 0.89085 0.48588 0.0
C276 C 0.70649 0.96154 0.56571 0.0
C277 C 0.68779 0.94354 0.57146 0.0
C278 C 0.71035 0.96631 0.54712 0.0
C279 C 0.6955 0.95317 0.5341 0.0
C280 C 0.67686 0.93526 0.5399 0.0
C281 C 0.67302 0.93051 0.55836 0.0
C282 C 0.69892 0.95774 0.51433 0.0
C283 C 0.70265 0.93495 0.50319 0.0
C284 C 0.69652 0.98373 0.50625 0.0
C285 C 0.69194 0.00847 0.51722 0.0
C286 C 0.67077 0.01049 0.52837 0.0
C287 C 0.66663 0.03389 0.5387 0.0
C288 C 0.68343 0.05549 0.53788 0.0
C289 C 0.70436 0.05377 0.52667 0.0
C290 C 0.70859 0.03039 0.51632 0.0
C291 C 0.66488 0.95197 0.43212 0.0
C292 C 0.68245 0.96069 0.41925 0.0
C293 C 0.66988 0.95403 0.45064 0.0
C294 C 0.69245 0.96496 0.45667 0.0
C295 C 0.7095 0.9752 0.44396 0.0
C296 C 0.70457 0.97296 0.4253 0.0
C297 C 0.6987 0.96293 0.47616 0.0
C298 C 0.6967 0.98604 0.48719 0.0
C299 C 0.70257 0.93722 0.48421 0.0
C300 C 0.70535 0.91231 0.47299 0.0
C301 C 0.72378 0.91081 0.45945 0.0
C302 C 0.72584 0.88768 0.44852 0.0
C303 C 0.70968 0.86581 0.45109 0.0
C304 C 0.69148 0.867 0.46465 0.0
C305 C 0.68931 0.89011 0.47558 0.0
H306 H 0.71127 0.84793 0.4426 0.0
H307 H 0.6802 0.0736 0.54589 0.0
H308 H 0.32284 0.91488 0.06378 0.0
H309 H 0.31554 0.92949 0.03262 0.0
H310 H 0.28751 0.00634 0.05188 0.0
H311 H 0.29469 0.99166 0.08353 0.0
H312 H 0.26149 0.97605 0.01825 0.0
H313 H 0.33847 0.01542 0.03939 0.0
H314 H 0.37715 0.01293 0.05734 0.0
H315 H 0.4022 0.94582 0.02486 0.0
H316 H 0.36352 0.94762 0.0069 0.0
H317 H 0.28785 0.99381 0.92076 0.0
H318 H 0.2826 0.00626 0.95303 0.0
H319 H 0.32738 0.93736 0.96864 0.0
H320 H 0.33281 0.92514 0.93693 0.0
H321 H 0.34206 0.98337 0.9857 0.0
H322 H 0.26384 0.93618 0.971 0.0
H323 H 0.22406 0.93208 0.95453 0.0
H324 H 0.20115 0.00993 0.97487 0.0
H325 H 0.24095 0.01458 0.9913 0.0
C326 C 0.31479 0.93476 0.06148 0.0
C327 C 0.30964 0.95229 0.07605 0.0
C328 C 0.3105 0.943 0.04367 0.0
C329 C 0.30116 0.969 0.04003 0.0
C330 C 0.29465 0.98615 0.05451 0.0
C331 C 0.29886 0.9778 0.0725 0.0
C332 C 0.30126 0.97856 0.021 0.0
C333 C 0.27899 0.97863 0.01111 0.0
C334 C 0.32413 0.98173 0.0118 0.0
C335 C 0.34809 0.98166 0.02182 0.0
C336 C 0.35224 0.00015 0.03607 0.0
C337 C 0.37414 0.99883 0.04626 0.0
C338 C 0.39206 0.97919 0.04226 0.0
C339 C 0.38828 0.96102 0.02793 0.0
C340 C 0.36641 0.96223 0.01771 0.0
C341 C 0.29648 0.98139 0.93115 0.0
C342 C 0.31081 0.95857 0.92635 0.0
C343 C 0.29347 0.9885 0.94951 0.0
C344 C 0.30475 0.97281 0.96318 0.0
C345 C 0.31876 0.94994 0.9583 0.0
C346 C 0.32176 0.9429 0.94014 0.0
C347 C 0.30238 0.97943 0.98275 0.0
C348 C 0.32438 0.98232 0.99279 0.0
C349 C 0.27929 0.97879 0.99198 0.0
C350 C 0.25545 0.97589 0.98215 0.0
C351 C 0.25039 0.95251 0.97183 0.0
C352 C 0.22784 0.95006 0.96253 0.0
C353 C 0.21013 0.97078 0.9636 0.0
C354 C 0.21491 0.99394 0.97402 0.0
C355 C 0.23745 0.99649 0.98332 0.0
H356 H 0.19267 0.96885 0.9564 0.0
H357 H 0.40882 0.97796 0.0503 0.0
H358 H 0.71041 0.01625 0.91571 0.0
H359 H 0.7216 0.00791 0.94773 0.0
H360 H 0.68643 0.08329 0.96299 0.0
H361 H 0.67518 0.09159 0.93143 0.0
H362 H 0.73275 0.07624 0.97904 0.0
H363 H 0.65608 0.02486 0.96785 0.0
H364 H 0.63176 0.98912 0.95251 0.0
H365 H 0.6839 0.92884 0.9706 0.0
H366 H 0.7087 0.96434 0.98586 0.0
H367 H 0.67621 0.08735 0.06225 0.0
H368 H 0.68635 0.0801 0.03037 0.0
H369 H 0.72554 0.0065 0.04417 0.0
H370 H 0.71556 0.01383 0.07654 0.0
H371 H 0.69105 0.00255 0.01354 0.0
H372 H 0.76063 0.05444 0.03205 0.0
H373 H 0.78283 0.09104 0.04813 0.0
H374 H 0.74376 0.15083 0.01665 0.0
H375 H 0.72103 0.11462 0.00057 0.0
C376 C 0.7052 0.03102 0.92594 0.0
C377 C 0.69184 0.0545 0.92112 0.0
C378 C 0.71159 0.02624 0.94416 0.0
C379 C 0.70486 0.04503 0.95768 0.0
C380 C 0.69193 0.06863 0.95276 0.0
C381 C 0.68537 0.07325 0.93471 0.0
C382 C 0.71017 0.04027 0.97718 0.0
C383 C 0.72387 0.05998 0.9866 0.0
C384 C 0.69931 0.01851 0.98691 0.0
C385 C 0.68441 0.99726 0.97775 0.0
C386 C 0.66247 0.00402 0.9684 0.0
C387 C 0.64858 0.9838 0.95976 0.0
C388 C 0.65633 0.95674 0.96052 0.0
C389 C 0.67796 0.94982 0.96998 0.0
C390 C 0.69193 0.96997 0.97862 0.0
C391 C 0.68701 0.0696 0.05858 0.0
C392 C 0.69513 0.05116 0.07188 0.0
C393 C 0.69289 0.06556 0.04035 0.0
C394 C 0.70692 0.04295 0.03498 0.0
C395 C 0.71481 0.02416 0.04813 0.0
C396 C 0.70914 0.02838 0.06654 0.0
C397 C 0.71254 0.03933 0.01543 0.0
C398 C 0.70088 0.01813 0.00598 0.0
C399 C 0.72525 0.05978 0.00564 0.0
C400 C 0.73908 0.08175 0.01511 0.0
C401 C 0.75667 0.07539 0.02861 0.0
C402 C 0.76936 0.09608 0.03773 0.0
C403 C 0.7647 0.12324 0.03342 0.0
C404 C 0.74737 0.12977 0.01996 0.0
C405 C 0.73461 0.10916 0.01081 0.0
H406 H 0.77454 0.13923 0.0405 0.0
H407 H 0.64555 0.94111 0.95382 0.0
H408 H 0.8069 0.58319 0.56035 0.0
H409 H 0.79873 0.57502 0.52834 0.0
H410 H 0.78385 0.49061 0.5397 0.0
H411 H 0.79225 0.49872 0.57221 0.0
H412 H 0.81594 0.4981 0.51032 0.0
H413 H 0.73608 0.5289 0.52725 0.0
H414 H 0.7051 0.55761 0.54278 0.0
H415 H 0.73013 0.62708 0.51261 0.0
H416 H 0.76152 0.59892 0.49708 0.0
H417 H 0.79456 0.50918 0.41197 0.0
H418 H 0.78494 0.49761 0.44384 0.0
H419 H 0.80775 0.5778 0.46048 0.0
H420 H 0.81778 0.58922 0.42906 0.0
H421 H 0.76069 0.55938 0.47514 0.0
H422 H 0.84698 0.52998 0.46555 0.0
H423 H 0.87887 0.50195 0.45038 0.0
H424 H 0.84071 0.42945 0.46692 0.0
H425 H 0.80839 0.45711 0.48197 0.0
C426 C 0.80168 0.5629 0.55614 0.0
C427 C 0.80019 0.54159 0.56879 0.0
C428 C 0.79687 0.55829 0.53782 0.0
C429 C 0.79033 0.5323 0.53167 0.0
C430 C 0.78868 0.51086 0.54422 0.0
C431 C 0.7934 0.51553 0.56274 0.0
C432 C 0.78672 0.52798 0.51189 0.0
C433 C 0.80328 0.51082 0.50262 0.0
C434 C 0.77025 0.54464 0.50185 0.0
C435 C 0.7512 0.56173 0.51099 0.0
C436 C 0.73507 0.55032 0.52398 0.0
C437 C 0.71742 0.56651 0.53278 0.0
C438 C 0.71565 0.59415 0.52868 0.0
C439 C 0.7315 0.60565 0.51575 0.0
C440 C 0.74919 0.58957 0.5069 0.0
C441 C 0.79743 0.52427 0.42248 0.0
C442 C 0.80698 0.55005 0.41811 0.0
C443 C 0.79195 0.51766 0.4406 0.0
C444 C 0.79557 0.53693 0.45442 0.0
C445 C 0.80471 0.56274 0.44997 0.0
C446 C 0.81056 0.56916 0.43203 0.0
C447 C 0.79069 0.53058 0.47374 0.0
C448 C 0.77256 0.54581 0.48287 0.0
C449 C 0.80563 0.51212 0.48361 0.0
C450 C 0.82511 0.49558 0.47464 0.0
C451 C 0.84527 0.50806 0.46579 0.0
C452 C 0.86345 0.49226 0.45725 0.0
C453 C 0.86177 0.46394 0.45762 0.0
C454 C 0.84195 0.45138 0.46659 0.0
C455 C 0.8237 0.46711 0.47513 0.0
H456 H 0.87585 0.45173 0.45101 0.0
H457 H 0.70199 0.60665 0.53553 0.0
H458 H 0.21389 0.47315 0.58212 0.0
H459 H 0.2237 0.47874 0.54962 0.0
H460 H 0.16943 0.41736 0.53629 0.0
H461 H 0.16 0.41141 0.56834 0.0
H462 H 0.21155 0.40915 0.51804 0.0
H463 H 0.1576 0.48666 0.53247 0.0
H464 H 0.14766 0.5292 0.54866 0.0
H465 H 0.21434 0.56583 0.52794 0.0
H466 H 0.22479 0.52336 0.5118 0.0
H467 H 0.1545 0.42092 0.43512 0.0
H468 H 0.16478 0.42498 0.46724 0.0
H469 H 0.22524 0.47906 0.45414 0.0
H470 H 0.21497 0.47509 0.4216 0.0
H471 H 0.19463 0.49522 0.48515 0.0
H472 H 0.24195 0.41944 0.46462 0.0
H473 H 0.24924 0.37694 0.44771 0.0
H474 H 0.19364 0.33661 0.47975 0.0
H475 H 0.18572 0.37897 0.49667 0.0
C476 C 0.20414 0.46089 0.57219 0.0
C477 C 0.1862 0.44184 0.57774 0.0
C478 C 0.20972 0.46412 0.55368 0.0
C479 C 0.19729 0.44845 0.54055 0.0
C480 C 0.17942 0.4295 0.54617 0.0
C481 C 0.17396 0.42621 0.56453 0.0
C482 C 0.20217 0.45149 0.52081 0.0
C483 C 0.20801 0.42802 0.51086 0.0
C484 C 0.19849 0.47632 0.51148 0.0
C485 C 0.19213 0.50178 0.52114 0.0
C486 C 0.17023 0.50373 0.53149 0.0
C487 C 0.16448 0.52783 0.54063 0.0
C488 C 0.1804 0.55017 0.53938 0.0
C489 C 0.20206 0.54849 0.52894 0.0
C490 C 0.2079 0.52442 0.51979 0.0
C491 C 0.16993 0.43381 0.43901 0.0
C492 C 0.18406 0.44754 0.42584 0.0
C493 C 0.1758 0.43605 0.45737 0.0
C494 C 0.19597 0.452 0.46298 0.0
C495 C 0.20968 0.46655 0.45 0.0
C496 C 0.20383 0.46423 0.43148 0.0
C497 C 0.20256 0.45253 0.4825 0.0
C498 C 0.19902 0.47659 0.49237 0.0
C499 C 0.20821 0.42818 0.49182 0.0
C500 C 0.21322 0.40245 0.4819 0.0
C501 C 0.2312 0.40155 0.46801 0.0
C502 C 0.23544 0.37747 0.45842 0.0
C503 C 0.22191 0.35409 0.46265 0.0
C504 C 0.20414 0.35473 0.47651 0.0
C505 C 0.1998 0.37876 0.48613 0.0
H506 H 0.2252 0.33548 0.45519 0.0
H507 H 0.17592 0.56881 0.54647 0.0
H508 H 0.8044 0.49451 0.91216 0.0
H509 H 0.7938 0.50521 0.944 0.0
H510 H 0.8088 0.42212 0.95908 0.0
H511 H 0.81963 0.41152 0.92771 0.0
H512 H 0.76452 0.44328 0.97428 0.0
H513 H 0.8522 0.46754 0.96514 0.0
H514 H 0.88566 0.49402 0.95055 0.0
H515 H 0.85139 0.56821 0.96832 0.0
H516 H 0.81755 0.54212 0.98281 0.0
H517 H 0.81268 0.41331 0.05852 0.0
H518 H 0.80413 0.42326 0.0267 0.0
H519 H 0.78964 0.50704 0.0402 0.0
H520 H 0.79805 0.49706 0.07247 0.0
H521 H 0.82302 0.49944 0.01042 0.0
H522 H 0.74192 0.47256 0.02715 0.0
H523 H 0.70975 0.44495 0.04224 0.0
H524 H 0.73123 0.37559 0.01052 0.0
H525 H 0.7638 0.40264 0.99542 0.0
C526 C 0.80521 0.47858 0.92231 0.0
C527 C 0.81295 0.45224 0.91754 0.0
C528 C 0.79919 0.48469 0.94042 0.0
C529 C 0.80049 0.46441 0.95383 0.0
C530 C 0.80754 0.43801 0.94891 0.0
C531 C 0.81387 0.43203 0.931 0.0
C532 C 0.7959 0.47031 0.97328 0.0
C533 C 0.7771 0.45576 0.98221 0.0
C534 C 0.81183 0.48734 0.98347 0.0
C535 C 0.83219 0.50293 0.97481 0.0
C536 C 0.85169 0.48951 0.96578 0.0
C537 C 0.87074 0.50443 0.95757 0.0
C538 C 0.87059 0.53278 0.95845 0.0
C539 C 0.85144 0.54625 0.9676 0.0
C540 C 0.83232 0.53141 0.97581 0.0
C541 C 0.80747 0.43383 0.05479 0.0
C542 C 0.80603 0.45442 0.06796 0.0
C543 C 0.80246 0.43946 0.03661 0.0
C544 C 0.79601 0.46582 0.03113 0.0
C545 C 0.79443 0.48653 0.04421 0.0
C546 C 0.79916 0.4808 0.06258 0.0
C547 C 0.79238 0.47131 0.0115 0.0
C548 C 0.80968 0.48788 0.00251 0.0
C549 C 0.77506 0.45611 0.00122 0.0
C550 C 0.75536 0.43968 0.01015 0.0
C551 C 0.73989 0.45138 0.02345 0.0
C552 C 0.72156 0.43583 0.03201 0.0
C553 C 0.71845 0.40853 0.02734 0.0
C554 C 0.73364 0.39675 0.0141 0.0
C555 C 0.75201 0.41221 0.0055 0.0
H556 H 0.70425 0.39652 0.03399 0.0
H557 H 0.88535 0.54431 0.95209 0.0
H558 H 0.15285 0.54534 0.06698 0.0
H559 H 0.16253 0.53191 0.03592 0.0
H560 H 0.23772 0.51287 0.05182 0.0
H561 H 0.22801 0.5263 0.0833 0.0
H562 H 0.2347 0.54672 0.02141 0.0
H563 H 0.20259 0.46146 0.03901 0.0
H564 H 0.17395 0.42934 0.05391 0.0
H565 H 0.11434 0.45665 0.01966 0.0
H566 H 0.14249 0.48924 0.00473 0.0
H567 H 0.23298 0.52719 0.92365 0.0
H568 H 0.24052 0.51381 0.95547 0.0
H569 H 0.16496 0.5352 0.96898 0.0
H570 H 0.15748 0.54873 0.93761 0.0
H571 H 0.18052 0.48621 0.98483 0.0
H572 H 0.20938 0.58001 0.97589 0.0
H573 H 0.23637 0.61445 0.96158 0.0
H574 H 0.30111 0.57145 0.97999 0.0
H575 H 0.27444 0.53659 0.99423 0.0
C576 C 0.17138 0.53798 0.06396 0.0
C577 C 0.1897 0.53691 0.07752 0.0
C578 C 0.17684 0.53012 0.04622 0.0
C579 C 0.20076 0.52108 0.04163 0.0
C580 C 0.2191 0.51958 0.05517 0.0
C581 C 0.21353 0.5272 0.07308 0.0
C582 C 0.20654 0.51563 0.02229 0.0
C583 C 0.22351 0.53279 0.01344 0.0
C584 C 0.1918 0.49758 0.01192 0.0
C585 C 0.17472 0.47784 0.02074 0.0
C586 C 0.18335 0.46073 0.03471 0.0
C587 C 0.16719 0.44242 0.04316 0.0
C588 C 0.14235 0.44096 0.03774 0.0
C589 C 0.13361 0.45778 0.02383 0.0
C590 C 0.14968 0.47613 0.01533 0.0
C591 C 0.21799 0.52872 0.93344 0.0
C592 C 0.19472 0.53917 0.92826 0.0
C593 C 0.2223 0.52109 0.95153 0.0
C594 C 0.20326 0.52351 0.96451 0.0
C595 C 0.17983 0.53301 0.95914 0.0
C596 C 0.17564 0.54092 0.94123 0.0
C597 C 0.20765 0.51828 0.98405 0.0
C598 C 0.19256 0.49917 0.99288 0.0
C599 C 0.224 0.5346 0.9944 0.0
C600 C 0.23997 0.55554 0.98588 0.0
C601 C 0.22938 0.5778 0.97674 0.0
C602 C 0.2446 0.59741 0.96868 0.0
C603 C 0.27044 0.59509 0.96982 0.0
C604 C 0.2811 0.57319 0.97908 0.0
C605 C 0.26594 0.5535 0.98714 0.0
H606 H 0.2822 0.6103 0.96358 0.0
H607 H 0.12986 0.42678 0.04431 0.0
H608 H 0.6099 0.00582 0.34965 0.0
H609 H 0.56749 0.02333 0.34804 0.0
H610 H 0.53881 0.94323 0.35914 0.0
H611 H 0.58137 0.92544 0.36063 0.0
H612 H 0.51162 0.97003 0.33276 0.0
H613 H 0.54291 0.98845 0.39284 0.0
H614 H 0.57286 0.00644 0.41517 0.0
H615 H 0.5622 0.08698 0.39415 0.0
H616 H 0.53244 0.06939 0.3715 0.0
H617 H 0.39147 0.00287 0.36474 0.0
H618 H 0.43407 0.98696 0.36093 0.0
H619 H 0.45874 0.06947 0.35296 0.0
H620 H 0.41594 0.08565 0.35705 0.0
H621 H 0.48847 0.04297 0.37619 0.0
H622 H 0.4552 0.0251 0.3172 0.0
H623 H 0.42524 0.00714 0.29486 0.0
H624 H 0.43938 0.92597 0.31353 0.0
H625 H 0.46917 0.94346 0.33617 0.0
C626 C 0.59458 0.99185 0.35159 0.0
C627 C 0.59896 0.96427 0.3554 0.0
C628 C 0.57035 0.00192 0.35071 0.0
C629 C 0.55001 0.98467 0.35373 0.0
C630 C 0.55426 0.9569 0.35682 0.0
C631 C 0.57856 0.94678 0.3577 0.0
C632 C 0.52441 0.99588 0.35443 0.0
C633 C 0.50645 0.98578 0.34237 0.0
C634 C 0.51787 0.01692 0.36667 0.0
C635 C 0.53564 0.02756 0.38035 0.0
C636 C 0.5471 0.00996 0.39288 0.0
C637 C 0.56402 0.02009 0.40561 0.0
C638 C 0.56949 0.04782 0.40605 0.0
C639 C 0.55798 0.0655 0.39378 0.0
C640 C 0.54107 0.05546 0.381 0.0
C641 C 0.40592 0.01766 0.36209 0.0
C642 C 0.40036 0.04554 0.36118 0.0
C643 C 0.43027 0.0085 0.3598 0.0
C644 C 0.44957 0.02696 0.3564 0.0
C645 C 0.4441 0.05485 0.35549 0.0
C646 C 0.41967 0.06407 0.3578 0.0
C647 C 0.47555 0.01709 0.35455 0.0
C648 C 0.49362 0.02739 0.36645 0.0
C649 C 0.48215 0.99627 0.34214 0.0
C650 C 0.46428 0.98564 0.3285 0.0
C651 C 0.45179 0.00344 0.31664 0.0
C652 C 0.43485 0.99334 0.30391 0.0
C653 C 0.43037 0.96544 0.3028 0.0
C654 C 0.44285 0.94757 0.31441 0.0
C655 C 0.45979 0.95757 0.32718 0.0
H656 H 0.41725 0.95766 0.29293 0.0
H657 H 0.58259 0.05563 0.41591 0.0
H658 H 0.39686 0.99688 0.12154 0.0
H659 H 0.43951 0.01367 0.12161 0.0
H660 H 0.46644 0.93261 0.13202 0.0
H661 H 0.42355 0.91563 0.13214 0.0
H662 H 0.48908 0.96929 0.15373 0.0
H663 H 0.47403 0.96063 0.08988 0.0
H664 H 0.45229 0.96662 0.06064 0.0
H665 H 0.45781 0.05326 0.06602 0.0
H666 H 0.47962 0.04776 0.09532 0.0
H667 H 0.61584 0.99764 0.13288 0.0
H668 H 0.57349 0.97971 0.13331 0.0
H669 H 0.54449 0.06058 0.12562 0.0
H670 H 0.58695 0.07872 0.12517 0.0
H671 H 0.52328 0.02324 0.10249 0.0
H672 H 0.53998 0.03095 0.16638 0.0
H673 H 0.56374 0.02376 0.19465 0.0
H674 H 0.55594 0.93743 0.18871 0.0
H675 H 0.53242 0.94409 0.16024 0.0
C676 C 0.41184 0.98256 0.12379 0.0
C677 C 0.40685 0.9549 0.12682 0.0
C678 C 0.43624 0.99219 0.12373 0.0
C679 C 0.45622 0.97437 0.12661 0.0
C680 C 0.45131 0.94672 0.12972 0.0
C681 C 0.42683 0.93703 0.12974 0.0
C682 C 0.4821 0.98488 0.12683 0.0
C683 C 0.4967 0.98072 0.14241 0.0
C684 C 0.49187 0.00034 0.11224 0.0
C685 C 0.47823 0.00378 0.09487 0.0
C686 C 0.47039 0.98096 0.08491 0.0
C687 C 0.45814 0.98428 0.06829 0.0
C688 C 0.45359 0.01032 0.0615 0.0
C689 C 0.46132 0.03311 0.07131 0.0
C690 C 0.4737 0.0299 0.08789 0.0
C691 C 0.60045 0.01164 0.13138 0.0
C692 C 0.6047 0.0396 0.129 0.0
C693 C 0.57626 0.00137 0.1317 0.0
C694 C 0.55584 0.01883 0.12964 0.0
C695 C 0.56001 0.04677 0.12727 0.0
C696 C 0.58424 0.0571 0.12706 0.0
C697 C 0.53018 0.00776 0.12941 0.0
C698 C 0.51565 0.01181 0.11381 0.0
C699 C 0.52056 0.99208 0.14394 0.0
C700 C 0.53465 0.98802 0.16108 0.0
C701 C 0.54351 0.01042 0.17102 0.0
C702 C 0.5569 0.00644 0.18709 0.0
C703 C 0.56141 0.98015 0.19345 0.0
C704 C 0.55247 0.95778 0.18376 0.0
C705 C 0.53909 0.96165 0.16766 0.0
H706 H 0.57177 0.97712 0.2059 0.0
H707 H 0.44414 0.01286 0.04861 0.0
H708 H 0.61304 0.9958 0.63472 0.0
H709 H 0.57077 0.01343 0.63719 0.0
H710 H 0.54173 0.93199 0.63326 0.0
H711 H 0.58418 0.91414 0.63067 0.0
H712 H 0.51742 0.96699 0.61084 0.0
H713 H 0.54137 0.96479 0.67341 0.0
H714 H 0.56779 0.97394 0.70011 0.0
H715 H 0.55908 0.05975 0.69191 0.0
H716 H 0.5329 0.05113 0.66496 0.0
H717 H 0.3936 0.99878 0.63419 0.0
H718 H 0.43569 0.98035 0.63498 0.0
H719 H 0.46556 0.0615 0.63806 0.0
H720 H 0.42325 0.08019 0.63743 0.0
H721 H 0.48929 0.02624 0.66145 0.0
H722 H 0.46641 0.02834 0.5984 0.0
H723 H 0.43972 0.01917 0.57184 0.0
H724 H 0.44663 0.93338 0.58105 0.0
H725 H 0.47308 0.94205 0.60784 0.0
C726 C 0.59768 0.98159 0.63446 0.0
C727 C 0.60192 0.95356 0.63248 0.0
C728 C 0.57352 0.99171 0.63597 0.0
C729 C 0.55309 0.97402 0.63557 0.0
C730 C 0.55725 0.94599 0.63364 0.0
C731 C 0.58148 0.93582 0.63221 0.0
C732 C 0.52741 0.98498 0.63652 0.0
C733 C 0.51114 0.97957 0.62205 0.0
C734 C 0.51946 0.00202 0.65092 0.0
C735 C 0.53532 0.0073 0.66707 0.0
C736 C 0.54525 0.98562 0.6772 0.0
C737 C 0.56014 0.99071 0.6924 0.0
C738 C 0.56506 0.0174 0.69772 0.0
C739 C 0.55519 0.03907 0.6878 0.0
C740 C 0.54032 0.0341 0.67256 0.0
C741 C 0.40909 0.01275 0.6351 0.0
C742 C 0.40512 0.04097 0.63564 0.0
C743 C 0.43316 0.00216 0.6355 0.0
C744 C 0.45378 0.01955 0.63635 0.0
C745 C 0.44989 0.04773 0.63736 0.0
C746 C 0.42575 0.05837 0.63694 0.0
C747 C 0.47935 0.00821 0.63578 0.0
C748 C 0.49559 0.01359 0.65027 0.0
C749 C 0.48732 0.99115 0.62141 0.0
C750 C 0.47153 0.98586 0.60523 0.0
C751 C 0.46208 0.00752 0.59485 0.0
C752 C 0.44702 0.00241 0.57974 0.0
C753 C 0.44143 0.97571 0.57479 0.0
C754 C 0.45095 0.95405 0.58491 0.0
C755 C 0.46599 0.95905 0.60006 0.0
H756 H 0.42977 0.97179 0.56308 0.0
H757 H 0.57654 0.0213 0.70952 0.0
H758 H 0.60636 0.00397 0.86719 0.0
H759 H 0.56348 0.98783 0.8671 0.0
H760 H 0.53714 0.07059 0.86785 0.0
H761 H 0.58023 0.08696 0.86807 0.0
H762 H 0.51215 0.03833 0.89211 0.0
H763 H 0.53468 0.03459 0.82909 0.0
H764 H 0.56074 0.02221 0.80277 0.0
H765 H 0.55034 0.93761 0.81471 0.0
H766 H 0.5245 0.94949 0.84129 0.0
H767 H 0.38679 0.00729 0.8711 0.0
H768 H 0.42912 0.02512 0.87013 0.0
H769 H 0.45803 0.94345 0.86788 0.0
H770 H 0.41558 0.92543 0.86861 0.0
H771 H 0.48145 0.97621 0.84393 0.0
H772 H 0.45991 0.97959 0.9072 0.0
H773 H 0.43418 0.99154 0.93379 0.0
H774 H 0.44302 0.0763 0.92166 0.0
H775 H 0.46853 0.06484 0.89483 0.0
C776 C 0.59146 0.01878 0.8673 0.0
C777 C 0.59665 0.04675 0.86757 0.0
C778 C 0.56696 0.00951 0.86718 0.0
C779 C 0.54712 0.02801 0.86725 0.0
C780 C 0.5522 0.05598 0.86773 0.0
C781 C 0.57679 0.0653 0.86781 0.0
C782 C 0.52112 0.01799 0.86702 0.0
C783 C 0.50529 0.02511 0.88142 0.0
C784 C 0.51241 0.00017 0.85331 0.0
C785 C 0.52783 0.99295 0.83728 0.0
C786 C 0.53811 0.01335 0.82619 0.0
C787 C 0.55281 0.00642 0.81121 0.0
C788 C 0.55724 0.97914 0.80709 0.0
C789 C 0.54692 0.95873 0.81793 0.0
C790 C 0.53222 0.96555 0.83294 0.0
C791 C 0.40215 0.99311 0.87039 0.0
C792 C 0.39788 0.96494 0.87 0.0
C793 C 0.42634 0.00334 0.86991 0.0
C794 C 0.44676 0.98562 0.86917 0.0
C795 C 0.44254 0.95748 0.8685 0.0
C796 C 0.4183 0.94722 0.86896 0.0
C797 C 0.47249 0.99649 0.86906 0.0
C798 C 0.48827 0.98951 0.85459 0.0
C799 C 0.48118 0.01439 0.88273 0.0
C800 C 0.46592 0.02135 0.89889 0.0
C801 C 0.4562 0.00078 0.91011 0.0
C802 C 0.44169 0.00746 0.92524 0.0
C803 C 0.43691 0.03466 0.92938 0.0
C804 C 0.4467 0.05524 0.91842 0.0
C805 C 0.46121 0.04866 0.90326 0.0
H806 H 0.42568 0.0398 0.94111 0.0
H807 H 0.56863 0.97382 0.79549 0.0
H808 H 0.88712 0.50387 0.36035 0.0
H809 H 0.92957 0.48642 0.36017 0.0
H810 H 0.95788 0.56792 0.36592 0.0
H811 H 0.91523 0.58565 0.36588 0.0
H812 H 0.9844 0.53849 0.34094 0.0
H813 H 0.95571 0.52631 0.40222 0.0
H814 H 0.92661 0.51095 0.42602 0.0
H815 H 0.93644 0.42826 0.40892 0.0
H816 H 0.96532 0.44317 0.38482 0.0
H817 H 0.10645 0.50348 0.36875 0.0
H818 H 0.06415 0.5212 0.367 0.0
H819 H 0.03573 0.43961 0.36213 0.0
H820 H 0.07819 0.42165 0.36407 0.0
H821 H 0.00922 0.4691 0.38644 0.0
H822 H 0.03829 0.48103 0.32543 0.0
H823 H 0.06688 0.49628 0.30128 0.0
H824 H 0.05628 0.57918 0.31763 0.0
H825 H 0.02792 0.5644 0.3421 0.0
C826 C 0.90236 0.51813 0.36154 0.0
C827 C 0.89784 0.54614 0.36324 0.0
C828 C 0.92662 0.50809 0.36149 0.0
C829 C 0.94689 0.52581 0.36329 0.0
C830 C 0.94249 0.55388 0.36457 0.0
C831 C 0.91815 0.56397 0.36461 0.0
C832 C 0.9726 0.51488 0.36404 0.0
C833 C 0.98996 0.52361 0.35105 0.0
C834 C 0.97963 0.49496 0.37696 0.0
C835 C 0.96252 0.48589 0.3916 0.0
C836 C 0.95154 0.50487 0.40345 0.0
C837 C 0.9351 0.49624 0.41701 0.0
C838 C 0.92963 0.46866 0.41895 0.0
C839 C 0.94067 0.44963 0.40738 0.0
C840 C 0.95709 0.45815 0.39378 0.0
C841 C 0.09122 0.48928 0.36725 0.0
C842 C 0.09564 0.46115 0.36652 0.0
C843 C 0.06704 0.49947 0.36617 0.0
C844 C 0.04678 0.48176 0.36424 0.0
C845 C 0.05111 0.45364 0.36358 0.0
C846 C 0.07535 0.44341 0.36464 0.0
C847 C 0.02107 0.49268 0.36332 0.0
C848 C 0.00369 0.48396 0.37632 0.0
C849 C 0.01404 0.5126 0.3504 0.0
C850 C 0.03113 0.52157 0.33571 0.0
C851 C 0.04222 0.5025 0.32399 0.0
C852 C 0.05835 0.51106 0.31022 0.0
C853 C 0.06339 0.53868 0.30793 0.0
C854 C 0.05234 0.55779 0.31943 0.0
C855 C 0.03623 0.54934 0.33324 0.0
H856 H 0.07579 0.54527 0.29721 0.0
H857 H 0.91689 0.46203 0.42945 0.0
H858 H 0.08233 0.58205 0.12656 0.0
H859 H 0.03954 0.56508 0.12523 0.0
H860 H 0.06583 0.4838 0.13573 0.0
H861 H 0.10852 0.50053 0.13693 0.0
H862 H 0.03358 0.48462 0.10776 0.0
H863 H 0.03641 0.51971 0.16863 0.0
H864 H 0.04365 0.55422 0.19235 0.0
H865 H 0.98862 0.60593 0.16804 0.0
H866 H 0.98129 0.57186 0.14402 0.0
H867 H 0.91653 0.42252 0.12591 0.0
H868 H 0.95916 0.43969 0.12805 0.0
H869 H 0.93266 0.52117 0.11852 0.0
H870 H 0.89007 0.50423 0.11664 0.0
H871 H 0.96503 0.52029 0.14607 0.0
H872 H 0.96231 0.4854 0.08513 0.0
H873 H 0.95507 0.45098 0.06135 0.0
H874 H 0.00993 0.39906 0.08566 0.0
H875 H 0.01726 0.43303 0.10974 0.0
C876 C 0.07894 0.56061 0.12873 0.0
C877 C 0.09877 0.54263 0.13186 0.0
C878 C 0.05449 0.55095 0.12801 0.0
C879 C 0.04948 0.52317 0.13047 0.0
C880 C 0.06926 0.50528 0.13376 0.0
C881 C 0.09364 0.51491 0.13451 0.0
C882 C 0.02371 0.51255 0.12913 0.0
C883 C 0.01865 0.49216 0.11631 0.0
C884 C 0.00413 0.52284 0.13998 0.0
C885 C 0.00849 0.54335 0.15442 0.0
C886 C 0.026 0.53854 0.16825 0.0
C887 C 0.03009 0.558 0.18177 0.0
C888 C 0.01665 0.58229 0.18167 0.0
C889 C 0.99904 0.58713 0.16808 0.0
C890 C 0.9949 0.56774 0.15452 0.0
C891 C 0.91983 0.44406 0.12418 0.0
C892 C 0.89997 0.46201 0.12107 0.0
C893 C 0.94419 0.45385 0.12536 0.0
C894 C 0.94913 0.48171 0.12331 0.0
C895 C 0.9293 0.49962 0.12017 0.0
C896 C 0.90497 0.48987 0.11902 0.0
C897 C 0.97489 0.49234 0.1247 0.0
C898 C 0.97996 0.51274 0.13752 0.0
C899 C 0.99449 0.48208 0.11383 0.0
C900 C 0.99015 0.46164 0.09935 0.0
C901 C 0.97269 0.46655 0.08549 0.0
C902 C 0.96859 0.44714 0.07194 0.0
C903 C 0.98198 0.42282 0.07202 0.0
C904 C 0.99955 0.41789 0.08563 0.0
C905 C 0.00369 0.43723 0.09923 0.0
H906 H 0.97879 0.40782 0.06152 0.0
H907 H 0.01984 0.59732 0.19215 0.0
H908 H 0.89985 0.54787 0.65516 0.0
H909 H 0.94282 0.53154 0.65708 0.0
H910 H 0.94543 0.52432 0.59859 0.0
H911 H 0.90248 0.53996 0.59665 0.0
H912 H 0.96283 0.4801 0.61324 0.0
H913 H 0.9764 0.5755 0.62181 0.0
H914 H 0.97059 0.62036 0.63612 0.0
H915 H 0.99596 0.58843 0.68722 0.0
H916 H 0.00162 0.54327 0.67325 0.0
H917 H 0.10607 0.498 0.62068 0.0
H918 H 0.06406 0.51673 0.62035 0.0
H919 H 0.03545 0.44122 0.64154 0.0
H920 H 0.0775 0.42209 0.64146 0.0
H921 H 0.03119 0.52706 0.64576 0.0
H922 H 0.97751 0.43036 0.62482 0.0
H923 H 0.98446 0.388 0.6076 0.0
H924 H 0.04116 0.42721 0.57596 0.0
H925 H 0.03432 0.46987 0.59283 0.0
C926 C 0.90974 0.54313 0.64271 0.0
C927 C 0.89781 0.54516 0.62576 0.0
C928 C 0.93429 0.53382 0.64382 0.0
C929 C 0.94741 0.52672 0.62797 0.0
C930 C 0.93568 0.52949 0.61101 0.0
C931 C 0.91115 0.53858 0.60992 0.0
C932 C 0.97299 0.51536 0.62894 0.0
C933 C 0.97775 0.49038 0.62039 0.0
C934 C 0.99257 0.52883 0.6381 0.0
C935 C 0.98918 0.55595 0.64653 0.0
C936 C 0.98055 0.578 0.63613 0.0
C937 C 0.97732 0.60348 0.64418 0.0
C938 C 0.98283 0.60722 0.66258 0.0
C939 C 0.99165 0.58549 0.67297 0.0
C940 C 0.9949 0.55995 0.665 0.0
C941 C 0.09083 0.48533 0.62523 0.0
C942 C 0.09505 0.4585 0.63098 0.0
C943 C 0.06683 0.49613 0.62512 0.0
C944 C 0.04653 0.48036 0.63079 0.0
C945 C 0.05075 0.45366 0.63684 0.0
C946 C 0.07478 0.44275 0.63682 0.0
C947 C 0.02099 0.49184 0.63004 0.0
C948 C 0.01621 0.51674 0.6387 0.0
C949 C 0.00151 0.47864 0.6206 0.0
C950 C 0.00558 0.45319 0.61023 0.0
C951 C 0.9914 0.42994 0.61415 0.0
C952 C 0.99533 0.40589 0.60446 0.0
C953 C 0.0133 0.40489 0.59074 0.0
C954 C 0.02732 0.42798 0.58664 0.0
C955 C 0.02344 0.45209 0.59627 0.0
H956 H 0.01633 0.38624 0.58327 0.0
H957 H 0.98033 0.62697 0.66878 0.0
H958 H 0.11795 0.49699 0.87272 0.0
H959 H 0.07557 0.47946 0.87126 0.0
H960 H 0.04716 0.56135 0.86886 0.0
H961 H 0.08966 0.57909 0.87074 0.0
H962 H 0.02064 0.5308 0.89211 0.0
H963 H 0.05032 0.52119 0.83073 0.0
H964 H 0.08009 0.50638 0.80721 0.0
H965 H 0.06877 0.42318 0.8226 0.0
H966 H 0.03921 0.43752 0.84642 0.0
H967 H 0.89851 0.49984 0.86426 0.0
H968 H 0.94121 0.5165 0.86513 0.0
H969 H 0.96824 0.43414 0.8684 0.0
H970 H 0.92537 0.41724 0.86726 0.0
H971 H 0.9956 0.46432 0.8448 0.0
H972 H 0.96618 0.47342 0.90599 0.0
H973 H 0.9371 0.48775 0.9301 0.0
H974 H 0.94839 0.57129 0.91553 0.0
H975 H 0.97725 0.55744 0.89114 0.0
C976 C 0.10269 0.51129 0.87184 0.0
C977 C 0.10711 0.53942 0.87177 0.0
C978 C 0.07848 0.50123 0.87094 0.0
C979 C 0.0582 0.51908 0.8697 0.0
C980 C 0.06255 0.54721 0.86977 0.0
C981 C 0.08681 0.55731 0.87077 0.0
C982 C 0.03248 0.50833 0.86851 0.0
C983 C 0.01506 0.51658 0.88161 0.0
C984 C 0.0254 0.48918 0.85509 0.0
C985 C 0.0427 0.48046 0.84047 0.0
C986 C 0.05427 0.49975 0.82916 0.0
C987 C 0.0711 0.49144 0.81577 0.0
C988 C 0.07636 0.46387 0.81344 0.0
C989 C 0.0647 0.44454 0.82444 0.0
C990 C 0.04788 0.45274 0.83787 0.0
C991 C 0.91353 0.48524 0.86515 0.0
C992 C 0.9086 0.45723 0.86579 0.0
C993 C 0.93792 0.49481 0.8657 0.0
C994 C 0.9579 0.47659 0.86708 0.0
C995 C 0.95308 0.44855 0.86738 0.0
C996 C 0.92862 0.43894 0.86679 0.0
C997 C 0.98374 0.48693 0.86834 0.0
C998 C 0.00118 0.47858 0.85528 0.0
C999 C 0.99087 0.50594 0.88182 0.0
C1000 C 0.97371 0.51437 0.89662 0.0
C1001 C 0.96233 0.49484 0.90784 0.0
C1002 C 0.9459 0.50288 0.92157 0.0
C1003 C 0.94086 0.53041 0.92432 0.0
C1004 C 0.95229 0.54997 0.91337 0.0
C1005 C 0.9687 0.54204 0.8996 0.0
H1006 H 0.92814 0.53658 0.93495 0.0
H1007 H 0.08945 0.45748 0.8031 0.0
H1008 H 0.23715 0.36962 0.36943 0.0
H1009 H 0.25612 0.32458 0.36875 0.0
H1010 H 0.18339 0.28776 0.36897 0.0
H1011 H 0.16418 0.33297 0.36968 0.0
H1012 H 0.21583 0.26376 0.39347 0.0
H1013 H 0.21568 0.28906 0.33048 0.0
H1014 H 0.22391 0.31886 0.3042 0.0
H1015 H 0.30218 0.31576 0.31535 0.0
H1016 H 0.2944 0.28624 0.34187 0.0
H1017 H 0.25606 0.13059 0.37213 0.0
H1018 H 0.23564 0.17487 0.37177 0.0
H1019 H 0.30698 0.21425 0.3671 0.0
H1020 H 0.32755 0.16982 0.36705 0.0
H1021 H 0.2743 0.23674 0.34447 0.0
H1022 H 0.27501 0.21279 0.40766 0.0
H1023 H 0.26743 0.18368 0.43439 0.0
H1024 H 0.18904 0.18499 0.4235 0.0
H1025 H 0.19619 0.21381 0.39654 0.0
C1026 C 0.22516 0.35196 0.36929 0.0
C1027 C 0.19916 0.35481 0.36955 0.0
C1028 C 0.23604 0.32624 0.36884 0.0
C1029 C 0.22116 0.30285 0.36863 0.0
C1030 C 0.19519 0.30558 0.36907 0.0
C1031 C 0.18425 0.33138 0.36943 0.0
C1032 C 0.23287 0.27559 0.36819 0.0
C1033 C 0.22831 0.25764 0.38262 0.0
C1034 C 0.24967 0.26798 0.35427 0.0
C1035 C 0.25443 0.28563 0.33827 0.0
C1036 C 0.23463 0.29491 0.32742 0.0
C1037 C 0.23922 0.31172 0.31246 0.0
C1038 C 0.26355 0.31926 0.30813 0.0
C1039 C 0.28335 0.30993 0.31873 0.0
C1040 C 0.27886 0.29314 0.33372 0.0
C1041 C 0.26742 0.14867 0.37105 0.0
C1042 C 0.29343 0.14675 0.36969 0.0
C1043 C 0.25572 0.17398 0.37092 0.0
C1044 C 0.26979 0.19792 0.36967 0.0
C1045 C 0.29576 0.19605 0.36812 0.0
C1046 C 0.30749 0.17068 0.36815 0.0
C1047 C 0.25735 0.22485 0.36981 0.0
C1048 C 0.26178 0.24278 0.35531 0.0
C1049 C 0.24053 0.2325 0.38373 0.0
C1050 C 0.23617 0.21523 0.39997 0.0
C1051 C 0.25617 0.20669 0.41088 0.0
C1052 C 0.25195 0.19028 0.42609 0.0
C1053 C 0.22777 0.18243 0.43062 0.0
C1054 C 0.20776 0.19105 0.41997 0.0
C1055 C 0.21188 0.20744 0.40473 0.0
H1056 H 0.22454 0.16972 0.4424 0.0
H1057 H 0.26706 0.33227 0.29655 0.0
H1058 H 0.68213 0.84625 0.34269 0.0
H1059 H 0.70158 0.80133 0.34304 0.0
H1060 H 0.73303 0.81853 0.39586 0.0
H1061 H 0.71477 0.86396 0.39501 0.0
H1062 H 0.76634 0.79611 0.37731 0.0
H1063 H 0.68153 0.77368 0.38857 0.0
H1064 H 0.63626 0.77326 0.38335 0.0
H1065 H 0.6473 0.73437 0.33169 0.0
H1066 H 0.69268 0.73487 0.3365 0.0
H1067 H 0.76092 0.63689 0.38337 0.0
H1068 H 0.74102 0.68137 0.38489 0.0
H1069 H 0.79952 0.71514 0.35162 0.0
H1070 H 0.82016 0.6708 0.35088 0.0
H1071 H 0.72075 0.71174 0.36182 0.0
H1072 H 0.80778 0.78154 0.36003 0.0
H1073 H 0.85148 0.78097 0.37021 0.0
H1074 H 0.83315 0.72327 0.41192 0.0
H1075 H 0.78931 0.72377 0.40215 0.0
C1076 C 0.69302 0.84028 0.35442 0.0
C1077 C 0.69693 0.85849 0.36883 0.0
C1078 C 0.70407 0.81457 0.35466 0.0
C1079 C 0.7186 0.80628 0.36958 0.0
C1080 C 0.72205 0.82439 0.38414 0.0
C1081 C 0.7115 0.8503 0.38371 0.0
C1082 C 0.73085 0.77915 0.3698 0.0
C1083 C 0.75631 0.77767 0.37396 0.0
C1084 C 0.7178 0.75491 0.36578 0.0
C1085 C 0.69052 0.75455 0.36283 0.0
C1086 C 0.67432 0.76522 0.37604 0.0
C1087 C 0.64864 0.76493 0.37316 0.0
C1088 C 0.63892 0.75386 0.35718 0.0
C1089 C 0.65486 0.74297 0.34405 0.0
C1090 C 0.68056 0.74322 0.34686 0.0
C1091 C 0.76961 0.65386 0.37647 0.0
C1092 C 0.79214 0.65046 0.36708 0.0
C1093 C 0.75817 0.67927 0.37729 0.0
C1094 C 0.76881 0.70179 0.36852 0.0
C1095 C 0.79118 0.6983 0.35887 0.0
C1096 C 0.80292 0.67294 0.35837 0.0
C1097 C 0.75623 0.72871 0.36933 0.0
C1098 C 0.73075 0.73017 0.36523 0.0
C1099 C 0.76903 0.75278 0.37415 0.0
C1100 C 0.79532 0.75249 0.38022 0.0
C1101 C 0.81307 0.7688 0.37141 0.0
C1102 C 0.83786 0.76848 0.3771 0.0
C1103 C 0.8451 0.75202 0.39166 0.0
C1104 C 0.82754 0.73593 0.4006 0.0
C1105 C 0.80273 0.7362 0.39498 0.0
H1106 H 0.8643 0.75179 0.39604 0.0
H1107 H 0.61903 0.75365 0.35498 0.0
H1108 H 0.17087 0.6672 0.13368 0.0
H1109 H 0.19104 0.71181 0.1334 0.0
H1110 H 0.2585 0.67518 0.11322 0.0
H1111 H 0.23866 0.63061 0.11382 0.0
H1112 H 0.26844 0.70859 0.1405 0.0
H1113 H 0.22007 0.71333 0.08553 0.0
H1114 H 0.18182 0.71076 0.06714 0.0
H1115 H 0.14899 0.77432 0.09913 0.0
H1116 H 0.18694 0.77703 0.11787 0.0
H1117 H 0.33264 0.83026 0.11813 0.0
H1118 H 0.31197 0.78598 0.11692 0.0
H1119 H 0.2437 0.82283 0.13544 0.0
H1120 H 0.26403 0.86714 0.13613 0.0
H1121 H 0.23412 0.78924 0.1088 0.0
H1122 H 0.28179 0.78429 0.16402 0.0
H1123 H 0.31967 0.78687 0.18282 0.0
H1124 H 0.35334 0.72372 0.15093 0.0
H1125 H 0.31576 0.72102 0.13178 0.0
C1126 C 0.18993 0.66873 0.12906 0.0
C1127 C 0.20319 0.64544 0.12378 0.0
C1128 C 0.20142 0.69423 0.12885 0.0
C1129 C 0.22625 0.69687 0.12316 0.0
C1130 C 0.23937 0.67363 0.11769 0.0
C1131 C 0.22796 0.64819 0.11799 0.0
C1132 C 0.23892 0.72365 0.12345 0.0
C1133 C 0.26111 0.72614 0.13336 0.0
C1134 C 0.22904 0.74671 0.11453 0.0
C1135 C 0.20626 0.7452 0.10321 0.0
C1136 C 0.20462 0.72662 0.08873 0.0
C1137 C 0.18301 0.72516 0.07822 0.0
C1138 C 0.16296 0.74232 0.08199 0.0
C1139 C 0.16452 0.76102 0.09624 0.0
C1140 C 0.18608 0.76254 0.1068 0.0
C1141 C 0.31325 0.82885 0.12199 0.0
C1142 C 0.29996 0.85212 0.12727 0.0
C1143 C 0.30147 0.80355 0.12136 0.0
C1144 C 0.27633 0.801 0.1263 0.0
C1145 C 0.26308 0.82427 0.13155 0.0
C1146 C 0.27476 0.84957 0.132 0.0
C1147 C 0.26367 0.77419 0.12584 0.0
C1148 C 0.24147 0.77169 0.11593 0.0
C1149 C 0.27349 0.75112 0.13482 0.0
C1150 C 0.29606 0.75264 0.14637 0.0
C1151 C 0.29734 0.77109 0.16094 0.0
C1152 C 0.31875 0.77255 0.17167 0.0
C1153 C 0.33893 0.75552 0.16804 0.0
C1154 C 0.33771 0.73693 0.15371 0.0
C1155 C 0.31636 0.73541 0.14292 0.0
H1156 H 0.35548 0.75668 0.17636 0.0
H1157 H 0.14624 0.74116 0.07384 0.0
H1158 H 0.67273 0.16759 0.1301 0.0
H1159 H 0.69135 0.21302 0.13035 0.0
H1160 H 0.76426 0.17751 0.12465 0.0
H1161 H 0.74584 0.13217 0.12457 0.0
H1162 H 0.76413 0.21734 0.14992 0.0
H1163 H 0.73559 0.20588 0.08845 0.0
H1164 H 0.70488 0.196 0.06446 0.0
H1165 H 0.66 0.26296 0.08243 0.0
H1166 H 0.69031 0.27303 0.1067 0.0
H1167 H 0.83086 0.33584 0.12321 0.0
H1168 H 0.81192 0.29063 0.12449 0.0
H1169 H 0.73928 0.32717 0.12903 0.0
H1170 H 0.75802 0.37229 0.1275 0.0
H1171 H 0.73893 0.28691 0.1047 0.0
H1172 H 0.76788 0.29885 0.16593 0.0
H1173 H 0.79862 0.30863 0.18992 0.0
H1174 H 0.84275 0.24078 0.17247 0.0
H1175 H 0.81243 0.23081 0.1482 0.0
C1176 C 0.69272 0.1695 0.12892 0.0
C1177 C 0.70783 0.14635 0.12725 0.0
C1178 C 0.70333 0.19544 0.12901 0.0
C1179 C 0.72918 0.19864 0.12735 0.0
C1180 C 0.74428 0.17551 0.12595 0.0
C1181 C 0.73371 0.14962 0.12584 0.0
C1182 C 0.74057 0.22608 0.12697 0.0
C1183 C 0.75884 0.23246 0.13991 0.0
C1184 C 0.73329 0.24597 0.11413 0.0
C1185 C 0.71509 0.24003 0.09951 0.0
C1186 C 0.71908 0.21837 0.08738 0.0
C1187 C 0.70176 0.21275 0.07371 0.0
C1188 C 0.68047 0.2288 0.07195 0.0
C1189 C 0.67649 0.25053 0.08383 0.0
C1190 C 0.69374 0.25621 0.09753 0.0
C1191 C 0.81087 0.3342 0.12454 0.0
C1192 C 0.79593 0.35759 0.12528 0.0
C1193 C 0.80007 0.30838 0.12534 0.0
C1194 C 0.77418 0.30552 0.12701 0.0
C1195 C 0.75928 0.32888 0.12773 0.0
C1196 C 0.77003 0.35465 0.12691 0.0
C1197 C 0.76251 0.27822 0.12767 0.0
C1198 C 0.7442 0.27184 0.11476 0.0
C1199 C 0.76976 0.25834 0.14053 0.0
C1200 C 0.78801 0.26426 0.15513 0.0
C1201 C 0.78424 0.28615 0.16711 0.0
C1202 C 0.80157 0.2917 0.18078 0.0
C1203 C 0.82266 0.27538 0.18269 0.0
C1204 C 0.82643 0.25342 0.17096 0.0
C1205 C 0.80917 0.2478 0.15726 0.0
H1206 H 0.83606 0.2797 0.19328 0.0
H1207 H 0.66708 0.22442 0.06136 0.0
H1208 H 0.67248 0.82628 0.62666 0.0
H1209 H 0.69235 0.78159 0.62802 0.0
H1210 H 0.76429 0.8199 0.63192 0.0
H1211 H 0.7446 0.86451 0.63 0.0
H1212 H 0.76672 0.77951 0.60909 0.0
H1213 H 0.73486 0.79065 0.66946 0.0
H1214 H 0.70307 0.79996 0.69283 0.0
H1215 H 0.66045 0.73157 0.67441 0.0
H1216 H 0.69183 0.72207 0.65077 0.0
H1217 H 0.83016 0.65683 0.63281 0.0
H1218 H 0.81302 0.70297 0.63466 0.0
H1219 H 0.73919 0.67101 0.62661 0.0
H1220 H 0.75606 0.62511 0.62494 0.0
H1221 H 0.73975 0.70902 0.65309 0.0
H1222 H 0.77103 0.69978 0.59171 0.0
H1223 H 0.80316 0.69064 0.56856 0.0
H1224 H 0.84756 0.75592 0.58959 0.0
H1225 H 0.81582 0.76522 0.61303 0.0
C1226 C 0.69252 0.82513 0.62782 0.0
C1227 C 0.70698 0.84886 0.62825 0.0
C1228 C 0.70386 0.7996 0.62871 0.0
C1229 C 0.72982 0.79735 0.63034 0.0
C1230 C 0.74425 0.82108 0.63068 0.0
C1231 C 0.73296 0.84657 0.62962 0.0
C1232 C 0.74202 0.7703 0.63135 0.0
C1233 C 0.76107 0.76427 0.61892 0.0
C1234 C 0.73445 0.75021 0.64398 0.0
C1235 C 0.7156 0.75579 0.65824 0.0
C1236 C 0.71862 0.77771 0.67031 0.0
C1237 C 0.70069 0.783 0.68362 0.0
C1238 C 0.67973 0.7664 0.68508 0.0
C1239 C 0.67668 0.74443 0.67326 0.0
C1240 C 0.69455 0.73906 0.65991 0.0
C1241 C 0.81028 0.65969 0.63154 0.0
C1242 C 0.79447 0.6374 0.62866 0.0
C1243 C 0.80052 0.68603 0.63253 0.0
C1244 C 0.77483 0.69043 0.63061 0.0
C1245 C 0.75904 0.6681 0.62814 0.0
C1246 C 0.76874 0.64187 0.62712 0.0
C1247 C 0.76424 0.71825 0.63075 0.0
C1248 C 0.74549 0.7244 0.64338 0.0
C1249 C 0.77216 0.73849 0.61837 0.0
C1250 C 0.79118 0.733 0.60424 0.0
C1251 C 0.78773 0.71205 0.59148 0.0
C1252 C 0.80585 0.70686 0.5783 0.0
C1253 C 0.82742 0.72264 0.57764 0.0
C1254 C 0.83087 0.74369 0.59014 0.0
C1255 C 0.81281 0.74893 0.60337 0.0
H1256 H 0.84143 0.7186 0.56742 0.0
H1257 H 0.66586 0.77054 0.69538 0.0
H1258 H 0.23652 0.36791 0.64144 0.0
H1259 H 0.25713 0.32379 0.64136 0.0
H1260 H 0.18668 0.28428 0.63222 0.0
H1261 H 0.16575 0.3286 0.63257 0.0
H1262 H 0.21466 0.25698 0.65696 0.0
H1263 H 0.22671 0.29392 0.5973 0.0
H1264 H 0.23894 0.32862 0.57482 0.0
H1265 H 0.31401 0.32614 0.59455 0.0
H1266 H 0.30215 0.2917 0.61734 0.0
H1267 H 0.26239 0.13074 0.62715 0.0
H1268 H 0.24149 0.17465 0.62866 0.0
H1269 H 0.31181 0.21409 0.63844 0.0
H1270 H 0.333 0.17001 0.63675 0.0
H1271 H 0.28384 0.24136 0.61349 0.0
H1272 H 0.27155 0.20389 0.67306 0.0
H1273 H 0.25904 0.16898 0.69531 0.0
H1274 H 0.18408 0.17213 0.6754 0.0
H1275 H 0.19622 0.2068 0.65285 0.0
C1276 C 0.22535 0.34984 0.63951 0.0
C1277 C 0.19952 0.35171 0.63689 0.0
C1278 C 0.23719 0.32464 0.63939 0.0
C1279 C 0.22351 0.30079 0.63646 0.0
C1280 C 0.19759 0.30247 0.63442 0.0
C1281 C 0.18568 0.32776 0.6346 0.0
C1282 C 0.23644 0.27422 0.63526 0.0
C1283 C 0.22955 0.25342 0.64729 0.0
C1284 C 0.25625 0.26981 0.62291 0.0
C1285 C 0.26348 0.29041 0.60914 0.0
C1286 C 0.24579 0.30092 0.59694 0.0
C1287 C 0.25266 0.32052 0.58413 0.0
C1288 C 0.27722 0.32963 0.58329 0.0
C1289 C 0.29498 0.3191 0.59523 0.0
C1290 C 0.2882 0.29952 0.60809 0.0
C1291 C 0.27345 0.14874 0.62961 0.0
C1292 C 0.29934 0.14693 0.6319 0.0
C1293 C 0.26144 0.17382 0.63055 0.0
C1294 C 0.27504 0.19759 0.63392 0.0
C1295 C 0.30096 0.19595 0.6359 0.0
C1296 C 0.31303 0.17079 0.63496 0.0
C1297 C 0.2621 0.22414 0.63522 0.0
C1298 C 0.26897 0.24493 0.62318 0.0
C1299 C 0.24224 0.2285 0.64753 0.0
C1300 C 0.23485 0.20776 0.66115 0.0
C1301 C 0.25244 0.19699 0.67333 0.0
C1302 C 0.24541 0.17727 0.68602 0.0
C1303 C 0.2208 0.1683 0.68674 0.0
C1304 C 0.20315 0.17908 0.67481 0.0
C1305 C 0.21009 0.19878 0.66209 0.0
H1306 H 0.21539 0.15303 0.69657 0.0
H1307 H 0.28251 0.3448 0.57336 0.0
H1308 H 0.74182 0.13164 0.86567 0.0
H1309 H 0.76253 0.1757 0.86464 0.0
H1310 H 0.69129 0.21594 0.86411 0.0
H1311 H 0.67035 0.17171 0.86487 0.0
H1312 H 0.72328 0.23856 0.83984 0.0
H1313 H 0.7251 0.2131 0.90281 0.0
H1314 H 0.73348 0.18299 0.92891 0.0
H1315 H 0.81129 0.18297 0.91591 0.0
H1316 H 0.80332 0.21278 0.88955 0.0
H1317 H 0.76469 0.37011 0.86388 0.0
H1318 H 0.74452 0.32574 0.86339 0.0
H1319 H 0.81624 0.28653 0.86364 0.0
H1320 H 0.83664 0.33106 0.86437 0.0
H1321 H 0.78436 0.26323 0.88764 0.0
H1322 H 0.78239 0.28986 0.8249 0.0
H1323 H 0.77371 0.32063 0.79919 0.0
H1324 H 0.69587 0.31901 0.81202 0.0
H1325 H 0.70412 0.28856 0.83798 0.0
C1326 C 0.73053 0.14985 0.86532 0.0
C1327 C 0.70445 0.14825 0.86545 0.0
C1328 C 0.74241 0.17502 0.86479 0.0
C1329 C 0.72846 0.1991 0.86454 0.0
C1330 C 0.70239 0.19758 0.86434 0.0
C1331 C 0.69047 0.17234 0.86483 0.0
C1332 C 0.74117 0.22582 0.86462 0.0
C1333 C 0.73639 0.24412 0.85041 0.0
C1334 C 0.75871 0.23278 0.8782 0.0
C1335 C 0.76357 0.21496 0.8941 0.0
C1336 C 0.74397 0.2065 0.90543 0.0
C1337 C 0.74865 0.18952 0.92029 0.0
C1338 C 0.77289 0.18102 0.92404 0.0
C1339 C 0.79252 0.18955 0.91297 0.0
C1340 C 0.78793 0.20651 0.89808 0.0
C1341 C 0.7762 0.35206 0.8638 0.0
C1342 C 0.80226 0.35403 0.86411 0.0
C1343 C 0.76463 0.32672 0.86343 0.0
C1344 C 0.77888 0.30285 0.86323 0.0
C1345 C 0.80492 0.30473 0.86372 0.0
C1346 C 0.81654 0.33014 0.8641 0.0
C1347 C 0.76649 0.27598 0.86286 0.0
C1348 C 0.77131 0.25765 0.87703 0.0
C1349 C 0.74896 0.26905 0.84926 0.0
C1350 C 0.74391 0.2871 0.8335 0.0
C1351 C 0.76344 0.29621 0.82232 0.0
C1352 C 0.75859 0.31358 0.80769 0.0
C1353 C 0.73426 0.32182 0.804 0.0
C1354 C 0.71471 0.31264 0.8149 0.0
C1355 C 0.71946 0.2953 0.82957 0.0
H1356 H 0.73055 0.33529 0.79268 0.0
H1357 H 0.77648 0.16787 0.93555 0.0
H1358 H 0.24718 0.63215 0.88125 0.0
H1359 H 0.26522 0.67762 0.88103 0.0
H1360 H 0.19188 0.71256 0.87696 0.0
H1361 H 0.17366 0.66693 0.87687 0.0
H1362 H 0.22359 0.7358 0.85328 0.0
H1363 H 0.22394 0.71437 0.91686 0.0
H1364 H 0.23281 0.68621 0.94383 0.0
H1365 H 0.31104 0.69132 0.93282 0.0
H1366 H 0.30262 0.71919 0.90561 0.0
H1367 H 0.25744 0.8714 0.87336 0.0
H1368 H 0.23937 0.82596 0.87462 0.0
H1369 H 0.31283 0.79092 0.87646 0.0
H1370 H 0.33112 0.83652 0.8753 0.0
H1371 H 0.2811 0.76784 0.90148 0.0
H1372 H 0.28065 0.78879 0.83778 0.0
H1373 H 0.27176 0.8164 0.81055 0.0
H1374 H 0.19356 0.81194 0.82184 0.0
H1375 H 0.20201 0.78461 0.8493 0.0
C1376 C 0.23486 0.64951 0.8804 0.0
C1377 C 0.209 0.64601 0.87913 0.0
C1378 C 0.2452 0.67549 0.88035 0.0
C1379 C 0.22988 0.69849 0.87919 0.0
C1380 C 0.20402 0.69507 0.87791 0.0
C1381 C 0.19365 0.66903 0.87792 0.0
C1382 C 0.24095 0.72606 0.87886 0.0
C1383 C 0.23584 0.74297 0.86396 0.0
C1384 C 0.25747 0.7351 0.89258 0.0
C1385 C 0.26262 0.71868 0.90909 0.0
C1386 C 0.24302 0.70935 0.92012 0.0
C1387 C 0.24797 0.69345 0.93546 0.0
C1388 C 0.27246 0.68692 0.94001 0.0
C1389 C 0.29207 0.69637 0.92927 0.0
C1390 C 0.28722 0.71224 0.91389 0.0
C1391 C 0.26977 0.85404 0.874 0.0
C1392 C 0.2957 0.85749 0.87416 0.0
C1393 C 0.25941 0.82809 0.87467 0.0
C1394 C 0.27477 0.80508 0.87546 0.0
C1395 C 0.30067 0.80844 0.87583 0.0
C1396 C 0.31108 0.83446 0.8751 0.0
C1397 C 0.26367 0.77755 0.87592 0.0
C1398 C 0.26879 0.76065 0.89083 0.0
C1399 C 0.24713 0.76851 0.86223 0.0
C1400 C 0.24198 0.78488 0.8457 0.0
C1401 C 0.26157 0.79389 0.83454 0.0
C1402 C 0.2566 0.80945 0.81905 0.0
C1403 C 0.23211 0.81598 0.8145 0.0
C1404 C 0.21252 0.8069 0.8254 0.0
C1405 C 0.21739 0.79135 0.84092 0.0
H1406 H 0.22831 0.82803 0.8025 0.0
H1407 H 0.27625 0.67457 0.95188 0.0
H1408 H 0.29653 0.07348 0.30766 0.0
H1409 H 0.29013 0.0518 0.27808 0.0
H1410 H 0.29381 0.97294 0.30349 0.0
H1411 H 0.29972 0.99455 0.33325 0.0
H1412 H 0.32968 0.98375 0.27521 0.0
H1413 H 0.24195 0.98826 0.28563 0.0
H1414 H 0.20238 0.01048 0.29367 0.0
H1415 H 0.21048 0.06512 0.24852 0.0
H1416 H 0.2503 0.0435 0.24036 0.0
H1417 H 0.32231 0.91468 0.19203 0.0
H1418 H 0.313 0.92902 0.22307 0.0
H1419 H 0.29176 0.00827 0.20332 0.0
H1420 H 0.30014 0.99357 0.17205 0.0
H1421 H 0.26197 0.99392 0.22992 0.0
H1422 H 0.35008 0.99542 0.22124 0.0
H1423 H 0.3915 0.97755 0.21327 0.0
H1424 H 0.38513 0.91706 0.2551 0.0
H1425 H 0.34347 0.93429 0.26313 0.0
C1426 C 0.29534 0.05154 0.30699 0.0
C1427 C 0.29875 0.03564 0.32266 0.0
C1428 C 0.29158 0.03921 0.29013 0.0
C1429 C 0.29148 0.01083 0.28868 0.0
C1430 C 0.29371 0.9949 0.30442 0.0
C1431 C 0.29703 0.00724 0.32137 0.0
C1432 C 0.29246 0.99809 0.27051 0.0
C1433 C 0.31467 0.98535 0.26541 0.0
C1434 C 0.27321 0.00133 0.25762 0.0
C1435 C 0.24924 0.01438 0.26247 0.0
C1436 C 0.23542 0.00517 0.27751 0.0
C1437 C 0.21291 0.01763 0.28207 0.0
C1438 C 0.20395 0.03924 0.27164 0.0
C1439 C 0.21745 0.04839 0.2566 0.0
C1440 C 0.23998 0.03602 0.25199 0.0
C1441 C 0.31549 0.9351 0.1943 0.0
C1442 C 0.31221 0.95315 0.1797 0.0
C1443 C 0.31023 0.94329 0.21204 0.0
C1444 C 0.30219 0.9699 0.21557 0.0
C1445 C 0.29802 0.98766 0.20092 0.0
C1446 C 0.3029 0.97931 0.18309 0.0
C1447 C 0.29927 0.97953 0.23456 0.0
C1448 C 0.27683 0.99187 0.23979 0.0
C1449 C 0.31856 0.9765 0.24753 0.0
C1450 C 0.34352 0.96593 0.24262 0.0
C1451 C 0.3574 0.97813 0.22862 0.0
C1452 C 0.38094 0.96815 0.22411 0.0
C1453 C 0.3909 0.94612 0.23363 0.0
C1454 C 0.37736 0.93407 0.2477 0.0
C1455 C 0.35378 0.94393 0.25224 0.0
H1456 H 0.40914 0.93845 0.23014 0.0
H1457 H 0.18651 0.04885 0.27519 0.0
H1458 H 0.69336 0.07653 0.19014 0.0
H1459 H 0.70513 0.05915 0.22 0.0
H1460 H 0.73159 0.98512 0.19527 0.0
H1461 H 0.71987 0.00254 0.16516 0.0
H1462 H 0.69788 0.97673 0.22299 0.0
H1463 H 0.77278 0.02677 0.21431 0.0
H1464 H 0.79825 0.06669 0.20646 0.0
H1465 H 0.765 0.11175 0.25016 0.0
H1466 H 0.73903 0.07223 0.25812 0.0
H1467 H 0.72005 0.92584 0.30984 0.0
H1468 H 0.73147 0.94091 0.27927 0.0
H1469 H 0.71173 0.02318 0.29351 0.0
H1470 H 0.70132 0.00833 0.32437 0.0
H1471 H 0.7489 0.02351 0.26968 0.0
H1472 H 0.66913 0.97917 0.27438 0.0
H1473 H 0.64071 0.94163 0.28218 0.0
H1474 H 0.67995 0.88871 0.24567 0.0
H1475 H 0.70884 0.92587 0.23785 0.0
C1476 C 0.702 0.0567 0.19101 0.0
C1477 C 0.70557 0.04079 0.17536 0.0
C1478 C 0.70889 0.04689 0.20807 0.0
C1479 C 0.71944 0.02097 0.20981 0.0
C1480 C 0.72362 0.00527 0.19416 0.0
C1481 C 0.71693 0.01521 0.17701 0.0
C1482 C 0.7235 0.0094 0.22816 0.0
C1483 C 0.70957 0.98651 0.23307 0.0
C1484 C 0.73814 0.02274 0.24141 0.0
C1485 C 0.75384 0.04654 0.23675 0.0
C1486 C 0.77076 0.04524 0.22217 0.0
C1487 C 0.78531 0.0678 0.21771 0.0
C1488 C 0.78322 0.09175 0.22779 0.0
C1489 C 0.7666 0.09318 0.24237 0.0
C1490 C 0.75199 0.07069 0.24688 0.0
C1491 C 0.71877 0.94725 0.30656 0.0
C1492 C 0.7095 0.96591 0.31932 0.0
C1493 C 0.72522 0.95582 0.28909 0.0
C1494 C 0.72179 0.98303 0.28396 0.0
C1495 C 0.7144 0.00205 0.29714 0.0
C1496 C 0.70841 0.99356 0.31476 0.0
C1497 C 0.72302 0.99105 0.26453 0.0
C1498 C 0.73774 0.01334 0.25946 0.0
C1499 C 0.70875 0.97748 0.25112 0.0
C1500 C 0.69131 0.95518 0.25571 0.0
C1501 C 0.67179 0.95947 0.26812 0.0
C1502 C 0.65559 0.93828 0.27253 0.0
C1503 C 0.65857 0.91278 0.26447 0.0
C1504 C 0.67771 0.90845 0.25194 0.0
C1505 C 0.69399 0.92957 0.24751 0.0
H1506 H 0.64601 0.89639 0.2679 0.0
H1507 H 0.7945 0.10919 0.22431 0.0
H1508 H 0.69932 0.00275 0.82519 0.0
H1509 H 0.70758 0.98644 0.79431 0.0
H1510 H 0.69717 0.0677 0.77354 0.0
H1511 H 0.68779 0.08371 0.8042 0.0
H1512 H 0.67253 0.03526 0.75375 0.0
H1513 H 0.75596 0.03496 0.77559 0.0
H1514 H 0.7905 0.02451 0.79648 0.0
H1515 H 0.77926 0.93915 0.78784 0.0
H1516 H 0.74441 0.94907 0.76708 0.0
H1517 H 0.7069 0.99848 0.66416 0.0
H1518 H 0.71337 0.01906 0.69419 0.0
H1519 H 0.7038 0.94073 0.7195 0.0
H1520 H 0.69705 0.92013 0.68965 0.0
H1521 H 0.74203 0.97467 0.73573 0.0
H1522 H 0.65532 0.97715 0.71631 0.0
H1523 H 0.62237 0.98882 0.69431 0.0
H1524 H 0.64235 0.07307 0.69788 0.0
H1525 H 0.67568 0.06181 0.7197 0.0
C1526 C 0.69908 0.01711 0.81403 0.0
C1527 C 0.69281 0.04442 0.81702 0.0
C1528 C 0.70396 0.00784 0.7964 0.0
C1529 C 0.70325 0.02589 0.78156 0.0
C1530 C 0.69775 0.05336 0.78471 0.0
C1531 C 0.69243 0.06249 0.80224 0.0
C1532 C 0.70643 0.01589 0.76264 0.0
C1533 C 0.68806 0.02249 0.7498 0.0
C1534 C 0.72644 0.99884 0.75743 0.0
C1535 C 0.74742 0.99277 0.76989 0.0
C1536 C 0.76072 0.01395 0.77825 0.0
C1537 C 0.78039 0.00812 0.79005 0.0
C1538 C 0.78704 0.98118 0.79352 0.0
C1539 C 0.77407 0.96001 0.78515 0.0
C1540 C 0.75438 0.96572 0.77335 0.0
C1541 C 0.70673 0.9856 0.67611 0.0
C1542 C 0.70122 0.9578 0.67466 0.0
C1543 C 0.71041 0.99735 0.6932 0.0
C1544 C 0.70888 0.98138 0.70899 0.0
C1545 C 0.7051 0.95333 0.70745 0.0
C1546 C 0.7011 0.94165 0.69042 0.0
C1547 C 0.70822 0.99416 0.72715 0.0
C1548 C 0.72686 0.98788 0.73979 0.0
C1549 C 0.68866 0.01178 0.73217 0.0
C1550 C 0.66817 0.01861 0.71945 0.0
C1551 C 0.65278 0.99813 0.71231 0.0
C1552 C 0.63404 0.00467 0.69988 0.0
C1553 C 0.63037 0.03165 0.69463 0.0
C1554 C 0.64528 0.05217 0.70191 0.0
C1555 C 0.66409 0.04573 0.71432 0.0
H1556 H 0.61593 0.03667 0.68494 0.0
H1557 H 0.80227 0.97671 0.80266 0.0
H1558 H 0.3307 0.94022 0.80812 0.0
H1559 H 0.31967 0.95661 0.77803 0.0
H1560 H 0.25581 0.99792 0.80044 0.0
H1561 H 0.26746 0.98222 0.831 0.0
H1562 H 0.2831 0.95117 0.7557 0.0
H1563 H 0.24624 0.05584 0.77545 0.0
H1564 H 0.24814 0.08876 0.80076 0.0
H1565 H 0.32068 0.05947 0.81525 0.0
H1566 H 0.31927 0.0266 0.78992 0.0
H1567 H 0.27415 0.01961 0.67004 0.0
H1568 H 0.26049 0.00296 0.69993 0.0
H1569 H 0.32037 0.04714 0.72546 0.0
H1570 H 0.33337 0.06442 0.69601 0.0
H1571 H 0.28148 0.0508 0.74587 0.0
H1572 H 0.32399 0.9774 0.71363 0.0
H1573 H 0.32924 0.94474 0.68846 0.0
H1574 H 0.25687 0.91171 0.69927 0.0
H1575 H 0.25112 0.94441 0.72441 0.0
C1576 C 0.31422 0.95267 0.80668 0.0
C1577 C 0.30008 0.96019 0.82192 0.0
C1578 C 0.3078 0.96188 0.78941 0.0
C1579 C 0.28699 0.97864 0.78694 0.0
C1580 C 0.27215 0.9853 0.80205 0.0
C1581 C 0.2788 0.97633 0.81947 0.0
C1582 C 0.28239 0.99044 0.76866 0.0
C1583 C 0.28233 0.97296 0.75356 0.0
C1584 C 0.28134 0.01884 0.7658 0.0
C1585 C 0.28247 0.03856 0.78099 0.0
C1586 C 0.26258 0.05647 0.78405 0.0
C1587 C 0.26358 0.07511 0.79838 0.0
C1588 C 0.28447 0.07612 0.80965 0.0
C1589 C 0.30446 0.05858 0.80656 0.0
C1590 C 0.30356 0.03994 0.79224 0.0
C1591 C 0.28418 0.02589 0.6821 0.0
C1592 C 0.30491 0.04312 0.68072 0.0
C1593 C 0.27639 0.01639 0.69914 0.0
C1594 C 0.28952 0.02363 0.71495 0.0
C1595 C 0.3098 0.0414 0.71352 0.0
C1596 C 0.31735 0.05112 0.69662 0.0
C1597 C 0.28369 0.01157 0.73295 0.0
C1598 C 0.28142 0.02898 0.74799 0.0
C1599 C 0.28356 0.98314 0.73577 0.0
C1600 C 0.287 0.96354 0.7207 0.0
C1601 C 0.30915 0.96328 0.71054 0.0
C1602 C 0.31222 0.94476 0.69631 0.0
C1603 C 0.29336 0.92623 0.69222 0.0
C1604 C 0.27142 0.92613 0.70242 0.0
C1605 C 0.26825 0.94465 0.71665 0.0
H1606 H 0.29578 0.9119 0.6812 0.0
H1607 H 0.2852 0.09055 0.82075 0.0
H1608 H 0.76852 0.47849 0.16452 0.0
H1609 H 0.75783 0.49457 0.19519 0.0
H1610 H 0.8306 0.47085 0.21419 0.0
H1611 H 0.84086 0.45395 0.18404 0.0
H1612 H 0.79857 0.45702 0.23826 0.0
H1613 H 0.81393 0.53864 0.2026 0.0
H1614 H 0.8062 0.57058 0.17735 0.0
H1615 H 0.73093 0.58135 0.19544 0.0
H1616 H 0.73818 0.54923 0.22069 0.0
H1617 H 0.82225 0.5774 0.30004 0.0
H1618 H 0.81308 0.55955 0.26992 0.0
H1619 H 0.76397 0.49993 0.29361 0.0
H1620 H 0.77365 0.51742 0.32406 0.0
H1621 H 0.77428 0.55296 0.24865 0.0
H1622 H 0.77118 0.44079 0.2696 0.0
H1623 H 0.78535 0.41086 0.2945 0.0
H1624 H 0.84652 0.46453 0.30516 0.0
H1625 H 0.83288 0.49455 0.28021 0.0
C1626 C 0.78213 0.47672 0.17531 0.0
C1627 C 0.80551 0.46503 0.17193 0.0
C1628 C 0.77604 0.48592 0.19279 0.0
C1629 C 0.79345 0.48405 0.20701 0.0
C1630 C 0.81675 0.47231 0.20353 0.0
C1631 C 0.82266 0.46279 0.18624 0.0
C1632 C 0.78816 0.49478 0.22549 0.0
C1633 C 0.79293 0.47792 0.24051 0.0
C1634 C 0.78083 0.52203 0.22851 0.0
C1635 C 0.77649 0.5413 0.21336 0.0
C1636 C 0.79569 0.54768 0.2011 0.0
C1637 C 0.7914 0.56584 0.18681 0.0
C1638 C 0.76806 0.57791 0.18476 0.0
C1639 C 0.74898 0.57193 0.19702 0.0
C1640 C 0.75316 0.55376 0.21132 0.0
C1641 C 0.80928 0.56067 0.29886 0.0
C1642 C 0.79891 0.54856 0.31442 0.0
C1643 C 0.80391 0.5506 0.2816 0.0
C1644 C 0.78803 0.52824 0.2795 0.0
C1645 C 0.77653 0.517 0.29494 0.0
C1646 C 0.78204 0.52701 0.31231 0.0
C1647 C 0.78566 0.51548 0.26131 0.0
C1648 C 0.77924 0.53186 0.24639 0.0
C1649 C 0.79232 0.48804 0.25831 0.0
C1650 C 0.8008 0.47005 0.27324 0.0
C1651 C 0.78766 0.44615 0.27726 0.0
C1652 C 0.79561 0.42918 0.29137 0.0
C1653 C 0.81676 0.43585 0.30146 0.0
C1654 C 0.83009 0.45944 0.2974 0.0
C1655 C 0.82225 0.47644 0.28329 0.0
H1656 H 0.82286 0.4227 0.31238 0.0
H1657 H 0.76478 0.59197 0.17369 0.0
H1658 H 0.20459 0.50471 0.33424 0.0
H1659 H 0.21427 0.5252 0.30463 0.0
H1660 H 0.20012 0.44848 0.27828 0.0
H1661 H 0.19026 0.428 0.30768 0.0
H1662 H 0.24168 0.47782 0.26369 0.0
H1663 H 0.15451 0.49109 0.28056 0.0
H1664 H 0.12164 0.50723 0.30134 0.0
H1665 H 0.1508 0.58827 0.29824 0.0
H1666 H 0.18402 0.57251 0.27759 0.0
H1667 H 0.20141 0.5029 0.1739 0.0
H1668 H 0.20968 0.48928 0.20528 0.0
H1669 H 0.20633 0.57321 0.22216 0.0
H1670 H 0.19696 0.58672 0.19091 0.0
H1671 H 0.17917 0.54542 0.24337 0.0
H1672 H 0.26205 0.53469 0.22246 0.0
H1673 H 0.29601 0.51952 0.20235 0.0
H1674 H 0.27771 0.43628 0.21343 0.0
H1675 H 0.2434 0.45092 0.23341 0.0
C1676 C 0.20398 0.49215 0.32216 0.0
C1677 C 0.19642 0.46489 0.32318 0.0
C1678 C 0.20952 0.50384 0.3053 0.0
C1679 C 0.20775 0.48833 0.28933 0.0
C1680 C 0.20164 0.46072 0.29048 0.0
C1681 C 0.19585 0.44913 0.30725 0.0
C1682 C 0.20956 0.50127 0.27124 0.0
C1683 C 0.22808 0.4926 0.25914 0.0
C1684 C 0.19216 0.52105 0.26562 0.0
C1685 C 0.17189 0.53057 0.27772 0.0
C1686 C 0.15399 0.51231 0.2844 0.0
C1687 C 0.13529 0.52139 0.29614 0.0
C1688 C 0.13421 0.54873 0.30118 0.0
C1689 C 0.15171 0.56708 0.29437 0.0
C1690 C 0.17045 0.5581 0.28264 0.0
C1691 C 0.20283 0.51845 0.18427 0.0
C1692 C 0.19841 0.54582 0.18004 0.0
C1693 C 0.20773 0.51069 0.2022 0.0
C1694 C 0.20889 0.53025 0.21612 0.0
C1695 C 0.20549 0.55774 0.2117 0.0
C1696 C 0.20016 0.56544 0.19384 0.0
C1697 C 0.21121 0.52179 0.23544 0.0
C1698 C 0.19327 0.53115 0.24784 0.0
C1699 C 0.22936 0.50289 0.24134 0.0
C1700 C 0.25002 0.49393 0.22935 0.0
C1701 C 0.26514 0.51315 0.22051 0.0
C1702 C 0.28448 0.50464 0.20915 0.0
C1703 C 0.28899 0.47696 0.20659 0.0
C1704 C 0.2742 0.45772 0.21542 0.0
C1705 C 0.25482 0.46611 0.22679 0.0
H1706 H 0.30397 0.47041 0.19779 0.0
H1707 H 0.1198 0.55572 0.31033 0.0
H1708 H 0.18599 0.57808 0.81127 0.0
H1709 H 0.19211 0.5606 0.78059 0.0
H1710 H 0.22926 0.49007 0.80242 0.0
H1711 H 0.22274 0.50731 0.83336 0.0
H1712 H 0.229 0.54593 0.75864 0.0
H1713 H 0.20859 0.43512 0.7791 0.0
H1714 H 0.18713 0.40951 0.80335 0.0
H1715 H 0.13857 0.47729 0.81287 0.0
H1716 H 0.1596 0.50315 0.78858 0.0
H1717 H 0.22635 0.46949 0.67512 0.0
H1718 H 0.237 0.48602 0.70568 0.0
H1719 H 0.1605 0.47601 0.72223 0.0
H1720 H 0.15027 0.45828 0.69227 0.0
H1721 H 0.18746 0.45762 0.74732 0.0
H1722 H 0.18875 0.53987 0.71137 0.0
H1723 H 0.20275 0.56974 0.68645 0.0
H1724 H 0.27756 0.56615 0.70665 0.0
H1725 H 0.26402 0.53599 0.73159 0.0
C1726 C 0.1958 0.55903 0.80955 0.0
C1727 C 0.20357 0.54383 0.8247 0.0
C1728 C 0.19944 0.54916 0.79199 0.0
C1729 C 0.21089 0.52391 0.78924 0.0
C1730 C 0.22013 0.50948 0.80428 0.0
C1731 C 0.21642 0.51934 0.82192 0.0
C1732 C 0.21054 0.51165 0.77085 0.0
C1733 C 0.2202 0.52646 0.75614 0.0
C1734 C 0.1986 0.48654 0.76758 0.0
C1735 C 0.1859 0.47115 0.78222 0.0
C1736 C 0.19334 0.44452 0.78638 0.0
C1737 C 0.18125 0.42998 0.80013 0.0
C1738 C 0.16157 0.44181 0.8097 0.0
C1739 C 0.15389 0.4682 0.80551 0.0
C1740 C 0.16592 0.48281 0.79178 0.0
C1741 C 0.2119 0.47098 0.68534 0.0
C1742 C 0.18754 0.46259 0.68144 0.0
C1743 C 0.21795 0.48045 0.70275 0.0
C1744 C 0.19954 0.48234 0.71629 0.0
C1745 C 0.17512 0.47446 0.71214 0.0
C1746 C 0.16924 0.46446 0.69497 0.0
C1747 C 0.20526 0.49224 0.7349 0.0
C1748 C 0.19678 0.47683 0.74975 0.0
C1749 C 0.21729 0.51735 0.73817 0.0
C1750 C 0.22544 0.53542 0.72319 0.0
C1751 C 0.20822 0.54529 0.71041 0.0
C1752 C 0.21606 0.56229 0.6963 0.0
C1753 C 0.24105 0.56976 0.69493 0.0
C1754 C 0.25823 0.5603 0.7077 0.0
C1755 C 0.25048 0.54326 0.72183 0.0
H1756 H 0.24708 0.58293 0.684 0.0
H1757 H 0.15223 0.43051 0.82032 0.0
H1758 H 0.76607 0.54342 0.67362 0.0
H1759 H 0.76006 0.52566 0.70434 0.0
H1760 H 0.81422 0.46296 0.69385 0.0
H1761 H 0.82005 0.4804 0.66294 0.0
H1762 H 0.77629 0.44532 0.7168 0.0
H1763 H 0.83298 0.52125 0.71156 0.0
H1764 H 0.84484 0.56773 0.70257 0.0
H1765 H 0.78693 0.60039 0.73633 0.0
H1766 H 0.77449 0.55402 0.7453 0.0
H1767 H 0.83648 0.42229 0.80019 0.0
H1768 H 0.82419 0.43355 0.7692 0.0
H1769 H 0.7741 0.49483 0.78964 0.0
H1770 H 0.78658 0.48376 0.82091 0.0
H1771 H 0.80294 0.51376 0.7624 0.0
H1772 H 0.75121 0.43668 0.77169 0.0
H1773 H 0.74125 0.38982 0.78101 0.0
H1774 H 0.79081 0.35867 0.74024 0.0
H1775 H 0.8014 0.40535 0.73086 0.0
C1776 C 0.77621 0.5254 0.67768 0.0
C1777 C 0.79381 0.51351 0.666 0.0
C1778 C 0.77277 0.51531 0.69524 0.0
C1779 C 0.78707 0.49336 0.70147 0.0
C1780 C 0.80306 0.47999 0.68931 0.0
C1781 C 0.80641 0.49 0.67167 0.0
C1782 C 0.78783 0.48667 0.72111 0.0
C1783 C 0.78215 0.4602 0.7268 0.0
C1784 C 0.79501 0.50631 0.73417 0.0
C1785 C 0.80262 0.53419 0.72893 0.0
C1786 C 0.82266 0.53834 0.71696 0.0
C1787 C 0.8295 0.56466 0.71188 0.0
C1788 C 0.8166 0.587 0.71883 0.0
C1789 C 0.79687 0.58306 0.73092 0.0
C1790 C 0.78992 0.55677 0.73601 0.0
C1791 C 0.82275 0.43809 0.79813 0.0
C1792 C 0.81252 0.45221 0.81297 0.0
C1793 C 0.81559 0.44434 0.7804 0.0
C1794 C 0.79794 0.46472 0.77713 0.0
C1795 C 0.78763 0.47889 0.79191 0.0
C1796 C 0.79478 0.47258 0.80973 0.0
C1797 C 0.79167 0.47227 0.75816 0.0
C1798 C 0.79649 0.49895 0.75254 0.0
C1799 C 0.78382 0.45275 0.74522 0.0
C1800 C 0.77722 0.42458 0.75064 0.0
C1801 C 0.76011 0.41985 0.76478 0.0
C1802 C 0.75434 0.39331 0.77007 0.0
C1803 C 0.76542 0.37129 0.76124 0.0
C1804 C 0.78224 0.37576 0.74707 0.0
C1805 C 0.78811 0.40226 0.74174 0.0
H1806 H 0.76095 0.35076 0.76537 0.0
H1807 H 0.82192 0.60736 0.71488 0.0
loop_
_geom_bond_atom_site_label_1
_geom_bond_atom_site_label_2
_geom_bond_distance
_geom_bond_site_symmetry_2
_ccdc_geom_bond_type
In0 O1 2.294 . S
In0 O2 2.326 . S
In0 O6 2.266 . S
In0 O7 2.326 . S
In0 O8 2.266 . S
In0 O9 2.326 . S
In0 O11 2.294 . S
In0 O12 2.326 . S
O1 In0 2.294 . S
O1 C10 1.240 . S
O2 In0 2.326 . S
O2 C10 1.252 . S
C3 O6 1.252 . S
C3 O7 1.260 . S
C4 O11 1.240 . S
C4 O12 1.252 . S
C5 O8 1.252 . S
C5 O9 1.260 . S
O6 In0 2.266 . S
O6 C3 1.252 . S
O7 In0 2.326 . S
O7 C3 1.260 . S
O8 In0 2.266 . S
O8 C5 1.252 . S
O9 In0 2.326 . S
O9 C5 1.260 . S
C10 O1 1.240 . S
C10 O2 1.252 . S
O11 In0 2.294 . S
O11 C4 1.240 . S
O12 In0 2.326 . S
O12 C4 1.252 . S
In13 O14 2.294 . S
In13 O15 2.326 . S
In13 O19 2.266 . S
In13 O20 2.326 . S
In13 O21 2.266 . S
In13 O22 2.326 . S
In13 O24 2.294 . S
In13 O25 2.326 . S
O14 In13 2.294 . S
O14 C23 1.240 . S
O15 In13 2.326 . S
O15 C23 1.252 . S
C16 O19 1.252 . S
C16 O20 1.260 . S
C17 O24 1.240 . S
C17 O25 1.252 . S
C18 O21 1.252 . S
C18 O22 1.260 . S
O19 In13 2.266 . S
O19 C16 1.252 . S
O20 In13 2.326 . S
O20 C16 1.260 . S
O21 In13 2.266 . S
O21 C18 1.252 . S
O22 In13 2.326 . S
O22 C18 1.260 . S
C23 O14 1.240 . S
C23 O15 1.252 . S
O24 In13 2.294 . S
O24 C17 1.240 . S
O25 In13 2.326 . S
O25 C17 1.252 . S
In26 O27 2.294 . S
In26 O28 2.326 . S
In26 O32 2.266 . S
In26 O33 2.326 . S
In26 O34 2.266 . S
In26 O35 2.326 . S
In26 O37 2.294 . S
In26 O38 2.326 . S
O27 In26 2.294 . S
O27 C36 1.240 . S
O28 In26 2.326 . S
O28 C36 1.252 . S
C29 O32 1.252 . S
C29 O33 1.260 . S
C30 O37 1.240 . S
C30 O38 1.252 . S
C31 O34 1.252 . S
C31 O35 1.260 . S
O32 In26 2.266 . S
O32 C29 1.252 . S
O33 In26 2.326 . S
O33 C29 1.260 . S
O34 In26 2.266 . S
O34 C31 1.252 . S
O35 In26 2.326 . S
O35 C31 1.260 . S
C36 O27 1.240 . S
C36 O28 1.252 . S
O37 In26 2.294 . S
O37 C30 1.240 . S
O38 In26 2.326 . S
O38 C30 1.252 . S
In39 O40 2.294 . S
In39 O41 2.326 . S
In39 O45 2.266 . S
In39 O46 2.326 . S
In39 O47 2.266 . S
In39 O48 2.326 . S
In39 O50 2.294 . S
In39 O51 2.326 . S
O40 In39 2.294 . S
O40 C49 1.240 . S
O41 In39 2.326 . S
O41 C49 1.252 . S
C42 O45 1.252 . S
C42 O46 1.260 . S
C43 O50 1.240 . S
C43 O51 1.252 . S
C44 O47 1.252 . S
C44 O48 1.260 . S
O45 In39 2.266 . S
O45 C42 1.252 . S
O46 In39 2.326 . S
O46 C42 1.260 . S
O47 In39 2.266 . S
O47 C44 1.252 . S
O48 In39 2.326 . S
O48 C44 1.260 . S
C49 O40 1.240 . S
C49 O41 1.252 . S
O50 In39 2.294 . S
O50 C43 1.240 . S
O51 In39 2.326 . S
O51 C43 1.252 . S
In52 O53 2.294 . S
In52 O54 2.326 . S
In52 O58 2.266 . S
In52 O59 2.326 . S
In52 O60 2.266 . S
In52 O61 2.326 . S
In52 O63 2.294 . S
In52 O64 2.326 . S
O53 In52 2.294 . S
O53 C62 1.240 . S
O54 In52 2.326 . S
O54 C62 1.252 . S
C55 O58 1.252 . S
C55 O59 1.260 . S
C56 O63 1.240 . S
C56 O64 1.252 . S
C57 O60 1.252 . S
C57 O61 1.260 . S
O58 In52 2.266 . S
O58 C55 1.252 . S
O59 In52 2.326 . S
O59 C55 1.260 . S
O60 In52 2.266 . S
O60 C57 1.252 . S
O61 In52 2.326 . S
O61 C57 1.260 . S
C62 O53 1.240 . S
C62 O54 1.252 . S
O63 In52 2.294 . S
O63 C56 1.240 . S
O64 In52 2.326 . S
O64 C56 1.252 . S
In65 O66 2.294 . S
In65 O67 2.326 . S
In65 O71 2.266 . S
In65 O72 2.326 . S
In65 O73 2.266 . S
In65 O74 2.326 . S
In65 O76 2.294 . S
In65 O77 2.326 . S
O66 In65 2.294 . S
O66 C75 1.240 . S
O67 In65 2.326 . S
O67 C75 1.252 . S
C68 O71 1.252 . S
C68 O72 1.260 . S
C69 O76 1.240 . S
C69 O77 1.252 . S
C70 O73 1.252 . S
C70 O74 1.260 . S
O71 In65 2.266 . S
O71 C68 1.252 . S
O72 In65 2.326 . S
O72 C68 1.260 . S
O73 In65 2.266 . S
O73 C70 1.252 . S
O74 In65 2.326 . S
O74 C70 1.260 . S
C75 O66 1.240 . S
C75 O67 1.252 . S
O76 In65 2.294 . S
O76 C69 1.240 . S
O77 In65 2.326 . S
O77 C69 1.252 . S
In78 O79 2.294 . S
In78 O80 2.326 . S
In78 O84 2.266 . S
In78 O85 2.326 . S
In78 O86 2.266 . S
In78 O87 2.326 . S
In78 O89 2.294 . S
In78 O90 2.326 . S
O79 In78 2.294 . S
O79 C88 1.240 . S
O80 In78 2.326 . S
O80 C88 1.252 . S
C81 O84 1.252 . S
C81 O85 1.260 . S
C82 O89 1.240 . S
C82 O90 1.252 . S
C83 O86 1.252 . S
C83 O87 1.260 . S
O84 In78 2.266 . S
O84 C81 1.252 . S
O85 In78 2.326 . S
O85 C81 1.260 . S
O86 In78 2.266 . S
O86 C83 1.252 . S
O87 In78 2.326 . S
O87 C83 1.260 . S
C88 O79 1.240 . S
C88 O80 1.252 . S
O89 In78 2.294 . S
O89 C82 1.240 . S
O90 In78 2.326 . S
O90 C82 1.252 . S
In91 O92 2.294 . S
In91 O93 2.326 . S
In91 O97 2.266 . S
In91 O98 2.326 . S
In91 O99 2.266 . S
In91 O100 2.326 . S
In91 O102 2.294 . S
In91 O103 2.326 . S
O92 In91 2.294 . S
O92 C101 1.240 . S
O93 In91 2.326 . S
O93 C101 1.252 . S
C94 O97 1.252 . S
C94 O98 1.260 . S
C95 O102 1.240 . S
C95 O103 1.252 . S
C96 O99 1.252 . S
C96 O100 1.260 . S
O97 In91 2.266 . S
O97 C94 1.252 . S
O98 In91 2.326 . S
O98 C94 1.260 . S
O99 In91 2.266 . S
O99 C96 1.252 . S
O100 In91 2.326 . S
O100 C96 1.260 . S
C101 O92 1.240 . S
C101 O93 1.252 . S
O102 In91 2.294 . S
O102 C95 1.240 . S
O103 In91 2.326 . S
O103 C95 1.252 . S
In104 O105 2.294 . S
In104 O106 2.326 . S
In104 O110 2.266 . S
In104 O111 2.326 . S
In104 O112 2.266 . S
In104 O113 2.326 . S
In104 O115 2.294 . S
In104 O116 2.326 . S
O105 In104 2.294 . S
O105 C114 1.240 . S
O106 In104 2.326 . S
O106 C114 1.252 . S
C107 O110 1.252 . S
C107 O111 1.260 . S
C108 O115 1.240 . S
C108 O116 1.252 . S
C109 O112 1.252 . S
C109 O113 1.260 . S
O110 In104 2.266 . S
O110 C107 1.252 . S
O111 In104 2.326 . S
O111 C107 1.260 . S
O112 In104 2.266 . S
O112 C109 1.252 . S
O113 In104 2.326 . S
O113 C109 1.260 . S
C114 O105 1.240 . S
C114 O106 1.252 . S
O115 In104 2.294 . S
O115 C108 1.240 . S
O116 In104 2.326 . S
O116 C108 1.252 . S
In117 O118 2.294 . S
In117 O119 2.326 . S
In117 O123 2.266 . S
In117 O124 2.326 . S
In117 O125 2.266 . S
In117 O126 2.326 . S
In117 O128 2.294 . S
In117 O129 2.326 . S
O118 In117 2.294 . S
O118 C127 1.240 . S
O119 In117 2.326 . S
O119 C127 1.252 . S
C120 O123 1.252 . S
C120 O124 1.260 . S
C121 O128 1.240 . S
C121 O129 1.252 . S
C122 O125 1.252 . S
C122 O126 1.260 . S
O123 In117 2.266 . S
O123 C120 1.252 . S
O124 In117 2.326 . S
O124 C120 1.260 . S
O125 In117 2.266 . S
O125 C122 1.252 . S
O126 In117 2.326 . S
O126 C122 1.260 . S
C127 O118 1.240 . S
C127 O119 1.252 . S
O128 In117 2.294 . S
O128 C121 1.240 . S
O129 In117 2.326 . S
O129 C121 1.252 . S
In130 O131 2.294 . S
In130 O132 2.326 . S
In130 O136 2.266 . S
In130 O137 2.326 . S
In130 O138 2.266 . S
In130 O139 2.326 . S
In130 O141 2.294 . S
In130 O142 2.326 . S
O131 In130 2.294 . S
O131 C140 1.240 . S
O132 In130 2.326 . S
O132 C140 1.252 . S
C133 O136 1.252 . S
C133 O137 1.260 . S
C134 O141 1.240 . S
C134 O142 1.252 . S
C135 O138 1.252 . S
C135 O139 1.260 . S
O136 In130 2.266 . S
O136 C133 1.252 . S
O137 In130 2.326 . S
O137 C133 1.260 . S
O138 In130 2.266 . S
O138 C135 1.252 . S
O139 In130 2.326 . S
O139 C135 1.260 . S
C140 O131 1.240 . S
C140 O132 1.252 . S
O141 In130 2.294 . S
O141 C134 1.240 . S
O142 In130 2.326 . S
O142 C134 1.252 . S
In143 O144 2.294 . S
In143 O145 2.326 . S
In143 O149 2.266 . S
In143 O150 2.326 . S
In143 O151 2.266 . S
In143 O152 2.326 . S
In143 O154 2.294 . S
In143 O155 2.326 . S
O144 In143 2.294 . S
O144 C153 1.240 . S
O145 In143 2.326 . S
O145 C153 1.252 . S
C146 O149 1.252 . S
C146 O150 1.260 . S
C147 O154 1.240 . S
C147 O155 1.252 . S
C148 O151 1.252 . S
C148 O152 1.260 . S
O149 In143 2.266 . S
O149 C146 1.252 . S
O150 In143 2.326 . S
O150 C146 1.260 . S
O151 In143 2.266 . S
O151 C148 1.252 . S
O152 In143 2.326 . S
O152 C148 1.260 . S
C153 O144 1.240 . S
C153 O145 1.252 . S
O154 In143 2.294 . S
O154 C147 1.240 . S
O155 In143 2.326 . S
O155 C147 1.252 . S
In156 O157 2.294 . S
In156 O158 2.326 . S
In156 O162 2.266 . S
In156 O163 2.326 . S
In156 O164 2.266 . S
In156 O165 2.326 . S
In156 O167 2.294 . S
In156 O168 2.326 . S
O157 In156 2.294 . S
O157 C166 1.240 . S
O158 In156 2.326 . S
O158 C166 1.252 . S
C159 O162 1.252 . S
C159 O163 1.260 . S
C160 O167 1.240 . S
C160 O168 1.252 . S
C161 O164 1.252 . S
C161 O165 1.260 . S
O162 In156 2.266 . S
O162 C159 1.252 . S
O163 In156 2.326 . S
O163 C159 1.260 . S
O164 In156 2.266 . S
O164 C161 1.252 . S
O165 In156 2.326 . S
O165 C161 1.260 . S
C166 O157 1.240 . S
C166 O158 1.252 . S
O167 In156 2.294 . S
O167 C160 1.240 . S
O168 In156 2.326 . S
O168 C160 1.252 . S
In169 O170 2.294 . S
In169 O171 2.326 . S
In169 O175 2.266 . S
In169 O176 2.326 . S
In169 O177 2.266 . S
In169 O178 2.326 . S
In169 O180 2.294 . S
In169 O181 2.326 . S
O170 In169 2.294 . S
O170 C179 1.240 . S
O171 In169 2.326 . S
O171 C179 1.252 . S
C172 O175 1.252 . S
C172 O176 1.260 . S
C173 O180 1.240 . S
C173 O181 1.252 . S
C174 O177 1.252 . S
C174 O178 1.260 . S
O175 In169 2.266 . S
O175 C172 1.252 . S
O176 In169 2.326 . S
O176 C172 1.260 . S
O177 In169 2.266 . S
O177 C174 1.252 . S
O178 In169 2.326 . S
O178 C174 1.260 . S
C179 O170 1.240 . S
C179 O171 1.252 . S
O180 In169 2.294 . S
O180 C173 1.240 . S
O181 In169 2.326 . S
O181 C173 1.252 . S
In182 O183 2.294 . S
In182 O184 2.326 . S
In182 O188 2.266 . S
In182 O189 2.326 . S
In182 O190 2.266 . S
In182 O191 2.326 . S
In182 O193 2.294 . S
In182 O194 2.326 . S
O183 In182 2.294 . S
O183 C192 1.240 . S
O184 In182 2.326 . S
O184 C192 1.252 . S
C185 O188 1.252 . S
C185 O189 1.260 . S
C186 O193 1.240 . S
C186 O194 1.252 . S
C187 O190 1.252 . S
C187 O191 1.260 . S
O188 In182 2.266 . S
O188 C185 1.252 . S
O189 In182 2.326 . S
O189 C185 1.260 . S
O190 In182 2.266 . S
O190 C187 1.252 . S
O191 In182 2.326 . S
O191 C187 1.260 . S
C192 O183 1.240 . S
C192 O184 1.252 . S
O193 In182 2.294 . S
O193 C186 1.240 . S
O194 In182 2.326 . S
O194 C186 1.252 . S
In195 O196 2.294 . S
In195 O197 2.326 . S
In195 O201 2.266 . S
In195 O202 2.326 . S
In195 O203 2.266 . S
In195 O204 2.326 . S
In195 O206 2.294 . S
In195 O207 2.326 . S
O196 In195 2.294 . S
O196 C205 1.240 . S
O197 In195 2.326 . S
O197 C205 1.252 . S
C198 O201 1.252 . S
C198 O202 1.260 . S
C199 O206 1.240 . S
C199 O207 1.252 . S
C200 O203 1.252 . S
C200 O204 1.260 . S
O201 In195 2.266 . S
O201 C198 1.252 . S
O202 In195 2.326 . S
O202 C198 1.260 . S
O203 In195 2.266 . S
O203 C200 1.252 . S
O204 In195 2.326 . S
O204 C200 1.260 . S
C205 O196 1.240 . S
C205 O197 1.252 . S
O206 In195 2.294 . S
O206 C199 1.240 . S
O207 In195 2.326 . S
O207 C199 1.252 . S
H208 C226 0.951 . S
H209 C228 0.951 . S
H210 C230 0.950 . S
H211 C231 0.950 . S
H212 C233 0.950 . S
H213 C236 0.950 . S
H214 C237 0.950 . S
H215 C239 0.950 . S
H216 C240 0.950 . S
H217 C241 0.951 . S
H218 C243 0.951 . S
H219 C245 0.950 . S
H220 C246 0.950 . S
H221 C248 0.950 . S
H222 C251 0.950 . S
H223 C252 0.950 . S
H224 C254 0.950 . S
H225 C255 0.950 1_565 S
C226 H208 0.951 . S
C226 C227 1.366 . S
C226 C228 1.388 . S
C227 C226 1.366 . S
C227 C231 1.385 . S
C228 H209 0.951 . S
C228 C226 1.388 . S
C228 C229 1.366 . S
C229 C228 1.366 . S
C229 C230 1.414 . S
C229 C232 1.499 . S
C230 H210 0.950 . S
C230 C229 1.414 . S
C230 C231 1.374 . S
C231 H211 0.950 . S
C231 C227 1.385 . S
C231 C230 1.374 . S
C232 C229 1.499 . S
C232 C233 1.373 . S
C232 C234 1.389 . S
C233 H212 0.950 . S
C233 C232 1.373 . S
C233 C249 1.377 . S
C234 C232 1.389 . S
C234 C235 1.524 . S
C234 C248 1.377 . S
C235 C234 1.524 . S
C235 C236 1.397 . S
C235 C240 1.363 . S
C236 H213 0.950 . S
C236 C235 1.397 . S
C236 C237 1.334 . S
C237 H214 0.950 . S
C237 C236 1.334 . S
C237 C238 1.287 . S
C238 C237 1.287 . S
C238 C239 1.524 . S
C238 H257 0.913 . S
C239 H215 0.950 . S
C239 C238 1.524 . S
C239 C240 1.415 . S
C240 H216 0.950 . S
C240 C235 1.363 . S
C240 C239 1.415 . S
C241 H217 0.951 . S
C241 C242 1.366 . S
C241 C243 1.388 . S
C242 C241 1.366 . S
C242 C246 1.385 . S
C243 H218 0.951 . S
C243 C241 1.388 . S
C243 C244 1.366 . S
C244 C243 1.366 . S
C244 C245 1.414 . S
C244 C247 1.499 . S
C245 H219 0.950 . S
C245 C244 1.414 . S
C245 C246 1.374 . S
C246 H220 0.950 . S
C246 C242 1.385 . S
C246 C245 1.374 . S
C247 C244 1.499 . S
C247 C248 1.373 . S
C247 C249 1.389 . S
C248 H221 0.950 . S
C248 C234 1.377 . S
C248 C247 1.373 . S
C249 C233 1.377 . S
C249 C247 1.389 . S
C249 C250 1.524 . S
C250 C249 1.524 . S
C250 C251 1.397 . S
C250 C255 1.363 . S
C251 H222 0.950 . S
C251 C250 1.397 . S
C251 C252 1.334 . S
C252 H223 0.950 . S
C252 C251 1.334 . S
C252 C253 1.287 . S
C253 C252 1.287 . S
C253 C254 1.524 1_545 S
C253 H256 0.999 1_545 S
C254 H224 0.950 . S
C254 C253 1.524 1_565 S
C254 C255 1.415 1_565 S
C255 H225 0.950 1_545 S
C255 C250 1.363 . S
C255 C254 1.415 1_545 S
H256 C253 0.999 1_565 S
H257 C238 0.913 . S
H258 C276 0.951 . S
H259 C278 0.951 . S
H260 C280 0.950 . S
H261 C281 0.950 . S
H262 C283 0.950 . S
H263 C286 0.950 . S
H264 C287 0.950 . S
H265 C289 0.950 . S
H266 C290 0.950 . S
H267 C291 0.951 . S
H268 C293 0.951 . S
H269 C295 0.950 . S
H270 C296 0.950 . S
H271 C298 0.950 . S
H272 C301 0.950 . S
H273 C302 0.950 . S
H274 C304 0.950 . S
H275 C305 0.950 . S
C276 H258 0.951 . S
C276 C277 1.366 . S
C276 C278 1.388 . S
C277 C276 1.366 . S
C277 C281 1.385 . S
C278 H259 0.951 . S
C278 C276 1.388 . S
C278 C279 1.366 . S
C279 C278 1.366 . S
C279 C280 1.414 . S
C279 C282 1.499 . S
C280 H260 0.950 . S
C280 C279 1.414 . S
C280 C281 1.374 . S
C281 H261 0.950 . S
C281 C277 1.385 . S
C281 C280 1.374 . S
C282 C279 1.499 . S
C282 C283 1.373 . S
C282 C284 1.389 . S
C283 H262 0.950 . S
C283 C282 1.373 . S
C283 C299 1.377 . S
C284 C282 1.389 . S
C284 C285 1.524 . S
C284 C298 1.377 . S
C285 C284 1.524 . S
C285 C286 1.397 . S
C285 C290 1.363 1_565 S
C286 H263 0.950 . S
C286 C285 1.397 . S
C286 C287 1.334 1_565 S
C287 H264 0.950 . S
C287 C286 1.334 1_545 S
C287 C288 1.287 . S
C288 C287 1.287 . S
C288 C289 1.524 . S
C288 H307 0.913 . S
C289 H265 0.950 . S
C289 C288 1.524 . S
C289 C290 1.415 . S
C290 H266 0.950 . S
C290 C285 1.363 1_545 S
C290 C289 1.415 . S
C291 H267 0.951 . S
C291 C292 1.366 . S
C291 C293 1.388 . S
C292 C291 1.366 . S
C292 C296 1.385 . S
C293 H268 0.951 . S
C293 C291 1.388 . S
C293 C294 1.366 . S
C294 C293 1.366 . S
C294 C295 1.414 . S
C294 C297 1.499 . S
C295 H269 0.950 . S
C295 C294 1.414 . S
C295 C296 1.374 . S
C296 H270 0.950 . S
C296 C292 1.385 . S
C296 C295 1.374 . S
C297 C294 1.499 . S
C297 C298 1.373 . S
C297 C299 1.389 . S
C298 H271 0.950 . S
C298 C284 1.377 . S
C298 C297 1.373 . S
C299 C283 1.377 . S
C299 C297 1.389 . S
C299 C300 1.524 . S
C300 C299 1.524 . S
C300 C301 1.397 . S
C300 C305 1.363 . S
C301 H272 0.950 . S
C301 C300 1.397 . S
C301 C302 1.334 . S
C302 H273 0.950 . S
C302 C301 1.334 . S
C302 C303 1.287 . S
C303 C302 1.287 . S
C303 C304 1.524 . S
C303 H306 0.999 . S
C304 H274 0.950 . S
C304 C303 1.524 . S
C304 C305 1.415 . S
C305 H275 0.950 . S
C305 C300 1.363 . S
C305 C304 1.415 . S
H306 C303 0.999 . S
H307 C288 0.913 . S
H308 C326 0.951 . S
H309 C328 0.951 . S
H310 C330 0.950 . S
H311 C331 0.950 . S
H312 C333 0.950 . S
H313 C336 0.950 . S
H314 C337 0.950 . S
H315 C339 0.950 . S
H316 C340 0.950 . S
H317 C341 0.951 . S
H318 C343 0.951 . S
H319 C345 0.950 . S
H320 C346 0.950 . S
H321 C348 0.950 . S
H322 C351 0.950 . S
H323 C352 0.950 . S
H324 C354 0.950 . S
H325 C355 0.950 . S
C326 H308 0.951 . S
C326 C327 1.366 . S
C326 C328 1.388 . S
C327 C326 1.366 . S
C327 C331 1.385 . S
C328 H309 0.951 . S
C328 C326 1.388 . S
C328 C329 1.366 . S
C329 C328 1.366 . S
C329 C330 1.414 . S
C329 C332 1.499 . S
C330 H310 0.950 . S
C330 C329 1.414 . S
C330 C331 1.374 . S
C331 H311 0.950 . S
C331 C327 1.385 . S
C331 C330 1.374 . S
C332 C329 1.499 . S
C332 C333 1.373 . S
C332 C334 1.389 . S
C333 H312 0.950 . S
C333 C332 1.373 . S
C333 C349 1.377 1_554 S
C334 C332 1.389 . S
C334 C335 1.524 . S
C334 C348 1.377 1_554 S
C335 C334 1.524 . S
C335 C336 1.397 . S
C335 C340 1.363 . S
C336 H313 0.950 . S
C336 C335 1.397 . S
C336 C337 1.334 . S
C337 H314 0.950 . S
C337 C336 1.334 . S
C337 C338 1.287 . S
C338 C337 1.287 . S
C338 C339 1.524 . S
C338 H357 0.913 . S
C339 H315 0.950 . S
C339 C338 1.524 . S
C339 C340 1.415 . S
C340 H316 0.950 . S
C340 C335 1.363 . S
C340 C339 1.415 . S
C341 H317 0.951 . S
C341 C342 1.366 . S
C341 C343 1.388 . S
C342 C341 1.366 . S
C342 C346 1.385 . S
C343 H318 0.951 . S
C343 C341 1.388 . S
C343 C344 1.366 . S
C344 C343 1.366 . S
C344 C345 1.414 . S
C344 C347 1.499 . S
C345 H319 0.950 . S
C345 C344 1.414 . S
C345 C346 1.374 . S
C346 H320 0.950 . S
C346 C342 1.385 . S
C346 C345 1.374 . S
C347 C344 1.499 . S
C347 C348 1.373 . S
C347 C349 1.389 . S
C348 H321 0.950 . S
C348 C334 1.377 1_556 S
C348 C347 1.373 . S
C349 C333 1.377 1_556 S
C349 C347 1.389 . S
C349 C350 1.524 . S
C350 C349 1.524 . S
C350 C351 1.397 . S
C350 C355 1.363 1_565 S
C351 H322 0.950 . S
C351 C350 1.397 . S
C351 C352 1.334 . S
C352 H323 0.950 . S
C352 C351 1.334 . S
C352 C353 1.287 1_565 S
C353 C352 1.287 1_545 S
C353 C354 1.524 . S
C353 H356 0.999 . S
C354 H324 0.950 . S
C354 C353 1.524 . S
C354 C355 1.415 . S
C355 H325 0.950 . S
C355 C350 1.363 1_545 S
C355 C354 1.415 . S
H356 C353 0.999 . S
H357 C338 0.913 . S
H358 C376 0.951 . S
H359 C378 0.951 . S
H360 C380 0.950 . S
H361 C381 0.950 . S
H362 C383 0.950 . S
H363 C386 0.950 . S
H364 C387 0.950 . S
H365 C389 0.950 . S
H366 C390 0.950 1_565 S
H367 C391 0.951 . S
H368 C393 0.951 . S
H369 C395 0.950 . S
H370 C396 0.950 . S
H371 C398 0.950 . S
H372 C401 0.950 . S
H373 C402 0.950 . S
H374 C404 0.950 . S
H375 C405 0.950 . S
C376 H358 0.951 . S
C376 C377 1.366 . S
C376 C378 1.388 . S
C377 C376 1.366 . S
C377 C381 1.385 . S
C378 H359 0.951 . S
C378 C376 1.388 . S
C378 C379 1.366 . S
C379 C378 1.366 . S
C379 C380 1.414 . S
C379 C382 1.499 . S
C380 H360 0.950 . S
C380 C379 1.414 . S
C380 C381 1.374 . S
C381 H361 0.950 . S
C381 C377 1.385 . S
C381 C380 1.374 . S
C382 C379 1.499 . S
C382 C383 1.373 . S
C382 C384 1.389 . S
C383 H362 0.950 . S
C383 C382 1.373 . S
C383 C399 1.377 1_556 S
C384 C382 1.389 . S
C384 C385 1.524 . S
C384 C398 1.377 1_556 S
C385 C384 1.524 . S
C385 C386 1.397 . S
C385 C390 1.363 . S
C386 H363 0.950 . S
C386 C385 1.397 . S
C386 C387 1.334 . S
C387 H364 0.950 . S
C387 C386 1.334 . S
C387 C388 1.287 . S
C388 C387 1.287 . S
C388 C389 1.524 1_545 S
C388 H407 0.913 1_545 S
C389 H365 0.950 . S
C389 C388 1.524 1_565 S
C389 C390 1.415 1_565 S
C390 H366 0.950 1_545 S
C390 C385 1.363 . S
C390 C389 1.415 1_545 S
C391 H367 0.951 . S
C391 C392 1.366 . S
C391 C393 1.388 . S
C392 C391 1.366 . S
C392 C396 1.385 . S
C393 H368 0.951 . S
C393 C391 1.388 . S
C393 C394 1.366 . S
C394 C393 1.366 . S
C394 C395 1.414 . S
C394 C397 1.499 . S
C395 H369 0.950 . S
C395 C394 1.414 . S
C395 C396 1.374 . S
C396 H370 0.950 . S
C396 C392 1.385 . S
C396 C395 1.374 . S
C397 C394 1.499 . S
C397 C398 1.373 . S
C397 C399 1.389 . S
C398 H371 0.950 . S
C398 C384 1.377 1_554 S
C398 C397 1.373 . S
C399 C383 1.377 1_554 S
C399 C397 1.389 . S
C399 C400 1.524 . S
C400 C399 1.524 . S
C400 C401 1.397 . S
C400 C405 1.363 . S
C401 H372 0.950 . S
C401 C400 1.397 . S
C401 C402 1.334 . S
C402 H373 0.950 . S
C402 C401 1.334 . S
C402 C403 1.287 . S
C403 C402 1.287 . S
C403 C404 1.524 . S
C403 H406 0.999 . S
C404 H374 0.950 . S
C404 C403 1.524 . S
C404 C405 1.415 . S
C405 H375 0.950 . S
C405 C400 1.363 . S
C405 C404 1.415 . S
H406 C403 0.999 . S
H407 C388 0.913 1_565 S
H408 C426 0.951 . S
H409 C428 0.951 . S
H410 C430 0.950 . S
H411 C431 0.950 . S
H412 C433 0.950 . S
H413 C436 0.950 . S
H414 C437 0.950 . S
H415 C439 0.950 . S
H416 C440 0.950 . S
H417 C441 0.951 . S
H418 C443 0.951 . S
H419 C445 0.950 . S
H420 C446 0.950 . S
H421 C448 0.950 . S
H422 C451 0.950 . S
H423 C452 0.950 . S
H424 C454 0.950 . S
H425 C455 0.950 . S
C426 H408 0.951 . S
C426 C427 1.366 . S
C426 C428 1.388 . S
C427 C426 1.366 . S
C427 C431 1.385 . S
C428 H409 0.951 . S
C428 C426 1.388 . S
C428 C429 1.366 . S
C429 C428 1.366 . S
C429 C430 1.414 . S
C429 C432 1.499 . S
C430 H410 0.950 . S
C430 C429 1.414 . S
C430 C431 1.374 . S
C431 H411 0.950 . S
C431 C427 1.385 . S
C431 C430 1.374 . S
C432 C429 1.499 . S
C432 C433 1.373 . S
C432 C434 1.389 . S
C433 H412 0.950 . S
C433 C432 1.373 . S
C433 C449 1.377 . S
C434 C432 1.389 . S
C434 C435 1.524 . S
C434 C448 1.377 . S
C435 C434 1.524 . S
C435 C436 1.397 . S
C435 C440 1.363 . S
C436 H413 0.950 . S
C436 C435 1.397 . S
C436 C437 1.334 . S
C437 H414 0.950 . S
C437 C436 1.334 . S
C437 C438 1.287 . S
C438 C437 1.287 . S
C438 C439 1.524 . S
C438 H457 0.913 . S
C439 H415 0.950 . S
C439 C438 1.524 . S
C439 C440 1.415 . S
C440 H416 0.950 . S
C440 C435 1.363 . S
C440 C439 1.415 . S
C441 H417 0.951 . S
C441 C442 1.366 . S
C441 C443 1.388 . S
C442 C441 1.366 . S
C442 C446 1.385 . S
C443 H418 0.951 . S
C443 C441 1.388 . S
C443 C444 1.366 . S
C444 C443 1.366 . S
C444 C445 1.414 . S
C444 C447 1.499 . S
C445 H419 0.950 . S
C445 C444 1.414 . S
C445 C446 1.374 . S
C446 H420 0.950 . S
C446 C442 1.385 . S
C446 C445 1.374 . S
C447 C444 1.499 . S
C447 C448 1.373 . S
C447 C449 1.389 . S
C448 H421 0.950 . S
C448 C434 1.377 . S
C448 C447 1.373 . S
C449 C433 1.377 . S
C449 C447 1.389 . S
C449 C450 1.524 . S
C450 C449 1.524 . S
C450 C451 1.397 . S
C450 C455 1.363 . S
C451 H422 0.950 . S
C451 C450 1.397 . S
C451 C452 1.334 . S
C452 H423 0.950 . S
C452 C451 1.334 . S
C452 C453 1.287 . S
C453 C452 1.287 . S
C453 C454 1.524 . S
C453 H456 0.999 . S
C454 H424 0.950 . S
C454 C453 1.524 . S
C454 C455 1.415 . S
C455 H425 0.950 . S
C455 C450 1.363 . S
C455 C454 1.415 . S
H456 C453 0.999 . S
H457 C438 0.913 . S
H458 C476 0.951 . S
H459 C478 0.951 . S
H460 C480 0.950 . S
H461 C481 0.950 . S
H462 C483 0.950 . S
H463 C486 0.950 . S
H464 C487 0.950 . S
H465 C489 0.950 . S
H466 C490 0.950 . S
H467 C491 0.951 . S
H468 C493 0.951 . S
H469 C495 0.950 . S
H470 C496 0.950 . S
H471 C498 0.950 . S
H472 C501 0.950 . S
H473 C502 0.950 . S
H474 C504 0.950 . S
H475 C505 0.950 . S
C476 H458 0.951 . S
C476 C477 1.366 . S
C476 C478 1.388 . S
C477 C476 1.366 . S
C477 C481 1.385 . S
C478 H459 0.951 . S
C478 C476 1.388 . S
C478 C479 1.366 . S
C479 C478 1.366 . S
C479 C480 1.414 . S
C479 C482 1.499 . S
C480 H460 0.950 . S
C480 C479 1.414 . S
C480 C481 1.374 . S
C481 H461 0.950 . S
C481 C477 1.385 . S
C481 C480 1.374 . S
C482 C479 1.499 . S
C482 C483 1.373 . S
C482 C484 1.389 . S
C483 H462 0.950 . S
C483 C482 1.373 . S
C483 C499 1.377 . S
C484 C482 1.389 . S
C484 C485 1.524 . S
C484 C498 1.377 . S
C485 C484 1.524 . S
C485 C486 1.397 . S
C485 C490 1.363 . S
C486 H463 0.950 . S
C486 C485 1.397 . S
C486 C487 1.334 . S
C487 H464 0.950 . S
C487 C486 1.334 . S
C487 C488 1.287 . S
C488 C487 1.287 . S
C488 C489 1.524 . S
C488 H507 0.913 . S
C489 H465 0.950 . S
C489 C488 1.524 . S
C489 C490 1.415 . S
C490 H466 0.950 . S
C490 C485 1.363 . S
C490 C489 1.415 . S
C491 H467 0.951 . S
C491 C492 1.366 . S
C491 C493 1.388 . S
C492 C491 1.366 . S
C492 C496 1.385 . S
C493 H468 0.951 . S
C493 C491 1.388 . S
C493 C494 1.366 . S
C494 C493 1.366 . S
C494 C495 1.414 . S
C494 C497 1.499 . S
C495 H469 0.950 . S
C495 C494 1.414 . S
C495 C496 1.374 . S
C496 H470 0.950 . S
C496 C492 1.385 . S
C496 C495 1.374 . S
C497 C494 1.499 . S
C497 C498 1.373 . S
C497 C499 1.389 . S
C498 H471 0.950 . S
C498 C484 1.377 . S
C498 C497 1.373 . S
C499 C483 1.377 . S
C499 C497 1.389 . S
C499 C500 1.524 . S
C500 C499 1.524 . S
C500 C501 1.397 . S
C500 C505 1.363 . S
C501 H472 0.950 . S
C501 C500 1.397 . S
C501 C502 1.334 . S
C502 H473 0.950 . S
C502 C501 1.334 . S
C502 C503 1.287 . S
C503 C502 1.287 . S
C503 C504 1.524 . S
C503 H506 0.999 . S
C504 H474 0.950 . S
C504 C503 1.524 . S
C504 C505 1.415 . S
C505 H475 0.950 . S
C505 C500 1.363 . S
C505 C504 1.415 . S
H506 C503 0.999 . S
H507 C488 0.913 . S
H508 C526 0.951 . S
H509 C528 0.951 . S
H510 C530 0.950 . S
H511 C531 0.950 . S
H512 C533 0.950 . S
H513 C536 0.950 . S
H514 C537 0.950 . S
H515 C539 0.950 . S
H516 C540 0.950 . S
H517 C541 0.951 . S
H518 C543 0.951 . S
H519 C545 0.950 . S
H520 C546 0.950 . S
H521 C548 0.950 . S
H522 C551 0.950 . S
H523 C552 0.950 . S
H524 C554 0.950 . S
H525 C555 0.950 . S
C526 H508 0.951 . S
C526 C527 1.366 . S
C526 C528 1.388 . S
C527 C526 1.366 . S
C527 C531 1.385 . S
C528 H509 0.951 . S
C528 C526 1.388 . S
C528 C529 1.366 . S
C529 C528 1.366 . S
C529 C530 1.414 . S
C529 C532 1.499 . S
C530 H510 0.950 . S
C530 C529 1.414 . S
C530 C531 1.374 . S
C531 H511 0.950 . S
C531 C527 1.385 . S
C531 C530 1.374 . S
C532 C529 1.499 . S
C532 C533 1.373 . S
C532 C534 1.389 . S
C533 H512 0.950 . S
C533 C532 1.373 . S
C533 C549 1.377 1_556 S
C534 C532 1.389 . S
C534 C535 1.524 . S
C534 C548 1.377 1_556 S
C535 C534 1.524 . S
C535 C536 1.397 . S
C535 C540 1.363 . S
C536 H513 0.950 . S
C536 C535 1.397 . S
C536 C537 1.334 . S
C537 H514 0.950 . S
C537 C536 1.334 . S
C537 C538 1.287 . S
C538 C537 1.287 . S
C538 C539 1.524 . S
C538 H557 0.913 . S
C539 H515 0.950 . S
C539 C538 1.524 . S
C539 C540 1.415 . S
C540 H516 0.950 . S
C540 C535 1.363 . S
C540 C539 1.415 . S
C541 H517 0.951 . S
C541 C542 1.366 . S
C541 C543 1.388 . S
C542 C541 1.366 . S
C542 C546 1.385 . S
C543 H518 0.951 . S
C543 C541 1.388 . S
C543 C544 1.366 . S
C544 C543 1.366 . S
C544 C545 1.414 . S
C544 C547 1.499 . S
C545 H519 0.950 . S
C545 C544 1.414 . S
C545 C546 1.374 . S
C546 H520 0.950 . S
C546 C542 1.385 . S
C546 C545 1.374 . S
C547 C544 1.499 . S
C547 C548 1.373 . S
C547 C549 1.389 . S
C548 H521 0.950 . S
C548 C534 1.377 1_554 S
C548 C547 1.373 . S
C549 C533 1.377 1_554 S
C549 C547 1.389 . S
C549 C550 1.524 . S
C550 C549 1.524 . S
C550 C551 1.397 . S
C550 C555 1.363 . S
C551 H522 0.950 . S
C551 C550 1.397 . S
C551 C552 1.334 . S
C552 H523 0.950 . S
C552 C551 1.334 . S
C552 C553 1.287 . S
C553 C552 1.287 . S
C553 C554 1.524 . S
C553 H556 0.999 . S
C554 H524 0.950 . S
C554 C553 1.524 . S
C554 C555 1.415 . S
C555 H525 0.950 . S
C555 C550 1.363 . S
C555 C554 1.415 . S
H556 C553 0.999 . S
H557 C538 0.913 . S
H558 C576 0.951 . S
H559 C578 0.951 . S
H560 C580 0.950 . S
H561 C581 0.950 . S
H562 C583 0.950 . S
H563 C586 0.950 . S
H564 C587 0.950 . S
H565 C589 0.950 . S
H566 C590 0.950 . S
H567 C591 0.951 . S
H568 C593 0.951 . S
H569 C595 0.950 . S
H570 C596 0.950 . S
H571 C598 0.950 . S
H572 C601 0.950 . S
H573 C602 0.950 . S
H574 C604 0.950 . S
H575 C605 0.950 . S
C576 H558 0.951 . S
C576 C577 1.366 . S
C576 C578 1.388 . S
C577 C576 1.366 . S
C577 C581 1.385 . S
C578 H559 0.951 . S
C578 C576 1.388 . S
C578 C579 1.366 . S
C579 C578 1.366 . S
C579 C580 1.414 . S
C579 C582 1.499 . S
C580 H560 0.950 . S
C580 C579 1.414 . S
C580 C581 1.374 . S
C581 H561 0.950 . S
C581 C577 1.385 . S
C581 C580 1.374 . S
C582 C579 1.499 . S
C582 C583 1.373 . S
C582 C584 1.389 . S
C583 H562 0.950 . S
C583 C582 1.373 . S
C583 C599 1.377 1_554 S
C584 C582 1.389 . S
C584 C585 1.524 . S
C584 C598 1.377 1_554 S
C585 C584 1.524 . S
C585 C586 1.397 . S
C585 C590 1.363 . S
C586 H563 0.950 . S
C586 C585 1.397 . S
C586 C587 1.334 . S
C587 H564 0.950 . S
C587 C586 1.334 . S
C587 C588 1.287 . S
C588 C587 1.287 . S
C588 C589 1.524 . S
C588 H607 0.913 . S
C589 H565 0.950 . S
C589 C588 1.524 . S
C589 C590 1.415 . S
C590 H566 0.950 . S
C590 C585 1.363 . S
C590 C589 1.415 . S
C591 H567 0.951 . S
C591 C592 1.366 . S
C591 C593 1.388 . S
C592 C591 1.366 . S
C592 C596 1.385 . S
C593 H568 0.951 . S
C593 C591 1.388 . S
C593 C594 1.366 . S
C594 C593 1.366 . S
C594 C595 1.414 . S
C594 C597 1.499 . S
C595 H569 0.950 . S
C595 C594 1.414 . S
C595 C596 1.374 . S
C596 H570 0.950 . S
C596 C592 1.385 . S
C596 C595 1.374 . S
C597 C594 1.499 . S
C597 C598 1.373 . S
C597 C599 1.389 . S
C598 H571 0.950 . S
C598 C584 1.377 1_556 S
C598 C597 1.373 . S
C599 C583 1.377 1_556 S
C599 C597 1.389 . S
C599 C600 1.524 . S
C600 C599 1.524 . S
C600 C601 1.397 . S
C600 C605 1.363 . S
C601 H572 0.950 . S
C601 C600 1.397 . S
C601 C602 1.334 . S
C602 H573 0.950 . S
C602 C601 1.334 . S
C602 C603 1.287 . S
C603 C602 1.287 . S
C603 C604 1.524 . S
C603 H606 0.999 . S
C604 H574 0.950 . S
C604 C603 1.524 . S
C604 C605 1.415 . S
C605 H575 0.950 . S
C605 C600 1.363 . S
C605 C604 1.415 . S
H606 C603 0.999 . S
H607 C588 0.913 . S
H608 C626 0.951 . S
H609 C628 0.951 1_545 S
H610 C630 0.950 . S
H611 C631 0.950 . S
H612 C633 0.950 . S
H613 C636 0.950 1_565 S
H614 C637 0.950 . S
H615 C639 0.950 . S
H616 C640 0.950 . S
H617 C641 0.951 . S
H618 C643 0.951 1_565 S
H619 C645 0.950 . S
H620 C646 0.950 . S
H621 C648 0.950 . S
H622 C651 0.950 1_545 S
H623 C652 0.950 . S
H624 C654 0.950 . S
H625 C655 0.950 . S
C626 H608 0.951 . S
C626 C627 1.366 . S
C626 C628 1.388 . S
C627 C626 1.366 . S
C627 C631 1.385 . S
C628 H609 0.951 1_565 S
C628 C626 1.388 . S
C628 C629 1.366 . S
C629 C628 1.366 . S
C629 C630 1.414 . S
C629 C632 1.499 . S
C630 H610 0.950 . S
C630 C629 1.414 . S
C630 C631 1.374 . S
C631 H611 0.950 . S
C631 C627 1.385 . S
C631 C630 1.374 . S
C632 C629 1.499 . S
C632 C633 1.373 . S
C632 C634 1.389 1_565 S
C633 H612 0.950 . S
C633 C632 1.373 . S
C633 C649 1.377 . S
C634 C632 1.389 1_545 S
C634 C635 1.524 . S
C634 C648 1.377 . S
C635 C634 1.524 . S
C635 C636 1.397 . S
C635 C640 1.363 . S
C636 H613 0.950 1_545 S
C636 C635 1.397 . S
C636 C637 1.334 . S
C637 H614 0.950 . S
C637 C636 1.334 . S
C637 C638 1.287 . S
C638 C637 1.287 . S
C638 C639 1.524 . S
C638 H657 0.913 . S
C639 H615 0.950 . S
C639 C638 1.524 . S
C639 C640 1.415 . S
C640 H616 0.950 . S
C640 C635 1.363 . S
C640 C639 1.415 . S
C641 H617 0.951 . S
C641 C642 1.366 . S
C641 C643 1.388 . S
C642 C641 1.366 . S
C642 C646 1.385 . S
C643 H618 0.951 1_545 S
C643 C641 1.388 . S
C643 C644 1.366 . S
C644 C643 1.366 . S
C644 C645 1.414 . S
C644 C647 1.499 . S
C645 H619 0.950 . S
C645 C644 1.414 . S
C645 C646 1.374 . S
C646 H620 0.950 . S
C646 C642 1.385 . S
C646 C645 1.374 . S
C647 C644 1.499 . S
C647 C648 1.373 . S
C647 C649 1.389 1_545 S
C648 H621 0.950 . S
C648 C634 1.377 . S
C648 C647 1.373 . S
C649 C633 1.377 . S
C649 C647 1.389 1_565 S
C649 C650 1.524 . S
C650 C649 1.524 . S
C650 C651 1.397 . S
C650 C655 1.363 . S
C651 H622 0.950 1_565 S
C651 C650 1.397 . S
C651 C652 1.334 . S
C652 H623 0.950 . S
C652 C651 1.334 . S
C652 C653 1.287 . S
C653 C652 1.287 . S
C653 C654 1.524 . S
C653 H656 0.999 . S
C654 H624 0.950 . S
C654 C653 1.524 . S
C654 C655 1.415 . S
C655 H625 0.950 . S
C655 C650 1.363 . S
C655 C654 1.415 . S
H656 C653 0.999 . S
H657 C638 0.913 . S
H658 C676 0.951 . S
H659 C678 0.951 1_545 S
H660 C680 0.950 . S
H661 C681 0.950 . S
H662 C683 0.950 . S
H663 C686 0.950 . S
H664 C687 0.950 . S
H665 C689 0.950 . S
H666 C690 0.950 . S
H667 C691 0.951 . S
H668 C693 0.951 1_565 S
H669 C695 0.950 . S
H670 C696 0.950 . S
H671 C698 0.950 . S
H672 C701 0.950 . S
H673 C702 0.950 . S
H674 C704 0.950 . S
H675 C705 0.950 . S
C676 H658 0.951 . S
C676 C677 1.366 . S
C676 C678 1.388 . S
C677 C676 1.366 . S
C677 C681 1.385 . S
C678 H659 0.951 1_565 S
C678 C676 1.388 . S
C678 C679 1.366 . S
C679 C678 1.366 . S
C679 C680 1.414 . S
C679 C682 1.499 . S
C680 H660 0.950 . S
C680 C679 1.414 . S
C680 C681 1.374 . S
C681 H661 0.950 . S
C681 C677 1.385 . S
C681 C680 1.374 . S
C682 C679 1.499 . S
C682 C683 1.373 . S
C682 C684 1.389 . S
C683 H662 0.950 . S
C683 C682 1.373 . S
C683 C699 1.377 1_565 S
C684 C682 1.389 . S
C684 C685 1.524 . S
C684 C698 1.377 1_565 S
C685 C684 1.524 . S
C685 C686 1.397 . S
C685 C690 1.363 1_565 S
C686 H663 0.950 . S
C686 C685 1.397 . S
C686 C687 1.334 . S
C687 H664 0.950 . S
C687 C686 1.334 . S
C687 C688 1.287 . S
C688 C687 1.287 . S
C688 C689 1.524 1_565 S
C688 H707 0.913 . S
C689 H665 0.950 . S
C689 C688 1.524 1_545 S
C689 C690 1.415 . S
C690 H666 0.950 . S
C690 C685 1.363 1_545 S
C690 C689 1.415 . S
C691 H667 0.951 . S
C691 C692 1.366 . S
C691 C693 1.388 . S
C692 C691 1.366 . S
C692 C696 1.385 . S
C693 H668 0.951 1_545 S
C693 C691 1.388 . S
C693 C694 1.366 . S
C694 C693 1.366 . S
C694 C695 1.414 . S
C694 C697 1.499 . S
C695 H669 0.950 . S
C695 C694 1.414 . S
C695 C696 1.374 . S
C696 H670 0.950 . S
C696 C692 1.385 . S
C696 C695 1.374 . S
C697 C694 1.499 . S
C697 C698 1.373 . S
C697 C699 1.389 . S
C698 H671 0.950 . S
C698 C684 1.377 1_545 S
C698 C697 1.373 . S
C699 C683 1.377 1_545 S
C699 C697 1.389 . S
C699 C700 1.524 . S
C700 C699 1.524 . S
C700 C701 1.397 . S
C700 C705 1.363 1_545 S
C701 H672 0.950 . S
C701 C700 1.397 . S
C701 C702 1.334 . S
C702 H673 0.950 . S
C702 C701 1.334 . S
C702 C703 1.287 . S
C703 C702 1.287 . S
C703 C704 1.524 1_545 S
C703 H706 0.999 . S
C704 H674 0.950 . S
C704 C703 1.524 1_565 S
C704 C705 1.415 . S
C705 H675 0.950 . S
C705 C700 1.363 1_565 S
C705 C704 1.415 . S
H706 C703 0.999 . S
H707 C688 0.913 . S
H708 C726 0.951 . S
H709 C728 0.951 1_545 S
H710 C730 0.950 . S
H711 C731 0.950 . S
H712 C733 0.950 . S
H713 C736 0.950 . S
H714 C737 0.950 . S
H715 C739 0.950 . S
H716 C740 0.950 . S
H717 C741 0.951 . S
H718 C743 0.951 1_565 S
H719 C745 0.950 . S
H720 C746 0.950 . S
H721 C748 0.950 . S
H722 C751 0.950 . S
H723 C752 0.950 . S
H724 C754 0.950 . S
H725 C755 0.950 . S
C726 H708 0.951 . S
C726 C727 1.366 . S
C726 C728 1.388 . S
C727 C726 1.366 . S
C727 C731 1.385 . S
C728 H709 0.951 1_565 S
C728 C726 1.388 . S
C728 C729 1.366 . S
C729 C728 1.366 . S
C729 C730 1.414 . S
C729 C732 1.499 . S
C730 H710 0.950 . S
C730 C729 1.414 . S
C730 C731 1.374 . S
C731 H711 0.950 . S
C731 C727 1.385 . S
C731 C730 1.374 . S
C732 C729 1.499 . S
C732 C733 1.373 . S
C732 C734 1.389 . S
C733 H712 0.950 . S
C733 C732 1.373 . S
C733 C749 1.377 1_565 S
C734 C732 1.389 . S
C734 C735 1.524 . S
C734 C748 1.377 1_565 S
C735 C734 1.524 . S
C735 C736 1.397 . S
C735 C740 1.363 1_565 S
C736 H713 0.950 . S
C736 C735 1.397 . S
C736 C737 1.334 . S
C737 H714 0.950 . S
C737 C736 1.334 . S
C737 C738 1.287 . S
C738 C737 1.287 . S
C738 C739 1.524 1_565 S
C738 H757 0.913 . S
C739 H715 0.950 . S
C739 C738 1.524 1_545 S
C739 C740 1.415 . S
C740 H716 0.950 . S
C740 C735 1.363 1_545 S
C740 C739 1.415 . S
C741 H717 0.951 . S
C741 C742 1.366 . S
C741 C743 1.388 . S
C742 C741 1.366 . S
C742 C746 1.385 . S
C743 H718 0.951 1_545 S
C743 C741 1.388 . S
C743 C744 1.366 . S
C744 C743 1.366 . S
C744 C745 1.414 . S
C744 C747 1.499 . S
C745 H719 0.950 . S
C745 C744 1.414 . S
C745 C746 1.374 . S
C746 H720 0.950 . S
C746 C742 1.385 . S
C746 C745 1.374 . S
C747 C744 1.499 . S
C747 C748 1.373 . S
C747 C749 1.389 . S
C748 H721 0.950 . S
C748 C734 1.377 1_545 S
C748 C747 1.373 . S
C749 C733 1.377 1_545 S
C749 C747 1.389 . S
C749 C750 1.524 . S
C750 C749 1.524 . S
C750 C751 1.397 . S
C750 C755 1.363 1_545 S
C751 H722 0.950 . S
C751 C750 1.397 . S
C751 C752 1.334 . S
C752 H723 0.950 . S
C752 C751 1.334 . S
C752 C753 1.287 . S
C753 C752 1.287 . S
C753 C754 1.524 1_545 S
C753 H756 0.999 . S
C754 H724 0.950 . S
C754 C753 1.524 1_565 S
C754 C755 1.415 . S
C755 H725 0.950 . S
C755 C750 1.363 1_565 S
C755 C754 1.415 . S
H756 C753 0.999 . S
H757 C738 0.913 . S
H758 C776 0.951 . S
H759 C778 0.951 1_565 S
H760 C780 0.950 . S
H761 C781 0.950 . S
H762 C783 0.950 . S
H763 C786 0.950 . S
H764 C787 0.950 1_545 S
H765 C789 0.950 . S
H766 C790 0.950 . S
H767 C791 0.951 . S
H768 C793 0.951 1_545 S
H769 C795 0.950 . S
H770 C796 0.950 . S
H771 C798 0.950 . S
H772 C801 0.950 . S
H773 C802 0.950 1_565 S
H774 C804 0.950 . S
H775 C805 0.950 . S
C776 H758 0.951 . S
C776 C777 1.366 . S
C776 C778 1.388 . S
C777 C776 1.366 . S
C777 C781 1.385 . S
C778 H759 0.951 1_545 S
C778 C776 1.388 . S
C778 C779 1.366 . S
C779 C778 1.366 . S
C779 C780 1.414 . S
C779 C782 1.499 . S
C780 H760 0.950 . S
C780 C779 1.414 . S
C780 C781 1.374 . S
C781 H761 0.950 . S
C781 C777 1.385 . S
C781 C780 1.374 . S
C782 C779 1.499 . S
C782 C783 1.373 . S
C782 C784 1.389 1_545 S
C783 H762 0.950 . S
C783 C782 1.373 . S
C783 C799 1.377 . S
C784 C782 1.389 1_565 S
C784 C785 1.524 . S
C784 C798 1.377 . S
C785 C784 1.524 . S
C785 C786 1.397 1_565 S
C785 C790 1.363 . S
C786 H763 0.950 . S
C786 C785 1.397 1_545 S
C786 C787 1.334 1_545 S
C787 H764 0.950 1_565 S
C787 C786 1.334 1_565 S
C787 C788 1.287 . S
C788 C787 1.287 . S
C788 C789 1.524 . S
C788 H807 0.913 . S
C789 H765 0.950 . S
C789 C788 1.524 . S
C789 C790 1.415 . S
C790 H766 0.950 . S
C790 C785 1.363 . S
C790 C789 1.415 . S
C791 H767 0.951 . S
C791 C792 1.366 . S
C791 C793 1.388 . S
C792 C791 1.366 . S
C792 C796 1.385 . S
C793 H768 0.951 1_565 S
C793 C791 1.388 . S
C793 C794 1.366 . S
C794 C793 1.366 . S
C794 C795 1.414 . S
C794 C797 1.499 . S
C795 H769 0.950 . S
C795 C794 1.414 . S
C795 C796 1.374 . S
C796 H770 0.950 . S
C796 C792 1.385 . S
C796 C795 1.374 . S
C797 C794 1.499 . S
C797 C798 1.373 . S
C797 C799 1.389 1_565 S
C798 H771 0.950 . S
C798 C784 1.377 . S
C798 C797 1.373 . S
C799 C783 1.377 . S
C799 C797 1.389 1_545 S
C799 C800 1.524 . S
C800 C799 1.524 . S
C800 C801 1.397 1_545 S
C800 C805 1.363 . S
C801 H772 0.950 . S
C801 C800 1.397 1_565 S
C801 C802 1.334 1_565 S
C802 H773 0.950 1_545 S
C802 C801 1.334 1_545 S
C802 C803 1.287 . S
C803 C802 1.287 . S
C803 C804 1.524 . S
C803 H806 0.999 . S
C804 H774 0.950 . S
C804 C803 1.524 . S
C804 C805 1.415 . S
C805 H775 0.950 . S
C805 C800 1.363 . S
C805 C804 1.415 . S
H806 C803 0.999 . S
H807 C788 0.913 . S
H808 C826 0.951 . S
H809 C828 0.951 . S
H810 C830 0.950 . S
H811 C831 0.950 . S
H812 C833 0.950 . S
H813 C836 0.950 . S
H814 C837 0.950 . S
H815 C839 0.950 . S
H816 C840 0.950 . S
H817 C841 0.951 . S
H818 C843 0.951 . S
H819 C845 0.950 . S
H820 C846 0.950 . S
H821 C848 0.950 . S
H822 C851 0.950 . S
H823 C852 0.950 . S
H824 C854 0.950 . S
H825 C855 0.950 . S
C826 H808 0.951 . S
C826 C827 1.366 . S
C826 C828 1.388 . S
C827 C826 1.366 . S
C827 C831 1.385 . S
C828 H809 0.951 . S
C828 C826 1.388 . S
C828 C829 1.366 . S
C829 C828 1.366 . S
C829 C830 1.414 . S
C829 C832 1.499 . S
C830 H810 0.950 . S
C830 C829 1.414 . S
C830 C831 1.374 . S
C831 H811 0.950 . S
C831 C827 1.385 . S
C831 C830 1.374 . S
C832 C829 1.499 . S
C832 C833 1.373 . S
C832 C834 1.389 . S
C833 H812 0.950 . S
C833 C832 1.373 . S
C833 C849 1.377 1_655 S
C834 C832 1.389 . S
C834 C835 1.524 . S
C834 C848 1.377 1_655 S
C835 C834 1.524 . S
C835 C836 1.397 . S
C835 C840 1.363 . S
C836 H813 0.950 . S
C836 C835 1.397 . S
C836 C837 1.334 . S
C837 H814 0.950 . S
C837 C836 1.334 . S
C837 C838 1.287 . S
C838 C837 1.287 . S
C838 C839 1.524 . S
C838 H857 0.913 . S
C839 H815 0.950 . S
C839 C838 1.524 . S
C839 C840 1.415 . S
C840 H816 0.950 . S
C840 C835 1.363 . S
C840 C839 1.415 . S
C841 H817 0.951 . S
C841 C842 1.366 . S
C841 C843 1.388 . S
C842 C841 1.366 . S
C842 C846 1.385 . S
C843 H818 0.951 . S
C843 C841 1.388 . S
C843 C844 1.366 . S
C844 C843 1.366 . S
C844 C845 1.414 . S
C844 C847 1.499 . S
C845 H819 0.950 . S
C845 C844 1.414 . S
C845 C846 1.374 . S
C846 H820 0.950 . S
C846 C842 1.385 . S
C846 C845 1.374 . S
C847 C844 1.499 . S
C847 C848 1.373 . S
C847 C849 1.389 . S
C848 H821 0.950 . S
C848 C834 1.377 1_455 S
C848 C847 1.373 . S
C849 C833 1.377 1_455 S
C849 C847 1.389 . S
C849 C850 1.524 . S
C850 C849 1.524 . S
C850 C851 1.397 . S
C850 C855 1.363 . S
C851 H822 0.950 . S
C851 C850 1.397 . S
C851 C852 1.334 . S
C852 H823 0.950 . S
C852 C851 1.334 . S
C852 C853 1.287 . S
C853 C852 1.287 . S
C853 C854 1.524 . S
C853 H856 0.999 . S
C854 H824 0.950 . S
C854 C853 1.524 . S
C854 C855 1.415 . S
C855 H825 0.950 . S
C855 C850 1.363 . S
C855 C854 1.415 . S
H856 C853 0.999 . S
H857 C838 0.913 . S
H858 C876 0.951 . S
H859 C878 0.951 . S
H860 C880 0.950 . S
H861 C881 0.950 . S
H862 C883 0.950 . S
H863 C886 0.950 . S
H864 C887 0.950 . S
H865 C889 0.948 . S
H866 C890 0.950 1_655 S
H867 C891 0.951 . S
H868 C893 0.951 . S
H869 C895 0.950 . S
H870 C896 0.950 . S
H871 C898 0.950 . S
H872 C901 0.950 . S
H873 C902 0.950 . S
H874 C904 0.948 . S
H875 C905 0.950 1_455 S
C876 H858 0.951 . S
C876 C877 1.366 . S
C876 C878 1.388 . S
C877 C876 1.366 . S
C877 C881 1.385 . S
C878 H859 0.951 . S
C878 C876 1.388 . S
C878 C879 1.366 . S
C879 C878 1.366 . S
C879 C880 1.414 . S
C879 C882 1.499 . S
C880 H860 0.950 . S
C880 C879 1.414 . S
C880 C881 1.374 . S
C881 H861 0.950 . S
C881 C877 1.385 . S
C881 C880 1.374 . S
C882 C879 1.499 . S
C882 C883 1.373 . S
C882 C884 1.389 . S
C883 H862 0.950 . S
C883 C882 1.373 . S
C883 C899 1.377 1_455 S
C884 C882 1.389 . S
C884 C885 1.524 . S
C884 C898 1.377 1_455 S
C885 C884 1.524 . S
C885 C886 1.397 . S
C885 C890 1.363 . S
C886 H863 0.950 . S
C886 C885 1.397 . S
C886 C887 1.334 . S
C887 H864 0.950 . S
C887 C886 1.334 . S
C887 C888 1.287 . S
C888 C887 1.287 . S
C888 C889 1.524 . S
C888 H907 0.913 . S
C889 H865 0.948 . S
C889 C888 1.524 . S
C889 C890 1.415 . S
C890 H866 0.950 1_455 S
C890 C885 1.363 . S
C890 C889 1.415 . S
C891 H867 0.951 . S
C891 C892 1.366 . S
C891 C893 1.388 . S
C892 C891 1.366 . S
C892 C896 1.385 . S
C893 H868 0.951 . S
C893 C891 1.388 . S
C893 C894 1.366 . S
C894 C893 1.366 . S
C894 C895 1.414 . S
C894 C897 1.499 . S
C895 H869 0.950 . S
C895 C894 1.414 . S
C895 C896 1.374 . S
C896 H870 0.950 . S
C896 C892 1.385 . S
C896 C895 1.374 . S
C897 C894 1.499 . S
C897 C898 1.373 . S
C897 C899 1.389 . S
C898 H871 0.950 . S
C898 C884 1.377 1_655 S
C898 C897 1.373 . S
C899 C883 1.377 1_655 S
C899 C897 1.389 . S
C899 C900 1.524 . S
C900 C899 1.524 . S
C900 C901 1.397 . S
C900 C905 1.363 . S
C901 H872 0.950 . S
C901 C900 1.397 . S
C901 C902 1.334 . S
C902 H873 0.950 . S
C902 C901 1.334 . S
C902 C903 1.287 . S
C903 C902 1.287 . S
C903 C904 1.524 . S
C903 H906 0.999 . S
C904 H874 0.948 . S
C904 C903 1.524 . S
C904 C905 1.415 . S
C905 H875 0.950 1_655 S
C905 C900 1.363 . S
C905 C904 1.415 . S
H906 C903 0.999 . S
H907 C888 0.913 . S
H908 C926 0.951 . S
H909 C928 0.951 . S
H910 C930 0.950 . S
H911 C931 0.950 . S
H912 C933 0.950 . S
H913 C936 0.950 . S
H914 C937 0.950 . S
H915 C939 0.950 . S
H916 C940 0.950 . S
H917 C941 0.951 . S
H918 C943 0.951 . S
H919 C945 0.950 . S
H920 C946 0.950 . S
H921 C948 0.950 . S
H922 C951 0.950 . S
H923 C952 0.950 . S
H924 C954 0.950 . S
H925 C955 0.950 . S
C926 H908 0.951 . S
C926 C927 1.366 . S
C926 C928 1.388 . S
C927 C926 1.366 . S
C927 C931 1.385 . S
C928 H909 0.951 . S
C928 C926 1.388 . S
C928 C929 1.366 . S
C929 C928 1.366 . S
C929 C930 1.414 . S
C929 C932 1.499 . S
C930 H910 0.950 . S
C930 C929 1.414 . S
C930 C931 1.374 . S
C931 H911 0.950 . S
C931 C927 1.385 . S
C931 C930 1.374 . S
C932 C929 1.499 . S
C932 C933 1.373 . S
C932 C934 1.389 . S
C933 H912 0.950 . S
C933 C932 1.373 . S
C933 C949 1.377 1_655 S
C934 C932 1.389 . S
C934 C935 1.524 . S
C934 C948 1.377 1_655 S
C935 C934 1.524 . S
C935 C936 1.397 . S
C935 C940 1.363 1_655 S
C936 H913 0.950 . S
C936 C935 1.397 . S
C936 C937 1.334 . S
C937 H914 0.950 . S
C937 C936 1.334 . S
C937 C938 1.287 . S
C938 C937 1.287 . S
C938 C939 1.524 1_655 S
C938 H957 0.913 . S
C939 H915 0.950 . S
C939 C938 1.524 1_455 S
C939 C940 1.415 . S
C940 H916 0.950 . S
C940 C935 1.363 1_455 S
C940 C939 1.415 . S
C941 H917 0.951 . S
C941 C942 1.366 . S
C941 C943 1.388 . S
C942 C941 1.366 . S
C942 C946 1.385 . S
C943 H918 0.951 . S
C943 C941 1.388 . S
C943 C944 1.366 . S
C944 C943 1.366 . S
C944 C945 1.414 . S
C944 C947 1.499 . S
C945 H919 0.950 . S
C945 C944 1.414 . S
C945 C946 1.374 . S
C946 H920 0.950 . S
C946 C942 1.385 . S
C946 C945 1.374 . S
C947 C944 1.499 . S
C947 C948 1.373 . S
C947 C949 1.389 . S
C948 H921 0.950 . S
C948 C934 1.377 1_455 S
C948 C947 1.373 . S
C949 C933 1.377 1_455 S
C949 C947 1.389 . S
C949 C950 1.524 . S
C950 C949 1.524 . S
C950 C951 1.397 . S
C950 C955 1.363 1_455 S
C951 H922 0.950 . S
C951 C950 1.397 . S
C951 C952 1.334 . S
C952 H923 0.950 . S
C952 C951 1.334 . S
C952 C953 1.287 . S
C953 C952 1.287 . S
C953 C954 1.524 1_455 S
C953 H956 0.999 . S
C954 H924 0.950 . S
C954 C953 1.524 1_655 S
C954 C955 1.415 . S
C955 H925 0.950 . S
C955 C950 1.363 1_655 S
C955 C954 1.415 . S
H956 C953 0.999 . S
H957 C938 0.913 . S
H958 C976 0.951 . S
H959 C978 0.951 . S
H960 C980 0.950 . S
H961 C981 0.950 . S
H962 C983 0.950 . S
H963 C986 0.950 . S
H964 C987 0.950 . S
H965 C989 0.950 . S
H966 C990 0.950 . S
H967 C991 0.951 . S
H968 C993 0.951 . S
H969 C995 0.950 . S
H970 C996 0.950 . S
H971 C998 0.950 . S
H972 C1001 0.950 . S
H973 C1002 0.950 . S
H974 C1004 0.950 . S
H975 C1005 0.950 . S
C976 H958 0.951 . S
C976 C977 1.366 . S
C976 C978 1.388 . S
C977 C976 1.366 . S
C977 C981 1.385 . S
C978 H959 0.951 . S
C978 C976 1.388 . S
C978 C979 1.366 . S
C979 C978 1.366 . S
C979 C980 1.414 . S
C979 C982 1.499 . S
C980 H960 0.950 . S
C980 C979 1.414 . S
C980 C981 1.374 . S
C981 H961 0.950 . S
C981 C977 1.385 . S
C981 C980 1.374 . S
C982 C979 1.499 . S
C982 C983 1.373 . S
C982 C984 1.389 . S
C983 H962 0.950 . S
C983 C982 1.373 . S
C983 C999 1.377 1_455 S
C984 C982 1.389 . S
C984 C985 1.524 . S
C984 C998 1.377 1_455 S
C985 C984 1.524 . S
C985 C986 1.397 . S
C985 C990 1.363 . S
C986 H963 0.950 . S
C986 C985 1.397 . S
C986 C987 1.334 . S
C987 H964 0.950 . S
C987 C986 1.334 . S
C987 C988 1.287 . S
C988 C987 1.287 . S
C988 C989 1.524 . S
C988 H1007 0.913 . S
C989 H965 0.950 . S
C989 C988 1.524 . S
C989 C990 1.415 . S
C990 H966 0.950 . S
C990 C985 1.363 . S
C990 C989 1.415 . S
C991 H967 0.951 . S
C991 C992 1.366 . S
C991 C993 1.388 . S
C992 C991 1.366 . S
C992 C996 1.385 . S
C993 H968 0.951 . S
C993 C991 1.388 . S
C993 C994 1.366 . S
C994 C993 1.366 . S
C994 C995 1.414 . S
C994 C997 1.499 . S
C995 H969 0.950 . S
C995 C994 1.414 . S
C995 C996 1.374 . S
C996 H970 0.950 . S
C996 C992 1.385 . S
C996 C995 1.374 . S
C997 C994 1.499 . S
C997 C998 1.373 . S
C997 C999 1.389 . S
C998 H971 0.950 . S
C998 C984 1.377 1_655 S
C998 C997 1.373 . S
C999 C983 1.377 1_655 S
C999 C997 1.389 . S
C999 C1000 1.524 . S
C1000 C999 1.524 . S
C1000 C1001 1.397 . S
C1000 C1005 1.363 . S
C1001 H972 0.950 . S
C1001 C1000 1.397 . S
C1001 C1002 1.334 . S
C1002 H973 0.950 . S
C1002 C1001 1.334 . S
C1002 C1003 1.287 . S
C1003 C1002 1.287 . S
C1003 C1004 1.524 . S
C1003 H1006 0.999 . S
C1004 H974 0.950 . S
C1004 C1003 1.524 . S
C1004 C1005 1.415 . S
C1005 H975 0.950 . S
C1005 C1000 1.363 . S
C1005 C1004 1.415 . S
H1006 C1003 0.999 . S
H1007 C988 0.913 . S
H1008 C1026 0.951 . S
H1009 C1028 0.951 . S
H1010 C1030 0.950 . S
H1011 C1031 0.950 . S
H1012 C1033 0.950 . S
H1013 C1036 0.950 . S
H1014 C1037 0.950 . S
H1015 C1039 0.950 . S
H1016 C1040 0.950 . S
H1017 C1041 0.951 . S
H1018 C1043 0.951 . S
H1019 C1045 0.950 . S
H1020 C1046 0.950 . S
H1021 C1048 0.950 . S
H1022 C1051 0.950 . S
H1023 C1052 0.950 . S
H1024 C1054 0.950 . S
H1025 C1055 0.950 . S
C1026 H1008 0.951 . S
C1026 C1027 1.366 . S
C1026 C1028 1.388 . S
C1027 C1026 1.366 . S
C1027 C1031 1.385 . S
C1028 H1009 0.951 . S
C1028 C1026 1.388 . S
C1028 C1029 1.366 . S
C1029 C1028 1.366 . S
C1029 C1030 1.414 . S
C1029 C1032 1.499 . S
C1030 H1010 0.950 . S
C1030 C1029 1.414 . S
C1030 C1031 1.374 . S
C1031 H1011 0.950 . S
C1031 C1027 1.385 . S
C1031 C1030 1.374 . S
C1032 C1029 1.499 . S
C1032 C1033 1.373 . S
C1032 C1034 1.389 . S
C1033 H1012 0.950 . S
C1033 C1032 1.373 . S
C1033 C1049 1.377 . S
C1034 C1032 1.389 . S
C1034 C1035 1.524 . S
C1034 C1048 1.377 . S
C1035 C1034 1.524 . S
C1035 C1036 1.397 . S
C1035 C1040 1.363 . S
C1036 H1013 0.950 . S
C1036 C1035 1.397 . S
C1036 C1037 1.334 . S
C1037 H1014 0.950 . S
C1037 C1036 1.334 . S
C1037 C1038 1.287 . S
C1038 C1037 1.287 . S
C1038 C1039 1.524 . S
C1038 H1057 0.913 . S
C1039 H1015 0.950 . S
C1039 C1038 1.524 . S
C1039 C1040 1.415 . S
C1040 H1016 0.950 . S
C1040 C1035 1.363 . S
C1040 C1039 1.415 . S
C1041 H1017 0.951 . S
C1041 C1042 1.366 . S
C1041 C1043 1.388 . S
C1042 C1041 1.366 . S
C1042 C1046 1.385 . S
C1043 H1018 0.951 . S
C1043 C1041 1.388 . S
C1043 C1044 1.366 . S
C1044 C1043 1.366 . S
C1044 C1045 1.414 . S
C1044 C1047 1.499 . S
C1045 H1019 0.950 . S
C1045 C1044 1.414 . S
C1045 C1046 1.374 . S
C1046 H1020 0.950 . S
C1046 C1042 1.385 . S
C1046 C1045 1.374 . S
C1047 C1044 1.499 . S
C1047 C1048 1.373 . S
C1047 C1049 1.389 . S
C1048 H1021 0.950 . S
C1048 C1034 1.377 . S
C1048 C1047 1.373 . S
C1049 C1033 1.377 . S
C1049 C1047 1.389 . S
C1049 C1050 1.524 . S
C1050 C1049 1.524 . S
C1050 C1051 1.397 . S
C1050 C1055 1.363 . S
C1051 H1022 0.950 . S
C1051 C1050 1.397 . S
C1051 C1052 1.334 . S
C1052 H1023 0.950 . S
C1052 C1051 1.334 . S
C1052 C1053 1.287 . S
C1053 C1052 1.287 . S
C1053 C1054 1.524 . S
C1053 H1056 0.999 . S
C1054 H1024 0.950 . S
C1054 C1053 1.524 . S
C1054 C1055 1.415 . S
C1055 H1025 0.950 . S
C1055 C1050 1.363 . S
C1055 C1054 1.415 . S
H1056 C1053 0.999 . S
H1057 C1038 0.913 . S
H1058 C1076 0.951 . S
H1059 C1078 0.951 . S
H1060 C1080 0.950 . S
H1061 C1081 0.950 . S
H1062 C1083 0.950 . S
H1063 C1086 0.950 . S
H1064 C1087 0.950 . S
H1065 C1089 0.950 . S
H1066 C1090 0.950 . S
H1067 C1091 0.951 . S
H1068 C1093 0.951 . S
H1069 C1095 0.950 . S
H1070 C1096 0.950 . S
H1071 C1098 0.950 . S
H1072 C1101 0.950 . S
H1073 C1102 0.950 . S
H1074 C1104 0.950 . S
H1075 C1105 0.950 . S
C1076 H1058 0.951 . S
C1076 C1077 1.366 . S
C1076 C1078 1.388 . S
C1077 C1076 1.366 . S
C1077 C1081 1.385 . S
C1078 H1059 0.951 . S
C1078 C1076 1.388 . S
C1078 C1079 1.366 . S
C1079 C1078 1.366 . S
C1079 C1080 1.414 . S
C1079 C1082 1.499 . S
C1080 H1060 0.950 . S
C1080 C1079 1.414 . S
C1080 C1081 1.374 . S
C1081 H1061 0.950 . S
C1081 C1077 1.385 . S
C1081 C1080 1.374 . S
C1082 C1079 1.499 . S
C1082 C1083 1.373 . S
C1082 C1084 1.389 . S
C1083 H1062 0.950 . S
C1083 C1082 1.373 . S
C1083 C1099 1.377 . S
C1084 C1082 1.389 . S
C1084 C1085 1.524 . S
C1084 C1098 1.377 . S
C1085 C1084 1.524 . S
C1085 C1086 1.397 . S
C1085 C1090 1.363 . S
C1086 H1063 0.950 . S
C1086 C1085 1.397 . S
C1086 C1087 1.334 . S
C1087 H1064 0.950 . S
C1087 C1086 1.334 . S
C1087 C1088 1.287 . S
C1088 C1087 1.287 . S
C1088 C1089 1.524 . S
C1088 H1107 0.913 . S
C1089 H1065 0.950 . S
C1089 C1088 1.524 . S
C1089 C1090 1.415 . S
C1090 H1066 0.950 . S
C1090 C1085 1.363 . S
C1090 C1089 1.415 . S
C1091 H1067 0.951 . S
C1091 C1092 1.366 . S
C1091 C1093 1.388 . S
C1092 C1091 1.366 . S
C1092 C1096 1.385 . S
C1093 H1068 0.951 . S
C1093 C1091 1.388 . S
C1093 C1094 1.366 . S
C1094 C1093 1.366 . S
C1094 C1095 1.414 . S
C1094 C1097 1.499 . S
C1095 H1069 0.950 . S
C1095 C1094 1.414 . S
C1095 C1096 1.374 . S
C1096 H1070 0.950 . S
C1096 C1092 1.385 . S
C1096 C1095 1.374 . S
C1097 C1094 1.499 . S
C1097 C1098 1.373 . S
C1097 C1099 1.389 . S
C1098 H1071 0.950 . S
C1098 C1084 1.377 . S
C1098 C1097 1.373 . S
C1099 C1083 1.377 . S
C1099 C1097 1.389 . S
C1099 C1100 1.524 . S
C1100 C1099 1.524 . S
C1100 C1101 1.397 . S
C1100 C1105 1.363 . S
C1101 H1072 0.950 . S
C1101 C1100 1.397 . S
C1101 C1102 1.334 . S
C1102 H1073 0.950 . S
C1102 C1101 1.334 . S
C1102 C1103 1.287 . S
C1103 C1102 1.287 . S
C1103 C1104 1.524 . S
C1103 H1106 0.999 . S
C1104 H1074 0.950 . S
C1104 C1103 1.524 . S
C1104 C1105 1.415 . S
C1105 H1075 0.950 . S
C1105 C1100 1.363 . S
C1105 C1104 1.415 . S
H1106 C1103 0.999 . S
H1107 C1088 0.913 . S
H1108 C1126 0.951 . S
H1109 C1128 0.951 . S
H1110 C1130 0.950 . S
H1111 C1131 0.950 . S
H1112 C1133 0.950 . S
H1113 C1136 0.950 . S
H1114 C1137 0.950 . S
H1115 C1139 0.950 . S
H1116 C1140 0.950 . S
H1117 C1141 0.951 . S
H1118 C1143 0.951 . S
H1119 C1145 0.950 . S
H1120 C1146 0.950 . S
H1121 C1148 0.950 . S
H1122 C1151 0.950 . S
H1123 C1152 0.950 . S
H1124 C1154 0.950 . S
H1125 C1155 0.950 . S
C1126 H1108 0.951 . S
C1126 C1127 1.366 . S
C1126 C1128 1.388 . S
C1127 C1126 1.366 . S
C1127 C1131 1.385 . S
C1128 H1109 0.951 . S
C1128 C1126 1.388 . S
C1128 C1129 1.366 . S
C1129 C1128 1.366 . S
C1129 C1130 1.414 . S
C1129 C1132 1.499 . S
C1130 H1110 0.950 . S
C1130 C1129 1.414 . S
C1130 C1131 1.374 . S
C1131 H1111 0.950 . S
C1131 C1127 1.385 . S
C1131 C1130 1.374 . S
C1132 C1129 1.499 . S
C1132 C1133 1.373 . S
C1132 C1134 1.389 . S
C1133 H1112 0.950 . S
C1133 C1132 1.373 . S
C1133 C1149 1.377 . S
C1134 C1132 1.389 . S
C1134 C1135 1.524 . S
C1134 C1148 1.377 . S
C1135 C1134 1.524 . S
C1135 C1136 1.397 . S
C1135 C1140 1.363 . S
C1136 H1113 0.950 . S
C1136 C1135 1.397 . S
C1136 C1137 1.334 . S
C1137 H1114 0.950 . S
C1137 C1136 1.334 . S
C1137 C1138 1.287 . S
C1138 C1137 1.287 . S
C1138 C1139 1.524 . S
C1138 H1157 0.913 . S
C1139 H1115 0.950 . S
C1139 C1138 1.524 . S
C1139 C1140 1.415 . S
C1140 H1116 0.950 . S
C1140 C1135 1.363 . S
C1140 C1139 1.415 . S
C1141 H1117 0.951 . S
C1141 C1142 1.366 . S
C1141 C1143 1.388 . S
C1142 C1141 1.366 . S
C1142 C1146 1.385 . S
C1143 H1118 0.951 . S
C1143 C1141 1.388 . S
C1143 C1144 1.366 . S
C1144 C1143 1.366 . S
C1144 C1145 1.414 . S
C1144 C1147 1.499 . S
C1145 H1119 0.950 . S
C1145 C1144 1.414 . S
C1145 C1146 1.374 . S
C1146 H1120 0.950 . S
C1146 C1142 1.385 . S
C1146 C1145 1.374 . S
C1147 C1144 1.499 . S
C1147 C1148 1.373 . S
C1147 C1149 1.389 . S
C1148 H1121 0.950 . S
C1148 C1134 1.377 . S
C1148 C1147 1.373 . S
C1149 C1133 1.377 . S
C1149 C1147 1.389 . S
C1149 C1150 1.524 . S
C1150 C1149 1.524 . S
C1150 C1151 1.397 . S
C1150 C1155 1.363 . S
C1151 H1122 0.950 . S
C1151 C1150 1.397 . S
C1151 C1152 1.334 . S
C1152 H1123 0.950 . S
C1152 C1151 1.334 . S
C1152 C1153 1.287 . S
C1153 C1152 1.287 . S
C1153 C1154 1.524 . S
C1153 H1156 0.999 . S
C1154 H1124 0.950 . S
C1154 C1153 1.524 . S
C1154 C1155 1.415 . S
C1155 H1125 0.950 . S
C1155 C1150 1.363 . S
C1155 C1154 1.415 . S
H1156 C1153 0.999 . S
H1157 C1138 0.913 . S
H1158 C1176 0.951 . S
H1159 C1178 0.951 . S
H1160 C1180 0.950 . S
H1161 C1181 0.950 . S
H1162 C1183 0.950 . S
H1163 C1186 0.950 . S
H1164 C1187 0.950 . S
H1165 C1189 0.950 . S
H1166 C1190 0.950 . S
H1167 C1191 0.951 . S
H1168 C1193 0.951 . S
H1169 C1195 0.950 . S
H1170 C1196 0.950 . S
H1171 C1198 0.950 . S
H1172 C1201 0.950 . S
H1173 C1202 0.950 . S
H1174 C1204 0.950 . S
H1175 C1205 0.950 . S
C1176 H1158 0.951 . S
C1176 C1177 1.366 . S
C1176 C1178 1.388 . S
C1177 C1176 1.366 . S
C1177 C1181 1.385 . S
C1178 H1159 0.951 . S
C1178 C1176 1.388 . S
C1178 C1179 1.366 . S
C1179 C1178 1.366 . S
C1179 C1180 1.414 . S
C1179 C1182 1.499 . S
C1180 H1160 0.950 . S
C1180 C1179 1.414 . S
C1180 C1181 1.374 . S
C1181 H1161 0.950 . S
C1181 C1177 1.385 . S
C1181 C1180 1.374 . S
C1182 C1179 1.499 . S
C1182 C1183 1.373 . S
C1182 C1184 1.389 . S
C1183 H1162 0.950 . S
C1183 C1182 1.373 . S
C1183 C1199 1.377 . S
C1184 C1182 1.389 . S
C1184 C1185 1.524 . S
C1184 C1198 1.377 . S
C1185 C1184 1.524 . S
C1185 C1186 1.397 . S
C1185 C1190 1.363 . S
C1186 H1163 0.950 . S
C1186 C1185 1.397 . S
C1186 C1187 1.334 . S
C1187 H1164 0.950 . S
C1187 C1186 1.334 . S
C1187 C1188 1.287 . S
C1188 C1187 1.287 . S
C1188 C1189 1.524 . S
C1188 H1207 0.913 . S
C1189 H1165 0.950 . S
C1189 C1188 1.524 . S
C1189 C1190 1.415 . S
C1190 H1166 0.950 . S
C1190 C1185 1.363 . S
C1190 C1189 1.415 . S
C1191 H1167 0.951 . S
C1191 C1192 1.366 . S
C1191 C1193 1.388 . S
C1192 C1191 1.366 . S
C1192 C1196 1.385 . S
C1193 H1168 0.951 . S
C1193 C1191 1.388 . S
C1193 C1194 1.366 . S
C1194 C1193 1.366 . S
C1194 C1195 1.414 . S
C1194 C1197 1.499 . S
C1195 H1169 0.950 . S
C1195 C1194 1.414 . S
C1195 C1196 1.374 . S
C1196 H1170 0.950 . S
C1196 C1192 1.385 . S
C1196 C1195 1.374 . S
C1197 C1194 1.499 . S
C1197 C1198 1.373 . S
C1197 C1199 1.389 . S
C1198 H1171 0.950 . S
C1198 C1184 1.377 . S
C1198 C1197 1.373 . S
C1199 C1183 1.377 . S
C1199 C1197 1.389 . S
C1199 C1200 1.524 . S
C1200 C1199 1.524 . S
C1200 C1201 1.397 . S
C1200 C1205 1.363 . S
C1201 H1172 0.950 . S
C1201 C1200 1.397 . S
C1201 C1202 1.334 . S
C1202 H1173 0.950 . S
C1202 C1201 1.334 . S
C1202 C1203 1.287 . S
C1203 C1202 1.287 . S
C1203 C1204 1.524 . S
C1203 H1206 0.999 . S
C1204 H1174 0.950 . S
C1204 C1203 1.524 . S
C1204 C1205 1.415 . S
C1205 H1175 0.950 . S
C1205 C1200 1.363 . S
C1205 C1204 1.415 . S
H1206 C1203 0.999 . S
H1207 C1188 0.913 . S
H1208 C1226 0.951 . S
H1209 C1228 0.951 . S
H1210 C1230 0.950 . S
H1211 C1231 0.950 . S
H1212 C1233 0.950 . S
H1213 C1236 0.950 . S
H1214 C1237 0.950 . S
H1215 C1239 0.950 . S
H1216 C1240 0.950 . S
H1217 C1241 0.951 . S
H1218 C1243 0.951 . S
H1219 C1245 0.950 . S
H1220 C1246 0.950 . S
H1221 C1248 0.950 . S
H1222 C1251 0.950 . S
H1223 C1252 0.950 . S
H1224 C1254 0.950 . S
H1225 C1255 0.950 . S
C1226 H1208 0.951 . S
C1226 C1227 1.366 . S
C1226 C1228 1.388 . S
C1227 C1226 1.366 . S
C1227 C1231 1.385 . S
C1228 H1209 0.951 . S
C1228 C1226 1.388 . S
C1228 C1229 1.366 . S
C1229 C1228 1.366 . S
C1229 C1230 1.414 . S
C1229 C1232 1.499 . S
C1230 H1210 0.950 . S
C1230 C1229 1.414 . S
C1230 C1231 1.374 . S
C1231 H1211 0.950 . S
C1231 C1227 1.385 . S
C1231 C1230 1.374 . S
C1232 C1229 1.499 . S
C1232 C1233 1.373 . S
C1232 C1234 1.389 . S
C1233 H1212 0.950 . S
C1233 C1232 1.373 . S
C1233 C1249 1.377 . S
C1234 C1232 1.389 . S
C1234 C1235 1.524 . S
C1234 C1248 1.377 . S
C1235 C1234 1.524 . S
C1235 C1236 1.397 . S
C1235 C1240 1.363 . S
C1236 H1213 0.950 . S
C1236 C1235 1.397 . S
C1236 C1237 1.334 . S
C1237 H1214 0.950 . S
C1237 C1236 1.334 . S
C1237 C1238 1.287 . S
C1238 C1237 1.287 . S
C1238 C1239 1.524 . S
C1238 H1257 0.913 . S
C1239 H1215 0.950 . S
C1239 C1238 1.524 . S
C1239 C1240 1.415 . S
C1240 H1216 0.950 . S
C1240 C1235 1.363 . S
C1240 C1239 1.415 . S
C1241 H1217 0.951 . S
C1241 C1242 1.366 . S
C1241 C1243 1.388 . S
C1242 C1241 1.366 . S
C1242 C1246 1.385 . S
C1243 H1218 0.951 . S
C1243 C1241 1.388 . S
C1243 C1244 1.366 . S
C1244 C1243 1.366 . S
C1244 C1245 1.414 . S
C1244 C1247 1.499 . S
C1245 H1219 0.950 . S
C1245 C1244 1.414 . S
C1245 C1246 1.374 . S
C1246 H1220 0.950 . S
C1246 C1242 1.385 . S
C1246 C1245 1.374 . S
C1247 C1244 1.499 . S
C1247 C1248 1.373 . S
C1247 C1249 1.389 . S
C1248 H1221 0.950 . S
C1248 C1234 1.377 . S
C1248 C1247 1.373 . S
C1249 C1233 1.377 . S
C1249 C1247 1.389 . S
C1249 C1250 1.524 . S
C1250 C1249 1.524 . S
C1250 C1251 1.397 . S
C1250 C1255 1.363 . S
C1251 H1222 0.950 . S
C1251 C1250 1.397 . S
C1251 C1252 1.334 . S
C1252 H1223 0.950 . S
C1252 C1251 1.334 . S
C1252 C1253 1.287 . S
C1253 C1252 1.287 . S
C1253 C1254 1.524 . S
C1253 H1256 0.999 . S
C1254 H1224 0.950 . S
C1254 C1253 1.524 . S
C1254 C1255 1.415 . S
C1255 H1225 0.950 . S
C1255 C1250 1.363 . S
C1255 C1254 1.415 . S
H1256 C1253 0.999 . S
H1257 C1238 0.913 . S
H1258 C1276 0.951 . S
H1259 C1278 0.951 . S
H1260 C1280 0.950 . S
H1261 C1281 0.950 . S
H1262 C1283 0.950 . S
H1263 C1286 0.950 . S
H1264 C1287 0.950 . S
H1265 C1289 0.950 . S
H1266 C1290 0.950 . S
H1267 C1291 0.951 . S
H1268 C1293 0.951 . S
H1269 C1295 0.950 . S
H1270 C1296 0.950 . S
H1271 C1298 0.950 . S
H1272 C1301 0.950 . S
H1273 C1302 0.950 . S
H1274 C1304 0.950 . S
H1275 C1305 0.950 . S
C1276 H1258 0.951 . S
C1276 C1277 1.366 . S
C1276 C1278 1.388 . S
C1277 C1276 1.366 . S
C1277 C1281 1.385 . S
C1278 H1259 0.951 . S
C1278 C1276 1.388 . S
C1278 C1279 1.366 . S
C1279 C1278 1.366 . S
C1279 C1280 1.414 . S
C1279 C1282 1.499 . S
C1280 H1260 0.950 . S
C1280 C1279 1.414 . S
C1280 C1281 1.374 . S
C1281 H1261 0.950 . S
C1281 C1277 1.385 . S
C1281 C1280 1.374 . S
C1282 C1279 1.499 . S
C1282 C1283 1.373 . S
C1282 C1284 1.389 . S
C1283 H1262 0.950 . S
C1283 C1282 1.373 . S
C1283 C1299 1.377 . S
C1284 C1282 1.389 . S
C1284 C1285 1.524 . S
C1284 C1298 1.377 . S
C1285 C1284 1.524 . S
C1285 C1286 1.397 . S
C1285 C1290 1.363 . S
C1286 H1263 0.950 . S
C1286 C1285 1.397 . S
C1286 C1287 1.334 . S
C1287 H1264 0.950 . S
C1287 C1286 1.334 . S
C1287 C1288 1.287 . S
C1288 C1287 1.287 . S
C1288 C1289 1.524 . S
C1288 H1307 0.913 . S
C1289 H1265 0.950 . S
C1289 C1288 1.524 . S
C1289 C1290 1.415 . S
C1290 H1266 0.950 . S
C1290 C1285 1.363 . S
C1290 C1289 1.415 . S
C1291 H1267 0.951 . S
C1291 C1292 1.366 . S
C1291 C1293 1.388 . S
C1292 C1291 1.366 . S
C1292 C1296 1.385 . S
C1293 H1268 0.951 . S
C1293 C1291 1.388 . S
C1293 C1294 1.366 . S
C1294 C1293 1.366 . S
C1294 C1295 1.414 . S
C1294 C1297 1.499 . S
C1295 H1269 0.950 . S
C1295 C1294 1.414 . S
C1295 C1296 1.374 . S
C1296 H1270 0.950 . S
C1296 C1292 1.385 . S
C1296 C1295 1.374 . S
C1297 C1294 1.499 . S
C1297 C1298 1.373 . S
C1297 C1299 1.389 . S
C1298 H1271 0.950 . S
C1298 C1284 1.377 . S
C1298 C1297 1.373 . S
C1299 C1283 1.377 . S
C1299 C1297 1.389 . S
C1299 C1300 1.524 . S
C1300 C1299 1.524 . S
C1300 C1301 1.397 . S
C1300 C1305 1.363 . S
C1301 H1272 0.950 . S
C1301 C1300 1.397 . S
C1301 C1302 1.334 . S
C1302 H1273 0.950 . S
C1302 C1301 1.334 . S
C1302 C1303 1.287 . S
C1303 C1302 1.287 . S
C1303 C1304 1.524 . S
C1303 H1306 0.999 . S
C1304 H1274 0.950 . S
C1304 C1303 1.524 . S
C1304 C1305 1.415 . S
C1305 H1275 0.950 . S
C1305 C1300 1.363 . S
C1305 C1304 1.415 . S
H1306 C1303 0.999 . S
H1307 C1288 0.913 . S
H1308 C1326 0.951 . S
H1309 C1328 0.951 . S
H1310 C1330 0.950 . S
H1311 C1331 0.950 . S
H1312 C1333 0.950 . S
H1313 C1336 0.950 . S
H1314 C1337 0.950 . S
H1315 C1339 0.950 . S
H1316 C1340 0.950 . S
H1317 C1341 0.951 . S
H1318 C1343 0.951 . S
H1319 C1345 0.950 . S
H1320 C1346 0.950 . S
H1321 C1348 0.950 . S
H1322 C1351 0.950 . S
H1323 C1352 0.950 . S
H1324 C1354 0.950 . S
H1325 C1355 0.950 . S
C1326 H1308 0.951 . S
C1326 C1327 1.366 . S
C1326 C1328 1.388 . S
C1327 C1326 1.366 . S
C1327 C1331 1.385 . S
C1328 H1309 0.951 . S
C1328 C1326 1.388 . S
C1328 C1329 1.366 . S
C1329 C1328 1.366 . S
C1329 C1330 1.414 . S
C1329 C1332 1.499 . S
C1330 H1310 0.950 . S
C1330 C1329 1.414 . S
C1330 C1331 1.374 . S
C1331 H1311 0.950 . S
C1331 C1327 1.385 . S
C1331 C1330 1.374 . S
C1332 C1329 1.499 . S
C1332 C1333 1.373 . S
C1332 C1334 1.389 . S
C1333 H1312 0.950 . S
C1333 C1332 1.373 . S
C1333 C1349 1.377 . S
C1334 C1332 1.389 . S
C1334 C1335 1.524 . S
C1334 C1348 1.377 . S
C1335 C1334 1.524 . S
C1335 C1336 1.397 . S
C1335 C1340 1.363 . S
C1336 H1313 0.950 . S
C1336 C1335 1.397 . S
C1336 C1337 1.334 . S
C1337 H1314 0.950 . S
C1337 C1336 1.334 . S
C1337 C1338 1.287 . S
C1338 C1337 1.287 . S
C1338 C1339 1.524 . S
C1338 H1357 0.913 . S
C1339 H1315 0.950 . S
C1339 C1338 1.524 . S
C1339 C1340 1.415 . S
C1340 H1316 0.950 . S
C1340 C1335 1.363 . S
C1340 C1339 1.415 . S
C1341 H1317 0.951 . S
C1341 C1342 1.366 . S
C1341 C1343 1.388 . S
C1342 C1341 1.366 . S
C1342 C1346 1.385 . S
C1343 H1318 0.951 . S
C1343 C1341 1.388 . S
C1343 C1344 1.366 . S
C1344 C1343 1.366 . S
C1344 C1345 1.414 . S
C1344 C1347 1.499 . S
C1345 H1319 0.950 . S
C1345 C1344 1.414 . S
C1345 C1346 1.374 . S
C1346 H1320 0.950 . S
C1346 C1342 1.385 . S
C1346 C1345 1.374 . S
C1347 C1344 1.499 . S
C1347 C1348 1.373 . S
C1347 C1349 1.389 . S
C1348 H1321 0.950 . S
C1348 C1334 1.377 . S
C1348 C1347 1.373 . S
C1349 C1333 1.377 . S
C1349 C1347 1.389 . S
C1349 C1350 1.524 . S
C1350 C1349 1.524 . S
C1350 C1351 1.397 . S
C1350 C1355 1.363 . S
C1351 H1322 0.950 . S
C1351 C1350 1.397 . S
C1351 C1352 1.334 . S
C1352 H1323 0.950 . S
C1352 C1351 1.334 . S
C1352 C1353 1.287 . S
C1353 C1352 1.287 . S
C1353 C1354 1.524 . S
C1353 H1356 0.999 . S
C1354 H1324 0.950 . S
C1354 C1353 1.524 . S
C1354 C1355 1.415 . S
C1355 H1325 0.950 . S
C1355 C1350 1.363 . S
C1355 C1354 1.415 . S
H1356 C1353 0.999 . S
H1357 C1338 0.913 . S
H1358 C1376 0.951 . S
H1359 C1378 0.951 . S
H1360 C1380 0.950 . S
H1361 C1381 0.950 . S
H1362 C1383 0.950 . S
H1363 C1386 0.950 . S
H1364 C1387 0.950 . S
H1365 C1389 0.950 . S
H1366 C1390 0.950 . S
H1367 C1391 0.951 . S
H1368 C1393 0.951 . S
H1369 C1395 0.950 . S
H1370 C1396 0.950 . S
H1371 C1398 0.950 . S
H1372 C1401 0.950 . S
H1373 C1402 0.950 . S
H1374 C1404 0.950 . S
H1375 C1405 0.950 . S
C1376 H1358 0.951 . S
C1376 C1377 1.366 . S
C1376 C1378 1.388 . S
C1377 C1376 1.366 . S
C1377 C1381 1.385 . S
C1378 H1359 0.951 . S
C1378 C1376 1.388 . S
C1378 C1379 1.366 . S
C1379 C1378 1.366 . S
C1379 C1380 1.414 . S
C1379 C1382 1.499 . S
C1380 H1360 0.950 . S
C1380 C1379 1.414 . S
C1380 C1381 1.374 . S
C1381 H1361 0.950 . S
C1381 C1377 1.385 . S
C1381 C1380 1.374 . S
C1382 C1379 1.499 . S
C1382 C1383 1.373 . S
C1382 C1384 1.389 . S
C1383 H1362 0.950 . S
C1383 C1382 1.373 . S
C1383 C1399 1.377 . S
C1384 C1382 1.389 . S
C1384 C1385 1.524 . S
C1384 C1398 1.377 . S
C1385 C1384 1.524 . S
C1385 C1386 1.397 . S
C1385 C1390 1.363 . S
C1386 H1363 0.950 . S
C1386 C1385 1.397 . S
C1386 C1387 1.334 . S
C1387 H1364 0.950 . S
C1387 C1386 1.334 . S
C1387 C1388 1.287 . S
C1388 C1387 1.287 . S
C1388 C1389 1.524 . S
C1388 H1407 0.913 . S
C1389 H1365 0.950 . S
C1389 C1388 1.524 . S
C1389 C1390 1.415 . S
C1390 H1366 0.950 . S
C1390 C1385 1.363 . S
C1390 C1389 1.415 . S
C1391 H1367 0.951 . S
C1391 C1392 1.366 . S
C1391 C1393 1.388 . S
C1392 C1391 1.366 . S
C1392 C1396 1.385 . S
C1393 H1368 0.951 . S
C1393 C1391 1.388 . S
C1393 C1394 1.366 . S
C1394 C1393 1.366 . S
C1394 C1395 1.414 . S
C1394 C1397 1.499 . S
C1395 H1369 0.950 . S
C1395 C1394 1.414 . S
C1395 C1396 1.374 . S
C1396 H1370 0.950 . S
C1396 C1392 1.385 . S
C1396 C1395 1.374 . S
C1397 C1394 1.499 . S
C1397 C1398 1.373 . S
C1397 C1399 1.389 . S
C1398 H1371 0.950 . S
C1398 C1384 1.377 . S
C1398 C1397 1.373 . S
C1399 C1383 1.377 . S
C1399 C1397 1.389 . S
C1399 C1400 1.524 . S
C1400 C1399 1.524 . S
C1400 C1401 1.397 . S
C1400 C1405 1.363 . S
C1401 H1372 0.950 . S
C1401 C1400 1.397 . S
C1401 C1402 1.334 . S
C1402 H1373 0.950 . S
C1402 C1401 1.334 . S
C1402 C1403 1.287 . S
C1403 C1402 1.287 . S
C1403 C1404 1.524 . S
C1403 H1406 0.999 . S
C1404 H1374 0.950 . S
C1404 C1403 1.524 . S
C1404 C1405 1.415 . S
C1405 H1375 0.950 . S
C1405 C1400 1.363 . S
C1405 C1404 1.415 . S
H1406 C1403 0.999 . S
H1407 C1388 0.913 . S
H1408 C1426 0.951 . S
H1409 C1428 0.951 . S
H1410 C1430 0.950 1_565 S
H1411 C1431 0.948 . S
H1412 C1433 0.950 . S
H1413 C1436 0.950 . S
H1414 C1437 0.950 . S
H1415 C1439 0.950 . S
H1416 C1440 0.950 . S
H1417 C1441 0.951 . S
H1418 C1443 0.951 . S
H1419 C1445 0.950 1_545 S
H1420 C1446 0.948 . S
H1421 C1448 0.950 . S
H1422 C1451 0.950 . S
H1423 C1452 0.950 . S
H1424 C1454 0.950 . S
H1425 C1455 0.950 . S
C1426 H1408 0.951 . S
C1426 C1427 1.366 . S
C1426 C1428 1.388 . S
C1427 C1426 1.366 . S
C1427 C1431 1.385 . S
C1428 H1409 0.951 . S
C1428 C1426 1.388 . S
C1428 C1429 1.366 . S
C1429 C1428 1.366 . S
C1429 C1430 1.414 . S
C1429 C1432 1.499 . S
C1430 H1410 0.950 1_545 S
C1430 C1429 1.414 . S
C1430 C1431 1.374 . S
C1431 H1411 0.948 . S
C1431 C1427 1.385 . S
C1431 C1430 1.374 . S
C1432 C1429 1.499 . S
C1432 C1433 1.377 . S
C1432 C1434 1.389 . S
C1433 H1412 0.950 . S
C1433 C1432 1.377 . S
C1433 C1449 1.373 1_545 S
C1434 C1432 1.389 . S
C1434 C1435 1.524 . S
C1434 C1448 1.373 1_545 S
C1435 C1434 1.524 . S
C1435 C1436 1.397 1_545 S
C1435 C1440 1.363 . S
C1436 H1413 0.950 . S
C1436 C1435 1.397 1_565 S
C1436 C1437 1.334 . S
C1437 H1414 0.950 . S
C1437 C1436 1.334 . S
C1437 C1438 1.287 1_565 S
C1438 C1437 1.287 1_545 S
C1438 C1439 1.524 . S
C1438 H1457 0.913 . S
C1439 H1415 0.950 . S
C1439 C1438 1.524 . S
C1439 C1440 1.415 . S
C1440 H1416 0.950 . S
C1440 C1435 1.363 . S
C1440 C1439 1.415 . S
C1441 H1417 0.951 . S
C1441 C1442 1.366 . S
C1441 C1443 1.388 . S
C1442 C1441 1.366 . S
C1442 C1446 1.385 . S
C1443 H1418 0.951 . S
C1443 C1441 1.388 . S
C1443 C1444 1.366 . S
C1444 C1443 1.366 . S
C1444 C1445 1.414 . S
C1444 C1447 1.499 . S
C1445 H1419 0.950 1_565 S
C1445 C1444 1.414 . S
C1445 C1446 1.374 . S
C1446 H1420 0.948 . S
C1446 C1442 1.385 . S
C1446 C1445 1.374 . S
C1447 C1444 1.499 . S
C1447 C1448 1.377 . S
C1447 C1449 1.389 . S
C1448 H1421 0.950 . S
C1448 C1434 1.373 1_565 S
C1448 C1447 1.377 . S
C1449 C1433 1.373 1_565 S
C1449 C1447 1.389 . S
C1449 C1450 1.524 . S
C1450 C1449 1.524 . S
C1450 C1451 1.397 1_565 S
C1450 C1455 1.363 . S
C1451 H1422 0.950 . S
C1451 C1450 1.397 1_545 S
C1451 C1452 1.334 . S
C1452 H1423 0.950 . S
C1452 C1451 1.334 . S
C1452 C1453 1.287 1_545 S
C1453 C1452 1.287 1_565 S
C1453 C1454 1.524 . S
C1453 H1456 0.999 . S
C1454 H1424 0.950 . S
C1454 C1453 1.524 . S
C1454 C1455 1.415 . S
C1455 H1425 0.950 . S
C1455 C1450 1.363 . S
C1455 C1454 1.415 . S
H1456 C1453 0.999 . S
H1457 C1438 0.913 . S
H1458 C1476 0.951 . S
H1459 C1478 0.951 . S
H1460 C1480 0.950 1_565 S
H1461 C1481 0.932 1_565 S
H1462 C1483 0.950 . S
H1463 C1486 0.950 . S
H1464 C1487 0.950 . S
H1465 C1489 0.950 . S
H1466 C1490 0.950 . S
H1467 C1491 0.951 . S
H1468 C1493 0.951 . S
H1469 C1495 0.950 1_545 S
H1470 C1496 0.932 1_545 S
H1471 C1498 0.950 . S
H1472 C1501 0.950 . S
H1473 C1502 0.950 . S
H1474 C1504 0.950 . S
H1475 C1505 0.950 . S
C1476 H1458 0.951 . S
C1476 C1477 1.366 . S
C1476 C1478 1.388 . S
C1477 C1476 1.366 . S
C1477 C1481 1.385 . S
C1478 H1459 0.951 . S
C1478 C1476 1.388 . S
C1478 C1479 1.366 . S
C1479 C1478 1.366 . S
C1479 C1480 1.414 . S
C1479 C1482 1.499 . S
C1480 H1460 0.950 1_545 S
C1480 C1479 1.414 . S
C1480 C1481 1.374 . S
C1481 H1461 0.932 1_545 S
C1481 C1477 1.385 . S
C1481 C1480 1.374 . S
C1482 C1479 1.499 . S
C1482 C1483 1.373 1_545 S
C1482 C1484 1.389 . S
C1483 H1462 0.950 . S
C1483 C1482 1.373 1_565 S
C1483 C1499 1.377 . S
C1484 C1482 1.389 . S
C1484 C1485 1.524 . S
C1484 C1498 1.377 . S
C1485 C1484 1.524 . S
C1485 C1486 1.397 . S
C1485 C1490 1.363 . S
C1486 H1463 0.950 . S
C1486 C1485 1.397 . S
C1486 C1487 1.334 . S
C1487 H1464 0.950 . S
C1487 C1486 1.334 . S
C1487 C1488 1.287 . S
C1488 C1487 1.287 . S
C1488 C1489 1.524 . S
C1488 H1507 0.913 . S
C1489 H1465 0.950 . S
C1489 C1488 1.524 . S
C1489 C1490 1.415 . S
C1490 H1466 0.950 . S
C1490 C1485 1.363 . S
C1490 C1489 1.415 . S
C1491 H1467 0.951 . S
C1491 C1492 1.366 . S
C1491 C1493 1.388 . S
C1492 C1491 1.366 . S
C1492 C1496 1.385 . S
C1493 H1468 0.951 . S
C1493 C1491 1.388 . S
C1493 C1494 1.366 . S
C1494 C1493 1.366 . S
C1494 C1495 1.414 . S
C1494 C1497 1.499 . S
C1495 H1469 0.950 1_565 S
C1495 C1494 1.414 . S
C1495 C1496 1.374 . S
C1496 H1470 0.932 1_565 S
C1496 C1492 1.385 . S
C1496 C1495 1.374 . S
C1497 C1494 1.499 . S
C1497 C1498 1.373 1_565 S
C1497 C1499 1.389 . S
C1498 H1471 0.950 . S
C1498 C1484 1.377 . S
C1498 C1497 1.373 1_545 S
C1499 C1483 1.377 . S
C1499 C1497 1.389 . S
C1499 C1500 1.524 . S
C1500 C1499 1.524 . S
C1500 C1501 1.397 . S
C1500 C1505 1.363 . S
C1501 H1472 0.950 . S
C1501 C1500 1.397 . S
C1501 C1502 1.334 . S
C1502 H1473 0.950 . S
C1502 C1501 1.334 . S
C1502 C1503 1.287 . S
C1503 C1502 1.287 . S
C1503 C1504 1.524 . S
C1503 H1506 0.999 . S
C1504 H1474 0.950 . S
C1504 C1503 1.524 . S
C1504 C1505 1.415 . S
C1505 H1475 0.950 . S
C1505 C1500 1.363 . S
C1505 C1504 1.415 . S
H1506 C1503 0.999 . S
H1507 C1488 0.913 . S
H1508 C1526 0.951 1_565 S
H1509 C1528 0.956 . S
H1510 C1530 0.950 . S
H1511 C1531 0.950 . S
H1512 C1533 0.950 . S
H1513 C1536 0.992 . S
H1514 C1537 0.950 . S
H1515 C1539 0.950 . S
H1516 C1540 0.950 . S
H1517 C1541 0.951 1_545 S
H1518 C1543 0.956 . S
H1519 C1545 0.950 . S
H1520 C1546 0.950 . S
H1521 C1548 0.950 . S
H1522 C1551 0.992 . S
H1523 C1552 0.950 . S
H1524 C1554 0.950 . S
H1525 C1555 0.950 . S
C1526 H1508 0.951 1_545 S
C1526 C1527 1.366 . S
C1526 C1528 1.386 1_545 S
C1527 C1526 1.366 . S
C1527 C1531 1.385 . S
C1528 H1509 0.956 . S
C1528 C1526 1.386 1_565 S
C1528 C1529 1.362 1_565 S
C1529 C1528 1.362 1_545 S
C1529 C1530 1.414 . S
C1529 C1532 1.499 . S
C1530 H1510 0.950 . S
C1530 C1529 1.414 . S
C1530 C1531 1.374 . S
C1531 H1511 0.950 . S
C1531 C1527 1.385 . S
C1531 C1530 1.374 . S
C1532 C1529 1.499 . S
C1532 C1533 1.373 . S
C1532 C1534 1.389 1_545 S
C1533 H1512 0.950 . S
C1533 C1532 1.373 . S
C1533 C1549 1.377 . S
C1534 C1532 1.389 1_565 S
C1534 C1535 1.524 . S
C1534 C1548 1.377 . S
C1535 C1534 1.524 . S
C1535 C1536 1.397 . S
C1535 C1540 1.363 . S
C1536 H1513 0.992 . S
C1536 C1535 1.397 . S
C1536 C1537 1.334 . S
C1537 H1514 0.950 . S
C1537 C1536 1.334 . S
C1537 C1538 1.287 . S
C1538 C1537 1.287 . S
C1538 C1539 1.524 . S
C1538 H1557 0.913 . S
C1539 H1515 0.950 . S
C1539 C1538 1.524 . S
C1539 C1540 1.415 . S
C1540 H1516 0.950 . S
C1540 C1535 1.363 . S
C1540 C1539 1.415 . S
C1541 H1517 0.951 1_565 S
C1541 C1542 1.366 . S
C1541 C1543 1.386 1_565 S
C1542 C1541 1.366 . S
C1542 C1546 1.385 . S
C1543 H1518 0.956 . S
C1543 C1541 1.386 1_545 S
C1543 C1544 1.362 1_545 S
C1544 C1543 1.362 1_565 S
C1544 C1545 1.414 . S
C1544 C1547 1.499 . S
C1545 H1519 0.950 . S
C1545 C1544 1.414 . S
C1545 C1546 1.374 . S
C1546 H1520 0.950 . S
C1546 C1542 1.385 . S
C1546 C1545 1.374 . S
C1547 C1544 1.499 . S
C1547 C1548 1.373 . S
C1547 C1549 1.389 1_565 S
C1548 H1521 0.950 . S
C1548 C1534 1.377 . S
C1548 C1547 1.373 . S
C1549 C1533 1.377 . S
C1549 C1547 1.389 1_545 S
C1549 C1550 1.524 . S
C1550 C1549 1.524 . S
C1550 C1551 1.397 . S
C1550 C1555 1.363 . S
C1551 H1522 0.992 . S
C1551 C1550 1.397 . S
C1551 C1552 1.334 . S
C1552 H1523 0.950 . S
C1552 C1551 1.334 . S
C1552 C1553 1.287 . S
C1553 C1552 1.287 . S
C1553 C1554 1.524 . S
C1553 H1556 0.999 . S
C1554 H1524 0.950 . S
C1554 C1553 1.524 . S
C1554 C1555 1.415 . S
C1555 H1525 0.950 . S
C1555 C1550 1.363 . S
C1555 C1554 1.415 . S
H1556 C1553 0.999 . S
H1557 C1538 0.913 . S
H1558 C1576 0.951 . S
H1559 C1578 0.951 1_545 S
H1560 C1580 0.950 . S
H1561 C1581 0.950 . S
H1562 C1583 0.950 . S
H1563 C1586 0.950 . S
H1564 C1587 0.950 . S
H1565 C1589 0.950 . S
H1566 C1590 0.950 . S
H1567 C1591 0.951 . S
H1568 C1593 0.951 1_565 S
H1569 C1595 0.950 . S
H1570 C1596 0.950 . S
H1571 C1598 0.950 . S
H1572 C1601 0.950 . S
H1573 C1602 0.950 . S
H1574 C1604 0.950 . S
H1575 C1605 0.950 . S
C1576 H1558 0.951 . S
C1576 C1577 1.366 . S
C1576 C1578 1.388 . S
C1577 C1576 1.366 . S
C1577 C1581 1.385 . S
C1578 H1559 0.951 1_565 S
C1578 C1576 1.388 . S
C1578 C1579 1.366 . S
C1579 C1578 1.366 . S
C1579 C1580 1.414 . S
C1579 C1582 1.499 . S
C1580 H1560 0.950 . S
C1580 C1579 1.414 . S
C1580 C1581 1.374 . S
C1581 H1561 0.950 . S
C1581 C1577 1.385 . S
C1581 C1580 1.374 . S
C1582 C1579 1.499 . S
C1582 C1583 1.373 . S
C1582 C1584 1.389 1_565 S
C1583 H1562 0.950 . S
C1583 C1582 1.373 . S
C1583 C1599 1.377 . S
C1584 C1582 1.389 1_545 S
C1584 C1585 1.524 . S
C1584 C1598 1.377 . S
C1585 C1584 1.524 . S
C1585 C1586 1.397 . S
C1585 C1590 1.363 . S
C1586 H1563 0.950 . S
C1586 C1585 1.397 . S
C1586 C1587 1.334 . S
C1587 H1564 0.950 . S
C1587 C1586 1.334 . S
C1587 C1588 1.287 . S
C1588 C1587 1.287 . S
C1588 C1589 1.524 . S
C1588 H1607 0.913 . S
C1589 H1565 0.950 . S
C1589 C1588 1.524 . S
C1589 C1590 1.415 . S
C1590 H1566 0.950 . S
C1590 C1585 1.363 . S
C1590 C1589 1.415 . S
C1591 H1567 0.951 . S
C1591 C1592 1.366 . S
C1591 C1593 1.388 . S
C1592 C1591 1.366 . S
C1592 C1596 1.385 . S
C1593 H1568 0.951 1_545 S
C1593 C1591 1.388 . S
C1593 C1594 1.366 . S
C1594 C1593 1.366 . S
C1594 C1595 1.414 . S
C1594 C1597 1.499 . S
C1595 H1569 0.950 . S
C1595 C1594 1.414 . S
C1595 C1596 1.374 . S
C1596 H1570 0.950 . S
C1596 C1592 1.385 . S
C1596 C1595 1.374 . S
C1597 C1594 1.499 . S
C1597 C1598 1.373 . S
C1597 C1599 1.389 1_545 S
C1598 H1571 0.950 . S
C1598 C1584 1.377 . S
C1598 C1597 1.373 . S
C1599 C1583 1.377 . S
C1599 C1597 1.389 1_565 S
C1599 C1600 1.524 . S
C1600 C1599 1.524 . S
C1600 C1601 1.397 . S
C1600 C1605 1.363 . S
C1601 H1572 0.950 . S
C1601 C1600 1.397 . S
C1601 C1602 1.334 . S
C1602 H1573 0.950 . S
C1602 C1601 1.334 . S
C1602 C1603 1.287 . S
C1603 C1602 1.287 . S
C1603 C1604 1.524 . S
C1603 H1606 0.999 . S
C1604 H1574 0.950 . S
C1604 C1603 1.524 . S
C1604 C1605 1.415 . S
C1605 H1575 0.950 . S
C1605 C1600 1.363 . S
C1605 C1604 1.415 . S
H1606 C1603 0.999 . S
H1607 C1588 0.913 . S
H1608 C1626 0.951 . S
H1609 C1628 0.951 . S
H1610 C1630 0.950 . S
H1611 C1631 0.950 . S
H1612 C1633 0.950 . S
H1613 C1636 0.950 . S
H1614 C1637 0.950 . S
H1615 C1639 0.950 . S
H1616 C1640 0.950 . S
H1617 C1641 0.951 . S
H1618 C1643 0.951 . S
H1619 C1645 0.950 . S
H1620 C1646 0.950 . S
H1621 C1648 0.950 . S
H1622 C1651 0.950 . S
H1623 C1652 0.950 . S
H1624 C1654 0.950 . S
H1625 C1655 0.950 . S
C1626 H1608 0.951 . S
C1626 C1627 1.366 . S
C1626 C1628 1.388 . S
C1627 C1626 1.366 . S
C1627 C1631 1.385 . S
C1628 H1609 0.951 . S
C1628 C1626 1.388 . S
C1628 C1629 1.366 . S
C1629 C1628 1.366 . S
C1629 C1630 1.414 . S
C1629 C1632 1.499 . S
C1630 H1610 0.950 . S
C1630 C1629 1.414 . S
C1630 C1631 1.374 . S
C1631 H1611 0.950 . S
C1631 C1627 1.385 . S
C1631 C1630 1.374 . S
C1632 C1629 1.499 . S
C1632 C1633 1.373 . S
C1632 C1634 1.389 . S
C1633 H1612 0.950 . S
C1633 C1632 1.373 . S
C1633 C1649 1.377 . S
C1634 C1632 1.389 . S
C1634 C1635 1.524 . S
C1634 C1648 1.377 . S
C1635 C1634 1.524 . S
C1635 C1636 1.397 . S
C1635 C1640 1.363 . S
C1636 H1613 0.950 . S
C1636 C1635 1.397 . S
C1636 C1637 1.334 . S
C1637 H1614 0.950 . S
C1637 C1636 1.334 . S
C1637 C1638 1.287 . S
C1638 C1637 1.287 . S
C1638 C1639 1.524 . S
C1638 H1657 0.913 . S
C1639 H1615 0.950 . S
C1639 C1638 1.524 . S
C1639 C1640 1.415 . S
C1640 H1616 0.950 . S
C1640 C1635 1.363 . S
C1640 C1639 1.415 . S
C1641 H1617 0.951 . S
C1641 C1642 1.366 . S
C1641 C1643 1.388 . S
C1642 C1641 1.366 . S
C1642 C1646 1.385 . S
C1643 H1618 0.951 . S
C1643 C1641 1.388 . S
C1643 C1644 1.366 . S
C1644 C1643 1.366 . S
C1644 C1645 1.414 . S
C1644 C1647 1.499 . S
C1645 H1619 0.950 . S
C1645 C1644 1.414 . S
C1645 C1646 1.374 . S
C1646 H1620 0.950 . S
C1646 C1642 1.385 . S
C1646 C1645 1.374 . S
C1647 C1644 1.499 . S
C1647 C1648 1.373 . S
C1647 C1649 1.389 . S
C1648 H1621 0.950 . S
C1648 C1634 1.377 . S
C1648 C1647 1.373 . S
C1649 C1633 1.377 . S
C1649 C1647 1.389 . S
C1649 C1650 1.524 . S
C1650 C1649 1.524 . S
C1650 C1651 1.397 . S
C1650 C1655 1.363 . S
C1651 H1622 0.950 . S
C1651 C1650 1.397 . S
C1651 C1652 1.334 . S
C1652 H1623 0.950 . S
C1652 C1651 1.334 . S
C1652 C1653 1.287 . S
C1653 C1652 1.287 . S
C1653 C1654 1.524 . S
C1653 H1656 0.999 . S
C1654 H1624 0.950 . S
C1654 C1653 1.524 . S
C1654 C1655 1.415 . S
C1655 H1625 0.950 . S
C1655 C1650 1.363 . S
C1655 C1654 1.415 . S
H1656 C1653 0.999 . S
H1657 C1638 0.913 . S
H1658 C1676 0.951 . S
H1659 C1678 0.951 . S
H1660 C1680 0.950 . S
H1661 C1681 0.950 . S
H1662 C1683 0.950 . S
H1663 C1686 0.950 . S
H1664 C1687 0.950 . S
H1665 C1689 0.950 . S
H1666 C1690 0.950 . S
H1667 C1691 0.951 . S
H1668 C1693 0.951 . S
H1669 C1695 0.950 . S
H1670 C1696 0.950 . S
H1671 C1698 0.950 . S
H1672 C1701 0.950 . S
H1673 C1702 0.950 . S
H1674 C1704 0.950 . S
H1675 C1705 0.950 . S
C1676 H1658 0.951 . S
C1676 C1677 1.366 . S
C1676 C1678 1.388 . S
C1677 C1676 1.366 . S
C1677 C1681 1.385 . S
C1678 H1659 0.951 . S
C1678 C1676 1.388 . S
C1678 C1679 1.366 . S
C1679 C1678 1.366 . S
C1679 C1680 1.414 . S
C1679 C1682 1.499 . S
C1680 H1660 0.950 . S
C1680 C1679 1.414 . S
C1680 C1681 1.374 . S
C1681 H1661 0.950 . S
C1681 C1677 1.385 . S
C1681 C1680 1.374 . S
C1682 C1679 1.499 . S
C1682 C1683 1.373 . S
C1682 C1684 1.389 . S
C1683 H1662 0.950 . S
C1683 C1682 1.373 . S
C1683 C1699 1.377 . S
C1684 C1682 1.389 . S
C1684 C1685 1.524 . S
C1684 C1698 1.377 . S
C1685 C1684 1.524 . S
C1685 C1686 1.397 . S
C1685 C1690 1.363 . S
C1686 H1663 0.950 . S
C1686 C1685 1.397 . S
C1686 C1687 1.334 . S
C1687 H1664 0.950 . S
C1687 C1686 1.334 . S
C1687 C1688 1.287 . S
C1688 C1687 1.287 . S
C1688 C1689 1.524 . S
C1688 H1707 0.913 . S
C1689 H1665 0.950 . S
C1689 C1688 1.524 . S
C1689 C1690 1.415 . S
C1690 H1666 0.950 . S
C1690 C1685 1.363 . S
C1690 C1689 1.415 . S
C1691 H1667 0.951 . S
C1691 C1692 1.366 . S
C1691 C1693 1.388 . S
C1692 C1691 1.366 . S
C1692 C1696 1.385 . S
C1693 H1668 0.951 . S
C1693 C1691 1.388 . S
C1693 C1694 1.366 . S
C1694 C1693 1.366 . S
C1694 C1695 1.414 . S
C1694 C1697 1.499 . S
C1695 H1669 0.950 . S
C1695 C1694 1.414 . S
C1695 C1696 1.374 . S
C1696 H1670 0.950 . S
C1696 C1692 1.385 . S
C1696 C1695 1.374 . S
C1697 C1694 1.499 . S
C1697 C1698 1.373 . S
C1697 C1699 1.389 . S
C1698 H1671 0.950 . S
C1698 C1684 1.377 . S
C1698 C1697 1.373 . S
C1699 C1683 1.377 . S
C1699 C1697 1.389 . S
C1699 C1700 1.524 . S
C1700 C1699 1.524 . S
C1700 C1701 1.397 . S
C1700 C1705 1.363 . S
C1701 H1672 0.950 . S
C1701 C1700 1.397 . S
C1701 C1702 1.334 . S
C1702 H1673 0.950 . S
C1702 C1701 1.334 . S
C1702 C1703 1.287 . S
C1703 C1702 1.287 . S
C1703 C1704 1.524 . S
C1703 H1706 0.999 . S
C1704 H1674 0.950 . S
C1704 C1703 1.524 . S
C1704 C1705 1.415 . S
C1705 H1675 0.950 . S
C1705 C1700 1.363 . S
C1705 C1704 1.415 . S
H1706 C1703 0.999 . S
H1707 C1688 0.913 . S
H1708 C1726 0.951 . S
H1709 C1728 0.951 . S
H1710 C1730 0.950 . S
H1711 C1731 0.950 . S
H1712 C1733 0.950 . S
H1713 C1736 0.950 . S
H1714 C1737 0.950 . S
H1715 C1739 0.950 . S
H1716 C1740 0.950 . S
H1717 C1741 0.951 . S
H1718 C1743 0.951 . S
H1719 C1745 0.950 . S
H1720 C1746 0.950 . S
H1721 C1748 0.950 . S
H1722 C1751 0.950 . S
H1723 C1752 0.950 . S
H1724 C1754 0.950 . S
H1725 C1755 0.950 . S
C1726 H1708 0.951 . S
C1726 C1727 1.366 . S
C1726 C1728 1.388 . S
C1727 C1726 1.366 . S
C1727 C1731 1.385 . S
C1728 H1709 0.951 . S
C1728 C1726 1.388 . S
C1728 C1729 1.366 . S
C1729 C1728 1.366 . S
C1729 C1730 1.414 . S
C1729 C1732 1.499 . S
C1730 H1710 0.950 . S
C1730 C1729 1.414 . S
C1730 C1731 1.374 . S
C1731 H1711 0.950 . S
C1731 C1727 1.385 . S
C1731 C1730 1.374 . S
C1732 C1729 1.499 . S
C1732 C1733 1.373 . S
C1732 C1734 1.389 . S
C1733 H1712 0.950 . S
C1733 C1732 1.373 . S
C1733 C1749 1.377 . S
C1734 C1732 1.389 . S
C1734 C1735 1.524 . S
C1734 C1748 1.377 . S
C1735 C1734 1.524 . S
C1735 C1736 1.397 . S
C1735 C1740 1.363 . S
C1736 H1713 0.950 . S
C1736 C1735 1.397 . S
C1736 C1737 1.334 . S
C1737 H1714 0.950 . S
C1737 C1736 1.334 . S
C1737 C1738 1.287 . S
C1738 C1737 1.287 . S
C1738 C1739 1.524 . S
C1738 H1757 0.913 . S
C1739 H1715 0.950 . S
C1739 C1738 1.524 . S
C1739 C1740 1.415 . S
C1740 H1716 0.950 . S
C1740 C1735 1.363 . S
C1740 C1739 1.415 . S
C1741 H1717 0.951 . S
C1741 C1742 1.366 . S
C1741 C1743 1.388 . S
C1742 C1741 1.366 . S
C1742 C1746 1.385 . S
C1743 H1718 0.951 . S
C1743 C1741 1.388 . S
C1743 C1744 1.366 . S
C1744 C1743 1.366 . S
C1744 C1745 1.414 . S
C1744 C1747 1.499 . S
C1745 H1719 0.950 . S
C1745 C1744 1.414 . S
C1745 C1746 1.374 . S
C1746 H1720 0.950 . S
C1746 C1742 1.385 . S
C1746 C1745 1.374 . S
C1747 C1744 1.499 . S
C1747 C1748 1.373 . S
C1747 C1749 1.389 . S
C1748 H1721 0.950 . S
C1748 C1734 1.377 . S
C1748 C1747 1.373 . S
C1749 C1733 1.377 . S
C1749 C1747 1.389 . S
C1749 C1750 1.524 . S
C1750 C1749 1.524 . S
C1750 C1751 1.397 . S
C1750 C1755 1.363 . S
C1751 H1722 0.950 . S
C1751 C1750 1.397 . S
C1751 C1752 1.334 . S
C1752 H1723 0.950 . S
C1752 C1751 1.334 . S
C1752 C1753 1.287 . S
C1753 C1752 1.287 . S
C1753 C1754 1.524 . S
C1753 H1756 0.999 . S
C1754 H1724 0.950 . S
C1754 C1753 1.524 . S
C1754 C1755 1.415 . S
C1755 H1725 0.950 . S
C1755 C1750 1.363 . S
C1755 C1754 1.415 . S
H1756 C1753 0.999 . S
H1757 C1738 0.913 . S
H1758 C1776 0.951 . S
H1759 C1778 0.951 . S
H1760 C1780 0.950 . S
H1761 C1781 0.950 . S
H1762 C1783 0.950 . S
H1763 C1786 0.950 . S
H1764 C1787 0.950 . S
H1765 C1789 0.950 . S
H1766 C1790 0.950 . S
H1767 C1791 0.951 . S
H1768 C1793 0.951 . S
H1769 C1795 0.950 . S
H1770 C1796 0.950 . S
H1771 C1798 0.950 . S
H1772 C1801 0.950 . S
H1773 C1802 0.950 . S
H1774 C1804 0.950 . S
H1775 C1805 0.950 . S
C1776 H1758 0.951 . S
C1776 C1777 1.366 . S
C1776 C1778 1.388 . S
C1777 C1776 1.366 . S
C1777 C1781 1.385 . S
C1778 H1759 0.951 . S
C1778 C1776 1.388 . S
C1778 C1779 1.366 . S
C1779 C1778 1.366 . S
C1779 C1780 1.414 . S
C1779 C1782 1.499 . S
C1780 H1760 0.950 . S
C1780 C1779 1.414 . S
C1780 C1781 1.374 . S
C1781 H1761 0.950 . S
C1781 C1777 1.385 . S
C1781 C1780 1.374 . S
C1782 C1779 1.499 . S
C1782 C1783 1.373 . S
C1782 C1784 1.389 . S
C1783 H1762 0.950 . S
C1783 C1782 1.373 . S
C1783 C1799 1.377 . S
C1784 C1782 1.389 . S
C1784 C1785 1.524 . S
C1784 C1798 1.377 . S
C1785 C1784 1.524 . S
C1785 C1786 1.397 . S
C1785 C1790 1.363 . S
C1786 H1763 0.950 . S
C1786 C1785 1.397 . S
C1786 C1787 1.334 . S
C1787 H1764 0.950 . S
C1787 C1786 1.334 . S
C1787 C1788 1.287 . S
C1788 C1787 1.287 . S
C1788 C1789 1.524 . S
C1788 H1807 0.913 . S
C1789 H1765 0.950 . S
C1789 C1788 1.524 . S
C1789 C1790 1.415 . S
C1790 H1766 0.950 . S
C1790 C1785 1.363 . S
C1790 C1789 1.415 . S
C1791 H1767 0.951 . S
C1791 C1792 1.366 . S
C1791 C1793 1.388 . S
C1792 C1791 1.366 . S
C1792 C1796 1.385 . S
C1793 H1768 0.951 . S
C1793 C1791 1.388 . S
C1793 C1794 1.366 . S
C1794 C1793 1.366 . S
C1794 C1795 1.414 . S
C1794 C1797 1.499 . S
C1795 H1769 0.950 . S
C1795 C1794 1.414 . S
C1795 C1796 1.374 . S
C1796 H1770 0.950 . S
C1796 C1792 1.385 . S
C1796 C1795 1.374 . S
C1797 C1794 1.499 . S
C1797 C1798 1.373 . S
C1797 C1799 1.389 . S
C1798 H1771 0.950 . S
C1798 C1784 1.377 . S
C1798 C1797 1.373 . S
C1799 C1783 1.377 . S
C1799 C1797 1.389 . S
C1799 C1800 1.524 . S
C1800 C1799 1.524 . S
C1800 C1801 1.397 . S
C1800 C1805 1.363 . S
C1801 H1772 0.950 . S
C1801 C1800 1.397 . S
C1801 C1802 1.334 . S
C1802 H1773 0.950 . S
C1802 C1801 1.334 . S
C1802 C1803 1.287 . S
C1803 C1802 1.287 . S
C1803 C1804 1.524 . S
C1803 H1806 0.999 . S
C1804 H1774 0.950 . S
C1804 C1803 1.524 . S
C1804 C1805 1.415 . S
C1805 H1775 0.950 . S
C1805 C1800 1.363 . S
C1805 C1804 1.415 . S
H1806 C1803 0.999 . S
H1807 C1788 0.913 . S
C227 C4 1.302 . S
C242 C69 1.301 . S
C277 C62 1.301 . S
C292 C23 1.301 . S
C327 C30 1.302 . S
C342 C101 1.301 . S
C377 C82 1.302 . S
C392 C43 1.301 . S
C427 C179 1.301 . S
C442 C114 1.302 . S
C477 C160 1.301 . S
C492 C121 1.302 . S
C527 C205 1.302 . S
C542 C134 1.301 . S
C577 C153 1.301 . S
C592 C186 1.301 . S
C627 C18 1.514 . S
C642 C3 1.514 . S
C677 C29 1.514 . S
C692 C42 1.514 . S
C727 C57 1.514 . S
C742 C68 1.514 . S
C777 C81 1.514 . S
C792 C96 1.514 . S
C827 C109 1.514 . S
C842 C120 1.514 . S
C877 C148 1.514 . S
C892 C133 1.514 . S
C927 C174 1.514 . S
C942 C159 1.514 . S
C977 C185 1.514 . S
C992 C200 1.514 . S
C1027 C127 1.503 . S
C1042 C10 1.503 . S
C1077 C17 1.503 . S
C1092 C108 1.503 . S
C1127 C147 1.503 . S
C1142 C36 1.503 . S
C1177 C49 1.503 . S
C1192 C140 1.503 . S
C1227 C56 1.503 . S
C1242 C173 1.503 . S
C1277 C166 1.503 . S
C1292 C75 1.503 . S
C1327 C88 1.503 . S
C1342 C199 1.503 . S
C1377 C192 1.503 . S
C1392 C95 1.503 . S
C1427 C5 1.207 . S
C1442 C31 1.208 . S
C1477 C44 1.208 . S
C1492 C16 1.208 . S
C1527 C83 1.207 . S
C1542 C55 1.208 . S
C1577 C94 1.208 . S
C1592 C70 1.208 . S
C1627 C135 1.207 . S
C1642 C107 1.208 . S
C1677 C122 1.208 . S
C1692 C146 1.207 . S
C1727 C187 1.208 . S
C1742 C161 1.207 . S
C1777 C172 1.208 . S
C1792 C198 1.208 . S
