# Generated by pormake.
# Topology lcy-e, (6)-cn, num edge types: 1
# Building blocks:
#     Node 0, Type 0, BuildingBlock: CUKXOW_clean_sbu_0, # of connection points: 6
#     Node 1, Type 0, BuildingBlock: CUKXOW_clean_sbu_0, # of connection points: 6
#     Node 2, Type 0, BuildingBlock: CUKXOW_clean_sbu_0, # of connection points: 6
#     Node 3, Type 0, BuildingBlock: CUKXOW_clean_sbu_0, # of connection points: 6
#     Node 4, Type 0, BuildingBlock: CUKXOW_clean_sbu_0, # of connection points: 6
#     Node 5, Type 0, BuildingBlock: CUKXOW_clean_sbu_0, # of connection points: 6
#     Node 6, Type 0, BuildingBlock: CUKXOW_clean_sbu_0, # of connection points: 6
#     Node 7, Type 0, BuildingBlock: CUKXOW_clean_sbu_0, # of connection points: 6
#     Node 8, Type 0, BuildingBlock: CUKXOW_clean_sbu_0, # of connection points: 6
#     Node 9, Type 0, BuildingBlock: CUKXOW_clean_sbu_0, # of connection points: 6
#     Node 10, Type 0, BuildingBlock: CUKXOW_clean_sbu_0, # of connection points: 6
#     Node 11, Type 0, BuildingBlock: CUKXOW_clean_sbu_0, # of connection points: 6
#     Edge 12, Type (0, 0), BuildingBlock: OJICUG_clean_linker_0, # of connection points: 2
#     Edge 13, Type (0, 0), BuildingBlock: OJICUG_clean_linker_0, # of connection points: 2
#     Edge 14, Type (0, 0), BuildingBlock: OJICUG_clean_linker_0, # of connection points: 2
#     Edge 15, Type (0, 0), BuildingBlock: OJICUG_clean_linker_0, # of connection points: 2
#     Edge 16, Type (0, 0), BuildingBlock: OJICUG_clean_linker_0, # of connection points: 2
#     Edge 17, Type (0, 0), BuildingBlock: OJICUG_clean_linker_0, # of connection points: 2
#     Edge 18, Type (0, 0), BuildingBlock: OJICUG_clean_linker_0, # of connection points: 2
#     Edge 19, Type (0, 0), BuildingBlock: OJICUG_clean_linker_0, # of connection points: 2
#     Edge 20, Type (0, 0), BuildingBlock: OJICUG_clean_linker_0, # of connection points: 2
#     Edge 21, Type (0, 0), BuildingBlock: OJICUG_clean_linker_0, # of connection points: 2
#     Edge 22, Type (0, 0), BuildingBlock: OJICUG_clean_linker_0, # of connection points: 2
#     Edge 23, Type (0, 0), BuildingBlock: OJICUG_clean_linker_0, # of connection points: 2
#     Edge 24, Type (0, 0), BuildingBlock: OJICUG_clean_linker_0, # of connection points: 2
#     Edge 25, Type (0, 0), BuildingBlock: OJICUG_clean_linker_0, # of connection points: 2
#     Edge 26, Type (0, 0), BuildingBlock: OJICUG_clean_linker_0, # of connection points: 2
#     Edge 27, Type (0, 0), BuildingBlock: OJICUG_clean_linker_0, # of connection points: 2
#     Edge 28, Type (0, 0), BuildingBlock: OJICUG_clean_linker_0, # of connection points: 2
#     Edge 29, Type (0, 0), BuildingBlock: OJICUG_clean_linker_0, # of connection points: 2
#     Edge 30, Type (0, 0), BuildingBlock: OJICUG_clean_linker_0, # of connection points: 2
#     Edge 31, Type (0, 0), BuildingBlock: OJICUG_clean_linker_0, # of connection points: 2
#     Edge 32, Type (0, 0), BuildingBlock: OJICUG_clean_linker_0, # of connection points: 2
#     Edge 33, Type (0, 0), BuildingBlock: OJICUG_clean_linker_0, # of connection points: 2
#     Edge 34, Type (0, 0), BuildingBlock: OJICUG_clean_linker_0, # of connection points: 2
#     Edge 35, Type (0, 0), BuildingBlock: OJICUG_clean_linker_0, # of connection points: 2
#     Edge 36, Type (0, 0), BuildingBlock: OJICUG_clean_linker_0, # of connection points: 2
#     Edge 37, Type (0, 0), BuildingBlock: OJICUG_clean_linker_0, # of connection points: 2
#     Edge 38, Type (0, 0), BuildingBlock: OJICUG_clean_linker_0, # of connection points: 2
#     Edge 39, Type (0, 0), BuildingBlock: OJICUG_clean_linker_0, # of connection points: 2
#     Edge 40, Type (0, 0), BuildingBlock: OJICUG_clean_linker_0, # of connection points: 2
#     Edge 41, Type (0, 0), BuildingBlock: OJICUG_clean_linker_0, # of connection points: 2
#     Edge 42, Type (0, 0), BuildingBlock: OJICUG_clean_linker_0, # of connection points: 2
#     Edge 43, Type (0, 0), BuildingBlock: OJICUG_clean_linker_0, # of connection points: 2
#     Edge 44, Type (0, 0), BuildingBlock: OJICUG_clean_linker_0, # of connection points: 2
#     Edge 45, Type (0, 0), BuildingBlock: OJICUG_clean_linker_0, # of connection points: 2
#     Edge 46, Type (0, 0), BuildingBlock: OJICUG_clean_linker_0, # of connection points: 2
#     Edge 47, Type (0, 0), BuildingBlock: OJICUG_clean_linker_0, # of connection points: 2
# Relax obj value: 0.172
# Max RMSD: 0.264
# Mean RMSD: 0.228
data_MOF--net-lcy-e--node1-CUKXOW_clean_sbu_0--edge1-OJICUG_clean_linker_0
_symmetry_space_group_name_H-M    P1
_symmetry_Int_Tables_number       1
_symmetry_cell_setting            triclinic
loop_
_symmetry_equiv_pos_as_xyz
'x, y, z'
_cell_length_a     25.206126
_cell_length_b     27.694962
_cell_length_c     28.05749
_cell_angle_alpha  89.414025
_cell_angle_beta   92.018236
_cell_angle_gamma 88.085769
loop_
_atom_site_label
_atom_site_type_symbol
_atom_site_fract_x
_atom_site_fract_y
_atom_site_fract_z
_atom_type_partial_charge
Tb0 Tb 0.18051 0.1943 0.42058 0.0
C1 C 0.0754 0.13226 0.3968 0.0
Tb2 Tb 0.07293 0.21883 0.46525 0.0
O3 O 0.21356 0.16303 0.48764 0.0
O4 O 0.13285 0.16378 0.47132 0.0
O5 O 0.12483 0.14315 0.38512 0.0
C6 C 1.00268 0.22607 0.5326 0.0
O7 O 0.04938 0.15404 0.43095 0.0
C8 C 0.08724 0.25239 0.38003 0.0
C9 C 0.16841 0.29006 0.48219 0.0
O10 O 1.00082 0.25141 0.49319 0.0
O11 O 0.04393 0.19681 0.53347 0.0
O12 O 0.04002 0.24275 0.39443 0.0
O13 O 0.12034 0.24727 0.41389 0.0
O14 O 0.12339 0.27336 0.49826 0.0
O15 O 0.19464 0.26759 0.44778 0.0
C16 C 0.25477 0.18033 0.35664 0.0
O17 O 0.26432 0.18631 0.40191 0.0
O18 O 0.20396 0.18128 0.34795 0.0
C19 C 0.16704 0.15499 0.5039 0.0
Tb20 Tb 0.12371 0.94082 0.70911 0.0
C21 C 0.16223 0.83262 0.68284 0.0
Tb22 Tb 0.0929 0.85612 0.76911 0.0
O23 O 0.17767 0.96385 0.76734 0.0
O24 O 0.16421 0.89166 0.75654 0.0
O25 O 0.15265 0.87779 0.66638 0.0
C26 C 0.09467 0.79837 0.84488 0.0
O27 O 0.1492 0.81899 0.72606 0.0
C28 C 0.0357 0.87228 0.69074 0.0
C29 C 0.03679 0.95921 0.78768 0.0
O30 O 0.06515 0.79281 0.80642 0.0
O31 O 0.12195 0.83698 0.84093 0.0
O32 O 0.04345 0.82904 0.70902 0.0
O33 O 0.05513 0.90247 0.71862 0.0
O34 O 0.04954 0.9151 0.80465 0.0
O35 O 0.05821 0.97593 0.74817 0.0
C36 C 0.13997 1.00726 0.64325 0.0
O37 O 0.16569 1.00303 0.68382 0.0
O38 O 0.10557 0.97368 0.63922 0.0
C39 C 0.18858 0.92038 0.78313 0.0
Tb40 Tb 0.47289 0.83212 0.96366 0.0
C41 C 0.36831 0.85109 0.8962 0.0
Tb42 Tb 0.36918 0.78338 0.98622 0.0
O43 O 0.48327 0.79214 0.89878 0.0
O44 O 0.4412 0.76205 0.95368 0.0
O45 O 0.41423 0.86933 0.91234 0.0
C46 C 0.28471 0.72819 0.98376 0.0
O47 O 0.34642 0.81443 0.91761 0.0
C48 C 0.38511 0.86839 0.02476 0.0
C49 C 0.46291 0.76721 0.06086 0.0
O50 O 0.28957 0.76676 1.00915 0.0
O51 O 0.32757 0.72072 0.96048 0.0
O52 O 0.35765 0.83547 0.04486 0.0
O53 O 0.39772 0.85385 0.9848 0.0
O54 O 0.41941 0.74887 0.0415 0.0
O55 O 0.48944 0.80127 0.03789 0.0
C56 C 0.55717 0.88816 0.95463 0.0
O57 O 0.5523 0.84521 0.93746 0.0
O58 O 0.51504 0.89918 0.97814 0.0
C59 C 0.45228 0.75768 0.90974 0.0
Tb60 Tb 0.4586 0.1406 0.13296 0.0
C61 C 0.41653 0.24886 0.12714 0.0
Tb62 Tb 0.50545 0.21014 0.20323 0.0
O63 O 0.382 0.15196 0.16307 0.0
O64 O 0.451 0.15402 0.20704 0.0
O65 O 0.41899 0.20698 0.10372 0.0
C66 C 0.52179 0.26146 0.28286 0.0
O67 O 0.44501 0.25687 0.16701 0.0
C68 C 0.56133 0.19771 0.12591 0.0
C69 C 0.55231 0.10601 0.20248 0.0
O70 O 0.55395 0.2574 0.24784 0.0
O71 O 0.47927 0.23844 0.27186 0.0
O72 O 0.58141 0.20956 0.16731 0.0
O73 O 0.51146 0.19805 0.1282 0.0
O74 O 0.53834 0.14172 0.23068 0.0
O75 O 0.53295 0.10364 0.15819 0.0
C76 C 0.43042 0.0588 0.09203 0.0
O77 O 0.4305 0.06801 0.13701 0.0
O78 O 0.44667 0.09637 0.06857 0.0
C79 C 0.40095 0.15983 0.20555 0.0
Tb80 Tb 0.61022 0.35155 0.57451 0.0
C81 C 0.72521 0.37583 0.62113 0.0
Tb82 Tb 0.71064 0.31154 0.53121 0.0
O83 O 0.59535 0.27964 0.60401 0.0
O84 O 0.67167 0.30164 0.59673 0.0
O85 O 0.67326 0.38805 0.61725 0.0
C86 C 0.76109 0.22878 0.50931 0.0
O87 O 0.74764 0.34289 0.5934 0.0
C88 C 0.68054 0.39943 0.50083 0.0
C89 C 0.59974 0.29865 0.47433 0.0
O90 O 0.77988 0.27173 0.50191 0.0
O91 O 0.71576 0.23351 0.52939 0.0
O92 O 0.72959 0.38235 0.49883 0.0
O93 O 0.65232 0.36501 0.513 0.0
O94 O 0.65113 0.28724 0.47918 0.0
O95 O 0.57487 0.32533 0.50648 0.0
C96 C 0.52878 0.405 0.60486 0.0
O97 O 0.53861 0.36003 0.61587 0.0
O98 O 0.56543 0.42032 0.57775 0.0
C99 C 0.64509 0.26691 0.6111 0.0
Tb100 Tb 0.92817 0.44977 0.85091 0.0
C101 C 0.88421 0.34419 0.86127 0.0
Tb102 Tb 0.96319 0.36693 0.78447 0.0
O103 O 0.8462 0.45162 0.82035 0.0
O104 O 0.90979 0.42775 0.78079 0.0
O105 O 0.90033 0.38252 0.88601 0.0
C106 C 0.96892 0.31494 0.70641 0.0
O107 O 0.89251 0.34114 0.81526 0.0
C108 C 1.012 0.36874 0.86855 0.0
C109 C 0.02536 0.46376 0.77795 0.0
O110 O 0.97331 0.29729 0.74941 0.0
O111 O 0.96429 0.36156 0.70748 0.0
O112 O 1.00936 0.32934 0.84383 0.0
O113 O 0.99381 0.40303 0.84318 0.0
O114 O 1.01971 0.41895 0.76244 0.0
O115 O 0.99535 0.48283 0.81233 0.0
C116 C 0.91894 0.5227 0.91135 0.0
O117 O 0.90687 0.52503 0.86604 0.0
O118 O 0.93621 0.47919 0.92287 0.0
C119 C 0.85989 0.43189 0.78078 0.0
Tb120 Tb 0.85965 0.70094 0.13514 0.0
C121 C 0.96694 0.63451 0.15797 0.0
Tb122 Tb 0.97148 0.72903 0.0957 0.0
O123 O 0.83519 0.68113 0.06195 0.0
O124 O 0.91348 0.67642 0.08468 0.0
O125 O 0.91444 0.64157 0.16386 0.0
C126 C 0.0326 0.72918 0.02132 0.0
O127 O 0.99608 0.66321 0.1321 0.0
C128 C 0.95335 0.7678 0.17866 0.0
C129 C 0.87423 0.80504 0.08808 0.0
O130 O 0.0491 0.73918 0.06464 0.0
O131 O 0.98235 0.72081 0.0204 0.0
O132 O 0.9978 0.77352 0.15677 0.0
O133 O 0.92434 0.74247 0.15252 0.0
O134 O 0.91986 0.78934 0.07042 0.0
O135 O 0.84618 0.77855 0.11767 0.0
C136 C 0.77377 0.67497 0.18136 0.0
O137 O 0.77587 0.68307 0.13594 0.0
O138 O 0.82025 0.68211 0.20135 0.0
C139 C 0.88319 0.67153 0.04891 0.0
Tb140 Tb 0.57845 0.67829 0.35776 0.0
C141 C 0.58654 0.57205 0.40374 0.0
Tb142 Tb 0.50008 0.60391 0.32325 0.0
O143 O 0.54672 0.68168 0.42829 0.0
O144 O 0.49589 0.66499 0.37052 0.0
O145 O 0.61349 0.61169 0.39348 0.0
C146 C 0.4166 0.54734 0.3075 0.0
O147 O 0.53795 0.5655 0.385 0.0
C148 C 0.58859 0.60898 0.27532 0.0
C149 C 0.5089 0.6966 0.25917 0.0
O150 O 0.46621 0.53418 0.30342 0.0
O151 O 0.41448 0.5918 0.32177 0.0
O152 O 0.54394 0.59536 0.25616 0.0
O153 O 0.58189 0.61485 0.31873 0.0
O154 O 0.47702 0.66252 0.27338 0.0
O155 O 0.5524 0.70695 0.28519 0.0
C156 C 0.64769 0.74928 0.3698 0.0
O157 O 0.59636 0.75493 0.36726 0.0
O158 O 0.65999 0.70351 0.36584 0.0
C159 C 0.49998 0.66716 0.41613 0.0
Tb160 Tb 0.16595 0.39096 0.14907 0.0
C161 C 0.11917 0.40664 0.04799 0.0
Tb162 Tb 0.19445 0.47885 0.09799 0.0
O163 O 0.08467 0.41972 0.15835 0.0
O164 O 0.14753 0.46572 0.15746 0.0
O165 O 0.14092 0.37262 0.07654 0.0
C166 C 0.19253 0.56099 0.04786 0.0
O167 O 0.12716 0.45265 0.0566 0.0
C168 C 0.26507 0.40706 0.09332 0.0
C169 C 0.24734 0.46374 0.19832 0.0
O170 O 0.21165 0.51972 0.03389 0.0
O171 O 0.17558 0.5563 0.09067 0.0
O172 O 0.2769 0.45232 0.09387 0.0
O173 O 0.21531 0.40376 0.0915 0.0
O174 O 0.23275 0.4964 0.16528 0.0
O175 O 0.22981 0.41877 0.19722 0.0
C176 C 0.15257 0.30968 0.19794 0.0
O177 O 0.19714 0.33142 0.1943 0.0
O178 O 0.1166 0.33292 0.17219 0.0
C179 C 0.0979 0.46422 0.15866 0.0
Tb180 Tb 0.73938 0.11416 0.86788 0.0
C181 C 0.69337 0.14444 0.97148 0.0
Tb182 Tb 0.79006 0.07245 0.96299 0.0
O183 O 0.70972 0.04176 0.85218 0.0
O184 O 0.71944 0.06473 0.92147 0.0
O185 O 0.69288 0.15269 0.92398 0.0
C186 C 0.8125 0.99907 0.02454 0.0
O187 O 0.72576 0.1123 0.99387 0.0
C188 C 0.82002 0.15906 0.93825 0.0
C189 C 0.84474 0.0477 0.86506 0.0
O190 O 0.84476 0.0332 1.014 0.0
O191 O 0.7674 1.00787 1.00201 0.0
O192 O 0.82224 0.14327 0.98247 0.0
O193 O 0.80816 0.12448 0.91121 0.0
O194 O 0.83542 0.03416 0.90936 0.0
O195 O 0.81526 0.0825 0.84259 0.0
C196 C 0.70406 0.16468 0.78904 0.0
O197 O 0.68959 0.12203 0.80161 0.0
O198 O 0.73716 0.1796 0.82182 0.0
C199 C 0.70703 0.02915 0.89671 0.0
Tb200 Tb 0.88704 0.94306 0.42735 0.0
C201 C 0.88523 0.88406 0.33291 0.0
Tb202 Tb 0.80967 0.97514 0.34553 0.0
O203 O 0.8441 0.878 0.44117 0.0
O204 O 0.80382 0.93794 0.4116 0.0
O205 O 0.91663 0.89957 0.3685 0.0
C206 C 0.72243 0.99044 0.28951 0.0
O207 O 0.83787 0.90455 0.32189 0.0
C208 C 0.90176 1.01838 0.34667 0.0
C209 C 0.82517 0.04387 0.43197 0.0
O210 O 0.77096 0.99103 0.27524 0.0
O211 O 0.72359 0.97962 0.33457 0.0
O212 O 0.85819 0.03705 0.32708 0.0
O213 O 0.89314 0.97596 0.35974 0.0
O214 O 0.79098 0.02838 0.39918 0.0
O215 O 0.86985 1.01939 0.44398 0.0
C216 C 0.94996 0.9299 0.50529 0.0
O217 O 0.90657 0.95627 0.50221 0.0
O218 O 0.95947 0.912 0.46364 0.0
C219 C 0.79987 0.89343 0.4211 0.0
Tb220 Tb 0.31119 0.60872 0.6745 0.0
C221 C 0.34783 0.62505 0.56312 0.0
Tb222 Tb 0.25385 0.56026 0.58841 0.0
O223 O 0.34883 0.53875 0.69553 0.0
O224 O 0.32825 0.55355 0.62589 0.0
O225 O 0.35215 0.63809 0.60965 0.0
C226 C 0.22466 0.48386 0.53703 0.0
O227 O 0.31366 0.59292 0.54755 0.0
C228 C 0.22348 0.65011 0.60585 0.0
C229 C 0.20935 0.54757 0.69074 0.0
O230 O 0.1924 0.51716 0.55312 0.0
O231 O 0.27307 0.49526 0.54779 0.0
O232 O 0.2163 0.63048 0.56399 0.0
O233 O 0.23919 0.61768 0.63517 0.0
O234 O 0.22194 0.52581 0.65078 0.0
O235 O 0.23428 0.58727 0.70423 0.0
C236 C 0.35216 0.65798 0.7495 0.0
O237 O 0.33371 0.61496 0.75069 0.0
O238 O 0.34799 0.67371 0.70544 0.0
C239 C 0.3466 0.52067 0.65324 0.0
C240 C 0.23429 0.35665 0.48777 0.0
C241 C 0.18367 0.33945 0.49667 0.0
H242 H 0.28694 0.41593 0.49362 0.0
C243 C 0.14603 0.37119 0.51689 0.0
H244 H 0.26408 0.33338 0.47196 0.0
C245 C 0.15862 0.41876 0.52796 0.0
C246 C 0.20944 0.4356 0.51987 0.0
H247 H 0.10638 0.35953 0.52372 0.0
H248 H 0.12893 0.44197 0.54402 0.0
C249 C 0.24722 0.40405 0.49978 0.0
C250 C 0.91439 0.04362 0.80113 0.0
C251 C 0.89343 0.02578 0.8435 0.0
H252 H 0.97652 0.03746 0.75049 0.0
C253 C 0.92182 0.98782 0.86793 0.0
H254 H 0.89411 0.0731 0.78156 0.0
C255 C 0.96907 0.96804 0.85069 0.0
C256 C 0.98998 0.98528 0.80822 0.0
H257 H 0.9076 0.97296 0.90079 0.0
H258 H 0.98886 0.93852 0.8706 0.0
C259 C 0.96212 0.0236 0.78369 0.0
C260 C 0.2484 0.64909 0.96362 0.0
C261 C 0.24556 0.69121 0.99082 0.0
H262 H 0.23255 0.57389 0.96063 0.0
C263 C 0.21359 0.69291 0.03074 0.0
H264 H 0.2722 0.64731 0.93221 0.0
C265 C 0.19103 0.65077 0.04713 0.0
C266 C 0.20038 0.60704 0.02352 0.0
H267 H 0.21035 0.72533 0.05186 0.0
H268 H 0.17058 0.65158 0.08046 0.0
C269 C 0.22586 0.60711 0.97992 0.0
C270 C 0.63479 0.054 0.19406 0.0
C271 C 0.59171 0.06947 0.22119 0.0
H272 H 0.71109 1.0167 0.19476 0.0
C273 C 0.58919 0.05354 0.26861 0.0
H274 H 0.63761 0.06612 0.15743 0.0
C275 C 0.6301 0.02448 0.2894 0.0
C276 C 0.67518 1.01188 0.2636 0.0
H277 H 0.5562 0.06481 0.29012 0.0
H278 H 0.62778 1.01431 0.32664 0.0
C279 C 0.67669 0.02582 0.21536 0.0
C280 C 0.83399 0.17208 0.47955 0.0
C281 C 0.78093 0.18154 0.49146 0.0
H282 H 0.89045 0.11977 0.45244 0.0
C283 C 0.74424 0.1447 0.48576 0.0
H284 H 0.86309 0.19976 0.48373 0.0
C285 C 0.75937 0.10005 0.46731 0.0
C286 C 0.812 0.09029 0.45518 0.0
H287 H 0.70302 0.15071 0.49446 0.0
H288 H 0.7296 0.07304 0.46229 0.0
C289 C 0.84962 0.12635 0.46209 0.0
C290 C 0.08817 0.47395 0.71252 0.0
C291 C 0.0697 0.49041 0.75637 0.0
H292 H 0.14503 0.47771 0.65898 0.0
C293 C 0.09713 0.52797 0.77907 0.0
H294 H 0.06824 0.44566 0.69327 0.0
C295 C 0.14274 0.54731 0.75858 0.0
C296 C 0.16175 0.52917 0.71523 0.0
H297 H 0.08429 0.54143 0.81303 0.0
H298 H 0.16333 0.57583 0.77683 0.0
C299 C 0.13305 0.49257 0.69266 0.0
C300 C 0.78891 0.91852 0.05865 0.0
C301 C 0.82779 0.95192 0.04762 0.0
H302 H 0.77284 0.84593 0.08088 0.0
C303 C 0.88149 0.93744 0.05318 0.0
H304 H 0.7471 0.92862 0.05439 0.0
C305 C 0.89605 0.89001 0.06708 0.0
C306 C 0.85733 0.85599 0.07664 0.0
H307 H 0.91233 0.96212 0.04467 0.0
H308 H 0.93792 0.87978 0.06975 0.0
C309 C 0.80356 0.87115 0.07363 0.0
C310 C 0.37623 0.47382 0.27036 0.0
C311 C 0.3703 0.52092 0.28834 0.0
H312 H 0.34076 0.41776 0.22852 0.0
C313 C 0.32069 0.54529 0.28249 0.0
H314 H 0.41407 0.45422 0.27423 0.0
C315 C 0.27934 0.5248 0.25597 0.0
C316 C 0.28609 0.47897 0.23563 0.0
H317 H 0.31479 0.58157 0.29585 0.0
H318 H 0.24274 0.54585 0.24939 0.0
C319 C 0.33423 0.45281 0.24451 0.0
C320 C 0.58951 0.29197 0.34019 0.0
C321 C 0.53745 0.2775 0.33136 0.0
H322 H 0.64938 0.30951 0.39197 0.0
C323 C 0.50366 0.27297 0.37009 0.0
H324 H 0.61646 0.29589 0.31126 0.0
C325 C 0.52262 0.28114 0.41707 0.0
C326 C 0.57586 0.29279 0.42578 0.0
H327 H 0.46327 0.26161 0.36421 0.0
H328 H 0.49648 0.27653 0.44648 0.0
C329 C 0.6085 0.29922 0.38667 0.0
C330 C 0.99017 0.21593 0.61881 0.0
C331 C 0.97699 0.24098 0.576 0.0
H332 H 0.99831 0.22061 0.69486 0.0
C333 C 0.9515 0.28661 0.57716 0.0
H334 H 1.00948 0.18037 0.61854 0.0
C335 C 0.94631 0.30981 0.62049 0.0
C336 C 0.96568 0.28709 0.6628 0.0
H337 H 0.94054 0.30633 0.54454 0.0
H338 H 0.93002 0.34652 0.62058 0.0
C339 C 0.98441 0.23899 0.66227 0.0
C340 C 0.05447 0.73358 0.89132 0.0
C341 C 0.09071 0.77064 0.88921 0.0
H342 H 1.00855 0.69013 0.93639 0.0
C343 C 0.11734 0.78544 0.93118 0.0
H344 H 0.03422 0.72101 0.85932 0.0
C345 C 0.10279 0.76762 0.97543 0.0
C346 C 0.06153 0.73515 0.97758 0.0
H347 H 0.14621 0.81352 0.93013 0.0
H348 H 0.12011 0.7826 1.00769 0.0
C349 C 0.03996 0.71589 0.93536 0.0
C350 C 0.45328 0.70374 0.18248 0.0
C351 C 0.49803 0.71821 0.2095 0.0
H352 H 0.40831 0.70632 0.11678 0.0
C353 C 0.53281 0.74947 0.18658 0.0
H354 H 0.42533 0.67964 0.19777 0.0
C355 C 0.52268 0.76551 0.13851 0.0
C356 C 0.47785 0.75024 0.11162 0.0
H357 H 0.56815 0.76118 0.20557 0.0
H358 H 0.55002 0.78968 0.12247 0.0
C359 C 0.44362 0.71909 0.13503 0.0
C360 C 0.15621 0.27456 0.32505 0.0
C361 C 0.10348 0.26173 0.33142 0.0
H362 H 0.21461 0.29523 0.27671 0.0
C363 C 0.06893 0.25731 0.29168 0.0
H364 H 0.18378 0.27844 0.35509 0.0
C365 C 0.0866 0.2682 0.24622 0.0
C366 C 0.13902 0.28277 0.2405 0.0
H367 H 0.02826 0.24703 0.29589 0.0
H368 H 0.05858 0.26801 0.21605 0.0
C369 C 0.17425 0.2836 0.27997 0.0
C370 C 1.01935 0.8545 0.60384 0.0
C371 C 1.01388 0.88545 0.64281 0.0
H372 H 1.00498 0.84525 0.52846 0.0
C373 C 0.99046 0.93173 0.63542 0.0
H374 H 0.03811 0.81894 0.60867 0.0
C375 C 0.97155 0.94655 0.59016 0.0
C376 C 0.97668 0.91581 0.5511 0.0
H377 H 0.98624 0.95642 0.66487 0.0
H378 H 0.95236 0.982 0.5858 0.0
C379 C 1.00132 0.86983 0.55803 0.0
C380 C 0.3977 0.7288 0.78557 0.0
C381 C 0.37506 0.68379 0.79158 0.0
H382 H 0.43885 0.78679 0.81779 0.0
C383 C 0.37562 0.66334 0.83802 0.0
H384 H 0.39782 0.74573 0.7506 0.0
C385 C 0.39919 0.68718 0.87731 0.0
C386 C 0.42277 0.73192 0.87087 0.0
H387 H 0.35843 0.62855 0.8439 0.0
H388 H 0.40031 0.67002 0.91218 0.0
C389 C 0.42137 0.75226 0.82442 0.0
C390 C 0.56954 0.17388 0.03934 0.0
C391 C 0.59238 0.19132 0.08212 0.0
H392 H 0.58384 0.14617 0.96915 0.0
C393 C 0.64675 0.20081 0.08384 0.0
H394 H 0.52767 0.16628 0.03696 0.0
C395 C 0.67827 0.1904 0.04501 0.0
C396 C 0.65646 0.17016 1.00329 0.0
H397 H 0.66557 0.21453 0.11601 0.0
H398 H 0.7207 0.19527 0.04877 0.0
C399 C 0.60144 0.16315 1.00023 0.0
C400 C 0.63182 0.19984 0.67099 0.0
C401 C 0.66266 0.23743 0.65418 0.0
H402 H 0.62097 0.14702 0.72635 0.0
C403 C 0.70768 0.25015 0.68195 0.0
H404 H 0.59676 0.18933 0.65077 0.0
C405 C 0.72049 0.2271 0.72589 0.0
C406 C 0.68946 0.1898 0.74284 0.0
H407 H 0.73226 0.27907 0.67053 0.0
H408 H 0.75494 0.2384 0.74655 0.0
C409 C 0.64548 0.17587 0.71447 0.0
C410 C 0.08178 0.34672 0.98944 0.0
C411 C 0.08979 0.39469 1.0035 0.0
H412 H 0.05024 0.30029 0.93486 0.0
C413 C 0.07158 0.43271 0.97312 0.0
H414 H 0.09564 0.3167 1.01214 0.0
C415 C 0.04694 0.42336 0.92952 0.0
C416 C 0.03871 0.3758 0.91519 0.0
H417 H 0.07713 0.47012 0.9824 0.0
H418 H 0.03497 0.45381 0.90666 0.0
C419 C 0.05617 0.33729 0.94535 0.0
C420 C 0.86868 0.81893 0.27476 0.0
C421 C 0.90508 0.84715 0.30013 0.0
H422 H 0.85582 0.77113 0.21652 0.0
C423 C 0.95891 0.84441 0.28892 0.0
H424 H 0.82697 0.8202 0.283 0.0
C425 C 0.97528 0.81666 0.2504 0.0
C426 C 0.93815 0.79084 0.22329 0.0
H427 H 0.98763 0.86607 0.30782 0.0
H428 H 1.01647 0.817 0.24065 0.0
C429 C 0.88516 0.79079 0.2368 0.0
C430 C 0.37086 0.63665 0.47668 0.0
C431 C 0.38452 0.6425 0.52578 0.0
H432 H 0.39529 0.63971 0.40383 0.0
C433 C 0.43519 0.65919 0.53745 0.0
H434 H 0.33211 0.62402 0.46583 0.0
C435 C 0.47152 0.66782 0.50148 0.0
C436 C 0.45844 0.66033 0.45261 0.0
H437 H 0.44763 0.66371 0.57443 0.0
H438 H 0.5107 0.67947 0.51227 0.0
C439 C 0.40713 0.64546 0.44072 0.0
C440 C 0.34876 0.16951 0.33041 0.0
C441 C 0.29418 0.17676 0.31951 0.0
H442 H 0.42653 0.15782 0.3023 0.0
C443 C 0.2763 0.18095 0.27182 0.0
H444 H 0.36332 0.16647 0.36714 0.0
C445 C 0.31192 0.17699 0.23544 0.0
C446 C 0.36626 0.16814 0.2458 0.0
H447 H 0.23453 0.18714 0.26242 0.0
H448 H 0.29652 0.18011 0.19895 0.0
C449 C 0.38478 0.1649 0.29356 0.0
C450 C 0.19779 0.11114 0.57797 0.0
C451 C 0.15862 0.12014 0.54206 0.0
H452 H 0.22217 0.06778 0.63902 0.0
C453 C 0.11282 0.09257 0.54029 0.0
H454 H 0.23342 0.13198 0.57971 0.0
C455 C 0.10704 0.05542 0.57315 0.0
C456 C 0.14645 0.04605 0.60869 0.0
H457 H 0.08219 0.0986 0.51263 0.0
H458 H 0.07178 0.0341 0.57075 0.0
C459 C 0.19147 0.07449 0.61152 0.0
C460 C 0.2602 0.85883 0.80295 0.0
C461 C 0.23943 0.906 0.80842 0.0
H462 H 0.31959 0.80576 0.82444 0.0
C463 C 0.26833 0.93833 0.83684 0.0
H464 H 0.2396 0.83312 0.78089 0.0
C465 C 0.31518 0.9224 0.86202 0.0
C466 C 0.3339 0.87422 0.85834 0.0
H467 H 0.2535 0.97511 0.84123 0.0
H468 H 0.3343 0.94651 0.88692 0.0
C469 C 0.30688 0.84335 0.82719 0.0
C470 C 0.42218 0.99967 0.02529 0.0
C471 C 0.41598 1.01139 0.07317 0.0
H472 H 0.41645 0.94494 0.97235 0.0
C473 C 0.39739 0.97634 0.10473 0.0
H474 H 0.43629 0.02601 1.00033 0.0
C475 C 0.38634 0.92998 0.08897 0.0
C476 C 0.39394 0.9178 0.04145 0.0
H477 H 0.39203 0.9845 0.14196 0.0
H478 H 0.37292 0.90348 0.11412 0.0
C479 C 0.41114 0.9532 1.00954 0.0
C480 C 0.8371 0.37832 0.71367 0.0
C481 C 0.82344 0.4181 0.7413 0.0
H482 H 0.81817 0.33448 0.65442 0.0
C483 C 0.77559 0.44415 0.73036 0.0
H484 H 0.87138 0.35575 0.72324 0.0
C485 C 0.74305 0.43119 0.69102 0.0
C486 C 0.75832 0.39217 0.66223 0.0
H487 H 0.76382 0.47482 0.75168 0.0
H488 H 0.70648 0.45175 0.683 0.0
C489 C 0.80564 0.36583 0.67445 0.0
C490 C 0.94317 0.56361 0.98715 0.0
C491 C 0.91226 0.56285 0.94472 0.0
H492 H 0.95935 0.59986 0.05264 0.0
C493 C 0.87397 0.60004 0.93501 0.0
H494 H 0.97315 0.53546 0.99518 0.0
C495 C 0.865 0.63633 0.96845 0.0
C496 C 0.89545 0.63668 1.01122 0.0
H497 H 0.8497 0.60008 0.90236 0.0
H498 H 0.83396 0.66368 0.96122 0.0
C499 C 0.93543 0.60063 0.01979 0.0
C500 C 0.67915 0.64993 0.17881 0.0
C501 C 0.72643 0.65795 0.20537 0.0
H502 H 0.59826 0.62777 0.18006 0.0
C503 C 0.72821 0.64856 0.25461 0.0
H504 H 0.6767 0.65681 0.14071 0.0
C505 C 0.68352 0.63172 0.27689 0.0
C506 C 0.63616 0.62402 0.25046 0.0
H507 H 0.76413 0.65417 0.27589 0.0
H508 H 0.68606 0.62459 0.31494 0.0
C509 C 0.63439 0.63302 0.20115 0.0
C510 C 0.60271 0.45228 0.47204 0.0
C511 C 0.65807 0.44575 0.4788 0.0
H512 H 0.53735 0.49653 0.44451 0.0
C513 C 0.69028 0.48301 0.46309 0.0
H514 H 0.57642 0.42451 0.48314 0.0
C515 C 0.66751 0.52514 0.44047 0.0
C516 C 0.61199 0.53084 0.43272 0.0
H517 H 0.73306 0.4793 0.46764 0.0
H518 H 0.69348 0.55247 0.42778 0.0
C519 C 0.58016 0.49388 0.44953 0.0
C520 C 0.28941 0.31819 0.08943 0.0
C521 C 0.30437 0.36612 0.09682 0.0
H522 H 0.31402 0.24296 0.09182 0.0
C523 C 0.35749 0.37494 0.10945 0.0
H524 H 0.24864 0.31043 0.07968 0.0
C525 C 0.39443 0.33663 0.1167 0.0
C526 C 0.37945 0.2886 0.11062 0.0
H527 H 0.37018 0.41144 0.11546 0.0
H528 H 0.4346 0.34454 0.12843 0.0
C529 C 0.32685 0.27968 0.09585 0.0
C530 C 0.85916 0.2923 0.93318 0.0
C531 C 0.86296 0.29955 0.88361 0.0
H532 H 0.84201 0.24219 0.98984 0.0
C533 C 0.85146 0.26037 0.85354 0.0
H534 H 0.86833 0.32114 0.95758 0.0
C535 C 0.83866 0.21548 0.87186 0.0
C536 C 0.83446 0.20794 0.92091 0.0
H537 H 0.85404 0.26343 0.81518 0.0
H538 H 0.83318 0.18615 0.84719 0.0
C539 C 0.84461 0.24694 0.95165 0.0
C540 C 0.08269 0.54977 0.1821 0.0
C541 C 0.06175 0.50583 0.16771 0.0
H542 H 0.0675 0.62502 0.19324 0.0
C543 C 1.00648 0.50279 0.16009 0.0
H544 H 0.125 0.55291 0.18901 0.0
C545 C 0.97325 0.54433 0.16258 0.0
C546 C 0.99505 0.58912 0.17316 0.0
H547 H 0.98942 0.46905 0.1493 0.0
H548 H 0.9316 0.54216 0.15219 0.0
C549 C 0.04962 0.59086 0.18519 0.0
C550 C 0.77672 0.8111 0.3955 0.0
C551 C 0.76003 0.85945 0.40249 0.0
H552 H 0.75469 0.73901 0.37928 0.0
C553 C 0.70597 0.87234 0.39537 0.0
H554 H 0.81823 0.80001 0.40018 0.0
C555 C 0.66912 0.83676 0.38365 0.0
C556 C 0.68601 0.78805 0.37848 0.0
H557 H 0.69198 0.9092 0.40078 0.0
H558 H 0.62737 0.84713 0.37974 0.0
C559 C 0.74032 0.77598 0.38347 0.0
C560 C 0.45271 0.42143 0.65746 0.0
C561 C 0.48041 0.43249 0.61643 0.0
H562 H 0.38787 0.44152 0.70169 0.0
C563 C 0.46091 0.46946 0.58553 0.0
H564 H 0.46706 0.39266 0.68151 0.0
C565 C 0.41484 0.4958 0.59593 0.0
C566 C 0.38846 0.48657 0.63823 0.0
H567 H 0.48131 0.47804 0.55329 0.0
H568 H 0.40141 0.5249 0.57191 0.0
C569 C 0.40739 0.44892 0.66874 0.0
C570 C 0.18508 0.73559 0.59059 0.0
C571 C 0.21437 0.70136 0.61932 0.0
H572 H 0.14506 0.80596 0.58813 0.0
C573 C 0.23322 0.71532 0.66444 0.0
H574 H 0.16976 0.72571 0.55562 0.0
C575 C 0.22222 0.76125 0.68148 0.0
C576 C 0.18899 0.7942 0.65523 0.0
H577 H 0.25404 0.68968 0.68811 0.0
H578 H 0.23581 0.76935 0.71752 0.0
C579 C 0.17176 0.78174 0.60877 0.0
C580 C 0.62976 0.91397 0.90215 0.0
C581 C 0.59946 0.92172 0.94272 0.0
H582 H 0.68708 0.94239 0.85524 0.0
C583 C 0.60735 0.96349 0.96958 0.0
H584 H 0.62424 0.88217 0.8806 0.0
C585 C 0.6442 0.99725 0.95572 0.0
C586 C 0.67285 0.99056 0.91396 0.0
H587 H 0.58446 0.97043 1.00091 0.0
H588 H 0.64869 0.02956 0.97673 0.0
C589 C 0.66559 0.9484 0.88753 0.0
C590 C 0.95995 0.0869 0.32807 0.0
C591 C 0.95309 0.04262 0.35147 0.0
H592 H 1.00745 0.14935 0.32235 0.0
C593 C 0.99433 0.02351 0.38179 0.0
H594 H 0.92894 0.10235 0.30432 0.0
C595 C 0.03948 0.0504 0.39188 0.0
C596 C 0.04457 0.09622 0.37093 0.0
H597 H 0.99006 0.9894 0.40026 0.0
H598 H 0.06806 0.0373 0.41915 0.0
C599 C 1.00539 0.11336 0.33759 0.0
loop_
_geom_bond_atom_site_label_1
_geom_bond_atom_site_label_2
_geom_bond_distance
_geom_bond_site_symmetry_2
_ccdc_geom_bond_type
Tb0 O3 2.453 . S
Tb0 O4 2.596 . S
Tb0 O5 2.374 . S
Tb0 O13 2.343 . S
Tb0 O15 2.353 . S
Tb0 O17 2.427 . S
Tb0 O18 2.513 . S
C1 O5 1.251 . S
C1 O7 1.263 . S
Tb2 O4 2.343 . S
Tb2 O7 2.353 . S
Tb2 O10 2.427 . S
Tb2 O11 2.513 . S
Tb2 O12 2.453 . S
Tb2 O13 2.596 . S
Tb2 O14 2.374 . S
O3 Tb0 2.453 . S
O3 C19 1.245 . S
O4 Tb0 2.596 . S
O4 Tb2 2.343 . S
O4 C19 1.259 . S
O5 Tb0 2.374 . S
O5 C1 1.251 . S
C6 O10 1.275 . S
C6 O11 1.246 . S
O7 C1 1.263 . S
O7 Tb2 2.353 . S
C8 O12 1.245 . S
C8 O13 1.259 . S
C9 O14 1.250 . S
C9 O15 1.263 . S
O10 Tb2 2.427 . S
O10 C6 1.275 . S
O11 Tb2 2.513 . S
O11 C6 1.246 . S
O12 Tb2 2.453 . S
O12 C8 1.245 . S
O13 Tb0 2.343 . S
O13 Tb2 2.596 . S
O13 C8 1.259 . S
O14 Tb2 2.374 . S
O14 C9 1.250 . S
O15 Tb0 2.353 . S
O15 C9 1.263 . S
C16 O17 1.275 . S
C16 O18 1.246 . S
O17 Tb0 2.427 . S
O17 C16 1.275 . S
O18 Tb0 2.513 . S
O18 C16 1.246 . S
C19 O3 1.245 . S
C19 O4 1.259 . S
Tb20 O23 2.453 . S
Tb20 O24 2.596 . S
Tb20 O25 2.374 . S
Tb20 O33 2.343 . S
Tb20 O35 2.353 . S
Tb20 O37 2.427 . S
Tb20 O38 2.513 . S
C21 O25 1.251 . S
C21 O27 1.263 . S
Tb22 O24 2.343 . S
Tb22 O27 2.353 . S
Tb22 O30 2.427 . S
Tb22 O31 2.513 . S
Tb22 O32 2.453 1_455 S
Tb22 O33 2.596 . S
Tb22 O34 2.374 1_455 S
O23 Tb20 2.453 . S
O23 C39 1.245 . S
O24 Tb20 2.596 . S
O24 Tb22 2.343 . S
O24 C39 1.259 . S
O25 Tb20 2.374 . S
O25 C21 1.251 . S
C26 O30 1.275 . S
C26 O31 1.246 . S
O27 C21 1.263 . S
O27 Tb22 2.353 . S
C28 O32 1.245 1_455 S
C28 O33 1.259 . S
C29 O34 1.250 1_455 S
C29 O35 1.263 . S
O30 Tb22 2.427 . S
O30 C26 1.275 . S
O31 Tb22 2.513 . S
O31 C26 1.246 . S
O32 Tb22 2.453 1_655 S
O32 C28 1.245 1_655 S
O33 Tb20 2.343 . S
O33 Tb22 2.596 . S
O33 C28 1.259 . S
O34 Tb22 2.374 1_655 S
O34 C29 1.250 1_655 S
O35 Tb20 2.353 . S
O35 C29 1.263 . S
C36 O37 1.275 . S
C36 O38 1.246 . S
O37 Tb20 2.427 . S
O37 C36 1.275 . S
O38 Tb20 2.513 . S
O38 C36 1.246 . S
C39 O23 1.245 . S
C39 O24 1.259 . S
Tb40 O43 2.453 . S
Tb40 O44 2.596 . S
Tb40 O45 2.374 . S
Tb40 O53 2.343 . S
Tb40 O55 2.353 . S
Tb40 O57 2.427 . S
Tb40 O58 2.513 . S
C41 O45 1.251 . S
C41 O47 1.263 . S
Tb42 O44 2.343 . S
Tb42 O47 2.353 . S
Tb42 O50 2.427 . S
Tb42 O51 2.513 1_556 S
Tb42 O52 2.453 1_556 S
Tb42 O53 2.596 . S
Tb42 O54 2.374 1_556 S
O43 Tb40 2.453 . S
O43 C59 1.245 . S
O44 Tb40 2.596 . S
O44 Tb42 2.343 . S
O44 C59 1.259 . S
O45 Tb40 2.374 . S
O45 C41 1.251 . S
C46 O50 1.275 . S
C46 O51 1.246 1_556 S
O47 C41 1.263 . S
O47 Tb42 2.353 . S
C48 O52 1.245 . S
C48 O53 1.259 1_554 S
C49 O54 1.250 . S
C49 O55 1.263 1_554 S
O50 Tb42 2.427 . S
O50 C46 1.275 . S
O51 Tb42 2.513 1_554 S
O51 C46 1.246 1_554 S
O52 Tb42 2.453 1_554 S
O52 C48 1.245 . S
O53 Tb40 2.343 . S
O53 Tb42 2.596 . S
O53 C48 1.259 1_556 S
O54 Tb42 2.374 1_554 S
O54 C49 1.250 . S
O55 Tb40 2.353 . S
O55 C49 1.263 1_556 S
C56 O57 1.275 . S
C56 O58 1.246 . S
O57 Tb40 2.427 . S
O57 C56 1.275 . S
O58 Tb40 2.513 . S
O58 C56 1.246 . S
C59 O43 1.245 . S
C59 O44 1.259 . S
Tb60 O63 2.453 . S
Tb60 O64 2.596 . S
Tb60 O65 2.374 . S
Tb60 O73 2.343 . S
Tb60 O75 2.353 . S
Tb60 O77 2.427 . S
Tb60 O78 2.513 . S
C61 O65 1.251 . S
C61 O67 1.263 . S
Tb62 O64 2.343 . S
Tb62 O67 2.353 . S
Tb62 O70 2.427 . S
Tb62 O71 2.513 . S
Tb62 O72 2.453 . S
Tb62 O73 2.596 . S
Tb62 O74 2.374 . S
O63 Tb60 2.453 . S
O63 C79 1.245 . S
O64 Tb60 2.596 . S
O64 Tb62 2.343 . S
O64 C79 1.259 . S
O65 Tb60 2.374 . S
O65 C61 1.251 . S
C66 O70 1.275 . S
C66 O71 1.246 . S
O67 C61 1.263 . S
O67 Tb62 2.353 . S
C68 O72 1.245 . S
C68 O73 1.259 . S
C69 O74 1.250 . S
C69 O75 1.263 . S
O70 Tb62 2.427 . S
O70 C66 1.275 . S
O71 Tb62 2.513 . S
O71 C66 1.246 . S
O72 Tb62 2.453 . S
O72 C68 1.245 . S
O73 Tb60 2.343 . S
O73 Tb62 2.596 . S
O73 C68 1.259 . S
O74 Tb62 2.374 . S
O74 C69 1.250 . S
O75 Tb60 2.353 . S
O75 C69 1.263 . S
C76 O77 1.275 . S
C76 O78 1.246 . S
O77 Tb60 2.427 . S
O77 C76 1.275 . S
O78 Tb60 2.513 . S
O78 C76 1.246 . S
C79 O63 1.245 . S
C79 O64 1.259 . S
Tb80 O83 2.453 . S
Tb80 O84 2.596 . S
Tb80 O85 2.374 . S
Tb80 O93 2.343 . S
Tb80 O95 2.353 . S
Tb80 O97 2.427 . S
Tb80 O98 2.513 . S
C81 O85 1.251 . S
C81 O87 1.263 . S
Tb82 O84 2.343 . S
Tb82 O87 2.353 . S
Tb82 O90 2.427 . S
Tb82 O91 2.513 . S
Tb82 O92 2.453 . S
Tb82 O93 2.596 . S
Tb82 O94 2.374 . S
O83 Tb80 2.453 . S
O83 C99 1.245 . S
O84 Tb80 2.596 . S
O84 Tb82 2.343 . S
O84 C99 1.259 . S
O85 Tb80 2.374 . S
O85 C81 1.251 . S
C86 O90 1.275 . S
C86 O91 1.246 . S
O87 C81 1.263 . S
O87 Tb82 2.353 . S
C88 O92 1.245 . S
C88 O93 1.259 . S
C89 O94 1.250 . S
C89 O95 1.263 . S
O90 Tb82 2.427 . S
O90 C86 1.275 . S
O91 Tb82 2.513 . S
O91 C86 1.246 . S
O92 Tb82 2.453 . S
O92 C88 1.245 . S
O93 Tb80 2.343 . S
O93 Tb82 2.596 . S
O93 C88 1.259 . S
O94 Tb82 2.374 . S
O94 C89 1.250 . S
O95 Tb80 2.353 . S
O95 C89 1.263 . S
C96 O97 1.275 . S
C96 O98 1.246 . S
O97 Tb80 2.427 . S
O97 C96 1.275 . S
O98 Tb80 2.513 . S
O98 C96 1.246 . S
C99 O83 1.245 . S
C99 O84 1.259 . S
Tb100 O103 2.453 . S
Tb100 O104 2.596 . S
Tb100 O105 2.374 . S
Tb100 O113 2.343 . S
Tb100 O115 2.353 . S
Tb100 O117 2.427 . S
Tb100 O118 2.513 . S
C101 O105 1.251 . S
C101 O107 1.263 . S
Tb102 O104 2.343 . S
Tb102 O107 2.353 . S
Tb102 O110 2.427 . S
Tb102 O111 2.513 . S
Tb102 O112 2.453 1_655 S
Tb102 O113 2.596 . S
Tb102 O114 2.374 1_655 S
O103 Tb100 2.453 . S
O103 C119 1.245 . S
O104 Tb100 2.596 . S
O104 Tb102 2.343 . S
O104 C119 1.259 . S
O105 Tb100 2.374 . S
O105 C101 1.251 . S
C106 O110 1.275 . S
C106 O111 1.246 . S
O107 C101 1.263 . S
O107 Tb102 2.353 . S
C108 O112 1.245 . S
C108 O113 1.259 1_455 S
C109 O114 1.250 . S
C109 O115 1.263 1_455 S
O110 Tb102 2.427 . S
O110 C106 1.275 . S
O111 Tb102 2.513 . S
O111 C106 1.246 . S
O112 Tb102 2.453 1_455 S
O112 C108 1.245 . S
O113 Tb100 2.343 . S
O113 Tb102 2.596 . S
O113 C108 1.259 1_655 S
O114 Tb102 2.374 1_455 S
O114 C109 1.250 . S
O115 Tb100 2.353 . S
O115 C109 1.263 1_655 S
C116 O117 1.275 . S
C116 O118 1.246 . S
O117 Tb100 2.427 . S
O117 C116 1.275 . S
O118 Tb100 2.513 . S
O118 C116 1.246 . S
C119 O103 1.245 . S
C119 O104 1.259 . S
Tb120 O123 2.453 . S
Tb120 O124 2.596 . S
Tb120 O125 2.374 . S
Tb120 O133 2.343 . S
Tb120 O135 2.353 . S
Tb120 O137 2.427 . S
Tb120 O138 2.513 . S
C121 O125 1.251 . S
C121 O127 1.263 . S
Tb122 O124 2.343 . S
Tb122 O127 2.353 . S
Tb122 O130 2.427 1_655 S
Tb122 O131 2.513 1_554 S
Tb122 O132 2.453 . S
Tb122 O133 2.596 . S
Tb122 O134 2.374 . S
O123 Tb120 2.453 . S
O123 C139 1.245 . S
O124 Tb120 2.596 . S
O124 Tb122 2.343 . S
O124 C139 1.259 . S
O125 Tb120 2.374 . S
O125 C121 1.251 . S
C126 O130 1.275 1_556 S
C126 O131 1.246 1_455 S
O127 C121 1.263 . S
O127 Tb122 2.353 . S
C128 O132 1.245 . S
C128 O133 1.259 . S
C129 O134 1.250 . S
C129 O135 1.263 . S
O130 Tb122 2.427 1_455 S
O130 C126 1.275 1_554 S
O131 Tb122 2.513 1_556 S
O131 C126 1.246 1_655 S
O132 Tb122 2.453 . S
O132 C128 1.245 . S
O133 Tb120 2.343 . S
O133 Tb122 2.596 . S
O133 C128 1.259 . S
O134 Tb122 2.374 . S
O134 C129 1.250 . S
O135 Tb120 2.353 . S
O135 C129 1.263 . S
C136 O137 1.275 . S
C136 O138 1.246 . S
O137 Tb120 2.427 . S
O137 C136 1.275 . S
O138 Tb120 2.513 . S
O138 C136 1.246 . S
C139 O123 1.245 . S
C139 O124 1.259 . S
Tb140 O143 2.453 . S
Tb140 O144 2.596 . S
Tb140 O145 2.374 . S
Tb140 O153 2.343 . S
Tb140 O155 2.353 . S
Tb140 O157 2.427 . S
Tb140 O158 2.513 . S
C141 O145 1.251 . S
C141 O147 1.263 . S
Tb142 O144 2.343 . S
Tb142 O147 2.353 . S
Tb142 O150 2.427 . S
Tb142 O151 2.513 . S
Tb142 O152 2.453 . S
Tb142 O153 2.596 . S
Tb142 O154 2.374 . S
O143 Tb140 2.453 . S
O143 C159 1.245 . S
O144 Tb140 2.596 . S
O144 Tb142 2.343 . S
O144 C159 1.259 . S
O145 Tb140 2.374 . S
O145 C141 1.251 . S
C146 O150 1.275 . S
C146 O151 1.246 . S
O147 C141 1.263 . S
O147 Tb142 2.353 . S
C148 O152 1.245 . S
C148 O153 1.259 . S
C149 O154 1.250 . S
C149 O155 1.263 . S
O150 Tb142 2.427 . S
O150 C146 1.275 . S
O151 Tb142 2.513 . S
O151 C146 1.246 . S
O152 Tb142 2.453 . S
O152 C148 1.245 . S
O153 Tb140 2.343 . S
O153 Tb142 2.596 . S
O153 C148 1.259 . S
O154 Tb142 2.374 . S
O154 C149 1.250 . S
O155 Tb140 2.353 . S
O155 C149 1.263 . S
C156 O157 1.275 . S
C156 O158 1.246 . S
O157 Tb140 2.427 . S
O157 C156 1.275 . S
O158 Tb140 2.513 . S
O158 C156 1.246 . S
C159 O143 1.245 . S
C159 O144 1.259 . S
Tb160 O163 2.453 . S
Tb160 O164 2.596 . S
Tb160 O165 2.374 . S
Tb160 O173 2.343 . S
Tb160 O175 2.353 . S
Tb160 O177 2.427 . S
Tb160 O178 2.513 . S
C161 O165 1.251 . S
C161 O167 1.263 . S
Tb162 O164 2.343 . S
Tb162 O167 2.353 . S
Tb162 O170 2.427 . S
Tb162 O171 2.513 . S
Tb162 O172 2.453 . S
Tb162 O173 2.596 . S
Tb162 O174 2.374 . S
O163 Tb160 2.453 . S
O163 C179 1.245 . S
O164 Tb160 2.596 . S
O164 Tb162 2.343 . S
O164 C179 1.259 . S
O165 Tb160 2.374 . S
O165 C161 1.251 . S
C166 O170 1.275 . S
C166 O171 1.246 . S
O167 C161 1.263 . S
O167 Tb162 2.353 . S
C168 O172 1.245 . S
C168 O173 1.259 . S
C169 O174 1.250 . S
C169 O175 1.263 . S
O170 Tb162 2.427 . S
O170 C166 1.275 . S
O171 Tb162 2.513 . S
O171 C166 1.246 . S
O172 Tb162 2.453 . S
O172 C168 1.245 . S
O173 Tb160 2.343 . S
O173 Tb162 2.596 . S
O173 C168 1.259 . S
O174 Tb162 2.374 . S
O174 C169 1.250 . S
O175 Tb160 2.353 . S
O175 C169 1.263 . S
C176 O177 1.275 . S
C176 O178 1.246 . S
O177 Tb160 2.427 . S
O177 C176 1.275 . S
O178 Tb160 2.513 . S
O178 C176 1.246 . S
C179 O163 1.245 . S
C179 O164 1.259 . S
Tb180 O183 2.453 1_545 S
Tb180 O184 2.596 . S
Tb180 O185 2.374 . S
Tb180 O193 2.343 . S
Tb180 O195 2.353 . S
Tb180 O197 2.427 . S
Tb180 O198 2.513 . S
C181 O185 1.251 . S
C181 O187 1.263 . S
Tb182 O184 2.343 . S
Tb182 O187 2.353 . S
Tb182 O190 2.427 1_545 S
Tb182 O191 2.513 1_545 S
Tb182 O192 2.453 . S
Tb182 O193 2.596 . S
Tb182 O194 2.374 . S
O183 Tb180 2.453 1_565 S
O183 C199 1.245 . S
O184 Tb180 2.596 . S
O184 Tb182 2.343 . S
O184 C199 1.259 1_545 S
O185 Tb180 2.374 . S
O185 C181 1.251 . S
C186 O190 1.275 . S
C186 O191 1.246 . S
O187 C181 1.263 . S
O187 Tb182 2.353 . S
C188 O192 1.245 . S
C188 O193 1.259 . S
C189 O194 1.250 . S
C189 O195 1.263 . S
O190 Tb182 2.427 1_565 S
O190 C186 1.275 . S
O191 Tb182 2.513 1_565 S
O191 C186 1.246 . S
O192 Tb182 2.453 . S
O192 C188 1.245 . S
O193 Tb180 2.343 . S
O193 Tb182 2.596 . S
O193 C188 1.259 . S
O194 Tb182 2.374 . S
O194 C189 1.250 . S
O195 Tb180 2.353 . S
O195 C189 1.263 . S
C196 O197 1.275 . S
C196 O198 1.246 . S
O197 Tb180 2.427 . S
O197 C196 1.275 . S
O198 Tb180 2.513 . S
O198 C196 1.246 . S
C199 O183 1.245 . S
C199 O184 1.259 1_565 S
Tb200 O203 2.453 . S
Tb200 O204 2.596 . S
Tb200 O205 2.374 . S
Tb200 O213 2.343 . S
Tb200 O215 2.353 . S
Tb200 O217 2.427 . S
Tb200 O218 2.513 . S
C201 O205 1.251 . S
C201 O207 1.263 . S
Tb202 O204 2.343 . S
Tb202 O207 2.353 . S
Tb202 O210 2.427 . S
Tb202 O211 2.513 1_565 S
Tb202 O212 2.453 1_565 S
Tb202 O213 2.596 . S
Tb202 O214 2.374 1_565 S
O203 Tb200 2.453 . S
O203 C219 1.245 . S
O204 Tb200 2.596 . S
O204 Tb202 2.343 . S
O204 C219 1.259 . S
O205 Tb200 2.374 . S
O205 C201 1.251 . S
C206 O210 1.275 . S
C206 O211 1.246 1_565 S
O207 C201 1.263 . S
O207 Tb202 2.353 . S
C208 O212 1.245 . S
C208 O213 1.259 1_545 S
C209 O214 1.250 . S
C209 O215 1.263 1_545 S
O210 Tb202 2.427 . S
O210 C206 1.275 . S
O211 Tb202 2.513 1_545 S
O211 C206 1.246 1_545 S
O212 Tb202 2.453 1_545 S
O212 C208 1.245 . S
O213 Tb200 2.343 . S
O213 Tb202 2.596 . S
O213 C208 1.259 1_565 S
O214 Tb202 2.374 1_545 S
O214 C209 1.250 . S
O215 Tb200 2.353 . S
O215 C209 1.263 1_565 S
C216 O217 1.275 . S
C216 O218 1.246 . S
O217 Tb200 2.427 . S
O217 C216 1.275 . S
O218 Tb200 2.513 . S
O218 C216 1.246 . S
C219 O203 1.245 . S
C219 O204 1.259 . S
Tb220 O223 2.453 . S
Tb220 O224 2.596 . S
Tb220 O225 2.374 . S
Tb220 O233 2.343 . S
Tb220 O235 2.353 . S
Tb220 O237 2.427 . S
Tb220 O238 2.513 . S
C221 O225 1.251 . S
C221 O227 1.263 . S
Tb222 O224 2.343 . S
Tb222 O227 2.353 . S
Tb222 O230 2.427 . S
Tb222 O231 2.513 . S
Tb222 O232 2.453 . S
Tb222 O233 2.596 . S
Tb222 O234 2.374 . S
O223 Tb220 2.453 . S
O223 C239 1.245 . S
O224 Tb220 2.596 . S
O224 Tb222 2.343 . S
O224 C239 1.259 . S
O225 Tb220 2.374 . S
O225 C221 1.251 . S
C226 O230 1.275 . S
C226 O231 1.246 . S
O227 C221 1.263 . S
O227 Tb222 2.353 . S
C228 O232 1.245 . S
C228 O233 1.259 . S
C229 O234 1.250 . S
C229 O235 1.263 . S
O230 Tb222 2.427 . S
O230 C226 1.275 . S
O231 Tb222 2.513 . S
O231 C226 1.246 . S
O232 Tb222 2.453 . S
O232 C228 1.245 . S
O233 Tb220 2.343 . S
O233 Tb222 2.596 . S
O233 C228 1.259 . S
O234 Tb222 2.374 . S
O234 C229 1.250 . S
O235 Tb220 2.353 . S
O235 C229 1.263 . S
C236 O237 1.275 . S
C236 O238 1.246 . S
O237 Tb220 2.427 . S
O237 C236 1.275 . S
O238 Tb220 2.513 . S
O238 C236 1.246 . S
C239 O223 1.245 . S
C239 O224 1.259 . S
C240 C241 1.387 . S
C240 H244 0.950 . S
C240 C249 1.390 . S
C241 C240 1.387 . S
C241 C243 1.387 . S
H242 C249 0.950 . S
C243 C241 1.387 . S
C243 C245 1.390 . S
C243 H247 0.950 . S
H244 C240 0.950 . S
C245 C243 1.390 . S
C245 C246 1.387 . S
C245 H248 0.950 . S
C246 C245 1.387 . S
C246 C249 1.387 . S
H247 C243 0.950 . S
H248 C245 0.950 . S
C249 C240 1.390 . S
C249 H242 0.950 . S
C249 C246 1.387 . S
C250 C251 1.387 . S
C250 H254 0.950 . S
C250 C259 1.390 . S
C251 C250 1.387 . S
C251 C253 1.387 1_545 S
H252 C259 0.950 . S
C253 C251 1.387 1_565 S
C253 C255 1.390 . S
C253 H257 0.950 . S
H254 C250 0.950 . S
C255 C253 1.390 . S
C255 C256 1.387 . S
C255 H258 0.950 . S
C256 C255 1.387 . S
C256 C259 1.387 1_565 S
H257 C253 0.950 . S
H258 C255 0.950 . S
C259 C250 1.390 . S
C259 H252 0.950 . S
C259 C256 1.387 1_545 S
C260 C261 1.387 . S
C260 H264 0.950 . S
C260 C269 1.390 . S
C261 C260 1.387 . S
C261 C263 1.387 1_556 S
H262 C269 0.950 . S
C263 C261 1.387 1_554 S
C263 C265 1.390 . S
C263 H267 0.950 . S
H264 C260 0.950 . S
C265 C263 1.390 . S
C265 C266 1.387 . S
C265 H268 0.950 . S
C266 C265 1.387 . S
C266 C269 1.387 1_554 S
H267 C263 0.950 . S
H268 C265 0.950 . S
C269 C260 1.390 . S
C269 H262 0.950 . S
C269 C266 1.387 1_556 S
C270 C271 1.387 . S
C270 H274 0.950 . S
C270 C279 1.390 1_545 S
C271 C270 1.387 . S
C271 C273 1.387 . S
H272 C279 0.950 . S
C273 C271 1.387 . S
C273 C275 1.390 . S
C273 H277 0.950 . S
H274 C270 0.950 . S
C275 C273 1.390 . S
C275 C276 1.387 1_545 S
C275 H278 0.950 . S
C276 C275 1.387 1_565 S
C276 C279 1.387 . S
H277 C273 0.950 . S
H278 C275 0.950 . S
C279 C270 1.390 1_565 S
C279 H272 0.950 . S
C279 C276 1.387 . S
C280 C281 1.387 . S
C280 H284 0.950 . S
C280 C289 1.390 . S
C281 C280 1.387 . S
C281 C283 1.387 . S
H282 C289 0.950 . S
C283 C281 1.387 . S
C283 C285 1.390 . S
C283 H287 0.950 . S
H284 C280 0.950 . S
C285 C283 1.390 . S
C285 C286 1.387 . S
C285 H288 0.950 . S
C286 C285 1.387 . S
C286 C289 1.387 . S
H287 C283 0.950 . S
H288 C285 0.950 . S
C289 C280 1.390 . S
C289 H282 0.950 . S
C289 C286 1.387 . S
C290 C291 1.387 . S
C290 H294 0.950 . S
C290 C299 1.390 . S
C291 C290 1.387 . S
C291 C293 1.387 . S
H292 C299 0.950 . S
C293 C291 1.387 . S
C293 C295 1.390 . S
C293 H297 0.950 . S
H294 C290 0.950 . S
C295 C293 1.390 . S
C295 C296 1.387 . S
C295 H298 0.950 . S
C296 C295 1.387 . S
C296 C299 1.387 . S
H297 C293 0.950 . S
H298 C295 0.950 . S
C299 C290 1.390 . S
C299 H292 0.950 . S
C299 C296 1.387 . S
C300 C301 1.387 1_556 S
C300 H304 0.950 . S
C300 C309 1.390 1_556 S
C301 C300 1.387 1_554 S
C301 C303 1.387 . S
H302 C309 0.950 1_556 S
C303 C301 1.387 . S
C303 C305 1.390 . S
C303 H307 0.950 . S
H304 C300 0.950 . S
C305 C303 1.390 . S
C305 C306 1.387 . S
C305 H308 0.950 . S
C306 C305 1.387 . S
C306 C309 1.387 . S
H307 C303 0.950 . S
H308 C305 0.950 . S
C309 C300 1.390 1_554 S
C309 H302 0.950 1_554 S
C309 C306 1.387 . S
C310 C311 1.387 . S
C310 H314 0.950 . S
C310 C319 1.390 . S
C311 C310 1.387 . S
C311 C313 1.387 . S
H312 C319 0.950 . S
C313 C311 1.387 . S
C313 C315 1.390 . S
C313 H317 0.950 . S
H314 C310 0.950 . S
C315 C313 1.390 . S
C315 C316 1.387 . S
C315 H318 0.950 . S
C316 C315 1.387 . S
C316 C319 1.387 . S
H317 C313 0.950 . S
H318 C315 0.950 . S
C319 C310 1.390 . S
C319 H312 0.950 . S
C319 C316 1.387 . S
C320 C321 1.387 . S
C320 H324 0.950 . S
C320 C329 1.390 . S
C321 C320 1.387 . S
C321 C323 1.387 . S
H322 C329 0.950 . S
C323 C321 1.387 . S
C323 C325 1.390 . S
C323 H327 0.950 . S
H324 C320 0.950 . S
C325 C323 1.390 . S
C325 C326 1.387 . S
C325 H328 0.950 . S
C326 C325 1.387 . S
C326 C329 1.387 . S
H327 C323 0.950 . S
H328 C325 0.950 . S
C329 C320 1.390 . S
C329 H322 0.950 . S
C329 C326 1.387 . S
C330 C331 1.387 . S
C330 H334 0.950 . S
C330 C339 1.390 1_455 S
C331 C330 1.387 . S
C331 C333 1.387 1_455 S
H332 C339 0.950 . S
C333 C331 1.387 1_655 S
C333 C335 1.390 . S
C333 H337 0.950 . S
H334 C330 0.950 . S
C335 C333 1.390 . S
C335 C336 1.387 . S
C335 H338 0.950 . S
C336 C335 1.387 . S
C336 C339 1.387 . S
H337 C333 0.950 . S
H338 C335 0.950 . S
C339 C330 1.390 1_655 S
C339 H332 0.950 . S
C339 C336 1.387 . S
C340 C341 1.387 1_655 S
C340 H344 0.950 . S
C340 C349 1.390 . S
C341 C340 1.387 1_455 S
C341 C343 1.387 . S
H342 C349 0.950 . S
C343 C341 1.387 . S
C343 C345 1.390 . S
C343 H347 0.950 . S
H344 C340 0.950 . S
C345 C343 1.390 . S
C345 C346 1.387 . S
C345 H348 0.950 . S
C346 C345 1.387 . S
C346 C349 1.387 1_455 S
H347 C343 0.950 . S
H348 C345 0.950 . S
C349 C340 1.390 . S
C349 H342 0.950 . S
C349 C346 1.387 1_655 S
C350 C351 1.387 . S
C350 H354 0.950 . S
C350 C359 1.390 . S
C351 C350 1.387 . S
C351 C353 1.387 . S
H352 C359 0.950 . S
C353 C351 1.387 . S
C353 C355 1.390 . S
C353 H357 0.950 . S
H354 C350 0.950 . S
C355 C353 1.390 . S
C355 C356 1.387 . S
C355 H358 0.950 . S
C356 C355 1.387 . S
C356 C359 1.387 . S
H357 C353 0.950 . S
H358 C355 0.950 . S
C359 C350 1.390 . S
C359 H352 0.950 . S
C359 C356 1.387 . S
C360 C361 1.387 . S
C360 H364 0.950 . S
C360 C369 1.390 . S
C361 C360 1.387 . S
C361 C363 1.387 . S
H362 C369 0.950 . S
C363 C361 1.387 . S
C363 C365 1.390 . S
C363 H367 0.950 . S
H364 C360 0.950 . S
C365 C363 1.390 . S
C365 C366 1.387 . S
C365 H368 0.950 . S
C366 C365 1.387 . S
C366 C369 1.387 . S
H367 C363 0.950 . S
H368 C365 0.950 . S
C369 C360 1.390 . S
C369 H362 0.950 . S
C369 C366 1.387 . S
C370 C371 1.387 1_455 S
C370 H374 0.950 . S
C370 C379 1.390 1_455 S
C371 C370 1.387 1_655 S
C371 C373 1.387 . S
H372 C379 0.950 1_455 S
C373 C371 1.387 . S
C373 C375 1.390 . S
C373 H377 0.950 . S
H374 C370 0.950 . S
C375 C373 1.390 . S
C375 C376 1.387 . S
C375 H378 0.950 . S
C376 C375 1.387 . S
C376 C379 1.387 . S
H377 C373 0.950 . S
H378 C375 0.950 . S
C379 C370 1.390 1_655 S
C379 H372 0.950 1_655 S
C379 C376 1.387 . S
C380 C381 1.387 . S
C380 H384 0.950 . S
C380 C389 1.390 . S
C381 C380 1.387 . S
C381 C383 1.387 . S
H382 C389 0.950 . S
C383 C381 1.387 . S
C383 C385 1.390 . S
C383 H387 0.950 . S
H384 C380 0.950 . S
C385 C383 1.390 . S
C385 C386 1.387 . S
C385 H388 0.950 . S
C386 C385 1.387 . S
C386 C389 1.387 . S
H387 C383 0.950 . S
H388 C385 0.950 . S
C389 C380 1.390 . S
C389 H382 0.950 . S
C389 C386 1.387 . S
C390 C391 1.387 . S
C390 H394 0.950 . S
C390 C399 1.390 1_554 S
C391 C390 1.387 . S
C391 C393 1.387 . S
H392 C399 0.950 . S
C393 C391 1.387 . S
C393 C395 1.390 . S
C393 H397 0.950 . S
H394 C390 0.950 . S
C395 C393 1.390 . S
C395 C396 1.387 1_554 S
C395 H398 0.950 . S
C396 C395 1.387 1_556 S
C396 C399 1.387 . S
H397 C393 0.950 . S
H398 C395 0.950 . S
C399 C390 1.390 1_556 S
C399 H392 0.950 . S
C399 C396 1.387 . S
C400 C401 1.387 . S
C400 H404 0.950 . S
C400 C409 1.390 . S
C401 C400 1.387 . S
C401 C403 1.387 . S
H402 C409 0.950 . S
C403 C401 1.387 . S
C403 C405 1.390 . S
C403 H407 0.950 . S
H404 C400 0.950 . S
C405 C403 1.390 . S
C405 C406 1.387 . S
C405 H408 0.950 . S
C406 C405 1.387 . S
C406 C409 1.387 . S
H407 C403 0.950 . S
H408 C405 0.950 . S
C409 C400 1.390 . S
C409 H402 0.950 . S
C409 C406 1.387 . S
C410 C411 1.387 1_556 S
C410 H414 0.950 . S
C410 C419 1.390 . S
C411 C410 1.387 1_554 S
C411 C413 1.387 1_554 S
H412 C419 0.950 . S
C413 C411 1.387 1_556 S
C413 C415 1.390 . S
C413 H417 0.950 . S
H414 C410 0.950 . S
C415 C413 1.390 . S
C415 C416 1.387 . S
C415 H418 0.950 . S
C416 C415 1.387 . S
C416 C419 1.387 . S
H417 C413 0.950 . S
H418 C415 0.950 . S
C419 C410 1.390 . S
C419 H412 0.950 . S
C419 C416 1.387 . S
C420 C421 1.387 . S
C420 H424 0.950 . S
C420 C429 1.390 . S
C421 C420 1.387 . S
C421 C423 1.387 . S
H422 C429 0.950 . S
C423 C421 1.387 . S
C423 C425 1.390 . S
C423 H427 0.950 . S
H424 C420 0.950 . S
C425 C423 1.390 . S
C425 C426 1.387 . S
C425 H428 0.950 . S
C426 C425 1.387 . S
C426 C429 1.387 . S
H427 C423 0.950 . S
H428 C425 0.950 . S
C429 C420 1.390 . S
C429 H422 0.950 . S
C429 C426 1.387 . S
C430 C431 1.387 . S
C430 H434 0.950 . S
C430 C439 1.390 . S
C431 C430 1.387 . S
C431 C433 1.387 . S
H432 C439 0.950 . S
C433 C431 1.387 . S
C433 C435 1.390 . S
C433 H437 0.950 . S
H434 C430 0.950 . S
C435 C433 1.390 . S
C435 C436 1.387 . S
C435 H438 0.950 . S
C436 C435 1.387 . S
C436 C439 1.387 . S
H437 C433 0.950 . S
H438 C435 0.950 . S
C439 C430 1.390 . S
C439 H432 0.950 . S
C439 C436 1.387 . S
C440 C441 1.387 . S
C440 H444 0.950 . S
C440 C449 1.390 . S
C441 C440 1.387 . S
C441 C443 1.387 . S
H442 C449 0.950 . S
C443 C441 1.387 . S
C443 C445 1.390 . S
C443 H447 0.950 . S
H444 C440 0.950 . S
C445 C443 1.390 . S
C445 C446 1.387 . S
C445 H448 0.950 . S
C446 C445 1.387 . S
C446 C449 1.387 . S
H447 C443 0.950 . S
H448 C445 0.950 . S
C449 C440 1.390 . S
C449 H442 0.950 . S
C449 C446 1.387 . S
C450 C451 1.387 . S
C450 H454 0.950 . S
C450 C459 1.390 . S
C451 C450 1.387 . S
C451 C453 1.387 . S
H452 C459 0.950 . S
C453 C451 1.387 . S
C453 C455 1.390 . S
C453 H457 0.950 . S
H454 C450 0.950 . S
C455 C453 1.390 . S
C455 C456 1.387 . S
C455 H458 0.950 1_545 S
C456 C455 1.387 . S
C456 C459 1.387 . S
H457 C453 0.950 . S
H458 C455 0.950 1_565 S
C459 C450 1.390 . S
C459 H452 0.950 . S
C459 C456 1.387 . S
C460 C461 1.387 . S
C460 H464 0.950 . S
C460 C469 1.390 . S
C461 C460 1.387 . S
C461 C463 1.387 . S
H462 C469 0.950 . S
C463 C461 1.387 . S
C463 C465 1.390 . S
C463 H467 0.950 . S
H464 C460 0.950 . S
C465 C463 1.390 . S
C465 C466 1.387 . S
C465 H468 0.950 . S
C466 C465 1.387 . S
C466 C469 1.387 . S
H467 C463 0.950 . S
H468 C465 0.950 . S
C469 C460 1.390 . S
C469 H462 0.950 . S
C469 C466 1.387 . S
C470 C471 1.408 . S
C470 H474 0.937 1_564 S
C470 C479 1.387 1_554 S
C471 C470 1.408 . S
C471 C473 1.399 . S
H472 C479 0.950 . S
C473 C471 1.399 . S
C473 C475 1.390 . S
C473 H477 0.950 . S
H474 C470 0.937 1_546 S
C475 C473 1.390 . S
C475 C476 1.387 . S
C475 H478 0.950 . S
C476 C475 1.387 . S
C476 C479 1.387 1_554 S
H477 C473 0.950 . S
H478 C475 0.950 . S
C479 C470 1.387 1_556 S
C479 H472 0.950 . S
C479 C476 1.387 1_556 S
C480 C481 1.387 . S
C480 H484 0.950 . S
C480 C489 1.390 . S
C481 C480 1.387 . S
C481 C483 1.387 . S
H482 C489 0.950 . S
C483 C481 1.387 . S
C483 C485 1.390 . S
C483 H487 0.950 . S
H484 C480 0.950 . S
C485 C483 1.390 . S
C485 C486 1.387 . S
C485 H488 0.950 . S
C486 C485 1.387 . S
C486 C489 1.387 . S
H487 C483 0.950 . S
H488 C485 0.950 . S
C489 C480 1.390 . S
C489 H482 0.950 . S
C489 C486 1.387 . S
C490 C491 1.387 . S
C490 H494 0.950 1_556 S
C490 C499 1.390 1_556 S
C491 C490 1.387 . S
C491 C493 1.387 . S
H492 C499 0.950 . S
C493 C491 1.387 . S
C493 C495 1.390 . S
C493 H497 0.950 . S
H494 C490 0.950 1_554 S
C495 C493 1.390 . S
C495 C496 1.387 . S
C495 H498 0.950 . S
C496 C495 1.387 . S
C496 C499 1.387 1_556 S
H497 C493 0.950 . S
H498 C495 0.950 . S
C499 C490 1.390 1_554 S
C499 H492 0.950 . S
C499 C496 1.387 1_554 S
C500 C501 1.387 . S
C500 H504 0.950 . S
C500 C509 1.390 . S
C501 C500 1.387 . S
C501 C503 1.387 . S
H502 C509 0.950 . S
C503 C501 1.387 . S
C503 C505 1.390 . S
C503 H507 0.950 . S
H504 C500 0.950 . S
C505 C503 1.390 . S
C505 C506 1.387 . S
C505 H508 0.950 . S
C506 C505 1.387 . S
C506 C509 1.387 . S
H507 C503 0.950 . S
H508 C505 0.950 . S
C509 C500 1.390 . S
C509 H502 0.950 . S
C509 C506 1.387 . S
C510 C511 1.387 . S
C510 H514 0.950 . S
C510 C519 1.390 . S
C511 C510 1.387 . S
C511 C513 1.387 . S
H512 C519 0.950 . S
C513 C511 1.387 . S
C513 C515 1.390 . S
C513 H517 0.950 . S
H514 C510 0.950 . S
C515 C513 1.390 . S
C515 C516 1.387 . S
C515 H518 0.950 . S
C516 C515 1.387 . S
C516 C519 1.387 . S
H517 C513 0.950 . S
H518 C515 0.950 . S
C519 C510 1.390 . S
C519 H512 0.950 . S
C519 C516 1.387 . S
C520 C521 1.387 . S
C520 H524 0.950 . S
C520 C529 1.390 . S
C521 C520 1.387 . S
C521 C523 1.387 . S
H522 C529 0.950 . S
C523 C521 1.387 . S
C523 C525 1.390 . S
C523 H527 0.950 . S
H524 C520 0.950 . S
C525 C523 1.390 . S
C525 C526 1.387 . S
C525 H528 0.950 . S
C526 C525 1.387 . S
C526 C529 1.387 . S
H527 C523 0.950 . S
H528 C525 0.950 . S
C529 C520 1.390 . S
C529 H522 0.950 . S
C529 C526 1.387 . S
C530 C531 1.387 . S
C530 H534 0.950 . S
C530 C539 1.390 . S
C531 C530 1.387 . S
C531 C533 1.387 . S
H532 C539 0.950 . S
C533 C531 1.387 . S
C533 C535 1.390 . S
C533 H537 0.950 . S
H534 C530 0.950 . S
C535 C533 1.390 . S
C535 C536 1.387 . S
C535 H538 0.950 . S
C536 C535 1.387 . S
C536 C539 1.387 . S
H537 C533 0.950 . S
H538 C535 0.950 . S
C539 C530 1.390 . S
C539 H532 0.950 . S
C539 C536 1.387 . S
C540 C541 1.387 . S
C540 H544 0.950 . S
C540 C549 1.390 . S
C541 C540 1.387 . S
C541 C543 1.387 . S
H542 C549 0.950 . S
C543 C541 1.387 . S
C543 C545 1.390 . S
C543 H547 0.950 . S
H544 C540 0.950 . S
C545 C543 1.390 . S
C545 C546 1.385 1_455 S
C545 H548 0.950 1_455 S
C546 C545 1.385 1_655 S
C546 C549 1.383 1_655 S
H547 C543 0.950 . S
H548 C545 0.950 1_655 S
C549 C540 1.390 . S
C549 H542 0.950 . S
C549 C546 1.383 1_455 S
C550 C551 1.387 . S
C550 H554 0.950 . S
C550 C559 1.390 . S
C551 C550 1.387 . S
C551 C553 1.387 . S
H552 C559 0.950 . S
C553 C551 1.387 . S
C553 C555 1.390 . S
C553 H557 0.950 . S
H554 C550 0.950 . S
C555 C553 1.390 . S
C555 C556 1.387 . S
C555 H558 0.950 . S
C556 C555 1.387 . S
C556 C559 1.387 . S
H557 C553 0.950 . S
H558 C555 0.950 . S
C559 C550 1.390 . S
C559 H552 0.950 . S
C559 C556 1.387 . S
C560 C561 1.387 . S
C560 H564 0.950 . S
C560 C569 1.390 . S
C561 C560 1.387 . S
C561 C563 1.387 . S
H562 C569 0.950 . S
C563 C561 1.387 . S
C563 C565 1.390 . S
C563 H567 0.950 . S
H564 C560 0.950 . S
C565 C563 1.390 . S
C565 C566 1.387 . S
C565 H568 0.950 . S
C566 C565 1.387 . S
C566 C569 1.387 . S
H567 C563 0.950 . S
H568 C565 0.950 . S
C569 C560 1.390 . S
C569 H562 0.950 . S
C569 C566 1.387 . S
C570 C571 1.387 . S
C570 H574 0.950 . S
C570 C579 1.390 . S
C571 C570 1.387 . S
C571 C573 1.387 . S
H572 C579 0.950 . S
C573 C571 1.387 . S
C573 C575 1.390 . S
C573 H577 0.950 . S
H574 C570 0.950 . S
C575 C573 1.390 . S
C575 C576 1.387 . S
C575 H578 0.950 . S
C576 C575 1.387 . S
C576 C579 1.387 . S
H577 C573 0.950 . S
H578 C575 0.950 . S
C579 C570 1.390 . S
C579 H572 0.950 . S
C579 C576 1.387 . S
C580 C581 1.387 . S
C580 H584 0.950 . S
C580 C589 1.390 . S
C581 C580 1.387 . S
C581 C583 1.387 . S
H582 C589 0.950 . S
C583 C581 1.387 . S
C583 C585 1.390 . S
C583 H587 0.950 . S
H584 C580 0.950 . S
C585 C583 1.390 . S
C585 C586 1.387 . S
C585 H588 0.950 1_565 S
C586 C585 1.387 . S
C586 C589 1.387 . S
H587 C583 0.950 . S
H588 C585 0.950 1_545 S
C589 C580 1.390 . S
C589 H582 0.950 . S
C589 C586 1.387 . S
C590 C591 1.387 . S
C590 H594 0.950 . S
C590 C599 1.390 . S
C591 C590 1.387 . S
C591 C593 1.387 . S
H592 C599 0.950 . S
C593 C591 1.387 . S
C593 C595 1.390 1_655 S
C593 H597 0.950 1_545 S
H594 C590 0.950 . S
C595 C593 1.390 1_455 S
C595 C596 1.387 . S
C595 H598 0.950 . S
C596 C595 1.387 . S
C596 C599 1.387 1_455 S
H597 C593 0.950 1_565 S
H598 C595 0.950 . S
C599 C590 1.390 . S
C599 H592 0.950 . S
C599 C596 1.387 1_655 S
C241 C9 1.691 . S
C246 C226 1.728 . S
C251 C189 1.843 . S
C256 C29 1.818 1_655 S
C261 C46 1.271 . S
C266 C166 1.248 . S
C271 C69 1.506 . S
C276 C206 1.427 . S
C281 C86 1.632 . S
C286 C209 1.705 . S
C291 C109 1.755 . S
C296 C229 1.790 . S
C301 C186 1.610 1_554 S
C306 C129 1.604 . S
C311 C146 1.440 . S
C316 C169 1.484 . S
C321 C66 1.617 . S
C326 C89 1.661 . S
C331 C6 1.245 . S
C336 C106 1.280 . S
C341 C26 1.315 . S
C346 C126 1.271 . S
C351 C149 2.082 . S
C356 C49 2.054 . S
C361 C8 1.414 . S
C366 C176 1.394 . S
C371 C28 1.423 1_655 S
C376 C216 1.381 . S
C381 C236 1.763 . S
C386 C59 1.753 . S
C391 C68 1.713 . S
C396 C181 1.763 . S
C401 C99 1.670 . S
C406 C196 1.738 . S
C411 C161 1.623 . S
C416 C108 1.558 . S
C421 C201 1.603 . S
C426 C128 1.556 . S
C431 C221 1.869 . S
C436 C159 1.750 . S
C441 C16 1.312 . S
C446 C79 1.220 . S
C451 C19 1.357 . S
C456 C36 1.393 1_545 S
C461 C39 1.273 . S
C466 C41 1.354 . S
C471 C76 1.347 1_565 S
C476 C48 1.470 . S
C481 C119 1.642 . S
C486 C81 1.750 . S
C491 C116 1.771 . S
C496 C139 1.665 1_556 S
C501 C136 1.591 . S
C506 C148 1.650 . S
C511 C88 1.980 . S
C516 C141 1.975 . S
C521 C168 1.574 . S
C526 C61 1.664 . S
C531 C101 1.769 . S
C536 C188 1.735 . S
C541 C179 1.384 . S
C546 C121 1.534 . S
C551 C219 1.461 . S
C556 C156 1.564 . S
C561 C96 1.491 . S
C566 C239 1.451 . S
C571 C228 1.708 . S
C576 C21 1.668 . S
C581 C56 1.564 . S
C586 C199 1.533 . S
C591 C208 1.484 . S
C596 C1 1.542 . S
