# Generated by pormake.
# Topology fnl, (5)-cn, num edge types: 1
# Building blocks:
#     Node 0, Type 0, BuildingBlock: BEQFEK_clean_sbu_0, # of connection points: 5
#     Node 1, Type 0, BuildingBlock: BEQFEK_clean_sbu_0, # of connection points: 5
#     Node 2, Type 0, BuildingBlock: BEQFEK_clean_sbu_0, # of connection points: 5
#     Node 3, Type 0, BuildingBlock: BEQFEK_clean_sbu_0, # of connection points: 5
#     Node 4, Type 0, BuildingBlock: BEQFEK_clean_sbu_0, # of connection points: 5
#     Node 5, Type 0, BuildingBlock: BEQFEK_clean_sbu_0, # of connection points: 5
#     Node 6, Type 0, BuildingBlock: BEQFEK_clean_sbu_0, # of connection points: 5
#     Node 7, Type 0, BuildingBlock: BEQFEK_clean_sbu_0, # of connection points: 5
#     Node 8, Type 0, BuildingBlock: BEQFEK_clean_sbu_0, # of connection points: 5
#     Node 9, Type 0, BuildingBlock: BEQFEK_clean_sbu_0, # of connection points: 5
#     Node 10, Type 0, BuildingBlock: BEQFEK_clean_sbu_0, # of connection points: 5
#     Node 11, Type 0, BuildingBlock: BEQFEK_clean_sbu_0, # of connection points: 5
#     Node 12, Type 0, BuildingBlock: BEQFEK_clean_sbu_0, # of connection points: 5
#     Node 13, Type 0, BuildingBlock: BEQFEK_clean_sbu_0, # of connection points: 5
#     Node 14, Type 0, BuildingBlock: BEQFEK_clean_sbu_0, # of connection points: 5
#     Node 15, Type 0, BuildingBlock: BEQFEK_clean_sbu_0, # of connection points: 5
#     Edge 16, Type (0, 0), None
#     Edge 17, Type (0, 0), None
#     Edge 18, Type (0, 0), None
#     Edge 19, Type (0, 0), None
#     Edge 20, Type (0, 0), None
#     Edge 21, Type (0, 0), None
#     Edge 22, Type (0, 0), None
#     Edge 23, Type (0, 0), None
#     Edge 24, Type (0, 0), None
#     Edge 25, Type (0, 0), None
#     Edge 26, Type (0, 0), None
#     Edge 27, Type (0, 0), None
#     Edge 28, Type (0, 0), None
#     Edge 29, Type (0, 0), None
#     Edge 30, Type (0, 0), None
#     Edge 31, Type (0, 0), None
#     Edge 32, Type (0, 0), None
#     Edge 33, Type (0, 0), None
#     Edge 34, Type (0, 0), None
#     Edge 35, Type (0, 0), None
#     Edge 36, Type (0, 0), None
#     Edge 37, Type (0, 0), None
#     Edge 38, Type (0, 0), None
#     Edge 39, Type (0, 0), None
#     Edge 40, Type (0, 0), None
#     Edge 41, Type (0, 0), None
#     Edge 42, Type (0, 0), None
#     Edge 43, Type (0, 0), None
#     Edge 44, Type (0, 0), None
#     Edge 45, Type (0, 0), None
#     Edge 46, Type (0, 0), None
#     Edge 47, Type (0, 0), None
#     Edge 48, Type (0, 0), None
#     Edge 49, Type (0, 0), None
#     Edge 50, Type (0, 0), None
#     Edge 51, Type (0, 0), None
#     Edge 52, Type (0, 0), None
#     Edge 53, Type (0, 0), None
#     Edge 54, Type (0, 0), None
#     Edge 55, Type (0, 0), None
# Relax obj value: 0.486
# Max RMSD: 0.275
# Mean RMSD: 0.275
data_MOF--net-fnl--node1-BEQFEK_clean_sbu_0--edge1-none
_symmetry_space_group_name_H-M    P1
_symmetry_Int_Tables_number       1
_symmetry_cell_setting            triclinic
loop_
_symmetry_equiv_pos_as_xyz
'x, y, z'
_cell_length_a     19.485058
_cell_length_b     19.486144
_cell_length_c     48.324984
_cell_angle_alpha  90.004064
_cell_angle_beta   89.995913
_cell_angle_gamma 90.009695
loop_
_atom_site_label
_atom_site_type_symbol
_atom_site_fract_x
_atom_site_fract_y
_atom_site_fract_z
_atom_type_partial_charge
Co0 Co 0.09027 0.01905 0.06394 0.0
Co1 Co 0.03293 0.14451 0.08906 0.0
C2 C 0.96061 0.0196 0.10501 0.0
O3 O 1.01156 0.99278 0.09191 0.0
O4 O 0.95372 0.08543 0.10527 0.0
C5 C 0.04607 0.92917 0.02838 0.0
O6 O 0.99463 0.97278 0.02914 0.0
C7 C 1.006 0.29855 0.0989 0.0
C8 C 0.11367 0.33164 0.10391 0.0
C9 C 0.04768 0.35694 0.10216 0.0
N10 N 0.04615 0.24192 0.09844 0.0
N11 N 0.11028 0.26286 0.10175 0.0
C12 C 0.93002 0.297 0.09477 0.0
H13 H 0.9118 0.24351 0.0918 0.0
H14 H 0.91612 0.3286 0.07651 0.0
H15 H 0.90432 0.31963 0.11312 0.0
C16 C 0.07319 0.08529 0.01247 0.0
N17 N 0.06996 0.08674 0.04012 0.0
N18 N 0.03183 0.13728 0.04885 0.0
C19 C 1.00602 0.1685 0.02604 0.0
C20 C 0.02872 0.13317 0.00242 0.0
C21 C 0.12436 0.04469 -0.00408 0.0
H22 H 0.16423 0.0219 0.00946 0.0
H23 H 0.09747 1.00397 0.98409 0.0
H24 H 0.15006 0.07828 0.98054 0.0
O25 O 0.17807 0.03664 0.0784 0.0
O26 O 0.1182 0.09888 0.10742 0.0
H27 H 0.99441 0.27435 0.03621 0.0
H28 H 0.94793 0.24801 0.00551 0.0
C29 C 0.96394 0.2325 0.02665 0.0
H30 H 0.91791 0.22392 0.0397 0.0
H31 H 0.15267 0.23018 0.10144 0.0
O32 O 0.10084 0.94275 0.04114 0.0
C33 C 0.17207 0.06356 0.10177 0.0
Co34 Co 0.41291 0.94615 0.31396 0.0
Co35 Co 0.28738 0.88885 0.33907 0.0
C36 C 0.41228 0.81655 0.35505 0.0
O37 O 0.43913 0.86747 0.34194 0.0
O38 O 0.34644 0.80967 0.3553 0.0
C39 C 0.50273 0.9019 0.27837 0.0
O40 O 0.45911 0.85046 0.27916 0.0
C41 C 0.13332 0.86194 0.34892 0.0
C42 C 0.10028 0.9696 0.35395 0.0
C43 C 0.07495 0.90363 0.3522 0.0
N44 N 0.18997 0.90208 0.34846 0.0
N45 N 0.16907 0.96621 0.35178 0.0
C46 C 0.13483 0.78597 0.34478 0.0
H47 H 0.18831 0.76774 0.3418 0.0
H48 H 0.10322 0.77209 0.32651 0.0
H49 H 0.11219 0.76026 0.36312 0.0
C50 C 0.34666 0.92908 0.26249 0.0
N51 N 0.34521 0.92583 0.29014 0.0
N52 N 0.29463 0.88774 0.29887 0.0
C53 C 0.26338 0.86197 0.27606 0.0
C54 C 0.29873 0.88466 0.25244 0.0
C55 C 0.3873 0.98025 0.24595 0.0
H56 H 0.41014 0.02008 0.2595 0.0
H57 H 0.42797 0.95335 0.2341 0.0
H58 H 0.35371 1.00599 0.23059 0.0
O59 O 0.39535 0.03395 0.32841 0.0
O60 O 0.33303 0.97414 0.35743 0.0
H61 H 0.15751 0.85044 0.28623 0.0
H62 H 0.18378 0.80397 0.25551 0.0
C63 C 0.19933 0.81994 0.27666 0.0
H64 H 0.20785 0.77389 0.28969 0.0
H65 H 0.20176 1.00859 0.35148 0.0
O66 O 0.48924 0.95665 0.29117 0.0
C67 C 0.36838 0.02799 0.35178 0.0
Co68 Co 0.48585 0.26887 0.56395 0.0
Co69 Co 0.54317 0.1434 0.58906 0.0
C70 C 0.61548 0.26833 0.60502 0.0
O71 O 0.56454 0.29515 0.59192 0.0
O72 O 0.62237 0.2025 0.60528 0.0
C73 C 0.53008 0.35874 0.52839 0.0
O74 O 0.58152 0.31513 0.52916 0.0
C75 C 0.5701 0.98937 0.5989 0.0
C76 C 0.46243 0.95628 0.60392 0.0
C77 C 0.52842 0.93098 0.60216 0.0
N78 N 0.52995 0.046 0.59844 0.0
N79 N 0.46582 0.02506 0.60175 0.0
C80 C 0.64608 0.99092 0.59476 0.0
H81 H 0.6643 0.0444 0.59179 0.0
H82 H 0.65997 0.9593 0.5765 0.0
H83 H 0.67178 0.9683 0.61311 0.0
C84 C 0.50293 0.20263 0.51247 0.0
N85 N 0.50618 0.20119 0.54012 0.0
N86 N 0.54428 0.15063 0.54885 0.0
C87 C 0.57005 0.11939 0.52604 0.0
C88 C 0.54736 0.15472 0.50242 0.0
C89 C 0.45177 0.24325 0.49593 0.0
H90 H 0.41191 0.26605 0.50948 0.0
H91 H 0.47867 0.28396 0.4841 0.0
H92 H 0.42605 0.20967 0.48055 0.0
O93 O 0.39804 0.25128 0.5784 0.0
O94 O 0.45789 0.18904 0.60742 0.0
H95 H 0.5816 1.01353 0.53622 0.0
H96 H 0.62806 0.03981 0.5055 0.0
C97 C 0.61209 0.05536 0.52664 0.0
H98 H 0.65814 0.06391 0.53967 0.0
H99 H 0.42343 0.05774 0.60144 0.0
O100 O 0.4753 0.34518 0.54116 0.0
C101 C 0.40403 0.22435 0.60177 0.0
Co102 Co 0.16314 0.34168 0.81396 0.0
Co103 Co 0.28865 0.39899 0.83907 0.0
C104 C 0.16374 0.47129 0.85505 0.0
O105 O 0.1369 0.42037 0.84193 0.0
O106 O 0.22958 0.47817 0.8553 0.0
C107 C 0.07333 0.38591 0.77837 0.0
O108 O 0.11695 0.43735 0.77915 0.0
C109 C 0.4427 0.4259 0.84892 0.0
C110 C 0.47574 0.31824 0.85394 0.0
C111 C 0.50107 0.38422 0.85219 0.0
N112 N 0.38606 0.38576 0.84846 0.0
N113 N 0.40696 0.32164 0.85177 0.0
C114 C 0.4412 0.50188 0.84479 0.0
H115 H 0.38772 0.52011 0.84182 0.0
H116 H 0.47281 0.51577 0.82652 0.0
H117 H 0.46384 0.52758 0.86314 0.0
C118 C 0.22942 0.35877 0.76249 0.0
N119 N 0.23086 0.362 0.79013 0.0
N120 N 0.28142 0.40011 0.79887 0.0
C121 C 0.31266 0.42592 0.77606 0.0
C122 C 0.27732 0.40322 0.75244 0.0
C123 C 0.18881 0.3076 0.74594 0.0
H124 H 0.16596 0.26775 0.75948 0.0
H125 H 0.14813 0.33448 0.73409 0.0
H126 H 0.22241 0.28186 0.73057 0.0
O127 O 0.18069 0.25388 0.82841 0.0
O128 O 0.243 0.31371 0.85743 0.0
H129 H 0.41852 0.43749 0.78623 0.0
H130 H 0.39222 0.48398 0.75553 0.0
C131 C 0.37669 0.46797 0.77667 0.0
H132 H 0.36814 0.51401 0.78971 0.0
H133 H 0.37426 0.27925 0.85146 0.0
O134 O 0.08682 0.33116 0.79116 0.0
C135 C 0.20766 0.25985 0.85177 0.0
Co136 Co 0.09015 0.26883 0.91199 0.0
Co137 Co 0.03291 0.14327 0.88682 0.0
C138 C 0.96059 0.26822 0.87088 0.0
O139 O 1.01147 0.29508 0.88402 0.0
O140 O 0.95375 0.20239 0.87059 0.0
C141 C 0.04601 0.35861 0.94765 0.0
O142 O 0.99456 0.315 0.9469 0.0
C143 C 1.00601 0.98921 0.87694 0.0
C144 C 0.11369 0.95618 0.87196 0.0
C145 C 0.04771 0.93084 0.87369 0.0
N146 N 0.04615 0.04586 0.87742 0.0
N147 N 0.11028 0.02496 0.87413 0.0
C148 C 0.93002 0.99071 0.88104 0.0
H149 H 0.91177 0.04419 0.88401 0.0
H150 H 0.91608 0.95911 0.89931 0.0
H151 H 0.90436 0.96806 0.86269 0.0
C152 C 0.07312 0.20237 0.96343 0.0
N153 N 0.06983 0.20105 0.93578 0.0
N154 N 0.03178 0.15047 0.92702 0.0
C155 C 1.00604 0.11909 0.94981 0.0
C156 C 0.02884 0.15427 0.97344 0.0
C157 C 0.12424 0.24299 0.98 0.0
H158 H 0.16408 0.26589 0.96647 0.0
H159 H 0.09731 0.28362 -0.00813 0.0
H160 H 0.14999 0.20939 -0.00464 0.0
O161 O 0.17796 0.25133 0.89752 0.0
O162 O 0.11823 0.1889 0.86849 0.0
H163 H 0.99455 1.01325 0.93958 0.0
H164 H 0.94802 0.03942 0.9703 0.0
C165 C 0.96402 0.05504 0.94916 0.0
H166 H 0.91799 0.06359 0.93612 0.0
H167 H 0.15267 0.05766 0.87446 0.0
O168 O 0.10071 0.3451 0.93482 0.0
C169 C 0.17206 0.22426 0.87417 0.0
Co170 Co 0.16308 0.9461 0.16202 0.0
Co171 Co 0.28859 0.88883 0.13683 0.0
C172 C 0.16359 0.81647 0.12093 0.0
O173 O 0.13676 0.86736 0.13407 0.0
O174 O 0.22943 0.80965 0.12063 0.0
C175 C 0.07327 0.90206 0.19769 0.0
O176 O 0.11687 0.85061 0.19699 0.0
C177 C 0.44264 0.86188 0.12696 0.0
C178 C 0.47574 0.96956 0.122 0.0
C179 C 0.50104 0.90357 0.12372 0.0
N180 N 0.38601 0.90203 0.12744 0.0
N181 N 0.40695 0.96616 0.12416 0.0
C182 C 0.4411 0.7859 0.13105 0.0
H183 H 0.38761 0.76766 0.13401 0.0
H184 H 0.4727 0.77194 0.14931 0.0
H185 H 0.46374 0.76025 0.11269 0.0
C186 C 0.22959 0.92914 0.21345 0.0
N187 N 0.23089 0.92583 0.1858 0.0
N188 N 0.28142 0.88773 0.17704 0.0
C189 C 0.31277 0.86197 0.19982 0.0
C190 C 0.27763 0.88481 0.22346 0.0
C191 C 0.18902 0.98028 0.23003 0.0
H192 H 0.16616 0.02013 0.2165 0.0
H193 H 0.14836 0.95338 0.24189 0.0
H194 H 0.22266 1.006 0.24538 0.0
O195 O 0.18057 0.03387 0.14752 0.0
O196 O 0.24298 0.97413 0.1185 0.0
H197 H 0.4186 0.85036 0.1896 0.0
H198 H 0.39234 0.80383 0.2203 0.0
C199 C 0.37677 0.81988 0.19917 0.0
H200 H 0.36815 0.77387 0.18612 0.0
H201 H 0.37428 1.00855 0.12449 0.0
O202 O 0.08686 0.95674 0.18488 0.0
C203 C 0.20763 0.02796 0.12417 0.0
Co204 Co 0.48585 0.01904 0.412 0.0
Co205 Co 0.54311 0.14458 0.38682 0.0
C206 C 0.61542 0.01962 0.37088 0.0
O207 O 0.56454 0.99277 0.38402 0.0
O208 O 0.62226 0.08546 0.37059 0.0
C209 C 0.52998 0.92927 0.44765 0.0
O210 O 0.58143 0.97288 0.44691 0.0
C211 C 0.57002 0.29864 0.37694 0.0
C212 C 0.46233 0.33167 0.37197 0.0
C213 C 0.52832 0.357 0.37369 0.0
N214 N 0.52988 0.24199 0.37742 0.0
N215 N 0.46574 0.26289 0.37414 0.0
C216 C 0.64601 0.29714 0.38103 0.0
H217 H 0.66425 0.24366 0.38399 0.0
H218 H 0.65995 0.32874 0.39929 0.0
H219 H 0.67165 0.31978 0.36267 0.0
C220 C 0.5029 0.08553 0.46344 0.0
N221 N 0.50618 0.08683 0.43579 0.0
N222 N 0.54425 0.1374 0.42702 0.0
C223 C 0.57002 0.16877 0.4498 0.0
C224 C 0.54721 0.13361 0.47344 0.0
C225 C 0.45177 0.04493 0.48002 0.0
H226 H 0.41192 0.02203 0.46649 0.0
H227 H 0.4787 1.0043 0.49188 0.0
H228 H 0.42604 0.07856 0.49537 0.0
O229 O 0.39805 0.03654 0.39753 0.0
O230 O 0.45779 0.09895 0.3685 0.0
H231 H 0.58156 0.2746 0.43958 0.0
H232 H 0.62811 0.2484 0.47028 0.0
C233 C 0.61207 0.2328 0.44915 0.0
H234 H 0.65808 0.22422 0.4361 0.0
H235 H 0.42335 0.23019 0.37447 0.0
O236 O 0.47528 0.94279 0.43484 0.0
C237 C 0.40396 0.06359 0.37418 0.0
Co238 Co 0.41302 0.34185 0.66201 0.0
Co239 Co 0.2875 0.3991 0.63684 0.0
C240 C 0.4125 0.47145 0.62092 0.0
O241 O 0.43933 0.42056 0.63406 0.0
O242 O 0.34666 0.47827 0.62063 0.0
C243 C 0.50282 0.38592 0.69768 0.0
O244 O 0.45921 0.43736 0.69697 0.0
C245 C 0.13345 0.42604 0.62697 0.0
C246 C 0.10036 0.31837 0.62199 0.0
C247 C 0.07505 0.38435 0.62372 0.0
N248 N 0.19008 0.38589 0.62744 0.0
N249 N 0.16914 0.32176 0.62415 0.0
C250 C 0.13499 0.50203 0.63106 0.0
H251 H 0.18848 0.52026 0.63403 0.0
H252 H 0.10338 0.51597 0.64932 0.0
H253 H 0.11236 0.52768 0.6127 0.0
C254 C 0.34651 0.35881 0.71345 0.0
N255 N 0.34522 0.36213 0.6858 0.0
N256 N 0.29467 0.4002 0.67704 0.0
C257 C 0.26329 0.42593 0.69983 0.0
C258 C 0.29843 0.4031 0.72346 0.0
C259 C 0.38709 0.30767 0.73002 0.0
H260 H 0.40997 0.26783 0.71648 0.0
H261 H 0.42774 0.33458 0.74188 0.0
H262 H 0.35346 0.28193 0.74537 0.0
O263 O 0.39553 0.25406 0.64752 0.0
O264 O 0.33311 0.31379 0.6185 0.0
H265 H 0.15746 0.43748 0.6896 0.0
H266 H 0.18366 0.48398 0.72032 0.0
C267 C 0.19926 0.46798 0.69918 0.0
H268 H 0.20786 0.51401 0.68614 0.0
H269 H 0.20182 0.27937 0.62448 0.0
O270 O 0.48925 0.33123 0.68486 0.0
C271 C 0.36846 0.25997 0.62417 0.0
Co272 Co 0.66287 0.44591 0.66208 0.0
Co273 Co 0.78834 0.38861 0.63686 0.0
C274 C 0.66335 0.31619 0.62102 0.0
O275 O 0.63653 0.36707 0.63417 0.0
O276 O 0.7292 0.30942 0.62068 0.0
C277 C 0.57303 0.40207 0.69782 0.0
O278 O 0.61655 0.35054 0.6972 0.0
C279 C 0.9424 0.3617 0.62698 0.0
C280 C 0.97548 0.46937 0.622 0.0
C281 C 1.00079 0.40339 0.62374 0.0
N282 N 0.88576 0.40184 0.62745 0.0
N283 N 0.90669 0.46597 0.62416 0.0
C284 C 0.94087 0.28571 0.63107 0.0
H285 H 0.88738 0.26747 0.63403 0.0
H286 H 0.97247 0.27176 0.64933 0.0
H287 H 0.96351 0.26006 0.61271 0.0
C288 C 0.72942 0.42894 0.71347 0.0
N289 N 0.73073 0.42569 0.68583 0.0
N290 N 0.7812 0.38752 0.67706 0.0
C291 C 0.8125 0.36168 0.69984 0.0
C292 C 0.77729 0.38442 0.72348 0.0
C293 C 0.689 0.4802 0.73005 0.0
H294 H 0.66615 0.52006 0.71652 0.0
H295 H 0.64835 0.45339 0.74196 0.0
H296 H 0.72274 0.5059 0.74538 0.0
O297 O 0.6803 0.53363 0.64752 0.0
O298 O 0.74269 0.47388 0.6185 0.0
H299 H 0.91833 0.35004 0.68963 0.0
H300 H 0.89201 0.30347 0.72032 0.0
C301 C 0.87647 0.31956 0.69919 0.0
H302 H 0.86784 0.27358 0.68612 0.0
H303 H 0.87401 0.50835 0.62448 0.0
O304 O 0.58673 0.45669 0.68498 0.0
C305 C 0.70731 0.5277 0.62416 0.0
Co306 Co 0.91323 0.84204 0.16207 0.0
Co307 Co 0.78774 0.89931 0.13686 0.0
C308 C 0.91274 0.97173 0.12101 0.0
O309 O 0.93957 0.92085 0.13415 0.0
O310 O 0.8469 0.97851 0.12067 0.0
C311 C 1.00306 0.88591 0.1978 0.0
O312 O 0.95954 0.93743 0.19719 0.0
C313 C 0.63369 0.92623 0.12698 0.0
C314 C 0.60061 0.81856 0.12199 0.0
C315 C 0.5753 0.88453 0.12373 0.0
N316 N 0.69033 0.88609 0.12745 0.0
N317 N 0.6694 0.82196 0.12416 0.0
C318 C 0.63522 1.00221 0.13108 0.0
H319 H 0.68871 0.02045 0.13405 0.0
H320 H 0.60361 1.01616 0.14934 0.0
H321 H 0.6126 0.02786 0.11272 0.0
C322 C 0.84668 0.85901 0.21347 0.0
N323 N 0.84538 0.86227 0.18582 0.0
N324 N 0.79488 0.90041 0.17706 0.0
C325 C 0.76356 0.92622 0.19984 0.0
C326 C 0.79877 0.90349 0.22348 0.0
C327 C 0.88711 0.80776 0.23004 0.0
H328 H 0.90997 0.76791 0.21651 0.0
H329 H 0.92776 0.83457 0.24195 0.0
H330 H 0.85339 0.78203 0.24536 0.0
O331 O 0.89579 0.75431 0.14752 0.0
O332 O 0.8334 0.81403 0.1185 0.0
H333 H 0.65773 0.93779 0.18963 0.0
H334 H 0.68399 0.98435 0.22033 0.0
C335 C 0.69956 0.96829 0.1992 0.0
H336 H 0.70817 1.01429 0.18614 0.0
H337 H 0.70208 0.77957 0.12448 0.0
O338 O 0.98938 0.83128 0.18496 0.0
C339 C 0.86878 0.76022 0.12416 0.0
Co340 Co 0.9132 0.4458 0.81384 0.0
Co341 Co 0.78776 0.38845 0.83906 0.0
C342 C 0.91273 0.31607 0.85489 0.0
O343 O 0.93955 0.36697 0.84175 0.0
O344 O 0.84689 0.30926 0.85522 0.0
C345 C 1.00313 0.40205 0.77813 0.0
O346 O 0.95959 0.35052 0.7787 0.0
C347 C 0.63371 0.36155 0.84895 0.0
C348 C 0.60067 0.46923 0.8539 0.0
C349 C 0.57534 0.40325 0.85218 0.0
N350 N 0.69036 0.40168 0.84847 0.0
N351 N 0.66946 0.46582 0.85174 0.0
C352 C 0.63522 0.28555 0.84488 0.0
H353 H 0.6887 0.26731 0.84192 0.0
H354 H 0.6036 0.27157 0.82663 0.0
H355 H 0.61258 0.25994 0.86325 0.0
C356 C 0.84661 0.42883 0.76243 0.0
N357 N 0.84538 0.42551 0.79008 0.0
N358 N 0.79486 0.3874 0.79886 0.0
C359 C 0.76343 0.36165 0.77609 0.0
C360 C 0.79852 0.3845 0.75245 0.0
C361 C 0.88711 0.48001 0.74584 0.0
H362 H 0.90995 0.5199 0.75936 0.0
H363 H 0.92778 0.45314 0.73398 0.0
H364 H 0.85345 0.50567 0.73049 0.0
O365 O 0.89569 0.53352 0.8284 0.0
O366 O 0.83345 0.47367 0.85744 0.0
H367 H 0.65761 0.35009 0.78634 0.0
H368 H 0.68379 0.30352 0.75564 0.0
C369 C 0.69941 0.31958 0.77676 0.0
H370 H 0.70802 0.27358 0.78982 0.0
H371 H 0.70216 0.50821 0.85141 0.0
O372 O 0.98934 0.45669 0.79095 0.0
C373 C 0.8688 0.52752 0.85178 0.0
Co374 Co 0.66285 0.84203 0.31383 0.0
Co375 Co 0.78827 0.89939 0.33906 0.0
C376 C 0.66329 0.97177 0.35489 0.0
O377 O 0.63648 0.92086 0.34174 0.0
O378 O 0.72913 0.97858 0.35522 0.0
C379 C 0.57293 0.88576 0.27812 0.0
O380 O 0.61646 0.93729 0.27869 0.0
C381 C 0.94231 0.9263 0.34896 0.0
C382 C 0.97535 0.81861 0.35389 0.0
C383 C 1.00069 0.88459 0.35218 0.0
N384 N 0.88566 0.88616 0.34847 0.0
N385 N 0.90657 0.82202 0.35173 0.0
C386 C 0.94081 1.0023 0.3449 0.0
H387 H 0.88733 0.02054 0.34194 0.0
H388 H 0.97243 1.01629 0.32664 0.0
H389 H 0.96344 0.0279 0.36327 0.0
C390 C 0.72947 0.85902 0.26243 0.0
N391 N 0.73069 0.86232 0.29008 0.0
N392 N 0.78118 0.90045 0.29886 0.0
C393 C 0.8126 0.92623 0.2761 0.0
C394 C 0.77754 0.90337 0.25245 0.0
C395 C 0.68899 0.80783 0.24583 0.0
H396 H 0.66615 0.76793 0.25935 0.0
H397 H 0.64832 0.83469 0.23397 0.0
H398 H 0.72267 0.78218 0.23047 0.0
O399 O 0.68035 0.75432 0.32839 0.0
O400 O 0.74257 0.81418 0.35743 0.0
H401 H 0.91842 0.93784 0.28634 0.0
H402 H 0.89221 0.98443 0.25565 0.0
C403 C 0.8766 0.96834 0.27677 0.0
H404 H 0.86797 1.01431 0.28984 0.0
H405 H 0.87387 0.77964 0.35139 0.0
O406 O 0.58672 0.83113 0.29093 0.0
C407 C 0.70723 0.76032 0.35178 0.0
Co408 Co 0.59011 0.51889 0.56387 0.0
Co409 Co 0.5327 0.64431 0.58905 0.0
C410 C 0.46037 0.51933 0.60493 0.0
O411 O 0.5113 0.49253 0.5918 0.0
O412 O 0.45352 0.58516 0.60524 0.0
C413 C 0.54623 0.42894 0.52821 0.0
O414 O 0.49469 0.47246 0.52883 0.0
C415 C 0.50577 0.79834 0.59892 0.0
C416 C 0.61345 0.83143 0.60388 0.0
C417 C 0.54746 0.85673 0.60215 0.0
N418 N 0.54592 0.74171 0.59844 0.0
N419 N 0.61005 0.76265 0.60172 0.0
C420 C 0.42977 0.7968 0.59484 0.0
H421 H 0.41154 0.74331 0.59188 0.0
H422 H 0.41581 0.82839 0.57658 0.0
H423 H 0.40414 0.81943 0.6132 0.0
C424 C 0.57299 0.5853 0.51244 0.0
N425 N 0.56977 0.58665 0.54009 0.0
N426 N 0.5316 0.63712 0.54885 0.0
C427 C 0.50574 0.66839 0.52607 0.0
C428 C 0.52846 0.63317 0.50243 0.0
C429 C 0.62423 0.54485 0.49586 0.0
H430 H 0.66414 0.52208 0.50939 0.0
H431 H 0.59741 0.50414 0.484 0.0
H432 H 0.64988 0.57854 0.48051 0.0
O433 O 0.67786 0.53647 0.57839 0.0
O434 O 0.61794 0.59867 0.60743 0.0
H435 H 0.4941 0.77423 0.53626 0.0
H436 H 0.44751 0.74788 0.50559 0.0
C437 C 0.46362 0.73236 0.52671 0.0
H438 H 0.41765 0.72374 0.53979 0.0
H439 H 0.65244 0.72997 0.60139 0.0
O440 O 0.60091 0.4427 0.541 0.0
C441 C 0.67182 0.56339 0.60176 0.0
Co442 Co 0.98601 0.76904 0.06388 0.0
Co443 Co 0.0434 0.64361 0.08905 0.0
C444 C 0.11573 0.76859 0.10494 0.0
O445 O 0.0648 0.7954 0.09181 0.0
O446 O 0.12258 0.70276 0.10524 0.0
C447 C 0.02992 0.85896 0.02822 0.0
O448 O 0.08145 0.81545 0.02885 0.0
C449 C 0.07033 0.48958 0.09891 0.0
C450 C 0.96265 0.45649 0.10388 0.0
C451 C 0.02864 0.43119 0.10215 0.0
N452 N 0.03018 0.5462 0.09844 0.0
N453 N 0.96605 0.52527 0.10172 0.0
C454 C 0.14632 0.49112 0.09483 0.0
H455 H 0.16456 0.54461 0.09186 0.0
H456 H 0.16029 0.45952 0.07657 0.0
H457 H 0.17196 0.46849 0.11319 0.0
C458 C 1.00313 0.70262 0.01245 0.0
N459 N 1.00636 0.70128 0.04009 0.0
N460 N 0.0445 0.65079 0.04885 0.0
C461 C 0.07033 0.61949 0.02606 0.0
C462 C 0.04762 0.65472 0.00243 0.0
C463 C 0.9519 0.74309 -0.00413 0.0
H464 H 0.912 0.76587 0.00941 0.0
H465 H 0.97873 0.78379 0.98401 0.0
H466 H 0.92624 0.70941 0.98052 0.0
O467 O 0.89825 0.75145 0.07839 0.0
O468 O 0.95815 0.68924 0.10743 0.0
H469 H 0.08191 0.51365 0.03626 0.0
H470 H 0.12848 0.53994 0.00557 0.0
C471 C 0.11241 0.5555 0.0267 0.0
H472 H 0.15841 0.56409 0.03977 0.0
H473 H 0.92365 0.55795 0.1014 0.0
O474 O 0.97523 0.84523 0.04102 0.0
C475 C 0.90428 0.72453 0.10176 0.0
Co476 Co 0.58984 0.76918 0.4121 0.0
Co477 Co 0.53254 0.64369 0.38685 0.0
C478 C 0.46012 0.76868 0.37104 0.0
O479 O 0.51101 0.79551 0.38419 0.0
O480 O 0.45335 0.70284 0.37069 0.0
C481 C 0.54611 0.85906 0.44785 0.0
O482 O 0.49456 0.81554 0.44729 0.0
C483 C 0.50563 0.48964 0.37694 0.0
C484 C 0.61332 0.45661 0.37199 0.0
C485 C 0.54734 0.43127 0.37371 0.0
N486 N 0.54576 0.54629 0.37743 0.0
N487 N 0.60991 0.52539 0.37415 0.0
C488 C 0.42963 0.49113 0.38102 0.0
H489 H 0.41138 0.54461 0.38398 0.0
H490 H 0.41565 0.45952 0.39927 0.0
H491 H 0.40402 0.46849 0.36265 0.0
C492 C 0.57287 0.70251 0.46349 0.0
N493 N 0.56955 0.70132 0.43584 0.0
N494 N 0.53147 0.65079 0.42705 0.0
C495 C 0.50573 0.61933 0.44982 0.0
C496 C 0.52857 0.65439 0.47347 0.0
C497 C 0.62406 0.74299 0.48008 0.0
H498 H 0.66394 0.76587 0.46656 0.0
H499 H 0.5972 0.78362 0.49197 0.0
H500 H 0.64976 0.7093 0.49542 0.0
O501 O 0.67756 0.75172 0.39753 0.0
O502 O 0.61779 0.68936 0.36849 0.0
H503 H 0.49421 0.51352 0.43954 0.0
H504 H 0.44764 0.53964 0.47026 0.0
C505 C 0.46369 0.55529 0.44913 0.0
H506 H 0.41768 0.5639 0.43608 0.0
H507 H 0.65229 0.55809 0.37449 0.0
O508 O 0.60071 0.8453 0.43501 0.0
C509 C 0.67161 0.72472 0.37417 0.0
Co510 Co 0.98617 0.51869 0.91211 0.0
Co511 Co 0.04349 0.64416 0.88685 0.0
C512 C 0.11589 0.51916 0.87104 0.0
O513 O 0.06501 0.49234 0.8842 0.0
O514 O 0.12267 0.585 0.87069 0.0
C515 C 0.02988 0.42882 0.94786 0.0
O516 O 0.08143 0.47234 0.9473 0.0
C517 C 0.0704 0.79821 0.87694 0.0
C518 C 0.9627 0.83124 0.87199 0.0
C519 C 0.02868 0.85658 0.87371 0.0
N520 N 0.03026 0.74156 0.87743 0.0
N521 N 0.96612 0.76246 0.87416 0.0
C522 C 0.1464 0.79672 0.881 0.0
H523 H 0.16465 0.74324 0.88396 0.0
H524 H 0.16038 0.82834 0.89926 0.0
H525 H 0.172 0.81936 0.86263 0.0
C526 C 1.00315 0.58539 0.96349 0.0
N527 N 1.00645 0.58657 0.93585 0.0
N528 N 0.04456 0.63708 0.92705 0.0
C529 C 0.07033 0.66854 0.94981 0.0
C530 C 0.04749 0.63349 0.97346 0.0
C531 C 0.95195 0.54494 0.9801 0.0
H532 H 0.91207 0.52206 0.96658 0.0
H533 H 0.97881 0.5043 -0.00802 0.0
H534 H 0.92627 0.57865 -0.00457 0.0
O535 O 0.89845 0.53615 0.89754 0.0
O536 O 0.95824 0.59849 0.86849 0.0
H537 H 0.08189 0.77434 0.93955 0.0
H538 H 0.12849 0.74819 0.97024 0.0
C539 C 0.11241 0.73255 0.94912 0.0
H540 H 0.15839 0.72392 0.93606 0.0
H541 H 0.92373 0.72976 0.8745 0.0
O542 O 0.97528 0.44259 0.93502 0.0
C543 C 0.90441 0.56313 0.87417 0.0
loop_
_geom_bond_atom_site_label_1
_geom_bond_atom_site_label_2
_geom_bond_distance
_geom_bond_site_symmetry_2
_ccdc_geom_bond_type
Co0 O3 1.970 1_465 S
Co0 N17 1.989 1_565 S
Co0 O25 1.967 1_565 S
Co0 O32 1.920 . S
Co1 O4 1.966 1_455 S
Co1 N10 2.022 . S
Co1 N18 1.993 . S
Co1 O26 1.941 . S
C2 O3 1.258 . S
C2 O4 1.263 . S
O3 Co0 1.970 1_645 S
O3 C2 1.258 . S
O4 Co1 1.966 1_655 S
O4 C2 1.263 . S
C5 O6 1.235 . S
C5 O32 1.289 1_655 S
O6 C5 1.235 . S
C7 C9 1.400 1_655 S
C7 N10 1.351 1_655 S
C7 C12 1.501 . S
C8 C9 1.387 . S
C8 N11 1.341 . S
C9 C7 1.400 1_455 S
C9 C8 1.387 . S
N10 Co1 2.022 . S
N10 C7 1.351 1_455 S
N10 N11 1.365 . S
N11 C8 1.341 . S
N11 N10 1.365 . S
N11 H31 0.862 . S
C12 C7 1.501 . S
C12 H13 0.961 . S
C12 H14 0.961 . S
C12 H15 0.960 . S
H13 C12 0.961 . S
H14 C12 0.961 . S
H15 C12 0.960 . S
C16 N17 1.342 . S
C16 C20 1.401 . S
C16 C21 1.499 1_545 S
N17 Co0 1.989 1_545 S
N17 C16 1.342 . S
N17 N18 1.388 . S
N18 Co1 1.993 . S
N18 N17 1.388 . S
N18 C19 1.346 . S
C19 N18 1.346 . S
C19 C20 1.396 . S
C19 C29 1.510 . S
C20 C16 1.401 . S
C20 C19 1.396 . S
C21 C16 1.499 1_565 S
C21 H22 0.959 . S
C21 H23 0.961 1_554 S
C21 H24 0.961 . S
H22 C21 0.959 . S
H23 C21 0.961 1_556 S
H24 C21 0.961 . S
O25 Co0 1.967 1_545 S
O25 C33 1.258 . S
O26 Co1 1.941 . S
O26 C33 1.266 . S
H27 C29 0.959 . S
H28 C29 0.961 1_655 S
C29 C19 1.510 . S
C29 H27 0.959 . S
C29 H28 0.961 1_455 S
C29 H30 0.960 . S
H30 C29 0.960 . S
H31 N11 0.862 . S
O32 Co0 1.920 . S
O32 C5 1.289 1_455 S
C33 O25 1.258 . S
C33 O26 1.266 . S
Co34 O37 1.970 . S
Co34 N51 1.989 . S
Co34 O59 1.967 . S
Co34 O66 1.920 . S
Co35 O38 1.966 . S
Co35 N44 2.022 . S
Co35 N52 1.993 . S
Co35 O60 1.941 . S
C36 O37 1.258 . S
C36 O38 1.263 . S
O37 Co34 1.970 . S
O37 C36 1.258 . S
O38 Co35 1.966 . S
O38 C36 1.263 . S
C39 O40 1.235 . S
C39 O66 1.289 . S
O40 C39 1.235 . S
C41 C43 1.400 . S
C41 N44 1.351 . S
C41 C46 1.501 . S
C42 C43 1.387 . S
C42 N45 1.341 . S
C43 C41 1.400 . S
C43 C42 1.387 . S
N44 Co35 2.022 . S
N44 C41 1.351 . S
N44 N45 1.365 . S
N45 C42 1.341 . S
N45 N44 1.365 . S
N45 H65 0.862 . S
C46 C41 1.501 . S
C46 H47 0.961 . S
C46 H48 0.961 . S
C46 H49 0.960 . S
H47 C46 0.961 . S
H48 C46 0.961 . S
H49 C46 0.960 . S
C50 N51 1.342 . S
C50 C54 1.401 . S
C50 C55 1.499 . S
N51 Co34 1.989 . S
N51 C50 1.342 . S
N51 N52 1.388 . S
N52 Co35 1.993 . S
N52 N51 1.388 . S
N52 C53 1.346 . S
C53 N52 1.346 . S
C53 C54 1.396 . S
C53 C63 1.510 . S
C54 C50 1.401 . S
C54 C53 1.396 . S
C55 C50 1.499 . S
C55 H56 0.959 . S
C55 H57 0.960 . S
C55 H58 0.961 . S
H56 C55 0.959 . S
H57 C55 0.960 . S
H58 C55 0.961 . S
O59 Co34 1.967 . S
O59 C67 1.258 . S
O60 Co35 1.941 . S
O60 C67 1.266 . S
H61 C63 0.959 . S
H62 C63 0.961 . S
C63 C53 1.510 . S
C63 H61 0.959 . S
C63 H62 0.961 . S
C63 H64 0.960 . S
H64 C63 0.960 . S
H65 N45 0.862 . S
O66 Co34 1.920 . S
O66 C39 1.289 . S
C67 O59 1.258 . S
C67 O60 1.266 . S
Co68 O71 1.970 . S
Co68 N85 1.989 . S
Co68 O93 1.967 . S
Co68 O100 1.920 . S
Co69 O72 1.966 . S
Co69 N78 2.022 . S
Co69 N86 1.993 . S
Co69 O94 1.941 . S
C70 O71 1.258 . S
C70 O72 1.263 . S
O71 Co68 1.970 . S
O71 C70 1.258 . S
O72 Co69 1.966 . S
O72 C70 1.263 . S
C73 O74 1.235 . S
C73 O100 1.289 . S
O74 C73 1.235 . S
C75 C77 1.400 . S
C75 N78 1.351 1_565 S
C75 C80 1.501 . S
C76 C77 1.387 . S
C76 N79 1.341 . S
C77 C75 1.400 . S
C77 C76 1.387 . S
N78 Co69 2.022 . S
N78 C75 1.351 1_545 S
N78 N79 1.365 1_545 S
N79 C76 1.341 . S
N79 N78 1.365 1_565 S
N79 H99 0.862 . S
C80 C75 1.501 . S
C80 H81 0.961 1_565 S
C80 H82 0.961 . S
C80 H83 0.960 . S
H81 C80 0.961 1_545 S
H82 C80 0.961 . S
H83 C80 0.960 . S
C84 N85 1.342 . S
C84 C88 1.401 . S
C84 C89 1.499 . S
N85 Co68 1.989 . S
N85 C84 1.342 . S
N85 N86 1.388 . S
N86 Co69 1.993 . S
N86 N85 1.388 . S
N86 C87 1.346 . S
C87 N86 1.346 . S
C87 C88 1.396 . S
C87 C97 1.510 . S
C88 C84 1.401 . S
C88 C87 1.396 . S
C89 C84 1.499 . S
C89 H90 0.959 . S
C89 H91 0.960 . S
C89 H92 0.961 . S
H90 C89 0.959 . S
H91 C89 0.960 . S
H92 C89 0.961 . S
O93 Co68 1.967 . S
O93 C101 1.258 . S
O94 Co69 1.941 . S
O94 C101 1.266 . S
H95 C97 0.959 1_565 S
H96 C97 0.961 1_565 S
C97 C87 1.510 . S
C97 H95 0.959 1_545 S
C97 H96 0.961 1_545 S
C97 H98 0.960 1_545 S
H98 C97 0.960 1_565 S
H99 N79 0.862 . S
O100 Co68 1.920 . S
O100 C73 1.289 . S
C101 O93 1.258 . S
C101 O94 1.266 . S
Co102 O105 1.970 . S
Co102 N119 1.989 . S
Co102 O127 1.967 . S
Co102 O134 1.920 . S
Co103 O106 1.966 . S
Co103 N112 2.022 . S
Co103 N120 1.993 . S
Co103 O128 1.941 . S
C104 O105 1.258 . S
C104 O106 1.263 . S
O105 Co102 1.970 . S
O105 C104 1.258 . S
O106 Co103 1.966 . S
O106 C104 1.263 . S
C107 O108 1.235 . S
C107 O134 1.289 . S
O108 C107 1.235 . S
C109 C111 1.400 . S
C109 N112 1.351 . S
C109 C114 1.501 . S
C110 C111 1.387 . S
C110 N113 1.341 . S
C111 C109 1.400 . S
C111 C110 1.387 . S
N112 Co103 2.022 . S
N112 C109 1.351 . S
N112 N113 1.365 . S
N113 C110 1.341 . S
N113 N112 1.365 . S
N113 H133 0.862 . S
C114 C109 1.501 . S
C114 H115 0.961 . S
C114 H116 0.961 . S
C114 H117 0.960 . S
H115 C114 0.961 . S
H116 C114 0.961 . S
H117 C114 0.960 . S
C118 N119 1.342 . S
C118 C122 1.401 . S
C118 C123 1.499 . S
N119 Co102 1.989 . S
N119 C118 1.342 . S
N119 N120 1.388 . S
N120 Co103 1.993 . S
N120 N119 1.388 . S
N120 C121 1.346 . S
C121 N120 1.346 . S
C121 C122 1.396 . S
C121 C131 1.510 . S
C122 C118 1.401 . S
C122 C121 1.396 . S
C123 C118 1.499 . S
C123 H124 0.959 . S
C123 H125 0.960 . S
C123 H126 0.961 . S
H124 C123 0.959 . S
H125 C123 0.960 . S
H126 C123 0.961 . S
O127 Co102 1.967 . S
O127 C135 1.258 . S
O128 Co103 1.941 . S
O128 C135 1.266 . S
H129 C131 0.959 . S
H130 C131 0.961 . S
C131 C121 1.510 . S
C131 H129 0.959 . S
C131 H130 0.961 . S
C131 H132 0.960 . S
H132 C131 0.960 . S
H133 N113 0.862 . S
O134 Co102 1.920 . S
O134 C107 1.289 . S
C135 O127 1.258 . S
C135 O128 1.266 . S
Co136 O139 1.970 1_455 S
Co136 N153 1.989 . S
Co136 O161 1.967 . S
Co136 O168 1.920 . S
Co137 O140 1.966 1_455 S
Co137 N146 2.022 . S
Co137 N154 1.993 . S
Co137 O162 1.941 . S
C138 O139 1.258 . S
C138 O140 1.263 . S
O139 Co136 1.970 1_655 S
O139 C138 1.258 . S
O140 Co137 1.966 1_655 S
O140 C138 1.263 . S
C141 O142 1.235 . S
C141 O168 1.289 1_655 S
O142 C141 1.235 . S
C143 C145 1.400 1_655 S
C143 N146 1.351 1_665 S
C143 C148 1.501 . S
C144 C145 1.387 . S
C144 N147 1.341 . S
C145 C143 1.400 1_455 S
C145 C144 1.387 . S
N146 Co137 2.022 . S
N146 C143 1.351 1_445 S
N146 N147 1.365 1_545 S
N147 C144 1.341 . S
N147 N146 1.365 1_565 S
N147 H167 0.862 . S
C148 C143 1.501 . S
C148 H149 0.961 1_565 S
C148 H150 0.961 . S
C148 H151 0.960 . S
H149 C148 0.961 1_545 S
H150 C148 0.961 . S
H151 C148 0.960 . S
C152 N153 1.342 . S
C152 C156 1.401 . S
C152 C157 1.499 . S
N153 Co136 1.989 . S
N153 C152 1.342 . S
N153 N154 1.388 . S
N154 Co137 1.993 . S
N154 N153 1.388 . S
N154 C155 1.346 . S
C155 N154 1.346 . S
C155 C156 1.396 . S
C155 C165 1.510 . S
C156 C152 1.401 . S
C156 C155 1.396 . S
C157 C152 1.499 . S
C157 H158 0.959 . S
C157 H159 0.961 1_556 S
C157 H160 0.961 . S
H158 C157 0.959 . S
H159 C157 0.961 1_554 S
H160 C157 0.961 . S
O161 Co136 1.967 . S
O161 C169 1.258 . S
O162 Co137 1.941 . S
O162 C169 1.266 . S
H163 C165 0.959 1_565 S
H164 C165 0.961 1_665 S
C165 C155 1.510 . S
C165 H163 0.959 1_545 S
C165 H164 0.961 1_445 S
C165 H166 0.960 1_545 S
H166 C165 0.960 1_565 S
H167 N147 0.862 . S
O168 Co136 1.920 . S
O168 C141 1.289 1_455 S
C169 O161 1.258 . S
C169 O162 1.266 . S
Co170 O173 1.970 . S
Co170 N187 1.989 . S
Co170 O195 1.967 . S
Co170 O202 1.920 . S
Co171 O174 1.966 . S
Co171 N180 2.022 . S
Co171 N188 1.993 . S
Co171 O196 1.941 . S
C172 O173 1.258 . S
C172 O174 1.263 . S
O173 Co170 1.970 . S
O173 C172 1.258 . S
O174 Co171 1.966 . S
O174 C172 1.263 . S
C175 O176 1.235 . S
C175 O202 1.289 . S
O176 C175 1.235 . S
C177 C179 1.400 . S
C177 N180 1.351 . S
C177 C182 1.501 . S
C178 C179 1.387 . S
C178 N181 1.341 . S
C179 C177 1.400 . S
C179 C178 1.387 . S
N180 Co171 2.022 . S
N180 C177 1.351 . S
N180 N181 1.365 . S
N181 C178 1.341 . S
N181 N180 1.365 . S
N181 H201 0.862 . S
C182 C177 1.501 . S
C182 H183 0.961 . S
C182 H184 0.961 . S
C182 H185 0.960 . S
H183 C182 0.961 . S
H184 C182 0.961 . S
H185 C182 0.960 . S
C186 N187 1.342 . S
C186 C190 1.401 . S
C186 C191 1.499 . S
N187 Co170 1.989 . S
N187 C186 1.342 . S
N187 N188 1.388 . S
N188 Co171 1.993 . S
N188 N187 1.388 . S
N188 C189 1.346 . S
C189 N188 1.346 . S
C189 C190 1.396 . S
C189 C199 1.510 . S
C190 C186 1.401 . S
C190 C189 1.396 . S
C191 C186 1.499 . S
C191 H192 0.959 . S
C191 H193 0.960 . S
C191 H194 0.961 . S
H192 C191 0.959 . S
H193 C191 0.960 . S
H194 C191 0.961 . S
O195 Co170 1.967 . S
O195 C203 1.258 . S
O196 Co171 1.941 . S
O196 C203 1.266 . S
H197 C199 0.959 . S
H198 C199 0.961 . S
C199 C189 1.510 . S
C199 H197 0.959 . S
C199 H198 0.961 . S
C199 H200 0.960 . S
H200 C199 0.960 . S
H201 N181 0.862 . S
O202 Co170 1.920 . S
O202 C175 1.289 . S
C203 O195 1.258 . S
C203 O196 1.266 . S
Co204 O207 1.970 1_565 S
Co204 N221 1.989 1_565 S
Co204 O229 1.967 1_565 S
Co204 O236 1.920 . S
Co205 O208 1.966 . S
Co205 N214 2.022 . S
Co205 N222 1.993 . S
Co205 O230 1.941 . S
C206 O207 1.258 . S
C206 O208 1.263 . S
O207 Co204 1.970 1_545 S
O207 C206 1.258 . S
O208 Co205 1.966 . S
O208 C206 1.263 . S
C209 O210 1.235 . S
C209 O236 1.289 . S
O210 C209 1.235 . S
C211 C213 1.400 . S
C211 N214 1.351 . S
C211 C216 1.501 . S
C212 C213 1.387 . S
C212 N215 1.341 . S
C213 C211 1.400 . S
C213 C212 1.387 . S
N214 Co205 2.022 . S
N214 C211 1.351 . S
N214 N215 1.365 . S
N215 C212 1.341 . S
N215 N214 1.365 . S
N215 H235 0.862 . S
C216 C211 1.501 . S
C216 H217 0.961 . S
C216 H218 0.961 . S
C216 H219 0.960 . S
H217 C216 0.961 . S
H218 C216 0.961 . S
H219 C216 0.960 . S
C220 N221 1.342 . S
C220 C224 1.401 . S
C220 C225 1.499 1_545 S
N221 Co204 1.989 1_545 S
N221 C220 1.342 . S
N221 N222 1.388 . S
N222 Co205 1.993 . S
N222 N221 1.388 . S
N222 C223 1.346 . S
C223 N222 1.346 . S
C223 C224 1.396 . S
C223 C233 1.510 . S
C224 C220 1.401 . S
C224 C223 1.396 . S
C225 C220 1.499 1_565 S
C225 H226 0.959 . S
C225 H227 0.960 . S
C225 H228 0.961 . S
H226 C225 0.959 . S
H227 C225 0.960 . S
H228 C225 0.961 . S
O229 Co204 1.967 1_545 S
O229 C237 1.258 . S
O230 Co205 1.941 . S
O230 C237 1.266 . S
H231 C233 0.959 . S
H232 C233 0.961 . S
C233 C223 1.510 . S
C233 H231 0.959 . S
C233 H232 0.961 . S
C233 H234 0.960 . S
H234 C233 0.960 . S
H235 N215 0.862 . S
O236 Co204 1.920 . S
O236 C209 1.289 . S
C237 O229 1.258 . S
C237 O230 1.266 . S
Co238 O241 1.970 . S
Co238 N255 1.989 . S
Co238 O263 1.967 . S
Co238 O270 1.920 . S
Co239 O242 1.966 . S
Co239 N248 2.022 . S
Co239 N256 1.993 . S
Co239 O264 1.941 . S
C240 O241 1.258 . S
C240 O242 1.263 . S
O241 Co238 1.970 . S
O241 C240 1.258 . S
O242 Co239 1.966 . S
O242 C240 1.263 . S
C243 O244 1.235 . S
C243 O270 1.289 . S
O244 C243 1.235 . S
C245 C247 1.400 . S
C245 N248 1.351 . S
C245 C250 1.501 . S
C246 C247 1.387 . S
C246 N249 1.341 . S
C247 C245 1.400 . S
C247 C246 1.387 . S
N248 Co239 2.022 . S
N248 C245 1.351 . S
N248 N249 1.365 . S
N249 C246 1.341 . S
N249 N248 1.365 . S
N249 H269 0.862 . S
C250 C245 1.501 . S
C250 H251 0.961 . S
C250 H252 0.961 . S
C250 H253 0.960 . S
H251 C250 0.961 . S
H252 C250 0.961 . S
H253 C250 0.960 . S
C254 N255 1.342 . S
C254 C258 1.401 . S
C254 C259 1.499 . S
N255 Co238 1.989 . S
N255 C254 1.342 . S
N255 N256 1.388 . S
N256 Co239 1.993 . S
N256 N255 1.388 . S
N256 C257 1.346 . S
C257 N256 1.346 . S
C257 C258 1.396 . S
C257 C267 1.510 . S
C258 C254 1.401 . S
C258 C257 1.396 . S
C259 C254 1.499 . S
C259 H260 0.959 . S
C259 H261 0.960 . S
C259 H262 0.961 . S
H260 C259 0.959 . S
H261 C259 0.960 . S
H262 C259 0.961 . S
O263 Co238 1.967 . S
O263 C271 1.258 . S
O264 Co239 1.941 . S
O264 C271 1.266 . S
H265 C267 0.959 . S
H266 C267 0.961 . S
C267 C257 1.510 . S
C267 H265 0.959 . S
C267 H266 0.961 . S
C267 H268 0.960 . S
H268 C267 0.960 . S
H269 N249 0.862 . S
O270 Co238 1.920 . S
O270 C243 1.289 . S
C271 O263 1.258 . S
C271 O264 1.266 . S
Co272 O275 1.970 . S
Co272 N289 1.989 . S
Co272 O297 1.967 . S
Co272 O304 1.920 . S
Co273 O276 1.966 . S
Co273 N282 2.022 . S
Co273 N290 1.993 . S
Co273 O298 1.941 . S
C274 O275 1.258 . S
C274 O276 1.263 . S
O275 Co272 1.970 . S
O275 C274 1.258 . S
O276 Co273 1.966 . S
O276 C274 1.263 . S
C277 O278 1.235 . S
C277 O304 1.289 . S
O278 C277 1.235 . S
C279 C281 1.400 . S
C279 N282 1.351 . S
C279 C284 1.501 . S
C280 C281 1.387 . S
C280 N283 1.341 . S
C281 C279 1.400 . S
C281 C280 1.387 . S
N282 Co273 2.022 . S
N282 C279 1.351 . S
N282 N283 1.365 . S
N283 C280 1.341 . S
N283 N282 1.365 . S
N283 H303 0.862 . S
C284 C279 1.501 . S
C284 H285 0.961 . S
C284 H286 0.961 . S
C284 H287 0.960 . S
H285 C284 0.961 . S
H286 C284 0.961 . S
H287 C284 0.960 . S
C288 N289 1.342 . S
C288 C292 1.401 . S
C288 C293 1.499 . S
N289 Co272 1.989 . S
N289 C288 1.342 . S
N289 N290 1.388 . S
N290 Co273 1.993 . S
N290 N289 1.388 . S
N290 C291 1.346 . S
C291 N290 1.346 . S
C291 C292 1.396 . S
C291 C301 1.510 . S
C292 C288 1.401 . S
C292 C291 1.396 . S
C293 C288 1.499 . S
C293 H294 0.959 . S
C293 H295 0.960 . S
C293 H296 0.961 . S
H294 C293 0.959 . S
H295 C293 0.960 . S
H296 C293 0.961 . S
O297 Co272 1.967 . S
O297 C305 1.258 . S
O298 Co273 1.941 . S
O298 C305 1.266 . S
H299 C301 0.959 . S
H300 C301 0.961 . S
C301 C291 1.510 . S
C301 H299 0.959 . S
C301 H300 0.961 . S
C301 H302 0.960 . S
H302 C301 0.960 . S
H303 N283 0.862 . S
O304 Co272 1.920 . S
O304 C277 1.289 . S
C305 O297 1.258 . S
C305 O298 1.266 . S
Co306 O309 1.970 . S
Co306 N323 1.989 . S
Co306 O331 1.967 . S
Co306 O338 1.920 . S
Co307 O310 1.966 . S
Co307 N316 2.022 . S
Co307 N324 1.993 . S
Co307 O332 1.941 . S
C308 O309 1.258 . S
C308 O310 1.263 . S
O309 Co306 1.970 . S
O309 C308 1.258 . S
O310 Co307 1.966 . S
O310 C308 1.263 . S
C311 O312 1.235 1_455 S
C311 O338 1.289 1_455 S
O312 C311 1.235 1_655 S
C313 C315 1.400 . S
C313 N316 1.351 . S
C313 C318 1.501 . S
C314 C315 1.387 . S
C314 N317 1.341 . S
C315 C313 1.400 . S
C315 C314 1.387 . S
N316 Co307 2.022 . S
N316 C313 1.351 . S
N316 N317 1.365 . S
N317 C314 1.341 . S
N317 N316 1.365 . S
N317 H337 0.862 . S
C318 C313 1.501 . S
C318 H319 0.961 . S
C318 H320 0.961 1_565 S
C318 H321 0.960 . S
H319 C318 0.961 . S
H320 C318 0.961 1_545 S
H321 C318 0.960 . S
C322 N323 1.342 . S
C322 C326 1.401 . S
C322 C327 1.499 . S
N323 Co306 1.989 . S
N323 C322 1.342 . S
N323 N324 1.388 . S
N324 Co307 1.993 . S
N324 N323 1.388 . S
N324 C325 1.346 . S
C325 N324 1.346 . S
C325 C326 1.396 . S
C325 C335 1.510 . S
C326 C322 1.401 . S
C326 C325 1.396 . S
C327 C322 1.499 . S
C327 H328 0.959 . S
C327 H329 0.960 . S
C327 H330 0.961 . S
H328 C327 0.959 . S
H329 C327 0.960 . S
H330 C327 0.961 . S
O331 Co306 1.967 . S
O331 C339 1.258 . S
O332 Co307 1.941 . S
O332 C339 1.266 . S
H333 C335 0.959 . S
H334 C335 0.961 . S
C335 C325 1.510 . S
C335 H333 0.959 . S
C335 H334 0.961 . S
C335 H336 0.960 . S
H336 C335 0.960 . S
H337 N317 0.862 . S
O338 Co306 1.920 . S
O338 C311 1.289 1_655 S
C339 O331 1.258 . S
C339 O332 1.266 . S
Co340 O343 1.970 . S
Co340 N357 1.989 . S
Co340 O365 1.967 . S
Co340 O372 1.920 . S
Co341 O344 1.966 . S
Co341 N350 2.022 . S
Co341 N358 1.993 . S
Co341 O366 1.941 . S
C342 O343 1.258 . S
C342 O344 1.263 . S
O343 Co340 1.970 . S
O343 C342 1.258 . S
O344 Co341 1.966 . S
O344 C342 1.263 . S
C345 O346 1.235 1_455 S
C345 O372 1.289 1_455 S
O346 C345 1.235 1_655 S
C347 C349 1.400 . S
C347 N350 1.351 . S
C347 C352 1.501 . S
C348 C349 1.387 . S
C348 N351 1.341 . S
C349 C347 1.400 . S
C349 C348 1.387 . S
N350 Co341 2.022 . S
N350 C347 1.351 . S
N350 N351 1.365 . S
N351 C348 1.341 . S
N351 N350 1.365 . S
N351 H371 0.862 . S
C352 C347 1.501 . S
C352 H353 0.961 . S
C352 H354 0.961 . S
C352 H355 0.960 . S
H353 C352 0.961 . S
H354 C352 0.961 . S
H355 C352 0.960 . S
C356 N357 1.342 . S
C356 C360 1.401 . S
C356 C361 1.499 . S
N357 Co340 1.989 . S
N357 C356 1.342 . S
N357 N358 1.388 . S
N358 Co341 1.993 . S
N358 N357 1.388 . S
N358 C359 1.346 . S
C359 N358 1.346 . S
C359 C360 1.396 . S
C359 C369 1.510 . S
C360 C356 1.401 . S
C360 C359 1.396 . S
C361 C356 1.499 . S
C361 H362 0.959 . S
C361 H363 0.960 . S
C361 H364 0.961 . S
H362 C361 0.959 . S
H363 C361 0.960 . S
H364 C361 0.961 . S
O365 Co340 1.967 . S
O365 C373 1.258 . S
O366 Co341 1.941 . S
O366 C373 1.266 . S
H367 C369 0.959 . S
H368 C369 0.961 . S
C369 C359 1.510 . S
C369 H367 0.959 . S
C369 H368 0.961 . S
C369 H370 0.960 . S
H370 C369 0.960 . S
H371 N351 0.862 . S
O372 Co340 1.920 . S
O372 C345 1.289 1_655 S
C373 O365 1.258 . S
C373 O366 1.266 . S
Co374 O377 1.970 . S
Co374 N391 1.989 . S
Co374 O399 1.967 . S
Co374 O406 1.920 . S
Co375 O378 1.966 . S
Co375 N384 2.022 . S
Co375 N392 1.993 . S
Co375 O400 1.941 . S
C376 O377 1.258 . S
C376 O378 1.263 . S
O377 Co374 1.970 . S
O377 C376 1.258 . S
O378 Co375 1.966 . S
O378 C376 1.263 . S
C379 O380 1.235 . S
C379 O406 1.289 . S
O380 C379 1.235 . S
C381 C383 1.400 . S
C381 N384 1.351 . S
C381 C386 1.501 . S
C382 C383 1.387 . S
C382 N385 1.341 . S
C383 C381 1.400 . S
C383 C382 1.387 . S
N384 Co375 2.022 . S
N384 C381 1.351 . S
N384 N385 1.365 . S
N385 C382 1.341 . S
N385 N384 1.365 . S
N385 H405 0.862 . S
C386 C381 1.501 . S
C386 H387 0.961 . S
C386 H388 0.961 1_565 S
C386 H389 0.960 . S
H387 C386 0.961 . S
H388 C386 0.961 1_545 S
H389 C386 0.960 . S
C390 N391 1.342 . S
C390 C394 1.401 . S
C390 C395 1.499 . S
N391 Co374 1.989 . S
N391 C390 1.342 . S
N391 N392 1.388 . S
N392 Co375 1.993 . S
N392 N391 1.388 . S
N392 C393 1.346 . S
C393 N392 1.346 . S
C393 C394 1.396 . S
C393 C403 1.510 . S
C394 C390 1.401 . S
C394 C393 1.396 . S
C395 C390 1.499 . S
C395 H396 0.959 . S
C395 H397 0.960 . S
C395 H398 0.961 . S
H396 C395 0.959 . S
H397 C395 0.960 . S
H398 C395 0.961 . S
O399 Co374 1.967 . S
O399 C407 1.258 . S
O400 Co375 1.941 . S
O400 C407 1.266 . S
H401 C403 0.959 . S
H402 C403 0.961 . S
C403 C393 1.510 . S
C403 H401 0.959 . S
C403 H402 0.961 . S
C403 H404 0.960 . S
H404 C403 0.960 . S
H405 N385 0.862 . S
O406 Co374 1.920 . S
O406 C379 1.289 . S
C407 O399 1.258 . S
C407 O400 1.266 . S
Co408 O411 1.970 . S
Co408 N425 1.989 . S
Co408 O433 1.967 . S
Co408 O440 1.920 . S
Co409 O412 1.966 . S
Co409 N418 2.022 . S
Co409 N426 1.993 . S
Co409 O434 1.941 . S
C410 O411 1.258 . S
C410 O412 1.263 . S
O411 Co408 1.970 . S
O411 C410 1.258 . S
O412 Co409 1.966 . S
O412 C410 1.263 . S
C413 O414 1.235 . S
C413 O440 1.289 . S
O414 C413 1.235 . S
C415 C417 1.400 . S
C415 N418 1.351 . S
C415 C420 1.501 . S
C416 C417 1.387 . S
C416 N419 1.341 . S
C417 C415 1.400 . S
C417 C416 1.387 . S
N418 Co409 2.022 . S
N418 C415 1.351 . S
N418 N419 1.365 . S
N419 C416 1.341 . S
N419 N418 1.365 . S
N419 H439 0.862 . S
C420 C415 1.501 . S
C420 H421 0.961 . S
C420 H422 0.961 . S
C420 H423 0.960 . S
H421 C420 0.961 . S
H422 C420 0.961 . S
H423 C420 0.960 . S
C424 N425 1.342 . S
C424 C428 1.401 . S
C424 C429 1.499 . S
N425 Co408 1.989 . S
N425 C424 1.342 . S
N425 N426 1.388 . S
N426 Co409 1.993 . S
N426 N425 1.388 . S
N426 C427 1.346 . S
C427 N426 1.346 . S
C427 C428 1.396 . S
C427 C437 1.510 . S
C428 C424 1.401 . S
C428 C427 1.396 . S
C429 C424 1.499 . S
C429 H430 0.959 . S
C429 H431 0.960 . S
C429 H432 0.961 . S
H430 C429 0.959 . S
H431 C429 0.960 . S
H432 C429 0.961 . S
O433 Co408 1.967 . S
O433 C441 1.258 . S
O434 Co409 1.941 . S
O434 C441 1.266 . S
H435 C437 0.959 . S
H436 C437 0.961 . S
C437 C427 1.510 . S
C437 H435 0.959 . S
C437 H436 0.961 . S
C437 H438 0.960 . S
H438 C437 0.960 . S
H439 N419 0.862 . S
O440 Co408 1.920 . S
O440 C413 1.289 . S
C441 O433 1.258 . S
C441 O434 1.266 . S
Co442 O445 1.970 . S
Co442 N459 1.989 . S
Co442 O467 1.967 1_455 S
Co442 O474 1.920 . S
Co443 O446 1.966 . S
Co443 N452 2.022 . S
Co443 N460 1.993 . S
Co443 O468 1.941 1_455 S
C444 O445 1.258 . S
C444 O446 1.263 . S
O445 Co442 1.970 . S
O445 C444 1.258 . S
O446 Co443 1.966 . S
O446 C444 1.263 . S
C447 O448 1.235 . S
C447 O474 1.289 . S
O448 C447 1.235 . S
C449 C451 1.400 . S
C449 N452 1.351 . S
C449 C454 1.501 . S
C450 C451 1.387 1_655 S
C450 N453 1.341 . S
C451 C449 1.400 . S
C451 C450 1.387 1_455 S
N452 Co443 2.022 . S
N452 C449 1.351 . S
N452 N453 1.365 1_455 S
N453 C450 1.341 . S
N453 N452 1.365 1_655 S
N453 H473 0.862 . S
C454 C449 1.501 . S
C454 H455 0.961 . S
C454 H456 0.961 . S
C454 H457 0.960 . S
H455 C454 0.961 . S
H456 C454 0.961 . S
H457 C454 0.960 . S
C458 N459 1.342 . S
C458 C462 1.402 . S
C458 C463 1.499 1_455 S
N459 Co442 1.989 . S
N459 C458 1.342 . S
N459 N460 1.388 . S
N460 Co443 1.993 . S
N460 N459 1.388 . S
N460 C461 1.346 . S
C461 N460 1.346 . S
C461 C462 1.398 . S
C461 C471 1.510 . S
C462 C458 1.402 . S
C462 C461 1.398 . S
C463 C458 1.499 1_655 S
C463 H464 0.959 1_655 S
C463 H465 0.961 1_654 S
C463 H466 0.961 . S
H464 C463 0.959 1_455 S
H465 C463 0.961 1_456 S
H466 C463 0.961 . S
O467 Co442 1.967 1_655 S
O467 C475 1.258 . S
O468 Co443 1.941 1_655 S
O468 C475 1.266 . S
H469 C471 0.959 1_655 S
H470 C471 0.961 . S
C471 C461 1.510 . S
C471 H469 0.959 1_455 S
C471 H470 0.961 . S
C471 H472 0.960 . S
H472 C471 0.960 . S
H473 N453 0.862 . S
O474 Co442 1.920 . S
O474 C447 1.289 . S
C475 O467 1.258 . S
C475 O468 1.266 . S
Co476 O479 1.970 . S
Co476 N493 1.989 . S
Co476 O501 1.967 . S
Co476 O508 1.920 . S
Co477 O480 1.966 . S
Co477 N486 2.022 . S
Co477 N494 1.993 . S
Co477 O502 1.941 . S
C478 O479 1.258 . S
C478 O480 1.263 . S
O479 Co476 1.970 . S
O479 C478 1.258 . S
O480 Co477 1.966 . S
O480 C478 1.263 . S
C481 O482 1.235 . S
C481 O508 1.289 . S
O482 C481 1.235 . S
C483 C485 1.400 . S
C483 N486 1.351 . S
C483 C488 1.501 . S
C484 C485 1.387 . S
C484 N487 1.341 . S
C485 C483 1.400 . S
C485 C484 1.387 . S
N486 Co477 2.022 . S
N486 C483 1.351 . S
N486 N487 1.365 . S
N487 C484 1.341 . S
N487 N486 1.365 . S
N487 H507 0.862 . S
C488 C483 1.501 . S
C488 H489 0.961 . S
C488 H490 0.961 . S
C488 H491 0.960 . S
H489 C488 0.961 . S
H490 C488 0.961 . S
H491 C488 0.960 . S
C492 N493 1.342 . S
C492 C496 1.401 . S
C492 C497 1.499 . S
N493 Co476 1.989 . S
N493 C492 1.342 . S
N493 N494 1.388 . S
N494 Co477 1.993 . S
N494 N493 1.388 . S
N494 C495 1.346 . S
C495 N494 1.346 . S
C495 C496 1.396 . S
C495 C505 1.510 . S
C496 C492 1.401 . S
C496 C495 1.396 . S
C497 C492 1.499 . S
C497 H498 0.959 . S
C497 H499 0.960 . S
C497 H500 0.961 . S
H498 C497 0.959 . S
H499 C497 0.960 . S
H500 C497 0.961 . S
O501 Co476 1.967 . S
O501 C509 1.258 . S
O502 Co477 1.941 . S
O502 C509 1.266 . S
H503 C505 0.959 . S
H504 C505 0.961 . S
C505 C495 1.510 . S
C505 H503 0.959 . S
C505 H504 0.961 . S
C505 H506 0.960 . S
H506 C505 0.960 . S
H507 N487 0.862 . S
O508 Co476 1.920 . S
O508 C481 1.289 . S
C509 O501 1.258 . S
C509 O502 1.266 . S
Co510 O513 1.970 . S
Co510 N527 1.989 . S
Co510 O535 1.967 1_455 S
Co510 O542 1.920 . S
Co511 O514 1.966 . S
Co511 N520 2.022 . S
Co511 N528 1.993 . S
Co511 O536 1.941 1_455 S
C512 O513 1.258 . S
C512 O514 1.263 . S
O513 Co510 1.970 . S
O513 C512 1.258 . S
O514 Co511 1.966 . S
O514 C512 1.263 . S
C515 O516 1.235 . S
C515 O542 1.289 . S
O516 C515 1.235 . S
C517 C519 1.400 . S
C517 N520 1.351 . S
C517 C522 1.501 . S
C518 C519 1.387 1_655 S
C518 N521 1.341 . S
C519 C517 1.400 . S
C519 C518 1.387 1_455 S
N520 Co511 2.022 . S
N520 C517 1.351 . S
N520 N521 1.365 1_455 S
N521 C518 1.341 . S
N521 N520 1.365 1_655 S
N521 H541 0.862 . S
C522 C517 1.501 . S
C522 H523 0.961 . S
C522 H524 0.961 . S
C522 H525 0.960 . S
H523 C522 0.961 . S
H524 C522 0.961 . S
H525 C522 0.960 . S
C526 N527 1.342 . S
C526 C530 1.402 . S
C526 C531 1.499 1_455 S
N527 Co510 1.989 . S
N527 C526 1.342 . S
N527 N528 1.388 . S
N528 Co511 1.993 . S
N528 N527 1.388 . S
N528 C529 1.346 . S
C529 N528 1.346 . S
C529 C530 1.398 . S
C529 C539 1.510 . S
C530 C526 1.402 . S
C530 C529 1.398 . S
C531 C526 1.499 1_655 S
C531 H532 0.959 1_655 S
C531 H533 0.961 1_656 S
C531 H534 0.961 . S
H532 C531 0.959 1_455 S
H533 C531 0.961 1_454 S
H534 C531 0.961 . S
O535 Co510 1.967 1_655 S
O535 C543 1.258 . S
O536 Co511 1.941 1_655 S
O536 C543 1.266 . S
H537 C539 0.959 1_655 S
H538 C539 0.961 . S
C539 C529 1.510 . S
C539 H537 0.959 1_455 S
C539 H538 0.961 . S
C539 H540 0.960 . S
H540 C539 0.960 . S
H541 N521 0.862 . S
O542 Co510 1.920 . S
O542 C515 1.289 . S
C543 O535 1.258 . S
C543 O536 1.266 . S
C451 C9 1.172 . S
C43 C383 1.173 1_455 S
C77 C417 1.172 . S
C111 C349 1.174 . S
C519 C145 1.173 . S
C179 C315 1.172 . S
C213 C485 1.174 . S
C281 C247 1.172 1_655 S
C20 C156 1.682 1_554 S
C54 C190 1.682 . S
C88 C224 1.682 . S
C258 C122 1.682 . S
C360 C292 1.682 . S
C326 C394 1.681 . S
C496 C428 1.682 . S
C530 C462 1.682 1_556 S
C203 C33 1.970 1_565 S
C67 C237 1.970 1_565 S
C101 C271 1.970 . S
C169 C135 1.970 . S
C138 C342 2.675 . S
C70 C274 2.676 . S
C376 C206 2.675 1_565 S
C308 C2 2.676 1_565 S
C305 C441 1.970 . S
C543 C373 1.970 . S
C475 C339 1.970 . S
C407 C509 1.970 . S
C478 C36 2.675 . S
C172 C444 2.676 . S
C512 C104 2.676 . S
C240 C410 2.675 . S
C5 C447 1.705 1_655 S
C39 C379 1.707 . S
C73 C413 1.706 . S
C107 C345 1.707 . S
C141 C515 1.707 1_655 S
C175 C311 1.705 . S
C481 C209 1.707 . S
C277 C243 1.706 . S
