# Generated by pormake.
# Topology pcb, (4)-cn, num edge types: 1
# Building blocks:
#     Node 0, Type 0, BuildingBlock: TATPOV_clean_sbu_0, # of connection points: 4
#     Node 1, Type 0, BuildingBlock: TATPOV_clean_sbu_0, # of connection points: 4
#     Node 2, Type 0, BuildingBlock: TATPOV_clean_sbu_0, # of connection points: 4
#     Node 3, Type 0, BuildingBlock: TATPOV_clean_sbu_0, # of connection points: 4
#     Node 4, Type 0, BuildingBlock: TATPOV_clean_sbu_0, # of connection points: 4
#     Node 5, Type 0, BuildingBlock: TATPOV_clean_sbu_0, # of connection points: 4
#     Node 6, Type 0, BuildingBlock: TATPOV_clean_sbu_0, # of connection points: 4
#     Node 7, Type 0, BuildingBlock: TATPOV_clean_sbu_0, # of connection points: 4
#     Node 8, Type 0, BuildingBlock: TATPOV_clean_sbu_0, # of connection points: 4
#     Node 9, Type 0, BuildingBlock: TATPOV_clean_sbu_0, # of connection points: 4
#     Node 10, Type 0, BuildingBlock: TATPOV_clean_sbu_0, # of connection points: 4
#     Node 11, Type 0, BuildingBlock: TATPOV_clean_sbu_0, # of connection points: 4
#     Node 12, Type 0, BuildingBlock: TATPOV_clean_sbu_0, # of connection points: 4
#     Node 13, Type 0, BuildingBlock: TATPOV_clean_sbu_0, # of connection points: 4
#     Node 14, Type 0, BuildingBlock: TATPOV_clean_sbu_0, # of connection points: 4
#     Node 15, Type 0, BuildingBlock: TATPOV_clean_sbu_0, # of connection points: 4
#     Edge 16, Type (0, 0), BuildingBlock: MIFKUJ_clean_linker_0, # of connection points: 2
#     Edge 17, Type (0, 0), BuildingBlock: MIFKUJ_clean_linker_0, # of connection points: 2
#     Edge 18, Type (0, 0), BuildingBlock: MIFKUJ_clean_linker_0, # of connection points: 2
#     Edge 19, Type (0, 0), BuildingBlock: MIFKUJ_clean_linker_0, # of connection points: 2
#     Edge 20, Type (0, 0), BuildingBlock: MIFKUJ_clean_linker_0, # of connection points: 2
#     Edge 21, Type (0, 0), BuildingBlock: MIFKUJ_clean_linker_0, # of connection points: 2
#     Edge 22, Type (0, 0), BuildingBlock: MIFKUJ_clean_linker_0, # of connection points: 2
#     Edge 23, Type (0, 0), BuildingBlock: MIFKUJ_clean_linker_0, # of connection points: 2
#     Edge 24, Type (0, 0), BuildingBlock: MIFKUJ_clean_linker_0, # of connection points: 2
#     Edge 25, Type (0, 0), BuildingBlock: MIFKUJ_clean_linker_0, # of connection points: 2
#     Edge 26, Type (0, 0), BuildingBlock: MIFKUJ_clean_linker_0, # of connection points: 2
#     Edge 27, Type (0, 0), BuildingBlock: MIFKUJ_clean_linker_0, # of connection points: 2
#     Edge 28, Type (0, 0), BuildingBlock: MIFKUJ_clean_linker_0, # of connection points: 2
#     Edge 29, Type (0, 0), BuildingBlock: MIFKUJ_clean_linker_0, # of connection points: 2
#     Edge 30, Type (0, 0), BuildingBlock: MIFKUJ_clean_linker_0, # of connection points: 2
#     Edge 31, Type (0, 0), BuildingBlock: MIFKUJ_clean_linker_0, # of connection points: 2
#     Edge 32, Type (0, 0), BuildingBlock: MIFKUJ_clean_linker_0, # of connection points: 2
#     Edge 33, Type (0, 0), BuildingBlock: MIFKUJ_clean_linker_0, # of connection points: 2
#     Edge 34, Type (0, 0), BuildingBlock: MIFKUJ_clean_linker_0, # of connection points: 2
#     Edge 35, Type (0, 0), BuildingBlock: MIFKUJ_clean_linker_0, # of connection points: 2
#     Edge 36, Type (0, 0), BuildingBlock: MIFKUJ_clean_linker_0, # of connection points: 2
#     Edge 37, Type (0, 0), BuildingBlock: MIFKUJ_clean_linker_0, # of connection points: 2
#     Edge 38, Type (0, 0), BuildingBlock: MIFKUJ_clean_linker_0, # of connection points: 2
#     Edge 39, Type (0, 0), BuildingBlock: MIFKUJ_clean_linker_0, # of connection points: 2
#     Edge 40, Type (0, 0), BuildingBlock: MIFKUJ_clean_linker_0, # of connection points: 2
#     Edge 41, Type (0, 0), BuildingBlock: MIFKUJ_clean_linker_0, # of connection points: 2
#     Edge 42, Type (0, 0), BuildingBlock: MIFKUJ_clean_linker_0, # of connection points: 2
#     Edge 43, Type (0, 0), BuildingBlock: MIFKUJ_clean_linker_0, # of connection points: 2
#     Edge 44, Type (0, 0), BuildingBlock: MIFKUJ_clean_linker_0, # of connection points: 2
#     Edge 45, Type (0, 0), BuildingBlock: MIFKUJ_clean_linker_0, # of connection points: 2
#     Edge 46, Type (0, 0), BuildingBlock: MIFKUJ_clean_linker_0, # of connection points: 2
#     Edge 47, Type (0, 0), BuildingBlock: MIFKUJ_clean_linker_0, # of connection points: 2
# Relax obj value: 0.184
# Max RMSD: 0.077
# Mean RMSD: 0.077
data_MOF--net-pcb--node1-TATPOV_clean_sbu_0--edge1-MIFKUJ_clean_linker_0
_symmetry_space_group_name_H-M    P1
_symmetry_Int_Tables_number       1
_symmetry_cell_setting            triclinic
loop_
_symmetry_equiv_pos_as_xyz
'x, y, z'
_cell_length_a     60.77426
_cell_length_b     59.615588
_cell_length_c     59.59797
_cell_angle_alpha  90.039753
_cell_angle_beta   90.015268
_cell_angle_gamma 90.020842
loop_
_atom_site_label
_atom_site_type_symbol
_atom_site_fract_x
_atom_site_fract_y
_atom_site_fract_z
_atom_type_partial_charge
Zn0 Zn 0.12961 0.13315 0.13479 0.0
Zn1 Zn 0.15451 0.14741 0.16702 0.0
O2 O 0.12584 0.16578 0.17144 0.0
O3 O 0.10779 0.1577 0.14049 0.0
O4 O 0.1743 0.15812 0.19198 0.0
O5 O 0.12594 0.10324 0.14942 0.0
O6 O 0.1516 0.1133 0.17344 0.0
C7 C 0.10943 0.16886 0.15848 0.0
C8 C 0.17006 0.14957 0.11811 0.0
O9 O 0.17218 0.15588 0.13844 0.0
O10 O 0.15367 0.13782 0.11235 0.0
C11 C 0.17334 0.17823 0.199 0.0
O12 O 0.15922 0.19214 0.1898 0.0
C13 C 0.13863 0.09843 0.16554 0.0
Zn14 Zn 0.88573 0.16179 0.11443 0.0
Zn15 Zn 0.85661 0.18472 0.13734 0.0
O16 O 0.88596 0.20001 0.14591 0.0
O17 O 0.9091 0.18436 0.12221 0.0
O18 O 0.83441 0.2016 0.15564 0.0
O19 O 0.86726 0.16543 0.0868 0.0
O20 O 0.84569 0.18911 0.10472 0.0
C21 C 0.90517 0.19857 0.13747 0.0
C22 C 0.86464 0.13472 0.14708 0.0
O23 O 0.85308 0.15241 0.14922 0.0
O24 O 0.88102 0.13465 0.13397 0.0
C25 C 0.83304 0.19766 0.17654 0.0
O26 O 0.8465 0.18303 0.18565 0.0
C27 C 0.85122 0.17896 0.08676 0.0
Zn28 Zn 0.88068 0.8773 0.1507 0.0
Zn29 Zn 0.85143 0.85985 0.17822 0.0
O30 O 0.88077 0.84943 0.19209 0.0
O31 O 0.90505 0.86704 0.17117 0.0
O32 O 0.82904 0.84631 0.19878 0.0
O33 O 0.86702 0.90774 0.15454 0.0
O34 O 0.84514 0.89386 0.1805 0.0
C35 C 0.90069 0.85435 0.18761 0.0
C36 C 0.85345 0.84499 0.12883 0.0
O37 O 0.84388 0.84488 0.14786 0.0
O38 O 0.87031 0.8571 0.12584 0.0
C39 C 0.82954 0.82522 0.20176 0.0
O40 O 0.84471 0.81334 0.19149 0.0
C41 C 0.85227 0.91053 0.16926 0.0
Zn42 Zn 0.101 0.83398 0.12039 0.0
Zn43 Zn 0.13444 0.81801 0.14422 0.0
O44 O 0.10742 0.80238 0.15834 0.0
O45 O 0.08022 0.81365 0.13673 0.0
O46 O 0.15947 0.80516 0.1618 0.0
O47 O 0.11506 0.82339 0.09188 0.0
O48 O 0.1428 0.8101 0.11152 0.0
C49 C 0.08709 0.80209 0.15311 0.0
C50 C 0.1238 0.868 0.14597 0.0
O51 O 0.13601 0.85155 0.15145 0.0
O52 O 0.10755 0.86493 0.13298 0.0
C53 C 0.16302 0.8112 0.18193 0.0
O54 O 0.15003 0.82614 0.19126 0.0
C55 C 0.1334 0.81339 0.09269 0.0
Zn56 Zn 0.12526 0.88638 0.85269 0.0
Zn57 Zn 0.15063 0.85978 0.82824 0.0
O58 O 0.11927 0.84811 0.82078 0.0
O59 O 0.09853 0.8707 0.84099 0.0
O60 O 0.17079 0.84028 0.81007 0.0
O61 O 0.13599 0.91328 0.83623 0.0
O62 O 0.15858 0.89175 0.81695 0.0
C63 C 0.10032 0.8546 0.82727 0.0
C64 C 0.15507 0.86056 0.8795 0.0
O65 O 0.16047 0.85259 0.86045 0.0
O66 O 0.14052 0.87571 0.88079 0.0
C67 C 0.16586 0.83232 0.79094 0.0
O68 O 0.14648 0.83673 0.78222 0.0
C69 C 0.15085 0.91109 0.82155 0.0
Zn70 Zn 0.13028 0.15179 0.88453 0.0
Zn71 Zn 0.15679 0.17609 0.85906 0.0
O72 O 0.12557 0.18582 0.84881 0.0
O73 O 0.10399 0.16797 0.87251 0.0
O74 O 0.17679 0.1944 0.83967 0.0
O75 O 0.14497 0.16356 0.91221 0.0
O76 O 0.16661 0.18453 0.8913 0.0
C77 C 0.10639 0.18145 0.85631 0.0
C78 C 0.15641 0.12515 0.85428 0.0
O79 O 0.16471 0.14411 0.84932 0.0
O80 O 0.14109 0.12386 0.86864 0.0
C81 C 0.17418 0.21528 0.83646 0.0
O82 O 0.15778 0.2257 0.84634 0.0
C83 C 0.16022 0.17792 0.91057 0.0
Zn84 Zn 0.87204 0.10405 0.85191 0.0
Zn85 Zn 0.84947 0.12938 0.82315 0.0
O86 O 0.88154 0.13735 0.81566 0.0
O87 O 0.90039 0.11538 0.83823 0.0
O88 O 0.83237 0.14883 0.80209 0.0
O89 O 0.85667 0.0768 0.83996 0.0
O90 O 0.8391 0.09731 0.81495 0.0
C91 C 0.89992 0.1302 0.82301 0.0
C92 C 0.84393 0.13549 0.8741 0.0
O93 O 0.83902 0.14085 0.85404 0.0
O94 O 0.85795 0.12023 0.87783 0.0
C95 C 0.83186 0.16984 0.80564 0.0
O96 O 0.84298 0.17817 0.82263 0.0
C97 C 0.84322 0.07832 0.82382 0.0
Zn98 Zn 0.85838 0.84972 0.88865 0.0
Zn99 Zn 0.83787 0.81864 0.86486 0.0
O100 O 0.87042 0.81141 0.85843 0.0
O101 O 0.88748 0.83634 0.87942 0.0
O102 O 0.82164 0.79599 0.84625 0.0
O103 O 0.84312 0.83945 0.91638 0.0
O104 O 0.82727 0.8121 0.89745 0.0
C105 C 0.8882 0.81998 0.86587 0.0
C106 C 0.83116 0.86903 0.85515 0.0
O107 O 0.82713 0.8485 0.85083 0.0
O108 O 0.8443 0.87423 0.87077 0.0
C109 C 0.82284 0.79763 0.82503 0.0
O110 O 0.83512 0.8135 0.81623 0.0
C111 C 0.83058 0.82252 0.91586 0.0
Zn112 Zn 0.61696 0.60823 0.65418 0.0
Zn113 Zn 0.64484 0.63277 0.67753 0.0
O114 O 0.61483 0.64681 0.68605 0.0
O115 O 0.59202 0.62744 0.66485 0.0
O116 O 0.6664 0.65085 0.69567 0.0
O117 O 0.62451 0.58095 0.67173 0.0
O118 O 0.6505 0.60022 0.68883 0.0
C119 C 0.59536 0.64279 0.67915 0.0
C120 C 0.6485 0.62997 0.62626 0.0
O121 O 0.65414 0.63894 0.64478 0.0
O122 O 0.63346 0.6153 0.62571 0.0
C123 C 0.67373 0.66958 0.68877 0.0
O124 O 0.66693 0.67748 0.6694 0.0
C125 C 0.64038 0.58177 0.68542 0.0
Zn126 Zn 0.37897 0.66103 0.60922 0.0
Zn127 Zn 0.34987 0.68378 0.63377 0.0
O128 O 0.37973 0.69633 0.64498 0.0
O129 O 0.40351 0.67783 0.62414 0.0
O130 O 0.32728 0.70078 0.65148 0.0
O131 O 0.36608 0.67332 0.581 0.0
O132 O 0.34112 0.69129 0.60099 0.0
C133 C 0.39952 0.69222 0.63922 0.0
C134 C 0.35225 0.63252 0.63705 0.0
O135 O 0.34405 0.65117 0.64329 0.0
O136 O 0.36735 0.63213 0.6224 0.0
C137 C 0.33038 0.70673 0.67171 0.0
O138 O 0.34912 0.70186 0.68156 0.0
C139 C 0.34947 0.68601 0.58211 0.0
Zn140 Zn 0.39521 0.38474 0.66887 0.0
Zn141 Zn 0.35935 0.36387 0.68324 0.0
O142 O 0.38523 0.34615 0.69714 0.0
O143 O 0.41465 0.36571 0.68821 0.0
O144 O 0.33311 0.3486 0.69674 0.0
O145 O 0.3844 0.41427 0.68042 0.0
O146 O 0.35437 0.39716 0.6919 0.0
C147 C 0.40596 0.34918 0.6981 0.0
C148 C 0.36952 0.36294 0.6336 0.0
O149 O 0.35658 0.3579 0.64962 0.0
O150 O 0.38694 0.37401 0.63752 0.0
C151 C 0.332 0.32732 0.69689 0.0
O152 O 0.34779 0.31564 0.68739 0.0
C153 C 0.36571 0.41502 0.68971 0.0
Zn154 Zn 0.61933 0.33768 0.6228 0.0
Zn155 Zn 0.64923 0.3141 0.64426 0.0
O156 O 0.61978 0.30008 0.65423 0.0
O157 O 0.5959 0.31505 0.63083 0.0
O158 O 0.67149 0.2959 0.66115 0.0
O159 O 0.63699 0.33434 0.59446 0.0
O160 O 0.65854 0.30988 0.61125 0.0
C161 C 0.60035 0.30129 0.64634 0.0
C162 C 0.64261 0.36362 0.65548 0.0
O163 O 0.65436 0.34597 0.65631 0.0
O164 O 0.62542 0.364 0.64345 0.0
C165 C 0.67574 0.30051 0.68151 0.0
O166 O 0.66521 0.31704 0.69138 0.0
C167 C 0.65269 0.32041 0.59365 0.0
Zn168 Zn 0.62454 0.37394 0.35322 0.0
Zn169 Zn 0.64737 0.34827 0.32636 0.0
O170 O 0.61559 0.3368 0.32123 0.0
O171 O 0.59752 0.35576 0.34699 0.0
O172 O 0.6654 0.32912 0.30572 0.0
O173 O 0.63131 0.40106 0.33463 0.0
O174 O 0.65434 0.38035 0.31509 0.0
C175 C 0.59776 0.34103 0.33168 0.0
C176 C 0.65787 0.35005 0.37666 0.0
O177 O 0.66033 0.34088 0.35752 0.0
O178 O 0.64412 0.3658 0.37914 0.0
C179 C 0.6708 0.30928 0.31118 0.0
O180 O 0.66393 0.30104 0.33039 0.0
C181 C 0.64587 0.39939 0.31955 0.0
Zn182 Zn 0.6241 0.63707 0.36949 0.0
Zn183 Zn 0.65095 0.6636 0.34876 0.0
O184 O 0.62112 0.67149 0.33385 0.0
O185 O 0.60027 0.64462 0.34757 0.0
O186 O 0.67227 0.6836 0.33286 0.0
O187 O 0.62742 0.65453 0.39808 0.0
O188 O 0.65512 0.6722 0.3822 0.0
C189 C 0.60285 0.66102 0.33438 0.0
C190 C 0.65851 0.61288 0.34839 0.0
O191 O 0.66249 0.63222 0.34028 0.0
O192 O 0.64364 0.61053 0.36307 0.0
C193 C 0.6703 0.7048 0.3325 0.0
O194 O 0.65372 0.71423 0.34305 0.0
C195 C 0.64346 0.66798 0.39946 0.0
Zn196 Zn 0.37168 0.60978 0.32451 0.0
Zn197 Zn 0.34648 0.64101 0.3054 0.0
O198 O 0.37739 0.64831 0.29329 0.0
O199 O 0.39766 0.62075 0.30654 0.0
O200 O 0.32772 0.66438 0.2906 0.0
O201 O 0.35165 0.58585 0.3128 0.0
O202 O 0.33182 0.6113 0.29515 0.0
C203 C 0.39589 0.63841 0.29489 0.0
C204 C 0.35142 0.63913 0.35659 0.0
O205 O 0.34284 0.64768 0.33908 0.0
O206 O 0.36483 0.62297 0.35487 0.0
C207 C 0.32534 0.68393 0.29877 0.0
O208 O 0.3355 0.68925 0.31748 0.0
C209 C 0.33567 0.59092 0.3002 0.0
Zn210 Zn 0.36063 0.37518 0.36216 0.0
Zn211 Zn 0.33665 0.34092 0.35087 0.0
O212 O 0.36609 0.33329 0.33541 0.0
O213 O 0.38428 0.3647 0.34097 0.0
O214 O 0.31655 0.31593 0.34144 0.0
O215 O 0.36136 0.36507 0.39411 0.0
O216 O 0.33763 0.33847 0.38569 0.0
C217 C 0.38315 0.34533 0.33231 0.0
C218 C 0.32245 0.38942 0.33995 0.0
O219 O 0.3206 0.36833 0.33704 0.0
O220 O 0.33783 0.39717 0.35195 0.0
C221 C 0.32217 0.29548 0.3397 0.0
O222 O 0.34233 0.28951 0.34497 0.0
C223 C 0.34921 0.34895 0.40019 0.0
H224 H 0.32946 0.25116 0.32971 0.0
H225 H 0.30436 0.22534 0.3105 0.0
H226 H 0.25479 0.27708 0.30819 0.0
H227 H 0.2795 0.30275 0.32762 0.0
H228 H 0.23661 0.23716 0.31745 0.0
H229 H 0.2887 0.26702 0.26352 0.0
H230 H 0.3258 0.27427 0.2484 0.0
H231 H 0.33832 0.20344 0.24541 0.0
H232 H 0.30136 0.19579 0.2608 0.0
H233 H 0.17154 0.21791 0.2217 0.0
H234 H 0.19696 0.23168 0.25027 0.0
H235 H 0.23441 0.17042 0.24551 0.0
H236 H 0.20896 0.15642 0.21683 0.0
H237 H 0.26029 0.20836 0.24315 0.0
H238 H 0.20489 0.17903 0.29127 0.0
H239 H 0.16725 0.17276 0.30532 0.0
H240 H 0.1603 0.24322 0.31852 0.0
H241 H 0.19779 0.24998 0.30422 0.0
C242 C 0.31312 0.25694 0.32535 0.0
C243 C 0.30656 0.27908 0.32999 0.0
C244 C 0.29883 0.24219 0.31432 0.0
C245 C 0.27781 0.24939 0.30767 0.0
C246 C 0.27093 0.27116 0.31317 0.0
C247 C 0.28514 0.28586 0.32418 0.0
C248 C 0.26332 0.23495 0.29381 0.0
C249 C 0.24175 0.23089 0.30119 0.0
C250 C 0.27023 0.22626 0.27285 0.0
C251 C 0.29241 0.23085 0.26357 0.0
C252 C 0.29944 0.253 0.2598 0.0
C253 C 0.32042 0.25718 0.25116 0.0
C254 C 0.33444 0.23933 0.24602 0.0
C255 C 0.32747 0.21725 0.24945 0.0
C256 C 0.30651 0.21298 0.25813 0.0
C257 C 0.18509 0.20728 0.2268 0.0
C258 C 0.18826 0.1861 0.21696 0.0
C259 C 0.19953 0.21512 0.24324 0.0
C260 C 0.21743 0.20197 0.25014 0.0
C261 C 0.22062 0.18076 0.24046 0.0
C262 C 0.20605 0.1728 0.22412 0.0
C263 C 0.23341 0.21109 0.26654 0.0
C264 C 0.25526 0.21418 0.25963 0.0
C265 C 0.22671 0.21899 0.28785 0.0
C266 C 0.20413 0.21502 0.29652 0.0
C267 C 0.19529 0.19322 0.297 0.0
C268 C 0.17398 0.18957 0.30504 0.0
C269 C 0.16138 0.20758 0.31277 0.0
C270 C 0.17008 0.22928 0.31252 0.0
C271 C 0.19137 0.23303 0.30447 0.0
H272 H 0.14488 0.20472 0.319 0.0
H273 H 0.35068 0.2426 0.23932 0.0
H274 H 0.6838 0.31906 0.26843 0.0
H275 H 0.71023 0.29853 0.24532 0.0
H276 H 0.71831 0.24968 0.29802 0.0
H277 H 0.69183 0.27006 0.32128 0.0
H278 H 0.75798 0.26622 0.28128 0.0
H279 H 0.69043 0.23528 0.253 0.0
H280 H 0.653 0.23677 0.23711 0.0
H281 H 0.6776 0.27139 0.17915 0.0
H282 H 0.71515 0.27039 0.19485 0.0
H283 H 0.82152 0.1882 0.21976 0.0
H284 H 0.79307 0.20625 0.24232 0.0
H285 H 0.77809 0.25077 0.18733 0.0
H286 H 0.80614 0.23235 0.16441 0.0
H287 H 0.74143 0.2359 0.20557 0.0
H288 H 0.80817 0.26841 0.23332 0.0
H289 H 0.84579 0.26853 0.24883 0.0
H290 H 0.82317 0.23316 0.30718 0.0
H291 H 0.78544 0.23257 0.29187 0.0
C292 C 0.69107 0.30386 0.27506 0.0
C293 C 0.68576 0.29619 0.29669 0.0
C294 C 0.70611 0.29212 0.2618 0.0
C295 C 0.71611 0.27257 0.26997 0.0
C296 C 0.71072 0.26474 0.29146 0.0
C297 C 0.69554 0.27637 0.30467 0.0
C298 C 0.73286 0.26079 0.25638 0.0
C299 C 0.75433 0.25925 0.26487 0.0
C300 C 0.72814 0.25239 0.23472 0.0
C301 C 0.70558 0.25294 0.22521 0.0
C302 C 0.68784 0.24338 0.23695 0.0
C303 C 0.6666 0.2441 0.22796 0.0
C304 C 0.66291 0.25421 0.20716 0.0
C305 C 0.68047 0.26358 0.19527 0.0
C306 C 0.70174 0.26292 0.2042 0.0
C307 C 0.81223 0.20188 0.21247 0.0
C308 C 0.81613 0.20892 0.19033 0.0
C309 C 0.79601 0.21223 0.22543 0.0
C310 C 0.78365 0.23006 0.21662 0.0
C311 C 0.78744 0.23705 0.19447 0.0
C312 C 0.80352 0.22656 0.18142 0.0
C313 C 0.76664 0.2413 0.23045 0.0
C314 C 0.74512 0.24279 0.222 0.0
C315 C 0.77136 0.24989 0.25208 0.0
C316 C 0.79403 0.25025 0.26134 0.0
C317 C 0.81125 0.2605 0.24938 0.0
C318 C 0.83259 0.26068 0.25814 0.0
C319 C 0.83688 0.2508 0.27894 0.0
C320 C 0.81983 0.24078 0.29105 0.0
C321 C 0.79846 0.24053 0.28235 0.0
H322 H 0.85341 0.25097 0.2857 0.0
H323 H 0.64646 0.25475 0.20022 0.0
H324 H 0.82621 0.78063 0.21145 0.0
H325 H 0.79822 0.7621 0.23422 0.0
H326 H 0.76724 0.82593 0.24706 0.0
H327 H 0.79539 0.8447 0.2245 0.0
H328 H 0.76971 0.80046 0.28482 0.0
H329 H 0.74521 0.79091 0.20914 0.0
H330 H 0.7486 0.78054 0.16924 0.0
H331 H 0.76208 0.71232 0.18775 0.0
H332 H 0.75908 0.72235 0.2278 0.0
H333 H 0.67072 0.75046 0.32706 0.0
H334 H 0.69705 0.77273 0.30537 0.0
H335 H 0.73249 0.71247 0.28804 0.0
H336 H 0.70621 0.69012 0.30935 0.0
H337 H 0.72579 0.73844 0.25191 0.0
H338 H 0.75199 0.74854 0.32767 0.0
H339 H 0.74885 0.75908 0.36756 0.0
H340 H 0.73194 0.82643 0.34879 0.0
H341 H 0.7347 0.81621 0.30876 0.0
C342 C 0.81349 0.79076 0.21914 0.0
C343 C 0.81294 0.81412 0.21606 0.0
C344 C 0.79746 0.78013 0.23209 0.0
C345 C 0.7805 0.79262 0.24205 0.0
C346 C 0.78017 0.81599 0.23944 0.0
C347 C 0.79622 0.82667 0.2265 0.0
C348 C 0.76304 0.78116 0.25502 0.0
C349 C 0.75985 0.78713 0.27756 0.0
C350 C 0.75043 0.76357 0.24557 0.0
C351 C 0.7521 0.75744 0.22148 0.0
C352 C 0.74905 0.77373 0.20471 0.0
C353 C 0.75088 0.76791 0.18207 0.0
C354 C 0.7556 0.74579 0.17596 0.0
C355 C 0.75845 0.72944 0.1925 0.0
C356 C 0.75666 0.73519 0.21518 0.0
C357 C 0.68415 0.74197 0.31868 0.0
C358 C 0.68637 0.71852 0.31992 0.0
C359 C 0.69922 0.75473 0.30637 0.0
C360 C 0.71679 0.74425 0.29523 0.0
C361 C 0.71902 0.72088 0.29648 0.0
C362 C 0.70401 0.70814 0.30873 0.0
C363 C 0.73271 0.75745 0.28185 0.0
C364 C 0.73556 0.75185 0.25917 0.0
C365 C 0.74495 0.77538 0.29117 0.0
C366 C 0.7433 0.78154 0.31522 0.0
C367 C 0.74741 0.76555 0.33205 0.0
C368 C 0.74574 0.77147 0.35468 0.0
C369 C 0.74013 0.79339 0.36071 0.0
C370 C 0.73624 0.80945 0.3441 0.0
C371 C 0.73787 0.8036 0.32144 0.0
H372 H 0.73885 0.79795 0.37824 0.0
H373 H 0.75702 0.74131 0.15842 0.0
H374 H 0.30849 0.68139 0.25646 0.0
H375 H 0.28338 0.70768 0.23827 0.0
H376 H 0.28385 0.74944 0.29739 0.0
H377 H 0.30918 0.72324 0.31575 0.0
H378 H 0.24145 0.73968 0.28087 0.0
H379 H 0.30994 0.76805 0.25382 0.0
H380 H 0.34679 0.76588 0.23668 0.0
H381 H 0.31846 0.74067 0.17566 0.0
H382 H 0.28145 0.74236 0.19255 0.0
H383 H 0.17669 0.82178 0.2244 0.0
H384 H 0.20649 0.80432 0.24576 0.0
H385 H 0.22019 0.7603 0.18999 0.0
H386 H 0.19081 0.7779 0.16841 0.0
H387 H 0.25743 0.77576 0.20765 0.0
H388 H 0.1903 0.74266 0.23552 0.0
H389 H 0.15319 0.74303 0.25225 0.0
H390 H 0.17869 0.77538 0.31119 0.0
H391 H 0.21592 0.77546 0.29465 0.0
C392 C 0.30336 0.69622 0.26557 0.0
C393 C 0.31079 0.70026 0.28754 0.0
C394 C 0.28911 0.71126 0.25512 0.0
C395 C 0.28194 0.73054 0.26646 0.0
C396 C 0.28931 0.73467 0.28838 0.0
C397 C 0.30379 0.71973 0.29879 0.0
C398 C 0.26603 0.74578 0.25558 0.0
C399 C 0.24505 0.74799 0.2651 0.0
C400 C 0.27069 0.75616 0.2348 0.0
C401 C 0.29292 0.75518 0.22453 0.0
C402 C 0.31157 0.76187 0.23681 0.0
C403 C 0.33249 0.76076 0.22712 0.0
C404 C 0.33497 0.7531 0.20511 0.0
C405 C 0.31652 0.74659 0.19271 0.0
C406 C 0.29556 0.74765 0.20233 0.0
C407 C 0.1861 0.80843 0.21667 0.0
C408 C 0.18132 0.80113 0.19476 0.0
C409 C 0.20308 0.79845 0.22891 0.0
C410 C 0.2154 0.78086 0.21954 0.0
C411 C 0.21091 0.77387 0.19753 0.0
C412 C 0.19404 0.78389 0.18525 0.0
C413 C 0.23266 0.76929 0.2327 0.0
C414 C 0.25391 0.76776 0.2236 0.0
C415 C 0.22819 0.75936 0.25378 0.0
C416 C 0.20583 0.75932 0.26374 0.0
C417 C 0.18796 0.75002 0.25197 0.0
C418 C 0.16691 0.75012 0.26143 0.0
C419 C 0.16357 0.75929 0.28274 0.0
C420 C 0.18129 0.76833 0.29466 0.0
C421 C 0.20237 0.7683 0.28526 0.0
H422 H 0.14727 0.75934 0.29004 0.0
H423 H 0.35118 0.75226 0.19764 0.0
H424 H 0.28763 0.71286 0.65902 0.0
H425 H 0.25888 0.73307 0.67924 0.0
H426 H 0.30502 0.74886 0.73199 0.0
H427 H 0.33374 0.72807 0.71216 0.0
H428 H 0.26697 0.73649 0.74928 0.0
H429 H 0.28957 0.78795 0.69143 0.0
H430 H 0.29725 0.79979 0.65257 0.0
H431 H 0.22997 0.78719 0.63448 0.0
H432 H 0.22195 0.775 0.67319 0.0
H433 H 0.2086 0.82408 0.8023 0.0
H434 H 0.23547 0.80169 0.78179 0.0
H435 H 0.18668 0.78654 0.73138 0.0
H436 H 0.15973 0.80941 0.7516 0.0
H437 H 0.2249 0.79757 0.7125 0.0
H438 H 0.20207 0.74736 0.77087 0.0
H439 H 0.19449 0.73582 0.80984 0.0
H440 H 0.26233 0.74629 0.82708 0.0
H441 H 0.27026 0.75819 0.78828 0.0
C442 C 0.29168 0.72065 0.67492 0.0
C443 C 0.31299 0.71897 0.68396 0.0
C444 C 0.27524 0.73228 0.68641 0.0
C445 C 0.27988 0.74279 0.70696 0.0
C446 C 0.30108 0.74092 0.71614 0.0
C447 C 0.31749 0.72908 0.70477 0.0
C448 C 0.26262 0.75564 0.71896 0.0
C449 C 0.25797 0.75003 0.74133 0.0
C450 C 0.25045 0.7729 0.70839 0.0
C451 C 0.25522 0.78037 0.68515 0.0
C452 C 0.27645 0.78756 0.67913 0.0
C453 C 0.28086 0.79436 0.65713 0.0
C454 C 0.26412 0.79419 0.64105 0.0
C455 C 0.24292 0.78729 0.64695 0.0
C456 C 0.23843 0.78046 0.66891 0.0
C457 C 0.20352 0.81594 0.78689 0.0
C458 C 0.182 0.81847 0.7786 0.0
C459 C 0.21889 0.80305 0.77523 0.0
C460 C 0.21299 0.79217 0.75523 0.0
C461 C 0.19155 0.79475 0.74683 0.0
C462 C 0.17617 0.80778 0.75842 0.0
C463 C 0.22938 0.77853 0.74286 0.0
C464 C 0.23386 0.78397 0.72043 0.0
C465 C 0.24141 0.76114 0.75338 0.0
C466 C 0.23671 0.75384 0.7767 0.0
C467 C 0.21534 0.74735 0.78301 0.0
C468 C 0.21099 0.74072 0.80506 0.0
C469 C 0.22791 0.74037 0.82094 0.0
C470 C 0.24923 0.74659 0.81477 0.0
C471 C 0.25367 0.75325 0.79274 0.0
H472 H 0.2245 0.73524 0.838 0.0
H473 H 0.26757 0.79945 0.62404 0.0
H474 H 0.20945 0.19836 0.81379 0.0
H475 H 0.23498 0.21846 0.78951 0.0
H476 H 0.19951 0.28002 0.80125 0.0
H477 H 0.17359 0.25992 0.82547 0.0
H478 H 0.21008 0.27472 0.75709 0.0
H479 H 0.24741 0.27117 0.82757 0.0
H480 H 0.26222 0.25307 0.86155 0.0
H481 H 0.30428 0.21183 0.82094 0.0
H482 H 0.28948 0.22946 0.78667 0.0
H483 H 0.29575 0.34634 0.71631 0.0
H484 H 0.26757 0.32769 0.73886 0.0
H485 H 0.29954 0.26402 0.72796 0.0
H486 H 0.32784 0.28251 0.70545 0.0
H487 H 0.29031 0.27177 0.7723 0.0
H488 H 0.25232 0.27545 0.70167 0.0
H489 H 0.23741 0.29401 0.66799 0.0
H490 H 0.1967 0.33589 0.70937 0.0
H491 H 0.21161 0.31778 0.74335 0.0
C492 C 0.20703 0.21618 0.81125 0.0
C493 C 0.18954 0.22758 0.82167 0.0
C494 C 0.2217 0.22765 0.79741 0.0
C495 C 0.21929 0.25077 0.79382 0.0
C496 C 0.20166 0.26217 0.80387 0.0
C497 C 0.18693 0.25068 0.81776 0.0
C498 C 0.2353 0.26292 0.77958 0.0
C499 C 0.2276 0.27438 0.76058 0.0
C500 C 0.25817 0.2621 0.78396 0.0
C501 C 0.26718 0.2515 0.80454 0.0
C502 C 0.25969 0.25812 0.82587 0.0
C503 C 0.2681 0.24796 0.84519 0.0
C504 C 0.28414 0.23127 0.8434 0.0
C505 C 0.29184 0.22474 0.82229 0.0
C506 C 0.28345 0.23483 0.80292 0.0
C507 C 0.29669 0.32834 0.71854 0.0
C508 C 0.31406 0.3159 0.70913 0.0
C509 C 0.28053 0.31771 0.73137 0.0
C510 C 0.28145 0.29448 0.73499 0.0
C511 C 0.29857 0.28198 0.72535 0.0
C512 C 0.31467 0.29257 0.71243 0.0
C513 C 0.26513 0.28335 0.74967 0.0
C514 C 0.27279 0.27214 0.76882 0.0
C515 C 0.24225 0.28451 0.74547 0.0
C516 C 0.23326 0.29542 0.72506 0.0
C517 C 0.24034 0.28876 0.7036 0.0
C518 C 0.23185 0.29917 0.68445 0.0
C519 C 0.21616 0.31616 0.68654 0.0
C520 C 0.20888 0.32274 0.70778 0.0
C521 C 0.21733 0.3124 0.72699 0.0
H522 H 0.20961 0.32419 0.67169 0.0
H523 H 0.29064 0.22343 0.85838 0.0
H524 H 0.81122 0.15926 0.76631 0.0
H525 H 0.78635 0.18295 0.74444 0.0
H526 H 0.79571 0.23698 0.79166 0.0
H527 H 0.82068 0.21346 0.81361 0.0
H528 H 0.75152 0.22761 0.7822 0.0
H529 H 0.819 0.24111 0.74235 0.0
H530 H 0.85273 0.23034 0.72206 0.0
H531 H 0.81392 0.19706 0.67184 0.0
H532 H 0.77995 0.20737 0.69202 0.0
H533 H 0.69489 0.31126 0.72149 0.0
H534 H 0.72282 0.29005 0.74187 0.0
H535 H 0.72209 0.23923 0.69025 0.0
H536 H 0.69467 0.26077 0.66938 0.0
H537 H 0.76267 0.2475 0.70218 0.0
H538 H 0.69567 0.2319 0.74155 0.0
H539 H 0.66129 0.24092 0.76159 0.0
H540 H 0.69809 0.2757 0.81235 0.0
H541 H 0.73268 0.26713 0.79245 0.0
C542 C 0.80812 0.17624 0.77195 0.0
C543 C 0.81787 0.18449 0.7917 0.0
C544 C 0.79398 0.18976 0.7594 0.0
C545 C 0.78932 0.2117 0.76643 0.0
C546 C 0.79917 0.22007 0.786 0.0
C547 C 0.81347 0.20664 0.79845 0.0
C548 C 0.7734 0.22557 0.75387 0.0
C549 C 0.75407 0.23229 0.7648 0.0
C550 C 0.77653 0.23099 0.73101 0.0
C551 C 0.79694 0.22483 0.71882 0.0
C552 C 0.81766 0.23133 0.72708 0.0
C553 C 0.83683 0.22534 0.71558 0.0
C554 C 0.83548 0.21297 0.6957 0.0
C555 C 0.81495 0.20662 0.68726 0.0
C556 C 0.79573 0.21255 0.69871 0.0
C557 C 0.70065 0.29555 0.71449 0.0
C558 C 0.69251 0.2876 0.6939 0.0
C559 C 0.71656 0.28341 0.7262 0.0
C560 C 0.72429 0.26287 0.71776 0.0
C561 C 0.71634 0.25502 0.69708 0.0
C562 C 0.70063 0.26731 0.68522 0.0
C563 C 0.74068 0.24958 0.73049 0.0
C564 C 0.7601 0.24292 0.7196 0.0
C565 C 0.73751 0.24395 0.75334 0.0
C566 C 0.71674 0.24907 0.76539 0.0
C567 C 0.69641 0.24162 0.7569 0.0
C568 C 0.67689 0.24662 0.76825 0.0
C569 C 0.6775 0.25893 0.7882 0.0
C570 C 0.69764 0.2662 0.79688 0.0
C571 C 0.71721 0.26125 0.78558 0.0
H572 H 0.66237 0.26279 0.79696 0.0
H573 H 0.85033 0.20836 0.68682 0.0
H574 H 0.81717 0.80075 0.77969 0.0
H575 H 0.79315 0.77796 0.75596 0.0
H576 H 0.77416 0.73856 0.81345 0.0
H577 H 0.79817 0.76128 0.83738 0.0
H578 H 0.78267 0.71272 0.77499 0.0
H579 H 0.74071 0.77803 0.79628 0.0
H580 H 0.7341 0.81865 0.8002 0.0
H581 H 0.7393 0.82675 0.72881 0.0
H582 H 0.74626 0.78619 0.7245 0.0
H583 H 0.6866 0.66131 0.73192 0.0
H584 H 0.71323 0.68233 0.75428 0.0
H585 H 0.72452 0.72704 0.69854 0.0
H586 H 0.69741 0.70648 0.67627 0.0
H587 H 0.72087 0.7502 0.73557 0.0
H588 H 0.762 0.6855 0.71342 0.0
H589 H 0.76961 0.64515 0.70869 0.0
H590 H 0.76728 0.63597 0.7801 0.0
H591 H 0.75936 0.67624 0.78525 0.0
C592 C 0.80803 0.78714 0.78729 0.0
C593 C 0.80946 0.7829 0.81045 0.0
C594 C 0.79427 0.77418 0.77371 0.0
C595 C 0.78174 0.75676 0.78303 0.0
C596 C 0.78369 0.75198 0.80598 0.0
C597 C 0.79734 0.76502 0.81962 0.0
C598 C 0.76605 0.74401 0.76897 0.0
C599 C 0.76899 0.72082 0.76655 0.0
C600 C 0.7486 0.75476 0.75754 0.0
C601 C 0.74423 0.77912 0.76009 0.0
C602 C 0.74062 0.7885 0.78143 0.0
C603 C 0.73678 0.81151 0.78372 0.0
C604 C 0.73634 0.82528 0.76477 0.0
C605 C 0.73968 0.81606 0.74348 0.0
C606 C 0.74355 0.79307 0.7411 0.0
C607 C 0.69478 0.6756 0.72439 0.0
C608 C 0.68993 0.68221 0.7023 0.0
C609 C 0.71009 0.68753 0.73716 0.0
C610 C 0.72113 0.70606 0.72798 0.0
C611 C 0.71623 0.71277 0.70596 0.0
C612 C 0.70075 0.70098 0.69325 0.0
C613 C 0.73741 0.71878 0.7415 0.0
C614 C 0.73457 0.74202 0.74388 0.0
C615 C 0.75507 0.70807 0.75273 0.0
C616 C 0.75988 0.68385 0.7497 0.0
C617 C 0.76295 0.67485 0.72811 0.0
C618 C 0.76734 0.652 0.72535 0.0
C619 C 0.76887 0.638 0.74408 0.0
C620 C 0.76606 0.64683 0.76561 0.0
C621 C 0.76164 0.66968 0.76846 0.0
H622 H 0.77227 0.62031 0.74191 0.0
H623 H 0.73337 0.84309 0.76658 0.0
H624 H 0.14121 0.18103 0.95138 0.0
H625 H 0.15866 0.18973 0.98693 0.0
H626 H 0.22017 0.20221 0.95298 0.0
H627 H 0.20247 0.19345 0.9168 0.0
H628 H 0.22516 0.17296 0.98718 0.0
H629 H 0.19803 0.2455 0.98192 0.0
H630 H 0.17246 0.27623 0.97277 0.0
H631 H 0.12626 0.25127 0.02119 0.0
H632 H 0.15134 0.22018 0.03041 0.0
H633 H 0.19341 0.18897 0.11644 0.0
H634 H 0.21039 0.20535 0.0828 0.0
H635 H 0.19658 0.1444 0.04624 0.0
H636 H 0.18005 0.12817 0.07947 0.0
H637 H 0.1873 0.2148 0.04787 0.0
H638 H 0.22565 0.13545 0.00302 0.0
H639 H 0.25234 0.10582 0.01233 0.0
H640 H 0.27967 0.14713 0.06437 0.0
H641 H 0.2534 0.17722 0.05517 0.0
C642 C 0.15835 0.18603 0.95135 0.0
C643 C 0.17052 0.18641 0.93135 0.0
C644 C 0.16829 0.19125 0.97171 0.0
C645 C 0.19068 0.19693 0.97264 0.0
C646 C 0.20282 0.1981 0.9526 0.0
C647 C 0.19271 0.19313 0.932 0.0
C648 C 0.20134 0.1985 0.99498 0.0
C649 C 0.21731 0.18242 0.0005 0.0
C650 C 0.19198 0.21174 0.0122 0.0
C651 C 0.1767 0.23051 0.00694 0.0
C652 C 0.18239 0.2465 0.99058 0.0
C653 C 0.16797 0.264 0.98537 0.0
C654 C 0.14777 0.26573 0.99642 0.0
C655 C 0.14195 0.24996 0.0127 0.0
C656 C 0.15632 0.23242 0.01798 0.0
C657 C 0.19484 0.17884 0.10142 0.0
C658 C 0.1852 0.15742 0.10041 0.0
C659 C 0.20449 0.18822 0.08221 0.0
C660 C 0.20491 0.17613 0.06194 0.0
C661 C 0.19696 0.154 0.06167 0.0
C662 C 0.18724 0.14477 0.08067 0.0
C663 C 0.20915 0.18741 0.04012 0.0
C664 C 0.19603 0.20601 0.03466 0.0
C665 C 0.22144 0.17674 0.023 0.0
C666 C 0.23753 0.15871 0.02832 0.0
C667 C 0.2375 0.13838 0.01628 0.0
C668 C 0.25252 0.12144 0.0216 0.0
C669 C 0.2677 0.1246 0.03892 0.0
C670 C 0.26789 0.1447 0.05097 0.0
C671 C 0.25291 0.1617 0.04572 0.0
H672 H 0.2793 0.11145 0.04302 0.0
H673 H 0.13661 0.27928 0.99235 0.0
H674 H 0.83676 0.11807 0.91531 0.0
H675 H 0.82272 0.13714 0.94842 0.0
H676 H 0.81379 0.19781 0.91007 0.0
H677 H 0.82762 0.17844 0.87634 0.0
H678 H 0.83894 0.20325 0.94965 0.0
H679 H 0.76868 0.17736 0.93122 0.0
H680 H 0.74017 0.1515 0.9172 0.0
H681 H 0.75422 0.10569 0.97086 0.0
H682 H 0.78306 0.13105 0.98503 0.0
H683 H 0.8324 0.21747 0.06997 0.0
H684 H 0.8163 0.22225 0.03223 0.0
H685 H 0.82603 0.15173 0.01922 0.0
H686 H 0.8423 0.14707 0.05619 0.0
H687 H 0.78559 0.16853 0.00217 0.0
H688 H 0.86583 0.18789 0.00517 0.0
H689 H 0.89599 0.21222 0.01856 0.0
H690 H 0.86214 0.27021 0.99336 0.0
H691 H 0.8317 0.24617 0.98002 0.0
C692 C 0.83151 0.13537 0.91378 0.0
C693 C 0.83341 0.14683 0.89332 0.0
C694 C 0.82328 0.14621 0.93268 0.0
C695 C 0.81696 0.16881 0.93164 0.0
C696 C 0.81836 0.18028 0.91111 0.0
C697 C 0.82625 0.16923 0.89194 0.0
C698 C 0.81158 0.18047 0.95288 0.0
C699 C 0.82664 0.1964 0.96092 0.0
C700 C 0.79545 0.17167 0.96754 0.0
C701 C 0.77804 0.15622 0.95924 0.0
C702 C 0.76577 0.16173 0.93999 0.0
C703 C 0.74954 0.14715 0.93201 0.0
C704 C 0.74537 0.12698 0.94315 0.0
C705 C 0.75743 0.12135 0.96229 0.0
C706 C 0.77369 0.13587 0.97034 0.0
C707 C 0.83064 0.203 0.05911 0.0
C708 C 0.83877 0.18196 0.06577 0.0
C709 C 0.82145 0.20573 0.03766 0.0
C710 C 0.81994 0.18732 0.023 0.0
C711 C 0.82686 0.16612 0.03032 0.0
C712 C 0.83635 0.16351 0.05137 0.0
C713 C 0.81401 0.1898 0.99905 0.0
C714 C 0.79688 0.17648 0.99055 0.0
C715 C 0.82818 0.20099 0.98394 0.0
C716 C 0.84645 0.21534 0.99187 0.0
C717 C 0.8648 0.20585 0.00262 0.0
C718 C 0.88193 0.21957 0.01018 0.0
C719 C 0.88095 0.24276 0.00688 0.0
C720 C 0.86285 0.25226 0.99596 0.0
C721 C 0.84566 0.23861 0.9884 0.0
H722 H 0.89423 0.25336 0.01273 0.0
H723 H 0.73279 0.11571 0.93694 0.0
H724 H 0.82093 0.77958 0.9298 0.0
H725 H 0.81118 0.76819 0.96827 0.0
H726 H 0.80857 0.83787 0.9879 0.0
H727 H 0.81797 0.84906 0.95005 0.0
H728 H 0.83658 0.77471 0.00269 0.0
H729 H 0.77813 0.84926 0.0296 0.0
H730 H 0.74425 0.86695 0.01548 0.0
H731 H 0.72914 0.80771 0.97748 0.0
H732 H 0.76275 0.78945 0.99163 0.0
H733 H 0.87302 0.83825 0.08843 0.0
H734 H 0.8583 0.81907 0.0559 0.0
H735 H 0.79984 0.8016 0.09309 0.0
H736 H 0.81452 0.82134 0.12609 0.0
H737 H 0.78887 0.81849 0.05408 0.0
H738 H 0.83391 0.75915 0.07444 0.0
H739 H 0.86645 0.73923 0.08898 0.0
H740 H 0.90487 0.76308 0.03346 0.0
H741 H 0.8727 0.78345 0.01875 0.0
C742 C 0.81752 0.79237 0.94225 0.0
C743 C 0.82041 0.81518 0.93709 0.0
C744 C 0.81201 0.78587 0.96418 0.0
C745 C 0.80891 0.80214 0.98101 0.0
C746 C 0.81032 0.82493 0.97525 0.0
C747 C 0.81599 0.83135 0.9536 0.0
C748 C 0.80815 0.79612 0.00518 0.0
C749 C 0.82585 0.78384 0.01399 0.0
C750 C 0.79347 0.807 0.02008 0.0
C751 C 0.77302 0.81792 0.01178 0.0
C752 C 0.76749 0.83986 0.01844 0.0
C753 C 0.74835 0.85004 0.01036 0.0
C754 C 0.73454 0.83846 0.99561 0.0
C755 C 0.73986 0.81667 0.9889 0.0
C756 C 0.75898 0.80641 0.99692 0.0
C757 C 0.85714 0.83014 0.08991 0.0
C758 C 0.8449 0.83148 0.10986 0.0
C759 C 0.84882 0.81889 0.07129 0.0
C760 C 0.82811 0.80848 0.07211 0.0
C761 C 0.81595 0.80931 0.09214 0.0
C762 C 0.82435 0.82061 0.11095 0.0
C763 C 0.81868 0.79924 0.05104 0.0
C764 C 0.79902 0.80854 0.04292 0.0
C765 C 0.83125 0.78515 0.03686 0.0
C766 C 0.85078 0.77279 0.04544 0.0
C767 C 0.84931 0.76022 0.06536 0.0
C768 C 0.86771 0.74885 0.07364 0.0
C769 C 0.8877 0.74987 0.06213 0.0
C770 C 0.88934 0.76225 0.04231 0.0
C771 C 0.871 0.77367 0.03396 0.0
H772 H 0.90193 0.74106 0.06858 0.0
H773 H 0.71974 0.84638 0.98936 0.0
H774 H 0.11392 0.8071 0.05227 0.0
H775 H 0.13171 0.8037 0.01599 0.0
H776 H 0.19534 0.80245 0.04817 0.0
H777 H 0.1774 0.80609 0.08494 0.0
H778 H 0.19435 0.83367 0.01723 0.0
H779 H 0.17948 0.75719 0.01593 0.0
H780 H 0.15936 0.72177 0.02169 0.0
H781 H 0.11028 0.7425 0.97422 0.0
H782 H 0.12987 0.7782 0.96841 0.0
H783 H 0.17946 0.82211 0.88485 0.0
H784 H 0.19124 0.80513 0.92039 0.0
H785 H 0.16369 0.86122 0.95654 0.0
H786 H 0.15221 0.87823 0.92145 0.0
H787 H 0.16505 0.79082 0.95241 0.0
H788 H 0.18834 0.87214 0.00322 0.0
H789 H 0.21037 0.9063 0.99721 0.0
H790 H 0.24727 0.87299 0.94561 0.0
H791 H 0.22571 0.83848 0.95152 0.0
C792 C 0.13168 0.8056 0.05173 0.0
C793 C 0.14428 0.80711 0.07142 0.0
C794 C 0.14186 0.80339 0.03094 0.0
C795 C 0.16489 0.80259 0.02931 0.0
C796 C 0.17754 0.80288 0.04905 0.0
C797 C 0.16728 0.80492 0.07002 0.0
C798 C 0.17518 0.80508 0.00687 0.0
C799 C 0.18835 0.82405 0.00305 0.0
C800 C 0.16822 0.79193 0.98841 0.0
C801 C 0.15624 0.77043 0.99171 0.0
C802 C 0.16435 0.75427 0.00679 0.0
C803 C 0.15302 0.73412 0.01006 0.0
C804 C 0.13356 0.72988 0.99831 0.0
C805 C 0.12539 0.74578 0.98326 0.0
C806 C 0.13664 0.76597 0.97993 0.0
C807 C 0.17636 0.83101 0.90038 0.0
C808 C 0.16475 0.85144 0.90036 0.0
C809 C 0.1831 0.82129 0.92064 0.0
C810 C 0.1786 0.83201 0.94112 0.0
C811 C 0.16783 0.85283 0.94097 0.0
C812 C 0.16103 0.86246 0.92085 0.0
C813 C 0.1823 0.82059 0.9629 0.0
C814 C 0.17183 0.79993 0.96657 0.0
C815 C 0.19212 0.83195 0.9812 0.0
C816 C 0.20537 0.85265 0.97785 0.0
C817 C 0.20129 0.87198 0.99074 0.0
C818 C 0.21366 0.89146 0.9873 0.0
C819 C 0.23021 0.89182 0.97104 0.0
C820 C 0.23443 0.8727 0.95818 0.0
C821 C 0.22211 0.85318 0.96155 0.0
H822 H 0.23975 0.90692 0.9684 0.0
H823 H 0.12482 0.71427 0.00088 0.0
H824 H 0.09743 0.18432 0.20026 0.0
H825 H 0.0641 0.20586 0.20948 0.0
H826 H 0.04845 0.21046 0.139 0.0
H827 H 0.08132 0.18921 0.12981 0.0
H828 H 0.03653 0.24885 0.16167 0.0
H829 H 0.0301 0.16591 0.17069 0.0
H830 H 0.04042 0.13053 0.18945 0.0
H831 H 0.02432 0.15924 0.25349 0.0
H832 H 0.01411 0.19486 0.23506 0.0
H833 H 0.94117 0.21306 0.1151 0.0
H834 H 0.9757 0.22557 0.13139 0.0
H835 H 0.94637 0.22489 0.19734 0.0
H836 H 0.91139 0.21236 0.18086 0.0
H837 H 0.98112 0.19777 0.19508 0.0
H838 H 0.97072 0.27363 0.17918 0.0
H839 H 0.95912 0.30732 0.15838 0.0
H840 H 0.00582 0.29247 0.10642 0.0
H841 H 0.01749 0.2585 0.12667 0.0
C842 C 0.0871 0.19043 0.18677 0.0
C843 C 0.09171 0.18477 0.16435 0.0
C844 C 0.06811 0.20273 0.19205 0.0
C845 C 0.05372 0.20964 0.17492 0.0
C846 C 0.05933 0.20542 0.15249 0.0
C847 C 0.07803 0.19303 0.14727 0.0
C848 C 0.03127 0.21809 0.17972 0.0
C849 C 0.02434 0.23797 0.16928 0.0
C850 C 0.01554 0.20438 0.19057 0.0
C851 C 0.02163 0.18305 0.20158 0.0
C852 C 0.02889 0.16467 0.18879 0.0
C853 C 0.0347 0.1446 0.19935 0.0
C854 C 0.0331 0.14267 0.22266 0.0
C855 C 0.02562 0.16079 0.23545 0.0
C856 C 0.01983 0.18092 0.22496 0.0
C857 C 0.94184 0.21633 0.13298 0.0
C858 C 0.92373 0.21154 0.14675 0.0
C859 C 0.96156 0.2237 0.1423 0.0
C860 C 0.96366 0.2263 0.16563 0.0
C861 C 0.94507 0.22316 0.17929 0.0
C862 C 0.92512 0.21604 0.16987 0.0
C863 C 0.98611 0.22765 0.17534 0.0
C864 C 0.99315 0.20954 0.18857 0.0
C865 C 0.00186 0.24297 0.16694 0.0
C866 C 0.99504 0.26348 0.15456 0.0
C867 C 0.97847 0.27747 0.16327 0.0
C868 C 0.97188 0.29664 0.15157 0.0
C869 C 0.98175 0.30205 0.13111 0.0
C870 C 0.99824 0.2883 0.12231 0.0
C871 C 0.00489 0.2691 0.13394 0.0
H872 H 0.97661 0.31689 0.12207 0.0
H873 H 0.0376 0.12711 0.23081 0.0
H874 H 0.83685 0.92831 0.20873 0.0
H875 H 0.82829 0.96801 0.21617 0.0
H876 H 0.84081 0.98363 0.14666 0.0
H877 H 0.84965 0.94447 0.1393 0.0
H878 H 0.85858 0.00261 0.21005 0.0
H879 H 0.80732 0.02417 0.12962 0.0
H880 H 0.77699 0.00748 0.10781 0.0
H881 H 0.75625 0.9701 0.16561 0.0
H882 H 0.78623 0.98681 0.1879 0.0
H883 H 0.88935 0.09696 0.15163 0.0
H884 H 0.87823 0.06115 0.16747 0.0
H885 H 0.81503 0.08892 0.18519 0.0
H886 H 0.82609 0.12514 0.16915 0.0
H887 H 0.8108 0.05026 0.16228 0.0
H888 H 0.84898 0.07278 0.227 0.0
H889 H 0.87886 0.08958 0.2494 0.0
H890 H 0.92372 0.0393 0.22559 0.0
H891 H 0.89424 0.02238 0.20277 0.0
C892 C 0.83731 0.94021 0.19501 0.0
C893 C 0.84404 0.93342 0.17348 0.0
C894 C 0.83247 0.96281 0.19928 0.0
C895 C 0.83373 0.97868 0.18192 0.0
C896 C 0.83941 0.97162 0.16023 0.0
C897 C 0.84461 0.94926 0.15608 0.0
C898 C 0.83182 0.00303 0.18639 0.0
C899 C 0.84786 0.01311 0.19999 0.0
C900 C 0.81736 0.01666 0.17377 0.0
C901 C 0.79909 0.00676 0.16045 0.0
C902 C 0.79619 0.01254 0.13776 0.0
C903 C 0.77908 0.00303 0.12528 0.0
C904 C 0.76471 0.98773 0.13531 0.0
C905 C 0.76741 0.98192 0.15785 0.0
C906 C 0.78449 0.99138 0.1704 0.0
C907 C 0.87318 0.09562 0.15917 0.0
C908 C 0.85854 0.11386 0.15898 0.0
C909 C 0.86691 0.07515 0.16843 0.0
C910 C 0.84589 0.07242 0.17776 0.0
C911 C 0.83139 0.09074 0.17821 0.0
C912 C 0.83774 0.11139 0.16905 0.0
C913 C 0.83866 0.04968 0.18461 0.0
C914 C 0.82096 0.03991 0.17306 0.0
C915 C 0.85148 0.03636 0.19929 0.0
C916 C 0.86933 0.04629 0.21316 0.0
C917 C 0.86524 0.06535 0.22646 0.0
C918 C 0.88211 0.0749 0.23923 0.0
C919 C 0.90317 0.06551 0.23892 0.0
C920 C 0.90739 0.04653 0.22585 0.0
C921 C 0.89057 0.03692 0.21303 0.0
H922 H 0.91622 0.07294 0.24881 0.0
H923 H 0.75148 0.98038 0.12562 0.0
H924 H 0.89954 0.81777 0.21574 0.0
H925 H 0.93134 0.79725 0.23073 0.0
H926 H 0.97478 0.84669 0.20172 0.0
H927 H 0.94348 0.86722 0.18741 0.0
H928 H 0.96019 0.77683 0.20731 0.0
H929 H 0.02108 0.85262 0.2239 0.0
H930 H 0.02072 0.88778 0.24555 0.0
H931 H 0.96837 0.86241 0.2867 0.0
H932 H 0.96863 0.82687 0.26557 0.0
H933 H 0.04646 0.78792 0.1411 0.0
H934 H 0.01579 0.78133 0.16599 0.0
H935 H 0.05932 0.78474 0.22321 0.0
H936 H 0.09034 0.79209 0.19795 0.0
H937 H 0.03021 0.81365 0.22887 0.0
H938 H 0.02186 0.7383 0.21637 0.0
H939 H 0.02227 0.70154 0.19747 0.0
H940 H 0.97006 0.72279 0.15388 0.0
H941 H 0.96953 0.7598 0.17218 0.0
C942 C 0.91589 0.82456 0.21321 0.0
C943 C 0.91904 0.84398 0.20018 0.0
C944 C 0.93403 0.81281 0.22176 0.0
C945 C 0.95553 0.82048 0.21763 0.0
C946 C 0.95845 0.84062 0.20575 0.0
C947 C 0.94047 0.85226 0.19725 0.0
C948 C 0.97509 0.80617 0.22198 0.0
C949 C 0.9755 0.78463 0.21243 0.0
C950 C 0.9949 0.81557 0.2302 0.0
C951 C 0.99496 0.83692 0.24316 0.0
C952 C 0.00967 0.85435 0.23773 0.0
C953 C 0.00942 0.87443 0.24988 0.0
C954 C 0.99455 0.87732 0.26751 0.0
C955 C 0.97988 0.86015 0.27303 0.0
C956 C 0.98005 0.84003 0.26095 0.0
C957 C 0.04969 0.78648 0.15893 0.0
C958 C 0.07068 0.791 0.16761 0.0
C959 C 0.03209 0.78238 0.17326 0.0
C960 C 0.03508 0.78251 0.19666 0.0
C961 C 0.05655 0.78458 0.20526 0.0
C962 C 0.07428 0.78872 0.1908 0.0
C963 C 0.01543 0.78591 0.21118 0.0
C964 C 0.01493 0.80529 0.2246 0.0
C965 C 0.99557 0.7742 0.20708 0.0
C966 C 0.99558 0.75189 0.19584 0.0
C967 C 0.01049 0.7352 0.20271 0.0
C968 C 0.01075 0.71429 0.19208 0.0
C969 C 0.99616 0.70982 0.17452 0.0
C970 C 0.98129 0.72625 0.16755 0.0
C971 C 0.98095 0.74719 0.17812 0.0
H972 H 0.99641 0.69362 0.1663 0.0
H973 H 0.99437 0.89288 0.27687 0.0
H974 H 0.17151 0.07672 0.18866 0.0
H975 H 0.17341 0.03638 0.19702 0.0
H976 H 0.10837 0.02752 0.16934 0.0
H977 H 0.10633 0.0674 0.16114 0.0
H978 H 0.11456 0.001 0.20586 0.0
H979 H 0.15407 0.02104 0.13686 0.0
H980 H 0.18326 0.04083 0.11597 0.0
H981 H 0.23246 0.00972 0.15727 0.0
H982 H 0.2035 0.98996 0.17857 0.0
H983 H 0.0974 0.9048 0.14316 0.0
H984 H 0.10444 0.94229 0.15771 0.0
H985 H 0.16704 0.92042 0.18385 0.0
H986 H 0.16008 0.88253 0.16931 0.0
H987 H 0.16951 0.96031 0.15963 0.0
H988 H 0.12842 0.93166 0.22058 0.0
H989 H 0.0983 0.91126 0.23929 0.0
H990 H 0.05135 0.95791 0.21252 0.0
H991 H 0.08113 0.97841 0.19333 0.0
C992 C 0.15747 0.06619 0.18484 0.0
C993 C 0.13889 0.07513 0.17397 0.0
C994 C 0.1586 0.04319 0.18956 0.0
C995 C 0.14111 0.02894 0.18358 0.0
C996 C 0.12204 0.03818 0.17412 0.0
C997 C 0.12097 0.06098 0.16929 0.0
C998 C 0.14309 0.00419 0.1847 0.0
C999 C 0.12667 0.99204 0.19594 0.0
C1000 C 0.1593 0.99249 0.17229 0.0
C1001 C 0.17666 0.00429 0.15947 0.0
C1002 C 0.17112 0.01857 0.14157 0.0
C1003 C 0.18761 0.02975 0.12965 0.0
C1004 C 0.2097 0.0266 0.13534 0.0
C1005 C 0.21534 0.0122 0.15292 0.0
C1006 C 0.1989 0.00101 0.16492 0.0
C1007 C 0.11266 0.90786 0.15206 0.0
C1008 C 0.1282 0.89067 0.15503 0.0
C1009 C 0.11658 0.92928 0.16052 0.0
C1010 C 0.13612 0.93403 0.17214 0.0
C1011 C 0.15178 0.91701 0.17508 0.0
C1012 C 0.14778 0.89542 0.16676 0.0
C1013 C 0.14033 0.95723 0.17991 0.0
C1014 C 0.1579 0.96909 0.17032 0.0
C1015 C 0.12509 0.96866 0.19374 0.0
C1016 C 0.10706 0.95655 0.20545 0.0
C1017 C 0.11166 0.93751 0.21857 0.0
C1018 C 0.09464 0.92593 0.22928 0.0
C1019 C 0.07292 0.93328 0.22709 0.0
C1020 C 0.06819 0.95225 0.21422 0.0
C1021 C 0.08515 0.96389 0.20345 0.0
H1022 H 0.05976 0.92428 0.23537 0.0
H1023 H 0.22245 0.03526 0.12609 0.0
H1024 H 0.92795 0.82782 0.88508 0.0
H1025 H 0.96409 0.81955 0.86979 0.0
H1026 H 0.93416 0.78559 0.81357 0.0
H1027 H 0.89753 0.79406 0.82884 0.0
H1028 H 0.988 0.7833 0.85792 0.0
H1029 H 0.96596 0.80077 0.76755 0.0
H1030 H 0.93647 0.81779 0.74468 0.0
H1031 H 0.92233 0.86434 0.79778 0.0
H1032 H 0.95187 0.84771 0.82082 0.0
H1033 H 0.09452 0.81014 0.81635 0.0
H1034 H 0.05899 0.79078 0.81187 0.0
H1035 H 0.02529 0.85425 0.81749 0.0
H1036 H 0.06031 0.87339 0.82192 0.0
H1037 H 0.00381 0.82664 0.78875 0.0
H1038 H 0.03752 0.82331 0.86457 0.0
H1039 H 0.06699 0.81134 0.89045 0.0
H1040 H 0.05742 0.74279 0.87046 0.0
H1041 H 0.02803 0.75445 0.8443 0.0
C1042 C 0.92897 0.81829 0.86963 0.0
C1043 C 0.90987 0.81188 0.858 0.0
C1044 C 0.9497 0.81338 0.861 0.0
C1045 C 0.95185 0.80206 0.84047 0.0
C1046 C 0.93285 0.79443 0.8294 0.0
C1047 C 0.91197 0.79927 0.83814 0.0
C1048 C 0.97393 0.80106 0.82991 0.0
C1049 C 0.99144 0.79216 0.84241 0.0
C1050 C 0.97847 0.81255 0.80966 0.0
C1051 C 0.96087 0.82282 0.79595 0.0
C1052 C 0.95654 0.81464 0.77429 0.0
C1053 C 0.93984 0.82423 0.76131 0.0
C1054 C 0.92747 0.84208 0.76981 0.0
C1055 C 0.93186 0.85046 0.79125 0.0
C1056 C 0.94857 0.84097 0.80427 0.0
C1057 C 0.07952 0.81993 0.81594 0.0
C1058 C 0.08006 0.84319 0.81983 0.0
C1059 C 0.05927 0.80888 0.81341 0.0
C1060 C 0.03948 0.82106 0.81455 0.0
C1061 C 0.0403 0.84449 0.81648 0.0
C1062 C 0.06034 0.85541 0.81921 0.0
C1063 C 0.01785 0.80992 0.8174 0.0
C1064 C 0.00039 0.81651 0.80346 0.0
C1065 C 0.01333 0.79674 0.8366 0.0
C1066 C 0.03084 0.78975 0.85235 0.0
C1067 C 0.04181 0.80571 0.86565 0.0
C1068 C 0.05847 0.79898 0.88035 0.0
C1069 C 0.06412 0.77632 0.88204 0.0
C1070 C 0.05307 0.76034 0.86908 0.0
C1071 C 0.03642 0.76699 0.85431 0.0
H1072 H 0.07702 0.77114 0.89344 0.0
H1073 H 0.91453 0.84945 0.75975 0.0
H1074 H 0.12713 0.94715 0.80947 0.0
H1075 H 0.14085 0.98407 0.79981 0.0
H1076 H 0.20744 0.9588 0.80012 0.0
H1077 H 0.19345 0.92128 0.80997 0.0
H1078 H 0.20357 0.99317 0.8278 0.0
H1079 H 0.18789 0.98496 0.75198 0.0
H1080 H 0.16861 0.97304 0.71761 0.0
H1081 H 0.1136 0.01483 0.73469 0.0
H1082 H 0.13232 0.02675 0.76935 0.0
H1083 H 0.19655 0.11656 0.83488 0.0
H1084 H 0.2081 0.08166 0.81603 0.0
H1085 H 0.14377 0.05344 0.82765 0.0
H1086 H 0.13243 0.0876 0.84691 0.0
H1087 H 0.16428 0.04872 0.78059 0.0
H1088 H 0.17744 0.03891 0.86337 0.0
H1089 H 0.1969 0.05032 0.89791 0.0
H1090 H 0.25902 0.04264 0.86443 0.0
H1091 H 0.23984 0.0314 0.82963 0.0
C1092 C 0.14465 0.94927 0.80679 0.0
C1093 C 0.15926 0.9315 0.81062 0.0
C1094 C 0.15252 0.97038 0.80102 0.0
C1095 C 0.17522 0.97426 0.79899 0.0
C1096 C 0.18985 0.95614 0.80139 0.0
C1097 C 0.18187 0.93476 0.80695 0.0
C1098 C 0.18304 0.99785 0.7986 0.0
C1099 C 0.19576 0.0053 0.81683 0.0
C1100 C 0.17315 0.01382 0.78421 0.0
C1101 C 0.16163 0.00684 0.76331 0.0
C1102 C 0.17164 0.99156 0.74848 0.0
C1103 C 0.1608 0.98479 0.72893 0.0
C1104 C 0.13991 0.9932 0.72395 0.0
C1105 C 0.12981 0.00839 0.73853 0.0
C1106 C 0.14058 0.01522 0.75812 0.0
C1107 C 0.18492 0.10289 0.83329 0.0
C1108 C 0.16366 0.10467 0.84249 0.0
C1109 C 0.1915 0.08309 0.82249 0.0
C1110 C 0.17667 0.06519 0.82031 0.0
C1111 C 0.15534 0.06721 0.829 0.0
C1112 C 0.14897 0.08665 0.84019 0.0
C1113 C 0.18323 0.04344 0.81056 0.0
C1114 C 0.17318 0.03651 0.79056 0.0
C1115 C 0.19582 0.02798 0.82304 0.0
C1116 C 0.20725 0.0346 0.84392 0.0
C1117 C 0.19524 0.03983 0.86337 0.0
C1118 C 0.20621 0.04622 0.88298 0.0
C1119 C 0.22918 0.04727 0.88334 0.0
C1120 C 0.24123 0.04187 0.86411 0.0
C1121 C 0.23032 0.03549 0.84445 0.0
H1122 H 0.23765 0.05222 0.89854 0.0
H1123 H 0.13154 0.98793 0.70881 0.0
H1124 H 0.10088 0.19114 0.81171 0.0
H1125 H 0.06548 0.19498 0.79216 0.0
H1126 H 0.03173 0.19319 0.85585 0.0
H1127 H 0.06671 0.18948 0.87519 0.0
H1128 H 0.03658 0.16237 0.79265 0.0
H1129 H 0.98364 0.21624 0.85546 0.0
H1130 H 0.98695 0.25231 0.87536 0.0
H1131 H 0.03464 0.2748 0.82724 0.0
H1132 H 0.0314 0.239 0.8068 0.0
H1133 H 0.94131 0.11433 0.83001 0.0
H1134 H 0.97595 0.13272 0.82133 0.0
H1135 H 0.94099 0.18702 0.78946 0.0
H1136 H 0.9059 0.16865 0.79835 0.0
H1137 H 0.97002 0.20271 0.8189 0.0
H1138 H 0.97442 0.15417 0.75741 0.0
H1139 H 0.97111 0.11895 0.73598 0.0
H1140 H 0.02048 0.08846 0.77748 0.0
H1141 H 0.02387 0.12334 0.7994 0.0
C1142 C 0.08592 0.19247 0.8215 0.0
C1143 C 0.08645 0.18979 0.84493 0.0
C1144 C 0.06572 0.19457 0.81033 0.0
C1145 C 0.04591 0.19445 0.8225 0.0
C1146 C 0.04672 0.19374 0.84604 0.0
C1147 C 0.06676 0.19142 0.85712 0.0
C1148 C 0.02442 0.1908 0.81122 0.0
C1149 C 0.02204 0.17147 0.79797 0.0
C1150 C 0.00547 0.20314 0.8174 0.0
C1151 C 0.00725 0.22486 0.82955 0.0
C1152 C 0.99469 0.22893 0.84896 0.0
C1153 C 0.9966 0.24933 0.86039 0.0
C1154 C 0.011 0.26583 0.85258 0.0
C1155 C 0.02352 0.26198 0.8333 0.0
C1156 C 0.02167 0.24162 0.8218 0.0
C1157 C 0.94092 0.13 0.82083 0.0
C1158 C 0.92083 0.14008 0.81499 0.0
C1159 C 0.96079 0.14043 0.81568 0.0
C1160 C 0.96111 0.16114 0.80449 0.0
C1161 C 0.94112 0.17097 0.79796 0.0
C1162 C 0.92111 0.16043 0.80302 0.0
C1163 C 0.98232 0.17326 0.80215 0.0
C1164 C 0.98458 0.19414 0.81281 0.0
C1165 C 0.00117 0.16254 0.79327 0.0
C1166 C -0.00059 0.14146 0.78006 0.0
C1167 C 0.98451 0.13993 0.76204 0.0
C1168 C 0.98263 0.12001 0.7498 0.0
C1169 C 0.99559 0.10149 0.75535 0.0
C1170 C 0.01049 0.10284 0.77316 0.0
C1171 C 0.01244 0.12272 0.78547 0.0
H1172 H 0.99409 0.08608 0.74586 0.0
H1173 H 0.01246 0.2816 0.86146 0.0
H1174 H 0.81686 0.90858 0.87132 0.0
H1175 H 0.80484 0.94118 0.85013 0.0
H1176 H 0.81082 0.9038 0.78839 0.0
H1177 H 0.82254 0.87054 0.80993 0.0
H1178 H 0.8351 0.94374 0.78914 0.0
H1179 H 0.76137 0.92438 0.79824 0.0
H1180 H 0.72815 0.9094 0.8166 0.0
H1181 H 0.73131 0.96167 0.86609 0.0
H1182 H 0.76474 0.97678 0.8483 0.0
H1183 H 0.83247 0.06476 0.78099 0.0
H1184 H 0.81713 0.02793 0.77014 0.0
H1185 H 0.81217 0.00987 0.84006 0.0
H1186 H 0.82776 0.04588 0.85075 0.0
H1187 H 0.77556 0.9952 0.81338 0.0
H1188 H 0.85841 0.99686 0.81299 0.0
H1189 H 0.8931 0.01115 0.79684 0.0
H1190 H 0.87165 0.99166 0.73098 0.0
H1191 H 0.83675 0.97744 0.7468 0.0
C1192 C 0.81511 0.90711 0.85329 0.0
C1193 C 0.82071 0.88717 0.84222 0.0
C1194 C 0.80805 0.92569 0.84118 0.0
C1195 C 0.80669 0.92486 0.81768 0.0
C1196 C 0.81151 0.90467 0.80653 0.0
C1197 C 0.81817 0.88577 0.8188 0.0
C1198 C 0.80353 0.94623 0.80542 0.0
C1199 C 0.82157 0.95479 0.7935 0.0
C1200 C 0.78583 0.96062 0.81093 0.0
C1201 C 0.76558 0.9518 0.8218 0.0
C1202 C 0.75504 0.93266 0.81308 0.0
C1203 C 0.73616 0.92413 0.82341 0.0
C1204 C 0.7276 0.9346 0.84247 0.0
C1205 C 0.73791 0.95362 0.85126 0.0
C1206 C 0.75681 0.96222 0.84101 0.0
C1207 C 0.82767 0.05299 0.79392 0.0
C1208 C 0.83148 0.05792 0.81667 0.0
C1209 C 0.81889 0.03207 0.78774 0.0
C1210 C 0.81343 0.01626 0.80433 0.0
C1211 C 0.81605 0.02189 0.82701 0.0
C1212 C 0.82517 0.04238 0.8331 0.0
C1213 C 0.80787 0.9927 0.79892 0.0
C1214 C 0.78826 0.98381 0.80759 0.0
C1215 C 0.82405 0.97796 0.79041 0.0
C1216 C 0.84499 0.98633 0.78099 0.0
C1217 C 0.8611 0.99573 0.79506 0.0
C1218 C 0.88077 0.0038 0.78598 0.0
C1219 C 0.88455 0.00237 0.76289 0.0
C1220 C 0.86868 0.9928 0.74884 0.0
C1221 C 0.84896 0.98475 0.75785 0.0
H1222 H 0.89979 0.00862 0.75588 0.0
H1223 H 0.71299 0.92796 0.85045 0.0
H1224 H 0.68485 0.67084 0.41696 0.0
H1225 H 0.6937 0.67147 0.45715 0.0
H1226 H 0.62538 0.68356 0.47252 0.0
H1227 H 0.6164 0.68208 0.43262 0.0
H1228 H 0.68712 0.69579 0.49862 0.0
H1229 H 0.60873 0.64153 0.50462 0.0
H1230 H 0.58538 0.61838 0.47984 0.0
H1231 H 0.64088 0.60501 0.43732 0.0
H1232 H 0.66461 0.62772 0.46207 0.0
H1233 H 0.65457 0.67286 0.61189 0.0
H1234 H 0.66239 0.68465 0.57333 0.0
H1235 H 0.67284 0.61547 0.55451 0.0
H1236 H 0.66348 0.60373 0.59258 0.0
H1237 H 0.64503 0.6311 0.52867 0.0
H1238 H 0.71459 0.65846 0.55283 0.0
H1239 H 0.74091 0.67947 0.57629 0.0
H1240 H 0.70982 0.74142 0.55777 0.0
H1241 H 0.6831 0.72076 0.53444 0.0
C1242 C 0.67193 0.67458 0.42891 0.0
C1243 C 0.6499 0.67604 0.42186 0.0
C1244 C 0.67701 0.67499 0.45184 0.0
C1245 C 0.66011 0.6771 0.46776 0.0
C1246 C 0.6386 0.68164 0.46047 0.0
C1247 C 0.63347 0.68076 0.4377 0.0
C1248 C 0.66367 0.66977 0.49122 0.0
C1249 C 0.67801 0.68167 0.50534 0.0
C1250 C 0.65238 0.65082 0.49964 0.0
C1251 C 0.63837 0.6365 0.48508 0.0
C1252 C 0.61596 0.63353 0.49006 0.0
C1253 C 0.60266 0.6205 0.47602 0.0
C1254 C 0.61163 0.61029 0.45698 0.0
C1255 C 0.63394 0.61297 0.45203 0.0
C1256 C 0.64732 0.62592 0.46606 0.0
C1257 C 0.65911 0.66032 0.59957 0.0
C1258 C 0.65826 0.63742 0.60497 0.0
C1259 C 0.66371 0.66704 0.57756 0.0
C1260 C 0.66817 0.65097 0.56087 0.0
C1261 C 0.66921 0.62821 0.56695 0.0
C1262 C 0.66394 0.62148 0.5887 0.0
C1263 C 0.66834 0.65726 0.5367 0.0
C1264 C 0.6545 0.64513 0.52225 0.0
C1265 C 0.68067 0.67551 0.52802 0.0
C1266 C 0.69672 0.68802 0.54201 0.0
C1267 C 0.71325 0.67655 0.55389 0.0
C1268 C 0.72827 0.6884 0.56714 0.0
C1269 C 0.72701 0.71176 0.56856 0.0
C1270 C 0.71077 0.72332 0.55667 0.0
C1271 C 0.6957 0.71155 0.5434 0.0
H1272 H 0.73865 0.72091 0.57883 0.0
H1273 H 0.60129 0.60027 0.4461 0.0
H1274 H 0.31361 0.66854 0.56182 0.0
H1275 H 0.30684 0.66961 0.52133 0.0
H1276 H 0.35734 0.71994 0.51398 0.0
H1277 H 0.36458 0.71827 0.55435 0.0
H1278 H 0.29979 0.69648 0.48341 0.0
H1279 H 0.39399 0.69963 0.47751 0.0
H1280 H 0.42658 0.6937 0.50156 0.0
H1281 H 0.39025 0.64674 0.54169 0.0
H1282 H 0.35762 0.65215 0.51768 0.0
H1283 H 0.33259 0.67962 0.36744 0.0
H1284 H 0.32625 0.69474 0.4052 0.0
H1285 H 0.35096 0.63329 0.43399 0.0
H1286 H 0.3579 0.61848 0.39663 0.0
H1287 H 0.37003 0.66706 0.45275 0.0
H1288 H 0.29525 0.64764 0.43389 0.0
H1289 H 0.26134 0.6488 0.41118 0.0
H1290 H 0.25644 0.71987 0.42184 0.0
H1291 H 0.2905 0.71916 0.4444 0.0
C1292 C 0.32241 0.68065 0.55167 0.0
C1293 C 0.33956 0.69334 0.56098 0.0
C1294 C 0.31854 0.68128 0.52855 0.0
C1295 C 0.33189 0.69454 0.51464 0.0
C1296 C 0.347 0.70946 0.52444 0.0
C1297 C 0.35108 0.70858 0.54747 0.0
C1298 C 0.33372 0.68888 0.49051 0.0
C1299 C 0.31517 0.69031 0.47655 0.0
C1300 C 0.35365 0.68026 0.48176 0.0
C1301 C 0.37333 0.67653 0.496 0.0
C1302 C 0.39302 0.688 0.49143 0.0
C1303 C 0.41148 0.68473 0.50505 0.0
C1304 C 0.41046 0.66993 0.5232 0.0
C1305 C 0.39101 0.65826 0.52768 0.0
C1306 C 0.37253 0.66142 0.51408 0.0
C1307 C 0.3365 0.66932 0.38186 0.0
C1308 C 0.34596 0.64796 0.37909 0.0
C1309 C 0.33279 0.67794 0.40341 0.0
C1310 C 0.33815 0.66515 0.42243 0.0
C1311 C 0.34688 0.64355 0.41957 0.0
C1312 C 0.35085 0.63509 0.39818 0.0
C1313 C 0.33604 0.67441 0.44544 0.0
C1314 C 0.35467 0.67366 0.4593 0.0
C1315 C 0.31602 0.68296 0.45412 0.0
C1316 C 0.29555 0.68339 0.4406 0.0
C1317 C 0.28704 0.66354 0.43123 0.0
C1318 C 0.26778 0.66411 0.41842 0.0
C1319 C 0.25678 0.68441 0.41501 0.0
C1320 C 0.265 0.70417 0.42446 0.0
C1321 C 0.28427 0.70369 0.43727 0.0
H1322 H 0.24187 0.68481 0.40509 0.0
H1323 H 0.42475 0.66745 0.53374 0.0
H1324 H 0.31801 0.32449 0.42327 0.0
H1325 H 0.31719 0.31709 0.46392 0.0
H1326 H 0.37905 0.35179 0.47147 0.0
H1327 H 0.37997 0.3592 0.43142 0.0
H1328 H 0.37742 0.31315 0.49667 0.0
H1329 H 0.33115 0.37873 0.4804 0.0
H1330 H 0.29929 0.39727 0.46267 0.0
H1331 H 0.25553 0.35094 0.49511 0.0
H1332 H 0.2872 0.33197 0.51282 0.0
H1333 H 0.39464 0.36943 0.59631 0.0
H1334 H 0.38679 0.3578 0.55802 0.0
H1335 H 0.32558 0.32818 0.57958 0.0
H1336 H 0.33319 0.34011 0.61824 0.0
H1337 H 0.32057 0.35283 0.54135 0.0
H1338 H 0.36722 0.29426 0.56567 0.0
H1339 H 0.39941 0.27768 0.58457 0.0
H1340 H 0.44252 0.31026 0.53775 0.0
H1341 H 0.41063 0.32738 0.51878 0.0
C1342 C 0.33151 0.33028 0.43363 0.0
C1343 C 0.34893 0.34262 0.42419 0.0
C1344 C 0.33101 0.32607 0.4568 0.0
C1345 C 0.34805 0.33396 0.47069 0.0
C1346 C 0.36579 0.34547 0.46108 0.0
C1347 C 0.36619 0.34985 0.43815 0.0
C1348 C 0.34717 0.3319 0.49546 0.0
C1349 C 0.36492 0.32165 0.5065 0.0
C1350 C 0.33048 0.34236 0.50828 0.0
C1351 C 0.31151 0.35377 0.49766 0.0
C1352 C 0.31474 0.3724 0.48359 0.0
C1353 C 0.29672 0.383 0.47358 0.0
C1354 C 0.2754 0.37524 0.47769 0.0
C1355 C 0.27205 0.3569 0.49188 0.0
C1356 C 0.29002 0.34622 0.50191 0.0
C1357 C 0.3795 0.36042 0.59302 0.0
C1358 C 0.36455 0.3557 0.61038 0.0
C1359 C 0.3751 0.35364 0.5711 0.0
C1360 C 0.35578 0.34178 0.56601 0.0
C1361 C 0.34066 0.33718 0.5832 0.0
C1362 C 0.34506 0.34399 0.60525 0.0
C1363 C 0.35139 0.33502 0.54248 0.0
C1364 C 0.33268 0.34358 0.53169 0.0
C1365 C 0.36719 0.32294 0.52989 0.0
C1366 C 0.38648 0.31216 0.54082 0.0
C1367 C 0.38357 0.29797 0.55944 0.0
C1368 C 0.40177 0.28848 0.57018 0.0
C1369 C 0.423 0.29293 0.56238 0.0
C1370 C 0.42606 0.30681 0.54376 0.0
C1371 C 0.40791 0.31638 0.53298 0.0
H1372 H 0.43707 0.28561 0.57076 0.0
H1373 H 0.26148 0.38347 0.46994 0.0
H1374 H 0.67724 0.30886 0.3829 0.0
H1375 H 0.69189 0.29388 0.41831 0.0
H1376 H 0.6801 0.35774 0.45025 0.0
H1377 H 0.66565 0.37265 0.4153 0.0
H1378 H 0.71792 0.33804 0.46588 0.0
H1379 H 0.64032 0.31666 0.44987 0.0
H1380 H 0.6125 0.29687 0.42705 0.0
H1381 H 0.64776 0.23501 0.43541 0.0
H1382 H 0.67589 0.25455 0.45812 0.0
H1383 H 0.65821 0.35123 0.56101 0.0
H1384 H 0.67475 0.34607 0.52422 0.0
H1385 H 0.68968 0.27721 0.54037 0.0
H1386 H 0.67336 0.28248 0.57791 0.0
H1387 H 0.66519 0.28417 0.49953 0.0
H1388 H 0.73243 0.30709 0.53065 0.0
H1389 H 0.75764 0.32882 0.55471 0.0
H1390 H 0.74122 0.38901 0.51892 0.0
H1391 H 0.71565 0.36776 0.49487 0.0
C1392 C 0.67829 0.31979 0.39738 0.0
C1393 C 0.67 0.34181 0.39648 0.0
C1394 C 0.68665 0.31122 0.41755 0.0
C1395 C 0.68693 0.32465 0.43693 0.0
C1396 C 0.68013 0.34709 0.4355 0.0
C1397 C 0.67167 0.35554 0.41554 0.0
C1398 C 0.69123 0.3152 0.45949 0.0
C1399 C 0.70672 0.32595 0.47326 0.0
C1400 C 0.67719 0.29876 0.46889 0.0
C1401 C 0.66028 0.28706 0.4554 0.0
C1402 C 0.64216 0.29886 0.44672 0.0
C1403 C 0.62635 0.2877 0.43383 0.0
C1404 C 0.6284 0.26471 0.42972 0.0
C1405 C 0.64623 0.25283 0.43856 0.0
C1406 C 0.6621 0.26393 0.45143 0.0
C1407 C 0.66526 0.33505 0.5569 0.0
C1408 C 0.66438 0.3172 0.57221 0.0
C1409 C 0.6749 0.33218 0.53594 0.0
C1410 C 0.68366 0.31134 0.52969 0.0
C1411 C 0.6832 0.29348 0.54503 0.0
C1412 C 0.67389 0.2965 0.56637 0.0
C1413 C 0.69078 0.30828 0.50616 0.0
C1414 C 0.67739 0.29522 0.49214 0.0
C1415 C 0.70665 0.32275 0.49658 0.0
C1416 C 0.72213 0.33575 0.51088 0.0
C1417 C 0.73411 0.32498 0.52795 0.0
C1418 C 0.74848 0.33722 0.5416 0.0
C1419 C 0.75105 0.36027 0.53832 0.0
C1420 C 0.73926 0.37113 0.52139 0.0
C1421 C 0.72487 0.35897 0.5077 0.0
H1422 H 0.76217 0.36972 0.54891 0.0
H1423 H 0.61615 0.2561 0.41974 0.0
H1424 H 0.59508 0.68466 0.69888 0.0
H1425 H 0.56246 0.70734 0.70821 0.0
H1426 H 0.52054 0.65301 0.68658 0.0
H1427 H 0.55254 0.63058 0.67755 0.0
H1428 H 0.53214 0.72207 0.67969 0.0
H1429 H 0.47541 0.6489 0.71276 0.0
H1430 H 0.47824 0.61814 0.74016 0.0
H1431 H 0.53052 0.65274 0.7741 0.0
H1432 H 0.52782 0.68393 0.74713 0.0
H1433 H 0.44038 0.69898 0.62267 0.0
H1434 H 0.47343 0.70752 0.64366 0.0
H1435 H 0.43479 0.71737 0.70365 0.0
H1436 H 0.40124 0.70837 0.68241 0.0
H1437 H 0.46457 0.68816 0.71169 0.0
H1438 H 0.47024 0.7604 0.68495 0.0
H1439 H 0.46765 0.79266 0.65927 0.0
H1440 H 0.51726 0.7637 0.61697 0.0
H1441 H 0.51993 0.73107 0.64212 0.0
C1442 C 0.57886 0.67748 0.6966 0.0
C1443 C 0.57635 0.65592 0.68733 0.0
C1444 C 0.56028 0.69043 0.70193 0.0
C1445 C 0.53904 0.68176 0.69845 0.0
C1446 C 0.5367 0.65992 0.68998 0.0
C1447 C 0.55507 0.64717 0.68453 0.0
C1448 C 0.51903 0.69588 0.70061 0.0
C1449 C 0.51737 0.71503 0.68705 0.0
C1450 C 0.49997 0.68752 0.71138 0.0
C1451 C 0.50133 0.66888 0.72791 0.0
C1452 C 0.48734 0.65013 0.72621 0.0
C1453 C 0.48898 0.63255 0.74163 0.0
C1454 C 0.50453 0.63349 0.75887 0.0
C1455 C 0.51849 0.65202 0.76073 0.0
C1456 C 0.51692 0.66965 0.74536 0.0
C1457 C 0.43879 0.70359 0.64018 0.0
C1458 C 0.41829 0.70269 0.65098 0.0
C1459 C 0.45775 0.70879 0.65218 0.0
C1460 C 0.45671 0.7133 0.6753 0.0
C1461 C 0.43601 0.71408 0.68582 0.0
C1462 C 0.41686 0.70897 0.67368 0.0
C1463 C 0.47747 0.71255 0.68849 0.0
C1464 C 0.47932 0.69598 0.70511 0.0
C1465 C 0.49669 0.72364 0.68094 0.0
C1466 C 0.49535 0.74326 0.66558 0.0
C1467 C 0.48056 0.76084 0.67013 0.0
C1468 C 0.47907 0.77921 0.65565 0.0
C1469 C 0.49231 0.78025 0.63653 0.0
C1470 C 0.50707 0.76291 0.63184 0.0
C1471 C 0.50863 0.74449 0.64627 0.0
H1472 H 0.49112 0.79448 0.62533 0.0
H1473 H 0.50578 0.61985 0.77078 0.0
H1474 H 0.36073 0.59027 0.62216 0.0
H1475 H 0.35039 0.55492 0.63951 0.0
H1476 H 0.31629 0.59059 0.69202 0.0
H1477 H 0.3267 0.62642 0.67463 0.0
H1478 H 0.34351 0.55835 0.7087 0.0
H1479 H 0.28584 0.56068 0.65643 0.0
H1480 H 0.26754 0.56701 0.62007 0.0
H1481 H 0.3062 0.51464 0.59021 0.0
H1482 H 0.325 0.50821 0.62628 0.0
H1483 H 0.32232 0.42683 0.69449 0.0
H1484 H 0.30761 0.46513 0.69651 0.0
H1485 H 0.37379 0.49122 0.69979 0.0
H1486 H 0.3884 0.45335 0.69797 0.0
H1487 H 0.31418 0.49449 0.66443 0.0
H1488 H 0.37722 0.54021 0.72376 0.0
H1489 H 0.39397 0.53398 0.76088 0.0
H1490 H 0.34058 0.49048 0.77906 0.0
H1491 H 0.32328 0.4967 0.74218 0.0
C1492 C 0.35087 0.59069 0.63728 0.0
C1493 C 0.3446 0.61118 0.64704 0.0
C1494 C 0.34481 0.57043 0.6471 0.0
C1495 C 0.33232 0.57011 0.6669 0.0
C1496 C 0.32579 0.59049 0.67665 0.0
C1497 C 0.33173 0.6109 0.66668 0.0
C1498 C 0.32781 0.54831 0.67792 0.0
C1499 C 0.33678 0.54439 0.69925 0.0
C1500 C 0.31818 0.53033 0.66593 0.0
C1501 C 0.30685 0.53397 0.64413 0.0
C1502 C 0.29053 0.55058 0.64209 0.0
C1503 C 0.28006 0.55418 0.62152 0.0
C1504 C 0.2857 0.54123 0.60285 0.0
C1505 C 0.30182 0.52464 0.6047 0.0
C1506 C 0.31235 0.52097 0.62523 0.0
C1507 C 0.33365 0.44073 0.69638 0.0
C1508 C 0.35651 0.43715 0.69581 0.0
C1509 C 0.32524 0.46259 0.69748 0.0
C1510 C 0.33957 0.48107 0.6984 0.0
C1511 C 0.36234 0.47729 0.6995 0.0
C1512 C 0.37071 0.45558 0.69823 0.0
C1513 C 0.33152 0.50423 0.69444 0.0
C1514 C 0.32019 0.50847 0.67435 0.0
C1515 C 0.33869 0.5225 0.70776 0.0
C1516 C 0.34894 0.51893 0.73012 0.0
C1517 C 0.36892 0.52947 0.73572 0.0
C1518 C 0.37855 0.5259 0.75672 0.0
C1519 C 0.36835 0.51184 0.77231 0.0
C1520 C 0.34848 0.50134 0.76695 0.0
C1521 C 0.33877 0.50486 0.74598 0.0
H1522 H 0.37585 0.50908 0.78856 0.0
H1523 H 0.27757 0.54406 0.58693 0.0
H1524 H 0.58862 0.30491 0.68973 0.0
H1525 H 0.55288 0.29571 0.70548 0.0
H1526 H 0.53516 0.26173 0.64395 0.0
H1527 H 0.57034 0.27313 0.62749 0.0
H1528 H 0.50566 0.28715 0.65086 0.0
H1529 H 0.536 0.23549 0.7008 0.0
H1530 H 0.56185 0.21854 0.72775 0.0
H1531 H 0.54753 0.27052 0.77544 0.0
H1532 H 0.52186 0.28803 0.74869 0.0
H1533 H 0.40132 0.30411 0.6931 0.0
H1534 H 0.43186 0.27733 0.69314 0.0
H1535 H 0.47439 0.32778 0.72161 0.0
H1536 H 0.44416 0.35472 0.72097 0.0
H1537 H 0.48605 0.27858 0.73118 0.0
H1538 H 0.46802 0.33384 0.66942 0.0
H1539 H 0.44075 0.34833 0.64235 0.0
H1540 H 0.43068 0.28176 0.61672 0.0
H1541 H 0.45765 0.26689 0.64393 0.0
C1542 C 0.57734 0.29481 0.6799 0.0
C1543 C 0.58207 0.28971 0.65748 0.0
C1544 C 0.55687 0.28931 0.68899 0.0
C1545 C 0.54106 0.27781 0.67607 0.0
C1546 C 0.54684 0.27077 0.65429 0.0
C1547 C 0.56699 0.27711 0.6449 0.0
C1548 C 0.51762 0.27719 0.68359 0.0
C1549 C 0.50143 0.2843 0.6683 0.0
C1550 C 0.51157 0.27354 0.70632 0.0
C1551 C 0.52697 0.2631 0.72265 0.0
C1552 C 0.53843 0.2434 0.71698 0.0
C1553 C 0.55306 0.23368 0.73224 0.0
C1554 C 0.55633 0.24344 0.75329 0.0
C1555 C 0.54496 0.26295 0.75914 0.0
C1556 C 0.53031 0.27275 0.74394 0.0
C1557 C 0.41686 0.30909 0.7005 0.0
C1558 C 0.42059 0.33152 0.70672 0.0
C1559 C 0.43428 0.29376 0.70054 0.0
C1560 C 0.45539 0.3007 0.70714 0.0
C1561 C 0.45819 0.32209 0.71653 0.0
C1562 C 0.44095 0.33752 0.71605 0.0
C1563 C 0.47513 0.28907 0.69856 0.0
C1564 C 0.49047 0.28005 0.71362 0.0
C1565 C 0.48034 0.29019 0.6755 0.0
C1566 C 0.46465 0.29926 0.65877 0.0
C1567 C 0.45992 0.32232 0.65804 0.0
C1568 C 0.44451 0.33059 0.6427 0.0
C1569 C 0.43396 0.31598 0.62783 0.0
C1570 C 0.43884 0.29307 0.62825 0.0
C1571 C 0.45416 0.28471 0.64364 0.0
H1572 H 0.42203 0.3224 0.61597 0.0
H1573 H 0.56767 0.2359 0.76508 0.0
H1574 H 0.68211 0.56897 0.69793 0.0
H1575 H 0.6938 0.53057 0.7073 0.0
H1576 H 0.62603 0.50893 0.70555 0.0
H1577 H 0.61446 0.54682 0.69652 0.0
H1578 H 0.64849 0.48526 0.73621 0.0
H1579 H 0.6588 0.50983 0.65726 0.0
H1580 H 0.67635 0.53384 0.62865 0.0
H1581 H 0.74021 0.51299 0.65139 0.0
H1582 H 0.72298 0.48902 0.68028 0.0
H1583 H 0.61607 0.39783 0.6686 0.0
H1584 H 0.62665 0.43249 0.68744 0.0
H1585 H 0.69415 0.4103 0.68977 0.0
H1586 H 0.68355 0.37508 0.67115 0.0
H1587 H 0.68734 0.45355 0.67022 0.0
H1588 H 0.67169 0.41632 0.73801 0.0
H1589 H 0.65139 0.39163 0.76392 0.0
H1590 H 0.59552 0.43558 0.76099 0.0
H1591 H 0.61531 0.46037 0.73478 0.0
C1592 C 0.66974 0.5561 0.70032 0.0
C1593 C 0.64743 0.56069 0.69614 0.0
C1594 C 0.67643 0.5342 0.70559 0.0
C1595 C 0.66081 0.5168 0.70679 0.0
C1596 C 0.6384 0.522 0.70473 0.0
C1597 C 0.63179 0.54367 0.69937 0.0
C1598 C 0.66723 0.4928 0.70651 0.0
C1599 C 0.6573 0.47825 0.72202 0.0
C1600 C 0.67935 0.48364 0.6884 0.0
C1601 C 0.68966 0.49792 0.67104 0.0
C1602 C 0.67659 0.51048 0.65619 0.0
C1603 C 0.68646 0.52406 0.63994 0.0
C1604 C 0.70938 0.52499 0.63825 0.0
C1605 C 0.72247 0.51229 0.65277 0.0
C1606 C 0.71266 0.49873 0.66908 0.0
C1607 C 0.63313 0.40016 0.67334 0.0
C1608 C 0.649 0.38382 0.66828 0.0
C1609 C 0.63913 0.41989 0.68428 0.0
C1610 C 0.66114 0.42382 0.6902 0.0
C1611 C 0.67705 0.40743 0.68551 0.0
C1612 C 0.67097 0.3874 0.67488 0.0
C1613 C 0.66731 0.44614 0.69908 0.0
C1614 C 0.67957 0.46036 0.68514 0.0
C1615 C 0.65708 0.45497 0.71847 0.0
C1616 C 0.64504 0.44024 0.7344 0.0
C1617 C 0.65503 0.42068 0.74279 0.0
C1618 C 0.64361 0.40666 0.75755 0.0
C1619 C 0.62219 0.41204 0.7641 0.0
C1620 C 0.61214 0.43146 0.75593 0.0
C1621 C 0.62348 0.44554 0.74116 0.0
H1622 H 0.61337 0.40116 0.77552 0.0
H1623 H 0.71701 0.53551 0.62566 0.0
H1624 H 0.39183 0.3017 0.31981 0.0
H1625 H 0.42721 0.28687 0.30654 0.0
H1626 H 0.45364 0.35409 0.30535 0.0
H1627 H 0.4186 0.36886 0.31782 0.0
H1628 H 0.47227 0.33065 0.27339 0.0
H1629 H 0.4553 0.3192 0.3543 0.0
H1630 H 0.43334 0.3022 0.38472 0.0
H1631 H 0.44572 0.23659 0.35772 0.0
H1632 H 0.4676 0.25329 0.32703 0.0
H1633 H 0.56069 0.33948 0.35677 0.0
H1634 H 0.52483 0.32541 0.34604 0.0
H1635 H 0.55125 0.30207 0.28299 0.0
H1636 H 0.58767 0.31667 0.29364 0.0
H1637 H 0.50617 0.2868 0.33504 0.0
H1638 H 0.50994 0.31152 0.24409 0.0
H1639 H 0.53195 0.33437 0.21779 0.0
H1640 H 0.54644 0.38119 0.27058 0.0
H1641 H 0.52437 0.35868 0.29708 0.0
C1642 C 0.40504 0.31331 0.31609 0.0
C1643 C 0.40259 0.3364 0.32033 0.0
C1644 C 0.42525 0.30482 0.30854 0.0
C1645 C 0.44323 0.31932 0.3053 0.0
C1646 C 0.44008 0.34251 0.30769 0.0
C1647 C 0.42002 0.35095 0.31508 0.0
C1648 C 0.46611 0.3109 0.303 0.0
C1649 C 0.47965 0.32046 0.28647 0.0
C1650 C 0.47583 0.29747 0.31991 0.0
C1651 C 0.46279 0.28746 0.33831 0.0
C1652 C 0.45323 0.30116 0.35484 0.0
C1653 C 0.44082 0.29159 0.37211 0.0
C1654 C 0.43808 0.26833 0.37311 0.0
C1655 C 0.4478 0.2546 0.35688 0.0
C1656 C 0.4602 0.2641 0.33955 0.0
C1657 C 0.55905 0.33114 0.3407 0.0
C1658 C 0.57695 0.32954 0.32589 0.0
C1659 C 0.53851 0.32285 0.33466 0.0
C1660 C 0.53526 0.31277 0.31366 0.0
C1661 C 0.55337 0.30991 0.29924 0.0
C1662 C 0.57413 0.31824 0.30535 0.0
C1663 C 0.51233 0.30807 0.30651 0.0
C1664 C 0.49879 0.2958 0.32111 0.0
C1665 C 0.50264 0.31962 0.28828 0.0
C1666 C 0.5158 0.3333 0.27254 0.0
C1667 C 0.51784 0.32669 0.25003 0.0
C1668 C 0.5303 0.33958 0.23511 0.0
C1669 C 0.54065 0.35917 0.24253 0.0
C1670 C 0.53848 0.36598 0.26487 0.0
C1671 C 0.52601 0.35317 0.27984 0.0
H1672 H 0.55031 0.36911 0.23096 0.0
H1673 H 0.42846 0.26095 0.38649 0.0
H1674 H 0.62337 0.43802 0.31323 0.0
H1675 H 0.63848 0.47452 0.30377 0.0
H1676 H 0.70231 0.44466 0.29308 0.0
H1677 H 0.68707 0.4077 0.30269 0.0
H1678 H 0.70481 0.47743 0.32275 0.0
H1679 H 0.67832 0.47357 0.24963 0.0
H1680 H 0.65321 0.4648 0.21835 0.0
H1681 H 0.60569 0.51124 0.24448 0.0
H1682 H 0.63031 0.52005 0.27612 0.0
H1683 H 0.67983 0.60788 0.30811 0.0
H1684 H 0.69248 0.57254 0.29129 0.0
H1685 H 0.67441 0.5373 0.35177 0.0
H1686 H 0.66194 0.57221 0.36852 0.0
H1687 H 0.66608 0.53829 0.28208 0.0
H1688 H 0.7036 0.49307 0.36101 0.0
H1689 H 0.72979 0.50205 0.39126 0.0
H1690 H 0.75852 0.55382 0.35068 0.0
H1691 H 0.73274 0.54495 0.32 0.0
C1692 C 0.64049 0.43909 0.30825 0.0
C1693 C 0.6541 0.42009 0.3089 0.0
C1694 C 0.6491 0.45997 0.30261 0.0
C1695 C 0.67153 0.46236 0.29755 0.0
C1696 C 0.68493 0.44317 0.29678 0.0
C1697 C 0.6762 0.42209 0.30222 0.0
C1698 C 0.68108 0.48527 0.29707 0.0
C1699 C 0.69673 0.49076 0.31351 0.0
C1700 C 0.67128 0.50261 0.28432 0.0
C1701 C 0.65627 0.49752 0.26527 0.0
C1702 C 0.66248 0.48185 0.24878 0.0
C1703 C 0.64832 0.47687 0.23097 0.0
C1704 C 0.62788 0.48747 0.22942 0.0
C1705 C 0.62156 0.50308 0.24567 0.0
C1706 C 0.63565 0.50813 0.26352 0.0
C1707 C 0.67915 0.59265 0.31799 0.0
C1708 C 0.66972 0.59274 0.33956 0.0
C1709 C 0.68634 0.57251 0.30835 0.0
C1710 C 0.68459 0.5523 0.32032 0.0
C1711 C 0.67636 0.5527 0.34233 0.0
C1712 C 0.66902 0.57268 0.35184 0.0
C1713 C 0.68806 0.53029 0.30925 0.0
C1714 C 0.6749 0.52501 0.29063 0.0
C1715 C 0.70041 0.51315 0.31977 0.0
C1716 C 0.7162 0.51829 0.33813 0.0
C1717 C 0.71564 0.50622 0.3584 0.0
C1718 C 0.73038 0.51134 0.37568 0.0
C1719 C 0.74581 0.52849 0.3729 0.0
C1720 C 0.74654 0.54055 0.35283 0.0
C1721 C 0.73184 0.5355 0.33549 0.0
H1722 H 0.75719 0.53244 0.3863 0.0
H1723 H 0.61693 0.48358 0.21562 0.0
H1724 H 0.59091 0.70288 0.31907 0.0
H1725 H 0.55719 0.71227 0.29801 0.0
H1726 H 0.5405 0.64198 0.2948 0.0
H1727 H 0.5735 0.6327 0.31588 0.0
H1728 H 0.53057 0.6654 0.2548 0.0
H1729 H 0.52204 0.67278 0.33791 0.0
H1730 H 0.53145 0.69127 0.37373 0.0
H1731 H 0.51503 0.75539 0.34549 0.0
H1732 H 0.50574 0.73723 0.30943 0.0
H1733 H 0.4336 0.6169 0.28355 0.0
H1734 H 0.46903 0.63379 0.27507 0.0
H1735 H 0.43955 0.69963 0.27647 0.0
H1736 H 0.4037 0.68261 0.285 0.0
H1737 H 0.47331 0.69667 0.30515 0.0
H1738 H 0.46552 0.68313 0.22844 0.0
H1739 H 0.45518 0.66335 0.19368 0.0
H1740 H 0.50168 0.61122 0.20847 0.0
H1741 H 0.51208 0.63045 0.2435 0.0
C1742 C 0.58018 0.68951 0.31343 0.0
C1743 C 0.58457 0.66711 0.31931 0.0
C1744 C 0.56102 0.69486 0.30141 0.0
C1745 C 0.5464 0.67779 0.29484 0.0
C1746 C 0.55162 0.65539 0.29954 0.0
C1747 C 0.57038 0.65012 0.31179 0.0
C1748 C 0.52421 0.68264 0.28583 0.0
C1749 C 0.51797 0.67258 0.2655 0.0
C1750 C 0.50798 0.6929 0.29936 0.0
C1751 C 0.51348 0.70373 0.32098 0.0
C1752 C 0.52058 0.69084 0.33934 0.0
C1753 C 0.52586 0.70124 0.35967 0.0
C1754 C 0.52391 0.7245 0.36186 0.0
C1755 C 0.5166 0.73739 0.34374 0.0
C1756 C 0.51133 0.72705 0.32336 0.0
C1757 C 0.4345 0.63493 0.28145 0.0
C1758 C 0.41595 0.64845 0.28514 0.0
C1759 C 0.45476 0.6446 0.27637 0.0
C1760 C 0.45696 0.66801 0.27495 0.0
C1761 C 0.43818 0.68153 0.27732 0.0
C1762 C 0.41773 0.67179 0.28215 0.0
C1763 C 0.47941 0.67781 0.27488 0.0
C1764 C 0.48574 0.69062 0.29358 0.0
C1765 C 0.49569 0.67009 0.25977 0.0
C1766 C 0.48963 0.65833 0.23864 0.0
C1767 C 0.47349 0.6674 0.22435 0.0
C1768 C 0.46761 0.65627 0.20458 0.0
C1769 C 0.47778 0.63606 0.19886 0.0
C1770 C 0.49386 0.62692 0.2129 0.0
C1771 C 0.4998 0.63797 0.23269 0.0
H1772 H 0.4732 0.62746 0.18355 0.0
H1773 H 0.528 0.73253 0.37761 0.0
H1774 H 0.30426 0.42725 0.35654 0.0
H1775 H 0.28919 0.45836 0.33499 0.0
H1776 H 0.29523 0.41957 0.27414 0.0
H1777 H 0.30988 0.38793 0.29601 0.0
H1778 H 0.31977 0.45842 0.27408 0.0
H1779 H 0.24561 0.44093 0.28424 0.0
H1780 H 0.21209 0.42777 0.30341 0.0
H1781 H 0.2164 0.48267 0.34985 0.0
H1782 H 0.25014 0.49601 0.33124 0.0
H1783 H 0.32515 0.57568 0.25806 0.0
H1784 H 0.30644 0.53994 0.2495 0.0
H1785 H 0.29409 0.53019 0.32017 0.0
H1786 H 0.31263 0.56539 0.32852 0.0
H1787 H 0.26097 0.51213 0.29501 0.0
H1788 H 0.34313 0.51285 0.29612 0.0
H1789 H 0.37881 0.52513 0.28058 0.0
H1790 H 0.3599 0.50082 0.2155 0.0
H1791 H 0.32401 0.48861 0.23069 0.0
C1792 C 0.30152 0.42504 0.3387 0.0
C1793 C 0.30824 0.40533 0.32788 0.0
C1794 C 0.29277 0.44277 0.32638 0.0
C1795 C 0.29096 0.44127 0.30293 0.0
C1796 C 0.29626 0.42097 0.29223 0.0
C1797 C 0.30458 0.40294 0.30472 0.0
C1798 C 0.28818 0.46232 0.29002 0.0
C1799 C 0.30641 0.46993 0.27777 0.0
C1800 C 0.27081 0.47734 0.29485 0.0
C1801 C 0.25044 0.46953 0.30623 0.0
C1802 C 0.23949 0.45017 0.29861 0.0
C1803 C 0.22043 0.44267 0.30938 0.0
C1804 C 0.21211 0.4544 0.32781 0.0
C1805 C 0.22283 0.47365 0.33552 0.0
C1806 C 0.24191 0.48122 0.32481 0.0
C1807 C 0.31768 0.56617 0.27154 0.0
C1808 C 0.32032 0.57299 0.29392 0.0
C1809 C 0.30706 0.54582 0.26668 0.0
C1810 C 0.299 0.53231 0.28422 0.0
C1811 C 0.30001 0.54033 0.30634 0.0
C1812 C 0.31073 0.56037 0.31115 0.0
C1813 C 0.29333 0.50834 0.28088 0.0
C1814 C 0.27357 0.50025 0.29005 0.0
C1815 C 0.30941 0.49282 0.27353 0.0
C1816 C 0.33088 0.50011 0.26443 0.0
C1817 C 0.34659 0.51025 0.27848 0.0
C1818 C 0.36682 0.51718 0.26974 0.0
C1819 C 0.37159 0.51382 0.24705 0.0
C1820 C 0.35615 0.50348 0.23306 0.0
C1821 C 0.33587 0.49657 0.24171 0.0
H1822 H 0.38727 0.51919 0.24032 0.0
H1823 H 0.19735 0.44856 0.33614 0.0
loop_
_geom_bond_atom_site_label_1
_geom_bond_atom_site_label_2
_geom_bond_distance
_geom_bond_site_symmetry_2
_ccdc_geom_bond_type
Zn0 O3 2.031 . S
Zn0 O5 2.049 . S
Zn0 O10 2.067 . S
Zn1 O2 1.962 . S
Zn1 O4 1.986 . S
Zn1 O6 1.996 . S
Zn1 O9 1.943 . S
O2 Zn1 1.962 . S
O2 C7 1.254 . S
O3 Zn0 2.031 . S
O3 C7 1.269 . S
O4 Zn1 1.986 . S
O4 C11 1.262 . S
O5 Zn0 2.049 . S
O5 C13 1.260 . S
O6 Zn1 1.996 . S
O6 C13 1.257 . S
C7 O2 1.254 . S
C7 O3 1.269 . S
C8 O9 1.249 . S
C8 O10 1.270 . S
O9 Zn1 1.943 . S
O9 C8 1.249 . S
O10 Zn0 2.067 . S
O10 C8 1.270 . S
C11 O4 1.262 . S
C11 O12 1.232 . S
O12 C11 1.232 . S
C13 O5 1.260 . S
C13 O6 1.257 . S
Zn14 O17 2.031 . S
Zn14 O19 2.049 . S
Zn14 O24 2.067 . S
Zn15 O16 1.962 . S
Zn15 O18 1.986 . S
Zn15 O20 1.996 . S
Zn15 O23 1.943 . S
O16 Zn15 1.962 . S
O16 C21 1.254 . S
O17 Zn14 2.031 . S
O17 C21 1.269 . S
O18 Zn15 1.986 . S
O18 C25 1.262 . S
O19 Zn14 2.049 . S
O19 C27 1.260 . S
O20 Zn15 1.996 . S
O20 C27 1.257 . S
C21 O16 1.254 . S
C21 O17 1.269 . S
C22 O23 1.249 . S
C22 O24 1.270 . S
O23 Zn15 1.943 . S
O23 C22 1.249 . S
O24 Zn14 2.067 . S
O24 C22 1.270 . S
C25 O18 1.262 . S
C25 O26 1.232 . S
O26 C25 1.232 . S
C27 O19 1.260 . S
C27 O20 1.257 . S
Zn28 O31 2.031 . S
Zn28 O33 2.049 . S
Zn28 O38 2.067 . S
Zn29 O30 1.962 . S
Zn29 O32 1.986 . S
Zn29 O34 1.996 . S
Zn29 O37 1.943 . S
O30 Zn29 1.962 . S
O30 C35 1.254 . S
O31 Zn28 2.031 . S
O31 C35 1.269 . S
O32 Zn29 1.986 . S
O32 C39 1.262 . S
O33 Zn28 2.049 . S
O33 C41 1.260 . S
O34 Zn29 1.996 . S
O34 C41 1.257 . S
C35 O30 1.254 . S
C35 O31 1.269 . S
C36 O37 1.249 . S
C36 O38 1.270 . S
O37 Zn29 1.943 . S
O37 C36 1.249 . S
O38 Zn28 2.067 . S
O38 C36 1.270 . S
C39 O32 1.262 . S
C39 O40 1.232 . S
O40 C39 1.232 . S
C41 O33 1.260 . S
C41 O34 1.257 . S
Zn42 O45 2.031 . S
Zn42 O47 2.049 . S
Zn42 O52 2.067 . S
Zn43 O44 1.962 . S
Zn43 O46 1.986 . S
Zn43 O48 1.996 . S
Zn43 O51 1.943 . S
O44 Zn43 1.962 . S
O44 C49 1.254 . S
O45 Zn42 2.031 . S
O45 C49 1.269 . S
O46 Zn43 1.986 . S
O46 C53 1.262 . S
O47 Zn42 2.049 . S
O47 C55 1.260 . S
O48 Zn43 1.996 . S
O48 C55 1.257 . S
C49 O44 1.254 . S
C49 O45 1.269 . S
C50 O51 1.249 . S
C50 O52 1.270 . S
O51 Zn43 1.943 . S
O51 C50 1.249 . S
O52 Zn42 2.067 . S
O52 C50 1.270 . S
C53 O46 1.262 . S
C53 O54 1.232 . S
O54 C53 1.232 . S
C55 O47 1.260 . S
C55 O48 1.257 . S
Zn56 O59 2.031 . S
Zn56 O61 2.049 . S
Zn56 O66 2.067 . S
Zn57 O58 1.962 . S
Zn57 O60 1.986 . S
Zn57 O62 1.996 . S
Zn57 O65 1.943 . S
O58 Zn57 1.962 . S
O58 C63 1.254 . S
O59 Zn56 2.031 . S
O59 C63 1.269 . S
O60 Zn57 1.986 . S
O60 C67 1.262 . S
O61 Zn56 2.049 . S
O61 C69 1.260 . S
O62 Zn57 1.996 . S
O62 C69 1.257 . S
C63 O58 1.254 . S
C63 O59 1.269 . S
C64 O65 1.249 . S
C64 O66 1.270 . S
O65 Zn57 1.943 . S
O65 C64 1.249 . S
O66 Zn56 2.067 . S
O66 C64 1.270 . S
C67 O60 1.262 . S
C67 O68 1.232 . S
O68 C67 1.232 . S
C69 O61 1.260 . S
C69 O62 1.257 . S
Zn70 O73 2.031 . S
Zn70 O75 2.049 . S
Zn70 O80 2.067 . S
Zn71 O72 1.962 . S
Zn71 O74 1.986 . S
Zn71 O76 1.996 . S
Zn71 O79 1.943 . S
O72 Zn71 1.962 . S
O72 C77 1.254 . S
O73 Zn70 2.031 . S
O73 C77 1.269 . S
O74 Zn71 1.986 . S
O74 C81 1.262 . S
O75 Zn70 2.049 . S
O75 C83 1.260 . S
O76 Zn71 1.996 . S
O76 C83 1.257 . S
C77 O72 1.254 . S
C77 O73 1.269 . S
C78 O79 1.249 . S
C78 O80 1.270 . S
O79 Zn71 1.943 . S
O79 C78 1.249 . S
O80 Zn70 2.067 . S
O80 C78 1.270 . S
C81 O74 1.262 . S
C81 O82 1.232 . S
O82 C81 1.232 . S
C83 O75 1.260 . S
C83 O76 1.257 . S
Zn84 O87 2.031 . S
Zn84 O89 2.049 . S
Zn84 O94 2.067 . S
Zn85 O86 1.962 . S
Zn85 O88 1.986 . S
Zn85 O90 1.996 . S
Zn85 O93 1.943 . S
O86 Zn85 1.962 . S
O86 C91 1.254 . S
O87 Zn84 2.031 . S
O87 C91 1.269 . S
O88 Zn85 1.986 . S
O88 C95 1.262 . S
O89 Zn84 2.049 . S
O89 C97 1.260 . S
O90 Zn85 1.996 . S
O90 C97 1.257 . S
C91 O86 1.254 . S
C91 O87 1.269 . S
C92 O93 1.249 . S
C92 O94 1.270 . S
O93 Zn85 1.943 . S
O93 C92 1.249 . S
O94 Zn84 2.067 . S
O94 C92 1.270 . S
C95 O88 1.262 . S
C95 O96 1.232 . S
O96 C95 1.232 . S
C97 O89 1.260 . S
C97 O90 1.257 . S
Zn98 O101 2.031 . S
Zn98 O103 2.049 . S
Zn98 O108 2.067 . S
Zn99 O100 1.962 . S
Zn99 O102 1.986 . S
Zn99 O104 1.996 . S
Zn99 O107 1.943 . S
O100 Zn99 1.962 . S
O100 C105 1.254 . S
O101 Zn98 2.031 . S
O101 C105 1.269 . S
O102 Zn99 1.986 . S
O102 C109 1.262 . S
O103 Zn98 2.049 . S
O103 C111 1.260 . S
O104 Zn99 1.996 . S
O104 C111 1.257 . S
C105 O100 1.254 . S
C105 O101 1.269 . S
C106 O107 1.249 . S
C106 O108 1.270 . S
O107 Zn99 1.943 . S
O107 C106 1.249 . S
O108 Zn98 2.067 . S
O108 C106 1.270 . S
C109 O102 1.262 . S
C109 O110 1.232 . S
O110 C109 1.232 . S
C111 O103 1.260 . S
C111 O104 1.257 . S
Zn112 O115 2.031 . S
Zn112 O117 2.049 . S
Zn112 O122 2.067 . S
Zn113 O114 1.962 . S
Zn113 O116 1.986 . S
Zn113 O118 1.996 . S
Zn113 O121 1.943 . S
O114 Zn113 1.962 . S
O114 C119 1.254 . S
O115 Zn112 2.031 . S
O115 C119 1.269 . S
O116 Zn113 1.986 . S
O116 C123 1.262 . S
O117 Zn112 2.049 . S
O117 C125 1.260 . S
O118 Zn113 1.996 . S
O118 C125 1.257 . S
C119 O114 1.254 . S
C119 O115 1.269 . S
C120 O121 1.249 . S
C120 O122 1.270 . S
O121 Zn113 1.943 . S
O121 C120 1.249 . S
O122 Zn112 2.067 . S
O122 C120 1.270 . S
C123 O116 1.262 . S
C123 O124 1.232 . S
O124 C123 1.232 . S
C125 O117 1.260 . S
C125 O118 1.257 . S
Zn126 O129 2.031 . S
Zn126 O131 2.049 . S
Zn126 O136 2.067 . S
Zn127 O128 1.962 . S
Zn127 O130 1.986 . S
Zn127 O132 1.996 . S
Zn127 O135 1.943 . S
O128 Zn127 1.962 . S
O128 C133 1.254 . S
O129 Zn126 2.031 . S
O129 C133 1.269 . S
O130 Zn127 1.986 . S
O130 C137 1.262 . S
O131 Zn126 2.049 . S
O131 C139 1.260 . S
O132 Zn127 1.996 . S
O132 C139 1.257 . S
C133 O128 1.254 . S
C133 O129 1.269 . S
C134 O135 1.249 . S
C134 O136 1.270 . S
O135 Zn127 1.943 . S
O135 C134 1.249 . S
O136 Zn126 2.067 . S
O136 C134 1.270 . S
C137 O130 1.262 . S
C137 O138 1.232 . S
O138 C137 1.232 . S
C139 O131 1.260 . S
C139 O132 1.257 . S
Zn140 O143 2.031 . S
Zn140 O145 2.049 . S
Zn140 O150 2.067 . S
Zn141 O142 1.962 . S
Zn141 O144 1.986 . S
Zn141 O146 1.996 . S
Zn141 O149 1.943 . S
O142 Zn141 1.962 . S
O142 C147 1.254 . S
O143 Zn140 2.031 . S
O143 C147 1.269 . S
O144 Zn141 1.986 . S
O144 C151 1.262 . S
O145 Zn140 2.049 . S
O145 C153 1.260 . S
O146 Zn141 1.996 . S
O146 C153 1.257 . S
C147 O142 1.254 . S
C147 O143 1.269 . S
C148 O149 1.249 . S
C148 O150 1.270 . S
O149 Zn141 1.943 . S
O149 C148 1.249 . S
O150 Zn140 2.067 . S
O150 C148 1.270 . S
C151 O144 1.262 . S
C151 O152 1.232 . S
O152 C151 1.232 . S
C153 O145 1.260 . S
C153 O146 1.257 . S
Zn154 O157 2.031 . S
Zn154 O159 2.049 . S
Zn154 O164 2.067 . S
Zn155 O156 1.962 . S
Zn155 O158 1.986 . S
Zn155 O160 1.996 . S
Zn155 O163 1.943 . S
O156 Zn155 1.962 . S
O156 C161 1.254 . S
O157 Zn154 2.031 . S
O157 C161 1.269 . S
O158 Zn155 1.986 . S
O158 C165 1.262 . S
O159 Zn154 2.049 . S
O159 C167 1.260 . S
O160 Zn155 1.996 . S
O160 C167 1.257 . S
C161 O156 1.254 . S
C161 O157 1.269 . S
C162 O163 1.249 . S
C162 O164 1.270 . S
O163 Zn155 1.943 . S
O163 C162 1.249 . S
O164 Zn154 2.067 . S
O164 C162 1.270 . S
C165 O158 1.262 . S
C165 O166 1.232 . S
O166 C165 1.232 . S
C167 O159 1.260 . S
C167 O160 1.257 . S
Zn168 O171 2.031 . S
Zn168 O173 2.049 . S
Zn168 O178 2.067 . S
Zn169 O170 1.962 . S
Zn169 O172 1.986 . S
Zn169 O174 1.996 . S
Zn169 O177 1.943 . S
O170 Zn169 1.962 . S
O170 C175 1.254 . S
O171 Zn168 2.031 . S
O171 C175 1.269 . S
O172 Zn169 1.986 . S
O172 C179 1.262 . S
O173 Zn168 2.049 . S
O173 C181 1.260 . S
O174 Zn169 1.996 . S
O174 C181 1.257 . S
C175 O170 1.254 . S
C175 O171 1.269 . S
C176 O177 1.249 . S
C176 O178 1.270 . S
O177 Zn169 1.943 . S
O177 C176 1.249 . S
O178 Zn168 2.067 . S
O178 C176 1.270 . S
C179 O172 1.262 . S
C179 O180 1.232 . S
O180 C179 1.232 . S
C181 O173 1.260 . S
C181 O174 1.257 . S
Zn182 O185 2.031 . S
Zn182 O187 2.049 . S
Zn182 O192 2.067 . S
Zn183 O184 1.962 . S
Zn183 O186 1.986 . S
Zn183 O188 1.996 . S
Zn183 O191 1.943 . S
O184 Zn183 1.962 . S
O184 C189 1.254 . S
O185 Zn182 2.031 . S
O185 C189 1.269 . S
O186 Zn183 1.986 . S
O186 C193 1.262 . S
O187 Zn182 2.049 . S
O187 C195 1.260 . S
O188 Zn183 1.996 . S
O188 C195 1.257 . S
C189 O184 1.254 . S
C189 O185 1.269 . S
C190 O191 1.249 . S
C190 O192 1.270 . S
O191 Zn183 1.943 . S
O191 C190 1.249 . S
O192 Zn182 2.067 . S
O192 C190 1.270 . S
C193 O186 1.262 . S
C193 O194 1.232 . S
O194 C193 1.232 . S
C195 O187 1.260 . S
C195 O188 1.257 . S
Zn196 O199 2.031 . S
Zn196 O201 2.049 . S
Zn196 O206 2.067 . S
Zn197 O198 1.962 . S
Zn197 O200 1.986 . S
Zn197 O202 1.996 . S
Zn197 O205 1.943 . S
O198 Zn197 1.962 . S
O198 C203 1.254 . S
O199 Zn196 2.031 . S
O199 C203 1.269 . S
O200 Zn197 1.986 . S
O200 C207 1.262 . S
O201 Zn196 2.049 . S
O201 C209 1.260 . S
O202 Zn197 1.996 . S
O202 C209 1.257 . S
C203 O198 1.254 . S
C203 O199 1.269 . S
C204 O205 1.249 . S
C204 O206 1.270 . S
O205 Zn197 1.943 . S
O205 C204 1.249 . S
O206 Zn196 2.067 . S
O206 C204 1.270 . S
C207 O200 1.262 . S
C207 O208 1.232 . S
O208 C207 1.232 . S
C209 O201 1.260 . S
C209 O202 1.257 . S
Zn210 O213 2.031 . S
Zn210 O215 2.049 . S
Zn210 O220 2.067 . S
Zn211 O212 1.962 . S
Zn211 O214 1.986 . S
Zn211 O216 1.996 . S
Zn211 O219 1.943 . S
O212 Zn211 1.962 . S
O212 C217 1.254 . S
O213 Zn210 2.031 . S
O213 C217 1.269 . S
O214 Zn211 1.986 . S
O214 C221 1.262 . S
O215 Zn210 2.049 . S
O215 C223 1.260 . S
O216 Zn211 1.996 . S
O216 C223 1.257 . S
C217 O212 1.254 . S
C217 O213 1.269 . S
C218 O219 1.249 . S
C218 O220 1.270 . S
O219 Zn211 1.943 . S
O219 C218 1.249 . S
O220 Zn210 2.067 . S
O220 C218 1.270 . S
C221 O214 1.262 . S
C221 O222 1.232 . S
O222 C221 1.232 . S
C223 O215 1.260 . S
C223 O216 1.257 . S
H224 C242 0.951 . S
H225 C244 0.951 . S
H226 C246 0.950 . S
H227 C247 0.950 . S
H228 C249 0.950 . S
H229 C252 0.950 . S
H230 C253 0.950 . S
H231 C255 0.950 . S
H232 C256 0.950 . S
H233 C257 0.951 . S
H234 C259 0.951 . S
H235 C261 0.950 . S
H236 C262 0.950 . S
H237 C264 0.950 . S
H238 C267 0.950 . S
H239 C268 0.950 . S
H240 C270 0.950 . S
H241 C271 0.950 . S
C242 H224 0.951 . S
C242 C243 1.366 . S
C242 C244 1.388 . S
C243 C242 1.366 . S
C243 C247 1.385 . S
C244 H225 0.951 . S
C244 C242 1.388 . S
C244 C245 1.366 . S
C245 C244 1.366 . S
C245 C246 1.414 . S
C245 C248 1.499 . S
C246 H226 0.950 . S
C246 C245 1.414 . S
C246 C247 1.374 . S
C247 H227 0.950 . S
C247 C243 1.385 . S
C247 C246 1.374 . S
C248 C245 1.499 . S
C248 C249 1.373 . S
C248 C250 1.389 . S
C249 H228 0.950 . S
C249 C248 1.373 . S
C249 C265 1.377 . S
C250 C248 1.389 . S
C250 C251 1.524 . S
C250 C264 1.377 . S
C251 C250 1.524 . S
C251 C252 1.397 . S
C251 C256 1.363 . S
C252 H229 0.950 . S
C252 C251 1.397 . S
C252 C253 1.334 . S
C253 H230 0.950 . S
C253 C252 1.334 . S
C253 C254 1.287 . S
C254 C253 1.287 . S
C254 C255 1.524 . S
C254 H273 0.913 . S
C255 H231 0.950 . S
C255 C254 1.524 . S
C255 C256 1.415 . S
C256 H232 0.950 . S
C256 C251 1.363 . S
C256 C255 1.415 . S
C257 H233 0.951 . S
C257 C258 1.366 . S
C257 C259 1.388 . S
C258 C257 1.366 . S
C258 C262 1.385 . S
C259 H234 0.951 . S
C259 C257 1.388 . S
C259 C260 1.366 . S
C260 C259 1.366 . S
C260 C261 1.414 . S
C260 C263 1.499 . S
C261 H235 0.950 . S
C261 C260 1.414 . S
C261 C262 1.374 . S
C262 H236 0.950 . S
C262 C258 1.385 . S
C262 C261 1.374 . S
C263 C260 1.499 . S
C263 C264 1.373 . S
C263 C265 1.389 . S
C264 H237 0.950 . S
C264 C250 1.377 . S
C264 C263 1.373 . S
C265 C249 1.377 . S
C265 C263 1.389 . S
C265 C266 1.524 . S
C266 C265 1.524 . S
C266 C267 1.397 . S
C266 C271 1.363 . S
C267 H238 0.950 . S
C267 C266 1.397 . S
C267 C268 1.334 . S
C268 H239 0.950 . S
C268 C267 1.334 . S
C268 C269 1.287 . S
C269 C268 1.287 . S
C269 C270 1.524 . S
C269 H272 0.999 . S
C270 H240 0.950 . S
C270 C269 1.524 . S
C270 C271 1.415 . S
C271 H241 0.950 . S
C271 C266 1.363 . S
C271 C270 1.415 . S
H272 C269 0.999 . S
H273 C254 0.913 . S
H274 C292 0.951 . S
H275 C294 0.951 . S
H276 C296 0.950 . S
H277 C297 0.950 . S
H278 C299 0.950 . S
H279 C302 0.950 . S
H280 C303 0.950 . S
H281 C305 0.950 . S
H282 C306 0.950 . S
H283 C307 0.951 . S
H284 C309 0.951 . S
H285 C311 0.950 . S
H286 C312 0.950 . S
H287 C314 0.950 . S
H288 C317 0.950 . S
H289 C318 0.950 . S
H290 C320 0.950 . S
H291 C321 0.950 . S
C292 H274 0.951 . S
C292 C293 1.366 . S
C292 C294 1.388 . S
C293 C292 1.366 . S
C293 C297 1.385 . S
C294 H275 0.951 . S
C294 C292 1.388 . S
C294 C295 1.366 . S
C295 C294 1.366 . S
C295 C296 1.414 . S
C295 C298 1.499 . S
C296 H276 0.950 . S
C296 C295 1.414 . S
C296 C297 1.374 . S
C297 H277 0.950 . S
C297 C293 1.385 . S
C297 C296 1.374 . S
C298 C295 1.499 . S
C298 C299 1.373 . S
C298 C300 1.389 . S
C299 H278 0.950 . S
C299 C298 1.373 . S
C299 C315 1.377 . S
C300 C298 1.389 . S
C300 C301 1.524 . S
C300 C314 1.377 . S
C301 C300 1.524 . S
C301 C302 1.397 . S
C301 C306 1.363 . S
C302 H279 0.950 . S
C302 C301 1.397 . S
C302 C303 1.334 . S
C303 H280 0.950 . S
C303 C302 1.334 . S
C303 C304 1.287 . S
C304 C303 1.287 . S
C304 C305 1.524 . S
C304 H323 0.913 . S
C305 H281 0.950 . S
C305 C304 1.524 . S
C305 C306 1.415 . S
C306 H282 0.950 . S
C306 C301 1.363 . S
C306 C305 1.415 . S
C307 H283 0.951 . S
C307 C308 1.366 . S
C307 C309 1.388 . S
C308 C307 1.366 . S
C308 C312 1.385 . S
C309 H284 0.951 . S
C309 C307 1.388 . S
C309 C310 1.366 . S
C310 C309 1.366 . S
C310 C311 1.414 . S
C310 C313 1.499 . S
C311 H285 0.950 . S
C311 C310 1.414 . S
C311 C312 1.374 . S
C312 H286 0.950 . S
C312 C308 1.385 . S
C312 C311 1.374 . S
C313 C310 1.499 . S
C313 C314 1.373 . S
C313 C315 1.389 . S
C314 H287 0.950 . S
C314 C300 1.377 . S
C314 C313 1.373 . S
C315 C299 1.377 . S
C315 C313 1.389 . S
C315 C316 1.524 . S
C316 C315 1.524 . S
C316 C317 1.397 . S
C316 C321 1.363 . S
C317 H288 0.950 . S
C317 C316 1.397 . S
C317 C318 1.334 . S
C318 H289 0.950 . S
C318 C317 1.334 . S
C318 C319 1.287 . S
C319 C318 1.287 . S
C319 C320 1.524 . S
C319 H322 0.999 . S
C320 H290 0.950 . S
C320 C319 1.524 . S
C320 C321 1.415 . S
C321 H291 0.950 . S
C321 C316 1.363 . S
C321 C320 1.415 . S
H322 C319 0.999 . S
H323 C304 0.913 . S
H324 C342 0.951 . S
H325 C344 0.951 . S
H326 C346 0.950 . S
H327 C347 0.950 . S
H328 C349 0.950 . S
H329 C352 0.950 . S
H330 C353 0.950 . S
H331 C355 0.950 . S
H332 C356 0.950 . S
H333 C357 0.951 . S
H334 C359 0.951 . S
H335 C361 0.950 . S
H336 C362 0.950 . S
H337 C364 0.950 . S
H338 C367 0.950 . S
H339 C368 0.950 . S
H340 C370 0.950 . S
H341 C371 0.950 . S
C342 H324 0.951 . S
C342 C343 1.366 . S
C342 C344 1.388 . S
C343 C342 1.366 . S
C343 C347 1.385 . S
C344 H325 0.951 . S
C344 C342 1.388 . S
C344 C345 1.366 . S
C345 C344 1.366 . S
C345 C346 1.414 . S
C345 C348 1.499 . S
C346 H326 0.950 . S
C346 C345 1.414 . S
C346 C347 1.374 . S
C347 H327 0.950 . S
C347 C343 1.385 . S
C347 C346 1.374 . S
C348 C345 1.499 . S
C348 C349 1.373 . S
C348 C350 1.389 . S
C349 H328 0.950 . S
C349 C348 1.373 . S
C349 C365 1.377 . S
C350 C348 1.389 . S
C350 C351 1.524 . S
C350 C364 1.377 . S
C351 C350 1.524 . S
C351 C352 1.397 . S
C351 C356 1.363 . S
C352 H329 0.950 . S
C352 C351 1.397 . S
C352 C353 1.334 . S
C353 H330 0.950 . S
C353 C352 1.334 . S
C353 C354 1.287 . S
C354 C353 1.287 . S
C354 C355 1.524 . S
C354 H373 0.913 . S
C355 H331 0.950 . S
C355 C354 1.524 . S
C355 C356 1.415 . S
C356 H332 0.950 . S
C356 C351 1.363 . S
C356 C355 1.415 . S
C357 H333 0.951 . S
C357 C358 1.366 . S
C357 C359 1.388 . S
C358 C357 1.366 . S
C358 C362 1.385 . S
C359 H334 0.951 . S
C359 C357 1.388 . S
C359 C360 1.366 . S
C360 C359 1.366 . S
C360 C361 1.414 . S
C360 C363 1.499 . S
C361 H335 0.950 . S
C361 C360 1.414 . S
C361 C362 1.374 . S
C362 H336 0.950 . S
C362 C358 1.385 . S
C362 C361 1.374 . S
C363 C360 1.499 . S
C363 C364 1.373 . S
C363 C365 1.389 . S
C364 H337 0.950 . S
C364 C350 1.377 . S
C364 C363 1.373 . S
C365 C349 1.377 . S
C365 C363 1.389 . S
C365 C366 1.524 . S
C366 C365 1.524 . S
C366 C367 1.397 . S
C366 C371 1.363 . S
C367 H338 0.950 . S
C367 C366 1.397 . S
C367 C368 1.334 . S
C368 H339 0.950 . S
C368 C367 1.334 . S
C368 C369 1.287 . S
C369 C368 1.287 . S
C369 C370 1.524 . S
C369 H372 0.999 . S
C370 H340 0.950 . S
C370 C369 1.524 . S
C370 C371 1.415 . S
C371 H341 0.950 . S
C371 C366 1.363 . S
C371 C370 1.415 . S
H372 C369 0.999 . S
H373 C354 0.913 . S
H374 C392 0.951 . S
H375 C394 0.951 . S
H376 C396 0.950 . S
H377 C397 0.950 . S
H378 C399 0.950 . S
H379 C402 0.950 . S
H380 C403 0.950 . S
H381 C405 0.950 . S
H382 C406 0.950 . S
H383 C407 0.951 . S
H384 C409 0.951 . S
H385 C411 0.950 . S
H386 C412 0.950 . S
H387 C414 0.950 . S
H388 C417 0.950 . S
H389 C418 0.950 . S
H390 C420 0.950 . S
H391 C421 0.950 . S
C392 H374 0.951 . S
C392 C393 1.366 . S
C392 C394 1.388 . S
C393 C392 1.366 . S
C393 C397 1.385 . S
C394 H375 0.951 . S
C394 C392 1.388 . S
C394 C395 1.366 . S
C395 C394 1.366 . S
C395 C396 1.414 . S
C395 C398 1.499 . S
C396 H376 0.950 . S
C396 C395 1.414 . S
C396 C397 1.374 . S
C397 H377 0.950 . S
C397 C393 1.385 . S
C397 C396 1.374 . S
C398 C395 1.499 . S
C398 C399 1.373 . S
C398 C400 1.389 . S
C399 H378 0.950 . S
C399 C398 1.373 . S
C399 C415 1.377 . S
C400 C398 1.389 . S
C400 C401 1.524 . S
C400 C414 1.377 . S
C401 C400 1.524 . S
C401 C402 1.397 . S
C401 C406 1.363 . S
C402 H379 0.950 . S
C402 C401 1.397 . S
C402 C403 1.334 . S
C403 H380 0.950 . S
C403 C402 1.334 . S
C403 C404 1.287 . S
C404 C403 1.287 . S
C404 C405 1.524 . S
C404 H423 0.913 . S
C405 H381 0.950 . S
C405 C404 1.524 . S
C405 C406 1.415 . S
C406 H382 0.950 . S
C406 C401 1.363 . S
C406 C405 1.415 . S
C407 H383 0.951 . S
C407 C408 1.366 . S
C407 C409 1.388 . S
C408 C407 1.366 . S
C408 C412 1.385 . S
C409 H384 0.951 . S
C409 C407 1.388 . S
C409 C410 1.366 . S
C410 C409 1.366 . S
C410 C411 1.414 . S
C410 C413 1.499 . S
C411 H385 0.950 . S
C411 C410 1.414 . S
C411 C412 1.374 . S
C412 H386 0.950 . S
C412 C408 1.385 . S
C412 C411 1.374 . S
C413 C410 1.499 . S
C413 C414 1.373 . S
C413 C415 1.389 . S
C414 H387 0.950 . S
C414 C400 1.377 . S
C414 C413 1.373 . S
C415 C399 1.377 . S
C415 C413 1.389 . S
C415 C416 1.524 . S
C416 C415 1.524 . S
C416 C417 1.397 . S
C416 C421 1.363 . S
C417 H388 0.950 . S
C417 C416 1.397 . S
C417 C418 1.334 . S
C418 H389 0.950 . S
C418 C417 1.334 . S
C418 C419 1.287 . S
C419 C418 1.287 . S
C419 C420 1.524 . S
C419 H422 0.999 . S
C420 H390 0.950 . S
C420 C419 1.524 . S
C420 C421 1.415 . S
C421 H391 0.950 . S
C421 C416 1.363 . S
C421 C420 1.415 . S
H422 C419 0.999 . S
H423 C404 0.913 . S
H424 C442 0.951 . S
H425 C444 0.951 . S
H426 C446 0.950 . S
H427 C447 0.950 . S
H428 C449 0.950 . S
H429 C452 0.950 . S
H430 C453 0.950 . S
H431 C455 0.950 . S
H432 C456 0.950 . S
H433 C457 0.951 . S
H434 C459 0.951 . S
H435 C461 0.950 . S
H436 C462 0.950 . S
H437 C464 0.950 . S
H438 C467 0.950 . S
H439 C468 0.950 . S
H440 C470 0.950 . S
H441 C471 0.950 . S
C442 H424 0.951 . S
C442 C443 1.366 . S
C442 C444 1.388 . S
C443 C442 1.366 . S
C443 C447 1.385 . S
C444 H425 0.951 . S
C444 C442 1.388 . S
C444 C445 1.366 . S
C445 C444 1.366 . S
C445 C446 1.414 . S
C445 C448 1.499 . S
C446 H426 0.950 . S
C446 C445 1.414 . S
C446 C447 1.374 . S
C447 H427 0.950 . S
C447 C443 1.385 . S
C447 C446 1.374 . S
C448 C445 1.499 . S
C448 C449 1.373 . S
C448 C450 1.389 . S
C449 H428 0.950 . S
C449 C448 1.373 . S
C449 C465 1.377 . S
C450 C448 1.389 . S
C450 C451 1.524 . S
C450 C464 1.377 . S
C451 C450 1.524 . S
C451 C452 1.397 . S
C451 C456 1.363 . S
C452 H429 0.950 . S
C452 C451 1.397 . S
C452 C453 1.334 . S
C453 H430 0.950 . S
C453 C452 1.334 . S
C453 C454 1.287 . S
C454 C453 1.287 . S
C454 C455 1.524 . S
C454 H473 0.913 . S
C455 H431 0.950 . S
C455 C454 1.524 . S
C455 C456 1.415 . S
C456 H432 0.950 . S
C456 C451 1.363 . S
C456 C455 1.415 . S
C457 H433 0.951 . S
C457 C458 1.366 . S
C457 C459 1.388 . S
C458 C457 1.366 . S
C458 C462 1.385 . S
C459 H434 0.951 . S
C459 C457 1.388 . S
C459 C460 1.366 . S
C460 C459 1.366 . S
C460 C461 1.414 . S
C460 C463 1.499 . S
C461 H435 0.950 . S
C461 C460 1.414 . S
C461 C462 1.374 . S
C462 H436 0.950 . S
C462 C458 1.385 . S
C462 C461 1.374 . S
C463 C460 1.499 . S
C463 C464 1.373 . S
C463 C465 1.389 . S
C464 H437 0.950 . S
C464 C450 1.377 . S
C464 C463 1.373 . S
C465 C449 1.377 . S
C465 C463 1.389 . S
C465 C466 1.524 . S
C466 C465 1.524 . S
C466 C467 1.397 . S
C466 C471 1.363 . S
C467 H438 0.950 . S
C467 C466 1.397 . S
C467 C468 1.334 . S
C468 H439 0.950 . S
C468 C467 1.334 . S
C468 C469 1.287 . S
C469 C468 1.287 . S
C469 C470 1.524 . S
C469 H472 0.999 . S
C470 H440 0.950 . S
C470 C469 1.524 . S
C470 C471 1.415 . S
C471 H441 0.950 . S
C471 C466 1.363 . S
C471 C470 1.415 . S
H472 C469 0.999 . S
H473 C454 0.913 . S
H474 C492 0.951 . S
H475 C494 0.951 . S
H476 C496 0.950 . S
H477 C497 0.950 . S
H478 C499 0.950 . S
H479 C502 0.950 . S
H480 C503 0.950 . S
H481 C505 0.950 . S
H482 C506 0.950 . S
H483 C507 0.951 . S
H484 C509 0.951 . S
H485 C511 0.950 . S
H486 C512 0.950 . S
H487 C514 0.950 . S
H488 C517 0.950 . S
H489 C518 0.950 . S
H490 C520 0.950 . S
H491 C521 0.950 . S
C492 H474 0.951 . S
C492 C493 1.366 . S
C492 C494 1.388 . S
C493 C492 1.366 . S
C493 C497 1.385 . S
C494 H475 0.951 . S
C494 C492 1.388 . S
C494 C495 1.366 . S
C495 C494 1.366 . S
C495 C496 1.414 . S
C495 C498 1.499 . S
C496 H476 0.950 . S
C496 C495 1.414 . S
C496 C497 1.374 . S
C497 H477 0.950 . S
C497 C493 1.385 . S
C497 C496 1.374 . S
C498 C495 1.499 . S
C498 C499 1.373 . S
C498 C500 1.389 . S
C499 H478 0.950 . S
C499 C498 1.373 . S
C499 C515 1.377 . S
C500 C498 1.389 . S
C500 C501 1.524 . S
C500 C514 1.377 . S
C501 C500 1.524 . S
C501 C502 1.397 . S
C501 C506 1.363 . S
C502 H479 0.950 . S
C502 C501 1.397 . S
C502 C503 1.334 . S
C503 H480 0.950 . S
C503 C502 1.334 . S
C503 C504 1.287 . S
C504 C503 1.287 . S
C504 C505 1.524 . S
C504 H523 0.913 . S
C505 H481 0.950 . S
C505 C504 1.524 . S
C505 C506 1.415 . S
C506 H482 0.950 . S
C506 C501 1.363 . S
C506 C505 1.415 . S
C507 H483 0.951 . S
C507 C508 1.366 . S
C507 C509 1.388 . S
C508 C507 1.366 . S
C508 C512 1.385 . S
C509 H484 0.951 . S
C509 C507 1.388 . S
C509 C510 1.366 . S
C510 C509 1.366 . S
C510 C511 1.414 . S
C510 C513 1.499 . S
C511 H485 0.950 . S
C511 C510 1.414 . S
C511 C512 1.374 . S
C512 H486 0.950 . S
C512 C508 1.385 . S
C512 C511 1.374 . S
C513 C510 1.499 . S
C513 C514 1.373 . S
C513 C515 1.389 . S
C514 H487 0.950 . S
C514 C500 1.377 . S
C514 C513 1.373 . S
C515 C499 1.377 . S
C515 C513 1.389 . S
C515 C516 1.524 . S
C516 C515 1.524 . S
C516 C517 1.397 . S
C516 C521 1.363 . S
C517 H488 0.950 . S
C517 C516 1.397 . S
C517 C518 1.334 . S
C518 H489 0.950 . S
C518 C517 1.334 . S
C518 C519 1.287 . S
C519 C518 1.287 . S
C519 C520 1.524 . S
C519 H522 0.999 . S
C520 H490 0.950 . S
C520 C519 1.524 . S
C520 C521 1.415 . S
C521 H491 0.950 . S
C521 C516 1.363 . S
C521 C520 1.415 . S
H522 C519 0.999 . S
H523 C504 0.913 . S
H524 C542 0.951 . S
H525 C544 0.951 . S
H526 C546 0.950 . S
H527 C547 0.950 . S
H528 C549 0.950 . S
H529 C552 0.950 . S
H530 C553 0.950 . S
H531 C555 0.950 . S
H532 C556 0.950 . S
H533 C557 0.951 . S
H534 C559 0.951 . S
H535 C561 0.950 . S
H536 C562 0.950 . S
H537 C564 0.950 . S
H538 C567 0.950 . S
H539 C568 0.950 . S
H540 C570 0.950 . S
H541 C571 0.950 . S
C542 H524 0.951 . S
C542 C543 1.366 . S
C542 C544 1.388 . S
C543 C542 1.366 . S
C543 C547 1.385 . S
C544 H525 0.951 . S
C544 C542 1.388 . S
C544 C545 1.366 . S
C545 C544 1.366 . S
C545 C546 1.414 . S
C545 C548 1.499 . S
C546 H526 0.950 . S
C546 C545 1.414 . S
C546 C547 1.374 . S
C547 H527 0.950 . S
C547 C543 1.385 . S
C547 C546 1.374 . S
C548 C545 1.499 . S
C548 C549 1.373 . S
C548 C550 1.389 . S
C549 H528 0.950 . S
C549 C548 1.373 . S
C549 C565 1.377 . S
C550 C548 1.389 . S
C550 C551 1.524 . S
C550 C564 1.377 . S
C551 C550 1.524 . S
C551 C552 1.397 . S
C551 C556 1.363 . S
C552 H529 0.950 . S
C552 C551 1.397 . S
C552 C553 1.334 . S
C553 H530 0.950 . S
C553 C552 1.334 . S
C553 C554 1.287 . S
C554 C553 1.287 . S
C554 C555 1.524 . S
C554 H573 0.913 . S
C555 H531 0.950 . S
C555 C554 1.524 . S
C555 C556 1.415 . S
C556 H532 0.950 . S
C556 C551 1.363 . S
C556 C555 1.415 . S
C557 H533 0.951 . S
C557 C558 1.366 . S
C557 C559 1.388 . S
C558 C557 1.366 . S
C558 C562 1.385 . S
C559 H534 0.951 . S
C559 C557 1.388 . S
C559 C560 1.366 . S
C560 C559 1.366 . S
C560 C561 1.414 . S
C560 C563 1.499 . S
C561 H535 0.950 . S
C561 C560 1.414 . S
C561 C562 1.374 . S
C562 H536 0.950 . S
C562 C558 1.385 . S
C562 C561 1.374 . S
C563 C560 1.499 . S
C563 C564 1.373 . S
C563 C565 1.389 . S
C564 H537 0.950 . S
C564 C550 1.377 . S
C564 C563 1.373 . S
C565 C549 1.377 . S
C565 C563 1.389 . S
C565 C566 1.524 . S
C566 C565 1.524 . S
C566 C567 1.397 . S
C566 C571 1.363 . S
C567 H538 0.950 . S
C567 C566 1.397 . S
C567 C568 1.334 . S
C568 H539 0.950 . S
C568 C567 1.334 . S
C568 C569 1.287 . S
C569 C568 1.287 . S
C569 C570 1.524 . S
C569 H572 0.999 . S
C570 H540 0.950 . S
C570 C569 1.524 . S
C570 C571 1.415 . S
C571 H541 0.950 . S
C571 C566 1.363 . S
C571 C570 1.415 . S
H572 C569 0.999 . S
H573 C554 0.913 . S
H574 C592 0.951 . S
H575 C594 0.951 . S
H576 C596 0.950 . S
H577 C597 0.950 . S
H578 C599 0.950 . S
H579 C602 0.950 . S
H580 C603 0.950 . S
H581 C605 0.950 . S
H582 C606 0.950 . S
H583 C607 0.951 . S
H584 C609 0.951 . S
H585 C611 0.950 . S
H586 C612 0.950 . S
H587 C614 0.950 . S
H588 C617 0.950 . S
H589 C618 0.950 . S
H590 C620 0.950 . S
H591 C621 0.950 . S
C592 H574 0.951 . S
C592 C593 1.366 . S
C592 C594 1.388 . S
C593 C592 1.366 . S
C593 C597 1.385 . S
C594 H575 0.951 . S
C594 C592 1.388 . S
C594 C595 1.366 . S
C595 C594 1.366 . S
C595 C596 1.414 . S
C595 C598 1.499 . S
C596 H576 0.950 . S
C596 C595 1.414 . S
C596 C597 1.374 . S
C597 H577 0.950 . S
C597 C593 1.385 . S
C597 C596 1.374 . S
C598 C595 1.499 . S
C598 C599 1.373 . S
C598 C600 1.389 . S
C599 H578 0.950 . S
C599 C598 1.373 . S
C599 C615 1.377 . S
C600 C598 1.389 . S
C600 C601 1.524 . S
C600 C614 1.377 . S
C601 C600 1.524 . S
C601 C602 1.397 . S
C601 C606 1.363 . S
C602 H579 0.950 . S
C602 C601 1.397 . S
C602 C603 1.334 . S
C603 H580 0.950 . S
C603 C602 1.334 . S
C603 C604 1.287 . S
C604 C603 1.287 . S
C604 C605 1.524 . S
C604 H623 0.913 . S
C605 H581 0.950 . S
C605 C604 1.524 . S
C605 C606 1.415 . S
C606 H582 0.950 . S
C606 C601 1.363 . S
C606 C605 1.415 . S
C607 H583 0.951 . S
C607 C608 1.366 . S
C607 C609 1.388 . S
C608 C607 1.366 . S
C608 C612 1.385 . S
C609 H584 0.951 . S
C609 C607 1.388 . S
C609 C610 1.366 . S
C610 C609 1.366 . S
C610 C611 1.414 . S
C610 C613 1.499 . S
C611 H585 0.950 . S
C611 C610 1.414 . S
C611 C612 1.374 . S
C612 H586 0.950 . S
C612 C608 1.385 . S
C612 C611 1.374 . S
C613 C610 1.499 . S
C613 C614 1.373 . S
C613 C615 1.389 . S
C614 H587 0.950 . S
C614 C600 1.377 . S
C614 C613 1.373 . S
C615 C599 1.377 . S
C615 C613 1.389 . S
C615 C616 1.524 . S
C616 C615 1.524 . S
C616 C617 1.397 . S
C616 C621 1.363 . S
C617 H588 0.950 . S
C617 C616 1.397 . S
C617 C618 1.334 . S
C618 H589 0.950 . S
C618 C617 1.334 . S
C618 C619 1.287 . S
C619 C618 1.287 . S
C619 C620 1.524 . S
C619 H622 0.999 . S
C620 H590 0.950 . S
C620 C619 1.524 . S
C620 C621 1.415 . S
C621 H591 0.950 . S
C621 C616 1.363 . S
C621 C620 1.415 . S
H622 C619 0.999 . S
H623 C604 0.913 . S
H624 C642 0.951 . S
H625 C644 0.951 . S
H626 C646 0.950 . S
H627 C647 0.950 . S
H628 C649 0.950 1_556 S
H629 C652 0.950 . S
H630 C653 0.950 . S
H631 C655 0.950 . S
H632 C656 0.950 1_554 S
H633 C657 0.951 . S
H634 C659 0.951 . S
H635 C661 0.950 . S
H636 C662 0.950 . S
H637 C664 0.950 . S
H638 C667 0.950 . S
H639 C668 0.950 . S
H640 C670 0.950 . S
H641 C671 0.950 . S
C642 H624 0.951 . S
C642 C643 1.366 . S
C642 C644 1.388 . S
C643 C642 1.366 . S
C643 C647 1.385 . S
C644 H625 0.951 . S
C644 C642 1.388 . S
C644 C645 1.366 . S
C645 C644 1.366 . S
C645 C646 1.414 . S
C645 C648 1.499 . S
C646 H626 0.950 . S
C646 C645 1.414 . S
C646 C647 1.374 . S
C647 H627 0.950 . S
C647 C643 1.385 . S
C647 C646 1.374 . S
C648 C645 1.499 . S
C648 C649 1.373 1_556 S
C648 C650 1.389 1_556 S
C649 H628 0.950 1_554 S
C649 C648 1.373 1_554 S
C649 C665 1.377 . S
C650 C648 1.389 1_554 S
C650 C651 1.524 1_554 S
C650 C664 1.377 . S
C651 C650 1.524 1_556 S
C651 C652 1.397 . S
C651 C656 1.363 . S
C652 H629 0.950 . S
C652 C651 1.397 . S
C652 C653 1.334 . S
C653 H630 0.950 . S
C653 C652 1.334 . S
C653 C654 1.287 . S
C654 C653 1.287 . S
C654 C655 1.524 . S
C654 H673 0.913 . S
C655 H631 0.950 . S
C655 C654 1.524 . S
C655 C656 1.415 . S
C656 H632 0.950 1_556 S
C656 C651 1.363 . S
C656 C655 1.415 . S
C657 H633 0.951 . S
C657 C658 1.366 . S
C657 C659 1.388 . S
C658 C657 1.366 . S
C658 C662 1.385 . S
C659 H634 0.951 . S
C659 C657 1.388 . S
C659 C660 1.366 . S
C660 C659 1.366 . S
C660 C661 1.414 . S
C660 C663 1.499 . S
C661 H635 0.950 . S
C661 C660 1.414 . S
C661 C662 1.374 . S
C662 H636 0.950 . S
C662 C658 1.385 . S
C662 C661 1.374 . S
C663 C660 1.499 . S
C663 C664 1.373 . S
C663 C665 1.389 . S
C664 H637 0.950 . S
C664 C650 1.377 . S
C664 C663 1.373 . S
C665 C649 1.377 . S
C665 C663 1.389 . S
C665 C666 1.524 . S
C666 C665 1.524 . S
C666 C667 1.397 . S
C666 C671 1.363 . S
C667 H638 0.950 . S
C667 C666 1.397 . S
C667 C668 1.334 . S
C668 H639 0.950 . S
C668 C667 1.334 . S
C668 C669 1.287 . S
C669 C668 1.287 . S
C669 C670 1.524 . S
C669 H672 0.999 . S
C670 H640 0.950 . S
C670 C669 1.524 . S
C670 C671 1.415 . S
C671 H641 0.950 . S
C671 C666 1.363 . S
C671 C670 1.415 . S
H672 C669 0.999 . S
H673 C654 0.913 . S
H674 C692 0.951 . S
H675 C694 0.951 . S
H676 C696 0.950 . S
H677 C697 0.950 . S
H678 C699 0.950 . S
H679 C702 0.950 . S
H680 C703 0.950 . S
H681 C705 0.950 . S
H682 C706 0.950 . S
H683 C707 0.951 . S
H684 C709 0.951 . S
H685 C711 0.950 . S
H686 C712 0.950 . S
H687 C714 0.950 1_554 S
H688 C717 0.950 . S
H689 C718 0.950 . S
H690 C720 0.950 . S
H691 C721 0.943 1_556 S
C692 H674 0.951 . S
C692 C693 1.366 . S
C692 C694 1.388 . S
C693 C692 1.366 . S
C693 C697 1.385 . S
C694 H675 0.951 . S
C694 C692 1.388 . S
C694 C695 1.366 . S
C695 C694 1.366 . S
C695 C696 1.414 . S
C695 C698 1.499 . S
C696 H676 0.950 . S
C696 C695 1.414 . S
C696 C697 1.374 . S
C697 H677 0.950 . S
C697 C693 1.385 . S
C697 C696 1.374 . S
C698 C695 1.499 . S
C698 C699 1.373 . S
C698 C700 1.389 . S
C699 H678 0.950 . S
C699 C698 1.373 . S
C699 C715 1.377 . S
C700 C698 1.389 . S
C700 C701 1.524 . S
C700 C714 1.377 . S
C701 C700 1.524 . S
C701 C702 1.397 . S
C701 C706 1.363 . S
C702 H679 0.950 . S
C702 C701 1.397 . S
C702 C703 1.334 . S
C703 H680 0.950 . S
C703 C702 1.334 . S
C703 C704 1.287 . S
C704 C703 1.287 . S
C704 C705 1.524 . S
C704 H723 0.913 . S
C705 H681 0.950 . S
C705 C704 1.524 . S
C705 C706 1.415 . S
C706 H682 0.950 . S
C706 C701 1.363 . S
C706 C705 1.415 . S
C707 H683 0.951 . S
C707 C708 1.366 . S
C707 C709 1.388 . S
C708 C707 1.366 . S
C708 C712 1.385 . S
C709 H684 0.951 . S
C709 C707 1.388 . S
C709 C710 1.366 . S
C710 C709 1.366 . S
C710 C711 1.414 . S
C710 C713 1.499 . S
C711 H685 0.950 . S
C711 C710 1.414 . S
C711 C712 1.374 . S
C712 H686 0.950 . S
C712 C708 1.385 . S
C712 C711 1.374 . S
C713 C710 1.499 . S
C713 C714 1.373 1_554 S
C713 C715 1.389 1_554 S
C714 H687 0.950 1_556 S
C714 C700 1.377 . S
C714 C713 1.373 1_556 S
C715 C699 1.377 . S
C715 C713 1.389 1_556 S
C715 C716 1.524 1_556 S
C716 C715 1.524 1_554 S
C716 C717 1.397 . S
C716 C721 1.366 . S
C717 H688 0.950 . S
C717 C716 1.397 . S
C717 C718 1.334 . S
C718 H689 0.950 . S
C718 C717 1.334 . S
C718 C719 1.287 . S
C719 C718 1.287 . S
C719 C720 1.524 . S
C719 H722 0.999 . S
C720 H690 0.950 . S
C720 C719 1.524 . S
C720 C721 1.419 . S
C721 H691 0.943 1_554 S
C721 C716 1.366 . S
C721 C720 1.419 . S
H722 C719 0.999 . S
H723 C704 0.913 . S
H724 C742 0.951 . S
H725 C744 0.951 . S
H726 C746 0.950 . S
H727 C747 0.950 . S
H728 C749 0.933 1_556 S
H729 C752 0.950 . S
H730 C753 0.950 . S
H731 C755 0.948 . S
H732 C756 0.950 . S
H733 C757 0.951 . S
H734 C759 0.951 . S
H735 C761 0.950 . S
H736 C762 0.950 . S
H737 C764 0.950 . S
H738 C767 0.950 . S
H739 C768 0.950 . S
H740 C770 0.950 . S
H741 C771 0.950 . S
C742 H724 0.951 . S
C742 C743 1.366 . S
C742 C744 1.388 . S
C743 C742 1.366 . S
C743 C747 1.385 . S
C744 H725 0.951 . S
C744 C742 1.388 . S
C744 C745 1.366 . S
C745 C744 1.366 . S
C745 C746 1.414 . S
C745 C748 1.499 . S
C746 H726 0.950 . S
C746 C745 1.414 . S
C746 C747 1.374 . S
C747 H727 0.950 . S
C747 C743 1.385 . S
C747 C746 1.374 . S
C748 C745 1.499 . S
C748 C749 1.360 1_556 S
C748 C750 1.389 1_556 S
C749 H728 0.933 1_554 S
C749 C748 1.360 1_554 S
C749 C765 1.407 . S
C750 C748 1.389 1_554 S
C750 C751 1.524 1_554 S
C750 C764 1.377 . S
C751 C750 1.524 1_556 S
C751 C752 1.397 . S
C751 C756 1.363 1_556 S
C752 H729 0.950 . S
C752 C751 1.397 . S
C752 C753 1.334 . S
C753 H730 0.950 . S
C753 C752 1.334 . S
C753 C754 1.287 . S
C754 C753 1.287 . S
C754 C755 1.524 . S
C754 H773 0.913 . S
C755 H731 0.948 . S
C755 C754 1.524 . S
C755 C756 1.415 1_556 S
C756 H732 0.950 . S
C756 C751 1.363 1_554 S
C756 C755 1.415 1_554 S
C757 H733 0.951 . S
C757 C758 1.366 . S
C757 C759 1.388 . S
C758 C757 1.366 . S
C758 C762 1.385 . S
C759 H734 0.951 . S
C759 C757 1.388 . S
C759 C760 1.366 . S
C760 C759 1.366 . S
C760 C761 1.414 . S
C760 C763 1.499 . S
C761 H735 0.950 . S
C761 C760 1.414 . S
C761 C762 1.374 . S
C762 H736 0.950 . S
C762 C758 1.385 . S
C762 C761 1.374 . S
C763 C760 1.499 . S
C763 C764 1.373 . S
C763 C765 1.389 . S
C764 H737 0.950 . S
C764 C750 1.377 . S
C764 C763 1.373 . S
C765 C749 1.407 . S
C765 C763 1.389 . S
C765 C766 1.524 . S
C766 C765 1.524 . S
C766 C767 1.397 . S
C766 C771 1.363 . S
C767 H738 0.950 . S
C767 C766 1.397 . S
C767 C768 1.334 . S
C768 H739 0.950 . S
C768 C767 1.334 . S
C768 C769 1.287 . S
C769 C768 1.287 . S
C769 C770 1.524 . S
C769 H772 0.999 . S
C770 H740 0.950 . S
C770 C769 1.524 . S
C770 C771 1.415 . S
C771 H741 0.950 . S
C771 C766 1.363 . S
C771 C770 1.415 . S
H772 C769 0.999 . S
H773 C754 0.913 . S
H774 C792 0.951 . S
H775 C794 0.951 . S
H776 C796 0.950 . S
H777 C797 0.950 . S
H778 C799 0.942 1_554 S
H779 C802 0.950 . S
H780 C803 0.950 . S
H781 C805 0.949 1_556 S
H782 C806 0.950 . S
H783 C807 0.951 . S
H784 C809 0.951 . S
H785 C811 0.950 . S
H786 C812 0.950 . S
H787 C814 0.950 . S
H788 C817 0.950 . S
H789 C818 0.950 . S
H790 C820 0.950 . S
H791 C821 0.950 . S
C792 H774 0.951 . S
C792 C793 1.366 . S
C792 C794 1.388 . S
C793 C792 1.366 . S
C793 C797 1.385 . S
C794 H775 0.951 . S
C794 C792 1.388 . S
C794 C795 1.366 . S
C795 C794 1.366 . S
C795 C796 1.414 . S
C795 C798 1.499 . S
C796 H776 0.950 . S
C796 C795 1.414 . S
C796 C797 1.374 . S
C797 H777 0.950 . S
C797 C793 1.385 . S
C797 C796 1.374 . S
C798 C795 1.499 . S
C798 C799 1.368 1_554 S
C798 C800 1.389 1_554 S
C799 H778 0.942 1_556 S
C799 C798 1.368 1_556 S
C799 C815 1.390 . S
C800 C798 1.389 1_556 S
C800 C801 1.524 1_556 S
C800 C814 1.377 . S
C801 C800 1.524 1_554 S
C801 C802 1.397 . S
C801 C806 1.363 1_554 S
C802 H779 0.950 . S
C802 C801 1.397 . S
C802 C803 1.334 . S
C803 H780 0.950 . S
C803 C802 1.334 . S
C803 C804 1.287 . S
C804 C803 1.287 . S
C804 C805 1.524 . S
C804 H823 0.913 . S
C805 H781 0.949 1_554 S
C805 C804 1.524 . S
C805 C806 1.415 1_554 S
C806 H782 0.950 . S
C806 C801 1.363 1_556 S
C806 C805 1.415 1_556 S
C807 H783 0.951 . S
C807 C808 1.366 . S
C807 C809 1.388 . S
C808 C807 1.366 . S
C808 C812 1.385 . S
C809 H784 0.951 . S
C809 C807 1.388 . S
C809 C810 1.366 . S
C810 C809 1.366 . S
C810 C811 1.414 . S
C810 C813 1.499 . S
C811 H785 0.950 . S
C811 C810 1.414 . S
C811 C812 1.374 . S
C812 H786 0.950 . S
C812 C808 1.385 . S
C812 C811 1.374 . S
C813 C810 1.499 . S
C813 C814 1.373 . S
C813 C815 1.389 . S
C814 H787 0.950 . S
C814 C800 1.377 . S
C814 C813 1.373 . S
C815 C799 1.390 . S
C815 C813 1.389 . S
C815 C816 1.524 . S
C816 C815 1.524 . S
C816 C817 1.397 . S
C816 C821 1.363 . S
C817 H788 0.950 . S
C817 C816 1.397 . S
C817 C818 1.334 . S
C818 H789 0.950 . S
C818 C817 1.334 . S
C818 C819 1.287 . S
C819 C818 1.287 . S
C819 C820 1.524 . S
C819 H822 0.999 . S
C820 H790 0.950 . S
C820 C819 1.524 . S
C820 C821 1.415 . S
C821 H791 0.950 . S
C821 C816 1.363 . S
C821 C820 1.415 . S
H822 C819 0.999 . S
H823 C804 0.913 . S
H824 C842 0.951 . S
H825 C844 0.951 . S
H826 C846 0.950 . S
H827 C847 0.950 . S
H828 C849 0.950 . S
H829 C852 0.950 . S
H830 C853 0.950 . S
H831 C855 0.950 . S
H832 C856 0.979 . S
H833 C857 0.951 . S
H834 C859 0.951 . S
H835 C861 0.950 . S
H836 C862 0.950 . S
H837 C864 0.950 . S
H838 C867 0.950 . S
H839 C868 0.950 . S
H840 C870 0.950 . S
H841 C871 0.979 . S
C842 H824 0.951 . S
C842 C843 1.366 . S
C842 C844 1.388 . S
C843 C842 1.366 . S
C843 C847 1.385 . S
C844 H825 0.951 . S
C844 C842 1.388 . S
C844 C845 1.366 . S
C845 C844 1.366 . S
C845 C846 1.414 . S
C845 C848 1.499 . S
C846 H826 0.950 . S
C846 C845 1.414 . S
C846 C847 1.374 . S
C847 H827 0.950 . S
C847 C843 1.385 . S
C847 C846 1.374 . S
C848 C845 1.499 . S
C848 C849 1.373 . S
C848 C850 1.389 . S
C849 H828 0.950 . S
C849 C848 1.373 . S
C849 C865 1.377 1_455 S
C850 C848 1.389 . S
C850 C851 1.524 . S
C850 C864 1.377 1_455 S
C851 C850 1.524 . S
C851 C852 1.397 . S
C851 C856 1.363 . S
C852 H829 0.950 . S
C852 C851 1.397 . S
C852 C853 1.334 . S
C853 H830 0.950 . S
C853 C852 1.334 . S
C853 C854 1.287 . S
C854 C853 1.287 . S
C854 C855 1.524 . S
C854 H873 0.913 . S
C855 H831 0.950 . S
C855 C854 1.524 . S
C855 C856 1.415 . S
C856 H832 0.979 . S
C856 C851 1.363 . S
C856 C855 1.415 . S
C857 H833 0.951 . S
C857 C858 1.366 . S
C857 C859 1.388 . S
C858 C857 1.366 . S
C858 C862 1.385 . S
C859 H834 0.951 . S
C859 C857 1.388 . S
C859 C860 1.366 . S
C860 C859 1.366 . S
C860 C861 1.414 . S
C860 C863 1.499 . S
C861 H835 0.950 . S
C861 C860 1.414 . S
C861 C862 1.374 . S
C862 H836 0.950 . S
C862 C858 1.385 . S
C862 C861 1.374 . S
C863 C860 1.499 . S
C863 C864 1.373 . S
C863 C865 1.389 . S
C864 H837 0.950 . S
C864 C850 1.377 1_655 S
C864 C863 1.373 . S
C865 C849 1.377 1_655 S
C865 C863 1.389 . S
C865 C866 1.524 . S
C866 C865 1.524 . S
C866 C867 1.397 . S
C866 C871 1.363 . S
C867 H838 0.950 . S
C867 C866 1.397 . S
C867 C868 1.334 . S
C868 H839 0.950 . S
C868 C867 1.334 . S
C868 C869 1.287 . S
C869 C868 1.287 . S
C869 C870 1.524 . S
C869 H872 0.999 . S
C870 H840 0.950 . S
C870 C869 1.524 . S
C870 C871 1.415 . S
C871 H841 0.979 . S
C871 C866 1.363 . S
C871 C870 1.415 . S
H872 C869 0.999 . S
H873 C854 0.913 . S
H874 C892 0.951 . S
H875 C894 0.951 . S
H876 C896 0.950 . S
H877 C897 0.950 . S
H878 C899 0.929 1_565 S
H879 C902 0.950 . S
H880 C903 0.950 . S
H881 C905 0.955 . S
H882 C906 0.950 . S
H883 C907 0.951 . S
H884 C909 0.951 . S
H885 C911 0.950 . S
H886 C912 0.950 . S
H887 C914 0.950 . S
H888 C917 0.950 . S
H889 C918 0.950 . S
H890 C920 0.950 . S
H891 C921 0.950 . S
C892 H874 0.951 . S
C892 C893 1.366 . S
C892 C894 1.388 . S
C893 C892 1.366 . S
C893 C897 1.385 . S
C894 H875 0.951 . S
C894 C892 1.388 . S
C894 C895 1.366 . S
C895 C894 1.366 . S
C895 C896 1.414 . S
C895 C898 1.499 . S
C896 H876 0.950 . S
C896 C895 1.414 . S
C896 C897 1.374 . S
C897 H877 0.950 . S
C897 C893 1.385 . S
C897 C896 1.374 . S
C898 C895 1.499 . S
C898 C899 1.358 1_565 S
C898 C900 1.389 1_565 S
C899 H878 0.929 1_545 S
C899 C898 1.358 1_545 S
C899 C915 1.414 . S
C900 C898 1.389 1_545 S
C900 C901 1.524 1_545 S
C900 C914 1.377 . S
C901 C900 1.524 1_565 S
C901 C902 1.397 . S
C901 C906 1.363 1_565 S
C902 H879 0.950 . S
C902 C901 1.397 . S
C902 C903 1.334 . S
C903 H880 0.950 . S
C903 C902 1.334 . S
C903 C904 1.287 . S
C904 C903 1.287 . S
C904 C905 1.524 . S
C904 H923 0.913 . S
C905 H881 0.955 . S
C905 C904 1.524 . S
C905 C906 1.415 1_565 S
C906 H882 0.950 . S
C906 C901 1.363 1_545 S
C906 C905 1.415 1_545 S
C907 H883 0.951 . S
C907 C908 1.366 . S
C907 C909 1.388 . S
C908 C907 1.366 . S
C908 C912 1.385 . S
C909 H884 0.951 . S
C909 C907 1.388 . S
C909 C910 1.366 . S
C910 C909 1.366 . S
C910 C911 1.414 . S
C910 C913 1.499 . S
C911 H885 0.950 . S
C911 C910 1.414 . S
C911 C912 1.374 . S
C912 H886 0.950 . S
C912 C908 1.385 . S
C912 C911 1.374 . S
C913 C910 1.499 . S
C913 C914 1.373 . S
C913 C915 1.389 . S
C914 H887 0.950 . S
C914 C900 1.377 . S
C914 C913 1.373 . S
C915 C899 1.414 . S
C915 C913 1.389 . S
C915 C916 1.524 . S
C916 C915 1.524 . S
C916 C917 1.397 . S
C916 C921 1.363 . S
C917 H888 0.950 . S
C917 C916 1.397 . S
C917 C918 1.334 . S
C918 H889 0.950 . S
C918 C917 1.334 . S
C918 C919 1.287 . S
C919 C918 1.287 . S
C919 C920 1.524 . S
C919 H922 0.999 . S
C920 H890 0.950 . S
C920 C919 1.524 . S
C920 C921 1.415 . S
C921 H891 0.950 . S
C921 C916 1.363 . S
C921 C920 1.415 . S
H922 C919 0.999 . S
H923 C904 0.913 . S
H924 C942 0.951 . S
H925 C944 0.951 . S
H926 C946 0.950 . S
H927 C947 0.950 . S
H928 C949 0.950 . S
H929 C952 0.950 . S
H930 C953 0.950 . S
H931 C955 0.950 . S
H932 C956 0.983 . S
H933 C957 0.951 . S
H934 C959 0.951 . S
H935 C961 0.950 . S
H936 C962 0.950 . S
H937 C964 0.950 . S
H938 C967 0.950 . S
H939 C968 0.950 . S
H940 C970 0.950 . S
H941 C971 0.983 . S
C942 H924 0.951 . S
C942 C943 1.366 . S
C942 C944 1.388 . S
C943 C942 1.366 . S
C943 C947 1.385 . S
C944 H925 0.951 . S
C944 C942 1.388 . S
C944 C945 1.366 . S
C945 C944 1.366 . S
C945 C946 1.414 . S
C945 C948 1.499 . S
C946 H926 0.950 . S
C946 C945 1.414 . S
C946 C947 1.374 . S
C947 H927 0.950 . S
C947 C943 1.385 . S
C947 C946 1.374 . S
C948 C945 1.499 . S
C948 C949 1.373 . S
C948 C950 1.389 . S
C949 H928 0.950 . S
C949 C948 1.373 . S
C949 C965 1.377 1_655 S
C950 C948 1.389 . S
C950 C951 1.524 . S
C950 C964 1.377 1_655 S
C951 C950 1.524 . S
C951 C952 1.397 . S
C951 C956 1.363 . S
C952 H929 0.950 . S
C952 C951 1.397 . S
C952 C953 1.334 . S
C953 H930 0.950 . S
C953 C952 1.334 . S
C953 C954 1.287 . S
C954 C953 1.287 . S
C954 C955 1.524 . S
C954 H973 0.913 . S
C955 H931 0.950 . S
C955 C954 1.524 . S
C955 C956 1.415 . S
C956 H932 0.983 . S
C956 C951 1.363 . S
C956 C955 1.415 . S
C957 H933 0.951 . S
C957 C958 1.366 . S
C957 C959 1.388 . S
C958 C957 1.366 . S
C958 C962 1.385 . S
C959 H934 0.951 . S
C959 C957 1.388 . S
C959 C960 1.366 . S
C960 C959 1.366 . S
C960 C961 1.414 . S
C960 C963 1.499 . S
C961 H935 0.950 . S
C961 C960 1.414 . S
C961 C962 1.374 . S
C962 H936 0.950 . S
C962 C958 1.385 . S
C962 C961 1.374 . S
C963 C960 1.499 . S
C963 C964 1.373 . S
C963 C965 1.389 . S
C964 H937 0.950 . S
C964 C950 1.377 1_455 S
C964 C963 1.373 . S
C965 C949 1.377 1_455 S
C965 C963 1.389 . S
C965 C966 1.524 . S
C966 C965 1.524 . S
C966 C967 1.397 . S
C966 C971 1.363 . S
C967 H938 0.950 . S
C967 C966 1.397 . S
C967 C968 1.334 . S
C968 H939 0.950 . S
C968 C967 1.334 . S
C968 C969 1.287 . S
C969 C968 1.287 . S
C969 C970 1.524 . S
C969 H972 0.999 . S
C970 H940 0.950 . S
C970 C969 1.524 . S
C970 C971 1.415 . S
C971 H941 0.983 . S
C971 C966 1.363 . S
C971 C970 1.415 . S
H972 C969 0.999 . S
H973 C954 0.913 . S
H974 C992 0.951 . S
H975 C994 0.951 . S
H976 C996 0.950 . S
H977 C997 0.950 . S
H978 C999 0.950 1_545 S
H979 C1002 0.950 . S
H980 C1003 0.950 . S
H981 C1005 0.950 . S
H982 C1006 0.950 1_565 S
H983 C1007 0.951 . S
H984 C1009 0.951 . S
H985 C1011 0.950 . S
H986 C1012 0.950 . S
H987 C1014 0.950 . S
H988 C1017 0.950 . S
H989 C1018 0.950 . S
H990 C1020 0.950 . S
H991 C1021 0.950 . S
C992 H974 0.951 . S
C992 C993 1.366 . S
C992 C994 1.388 . S
C993 C992 1.366 . S
C993 C997 1.385 . S
C994 H975 0.951 . S
C994 C992 1.388 . S
C994 C995 1.366 . S
C995 C994 1.366 . S
C995 C996 1.414 . S
C995 C998 1.499 . S
C996 H976 0.950 . S
C996 C995 1.414 . S
C996 C997 1.374 . S
C997 H977 0.950 . S
C997 C993 1.385 . S
C997 C996 1.374 . S
C998 C995 1.499 . S
C998 C999 1.373 1_545 S
C998 C1000 1.389 1_545 S
C999 H978 0.950 1_565 S
C999 C998 1.373 1_565 S
C999 C1015 1.377 . S
C1000 C998 1.389 1_565 S
C1000 C1001 1.524 1_565 S
C1000 C1014 1.377 . S
C1001 C1000 1.524 1_545 S
C1001 C1002 1.397 . S
C1001 C1006 1.363 . S
C1002 H979 0.950 . S
C1002 C1001 1.397 . S
C1002 C1003 1.334 . S
C1003 H980 0.950 . S
C1003 C1002 1.334 . S
C1003 C1004 1.287 . S
C1004 C1003 1.287 . S
C1004 C1005 1.524 . S
C1004 H1023 0.913 . S
C1005 H981 0.950 . S
C1005 C1004 1.524 . S
C1005 C1006 1.415 . S
C1006 H982 0.950 1_545 S
C1006 C1001 1.363 . S
C1006 C1005 1.415 . S
C1007 H983 0.951 . S
C1007 C1008 1.366 . S
C1007 C1009 1.388 . S
C1008 C1007 1.366 . S
C1008 C1012 1.385 . S
C1009 H984 0.951 . S
C1009 C1007 1.388 . S
C1009 C1010 1.366 . S
C1010 C1009 1.366 . S
C1010 C1011 1.414 . S
C1010 C1013 1.499 . S
C1011 H985 0.950 . S
C1011 C1010 1.414 . S
C1011 C1012 1.374 . S
C1012 H986 0.950 . S
C1012 C1008 1.385 . S
C1012 C1011 1.374 . S
C1013 C1010 1.499 . S
C1013 C1014 1.373 . S
C1013 C1015 1.389 . S
C1014 H987 0.950 . S
C1014 C1000 1.377 . S
C1014 C1013 1.373 . S
C1015 C999 1.377 . S
C1015 C1013 1.389 . S
C1015 C1016 1.524 . S
C1016 C1015 1.524 . S
C1016 C1017 1.397 . S
C1016 C1021 1.363 . S
C1017 H988 0.950 . S
C1017 C1016 1.397 . S
C1017 C1018 1.334 . S
C1018 H989 0.950 . S
C1018 C1017 1.334 . S
C1018 C1019 1.287 . S
C1019 C1018 1.287 . S
C1019 C1020 1.524 . S
C1019 H1022 0.999 . S
C1020 H990 0.950 . S
C1020 C1019 1.524 . S
C1020 C1021 1.415 . S
C1021 H991 0.950 . S
C1021 C1016 1.363 . S
C1021 C1020 1.415 . S
H1022 C1019 0.999 . S
H1023 C1004 0.913 . S
H1024 C1042 0.951 . S
H1025 C1044 0.951 . S
H1026 C1046 0.950 . S
H1027 C1047 0.950 . S
H1028 C1049 0.950 . S
H1029 C1052 0.950 . S
H1030 C1053 0.950 . S
H1031 C1055 0.950 . S
H1032 C1056 0.950 . S
H1033 C1057 0.951 . S
H1034 C1059 0.951 . S
H1035 C1061 0.950 . S
H1036 C1062 0.950 . S
H1037 C1064 0.950 . S
H1038 C1067 0.950 . S
H1039 C1068 0.950 . S
H1040 C1070 0.950 . S
H1041 C1071 0.950 . S
C1042 H1024 0.951 . S
C1042 C1043 1.366 . S
C1042 C1044 1.388 . S
C1043 C1042 1.366 . S
C1043 C1047 1.385 . S
C1044 H1025 0.951 . S
C1044 C1042 1.388 . S
C1044 C1045 1.366 . S
C1045 C1044 1.366 . S
C1045 C1046 1.414 . S
C1045 C1048 1.499 . S
C1046 H1026 0.950 . S
C1046 C1045 1.414 . S
C1046 C1047 1.374 . S
C1047 H1027 0.950 . S
C1047 C1043 1.385 . S
C1047 C1046 1.374 . S
C1048 C1045 1.499 . S
C1048 C1049 1.373 . S
C1048 C1050 1.389 . S
C1049 H1028 0.950 . S
C1049 C1048 1.373 . S
C1049 C1065 1.377 1_655 S
C1050 C1048 1.389 . S
C1050 C1051 1.524 . S
C1050 C1064 1.377 1_655 S
C1051 C1050 1.524 . S
C1051 C1052 1.397 . S
C1051 C1056 1.363 . S
C1052 H1029 0.950 . S
C1052 C1051 1.397 . S
C1052 C1053 1.334 . S
C1053 H1030 0.950 . S
C1053 C1052 1.334 . S
C1053 C1054 1.287 . S
C1054 C1053 1.287 . S
C1054 C1055 1.524 . S
C1054 H1073 0.913 . S
C1055 H1031 0.950 . S
C1055 C1054 1.524 . S
C1055 C1056 1.415 . S
C1056 H1032 0.950 . S
C1056 C1051 1.363 . S
C1056 C1055 1.415 . S
C1057 H1033 0.951 . S
C1057 C1058 1.366 . S
C1057 C1059 1.388 . S
C1058 C1057 1.366 . S
C1058 C1062 1.385 . S
C1059 H1034 0.951 . S
C1059 C1057 1.388 . S
C1059 C1060 1.366 . S
C1060 C1059 1.366 . S
C1060 C1061 1.414 . S
C1060 C1063 1.499 . S
C1061 H1035 0.950 . S
C1061 C1060 1.414 . S
C1061 C1062 1.374 . S
C1062 H1036 0.950 . S
C1062 C1058 1.385 . S
C1062 C1061 1.374 . S
C1063 C1060 1.499 . S
C1063 C1064 1.373 . S
C1063 C1065 1.389 . S
C1064 H1037 0.950 . S
C1064 C1050 1.377 1_455 S
C1064 C1063 1.373 . S
C1065 C1049 1.377 1_455 S
C1065 C1063 1.389 . S
C1065 C1066 1.524 . S
C1066 C1065 1.524 . S
C1066 C1067 1.397 . S
C1066 C1071 1.363 . S
C1067 H1038 0.950 . S
C1067 C1066 1.397 . S
C1067 C1068 1.334 . S
C1068 H1039 0.950 . S
C1068 C1067 1.334 . S
C1068 C1069 1.287 . S
C1069 C1068 1.287 . S
C1069 C1070 1.524 . S
C1069 H1072 0.999 . S
C1070 H1040 0.950 . S
C1070 C1069 1.524 . S
C1070 C1071 1.415 . S
C1071 H1041 0.950 . S
C1071 C1066 1.363 . S
C1071 C1070 1.415 . S
H1072 C1069 0.999 . S
H1073 C1054 0.913 . S
H1074 C1092 0.951 . S
H1075 C1094 0.951 . S
H1076 C1096 0.950 . S
H1077 C1097 0.950 . S
H1078 C1099 0.924 1_565 S
H1079 C1102 0.950 . S
H1080 C1103 0.950 . S
H1081 C1105 0.950 . S
H1082 C1106 0.950 . S
H1083 C1107 0.951 . S
H1084 C1109 0.951 . S
H1085 C1111 0.950 . S
H1086 C1112 0.950 . S
H1087 C1114 0.950 . S
H1088 C1117 0.950 . S
H1089 C1118 0.950 . S
H1090 C1120 0.950 . S
H1091 C1121 0.950 . S
C1092 H1074 0.951 . S
C1092 C1093 1.366 . S
C1092 C1094 1.388 . S
C1093 C1092 1.366 . S
C1093 C1097 1.385 . S
C1094 H1075 0.951 . S
C1094 C1092 1.388 . S
C1094 C1095 1.366 . S
C1095 C1094 1.366 . S
C1095 C1096 1.414 . S
C1095 C1098 1.499 . S
C1096 H1076 0.950 . S
C1096 C1095 1.414 . S
C1096 C1097 1.374 . S
C1097 H1077 0.950 . S
C1097 C1093 1.385 . S
C1097 C1096 1.374 . S
C1098 C1095 1.499 . S
C1098 C1099 1.353 1_565 S
C1098 C1100 1.389 1_565 S
C1099 H1078 0.924 1_545 S
C1099 C1098 1.353 1_545 S
C1099 C1115 1.425 . S
C1100 C1098 1.389 1_545 S
C1100 C1101 1.524 1_545 S
C1100 C1114 1.377 . S
C1101 C1100 1.524 1_565 S
C1101 C1102 1.397 . S
C1101 C1106 1.363 1_565 S
C1102 H1079 0.950 . S
C1102 C1101 1.397 . S
C1102 C1103 1.334 . S
C1103 H1080 0.950 . S
C1103 C1102 1.334 . S
C1103 C1104 1.287 . S
C1104 C1103 1.287 . S
C1104 C1105 1.524 . S
C1104 H1123 0.913 . S
C1105 H1081 0.950 . S
C1105 C1104 1.524 . S
C1105 C1106 1.415 1_565 S
C1106 H1082 0.950 . S
C1106 C1101 1.363 1_545 S
C1106 C1105 1.415 1_545 S
C1107 H1083 0.951 . S
C1107 C1108 1.366 . S
C1107 C1109 1.388 . S
C1108 C1107 1.366 . S
C1108 C1112 1.385 . S
C1109 H1084 0.951 . S
C1109 C1107 1.388 . S
C1109 C1110 1.366 . S
C1110 C1109 1.366 . S
C1110 C1111 1.414 . S
C1110 C1113 1.499 . S
C1111 H1085 0.950 . S
C1111 C1110 1.414 . S
C1111 C1112 1.374 . S
C1112 H1086 0.950 . S
C1112 C1108 1.385 . S
C1112 C1111 1.374 . S
C1113 C1110 1.499 . S
C1113 C1114 1.373 . S
C1113 C1115 1.389 . S
C1114 H1087 0.950 . S
C1114 C1100 1.377 . S
C1114 C1113 1.373 . S
C1115 C1099 1.425 . S
C1115 C1113 1.389 . S
C1115 C1116 1.524 . S
C1116 C1115 1.524 . S
C1116 C1117 1.397 . S
C1116 C1121 1.363 . S
C1117 H1088 0.950 . S
C1117 C1116 1.397 . S
C1117 C1118 1.334 . S
C1118 H1089 0.950 . S
C1118 C1117 1.334 . S
C1118 C1119 1.287 . S
C1119 C1118 1.287 . S
C1119 C1120 1.524 . S
C1119 H1122 0.999 . S
C1120 H1090 0.950 . S
C1120 C1119 1.524 . S
C1120 C1121 1.415 . S
C1121 H1091 0.950 . S
C1121 C1116 1.363 . S
C1121 C1120 1.415 . S
H1122 C1119 0.999 . S
H1123 C1104 0.913 . S
H1124 C1142 0.951 . S
H1125 C1144 0.951 . S
H1126 C1146 0.950 . S
H1127 C1147 0.950 . S
H1128 C1149 0.950 . S
H1129 C1152 0.950 . S
H1130 C1153 0.950 . S
H1131 C1155 0.950 . S
H1132 C1156 0.950 . S
H1133 C1157 0.951 . S
H1134 C1159 0.951 . S
H1135 C1161 0.950 . S
H1136 C1162 0.950 . S
H1137 C1164 0.950 . S
H1138 C1167 0.950 . S
H1139 C1168 0.950 . S
H1140 C1170 0.950 . S
H1141 C1171 0.950 . S
C1142 H1124 0.951 . S
C1142 C1143 1.366 . S
C1142 C1144 1.388 . S
C1143 C1142 1.366 . S
C1143 C1147 1.385 . S
C1144 H1125 0.951 . S
C1144 C1142 1.388 . S
C1144 C1145 1.366 . S
C1145 C1144 1.366 . S
C1145 C1146 1.414 . S
C1145 C1148 1.499 . S
C1146 H1126 0.950 . S
C1146 C1145 1.414 . S
C1146 C1147 1.374 . S
C1147 H1127 0.950 . S
C1147 C1143 1.385 . S
C1147 C1146 1.374 . S
C1148 C1145 1.499 . S
C1148 C1149 1.373 . S
C1148 C1150 1.389 . S
C1149 H1128 0.950 . S
C1149 C1148 1.373 . S
C1149 C1165 1.377 1_455 S
C1150 C1148 1.389 . S
C1150 C1151 1.524 . S
C1150 C1164 1.377 1_455 S
C1151 C1150 1.524 . S
C1151 C1152 1.397 . S
C1151 C1156 1.363 . S
C1152 H1129 0.950 . S
C1152 C1151 1.397 . S
C1152 C1153 1.334 . S
C1153 H1130 0.950 . S
C1153 C1152 1.334 . S
C1153 C1154 1.287 . S
C1154 C1153 1.287 . S
C1154 C1155 1.524 . S
C1154 H1173 0.913 . S
C1155 H1131 0.950 . S
C1155 C1154 1.524 . S
C1155 C1156 1.415 . S
C1156 H1132 0.950 . S
C1156 C1151 1.363 . S
C1156 C1155 1.415 . S
C1157 H1133 0.951 . S
C1157 C1158 1.366 . S
C1157 C1159 1.388 . S
C1158 C1157 1.366 . S
C1158 C1162 1.385 . S
C1159 H1134 0.951 . S
C1159 C1157 1.388 . S
C1159 C1160 1.366 . S
C1160 C1159 1.366 . S
C1160 C1161 1.414 . S
C1160 C1163 1.499 . S
C1161 H1135 0.950 . S
C1161 C1160 1.414 . S
C1161 C1162 1.374 . S
C1162 H1136 0.950 . S
C1162 C1158 1.385 . S
C1162 C1161 1.374 . S
C1163 C1160 1.499 . S
C1163 C1164 1.373 . S
C1163 C1165 1.389 . S
C1164 H1137 0.950 . S
C1164 C1150 1.377 1_655 S
C1164 C1163 1.373 . S
C1165 C1149 1.377 1_655 S
C1165 C1163 1.389 . S
C1165 C1166 1.524 . S
C1166 C1165 1.524 . S
C1166 C1167 1.397 . S
C1166 C1171 1.363 . S
C1167 H1138 0.950 . S
C1167 C1166 1.397 . S
C1167 C1168 1.334 . S
C1168 H1139 0.950 . S
C1168 C1167 1.334 . S
C1168 C1169 1.287 . S
C1169 C1168 1.287 . S
C1169 C1170 1.524 . S
C1169 H1172 0.999 . S
C1170 H1140 0.950 . S
C1170 C1169 1.524 . S
C1170 C1171 1.415 . S
C1171 H1141 0.950 . S
C1171 C1166 1.363 . S
C1171 C1170 1.415 . S
H1172 C1169 0.999 . S
H1173 C1154 0.913 . S
H1174 C1192 0.951 . S
H1175 C1194 0.951 . S
H1176 C1196 0.950 . S
H1177 C1197 0.950 . S
H1178 C1199 0.950 . S
H1179 C1202 0.950 . S
H1180 C1203 0.950 . S
H1181 C1205 0.950 . S
H1182 C1206 0.950 . S
H1183 C1207 0.951 . S
H1184 C1209 0.951 . S
H1185 C1211 0.950 . S
H1186 C1212 0.950 . S
H1187 C1214 0.950 1_545 S
H1188 C1217 0.950 . S
H1189 C1218 0.950 . S
H1190 C1220 0.950 . S
H1191 C1221 0.950 1_565 S
C1192 H1174 0.951 . S
C1192 C1193 1.366 . S
C1192 C1194 1.388 . S
C1193 C1192 1.366 . S
C1193 C1197 1.385 . S
C1194 H1175 0.951 . S
C1194 C1192 1.388 . S
C1194 C1195 1.366 . S
C1195 C1194 1.366 . S
C1195 C1196 1.414 . S
C1195 C1198 1.499 . S
C1196 H1176 0.950 . S
C1196 C1195 1.414 . S
C1196 C1197 1.374 . S
C1197 H1177 0.950 . S
C1197 C1193 1.385 . S
C1197 C1196 1.374 . S
C1198 C1195 1.499 . S
C1198 C1199 1.373 . S
C1198 C1200 1.389 . S
C1199 H1178 0.950 . S
C1199 C1198 1.373 . S
C1199 C1215 1.377 . S
C1200 C1198 1.389 . S
C1200 C1201 1.524 . S
C1200 C1214 1.377 . S
C1201 C1200 1.524 . S
C1201 C1202 1.397 . S
C1201 C1206 1.363 . S
C1202 H1179 0.950 . S
C1202 C1201 1.397 . S
C1202 C1203 1.334 . S
C1203 H1180 0.950 . S
C1203 C1202 1.334 . S
C1203 C1204 1.287 . S
C1204 C1203 1.287 . S
C1204 C1205 1.524 . S
C1204 H1223 0.913 . S
C1205 H1181 0.950 . S
C1205 C1204 1.524 . S
C1205 C1206 1.415 . S
C1206 H1182 0.950 . S
C1206 C1201 1.363 . S
C1206 C1205 1.415 . S
C1207 H1183 0.951 . S
C1207 C1208 1.366 . S
C1207 C1209 1.388 . S
C1208 C1207 1.366 . S
C1208 C1212 1.385 . S
C1209 H1184 0.951 . S
C1209 C1207 1.388 . S
C1209 C1210 1.366 . S
C1210 C1209 1.366 . S
C1210 C1211 1.414 . S
C1210 C1213 1.499 . S
C1211 H1185 0.950 . S
C1211 C1210 1.414 . S
C1211 C1212 1.374 . S
C1212 H1186 0.950 . S
C1212 C1208 1.385 . S
C1212 C1211 1.374 . S
C1213 C1210 1.499 . S
C1213 C1214 1.373 1_545 S
C1213 C1215 1.389 1_545 S
C1214 H1187 0.950 1_565 S
C1214 C1200 1.377 . S
C1214 C1213 1.373 1_565 S
C1215 C1199 1.377 . S
C1215 C1213 1.389 1_565 S
C1215 C1216 1.524 1_565 S
C1216 C1215 1.524 1_545 S
C1216 C1217 1.397 . S
C1216 C1221 1.363 . S
C1217 H1188 0.950 . S
C1217 C1216 1.397 . S
C1217 C1218 1.334 . S
C1218 H1189 0.950 . S
C1218 C1217 1.334 . S
C1218 C1219 1.287 . S
C1219 C1218 1.287 . S
C1219 C1220 1.524 . S
C1219 H1222 0.999 . S
C1220 H1190 0.950 . S
C1220 C1219 1.524 . S
C1220 C1221 1.415 . S
C1221 H1191 0.950 1_545 S
C1221 C1216 1.363 . S
C1221 C1220 1.415 . S
H1222 C1219 0.999 . S
H1223 C1204 0.913 . S
H1224 C1242 0.951 . S
H1225 C1244 0.951 . S
H1226 C1246 0.950 . S
H1227 C1247 0.950 . S
H1228 C1249 0.950 . S
H1229 C1252 0.950 . S
H1230 C1253 0.950 . S
H1231 C1255 0.950 . S
H1232 C1256 0.950 . S
H1233 C1257 0.951 . S
H1234 C1259 0.951 . S
H1235 C1261 0.950 . S
H1236 C1262 0.950 . S
H1237 C1264 0.950 . S
H1238 C1267 0.950 . S
H1239 C1268 0.950 . S
H1240 C1270 0.950 . S
H1241 C1271 0.950 . S
C1242 H1224 0.951 . S
C1242 C1243 1.366 . S
C1242 C1244 1.388 . S
C1243 C1242 1.366 . S
C1243 C1247 1.385 . S
C1244 H1225 0.951 . S
C1244 C1242 1.388 . S
C1244 C1245 1.366 . S
C1245 C1244 1.366 . S
C1245 C1246 1.414 . S
C1245 C1248 1.499 . S
C1246 H1226 0.950 . S
C1246 C1245 1.414 . S
C1246 C1247 1.374 . S
C1247 H1227 0.950 . S
C1247 C1243 1.385 . S
C1247 C1246 1.374 . S
C1248 C1245 1.499 . S
C1248 C1249 1.373 . S
C1248 C1250 1.389 . S
C1249 H1228 0.950 . S
C1249 C1248 1.373 . S
C1249 C1265 1.377 . S
C1250 C1248 1.389 . S
C1250 C1251 1.524 . S
C1250 C1264 1.377 . S
C1251 C1250 1.524 . S
C1251 C1252 1.397 . S
C1251 C1256 1.363 . S
C1252 H1229 0.950 . S
C1252 C1251 1.397 . S
C1252 C1253 1.334 . S
C1253 H1230 0.950 . S
C1253 C1252 1.334 . S
C1253 C1254 1.287 . S
C1254 C1253 1.287 . S
C1254 C1255 1.524 . S
C1254 H1273 0.913 . S
C1255 H1231 0.950 . S
C1255 C1254 1.524 . S
C1255 C1256 1.415 . S
C1256 H1232 0.950 . S
C1256 C1251 1.363 . S
C1256 C1255 1.415 . S
C1257 H1233 0.951 . S
C1257 C1258 1.366 . S
C1257 C1259 1.388 . S
C1258 C1257 1.366 . S
C1258 C1262 1.385 . S
C1259 H1234 0.951 . S
C1259 C1257 1.388 . S
C1259 C1260 1.366 . S
C1260 C1259 1.366 . S
C1260 C1261 1.414 . S
C1260 C1263 1.499 . S
C1261 H1235 0.950 . S
C1261 C1260 1.414 . S
C1261 C1262 1.374 . S
C1262 H1236 0.950 . S
C1262 C1258 1.385 . S
C1262 C1261 1.374 . S
C1263 C1260 1.499 . S
C1263 C1264 1.373 . S
C1263 C1265 1.389 . S
C1264 H1237 0.950 . S
C1264 C1250 1.377 . S
C1264 C1263 1.373 . S
C1265 C1249 1.377 . S
C1265 C1263 1.389 . S
C1265 C1266 1.524 . S
C1266 C1265 1.524 . S
C1266 C1267 1.397 . S
C1266 C1271 1.363 . S
C1267 H1238 0.950 . S
C1267 C1266 1.397 . S
C1267 C1268 1.334 . S
C1268 H1239 0.950 . S
C1268 C1267 1.334 . S
C1268 C1269 1.287 . S
C1269 C1268 1.287 . S
C1269 C1270 1.524 . S
C1269 H1272 0.999 . S
C1270 H1240 0.950 . S
C1270 C1269 1.524 . S
C1270 C1271 1.415 . S
C1271 H1241 0.950 . S
C1271 C1266 1.363 . S
C1271 C1270 1.415 . S
H1272 C1269 0.999 . S
H1273 C1254 0.913 . S
H1274 C1292 0.951 . S
H1275 C1294 0.951 . S
H1276 C1296 0.950 . S
H1277 C1297 0.950 . S
H1278 C1299 0.950 . S
H1279 C1302 0.950 . S
H1280 C1303 0.950 . S
H1281 C1305 0.950 . S
H1282 C1306 0.950 . S
H1283 C1307 0.951 . S
H1284 C1309 0.951 . S
H1285 C1311 0.950 . S
H1286 C1312 0.950 . S
H1287 C1314 0.950 . S
H1288 C1317 0.950 . S
H1289 C1318 0.950 . S
H1290 C1320 0.950 . S
H1291 C1321 0.950 . S
C1292 H1274 0.951 . S
C1292 C1293 1.366 . S
C1292 C1294 1.388 . S
C1293 C1292 1.366 . S
C1293 C1297 1.385 . S
C1294 H1275 0.951 . S
C1294 C1292 1.388 . S
C1294 C1295 1.366 . S
C1295 C1294 1.366 . S
C1295 C1296 1.414 . S
C1295 C1298 1.499 . S
C1296 H1276 0.950 . S
C1296 C1295 1.414 . S
C1296 C1297 1.374 . S
C1297 H1277 0.950 . S
C1297 C1293 1.385 . S
C1297 C1296 1.374 . S
C1298 C1295 1.499 . S
C1298 C1299 1.373 . S
C1298 C1300 1.389 . S
C1299 H1278 0.950 . S
C1299 C1298 1.373 . S
C1299 C1315 1.377 . S
C1300 C1298 1.389 . S
C1300 C1301 1.524 . S
C1300 C1314 1.377 . S
C1301 C1300 1.524 . S
C1301 C1302 1.397 . S
C1301 C1306 1.363 . S
C1302 H1279 0.950 . S
C1302 C1301 1.397 . S
C1302 C1303 1.334 . S
C1303 H1280 0.950 . S
C1303 C1302 1.334 . S
C1303 C1304 1.287 . S
C1304 C1303 1.287 . S
C1304 C1305 1.524 . S
C1304 H1323 0.913 . S
C1305 H1281 0.950 . S
C1305 C1304 1.524 . S
C1305 C1306 1.415 . S
C1306 H1282 0.950 . S
C1306 C1301 1.363 . S
C1306 C1305 1.415 . S
C1307 H1283 0.951 . S
C1307 C1308 1.366 . S
C1307 C1309 1.388 . S
C1308 C1307 1.366 . S
C1308 C1312 1.385 . S
C1309 H1284 0.951 . S
C1309 C1307 1.388 . S
C1309 C1310 1.366 . S
C1310 C1309 1.366 . S
C1310 C1311 1.414 . S
C1310 C1313 1.499 . S
C1311 H1285 0.950 . S
C1311 C1310 1.414 . S
C1311 C1312 1.374 . S
C1312 H1286 0.950 . S
C1312 C1308 1.385 . S
C1312 C1311 1.374 . S
C1313 C1310 1.499 . S
C1313 C1314 1.373 . S
C1313 C1315 1.389 . S
C1314 H1287 0.950 . S
C1314 C1300 1.377 . S
C1314 C1313 1.373 . S
C1315 C1299 1.377 . S
C1315 C1313 1.389 . S
C1315 C1316 1.524 . S
C1316 C1315 1.524 . S
C1316 C1317 1.397 . S
C1316 C1321 1.363 . S
C1317 H1288 0.950 . S
C1317 C1316 1.397 . S
C1317 C1318 1.334 . S
C1318 H1289 0.950 . S
C1318 C1317 1.334 . S
C1318 C1319 1.287 . S
C1319 C1318 1.287 . S
C1319 C1320 1.524 . S
C1319 H1322 0.999 . S
C1320 H1290 0.950 . S
C1320 C1319 1.524 . S
C1320 C1321 1.415 . S
C1321 H1291 0.950 . S
C1321 C1316 1.363 . S
C1321 C1320 1.415 . S
H1322 C1319 0.999 . S
H1323 C1304 0.913 . S
H1324 C1342 0.951 . S
H1325 C1344 0.951 . S
H1326 C1346 0.950 . S
H1327 C1347 0.950 . S
H1328 C1349 0.950 . S
H1329 C1352 0.950 . S
H1330 C1353 0.950 . S
H1331 C1355 0.950 . S
H1332 C1356 0.950 . S
H1333 C1357 0.951 . S
H1334 C1359 0.951 . S
H1335 C1361 0.950 . S
H1336 C1362 0.950 . S
H1337 C1364 0.950 . S
H1338 C1367 0.950 . S
H1339 C1368 0.950 . S
H1340 C1370 0.950 . S
H1341 C1371 0.950 . S
C1342 H1324 0.951 . S
C1342 C1343 1.366 . S
C1342 C1344 1.388 . S
C1343 C1342 1.366 . S
C1343 C1347 1.385 . S
C1344 H1325 0.951 . S
C1344 C1342 1.388 . S
C1344 C1345 1.366 . S
C1345 C1344 1.366 . S
C1345 C1346 1.414 . S
C1345 C1348 1.499 . S
C1346 H1326 0.950 . S
C1346 C1345 1.414 . S
C1346 C1347 1.374 . S
C1347 H1327 0.950 . S
C1347 C1343 1.385 . S
C1347 C1346 1.374 . S
C1348 C1345 1.499 . S
C1348 C1349 1.373 . S
C1348 C1350 1.389 . S
C1349 H1328 0.950 . S
C1349 C1348 1.373 . S
C1349 C1365 1.377 . S
C1350 C1348 1.389 . S
C1350 C1351 1.524 . S
C1350 C1364 1.377 . S
C1351 C1350 1.524 . S
C1351 C1352 1.397 . S
C1351 C1356 1.363 . S
C1352 H1329 0.950 . S
C1352 C1351 1.397 . S
C1352 C1353 1.334 . S
C1353 H1330 0.950 . S
C1353 C1352 1.334 . S
C1353 C1354 1.287 . S
C1354 C1353 1.287 . S
C1354 C1355 1.524 . S
C1354 H1373 0.913 . S
C1355 H1331 0.950 . S
C1355 C1354 1.524 . S
C1355 C1356 1.415 . S
C1356 H1332 0.950 . S
C1356 C1351 1.363 . S
C1356 C1355 1.415 . S
C1357 H1333 0.951 . S
C1357 C1358 1.366 . S
C1357 C1359 1.388 . S
C1358 C1357 1.366 . S
C1358 C1362 1.385 . S
C1359 H1334 0.951 . S
C1359 C1357 1.388 . S
C1359 C1360 1.366 . S
C1360 C1359 1.366 . S
C1360 C1361 1.414 . S
C1360 C1363 1.499 . S
C1361 H1335 0.950 . S
C1361 C1360 1.414 . S
C1361 C1362 1.374 . S
C1362 H1336 0.950 . S
C1362 C1358 1.385 . S
C1362 C1361 1.374 . S
C1363 C1360 1.499 . S
C1363 C1364 1.373 . S
C1363 C1365 1.389 . S
C1364 H1337 0.950 . S
C1364 C1350 1.377 . S
C1364 C1363 1.373 . S
C1365 C1349 1.377 . S
C1365 C1363 1.389 . S
C1365 C1366 1.524 . S
C1366 C1365 1.524 . S
C1366 C1367 1.397 . S
C1366 C1371 1.363 . S
C1367 H1338 0.950 . S
C1367 C1366 1.397 . S
C1367 C1368 1.334 . S
C1368 H1339 0.950 . S
C1368 C1367 1.334 . S
C1368 C1369 1.287 . S
C1369 C1368 1.287 . S
C1369 C1370 1.524 . S
C1369 H1372 0.999 . S
C1370 H1340 0.950 . S
C1370 C1369 1.524 . S
C1370 C1371 1.415 . S
C1371 H1341 0.950 . S
C1371 C1366 1.363 . S
C1371 C1370 1.415 . S
H1372 C1369 0.999 . S
H1373 C1354 0.913 . S
H1374 C1392 0.951 . S
H1375 C1394 0.951 . S
H1376 C1396 0.950 . S
H1377 C1397 0.950 . S
H1378 C1399 0.950 . S
H1379 C1402 0.950 . S
H1380 C1403 0.950 . S
H1381 C1405 0.950 . S
H1382 C1406 0.950 . S
H1383 C1407 0.951 . S
H1384 C1409 0.951 . S
H1385 C1411 0.950 . S
H1386 C1412 0.950 . S
H1387 C1414 0.950 . S
H1388 C1417 0.950 . S
H1389 C1418 0.950 . S
H1390 C1420 0.950 . S
H1391 C1421 0.950 . S
C1392 H1374 0.951 . S
C1392 C1393 1.366 . S
C1392 C1394 1.388 . S
C1393 C1392 1.366 . S
C1393 C1397 1.385 . S
C1394 H1375 0.951 . S
C1394 C1392 1.388 . S
C1394 C1395 1.366 . S
C1395 C1394 1.366 . S
C1395 C1396 1.414 . S
C1395 C1398 1.499 . S
C1396 H1376 0.950 . S
C1396 C1395 1.414 . S
C1396 C1397 1.374 . S
C1397 H1377 0.950 . S
C1397 C1393 1.385 . S
C1397 C1396 1.374 . S
C1398 C1395 1.499 . S
C1398 C1399 1.373 . S
C1398 C1400 1.389 . S
C1399 H1378 0.950 . S
C1399 C1398 1.373 . S
C1399 C1415 1.377 . S
C1400 C1398 1.389 . S
C1400 C1401 1.524 . S
C1400 C1414 1.377 . S
C1401 C1400 1.524 . S
C1401 C1402 1.397 . S
C1401 C1406 1.363 . S
C1402 H1379 0.950 . S
C1402 C1401 1.397 . S
C1402 C1403 1.334 . S
C1403 H1380 0.950 . S
C1403 C1402 1.334 . S
C1403 C1404 1.287 . S
C1404 C1403 1.287 . S
C1404 C1405 1.524 . S
C1404 H1423 0.913 . S
C1405 H1381 0.950 . S
C1405 C1404 1.524 . S
C1405 C1406 1.415 . S
C1406 H1382 0.950 . S
C1406 C1401 1.363 . S
C1406 C1405 1.415 . S
C1407 H1383 0.951 . S
C1407 C1408 1.366 . S
C1407 C1409 1.388 . S
C1408 C1407 1.366 . S
C1408 C1412 1.385 . S
C1409 H1384 0.951 . S
C1409 C1407 1.388 . S
C1409 C1410 1.366 . S
C1410 C1409 1.366 . S
C1410 C1411 1.414 . S
C1410 C1413 1.499 . S
C1411 H1385 0.950 . S
C1411 C1410 1.414 . S
C1411 C1412 1.374 . S
C1412 H1386 0.950 . S
C1412 C1408 1.385 . S
C1412 C1411 1.374 . S
C1413 C1410 1.499 . S
C1413 C1414 1.373 . S
C1413 C1415 1.389 . S
C1414 H1387 0.950 . S
C1414 C1400 1.377 . S
C1414 C1413 1.373 . S
C1415 C1399 1.377 . S
C1415 C1413 1.389 . S
C1415 C1416 1.524 . S
C1416 C1415 1.524 . S
C1416 C1417 1.397 . S
C1416 C1421 1.363 . S
C1417 H1388 0.950 . S
C1417 C1416 1.397 . S
C1417 C1418 1.334 . S
C1418 H1389 0.950 . S
C1418 C1417 1.334 . S
C1418 C1419 1.287 . S
C1419 C1418 1.287 . S
C1419 C1420 1.524 . S
C1419 H1422 0.999 . S
C1420 H1390 0.950 . S
C1420 C1419 1.524 . S
C1420 C1421 1.415 . S
C1421 H1391 0.950 . S
C1421 C1416 1.363 . S
C1421 C1420 1.415 . S
H1422 C1419 0.999 . S
H1423 C1404 0.913 . S
H1424 C1442 0.951 . S
H1425 C1444 0.951 . S
H1426 C1446 0.950 . S
H1427 C1447 0.950 . S
H1428 C1449 0.950 . S
H1429 C1452 0.950 . S
H1430 C1453 0.950 . S
H1431 C1455 0.950 . S
H1432 C1456 0.950 . S
H1433 C1457 0.951 . S
H1434 C1459 0.951 . S
H1435 C1461 0.950 . S
H1436 C1462 0.950 . S
H1437 C1464 0.950 . S
H1438 C1467 0.950 . S
H1439 C1468 0.950 . S
H1440 C1470 0.950 . S
H1441 C1471 0.950 . S
C1442 H1424 0.951 . S
C1442 C1443 1.366 . S
C1442 C1444 1.388 . S
C1443 C1442 1.366 . S
C1443 C1447 1.385 . S
C1444 H1425 0.951 . S
C1444 C1442 1.388 . S
C1444 C1445 1.366 . S
C1445 C1444 1.366 . S
C1445 C1446 1.414 . S
C1445 C1448 1.499 . S
C1446 H1426 0.950 . S
C1446 C1445 1.414 . S
C1446 C1447 1.374 . S
C1447 H1427 0.950 . S
C1447 C1443 1.385 . S
C1447 C1446 1.374 . S
C1448 C1445 1.499 . S
C1448 C1449 1.373 . S
C1448 C1450 1.389 . S
C1449 H1428 0.950 . S
C1449 C1448 1.373 . S
C1449 C1465 1.377 . S
C1450 C1448 1.389 . S
C1450 C1451 1.524 . S
C1450 C1464 1.377 . S
C1451 C1450 1.524 . S
C1451 C1452 1.397 . S
C1451 C1456 1.363 . S
C1452 H1429 0.950 . S
C1452 C1451 1.397 . S
C1452 C1453 1.334 . S
C1453 H1430 0.950 . S
C1453 C1452 1.334 . S
C1453 C1454 1.287 . S
C1454 C1453 1.287 . S
C1454 C1455 1.524 . S
C1454 H1473 0.913 . S
C1455 H1431 0.950 . S
C1455 C1454 1.524 . S
C1455 C1456 1.415 . S
C1456 H1432 0.950 . S
C1456 C1451 1.363 . S
C1456 C1455 1.415 . S
C1457 H1433 0.951 . S
C1457 C1458 1.366 . S
C1457 C1459 1.388 . S
C1458 C1457 1.366 . S
C1458 C1462 1.385 . S
C1459 H1434 0.951 . S
C1459 C1457 1.388 . S
C1459 C1460 1.366 . S
C1460 C1459 1.366 . S
C1460 C1461 1.414 . S
C1460 C1463 1.499 . S
C1461 H1435 0.950 . S
C1461 C1460 1.414 . S
C1461 C1462 1.374 . S
C1462 H1436 0.950 . S
C1462 C1458 1.385 . S
C1462 C1461 1.374 . S
C1463 C1460 1.499 . S
C1463 C1464 1.373 . S
C1463 C1465 1.389 . S
C1464 H1437 0.950 . S
C1464 C1450 1.377 . S
C1464 C1463 1.373 . S
C1465 C1449 1.377 . S
C1465 C1463 1.389 . S
C1465 C1466 1.524 . S
C1466 C1465 1.524 . S
C1466 C1467 1.397 . S
C1466 C1471 1.363 . S
C1467 H1438 0.950 . S
C1467 C1466 1.397 . S
C1467 C1468 1.334 . S
C1468 H1439 0.950 . S
C1468 C1467 1.334 . S
C1468 C1469 1.287 . S
C1469 C1468 1.287 . S
C1469 C1470 1.524 . S
C1469 H1472 0.999 . S
C1470 H1440 0.950 . S
C1470 C1469 1.524 . S
C1470 C1471 1.415 . S
C1471 H1441 0.950 . S
C1471 C1466 1.363 . S
C1471 C1470 1.415 . S
H1472 C1469 0.999 . S
H1473 C1454 0.913 . S
H1474 C1492 0.951 . S
H1475 C1494 0.951 . S
H1476 C1496 0.950 . S
H1477 C1497 0.950 . S
H1478 C1499 0.950 . S
H1479 C1502 0.950 . S
H1480 C1503 0.950 . S
H1481 C1505 0.950 . S
H1482 C1506 0.950 . S
H1483 C1507 0.951 . S
H1484 C1509 0.951 . S
H1485 C1511 0.950 . S
H1486 C1512 0.950 . S
H1487 C1514 0.950 . S
H1488 C1517 0.950 . S
H1489 C1518 0.950 . S
H1490 C1520 0.950 . S
H1491 C1521 0.950 . S
C1492 H1474 0.951 . S
C1492 C1493 1.366 . S
C1492 C1494 1.388 . S
C1493 C1492 1.366 . S
C1493 C1497 1.385 . S
C1494 H1475 0.951 . S
C1494 C1492 1.388 . S
C1494 C1495 1.366 . S
C1495 C1494 1.366 . S
C1495 C1496 1.414 . S
C1495 C1498 1.499 . S
C1496 H1476 0.950 . S
C1496 C1495 1.414 . S
C1496 C1497 1.374 . S
C1497 H1477 0.950 . S
C1497 C1493 1.385 . S
C1497 C1496 1.374 . S
C1498 C1495 1.499 . S
C1498 C1499 1.373 . S
C1498 C1500 1.389 . S
C1499 H1478 0.950 . S
C1499 C1498 1.373 . S
C1499 C1515 1.377 . S
C1500 C1498 1.389 . S
C1500 C1501 1.524 . S
C1500 C1514 1.377 . S
C1501 C1500 1.524 . S
C1501 C1502 1.397 . S
C1501 C1506 1.363 . S
C1502 H1479 0.950 . S
C1502 C1501 1.397 . S
C1502 C1503 1.334 . S
C1503 H1480 0.950 . S
C1503 C1502 1.334 . S
C1503 C1504 1.287 . S
C1504 C1503 1.287 . S
C1504 C1505 1.524 . S
C1504 H1523 0.913 . S
C1505 H1481 0.950 . S
C1505 C1504 1.524 . S
C1505 C1506 1.415 . S
C1506 H1482 0.950 . S
C1506 C1501 1.363 . S
C1506 C1505 1.415 . S
C1507 H1483 0.951 . S
C1507 C1508 1.366 . S
C1507 C1509 1.388 . S
C1508 C1507 1.366 . S
C1508 C1512 1.385 . S
C1509 H1484 0.951 . S
C1509 C1507 1.388 . S
C1509 C1510 1.366 . S
C1510 C1509 1.366 . S
C1510 C1511 1.414 . S
C1510 C1513 1.499 . S
C1511 H1485 0.950 . S
C1511 C1510 1.414 . S
C1511 C1512 1.374 . S
C1512 H1486 0.950 . S
C1512 C1508 1.385 . S
C1512 C1511 1.374 . S
C1513 C1510 1.499 . S
C1513 C1514 1.373 . S
C1513 C1515 1.389 . S
C1514 H1487 0.950 . S
C1514 C1500 1.377 . S
C1514 C1513 1.373 . S
C1515 C1499 1.377 . S
C1515 C1513 1.389 . S
C1515 C1516 1.524 . S
C1516 C1515 1.524 . S
C1516 C1517 1.397 . S
C1516 C1521 1.363 . S
C1517 H1488 0.950 . S
C1517 C1516 1.397 . S
C1517 C1518 1.334 . S
C1518 H1489 0.950 . S
C1518 C1517 1.334 . S
C1518 C1519 1.287 . S
C1519 C1518 1.287 . S
C1519 C1520 1.524 . S
C1519 H1522 0.999 . S
C1520 H1490 0.950 . S
C1520 C1519 1.524 . S
C1520 C1521 1.415 . S
C1521 H1491 0.950 . S
C1521 C1516 1.363 . S
C1521 C1520 1.415 . S
H1522 C1519 0.999 . S
H1523 C1504 0.913 . S
H1524 C1542 0.951 . S
H1525 C1544 0.951 . S
H1526 C1546 0.950 . S
H1527 C1547 0.950 . S
H1528 C1549 0.950 . S
H1529 C1552 0.950 . S
H1530 C1553 0.950 . S
H1531 C1555 0.950 . S
H1532 C1556 0.950 . S
H1533 C1557 0.951 . S
H1534 C1559 0.951 . S
H1535 C1561 0.950 . S
H1536 C1562 0.950 . S
H1537 C1564 0.950 . S
H1538 C1567 0.950 . S
H1539 C1568 0.950 . S
H1540 C1570 0.950 . S
H1541 C1571 0.950 . S
C1542 H1524 0.951 . S
C1542 C1543 1.366 . S
C1542 C1544 1.388 . S
C1543 C1542 1.366 . S
C1543 C1547 1.385 . S
C1544 H1525 0.951 . S
C1544 C1542 1.388 . S
C1544 C1545 1.366 . S
C1545 C1544 1.366 . S
C1545 C1546 1.414 . S
C1545 C1548 1.499 . S
C1546 H1526 0.950 . S
C1546 C1545 1.414 . S
C1546 C1547 1.374 . S
C1547 H1527 0.950 . S
C1547 C1543 1.385 . S
C1547 C1546 1.374 . S
C1548 C1545 1.499 . S
C1548 C1549 1.373 . S
C1548 C1550 1.389 . S
C1549 H1528 0.950 . S
C1549 C1548 1.373 . S
C1549 C1565 1.377 . S
C1550 C1548 1.389 . S
C1550 C1551 1.524 . S
C1550 C1564 1.377 . S
C1551 C1550 1.524 . S
C1551 C1552 1.397 . S
C1551 C1556 1.363 . S
C1552 H1529 0.950 . S
C1552 C1551 1.397 . S
C1552 C1553 1.334 . S
C1553 H1530 0.950 . S
C1553 C1552 1.334 . S
C1553 C1554 1.287 . S
C1554 C1553 1.287 . S
C1554 C1555 1.524 . S
C1554 H1573 0.913 . S
C1555 H1531 0.950 . S
C1555 C1554 1.524 . S
C1555 C1556 1.415 . S
C1556 H1532 0.950 . S
C1556 C1551 1.363 . S
C1556 C1555 1.415 . S
C1557 H1533 0.951 . S
C1557 C1558 1.366 . S
C1557 C1559 1.388 . S
C1558 C1557 1.366 . S
C1558 C1562 1.385 . S
C1559 H1534 0.951 . S
C1559 C1557 1.388 . S
C1559 C1560 1.366 . S
C1560 C1559 1.366 . S
C1560 C1561 1.414 . S
C1560 C1563 1.499 . S
C1561 H1535 0.950 . S
C1561 C1560 1.414 . S
C1561 C1562 1.374 . S
C1562 H1536 0.950 . S
C1562 C1558 1.385 . S
C1562 C1561 1.374 . S
C1563 C1560 1.499 . S
C1563 C1564 1.373 . S
C1563 C1565 1.389 . S
C1564 H1537 0.950 . S
C1564 C1550 1.377 . S
C1564 C1563 1.373 . S
C1565 C1549 1.377 . S
C1565 C1563 1.389 . S
C1565 C1566 1.524 . S
C1566 C1565 1.524 . S
C1566 C1567 1.397 . S
C1566 C1571 1.363 . S
C1567 H1538 0.950 . S
C1567 C1566 1.397 . S
C1567 C1568 1.334 . S
C1568 H1539 0.950 . S
C1568 C1567 1.334 . S
C1568 C1569 1.287 . S
C1569 C1568 1.287 . S
C1569 C1570 1.524 . S
C1569 H1572 0.999 . S
C1570 H1540 0.950 . S
C1570 C1569 1.524 . S
C1570 C1571 1.415 . S
C1571 H1541 0.950 . S
C1571 C1566 1.363 . S
C1571 C1570 1.415 . S
H1572 C1569 0.999 . S
H1573 C1554 0.913 . S
H1574 C1592 0.951 . S
H1575 C1594 0.951 . S
H1576 C1596 0.950 . S
H1577 C1597 0.950 . S
H1578 C1599 0.950 . S
H1579 C1602 0.950 . S
H1580 C1603 0.950 . S
H1581 C1605 0.950 . S
H1582 C1606 0.950 . S
H1583 C1607 0.951 . S
H1584 C1609 0.951 . S
H1585 C1611 0.950 . S
H1586 C1612 0.950 . S
H1587 C1614 0.950 . S
H1588 C1617 0.950 . S
H1589 C1618 0.950 . S
H1590 C1620 0.950 . S
H1591 C1621 0.950 . S
C1592 H1574 0.951 . S
C1592 C1593 1.366 . S
C1592 C1594 1.388 . S
C1593 C1592 1.366 . S
C1593 C1597 1.385 . S
C1594 H1575 0.951 . S
C1594 C1592 1.388 . S
C1594 C1595 1.366 . S
C1595 C1594 1.366 . S
C1595 C1596 1.414 . S
C1595 C1598 1.499 . S
C1596 H1576 0.950 . S
C1596 C1595 1.414 . S
C1596 C1597 1.374 . S
C1597 H1577 0.950 . S
C1597 C1593 1.385 . S
C1597 C1596 1.374 . S
C1598 C1595 1.499 . S
C1598 C1599 1.373 . S
C1598 C1600 1.389 . S
C1599 H1578 0.950 . S
C1599 C1598 1.373 . S
C1599 C1615 1.377 . S
C1600 C1598 1.389 . S
C1600 C1601 1.524 . S
C1600 C1614 1.377 . S
C1601 C1600 1.524 . S
C1601 C1602 1.397 . S
C1601 C1606 1.363 . S
C1602 H1579 0.950 . S
C1602 C1601 1.397 . S
C1602 C1603 1.334 . S
C1603 H1580 0.950 . S
C1603 C1602 1.334 . S
C1603 C1604 1.287 . S
C1604 C1603 1.287 . S
C1604 C1605 1.524 . S
C1604 H1623 0.913 . S
C1605 H1581 0.950 . S
C1605 C1604 1.524 . S
C1605 C1606 1.415 . S
C1606 H1582 0.950 . S
C1606 C1601 1.363 . S
C1606 C1605 1.415 . S
C1607 H1583 0.951 . S
C1607 C1608 1.366 . S
C1607 C1609 1.388 . S
C1608 C1607 1.366 . S
C1608 C1612 1.385 . S
C1609 H1584 0.951 . S
C1609 C1607 1.388 . S
C1609 C1610 1.366 . S
C1610 C1609 1.366 . S
C1610 C1611 1.414 . S
C1610 C1613 1.499 . S
C1611 H1585 0.950 . S
C1611 C1610 1.414 . S
C1611 C1612 1.374 . S
C1612 H1586 0.950 . S
C1612 C1608 1.385 . S
C1612 C1611 1.374 . S
C1613 C1610 1.499 . S
C1613 C1614 1.373 . S
C1613 C1615 1.389 . S
C1614 H1587 0.950 . S
C1614 C1600 1.377 . S
C1614 C1613 1.373 . S
C1615 C1599 1.377 . S
C1615 C1613 1.389 . S
C1615 C1616 1.524 . S
C1616 C1615 1.524 . S
C1616 C1617 1.397 . S
C1616 C1621 1.363 . S
C1617 H1588 0.950 . S
C1617 C1616 1.397 . S
C1617 C1618 1.334 . S
C1618 H1589 0.950 . S
C1618 C1617 1.334 . S
C1618 C1619 1.287 . S
C1619 C1618 1.287 . S
C1619 C1620 1.524 . S
C1619 H1622 0.999 . S
C1620 H1590 0.950 . S
C1620 C1619 1.524 . S
C1620 C1621 1.415 . S
C1621 H1591 0.950 . S
C1621 C1616 1.363 . S
C1621 C1620 1.415 . S
H1622 C1619 0.999 . S
H1623 C1604 0.913 . S
H1624 C1642 0.951 . S
H1625 C1644 0.951 . S
H1626 C1646 0.950 . S
H1627 C1647 0.950 . S
H1628 C1649 0.950 . S
H1629 C1652 0.950 . S
H1630 C1653 0.950 . S
H1631 C1655 0.950 . S
H1632 C1656 0.950 . S
H1633 C1657 0.951 . S
H1634 C1659 0.951 . S
H1635 C1661 0.950 . S
H1636 C1662 0.950 . S
H1637 C1664 0.950 . S
H1638 C1667 0.950 . S
H1639 C1668 0.950 . S
H1640 C1670 0.950 . S
H1641 C1671 0.950 . S
C1642 H1624 0.951 . S
C1642 C1643 1.366 . S
C1642 C1644 1.388 . S
C1643 C1642 1.366 . S
C1643 C1647 1.385 . S
C1644 H1625 0.951 . S
C1644 C1642 1.388 . S
C1644 C1645 1.366 . S
C1645 C1644 1.366 . S
C1645 C1646 1.414 . S
C1645 C1648 1.499 . S
C1646 H1626 0.950 . S
C1646 C1645 1.414 . S
C1646 C1647 1.374 . S
C1647 H1627 0.950 . S
C1647 C1643 1.385 . S
C1647 C1646 1.374 . S
C1648 C1645 1.499 . S
C1648 C1649 1.373 . S
C1648 C1650 1.389 . S
C1649 H1628 0.950 . S
C1649 C1648 1.373 . S
C1649 C1665 1.377 . S
C1650 C1648 1.389 . S
C1650 C1651 1.524 . S
C1650 C1664 1.377 . S
C1651 C1650 1.524 . S
C1651 C1652 1.397 . S
C1651 C1656 1.363 . S
C1652 H1629 0.950 . S
C1652 C1651 1.397 . S
C1652 C1653 1.334 . S
C1653 H1630 0.950 . S
C1653 C1652 1.334 . S
C1653 C1654 1.287 . S
C1654 C1653 1.287 . S
C1654 C1655 1.524 . S
C1654 H1673 0.913 . S
C1655 H1631 0.950 . S
C1655 C1654 1.524 . S
C1655 C1656 1.415 . S
C1656 H1632 0.950 . S
C1656 C1651 1.363 . S
C1656 C1655 1.415 . S
C1657 H1633 0.951 . S
C1657 C1658 1.366 . S
C1657 C1659 1.388 . S
C1658 C1657 1.366 . S
C1658 C1662 1.385 . S
C1659 H1634 0.951 . S
C1659 C1657 1.388 . S
C1659 C1660 1.366 . S
C1660 C1659 1.366 . S
C1660 C1661 1.414 . S
C1660 C1663 1.499 . S
C1661 H1635 0.950 . S
C1661 C1660 1.414 . S
C1661 C1662 1.374 . S
C1662 H1636 0.950 . S
C1662 C1658 1.385 . S
C1662 C1661 1.374 . S
C1663 C1660 1.499 . S
C1663 C1664 1.373 . S
C1663 C1665 1.389 . S
C1664 H1637 0.950 . S
C1664 C1650 1.377 . S
C1664 C1663 1.373 . S
C1665 C1649 1.377 . S
C1665 C1663 1.389 . S
C1665 C1666 1.524 . S
C1666 C1665 1.524 . S
C1666 C1667 1.397 . S
C1666 C1671 1.363 . S
C1667 H1638 0.950 . S
C1667 C1666 1.397 . S
C1667 C1668 1.334 . S
C1668 H1639 0.950 . S
C1668 C1667 1.334 . S
C1668 C1669 1.287 . S
C1669 C1668 1.287 . S
C1669 C1670 1.524 . S
C1669 H1672 0.999 . S
C1670 H1640 0.950 . S
C1670 C1669 1.524 . S
C1670 C1671 1.415 . S
C1671 H1641 0.950 . S
C1671 C1666 1.363 . S
C1671 C1670 1.415 . S
H1672 C1669 0.999 . S
H1673 C1654 0.913 . S
H1674 C1692 0.951 . S
H1675 C1694 0.951 . S
H1676 C1696 0.950 . S
H1677 C1697 0.950 . S
H1678 C1699 0.950 . S
H1679 C1702 0.950 . S
H1680 C1703 0.950 . S
H1681 C1705 0.950 . S
H1682 C1706 0.950 . S
H1683 C1707 0.951 . S
H1684 C1709 0.951 . S
H1685 C1711 0.950 . S
H1686 C1712 0.950 . S
H1687 C1714 0.950 . S
H1688 C1717 0.950 . S
H1689 C1718 0.950 . S
H1690 C1720 0.950 . S
H1691 C1721 0.950 . S
C1692 H1674 0.951 . S
C1692 C1693 1.366 . S
C1692 C1694 1.388 . S
C1693 C1692 1.366 . S
C1693 C1697 1.385 . S
C1694 H1675 0.951 . S
C1694 C1692 1.388 . S
C1694 C1695 1.366 . S
C1695 C1694 1.366 . S
C1695 C1696 1.414 . S
C1695 C1698 1.499 . S
C1696 H1676 0.950 . S
C1696 C1695 1.414 . S
C1696 C1697 1.374 . S
C1697 H1677 0.950 . S
C1697 C1693 1.385 . S
C1697 C1696 1.374 . S
C1698 C1695 1.499 . S
C1698 C1699 1.373 . S
C1698 C1700 1.389 . S
C1699 H1678 0.950 . S
C1699 C1698 1.373 . S
C1699 C1715 1.377 . S
C1700 C1698 1.389 . S
C1700 C1701 1.524 . S
C1700 C1714 1.377 . S
C1701 C1700 1.524 . S
C1701 C1702 1.397 . S
C1701 C1706 1.363 . S
C1702 H1679 0.950 . S
C1702 C1701 1.397 . S
C1702 C1703 1.334 . S
C1703 H1680 0.950 . S
C1703 C1702 1.334 . S
C1703 C1704 1.287 . S
C1704 C1703 1.287 . S
C1704 C1705 1.524 . S
C1704 H1723 0.913 . S
C1705 H1681 0.950 . S
C1705 C1704 1.524 . S
C1705 C1706 1.415 . S
C1706 H1682 0.950 . S
C1706 C1701 1.363 . S
C1706 C1705 1.415 . S
C1707 H1683 0.951 . S
C1707 C1708 1.366 . S
C1707 C1709 1.388 . S
C1708 C1707 1.366 . S
C1708 C1712 1.385 . S
C1709 H1684 0.951 . S
C1709 C1707 1.388 . S
C1709 C1710 1.366 . S
C1710 C1709 1.366 . S
C1710 C1711 1.414 . S
C1710 C1713 1.499 . S
C1711 H1685 0.950 . S
C1711 C1710 1.414 . S
C1711 C1712 1.374 . S
C1712 H1686 0.950 . S
C1712 C1708 1.385 . S
C1712 C1711 1.374 . S
C1713 C1710 1.499 . S
C1713 C1714 1.373 . S
C1713 C1715 1.389 . S
C1714 H1687 0.950 . S
C1714 C1700 1.377 . S
C1714 C1713 1.373 . S
C1715 C1699 1.377 . S
C1715 C1713 1.389 . S
C1715 C1716 1.524 . S
C1716 C1715 1.524 . S
C1716 C1717 1.397 . S
C1716 C1721 1.363 . S
C1717 H1688 0.950 . S
C1717 C1716 1.397 . S
C1717 C1718 1.334 . S
C1718 H1689 0.950 . S
C1718 C1717 1.334 . S
C1718 C1719 1.287 . S
C1719 C1718 1.287 . S
C1719 C1720 1.524 . S
C1719 H1722 0.999 . S
C1720 H1690 0.950 . S
C1720 C1719 1.524 . S
C1720 C1721 1.415 . S
C1721 H1691 0.950 . S
C1721 C1716 1.363 . S
C1721 C1720 1.415 . S
H1722 C1719 0.999 . S
H1723 C1704 0.913 . S
H1724 C1742 0.951 . S
H1725 C1744 0.951 . S
H1726 C1746 0.950 . S
H1727 C1747 0.950 . S
H1728 C1749 0.950 . S
H1729 C1752 0.950 . S
H1730 C1753 0.950 . S
H1731 C1755 0.950 . S
H1732 C1756 0.950 . S
H1733 C1757 0.951 . S
H1734 C1759 0.951 . S
H1735 C1761 0.950 . S
H1736 C1762 0.950 . S
H1737 C1764 0.950 . S
H1738 C1767 0.950 . S
H1739 C1768 0.950 . S
H1740 C1770 0.950 . S
H1741 C1771 0.950 . S
C1742 H1724 0.951 . S
C1742 C1743 1.366 . S
C1742 C1744 1.388 . S
C1743 C1742 1.366 . S
C1743 C1747 1.385 . S
C1744 H1725 0.951 . S
C1744 C1742 1.388 . S
C1744 C1745 1.366 . S
C1745 C1744 1.366 . S
C1745 C1746 1.414 . S
C1745 C1748 1.499 . S
C1746 H1726 0.950 . S
C1746 C1745 1.414 . S
C1746 C1747 1.374 . S
C1747 H1727 0.950 . S
C1747 C1743 1.385 . S
C1747 C1746 1.374 . S
C1748 C1745 1.499 . S
C1748 C1749 1.373 . S
C1748 C1750 1.389 . S
C1749 H1728 0.950 . S
C1749 C1748 1.373 . S
C1749 C1765 1.377 . S
C1750 C1748 1.389 . S
C1750 C1751 1.524 . S
C1750 C1764 1.377 . S
C1751 C1750 1.524 . S
C1751 C1752 1.397 . S
C1751 C1756 1.363 . S
C1752 H1729 0.950 . S
C1752 C1751 1.397 . S
C1752 C1753 1.334 . S
C1753 H1730 0.950 . S
C1753 C1752 1.334 . S
C1753 C1754 1.287 . S
C1754 C1753 1.287 . S
C1754 C1755 1.524 . S
C1754 H1773 0.913 . S
C1755 H1731 0.950 . S
C1755 C1754 1.524 . S
C1755 C1756 1.415 . S
C1756 H1732 0.950 . S
C1756 C1751 1.363 . S
C1756 C1755 1.415 . S
C1757 H1733 0.951 . S
C1757 C1758 1.366 . S
C1757 C1759 1.388 . S
C1758 C1757 1.366 . S
C1758 C1762 1.385 . S
C1759 H1734 0.951 . S
C1759 C1757 1.388 . S
C1759 C1760 1.366 . S
C1760 C1759 1.366 . S
C1760 C1761 1.414 . S
C1760 C1763 1.499 . S
C1761 H1735 0.950 . S
C1761 C1760 1.414 . S
C1761 C1762 1.374 . S
C1762 H1736 0.950 . S
C1762 C1758 1.385 . S
C1762 C1761 1.374 . S
C1763 C1760 1.499 . S
C1763 C1764 1.373 . S
C1763 C1765 1.389 . S
C1764 H1737 0.950 . S
C1764 C1750 1.377 . S
C1764 C1763 1.373 . S
C1765 C1749 1.377 . S
C1765 C1763 1.389 . S
C1765 C1766 1.524 . S
C1766 C1765 1.524 . S
C1766 C1767 1.397 . S
C1766 C1771 1.363 . S
C1767 H1738 0.950 . S
C1767 C1766 1.397 . S
C1767 C1768 1.334 . S
C1768 H1739 0.950 . S
C1768 C1767 1.334 . S
C1768 C1769 1.287 . S
C1769 C1768 1.287 . S
C1769 C1770 1.524 . S
C1769 H1772 0.999 . S
C1770 H1740 0.950 . S
C1770 C1769 1.524 . S
C1770 C1771 1.415 . S
C1771 H1741 0.950 . S
C1771 C1766 1.363 . S
C1771 C1770 1.415 . S
H1772 C1769 0.999 . S
H1773 C1754 0.913 . S
H1774 C1792 0.951 . S
H1775 C1794 0.951 . S
H1776 C1796 0.950 . S
H1777 C1797 0.950 . S
H1778 C1799 0.950 . S
H1779 C1802 0.950 . S
H1780 C1803 0.950 . S
H1781 C1805 0.950 . S
H1782 C1806 0.950 . S
H1783 C1807 0.951 . S
H1784 C1809 0.951 . S
H1785 C1811 0.950 . S
H1786 C1812 0.950 . S
H1787 C1814 0.950 . S
H1788 C1817 0.950 . S
H1789 C1818 0.950 . S
H1790 C1820 0.950 . S
H1791 C1821 0.950 . S
C1792 H1774 0.951 . S
C1792 C1793 1.366 . S
C1792 C1794 1.388 . S
C1793 C1792 1.366 . S
C1793 C1797 1.385 . S
C1794 H1775 0.951 . S
C1794 C1792 1.388 . S
C1794 C1795 1.366 . S
C1795 C1794 1.366 . S
C1795 C1796 1.414 . S
C1795 C1798 1.499 . S
C1796 H1776 0.950 . S
C1796 C1795 1.414 . S
C1796 C1797 1.374 . S
C1797 H1777 0.950 . S
C1797 C1793 1.385 . S
C1797 C1796 1.374 . S
C1798 C1795 1.499 . S
C1798 C1799 1.373 . S
C1798 C1800 1.389 . S
C1799 H1778 0.950 . S
C1799 C1798 1.373 . S
C1799 C1815 1.377 . S
C1800 C1798 1.389 . S
C1800 C1801 1.524 . S
C1800 C1814 1.377 . S
C1801 C1800 1.524 . S
C1801 C1802 1.397 . S
C1801 C1806 1.363 . S
C1802 H1779 0.950 . S
C1802 C1801 1.397 . S
C1802 C1803 1.334 . S
C1803 H1780 0.950 . S
C1803 C1802 1.334 . S
C1803 C1804 1.287 . S
C1804 C1803 1.287 . S
C1804 C1805 1.524 . S
C1804 H1823 0.913 . S
C1805 H1781 0.950 . S
C1805 C1804 1.524 . S
C1805 C1806 1.415 . S
C1806 H1782 0.950 . S
C1806 C1801 1.363 . S
C1806 C1805 1.415 . S
C1807 H1783 0.951 . S
C1807 C1808 1.366 . S
C1807 C1809 1.388 . S
C1808 C1807 1.366 . S
C1808 C1812 1.385 . S
C1809 H1784 0.951 . S
C1809 C1807 1.388 . S
C1809 C1810 1.366 . S
C1810 C1809 1.366 . S
C1810 C1811 1.414 . S
C1810 C1813 1.499 . S
C1811 H1785 0.950 . S
C1811 C1810 1.414 . S
C1811 C1812 1.374 . S
C1812 H1786 0.950 . S
C1812 C1808 1.385 . S
C1812 C1811 1.374 . S
C1813 C1810 1.499 . S
C1813 C1814 1.373 . S
C1813 C1815 1.389 . S
C1814 H1787 0.950 . S
C1814 C1800 1.377 . S
C1814 C1813 1.373 . S
C1815 C1799 1.377 . S
C1815 C1813 1.389 . S
C1815 C1816 1.524 . S
C1816 C1815 1.524 . S
C1816 C1817 1.397 . S
C1816 C1821 1.363 . S
C1817 H1788 0.950 . S
C1817 C1816 1.397 . S
C1817 C1818 1.334 . S
C1818 H1789 0.950 . S
C1818 C1817 1.334 . S
C1818 C1819 1.287 . S
C1819 C1818 1.287 . S
C1819 C1820 1.524 . S
C1819 H1822 0.999 . S
C1820 H1790 0.950 . S
C1820 C1819 1.524 . S
C1820 C1821 1.415 . S
C1821 H1791 0.950 . S
C1821 C1816 1.363 . S
C1821 C1820 1.415 . S
H1822 C1819 0.999 . S
H1823 C1804 0.913 . S
C243 C221 0.834 . S
C258 C11 0.834 . S
C293 C179 0.834 . S
C308 C25 0.834 . S
C343 C39 0.834 . S
C358 C193 0.834 . S
C393 C207 0.834 . S
C408 C53 0.834 . S
C443 C137 0.834 . S
C458 C67 0.834 . S
C493 C81 0.834 . S
C508 C151 0.834 . S
C543 C95 0.834 . S
C558 C165 0.834 . S
C593 C109 0.834 . S
C608 C123 0.834 . S
C643 C83 1.214 . S
C658 C8 1.347 . S
C693 C92 1.346 . S
C708 C27 1.215 . S
C743 C111 1.212 . S
C758 C36 1.346 . S
C793 C55 1.212 . S
C808 C64 1.347 . S
C843 C7 1.325 . S
C858 C21 1.324 . S
C893 C41 1.213 . S
C908 C22 1.346 . S
C943 C35 1.325 . S
C958 C49 1.324 . S
C993 C13 1.214 . S
C1008 C50 1.346 . S
C1043 C105 1.324 . S
C1058 C63 1.325 . S
C1093 C69 1.213 . S
C1108 C78 1.347 . S
C1143 C77 1.324 . S
C1158 C91 1.325 . S
C1193 C106 1.346 . S
C1208 C97 1.215 . S
C1243 C195 1.215 . S
C1258 C120 1.346 . S
C1293 C139 1.215 . S
C1308 C204 1.346 . S
C1343 C223 1.213 . S
C1358 C148 1.346 . S
C1393 C176 1.346 . S
C1408 C167 1.212 . S
C1443 C119 1.325 . S
C1458 C133 1.324 . S
C1493 C134 1.347 . S
C1508 C153 1.213 . S
C1543 C161 1.324 . S
C1558 C147 1.325 . S
C1593 C125 1.215 . S
C1608 C162 1.345 . S
C1643 C217 1.325 . S
C1658 C175 1.325 . S
C1693 C181 1.213 . S
C1708 C190 1.347 . S
C1743 C189 1.325 . S
C1758 C203 1.324 . S
C1793 C218 1.346 . S
C1808 C209 1.215 . S
