# Generated by pormake.
# Topology uky, (4)-cn, num edge types: 1
# Building blocks:
#     Node 0, Type 0, BuildingBlock: GALJAG_clean_sbu_0, # of connection points: 4
#     Node 1, Type 0, BuildingBlock: GALJAG_clean_sbu_0, # of connection points: 4
#     Node 2, Type 0, BuildingBlock: GALJAG_clean_sbu_0, # of connection points: 4
#     Node 3, Type 0, BuildingBlock: GALJAG_clean_sbu_0, # of connection points: 4
#     Node 4, Type 0, BuildingBlock: GALJAG_clean_sbu_0, # of connection points: 4
#     Node 5, Type 0, BuildingBlock: GALJAG_clean_sbu_0, # of connection points: 4
#     Node 6, Type 0, BuildingBlock: GALJAG_clean_sbu_0, # of connection points: 4
#     Node 7, Type 0, BuildingBlock: GALJAG_clean_sbu_0, # of connection points: 4
#     Node 8, Type 0, BuildingBlock: GALJAG_clean_sbu_0, # of connection points: 4
#     Node 9, Type 0, BuildingBlock: GALJAG_clean_sbu_0, # of connection points: 4
#     Node 10, Type 0, BuildingBlock: GALJAG_clean_sbu_0, # of connection points: 4
#     Node 11, Type 0, BuildingBlock: GALJAG_clean_sbu_0, # of connection points: 4
#     Node 12, Type 0, BuildingBlock: GALJAG_clean_sbu_0, # of connection points: 4
#     Node 13, Type 0, BuildingBlock: GALJAG_clean_sbu_0, # of connection points: 4
#     Node 14, Type 0, BuildingBlock: GALJAG_clean_sbu_0, # of connection points: 4
#     Node 15, Type 0, BuildingBlock: GALJAG_clean_sbu_0, # of connection points: 4
#     Node 16, Type 0, BuildingBlock: GALJAG_clean_sbu_0, # of connection points: 4
#     Node 17, Type 0, BuildingBlock: GALJAG_clean_sbu_0, # of connection points: 4
#     Node 18, Type 0, BuildingBlock: GALJAG_clean_sbu_0, # of connection points: 4
#     Node 19, Type 0, BuildingBlock: GALJAG_clean_sbu_0, # of connection points: 4
#     Node 20, Type 0, BuildingBlock: GALJAG_clean_sbu_0, # of connection points: 4
#     Node 21, Type 0, BuildingBlock: GALJAG_clean_sbu_0, # of connection points: 4
#     Node 22, Type 0, BuildingBlock: GALJAG_clean_sbu_0, # of connection points: 4
#     Node 23, Type 0, BuildingBlock: GALJAG_clean_sbu_0, # of connection points: 4
#     Node 24, Type 0, BuildingBlock: GALJAG_clean_sbu_0, # of connection points: 4
#     Node 25, Type 0, BuildingBlock: GALJAG_clean_sbu_0, # of connection points: 4
#     Node 26, Type 0, BuildingBlock: GALJAG_clean_sbu_0, # of connection points: 4
#     Node 27, Type 0, BuildingBlock: GALJAG_clean_sbu_0, # of connection points: 4
#     Node 28, Type 0, BuildingBlock: GALJAG_clean_sbu_0, # of connection points: 4
#     Node 29, Type 0, BuildingBlock: GALJAG_clean_sbu_0, # of connection points: 4
#     Node 30, Type 0, BuildingBlock: GALJAG_clean_sbu_0, # of connection points: 4
#     Node 31, Type 0, BuildingBlock: GALJAG_clean_sbu_0, # of connection points: 4
#     Node 32, Type 0, BuildingBlock: GALJAG_clean_sbu_0, # of connection points: 4
#     Node 33, Type 0, BuildingBlock: GALJAG_clean_sbu_0, # of connection points: 4
#     Node 34, Type 0, BuildingBlock: GALJAG_clean_sbu_0, # of connection points: 4
#     Node 35, Type 0, BuildingBlock: GALJAG_clean_sbu_0, # of connection points: 4
#     Node 36, Type 0, BuildingBlock: GALJAG_clean_sbu_0, # of connection points: 4
#     Node 37, Type 0, BuildingBlock: GALJAG_clean_sbu_0, # of connection points: 4
#     Node 38, Type 0, BuildingBlock: GALJAG_clean_sbu_0, # of connection points: 4
#     Node 39, Type 0, BuildingBlock: GALJAG_clean_sbu_0, # of connection points: 4
#     Node 40, Type 0, BuildingBlock: GALJAG_clean_sbu_0, # of connection points: 4
#     Node 41, Type 0, BuildingBlock: GALJAG_clean_sbu_0, # of connection points: 4
#     Node 42, Type 0, BuildingBlock: GALJAG_clean_sbu_0, # of connection points: 4
#     Node 43, Type 0, BuildingBlock: GALJAG_clean_sbu_0, # of connection points: 4
#     Node 44, Type 0, BuildingBlock: GALJAG_clean_sbu_0, # of connection points: 4
#     Node 45, Type 0, BuildingBlock: GALJAG_clean_sbu_0, # of connection points: 4
#     Node 46, Type 0, BuildingBlock: GALJAG_clean_sbu_0, # of connection points: 4
#     Node 47, Type 0, BuildingBlock: GALJAG_clean_sbu_0, # of connection points: 4
#     Edge 48, Type (0, 0), BuildingBlock: EZIPEK_clean_linker_0, # of connection points: 2
#     Edge 49, Type (0, 0), BuildingBlock: EZIPEK_clean_linker_0, # of connection points: 2
#     Edge 50, Type (0, 0), BuildingBlock: EZIPEK_clean_linker_0, # of connection points: 2
#     Edge 51, Type (0, 0), BuildingBlock: EZIPEK_clean_linker_0, # of connection points: 2
#     Edge 52, Type (0, 0), BuildingBlock: EZIPEK_clean_linker_0, # of connection points: 2
#     Edge 53, Type (0, 0), BuildingBlock: EZIPEK_clean_linker_0, # of connection points: 2
#     Edge 54, Type (0, 0), BuildingBlock: EZIPEK_clean_linker_0, # of connection points: 2
#     Edge 55, Type (0, 0), BuildingBlock: EZIPEK_clean_linker_0, # of connection points: 2
#     Edge 56, Type (0, 0), BuildingBlock: EZIPEK_clean_linker_0, # of connection points: 2
#     Edge 57, Type (0, 0), BuildingBlock: EZIPEK_clean_linker_0, # of connection points: 2
#     Edge 58, Type (0, 0), BuildingBlock: EZIPEK_clean_linker_0, # of connection points: 2
#     Edge 59, Type (0, 0), BuildingBlock: EZIPEK_clean_linker_0, # of connection points: 2
#     Edge 60, Type (0, 0), BuildingBlock: EZIPEK_clean_linker_0, # of connection points: 2
#     Edge 61, Type (0, 0), BuildingBlock: EZIPEK_clean_linker_0, # of connection points: 2
#     Edge 62, Type (0, 0), BuildingBlock: EZIPEK_clean_linker_0, # of connection points: 2
#     Edge 63, Type (0, 0), BuildingBlock: EZIPEK_clean_linker_0, # of connection points: 2
#     Edge 64, Type (0, 0), BuildingBlock: EZIPEK_clean_linker_0, # of connection points: 2
#     Edge 65, Type (0, 0), BuildingBlock: EZIPEK_clean_linker_0, # of connection points: 2
#     Edge 66, Type (0, 0), BuildingBlock: EZIPEK_clean_linker_0, # of connection points: 2
#     Edge 67, Type (0, 0), BuildingBlock: EZIPEK_clean_linker_0, # of connection points: 2
#     Edge 68, Type (0, 0), BuildingBlock: EZIPEK_clean_linker_0, # of connection points: 2
#     Edge 69, Type (0, 0), BuildingBlock: EZIPEK_clean_linker_0, # of connection points: 2
#     Edge 70, Type (0, 0), BuildingBlock: EZIPEK_clean_linker_0, # of connection points: 2
#     Edge 71, Type (0, 0), BuildingBlock: EZIPEK_clean_linker_0, # of connection points: 2
#     Edge 72, Type (0, 0), BuildingBlock: EZIPEK_clean_linker_0, # of connection points: 2
#     Edge 73, Type (0, 0), BuildingBlock: EZIPEK_clean_linker_0, # of connection points: 2
#     Edge 74, Type (0, 0), BuildingBlock: EZIPEK_clean_linker_0, # of connection points: 2
#     Edge 75, Type (0, 0), BuildingBlock: EZIPEK_clean_linker_0, # of connection points: 2
#     Edge 76, Type (0, 0), BuildingBlock: EZIPEK_clean_linker_0, # of connection points: 2
#     Edge 77, Type (0, 0), BuildingBlock: EZIPEK_clean_linker_0, # of connection points: 2
#     Edge 78, Type (0, 0), BuildingBlock: EZIPEK_clean_linker_0, # of connection points: 2
#     Edge 79, Type (0, 0), BuildingBlock: EZIPEK_clean_linker_0, # of connection points: 2
#     Edge 80, Type (0, 0), BuildingBlock: EZIPEK_clean_linker_0, # of connection points: 2
#     Edge 81, Type (0, 0), BuildingBlock: EZIPEK_clean_linker_0, # of connection points: 2
#     Edge 82, Type (0, 0), BuildingBlock: EZIPEK_clean_linker_0, # of connection points: 2
#     Edge 83, Type (0, 0), BuildingBlock: EZIPEK_clean_linker_0, # of connection points: 2
#     Edge 84, Type (0, 0), BuildingBlock: EZIPEK_clean_linker_0, # of connection points: 2
#     Edge 85, Type (0, 0), BuildingBlock: EZIPEK_clean_linker_0, # of connection points: 2
#     Edge 86, Type (0, 0), BuildingBlock: EZIPEK_clean_linker_0, # of connection points: 2
#     Edge 87, Type (0, 0), BuildingBlock: EZIPEK_clean_linker_0, # of connection points: 2
#     Edge 88, Type (0, 0), BuildingBlock: EZIPEK_clean_linker_0, # of connection points: 2
#     Edge 89, Type (0, 0), BuildingBlock: EZIPEK_clean_linker_0, # of connection points: 2
#     Edge 90, Type (0, 0), BuildingBlock: EZIPEK_clean_linker_0, # of connection points: 2
#     Edge 91, Type (0, 0), BuildingBlock: EZIPEK_clean_linker_0, # of connection points: 2
#     Edge 92, Type (0, 0), BuildingBlock: EZIPEK_clean_linker_0, # of connection points: 2
#     Edge 93, Type (0, 0), BuildingBlock: EZIPEK_clean_linker_0, # of connection points: 2
#     Edge 94, Type (0, 0), BuildingBlock: EZIPEK_clean_linker_0, # of connection points: 2
#     Edge 95, Type (0, 0), BuildingBlock: EZIPEK_clean_linker_0, # of connection points: 2
#     Edge 96, Type (0, 0), BuildingBlock: EZIPEK_clean_linker_0, # of connection points: 2
#     Edge 97, Type (0, 0), BuildingBlock: EZIPEK_clean_linker_0, # of connection points: 2
#     Edge 98, Type (0, 0), BuildingBlock: EZIPEK_clean_linker_0, # of connection points: 2
#     Edge 99, Type (0, 0), BuildingBlock: EZIPEK_clean_linker_0, # of connection points: 2
#     Edge 100, Type (0, 0), BuildingBlock: EZIPEK_clean_linker_0, # of connection points: 2
#     Edge 101, Type (0, 0), BuildingBlock: EZIPEK_clean_linker_0, # of connection points: 2
#     Edge 102, Type (0, 0), BuildingBlock: EZIPEK_clean_linker_0, # of connection points: 2
#     Edge 103, Type (0, 0), BuildingBlock: EZIPEK_clean_linker_0, # of connection points: 2
#     Edge 104, Type (0, 0), BuildingBlock: EZIPEK_clean_linker_0, # of connection points: 2
#     Edge 105, Type (0, 0), BuildingBlock: EZIPEK_clean_linker_0, # of connection points: 2
#     Edge 106, Type (0, 0), BuildingBlock: EZIPEK_clean_linker_0, # of connection points: 2
#     Edge 107, Type (0, 0), BuildingBlock: EZIPEK_clean_linker_0, # of connection points: 2
#     Edge 108, Type (0, 0), BuildingBlock: EZIPEK_clean_linker_0, # of connection points: 2
#     Edge 109, Type (0, 0), BuildingBlock: EZIPEK_clean_linker_0, # of connection points: 2
#     Edge 110, Type (0, 0), BuildingBlock: EZIPEK_clean_linker_0, # of connection points: 2
#     Edge 111, Type (0, 0), BuildingBlock: EZIPEK_clean_linker_0, # of connection points: 2
#     Edge 112, Type (0, 0), BuildingBlock: EZIPEK_clean_linker_0, # of connection points: 2
#     Edge 113, Type (0, 0), BuildingBlock: EZIPEK_clean_linker_0, # of connection points: 2
#     Edge 114, Type (0, 0), BuildingBlock: EZIPEK_clean_linker_0, # of connection points: 2
#     Edge 115, Type (0, 0), BuildingBlock: EZIPEK_clean_linker_0, # of connection points: 2
#     Edge 116, Type (0, 0), BuildingBlock: EZIPEK_clean_linker_0, # of connection points: 2
#     Edge 117, Type (0, 0), BuildingBlock: EZIPEK_clean_linker_0, # of connection points: 2
#     Edge 118, Type (0, 0), BuildingBlock: EZIPEK_clean_linker_0, # of connection points: 2
#     Edge 119, Type (0, 0), BuildingBlock: EZIPEK_clean_linker_0, # of connection points: 2
#     Edge 120, Type (0, 0), BuildingBlock: EZIPEK_clean_linker_0, # of connection points: 2
#     Edge 121, Type (0, 0), BuildingBlock: EZIPEK_clean_linker_0, # of connection points: 2
#     Edge 122, Type (0, 0), BuildingBlock: EZIPEK_clean_linker_0, # of connection points: 2
#     Edge 123, Type (0, 0), BuildingBlock: EZIPEK_clean_linker_0, # of connection points: 2
#     Edge 124, Type (0, 0), BuildingBlock: EZIPEK_clean_linker_0, # of connection points: 2
#     Edge 125, Type (0, 0), BuildingBlock: EZIPEK_clean_linker_0, # of connection points: 2
#     Edge 126, Type (0, 0), BuildingBlock: EZIPEK_clean_linker_0, # of connection points: 2
#     Edge 127, Type (0, 0), BuildingBlock: EZIPEK_clean_linker_0, # of connection points: 2
#     Edge 128, Type (0, 0), BuildingBlock: EZIPEK_clean_linker_0, # of connection points: 2
#     Edge 129, Type (0, 0), BuildingBlock: EZIPEK_clean_linker_0, # of connection points: 2
#     Edge 130, Type (0, 0), BuildingBlock: EZIPEK_clean_linker_0, # of connection points: 2
#     Edge 131, Type (0, 0), BuildingBlock: EZIPEK_clean_linker_0, # of connection points: 2
#     Edge 132, Type (0, 0), BuildingBlock: EZIPEK_clean_linker_0, # of connection points: 2
#     Edge 133, Type (0, 0), BuildingBlock: EZIPEK_clean_linker_0, # of connection points: 2
#     Edge 134, Type (0, 0), BuildingBlock: EZIPEK_clean_linker_0, # of connection points: 2
#     Edge 135, Type (0, 0), BuildingBlock: EZIPEK_clean_linker_0, # of connection points: 2
#     Edge 136, Type (0, 0), BuildingBlock: EZIPEK_clean_linker_0, # of connection points: 2
#     Edge 137, Type (0, 0), BuildingBlock: EZIPEK_clean_linker_0, # of connection points: 2
#     Edge 138, Type (0, 0), BuildingBlock: EZIPEK_clean_linker_0, # of connection points: 2
#     Edge 139, Type (0, 0), BuildingBlock: EZIPEK_clean_linker_0, # of connection points: 2
#     Edge 140, Type (0, 0), BuildingBlock: EZIPEK_clean_linker_0, # of connection points: 2
#     Edge 141, Type (0, 0), BuildingBlock: EZIPEK_clean_linker_0, # of connection points: 2
#     Edge 142, Type (0, 0), BuildingBlock: EZIPEK_clean_linker_0, # of connection points: 2
#     Edge 143, Type (0, 0), BuildingBlock: EZIPEK_clean_linker_0, # of connection points: 2
# Relax obj value: 0.129
# Max RMSD: 0.165
# Mean RMSD: 0.165
data_MOF--net-uky--node1-GALJAG_clean_sbu_0--edge1-EZIPEK_clean_linker_0
_symmetry_space_group_name_H-M    P1
_symmetry_Int_Tables_number       1
_symmetry_cell_setting            triclinic
loop_
_symmetry_equiv_pos_as_xyz
'x, y, z'
_cell_length_a     45.744252
_cell_length_b     45.735547
_cell_length_c     45.738873
_cell_angle_alpha  90.009151
_cell_angle_beta   90.016924
_cell_angle_gamma 89.96679
loop_
_atom_site_label
_atom_site_type_symbol
_atom_site_fract_x
_atom_site_fract_y
_atom_site_fract_z
_atom_type_partial_charge
In0 In 0.22625 0.22316 0.38227 0.0
O1 O 0.19997 0.18125 0.37475 0.0
O2 O 0.17852 0.21791 0.39378 0.0
C3 C 0.27685 0.20999 0.35473 0.0
C4 C 0.24166 0.22241 0.43887 0.0
C5 C 0.21149 0.26973 0.34981 0.0
O6 O 0.254 0.19468 0.35226 0.0
O7 O 0.27362 0.23216 0.37083 0.0
O8 O 0.21704 0.27189 0.37676 0.0
O9 O 0.21243 0.24411 0.33967 0.0
C10 C 0.17689 0.19165 0.38571 0.0
O11 O 0.23126 0.24492 0.42678 0.0
O12 O 0.24479 0.2005 0.42245 0.0
In13 In 0.0423 0.95956 0.62501 0.0
O14 O 0.08424 0.93416 0.61431 0.0
O15 O 0.04993 0.91223 0.63684 0.0
C16 C 0.05642 0.00972 0.59788 0.0
C17 C 0.03714 0.97626 0.68112 0.0
C18 C 0.99781 0.9411 0.59131 0.0
O19 O 0.07546 0.99113 0.60519 0.0
O20 O 0.03066 0.00361 0.60553 0.0
O21 O 0.99648 0.94077 0.61888 0.0
O22 O 0.02194 0.94953 0.58093 0.0
C23 C 0.07533 0.91102 0.62635 0.0
O24 O 0.01522 0.97239 0.66491 0.0
O25 O 0.06152 0.97236 0.669 0.0
In26 In 0.26988 0.78409 0.88232 0.0
O27 O 0.27544 0.76479 0.92785 0.0
O28 O 0.25253 0.80526 0.9237 0.0
C29 C 0.28415 0.73363 0.85551 0.0
C30 C 0.31368 0.82258 0.87939 0.0
C31 C 0.22066 0.79081 0.85102 0.0
O32 O 0.26673 0.73447 0.87687 0.0
O33 O 0.2952 0.75785 0.84852 0.0
O34 O 0.24531 0.79906 0.84188 0.0
O35 O 0.22033 0.78211 0.87715 0.0
C36 C 0.26218 0.78551 0.9404 0.0
O37 O 0.28781 0.82979 0.87291 0.0
O38 O 0.31724 0.79623 0.88666 0.0
In39 In 0.44539 0.01305 0.13703 0.0
O40 O 0.401 0.03603 0.13463 0.0
O41 O 0.43916 0.06144 0.14315 0.0
C42 C 0.43614 0.9748 0.09351 0.0
C43 C 0.43961 0.99491 0.19235 0.0
C44 C 0.49981 0.02369 0.11826 0.0
O45 O 0.42484 -4e-05 0.09356 0.0
O46 O 0.44998 0.96809 0.11637 0.0
O47 O 0.49477 0.00665 0.13934 0.0
O48 O 0.4778 0.03698 0.10835 0.0
C49 C 0.41177 0.06085 0.14011 0.0
O50 O 0.45769 0.01422 0.18478 0.0
O51 O 0.42431 0.98426 0.17199 0.0
In52 In 0.23092 0.79409 0.12231 0.0
O53 O 0.22784 0.77251 0.07766 0.0
O54 O 0.25646 0.80885 0.08189 0.0
C55 C 0.21111 0.74859 0.15361 0.0
C56 C 0.1857 0.83095 0.11786 0.0
C57 C 0.27608 0.8048 0.15838 0.0
O58 O 0.22806 0.7453 0.13207 0.0
O59 O 0.20357 0.77463 0.15879 0.0
O60 O 0.25639 0.82351 0.15361 0.0
O61 O 0.27407 0.78173 0.14344 0.0
C62 C 0.24534 0.7898 0.06538 0.0
O63 O 0.21089 0.83986 0.12479 0.0
O64 O 0.18342 0.8038 0.11382 0.0
In65 In 0.44415 0.96125 0.37277 0.0
O66 O 0.40532 0.93303 0.3869 0.0
O67 O 0.44126 0.91286 0.36504 0.0
C68 C 0.42981 0.01466 0.39375 0.0
C69 C 0.43836 0.96945 0.31518 0.0
C70 C 0.49346 0.95205 0.40316 0.0
O71 O 0.4168 0.99158 0.40157 0.0
O72 O 0.45033 0.0102 0.3759 0.0
O73 O 0.49378 0.95825 0.37628 0.0
O74 O 0.46842 0.95016 0.41453 0.0
C75 C 0.4163 0.91 0.37631 0.0
O76 O 0.46247 0.96261 0.32673 0.0
O77 O 0.41711 0.97207 0.33256 0.0
In78 In 0.28321 0.20618 0.61799 0.0
O79 O 0.30544 0.16155 0.62207 0.0
O80 O 0.33001 0.19765 0.60563 0.0
C81 C 0.23413 0.19549 0.64824 0.0
C82 C 0.26862 0.21391 0.56163 0.0
C83 C 0.30083 0.24721 0.6559 0.0
O84 O 0.25203 0.17532 0.64212 0.0
O85 O 0.24017 0.22007 0.63738 0.0
O86 O 0.28793 0.25352 0.63232 0.0
O87 O 0.30628 0.22041 0.6596 0.0
C88 C 0.32937 0.17082 0.61186 0.0
O89 O 0.28552 0.23113 0.57494 0.0
O90 O 0.25865 0.19314 0.57672 0.0
In91 In 0.03836 0.01248 0.86159 0.0
O92 O 0.01468 0.0136 0.81794 0.0
O93 O 0.05699 0.99388 0.81957 0.0
C94 C 0.98673 0.01593 0.88845 0.0
C95 C 0.06447 0.0647 0.85608 0.0
C96 C 0.06085 0.96904 0.89503 0.0
O97 O 0.99019 0.00108 0.86545 0.0
O98 O 0.00903 0.0293 0.89762 0.0
O99 O 0.06608 0.99573 0.89974 0.0
O100 O 0.04477 0.96483 0.87311 0.0
C101 C 0.03511 0.00101 0.80437 0.0
O102 O 0.07836 0.04111 0.85261 0.0
O103 O 0.03826 0.06179 0.86397 0.0
In104 In 0.38041 0.22301 0.20574 0.0
O105 O 0.42635 0.22568 0.22454 0.0
O106 O 0.42111 0.23327 0.17889 0.0
C107 C 0.35291 0.21435 0.25701 0.0
C108 C 0.37647 0.172 0.17705 0.0
C109 C 0.35679 0.27472 0.18929 0.0
O110 O 0.38001 0.21903 0.25533 0.0
O111 O 0.3396 0.21376 0.23285 0.0
O112 O 0.34891 0.25051 0.17866 0.0
O113 O 0.37612 0.27241 0.2088 0.0
C114 C 0.43827 0.23147 0.20039 0.0
O115 O 0.36817 0.19571 0.16568 0.0
O116 O 0.38553 0.17393 0.20297 0.0
In117 In 0.02926 0.13468 0.47081 0.0
O118 O 0.02406 0.17523 0.49941 0.0
O119 O 0.00321 0.17512 0.45781 0.0
C120 C 0.04864 0.10366 0.51684 0.0
C121 C 0.07259 0.14689 0.43349 0.0
C122 C 0.9918 0.09328 0.45222 0.0
O123 O 0.0228 0.1132 0.51531 0.0
O124 O 0.06518 0.11157 0.49632 0.0
O125 O 0.01883 0.09229 0.44689 0.0
O126 O 0.98335 0.11575 0.46582 0.0
C127 C 0.00885 0.18894 0.48097 0.0
O128 O 0.04802 0.13805 0.42451 0.0
O129 O 0.07506 0.1494 0.4608 0.0
In130 In 0.11561 0.75712 0.70464 0.0
O131 O 0.1227 0.77936 0.66039 0.0
O132 O 0.11007 0.80546 0.69687 0.0
C133 C 0.14315 0.70619 0.69181 0.0
C134 C 0.05741 0.74973 0.70376 0.0
C135 C 0.14354 0.77066 0.75441 0.0
O136 O 0.15091 0.73052 0.68137 0.0
O137 O 0.12168 0.70801 0.70896 0.0
O138 O 0.11976 0.75672 0.75417 0.0
O139 O 0.15326 0.77788 0.72965 0.0
C140 C 0.11576 0.80432 0.66996 0.0
O141 O 0.07058 0.76116 0.7251 0.0
O142 O 0.07355 0.74131 0.68304 0.0
In143 In 0.46849 0.87142 0.94454 0.0
O144 O 0.44418 0.87821 0.90127 0.0
O145 O 0.42055 0.86287 0.93839 0.0
C146 C 0.51972 0.89868 0.9336 0.0
C147 C 0.48108 0.81422 0.9442 0.0
C148 C 0.45339 0.90248 0.99184 0.0
O149 O 0.4967 0.90398 0.9193 0.0
O150 O 0.51636 0.87977 0.95337 0.0
O151 O 0.46283 0.87662 0.99372 0.0
O152 O 0.45126 0.91248 0.96623 0.0
C153 C 0.42012 0.8696 0.9117 0.0
O154 O 0.46906 0.82659 0.96571 0.0
O155 O 0.48692 0.83059 0.92279 0.0
In156 In 0.38742 0.75787 0.29491 0.0
O157 O 0.36888 0.78029 0.33557 0.0
O158 O 0.40599 0.79911 0.31437 0.0
C159 C 0.35549 0.7098 0.30576 0.0
C160 C 0.44395 0.74312 0.28839 0.0
C161 C 0.35701 0.78231 0.25077 0.0
O162 O 0.36798 0.72377 0.32598 0.0
O163 O 0.36023 0.71929 0.28038 0.0
O164 O 0.37353 0.76051 0.24702 0.0
O165 O 0.3568 0.79245 0.27638 0.0
C166 C 0.3875 0.80065 0.33476 0.0
O167 O 0.43058 0.75885 0.27013 0.0
O168 O 0.42869 0.73415 0.30946 0.0
In169 In 0.47441 0.13176 0.52058 0.0
O170 O 0.47403 0.17767 0.50175 0.0
O171 O 0.49326 0.17131 0.54387 0.0
C172 C 0.45182 0.10325 0.47453 0.0
C173 C 0.43155 0.13042 0.56043 0.0
C174 C 0.52637 0.10468 0.52043 0.0
O175 O 0.45715 0.13033 0.47373 0.0
O176 O 0.45733 0.0909 0.49854 0.0
O177 O 0.50569 0.09675 0.53689 0.0
O178 O 0.52138 0.12711 0.50518 0.0
C179 C 0.48647 0.18888 0.5237 0.0
O180 O 0.45718 0.1223 0.5667 0.0
O181 O 0.42768 0.13824 0.53433 0.0
In182 In 0.11539 0.22536 0.78417 0.0
O183 O 0.07517 0.23913 0.75798 0.0
O184 O 0.07181 0.2375 0.80442 0.0
C185 C 0.14846 0.21019 0.73798 0.0
C186 C 0.10769 0.17435 0.81225 0.0
C187 C 0.14357 0.27367 0.80356 0.0
O188 O 0.12103 0.21266 0.7363 0.0
O189 O 0.15907 0.21513 0.76298 0.0
O190 O 0.14726 0.24868 0.81475 0.0
O191 O 0.12602 0.2737 0.78228 0.0
C192 C 0.0592 0.24184 0.78031 0.0
O193 O 0.11413 0.19744 0.82593 0.0
O194 O 0.10636 0.17696 0.7849 0.0
In195 In 0.03124 0.86881 0.044 0.0
O196 O 0.05556 0.88351 0.08534 0.0
O197 O 0.07926 0.86138 0.05192 0.0
C198 C 0.97695 0.8887 0.05595 0.0
C199 C 0.02079 0.81128 0.04779 0.0
C200 C 0.04651 0.89729 0.99481 0.0
O201 O -0.00076 0.89672 0.07015 0.0
O202 O 0.98269 0.87192 0.03484 0.0
O203 O 0.04597 0.8698 0.99658 0.0
O204 O 0.03946 0.91063 0.01792 0.0
C205 C 0.07959 0.87292 0.07689 0.0
O206 O 0.02528 0.82392 0.02371 0.0
O207 O 0.02169 0.82751 0.07006 0.0
In208 In 0.21415 0.38166 0.20729 0.0
O209 O 0.17624 0.3602 0.18234 0.0
O210 O 0.20156 0.39267 0.16081 0.0
C211 C 0.20455 0.35374 0.25817 0.0
C212 C 0.21161 0.43873 0.2215 0.0
C213 C 0.26492 0.35616 0.19269 0.0
O214 O 0.18382 0.36301 0.24248 0.0
O215 O 0.22971 0.35967 0.24875 0.0
O216 O 0.26339 0.38258 0.20058 0.0
O217 O 0.24072 0.34296 0.19103 0.0
C218 C 0.18042 0.37513 0.15959 0.0
O219 O 0.23242 0.42804 0.20701 0.0
O220 O 0.1921 0.42079 0.22893 0.0
In221 In 0.70155 0.12744 0.79948 0.0
O222 O 0.71953 0.08201 0.79054 0.0
O223 O 0.67429 0.08915 0.78243 0.0
C224 C 0.75278 0.15158 0.81572 0.0
C225 C 0.66843 0.12917 0.84785 0.0
C226 C 0.69246 0.15883 0.75085 0.0
O227 O 0.74951 0.12435 0.81296 0.0
O228 O 0.72994 0.16647 0.81167 0.0
O229 O 0.67604 0.16083 0.7729 0.0
O230 O 0.71274 0.14025 0.75283 0.0
C231 C 0.69544 0.07147 0.78243 0.0
O232 O 0.66057 0.14143 0.82448 0.0
O233 O 0.6932 0.1172 0.84705 0.0
In234 In 0.13103 0.45422 0.01576 0.0
O235 O 0.17443 0.47618 0.02497 0.0
O236 O 0.17418 0.43881 0.99694 0.0
C237 C 0.10584 0.505 0.03011 0.0
C238 C 0.1315 0.41284 0.05718 0.0
C239 C 0.09996 0.44768 0.96632 0.0
O240 O 0.12716 0.50362 0.01265 0.0
O241 O 0.09778 0.48097 0.04098 0.0
O242 O 0.08887 0.44464 0.99138 0.0
O243 O 0.12722 0.45145 0.96618 0.0
C244 C 0.18889 0.45834 0.0097 0.0
O245 O 0.12702 0.40649 0.0307 0.0
O246 O 0.13397 0.43968 0.0626 0.0
In247 In 0.79542 0.87612 0.25711 0.0
O248 O 0.77261 0.92006 0.2614 0.0
O249 O 0.81395 0.91868 0.23976 0.0
C250 C 0.74413 0.85043 0.2689 0.0
C251 C 0.83335 0.87569 0.3017 0.0
C252 C 0.80589 0.84434 0.20876 0.0
O253 O 0.74638 0.87068 0.25028 0.0
O254 O 0.76734 0.84401 0.2823 0.0
O255 O 0.8062 0.83347 0.23408 0.0
O256 O 0.8027 0.87168 0.20797 0.0
C257 C 0.79271 0.93393 0.24858 0.0
O258 O 0.84112 0.86843 0.27624 0.0
O259 O 0.80675 0.88208 0.30457 0.0
In260 In 0.86281 0.01888 0.02033 0.0
O261 O 0.81615 0.00242 0.02098 0.0
O262 O 0.82421 0.04423 0.00186 0.0
C263 C 0.88852 0.97025 0.04054 0.0
C264 C 0.86559 0.05694 0.06457 0.0
C265 C 0.89272 0.02054 0.97019 0.0
O266 O 0.86172 0.97088 0.03399 0.0
O267 O 0.90186 0.99418 0.03769 0.0
O268 O 0.89932 0.03617 0.99191 0.0
O269 O 0.86986 0.00535 0.97297 0.0
C270 C 0.80577 0.02504 0.00908 0.0
O271 O 0.87338 0.06399 0.03907 0.0
O272 O 0.8576 0.03079 0.06768 0.0
In273 In 0.28756 0.6042 0.72656 0.0
O274 O 0.27019 0.55815 0.73249 0.0
O275 O 0.31401 0.56676 0.74599 0.0
C276 C 0.23734 0.62801 0.70734 0.0
C277 C 0.3225 0.60325 0.6796 0.0
C278 C 0.29278 0.63782 0.7745 0.0
O279 O 0.23879 0.60193 0.71631 0.0
O280 O 0.26132 0.6416 0.70712 0.0
O281 O 0.3066 0.64294 0.75121 0.0
O282 O 0.277 0.61525 0.77403 0.0
C283 C 0.29363 0.54839 0.74324 0.0
O284 O 0.33165 0.6119 0.70415 0.0
O285 O 0.29602 0.59582 0.67875 0.0
In286 In 0.1263 0.53804 0.47776 0.0
O287 O 0.16922 0.51371 0.47153 0.0
O288 O 0.16937 0.55323 0.49656 0.0
C289 C 0.09154 0.49234 0.46623 0.0
C290 C 0.13049 0.57431 0.43233 0.0
C291 C 0.09748 0.55054 0.5271 0.0
O292 O 0.11515 0.4895 0.48024 0.0
O293 O 0.08644 0.51768 0.45668 0.0
O294 O 0.09018 0.56102 0.50264 0.0
O295 O 0.12103 0.53622 0.52715 0.0
C296 C 0.18382 0.53237 0.48572 0.0
O297 O 0.12567 0.58379 0.45782 0.0
O298 O 0.13214 0.54693 0.42985 0.0
In299 In 0.37195 0.45673 0.99387 0.0
O300 O 0.35778 0.41739 0.96669 0.0
O301 O 0.39025 0.44513 0.94891 0.0
C302 C 0.39871 0.44312 0.04481 0.0
C303 C 0.31439 0.46033 0.0019 0.0
C304 C 0.3971 0.50818 0.9826 0.0
O305 O 0.40347 0.42937 0.02134 0.0
O306 O 0.37985 0.46302 0.04222 0.0
O307 O 0.36966 0.50558 0.984 0.0
O308 O 0.41156 0.48506 0.98662 0.0
C309 C 0.37339 0.42377 0.94501 0.0
O310 O 0.32839 0.47923 0.98743 0.0
O311 O 0.32953 0.4401 0.01305 0.0
In312 In 0.70958 0.71136 0.86787 0.0
O313 O 0.71025 0.72748 0.9149 0.0
O314 O 0.73545 0.68971 0.9046 0.0
C315 C 0.68493 0.75955 0.84382 0.0
C316 C 0.6659 0.67273 0.8707 0.0
C317 C 0.75501 0.70723 0.83111 0.0
O318 O 0.70214 0.76075 0.8654 0.0
O319 O 0.6811 0.73398 0.83428 0.0
O320 O 0.73354 0.68997 0.82992 0.0
O321 O 0.75408 0.72591 0.85135 0.0
C322 C 0.72682 0.70739 0.9239 0.0
O323 O 0.69052 0.6657 0.8604 0.0
O324 O 0.66341 0.69893 0.87883 0.0
In325 In 0.54808 0.48835 0.13512 0.0
O326 O 0.52672 0.48787 0.18001 0.0
O327 O 0.56448 0.51452 0.17421 0.0
C328 C 0.4967 0.4707 0.11297 0.0
C329 C 0.58216 0.44035 0.13955 0.0
C330 C 0.56231 0.53589 0.10295 0.0
O331 O 0.49978 0.47751 0.13955 0.0
O332 O 0.51939 0.47323 0.09743 0.0
O333 O 0.57602 0.512 0.10096 0.0
O334 O 0.54073 0.53482 0.12003 0.0
C335 C 0.54493 0.50524 0.19125 0.0
O336 O 0.58989 0.4648 0.14951 0.0
O337 O 0.55844 0.44056 0.1258 0.0
In338 In 0.77387 0.27958 0.3806 0.0
O339 O 0.79661 0.32325 0.37221 0.0
O340 O 0.81905 0.29024 0.39653 0.0
C341 C 0.72629 0.29243 0.34873 0.0
C342 C 0.7589 0.27145 0.43681 0.0
C343 C 0.79529 0.23836 0.34494 0.0
O344 O 0.7428 0.31214 0.35876 0.0
O345 O 0.73298 0.26675 0.35609 0.0
O346 O 0.77686 0.23257 0.36466 0.0
O347 O 0.80363 0.2646 0.34401 0.0
C348 C 0.81933 0.31571 0.38599 0.0
O349 O 0.77465 0.25351 0.42307 0.0
O350 O 0.74994 0.29292 0.42209 0.0
In351 In 0.94469 0.54021 0.6244 0.0
O352 O 0.91222 0.57512 0.63823 0.0
O353 O 0.9343 0.58147 0.5979 0.0
C354 C 0.91967 0.49257 0.59946 0.0
C355 C 0.94773 0.52956 0.68201 0.0
C356 C -0.00161 0.54758 0.60189 0.0
O357 O 0.91335 0.51841 0.59217 0.0
O358 O 0.93876 0.49113 0.61925 0.0
O359 O 0.98943 0.56269 0.62318 0.0
O360 O 0.98061 0.52873 0.59252 0.0
C361 C 0.91667 0.59144 0.61655 0.0
O362 O 0.97031 0.53233 0.66642 0.0
O363 O 0.92378 0.53199 0.66857 0.0
In364 In 0.71974 0.27956 0.61631 0.0
O365 O 0.71819 0.2536 0.57381 0.0
O366 O 0.74387 0.29242 0.57491 0.0
C367 C 0.70136 0.23956 0.65484 0.0
C368 C 0.67353 0.31477 0.60998 0.0
C369 C 0.76765 0.29162 0.64786 0.0
O370 O 0.71564 0.23257 0.63225 0.0
O371 O 0.69502 0.26632 0.657 0.0
O372 O 0.75022 0.31148 0.63978 0.0
O373 O 0.76206 0.26651 0.638 0.0
C374 C 0.73435 0.27122 0.56013 0.0
O375 O 0.69748 0.32411 0.62006 0.0
O376 O 0.67292 0.28793 0.60368 0.0
In377 In 0.95643 0.48799 0.86166 0.0
O378 O 0.91494 0.45971 0.8619 0.0
O379 O 0.95599 0.43954 0.85337 0.0
C380 C 0.94157 0.53529 0.8938 0.0
C381 C 0.95276 0.50491 0.80559 0.0
C382 C 0.00601 0.47341 0.88901 0.0
O383 O 0.92978 0.51056 0.89733 0.0
O384 O 0.9614 0.53539 0.87465 0.0
O385 O 0.00592 0.48451 0.86371 0.0
O386 O 0.98117 0.46992 0.90056 0.0
C387 C 0.92874 0.43666 0.85545 0.0
O388 O 0.97583 0.49422 0.81629 0.0
O389 O 0.93186 0.5079 0.82328 0.0
In390 In 0.77055 0.70016 0.10343 0.0
O391 O 0.77002 0.71991 0.05781 0.0
O392 O 0.74696 0.68012 0.06398 0.0
C393 C 0.78671 0.74987 0.13003 0.0
C394 C 0.81948 0.66792 0.10633 0.0
C395 C 0.72355 0.68789 0.13649 0.0
O396 O 0.77436 0.74965 0.10533 0.0
O397 O 0.79125 0.72501 0.14114 0.0
O398 O 0.73942 0.66806 0.12574 0.0
O399 O 0.7302 0.7135 0.12885 0.0
C400 C 0.75473 0.70002 0.0466 0.0
O401 O 0.79658 0.66047 0.11963 0.0
O402 O 0.81764 0.69113 0.09173 0.0
In403 In 0.53771 0.54254 0.37225 0.0
O404 O 0.58244 0.55754 0.38865 0.0
O405 O 0.55563 0.5878 0.36526 0.0
C406 C 0.54662 0.49557 0.40616 0.0
C407 C 0.53799 0.53042 0.31462 0.0
C408 C 0.48667 0.56224 0.39385 0.0
O409 O 0.54467 0.52108 0.41641 0.0
O410 O 0.54584 0.49378 0.37865 0.0
O411 O 0.49097 0.53587 0.38726 0.0
O412 O 0.50737 0.57929 0.38759 0.0
C413 C 0.57971 0.58274 0.37769 0.0
O414 O 0.51455 0.53284 0.32892 0.0
O415 O 0.56094 0.53374 0.32941 0.0
In416 In 0.87355 0.73924 0.69464 0.0
O417 O 0.91663 0.72893 0.71713 0.0
O418 O 0.91721 0.7578 0.68038 0.0
C419 C 0.83975 0.72105 0.73891 0.0
C420 C 0.87549 0.69896 0.65248 0.0
C421 C 0.84561 0.79065 0.69163 0.0
O422 O 0.86386 0.73377 0.74328 0.0
O423 O 0.83371 0.71601 0.7125 0.0
O424 O 0.83738 0.76857 0.67725 0.0
O425 O 0.86955 0.78767 0.70494 0.0
C426 C 0.93156 0.74432 0.69973 0.0
O427 O 0.87228 0.72574 0.64643 0.0
O428 O 0.87659 0.69284 0.67931 0.0
In429 In 0.52311 0.63555 0.96028 0.0
O430 O 0.53973 0.62295 0.91469 0.0
O431 O 0.56963 0.64094 0.9455 0.0
C432 C 0.47382 0.60451 0.96442 0.0
C433 C 0.50731 0.69153 0.95313 0.0
C434 C 0.54679 0.61259 0.00877 0.0
O435 O 0.49336 0.5987 0.94582 0.0
O436 O 0.47824 0.62706 0.9797 0.0
O437 O 0.5422 0.6397 0.00613 0.0
O438 O 0.54049 0.59742 0.98663 0.0
C439 C 0.56543 0.63136 0.92006 0.0
O440 O 0.52238 0.68301 0.97458 0.0
O441 O 0.49976 0.67184 0.93535 0.0
In442 In 0.61678 0.27336 0.20523 0.0
O443 O 0.63274 0.30796 0.17249 0.0
O444 O 0.59646 0.3178 0.19978 0.0
C445 C 0.65042 0.22784 0.19045 0.0
C446 C 0.56222 0.25289 0.19962 0.0
C447 C 0.64422 0.28848 0.25516 0.0
O448 O 0.6457 0.24873 0.17296 0.0
O449 O 0.63657 0.22901 0.21427 0.0
O450 O 0.61691 0.28463 0.25414 0.0
O451 O 0.65711 0.28558 0.23103 0.0
C452 C 0.61359 0.32634 0.18004 0.0
O453 O 0.57359 0.25815 0.2242 0.0
O454 O 0.57877 0.25652 0.17784 0.0
In455 In 0.95917 0.36632 0.4791 0.0
O456 O 0.94388 0.37093 0.43186 0.0
O457 O 0.91498 0.35213 0.46354 0.0
C458 C 0.00427 0.40176 0.46775 0.0
C459 C 0.97551 0.31019 0.486 0.0
C460 C 0.93412 0.39993 0.52075 0.0
O461 O 0.98152 0.40155 0.45213 0.0
O462 O 0.00461 0.38366 0.48852 0.0
O463 O 0.95874 0.38802 0.52424 0.0
O464 O 0.92146 0.39334 0.49728 0.0
C465 C 0.9192 0.35981 0.43738 0.0
O466 O 0.95905 0.32291 0.5041 0.0
O467 O 0.98423 0.32582 0.46512 0.0
In468 In 0.87787 0.27334 0.79297 0.0
O469 O 0.89013 0.3022 0.8321 0.0
O470 O 0.86964 0.32221 0.79573 0.0
C471 C 0.85028 0.22608 0.81556 0.0
C472 C 0.93487 0.26087 0.78571 0.0
C473 C 0.84745 0.28287 0.74372 0.0
O474 O 0.8465 0.25169 0.82518 0.0
O475 O 0.86762 0.22481 0.79416 0.0
O476 O 0.87505 0.28283 0.74417 0.0
O477 O 0.8353 0.27797 0.76804 0.0
C478 C 0.8816 0.32549 0.82022 0.0
O479 O 0.91886 0.26924 0.7649 0.0
O480 O 0.92204 0.25785 0.80991 0.0
In481 In 0.97726 0.6328 0.04067 0.0
O482 O 0.95478 0.62458 0.08469 0.0
O483 O 0.92929 0.63939 0.04855 0.0
C484 C 0.02557 0.60012 0.04511 0.0
C485 C 0.99382 0.68856 0.04607 0.0
C486 C 0.95809 0.60964 0.99023 0.0
O487 O 0.00184 0.59301 0.05719 0.0
O488 O 0.02553 0.62464 0.03253 0.0
O489 O 0.96246 0.63674 0.99317 0.0
O490 O 0.96279 0.5945 0.01276 0.0
C491 C 0.93003 0.63209 0.07505 0.0
O492 O 0.98642 0.67763 0.02185 0.0
O493 O 0.99341 0.67133 0.06763 0.0
In494 In 0.62613 0.71353 0.28583 0.0
O495 O 0.58037 0.70243 0.26999 0.0
O496 O 0.58509 0.73637 0.30167 0.0
C497 C 0.64885 0.69477 0.23504 0.0
C498 C 0.63378 0.67533 0.33045 0.0
C499 C 0.65452 0.76481 0.28515 0.0
O500 O 0.62161 0.6966 0.23895 0.0
O501 O 0.66427 0.70109 0.25699 0.0
O502 O 0.66371 0.743 0.29928 0.0
O503 O 0.63011 0.76142 0.27281 0.0
C504 C 0.56813 0.72143 0.28584 0.0
O505 O 0.6366 0.66848 0.30392 0.0
O506 O 0.62686 0.70167 0.33441 0.0
In507 In 0.51959 0.36976 0.53686 0.0
O508 O 0.52011 0.32666 0.51219 0.0
O509 O 0.50049 0.32744 0.55453 0.0
C510 C 0.53318 0.40533 0.49238 0.0
C511 C 0.568 0.36382 0.56911 0.0
C512 C 0.46867 0.39565 0.55186 0.0
O513 O 0.52281 0.38008 0.48837 0.0
O514 O 0.5373 0.41241 0.5187 0.0
O515 O 0.49221 0.39991 0.56567 0.0
O516 O 0.47141 0.37849 0.53046 0.0
C517 C 0.50742 0.3127 0.53229 0.0
O518 O 0.54417 0.37215 0.58031 0.0
O519 O 0.5675 0.35974 0.5419 0.0
In520 In 0.70143 0.89624 0.72679 0.0
O521 O 0.7197 0.93953 0.74297 0.0
O522 O 0.67362 0.93362 0.74488 0.0
C523 C 0.75223 0.8711 0.71224 0.0
C524 C 0.67757 0.90241 0.67365 0.0
C525 C 0.68528 0.85766 0.76818 0.0
O526 O 0.75107 0.89616 0.72377 0.0
O527 O 0.72788 0.85903 0.70753 0.0
O528 O 0.66946 0.86346 0.74635 0.0
O529 O 0.70844 0.87247 0.77001 0.0
C530 C 0.69512 0.9503 0.74904 0.0
O531 O 0.66444 0.88917 0.69394 0.0
O532 O 0.70247 0.91219 0.68005 0.0
In533 In 0.20722 0.6151 0.27534 0.0
O534 O 0.22759 0.57006 0.27293 0.0
O535 O 0.19024 0.57849 0.24615 0.0
C536 C 0.25938 0.6348 0.29383 0.0
C537 C 0.17406 0.61454 0.32409 0.0
C538 C 0.1949 0.65137 0.23099 0.0
O539 O 0.25418 0.60779 0.29162 0.0
O540 O 0.23842 0.65134 0.28716 0.0
O541 O 0.17685 0.64673 0.25135 0.0
O542 O 0.21799 0.6364 0.23209 0.0
C543 C 0.20933 0.56039 0.25465 0.0
O544 O 0.17148 0.59563 0.30431 0.0
O545 O 0.19187 0.63465 0.31854 0.0
In546 In 0.64201 0.96644 0.50776 0.0
O547 O 0.68861 0.98329 0.50639 0.0
O548 O 0.67927 0.94398 0.48322 0.0
C549 C 0.61747 0.01944 0.51299 0.0
C550 C 0.64719 0.93873 0.55885 0.0
C551 C 0.59889 0.94854 0.47215 0.0
O552 O 0.63699 0.01424 0.49418 0.0
O553 O 0.61216 -0.00122 0.53041 0.0
O554 O 0.60081 0.94013 0.49833 0.0
O555 O 0.62011 0.96364 0.46316 0.0
C556 C 0.69818 0.96246 0.4911 0.0
O557 O 0.64219 0.92506 0.53538 0.0
O558 O 0.649 0.96615 0.55656 0.0
In559 In 0.29497 0.37066 0.79154 0.0
O560 O 0.33948 0.36888 0.81446 0.0
O561 O 0.30202 0.38017 0.83958 0.0
C562 C 0.30575 0.33456 0.74642 0.0
C563 C 0.29707 0.42627 0.77325 0.0
C564 C 0.24258 0.34781 0.8054 0.0
O565 O 0.31329 0.32861 0.77226 0.0
O566 O 0.29351 0.35902 0.74309 0.0
O567 O 0.24553 0.37355 0.79595 0.0
O568 O 0.26622 0.33417 0.80952 0.0
C569 C 0.32927 0.37649 0.83888 0.0
O570 O 0.27454 0.41528 0.7847 0.0
O571 O 0.31849 0.4091 0.77034 0.0
In572 In 0.36433 0.53918 0.52006 0.0
O573 O 0.37879 0.57753 0.54891 0.0
O574 O 0.35238 0.54407 0.56767 0.0
C575 C 0.39393 0.55983 0.47352 0.0
C576 C 0.30815 0.53595 0.50298 0.0
C577 C 0.39072 0.48965 0.53721 0.0
O578 O 0.37926 0.57635 0.48995 0.0
O579 O 0.39269 0.53309 0.47984 0.0
O580 O 0.36387 0.49073 0.53094 0.0
O581 O 0.40419 0.51369 0.53548 0.0
C582 C 0.36545 0.56803 0.57109 0.0
O583 O 0.32621 0.51585 0.49773 0.0
O584 O 0.31849 0.55791 0.51592 0.0
In585 In 0.79277 0.11504 0.21454 0.0
O586 O 0.83708 0.11688 0.19186 0.0
O587 O 0.79962 0.1042 0.16707 0.0
C588 C 0.80897 0.15044 0.25827 0.0
C589 C 0.78965 0.05848 0.23008 0.0
C590 C 0.74609 0.147 0.1987 0.0
O591 O 0.8246 0.14676 0.23587 0.0
O592 O 0.78613 0.13505 0.25929 0.0
O593 O 0.74411 0.12591 0.21638 0.0
O594 O 0.7713 0.15135 0.18842 0.0
C595 C 0.82686 0.10832 0.16771 0.0
O596 O 0.77146 0.07019 0.21305 0.0
O597 O 0.80885 0.07541 0.24021 0.0
In598 In 0.62343 0.03612 0.98641 0.0
O599 O 0.6202 0.08476 0.9748 0.0
O600 O 0.62497 0.05377 0.94049 0.0
C601 C 0.59327 0.03493 0.03655 0.0
C602 C 0.68101 0.03459 0.99699 0.0
C603 C 0.59732 0.98967 0.96173 0.0
O604 O 0.58719 0.05239 0.01609 0.0
O605 O 0.61535 0.01893 0.03235 0.0
O606 O 0.62423 0.99008 0.96772 0.0
O607 O 0.58365 0.01292 0.9676 0.0
C608 C 0.6234 0.08023 0.94781 0.0
O609 O 0.66848 0.01665 0.98028 0.0
O610 O 0.66449 0.05308 0.00909 0.0
In611 In 0.87919 0.94912 0.45535 0.0
O612 O 0.88787 0.90641 0.43097 0.0
O613 O 0.86961 0.94238 0.40751 0.0
C614 C 0.90968 0.93436 0.50332 0.0
C615 C 0.82177 0.95264 0.46782 0.0
C616 C 0.91317 0.99537 0.4433 0.0
O617 O 0.90415 0.91603 0.48341 0.0
O618 O 0.89824 0.95917 0.49977 0.0
O619 O 0.88979 0.99756 0.45774 0.0
O620 O 0.91872 0.97015 0.43356 0.0
C621 C 0.8779 0.9161 0.40712 0.0
O622 O 0.83454 0.97087 0.45165 0.0
O623 O 0.8379 0.93282 0.47814 0.0
C624 C 0.2328 0.22315 0.52141 0.0
C625 C 0.26188 0.2171 0.53027 0.0
C626 C 0.27815 0.2179 0.47926 0.0
C627 C 0.24869 0.22134 0.4703 0.0
N628 N 0.19728 0.22269 0.48208 0.0
N629 N 0.31152 0.20401 0.51801 0.0
C630 C 0.22578 0.22283 0.49116 0.0
C631 C 0.28444 0.21329 0.50932 0.0
N632 N 0.21211 0.23005 0.54187 0.0
N633 N 0.30016 0.21988 0.45912 0.0
H634 H 0.31697 0.20019 0.53982 0.0
H635 H 0.32787 0.1977 0.50349 0.0
H636 H 0.29636 0.2232 0.43687 0.0
H637 H 0.32222 0.22072 0.4647 0.0
H638 H 0.19134 0.23774 0.53661 0.0
H639 H 0.21647 0.23049 0.56426 0.0
H640 H 0.17962 0.22041 0.49626 0.0
H641 H 0.19121 0.22241 0.4601 0.0
C642 C 0.01996 0.9644 0.73172 0.0
C643 C 0.03466 0.98373 0.71239 0.0
C644 C 0.04999 0.01424 0.75363 0.0
C645 C 0.03398 0.99578 0.77268 0.0
N646 N -0.00029 0.95644 0.78005 0.0
N647 N 0.05878 0.0298 0.70373 0.0
C648 C 0.01755 0.97193 0.76174 0.0
C649 C 0.04836 0.00945 0.723 0.0
N650 N 0.0099 0.93804 0.72179 0.0
N651 N 0.06701 0.03612 0.76486 0.0
H652 H 0.05755 0.02719 0.68111 0.0
H653 H 0.06627 0.05037 0.70994 0.0
H654 H 0.06775 0.04116 0.78709 0.0
H655 H 0.08183 0.04813 0.75246 0.0
H656 H 0.00201 0.92166 0.73548 0.0
H657 H 0.01173 0.93131 0.7001 0.0
H658 H 0.98469 0.94098 0.77276 0.0
H659 H -0.00171 0.96057 0.80244 0.0
C660 C 0.22947 0.78831 0.98409 0.0
C661 C 0.25812 0.78664 0.97241 0.0
C662 C 0.27859 0.78526 0.02194 0.0
C663 C 0.25012 0.78942 0.03346 0.0
N664 N 0.19938 0.80173 0.02545 0.0
N665 N 0.31034 0.78929 0.97973 0.0
C666 C 0.22578 0.79287 0.01453 0.0
C667 C 0.28285 0.78667 0.99119 0.0
N668 N 0.20574 0.7844 0.96633 0.0
N669 N 0.30136 0.77896 0.04026 0.0
H670 H 0.31436 0.79092 0.95734 0.0
H671 H 0.32892 0.79256 0.99247 0.0
H672 H 0.29907 0.77768 0.06291 0.0
H673 H 0.32193 0.77257 0.03288 0.0
H674 H 0.18449 0.78228 0.97423 0.0
H675 H 0.20747 0.78041 0.94394 0.0
H676 H 0.18176 0.80757 0.01225 0.0
H677 H 0.1959 0.80618 0.04755 0.0
C678 C 0.4285 0.00353 0.27363 0.0
C679 C 0.43557 0.97502 0.28358 0.0
C680 C 0.44367 0.95869 0.23324 0.0
C681 C 0.43572 0.98695 0.22329 0.0
N682 N 0.41443 0.03423 0.23284 0.0
N683 N 0.44371 0.92396 0.27333 0.0
C684 C 0.4262 0.00875 0.24317 0.0
C685 C 0.4413 0.9521 0.2635 0.0
N686 N 0.42552 0.02597 0.29318 0.0
N687 N 0.45477 0.93865 0.21402 0.0
H688 H 0.44182 0.91837 0.29537 0.0
H689 H 0.44495 0.90589 0.25953 0.0
H690 H 0.45653 0.94258 0.19163 0.0
H691 H 0.46415 0.91893 0.22046 0.0
H692 H 0.42383 0.04783 0.28704 0.0
H693 H 0.42705 0.02316 0.31574 0.0
H694 H 0.40415 0.04962 0.24611 0.0
H695 H 0.41255 0.03886 0.21059 0.0
C696 C 0.51152 0.26781 0.18579 0.0
C697 C 0.53083 0.24604 0.19667 0.0
C698 C 0.48952 0.2131 0.20527 0.0
C699 C 0.47009 0.23606 0.19768 0.0
N700 N 0.46193 0.28643 0.18424 0.0
N701 N 0.53886 0.19874 0.21848 0.0
C702 C 0.48087 0.26365 0.18853 0.0
C703 C 0.52001 0.21887 0.20692 0.0
N704 N 0.5224 0.29262 0.17315 0.0
N705 N 0.47888 0.18552 0.20981 0.0
H706 H 0.56151 0.20147 0.21836 0.0
H707 H 0.53207 0.18008 0.22958 0.0
H708 H 0.45671 0.1804 0.20826 0.0
H709 H 0.4921 0.16719 0.21253 0.0
H710 H 0.50956 0.30752 0.16169 0.0
H711 H 0.54463 0.29747 0.17214 0.0
H712 H 0.46861 0.30793 0.18098 0.0
H713 H 0.43932 0.28447 0.18636 0.0
C714 C 0.96175 0.25714 0.48493 0.0
C715 C 0.98352 0.279 0.48822 0.0
C716 C 0.02194 0.24175 0.4867 0.0
C717 C 0.00012 0.21975 0.4851 0.0
N718 N 0.94947 0.20565 0.48829 0.0
N719 N 0.03352 0.29215 0.49828 0.0
C720 C 0.97005 0.2272 0.48592 0.0
C721 C 0.0134 0.27129 0.49098 0.0
N722 N 0.93343 0.26493 0.47932 0.0
N723 N 0.0507 0.2347 0.48253 0.0
H724 H 0.02795 0.31401 0.50177 0.0
H725 H 0.05515 0.28737 0.50356 0.0
H726 H 0.05797 0.21338 0.47895 0.0
H727 H 0.06715 0.25024 0.48009 0.0
H728 H 0.9173 0.25003 0.47332 0.0
H729 H 0.9264 0.2866 0.47837 0.0
H730 H 0.9274 0.20979 0.49204 0.0
H731 H 0.95483 0.18349 0.48911 0.0
C732 C 0.00868 0.77438 0.70366 0.0
C733 C 0.02523 0.74816 0.7024 0.0
C734 C 0.98031 0.7197 0.69648 0.0
C735 C 0.96374 0.74555 0.70105 0.0
N736 N 0.96173 0.79676 0.71356 0.0
N737 N 0.02709 0.69544 0.70194 0.0
C738 C 0.9778 0.77273 0.70588 0.0
C739 C 0.01115 0.72066 0.69993 0.0
N740 N 0.02236 0.80088 0.70141 0.0
N741 N 0.96675 0.69456 0.68762 0.0
H742 H 0.04974 0.69523 0.70461 0.0
H743 H 0.01765 0.67478 0.70347 0.0
H744 H 0.94422 0.69302 0.68449 0.0
H745 H 0.97805 0.676 0.68081 0.0
H746 H 0.01115 0.82056 0.69904 0.0
H747 H 0.04492 0.80306 0.69901 0.0
H748 H 0.97107 0.81635 0.72043 0.0
H749 H 0.93902 0.79636 0.71564 0.0
C750 C 0.46443 0.76228 0.94542 0.0
C751 C 0.48772 0.78269 0.94422 0.0
C752 C 0.52332 0.74275 0.94369 0.0
C753 C 0.50026 0.72264 0.94858 0.0
N754 N 0.44915 0.71292 0.95719 0.0
N755 N 0.53941 0.79317 0.94559 0.0
C756 C 0.47082 0.73224 0.95009 0.0
C757 C 0.51723 0.77318 0.94407 0.0
N758 N 0.4363 0.77152 0.94122 0.0
N759 N 0.55087 0.73271 0.93778 0.0
H760 H 0.53587 0.8157 0.94585 0.0
H761 H 0.56119 0.78746 0.94895 0.0
H762 H 0.55608 0.71051 0.93697 0.0
H763 H 0.56791 0.74618 0.931 0.0
H764 H 0.41867 0.75733 0.93881 0.0
H765 H 0.43085 0.79336 0.93748 0.0
H766 H 0.42778 0.71923 0.96188 0.0
H767 H 0.45295 0.6907 0.96064 0.0
C768 C 0.51663 0.70313 0.29056 0.0
C769 C 0.53628 0.72654 0.28527 0.0
C770 C 0.49547 0.76103 0.28408 0.0
C771 C 0.47563 0.73729 0.28642 0.0
N772 N 0.46704 0.68522 0.28593 0.0
N773 N 0.54394 0.77652 0.26999 0.0
C774 C 0.48611 0.70814 0.28794 0.0
C775 C 0.52558 0.75515 0.27997 0.0
N776 N 0.52696 0.6765 0.29941 0.0
N777 N 0.4859 0.78918 0.28729 0.0
H778 H 0.56605 0.77291 0.26574 0.0
H779 H 0.53659 0.79692 0.26298 0.0
H780 H 0.46417 0.79463 0.29145 0.0
H781 H 0.50003 0.80697 0.28887 0.0
H782 H 0.51342 0.65963 0.30651 0.0
H783 H 0.54913 0.67209 0.30238 0.0
H784 H 0.47378 0.66355 0.28393 0.0
H785 H 0.44455 0.68801 0.28334 0.0
C786 C 0.52591 0.26138 0.53201 0.0
C787 C 0.50199 0.28104 0.53035 0.0
C788 C 0.46776 0.24008 0.52726 0.0
C789 C 0.49185 0.22055 0.52605 0.0
N790 N 0.54386 0.21231 0.52312 0.0
N791 N 0.45064 0.29004 0.52259 0.0
C792 C 0.52097 0.23109 0.52737 0.0
C793 C 0.47301 0.27067 0.52696 0.0
N794 N 0.55314 0.27156 0.53902 0.0
N795 N 0.43997 0.22937 0.52991 0.0
H796 H 0.45363 0.31266 0.52254 0.0
H797 H 0.42956 0.28375 0.51673 0.0
H798 H 0.43524 0.20707 0.53052 0.0
H799 H 0.42182 0.24248 0.53408 0.0
H800 H 0.57078 0.25796 0.54375 0.0
H801 H 0.55761 0.29364 0.54258 0.0
H802 H 0.56542 0.21918 0.52065 0.0
H803 H 0.54111 0.18994 0.51959 0.0
C804 C 0.986 0.27657 0.79704 0.0
C805 C 0.96675 0.25698 0.78253 0.0
C806 C 0.00837 0.22815 0.76497 0.0
C807 C 0.02762 0.2483 0.7787 0.0
N808 N 0.0356 0.29464 0.80235 0.0
N809 N 0.95905 0.217 0.74899 0.0
C810 C 0.01665 0.27336 0.79323 0.0
C811 C 0.97779 0.23379 0.76515 0.0
N812 N 0.97501 0.29815 0.8146 0.0
N813 N 0.01909 0.20276 0.75333 0.0
H814 H 0.93638 0.21915 0.74997 0.0
H815 H 0.96596 0.20216 0.73317 0.0
H816 H 0.04129 0.19773 0.75251 0.0
H817 H 0.00593 0.18553 0.7464 0.0
H818 H 0.98781 0.31075 0.82858 0.0
H819 H 0.95275 0.30254 0.81659 0.0
H820 H 0.02897 0.31487 0.81041 0.0
H821 H 0.05817 0.2932 0.79937 0.0
C822 C 0.98154 0.73942 0.06155 0.0
C823 C 0.00178 0.71961 0.04889 0.0
C824 C 0.03621 0.75956 0.03994 0.0
C825 C 0.01472 0.7797 0.04961 0.0
N826 N 0.96574 0.78978 0.06646 0.0
N827 N 0.04735 0.71019 0.02412 0.0
C828 C 0.98715 0.76992 0.0599 0.0
C829 C 0.02885 0.7295 0.03752 0.0
N830 N 0.95689 0.72907 0.07493 0.0
N831 N 0.06397 0.76906 0.03418 0.0
H832 H 0.0435 0.68772 0.02342 0.0
H833 H 0.06569 0.71653 0.01224 0.0
H834 H 0.07026 0.7909 0.03618 0.0
H835 H 0.08146 0.75512 0.02995 0.0
H836 H 0.94305 0.74203 0.08754 0.0
H837 H 0.95118 0.707 0.07517 0.0
H838 H 0.94415 0.78408 0.07082 0.0
H839 H 0.96886 0.81234 0.06534 0.0
C840 C 0.20943 0.47773 0.25974 0.0
C841 C 0.21048 0.46991 0.22976 0.0
C842 C 0.21249 0.52165 0.21595 0.0
C843 C 0.20901 0.52938 0.24577 0.0
N844 N 0.19779 0.51506 0.29534 0.0
N845 N 0.20757 0.484 0.17898 0.0
C846 C 0.20567 0.5075 0.2675 0.0
C847 C 0.21052 0.49175 0.20771 0.0
N848 N 0.21329 0.4569 0.28085 0.0
N849 N 0.21876 0.54271 0.19569 0.0
H850 H 0.20564 0.46234 0.1721 0.0
H851 H 0.20435 0.49907 0.16223 0.0
H852 H 0.22045 0.56485 0.20092 0.0
H853 H 0.22471 0.53803 0.17422 0.0
H854 H 0.21595 0.46184 0.30292 0.0
H855 H 0.21664 0.43486 0.27611 0.0
H856 H 0.19198 0.49982 0.31123 0.0
H857 H 0.19422 0.53662 0.30187 0.0
C858 C 0.68367 0.03228 0.74595 0.0
C859 C 0.69225 0.04031 0.77466 0.0
C860 C 0.70126 0.98898 0.78709 0.0
C861 C 0.6919 0.98088 0.75869 0.0
N862 N 0.66965 0.99356 0.71254 0.0
N863 N 0.70283 0.02657 0.82445 0.0
C864 C 0.68142 0.00215 0.73866 0.0
C865 C 0.69924 0.01872 0.79581 0.0
N866 N 0.67944 0.05339 0.72519 0.0
N867 N 0.71242 0.96828 0.80558 0.0
H868 H 0.70083 0.04809 0.83175 0.0
H869 H 0.70509 0.0116 0.84144 0.0
H870 H 0.7126 0.94601 0.80063 0.0
H871 H 0.72297 0.97326 0.82513 0.0
H872 H 0.67648 0.04894 0.70307 0.0
H873 H 0.68113 0.0757 0.72958 0.0
H874 H 0.65856 0.00765 0.69851 0.0
H875 H 0.66911 0.97184 0.70564 0.0
C876 C 0.23447 0.46309 0.98013 0.0
C877 C 0.22095 0.45955 0.00776 0.0
C878 C 0.26869 0.46022 0.03181 0.0
C879 C 0.28228 0.4607 0.00397 0.0
N880 N 0.27832 0.45643 0.9514 0.0
N881 N 0.22498 0.44892 0.05935 0.0
C882 C 0.26527 0.46053 0.978 0.0
C883 C 0.23797 0.45656 0.03352 0.0
N884 N 0.21799 0.46976 0.95609 0.0
N885 N 0.28498 0.46424 0.05656 0.0
H886 H 0.20255 0.44539 0.06143 0.0
H887 H 0.23673 0.44335 0.07805 0.0
H888 H 0.30754 0.46753 0.05617 0.0
H889 H 0.27579 0.4671 0.0772 0.0
H890 H 0.22704 0.47565 0.93604 0.0
H891 H 0.19532 0.47211 0.95683 0.0
H892 H 0.2666 0.45302 0.93217 0.0
H893 H 0.30078 0.4535 0.9488 0.0
C894 C 0.78704 0.0154 0.26379 0.0
C895 C 0.79034 0.02667 0.23512 0.0
C896 C 0.7922 0.97707 0.2152 0.0
C897 C 0.79149 0.9658 0.24405 0.0
N898 N 0.79354 0.97396 0.29616 0.0
N899 N 0.80251 0.01871 0.18432 0.0
C900 C 0.7903 0.98487 0.26851 0.0
C901 C 0.79468 0.00766 0.21099 0.0
N902 N 0.77992 0.03373 0.28631 0.0
N903 N 0.78942 0.95865 0.1918 0.0
H904 H 0.80531 0.04099 0.18039 0.0
H905 H 0.80906 0.00566 0.16684 0.0
H906 H 0.78708 0.93607 0.19394 0.0
H907 H 0.78664 0.966 0.17042 0.0
H908 H 0.77414 0.02637 0.30706 0.0
H909 H 0.77738 0.05624 0.28364 0.0
H910 H 0.79601 0.98711 0.31459 0.0
H911 H 0.7964 0.95176 0.30051 0.0
C912 C 0.72547 0.02961 0.02854 0.0
C913 C 0.713 0.0347 0.00065 0.0
C914 C 0.76146 0.03337 0.978 0.0
C915 C 0.77403 0.02963 0.00607 0.0
N916 N 0.76901 0.0315 0.05859 0.0
N917 N 0.71906 0.04854 0.9501 0.0
C918 C 0.75633 0.0299 0.03155 0.0
C919 C 0.73099 0.03871 0.9757 0.0
N920 N 0.70794 0.02322 0.0519 0.0
N921 N 0.77837 0.03062 0.9535 0.0
H922 H 0.69687 0.05333 0.94779 0.0
H923 H 0.7315 0.05469 0.93206 0.0
H924 H 0.80081 0.02662 0.95428 0.0
H925 H 0.7698 0.02989 0.93242 0.0
H926 H 0.716 0.01605 0.07195 0.0
H927 H 0.68518 0.02275 0.05062 0.0
H928 H 0.75718 0.03482 0.07775 0.0
H929 H 0.79159 0.03243 0.06168 0.0
C930 C 0.29723 0.47881 0.78819 0.0
C931 C 0.29867 0.45757 0.76555 0.0
C932 C 0.29874 0.49613 0.72834 0.0
C933 C 0.29717 0.51731 0.75098 0.0
N934 N 0.29924 0.53007 0.80206 0.0
N935 N 0.30458 0.44511 0.71467 0.0
C936 C 0.29784 0.50901 0.78083 0.0
C937 C 0.30072 0.46598 0.73577 0.0
N938 N 0.29482 0.47002 0.81671 0.0
N939 N 0.29785 0.50497 0.69975 0.0
H940 H 0.30451 0.42275 0.71908 0.0
H941 H 0.30936 0.44968 0.69292 0.0
H942 H 0.29838 0.52689 0.69349 0.0
H943 H 0.29549 0.49086 0.68208 0.0
H944 H 0.29019 0.484 0.83403 0.0
H945 H 0.29626 0.44822 0.82322 0.0
H946 H 0.30298 0.52575 0.82406 0.0
H947 H 0.29841 0.5524 0.79753 0.0
C948 C 0.26519 0.53406 0.46916 0.0
C949 C 0.27653 0.53256 0.49796 0.0
C950 C 0.22726 0.52561 0.51774 0.0
C951 C 0.21572 0.53031 0.4894 0.0
N952 N 0.22266 0.54172 0.43837 0.0
N953 N 0.26915 0.52813 0.55007 0.0
C954 C 0.23439 0.53495 0.46505 0.0
C955 C 0.25778 0.52866 0.52239 0.0
N956 N 0.28386 0.53473 0.44583 0.0
N957 N 0.20906 0.51719 0.53995 0.0
H958 H 0.29153 0.52803 0.55439 0.0
H959 H 0.25647 0.52925 0.56893 0.0
H960 H 0.18658 0.5145 0.53719 0.0
H961 H 0.21634 0.51046 0.56043 0.0
H962 H 0.27707 0.53264 0.42421 0.0
H963 H 0.30654 0.53537 0.44811 0.0
H964 H 0.23497 0.54878 0.42059 0.0
H965 H 0.20021 0.54229 0.43442 0.0
C966 C 0.71782 0.70043 0.00604 0.0
C967 C 0.74745 0.69979 0.01515 0.0
C968 C 0.76369 0.70502 0.96437 0.0
C969 C 0.73413 0.70387 0.95514 0.0
N970 N 0.68357 0.69361 0.96623 0.0
N971 N 0.79853 0.69476 0.00293 0.0
C972 C 0.7113 0.69957 0.9757 0.0
C973 C 0.77041 0.70013 0.99429 0.0
N974 N 0.69596 0.70316 0.02623 0.0
N975 N 0.78522 0.71195 0.94484 0.0
H976 H 0.80424 0.69042 0.02458 0.0
H977 H 0.81573 0.69175 0.98833 0.0
H978 H 0.78118 0.71584 0.92274 0.0
H979 H 0.80671 0.7163 0.95097 0.0
H980 H 0.67423 0.70705 0.02063 0.0
H981 H 0.69978 0.70408 0.04869 0.0
H982 H 0.66673 0.68725 0.98017 0.0
H983 H 0.67801 0.69217 0.94415 0.0
C984 C 0.55907 0.50273 0.27248 0.0
C985 C 0.53894 0.52391 0.28294 0.0
C986 C 0.52157 0.53202 0.23288 0.0
C987 C 0.54388 0.51321 0.22244 0.0
N988 N 0.58846 0.48645 0.23177 0.0
N989 N 0.50554 0.56355 0.27223 0.0
C990 C 0.56416 0.50047 0.24205 0.0
C991 C 0.52124 0.53985 0.26295 0.0
N992 N 0.5722 0.48366 0.2914 0.0
N993 N 0.50089 0.54261 0.21409 0.0
H994 H 0.50576 0.57104 0.29374 0.0
H995 H 0.49465 0.57763 0.25802 0.0
H996 H 0.50142 0.53876 0.19161 0.0
H997 H 0.48222 0.55363 0.22108 0.0
H998 H 0.58488 0.46604 0.28445 0.0
H999 H 0.5677 0.48323 0.31375 0.0
H1000 H 0.60525 0.47918 0.24535 0.0
H1001 H 0.59331 0.48472 0.20959 0.0
C1002 C 0.72329 0.26716 0.47792 0.0
C1003 C 0.75269 0.26859 0.46831 0.0
C1004 C 0.76978 0.26611 0.51899 0.0
C1005 C 0.74044 0.26838 0.52861 0.0
N1006 N 0.68928 0.27562 0.51753 0.0
N1007 N 0.80406 0.27398 0.4795 0.0
C1008 C 0.71711 0.26992 0.5082 0.0
C1009 C 0.77606 0.26907 0.48875 0.0
N1010 N 0.70134 0.26249 0.45816 0.0
N1011 N 0.79157 0.26049 0.53868 0.0
H1012 H 0.80968 0.27677 0.4576 0.0
H1013 H 0.82142 0.27788 0.49372 0.0
H1014 H 0.7877 0.25797 0.56103 0.0
H1015 H 0.81296 0.25561 0.5326 0.0
H1016 H 0.6798 0.25823 0.4642 0.0
H1017 H 0.70511 0.26011 0.43579 0.0
H1018 H 0.67206 0.28029 0.50338 0.0
H1019 H 0.68375 0.27826 0.53949 0.0
C1020 C 0.96528 0.54231 0.73242 0.0
C1021 C 0.94905 0.5236 0.71372 0.0
C1022 C 0.93126 0.49618 0.75605 0.0
C1023 C 0.95026 0.51253 0.77433 0.0
N1024 N 0.98726 0.54972 0.78007 0.0
N1025 N 0.92149 0.47909 0.70699 0.0
C1026 C 0.96801 0.53506 0.76251 0.0
C1027 C 0.93324 0.4996 0.72531 0.0
N1028 N 0.97671 0.56783 0.72181 0.0
N1029 N 0.91121 0.47744 0.76787 0.0
H1030 H 0.92342 0.48008 0.6843 0.0
H1031 H 0.91252 0.45948 0.71431 0.0
H1032 H 0.90916 0.47373 0.79023 0.0
H1033 H 0.89479 0.46747 0.75563 0.0
H1034 H 0.98608 0.58382 0.73502 0.0
H1035 H 0.97441 0.57445 0.70012 0.0
H1036 H 0.00331 0.56371 0.77203 0.0
H1037 H 0.98829 0.54673 0.80265 0.0
C1038 C 0.76995 0.95251 0.45028 0.0
C1039 C 0.7901 0.95417 0.47382 0.0
C1040 C 0.74965 0.95704 0.50868 0.0
C1041 C 0.72969 0.9589 0.48496 0.0
N1042 N 0.72085 0.96257 0.43309 0.0
N1043 N 0.79969 0.96247 0.52505 0.0
C1044 C 0.7398 0.95766 0.45569 0.0
C1045 C 0.78013 0.95755 0.50296 0.0
N1046 N 0.77947 0.94495 0.42296 0.0
N1047 N 0.73951 0.95367 0.53661 0.0
H1048 H 0.82223 0.96327 0.52178 0.0
H1049 H 0.79347 0.96834 0.54615 0.0
H1050 H 0.71734 0.95281 0.5418 0.0
H1051 H 0.75303 0.94891 0.55432 0.0
H1052 H 0.76541 0.94038 0.40564 0.0
H1053 H 0.80133 0.94051 0.41821 0.0
H1054 H 0.72757 0.96513 0.41149 0.0
H1055 H 0.69863 0.96662 0.43616 0.0
C1056 C 0.21908 0.34196 0.30922 0.0
C1057 C 0.20054 0.33618 0.28506 0.0
C1058 C 0.18191 0.29302 0.3105 0.0
C1059 C 0.20523 0.29511 0.33077 0.0
N1060 N 0.24854 0.32073 0.34744 0.0
N1061 N 0.16584 0.30367 0.26146 0.0
C1062 C 0.22428 0.3196 0.33002 0.0
C1063 C 0.18189 0.31131 0.28548 0.0
N1064 N 0.23168 0.36886 0.31227 0.0
N1065 N 0.15972 0.27362 0.31527 0.0
H1066 H 0.16559 0.31551 0.24206 0.0
H1067 H 0.15466 0.28388 0.25989 0.0
H1068 H 0.15872 0.26065 0.334 0.0
H1069 H 0.14087 0.27293 0.30248 0.0
H1070 H 0.24341 0.37503 0.33081 0.0
H1071 H 0.22752 0.386 0.2978 0.0
H1072 H 0.26466 0.33666 0.34511 0.0
H1073 H 0.25418 0.30448 0.36233 0.0
C1074 C 0.97839 0.91634 0.54678 0.0
C1075 C 0.97288 0.93338 0.57205 0.0
C1076 C 0.92225 0.93967 0.55596 0.0
C1077 C 0.92991 0.9288 0.52798 0.0
N1078 N 0.96748 0.90967 0.49569 0.0
N1079 N 0.9395 0.96449 0.59915 0.0
C1080 C 0.95842 0.9174 0.5231 0.0
C1081 C 0.94463 0.94555 0.57661 0.0
N1082 N 0.00263 0.89896 0.54547 0.0
N1083 N 0.89355 0.94447 0.56271 0.0
H1084 H 0.95531 0.97078 0.61424 0.0
H1085 H 0.92009 0.97625 0.60122 0.0
H1086 H 0.87662 0.93964 0.54818 0.0
H1087 H 0.88651 0.95002 0.58366 0.0
H1088 H 0.00639 0.88415 0.52856 0.0
H1089 H 0.01707 0.89694 0.56299 0.0
H1090 H 0.98915 0.90456 0.49088 0.0
H1091 H 0.95436 0.91087 0.47717 0.0
C1092 C 0.30565 0.68483 0.84209 0.0
C1093 C 0.28604 0.70806 0.83596 0.0
C1094 C 0.26751 0.68191 0.79322 0.0
C1095 C 0.28942 0.66041 0.79721 0.0
N1096 N 0.33057 0.64143 0.82394 0.0
N1097 N 0.25169 0.73117 0.80307 0.0
C1098 C 0.30884 0.66177 0.82132 0.0
C1099 C 0.2679 0.70728 0.8108 0.0
N1100 N 0.32101 0.68483 0.86772 0.0
N1101 N 0.24588 0.67783 0.77298 0.0
H1102 H 0.251 0.75021 0.81543 0.0
H1103 H 0.24084 0.7331 0.78313 0.0
H1104 H 0.24462 0.65933 0.75981 0.0
H1105 H 0.22756 0.69125 0.77126 0.0
H1106 H 0.33363 0.66728 0.87486 0.0
H1107 H 0.31962 0.70183 0.88287 0.0
H1108 H 0.34733 0.64276 0.83927 0.0
H1109 H 0.33268 0.62382 0.80957 0.0
C1110 C 0.55786 0.00357 0.06371 0.0
C1111 C 0.57315 0.03045 0.06132 0.0
C1112 C 0.54311 0.05172 0.1002 0.0
C1113 C 0.52811 0.02471 0.10281 0.0
N1114 N 0.52545 0.97295 0.09197 0.0
N1115 N 0.58495 0.07794 0.08066 0.0
C1116 C 0.53714 -0.0001 0.08644 0.0
C1117 C 0.56721 0.05389 0.08069 0.0
N1118 N 0.56134 0.98233 0.04289 0.0
N1119 N 0.53383 0.07537 0.11595 0.0
H1120 H 0.60287 0.07994 0.06668 0.0
H1121 H 0.5835 0.09473 0.09595 0.0
H1122 H 0.5175 0.07395 0.13182 0.0
H1123 H 0.54139 0.09656 0.11254 0.0
H1124 H 0.54813 0.96386 0.04138 0.0
H1125 H 0.57572 0.98413 0.02534 0.0
H1126 H 0.53369 0.95368 0.08305 0.0
H1127 H 0.50915 0.96916 0.10734 0.0
C1128 C 0.19069 0.69836 0.16264 0.0
C1129 C 0.20371 0.72431 0.1736 0.0
C1130 C 0.20217 0.70448 0.22323 0.0
C1131 C 0.19315 0.67715 0.21176 0.0
N1132 N 0.1805 0.64684 0.17065 0.0
N1133 N 0.22761 0.74959 0.21342 0.0
C1134 C 0.18778 0.67373 0.18145 0.0
C1135 C 0.21071 0.7269 0.20372 0.0
N1136 N 0.18042 0.69755 0.13459 0.0
N1137 N 0.20316 0.70893 0.25278 0.0
H1138 H 0.23603 0.76562 0.19966 0.0
H1139 H 0.23611 0.75074 0.23452 0.0
H1140 H 0.19774 0.69291 0.26802 0.0
H1141 H 0.20666 0.7294 0.26214 0.0
H1142 H 0.1683 0.68023 0.12616 0.0
H1143 H 0.18183 0.71538 0.12043 0.0
H1144 H 0.17959 0.64208 0.14841 0.0
H1145 H 0.17683 0.6288 0.18413 0.0
C1146 C 0.54757 0.96525 0.46429 0.0
C1147 C 0.5712 0.94701 0.45561 0.0
C1148 C 0.54256 0.92964 0.41377 0.0
C1149 C 0.52039 0.9502 0.42085 0.0
N1150 N 0.50505 0.99241 0.44864 0.0
N1151 N 0.59288 0.9141 0.42066 0.0
C1152 C 0.52368 0.96924 0.44504 0.0
C1153 C 0.56924 0.92991 0.42983 0.0
N1154 N 0.54784 0.979 0.49084 0.0
N1155 N 0.53767 0.90919 0.39253 0.0
H1156 H 0.61219 0.91267 0.43273 0.0
H1157 H 0.59397 0.90384 0.40037 0.0
H1158 H 0.51825 0.90814 0.38061 0.0
H1159 H 0.55176 0.8918 0.38837 0.0
H1160 H 0.52969 0.98975 0.49946 0.0
H1161 H 0.56522 0.97788 0.50543 0.0
H1162 H 0.50855 0.009 0.46386 0.0
H1163 H 0.48782 0.99696 0.43441 0.0
C1164 C 0.3242 0.29201 0.67732 0.0
C1165 C 0.30386 0.26872 0.67972 0.0
C1166 C 0.28359 0.29021 0.7243 0.0
C1167 C 0.30541 0.31216 0.72328 0.0
N1168 N 0.34827 0.33305 0.7011 0.0
N1169 N 0.26694 0.24301 0.70762 0.0
C1170 C 0.32625 0.31287 0.70038 0.0
C1171 C 0.28453 0.26692 0.70395 0.0
N1172 N 0.3413 0.29425 0.65291 0.0
N1173 N 0.26096 0.29246 0.74372 0.0
H1174 H 0.26559 0.22597 0.69264 0.0
H1175 H 0.25523 0.23888 0.72669 0.0
H1176 H 0.25911 0.30947 0.7587 0.0
H1177 H 0.24249 0.27917 0.74318 0.0
H1178 H 0.35432 0.3123 0.64824 0.0
H1179 H 0.34133 0.27853 0.63637 0.0
H1180 H 0.3659 0.33304 0.68672 0.0
H1181 H 0.34993 0.34889 0.71745 0.0
C1182 C 0.92932 0.99114 0.94248 0.0
C1183 C 0.91286 0.01737 0.94527 0.0
C1184 C 0.94097 0.03992 0.90568 0.0
C1185 C 0.95955 0.01515 0.90551 0.0
N1186 N 0.9733 0.9678 0.92424 0.0
N1187 N 0.90228 0.06673 0.93028 0.0
C1188 C 0.95397 0.99068 0.92367 0.0
C1189 C 0.91834 0.04173 0.92689 0.0
N1190 N 0.92177 0.96686 0.95825 0.0
N1191 N 0.94486 0.0614 0.88525 0.0
H1192 H 0.88437 0.06808 0.94436 0.0
H1193 H 0.9072 0.08646 0.9201 0.0
H1194 H 0.96135 0.06055 0.8695 0.0
H1195 H 0.93063 0.07892 0.88235 0.0
H1196 H 0.93065 0.94621 0.95469 0.0
H1197 H 0.90517 0.96666 0.97379 0.0
H1198 H 0.97278 0.95108 0.93966 0.0
H1199 H 0.99129 0.96628 0.91032 0.0
C1200 C 0.32151 0.18404 0.29031 0.0
C1201 C 0.3378 0.21004 0.28528 0.0
C1202 C 0.32459 0.2278 0.33396 0.0
C1203 C 0.30328 0.20548 0.33596 0.0
N1204 N 0.29196 0.15558 0.3242 0.0
N1205 N 0.35356 0.25782 0.30172 0.0
C1206 C 0.30475 0.18143 0.31646 0.0
C1207 C 0.33949 0.23202 0.30715 0.0
N1208 N 0.32189 0.16213 0.26995 0.0
N1209 N 0.33181 0.24379 0.35811 0.0
H1210 H 0.3641 0.26247 0.28206 0.0
H1211 H 0.35243 0.27573 0.31576 0.0
H1212 H 0.32387 0.23861 0.37885 0.0
H1213 H 0.34879 0.25895 0.3584 0.0
H1214 H 0.30801 0.14413 0.27033 0.0
H1215 H 0.33587 0.16223 0.25194 0.0
H1216 H 0.29304 0.13649 0.31191 0.0
H1217 H 0.28302 0.15231 0.34493 0.0
C1218 C 0.05282 0.06357 0.58901 0.0
C1219 C 0.06265 0.03568 0.57958 0.0
C1220 C 0.06789 0.05378 0.52954 0.0
C1221 C 0.05741 0.08158 0.5388 0.0
N1222 N 0.04737 0.11525 0.57796 0.0
N1223 N 0.08788 0.00679 0.54309 0.0
C1224 C 0.05225 0.0872 0.56882 0.0
C1225 C 0.07329 0.03175 0.55071 0.0
N1226 N 0.04355 0.06723 0.61718 0.0
N1227 N 0.07028 0.04732 0.50041 0.0
H1228 H 0.09146 0.98937 0.55724 0.0
H1229 H 0.09905 0.00447 0.52338 0.0
H1230 H 0.06603 0.0621 0.48366 0.0
H1231 H 0.07378 0.02624 0.49252 0.0
H1232 H 0.03263 0.08579 0.62458 0.0
H1233 H 0.04596 0.05105 0.63308 0.0
H1234 H 0.04591 0.12134 0.59984 0.0
H1235 H 0.04744 0.13301 0.56363 0.0
C1236 C 0.16586 0.80538 0.79035 0.0
C1237 C 0.16 0.77623 0.78157 0.0
C1238 C 0.18645 0.75753 0.82414 0.0
C1239 C 0.19593 0.78649 0.83058 0.0
N1240 N 0.19516 0.83811 0.82015 0.0
N1241 N 0.16797 0.72439 0.78727 0.0
C1242 C 0.18564 0.81049 0.81382 0.0
C1243 C 0.17076 0.75224 0.79792 0.0
N1244 N 0.15195 0.82805 0.77667 0.0
N1245 N 0.19294 0.73482 0.84249 0.0
H1246 H 0.15719 0.71939 0.76782 0.0
H1247 H 0.17866 0.70637 0.79621 0.0
H1248 H 0.20596 0.73666 0.861 0.0
H1249 H 0.18344 0.71422 0.8406 0.0
H1250 H 0.15305 0.84965 0.78374 0.0
H1251 H 0.13724 0.82496 0.75951 0.0
H1252 H 0.19156 0.85609 0.80667 0.0
H1253 H 0.20779 0.84286 0.83855 0.0
C1254 C 0.4267 0.91294 0.03863 0.0
C1255 C 0.44823 0.9209 0.01777 0.0
C1256 C 0.45815 0.96615 0.04437 0.0
C1257 C 0.43852 0.95704 0.06667 0.0
N1258 N 0.40654 0.92057 0.08715 0.0
N1259 N 0.48884 0.95158 0.00384 0.0
C1260 C 0.42355 0.93 0.06447 0.0
C1261 C 0.46509 0.94662 0.02137 0.0
N1262 N 0.40858 0.88981 0.0332 0.0
N1263 N 0.47027 0.99346 0.04508 0.0
H1264 H 0.49537 0.93733 0.98728 0.0
H1265 H 0.50386 0.96828 0.00745 0.0
H1266 H 0.46674 0.0083 0.06192 0.0
H1267 H 0.482 0.00242 0.02776 0.0
H1268 H 0.39052 0.8847 0.04606 0.0
H1269 H 0.41018 0.87697 0.01441 0.0
H1270 H 0.39772 0.89962 0.08835 0.0
H1271 H 0.40263 0.9332 0.10575 0.0
C1272 C 0.30676 0.79618 0.23369 0.0
C1273 C 0.33707 0.79313 0.22766 0.0
C1274 C 0.32794 0.8036 0.1759 0.0
C1275 C 0.29782 0.80731 0.18223 0.0
N1276 N 0.26051 0.81661 0.21863 0.0
N1277 N 0.37747 0.80125 0.1948 0.0
C1278 C 0.28796 0.80711 0.21163 0.0
C1279 C 0.34801 0.7991 0.19925 0.0
N1280 N 0.29529 0.78628 0.25949 0.0
N1281 N 0.33725 0.804 0.14752 0.0
H1282 H 0.39268 0.79888 0.21164 0.0
H1283 H 0.38671 0.80812 0.17517 0.0
H1284 H 0.32346 0.80945 0.13016 0.0
H1285 H 0.3582 0.79782 0.14111 0.0
H1286 H 0.2729 0.78508 0.26346 0.0
H1287 H 0.3076 0.77612 0.27572 0.0
H1288 H 0.25359 0.81954 0.24014 0.0
H1289 H 0.24557 0.82434 0.20333 0.0
C1290 C 0.44443 0.06692 0.40028 0.0
C1291 C 0.4256 0.04372 0.40817 0.0
C1292 C 0.41447 0.0691 0.45401 0.0
C1293 C 0.43968 0.0867 0.44956 0.0
N1294 N 0.47864 0.10305 0.41763 0.0
N1295 N 0.38426 0.02871 0.43704 0.0
C1296 C 0.45427 0.08641 0.42219 0.0
C1297 C 0.40772 0.04676 0.43334 0.0
N1298 N 0.4522 0.07069 0.37172 0.0
N1299 N 0.39692 0.07437 0.47764 0.0
H1300 H 0.3759 0.01618 0.41992 0.0
H1301 H 0.37232 0.02698 0.4563 0.0
H1302 H 0.40076 0.0916 0.4921 0.0
H1303 H 0.37758 0.06329 0.48203 0.0
H1304 H 0.46426 0.08855 0.36436 0.0
H1305 H 0.44309 0.05805 0.35505 0.0
H1306 H 0.4919 0.10071 0.39925 0.0
H1307 H 0.48695 0.11766 0.43296 0.0
C1308 C 0.16384 0.21534 0.68515 0.0
C1309 C 0.16709 0.20171 0.71286 0.0
C1310 C 0.21304 0.17946 0.69685 0.0
C1311 C 0.20926 0.19229 0.66877 0.0
N1312 N 0.17628 0.21375 0.63373 0.0
N1313 N 0.18903 0.16272 0.74087 0.0
C1314 C 0.18294 0.20723 0.66211 0.0
C1315 C 0.18981 0.18108 0.71732 0.0
N1316 N 0.14415 0.23748 0.68115 0.0
N1317 N 0.23922 0.16765 0.7051 0.0
H1318 H 0.17168 0.16245 0.75568 0.0
H1319 H 0.20378 0.14557 0.74367 0.0
H1320 H 0.25746 0.16645 0.69161 0.0
H1321 H 0.24367 0.16136 0.72655 0.0
H1322 H 0.14332 0.24998 0.66213 0.0
H1323 H 0.13067 0.24546 0.69765 0.0
H1324 H 0.1562 0.22248 0.62739 0.0
H1325 H 0.18954 0.2073 0.6163 0.0
C1326 C 0.07757 0.93406 0.96829 0.0
C1327 C 0.05503 0.91267 0.96765 0.0
C1328 C 0.05103 0.91903 0.91485 0.0
C1329 C 0.06684 0.94552 0.91697 0.0
N1330 N 0.10233 0.97398 0.94343 0.0
N1331 N 0.01835 0.88632 0.93999 0.0
C1332 C 0.0825 0.95169 0.94305 0.0
C1333 C 0.04147 0.90522 0.94078 0.0
N1334 N 0.09493 0.93657 0.9925 0.0
N1335 N 0.04599 0.90657 0.88822 0.0
H1336 H 0.00949 0.87661 0.95859 0.0
H1337 H 0.00611 0.88268 0.9211 0.0
H1338 H 0.05565 0.91455 0.86916 0.0
H1339 H 0.03607 0.8862 0.88578 0.0
H1340 H 0.11315 0.9501 0.99376 0.0
H1341 H 0.09257 0.9231 0.01072 0.0
H1342 H 0.11144 0.98254 0.96244 0.0
H1343 H 0.11002 0.98361 0.92425 0.0
C1344 C 0.3153 0.34141 0.20918 0.0
C1345 C 0.293 0.34096 0.18756 0.0
C1346 C 0.32039 0.30413 0.15983 0.0
C1347 C 0.34075 0.30256 0.18321 0.0
N1348 N 0.36623 0.33157 0.21912 0.0
N1349 N 0.27875 0.32933 0.13821 0.0
C1350 C 0.34113 0.32511 0.20434 0.0
C1351 C 0.29695 0.32461 0.16146 0.0
N1352 N 0.31129 0.35554 0.23521 0.0
N1353 N 0.3238 0.2863 0.13614 0.0
H1354 H 0.2623 0.34514 0.13858 0.0
H1355 H 0.28125 0.31954 0.11784 0.0
H1356 H 0.34307 0.27462 0.13252 0.0
H1357 H 0.30802 0.28334 0.12002 0.0
H1358 H 0.32588 0.35358 0.25261 0.0
H1359 H 0.29233 0.36689 0.24063 0.0
H1360 H 0.3679 0.34916 0.23351 0.0
H1361 H 0.38629 0.3223 0.21351 0.0
C1362 C 0.78394 0.18645 0.84443 0.0
C1363 C 0.78144 0.16544 0.82162 0.0
C1364 C 0.83209 0.17497 0.80754 0.0
C1365 C 0.83158 0.20077 0.8245 0.0
N1366 N 0.81416 0.22312 0.86867 0.0
N1367 N 0.80328 0.14048 0.78016 0.0
C1368 C 0.80957 0.20418 0.84604 0.0
C1369 C 0.80577 0.15932 0.80324 0.0
N1370 N 0.76169 0.18943 0.86418 0.0
N1371 N 0.85791 0.16489 0.79647 0.0
H1372 H 0.7842 0.12921 0.77502 0.0
H1373 H 0.81954 0.1381 0.76438 0.0
H1374 H 0.87788 0.17446 0.80192 0.0
H1375 H 0.85986 0.1449 0.7857 0.0
H1376 H 0.76056 0.20572 0.87998 0.0
H1377 H 0.74395 0.17512 0.86487 0.0
H1378 H 0.7994 0.22704 0.88548 0.0
H1379 H 0.8344 0.23305 0.87208 0.0
C1380 C 0.05322 0.56643 0.01256 0.0
C1381 C 0.0492 0.57868 0.04082 0.0
C1382 C 0.08648 0.54583 0.06093 0.0
C1383 C 0.08815 0.53169 0.03342 0.0
N1384 N 0.07036 0.52536 0.98412 0.0
N1385 N 0.06038 0.57988 0.09228 0.0
C1386 C 0.07112 0.54138 0.00939 0.0
C1387 C 0.06545 0.56838 0.06515 0.0
N1388 N 0.03951 0.57829 0.98873 0.0
N1389 N 0.10545 0.53804 0.08269 0.0
H1390 H 0.04633 0.59752 0.09577 0.0
H1391 H 0.06895 0.57122 0.11149 0.0
H1392 H 0.12105 0.52157 0.08011 0.0
H1393 H 0.10735 0.54919 0.10243 0.0
H1394 H 0.04478 0.57283 0.96726 0.0
H1395 H 0.02413 0.595 0.98994 0.0
H1396 H 0.05539 0.52889 0.96734 0.0
H1397 H 0.08304 0.50678 0.98076 0.0
C1398 C 0.68556 0.79442 0.25157 0.0
C1399 C 0.6733 0.79045 0.27982 0.0
C1400 C 0.70283 0.83093 0.29882 0.0
C1401 C 0.71767 0.83225 0.27167 0.0
N1402 N 0.72597 0.81311 0.22315 0.0
N1403 N 0.66993 0.80398 0.3306 0.0
C1404 C 0.70947 0.81381 0.24809 0.0
C1405 C 0.68173 0.80858 0.30353 0.0
N1406 N 0.67494 0.77916 0.22812 0.0
N1407 N 0.70862 0.85144 0.3198 0.0
H1408 H 0.65313 0.78902 0.33434 0.0
H1409 H 0.67752 0.81398 0.34958 0.0
H1410 H 0.72388 0.86813 0.31677 0.0
H1411 H 0.69684 0.85346 0.33915 0.0
H1412 H 0.68046 0.78391 0.20655 0.0
H1413 H 0.65899 0.76303 0.2297 0.0
H1414 H 0.72362 0.79738 0.20687 0.0
H1415 H 0.74381 0.82675 0.21959 0.0
C1416 C 0.90469 0.91821 0.03294 0.0
C1417 C 0.90391 0.94371 0.05069 0.0
C1418 C 0.94274 0.92359 0.08173 0.0
C1419 C 0.94733 0.90171 0.06035 0.0
N1420 N 0.92228 0.86846 0.02825 0.0
N1421 N 0.91743 0.96839 0.09526 0.0
C1422 C 0.92492 0.89581 0.03991 0.0
C1423 C 0.92122 0.94545 0.07646 0.0
N1424 N 0.88798 0.91619 0.00826 0.0
N1425 N 0.95775 0.92227 0.10751 0.0
H1426 H 0.90018 0.9832 0.09313 0.0
H1427 H 0.93128 0.97307 0.11267 0.0
H1428 H 0.97079 0.90434 0.1129 0.0
H1429 H 0.95495 0.93682 0.12476 0.0
H1430 H 0.89083 0.89983 0.99267 0.0
H1431 H 0.87252 0.93175 0.00219 0.0
H1432 H 0.90497 0.86222 0.01482 0.0
H1433 H 0.9351 0.85101 0.03546 0.0
C1434 C 0.20787 0.65812 0.67228 0.0
C1435 C 0.20956 0.64243 0.69904 0.0
C1436 C 0.15945 0.65706 0.71026 0.0
C1437 C 0.16117 0.67903 0.68855 0.0
N1438 N 0.18278 0.69501 0.64332 0.0
N1439 N 0.187 0.62878 0.74506 0.0
C1440 C 0.18409 0.67776 0.66764 0.0
C1441 C 0.1852 0.64191 0.71828 0.0
N1442 N 0.22855 0.65354 0.65117 0.0
N1443 N 0.13321 0.64991 0.72249 0.0
H1444 H 0.20568 0.61831 0.75277 0.0
H1445 H 0.17067 0.63084 0.76083 0.0
H1446 H 0.11348 0.65802 0.71444 0.0
H1447 H 0.13075 0.63267 0.7372 0.0
H1448 H 0.22778 0.6627 0.63038 0.0
H1449 H 0.24549 0.63844 0.65363 0.0
H1450 H 0.20024 0.69837 0.62915 0.0
H1451 H 0.16363 0.7058 0.63718 0.0
C1452 C 0.05433 0.419 0.4538 0.0
C1453 C 0.02629 0.42506 0.46552 0.0
C1454 C 0.04178 0.47431 0.47922 0.0
C1455 C 0.06913 0.46917 0.46543 0.0
N1456 N 0.10049 0.43849 0.43625 0.0
N1457 N 0.9916 0.45922 0.48603 0.0
C1458 C 0.07523 0.44196 0.45184 0.0
C1459 C 0.01945 0.45302 0.47702 0.0
N1460 N 0.06101 0.39125 0.44491 0.0
N1461 N 0.03768 0.49872 0.49604 0.0
H1462 H 0.9749 0.44376 0.48663 0.0
H1463 H 0.98442 0.48025 0.49103 0.0
H1464 H 0.05348 0.51483 0.49879 0.0
H1465 H 0.01969 0.5018 0.50963 0.0
H1466 H 0.08199 0.38456 0.43917 0.0
H1467 H 0.04577 0.37427 0.44496 0.0
H1468 H 0.10497 0.42026 0.42338 0.0
H1469 H 0.11615 0.45495 0.43432 0.0
C1470 C 0.44949 0.56917 0.99826 0.0
C1471 C 0.45007 0.58372 0.97079 0.0
C1472 C 0.41229 0.55086 0.95187 0.0
C1473 C 0.41179 0.53654 0.97933 0.0
N1474 N 0.42334 0.5365 0.0307 0.0
N1475 N 0.42799 0.59321 0.92396 0.0
C1476 C 0.42823 0.54725 0.00322 0.0
C1477 C 0.43009 0.57608 0.94836 0.0
N1478 N 0.47045 0.5747 0.01888 0.0
N1479 N 0.39691 0.53954 0.92888 0.0
H1480 H 0.44066 0.61195 0.92101 0.0
H1481 H 0.41206 0.59041 0.90794 0.0
H1482 H 0.38314 0.52148 0.93094 0.0
H1483 H 0.39902 0.54692 0.90746 0.0
H1484 H 0.47322 0.5621 0.03764 0.0
H1485 H 0.48675 0.59034 0.01636 0.0
H1486 H 0.43257 0.54544 0.0495 0.0
H1487 H 0.40775 0.52042 0.03505 0.0
C1488 C 0.66484 0.78309 0.79853 0.0
C1489 C 0.67446 0.78612 0.82777 0.0
C1490 C 0.67984 0.83895 0.81955 0.0
C1491 C 0.67849 0.83376 0.78894 0.0
N1492 N 0.67271 0.79914 0.74912 0.0
N1493 N 0.68278 0.81845 0.86852 0.0
C1494 C 0.67136 0.80548 0.7783 0.0
C1495 C 0.67932 0.81464 0.83912 0.0
N1496 N 0.64865 0.75945 0.79025 0.0
N1497 N 0.68063 0.86704 0.82975 0.0
H1498 H 0.67727 0.80222 0.88355 0.0
H1499 H 0.69049 0.83763 0.87802 0.0
H1500 H 0.6799 0.88517 0.81593 0.0
H1501 H 0.67955 0.87263 0.85177 0.0
H1502 H 0.63973 0.75734 0.76937 0.0
H1503 H 0.64036 0.74454 0.80538 0.0
H1504 H 0.67048 0.77792 0.7411 0.0
H1505 H 0.67912 0.81414 0.73325 0.0
C1506 C 0.44266 0.4753 0.10425 0.0
C1507 C 0.46894 0.45913 0.1011 0.0
C1508 C 0.44346 0.42316 0.07046 0.0
C1509 C 0.41856 0.44163 0.07072 0.0
N1510 N 0.3899 0.47391 0.10078 0.0
N1511 N 0.4921 0.41315 0.08953 0.0
C1512 C 0.41662 0.464 0.09197 0.0
C1513 C 0.46868 0.43153 0.08674 0.0
N1514 N 0.44273 0.50222 0.11721 0.0
N1515 N 0.44268 0.39766 0.05495 0.0
H1516 H 0.51021 0.41821 0.1024 0.0
H1517 H 0.49287 0.39203 0.08116 0.0
H1518 H 0.42309 0.38894 0.04717 0.0
H1519 H 0.46094 0.3849 0.05036 0.0
H1520 H 0.42459 0.51603 0.11707 0.0
H1521 H 0.46146 0.51192 0.12582 0.0
H1522 H 0.38717 0.48891 0.11772 0.0
H1523 H 0.37056 0.464 0.09381 0.0
C1524 C 0.80291 0.22388 0.29266 0.0
C1525 C 0.80427 0.21662 0.32283 0.0
C1526 C 0.81532 0.16578 0.3103 0.0
C1527 C 0.8145 0.17338 0.28028 0.0
N1528 N 0.81818 0.21148 0.24374 0.0
N1529 N 0.81967 0.18284 0.36032 0.0
C1530 C 0.81223 0.20307 0.27177 0.0
C1531 C 0.81297 0.18819 0.33169 0.0
N1532 N 0.79034 0.24948 0.28359 0.0
N1533 N 0.81792 0.1371 0.31828 0.0
H1534 H 0.81911 0.19908 0.37633 0.0
H1535 H 0.82854 0.16319 0.36765 0.0
H1536 H 0.82187 0.12049 0.30313 0.0
H1537 H 0.81502 0.12974 0.33963 0.0
H1538 H 0.78618 0.25415 0.26168 0.0
H1539 H 0.78087 0.26462 0.29771 0.0
H1540 H 0.81931 0.23335 0.23743 0.0
H1541 H 0.82497 0.19707 0.22751 0.0
C1542 C 0.04534 0.52527 0.58666 0.0
C1543 C 0.02779 0.5506 0.58897 0.0
C1544 C 0.06335 0.57774 0.55968 0.0
C1545 C 0.07714 0.55102 0.55222 0.0
N1546 N 0.07845 0.49799 0.55624 0.0
N1547 N 0.01882 0.60102 0.57605 0.0
C1548 C 0.06787 0.5244 0.56547 0.0
C1549 C 0.03667 0.5771 0.57552 0.0
N1550 N 0.04032 0.50196 0.60466 0.0
N1551 N 0.07577 0.60364 0.55153 0.0
H1552 H -0.00117 0.60124 0.58686 0.0
H1553 H 0.02273 0.61982 0.56381 0.0
H1554 H 0.0956 0.60464 0.54029 0.0
H1555 H 0.06806 0.62391 0.55851 0.0
H1556 H 0.05422 0.48393 0.60579 0.0
H1557 H 0.02409 0.50216 0.62071 0.0
H1558 H 0.06951 0.47811 0.56284 0.0
H1559 H 0.09405 0.49545 0.53993 0.0
C1560 C 0.70855 0.22676 0.70735 0.0
C1561 C 0.69716 0.21915 0.67948 0.0
C1562 C 0.68226 0.1713 0.69844 0.0
C1563 C 0.69146 0.1801 0.72671 0.0
N1564 N 0.70779 0.21833 0.75939 0.0
N1565 N 0.66912 0.18635 0.64924 0.0
C1566 C 0.70258 0.20858 0.73161 0.0
C1567 C 0.68288 0.19196 0.67517 0.0
N1568 N 0.72694 0.25016 0.71038 0.0
N1569 N 0.67322 0.1432 0.69384 0.0
H1570 H 0.66885 0.2012 0.63194 0.0
H1571 H 0.65594 0.16813 0.6457 0.0
H1572 H 0.67108 0.12804 0.71075 0.0
H1573 H 0.66941 0.13446 0.67317 0.0
H1574 H 0.73852 0.25459 0.72949 0.0
H1575 H 0.73337 0.26336 0.69302 0.0
H1576 H 0.71268 0.24005 0.76421 0.0
H1577 H 0.70467 0.20557 0.77797 0.0
C1578 C 0.05932 0.42944 0.93471 0.0
C1579 C 0.08126 0.45067 0.94002 0.0
C1580 C 0.05532 0.48597 0.90928 0.0
C1581 C 0.03319 0.46491 0.90423 0.0
N1582 N 0.01791 0.41447 0.90512 0.0
N1583 N 0.10504 0.49537 0.92423 0.0
C1584 C 0.03637 0.43591 0.91478 0.0
C1585 C 0.08107 0.47754 0.92438 0.0
N1586 N 0.06027 0.40328 0.9491 0.0
N1587 N 0.05093 0.51458 0.90169 0.0
H1588 H 0.12449 0.49051 0.93489 0.0
H1589 H 0.10673 0.51369 0.91081 0.0
H1590 H 0.03207 0.52207 0.89133 0.0
H1591 H 0.06475 0.53147 0.9082 0.0
H1592 H 0.04307 0.38837 0.94925 0.0
H1593 H 0.07813 0.39692 0.96181 0.0
H1594 H 0.02066 0.39239 0.90993 0.0
H1595 H 0.00133 0.41838 0.88996 0.0
C1596 C 0.77888 0.82464 0.16554 0.0
C1597 C 0.80485 0.82541 0.18253 0.0
C1598 C 0.82207 0.78103 0.1579 0.0
C1599 C 0.79377 0.7772 0.14578 0.0
N1600 N 0.74355 0.7935 0.14183 0.0
N1601 N 0.8519 0.80509 0.19457 0.0
C1602 C 0.77182 0.79871 0.15013 0.0
C1603 C 0.82678 0.80388 0.17845 0.0
N1604 N 0.76048 0.84817 0.16454 0.0
N1605 N 0.84451 0.76331 0.14919 0.0
H1606 H 0.85694 0.82279 0.20807 0.0
H1607 H 0.86711 0.78817 0.19542 0.0
H1608 H 0.84193 0.747 0.13345 0.0
H1609 H 0.86619 0.76653 0.15534 0.0
H1610 H 0.74289 0.84949 0.15011 0.0
H1611 H 0.7642 0.86763 0.17567 0.0
H1612 H 0.72616 0.80695 0.1478 0.0
H1613 H 0.73671 0.77431 0.1317 0.0
C1614 C 0.40946 0.55952 0.42126 0.0
C1615 C 0.4133 0.57044 0.44998 0.0
C1616 C 0.46389 0.58362 0.43912 0.0
C1617 C 0.46062 0.57111 0.41083 0.0
N1618 N 0.42881 0.55561 0.37195 0.0
N1619 N 0.44016 0.6018 0.48282 0.0
C1620 C 0.43276 0.56194 0.40088 0.0
C1621 C 0.43905 0.58584 0.45759 0.0
N1622 N 0.38385 0.54602 0.41393 0.0
N1623 N 0.49096 0.59084 0.44959 0.0
H1624 H 0.42263 0.60355 0.49722 0.0
H1625 H 0.45737 0.6158 0.48795 0.0
H1626 H 0.51008 0.58957 0.43736 0.0
H1627 H 0.49493 0.59611 0.47138 0.0
H1628 H 0.38077 0.5344 0.3946 0.0
H1629 H 0.36579 0.54572 0.4279 0.0
H1630 H 0.40856 0.55088 0.36271 0.0
H1631 H 0.44558 0.5578 0.35662 0.0
C1632 C 0.76845 0.72379 0.78118 0.0
C1633 C 0.77657 0.70925 0.80732 0.0
C1634 C 0.82544 0.69981 0.78754 0.0
C1635 C 0.81808 0.71651 0.76244 0.0
N1636 N 0.78463 0.7496 0.73813 0.0
N1637 N 0.81319 0.68638 0.83745 0.0
C1638 C 0.79008 0.72977 0.75988 0.0
C1639 C 0.80524 0.69816 0.81116 0.0
N1640 N 0.74002 0.73199 0.77667 0.0
N1641 N 0.85119 0.68464 0.78828 0.0
H1642 H 0.79856 0.68387 0.85477 0.0
H1643 H 0.83462 0.68084 0.84278 0.0
H1644 H 0.86629 0.68507 0.7712 0.0
H1645 H 0.85657 0.66975 0.80463 0.0
H1646 H 0.73214 0.7393 0.75659 0.0
H1647 H 0.72362 0.7295 0.79226 0.0
H1648 H 0.766 0.76268 0.73743 0.0
H1649 H 0.79988 0.75538 0.72229 0.0
C1650 C 0.55006 0.58691 0.08758 0.0
C1651 C 0.56777 0.56186 0.08387 0.0
C1652 C 0.58104 0.57876 0.03485 0.0
C1653 C 0.55734 0.5989 0.0361 0.0
N1654 N 0.51842 0.62176 0.06405 0.0
N1655 N 0.6108 0.54276 0.0605 0.0
C1656 C 0.54208 0.60352 0.06277 0.0
C1657 C 0.58668 0.56033 0.05937 0.0
N1658 N 0.54179 0.59531 0.115 0.0
N1659 N 0.5977 0.5772 0.01006 0.0
H1660 H 0.61753 0.53271 0.07982 0.0
H1661 H 0.62599 0.54061 0.04375 0.0
H1662 H 0.59567 0.59218 0.99297 0.0
H1663 H 0.61339 0.56123 0.00611 0.0
H1664 H 0.53072 0.61478 0.11926 0.0
H1665 H 0.54965 0.58482 0.13369 0.0
H1666 H 0.50463 0.62282 0.08215 0.0
H1667 H 0.51085 0.63398 0.04642 0.0
C1668 C 0.65632 0.27854 0.30833 0.0
C1669 C 0.66079 0.29496 0.2823 0.0
C1670 C 0.7069 0.31384 0.30182 0.0
C1671 C 0.70207 0.298 0.32806 0.0
N1672 N 0.66795 0.27353 0.35978 0.0
N1673 N 0.68498 0.33567 0.25901 0.0
C1674 C 0.67524 0.28322 0.33248 0.0
C1675 C 0.68427 0.31517 0.28071 0.0
N1676 N 0.63579 0.25686 0.30952 0.0
N1677 N 0.73365 0.32569 0.29574 0.0
H1678 H 0.66848 0.33761 0.24343 0.0
H1679 H 0.70019 0.35262 0.25848 0.0
H1680 H 0.75147 0.32469 0.30984 0.0
H1681 H 0.73898 0.3343 0.27533 0.0
H1682 H 0.63424 0.24227 0.32695 0.0
H1683 H 0.62205 0.25144 0.29225 0.0
H1684 H 0.6475 0.26486 0.36481 0.0
H1685 H 0.68123 0.27718 0.37799 0.0
C1686 C 0.90204 0.46976 0.5529 0.0
C1687 C 0.91073 0.46625 0.58229 0.0
C1688 C 0.92209 0.4148 0.57215 0.0
C1689 C 0.92203 0.42141 0.54181 0.0
N1690 N 0.91264 0.45668 0.50309 0.0
N1691 N 0.92012 0.43318 0.62205 0.0
C1692 C 0.91158 0.44906 0.53197 0.0
C1693 C 0.91776 0.43786 0.59267 0.0
N1694 N 0.88424 0.49239 0.54509 0.0
N1695 N 0.92555 0.38649 0.5811 0.0
H1696 H 0.91298 0.44861 0.63728 0.0
H1697 H 0.92876 0.41428 0.63131 0.0
H1698 H 0.92751 0.36914 0.5664 0.0
H1699 H 0.92404 0.3797 0.60275 0.0
H1700 H 0.87571 0.49474 0.52408 0.0
H1701 H 0.87457 0.50604 0.56059 0.0
H1702 H 0.90825 0.47783 0.49581 0.0
H1703 H 0.92047 0.4431 0.48662 0.0
C1704 C 0.80675 0.30961 0.71915 0.0
C1705 C 0.83024 0.28951 0.71712 0.0
C1706 C 0.81795 0.28112 0.66575 0.0
C1707 C 0.79098 0.29583 0.66994 0.0
N1708 N 0.75801 0.32117 0.70306 0.0
N1709 N 0.85666 0.25347 0.68872 0.0
C1710 C 0.78498 0.30975 0.69711 0.0
C1711 C 0.8358 0.27481 0.69035 0.0
N1712 N 0.80541 0.32893 0.74191 0.0
N1713 N 0.82648 0.27325 0.63823 0.0
H1714 H 0.86956 0.24716 0.70639 0.0
H1715 H 0.85926 0.24006 0.67049 0.0
H1716 H 0.81415 0.27834 0.61971 0.0
H1717 H 0.84708 0.26469 0.63358 0.0
H1718 H 0.79012 0.34581 0.74292 0.0
H1719 H 0.8216 0.33024 0.75792 0.0
H1720 H 0.75196 0.32821 0.72388 0.0
H1721 H 0.74064 0.3212 0.68841 0.0
C1722 C 0.95493 0.58558 0.91082 0.0
C1723 C 0.93663 0.56082 0.91372 0.0
C1724 C 0.92343 0.57725 0.96303 0.0
C1725 C 0.94808 0.59615 0.96262 0.0
N1726 N 0.98813 0.61801 0.9357 0.0
N1727 N 0.89564 0.53907 0.93861 0.0
C1728 C 0.96374 0.60078 0.93626 0.0
C1729 C 0.91822 0.55856 0.93862 0.0
N1730 N 0.96307 0.59508 0.88374 0.0
N1731 N 0.90473 0.57797 0.98635 0.0
H1732 H 0.8879 0.52955 0.9194 0.0
H1733 H 0.88393 0.53311 0.95717 0.0
H1734 H 0.90742 0.59243 0.0038 0.0
H1735 H 0.8854 0.5661 0.98763 0.0
H1736 H 0.97482 0.6143 0.88037 0.0
H1737 H 0.9544 0.586 0.86468 0.0
H1738 H 0.00193 0.61918 0.91761 0.0
H1739 H 0.99609 0.62915 0.95388 0.0
C1740 C 0.65633 0.70288 0.18098 0.0
C1741 C 0.6625 0.68681 0.20683 0.0
C1742 C 0.70651 0.66641 0.18441 0.0
C1743 C 0.70043 0.68254 0.15851 0.0
N1744 N 0.66496 0.7078 0.12892 0.0
N1745 N 0.68703 0.64599 0.22922 0.0
C1746 C 0.67368 0.69792 0.15573 0.0
C1747 C 0.68541 0.66601 0.2071 0.0
N1748 N 0.63554 0.72434 0.18092 0.0
N1749 N 0.73314 0.65351 0.18865 0.0
H1750 H 0.67149 0.64496 0.2459 0.0
H1751 H 0.70177 0.6286 0.2292 0.0
H1752 H 0.74992 0.65365 0.17332 0.0
H1753 H 0.73957 0.64467 0.20864 0.0
H1754 H 0.63289 0.739 0.16369 0.0
H1755 H 0.62237 0.72917 0.19884 0.0
H1756 H 0.64445 0.71696 0.1251 0.0
H1757 H 0.67705 0.70388 0.10996 0.0
C1758 C 0.5687 0.46224 0.44358 0.0
C1759 C 0.54482 0.4697 0.42529 0.0
C1760 C 0.5134 0.43482 0.45092 0.0
C1761 C 0.53765 0.42623 0.46825 0.0
N1762 N 0.58943 0.42749 0.47796 0.0
N1763 N 0.49606 0.45955 0.40754 0.0
C1764 C 0.56567 0.43872 0.46369 0.0
C1765 C 0.51778 0.45465 0.42751 0.0
N1766 N 0.59407 0.47795 0.44199 0.0
N1767 N 0.4858 0.42578 0.45811 0.0
H1768 H 0.4976 0.47489 0.39079 0.0
H1769 H 0.47734 0.44668 0.40609 0.0
H1770 H 0.48128 0.41192 0.47562 0.0
H1771 H 0.46694 0.43418 0.44851 0.0
H1772 H 0.61106 0.47595 0.45701 0.0
H1773 H 0.59752 0.49425 0.42641 0.0
H1774 H 0.61086 0.43371 0.47355 0.0
H1775 H 0.58797 0.41003 0.49257 0.0
C1776 C 0.79589 0.84453 0.7309 0.0
C1777 C 0.77996 0.85562 0.70679 0.0
C1778 C 0.81292 0.83034 0.67293 0.0
C1779 C 0.82576 0.81562 0.69701 0.0
N1780 N 0.82649 0.80576 0.74918 0.0
N1781 N 0.77266 0.85986 0.65483 0.0
C1782 C 0.81693 0.82229 0.72614 0.0
C1783 C 0.7884 0.84886 0.67774 0.0
N1784 N 0.79046 0.85466 0.75851 0.0
N1785 N 0.82466 0.82702 0.64565 0.0
H1786 H 0.75598 0.87518 0.6576 0.0
H1787 H 0.77527 0.853 0.63328 0.0
H1788 H 0.84298 0.814 0.64168 0.0
H1789 H 0.81801 0.83903 0.6275 0.0
H1790 H 0.80386 0.84999 0.77633 0.0
H1791 H 0.77412 0.86976 0.76338 0.0
H1792 H 0.81759 0.80711 0.77009 0.0
H1793 H 0.84118 0.78852 0.7473 0.0
C1794 C 0.31357 0.64206 0.28773 0.0
C1795 C 0.28751 0.6471 0.30375 0.0
C1796 C 0.30934 0.6896 0.32766 0.0
C1797 C 0.33497 0.68539 0.31066 0.0
N1798 N 0.36525 0.65286 0.28255 0.0
N1799 N 0.26432 0.66847 0.34584 0.0
C1800 C 0.33834 0.65984 0.29348 0.0
C1801 C 0.2868 0.66841 0.32618 0.0
N1802 N 0.31411 0.62195 0.26564 0.0
N1803 N 0.30527 0.71478 0.34325 0.0
H1804 H 0.24761 0.65298 0.34521 0.0
H1805 H 0.26392 0.68176 0.36434 0.0
H1806 H 0.32095 0.73113 0.34517 0.0
H1807 H 0.28537 0.72045 0.35277 0.0
H1808 H 0.33137 0.62004 0.25091 0.0
H1809 H 0.29659 0.60825 0.26079 0.0
H1810 H 0.36975 0.63325 0.27189 0.0
H1811 H 0.38377 0.6655 0.28689 0.0
C1812 C 0.55801 0.07244 0.48971 0.0
C1813 C 0.55302 0.08682 0.51679 0.0
C1814 C 0.59613 0.06295 0.53792 0.0
C1815 C 0.59873 0.04577 0.51228 0.0
N1816 N 0.58145 0.03265 0.46401 0.0
N1817 N 0.56676 0.09658 0.5667 0.0
C1818 C 0.57996 0.05056 0.48795 0.0
C1819 C 0.57206 0.08244 0.54088 0.0
N1820 N 0.54127 0.07906 0.4658 0.0
N1821 N 0.61714 0.06091 0.5591 0.0
H1822 H 0.55054 0.11246 0.569 0.0
H1823 H 0.57754 0.09186 0.58617 0.0
H1824 H 0.63524 0.04713 0.55711 0.0
H1825 H 0.61816 0.07443 0.57736 0.0
H1826 H 0.54647 0.07257 0.44461 0.0
H1827 H 0.52292 0.09248 0.46652 0.0
H1828 H 0.56564 0.03198 0.44766 0.0
H1829 H 0.59743 0.01677 0.46108 0.0
C1830 C 0.20743 0.31705 0.83439 0.0
C1831 C 0.21365 0.33362 0.80885 0.0
C1832 C 0.16492 0.32235 0.79031 0.0
C1833 C 0.16247 0.2994 0.81086 0.0
N1834 N 0.17707 0.28016 0.85766 0.0
N1835 N 0.19872 0.34894 0.76021 0.0
C1836 C 0.1824 0.29843 0.83468 0.0
C1837 C 0.19237 0.33589 0.78633 0.0
N1838 N 0.22484 0.31995 0.85852 0.0
N1839 N 0.141 0.33178 0.77516 0.0
H1840 H 0.21921 0.3573 0.75493 0.0
H1841 H 0.18439 0.34841 0.74248 0.0
H1842 H 0.11995 0.3246 0.78014 0.0
H1843 H 0.14162 0.34975 0.76114 0.0
H1844 H 0.22045 0.3102 0.87859 0.0
H1845 H 0.2425 0.33436 0.85927 0.0
H1846 H 0.19244 0.2751 0.87367 0.0
H1847 H 0.15674 0.27033 0.86082 0.0
C1848 C 0.42176 0.46087 0.57204 0.0
C1849 C 0.40556 0.46217 0.54556 0.0
C1850 C 0.41916 0.41166 0.53517 0.0
C1851 C 0.4417 0.41365 0.55623 0.0
N1852 N 0.45821 0.43543 0.60124 0.0
N1853 N 0.38955 0.43855 0.5009 0.0
C1854 C 0.441 0.43681 0.57691 0.0
C1855 C 0.40392 0.43731 0.52708 0.0
N1856 N 0.41785 0.48209 0.59274 0.0
N1857 N 0.41183 0.38517 0.52356 0.0
H1858 H 0.37891 0.45719 0.49328 0.0
H1859 H 0.39057 0.42176 0.48551 0.0
H1860 H 0.42086 0.36571 0.53137 0.0
H1861 H 0.39413 0.38227 0.5095 0.0
H1862 H 0.42755 0.48186 0.6133 0.0
H1863 H 0.40274 0.49898 0.59018 0.0
H1864 H 0.46206 0.45302 0.61514 0.0
H1865 H 0.46807 0.41599 0.60796 0.0
C1866 C 0.70369 0.21802 0.19337 0.0
C1867 C 0.67522 0.20754 0.187 0.0
C1868 C 0.69429 0.15757 0.18342 0.0
C1869 C 0.72176 0.16769 0.19368 0.0
N1870 N 0.75048 0.20668 0.21484 0.0
N1871 N 0.64237 0.16745 0.17794 0.0
C1872 C 0.72604 0.19773 0.20011 0.0
C1873 C 0.6702 0.17729 0.18252 0.0
N1874 N 0.70938 0.24737 0.19357 0.0
N1875 N 0.69146 0.12941 0.17383 0.0
H1876 H 0.62457 0.18156 0.17569 0.0
H1877 H 0.63673 0.1454 0.17788 0.0
H1878 H 0.70879 0.11456 0.17388 0.0
H1879 H 0.67276 0.12148 0.16355 0.0
H1880 H 0.73045 0.25589 0.19504 0.0
H1881 H 0.6936 0.26326 0.18946 0.0
H1882 H 0.75315 0.22777 0.223 0.0
H1883 H 0.76666 0.19234 0.22197 0.0
C1884 C 0.58509 0.93616 0.96345 0.0
C1885 C 0.58261 0.9637 0.94926 0.0
C1886 C 0.54732 0.94274 0.91456 0.0
C1887 C 0.54664 0.91709 0.9319 0.0
N1888 N 0.5765 0.8841 0.95984 0.0
N1889 N 0.56545 0.99242 0.90844 0.0
C1890 C 0.56935 0.91205 0.9522 0.0
C1891 C 0.56511 0.96668 0.92367 0.0
N1892 N 0.60048 0.93334 0.98893 0.0
N1893 N 0.53249 0.94323 0.88864 0.0
H1894 H 0.58016 0.00924 0.913 0.0
H1895 H 0.5512 0.99745 0.89147 0.0
H1896 H 0.52289 0.92446 0.87994 0.0
H1897 H 0.53225 0.96079 0.87422 0.0
H1898 H 0.5999 0.91447 0.00168 0.0
H1899 H 0.61168 0.95046 -0.0011 0.0
H1900 H 0.59445 0.87894 0.97291 0.0
H1901 H 0.56691 0.86604 0.9497 0.0
C1902 C 0.97789 0.04202 0.46459 0.0
C1903 C 0.9726 0.06766 0.44792 0.0
C1904 C 0.92839 0.04555 0.42718 0.0
C1905 C 0.93473 0.01936 0.44258 0.0
N1906 N 0.96774 0.99079 0.47253 0.0
N1907 N 0.94565 0.09297 0.41047 0.0
C1908 C 0.96034 0.01692 0.45996 0.0
C1909 C 0.9486 0.06921 0.42837 0.0
N1910 N -0.00166 0.04229 0.48641 0.0
N1911 N 0.90289 0.04784 0.41174 0.0
H1912 H 0.96006 0.11064 0.41098 0.0
H1913 H 0.93034 0.09434 0.39369 0.0
H1914 H 0.88848 0.03036 0.40905 0.0
H1915 H 0.89525 0.06732 0.40279 0.0
H1916 H 0.00082 0.02559 0.50168 0.0
H1917 H 0.01112 0.06046 0.49121 0.0
H1918 H 0.98799 0.98681 0.48215 0.0
H1919 H 0.95465 0.9722 0.47171 0.0
C1920 C 0.124 0.13758 0.4194 0.0
C1921 C 0.09761 0.15287 0.41413 0.0
C1922 C 0.12317 0.18556 0.38055 0.0
C1923 C 0.15016 0.17439 0.3909 0.0
N1924 N 0.1767 0.14023 0.42141 0.0
N1925 N 0.07141 0.19173 0.38988 0.0
C1926 C 0.1508 0.15005 0.41014 0.0
C1927 C 0.0968 0.1766 0.39423 0.0
N1928 N 0.12328 0.11119 0.43341 0.0
N1929 N 0.12295 0.20471 0.35764 0.0
H1930 H 0.05157 0.18564 0.39926 0.0
H1931 H 0.07035 0.21136 0.37839 0.0
H1932 H 0.14208 0.21098 0.34691 0.0
H1933 H 0.10389 0.2119 0.34745 0.0
H1934 H 0.1415 0.09769 0.43559 0.0
H1935 H 0.10376 0.10148 0.44014 0.0
H1936 H 0.17798 0.12504 0.43833 0.0
H1937 H 0.19698 0.14864 0.41546 0.0
C1938 C 0.08352 0.8585 0.61634 0.0
C1939 C 0.09333 0.88452 0.62973 0.0
C1940 C 0.12721 0.85637 0.65994 0.0
C1941 C 0.11255 0.83047 0.65136 0.0
N1942 N 0.07611 0.80644 0.62144 0.0
N1943 N 0.12524 0.90921 0.66365 0.0
C1944 C 0.09103 0.8312 0.62899 0.0
C1945 C 0.11595 0.88384 0.65088 0.0
N1946 N 0.06684 0.86013 0.59164 0.0
N1947 N 0.15173 0.8545 0.67692 0.0
H1948 H 0.11802 0.92977 0.65697 0.0
H1949 H 0.13899 0.90984 0.68179 0.0
H1950 H 0.16046 0.83445 0.68352 0.0
H1951 H 0.16486 0.87236 0.68205 0.0
H1952 H 0.0608 0.84195 0.57932 0.0
H1953 H 0.06185 0.88013 0.58185 0.0
H1954 H 0.05774 0.80655 0.60799 0.0
H1955 H 0.08078 0.78588 0.63001 0.0
C1956 C 0.36739 0.87938 0.9055 0.0
C1957 C 0.39311 0.86617 0.8945 0.0
C1958 C 0.3636 0.83492 0.86288 0.0
C1959 C 0.33861 0.84295 0.87922 0.0
N1960 N 0.31571 0.87383 0.91543 0.0
N1961 N 0.4164 0.83204 0.86158 0.0
C1962 C 0.33996 0.86612 0.89977 0.0
C1963 C 0.39151 0.84472 0.87217 0.0
N1964 N 0.36952 0.90427 0.92188 0.0
N1965 N 0.36045 0.81751 0.83881 0.0
H1966 H 0.43731 0.83899 0.86729 0.0
H1967 H 0.41637 0.81363 0.84818 0.0
H1968 H 0.33999 0.8103 0.83168 0.0
H1969 H 0.37746 0.8127 0.82446 0.0
H1970 H 0.35152 0.91641 0.92872 0.0
H1971 H 0.38961 0.91427 0.9261 0.0
H1972 H 0.31628 0.88792 0.9333 0.0
H1973 H 0.29508 0.86502 0.91153 0.0
C1974 C 0.39727 0.14088 0.13707 0.0
C1975 C 0.37785 0.14408 0.16104 0.0
C1976 C 0.37352 0.09097 0.16567 0.0
C1977 C 0.39436 0.08788 0.1429 0.0
N1978 N 0.41779 0.10831 0.10057 0.0
N1979 N 0.34067 0.12346 0.19189 0.0
C1980 C 0.4033 0.11242 0.12637 0.0
C1981 C 0.36359 0.11943 0.17316 0.0
N1982 N 0.41174 0.16457 0.12601 0.0
N1983 N 0.36473 0.06714 0.18138 0.0
H1984 H 0.33291 0.14424 0.19733 0.0
H1985 H 0.32766 0.1065 0.1997 0.0
H1986 H 0.37059 0.04581 0.17597 0.0
H1987 H 0.35271 0.06855 0.20065 0.0
H1988 H 0.42889 0.1629 0.11114 0.0
H1989 H 0.40802 0.18592 0.13298 0.0
H1990 H 0.42274 0.12522 0.08615 0.0
H1991 H 0.42212 0.08749 0.09225 0.0
C1992 C 0.13478 0.84403 0.13068 0.0
C1993 C 0.16023 0.85032 0.11425 0.0
C1994 C 0.13213 0.8835 0.08332 0.0
C1995 C 0.10615 0.87165 0.09508 0.0
N1996 N 0.08192 0.84148 0.13096 0.0
N1997 N 0.18393 0.8766 0.07506 0.0
C1998 C 0.10714 0.85278 0.11964 0.0
C1999 C 0.15937 0.87087 0.09107 0.0
N2000 N 0.13723 0.82942 0.15662 0.0
N2001 N 0.13044 0.90659 0.06448 0.0
H2002 H 0.2044 0.86801 0.08017 0.0
H2003 H 0.18372 0.88858 0.05571 0.0
H2004 H 0.11047 0.91638 0.05931 0.0
H2005 H 0.14863 0.91779 0.05663 0.0
H2006 H 0.1198 0.82619 0.1709 0.0
H2007 H 0.15744 0.82306 0.16513 0.0
H2008 H 0.08149 0.82466 0.14629 0.0
H2009 H 0.06121 0.84795 0.12403 0.0
C2010 C 0.37586 0.87764 0.35839 0.0
C2011 C 0.40137 0.88146 0.37565 0.0
C2012 C 0.41112 0.82897 0.37457 0.0
C2013 C 0.38743 0.82563 0.35499 0.0
N2014 N 0.34186 0.84363 0.33584 0.0
N2015 N 0.43727 0.8609 0.40802 0.0
C2016 C 0.36774 0.84892 0.34979 0.0
C2017 C 0.41686 0.85698 0.38655 0.0
N2018 N 0.36092 0.90143 0.34817 0.0
N2019 N 0.42881 0.80561 0.38046 0.0
H2020 H 0.44138 0.88141 0.41718 0.0
H2021 H 0.44811 0.84383 0.41846 0.0
H2022 H 0.42403 0.78455 0.37306 0.0
H2023 H 0.44849 0.80716 0.39178 0.0
H2024 H 0.3446 0.90024 0.33235 0.0
H2025 H 0.36567 0.92278 0.3545 0.0
H2026 H 0.32542 0.85919 0.33347 0.0
H2027 H 0.33569 0.82277 0.32902 0.0
C2028 C 0.4085 0.15289 0.60477 0.0
C2029 C 0.40741 0.13222 0.58169 0.0
C2030 C 0.35414 0.12993 0.58498 0.0
C2031 C 0.35511 0.15215 0.60659 0.0
N2032 N 0.38222 0.17731 0.6439 0.0
N2033 N 0.38134 0.09398 0.55691 0.0
C2034 C 0.38209 0.16094 0.61891 0.0
C2035 C 0.38083 0.1182 0.57439 0.0
N2036 N 0.43419 0.16651 0.61163 0.0
N2037 N 0.32806 0.12171 0.57294 0.0
H2038 H 0.4009 0.08503 0.54923 0.0
H2039 H 0.36299 0.08127 0.55249 0.0
H2040 H 0.30795 0.12944 0.58032 0.0
H2041 H 0.3264 0.10839 0.55455 0.0
H2042 H 0.43552 0.18447 0.62556 0.0
H2043 H 0.45416 0.16086 0.60226 0.0
H2044 H 0.40115 0.18248 0.65543 0.0
H2045 H 0.36294 0.18322 0.65462 0.0
C2046 C 0.11447 0.13055 0.84513 0.0
C2047 C 0.09648 0.14783 0.82672 0.0
C2048 C 0.05938 0.10965 0.8259 0.0
C2049 C 0.07597 0.09323 0.84634 0.0
N2050 N 0.11705 0.08996 0.87928 0.0
N2051 N 0.04843 0.15766 0.80719 0.0
C2052 C 0.10294 0.1042 0.85712 0.0
C2053 C 0.06787 0.13857 0.81951 0.0
N2054 N 0.14272 0.13873 0.85027 0.0
N2055 N 0.03652 0.09721 0.81116 0.0
H2056 H 0.05343 0.17956 0.80338 0.0
H2057 H 0.02643 0.15264 0.804 0.0
H2058 H 0.03043 0.07539 0.81356 0.0
H2059 H 0.02579 0.1076 0.79395 0.0
H2060 H 0.15785 0.12545 0.86091 0.0
H2061 H 0.1516 0.15807 0.8421 0.0
H2062 H 0.1353 0.0984 0.88995 0.0
H2063 H 0.10903 0.0708 0.88868 0.0
C2064 C 0.176 0.36518 0.10671 0.0
C2065 C 0.16216 0.37309 0.13316 0.0
C2066 C 0.12054 0.39243 0.10589 0.0
C2067 C 0.13762 0.39116 0.08018 0.0
N2068 N 0.18089 0.37458 0.05487 0.0
N2069 N 0.12011 0.39165 0.15893 0.0
C2070 C 0.16477 0.37615 0.07997 0.0
C2071 C 0.13363 0.38516 0.13309 0.0
N2072 N 0.20015 0.34761 0.10749 0.0
N2073 N 0.09211 0.4014 0.10405 0.0
H2074 H 0.12884 0.38588 0.17918 0.0
H2075 H 0.10084 0.40366 0.16043 0.0
H2076 H 0.08248 0.40675 0.08404 0.0
H2077 H 0.07757 0.40102 0.12155 0.0
H2078 H 0.21019 0.33912 0.08891 0.0
H2079 H 0.20834 0.33925 0.1271 0.0
H2080 H 0.20254 0.36757 0.05424 0.0
H2081 H 0.17301 0.38141 0.03463 0.0
C2082 C 0.66263 0.13532 0.90118 0.0
C2083 C 0.64997 0.12722 0.87417 0.0
C2084 C 0.61083 0.10191 0.90012 0.0
C2085 C 0.62774 0.10345 0.92593 0.0
N2086 N 0.66931 0.12299 0.95213 0.0
N2087 N 0.61079 0.10401 0.84729 0.0
C2088 C 0.65306 0.12133 0.92712 0.0
C2089 C 0.62316 0.11164 0.8734 0.0
N2090 N 0.68413 0.15603 0.9017 0.0
N2091 N 0.58332 0.09036 0.90131 0.0
H2092 H 0.61871 0.11107 0.82716 0.0
H2093 H 0.59342 0.08942 0.84545 0.0
H2094 H 0.57413 0.08316 0.92094 0.0
H2095 H 0.5688 0.09061 0.88377 0.0
H2096 H 0.69277 0.16469 0.9209 0.0
H2097 H 0.69111 0.16664 0.88273 0.0
H2098 H 0.69004 0.13235 0.95298 0.0
H2099 H 0.66277 0.11386 0.97191 0.0
C2100 C 0.87496 0.90052 0.32714 0.0
C2101 C 0.85348 0.87819 0.32671 0.0
C2102 C 0.85488 0.87444 0.37996 0.0
C2103 C 0.87477 0.89822 0.38051 0.0
N2104 N 0.911 0.92703 0.3557 0.0
N2105 N 0.83057 0.83747 0.35061 0.0
C2106 C 0.88738 0.90881 0.35433 0.0
C2107 C 0.84622 0.86284 0.35253 0.0
N2108 N 0.88181 0.91531 0.3021 0.0
N2109 N 0.8425 0.8645 0.40527 0.0
H2110 H 0.82418 0.8287 0.33051 0.0
H2111 H 0.82653 0.82383 0.36837 0.0
H2112 H 0.8484 0.87212 0.42589 0.0
H2113 H 0.82513 0.84981 0.40578 0.0
H2114 H 0.89439 0.93427 0.3018 0.0
H2115 H 0.87372 0.90951 0.28162 0.0
H2116 H 0.92281 0.93367 0.33741 0.0
H2117 H 0.92049 0.93313 0.37556 0.0
C2118 C 0.86577 0.07906 0.14262 0.0
C2119 C 0.84502 0.10212 0.14193 0.0
C2120 C 0.84471 0.10158 0.08856 0.0
C2121 C 0.86422 0.07746 0.08931 0.0
N2122 N 0.90077 0.05006 0.11528 0.0
N2123 N 0.82255 0.14158 0.11547 0.0
C2124 C 0.87743 0.06871 0.11586 0.0
C2125 C 0.8373 0.1156 0.11519 0.0
N2126 N 0.87252 0.06547 0.16837 0.0
N2127 N 0.83143 0.1096 0.06302 0.0
H2128 H 0.81711 0.15226 0.13491 0.0
H2129 H 0.81841 0.15384 0.09673 0.0
H2130 H 0.8364 0.10029 0.04286 0.0
H2131 H 0.81417 0.12444 0.06203 0.0
H2132 H 0.88457 0.04618 0.16953 0.0
H2133 H 0.86459 0.07232 0.18859 0.0
H2134 H 0.91293 0.04461 0.13375 0.0
H2135 H 0.90971 0.04244 0.09569 0.0
C2136 C 0.37559 0.5729 0.62403 0.0
C2137 C 0.36257 0.58453 0.59854 0.0
C2138 C 0.33265 0.61728 0.62829 0.0
C2139 C 0.34102 0.60116 0.65336 0.0
N2140 N 0.37078 0.56386 0.67598 0.0
N2141 N 0.32975 0.61866 0.57538 0.0
C2142 C 0.36318 0.57951 0.65168 0.0
C2143 C 0.3419 0.60754 0.60033 0.0
N2144 N 0.39966 0.5554 0.6215 0.0
N2145 N 0.31569 0.64169 0.63144 0.0
H2146 H 0.33675 0.61268 0.55453 0.0
H2147 H 0.31192 0.63281 0.57526 0.0
H2148 H 0.30886 0.64923 0.65188 0.0
H2149 H 0.31065 0.65585 0.61434 0.0
H2150 H 0.41168 0.54782 0.63928 0.0
H2151 H 0.40923 0.55095 0.60125 0.0
H2152 H 0.38413 0.54543 0.67539 0.0
H2153 H 0.36247 0.56833 0.69672 0.0
C2154 C 0.13076 0.60647 0.35648 0.0
C2155 C 0.16134 0.61037 0.35339 0.0
C2156 C 0.16796 0.60249 0.40583 0.0
C2157 C 0.13856 0.59324 0.4077 0.0
N2158 N 0.09134 0.58623 0.38571 0.0
N2159 N 0.20992 0.60713 0.37436 0.0
C2160 C 0.11962 0.5955 0.38333 0.0
C2161 C 0.18022 0.60767 0.37794 0.0
N2162 N 0.11251 0.61349 0.33388 0.0
N2163 N 0.18446 0.60525 0.4306 0.0
H2164 H 0.22018 0.60857 0.3541 0.0
H2165 H 0.22444 0.60199 0.39114 0.0
H2166 H 0.17627 0.60099 0.45143 0.0
H2167 H 0.20527 0.61449 0.43071 0.0
H2168 H 0.08982 0.61346 0.33558 0.0
H2169 H 0.12018 0.62184 0.31408 0.0
H2170 H 0.07728 0.58401 0.36795 0.0
H2171 H 0.08233 0.57959 0.40561 0.0
C2172 C 0.36622 0.37991 0.91296 0.0
C2173 C 0.36807 0.41077 0.9159 0.0
C2174 C 0.35505 0.41644 0.86437 0.0
C2175 C 0.34781 0.38645 0.8632 0.0
N2176 N 0.34579 0.33906 0.88584 0.0
N2177 N 0.35851 0.45883 0.89529 0.0
C2178 C 0.35345 0.36788 0.88727 0.0
C2179 C 0.36149 0.42926 0.89174 0.0
N2180 N 0.37701 0.36226 0.9345 0.0
N2181 N 0.35509 0.43284 0.8394 0.0
H2182 H 0.36065 0.46953 0.91525 0.0
H2183 H 0.35054 0.47254 0.87894 0.0
H2184 H 0.35028 0.42406 0.81892 0.0
H2185 H 0.36278 0.45427 0.83864 0.0
H2186 H 0.37849 0.33962 0.93259 0.0
H2187 H 0.38705 0.37054 0.95325 0.0
H2188 H 0.34621 0.32506 0.90379 0.0
H2189 H 0.33761 0.32952 0.86678 0.0
C2190 C 0.58802 0.65114 0.87435 0.0
C2191 C 0.58929 0.63168 0.89845 0.0
C2192 C 0.64259 0.63039 0.89606 0.0
C2193 C 0.64136 0.65227 0.87417 0.0
N2194 N 0.6147 0.67576 0.83557 0.0
N2195 N 0.6157 0.59507 0.92521 0.0
C2196 C 0.61453 0.65976 0.86079 0.0
C2197 C 0.61602 0.61847 0.90666 0.0
N2198 N 0.56197 0.66321 0.86608 0.0
N2199 N 0.66877 0.62284 0.9083 0.0
H2200 H 0.59617 0.58616 0.933 0.0
H2201 H 0.63421 0.58296 0.93058 0.0
H2202 H 0.68872 0.63062 0.90054 0.0
H2203 H 0.67071 0.60984 0.92688 0.0
H2204 H 0.5602 0.68041 0.85128 0.0
H2205 H 0.54198 0.65679 0.87487 0.0
H2206 H 0.59604 0.68023 0.82333 0.0
H2207 H 0.63417 0.68216 0.8255 0.0
C2208 C 0.61003 0.36237 0.13816 0.0
C2209 C 0.61187 0.35653 0.16864 0.0
C2210 C 0.59542 0.40597 0.17967 0.0
C2211 C 0.59534 0.41264 0.14941 0.0
N2212 N 0.60807 0.39937 0.1001 0.0
N2213 N 0.61559 0.37568 0.21772 0.0
C2214 C 0.60458 0.39153 0.1287 0.0
C2215 C 0.60781 0.37939 0.18912 0.0
N2216 N 0.61149 0.34003 0.11838 0.0
N2217 N 0.58131 0.42359 0.19927 0.0
H2218 H 0.62515 0.3565 0.22547 0.0
H2219 H 0.61544 0.39272 0.23287 0.0
H2220 H 0.56932 0.44195 0.19315 0.0
H2221 H 0.57847 0.41798 0.22118 0.0
H2222 H 0.60697 0.3427 0.09622 0.0
H2223 H 0.61498 0.31832 0.12428 0.0
H2224 H 0.61735 0.38566 0.08445 0.0
H2225 H 0.60412 0.42058 0.09266 0.0
C2226 C 0.87231 0.32428 0.38004 0.0
C2227 C 0.84493 0.33471 0.38999 0.0
C2228 C 0.86943 0.37134 0.42 0.0
C2229 C 0.89603 0.35625 0.41545 0.0
N2230 N 0.92419 0.31976 0.38992 0.0
N2231 N 0.81655 0.36939 0.41784 0.0
C2232 C 0.89811 0.33362 0.39446 0.0
C2233 C 0.84317 0.35921 0.40886 0.0
N2234 N 0.87332 0.3052 0.35709 0.0
N2235 N 0.86951 0.39696 0.43537 0.0
H2236 H 0.79685 0.36147 0.40958 0.0
H2237 H 0.81387 0.38477 0.4344 0.0
H2238 H 0.88878 0.40615 0.44348 0.0
H2239 H 0.85125 0.41036 0.43767 0.0
H2240 H 0.89264 0.29832 0.34723 0.0
H2241 H 0.85446 0.29849 0.34611 0.0
H2242 H 0.92639 0.30075 0.37759 0.0
H2243 H 0.94364 0.32665 0.39961 0.0
C2244 C 0.86289 0.65247 0.62758 0.0
C2245 C 0.88229 0.67631 0.63072 0.0
C2246 C 0.92371 0.64581 0.61705 0.0
C2247 C 0.90462 0.62135 0.61544 0.0
N2248 N 0.8557 0.60261 0.61072 0.0
N2249 N 0.92831 0.69859 0.6187 0.0
C2250 C 0.87396 0.62518 0.6177 0.0
C2251 C 0.91166 0.67399 0.62155 0.0
N2252 N 0.83431 0.65574 0.63553 0.0
N2253 N 0.95333 0.64195 0.61738 0.0
H2254 H 0.91992 0.71948 0.62232 0.0
H2255 H 0.94932 0.69849 0.60991 0.0
H2256 H 0.96326 0.62157 0.61575 0.0
H2257 H 0.9681 0.65866 0.62197 0.0
H2258 H 0.81958 0.63846 0.63713 0.0
H2259 H 0.82567 0.67604 0.64147 0.0
H2260 H 0.83304 0.60455 0.6099 0.0
H2261 H 0.86352 0.58251 0.60319 0.0
C2262 C 0.59416 0.3344 0.60726 0.0
C2263 C 0.59448 0.35722 0.58622 0.0
C2264 C 0.64794 0.35651 0.58519 0.0
C2265 C 0.64753 0.33333 0.60577 0.0
N2266 N 0.62172 0.30681 0.64314 0.0
N2267 N 0.62079 0.39565 0.5618 0.0
C2268 C 0.62104 0.32458 0.61913 0.0
C2269 C 0.62118 0.37024 0.57752 0.0
N2270 N 0.56863 0.32053 0.61423 0.0
N2271 N 0.67338 0.36402 0.57145 0.0
H2272 H 0.60135 0.40624 0.55618 0.0
H2273 H 0.63951 0.40764 0.55691 0.0
H2274 H 0.69351 0.3546 0.57646 0.0
H2275 H 0.67427 0.37825 0.5537 0.0
H2276 H 0.56783 0.30139 0.62655 0.0
H2277 H 0.54831 0.32673 0.60605 0.0
H2278 H 0.60325 0.30178 0.65547 0.0
H2279 H 0.64127 0.29961 0.65247 0.0
C2280 C 0.91309 0.36874 0.81163 0.0
C2281 C 0.89239 0.35431 0.82962 0.0
C2282 C 0.89551 0.39388 0.86561 0.0
C2283 C 0.91436 0.40928 0.84635 0.0
N2284 N 0.93551 0.41442 0.79813 0.0
N2285 N 0.8608 0.3541 0.87169 0.0
C2286 C 0.92146 0.39762 0.8185 0.0
C2287 C 0.88265 0.36716 0.85608 0.0
N2288 N 0.92599 0.3544 0.78874 0.0
N2289 N 0.89099 0.40407 0.89333 0.0
H2290 H 0.85132 0.33433 0.86538 0.0
H2291 H 0.85062 0.36382 0.88958 0.0
H2292 H 0.90013 0.42348 0.90103 0.0
H2293 H 0.88001 0.39228 0.9094 0.0
H2294 H 0.94378 0.36277 0.77726 0.0
H2295 H 0.92113 0.3329 0.78296 0.0
H2296 H 0.93798 0.40813 0.77637 0.0
H2297 H 0.94217 0.43585 0.80198 0.0
C2298 C 0.85057 0.62632 0.08988 0.0
C2299 C 0.84696 0.65138 0.10766 0.0
C2300 C 0.89978 0.65652 0.11324 0.0
C2301 C 0.90338 0.6334 0.09293 0.0
N2302 N 0.88421 0.59067 0.06926 0.0
N2303 N 0.86626 0.68449 0.14356 0.0
C2304 C 0.87929 0.61623 0.08395 0.0
C2305 C 0.87108 0.66437 0.12199 0.0
N2306 N 0.82673 0.61355 0.07717 0.0
N2307 N 0.9235 0.67224 0.12233 0.0
H2308 H 0.84521 0.69025 0.15027 0.0
H2309 H 0.88273 0.69343 0.15646 0.0
H2310 H 0.94489 0.66636 0.11711 0.0
H2311 H 0.92206 0.69166 0.13409 0.0
H2312 H 0.82802 0.59734 0.06125 0.0
H2313 H 0.80537 0.62001 0.08189 0.0
H2314 H 0.86784 0.57593 0.06363 0.0
H2315 H 0.90532 0.58308 0.06496 0.0
C2316 C 0.6431 0.62433 0.347 0.0
C2317 C 0.63271 0.65262 0.35371 0.0
C2318 C 0.59843 0.63241 0.38903 0.0
C2319 C 0.60347 0.60444 0.37667 0.0
N2320 N 0.63347 0.57222 0.34749 0.0
N2321 N 0.61379 0.68322 0.39201 0.0
C2322 C 0.62745 0.59971 0.35754 0.0
C2323 C 0.61468 0.65665 0.37847 0.0
N2324 N 0.66783 0.62148 0.33054 0.0
N2325 N 0.57704 0.63579 0.40959 0.0
H2326 H 0.62788 0.70014 0.38611 0.0
H2327 H 0.60205 0.68733 0.41105 0.0
H2328 H 0.566 0.61796 0.4186 0.0
H2329 H 0.56976 0.65601 0.41709 0.0
H2330 H 0.67796 0.60159 0.3261 0.0
H2331 H 0.67977 0.63975 0.32381 0.0
H2332 H 0.64821 0.56781 0.33073 0.0
H2333 H 0.62304 0.55361 0.35543 0.0
C2334 C 0.67471 0.90454 0.59167 0.0
C2335 C 0.65101 0.92407 0.58726 0.0
C2336 C 0.6413 0.92548 0.63984 0.0
C2337 C 0.66522 0.90628 0.64422 0.0
N2338 N 0.69914 0.87107 0.62478 0.0
N2339 N 0.60699 0.94663 0.60538 0.0
C2340 C 0.6801 0.89366 0.6202 0.0
C2341 C 0.63272 0.93242 0.61085 0.0
N2342 N 0.69316 0.89781 0.56913 0.0
N2343 N 0.62788 0.93834 0.66325 0.0
H2344 H 0.59994 0.95159 0.58424 0.0
H2345 H 0.59139 0.95095 0.62138 0.0
H2346 H 0.63309 0.93331 0.68486 0.0
H2347 H 0.61282 0.95531 0.66131 0.0
H2348 H 0.71284 0.88671 0.57196 0.0
H2349 H 0.68997 0.90504 0.54777 0.0
H2350 H 0.70876 0.85913 0.60795 0.0
H2351 H 0.70304 0.86237 0.64552 0.0
loop_
_geom_bond_atom_site_label_1
_geom_bond_atom_site_label_2
_geom_bond_distance
_geom_bond_site_symmetry_2
_ccdc_geom_bond_type
In0 O1 2.294 . S
In0 O2 2.326 . S
In0 O6 2.266 . S
In0 O7 2.326 . S
In0 O8 2.266 . S
In0 O9 2.326 . S
In0 O11 2.294 . S
In0 O12 2.326 . S
O1 In0 2.294 . S
O1 C10 1.240 . S
O2 In0 2.326 . S
O2 C10 1.252 . S
C3 O6 1.252 . S
C3 O7 1.260 . S
C4 O11 1.240 . S
C4 O12 1.252 . S
C5 O8 1.252 . S
C5 O9 1.260 . S
O6 In0 2.266 . S
O6 C3 1.252 . S
O7 In0 2.326 . S
O7 C3 1.260 . S
O8 In0 2.266 . S
O8 C5 1.252 . S
O9 In0 2.326 . S
O9 C5 1.260 . S
C10 O1 1.240 . S
C10 O2 1.252 . S
O11 In0 2.294 . S
O11 C4 1.240 . S
O12 In0 2.326 . S
O12 C4 1.252 . S
In13 O14 2.294 . S
In13 O15 2.326 . S
In13 O19 2.266 . S
In13 O20 2.326 1_565 S
In13 O21 2.266 1_455 S
In13 O22 2.326 . S
In13 O24 2.294 . S
In13 O25 2.326 . S
O14 In13 2.294 . S
O14 C23 1.240 . S
O15 In13 2.326 . S
O15 C23 1.252 . S
C16 O19 1.252 1_545 S
C16 O20 1.260 . S
C17 O24 1.240 . S
C17 O25 1.252 . S
C18 O21 1.252 . S
C18 O22 1.260 1_655 S
O19 In13 2.266 . S
O19 C16 1.252 1_565 S
O20 In13 2.326 1_545 S
O20 C16 1.260 . S
O21 In13 2.266 1_655 S
O21 C18 1.252 . S
O22 In13 2.326 . S
O22 C18 1.260 1_455 S
C23 O14 1.240 . S
C23 O15 1.252 . S
O24 In13 2.294 . S
O24 C17 1.240 . S
O25 In13 2.326 . S
O25 C17 1.252 . S
In26 O27 2.294 . S
In26 O28 2.326 . S
In26 O32 2.266 . S
In26 O33 2.326 . S
In26 O34 2.266 . S
In26 O35 2.326 . S
In26 O37 2.294 . S
In26 O38 2.326 . S
O27 In26 2.294 . S
O27 C36 1.240 . S
O28 In26 2.326 . S
O28 C36 1.252 . S
C29 O32 1.252 . S
C29 O33 1.260 . S
C30 O37 1.240 . S
C30 O38 1.252 . S
C31 O34 1.252 . S
C31 O35 1.260 . S
O32 In26 2.266 . S
O32 C29 1.252 . S
O33 In26 2.326 . S
O33 C29 1.260 . S
O34 In26 2.266 . S
O34 C31 1.252 . S
O35 In26 2.326 . S
O35 C31 1.260 . S
C36 O27 1.240 . S
C36 O28 1.252 . S
O37 In26 2.294 . S
O37 C30 1.240 . S
O38 In26 2.326 . S
O38 C30 1.252 . S
In39 O40 2.294 . S
In39 O41 2.326 . S
In39 O45 2.266 . S
In39 O46 2.326 1_545 S
In39 O47 2.266 . S
In39 O48 2.326 . S
In39 O50 2.294 . S
In39 O51 2.326 . S
O40 In39 2.294 . S
O40 C49 1.240 . S
O41 In39 2.326 . S
O41 C49 1.252 . S
C42 O45 1.252 1_565 S
C42 O46 1.260 . S
C43 O50 1.240 . S
C43 O51 1.252 . S
C44 O47 1.252 . S
C44 O48 1.260 . S
O45 In39 2.266 . S
O45 C42 1.252 1_545 S
O46 In39 2.326 1_565 S
O46 C42 1.260 . S
O47 In39 2.266 . S
O47 C44 1.252 . S
O48 In39 2.326 . S
O48 C44 1.260 . S
C49 O40 1.240 . S
C49 O41 1.252 . S
O50 In39 2.294 . S
O50 C43 1.240 . S
O51 In39 2.326 . S
O51 C43 1.252 . S
In52 O53 2.294 . S
In52 O54 2.326 . S
In52 O58 2.266 . S
In52 O59 2.326 . S
In52 O60 2.266 . S
In52 O61 2.326 . S
In52 O63 2.294 . S
In52 O64 2.326 . S
O53 In52 2.294 . S
O53 C62 1.240 . S
O54 In52 2.326 . S
O54 C62 1.252 . S
C55 O58 1.252 . S
C55 O59 1.260 . S
C56 O63 1.240 . S
C56 O64 1.252 . S
C57 O60 1.252 . S
C57 O61 1.260 . S
O58 In52 2.266 . S
O58 C55 1.252 . S
O59 In52 2.326 . S
O59 C55 1.260 . S
O60 In52 2.266 . S
O60 C57 1.252 . S
O61 In52 2.326 . S
O61 C57 1.260 . S
C62 O53 1.240 . S
C62 O54 1.252 . S
O63 In52 2.294 . S
O63 C56 1.240 . S
O64 In52 2.326 . S
O64 C56 1.252 . S
In65 O66 2.294 . S
In65 O67 2.326 . S
In65 O71 2.266 . S
In65 O72 2.326 1_565 S
In65 O73 2.266 . S
In65 O74 2.326 . S
In65 O76 2.294 . S
In65 O77 2.326 . S
O66 In65 2.294 . S
O66 C75 1.240 . S
O67 In65 2.326 . S
O67 C75 1.252 . S
C68 O71 1.252 1_545 S
C68 O72 1.260 . S
C69 O76 1.240 . S
C69 O77 1.252 . S
C70 O73 1.252 . S
C70 O74 1.260 . S
O71 In65 2.266 . S
O71 C68 1.252 1_565 S
O72 In65 2.326 1_545 S
O72 C68 1.260 . S
O73 In65 2.266 . S
O73 C70 1.252 . S
O74 In65 2.326 . S
O74 C70 1.260 . S
C75 O66 1.240 . S
C75 O67 1.252 . S
O76 In65 2.294 . S
O76 C69 1.240 . S
O77 In65 2.326 . S
O77 C69 1.252 . S
In78 O79 2.294 . S
In78 O80 2.326 . S
In78 O84 2.266 . S
In78 O85 2.326 . S
In78 O86 2.266 . S
In78 O87 2.326 . S
In78 O89 2.294 . S
In78 O90 2.326 . S
O79 In78 2.294 . S
O79 C88 1.240 . S
O80 In78 2.326 . S
O80 C88 1.252 . S
C81 O84 1.252 . S
C81 O85 1.260 . S
C82 O89 1.240 . S
C82 O90 1.252 . S
C83 O86 1.252 . S
C83 O87 1.260 . S
O84 In78 2.266 . S
O84 C81 1.252 . S
O85 In78 2.326 . S
O85 C81 1.260 . S
O86 In78 2.266 . S
O86 C83 1.252 . S
O87 In78 2.326 . S
O87 C83 1.260 . S
C88 O79 1.240 . S
C88 O80 1.252 . S
O89 In78 2.294 . S
O89 C82 1.240 . S
O90 In78 2.326 . S
O90 C82 1.252 . S
In91 O92 2.294 . S
In91 O93 2.326 . S
In91 O97 2.266 1_455 S
In91 O98 2.326 . S
In91 O99 2.266 . S
In91 O100 2.326 1_545 S
In91 O102 2.294 . S
In91 O103 2.326 . S
O92 In91 2.294 . S
O92 C101 1.240 . S
O93 In91 2.326 . S
O93 C101 1.252 . S
C94 O97 1.252 . S
C94 O98 1.260 1_655 S
C95 O102 1.240 . S
C95 O103 1.252 . S
C96 O99 1.252 1_565 S
C96 O100 1.260 . S
O97 In91 2.266 1_655 S
O97 C94 1.252 . S
O98 In91 2.326 . S
O98 C94 1.260 1_455 S
O99 In91 2.266 . S
O99 C96 1.252 1_545 S
O100 In91 2.326 1_565 S
O100 C96 1.260 . S
C101 O92 1.240 . S
C101 O93 1.252 . S
O102 In91 2.294 . S
O102 C95 1.240 . S
O103 In91 2.326 . S
O103 C95 1.252 . S
In104 O105 2.294 . S
In104 O106 2.326 . S
In104 O110 2.266 . S
In104 O111 2.326 . S
In104 O112 2.266 . S
In104 O113 2.326 . S
In104 O115 2.294 . S
In104 O116 2.326 . S
O105 In104 2.294 . S
O105 C114 1.240 . S
O106 In104 2.326 . S
O106 C114 1.252 . S
C107 O110 1.252 . S
C107 O111 1.260 . S
C108 O115 1.240 . S
C108 O116 1.252 . S
C109 O112 1.252 . S
C109 O113 1.260 . S
O110 In104 2.266 . S
O110 C107 1.252 . S
O111 In104 2.326 . S
O111 C107 1.260 . S
O112 In104 2.266 . S
O112 C109 1.252 . S
O113 In104 2.326 . S
O113 C109 1.260 . S
C114 O105 1.240 . S
C114 O106 1.252 . S
O115 In104 2.294 . S
O115 C108 1.240 . S
O116 In104 2.326 . S
O116 C108 1.252 . S
In117 O118 2.294 . S
In117 O119 2.326 . S
In117 O123 2.266 . S
In117 O124 2.326 . S
In117 O125 2.266 . S
In117 O126 2.326 1_455 S
In117 O128 2.294 . S
In117 O129 2.326 . S
O118 In117 2.294 . S
O118 C127 1.240 . S
O119 In117 2.326 . S
O119 C127 1.252 . S
C120 O123 1.252 . S
C120 O124 1.260 . S
C121 O128 1.240 . S
C121 O129 1.252 . S
C122 O125 1.252 1_655 S
C122 O126 1.260 . S
O123 In117 2.266 . S
O123 C120 1.252 . S
O124 In117 2.326 . S
O124 C120 1.260 . S
O125 In117 2.266 . S
O125 C122 1.252 1_455 S
O126 In117 2.326 1_655 S
O126 C122 1.260 . S
C127 O118 1.240 . S
C127 O119 1.252 . S
O128 In117 2.294 . S
O128 C121 1.240 . S
O129 In117 2.326 . S
O129 C121 1.252 . S
In130 O131 2.294 . S
In130 O132 2.326 . S
In130 O136 2.266 . S
In130 O137 2.326 . S
In130 O138 2.266 . S
In130 O139 2.326 . S
In130 O141 2.294 . S
In130 O142 2.326 . S
O131 In130 2.294 . S
O131 C140 1.240 . S
O132 In130 2.326 . S
O132 C140 1.252 . S
C133 O136 1.252 . S
C133 O137 1.260 . S
C134 O141 1.240 . S
C134 O142 1.252 . S
C135 O138 1.252 . S
C135 O139 1.260 . S
O136 In130 2.266 . S
O136 C133 1.252 . S
O137 In130 2.326 . S
O137 C133 1.260 . S
O138 In130 2.266 . S
O138 C135 1.252 . S
O139 In130 2.326 . S
O139 C135 1.260 . S
C140 O131 1.240 . S
C140 O132 1.252 . S
O141 In130 2.294 . S
O141 C134 1.240 . S
O142 In130 2.326 . S
O142 C134 1.252 . S
In143 O144 2.294 . S
In143 O145 2.326 . S
In143 O149 2.266 . S
In143 O150 2.326 . S
In143 O151 2.266 1_556 S
In143 O152 2.326 . S
In143 O154 2.294 . S
In143 O155 2.326 . S
O144 In143 2.294 . S
O144 C153 1.240 . S
O145 In143 2.326 . S
O145 C153 1.252 . S
C146 O149 1.252 . S
C146 O150 1.260 . S
C147 O154 1.240 . S
C147 O155 1.252 . S
C148 O151 1.252 . S
C148 O152 1.260 1_554 S
O149 In143 2.266 . S
O149 C146 1.252 . S
O150 In143 2.326 . S
O150 C146 1.260 . S
O151 In143 2.266 1_554 S
O151 C148 1.252 . S
O152 In143 2.326 . S
O152 C148 1.260 1_556 S
C153 O144 1.240 . S
C153 O145 1.252 . S
O154 In143 2.294 . S
O154 C147 1.240 . S
O155 In143 2.326 . S
O155 C147 1.252 . S
In156 O157 2.294 . S
In156 O158 2.326 . S
In156 O162 2.266 . S
In156 O163 2.326 . S
In156 O164 2.266 . S
In156 O165 2.326 . S
In156 O167 2.294 . S
In156 O168 2.326 . S
O157 In156 2.294 . S
O157 C166 1.240 . S
O158 In156 2.326 . S
O158 C166 1.252 . S
C159 O162 1.252 . S
C159 O163 1.260 . S
C160 O167 1.240 . S
C160 O168 1.252 . S
C161 O164 1.252 . S
C161 O165 1.260 . S
O162 In156 2.266 . S
O162 C159 1.252 . S
O163 In156 2.326 . S
O163 C159 1.260 . S
O164 In156 2.266 . S
O164 C161 1.252 . S
O165 In156 2.326 . S
O165 C161 1.260 . S
C166 O157 1.240 . S
C166 O158 1.252 . S
O167 In156 2.294 . S
O167 C160 1.240 . S
O168 In156 2.326 . S
O168 C160 1.252 . S
In169 O170 2.294 . S
In169 O171 2.326 . S
In169 O175 2.266 . S
In169 O176 2.326 . S
In169 O177 2.266 . S
In169 O178 2.326 . S
In169 O180 2.294 . S
In169 O181 2.326 . S
O170 In169 2.294 . S
O170 C179 1.240 . S
O171 In169 2.326 . S
O171 C179 1.252 . S
C172 O175 1.252 . S
C172 O176 1.260 . S
C173 O180 1.240 . S
C173 O181 1.252 . S
C174 O177 1.252 . S
C174 O178 1.260 . S
O175 In169 2.266 . S
O175 C172 1.252 . S
O176 In169 2.326 . S
O176 C172 1.260 . S
O177 In169 2.266 . S
O177 C174 1.252 . S
O178 In169 2.326 . S
O178 C174 1.260 . S
C179 O170 1.240 . S
C179 O171 1.252 . S
O180 In169 2.294 . S
O180 C173 1.240 . S
O181 In169 2.326 . S
O181 C173 1.252 . S
In182 O183 2.294 . S
In182 O184 2.326 . S
In182 O188 2.266 . S
In182 O189 2.326 . S
In182 O190 2.266 . S
In182 O191 2.326 . S
In182 O193 2.294 . S
In182 O194 2.326 . S
O183 In182 2.294 . S
O183 C192 1.240 . S
O184 In182 2.326 . S
O184 C192 1.252 . S
C185 O188 1.252 . S
C185 O189 1.260 . S
C186 O193 1.240 . S
C186 O194 1.252 . S
C187 O190 1.252 . S
C187 O191 1.260 . S
O188 In182 2.266 . S
O188 C185 1.252 . S
O189 In182 2.326 . S
O189 C185 1.260 . S
O190 In182 2.266 . S
O190 C187 1.252 . S
O191 In182 2.326 . S
O191 C187 1.260 . S
C192 O183 1.240 . S
C192 O184 1.252 . S
O193 In182 2.294 . S
O193 C186 1.240 . S
O194 In182 2.326 . S
O194 C186 1.252 . S
In195 O196 2.294 . S
In195 O197 2.326 . S
In195 O201 2.266 . S
In195 O202 2.326 1_455 S
In195 O203 2.266 1_554 S
In195 O204 2.326 . S
In195 O206 2.294 . S
In195 O207 2.326 . S
O196 In195 2.294 . S
O196 C205 1.240 . S
O197 In195 2.326 . S
O197 C205 1.252 . S
C198 O201 1.252 1_655 S
C198 O202 1.260 . S
C199 O206 1.240 . S
C199 O207 1.252 . S
C200 O203 1.252 . S
C200 O204 1.260 1_556 S
O201 In195 2.266 . S
O201 C198 1.252 1_455 S
O202 In195 2.326 1_655 S
O202 C198 1.260 . S
O203 In195 2.266 1_556 S
O203 C200 1.252 . S
O204 In195 2.326 . S
O204 C200 1.260 1_554 S
C205 O196 1.240 . S
C205 O197 1.252 . S
O206 In195 2.294 . S
O206 C199 1.240 . S
O207 In195 2.326 . S
O207 C199 1.252 . S
In208 O209 2.294 . S
In208 O210 2.326 . S
In208 O214 2.266 . S
In208 O215 2.326 . S
In208 O216 2.266 . S
In208 O217 2.326 . S
In208 O219 2.294 . S
In208 O220 2.326 . S
O209 In208 2.294 . S
O209 C218 1.240 . S
O210 In208 2.326 . S
O210 C218 1.252 . S
C211 O214 1.252 . S
C211 O215 1.260 . S
C212 O219 1.240 . S
C212 O220 1.252 . S
C213 O216 1.252 . S
C213 O217 1.260 . S
O214 In208 2.266 . S
O214 C211 1.252 . S
O215 In208 2.326 . S
O215 C211 1.260 . S
O216 In208 2.266 . S
O216 C213 1.252 . S
O217 In208 2.326 . S
O217 C213 1.260 . S
C218 O209 1.240 . S
C218 O210 1.252 . S
O219 In208 2.294 . S
O219 C212 1.240 . S
O220 In208 2.326 . S
O220 C212 1.252 . S
In221 O222 2.294 . S
In221 O223 2.326 . S
In221 O227 2.266 . S
In221 O228 2.326 . S
In221 O229 2.266 . S
In221 O230 2.326 . S
In221 O232 2.294 . S
In221 O233 2.326 . S
O222 In221 2.294 . S
O222 C231 1.240 . S
O223 In221 2.326 . S
O223 C231 1.252 . S
C224 O227 1.252 . S
C224 O228 1.260 . S
C225 O232 1.240 . S
C225 O233 1.252 . S
C226 O229 1.252 . S
C226 O230 1.260 . S
O227 In221 2.266 . S
O227 C224 1.252 . S
O228 In221 2.326 . S
O228 C224 1.260 . S
O229 In221 2.266 . S
O229 C226 1.252 . S
O230 In221 2.326 . S
O230 C226 1.260 . S
C231 O222 1.240 . S
C231 O223 1.252 . S
O232 In221 2.294 . S
O232 C225 1.240 . S
O233 In221 2.326 . S
O233 C225 1.252 . S
In234 O235 2.294 . S
In234 O236 2.326 . S
In234 O240 2.266 . S
In234 O241 2.326 . S
In234 O242 2.266 . S
In234 O243 2.326 1_554 S
In234 O245 2.294 . S
In234 O246 2.326 . S
O235 In234 2.294 . S
O235 C244 1.240 . S
O236 In234 2.326 . S
O236 C244 1.252 . S
C237 O240 1.252 . S
C237 O241 1.260 . S
C238 O245 1.240 . S
C238 O246 1.252 . S
C239 O242 1.252 1_556 S
C239 O243 1.260 . S
O240 In234 2.266 . S
O240 C237 1.252 . S
O241 In234 2.326 . S
O241 C237 1.260 . S
O242 In234 2.266 . S
O242 C239 1.252 1_554 S
O243 In234 2.326 1_556 S
O243 C239 1.260 . S
C244 O235 1.240 . S
C244 O236 1.252 . S
O245 In234 2.294 . S
O245 C238 1.240 . S
O246 In234 2.326 . S
O246 C238 1.252 . S
In247 O248 2.294 . S
In247 O249 2.326 . S
In247 O253 2.266 . S
In247 O254 2.326 . S
In247 O255 2.266 . S
In247 O256 2.326 . S
In247 O258 2.294 . S
In247 O259 2.326 . S
O248 In247 2.294 . S
O248 C257 1.240 . S
O249 In247 2.326 . S
O249 C257 1.252 . S
C250 O253 1.252 . S
C250 O254 1.260 . S
C251 O258 1.240 . S
C251 O259 1.252 . S
C252 O255 1.252 . S
C252 O256 1.260 . S
O253 In247 2.266 . S
O253 C250 1.252 . S
O254 In247 2.326 . S
O254 C250 1.260 . S
O255 In247 2.266 . S
O255 C252 1.252 . S
O256 In247 2.326 . S
O256 C252 1.260 . S
C257 O248 1.240 . S
C257 O249 1.252 . S
O258 In247 2.294 . S
O258 C251 1.240 . S
O259 In247 2.326 . S
O259 C251 1.252 . S
In260 O261 2.294 . S
In260 O262 2.326 . S
In260 O266 2.266 1_545 S
In260 O267 2.326 . S
In260 O268 2.266 . S
In260 O269 2.326 1_554 S
In260 O271 2.294 . S
In260 O272 2.326 . S
O261 In260 2.294 . S
O261 C270 1.240 . S
O262 In260 2.326 . S
O262 C270 1.252 . S
C263 O266 1.252 . S
C263 O267 1.260 1_565 S
C264 O271 1.240 . S
C264 O272 1.252 . S
C265 O268 1.252 1_556 S
C265 O269 1.260 . S
O266 In260 2.266 1_565 S
O266 C263 1.252 . S
O267 In260 2.326 . S
O267 C263 1.260 1_545 S
O268 In260 2.266 . S
O268 C265 1.252 1_554 S
O269 In260 2.326 1_556 S
O269 C265 1.260 . S
C270 O261 1.240 . S
C270 O262 1.252 . S
O271 In260 2.294 . S
O271 C264 1.240 . S
O272 In260 2.326 . S
O272 C264 1.252 . S
In273 O274 2.294 . S
In273 O275 2.326 . S
In273 O279 2.266 . S
In273 O280 2.326 . S
In273 O281 2.266 . S
In273 O282 2.326 . S
In273 O284 2.294 . S
In273 O285 2.326 . S
O274 In273 2.294 . S
O274 C283 1.240 . S
O275 In273 2.326 . S
O275 C283 1.252 . S
C276 O279 1.252 . S
C276 O280 1.260 . S
C277 O284 1.240 . S
C277 O285 1.252 . S
C278 O281 1.252 . S
C278 O282 1.260 . S
O279 In273 2.266 . S
O279 C276 1.252 . S
O280 In273 2.326 . S
O280 C276 1.260 . S
O281 In273 2.266 . S
O281 C278 1.252 . S
O282 In273 2.326 . S
O282 C278 1.260 . S
C283 O274 1.240 . S
C283 O275 1.252 . S
O284 In273 2.294 . S
O284 C277 1.240 . S
O285 In273 2.326 . S
O285 C277 1.252 . S
In286 O287 2.294 . S
In286 O288 2.326 . S
In286 O292 2.266 . S
In286 O293 2.326 . S
In286 O294 2.266 . S
In286 O295 2.326 . S
In286 O297 2.294 . S
In286 O298 2.326 . S
O287 In286 2.294 . S
O287 C296 1.240 . S
O288 In286 2.326 . S
O288 C296 1.252 . S
C289 O292 1.252 . S
C289 O293 1.260 . S
C290 O297 1.240 . S
C290 O298 1.252 . S
C291 O294 1.252 . S
C291 O295 1.260 . S
O292 In286 2.266 . S
O292 C289 1.252 . S
O293 In286 2.326 . S
O293 C289 1.260 . S
O294 In286 2.266 . S
O294 C291 1.252 . S
O295 In286 2.326 . S
O295 C291 1.260 . S
C296 O287 1.240 . S
C296 O288 1.252 . S
O297 In286 2.294 . S
O297 C290 1.240 . S
O298 In286 2.326 . S
O298 C290 1.252 . S
In299 O300 2.294 . S
In299 O301 2.326 . S
In299 O305 2.266 . S
In299 O306 2.326 1_556 S
In299 O307 2.266 . S
In299 O308 2.326 . S
In299 O310 2.294 . S
In299 O311 2.326 . S
O300 In299 2.294 . S
O300 C309 1.240 . S
O301 In299 2.326 . S
O301 C309 1.252 . S
C302 O305 1.252 1_554 S
C302 O306 1.260 . S
C303 O310 1.240 . S
C303 O311 1.252 . S
C304 O307 1.252 . S
C304 O308 1.260 . S
O305 In299 2.266 . S
O305 C302 1.252 1_556 S
O306 In299 2.326 1_554 S
O306 C302 1.260 . S
O307 In299 2.266 . S
O307 C304 1.252 . S
O308 In299 2.326 . S
O308 C304 1.260 . S
C309 O300 1.240 . S
C309 O301 1.252 . S
O310 In299 2.294 . S
O310 C303 1.240 . S
O311 In299 2.326 . S
O311 C303 1.252 . S
In312 O313 2.294 . S
In312 O314 2.326 . S
In312 O318 2.266 . S
In312 O319 2.326 . S
In312 O320 2.266 . S
In312 O321 2.326 . S
In312 O323 2.294 . S
In312 O324 2.326 . S
O313 In312 2.294 . S
O313 C322 1.240 . S
O314 In312 2.326 . S
O314 C322 1.252 . S
C315 O318 1.252 . S
C315 O319 1.260 . S
C316 O323 1.240 . S
C316 O324 1.252 . S
C317 O320 1.252 . S
C317 O321 1.260 . S
O318 In312 2.266 . S
O318 C315 1.252 . S
O319 In312 2.326 . S
O319 C315 1.260 . S
O320 In312 2.266 . S
O320 C317 1.252 . S
O321 In312 2.326 . S
O321 C317 1.260 . S
C322 O313 1.240 . S
C322 O314 1.252 . S
O323 In312 2.294 . S
O323 C316 1.240 . S
O324 In312 2.326 . S
O324 C316 1.252 . S
In325 O326 2.294 . S
In325 O327 2.326 . S
In325 O331 2.266 . S
In325 O332 2.326 . S
In325 O333 2.266 . S
In325 O334 2.326 . S
In325 O336 2.294 . S
In325 O337 2.326 . S
O326 In325 2.294 . S
O326 C335 1.240 . S
O327 In325 2.326 . S
O327 C335 1.252 . S
C328 O331 1.252 . S
C328 O332 1.260 . S
C329 O336 1.240 . S
C329 O337 1.252 . S
C330 O333 1.252 . S
C330 O334 1.260 . S
O331 In325 2.266 . S
O331 C328 1.252 . S
O332 In325 2.326 . S
O332 C328 1.260 . S
O333 In325 2.266 . S
O333 C330 1.252 . S
O334 In325 2.326 . S
O334 C330 1.260 . S
C335 O326 1.240 . S
C335 O327 1.252 . S
O336 In325 2.294 . S
O336 C329 1.240 . S
O337 In325 2.326 . S
O337 C329 1.252 . S
In338 O339 2.294 . S
In338 O340 2.326 . S
In338 O344 2.266 . S
In338 O345 2.326 . S
In338 O346 2.266 . S
In338 O347 2.326 . S
In338 O349 2.294 . S
In338 O350 2.326 . S
O339 In338 2.294 . S
O339 C348 1.240 . S
O340 In338 2.326 . S
O340 C348 1.252 . S
C341 O344 1.252 . S
C341 O345 1.260 . S
C342 O349 1.240 . S
C342 O350 1.252 . S
C343 O346 1.252 . S
C343 O347 1.260 . S
O344 In338 2.266 . S
O344 C341 1.252 . S
O345 In338 2.326 . S
O345 C341 1.260 . S
O346 In338 2.266 . S
O346 C343 1.252 . S
O347 In338 2.326 . S
O347 C343 1.260 . S
C348 O339 1.240 . S
C348 O340 1.252 . S
O349 In338 2.294 . S
O349 C342 1.240 . S
O350 In338 2.326 . S
O350 C342 1.252 . S
In351 O352 2.294 . S
In351 O353 2.326 . S
In351 O357 2.266 . S
In351 O358 2.326 . S
In351 O359 2.266 1_655 S
In351 O360 2.326 . S
In351 O362 2.294 . S
In351 O363 2.326 . S
O352 In351 2.294 . S
O352 C361 1.240 . S
O353 In351 2.326 . S
O353 C361 1.252 . S
C354 O357 1.252 . S
C354 O358 1.260 . S
C355 O362 1.240 . S
C355 O363 1.252 . S
C356 O359 1.252 . S
C356 O360 1.260 1_455 S
O357 In351 2.266 . S
O357 C354 1.252 . S
O358 In351 2.326 . S
O358 C354 1.260 . S
O359 In351 2.266 1_455 S
O359 C356 1.252 . S
O360 In351 2.326 . S
O360 C356 1.260 1_655 S
C361 O352 1.240 . S
C361 O353 1.252 . S
O362 In351 2.294 . S
O362 C355 1.240 . S
O363 In351 2.326 . S
O363 C355 1.252 . S
In364 O365 2.294 . S
In364 O366 2.326 . S
In364 O370 2.266 . S
In364 O371 2.326 . S
In364 O372 2.266 . S
In364 O373 2.326 . S
In364 O375 2.294 . S
In364 O376 2.326 . S
O365 In364 2.294 . S
O365 C374 1.240 . S
O366 In364 2.326 . S
O366 C374 1.252 . S
C367 O370 1.252 . S
C367 O371 1.260 . S
C368 O375 1.240 . S
C368 O376 1.252 . S
C369 O372 1.252 . S
C369 O373 1.260 . S
O370 In364 2.266 . S
O370 C367 1.252 . S
O371 In364 2.326 . S
O371 C367 1.260 . S
O372 In364 2.266 . S
O372 C369 1.252 . S
O373 In364 2.326 . S
O373 C369 1.260 . S
C374 O365 1.240 . S
C374 O366 1.252 . S
O375 In364 2.294 . S
O375 C368 1.240 . S
O376 In364 2.326 . S
O376 C368 1.252 . S
In377 O378 2.294 . S
In377 O379 2.326 . S
In377 O383 2.266 . S
In377 O384 2.326 . S
In377 O385 2.266 1_655 S
In377 O386 2.326 . S
In377 O388 2.294 . S
In377 O389 2.326 . S
O378 In377 2.294 . S
O378 C387 1.240 . S
O379 In377 2.326 . S
O379 C387 1.252 . S
C380 O383 1.252 . S
C380 O384 1.260 . S
C381 O388 1.240 . S
C381 O389 1.252 . S
C382 O385 1.252 . S
C382 O386 1.260 1_455 S
O383 In377 2.266 . S
O383 C380 1.252 . S
O384 In377 2.326 . S
O384 C380 1.260 . S
O385 In377 2.266 1_455 S
O385 C382 1.252 . S
O386 In377 2.326 . S
O386 C382 1.260 1_655 S
C387 O378 1.240 . S
C387 O379 1.252 . S
O388 In377 2.294 . S
O388 C381 1.240 . S
O389 In377 2.326 . S
O389 C381 1.252 . S
In390 O391 2.294 . S
In390 O392 2.326 . S
In390 O396 2.266 . S
In390 O397 2.326 . S
In390 O398 2.266 . S
In390 O399 2.326 . S
In390 O401 2.294 . S
In390 O402 2.326 . S
O391 In390 2.294 . S
O391 C400 1.240 . S
O392 In390 2.326 . S
O392 C400 1.252 . S
C393 O396 1.252 . S
C393 O397 1.260 . S
C394 O401 1.240 . S
C394 O402 1.252 . S
C395 O398 1.252 . S
C395 O399 1.260 . S
O396 In390 2.266 . S
O396 C393 1.252 . S
O397 In390 2.326 . S
O397 C393 1.260 . S
O398 In390 2.266 . S
O398 C395 1.252 . S
O399 In390 2.326 . S
O399 C395 1.260 . S
C400 O391 1.240 . S
C400 O392 1.252 . S
O401 In390 2.294 . S
O401 C394 1.240 . S
O402 In390 2.326 . S
O402 C394 1.252 . S
In403 O404 2.294 . S
In403 O405 2.326 . S
In403 O409 2.266 . S
In403 O410 2.326 . S
In403 O411 2.266 . S
In403 O412 2.326 . S
In403 O414 2.294 . S
In403 O415 2.326 . S
O404 In403 2.294 . S
O404 C413 1.240 . S
O405 In403 2.326 . S
O405 C413 1.252 . S
C406 O409 1.252 . S
C406 O410 1.260 . S
C407 O414 1.240 . S
C407 O415 1.252 . S
C408 O411 1.252 . S
C408 O412 1.260 . S
O409 In403 2.266 . S
O409 C406 1.252 . S
O410 In403 2.326 . S
O410 C406 1.260 . S
O411 In403 2.266 . S
O411 C408 1.252 . S
O412 In403 2.326 . S
O412 C408 1.260 . S
C413 O404 1.240 . S
C413 O405 1.252 . S
O414 In403 2.294 . S
O414 C407 1.240 . S
O415 In403 2.326 . S
O415 C407 1.252 . S
In416 O417 2.294 . S
In416 O418 2.326 . S
In416 O422 2.266 . S
In416 O423 2.326 . S
In416 O424 2.266 . S
In416 O425 2.326 . S
In416 O427 2.294 . S
In416 O428 2.326 . S
O417 In416 2.294 . S
O417 C426 1.240 . S
O418 In416 2.326 . S
O418 C426 1.252 . S
C419 O422 1.252 . S
C419 O423 1.260 . S
C420 O427 1.240 . S
C420 O428 1.252 . S
C421 O424 1.252 . S
C421 O425 1.260 . S
O422 In416 2.266 . S
O422 C419 1.252 . S
O423 In416 2.326 . S
O423 C419 1.260 . S
O424 In416 2.266 . S
O424 C421 1.252 . S
O425 In416 2.326 . S
O425 C421 1.260 . S
C426 O417 1.240 . S
C426 O418 1.252 . S
O427 In416 2.294 . S
O427 C420 1.240 . S
O428 In416 2.326 . S
O428 C420 1.252 . S
In429 O430 2.294 . S
In429 O431 2.326 . S
In429 O435 2.266 . S
In429 O436 2.326 . S
In429 O437 2.266 1_556 S
In429 O438 2.326 . S
In429 O440 2.294 . S
In429 O441 2.326 . S
O430 In429 2.294 . S
O430 C439 1.240 . S
O431 In429 2.326 . S
O431 C439 1.252 . S
C432 O435 1.252 . S
C432 O436 1.260 . S
C433 O440 1.240 . S
C433 O441 1.252 . S
C434 O437 1.252 . S
C434 O438 1.260 1_554 S
O435 In429 2.266 . S
O435 C432 1.252 . S
O436 In429 2.326 . S
O436 C432 1.260 . S
O437 In429 2.266 1_554 S
O437 C434 1.252 . S
O438 In429 2.326 . S
O438 C434 1.260 1_556 S
C439 O430 1.240 . S
C439 O431 1.252 . S
O440 In429 2.294 . S
O440 C433 1.240 . S
O441 In429 2.326 . S
O441 C433 1.252 . S
In442 O443 2.294 . S
In442 O444 2.326 . S
In442 O448 2.266 . S
In442 O449 2.326 . S
In442 O450 2.266 . S
In442 O451 2.326 . S
In442 O453 2.294 . S
In442 O454 2.326 . S
O443 In442 2.294 . S
O443 C452 1.240 . S
O444 In442 2.326 . S
O444 C452 1.252 . S
C445 O448 1.252 . S
C445 O449 1.260 . S
C446 O453 1.240 . S
C446 O454 1.252 . S
C447 O450 1.252 . S
C447 O451 1.260 . S
O448 In442 2.266 . S
O448 C445 1.252 . S
O449 In442 2.326 . S
O449 C445 1.260 . S
O450 In442 2.266 . S
O450 C447 1.252 . S
O451 In442 2.326 . S
O451 C447 1.260 . S
C452 O443 1.240 . S
C452 O444 1.252 . S
O453 In442 2.294 . S
O453 C446 1.240 . S
O454 In442 2.326 . S
O454 C446 1.252 . S
In455 O456 2.294 . S
In455 O457 2.326 . S
In455 O461 2.266 . S
In455 O462 2.326 1_655 S
In455 O463 2.266 . S
In455 O464 2.326 . S
In455 O466 2.294 . S
In455 O467 2.326 . S
O456 In455 2.294 . S
O456 C465 1.240 . S
O457 In455 2.326 . S
O457 C465 1.252 . S
C458 O461 1.252 1_455 S
C458 O462 1.260 . S
C459 O466 1.240 . S
C459 O467 1.252 . S
C460 O463 1.252 . S
C460 O464 1.260 . S
O461 In455 2.266 . S
O461 C458 1.252 1_655 S
O462 In455 2.326 1_455 S
O462 C458 1.260 . S
O463 In455 2.266 . S
O463 C460 1.252 . S
O464 In455 2.326 . S
O464 C460 1.260 . S
C465 O456 1.240 . S
C465 O457 1.252 . S
O466 In455 2.294 . S
O466 C459 1.240 . S
O467 In455 2.326 . S
O467 C459 1.252 . S
In468 O469 2.294 . S
In468 O470 2.326 . S
In468 O474 2.266 . S
In468 O475 2.326 . S
In468 O476 2.266 . S
In468 O477 2.326 . S
In468 O479 2.294 . S
In468 O480 2.326 . S
O469 In468 2.294 . S
O469 C478 1.240 . S
O470 In468 2.326 . S
O470 C478 1.252 . S
C471 O474 1.252 . S
C471 O475 1.260 . S
C472 O479 1.240 . S
C472 O480 1.252 . S
C473 O476 1.252 . S
C473 O477 1.260 . S
O474 In468 2.266 . S
O474 C471 1.252 . S
O475 In468 2.326 . S
O475 C471 1.260 . S
O476 In468 2.266 . S
O476 C473 1.252 . S
O477 In468 2.326 . S
O477 C473 1.260 . S
C478 O469 1.240 . S
C478 O470 1.252 . S
O479 In468 2.294 . S
O479 C472 1.240 . S
O480 In468 2.326 . S
O480 C472 1.252 . S
In481 O482 2.294 . S
In481 O483 2.326 . S
In481 O487 2.266 . S
In481 O488 2.326 1_655 S
In481 O489 2.266 1_554 S
In481 O490 2.326 . S
In481 O492 2.294 . S
In481 O493 2.326 . S
O482 In481 2.294 . S
O482 C491 1.240 . S
O483 In481 2.326 . S
O483 C491 1.252 . S
C484 O487 1.252 1_455 S
C484 O488 1.260 . S
C485 O492 1.240 . S
C485 O493 1.252 . S
C486 O489 1.252 . S
C486 O490 1.260 1_556 S
O487 In481 2.266 . S
O487 C484 1.252 1_655 S
O488 In481 2.326 1_455 S
O488 C484 1.260 . S
O489 In481 2.266 1_556 S
O489 C486 1.252 . S
O490 In481 2.326 . S
O490 C486 1.260 1_554 S
C491 O482 1.240 . S
C491 O483 1.252 . S
O492 In481 2.294 . S
O492 C485 1.240 . S
O493 In481 2.326 . S
O493 C485 1.252 . S
In494 O495 2.294 . S
In494 O496 2.326 . S
In494 O500 2.266 . S
In494 O501 2.326 . S
In494 O502 2.266 . S
In494 O503 2.326 . S
In494 O505 2.294 . S
In494 O506 2.326 . S
O495 In494 2.294 . S
O495 C504 1.240 . S
O496 In494 2.326 . S
O496 C504 1.252 . S
C497 O500 1.252 . S
C497 O501 1.260 . S
C498 O505 1.240 . S
C498 O506 1.252 . S
C499 O502 1.252 . S
C499 O503 1.260 . S
O500 In494 2.266 . S
O500 C497 1.252 . S
O501 In494 2.326 . S
O501 C497 1.260 . S
O502 In494 2.266 . S
O502 C499 1.252 . S
O503 In494 2.326 . S
O503 C499 1.260 . S
C504 O495 1.240 . S
C504 O496 1.252 . S
O505 In494 2.294 . S
O505 C498 1.240 . S
O506 In494 2.326 . S
O506 C498 1.252 . S
In507 O508 2.294 . S
In507 O509 2.326 . S
In507 O513 2.266 . S
In507 O514 2.326 . S
In507 O515 2.266 . S
In507 O516 2.326 . S
In507 O518 2.294 . S
In507 O519 2.326 . S
O508 In507 2.294 . S
O508 C517 1.240 . S
O509 In507 2.326 . S
O509 C517 1.252 . S
C510 O513 1.252 . S
C510 O514 1.260 . S
C511 O518 1.240 . S
C511 O519 1.252 . S
C512 O515 1.252 . S
C512 O516 1.260 . S
O513 In507 2.266 . S
O513 C510 1.252 . S
O514 In507 2.326 . S
O514 C510 1.260 . S
O515 In507 2.266 . S
O515 C512 1.252 . S
O516 In507 2.326 . S
O516 C512 1.260 . S
C517 O508 1.240 . S
C517 O509 1.252 . S
O518 In507 2.294 . S
O518 C511 1.240 . S
O519 In507 2.326 . S
O519 C511 1.252 . S
In520 O521 2.294 . S
In520 O522 2.326 . S
In520 O526 2.266 . S
In520 O527 2.326 . S
In520 O528 2.266 . S
In520 O529 2.326 . S
In520 O531 2.294 . S
In520 O532 2.326 . S
O521 In520 2.294 . S
O521 C530 1.240 . S
O522 In520 2.326 . S
O522 C530 1.252 . S
C523 O526 1.252 . S
C523 O527 1.260 . S
C524 O531 1.240 . S
C524 O532 1.252 . S
C525 O528 1.252 . S
C525 O529 1.260 . S
O526 In520 2.266 . S
O526 C523 1.252 . S
O527 In520 2.326 . S
O527 C523 1.260 . S
O528 In520 2.266 . S
O528 C525 1.252 . S
O529 In520 2.326 . S
O529 C525 1.260 . S
C530 O521 1.240 . S
C530 O522 1.252 . S
O531 In520 2.294 . S
O531 C524 1.240 . S
O532 In520 2.326 . S
O532 C524 1.252 . S
In533 O534 2.294 . S
In533 O535 2.326 . S
In533 O539 2.266 . S
In533 O540 2.326 . S
In533 O541 2.266 . S
In533 O542 2.326 . S
In533 O544 2.294 . S
In533 O545 2.326 . S
O534 In533 2.294 . S
O534 C543 1.240 . S
O535 In533 2.326 . S
O535 C543 1.252 . S
C536 O539 1.252 . S
C536 O540 1.260 . S
C537 O544 1.240 . S
C537 O545 1.252 . S
C538 O541 1.252 . S
C538 O542 1.260 . S
O539 In533 2.266 . S
O539 C536 1.252 . S
O540 In533 2.326 . S
O540 C536 1.260 . S
O541 In533 2.266 . S
O541 C538 1.252 . S
O542 In533 2.326 . S
O542 C538 1.260 . S
C543 O534 1.240 . S
C543 O535 1.252 . S
O544 In533 2.294 . S
O544 C537 1.240 . S
O545 In533 2.326 . S
O545 C537 1.252 . S
In546 O547 2.294 . S
In546 O548 2.326 . S
In546 O552 2.266 1_565 S
In546 O553 2.326 . S
In546 O554 2.266 . S
In546 O555 2.326 . S
In546 O557 2.294 . S
In546 O558 2.326 . S
O547 In546 2.294 . S
O547 C556 1.240 . S
O548 In546 2.326 . S
O548 C556 1.252 . S
C549 O552 1.252 . S
C549 O553 1.260 1_545 S
C550 O557 1.240 . S
C550 O558 1.252 . S
C551 O554 1.252 . S
C551 O555 1.260 . S
O552 In546 2.266 1_545 S
O552 C549 1.252 . S
O553 In546 2.326 . S
O553 C549 1.260 1_565 S
O554 In546 2.266 . S
O554 C551 1.252 . S
O555 In546 2.326 . S
O555 C551 1.260 . S
C556 O547 1.240 . S
C556 O548 1.252 . S
O557 In546 2.294 . S
O557 C550 1.240 . S
O558 In546 2.326 . S
O558 C550 1.252 . S
In559 O560 2.294 . S
In559 O561 2.326 . S
In559 O565 2.266 . S
In559 O566 2.326 . S
In559 O567 2.266 . S
In559 O568 2.326 . S
In559 O570 2.294 . S
In559 O571 2.326 . S
O560 In559 2.294 . S
O560 C569 1.240 . S
O561 In559 2.326 . S
O561 C569 1.252 . S
C562 O565 1.252 . S
C562 O566 1.260 . S
C563 O570 1.240 . S
C563 O571 1.252 . S
C564 O567 1.252 . S
C564 O568 1.260 . S
O565 In559 2.266 . S
O565 C562 1.252 . S
O566 In559 2.326 . S
O566 C562 1.260 . S
O567 In559 2.266 . S
O567 C564 1.252 . S
O568 In559 2.326 . S
O568 C564 1.260 . S
C569 O560 1.240 . S
C569 O561 1.252 . S
O570 In559 2.294 . S
O570 C563 1.240 . S
O571 In559 2.326 . S
O571 C563 1.252 . S
In572 O573 2.294 . S
In572 O574 2.326 . S
In572 O578 2.266 . S
In572 O579 2.326 . S
In572 O580 2.266 . S
In572 O581 2.326 . S
In572 O583 2.294 . S
In572 O584 2.326 . S
O573 In572 2.294 . S
O573 C582 1.240 . S
O574 In572 2.326 . S
O574 C582 1.252 . S
C575 O578 1.252 . S
C575 O579 1.260 . S
C576 O583 1.240 . S
C576 O584 1.252 . S
C577 O580 1.252 . S
C577 O581 1.260 . S
O578 In572 2.266 . S
O578 C575 1.252 . S
O579 In572 2.326 . S
O579 C575 1.260 . S
O580 In572 2.266 . S
O580 C577 1.252 . S
O581 In572 2.326 . S
O581 C577 1.260 . S
C582 O573 1.240 . S
C582 O574 1.252 . S
O583 In572 2.294 . S
O583 C576 1.240 . S
O584 In572 2.326 . S
O584 C576 1.252 . S
In585 O586 2.294 . S
In585 O587 2.326 . S
In585 O591 2.266 . S
In585 O592 2.326 . S
In585 O593 2.266 . S
In585 O594 2.326 . S
In585 O596 2.294 . S
In585 O597 2.326 . S
O586 In585 2.294 . S
O586 C595 1.240 . S
O587 In585 2.326 . S
O587 C595 1.252 . S
C588 O591 1.252 . S
C588 O592 1.260 . S
C589 O596 1.240 . S
C589 O597 1.252 . S
C590 O593 1.252 . S
C590 O594 1.260 . S
O591 In585 2.266 . S
O591 C588 1.252 . S
O592 In585 2.326 . S
O592 C588 1.260 . S
O593 In585 2.266 . S
O593 C590 1.252 . S
O594 In585 2.326 . S
O594 C590 1.260 . S
C595 O586 1.240 . S
C595 O587 1.252 . S
O596 In585 2.294 . S
O596 C589 1.240 . S
O597 In585 2.326 . S
O597 C589 1.252 . S
In598 O599 2.294 . S
In598 O600 2.326 . S
In598 O604 2.266 . S
In598 O605 2.326 1_556 S
In598 O606 2.266 1_545 S
In598 O607 2.326 . S
In598 O609 2.294 . S
In598 O610 2.326 . S
O599 In598 2.294 . S
O599 C608 1.240 . S
O600 In598 2.326 . S
O600 C608 1.252 . S
C601 O604 1.252 1_554 S
C601 O605 1.260 . S
C602 O609 1.240 . S
C602 O610 1.252 . S
C603 O606 1.252 . S
C603 O607 1.260 1_565 S
O604 In598 2.266 . S
O604 C601 1.252 1_556 S
O605 In598 2.326 1_554 S
O605 C601 1.260 . S
O606 In598 2.266 1_565 S
O606 C603 1.252 . S
O607 In598 2.326 . S
O607 C603 1.260 1_545 S
C608 O599 1.240 . S
C608 O600 1.252 . S
O609 In598 2.294 . S
O609 C602 1.240 . S
O610 In598 2.326 . S
O610 C602 1.252 . S
In611 O612 2.294 . S
In611 O613 2.326 . S
In611 O617 2.266 . S
In611 O618 2.326 . S
In611 O619 2.266 1_565 S
In611 O620 2.326 . S
In611 O622 2.294 . S
In611 O623 2.326 . S
O612 In611 2.294 . S
O612 C621 1.240 . S
O613 In611 2.326 . S
O613 C621 1.252 . S
C614 O617 1.252 . S
C614 O618 1.260 . S
C615 O622 1.240 . S
C615 O623 1.252 . S
C616 O619 1.252 . S
C616 O620 1.260 1_545 S
O617 In611 2.266 . S
O617 C614 1.252 . S
O618 In611 2.326 . S
O618 C614 1.260 . S
O619 In611 2.266 1_545 S
O619 C616 1.252 . S
O620 In611 2.326 . S
O620 C616 1.260 1_565 S
C621 O612 1.240 . S
C621 O613 1.252 . S
O622 In611 2.294 . S
O622 C615 1.240 . S
O623 In611 2.326 . S
O623 C615 1.252 . S
C624 C625 1.363 . S
C624 C630 1.379 . S
C624 N632 1.356 . S
C625 C624 1.363 . S
C625 C631 1.363 . S
C626 C627 1.363 . S
C626 C631 1.379 . S
C626 N633 1.356 . S
C627 C626 1.363 . S
C627 C630 1.363 . S
N628 C630 1.356 . S
N628 H640 0.984 . S
N628 H641 0.985 . S
N629 C631 1.356 . S
N629 H634 0.984 . S
N629 H635 0.985 . S
C630 C624 1.379 . S
C630 C627 1.363 . S
C630 N628 1.356 . S
C631 C625 1.363 . S
C631 C626 1.379 . S
C631 N629 1.356 . S
N632 C624 1.356 . S
N632 H638 0.984 . S
N632 H639 0.984 . S
N633 C626 1.356 . S
N633 H636 0.984 . S
N633 H637 0.985 . S
H634 N629 0.984 . S
H635 N629 0.985 . S
H636 N633 0.984 . S
H637 N633 0.985 . S
H638 N632 0.984 . S
H639 N632 0.984 . S
H640 N628 0.984 . S
H641 N628 0.985 . S
C642 C643 1.363 . S
C642 C648 1.379 . S
C642 N650 1.356 . S
C643 C642 1.363 . S
C643 C649 1.363 1_565 S
C644 C645 1.363 . S
C644 C649 1.379 . S
C644 N651 1.356 . S
C645 C644 1.363 . S
C645 C648 1.363 1_545 S
N646 C648 1.356 . S
N646 H658 0.984 1_455 S
N646 H659 0.985 . S
N647 C649 1.356 . S
N647 H652 0.984 . S
N647 H653 0.985 . S
C648 C642 1.379 . S
C648 C645 1.363 1_565 S
C648 N646 1.356 . S
C649 C643 1.363 1_545 S
C649 C644 1.379 . S
C649 N647 1.356 . S
N650 C642 1.356 . S
N650 H656 0.984 1_455 S
N650 H657 0.984 . S
N651 C644 1.356 . S
N651 H654 0.984 . S
N651 H655 0.985 . S
H652 N647 0.984 . S
H653 N647 0.985 . S
H654 N651 0.984 . S
H655 N651 0.985 . S
H656 N650 0.984 1_655 S
H657 N650 0.984 . S
H658 N646 0.984 1_655 S
H659 N646 0.985 . S
C660 C661 1.363 . S
C660 C666 1.379 1_556 S
C660 N668 1.356 . S
C661 C660 1.363 . S
C661 C667 1.363 . S
C662 C663 1.363 . S
C662 C667 1.379 1_554 S
C662 N669 1.356 . S
C663 C662 1.363 . S
C663 C666 1.363 . S
N664 C666 1.356 . S
N664 H676 0.984 . S
N664 H677 0.985 . S
N665 C667 1.356 . S
N665 H670 0.984 . S
N665 H671 0.985 . S
C666 C660 1.379 1_554 S
C666 C663 1.363 . S
C666 N664 1.356 . S
C667 C661 1.363 . S
C667 C662 1.379 1_556 S
C667 N665 1.356 . S
N668 C660 1.356 . S
N668 H674 0.984 . S
N668 H675 0.984 . S
N669 C662 1.356 . S
N669 H672 0.984 . S
N669 H673 0.985 . S
H670 N665 0.984 . S
H671 N665 0.985 . S
H672 N669 0.984 . S
H673 N669 0.985 . S
H674 N668 0.984 . S
H675 N668 0.984 . S
H676 N664 0.984 . S
H677 N664 0.985 . S
C678 C679 1.363 1_545 S
C678 C684 1.379 . S
C678 N686 1.356 . S
C679 C678 1.363 1_565 S
C679 C685 1.363 . S
C680 C681 1.363 1_565 S
C680 C685 1.379 . S
C680 N687 1.356 . S
C681 C680 1.363 1_545 S
C681 C684 1.363 . S
N682 C684 1.356 . S
N682 H694 0.984 . S
N682 H695 0.985 . S
N683 C685 1.356 . S
N683 H688 0.984 . S
N683 H689 0.985 . S
C684 C678 1.379 . S
C684 C681 1.363 . S
C684 N682 1.356 . S
C685 C679 1.363 . S
C685 C680 1.379 . S
C685 N683 1.356 . S
N686 C678 1.356 . S
N686 H692 0.984 . S
N686 H693 0.984 . S
N687 C680 1.356 . S
N687 H690 0.984 . S
N687 H691 0.985 . S
H688 N683 0.984 . S
H689 N683 0.985 . S
H690 N687 0.984 . S
H691 N687 0.985 . S
H692 N686 0.984 . S
H693 N686 0.984 . S
H694 N682 0.984 . S
H695 N682 0.985 . S
C696 C697 1.363 . S
C696 C702 1.379 . S
C696 N704 1.356 . S
C697 C696 1.363 . S
C697 C703 1.363 . S
C698 C699 1.363 . S
C698 C703 1.379 . S
C698 N705 1.356 . S
C699 C698 1.363 . S
C699 C702 1.363 . S
N700 C702 1.356 . S
N700 H712 0.984 . S
N700 H713 0.985 . S
N701 C703 1.356 . S
N701 H706 0.984 . S
N701 H707 0.985 . S
C702 C696 1.379 . S
C702 C699 1.363 . S
C702 N700 1.356 . S
C703 C697 1.363 . S
C703 C698 1.379 . S
C703 N701 1.356 . S
N704 C696 1.356 . S
N704 H710 0.984 . S
N704 H711 0.984 . S
N705 C698 1.356 . S
N705 H708 0.984 . S
N705 H709 0.985 . S
H706 N701 0.984 . S
H707 N701 0.985 . S
H708 N705 0.984 . S
H709 N705 0.985 . S
H710 N704 0.984 . S
H711 N704 0.984 . S
H712 N700 0.984 . S
H713 N700 0.985 . S
C714 C715 1.363 . S
C714 C720 1.379 . S
C714 N722 1.356 . S
C715 C714 1.363 . S
C715 C721 1.363 1_655 S
C716 C717 1.363 . S
C716 C721 1.379 . S
C716 N723 1.356 . S
C717 C716 1.363 . S
C717 C720 1.363 1_455 S
N718 C720 1.356 . S
N718 H730 0.984 . S
N718 H731 0.985 . S
N719 C721 1.356 . S
N719 H724 0.984 . S
N719 H725 0.985 . S
C720 C714 1.379 . S
C720 C717 1.363 1_655 S
C720 N718 1.356 . S
C721 C715 1.363 1_455 S
C721 C716 1.379 . S
C721 N719 1.356 . S
N722 C714 1.356 . S
N722 H728 0.984 . S
N722 H729 0.984 . S
N723 C716 1.356 . S
N723 H726 0.984 . S
N723 H727 0.985 . S
H724 N719 0.984 . S
H725 N719 0.985 . S
H726 N723 0.984 . S
H727 N723 0.985 . S
H728 N722 0.984 . S
H729 N722 0.984 . S
H730 N718 0.984 . S
H731 N718 0.985 . S
C732 C733 1.363 . S
C732 C738 1.379 1_455 S
C732 N740 1.356 . S
C733 C732 1.363 . S
C733 C739 1.363 . S
C734 C735 1.363 . S
C734 C739 1.379 1_655 S
C734 N741 1.356 . S
C735 C734 1.363 . S
C735 C738 1.363 . S
N736 C738 1.356 . S
N736 H748 0.984 . S
N736 H749 0.985 . S
N737 C739 1.356 . S
N737 H742 0.984 . S
N737 H743 0.985 . S
C738 C732 1.379 1_655 S
C738 C735 1.363 . S
C738 N736 1.356 . S
C739 C733 1.363 . S
C739 C734 1.379 1_455 S
C739 N737 1.356 . S
N740 C732 1.356 . S
N740 H746 0.984 . S
N740 H747 0.984 . S
N741 C734 1.356 . S
N741 H744 0.984 . S
N741 H745 0.985 . S
H742 N737 0.984 . S
H743 N737 0.985 . S
H744 N741 0.984 . S
H745 N741 0.985 . S
H746 N740 0.984 . S
H747 N740 0.984 . S
H748 N736 0.984 . S
H749 N736 0.985 . S
C750 C751 1.363 . S
C750 C756 1.379 . S
C750 N758 1.356 . S
C751 C750 1.363 . S
C751 C757 1.363 . S
C752 C753 1.363 . S
C752 C757 1.379 . S
C752 N759 1.370 . S
C753 C752 1.363 . S
C753 C756 1.363 . S
N754 C756 1.356 . S
N754 H766 0.984 . S
N754 H767 0.985 . S
N755 C757 1.370 . S
N755 H760 0.991 . S
N755 H761 0.965 1_556 S
C756 C750 1.379 . S
C756 C753 1.363 . S
C756 N754 1.356 . S
C757 C751 1.363 . S
C757 C752 1.379 . S
C757 N755 1.370 . S
N758 C750 1.356 . S
N758 H764 0.984 . S
N758 H765 0.984 . S
N759 C752 1.370 . S
N759 H762 0.991 . S
N759 H763 0.964 1_556 S
H760 N755 0.991 . S
H761 N755 0.965 1_554 S
H762 N759 0.991 . S
H763 N759 0.964 1_554 S
H764 N758 0.984 . S
H765 N758 0.984 . S
H766 N754 0.984 . S
H767 N754 0.985 . S
C768 C769 1.363 . S
C768 C774 1.379 . S
C768 N776 1.356 . S
C769 C768 1.363 . S
C769 C775 1.363 . S
C770 C771 1.363 . S
C770 C775 1.379 . S
C770 N777 1.356 . S
C771 C770 1.363 . S
C771 C774 1.363 . S
N772 C774 1.356 . S
N772 H784 0.984 . S
N772 H785 0.985 . S
N773 C775 1.356 . S
N773 H778 0.984 . S
N773 H779 0.985 . S
C774 C768 1.379 . S
C774 C771 1.363 . S
C774 N772 1.356 . S
C775 C769 1.363 . S
C775 C770 1.379 . S
C775 N773 1.356 . S
N776 C768 1.356 . S
N776 H782 0.984 . S
N776 H783 0.984 . S
N777 C770 1.356 . S
N777 H780 0.984 . S
N777 H781 0.985 . S
H778 N773 0.984 . S
H779 N773 0.985 . S
H780 N777 0.984 . S
H781 N777 0.985 . S
H782 N776 0.984 . S
H783 N776 0.984 . S
H784 N772 0.984 . S
H785 N772 0.985 . S
C786 C787 1.363 . S
C786 C792 1.379 . S
C786 N794 1.356 . S
C787 C786 1.363 . S
C787 C793 1.363 . S
C788 C789 1.363 . S
C788 C793 1.379 . S
C788 N795 1.356 . S
C789 C788 1.363 . S
C789 C792 1.363 . S
N790 C792 1.356 . S
N790 H802 0.984 . S
N790 H803 0.985 . S
N791 C793 1.356 . S
N791 H796 0.984 . S
N791 H797 0.985 . S
C792 C786 1.379 . S
C792 C789 1.363 . S
C792 N790 1.356 . S
C793 C787 1.363 . S
C793 C788 1.379 . S
C793 N791 1.356 . S
N794 C786 1.356 . S
N794 H800 0.984 . S
N794 H801 0.984 . S
N795 C788 1.356 . S
N795 H798 0.984 . S
N795 H799 0.985 . S
H796 N791 0.984 . S
H797 N791 0.985 . S
H798 N795 0.984 . S
H799 N795 0.985 . S
H800 N794 0.984 . S
H801 N794 0.984 . S
H802 N790 0.984 . S
H803 N790 0.985 . S
C804 C805 1.363 . S
C804 C810 1.379 1_655 S
C804 N812 1.356 . S
C805 C804 1.363 . S
C805 C811 1.363 . S
C806 C807 1.363 . S
C806 C811 1.379 1_455 S
C806 N813 1.356 . S
C807 C806 1.363 . S
C807 C810 1.363 . S
N808 C810 1.356 . S
N808 H820 0.984 . S
N808 H821 0.985 . S
N809 C811 1.356 . S
N809 H814 0.984 . S
N809 H815 0.985 . S
C810 C804 1.379 1_455 S
C810 C807 1.363 . S
C810 N808 1.356 . S
C811 C805 1.363 . S
C811 C806 1.379 1_655 S
C811 N809 1.356 . S
N812 C804 1.356 . S
N812 H818 0.984 . S
N812 H819 0.984 . S
N813 C806 1.356 . S
N813 H816 0.984 . S
N813 H817 0.985 . S
H814 N809 0.984 . S
H815 N809 0.985 . S
H816 N813 0.984 . S
H817 N813 0.985 . S
H818 N812 0.984 . S
H819 N812 0.984 . S
H820 N808 0.984 . S
H821 N808 0.985 . S
C822 C823 1.363 . S
C822 C828 1.379 . S
C822 N830 1.356 . S
C823 C822 1.363 . S
C823 C829 1.363 1_655 S
C824 C825 1.363 . S
C824 C829 1.379 . S
C824 N831 1.362 . S
C825 C824 1.363 . S
C825 C828 1.363 1_455 S
N826 C828 1.356 . S
N826 H838 0.984 . S
N826 H839 0.985 . S
N827 C829 1.361 . S
N827 H832 0.987 . S
N827 H833 0.977 1_554 S
C828 C822 1.379 . S
C828 C825 1.363 1_655 S
C828 N826 1.356 . S
C829 C823 1.363 1_455 S
C829 C824 1.379 . S
C829 N827 1.361 . S
N830 C822 1.356 . S
N830 H836 0.984 . S
N830 H837 0.984 . S
N831 C824 1.362 . S
N831 H834 0.987 . S
N831 H835 0.977 1_554 S
H832 N827 0.987 . S
H833 N827 0.977 1_556 S
H834 N831 0.987 . S
H835 N831 0.977 1_556 S
H836 N830 0.984 . S
H837 N830 0.984 . S
H838 N826 0.984 . S
H839 N826 0.985 . S
C840 C841 1.363 . S
C840 C846 1.379 . S
C840 N848 1.356 . S
C841 C840 1.363 . S
C841 C847 1.363 . S
C842 C843 1.363 . S
C842 C847 1.379 . S
C842 N849 1.356 . S
C843 C842 1.363 . S
C843 C846 1.363 . S
N844 C846 1.356 . S
N844 H856 0.984 . S
N844 H857 0.985 . S
N845 C847 1.356 . S
N845 H850 0.984 . S
N845 H851 0.985 . S
C846 C840 1.379 . S
C846 C843 1.363 . S
C846 N844 1.356 . S
C847 C841 1.363 . S
C847 C842 1.379 . S
C847 N845 1.356 . S
N848 C840 1.356 . S
N848 H854 0.984 . S
N848 H855 0.984 . S
N849 C842 1.356 . S
N849 H852 0.984 . S
N849 H853 0.985 . S
H850 N845 0.984 . S
H851 N845 0.985 . S
H852 N849 0.984 . S
H853 N849 0.985 . S
H854 N848 0.984 . S
H855 N848 0.984 . S
H856 N844 0.984 . S
H857 N844 0.985 . S
C858 C859 1.363 . S
C858 C864 1.379 1_545 S
C858 N866 1.356 . S
C859 C858 1.363 . S
C859 C865 1.363 . S
C860 C861 1.363 . S
C860 C865 1.379 1_565 S
C860 N867 1.356 . S
C861 C860 1.363 . S
C861 C864 1.363 . S
N862 C864 1.356 . S
N862 H874 0.984 . S
N862 H875 0.985 . S
N863 C865 1.356 . S
N863 H868 0.984 . S
N863 H869 0.985 . S
C864 C858 1.379 1_565 S
C864 C861 1.363 . S
C864 N862 1.356 . S
C865 C859 1.363 . S
C865 C860 1.379 1_545 S
C865 N863 1.356 . S
N866 C858 1.356 . S
N866 H872 0.984 . S
N866 H873 0.984 . S
N867 C860 1.356 . S
N867 H870 0.984 . S
N867 H871 0.985 . S
H868 N863 0.984 . S
H869 N863 0.985 . S
H870 N867 0.984 . S
H871 N867 0.985 . S
H872 N866 0.984 . S
H873 N866 0.984 . S
H874 N862 0.984 . S
H875 N862 0.985 . S
C876 C877 1.363 1_556 S
C876 C882 1.379 . S
C876 N884 1.356 . S
C877 C876 1.363 1_554 S
C877 C883 1.363 . S
C878 C879 1.363 1_554 S
C878 C883 1.379 . S
C878 N885 1.356 . S
C879 C878 1.363 1_556 S
C879 C882 1.363 . S
N880 C882 1.356 . S
N880 H892 0.984 . S
N880 H893 0.985 . S
N881 C883 1.356 . S
N881 H886 0.984 . S
N881 H887 0.985 . S
C882 C876 1.379 . S
C882 C879 1.363 . S
C882 N880 1.356 . S
C883 C877 1.363 . S
C883 C878 1.379 . S
C883 N881 1.356 . S
N884 C876 1.356 . S
N884 H890 0.984 . S
N884 H891 0.984 . S
N885 C878 1.356 . S
N885 H888 0.984 . S
N885 H889 0.985 . S
H886 N881 0.984 . S
H887 N881 0.985 . S
H888 N885 0.984 . S
H889 N885 0.985 . S
H890 N884 0.984 . S
H891 N884 0.984 . S
H892 N880 0.984 . S
H893 N880 0.985 . S
C894 C895 1.363 . S
C894 C900 1.379 1_545 S
C894 N902 1.356 . S
C895 C894 1.363 . S
C895 C901 1.363 . S
C896 C897 1.363 . S
C896 C901 1.379 1_565 S
C896 N903 1.356 . S
C897 C896 1.363 . S
C897 C900 1.363 . S
N898 C900 1.356 . S
N898 H910 0.984 . S
N898 H911 0.985 . S
N899 C901 1.356 . S
N899 H904 0.984 . S
N899 H905 0.985 . S
C900 C894 1.379 1_565 S
C900 C897 1.363 . S
C900 N898 1.356 . S
C901 C895 1.363 . S
C901 C896 1.379 1_545 S
C901 N899 1.356 . S
N902 C894 1.356 . S
N902 H908 0.984 . S
N902 H909 0.984 . S
N903 C896 1.356 . S
N903 H906 0.984 . S
N903 H907 0.985 . S
H904 N899 0.984 . S
H905 N899 0.985 . S
H906 N903 0.984 . S
H907 N903 0.985 . S
H908 N902 0.984 . S
H909 N902 0.984 . S
H910 N898 0.984 . S
H911 N898 0.985 . S
C912 C913 1.363 1_554 S
C912 C918 1.379 . S
C912 N920 1.361 . S
C913 C912 1.363 1_556 S
C913 C919 1.363 . S
C914 C915 1.363 1_556 S
C914 C919 1.379 . S
C914 N921 1.356 . S
C915 C914 1.363 1_554 S
C915 C918 1.363 . S
N916 C918 1.361 . S
N916 H928 0.977 1_545 S
N916 H929 0.987 . S
N917 C919 1.356 . S
N917 H922 0.984 . S
N917 H923 0.985 . S
C918 C912 1.379 . S
C918 C915 1.363 . S
C918 N916 1.361 . S
C919 C913 1.363 . S
C919 C914 1.379 . S
C919 N917 1.356 . S
N920 C912 1.361 . S
N920 H926 0.977 1_545 S
N920 H927 0.987 . S
N921 C914 1.356 . S
N921 H924 0.984 . S
N921 H925 0.985 . S
H922 N917 0.984 . S
H923 N917 0.985 . S
H924 N921 0.984 . S
H925 N921 0.985 . S
H926 N920 0.977 1_565 S
H927 N920 0.987 . S
H928 N916 0.977 1_565 S
H929 N916 0.987 . S
C930 C931 1.363 . S
C930 C936 1.379 . S
C930 N938 1.356 . S
C931 C930 1.363 . S
C931 C937 1.363 . S
C932 C933 1.363 . S
C932 C937 1.379 . S
C932 N939 1.356 . S
C933 C932 1.363 . S
C933 C936 1.363 . S
N934 C936 1.356 . S
N934 H946 0.984 . S
N934 H947 0.985 . S
N935 C937 1.356 . S
N935 H940 0.984 . S
N935 H941 0.985 . S
C936 C930 1.379 . S
C936 C933 1.363 . S
C936 N934 1.356 . S
C937 C931 1.363 . S
C937 C932 1.379 . S
C937 N935 1.356 . S
N938 C930 1.356 . S
N938 H944 0.984 . S
N938 H945 0.984 . S
N939 C932 1.356 . S
N939 H942 0.984 . S
N939 H943 0.985 . S
H940 N935 0.984 . S
H941 N935 0.985 . S
H942 N939 0.984 . S
H943 N939 0.985 . S
H944 N938 0.984 . S
H945 N938 0.984 . S
H946 N934 0.984 . S
H947 N934 0.985 . S
C948 C949 1.363 . S
C948 C954 1.379 . S
C948 N956 1.356 . S
C949 C948 1.363 . S
C949 C955 1.363 . S
C950 C951 1.363 . S
C950 C955 1.379 . S
C950 N957 1.356 . S
C951 C950 1.363 . S
C951 C954 1.363 . S
N952 C954 1.356 . S
N952 H964 0.984 . S
N952 H965 0.985 . S
N953 C955 1.356 . S
N953 H958 0.984 . S
N953 H959 0.985 . S
C954 C948 1.379 . S
C954 C951 1.363 . S
C954 N952 1.356 . S
C955 C949 1.363 . S
C955 C950 1.379 . S
C955 N953 1.356 . S
N956 C948 1.356 . S
N956 H962 0.984 . S
N956 H963 0.984 . S
N957 C950 1.356 . S
N957 H960 0.984 . S
N957 H961 0.985 . S
H958 N953 0.984 . S
H959 N953 0.985 . S
H960 N957 0.984 . S
H961 N957 0.985 . S
H962 N956 0.984 . S
H963 N956 0.984 . S
H964 N952 0.984 . S
H965 N952 0.985 . S
C966 C967 1.363 . S
C966 C972 1.379 1_554 S
C966 N974 1.356 . S
C967 C966 1.363 . S
C967 C973 1.363 . S
C968 C969 1.363 . S
C968 C973 1.379 1_556 S
C968 N975 1.356 . S
C969 C968 1.363 . S
C969 C972 1.363 . S
N970 C972 1.356 . S
N970 H982 0.984 . S
N970 H983 0.985 . S
N971 C973 1.356 . S
N971 H976 0.984 . S
N971 H977 0.985 . S
C972 C966 1.379 1_556 S
C972 C969 1.363 . S
C972 N970 1.356 . S
C973 C967 1.363 . S
C973 C968 1.379 1_554 S
C973 N971 1.356 . S
N974 C966 1.356 . S
N974 H980 0.984 . S
N974 H981 0.984 . S
N975 C968 1.356 . S
N975 H978 0.984 . S
N975 H979 0.985 . S
H976 N971 0.984 . S
H977 N971 0.985 . S
H978 N975 0.984 . S
H979 N975 0.985 . S
H980 N974 0.984 . S
H981 N974 0.984 . S
H982 N970 0.984 . S
H983 N970 0.985 . S
C984 C985 1.363 . S
C984 C990 1.379 . S
C984 N992 1.356 . S
C985 C984 1.363 . S
C985 C991 1.363 . S
C986 C987 1.363 . S
C986 C991 1.379 . S
C986 N993 1.356 . S
C987 C986 1.363 . S
C987 C990 1.363 . S
N988 C990 1.356 . S
N988 H1000 0.984 . S
N988 H1001 0.985 . S
N989 C991 1.356 . S
N989 H994 0.984 . S
N989 H995 0.985 . S
C990 C984 1.379 . S
C990 C987 1.363 . S
C990 N988 1.356 . S
C991 C985 1.363 . S
C991 C986 1.379 . S
C991 N989 1.356 . S
N992 C984 1.356 . S
N992 H998 0.984 . S
N992 H999 0.984 . S
N993 C986 1.356 . S
N993 H996 0.984 . S
N993 H997 0.985 . S
H994 N989 0.984 . S
H995 N989 0.985 . S
H996 N993 0.984 . S
H997 N993 0.985 . S
H998 N992 0.984 . S
H999 N992 0.984 . S
H1000 N988 0.984 . S
H1001 N988 0.985 . S
C1002 C1003 1.363 . S
C1002 C1008 1.379 . S
C1002 N1010 1.356 . S
C1003 C1002 1.363 . S
C1003 C1009 1.363 . S
C1004 C1005 1.363 . S
C1004 C1009 1.379 . S
C1004 N1011 1.356 . S
C1005 C1004 1.363 . S
C1005 C1008 1.363 . S
N1006 C1008 1.356 . S
N1006 H1018 0.984 . S
N1006 H1019 0.985 . S
N1007 C1009 1.356 . S
N1007 H1012 0.984 . S
N1007 H1013 0.985 . S
C1008 C1002 1.379 . S
C1008 C1005 1.363 . S
C1008 N1006 1.356 . S
C1009 C1003 1.363 . S
C1009 C1004 1.379 . S
C1009 N1007 1.356 . S
N1010 C1002 1.356 . S
N1010 H1016 0.984 . S
N1010 H1017 0.984 . S
N1011 C1004 1.356 . S
N1011 H1014 0.984 . S
N1011 H1015 0.985 . S
H1012 N1007 0.984 . S
H1013 N1007 0.985 . S
H1014 N1011 0.984 . S
H1015 N1011 0.985 . S
H1016 N1010 0.984 . S
H1017 N1010 0.984 . S
H1018 N1006 0.984 . S
H1019 N1006 0.985 . S
C1020 C1021 1.363 . S
C1020 C1026 1.379 . S
C1020 N1028 1.356 . S
C1021 C1020 1.363 . S
C1021 C1027 1.363 . S
C1022 C1023 1.363 . S
C1022 C1027 1.379 . S
C1022 N1029 1.356 . S
C1023 C1022 1.363 . S
C1023 C1026 1.363 . S
N1024 C1026 1.356 . S
N1024 H1036 0.968 1_655 S
N1024 H1037 0.985 . S
N1025 C1027 1.356 . S
N1025 H1030 0.984 . S
N1025 H1031 0.985 . S
C1026 C1020 1.379 . S
C1026 C1023 1.363 . S
C1026 N1024 1.356 . S
C1027 C1021 1.363 . S
C1027 C1022 1.379 . S
C1027 N1025 1.356 . S
N1028 C1020 1.356 . S
N1028 H1034 0.968 1_655 S
N1028 H1035 0.984 . S
N1029 C1022 1.356 . S
N1029 H1032 0.984 . S
N1029 H1033 0.985 . S
H1030 N1025 0.984 . S
H1031 N1025 0.985 . S
H1032 N1029 0.984 . S
H1033 N1029 0.985 . S
H1034 N1028 0.968 1_455 S
H1035 N1028 0.984 . S
H1036 N1024 0.968 1_455 S
H1037 N1024 0.985 . S
C1038 C1039 1.363 . S
C1038 C1044 1.379 . S
C1038 N1046 1.356 . S
C1039 C1038 1.363 . S
C1039 C1045 1.363 . S
C1040 C1041 1.363 . S
C1040 C1045 1.379 . S
C1040 N1047 1.371 . S
C1041 C1040 1.363 . S
C1041 C1044 1.363 . S
N1042 C1044 1.356 . S
N1042 H1054 0.984 . S
N1042 H1055 0.985 . S
N1043 C1045 1.371 . S
N1043 H1048 0.991 . S
N1043 H1049 0.964 1_565 S
C1044 C1038 1.379 . S
C1044 C1041 1.363 . S
C1044 N1042 1.356 . S
C1045 C1039 1.363 . S
C1045 C1040 1.379 . S
C1045 N1043 1.371 . S
N1046 C1038 1.356 . S
N1046 H1052 0.984 . S
N1046 H1053 0.984 . S
N1047 C1040 1.371 . S
N1047 H1050 0.991 . S
N1047 H1051 0.964 1_565 S
H1048 N1043 0.991 . S
H1049 N1043 0.964 1_545 S
H1050 N1047 0.991 . S
H1051 N1047 0.964 1_545 S
H1052 N1046 0.984 . S
H1053 N1046 0.984 . S
H1054 N1042 0.984 . S
H1055 N1042 0.985 . S
C1056 C1057 1.363 . S
C1056 C1062 1.379 . S
C1056 N1064 1.356 . S
C1057 C1056 1.363 . S
C1057 C1063 1.363 . S
C1058 C1059 1.363 . S
C1058 C1063 1.379 . S
C1058 N1065 1.356 . S
C1059 C1058 1.363 . S
C1059 C1062 1.363 . S
N1060 C1062 1.356 . S
N1060 H1072 0.984 . S
N1060 H1073 0.985 . S
N1061 C1063 1.356 . S
N1061 H1066 0.984 . S
N1061 H1067 0.985 . S
C1062 C1056 1.379 . S
C1062 C1059 1.363 . S
C1062 N1060 1.356 . S
C1063 C1057 1.363 . S
C1063 C1058 1.379 . S
C1063 N1061 1.356 . S
N1064 C1056 1.356 . S
N1064 H1070 0.984 . S
N1064 H1071 0.984 . S
N1065 C1058 1.356 . S
N1065 H1068 0.984 . S
N1065 H1069 0.985 . S
H1066 N1061 0.984 . S
H1067 N1061 0.985 . S
H1068 N1065 0.984 . S
H1069 N1065 0.985 . S
H1070 N1064 0.984 . S
H1071 N1064 0.984 . S
H1072 N1060 0.984 . S
H1073 N1060 0.985 . S
C1074 C1075 1.363 . S
C1074 C1080 1.379 . S
C1074 N1082 1.356 . S
C1075 C1074 1.363 . S
C1075 C1081 1.363 . S
C1076 C1077 1.363 . S
C1076 C1081 1.379 . S
C1076 N1083 1.356 . S
C1077 C1076 1.363 . S
C1077 C1080 1.363 . S
N1078 C1080 1.356 . S
N1078 H1090 0.984 . S
N1078 H1091 0.985 . S
N1079 C1081 1.356 . S
N1079 H1084 0.984 . S
N1079 H1085 0.985 1_565 S
C1080 C1074 1.379 . S
C1080 C1077 1.363 . S
C1080 N1078 1.356 . S
C1081 C1075 1.363 . S
C1081 C1076 1.379 . S
C1081 N1079 1.356 . S
N1082 C1074 1.356 . S
N1082 H1088 0.984 1_655 S
N1082 H1089 0.984 1_655 S
N1083 C1076 1.356 . S
N1083 H1086 0.984 . S
N1083 H1087 0.985 . S
H1084 N1079 0.984 . S
H1085 N1079 0.985 1_545 S
H1086 N1083 0.984 . S
H1087 N1083 0.985 . S
H1088 N1082 0.984 1_455 S
H1089 N1082 0.984 1_455 S
H1090 N1078 0.984 . S
H1091 N1078 0.985 . S
C1092 C1093 1.363 . S
C1092 C1098 1.379 . S
C1092 N1100 1.356 . S
C1093 C1092 1.363 . S
C1093 C1099 1.363 . S
C1094 C1095 1.363 . S
C1094 C1099 1.379 . S
C1094 N1101 1.356 . S
C1095 C1094 1.363 . S
C1095 C1098 1.363 . S
N1096 C1098 1.356 . S
N1096 H1108 0.984 . S
N1096 H1109 0.985 . S
N1097 C1099 1.356 . S
N1097 H1102 0.984 . S
N1097 H1103 0.985 . S
C1098 C1092 1.379 . S
C1098 C1095 1.363 . S
C1098 N1096 1.356 . S
C1099 C1093 1.363 . S
C1099 C1094 1.379 . S
C1099 N1097 1.356 . S
N1100 C1092 1.356 . S
N1100 H1106 0.984 . S
N1100 H1107 0.984 . S
N1101 C1094 1.356 . S
N1101 H1104 0.984 . S
N1101 H1105 0.985 . S
H1102 N1097 0.984 . S
H1103 N1097 0.985 . S
H1104 N1101 0.984 . S
H1105 N1101 0.985 . S
H1106 N1100 0.984 . S
H1107 N1100 0.984 . S
H1108 N1096 0.984 . S
H1109 N1096 0.985 . S
C1110 C1111 1.363 . S
C1110 C1116 1.379 . S
C1110 N1118 1.356 . S
C1111 C1110 1.363 . S
C1111 C1117 1.363 . S
C1112 C1113 1.363 . S
C1112 C1117 1.379 . S
C1112 N1119 1.356 . S
C1113 C1112 1.363 . S
C1113 C1116 1.363 . S
N1114 C1116 1.357 1_565 S
N1114 H1126 0.983 . S
N1114 H1127 0.985 1_565 S
N1115 C1117 1.356 . S
N1115 H1120 0.984 . S
N1115 H1121 0.985 . S
C1116 C1110 1.379 . S
C1116 C1113 1.363 . S
C1116 N1114 1.357 1_545 S
C1117 C1111 1.363 . S
C1117 C1112 1.379 . S
C1117 N1115 1.356 . S
N1118 C1110 1.356 . S
N1118 H1124 0.984 1_545 S
N1118 H1125 0.984 . S
N1119 C1112 1.356 . S
N1119 H1122 0.984 . S
N1119 H1123 0.985 . S
H1120 N1115 0.984 . S
H1121 N1115 0.985 . S
H1122 N1119 0.984 . S
H1123 N1119 0.985 . S
H1124 N1118 0.984 1_565 S
H1125 N1118 0.984 . S
H1126 N1114 0.983 . S
H1127 N1114 0.985 1_545 S
C1128 C1129 1.363 . S
C1128 C1134 1.379 . S
C1128 N1136 1.356 . S
C1129 C1128 1.363 . S
C1129 C1135 1.363 . S
C1130 C1131 1.363 . S
C1130 C1135 1.379 . S
C1130 N1137 1.356 . S
C1131 C1130 1.363 . S
C1131 C1134 1.363 . S
N1132 C1134 1.356 . S
N1132 H1144 0.984 . S
N1132 H1145 0.985 . S
N1133 C1135 1.356 . S
N1133 H1138 0.984 . S
N1133 H1139 0.985 . S
C1134 C1128 1.379 . S
C1134 C1131 1.363 . S
C1134 N1132 1.356 . S
C1135 C1129 1.363 . S
C1135 C1130 1.379 . S
C1135 N1133 1.356 . S
N1136 C1128 1.356 . S
N1136 H1142 0.984 . S
N1136 H1143 0.984 . S
N1137 C1130 1.356 . S
N1137 H1140 0.984 . S
N1137 H1141 0.985 . S
H1138 N1133 0.984 . S
H1139 N1133 0.985 . S
H1140 N1137 0.984 . S
H1141 N1137 0.985 . S
H1142 N1136 0.984 . S
H1143 N1136 0.984 . S
H1144 N1132 0.984 . S
H1145 N1132 0.985 . S
C1146 C1147 1.363 . S
C1146 C1152 1.379 . S
C1146 N1154 1.356 . S
C1147 C1146 1.363 . S
C1147 C1153 1.363 . S
C1148 C1149 1.363 . S
C1148 C1153 1.379 . S
C1148 N1155 1.356 . S
C1149 C1148 1.363 . S
C1149 C1152 1.363 . S
N1150 C1152 1.356 . S
N1150 H1162 0.984 1_565 S
N1150 H1163 0.985 . S
N1151 C1153 1.356 . S
N1151 H1156 0.984 . S
N1151 H1157 0.985 . S
C1152 C1146 1.379 . S
C1152 C1149 1.363 . S
C1152 N1150 1.356 . S
C1153 C1147 1.363 . S
C1153 C1148 1.379 . S
C1153 N1151 1.356 . S
N1154 C1146 1.356 . S
N1154 H1160 0.984 1_565 S
N1154 H1161 0.984 . S
N1155 C1148 1.356 . S
N1155 H1158 0.984 . S
N1155 H1159 0.985 . S
H1156 N1151 0.984 . S
H1157 N1151 0.985 . S
H1158 N1155 0.984 . S
H1159 N1155 0.985 . S
H1160 N1154 0.984 1_545 S
H1161 N1154 0.984 . S
H1162 N1150 0.984 1_545 S
H1163 N1150 0.985 . S
C1164 C1165 1.363 . S
C1164 C1170 1.379 . S
C1164 N1172 1.356 . S
C1165 C1164 1.363 . S
C1165 C1171 1.363 . S
C1166 C1167 1.363 . S
C1166 C1171 1.379 . S
C1166 N1173 1.356 . S
C1167 C1166 1.363 . S
C1167 C1170 1.363 . S
N1168 C1170 1.356 . S
N1168 H1180 0.984 . S
N1168 H1181 0.985 . S
N1169 C1171 1.356 . S
N1169 H1174 0.984 . S
N1169 H1175 0.985 . S
C1170 C1164 1.379 . S
C1170 C1167 1.363 . S
C1170 N1168 1.356 . S
C1171 C1165 1.363 . S
C1171 C1166 1.379 . S
C1171 N1169 1.356 . S
N1172 C1164 1.356 . S
N1172 H1178 0.984 . S
N1172 H1179 0.984 . S
N1173 C1166 1.356 . S
N1173 H1176 0.984 . S
N1173 H1177 0.985 . S
H1174 N1169 0.984 . S
H1175 N1169 0.985 . S
H1176 N1173 0.984 . S
H1177 N1173 0.985 . S
H1178 N1172 0.984 . S
H1179 N1172 0.984 . S
H1180 N1168 0.984 . S
H1181 N1168 0.985 . S
C1182 C1183 1.363 . S
C1182 C1188 1.379 . S
C1182 N1190 1.356 . S
C1183 C1182 1.363 . S
C1183 C1189 1.363 . S
C1184 C1185 1.363 . S
C1184 C1189 1.379 . S
C1184 N1191 1.356 . S
C1185 C1184 1.363 . S
C1185 C1188 1.363 . S
N1186 C1188 1.356 . S
N1186 H1198 0.984 1_545 S
N1186 H1199 0.985 1_655 S
N1187 C1189 1.356 . S
N1187 H1192 0.984 . S
N1187 H1193 0.985 . S
C1188 C1182 1.379 . S
C1188 C1185 1.363 . S
C1188 N1186 1.356 . S
C1189 C1183 1.363 . S
C1189 C1184 1.379 . S
C1189 N1187 1.356 . S
N1190 C1182 1.356 . S
N1190 H1196 0.984 1_545 S
N1190 H1197 0.984 . S
N1191 C1184 1.356 . S
N1191 H1194 0.984 . S
N1191 H1195 0.985 . S
H1192 N1187 0.984 . S
H1193 N1187 0.985 . S
H1194 N1191 0.984 . S
H1195 N1191 0.985 . S
H1196 N1190 0.984 1_565 S
H1197 N1190 0.984 . S
H1198 N1186 0.984 1_565 S
H1199 N1186 0.985 1_455 S
C1200 C1201 1.363 . S
C1200 C1206 1.379 . S
C1200 N1208 1.356 . S
C1201 C1200 1.363 . S
C1201 C1207 1.363 . S
C1202 C1203 1.363 . S
C1202 C1207 1.379 . S
C1202 N1209 1.356 . S
C1203 C1202 1.363 . S
C1203 C1206 1.363 . S
N1204 C1206 1.356 . S
N1204 H1216 0.984 . S
N1204 H1217 0.985 . S
N1205 C1207 1.356 . S
N1205 H1210 0.984 . S
N1205 H1211 0.985 . S
C1206 C1200 1.379 . S
C1206 C1203 1.363 . S
C1206 N1204 1.356 . S
C1207 C1201 1.363 . S
C1207 C1202 1.379 . S
C1207 N1205 1.356 . S
N1208 C1200 1.356 . S
N1208 H1214 0.984 . S
N1208 H1215 0.984 . S
N1209 C1202 1.356 . S
N1209 H1212 0.984 . S
N1209 H1213 0.985 . S
H1210 N1205 0.984 . S
H1211 N1205 0.985 . S
H1212 N1209 0.984 . S
H1213 N1209 0.985 . S
H1214 N1208 0.984 . S
H1215 N1208 0.984 . S
H1216 N1204 0.984 . S
H1217 N1204 0.985 . S
C1218 C1219 1.363 . S
C1218 C1224 1.379 . S
C1218 N1226 1.356 . S
C1219 C1218 1.363 . S
C1219 C1225 1.363 . S
C1220 C1221 1.363 . S
C1220 C1225 1.379 . S
C1220 N1227 1.356 . S
C1221 C1220 1.363 . S
C1221 C1224 1.363 . S
N1222 C1224 1.356 . S
N1222 H1234 0.984 . S
N1222 H1235 0.985 . S
N1223 C1225 1.357 1_565 S
N1223 H1228 0.984 . S
N1223 H1229 0.984 . S
C1224 C1218 1.379 . S
C1224 C1221 1.363 . S
C1224 N1222 1.356 . S
C1225 C1219 1.363 . S
C1225 C1220 1.379 . S
C1225 N1223 1.357 1_545 S
N1226 C1218 1.356 . S
N1226 H1232 0.984 . S
N1226 H1233 0.984 . S
N1227 C1220 1.356 . S
N1227 H1230 0.984 . S
N1227 H1231 0.985 . S
H1228 N1223 0.984 . S
H1229 N1223 0.984 . S
H1230 N1227 0.984 . S
H1231 N1227 0.985 . S
H1232 N1226 0.984 . S
H1233 N1226 0.984 . S
H1234 N1222 0.984 . S
H1235 N1222 0.985 . S
C1236 C1237 1.363 . S
C1236 C1242 1.379 . S
C1236 N1244 1.356 . S
C1237 C1236 1.363 . S
C1237 C1243 1.363 . S
C1238 C1239 1.363 . S
C1238 C1243 1.379 . S
C1238 N1245 1.356 . S
C1239 C1238 1.363 . S
C1239 C1242 1.363 . S
N1240 C1242 1.356 . S
N1240 H1252 0.984 . S
N1240 H1253 0.985 . S
N1241 C1243 1.356 . S
N1241 H1246 0.984 . S
N1241 H1247 0.985 . S
C1242 C1236 1.379 . S
C1242 C1239 1.363 . S
C1242 N1240 1.356 . S
C1243 C1237 1.363 . S
C1243 C1238 1.379 . S
C1243 N1241 1.356 . S
N1244 C1236 1.356 . S
N1244 H1250 0.984 . S
N1244 H1251 0.984 . S
N1245 C1238 1.356 . S
N1245 H1248 0.984 . S
N1245 H1249 0.985 . S
H1246 N1241 0.984 . S
H1247 N1241 0.985 . S
H1248 N1245 0.984 . S
H1249 N1245 0.985 . S
H1250 N1244 0.984 . S
H1251 N1244 0.984 . S
H1252 N1240 0.984 . S
H1253 N1240 0.985 . S
C1254 C1255 1.363 . S
C1254 C1260 1.379 . S
C1254 N1262 1.356 . S
C1255 C1254 1.363 . S
C1255 C1261 1.363 . S
C1256 C1257 1.363 . S
C1256 C1261 1.379 . S
C1256 N1263 1.356 . S
C1257 C1256 1.363 . S
C1257 C1260 1.363 . S
N1258 C1260 1.356 . S
N1258 H1270 0.984 . S
N1258 H1271 0.985 . S
N1259 C1261 1.356 . S
N1259 H1264 0.984 1_554 S
N1259 H1265 0.985 . S
C1260 C1254 1.379 . S
C1260 C1257 1.363 . S
C1260 N1258 1.356 . S
C1261 C1255 1.363 . S
C1261 C1256 1.379 . S
C1261 N1259 1.356 . S
N1262 C1254 1.356 . S
N1262 H1268 0.984 . S
N1262 H1269 0.984 . S
N1263 C1256 1.356 . S
N1263 H1266 0.984 . S
N1263 H1267 0.985 . S
H1264 N1259 0.984 1_556 S
H1265 N1259 0.985 . S
H1266 N1263 0.984 . S
H1267 N1263 0.985 . S
H1268 N1262 0.984 . S
H1269 N1262 0.984 . S
H1270 N1258 0.984 . S
H1271 N1258 0.985 . S
C1272 C1273 1.363 . S
C1272 C1278 1.379 . S
C1272 N1280 1.356 . S
C1273 C1272 1.363 . S
C1273 C1279 1.363 . S
C1274 C1275 1.363 . S
C1274 C1279 1.379 . S
C1274 N1281 1.356 . S
C1275 C1274 1.363 . S
C1275 C1278 1.363 . S
N1276 C1278 1.356 . S
N1276 H1288 0.984 . S
N1276 H1289 0.985 . S
N1277 C1279 1.356 . S
N1277 H1282 0.984 . S
N1277 H1283 0.985 . S
C1278 C1272 1.379 . S
C1278 C1275 1.363 . S
C1278 N1276 1.356 . S
C1279 C1273 1.363 . S
C1279 C1274 1.379 . S
C1279 N1277 1.356 . S
N1280 C1272 1.356 . S
N1280 H1286 0.984 . S
N1280 H1287 0.984 . S
N1281 C1274 1.356 . S
N1281 H1284 0.984 . S
N1281 H1285 0.985 . S
H1282 N1277 0.984 . S
H1283 N1277 0.985 . S
H1284 N1281 0.984 . S
H1285 N1281 0.985 . S
H1286 N1280 0.984 . S
H1287 N1280 0.984 . S
H1288 N1276 0.984 . S
H1289 N1276 0.985 . S
C1290 C1291 1.363 . S
C1290 C1296 1.379 . S
C1290 N1298 1.356 . S
C1291 C1290 1.363 . S
C1291 C1297 1.363 . S
C1292 C1293 1.363 . S
C1292 C1297 1.379 . S
C1292 N1299 1.356 . S
C1293 C1292 1.363 . S
C1293 C1296 1.363 . S
N1294 C1296 1.356 . S
N1294 H1306 0.984 . S
N1294 H1307 0.985 . S
N1295 C1297 1.356 . S
N1295 H1300 0.984 1_545 S
N1295 H1301 0.985 1_545 S
C1296 C1290 1.379 . S
C1296 C1293 1.363 . S
C1296 N1294 1.356 . S
C1297 C1291 1.363 . S
C1297 C1292 1.379 . S
C1297 N1295 1.356 . S
N1298 C1290 1.356 . S
N1298 H1304 0.984 . S
N1298 H1305 0.984 . S
N1299 C1292 1.356 . S
N1299 H1302 0.984 . S
N1299 H1303 0.985 . S
H1300 N1295 0.984 1_565 S
H1301 N1295 0.985 1_565 S
H1302 N1299 0.984 . S
H1303 N1299 0.985 . S
H1304 N1298 0.984 . S
H1305 N1298 0.984 . S
H1306 N1294 0.984 . S
H1307 N1294 0.985 . S
C1308 C1309 1.363 . S
C1308 C1314 1.379 . S
C1308 N1316 1.356 . S
C1309 C1308 1.363 . S
C1309 C1315 1.363 . S
C1310 C1311 1.363 . S
C1310 C1315 1.379 . S
C1310 N1317 1.356 . S
C1311 C1310 1.363 . S
C1311 C1314 1.363 . S
N1312 C1314 1.356 . S
N1312 H1324 0.984 . S
N1312 H1325 0.985 . S
N1313 C1315 1.356 . S
N1313 H1318 0.984 . S
N1313 H1319 0.985 . S
C1314 C1308 1.379 . S
C1314 C1311 1.363 . S
C1314 N1312 1.356 . S
C1315 C1309 1.363 . S
C1315 C1310 1.379 . S
C1315 N1313 1.356 . S
N1316 C1308 1.356 . S
N1316 H1322 0.984 . S
N1316 H1323 0.984 . S
N1317 C1310 1.356 . S
N1317 H1320 0.984 . S
N1317 H1321 0.985 . S
H1318 N1313 0.984 . S
H1319 N1313 0.985 . S
H1320 N1317 0.984 . S
H1321 N1317 0.985 . S
H1322 N1316 0.984 . S
H1323 N1316 0.984 . S
H1324 N1312 0.984 . S
H1325 N1312 0.985 . S
C1326 C1327 1.363 . S
C1326 C1332 1.379 . S
C1326 N1334 1.356 . S
C1327 C1326 1.363 . S
C1327 C1333 1.363 . S
C1328 C1329 1.363 . S
C1328 C1333 1.379 . S
C1328 N1335 1.356 . S
C1329 C1328 1.363 . S
C1329 C1332 1.363 . S
N1330 C1332 1.356 . S
N1330 H1342 0.984 . S
N1330 H1343 0.985 . S
N1331 C1333 1.355 . S
N1331 H1336 0.984 . S
N1331 H1337 0.986 1_455 S
C1332 C1326 1.379 . S
C1332 C1329 1.363 . S
C1332 N1330 1.356 . S
C1333 C1327 1.363 . S
C1333 C1328 1.379 . S
C1333 N1331 1.355 . S
N1334 C1326 1.356 . S
N1334 H1340 0.984 . S
N1334 H1341 0.984 . S
N1335 C1328 1.356 . S
N1335 H1338 0.984 . S
N1335 H1339 0.985 1_455 S
H1336 N1331 0.984 . S
H1337 N1331 0.986 1_655 S
H1338 N1335 0.984 . S
H1339 N1335 0.985 1_655 S
H1340 N1334 0.984 . S
H1341 N1334 0.984 . S
H1342 N1330 0.984 . S
H1343 N1330 0.985 . S
C1344 C1345 1.363 . S
C1344 C1350 1.379 . S
C1344 N1352 1.356 . S
C1345 C1344 1.363 . S
C1345 C1351 1.363 . S
C1346 C1347 1.363 . S
C1346 C1351 1.379 . S
C1346 N1353 1.356 . S
C1347 C1346 1.363 . S
C1347 C1350 1.363 . S
N1348 C1350 1.356 . S
N1348 H1360 0.984 . S
N1348 H1361 0.985 . S
N1349 C1351 1.356 . S
N1349 H1354 0.984 . S
N1349 H1355 0.985 . S
C1350 C1344 1.379 . S
C1350 C1347 1.363 . S
C1350 N1348 1.356 . S
C1351 C1345 1.363 . S
C1351 C1346 1.379 . S
C1351 N1349 1.356 . S
N1352 C1344 1.356 . S
N1352 H1358 0.984 . S
N1352 H1359 0.984 . S
N1353 C1346 1.356 . S
N1353 H1356 0.984 . S
N1353 H1357 0.985 . S
H1354 N1349 0.984 . S
H1355 N1349 0.985 . S
H1356 N1353 0.984 . S
H1357 N1353 0.985 . S
H1358 N1352 0.984 . S
H1359 N1352 0.984 . S
H1360 N1348 0.984 . S
H1361 N1348 0.985 . S
C1362 C1363 1.363 . S
C1362 C1368 1.379 . S
C1362 N1370 1.356 . S
C1363 C1362 1.363 . S
C1363 C1369 1.363 . S
C1364 C1365 1.363 . S
C1364 C1369 1.379 . S
C1364 N1371 1.356 . S
C1365 C1364 1.363 . S
C1365 C1368 1.363 . S
N1366 C1368 1.356 . S
N1366 H1378 0.984 . S
N1366 H1379 0.985 . S
N1367 C1369 1.356 . S
N1367 H1372 0.984 . S
N1367 H1373 0.985 . S
C1368 C1362 1.379 . S
C1368 C1365 1.363 . S
C1368 N1366 1.356 . S
C1369 C1363 1.363 . S
C1369 C1364 1.379 . S
C1369 N1367 1.356 . S
N1370 C1362 1.356 . S
N1370 H1376 0.984 . S
N1370 H1377 0.984 . S
N1371 C1364 1.356 . S
N1371 H1374 0.984 . S
N1371 H1375 0.985 . S
H1372 N1367 0.984 . S
H1373 N1367 0.985 . S
H1374 N1371 0.984 . S
H1375 N1371 0.985 . S
H1376 N1370 0.984 . S
H1377 N1370 0.984 . S
H1378 N1366 0.984 . S
H1379 N1366 0.985 . S
C1380 C1381 1.363 . S
C1380 C1386 1.379 . S
C1380 N1388 1.356 . S
C1381 C1380 1.363 . S
C1381 C1387 1.363 . S
C1382 C1383 1.363 . S
C1382 C1387 1.379 . S
C1382 N1389 1.356 . S
C1383 C1382 1.363 . S
C1383 C1386 1.363 . S
N1384 C1386 1.356 . S
N1384 H1396 0.984 1_554 S
N1384 H1397 0.985 . S
N1385 C1387 1.356 . S
N1385 H1390 0.984 . S
N1385 H1391 0.985 . S
C1386 C1380 1.379 . S
C1386 C1383 1.363 . S
C1386 N1384 1.356 . S
C1387 C1381 1.363 . S
C1387 C1382 1.379 . S
C1387 N1385 1.356 . S
N1388 C1380 1.356 . S
N1388 H1394 0.984 1_554 S
N1388 H1395 0.984 . S
N1389 C1382 1.356 . S
N1389 H1392 0.984 . S
N1389 H1393 0.985 . S
H1390 N1385 0.984 . S
H1391 N1385 0.985 . S
H1392 N1389 0.984 . S
H1393 N1389 0.985 . S
H1394 N1388 0.984 1_556 S
H1395 N1388 0.984 . S
H1396 N1384 0.984 1_556 S
H1397 N1384 0.985 . S
C1398 C1399 1.363 . S
C1398 C1404 1.379 . S
C1398 N1406 1.356 . S
C1399 C1398 1.363 . S
C1399 C1405 1.363 . S
C1400 C1401 1.363 . S
C1400 C1405 1.379 . S
C1400 N1407 1.356 . S
C1401 C1400 1.363 . S
C1401 C1404 1.363 . S
N1402 C1404 1.356 . S
N1402 H1414 0.984 . S
N1402 H1415 0.985 . S
N1403 C1405 1.356 . S
N1403 H1408 0.984 . S
N1403 H1409 0.985 . S
C1404 C1398 1.379 . S
C1404 C1401 1.363 . S
C1404 N1402 1.356 . S
C1405 C1399 1.363 . S
C1405 C1400 1.379 . S
C1405 N1403 1.356 . S
N1406 C1398 1.356 . S
N1406 H1412 0.984 . S
N1406 H1413 0.984 . S
N1407 C1400 1.356 . S
N1407 H1410 0.984 . S
N1407 H1411 0.985 . S
H1408 N1403 0.984 . S
H1409 N1403 0.985 . S
H1410 N1407 0.984 . S
H1411 N1407 0.985 . S
H1412 N1406 0.984 . S
H1413 N1406 0.984 . S
H1414 N1402 0.984 . S
H1415 N1402 0.985 . S
C1416 C1417 1.363 . S
C1416 C1422 1.379 . S
C1416 N1424 1.356 . S
C1417 C1416 1.363 . S
C1417 C1423 1.363 . S
C1418 C1419 1.363 . S
C1418 C1423 1.379 . S
C1418 N1425 1.356 . S
C1419 C1418 1.363 . S
C1419 C1422 1.363 . S
N1420 C1422 1.356 . S
N1420 H1432 0.984 1_554 S
N1420 H1433 0.985 . S
N1421 C1423 1.356 . S
N1421 H1426 0.984 1_565 S
N1421 H1427 0.985 . S
C1422 C1416 1.379 . S
C1422 C1419 1.363 . S
C1422 N1420 1.356 . S
C1423 C1417 1.363 . S
C1423 C1418 1.379 . S
C1423 N1421 1.356 . S
N1424 C1416 1.356 . S
N1424 H1430 0.984 1_554 S
N1424 H1431 0.984 . S
N1425 C1418 1.356 . S
N1425 H1428 0.984 . S
N1425 H1429 0.985 . S
H1426 N1421 0.984 1_545 S
H1427 N1421 0.985 . S
H1428 N1425 0.984 . S
H1429 N1425 0.985 . S
H1430 N1424 0.984 1_556 S
H1431 N1424 0.984 . S
H1432 N1420 0.984 1_556 S
H1433 N1420 0.985 . S
C1434 C1435 1.363 . S
C1434 C1440 1.379 . S
C1434 N1442 1.356 . S
C1435 C1434 1.363 . S
C1435 C1441 1.363 . S
C1436 C1437 1.363 . S
C1436 C1441 1.379 . S
C1436 N1443 1.356 . S
C1437 C1436 1.363 . S
C1437 C1440 1.363 . S
N1438 C1440 1.356 . S
N1438 H1450 0.984 . S
N1438 H1451 0.985 . S
N1439 C1441 1.356 . S
N1439 H1444 0.984 . S
N1439 H1445 0.985 . S
C1440 C1434 1.379 . S
C1440 C1437 1.363 . S
C1440 N1438 1.356 . S
C1441 C1435 1.363 . S
C1441 C1436 1.379 . S
C1441 N1439 1.356 . S
N1442 C1434 1.356 . S
N1442 H1448 0.984 . S
N1442 H1449 0.984 . S
N1443 C1436 1.356 . S
N1443 H1446 0.984 . S
N1443 H1447 0.985 . S
H1444 N1439 0.984 . S
H1445 N1439 0.985 . S
H1446 N1443 0.984 . S
H1447 N1443 0.985 . S
H1448 N1442 0.984 . S
H1449 N1442 0.984 . S
H1450 N1438 0.984 . S
H1451 N1438 0.985 . S
C1452 C1453 1.363 . S
C1452 C1458 1.379 . S
C1452 N1460 1.356 . S
C1453 C1452 1.363 . S
C1453 C1459 1.363 . S
C1454 C1455 1.363 . S
C1454 C1459 1.379 . S
C1454 N1461 1.356 . S
C1455 C1454 1.363 . S
C1455 C1458 1.363 . S
N1456 C1458 1.356 . S
N1456 H1468 0.984 . S
N1456 H1469 0.985 . S
N1457 C1459 1.356 . S
N1457 H1462 0.984 . S
N1457 H1463 0.985 . S
C1458 C1452 1.379 . S
C1458 C1455 1.363 . S
C1458 N1456 1.356 . S
C1459 C1453 1.363 . S
C1459 C1454 1.379 . S
C1459 N1457 1.356 . S
N1460 C1452 1.356 . S
N1460 H1466 0.984 . S
N1460 H1467 0.984 . S
N1461 C1454 1.356 . S
N1461 H1464 0.984 . S
N1461 H1465 0.985 . S
H1462 N1457 0.984 . S
H1463 N1457 0.985 . S
H1464 N1461 0.984 . S
H1465 N1461 0.985 . S
H1466 N1460 0.984 . S
H1467 N1460 0.984 . S
H1468 N1456 0.984 . S
H1469 N1456 0.985 . S
C1470 C1471 1.363 . S
C1470 C1476 1.379 . S
C1470 N1478 1.356 . S
C1471 C1470 1.363 . S
C1471 C1477 1.363 . S
C1472 C1473 1.363 . S
C1472 C1477 1.379 . S
C1472 N1479 1.356 . S
C1473 C1472 1.363 . S
C1473 C1476 1.363 . S
N1474 C1476 1.356 . S
N1474 H1486 0.984 1_556 S
N1474 H1487 0.985 . S
N1475 C1477 1.356 . S
N1475 H1480 0.984 . S
N1475 H1481 0.985 . S
C1476 C1470 1.379 . S
C1476 C1473 1.363 . S
C1476 N1474 1.356 . S
C1477 C1471 1.363 . S
C1477 C1472 1.379 . S
C1477 N1475 1.356 . S
N1478 C1470 1.356 . S
N1478 H1484 0.984 1_556 S
N1478 H1485 0.984 . S
N1479 C1472 1.356 . S
N1479 H1482 0.984 . S
N1479 H1483 0.985 . S
H1480 N1475 0.984 . S
H1481 N1475 0.985 . S
H1482 N1479 0.984 . S
H1483 N1479 0.985 . S
H1484 N1478 0.984 1_554 S
H1485 N1478 0.984 . S
H1486 N1474 0.984 1_554 S
H1487 N1474 0.985 . S
C1488 C1489 1.363 . S
C1488 C1494 1.379 . S
C1488 N1496 1.356 . S
C1489 C1488 1.363 . S
C1489 C1495 1.363 . S
C1490 C1491 1.363 . S
C1490 C1495 1.379 . S
C1490 N1497 1.356 . S
C1491 C1490 1.363 . S
C1491 C1494 1.363 . S
N1492 C1494 1.356 . S
N1492 H1504 0.984 . S
N1492 H1505 0.985 . S
N1493 C1495 1.356 . S
N1493 H1498 0.984 . S
N1493 H1499 0.985 . S
C1494 C1488 1.379 . S
C1494 C1491 1.363 . S
C1494 N1492 1.356 . S
C1495 C1489 1.363 . S
C1495 C1490 1.379 . S
C1495 N1493 1.356 . S
N1496 C1488 1.356 . S
N1496 H1502 0.984 . S
N1496 H1503 0.984 . S
N1497 C1490 1.356 . S
N1497 H1500 0.984 . S
N1497 H1501 0.985 . S
H1498 N1493 0.984 . S
H1499 N1493 0.985 . S
H1500 N1497 0.984 . S
H1501 N1497 0.985 . S
H1502 N1496 0.984 . S
H1503 N1496 0.984 . S
H1504 N1492 0.984 . S
H1505 N1492 0.985 . S
C1506 C1507 1.363 . S
C1506 C1512 1.379 . S
C1506 N1514 1.356 . S
C1507 C1506 1.363 . S
C1507 C1513 1.363 . S
C1508 C1509 1.363 . S
C1508 C1513 1.379 . S
C1508 N1515 1.356 . S
C1509 C1508 1.363 . S
C1509 C1512 1.363 . S
N1510 C1512 1.356 . S
N1510 H1522 0.984 . S
N1510 H1523 0.985 . S
N1511 C1513 1.356 . S
N1511 H1516 0.984 . S
N1511 H1517 0.985 . S
C1512 C1506 1.379 . S
C1512 C1509 1.363 . S
C1512 N1510 1.356 . S
C1513 C1507 1.363 . S
C1513 C1508 1.379 . S
C1513 N1511 1.356 . S
N1514 C1506 1.356 . S
N1514 H1520 0.984 . S
N1514 H1521 0.984 . S
N1515 C1508 1.356 . S
N1515 H1518 0.984 . S
N1515 H1519 0.985 . S
H1516 N1511 0.984 . S
H1517 N1511 0.985 . S
H1518 N1515 0.984 . S
H1519 N1515 0.985 . S
H1520 N1514 0.984 . S
H1521 N1514 0.984 . S
H1522 N1510 0.984 . S
H1523 N1510 0.985 . S
C1524 C1525 1.363 . S
C1524 C1530 1.379 . S
C1524 N1532 1.356 . S
C1525 C1524 1.363 . S
C1525 C1531 1.363 . S
C1526 C1527 1.363 . S
C1526 C1531 1.379 . S
C1526 N1533 1.356 . S
C1527 C1526 1.363 . S
C1527 C1530 1.363 . S
N1528 C1530 1.356 . S
N1528 H1540 0.984 . S
N1528 H1541 0.985 . S
N1529 C1531 1.356 . S
N1529 H1534 0.984 . S
N1529 H1535 0.985 . S
C1530 C1524 1.379 . S
C1530 C1527 1.363 . S
C1530 N1528 1.356 . S
C1531 C1525 1.363 . S
C1531 C1526 1.379 . S
C1531 N1529 1.356 . S
N1532 C1524 1.356 . S
N1532 H1538 0.984 . S
N1532 H1539 0.984 . S
N1533 C1526 1.356 . S
N1533 H1536 0.984 . S
N1533 H1537 0.985 . S
H1534 N1529 0.984 . S
H1535 N1529 0.985 . S
H1536 N1533 0.984 . S
H1537 N1533 0.985 . S
H1538 N1532 0.984 . S
H1539 N1532 0.984 . S
H1540 N1528 0.984 . S
H1541 N1528 0.985 . S
C1542 C1543 1.363 . S
C1542 C1548 1.379 . S
C1542 N1550 1.356 . S
C1543 C1542 1.363 . S
C1543 C1549 1.363 . S
C1544 C1545 1.363 . S
C1544 C1549 1.379 . S
C1544 N1551 1.356 . S
C1545 C1544 1.363 . S
C1545 C1548 1.363 . S
N1546 C1548 1.356 . S
N1546 H1558 0.984 . S
N1546 H1559 0.985 . S
N1547 C1549 1.356 . S
N1547 H1552 0.984 1_455 S
N1547 H1553 0.985 . S
C1548 C1542 1.379 . S
C1548 C1545 1.363 . S
C1548 N1546 1.356 . S
C1549 C1543 1.363 . S
C1549 C1544 1.379 . S
C1549 N1547 1.356 . S
N1550 C1542 1.356 . S
N1550 H1556 0.984 . S
N1550 H1557 0.984 . S
N1551 C1544 1.356 . S
N1551 H1554 0.984 . S
N1551 H1555 0.985 . S
H1552 N1547 0.984 1_655 S
H1553 N1547 0.985 . S
H1554 N1551 0.984 . S
H1555 N1551 0.985 . S
H1556 N1550 0.984 . S
H1557 N1550 0.984 . S
H1558 N1546 0.984 . S
H1559 N1546 0.985 . S
C1560 C1561 1.363 . S
C1560 C1566 1.379 . S
C1560 N1568 1.356 . S
C1561 C1560 1.363 . S
C1561 C1567 1.363 . S
C1562 C1563 1.363 . S
C1562 C1567 1.379 . S
C1562 N1569 1.356 . S
C1563 C1562 1.363 . S
C1563 C1566 1.363 . S
N1564 C1566 1.356 . S
N1564 H1576 0.984 . S
N1564 H1577 0.985 . S
N1565 C1567 1.356 . S
N1565 H1570 0.984 . S
N1565 H1571 0.985 . S
C1566 C1560 1.379 . S
C1566 C1563 1.363 . S
C1566 N1564 1.356 . S
C1567 C1561 1.363 . S
C1567 C1562 1.379 . S
C1567 N1565 1.356 . S
N1568 C1560 1.356 . S
N1568 H1574 0.984 . S
N1568 H1575 0.984 . S
N1569 C1562 1.356 . S
N1569 H1572 0.984 . S
N1569 H1573 0.985 . S
H1570 N1565 0.984 . S
H1571 N1565 0.985 . S
H1572 N1569 0.984 . S
H1573 N1569 0.985 . S
H1574 N1568 0.984 . S
H1575 N1568 0.984 . S
H1576 N1564 0.984 . S
H1577 N1564 0.985 . S
C1578 C1579 1.363 . S
C1578 C1584 1.379 . S
C1578 N1586 1.356 . S
C1579 C1578 1.363 . S
C1579 C1585 1.363 . S
C1580 C1581 1.363 . S
C1580 C1585 1.379 . S
C1580 N1587 1.356 . S
C1581 C1580 1.363 . S
C1581 C1584 1.363 . S
N1582 C1584 1.356 . S
N1582 H1594 0.984 . S
N1582 H1595 0.985 . S
N1583 C1585 1.356 . S
N1583 H1588 0.984 . S
N1583 H1589 0.985 . S
C1584 C1578 1.379 . S
C1584 C1581 1.363 . S
C1584 N1582 1.356 . S
C1585 C1579 1.363 . S
C1585 C1580 1.379 . S
C1585 N1583 1.356 . S
N1586 C1578 1.356 . S
N1586 H1592 0.984 . S
N1586 H1593 0.984 . S
N1587 C1580 1.356 . S
N1587 H1590 0.984 . S
N1587 H1591 0.985 . S
H1588 N1583 0.984 . S
H1589 N1583 0.985 . S
H1590 N1587 0.984 . S
H1591 N1587 0.985 . S
H1592 N1586 0.984 . S
H1593 N1586 0.984 . S
H1594 N1582 0.984 . S
H1595 N1582 0.985 . S
C1596 C1597 1.363 . S
C1596 C1602 1.379 . S
C1596 N1604 1.356 . S
C1597 C1596 1.363 . S
C1597 C1603 1.363 . S
C1598 C1599 1.363 . S
C1598 C1603 1.379 . S
C1598 N1605 1.356 . S
C1599 C1598 1.363 . S
C1599 C1602 1.363 . S
N1600 C1602 1.356 . S
N1600 H1612 0.984 . S
N1600 H1613 0.985 . S
N1601 C1603 1.356 . S
N1601 H1606 0.984 . S
N1601 H1607 0.985 . S
C1602 C1596 1.379 . S
C1602 C1599 1.363 . S
C1602 N1600 1.356 . S
C1603 C1597 1.363 . S
C1603 C1598 1.379 . S
C1603 N1601 1.356 . S
N1604 C1596 1.356 . S
N1604 H1610 0.984 . S
N1604 H1611 0.984 . S
N1605 C1598 1.356 . S
N1605 H1608 0.984 . S
N1605 H1609 0.985 . S
H1606 N1601 0.984 . S
H1607 N1601 0.985 . S
H1608 N1605 0.984 . S
H1609 N1605 0.985 . S
H1610 N1604 0.984 . S
H1611 N1604 0.984 . S
H1612 N1600 0.984 . S
H1613 N1600 0.985 . S
C1614 C1615 1.363 . S
C1614 C1620 1.379 . S
C1614 N1622 1.356 . S
C1615 C1614 1.363 . S
C1615 C1621 1.363 . S
C1616 C1617 1.363 . S
C1616 C1621 1.379 . S
C1616 N1623 1.356 . S
C1617 C1616 1.363 . S
C1617 C1620 1.363 . S
N1618 C1620 1.356 . S
N1618 H1630 0.984 . S
N1618 H1631 0.985 . S
N1619 C1621 1.356 . S
N1619 H1624 0.984 . S
N1619 H1625 0.985 . S
C1620 C1614 1.379 . S
C1620 C1617 1.363 . S
C1620 N1618 1.356 . S
C1621 C1615 1.363 . S
C1621 C1616 1.379 . S
C1621 N1619 1.356 . S
N1622 C1614 1.356 . S
N1622 H1628 0.984 . S
N1622 H1629 0.984 . S
N1623 C1616 1.356 . S
N1623 H1626 0.984 . S
N1623 H1627 0.985 . S
H1624 N1619 0.984 . S
H1625 N1619 0.985 . S
H1626 N1623 0.984 . S
H1627 N1623 0.985 . S
H1628 N1622 0.984 . S
H1629 N1622 0.984 . S
H1630 N1618 0.984 . S
H1631 N1618 0.985 . S
C1632 C1633 1.363 . S
C1632 C1638 1.379 . S
C1632 N1640 1.356 . S
C1633 C1632 1.363 . S
C1633 C1639 1.363 . S
C1634 C1635 1.363 . S
C1634 C1639 1.379 . S
C1634 N1641 1.356 . S
C1635 C1634 1.363 . S
C1635 C1638 1.363 . S
N1636 C1638 1.356 . S
N1636 H1648 0.984 . S
N1636 H1649 0.985 . S
N1637 C1639 1.356 . S
N1637 H1642 0.984 . S
N1637 H1643 0.985 . S
C1638 C1632 1.379 . S
C1638 C1635 1.363 . S
C1638 N1636 1.356 . S
C1639 C1633 1.363 . S
C1639 C1634 1.379 . S
C1639 N1637 1.356 . S
N1640 C1632 1.356 . S
N1640 H1646 0.984 . S
N1640 H1647 0.984 . S
N1641 C1634 1.356 . S
N1641 H1644 0.984 . S
N1641 H1645 0.985 . S
H1642 N1637 0.984 . S
H1643 N1637 0.985 . S
H1644 N1641 0.984 . S
H1645 N1641 0.985 . S
H1646 N1640 0.984 . S
H1647 N1640 0.984 . S
H1648 N1636 0.984 . S
H1649 N1636 0.985 . S
C1650 C1651 1.363 . S
C1650 C1656 1.379 . S
C1650 N1658 1.356 . S
C1651 C1650 1.363 . S
C1651 C1657 1.363 . S
C1652 C1653 1.363 . S
C1652 C1657 1.379 . S
C1652 N1659 1.356 . S
C1653 C1652 1.363 . S
C1653 C1656 1.363 . S
N1654 C1656 1.356 . S
N1654 H1666 0.984 . S
N1654 H1667 0.985 . S
N1655 C1657 1.356 . S
N1655 H1660 0.984 . S
N1655 H1661 0.985 . S
C1656 C1650 1.379 . S
C1656 C1653 1.363 . S
C1656 N1654 1.356 . S
C1657 C1651 1.363 . S
C1657 C1652 1.379 . S
C1657 N1655 1.356 . S
N1658 C1650 1.356 . S
N1658 H1664 0.984 . S
N1658 H1665 0.984 . S
N1659 C1652 1.356 . S
N1659 H1662 0.984 1_554 S
N1659 H1663 0.985 1_554 S
H1660 N1655 0.984 . S
H1661 N1655 0.985 . S
H1662 N1659 0.984 1_556 S
H1663 N1659 0.985 1_556 S
H1664 N1658 0.984 . S
H1665 N1658 0.984 . S
H1666 N1654 0.984 . S
H1667 N1654 0.985 . S
C1668 C1669 1.363 . S
C1668 C1674 1.379 . S
C1668 N1676 1.356 . S
C1669 C1668 1.363 . S
C1669 C1675 1.363 . S
C1670 C1671 1.363 . S
C1670 C1675 1.379 . S
C1670 N1677 1.356 . S
C1671 C1670 1.363 . S
C1671 C1674 1.363 . S
N1672 C1674 1.356 . S
N1672 H1684 0.984 . S
N1672 H1685 0.985 . S
N1673 C1675 1.356 . S
N1673 H1678 0.984 . S
N1673 H1679 0.985 . S
C1674 C1668 1.379 . S
C1674 C1671 1.363 . S
C1674 N1672 1.356 . S
C1675 C1669 1.363 . S
C1675 C1670 1.379 . S
C1675 N1673 1.356 . S
N1676 C1668 1.356 . S
N1676 H1682 0.984 . S
N1676 H1683 0.984 . S
N1677 C1670 1.356 . S
N1677 H1680 0.984 . S
N1677 H1681 0.985 . S
H1678 N1673 0.984 . S
H1679 N1673 0.985 . S
H1680 N1677 0.984 . S
H1681 N1677 0.985 . S
H1682 N1676 0.984 . S
H1683 N1676 0.984 . S
H1684 N1672 0.984 . S
H1685 N1672 0.985 . S
C1686 C1687 1.363 . S
C1686 C1692 1.379 . S
C1686 N1694 1.356 . S
C1687 C1686 1.363 . S
C1687 C1693 1.363 . S
C1688 C1689 1.363 . S
C1688 C1693 1.379 . S
C1688 N1695 1.356 . S
C1689 C1688 1.363 . S
C1689 C1692 1.363 . S
N1690 C1692 1.356 . S
N1690 H1702 0.984 . S
N1690 H1703 0.985 . S
N1691 C1693 1.356 . S
N1691 H1696 0.984 . S
N1691 H1697 0.985 . S
C1692 C1686 1.379 . S
C1692 C1689 1.363 . S
C1692 N1690 1.356 . S
C1693 C1687 1.363 . S
C1693 C1688 1.379 . S
C1693 N1691 1.356 . S
N1694 C1686 1.356 . S
N1694 H1700 0.984 . S
N1694 H1701 0.984 . S
N1695 C1688 1.356 . S
N1695 H1698 0.984 . S
N1695 H1699 0.985 . S
H1696 N1691 0.984 . S
H1697 N1691 0.985 . S
H1698 N1695 0.984 . S
H1699 N1695 0.985 . S
H1700 N1694 0.984 . S
H1701 N1694 0.984 . S
H1702 N1690 0.984 . S
H1703 N1690 0.985 . S
C1704 C1705 1.363 . S
C1704 C1710 1.379 . S
C1704 N1712 1.356 . S
C1705 C1704 1.363 . S
C1705 C1711 1.363 . S
C1706 C1707 1.363 . S
C1706 C1711 1.379 . S
C1706 N1713 1.356 . S
C1707 C1706 1.363 . S
C1707 C1710 1.363 . S
N1708 C1710 1.356 . S
N1708 H1720 0.984 . S
N1708 H1721 0.985 . S
N1709 C1711 1.356 . S
N1709 H1714 0.984 . S
N1709 H1715 0.985 . S
C1710 C1704 1.379 . S
C1710 C1707 1.363 . S
C1710 N1708 1.356 . S
C1711 C1705 1.363 . S
C1711 C1706 1.379 . S
C1711 N1709 1.356 . S
N1712 C1704 1.356 . S
N1712 H1718 0.984 . S
N1712 H1719 0.984 . S
N1713 C1706 1.356 . S
N1713 H1716 0.984 . S
N1713 H1717 0.985 . S
H1714 N1709 0.984 . S
H1715 N1709 0.985 . S
H1716 N1713 0.984 . S
H1717 N1713 0.985 . S
H1718 N1712 0.984 . S
H1719 N1712 0.984 . S
H1720 N1708 0.984 . S
H1721 N1708 0.985 . S
C1722 C1723 1.363 . S
C1722 C1728 1.379 . S
C1722 N1730 1.356 . S
C1723 C1722 1.363 . S
C1723 C1729 1.363 . S
C1724 C1725 1.363 . S
C1724 C1729 1.379 . S
C1724 N1731 1.356 . S
C1725 C1724 1.363 . S
C1725 C1728 1.363 . S
N1726 C1728 1.356 . S
N1726 H1738 0.984 1_655 S
N1726 H1739 0.985 . S
N1727 C1729 1.356 . S
N1727 H1732 0.984 . S
N1727 H1733 0.985 . S
C1728 C1722 1.379 . S
C1728 C1725 1.363 . S
C1728 N1726 1.356 . S
C1729 C1723 1.363 . S
C1729 C1724 1.379 . S
C1729 N1727 1.356 . S
N1730 C1722 1.356 . S
N1730 H1736 0.984 1_655 S
N1730 H1737 0.984 . S
N1731 C1724 1.356 . S
N1731 H1734 0.984 1_556 S
N1731 H1735 0.985 . S
H1732 N1727 0.984 . S
H1733 N1727 0.985 . S
H1734 N1731 0.984 1_554 S
H1735 N1731 0.985 . S
H1736 N1730 0.984 1_455 S
H1737 N1730 0.984 . S
H1738 N1726 0.984 1_455 S
H1739 N1726 0.985 . S
C1740 C1741 1.363 . S
C1740 C1746 1.379 . S
C1740 N1748 1.356 . S
C1741 C1740 1.363 . S
C1741 C1747 1.363 . S
C1742 C1743 1.363 . S
C1742 C1747 1.379 . S
C1742 N1749 1.356 . S
C1743 C1742 1.363 . S
C1743 C1746 1.363 . S
N1744 C1746 1.356 . S
N1744 H1756 0.984 . S
N1744 H1757 0.985 . S
N1745 C1747 1.356 . S
N1745 H1750 0.984 . S
N1745 H1751 0.985 . S
C1746 C1740 1.379 . S
C1746 C1743 1.363 . S
C1746 N1744 1.356 . S
C1747 C1741 1.363 . S
C1747 C1742 1.379 . S
C1747 N1745 1.356 . S
N1748 C1740 1.356 . S
N1748 H1754 0.984 . S
N1748 H1755 0.984 . S
N1749 C1742 1.356 . S
N1749 H1752 0.984 . S
N1749 H1753 0.985 . S
H1750 N1745 0.984 . S
H1751 N1745 0.985 . S
H1752 N1749 0.984 . S
H1753 N1749 0.985 . S
H1754 N1748 0.984 . S
H1755 N1748 0.984 . S
H1756 N1744 0.984 . S
H1757 N1744 0.985 . S
C1758 C1759 1.363 . S
C1758 C1764 1.379 . S
C1758 N1766 1.356 . S
C1759 C1758 1.363 . S
C1759 C1765 1.363 . S
C1760 C1761 1.363 . S
C1760 C1765 1.379 . S
C1760 N1767 1.356 . S
C1761 C1760 1.363 . S
C1761 C1764 1.363 . S
N1762 C1764 1.356 . S
N1762 H1774 0.984 . S
N1762 H1775 0.985 . S
N1763 C1765 1.356 . S
N1763 H1768 0.984 . S
N1763 H1769 0.985 . S
C1764 C1758 1.379 . S
C1764 C1761 1.363 . S
C1764 N1762 1.356 . S
C1765 C1759 1.363 . S
C1765 C1760 1.379 . S
C1765 N1763 1.356 . S
N1766 C1758 1.356 . S
N1766 H1772 0.984 . S
N1766 H1773 0.984 . S
N1767 C1760 1.356 . S
N1767 H1770 0.984 . S
N1767 H1771 0.985 . S
H1768 N1763 0.984 . S
H1769 N1763 0.985 . S
H1770 N1767 0.984 . S
H1771 N1767 0.985 . S
H1772 N1766 0.984 . S
H1773 N1766 0.984 . S
H1774 N1762 0.984 . S
H1775 N1762 0.985 . S
C1776 C1777 1.363 . S
C1776 C1782 1.379 . S
C1776 N1784 1.356 . S
C1777 C1776 1.363 . S
C1777 C1783 1.363 . S
C1778 C1779 1.363 . S
C1778 C1783 1.379 . S
C1778 N1785 1.356 . S
C1779 C1778 1.363 . S
C1779 C1782 1.363 . S
N1780 C1782 1.356 . S
N1780 H1792 0.984 . S
N1780 H1793 0.985 . S
N1781 C1783 1.356 . S
N1781 H1786 0.984 . S
N1781 H1787 0.985 . S
C1782 C1776 1.379 . S
C1782 C1779 1.363 . S
C1782 N1780 1.356 . S
C1783 C1777 1.363 . S
C1783 C1778 1.379 . S
C1783 N1781 1.356 . S
N1784 C1776 1.356 . S
N1784 H1790 0.984 . S
N1784 H1791 0.984 . S
N1785 C1778 1.356 . S
N1785 H1788 0.984 . S
N1785 H1789 0.985 . S
H1786 N1781 0.984 . S
H1787 N1781 0.985 . S
H1788 N1785 0.984 . S
H1789 N1785 0.985 . S
H1790 N1784 0.984 . S
H1791 N1784 0.984 . S
H1792 N1780 0.984 . S
H1793 N1780 0.985 . S
C1794 C1795 1.363 . S
C1794 C1800 1.379 . S
C1794 N1802 1.356 . S
C1795 C1794 1.363 . S
C1795 C1801 1.363 . S
C1796 C1797 1.363 . S
C1796 C1801 1.379 . S
C1796 N1803 1.356 . S
C1797 C1796 1.363 . S
C1797 C1800 1.363 . S
N1798 C1800 1.356 . S
N1798 H1810 0.984 . S
N1798 H1811 0.985 . S
N1799 C1801 1.356 . S
N1799 H1804 0.984 . S
N1799 H1805 0.985 . S
C1800 C1794 1.379 . S
C1800 C1797 1.363 . S
C1800 N1798 1.356 . S
C1801 C1795 1.363 . S
C1801 C1796 1.379 . S
C1801 N1799 1.356 . S
N1802 C1794 1.356 . S
N1802 H1808 0.984 . S
N1802 H1809 0.984 . S
N1803 C1796 1.356 . S
N1803 H1806 0.984 . S
N1803 H1807 0.985 . S
H1804 N1799 0.984 . S
H1805 N1799 0.985 . S
H1806 N1803 0.984 . S
H1807 N1803 0.985 . S
H1808 N1802 0.984 . S
H1809 N1802 0.984 . S
H1810 N1798 0.984 . S
H1811 N1798 0.985 . S
C1812 C1813 1.363 . S
C1812 C1818 1.379 . S
C1812 N1820 1.356 . S
C1813 C1812 1.363 . S
C1813 C1819 1.363 . S
C1814 C1815 1.363 . S
C1814 C1819 1.379 . S
C1814 N1821 1.356 . S
C1815 C1814 1.363 . S
C1815 C1818 1.363 . S
N1816 C1818 1.356 . S
N1816 H1828 0.984 . S
N1816 H1829 0.985 1_545 S
N1817 C1819 1.356 . S
N1817 H1822 0.984 . S
N1817 H1823 0.985 . S
C1818 C1812 1.379 . S
C1818 C1815 1.363 . S
C1818 N1816 1.356 . S
C1819 C1813 1.363 . S
C1819 C1814 1.379 . S
C1819 N1817 1.356 . S
N1820 C1812 1.356 . S
N1820 H1826 0.984 . S
N1820 H1827 0.984 . S
N1821 C1814 1.356 . S
N1821 H1824 0.984 . S
N1821 H1825 0.985 . S
H1822 N1817 0.984 . S
H1823 N1817 0.985 . S
H1824 N1821 0.984 . S
H1825 N1821 0.985 . S
H1826 N1820 0.984 . S
H1827 N1820 0.984 . S
H1828 N1816 0.984 . S
H1829 N1816 0.985 1_565 S
C1830 C1831 1.363 . S
C1830 C1836 1.379 . S
C1830 N1838 1.356 . S
C1831 C1830 1.363 . S
C1831 C1837 1.363 . S
C1832 C1833 1.363 . S
C1832 C1837 1.379 . S
C1832 N1839 1.356 . S
C1833 C1832 1.363 . S
C1833 C1836 1.363 . S
N1834 C1836 1.356 . S
N1834 H1846 0.984 . S
N1834 H1847 0.985 . S
N1835 C1837 1.356 . S
N1835 H1840 0.984 . S
N1835 H1841 0.985 . S
C1836 C1830 1.379 . S
C1836 C1833 1.363 . S
C1836 N1834 1.356 . S
C1837 C1831 1.363 . S
C1837 C1832 1.379 . S
C1837 N1835 1.356 . S
N1838 C1830 1.356 . S
N1838 H1844 0.984 . S
N1838 H1845 0.984 . S
N1839 C1832 1.356 . S
N1839 H1842 0.984 . S
N1839 H1843 0.985 . S
H1840 N1835 0.984 . S
H1841 N1835 0.985 . S
H1842 N1839 0.984 . S
H1843 N1839 0.985 . S
H1844 N1838 0.984 . S
H1845 N1838 0.984 . S
H1846 N1834 0.984 . S
H1847 N1834 0.985 . S
C1848 C1849 1.363 . S
C1848 C1854 1.379 . S
C1848 N1856 1.356 . S
C1849 C1848 1.363 . S
C1849 C1855 1.363 . S
C1850 C1851 1.363 . S
C1850 C1855 1.379 . S
C1850 N1857 1.356 . S
C1851 C1850 1.363 . S
C1851 C1854 1.363 . S
N1852 C1854 1.356 . S
N1852 H1864 0.984 . S
N1852 H1865 0.985 . S
N1853 C1855 1.356 . S
N1853 H1858 0.984 . S
N1853 H1859 0.985 . S
C1854 C1848 1.379 . S
C1854 C1851 1.363 . S
C1854 N1852 1.356 . S
C1855 C1849 1.363 . S
C1855 C1850 1.379 . S
C1855 N1853 1.356 . S
N1856 C1848 1.356 . S
N1856 H1862 0.984 . S
N1856 H1863 0.984 . S
N1857 C1850 1.356 . S
N1857 H1860 0.984 . S
N1857 H1861 0.985 . S
H1858 N1853 0.984 . S
H1859 N1853 0.985 . S
H1860 N1857 0.984 . S
H1861 N1857 0.985 . S
H1862 N1856 0.984 . S
H1863 N1856 0.984 . S
H1864 N1852 0.984 . S
H1865 N1852 0.985 . S
C1866 C1867 1.363 . S
C1866 C1872 1.379 . S
C1866 N1874 1.356 . S
C1867 C1866 1.363 . S
C1867 C1873 1.363 . S
C1868 C1869 1.363 . S
C1868 C1873 1.379 . S
C1868 N1875 1.356 . S
C1869 C1868 1.363 . S
C1869 C1872 1.363 . S
N1870 C1872 1.356 . S
N1870 H1882 0.984 . S
N1870 H1883 0.985 . S
N1871 C1873 1.356 . S
N1871 H1876 0.984 . S
N1871 H1877 0.985 . S
C1872 C1866 1.379 . S
C1872 C1869 1.363 . S
C1872 N1870 1.356 . S
C1873 C1867 1.363 . S
C1873 C1868 1.379 . S
C1873 N1871 1.356 . S
N1874 C1866 1.356 . S
N1874 H1880 0.984 . S
N1874 H1881 0.984 . S
N1875 C1868 1.356 . S
N1875 H1878 0.984 . S
N1875 H1879 0.985 . S
H1876 N1871 0.984 . S
H1877 N1871 0.985 . S
H1878 N1875 0.984 . S
H1879 N1875 0.985 . S
H1880 N1874 0.984 . S
H1881 N1874 0.984 . S
H1882 N1870 0.984 . S
H1883 N1870 0.985 . S
C1884 C1885 1.363 . S
C1884 C1890 1.379 . S
C1884 N1892 1.356 . S
C1885 C1884 1.363 . S
C1885 C1891 1.363 . S
C1886 C1887 1.363 . S
C1886 C1891 1.379 . S
C1886 N1893 1.356 . S
C1887 C1886 1.363 . S
C1887 C1890 1.363 . S
N1888 C1890 1.356 . S
N1888 H1900 0.984 1_556 S
N1888 H1901 0.985 . S
N1889 C1891 1.356 . S
N1889 H1894 0.984 1_565 S
N1889 H1895 0.992 . S
C1890 C1884 1.379 . S
C1890 C1887 1.363 . S
C1890 N1888 1.356 . S
C1891 C1885 1.363 . S
C1891 C1886 1.379 . S
C1891 N1889 1.356 . S
N1892 C1884 1.356 . S
N1892 H1898 0.984 1_556 S
N1892 H1899 0.984 . S
N1893 C1886 1.356 . S
N1893 H1896 0.984 . S
N1893 H1897 0.985 . S
H1894 N1889 0.984 1_545 S
H1895 N1889 0.992 . S
H1896 N1893 0.984 . S
H1897 N1893 0.985 . S
H1898 N1892 0.984 1_554 S
H1899 N1892 0.984 . S
H1900 N1888 0.984 1_554 S
H1901 N1888 0.985 . S
C1902 C1903 1.363 . S
C1902 C1908 1.379 . S
C1902 N1910 1.356 . S
C1903 C1902 1.363 . S
C1903 C1909 1.363 . S
C1904 C1905 1.363 . S
C1904 C1909 1.379 . S
C1904 N1911 1.356 . S
C1905 C1904 1.363 . S
C1905 C1908 1.363 . S
N1906 C1908 1.356 . S
N1906 H1918 0.984 . S
N1906 H1919 0.985 1_545 S
N1907 C1909 1.356 . S
N1907 H1912 0.984 . S
N1907 H1913 0.985 . S
C1908 C1902 1.379 . S
C1908 C1905 1.363 . S
C1908 N1906 1.356 . S
C1909 C1903 1.363 . S
C1909 C1904 1.379 . S
C1909 N1907 1.356 . S
N1910 C1902 1.356 . S
N1910 H1916 0.984 . S
N1910 H1917 0.995 . S
N1911 C1904 1.356 . S
N1911 H1914 0.984 . S
N1911 H1915 0.985 . S
H1912 N1907 0.984 . S
H1913 N1907 0.985 . S
H1914 N1911 0.984 . S
H1915 N1911 0.985 . S
H1916 N1910 0.984 . S
H1917 N1910 0.995 . S
H1918 N1906 0.984 . S
H1919 N1906 0.985 1_565 S
C1920 C1921 1.363 . S
C1920 C1926 1.379 . S
C1920 N1928 1.356 . S
C1921 C1920 1.363 . S
C1921 C1927 1.363 . S
C1922 C1923 1.363 . S
C1922 C1927 1.379 . S
C1922 N1929 1.356 . S
C1923 C1922 1.363 . S
C1923 C1926 1.363 . S
N1924 C1926 1.356 . S
N1924 H1936 0.984 . S
N1924 H1937 0.985 . S
N1925 C1927 1.356 . S
N1925 H1930 0.984 . S
N1925 H1931 0.985 . S
C1926 C1920 1.379 . S
C1926 C1923 1.363 . S
C1926 N1924 1.356 . S
C1927 C1921 1.363 . S
C1927 C1922 1.379 . S
C1927 N1925 1.356 . S
N1928 C1920 1.356 . S
N1928 H1934 0.984 . S
N1928 H1935 0.984 . S
N1929 C1922 1.356 . S
N1929 H1932 0.984 . S
N1929 H1933 0.985 . S
H1930 N1925 0.984 . S
H1931 N1925 0.985 . S
H1932 N1929 0.984 . S
H1933 N1929 0.985 . S
H1934 N1928 0.984 . S
H1935 N1928 0.984 . S
H1936 N1924 0.984 . S
H1937 N1924 0.985 . S
C1938 C1939 1.363 . S
C1938 C1944 1.379 . S
C1938 N1946 1.356 . S
C1939 C1938 1.363 . S
C1939 C1945 1.363 . S
C1940 C1941 1.363 . S
C1940 C1945 1.379 . S
C1940 N1947 1.356 . S
C1941 C1940 1.363 . S
C1941 C1944 1.363 . S
N1942 C1944 1.356 . S
N1942 H1954 0.984 . S
N1942 H1955 0.985 . S
N1943 C1945 1.356 . S
N1943 H1948 0.984 . S
N1943 H1949 0.985 . S
C1944 C1938 1.379 . S
C1944 C1941 1.363 . S
C1944 N1942 1.356 . S
C1945 C1939 1.363 . S
C1945 C1940 1.379 . S
C1945 N1943 1.356 . S
N1946 C1938 1.356 . S
N1946 H1952 0.984 . S
N1946 H1953 0.984 . S
N1947 C1940 1.356 . S
N1947 H1950 0.984 . S
N1947 H1951 0.985 . S
H1948 N1943 0.984 . S
H1949 N1943 0.985 . S
H1950 N1947 0.984 . S
H1951 N1947 0.985 . S
H1952 N1946 0.984 . S
H1953 N1946 0.984 . S
H1954 N1942 0.984 . S
H1955 N1942 0.985 . S
C1956 C1957 1.363 . S
C1956 C1962 1.379 . S
C1956 N1964 1.356 . S
C1957 C1956 1.363 . S
C1957 C1963 1.363 . S
C1958 C1959 1.363 . S
C1958 C1963 1.379 . S
C1958 N1965 1.356 . S
C1959 C1958 1.363 . S
C1959 C1962 1.363 . S
N1960 C1962 1.356 . S
N1960 H1972 0.984 . S
N1960 H1973 0.985 . S
N1961 C1963 1.356 . S
N1961 H1966 0.984 . S
N1961 H1967 0.985 . S
C1962 C1956 1.379 . S
C1962 C1959 1.363 . S
C1962 N1960 1.356 . S
C1963 C1957 1.363 . S
C1963 C1958 1.379 . S
C1963 N1961 1.356 . S
N1964 C1956 1.356 . S
N1964 H1970 0.984 . S
N1964 H1971 0.984 . S
N1965 C1958 1.356 . S
N1965 H1968 0.984 . S
N1965 H1969 0.985 . S
H1966 N1961 0.984 . S
H1967 N1961 0.985 . S
H1968 N1965 0.984 . S
H1969 N1965 0.985 . S
H1970 N1964 0.984 . S
H1971 N1964 0.984 . S
H1972 N1960 0.984 . S
H1973 N1960 0.985 . S
C1974 C1975 1.363 . S
C1974 C1980 1.379 . S
C1974 N1982 1.356 . S
C1975 C1974 1.363 . S
C1975 C1981 1.363 . S
C1976 C1977 1.363 . S
C1976 C1981 1.379 . S
C1976 N1983 1.356 . S
C1977 C1976 1.363 . S
C1977 C1980 1.363 . S
N1978 C1980 1.356 . S
N1978 H1990 0.984 . S
N1978 H1991 0.985 . S
N1979 C1981 1.356 . S
N1979 H1984 0.984 . S
N1979 H1985 0.985 . S
C1980 C1974 1.379 . S
C1980 C1977 1.363 . S
C1980 N1978 1.356 . S
C1981 C1975 1.363 . S
C1981 C1976 1.379 . S
C1981 N1979 1.356 . S
N1982 C1974 1.356 . S
N1982 H1988 0.984 . S
N1982 H1989 0.984 . S
N1983 C1976 1.356 . S
N1983 H1986 0.984 . S
N1983 H1987 0.985 . S
H1984 N1979 0.984 . S
H1985 N1979 0.985 . S
H1986 N1983 0.984 . S
H1987 N1983 0.985 . S
H1988 N1982 0.984 . S
H1989 N1982 0.984 . S
H1990 N1978 0.984 . S
H1991 N1978 0.985 . S
C1992 C1993 1.363 . S
C1992 C1998 1.379 . S
C1992 N2000 1.356 . S
C1993 C1992 1.363 . S
C1993 C1999 1.363 . S
C1994 C1995 1.363 . S
C1994 C1999 1.379 . S
C1994 N2001 1.356 . S
C1995 C1994 1.363 . S
C1995 C1998 1.363 . S
N1996 C1998 1.356 . S
N1996 H2008 0.984 . S
N1996 H2009 0.985 . S
N1997 C1999 1.356 . S
N1997 H2002 0.984 . S
N1997 H2003 0.985 . S
C1998 C1992 1.379 . S
C1998 C1995 1.363 . S
C1998 N1996 1.356 . S
C1999 C1993 1.363 . S
C1999 C1994 1.379 . S
C1999 N1997 1.356 . S
N2000 C1992 1.356 . S
N2000 H2006 0.984 . S
N2000 H2007 0.984 . S
N2001 C1994 1.356 . S
N2001 H2004 0.984 . S
N2001 H2005 0.985 . S
H2002 N1997 0.984 . S
H2003 N1997 0.985 . S
H2004 N2001 0.984 . S
H2005 N2001 0.985 . S
H2006 N2000 0.984 . S
H2007 N2000 0.984 . S
H2008 N1996 0.984 . S
H2009 N1996 0.985 . S
C2010 C2011 1.363 . S
C2010 C2016 1.379 . S
C2010 N2018 1.356 . S
C2011 C2010 1.363 . S
C2011 C2017 1.363 . S
C2012 C2013 1.363 . S
C2012 C2017 1.379 . S
C2012 N2019 1.356 . S
C2013 C2012 1.363 . S
C2013 C2016 1.363 . S
N2014 C2016 1.356 . S
N2014 H2026 0.984 . S
N2014 H2027 0.985 . S
N2015 C2017 1.356 . S
N2015 H2020 0.984 . S
N2015 H2021 0.985 . S
C2016 C2010 1.379 . S
C2016 C2013 1.363 . S
C2016 N2014 1.356 . S
C2017 C2011 1.363 . S
C2017 C2012 1.379 . S
C2017 N2015 1.356 . S
N2018 C2010 1.356 . S
N2018 H2024 0.984 . S
N2018 H2025 0.984 . S
N2019 C2012 1.356 . S
N2019 H2022 0.984 . S
N2019 H2023 0.985 . S
H2020 N2015 0.984 . S
H2021 N2015 0.985 . S
H2022 N2019 0.984 . S
H2023 N2019 0.985 . S
H2024 N2018 0.984 . S
H2025 N2018 0.984 . S
H2026 N2014 0.984 . S
H2027 N2014 0.985 . S
C2028 C2029 1.363 . S
C2028 C2034 1.379 . S
C2028 N2036 1.356 . S
C2029 C2028 1.363 . S
C2029 C2035 1.363 . S
C2030 C2031 1.363 . S
C2030 C2035 1.379 . S
C2030 N2037 1.356 . S
C2031 C2030 1.363 . S
C2031 C2034 1.363 . S
N2032 C2034 1.356 . S
N2032 H2044 0.984 . S
N2032 H2045 0.985 . S
N2033 C2035 1.356 . S
N2033 H2038 0.984 . S
N2033 H2039 0.985 . S
C2034 C2028 1.379 . S
C2034 C2031 1.363 . S
C2034 N2032 1.356 . S
C2035 C2029 1.363 . S
C2035 C2030 1.379 . S
C2035 N2033 1.356 . S
N2036 C2028 1.356 . S
N2036 H2042 0.984 . S
N2036 H2043 0.984 . S
N2037 C2030 1.356 . S
N2037 H2040 0.984 . S
N2037 H2041 0.985 . S
H2038 N2033 0.984 . S
H2039 N2033 0.985 . S
H2040 N2037 0.984 . S
H2041 N2037 0.985 . S
H2042 N2036 0.984 . S
H2043 N2036 0.984 . S
H2044 N2032 0.984 . S
H2045 N2032 0.985 . S
C2046 C2047 1.363 . S
C2046 C2052 1.379 . S
C2046 N2054 1.356 . S
C2047 C2046 1.363 . S
C2047 C2053 1.363 . S
C2048 C2049 1.363 . S
C2048 C2053 1.379 . S
C2048 N2055 1.356 . S
C2049 C2048 1.363 . S
C2049 C2052 1.363 . S
N2050 C2052 1.356 . S
N2050 H2062 0.984 . S
N2050 H2063 0.985 . S
N2051 C2053 1.356 . S
N2051 H2056 0.984 . S
N2051 H2057 0.985 . S
C2052 C2046 1.379 . S
C2052 C2049 1.363 . S
C2052 N2050 1.356 . S
C2053 C2047 1.363 . S
C2053 C2048 1.379 . S
C2053 N2051 1.356 . S
N2054 C2046 1.356 . S
N2054 H2060 0.984 . S
N2054 H2061 0.984 . S
N2055 C2048 1.356 . S
N2055 H2058 0.984 . S
N2055 H2059 0.985 . S
H2056 N2051 0.984 . S
H2057 N2051 0.985 . S
H2058 N2055 0.984 . S
H2059 N2055 0.985 . S
H2060 N2054 0.984 . S
H2061 N2054 0.984 . S
H2062 N2050 0.984 . S
H2063 N2050 0.985 . S
C2064 C2065 1.363 . S
C2064 C2070 1.379 . S
C2064 N2072 1.356 . S
C2065 C2064 1.363 . S
C2065 C2071 1.363 . S
C2066 C2067 1.363 . S
C2066 C2071 1.379 . S
C2066 N2073 1.356 . S
C2067 C2066 1.363 . S
C2067 C2070 1.363 . S
N2068 C2070 1.356 . S
N2068 H2080 0.984 . S
N2068 H2081 0.985 . S
N2069 C2071 1.356 . S
N2069 H2074 0.984 . S
N2069 H2075 0.985 . S
C2070 C2064 1.379 . S
C2070 C2067 1.363 . S
C2070 N2068 1.356 . S
C2071 C2065 1.363 . S
C2071 C2066 1.379 . S
C2071 N2069 1.356 . S
N2072 C2064 1.356 . S
N2072 H2078 0.984 . S
N2072 H2079 0.984 . S
N2073 C2066 1.356 . S
N2073 H2076 0.984 . S
N2073 H2077 0.985 . S
H2074 N2069 0.984 . S
H2075 N2069 0.985 . S
H2076 N2073 0.984 . S
H2077 N2073 0.985 . S
H2078 N2072 0.984 . S
H2079 N2072 0.984 . S
H2080 N2068 0.984 . S
H2081 N2068 0.985 . S
C2082 C2083 1.363 . S
C2082 C2088 1.379 . S
C2082 N2090 1.356 . S
C2083 C2082 1.363 . S
C2083 C2089 1.363 . S
C2084 C2085 1.363 . S
C2084 C2089 1.379 . S
C2084 N2091 1.356 . S
C2085 C2084 1.363 . S
C2085 C2088 1.363 . S
N2086 C2088 1.356 . S
N2086 H2098 0.984 . S
N2086 H2099 0.985 . S
N2087 C2089 1.356 . S
N2087 H2092 0.984 . S
N2087 H2093 0.985 . S
C2088 C2082 1.379 . S
C2088 C2085 1.363 . S
C2088 N2086 1.356 . S
C2089 C2083 1.363 . S
C2089 C2084 1.379 . S
C2089 N2087 1.356 . S
N2090 C2082 1.356 . S
N2090 H2096 0.984 . S
N2090 H2097 0.984 . S
N2091 C2084 1.356 . S
N2091 H2094 0.984 . S
N2091 H2095 0.985 . S
H2092 N2087 0.984 . S
H2093 N2087 0.985 . S
H2094 N2091 0.984 . S
H2095 N2091 0.985 . S
H2096 N2090 0.984 . S
H2097 N2090 0.984 . S
H2098 N2086 0.984 . S
H2099 N2086 0.985 . S
C2100 C2101 1.363 . S
C2100 C2106 1.379 . S
C2100 N2108 1.356 . S
C2101 C2100 1.363 . S
C2101 C2107 1.363 . S
C2102 C2103 1.363 . S
C2102 C2107 1.379 . S
C2102 N2109 1.356 . S
C2103 C2102 1.363 . S
C2103 C2106 1.363 . S
N2104 C2106 1.356 . S
N2104 H2116 0.984 . S
N2104 H2117 0.985 . S
N2105 C2107 1.356 . S
N2105 H2110 0.984 . S
N2105 H2111 0.985 . S
C2106 C2100 1.379 . S
C2106 C2103 1.363 . S
C2106 N2104 1.356 . S
C2107 C2101 1.363 . S
C2107 C2102 1.379 . S
C2107 N2105 1.356 . S
N2108 C2100 1.356 . S
N2108 H2114 0.984 . S
N2108 H2115 0.984 . S
N2109 C2102 1.356 . S
N2109 H2112 0.984 . S
N2109 H2113 0.985 . S
H2110 N2105 0.984 . S
H2111 N2105 0.985 . S
H2112 N2109 0.984 . S
H2113 N2109 0.985 . S
H2114 N2108 0.984 . S
H2115 N2108 0.984 . S
H2116 N2104 0.984 . S
H2117 N2104 0.985 . S
C2118 C2119 1.363 . S
C2118 C2124 1.379 . S
C2118 N2126 1.356 . S
C2119 C2118 1.363 . S
C2119 C2125 1.363 . S
C2120 C2121 1.363 . S
C2120 C2125 1.379 . S
C2120 N2127 1.356 . S
C2121 C2120 1.363 . S
C2121 C2124 1.363 . S
N2122 C2124 1.356 . S
N2122 H2134 0.984 . S
N2122 H2135 0.985 . S
N2123 C2125 1.356 . S
N2123 H2128 0.984 . S
N2123 H2129 0.985 . S
C2124 C2118 1.379 . S
C2124 C2121 1.363 . S
C2124 N2122 1.356 . S
C2125 C2119 1.363 . S
C2125 C2120 1.379 . S
C2125 N2123 1.356 . S
N2126 C2118 1.356 . S
N2126 H2132 0.984 . S
N2126 H2133 0.984 . S
N2127 C2120 1.356 . S
N2127 H2130 0.984 . S
N2127 H2131 0.985 . S
H2128 N2123 0.984 . S
H2129 N2123 0.985 . S
H2130 N2127 0.984 . S
H2131 N2127 0.985 . S
H2132 N2126 0.984 . S
H2133 N2126 0.984 . S
H2134 N2122 0.984 . S
H2135 N2122 0.985 . S
C2136 C2137 1.363 . S
C2136 C2142 1.379 . S
C2136 N2144 1.356 . S
C2137 C2136 1.363 . S
C2137 C2143 1.363 . S
C2138 C2139 1.363 . S
C2138 C2143 1.379 . S
C2138 N2145 1.356 . S
C2139 C2138 1.363 . S
C2139 C2142 1.363 . S
N2140 C2142 1.356 . S
N2140 H2152 0.984 . S
N2140 H2153 0.985 . S
N2141 C2143 1.356 . S
N2141 H2146 0.984 . S
N2141 H2147 0.985 . S
C2142 C2136 1.379 . S
C2142 C2139 1.363 . S
C2142 N2140 1.356 . S
C2143 C2137 1.363 . S
C2143 C2138 1.379 . S
C2143 N2141 1.356 . S
N2144 C2136 1.356 . S
N2144 H2150 0.984 . S
N2144 H2151 0.984 . S
N2145 C2138 1.356 . S
N2145 H2148 0.984 . S
N2145 H2149 0.985 . S
H2146 N2141 0.984 . S
H2147 N2141 0.985 . S
H2148 N2145 0.984 . S
H2149 N2145 0.985 . S
H2150 N2144 0.984 . S
H2151 N2144 0.984 . S
H2152 N2140 0.984 . S
H2153 N2140 0.985 . S
C2154 C2155 1.363 . S
C2154 C2160 1.379 . S
C2154 N2162 1.356 . S
C2155 C2154 1.363 . S
C2155 C2161 1.363 . S
C2156 C2157 1.363 . S
C2156 C2161 1.379 . S
C2156 N2163 1.356 . S
C2157 C2156 1.363 . S
C2157 C2160 1.363 . S
N2158 C2160 1.356 . S
N2158 H2170 0.984 . S
N2158 H2171 0.985 . S
N2159 C2161 1.356 . S
N2159 H2164 0.984 . S
N2159 H2165 0.985 . S
C2160 C2154 1.379 . S
C2160 C2157 1.363 . S
C2160 N2158 1.356 . S
C2161 C2155 1.363 . S
C2161 C2156 1.379 . S
C2161 N2159 1.356 . S
N2162 C2154 1.356 . S
N2162 H2168 0.984 . S
N2162 H2169 0.984 . S
N2163 C2156 1.356 . S
N2163 H2166 0.984 . S
N2163 H2167 0.985 . S
H2164 N2159 0.984 . S
H2165 N2159 0.985 . S
H2166 N2163 0.984 . S
H2167 N2163 0.985 . S
H2168 N2162 0.984 . S
H2169 N2162 0.984 . S
H2170 N2158 0.984 . S
H2171 N2158 0.985 . S
C2172 C2173 1.363 . S
C2172 C2178 1.379 . S
C2172 N2180 1.356 . S
C2173 C2172 1.363 . S
C2173 C2179 1.363 . S
C2174 C2175 1.363 . S
C2174 C2179 1.379 . S
C2174 N2181 1.356 . S
C2175 C2174 1.363 . S
C2175 C2178 1.363 . S
N2176 C2178 1.356 . S
N2176 H2188 0.984 . S
N2176 H2189 0.985 . S
N2177 C2179 1.356 . S
N2177 H2182 0.984 . S
N2177 H2183 0.985 . S
C2178 C2172 1.379 . S
C2178 C2175 1.363 . S
C2178 N2176 1.356 . S
C2179 C2173 1.363 . S
C2179 C2174 1.379 . S
C2179 N2177 1.356 . S
N2180 C2172 1.356 . S
N2180 H2186 0.984 . S
N2180 H2187 0.984 . S
N2181 C2174 1.356 . S
N2181 H2184 0.984 . S
N2181 H2185 0.985 . S
H2182 N2177 0.984 . S
H2183 N2177 0.985 . S
H2184 N2181 0.984 . S
H2185 N2181 0.985 . S
H2186 N2180 0.984 . S
H2187 N2180 0.984 . S
H2188 N2176 0.984 . S
H2189 N2176 0.985 . S
C2190 C2191 1.363 . S
C2190 C2196 1.379 . S
C2190 N2198 1.356 . S
C2191 C2190 1.363 . S
C2191 C2197 1.363 . S
C2192 C2193 1.363 . S
C2192 C2197 1.379 . S
C2192 N2199 1.356 . S
C2193 C2192 1.363 . S
C2193 C2196 1.363 . S
N2194 C2196 1.356 . S
N2194 H2206 0.984 . S
N2194 H2207 0.985 . S
N2195 C2197 1.356 . S
N2195 H2200 0.984 . S
N2195 H2201 0.985 . S
C2196 C2190 1.379 . S
C2196 C2193 1.363 . S
C2196 N2194 1.356 . S
C2197 C2191 1.363 . S
C2197 C2192 1.379 . S
C2197 N2195 1.356 . S
N2198 C2190 1.356 . S
N2198 H2204 0.984 . S
N2198 H2205 0.984 . S
N2199 C2192 1.356 . S
N2199 H2202 0.984 . S
N2199 H2203 0.985 . S
H2200 N2195 0.984 . S
H2201 N2195 0.985 . S
H2202 N2199 0.984 . S
H2203 N2199 0.985 . S
H2204 N2198 0.984 . S
H2205 N2198 0.984 . S
H2206 N2194 0.984 . S
H2207 N2194 0.985 . S
C2208 C2209 1.363 . S
C2208 C2214 1.379 . S
C2208 N2216 1.356 . S
C2209 C2208 1.363 . S
C2209 C2215 1.363 . S
C2210 C2211 1.363 . S
C2210 C2215 1.379 . S
C2210 N2217 1.356 . S
C2211 C2210 1.363 . S
C2211 C2214 1.363 . S
N2212 C2214 1.356 . S
N2212 H2224 0.984 . S
N2212 H2225 0.985 . S
N2213 C2215 1.356 . S
N2213 H2218 0.984 . S
N2213 H2219 0.985 . S
C2214 C2208 1.379 . S
C2214 C2211 1.363 . S
C2214 N2212 1.356 . S
C2215 C2209 1.363 . S
C2215 C2210 1.379 . S
C2215 N2213 1.356 . S
N2216 C2208 1.356 . S
N2216 H2222 0.984 . S
N2216 H2223 0.984 . S
N2217 C2210 1.356 . S
N2217 H2220 0.984 . S
N2217 H2221 0.985 . S
H2218 N2213 0.984 . S
H2219 N2213 0.985 . S
H2220 N2217 0.984 . S
H2221 N2217 0.985 . S
H2222 N2216 0.984 . S
H2223 N2216 0.984 . S
H2224 N2212 0.984 . S
H2225 N2212 0.985 . S
C2226 C2227 1.363 . S
C2226 C2232 1.379 . S
C2226 N2234 1.356 . S
C2227 C2226 1.363 . S
C2227 C2233 1.363 . S
C2228 C2229 1.363 . S
C2228 C2233 1.379 . S
C2228 N2235 1.356 . S
C2229 C2228 1.363 . S
C2229 C2232 1.363 . S
N2230 C2232 1.356 . S
N2230 H2242 0.984 . S
N2230 H2243 0.985 . S
N2231 C2233 1.356 . S
N2231 H2236 0.984 . S
N2231 H2237 0.985 . S
C2232 C2226 1.379 . S
C2232 C2229 1.363 . S
C2232 N2230 1.356 . S
C2233 C2227 1.363 . S
C2233 C2228 1.379 . S
C2233 N2231 1.356 . S
N2234 C2226 1.356 . S
N2234 H2240 0.984 . S
N2234 H2241 0.984 . S
N2235 C2228 1.356 . S
N2235 H2238 0.984 . S
N2235 H2239 0.985 . S
H2236 N2231 0.984 . S
H2237 N2231 0.985 . S
H2238 N2235 0.984 . S
H2239 N2235 0.985 . S
H2240 N2234 0.984 . S
H2241 N2234 0.984 . S
H2242 N2230 0.984 . S
H2243 N2230 0.985 . S
C2244 C2245 1.363 . S
C2244 C2250 1.379 . S
C2244 N2252 1.356 . S
C2245 C2244 1.363 . S
C2245 C2251 1.363 . S
C2246 C2247 1.363 . S
C2246 C2251 1.379 . S
C2246 N2253 1.356 . S
C2247 C2246 1.363 . S
C2247 C2250 1.363 . S
N2248 C2250 1.356 . S
N2248 H2260 0.984 . S
N2248 H2261 0.985 . S
N2249 C2251 1.356 . S
N2249 H2254 0.984 . S
N2249 H2255 0.985 . S
C2250 C2244 1.379 . S
C2250 C2247 1.363 . S
C2250 N2248 1.356 . S
C2251 C2245 1.363 . S
C2251 C2246 1.379 . S
C2251 N2249 1.356 . S
N2252 C2244 1.356 . S
N2252 H2258 0.984 . S
N2252 H2259 0.984 . S
N2253 C2246 1.356 . S
N2253 H2256 0.984 . S
N2253 H2257 0.985 . S
H2254 N2249 0.984 . S
H2255 N2249 0.985 . S
H2256 N2253 0.984 . S
H2257 N2253 0.985 . S
H2258 N2252 0.984 . S
H2259 N2252 0.984 . S
H2260 N2248 0.984 . S
H2261 N2248 0.985 . S
C2262 C2263 1.363 . S
C2262 C2268 1.379 . S
C2262 N2270 1.356 . S
C2263 C2262 1.363 . S
C2263 C2269 1.363 . S
C2264 C2265 1.363 . S
C2264 C2269 1.379 . S
C2264 N2271 1.356 . S
C2265 C2264 1.363 . S
C2265 C2268 1.363 . S
N2266 C2268 1.356 . S
N2266 H2278 0.984 . S
N2266 H2279 0.985 . S
N2267 C2269 1.356 . S
N2267 H2272 0.984 . S
N2267 H2273 0.985 . S
C2268 C2262 1.379 . S
C2268 C2265 1.363 . S
C2268 N2266 1.356 . S
C2269 C2263 1.363 . S
C2269 C2264 1.379 . S
C2269 N2267 1.356 . S
N2270 C2262 1.356 . S
N2270 H2276 0.984 . S
N2270 H2277 0.984 . S
N2271 C2264 1.356 . S
N2271 H2274 0.984 . S
N2271 H2275 0.985 . S
H2272 N2267 0.984 . S
H2273 N2267 0.985 . S
H2274 N2271 0.984 . S
H2275 N2271 0.985 . S
H2276 N2270 0.984 . S
H2277 N2270 0.984 . S
H2278 N2266 0.984 . S
H2279 N2266 0.985 . S
C2280 C2281 1.363 . S
C2280 C2286 1.379 . S
C2280 N2288 1.356 . S
C2281 C2280 1.363 . S
C2281 C2287 1.363 . S
C2282 C2283 1.363 . S
C2282 C2287 1.379 . S
C2282 N2289 1.356 . S
C2283 C2282 1.363 . S
C2283 C2286 1.363 . S
N2284 C2286 1.356 . S
N2284 H2296 0.984 . S
N2284 H2297 0.985 . S
N2285 C2287 1.356 . S
N2285 H2290 0.984 . S
N2285 H2291 0.985 . S
C2286 C2280 1.379 . S
C2286 C2283 1.363 . S
C2286 N2284 1.356 . S
C2287 C2281 1.363 . S
C2287 C2282 1.379 . S
C2287 N2285 1.356 . S
N2288 C2280 1.356 . S
N2288 H2294 0.984 . S
N2288 H2295 0.984 . S
N2289 C2282 1.356 . S
N2289 H2292 0.984 . S
N2289 H2293 0.985 . S
H2290 N2285 0.984 . S
H2291 N2285 0.985 . S
H2292 N2289 0.984 . S
H2293 N2289 0.985 . S
H2294 N2288 0.984 . S
H2295 N2288 0.984 . S
H2296 N2284 0.984 . S
H2297 N2284 0.985 . S
C2298 C2299 1.363 . S
C2298 C2304 1.379 . S
C2298 N2306 1.356 . S
C2299 C2298 1.363 . S
C2299 C2305 1.363 . S
C2300 C2301 1.363 . S
C2300 C2305 1.379 . S
C2300 N2307 1.356 . S
C2301 C2300 1.363 . S
C2301 C2304 1.363 . S
N2302 C2304 1.356 . S
N2302 H2314 0.984 . S
N2302 H2315 0.985 . S
N2303 C2305 1.356 . S
N2303 H2308 0.984 . S
N2303 H2309 0.985 . S
C2304 C2298 1.379 . S
C2304 C2301 1.363 . S
C2304 N2302 1.356 . S
C2305 C2299 1.363 . S
C2305 C2300 1.379 . S
C2305 N2303 1.356 . S
N2306 C2298 1.356 . S
N2306 H2312 0.984 . S
N2306 H2313 0.984 . S
N2307 C2300 1.356 . S
N2307 H2310 0.984 . S
N2307 H2311 0.985 . S
H2308 N2303 0.984 . S
H2309 N2303 0.985 . S
H2310 N2307 0.984 . S
H2311 N2307 0.985 . S
H2312 N2306 0.984 . S
H2313 N2306 0.984 . S
H2314 N2302 0.984 . S
H2315 N2302 0.985 . S
C2316 C2317 1.363 . S
C2316 C2322 1.379 . S
C2316 N2324 1.356 . S
C2317 C2316 1.363 . S
C2317 C2323 1.363 . S
C2318 C2319 1.363 . S
C2318 C2323 1.379 . S
C2318 N2325 1.356 . S
C2319 C2318 1.363 . S
C2319 C2322 1.363 . S
N2320 C2322 1.356 . S
N2320 H2332 0.984 . S
N2320 H2333 0.985 . S
N2321 C2323 1.356 . S
N2321 H2326 0.984 . S
N2321 H2327 0.985 . S
C2322 C2316 1.379 . S
C2322 C2319 1.363 . S
C2322 N2320 1.356 . S
C2323 C2317 1.363 . S
C2323 C2318 1.379 . S
C2323 N2321 1.356 . S
N2324 C2316 1.356 . S
N2324 H2330 0.984 . S
N2324 H2331 0.984 . S
N2325 C2318 1.356 . S
N2325 H2328 0.984 . S
N2325 H2329 0.985 . S
H2326 N2321 0.984 . S
H2327 N2321 0.985 . S
H2328 N2325 0.984 . S
H2329 N2325 0.985 . S
H2330 N2324 0.984 . S
H2331 N2324 0.984 . S
H2332 N2320 0.984 . S
H2333 N2320 0.985 . S
C2334 C2335 1.363 . S
C2334 C2340 1.379 . S
C2334 N2342 1.356 . S
C2335 C2334 1.363 . S
C2335 C2341 1.363 . S
C2336 C2337 1.363 . S
C2336 C2341 1.379 . S
C2336 N2343 1.356 . S
C2337 C2336 1.363 . S
C2337 C2340 1.363 . S
N2338 C2340 1.356 . S
N2338 H2350 0.984 . S
N2338 H2351 0.985 . S
N2339 C2341 1.356 . S
N2339 H2344 0.984 . S
N2339 H2345 0.985 . S
C2340 C2334 1.379 . S
C2340 C2337 1.363 . S
C2340 N2338 1.356 . S
C2341 C2335 1.363 . S
C2341 C2336 1.379 . S
C2341 N2339 1.356 . S
N2342 C2334 1.356 . S
N2342 H2348 0.984 . S
N2342 H2349 0.984 . S
N2343 C2336 1.356 . S
N2343 H2346 0.984 . S
N2343 H2347 0.985 . S
H2344 N2339 0.984 . S
H2345 N2339 0.985 . S
H2346 N2343 0.984 . S
H2347 N2343 0.985 . S
H2348 N2342 0.984 . S
H2349 N2342 0.984 . S
H2350 N2338 0.984 . S
H2351 N2338 0.985 . S
C625 C82 1.408 . S
C627 C4 1.408 . S
C643 C17 1.408 . S
C645 C101 1.408 . S
C661 C36 1.408 . S
C663 C62 1.408 . S
C679 C69 1.408 . S
C681 C43 1.408 . S
C697 C446 1.408 . S
C699 C114 1.408 . S
C715 C459 1.408 . S
C717 C127 1.408 . S
C733 C134 1.408 . S
C735 C426 1.408 . S
C751 C147 1.408 . S
C753 C433 1.408 . S
C769 C504 1.408 . S
C771 C160 1.408 . S
C787 C517 1.408 . S
C789 C179 1.408 . S
C805 C472 1.408 . S
C807 C192 1.408 . S
C823 C485 1.408 . S
C825 C199 1.408 . S
C841 C212 1.408 . S
C843 C543 1.408 . S
C859 C231 1.408 . S
C861 C530 1.408 . S
C877 C244 1.408 . S
C879 C303 1.408 . S
C895 C589 1.408 . S
C897 C257 1.408 . S
C913 C602 1.408 . S
C915 C270 1.408 . S
C931 C563 1.408 . S
C933 C283 1.408 . S
C949 C576 1.408 . S
C951 C296 1.408 . S
C967 C400 1.408 . S
C969 C322 1.408 . S
C985 C407 1.408 . S
C987 C335 1.408 . S
C1003 C342 1.408 . S
C1005 C374 1.408 . S
C1021 C355 1.408 . S
C1023 C381 1.408 . S
C1039 C615 1.408 . S
C1041 C556 1.408 . S
C1057 C211 1.303 . S
C1059 C5 1.329 . S
C1075 C18 1.329 . S
C1077 C614 1.303 . S
C1093 C29 1.329 . S
C1095 C278 1.303 . S
C1111 C601 1.303 . S
C1113 C44 1.329 . S
C1129 C55 1.329 . S
C1131 C538 1.303 . S
C1147 C551 1.303 . S
C1149 C70 1.329 . S
C1165 C83 1.329 . S
C1167 C562 1.303 . S
C1183 C265 1.303 . S
C1185 C94 1.329 . S
C1201 C107 1.329 . S
C1203 C3 1.303 . S
C1219 C16 1.303 . S
C1221 C120 1.329 . S
C1237 C135 1.329 . S
C1239 C31 1.303 . S
C1255 C148 1.329 . S
C1257 C42 1.303 . S
C1273 C161 1.329 . S
C1275 C57 1.303 . S
C1291 C68 1.303 . S
C1293 C172 1.329 . S
C1309 C185 1.329 . S
C1311 C81 1.303 . S
C1327 C200 1.329 . S
C1329 C96 1.303 . S
C1345 C213 1.329 . S
C1347 C109 1.303 . S
C1363 C224 1.329 . S
C1365 C471 1.303 . S
C1381 C484 1.303 . S
C1383 C237 1.329 . S
C1399 C499 1.303 . S
C1401 C250 1.329 . S
C1417 C263 1.329 . S
C1419 C198 1.303 . S
C1435 C276 1.329 . S
C1437 C133 1.303 . S
C1453 C458 1.303 . S
C1455 C289 1.329 . S
C1471 C432 1.303 . S
C1473 C304 1.329 . S
C1489 C315 1.329 . S
C1491 C525 1.303 . S
C1507 C328 1.329 . S
C1509 C302 1.303 . S
C1525 C343 1.329 . S
C1527 C588 1.303 . S
C1543 C356 1.329 . S
C1545 C291 1.303 . S
C1561 C367 1.329 . S
C1563 C226 1.303 . S
C1579 C239 1.303 . S
C1581 C382 1.329 . S
C1597 C252 1.303 . S
C1599 C393 1.329 . S
C1615 C575 1.303 . S
C1617 C408 1.329 . S
C1633 C317 1.303 . S
C1635 C419 1.329 . S
C1651 C330 1.303 . S
C1653 C434 1.329 . S
C1669 C447 1.329 . S
C1671 C341 1.303 . S
C1687 C354 1.303 . S
C1689 C460 1.329 . S
C1705 C473 1.329 . S
C1707 C369 1.303 . S
C1723 C380 1.303 . S
C1725 C486 1.329 . S
C1741 C497 1.329 . S
C1743 C395 1.303 . S
C1759 C406 1.303 . S
C1761 C510 1.329 . S
C1777 C523 1.329 . S
C1779 C421 1.303 . S
C1795 C536 1.329 . S
C1797 C159 1.303 . S
C1813 C174 1.303 . S
C1815 C549 1.329 . S
C1831 C564 1.329 . S
C1833 C187 1.303 . S
C1849 C577 1.329 . S
C1851 C512 1.303 . S
C1867 C445 1.303 . S
C1869 C590 1.329 . S
C1885 C603 1.329 . S
C1887 C146 1.303 . S
C1903 C122 1.303 . S
C1905 C616 1.329 . S
C1921 C121 1.149 . S
C1923 C10 1.149 . S
C1939 C23 1.149 . S
C1941 C140 1.149 . S
C1957 C153 1.149 . S
C1959 C30 1.149 . S
C1975 C108 1.149 . S
C1977 C49 1.149 . S
C1993 C56 1.149 . S
C1995 C205 1.149 . S
C2011 C75 1.149 . S
C2013 C166 1.149 . S
C2029 C173 1.149 . S
C2031 C88 1.149 . S
C2047 C186 1.149 . S
C2049 C95 1.149 . S
C2065 C218 1.149 . S
C2067 C238 1.149 . S
C2083 C225 1.149 . S
C2085 C608 1.149 . S
C2101 C251 1.149 . S
C2103 C621 1.149 . S
C2119 C595 1.149 . S
C2121 C264 1.149 . S
C2137 C582 1.149 . S
C2139 C277 1.149 . S
C2155 C537 1.149 . S
C2157 C290 1.149 . S
C2173 C309 1.149 . S
C2175 C569 1.149 . S
C2191 C439 1.149 . S
C2193 C316 1.149 . S
C2209 C452 1.149 . S
C2211 C329 1.149 . S
C2227 C348 1.149 . S
C2229 C465 1.149 . S
C2245 C420 1.149 . S
C2247 C361 1.149 . S
C2263 C511 1.149 . S
C2265 C368 1.149 . S
C2281 C478 1.149 . S
C2283 C387 1.149 . S
C2299 C394 1.149 . S
C2301 C491 1.149 . S
C2317 C498 1.149 . S
C2319 C413 1.149 . S
C2335 C550 1.149 . S
C2337 C524 1.149 . S
