# Generated by pormake.
# Topology lhb, (8)-cn, num edge types: 1
# Building blocks:
#     Node 0, Type 0, BuildingBlock: GIZVER_clean_sbu_0, # of connection points: 8
#     Node 1, Type 0, BuildingBlock: GIZVER_clean_sbu_0, # of connection points: 8
#     Node 2, Type 0, BuildingBlock: GIZVER_clean_sbu_0, # of connection points: 8
#     Node 3, Type 0, BuildingBlock: GIZVER_clean_sbu_0, # of connection points: 8
#     Node 4, Type 0, BuildingBlock: GIZVER_clean_sbu_0, # of connection points: 8
#     Node 5, Type 0, BuildingBlock: GIZVER_clean_sbu_0, # of connection points: 8
#     Node 6, Type 0, BuildingBlock: GIZVER_clean_sbu_0, # of connection points: 8
#     Node 7, Type 0, BuildingBlock: GIZVER_clean_sbu_0, # of connection points: 8
#     Edge 8, Type (0, 0), BuildingBlock: TEMPAE_clean_linker_10, # of connection points: 2
#     Edge 9, Type (0, 0), BuildingBlock: TEMPAE_clean_linker_10, # of connection points: 2
#     Edge 10, Type (0, 0), BuildingBlock: TEMPAE_clean_linker_10, # of connection points: 2
#     Edge 11, Type (0, 0), BuildingBlock: TEMPAE_clean_linker_10, # of connection points: 2
#     Edge 12, Type (0, 0), BuildingBlock: TEMPAE_clean_linker_10, # of connection points: 2
#     Edge 13, Type (0, 0), BuildingBlock: TEMPAE_clean_linker_10, # of connection points: 2
#     Edge 14, Type (0, 0), BuildingBlock: TEMPAE_clean_linker_10, # of connection points: 2
#     Edge 15, Type (0, 0), BuildingBlock: TEMPAE_clean_linker_10, # of connection points: 2
#     Edge 16, Type (0, 0), BuildingBlock: TEMPAE_clean_linker_10, # of connection points: 2
#     Edge 17, Type (0, 0), BuildingBlock: TEMPAE_clean_linker_10, # of connection points: 2
#     Edge 18, Type (0, 0), BuildingBlock: TEMPAE_clean_linker_10, # of connection points: 2
#     Edge 19, Type (0, 0), BuildingBlock: TEMPAE_clean_linker_10, # of connection points: 2
#     Edge 20, Type (0, 0), BuildingBlock: TEMPAE_clean_linker_10, # of connection points: 2
#     Edge 21, Type (0, 0), BuildingBlock: TEMPAE_clean_linker_10, # of connection points: 2
#     Edge 22, Type (0, 0), BuildingBlock: TEMPAE_clean_linker_10, # of connection points: 2
#     Edge 23, Type (0, 0), BuildingBlock: TEMPAE_clean_linker_10, # of connection points: 2
#     Edge 24, Type (0, 0), BuildingBlock: TEMPAE_clean_linker_10, # of connection points: 2
#     Edge 25, Type (0, 0), BuildingBlock: TEMPAE_clean_linker_10, # of connection points: 2
#     Edge 26, Type (0, 0), BuildingBlock: TEMPAE_clean_linker_10, # of connection points: 2
#     Edge 27, Type (0, 0), BuildingBlock: TEMPAE_clean_linker_10, # of connection points: 2
#     Edge 28, Type (0, 0), BuildingBlock: TEMPAE_clean_linker_10, # of connection points: 2
#     Edge 29, Type (0, 0), BuildingBlock: TEMPAE_clean_linker_10, # of connection points: 2
#     Edge 30, Type (0, 0), BuildingBlock: TEMPAE_clean_linker_10, # of connection points: 2
#     Edge 31, Type (0, 0), BuildingBlock: TEMPAE_clean_linker_10, # of connection points: 2
#     Edge 32, Type (0, 0), BuildingBlock: TEMPAE_clean_linker_10, # of connection points: 2
#     Edge 33, Type (0, 0), BuildingBlock: TEMPAE_clean_linker_10, # of connection points: 2
#     Edge 34, Type (0, 0), BuildingBlock: TEMPAE_clean_linker_10, # of connection points: 2
#     Edge 35, Type (0, 0), BuildingBlock: TEMPAE_clean_linker_10, # of connection points: 2
#     Edge 36, Type (0, 0), BuildingBlock: TEMPAE_clean_linker_10, # of connection points: 2
#     Edge 37, Type (0, 0), BuildingBlock: TEMPAE_clean_linker_10, # of connection points: 2
#     Edge 38, Type (0, 0), BuildingBlock: TEMPAE_clean_linker_10, # of connection points: 2
#     Edge 39, Type (0, 0), BuildingBlock: TEMPAE_clean_linker_10, # of connection points: 2
# Relax obj value: 0.096
# Max RMSD: 0.179
# Mean RMSD: 0.179
data_MOF--net-lhb--node1-GIZVER_clean_sbu_0--edge1-TEMPAE_clean_linker_10
_symmetry_space_group_name_H-M    P1
_symmetry_Int_Tables_number       1
_symmetry_cell_setting            triclinic
loop_
_symmetry_equiv_pos_as_xyz
'x, y, z'
_cell_length_a     25.07139
_cell_length_b     15.201541
_cell_length_c     75.137616
_cell_angle_alpha  96.62391
_cell_angle_beta   89.843295
_cell_angle_gamma 89.993636
loop_
_atom_site_label
_atom_site_type_symbol
_atom_site_fract_x
_atom_site_fract_y
_atom_site_fract_z
_atom_type_partial_charge
Co0 Co 0.01875 1.01382 0.99861 0.0
Co1 Co 0.92486 0.06297 1.00902 0.0
Co2 Co 0.99057 1.01347 0.04331 0.0
O3 O 0.9718 0.98499 1.01739 0.0
H4 H 0.95759 0.92575 1.01492 0.0
O5 O 0.0079 0.04347 0.06948 0.0
Co6 Co 0.96903 0.98785 0.08767 0.0
Co7 Co 0.06229 0.96701 0.07381 0.0
H8 H 0.01693 0.10488 0.07289 0.0
O9 O 0.88275 0.03484 0.98912 0.0
O10 O 0.96466 0.09738 0.98995 0.0
O11 O 0.9091 0.1667 1.02505 0.0
O12 O 0.97501 0.14383 0.04383 0.0
O13 O 0.9178 0.98599 0.05043 0.0
O14 O 0.93411 0.93938 0.10391 0.0
O15 O 0.97489 0.0716 0.10786 0.0
O16 O 0.9493 0.89729 0.06961 0.0
O17 O 0.00685 0.88333 0.04178 0.0
O18 O 0.07811 0.86237 0.05798 0.0
O19 O 0.03922 0.93506 0.09535 0.0
O20 O 0.11248 1.01285 0.08793 0.0
C21 C 0.03681 0.95636 0.97329 0.0
C22 C 0.07664 0.0979 1.02766 0.0
C23 C 0.94125 0.19444 0.03741 0.0
C24 C 0.91959 0.07841 0.98165 0.0
C25 C 0.94433 1.01163 0.11407 0.0
C26 C 0.91099 0.92376 0.06026 0.0
C27 C 0.04329 0.8332 0.0467 0.0
C28 C 0.08374 0.97897 0.09988 0.0
O29 O 0.06089 0.02806 0.9802 0.0
O30 O -0.00239 0.92447 0.98208 0.0
O31 O 0.06481 0.03699 0.03711 0.0
O32 O 0.0502 0.10906 1.01367 0.0
Co33 Co 0.27678 0.23717 0.33819 0.0
Co34 Co 0.18359 0.22046 0.32453 0.0
Co35 Co 0.25517 0.26439 0.29383 0.0
O36 O 0.23864 0.29465 0.32013 0.0
H37 H 0.23028 0.35626 0.32364 0.0
O38 O 0.27369 0.23646 0.26784 0.0
Co39 Co 0.22635 0.26435 0.24918 0.0
Co40 Co 0.32002 0.31553 0.25919 0.0
H41 H 0.28819 0.1774 0.26535 0.0
O42 O 0.1344 0.26802 0.33881 0.0
O43 O 0.20595 0.18529 0.34587 0.0
O44 O 0.16483 0.11891 0.30826 0.0
O45 O 0.2379 0.13407 0.29244 0.0
O46 O 0.18099 0.29054 0.28796 0.0
O47 O 0.18388 0.27791 0.23084 0.0
O48 O 0.24692 0.17402 0.23278 0.0
O49 O 0.19572 0.3608 0.2642 0.0
O50 O 0.27179 0.39425 0.29463 0.0
O51 O 0.3332 0.42246 0.27456 0.0
O52 O 0.28015 0.34678 0.23998 0.0
O53 O 0.36271 0.28668 0.23936 0.0
C54 C 0.30173 0.25909 0.36453 0.0
C55 C 0.33463 0.17398 0.31067 0.0
C56 C 0.19965 0.08694 0.29721 0.0
C57 C 0.16161 0.22988 0.35051 0.0
C58 C 0.20803 0.20609 0.22395 0.0
C59 C 0.16946 0.35095 0.27835 0.0
C60 C 0.30272 0.44766 0.28764 0.0
C61 C 0.32542 0.32817 0.23171 0.0
O62 O 0.31115 0.1869 0.35423 0.0
O63 O 0.27154 0.3201 0.35856 0.0
O64 O 0.32784 0.23519 0.30061 0.0
O65 O 0.29603 0.14768 0.31996 0.0
Co66 Co 0.77124 0.73775 0.33817 0.0
Co67 Co 0.67809 0.71999 0.32211 0.0
Co68 Co 0.75479 0.76644 0.29349 0.0
O69 O 0.73564 0.79542 0.31954 0.0
H70 H 0.7273 0.85701 0.32306 0.0
O71 O 0.77472 0.73896 0.26762 0.0
Co72 Co 0.72731 0.7664 0.24888 0.0
Co73 Co 0.82049 0.81918 0.2592 0.0
H74 H 0.78963 0.68017 0.26517 0.0
O75 O 0.62753 0.76045 0.33713 0.0
O76 O 0.7006 0.67865 0.34279 0.0
O77 O 0.66126 0.6214 0.30466 0.0
O78 O 0.74017 0.63568 0.29233 0.0
O79 O 0.68046 0.78799 0.28707 0.0
O80 O 0.68503 0.77946 0.23048 0.0
O81 O 0.74882 0.67684 0.23246 0.0
O82 O 0.6955 0.8619 0.2639 0.0
O83 O 0.76926 0.89689 0.29424 0.0
O84 O 0.83282 0.92531 0.27491 0.0
O85 O 0.78061 0.85033 0.23995 0.0
O86 O 0.8636 0.79194 0.23939 0.0
C87 C 0.78382 0.75315 0.36558 0.0
C88 C 0.83586 0.68173 0.31093 0.0
C89 C 0.69987 0.58877 0.29533 0.0
C90 C 0.65696 0.72267 0.3483 0.0
C91 C 0.70969 0.70812 0.22361 0.0
C92 C 0.66871 0.84961 0.2778 0.0
C93 C 0.801 0.95036 0.28763 0.0
C94 C 0.82598 0.83252 0.2317 0.0
O95 O 0.80185 0.68668 0.35504 0.0
O96 O 0.75706 0.81549 0.35871 0.0
O97 O 0.82785 0.74223 0.3008 0.0
O98 O 0.79766 0.65262 0.31999 0.0
Co99 Co 0.01286 0.52018 0.49844 0.0
Co100 Co 0.92272 0.57574 0.51026 0.0
Co101 Co 0.99077 0.52047 0.54324 0.0
O102 O 0.96781 0.4929 0.51771 0.0
H103 H 0.95195 0.43475 0.51546 0.0
O104 O 0.01199 0.54907 0.56908 0.0
Co105 Co 0.97552 0.49241 0.58789 0.0
Co106 Co 0.06823 0.47153 0.57137 0.0
H107 H 0.02209 0.61007 0.57242 0.0
O108 O 0.87406 0.54987 0.49266 0.0
O109 O 0.95794 0.6036 0.48979 0.0
O110 O 0.91295 0.6819 0.52611 0.0
O111 O 0.97909 0.65121 0.54406 0.0
O112 O 0.9177 0.50069 0.55133 0.0
O113 O 0.94439 0.44257 0.60485 0.0
O114 O -0.00879 0.56928 0.60842 0.0
O115 O 0.94703 0.40817 0.56991 0.0
O116 O 0.00382 0.38952 0.54213 0.0
O117 O 0.08438 0.37593 0.55319 0.0
O118 O 0.04525 0.42979 0.59206 0.0
O119 O 0.11941 0.509 0.58632 0.0
C120 C 0.02941 0.46128 0.47312 0.0
C121 C 0.07821 0.59283 0.52507 0.0
C122 C 0.9469 0.70577 0.53815 0.0
C123 C 0.90926 0.58979 0.48369 0.0
C124 C 0.96343 0.50811 0.61535 0.0
C125 C 0.90898 0.43904 0.56111 0.0
C126 C 0.04492 0.34313 0.5444 0.0
C127 C 0.08946 0.47205 0.59752 0.0
O128 O 0.05374 0.53338 0.47967 0.0
O129 O 0.99063 0.43026 0.48224 0.0
O130 O 0.06489 0.53768 0.53572 0.0
O131 O 0.04587 0.61495 0.51332 0.0
Co132 Co 0.27702 0.73178 0.83641 0.0
Co133 Co 0.18274 0.71685 0.82285 0.0
Co134 Co 0.25311 0.7598 0.79206 0.0
O135 O 0.23869 0.79055 0.81851 0.0
H136 H 0.23085 0.8523 0.82209 0.0
O137 O 0.26952 0.73135 0.76594 0.0
Co138 Co 0.2198 0.75539 0.74768 0.0
Co139 Co 0.31329 0.81059 0.75639 0.0
H140 H 0.28478 0.67281 0.76346 0.0
O141 O 0.13392 0.76539 0.83711 0.0
O142 O 0.20558 0.68264 0.8441 0.0
O143 O 0.16348 0.61457 0.80688 0.0
O144 O 0.23611 0.62952 0.79086 0.0
O145 O 0.17835 0.78537 0.78694 0.0
O146 O 0.17486 0.76443 0.72972 0.0
O147 O 0.24028 0.66437 0.73151 0.0
O148 O 0.18933 0.85261 0.7626 0.0
O149 O 0.26964 0.88966 0.79264 0.0
O150 O 0.32733 0.91809 0.7714 0.0
O151 O 0.27122 0.83878 0.73744 0.0
O152 O 0.35457 0.78109 0.73631 0.0
C153 C 0.30187 0.75011 0.86291 0.0
C154 C 0.33373 0.67009 0.80837 0.0
C155 C 0.19807 0.58241 0.79577 0.0
C156 C 0.16253 0.73048 0.84891 0.0
C157 C 0.19958 0.69283 0.72299 0.0
C158 C 0.16558 0.84507 0.77733 0.0
C159 C 0.29926 0.94302 0.78511 0.0
C160 C 0.31631 0.82166 0.72892 0.0
O161 O 0.31093 0.67922 0.8522 0.0
O162 O 0.27273 0.8131 0.85716 0.0
O163 O 0.32621 0.73078 0.79824 0.0
O164 O 0.29562 0.64339 0.81784 0.0
Co165 Co 0.77691 0.24436 0.83819 0.0
Co166 Co 0.68421 0.22974 0.82374 0.0
Co167 Co 0.75864 0.27432 0.79386 0.0
O168 O 0.74016 0.30338 0.82003 0.0
H169 H 0.73203 0.36499 0.82364 0.0
O170 O 0.7791 0.24721 0.768 0.0
Co171 Co 0.73239 0.27475 0.74913 0.0
Co172 Co 0.82357 0.32858 0.75965 0.0
H173 H 0.79453 0.18879 0.76555 0.0
O174 O 0.63464 0.27609 0.83811 0.0
O175 O 0.70558 0.19154 0.84494 0.0
O176 O 0.66546 0.1308 0.80676 0.0
O177 O 0.74108 0.14394 0.79217 0.0
O178 O 0.68518 0.30049 0.78728 0.0
O179 O 0.68997 0.28795 0.7308 0.0
O180 O 0.75185 0.18246 0.73296 0.0
O181 O 0.70233 0.37296 0.76398 0.0
O182 O 0.77506 0.40466 0.7952 0.0
O183 O 0.83436 0.43621 0.77479 0.0
O184 O 0.78748 0.35466 0.73931 0.0
O185 O 0.87134 0.29995 0.74186 0.0
C186 C 0.79993 0.26445 0.86476 0.0
C187 C 0.8368 0.18292 0.81108 0.0
C188 C 0.7015 0.09778 0.79629 0.0
C189 C 0.66142 0.23633 0.84967 0.0
C190 C 0.71296 0.21472 0.72413 0.0
C191 C 0.67483 0.36217 0.77785 0.0
C192 C 0.80475 0.45958 0.78817 0.0
C193 C 0.83606 0.34027 0.73304 0.0
O194 O 0.80991 0.19283 0.85435 0.0
O195 O 0.7702 0.32592 0.85873 0.0
O196 O 0.8308 0.24505 0.8012 0.0
O197 O 0.7975 0.15602 0.81996 0.0
Co198 Co 0.52476 1.00469 0.49847 0.0
Co199 Co 0.43112 0.05913 0.5077 0.0
Co200 Co 0.49258 1.01191 0.54329 0.0
O201 O 0.47622 0.9818 0.51718 0.0
H202 H 0.46156 0.92286 0.51486 0.0
O203 O 0.50691 0.04339 0.56961 0.0
Co204 Co 0.46696 0.98864 0.58757 0.0
Co205 Co 0.56107 0.96956 0.57508 0.0
H206 H 0.51528 0.10509 0.57298 0.0
O207 O 0.38945 0.02753 0.4879 0.0
O208 O 0.47227 0.08711 0.48842 0.0
O209 O 0.41609 0.16706 0.52255 0.0
O210 O 0.47461 0.14162 0.54367 0.0
O211 O 0.41982 0.97804 0.5495 0.0
O212 O 0.43082 0.94119 0.60367 0.0
O213 O 0.46958 0.07519 0.60735 0.0
O214 O 0.45051 0.89447 0.56981 0.0
O215 O 0.5118 0.88267 0.54199 0.0
O216 O 0.5789 0.8634 0.56013 0.0
O217 O 0.53692 0.93997 0.59666 0.0
O218 O 0.60968 0.01929 0.58929 0.0
C219 C 0.54428 0.94119 0.47376 0.0
C220 C 0.57938 0.09806 0.5277 0.0
C221 C 0.44414 0.19343 0.53611 0.0
C222 C 0.4269 0.06887 0.48022 0.0
C223 C 0.43921 0.01496 0.61355 0.0
C224 C 0.41422 0.9135 0.55885 0.0
C225 C 0.5469 0.83336 0.54799 0.0
C226 C 0.58108 0.98496 0.60122 0.0
O227 O 0.56872 1.01334 0.48023 0.0
O228 O 0.50397 0.91262 0.48255 0.0
O229 O 0.56691 0.04128 0.53807 0.0
O230 O 0.55556 0.10197 0.51289 0.0
Co231 Co 0.51752 0.51433 0.99889 0.0
Co232 Co 0.42399 0.56487 1.00942 0.0
Co233 Co 0.48999 0.51491 0.04365 0.0
O234 O 0.47074 0.4866 1.01779 0.0
H235 H 0.4562 0.42756 1.01538 0.0
O236 O 0.50772 0.54447 0.0698 0.0
Co237 Co 0.46939 0.4878 0.08797 0.0
Co238 Co 0.56243 0.46822 0.07389 0.0
H239 H 0.51664 0.60588 0.07326 0.0
O240 O 0.38124 0.53648 0.98973 0.0
O241 O 0.46347 0.5975 0.99011 0.0
O242 O 0.40923 0.66935 1.02529 0.0
O243 O 0.47436 0.64535 0.0443 0.0
O244 O 0.41739 0.48714 0.05091 0.0
O245 O 0.43498 0.43838 0.10418 0.0
O246 O 0.47535 0.5709 0.10827 0.0
O247 O 0.44946 0.39775 0.06985 0.0
O248 O 0.50646 0.38481 0.042 0.0
O249 O 0.57849 0.36437 0.05786 0.0
O250 O 0.53991 0.43513 0.0954 0.0
O251 O 0.61272 0.51396 0.08795 0.0
C252 C 0.53478 0.45619 0.97356 0.0
C253 C 0.57566 0.5995 1.02778 0.0
C254 C 0.4411 0.69648 0.03778 0.0
C255 C 0.41822 0.57838 0.98195 0.0
C256 C 0.44505 0.51041 0.11442 0.0
C257 C 0.41087 0.42449 0.06065 0.0
C258 C 0.54333 0.33497 0.04673 0.0
C259 C 0.58442 0.47917 0.09989 0.0
O260 O 0.55927 0.52779 0.98032 0.0
O261 O 0.49606 0.42447 0.98259 0.0
O262 O 0.56406 0.53873 0.0373 0.0
O263 O 0.54921 0.61005 1.01376 0.0
C264 C 0.07729 0.96105 0.133 0.0
C265 C 0.10352 0.99397 0.11867 0.0
C266 C 0.09501 0.98352 0.15078 0.0
C267 C 0.13968 0.04042 0.15424 0.0
C268 C 0.16769 0.06992 0.13973 0.0
C269 C 0.14943 0.04643 0.12226 0.0
C270 C 0.06571 0.94629 0.16574 0.0
C271 C 0.21597 0.12948 0.14264 0.0
C272 C 0.15149 0.20177 0.19651 0.0
C273 C 0.19038 0.16161 0.20628 0.0
C274 C 0.13314 0.16112 0.17996 0.0
C275 C 0.15419 0.07792 0.17284 0.0
C276 C 0.19287 0.03614 0.18273 0.0
C277 C 0.21056 0.0785 0.19934 0.0
C278 C 0.09304 0.21017 0.16981 0.0
C279 C 0.21642 0.94776 0.17556 0.0
H280 H 0.04251 0.91926 0.1304 0.0
H281 H 0.17084 0.07189 0.1114 0.0
H282 H 0.08706 0.88658 0.16915 0.0
H283 H 0.06394 0.99434 0.17801 0.0
H284 H 0.02462 0.92621 0.16165 0.0
H285 H 0.23671 0.1386 0.12989 0.0
H286 H 0.20352 0.19556 0.14914 0.0
H287 H 0.24481 0.10189 0.1517 0.0
H288 H 0.13557 0.266 0.20168 0.0
H289 H 0.24026 0.04654 0.20685 0.0
H290 H 0.06605 0.16437 0.16158 0.0
H291 H 0.11468 0.2501 0.16065 0.0
H292 H 0.06848 0.25616 0.17904 0.0
H293 H 0.18415 0.89814 0.17286 0.0
H294 H 0.24533 0.92308 0.185 0.0
H295 H 0.23704 0.95329 0.16265 0.0
C296 C 0.87225 0.97181 0.13412 0.0
C297 C 0.91993 0.01889 0.13229 0.0
C298 C 0.85373 0.95258 0.15083 0.0
C299 C 0.88236 0.98388 0.16644 0.0
C300 C 0.92731 0.03968 0.16498 0.0
C301 C 0.94611 0.05603 0.14784 0.0
C302 C 0.8064 0.89137 0.1515 0.0
C303 C 0.95675 0.07819 0.18153 0.0
C304 C 0.81324 0.94718 0.21043 0.0
C305 C 0.83836 0.86981 0.21471 0.0
C306 C 0.8286 0.9873 0.19518 0.0
C307 C 0.86905 0.94785 0.18366 0.0
C308 C 0.89373 0.86868 0.18784 0.0
C309 C 0.87873 0.83183 0.20341 0.0
C310 C 0.80164 0.07199 0.19144 0.0
C311 C 0.93685 0.82215 0.17624 0.0
H312 H 0.85101 0.94421 0.12221 0.0
H313 H 0.98268 0.09281 0.14661 0.0
H314 H 0.82024 0.82654 0.15521 0.0
H315 H 0.77738 0.9186 0.16185 0.0
H316 H 0.78545 0.87968 0.13843 0.0
H317 H 0.99063 0.12058 0.17834 0.0
H318 H 0.92899 0.11841 0.19067 0.0
H319 H 0.97189 0.02414 0.18889 0.0
H320 H 0.78257 0.97784 0.21926 0.0
H321 H 0.89865 0.77244 0.20667 0.0
H322 H 0.77946 0.06103 0.17863 0.0
H323 H 0.83199 0.12376 0.18995 0.0
H324 H 0.77334 0.0972 0.20224 0.0
H325 H 0.93555 0.83693 0.16215 0.0
H326 H 0.93405 0.74923 0.17629 0.0
H327 H 0.97619 0.84301 0.18198 0.0
C328 C 0.08652 0.45361 0.44568 0.0
C329 C 0.04753 0.41456 0.45567 0.0
C330 C 0.10619 0.41021 0.42951 0.0
C331 C 0.08641 0.32538 0.42299 0.0
C332 C 0.04779 0.28458 0.43313 0.0
C333 C 0.02868 0.32972 0.44935 0.0
C334 C 0.14688 0.45692 0.41908 0.0
C335 C 0.02609 0.19396 0.4267 0.0
C336 C 0.09183 0.28734 0.37249 0.0
C337 C 0.14011 0.24078 0.36915 0.0
C338 C 0.07258 0.31044 0.38987 0.0
C339 C 0.1017 0.28578 0.40456 0.0
C340 C 0.1484 0.23328 0.40136 0.0
C341 C 0.16729 0.21156 0.38365 0.0
C342 C 0.02245 0.36587 0.3925 0.0
C343 C 0.17879 0.20101 0.41659 0.0
H344 H 0.10164 0.5189 0.45042 0.0
H345 H -0.00086 0.29843 0.45709 0.0
H346 H 0.17962 0.41116 0.41425 0.0
H347 H 0.12754 0.47937 0.40712 0.0
H348 H 0.16434 0.51558 0.42718 0.0
H349 H -0.00209 0.16963 0.43647 0.0
H350 H 0.00511 0.19568 0.41377 0.0
H351 H 0.05939 0.14597 0.42429 0.0
H352 H 0.06945 0.30919 0.36149 0.0
H353 H 0.20387 0.17405 0.38124 0.0
H354 H 0.03271 0.43323 0.39887 0.0
H355 H -0.00572 0.33653 0.40157 0.0
H356 H 0.00173 0.37237 0.37966 0.0
H357 H 0.21917 0.17721 0.41232 0.0
H358 H 0.15676 0.14516 0.42146 0.0
H359 H 0.18239 0.25381 0.428 0.0
C360 C 0.8068 0.82179 0.39712 0.0
C361 C 0.79173 0.7488 0.38507 0.0
C362 C 0.82475 0.80972 0.41455 0.0
C363 C 0.82749 0.72304 0.4199 0.0
C364 C 0.80902 0.65056 0.40806 0.0
C365 C 0.79175 0.66432 0.39093 0.0
C366 C 0.84207 0.88902 0.42709 0.0
C367 C 0.80898 0.55742 0.41326 0.0
C368 C 0.92489 0.64549 0.45374 0.0
C369 C 0.89059 0.63192 0.46792 0.0
C370 C 0.90559 0.68098 0.43844 0.0
C371 C 0.851 0.70532 0.43747 0.0
C372 C 0.81736 0.69741 0.45237 0.0
C373 C 0.8373 0.65972 0.46721 0.0
C374 C 0.94295 0.68762 0.42288 0.0
C375 C 0.7593 0.72345 0.45252 0.0
H376 H 0.80706 0.88714 0.39269 0.0
H377 H 0.77963 0.60749 0.38177 0.0
H378 H 0.82099 0.88994 0.44012 0.0
H379 H 0.88542 0.88442 0.42978 0.0
H380 H 0.83407 0.95229 0.42151 0.0
H381 H 0.79231 0.50853 0.40259 0.0
H382 H 0.85029 0.53714 0.41617 0.0
H383 H 0.785 0.55488 0.42563 0.0
H384 H 0.96622 0.62501 0.45428 0.0
H385 H 0.81068 0.65163 0.4783 0.0
H386 H 0.93957 0.75375 0.41808 0.0
H387 H 0.93168 0.63747 0.41159 0.0
H388 H 0.98518 0.67625 0.42644 0.0
H389 H 0.75089 0.77382 0.44336 0.0
H390 H 0.7463 0.75 0.46624 0.0
H391 H 0.73496 0.66367 0.44838 0.0
C392 C 0.08763 0.43537 0.62959 0.0
C393 C 0.10459 0.48895 0.61671 0.0
C394 C 0.10205 0.45581 0.64776 0.0
C395 C 0.13402 0.53143 0.65304 0.0
C396 C 0.15218 0.58412 0.63995 0.0
C397 C 0.13724 0.56239 0.62208 0.0
C398 C 0.08169 0.39835 0.66134 0.0
C399 C 0.18651 0.66514 0.64483 0.0
C400 C 0.13158 0.66623 0.69865 0.0
C401 C 0.18098 0.64473 0.70579 0.0
C402 C 0.11386 0.62448 0.68209 0.0
C403 C 0.14654 0.56023 0.67223 0.0
C404 C 0.19528 0.53511 0.67973 0.0
C405 C 0.21187 0.57747 0.69645 0.0
C406 C 0.06161 0.65342 0.67467 0.0
C407 C 0.23132 0.46704 0.66964 0.0
H408 H 0.06326 0.37784 0.62548 0.0
H409 H 0.15055 0.60483 0.61231 0.0
H410 H 0.11398 0.38318 0.67058 0.0
H411 H 0.05028 0.43498 0.6695 0.0
H412 H 0.06441 0.33529 0.65491 0.0
H413 H 0.19971 0.69621 0.63288 0.0
H414 H 0.1639 0.71514 0.65377 0.0
H415 H 0.22242 0.64739 0.65224 0.0
H416 H 0.10689 0.71701 0.70588 0.0
H417 H 0.24981 0.55976 0.70193 0.0
H418 H 0.03953 0.59594 0.6679 0.0
H419 H 0.06966 0.69947 0.66455 0.0
H420 H 0.03577 0.68801 0.68531 0.0
H421 H 0.20811 0.40784 0.66423 0.0
H422 H 0.26388 0.44594 0.67821 0.0
H423 H 0.24951 0.49533 0.65808 0.0
C424 C 0.90787 0.41196 0.71671 0.0
C425 C 0.85477 0.38308 0.71733 0.0
C426 C 0.92786 0.45061 0.70197 0.0
C427 C 0.8945 0.4584 0.68705 0.0
C428 C 0.84004 0.43304 0.68794 0.0
C429 C 0.82066 0.39661 0.70316 0.0
C430 C 0.98575 0.47772 0.70221 0.0
C431 C 0.80297 0.43957 0.67236 0.0
C432 C 0.93957 0.5762 0.64689 0.0
C433 C 0.95542 0.50358 0.63483 0.0
C434 C 0.92097 0.56359 0.66426 0.0
C435 C 0.91835 0.47674 0.66953 0.0
C436 C 0.93743 0.40464 0.65768 0.0
C437 C 0.95527 0.41892 0.64061 0.0
C438 C 0.90284 0.64249 0.67679 0.0
C439 C 0.93754 0.31133 0.66279 0.0
H440 H 0.93431 0.40401 0.72781 0.0
H441 H 0.77944 0.3754 0.70364 0.0
H442 H 0.01061 0.41836 0.69816 0.0
H443 H -0.00585 0.52814 0.69305 0.0
H444 H -0.00187 0.50464 0.71595 0.0
H445 H 0.76072 0.42763 0.67589 0.0
H446 H 0.80617 0.50585 0.66763 0.0
H447 H 0.81467 0.38974 0.66105 0.0
H448 H 0.93917 0.64163 0.6425 0.0
H449 H 0.96765 0.36231 0.63141 0.0
H450 H 0.92372 0.64373 0.68983 0.0
H451 H 0.85949 0.63699 0.67947 0.0
H452 H 0.91047 0.70595 0.67124 0.0
H453 H 0.96103 0.30875 0.67522 0.0
H454 H 0.9548 0.26282 0.65213 0.0
H455 H 0.89619 0.29057 0.66556 0.0
C456 C 0.16451 0.70571 0.88178 0.0
C457 C 0.14431 0.74959 0.86784 0.0
C458 C 0.14601 0.72737 0.89953 0.0
C459 C 0.10733 0.79524 0.90341 0.0
C460 C 0.08637 0.8384 0.88931 0.0
C461 C 0.10496 0.81516 0.87186 0.0
C462 C 0.1683 0.67871 0.91418 0.0
C463 C 0.0453 0.91143 0.89269 0.0
C464 C 0.02848 0.83755 0.94706 0.0
C465 C 0.05526 0.91148 0.95571 0.0
C466 C 0.04637 0.79585 0.93038 0.0
C467 C 0.09225 0.82854 0.92223 0.0
C468 C 0.12012 0.90156 0.93118 0.0
C469 C 0.10126 0.94212 0.9477 0.0
C470 C 0.01486 0.71935 0.92113 0.0
C471 C 0.16842 0.94035 0.92293 0.0
H472 H 0.19461 0.65488 0.87884 0.0
H473 H 0.08895 0.8505 0.86134 0.0
H474 H 0.18719 0.72644 0.92453 0.0
H475 H 0.13558 0.64572 0.92084 0.0
H476 H 0.19798 0.62786 0.90898 0.0
H477 H 0.01113 0.88905 0.90042 0.0
H478 H 0.06323 0.9695 0.90081 0.0
H479 H 0.02988 0.93339 0.88008 0.0
H480 H -0.00695 0.81311 0.95316 0.0
H481 H 0.1226 0.99879 0.95426 0.0
H482 H 0.04175 0.66372 0.91628 0.0
H483 H -0.00547 0.74058 0.90923 0.0
H484 H 0.98419 0.695 0.93007 0.0
H485 H 0.19382 0.88767 0.91588 0.0
H486 H 0.19289 0.9807 0.93313 0.0
H487 H 0.15516 0.98382 0.91291 0.0
C488 C 0.87105 0.22065 0.88465 0.0
C489 C 0.82401 0.26958 0.88298 0.0
C490 C 0.88947 0.20079 0.90129 0.0
C491 C 0.86141 0.2332 0.91701 0.0
C492 C 0.81705 0.29045 0.91569 0.0
C493 C 0.79836 0.30753 0.89861 0.0
C494 C 0.93613 0.13805 0.90179 0.0
C495 C 0.78814 0.32994 0.93233 0.0
C496 C 0.8652 0.08061 0.95386 0.0
C497 C 0.90652 0.11702 0.96487 0.0
C498 C 0.84959 0.11857 0.93851 0.0
C499 C 0.87477 0.1971 0.93421 0.0
C500 C 0.9161 0.23512 0.94545 0.0
C501 C 0.93194 0.19405 0.9605 0.0
C502 C 0.80525 0.07418 0.92724 0.0
C503 C 0.94366 0.31911 0.94157 0.0
H504 H 0.89197 0.19245 0.87268 0.0
H505 H 0.76231 0.34574 0.8975 0.0
H506 H 0.9658 0.16483 0.9119 0.0
H507 H 0.92172 0.074 0.90575 0.0
H508 H 0.9565 0.1249 0.8886 0.0
H509 H 0.75525 0.37458 0.92928 0.0
H510 H 0.77167 0.27636 0.93957 0.0
H511 H 0.81657 0.36799 0.94153 0.0
H512 H 0.84494 0.02162 0.95719 0.0
H513 H 0.96334 0.22359 0.96911 0.0
H514 H 0.80837 0.08483 0.91293 0.0
H515 H 0.76662 0.10154 0.93255 0.0
H516 H 0.80458 1.00171 0.9281 0.0
H517 H 0.96636 0.30696 0.92883 0.0
H518 H 0.97165 0.34448 0.9524 0.0
H519 H 0.91371 0.37119 0.93985 0.0
C520 C 0.65377 0.2083 0.69729 0.0
C521 C 0.69362 0.16876 0.70679 0.0
C522 C 0.63367 0.1664 0.68108 0.0
C523 C 0.65392 0.08262 0.674 0.0
C524 C 0.69329 0.04116 0.68368 0.0
C525 C 0.71275 0.08476 0.69996 0.0
C526 C 0.5924 0.21421 0.67116 0.0
C527 C 0.7157 0.9518 0.67662 0.0
C528 C 0.57443 0.96843 0.63444 0.0
C529 C 0.60119 0.99939 0.62 0.0
C530 C 0.59274 0.99052 0.65218 0.0
C531 C 0.6385 0.04509 0.65547 0.0
C532 C 0.66687 0.0727 0.64085 0.0
C533 C 0.6481 0.04946 0.62344 0.0
C534 C 0.56289 0.95585 0.66732 0.0
C535 C 0.71601 0.13039 0.64358 0.0
H536 H 0.63843 0.273 0.7024 0.0
H537 H 0.74304 0.05313 0.70729 0.0
H538 H 0.56171 0.16776 0.66506 0.0
H539 H 0.57226 0.26761 0.68007 0.0
H540 H 0.61221 0.24463 0.66015 0.0
H541 H 0.74398 0.92621 0.68615 0.0
H542 H 0.68281 0.90337 0.67386 0.0
H543 H 0.7368 0.95638 0.66376 0.0
H544 H 0.53879 0.92861 0.63197 0.0
H545 H 0.66996 0.07332 0.6125 0.0
H546 H 0.55932 1.00713 0.67902 0.0
H547 H 0.58521 0.89924 0.67173 0.0
H548 H 0.5225 0.93232 0.66309 0.0
H549 H 0.70472 0.19655 0.65034 0.0
H550 H 0.7362 0.13964 0.63074 0.0
H551 H 0.74498 0.10108 0.65234 0.0
C552 C 0.36442 0.9782 0.63274 0.0
C553 C 0.41297 0.02351 0.63147 0.0
C554 C 0.34473 0.95693 0.64915 0.0
C555 C 0.37302 0.98468 0.66504 0.0
C556 C 0.41869 0.03954 0.66418 0.0
C557 C 0.43879 0.05754 0.64732 0.0
C558 C 0.29676 0.89666 0.64917 0.0
C559 C 0.44759 0.07495 0.68105 0.0
C560 C 0.30308 0.93962 0.70841 0.0
C561 C 0.32807 0.8611 0.71212 0.0
C562 C 0.31855 0.98257 0.69354 0.0
C563 C 0.35905 0.94498 0.68181 0.0
C564 C 0.38353 0.86459 0.68537 0.0
C565 C 0.36833 0.82475 0.70057 0.0
C566 C 0.29202 0.06869 0.6905 0.0
C567 C 0.42688 0.82019 0.67355 0.0
H568 H 0.3437 0.95273 0.62056 0.0
H569 H 0.47614 0.09276 0.64651 0.0
H570 H 0.30984 0.83037 0.65229 0.0
H571 H 0.26773 0.92245 0.65964 0.0
H572 H 0.27607 0.88841 0.63602 0.0
H573 H 0.48122 0.11896 0.67836 0.0
H574 H 0.41944 0.11264 0.69047 0.0
H575 H 0.46299 0.0192 0.68787 0.0
H576 H 0.2726 0.96914 0.71746 0.0
H577 H 0.38822 0.76456 0.7034 0.0
H578 H 0.27155 0.0617 0.67735 0.0
H579 H 0.32256 0.12125 0.69014 0.0
H580 H 0.26238 0.09061 0.70111 0.0
H581 H 0.42535 0.83691 0.65958 0.0
H582 H 0.4246 0.74702 0.6732 0.0
H583 H 0.46613 0.84116 0.67934 0.0
C584 C 0.59034 0.45167 0.94583 0.0
C585 C 0.552 0.4114 0.95586 0.0
C586 C 0.60859 0.41047 0.92929 0.0
C587 C 0.588 0.32663 0.92244 0.0
C588 C 0.54991 0.28472 0.93258 0.0
C589 C 0.53225 0.32767 0.94918 0.0
C590 C 0.64835 0.45893 0.91883 0.0
C591 C 0.52714 0.19538 0.92574 0.0
C592 C 0.59249 0.2945 0.87191 0.0
C593 C 0.64002 0.24617 0.8683 0.0
C594 C 0.5736 0.31626 0.88938 0.0
C595 C 0.6025 0.28867 0.90385 0.0
C596 C 0.6484 0.23456 0.90034 0.0
C597 C 0.66679 0.214 0.88256 0.0
C598 C 0.52409 0.373 0.89236 0.0
C599 C 0.67856 0.19929 0.9153 0.0
H600 H 0.60595 0.51631 0.95082 0.0
H601 H 0.50304 0.2956 0.95691 0.0
H602 H 0.67859 0.4129 0.91223 0.0
H603 H 0.62708 0.48947 0.90815 0.0
H604 H 0.66919 0.51231 0.92748 0.0
H605 H 0.49877 0.17061 0.9354 0.0
H606 H 0.50611 0.19939 0.91289 0.0
H607 H 0.55989 0.14655 0.92304 0.0
H608 H 0.57045 0.31866 0.86108 0.0
H609 H 0.70276 0.17507 0.87992 0.0
H610 H 0.53519 0.43984 0.89881 0.0
H611 H 0.49598 0.34397 0.9015 0.0
H612 H 0.503 0.38074 0.87965 0.0
H613 H 0.68152 0.24954 0.92718 0.0
H614 H 0.71921 0.17731 0.91096 0.0
H615 H 0.6569 0.1414 0.91946 0.0
C616 C 0.4355 0.68334 0.95885 0.0
C617 C 0.40537 0.61454 0.96485 0.0
C618 C 0.4207 0.72182 0.94336 0.0
C619 C 0.37529 0.68976 0.93342 0.0
C620 C 0.345 0.62023 0.93947 0.0
C621 C 0.36008 0.58424 0.9551 0.0
C622 C 0.45364 0.79673 0.93762 0.0
C623 C 0.29583 0.58442 0.92965 0.0
C624 C 0.30444 0.80072 0.89661 0.0
C625 C 0.32558 0.7521 0.8812 0.0
C626 C 0.32331 0.78667 0.91386 0.0
C627 C 0.36262 0.72072 0.91565 0.0
C628 C 0.3861 0.67601 0.90007 0.0
C629 C 0.36812 0.69345 0.88322 0.0
C630 C 0.29978 0.84012 0.93013 0.0
C631 C 0.42752 0.60436 0.90109 0.0
H632 H 0.47014 0.70828 0.96643 0.0
H633 H 0.33613 0.53183 0.95967 0.0
H634 H 0.47368 0.77504 0.92468 0.0
H635 H 0.42749 0.85346 0.93548 0.0
H636 H 0.48458 0.81975 0.94765 0.0
H637 H 0.28193 0.52143 0.93426 0.0
H638 H 0.26361 0.63406 0.93222 0.0
H639 H 0.30286 0.57313 0.91498 0.0
H640 H 0.27208 0.84674 0.89529 0.0
H641 H 0.38602 0.65687 0.87146 0.0
H642 H 0.32908 0.85077 0.94121 0.0
H643 H 0.26524 0.80412 0.935 0.0
H644 H 0.28587 0.90569 0.92687 0.0
H645 H 0.46056 0.62877 0.91011 0.0
H646 H 0.44462 0.58025 0.88776 0.0
H647 H 0.40904 0.54728 0.90675 0.0
C648 C 0.57837 0.46102 0.13301 0.0
C649 C 0.60466 0.4934 0.11863 0.0
C650 C 0.59631 0.48347 0.15076 0.0
C651 C 0.64125 0.53984 0.15413 0.0
C652 C 0.66939 0.56858 0.13958 0.0
C653 C 0.65094 0.54502 0.12214 0.0
C654 C 0.5669 0.44712 0.1658 0.0
C655 C 0.71789 0.6277 0.14241 0.0
C656 C 0.6531 0.7026 0.19618 0.0
C657 C 0.69218 0.66308 0.20598 0.0
C658 C 0.63465 0.6612 0.1797 0.0
C659 C 0.65582 0.57791 0.17269 0.0
C660 C 0.69466 0.53674 0.18262 0.0
C661 C 0.71246 0.57986 0.19915 0.0
C662 C 0.59423 0.70927 0.16949 0.0
C663 C 0.71818 0.44813 0.17559 0.0
H664 H 0.54331 0.41983 0.13047 0.0
H665 H 0.67245 0.56994 0.11124 0.0
H666 H 0.5887 0.38856 0.16957 0.0
H667 H 0.56445 0.49637 0.17786 0.0
H668 H 0.52607 0.42563 0.16166 0.0
H669 H 0.73854 0.63651 0.12963 0.0
H670 H 0.70571 0.69394 0.1489 0.0
H671 H 0.74672 0.59993 0.15144 0.0
H672 H 0.63707 0.76686 0.20127 0.0
H673 H 0.74226 0.54836 0.20671 0.0
H674 H 0.56599 0.66271 0.16202 0.0
H675 H 0.61543 0.74551 0.1596 0.0
H676 H 0.57107 0.75825 0.17854 0.0
H677 H 0.68588 0.39851 0.17295 0.0
H678 H 0.74701 0.42378 0.1851 0.0
H679 H 0.73889 0.45314 0.16268 0.0
C680 C 0.37927 0.32886 0.20367 0.0
C681 C 0.33823 0.36592 0.2148 0.0
C682 C 0.3947 0.36628 0.18821 0.0
C683 C 0.36969 0.44501 0.18396 0.0
C684 C 0.32863 0.48362 0.19532 0.0
C685 C 0.3129 0.443 0.21046 0.0
C686 C 0.43865 0.32099 0.17681 0.0
C687 C 0.30133 0.5679 0.19149 0.0
C688 C 0.44653 0.55436 0.14822 0.0
C689 C 0.42066 0.51684 0.13264 0.0
C690 C 0.42772 0.53764 0.16534 0.0
C691 C 0.3831 0.48104 0.16674 0.0
C692 C 0.35481 0.4492 0.15109 0.0
C693 C 0.37329 0.46888 0.13442 0.0
C694 C 0.45676 0.57671 0.18192 0.0
C695 C 0.30789 0.38706 0.15169 0.0
H696 H 0.39942 0.26979 0.207 0.0
H697 H 0.28173 0.47301 0.21916 0.0
H698 H 0.43661 0.33382 0.1626 0.0
H699 H 0.47757 0.34522 0.18238 0.0
H700 H 0.43764 0.2482 0.17724 0.0
H701 H 0.27316 0.59326 0.20233 0.0
H702 H 0.33145 0.61983 0.18984 0.0
H703 H 0.27889 0.55621 0.17874 0.0
H704 H 0.48286 0.59183 0.14703 0.0
H705 H 0.35225 0.44102 0.12248 0.0
H706 H 0.47265 0.52291 0.18921 0.0
H707 H 0.42856 0.61568 0.19111 0.0
H708 H 0.49008 0.62042 0.1788 0.0
H709 H 0.32207 0.32271 0.15555 0.0
H710 H 0.28734 0.37448 0.13856 0.0
H711 H 0.27843 0.41403 0.16192 0.0
C712 C 0.5321 0.82601 0.44717 0.0
C713 C 0.56303 0.89271 0.45658 0.0
C714 C 0.54897 0.78387 0.43042 0.0
C715 C 0.59803 0.80864 0.42299 0.0
C716 C 0.63076 0.87218 0.43295 0.0
C717 C 0.61275 0.9137 0.44952 0.0
C718 C 0.51296 0.7164 0.42023 0.0
C719 C 0.68332 0.90086 0.42562 0.0
C720 C 0.65812 0.68523 0.3803 0.0
C721 C 0.6415 0.73927 0.36749 0.0
C722 C 0.6431 0.70491 0.39845 0.0
C723 C 0.61096 0.78038 0.40379 0.0
C724 C 0.59333 0.83377 0.39077 0.0
C725 C 0.6088 0.81268 0.37291 0.0
C726 C 0.66308 0.64684 0.41194 0.0
C727 C 0.55908 0.91492 0.39573 0.0
H728 H 0.49392 0.8087 0.4526 0.0
H729 H 0.63751 0.964 0.45681 0.0
H730 H 0.49518 0.74521 0.4087 0.0
H731 H 0.53612 0.65709 0.41478 0.0
H732 H 0.48009 0.69538 0.42875 0.0
H733 H 0.70912 0.93438 0.43633 0.0
H734 H 0.70529 0.84351 0.41868 0.0
H735 H 0.6757 0.94785 0.41566 0.0
H736 H 0.6827 0.62788 0.37615 0.0
H737 H 0.59582 0.85555 0.36319 0.0
H738 H 0.63079 0.63248 0.42131 0.0
H739 H 0.69499 0.68253 0.41996 0.0
H740 H 0.67973 0.58337 0.40543 0.0
H741 H 0.52284 0.89709 0.40302 0.0
H742 H 0.54644 0.94669 0.38382 0.0
H743 H 0.58152 0.96437 0.40481 0.0
C744 C 0.37251 0.07138 0.45242 0.0
C745 C 0.41381 0.10771 0.46346 0.0
C746 C 0.35625 0.1105 0.43727 0.0
C747 C 0.38073 0.19007 0.43322 0.0
C748 C 0.42209 0.22788 0.44447 0.0
C749 C 0.43859 0.18568 0.45931 0.0
C750 C 0.3119 0.0665 0.42595 0.0
C751 C 0.44872 0.31315 0.4409 0.0
C752 C 0.37493 0.21825 0.38389 0.0
C753 C 0.32703 0.26533 0.38257 0.0
C754 C 0.39434 0.19769 0.40036 0.0
C755 C 0.36644 0.22772 0.41626 0.0
C756 C 0.32129 0.28368 0.41531 0.0
C757 C 0.30152 0.30121 0.39839 0.0
C758 C 0.44181 0.13634 0.40046 0.0
C759 C 0.29268 0.32122 0.43215 0.0
H760 H 0.3527 1.01173 0.45562 0.0
H761 H 0.46986 0.21526 0.46796 0.0
H762 H 0.27336 0.09558 0.43094 0.0
H763 H 0.31595 0.07596 0.4116 0.0
H764 H 0.31022 0.99427 0.42703 0.0
H765 H 0.47746 0.33735 0.45158 0.0
H766 H 0.47035 0.30345 0.42793 0.0
H767 H 0.41822 0.36516 0.43982 0.0
H768 H 0.39562 0.19161 0.37176 0.0
H769 H 0.26475 0.33795 0.39755 0.0
H770 H 0.42835 0.07125 0.40415 0.0
H771 H 0.47146 0.16304 0.41059 0.0
H772 H 0.46193 0.12532 0.3872 0.0
H773 H 0.27619 0.26657 0.43909 0.0
H774 H 0.25981 0.36658 0.42939 0.0
H775 H 0.32125 0.35798 0.4415 0.0
C776 C 0.06559 0.67806 0.0519 0.0
C777 C 0.03616 0.7366 0.04262 0.0
C778 C 0.05122 0.58864 0.05111 0.0
C779 C 0.00658 0.55739 0.04081 0.0
C780 C 0.97813 0.6151 1.0308 0.0
C781 C -0.00632 0.70381 1.03166 0.0
C782 C 0.08235 0.52853 0.06191 0.0
C783 C 0.93037 0.58395 1.01957 0.0
C784 C 0.99078 0.31376 1.0258 0.0
C785 C 0.95541 0.2879 0.03865 0.0
C786 C 0.00879 0.4009 1.02665 0.0
C787 C 0.98951 0.46411 0.04041 0.0
C788 C 0.95329 0.43835 0.05343 0.0
C789 C 0.93712 0.34947 0.05252 0.0
C790 C 0.04903 0.42486 1.01299 0.0
C791 C 0.93246 0.50329 0.06857 0.0
H792 H 0.09831 0.70278 0.06045 0.0
H793 H 0.97079 0.74841 1.02437 0.0
H794 H 0.05711 0.51005 0.07304 0.0
H795 H 0.09329 0.4664 0.05346 0.0
H796 H 0.11919 0.5606 0.0677 0.0
H797 H 0.9071 0.64006 1.0153 0.0
H798 H 0.94403 0.54162 1.0074 0.0
H799 H 0.90349 0.54328 1.02705 0.0
H800 H 0.00492 0.26515 1.01514 0.0
H801 H 0.91033 0.32832 0.06255 0.0
H802 H 0.08496 0.45447 1.01989 0.0
H803 H 0.03194 0.47517 1.00506 0.0
H804 H 0.0616 0.36655 1.00363 0.0
H805 H 0.96011 0.50458 0.0801 0.0
H806 H 0.89255 0.48303 0.07311 0.0
H807 H 0.92961 0.57152 0.06479 0.0
C808 C 0.32585 0.60567 0.28493 0.0
C809 C 0.29304 0.54357 0.29203 0.0
C810 C 0.3108 0.69495 0.2859 0.0
C811 C 0.26117 0.72197 0.29377 0.0
C812 C 0.22866 0.66015 0.30139 0.0
C813 C 0.24551 0.5722 0.30077 0.0
C814 C 0.34715 0.7585 0.27769 0.0
C815 C 0.1747 0.68579 0.30932 0.0
C816 C 0.23437 0.96082 0.31102 0.0
C817 C 0.20969 0.9919 0.29628 0.0
C818 C 0.25289 0.87386 0.31014 0.0
C819 C 0.24341 0.81519 0.29448 0.0
C820 C 0.21653 0.84542 0.27973 0.0
C821 C 0.2011 0.93474 0.28064 0.0
C822 C 0.28365 0.84568 0.3258 0.0
C823 C 0.20456 0.78373 0.26303 0.0
H824 H 0.36252 0.58415 0.27808 0.0
H825 H 0.21966 0.52484 0.30622 0.0
H826 H 0.34299 0.82741 0.28422 0.0
H827 H 0.38952 0.73791 0.27847 0.0
H828 H 0.33708 0.75794 0.26331 0.0
H829 H 0.15289 0.62845 0.3137 0.0
H830 H 0.17912 0.73669 0.32102 0.0
H831 H 0.15023 0.71533 0.29926 0.0
H832 H 0.24107 1.00579 0.32309 0.0
H833 H 0.18249 0.9598 0.26923 0.0
H834 H 0.32048 0.80969 0.32106 0.0
H835 H 0.2591 0.79986 0.33285 0.0
H836 H 0.29499 0.90299 0.33559 0.0
H837 H 0.24239 0.76249 0.25615 0.0
H838 H 0.17905 0.81545 0.25352 0.0
H839 H 0.18419 0.72328 0.26659 0.0
C840 C 0.7441 0.07485 0.30096 0.0
C841 C 0.79131 0.04617 0.29202 0.0
C842 C 0.72726 0.16279 0.30163 0.0
C843 C 0.75938 0.22428 0.29377 0.0
C844 C 0.80881 0.19731 0.28577 0.0
C845 C 0.82395 0.10817 0.28482 0.0
C846 C 0.6738 0.18876 0.30991 0.0
C847 C 0.8447 0.26084 0.27735 0.0
C848 C 0.69855 0.43454 0.27989 0.0
C849 C 0.70934 0.49399 0.29502 0.0
C850 C 0.71344 0.34522 0.27945 0.0
C851 C 0.74135 0.31708 0.29419 0.0
C852 C 0.75232 0.37772 0.30943 0.0
C853 C 0.73487 0.46502 0.30981 0.0
C854 C 0.70001 0.28135 0.26319 0.0
C855 C 0.78362 0.35123 0.32513 0.0
H856 H 0.71852 0.02759 0.30657 0.0
H857 H 0.86045 0.08663 0.27787 0.0
H858 H 0.67903 0.23949 0.3216 0.0
H859 H 0.64876 0.21867 0.30004 0.0
H860 H 0.65216 0.13147 0.3144 0.0
H861 H 0.88702 0.23919 0.27744 0.0
H862 H 0.83281 0.26238 0.26318 0.0
H863 H 0.84175 0.32923 0.28424 0.0
H864 H 0.67903 0.45797 0.26847 0.0
H865 H 0.74272 0.51165 0.32154 0.0
H866 H 0.67909 0.22258 0.26732 0.0
H867 H 0.73727 0.25756 0.25624 0.0
H868 H 0.67446 0.31214 0.25356 0.0
H869 H 0.75939 0.30604 0.33245 0.0
H870 H 0.79516 0.40934 0.33469 0.0
H871 H 0.82034 0.31497 0.32038 0.0
C872 C 0.00759 0.82799 0.54973 0.0
C873 C 0.958 0.80092 0.54237 0.0
C874 C 0.02417 0.91597 0.55034 0.0
C875 C 0.9897 0.97856 0.5439 0.0
C876 C 0.93842 0.95293 0.5374 0.0
C877 C 0.92328 0.86398 0.53659 0.0
C878 C 0.07918 0.94125 0.55734 0.0
C879 C 0.90043 0.01823 0.53051 0.0
C880 C 0.01348 0.21933 0.55952 0.0
C881 C 0.03625 0.24859 0.54425 0.0
C882 C -0.00203 0.13137 0.55956 0.0
C883 C 0.00718 0.07119 0.5441 0.0
C884 C 0.03201 0.09991 0.5288 0.0
C885 C 0.04569 0.18946 0.52896 0.0
C886 C 0.97007 0.10366 0.57587 0.0
C887 C 0.04322 0.03643 0.51225 0.0
H888 H 0.03487 0.77963 0.55414 0.0
H889 H 0.885 0.84341 0.53086 0.0
H890 H 0.10126 0.97678 0.54753 0.0
H891 H 0.07576 0.98703 0.5699 0.0
H892 H 0.103 0.88277 0.56014 0.0
H893 H 0.85875 0.99324 0.52999 0.0
H894 H 0.90149 0.08308 0.53894 0.0
H895 H 0.91249 0.02959 0.51675 0.0
H896 H 0.00635 0.26616 0.5713 0.0
H897 H 0.06308 0.21337 0.5172 0.0
H898 H -0.00691 0.05065 0.58135 0.0
H899 H 0.93017 0.07611 0.57206 0.0
H900 H 0.96486 0.15967 0.58662 0.0
H901 H 0.06632 0.97877 0.51585 0.0
H902 H 0.06586 0.06818 0.50198 0.0
H903 H 0.00509 1.01071 0.50627 0.0
C904 C 0.24426 0.06815 0.79916 0.0
C905 C 0.29081 0.03892 0.7899 0.0
C906 C 0.22812 0.15655 0.80016 0.0
C907 C 0.26041 0.21806 0.79237 0.0
C908 C 0.30939 0.19049 0.7841 0.0
C909 C 0.32367 0.10078 0.78274 0.0
C910 C 0.17505 0.18307 0.80867 0.0
C911 C 0.34573 0.25403 0.77588 0.0
C912 C 0.19876 0.42985 0.77942 0.0
C913 C 0.20833 0.48752 0.79492 0.0
C914 C 0.21455 0.34074 0.7785 0.0
C915 C 0.24271 0.31124 0.79307 0.0
C916 C 0.25319 0.37042 0.80856 0.0
C917 C 0.23433 0.45717 0.80949 0.0
C918 C 0.20157 0.27843 0.76198 0.0
C919 C 0.28559 0.343 0.82393 0.0
H920 H 0.21851 0.02097 0.80472 0.0
H921 H 0.35969 0.07875 0.77554 0.0
H922 H 0.18087 0.23298 0.82047 0.0
H923 H 0.15001 0.21416 0.79897 0.0
H924 H 0.15314 0.12588 0.81307 0.0
H925 H 0.33455 0.25555 0.76164 0.0
H926 H 0.34268 0.32242 0.78276 0.0
H927 H 0.38798 0.23216 0.77618 0.0
H928 H 0.17914 0.45438 0.76814 0.0
H929 H 0.24175 0.50254 0.82145 0.0
H930 H 0.18089 0.21877 0.7658 0.0
H931 H 0.23898 0.25589 0.75497 0.0
H932 H 0.17592 0.31005 0.75249 0.0
H933 H 0.2631 0.29383 0.83078 0.0
H934 H 0.29557 0.40011 0.83397 0.0
H935 H 0.32328 0.31093 0.81884 0.0
C936 C 0.82683 0.61808 0.78585 0.0
C937 C 0.79431 0.55508 0.79278 0.0
C938 C 0.81088 0.70682 0.78668 0.0
C939 C 0.76069 0.73246 0.79428 0.0
C940 C 0.72852 0.66987 0.8018 0.0
C941 C 0.74623 0.58237 0.8013 0.0
C942 C 0.84681 0.7713 0.77856 0.0
C943 C 0.67392 0.69393 0.80936 0.0
C944 C 0.73378 0.97214 0.8108 0.0
C945 C 0.71059 1.00262 0.79574 0.0
C946 C 0.75126 0.88479 0.81034 0.0
C947 C 0.74223 0.82522 0.79478 0.0
C948 C 0.71636 0.85472 0.77977 0.0
C949 C 0.70197 0.94435 0.78026 0.0
C950 C 0.78067 0.85723 0.82634 0.0
C951 C 0.7046 0.79204 0.76319 0.0
H952 H 0.86393 0.59752 0.77917 0.0
H953 H 0.72064 0.5342 0.8066 0.0
H954 H 0.83568 0.77303 0.76433 0.0
H955 H 0.8431 0.83948 0.78551 0.0
H956 H 0.88921 0.75034 0.77887 0.0
H957 H 0.65348 0.63693 0.81442 0.0
H958 H 0.6768 0.74833 0.82048 0.0
H959 H 0.64891 0.71828 0.7988 0.0
H960 H 0.74012 0.01781 0.82278 0.0
H961 H 0.68427 0.96882 0.76863 0.0
H962 H 0.81773 0.82091 0.82198 0.0
H963 H 0.75543 0.81184 0.83327 0.0
H964 H 0.79144 0.91485 0.83614 0.0
H965 H 0.74248 0.77139 0.75628 0.0
H966 H 0.67871 0.82282 0.75364 0.0
H967 H 0.68477 0.73136 0.76687 0.0
C968 C 0.56195 0.67996 0.55564 0.0
C969 C 0.54039 0.73655 0.54403 0.0
C970 C 0.54607 0.59118 0.55465 0.0
C971 C 0.50814 0.5583 0.54165 0.0
C972 C 0.48842 0.61366 0.52927 0.0
C973 C 0.50483 0.70219 0.53061 0.0
C974 C 0.568 0.53382 0.56806 0.0
C975 C 0.44864 0.58032 0.51499 0.0
C976 C 0.50376 0.3114 0.52893 0.0
C977 C 0.45873 0.28712 0.53824 0.0
C978 C 0.52035 0.39932 0.53001 0.0
C979 C 0.49062 0.46489 0.54057 0.0
C980 C 0.44458 0.44103 0.54996 0.0
C981 C 0.42898 0.35158 0.54867 0.0
C982 C 0.56944 0.42195 0.51973 0.0
C983 C 0.41226 0.50975 0.56142 0.0
H984 H 0.58907 0.70602 0.56616 0.0
H985 H 0.48815 0.74543 0.52154 0.0
H986 H 0.53571 0.519 0.5774 0.0
H987 H 0.58242 0.4696 0.56124 0.0
H988 H 0.60129 0.56644 0.57602 0.0
H989 H 0.44063 0.62977 0.50554 0.0
H990 H 0.46336 0.51845 0.50725 0.0
H991 H 0.4104 0.56452 0.52138 0.0
H992 H 0.52584 0.26138 0.52055 0.0
H993 H 0.39394 0.33212 0.55573 0.0
H994 H 0.59906 0.45658 0.52897 0.0
H995 H 0.55852 0.46767 0.50983 0.0
H996 H 0.58876 0.36231 0.51251 0.0
H997 H 0.43754 0.54224 0.57237 0.0
H998 H 0.37674 0.48074 0.56742 0.0
H999 H 0.39874 0.56213 0.55333 0.0
C1000 C 0.43783 0.85133 0.05303 0.0
C1001 C 0.4557 0.78977 0.03909 0.0
C1002 C 0.45412 0.94014 0.05392 0.0
C1003 C 0.49003 0.96583 0.0408 0.0
C1004 C 0.509 0.90256 1.027 0.0
C1005 C 0.49087 0.81551 1.02617 0.0
C1006 C 0.43368 1.00512 0.06912 0.0
C1007 C 0.54896 0.92641 1.01324 0.0
C1008 C 0.49366 0.20526 1.03186 0.0
C1009 C 0.53633 0.23832 0.04269 0.0
C1010 C 0.4782 0.11655 1.03111 0.0
C1011 C 0.50695 0.05911 0.0411 0.0
C1012 C 0.55179 0.09063 0.05127 0.0
C1013 C 0.56606 0.18005 0.05194 0.0
C1014 C 0.43026 0.08512 1.02 0.0
C1015 C 0.58323 0.03082 0.06204 0.0
H1016 H 0.4112 0.83025 0.06312 0.0
H1017 H 0.50471 0.7669 1.01547 0.0
H1018 H 0.43084 0.07339 0.06536 0.0
H1019 H 0.39386 0.98501 0.07376 0.0
H1020 H 0.46159 1.00622 0.08058 0.0
H1021 H 0.56152 0.86797 1.00391 0.0
H1022 H 0.5316 0.97639 1.00529 0.0
H1023 H 0.58494 0.95638 1.02005 0.0
H1024 H 0.47055 0.24967 1.02459 0.0
H1025 H 0.59893 0.20499 0.06041 0.0
H1026 H 0.40379 0.04387 1.0275 0.0
H1027 H 0.44377 0.04333 1.00774 0.0
H1028 H 0.40659 0.14113 1.01587 0.0
H1029 H 0.55834 1.01281 0.07329 0.0
H1030 H 0.62027 0.06295 0.06766 0.0
H1031 H 0.59388 0.96842 0.05362 0.0
C1032 C 0.35774 0.28628 0.05688 0.0
C1033 C 0.35982 0.37867 0.05953 0.0
C1034 C 0.30927 0.24324 0.05266 0.0
C1035 C 0.26248 0.29447 0.05147 0.0
C1036 C 0.26418 0.38756 0.05525 0.0
C1037 C 0.31318 0.42876 0.05905 0.0
C1038 C 0.30869 0.14371 0.04847 0.0
C1039 C 0.21457 0.44356 0.05483 0.0
C1040 C 0.15276 0.19417 1.02132 0.0
C1041 C 0.12056 0.15709 1.0337 0.0
C1042 C 0.19911 0.24038 1.027 0.0
C1043 C 0.21216 0.251 0.04546 0.0
C1044 C 0.17797 0.21809 0.05809 0.0
C1045 C 0.13269 0.17067 0.05201 0.0
C1046 C 0.23516 0.27465 1.01321 0.0
C1047 C 0.19013 0.23005 0.07791 0.0
H1048 H 0.39427 0.24817 0.05709 0.0
H1049 H 0.31531 0.50047 0.06128 0.0
H1050 H 0.27528 0.11437 0.05548 0.0
H1051 H 0.30268 0.12606 1.03387 0.0
H1052 H 0.3465 0.11332 0.05236 0.0
H1053 H 0.22268 0.5151 0.05863 0.0
H1054 H 0.19684 0.43495 0.04123 0.0
H1055 H 0.18442 0.42154 0.0642 0.0
H1056 H 0.14314 0.18339 1.00718 0.0
H1057 H 0.10719 0.14283 0.06159 0.0
H1058 H 0.27487 0.24249 1.01345 0.0
H1059 H 0.24134 0.34696 1.01646 0.0
H1060 H 0.21875 0.26191 0.99944 0.0
H1061 H 0.22641 0.19184 0.08053 0.0
H1062 H 0.15684 0.20735 0.08604 0.0
H1063 H 0.19844 0.30068 0.08252 0.0
C1064 C 0.81333 0.92892 0.05878 0.0
C1065 C 0.85982 0.87839 0.05916 0.0
C1066 C 0.76418 0.8882 0.05501 0.0
C1067 C 0.76217 0.79516 0.05116 0.0
C1068 C 0.80883 0.74348 0.05223 0.0
C1069 C 0.85747 0.78604 0.05642 0.0
C1070 C 0.71472 0.94464 0.05474 0.0
C1071 C 0.80794 0.644 0.04795 0.0
C1072 C 0.63215 0.67231 0.05199 0.0
C1073 C 0.61964 0.65878 1.03371 0.0
C1074 C 0.67763 0.71941 0.05797 0.0
C1075 C 0.71161 0.75219 0.04526 0.0
C1076 C 0.69813 0.7418 1.02684 0.0
C1077 C 0.65162 0.69582 1.02127 0.0
C1078 C 0.69028 0.73106 0.07776 0.0
C1079 C 0.73393 0.77602 1.01298 0.0
H1080 H 0.8157 1.0006 0.06107 0.0
H1081 H 0.8939 0.74762 0.05656 0.0
H1082 H 0.6966 0.93612 0.04119 0.0
H1083 H 0.68477 0.92295 0.0642 0.0
H1084 H 0.72312 0.01612 0.0585 0.0
H1085 H 0.84574 0.6132 0.05173 0.0
H1086 H 0.77458 0.61475 0.05499 0.0
H1087 H 0.80166 0.62673 1.03335 0.0
H1088 H 0.60682 0.64454 0.06163 0.0
H1089 H 0.6417 0.68511 1.00715 0.0
H1090 H 0.69884 0.80159 0.08238 0.0
H1091 H 0.72654 0.69254 0.08026 0.0
H1092 H 0.65713 0.7085 0.08597 0.0
H1093 H 0.74041 0.84824 1.01626 0.0
H1094 H 0.71713 0.7637 0.99925 0.0
H1095 H 0.77354 0.74345 1.01307 0.0
C1096 C 0.09139 0.44194 0.27181 0.0
C1097 C 0.12583 0.41107 0.28428 0.0
C1098 C 0.04564 0.48983 0.27757 0.0
C1099 C 0.03567 0.50926 0.29618 0.0
C1100 C 0.07215 0.48261 0.30879 0.0
C1101 C 0.11644 0.43225 0.30266 0.0
C1102 C 0.00704 0.51689 0.26379 0.0
C1103 C 0.06378 0.50536 0.32871 0.0
C1104 C 0.93331 0.68823 0.30746 0.0
C1105 C 0.88768 0.63785 0.30978 0.0
C1106 C 0.98261 0.64741 0.30386 0.0
C1107 C 0.98575 0.55408 0.30234 0.0
C1108 C 0.94016 0.50307 0.30554 0.0
C1109 C 0.89138 0.54594 0.30939 0.0
C1110 C 0.03098 0.70415 0.30154 0.0
C1111 C 0.94214 0.40318 0.30382 0.0
H1112 H 0.09883 0.42491 0.2576 0.0
H1113 H 0.14367 0.40894 0.31227 0.0
H1114 H 0.96739 0.4868 0.2657 0.0
H1115 H 0.00174 0.58984 0.26555 0.0
H1116 H 0.02069 0.49625 0.24985 0.0
H1117 H 0.09836 0.48591 0.33661 0.0
H1118 H 0.05699 0.57758 0.33192 0.0
H1119 H 0.02775 0.47113 0.33304 0.0
H1120 H 0.93015 0.75972 0.30812 0.0
H1121 H 0.85575 0.50735 0.31112 0.0
H1122 H 0.05335 0.67953 0.28921 0.0
H1123 H 0.05798 0.70077 0.3131 0.0
H1124 H 0.02035 0.77466 0.3009 0.0
H1125 H 0.9472 0.37725 0.28949 0.0
H1126 H 0.90529 0.37444 0.30897 0.0
H1127 H 0.97669 0.37994 0.31117 0.0
C1128 C 0.33174 0.83723 0.56631 0.0
C1129 C 0.37139 0.85102 0.55386 0.0
C1130 C 0.28544 0.7904 0.56081 0.0
C1131 C 0.27998 0.75554 0.54258 0.0
C1132 C 0.32172 0.76479 0.53026 0.0
C1133 C 0.36684 0.81371 0.53604 0.0
C1134 C 0.24141 0.78195 0.57427 0.0
C1135 C 0.31791 0.72584 0.51088 0.0
C1136 C 0.17311 0.58258 0.53313 0.0
C1137 C 0.1311 0.63307 0.52737 0.0
C1138 C 0.22267 0.62094 0.53747 0.0
C1139 C 0.22971 0.71224 0.53633 0.0
C1140 C 0.18794 0.76304 0.52995 0.0
C1141 C 0.13893 0.7224 0.52538 0.0
C1142 C 0.26686 0.56448 0.54379 0.0
C1143 C 0.19433 0.86087 0.52867 0.0
H1144 H 0.33569 0.86716 0.58006 0.0
H1145 H 0.39808 0.82457 0.52655 0.0
H1146 H 0.23063 0.71135 0.57452 0.0
H1147 H 0.25282 0.81029 0.58803 0.0
H1148 H 0.20519 0.81673 0.57027 0.0
H1149 H 0.3551 0.7357 0.50329 0.0
H1150 H 0.30951 0.65383 0.51002 0.0
H1151 H 0.28434 0.7569 0.50431 0.0
H1152 H 0.16689 0.51306 0.5345 0.0
H1153 H 0.1061 0.76125 0.52107 0.0
H1154 H 0.27652 0.58713 0.55798 0.0
H1155 H 0.30365 0.57151 0.53584 0.0
H1156 H 0.25591 0.49325 0.54271 0.0
H1157 H 0.20038 0.89641 0.54227 0.0
H1158 H 0.15904 0.88958 0.52254 0.0
H1159 H 0.23013 0.87296 0.5206 0.0
C1160 C 0.85227 0.30455 0.56097 0.0
C1161 C 0.85693 0.39513 0.55951 0.0
C1162 C 0.80392 0.26065 0.55696 0.0
C1163 C 0.75963 0.30919 0.55164 0.0
C1164 C 0.76332 0.40165 0.5513 0.0
C1165 C 0.81222 0.44348 0.5551 0.0
C1166 C 0.80105 0.16177 0.55748 0.0
C1167 C 0.71632 0.45573 0.54623 0.0
C1168 C 0.66001 0.1826 0.52096 0.0
C1169 C 0.62205 0.16042 0.53332 0.0
C1170 C 0.70496 0.23234 0.52676 0.0
C1171 C 0.71065 0.26221 0.54523 0.0
C1172 C 0.67056 0.2445 0.55757 0.0
C1173 C 0.62693 0.19253 0.55147 0.0
C1174 C 0.74741 0.24952 0.51329 0.0
C1175 C 0.67449 0.27814 0.57724 0.0
H1176 H 0.88696 0.2673 0.56436 0.0
H1177 H 0.8158 0.51398 0.55425 0.0
H1178 H 0.76558 0.14416 0.56517 0.0
H1179 H 0.7968 0.12828 0.54363 0.0
H1180 H 0.83713 0.13557 0.5636 0.0
H1181 H 0.7239 0.52807 0.54884 0.0
H1182 H 0.70749 0.43916 0.53177 0.0
H1183 H 0.6802 0.43974 0.55378 0.0
H1184 H 0.65591 0.15728 0.50693 0.0
H1185 H 0.59684 0.17607 0.56093 0.0
H1186 H 0.78548 0.21838 0.51675 0.0
H1187 H 0.75474 0.32166 0.51369 0.0
H1188 H 0.73633 0.22294 0.49939 0.0
H1189 H 0.70896 0.2468 0.58326 0.0
H1190 H 0.6379 0.26385 0.58477 0.0
H1191 H 0.68145 0.35071 0.57896 0.0
C1192 C 0.89172 0.04698 0.81098 0.0
C1193 C 0.88844 0.13858 0.81074 0.0
C1194 C 0.94038 1.00316 0.80744 0.0
C1195 C 0.98613 0.05291 0.80383 0.0
C1196 C 0.98355 0.14619 0.805 0.0
C1197 C 0.93448 0.18797 0.80838 0.0
C1198 C 0.94203 0.90343 0.80629 0.0
C1199 C 0.03216 0.20174 0.80231 0.0
C1200 C 0.11613 0.9281 0.80235 0.0
C1201 C 0.12302 0.90629 0.78384 0.0
C1202 C 0.07296 0.9796 0.80911 0.0
C1203 C 0.03499 1.00671 0.79703 0.0
C1204 C 0.04244 0.98666 0.77829 0.0
C1205 C 0.08714 0.93764 0.77188 0.0
C1206 C 0.06745 1.00314 0.82912 0.0
C1207 C 0.00227 0.0144 0.76506 0.0
H1208 H 0.85587 1.0092 0.81284 0.0
H1209 H 0.93173 0.25935 0.80867 0.0
H1210 H 0.94859 0.87555 0.79214 0.0
H1211 H 0.97572 0.88135 0.81419 0.0
H1212 H 0.90458 0.87561 0.81121 0.0
H1213 H 0.02199 0.27237 0.80159 0.0
H1214 H 0.05964 0.19831 0.81374 0.0
H1215 H 0.05377 0.17609 0.78988 0.0
H1216 H 0.14445 0.90444 0.81157 0.0
H1217 H 0.09263 0.92019 0.75759 0.0
H1218 H 0.03312 0.9672 0.83417 0.0
H1219 H 0.05951 0.07502 0.83234 0.0
H1220 H 0.10378 0.98595 0.83643 0.0
H1221 H 0.96265 0.98576 0.76764 0.0
H1222 H 0.01387 0.99277 0.75095 0.0
H1223 H -0.0021 0.08752 0.76677 0.0
C1224 C 0.61994 0.43952 0.80207 0.0
C1225 C 0.63087 0.4218 0.78371 0.0
C1226 C 0.57428 0.48618 0.80815 0.0
C1227 C 0.53808 0.51291 0.79548 0.0
C1228 C 0.54979 0.49784 0.7769 0.0
C1229 C 0.59682 0.45336 0.77122 0.0
C1230 C 0.56387 0.50378 0.82806 0.0
C1231 C 0.51156 0.52525 0.76305 0.0
C1232 C 0.39197 0.53784 0.80723 0.0
C1233 C 0.3864 0.62967 0.80825 0.0
C1234 C 0.442 0.4986 0.80373 0.0
C1235 C 0.48678 0.55326 0.80151 0.0
C1236 C 0.48163 0.64637 0.80385 0.0
C1237 C 0.43119 0.68353 0.80708 0.0
C1238 C 0.4461 0.39886 0.8012 0.0
C1239 C 0.52899 0.70663 0.80255 0.0
H1240 H 0.64678 0.41555 0.81172 0.0
H1241 H 0.60539 0.4389 0.75703 0.0
H1242 H 0.55383 0.57457 0.83184 0.0
H1243 H 0.52918 0.46415 0.8317 0.0
H1244 H 0.59873 0.48662 0.83609 0.0
H1245 H 0.5269 0.5092 0.74917 0.0
H1246 H 0.47274 0.49119 0.76419 0.0
H1247 H 0.50392 0.59753 0.76547 0.0
H1248 H 0.35692 0.49668 0.80806 0.0
H1249 H 0.42644 0.75489 0.80821 0.0
H1250 H 0.48182 0.37588 0.808 0.0
H1251 H 0.45018 0.37596 0.78669 0.0
H1252 H 0.41035 0.36707 0.80641 0.0
H1253 H 0.55686 0.69847 0.81367 0.0
H1254 H 0.51732 0.7775 0.80341 0.0
H1255 H 0.55085 0.68874 0.78979 0.0
C1256 C 0.5904 0.94175 0.27204 0.0
C1257 C 0.62539 0.90951 0.28417 0.0
C1258 C 0.54475 0.98883 0.27823 0.0
C1259 C 0.53548 1.00609 0.29693 0.0
C1260 C 0.57263 0.97841 0.30921 0.0
C1261 C 0.61674 0.92879 0.30264 0.0
C1262 C 0.50549 0.01726 0.26479 0.0
C1263 C 0.56509 0.99886 0.32921 0.0
C1264 C 0.43226 0.18275 0.30864 0.0
C1265 C 0.38672 0.13133 0.31041 0.0
C1266 C 0.48194 0.14298 0.30529 0.0
C1267 C 0.48557 0.04968 0.30348 0.0
C1268 C 0.44017 0.99767 0.30641 0.0
C1269 C 0.39092 0.0395 0.30999 0.0
C1270 C 0.53009 0.20068 0.30331 0.0
C1271 C 0.44279 0.89783 0.30449 0.0
H1272 H 0.59729 0.92624 0.25777 0.0
H1273 H 0.64432 0.90439 0.31199 0.0
H1274 H 0.46603 0.98657 0.26672 0.0
H1275 H 0.50001 0.09014 0.26692 0.0
H1276 H 0.51864 0.9983 0.25074 0.0
H1277 H 0.60072 0.98095 0.3368 0.0
H1278 H 0.55663 0.07037 0.33277 0.0
H1279 H 0.53035 0.96163 0.33361 0.0
H1280 H 0.42867 0.25421 0.30938 0.0
H1281 H 0.35536 1.0002 0.31133 0.0
H1282 H 0.55221 0.17828 0.2908 0.0
H1283 H 0.55738 0.19536 0.31471 0.0
H1284 H 0.51927 0.2715 0.3032 0.0
H1285 H 0.44842 0.87271 0.29014 0.0
H1286 H 0.40598 0.86815 0.30946 0.0
H1287 H 0.47729 0.87486 0.31191 0.0
loop_
_geom_bond_atom_site_label_1
_geom_bond_atom_site_label_2
_geom_bond_distance
_geom_bond_site_symmetry_2
_ccdc_geom_bond_type
Co0 O3 2.044 1_455 S
Co0 O10 2.264 1_455 S
Co0 O29 2.286 . S
Co0 O30 2.069 1_545 S
Co0 O32 2.015 . S
Co1 O3 2.130 . S
Co1 O9 2.073 . S
Co1 O10 2.327 . S
Co1 O11 1.976 . S
Co2 O3 2.087 1_454 S
Co2 O5 2.087 . S
Co2 O12 2.120 1_455 S
Co2 O13 2.140 1_445 S
Co2 O17 2.103 1_545 S
Co2 O31 2.147 . S
O3 Co0 2.044 1_655 S
O3 Co1 2.130 . S
O3 Co2 2.087 1_656 S
O3 H4 0.972 1_545 S
H4 O3 0.972 1_565 S
O5 Co2 2.087 . S
O5 Co6 2.041 1_445 S
O5 Co7 2.116 1_545 S
O5 H8 0.987 . S
Co6 O5 2.041 1_665 S
Co6 O14 2.286 . S
Co6 O15 2.069 1_565 S
Co6 O16 2.015 . S
Co6 O19 2.264 1_655 S
Co7 O5 2.116 1_565 S
Co7 O18 1.976 . S
Co7 O19 2.327 . S
Co7 O20 2.073 . S
H8 O5 0.987 . S
O9 Co1 2.073 . S
O9 C24 1.245 . S
O10 Co0 2.264 1_655 S
O10 Co1 2.327 . S
O10 C24 1.257 . S
O11 Co1 1.976 . S
O11 C23 1.251 1_556 S
O12 Co2 2.120 1_655 S
O12 C23 1.274 . S
O13 Co2 2.140 1_665 S
O13 C26 1.246 . S
O14 Co6 2.286 . S
O14 C25 1.259 1_565 S
O15 Co6 2.069 1_545 S
O15 C25 1.289 . S
O16 Co6 2.015 . S
O16 C26 1.257 . S
O17 Co2 2.103 1_565 S
O17 C27 1.274 . S
O18 Co7 1.976 . S
O18 C27 1.251 . S
O19 Co6 2.264 1_455 S
O19 Co7 2.327 . S
O19 C28 1.257 . S
O20 Co7 2.073 . S
O20 C28 1.245 . S
C21 O29 1.259 1_565 S
C21 O30 1.289 . S
C22 O31 1.246 1_556 S
C22 O32 1.257 . S
C23 O11 1.251 1_554 S
C23 O12 1.274 . S
C24 O9 1.245 . S
C24 O10 1.257 . S
C25 O14 1.259 1_545 S
C25 O15 1.289 . S
C26 O13 1.246 . S
C26 O16 1.257 . S
C27 O17 1.274 . S
C27 O18 1.251 . S
C28 O19 1.257 . S
C28 O20 1.245 . S
O29 Co0 2.286 . S
O29 C21 1.259 1_545 S
O30 Co0 2.069 1_565 S
O30 C21 1.289 . S
O31 Co2 2.147 . S
O31 C22 1.246 1_554 S
O32 Co0 2.015 . S
O32 C22 1.257 . S
Co33 O36 2.042 . S
Co33 O43 2.264 . S
Co33 O62 2.286 . S
Co33 O63 2.069 . S
Co33 O65 2.015 . S
Co34 O36 2.122 . S
Co34 O42 2.073 . S
Co34 O43 2.327 . S
Co34 O44 1.976 . S
Co35 O36 2.087 . S
Co35 O38 2.087 . S
Co35 O45 2.111 . S
Co35 O46 2.143 . S
Co35 O50 2.111 . S
Co35 O64 2.143 . S
O36 Co33 2.042 . S
O36 Co34 2.122 . S
O36 Co35 2.087 . S
O36 H37 0.980 . S
H37 O36 0.980 . S
O38 Co35 2.087 . S
O38 Co39 2.042 . S
O38 Co40 2.122 . S
O38 H41 0.980 . S
Co39 O38 2.042 . S
Co39 O47 2.286 . S
Co39 O48 2.069 . S
Co39 O49 2.015 . S
Co39 O52 2.264 . S
Co40 O38 2.122 . S
Co40 O51 1.976 . S
Co40 O52 2.327 . S
Co40 O53 2.073 . S
H41 O38 0.980 . S
O42 Co34 2.073 . S
O42 C57 1.245 . S
O43 Co33 2.264 . S
O43 Co34 2.327 . S
O43 C57 1.257 . S
O44 Co34 1.976 . S
O44 C56 1.251 . S
O45 Co35 2.111 . S
O45 C56 1.274 . S
O46 Co35 2.143 . S
O46 C59 1.246 . S
O47 Co39 2.286 . S
O47 C58 1.259 . S
O48 Co39 2.069 . S
O48 C58 1.289 . S
O49 Co39 2.015 . S
O49 C59 1.257 . S
O50 Co35 2.111 . S
O50 C60 1.274 . S
O51 Co40 1.976 . S
O51 C60 1.251 . S
O52 Co39 2.264 . S
O52 Co40 2.327 . S
O52 C61 1.257 . S
O53 Co40 2.073 . S
O53 C61 1.245 . S
C54 O62 1.259 . S
C54 O63 1.289 . S
C55 O64 1.246 . S
C55 O65 1.257 . S
C56 O44 1.251 . S
C56 O45 1.274 . S
C57 O42 1.245 . S
C57 O43 1.257 . S
C58 O47 1.259 . S
C58 O48 1.289 . S
C59 O46 1.246 . S
C59 O49 1.257 . S
C60 O50 1.274 . S
C60 O51 1.251 . S
C61 O52 1.257 . S
C61 O53 1.245 . S
O62 Co33 2.286 . S
O62 C54 1.259 . S
O63 Co33 2.069 . S
O63 C54 1.289 . S
O64 Co35 2.143 . S
O64 C55 1.246 . S
O65 Co33 2.015 . S
O65 C55 1.257 . S
Co66 O69 2.042 . S
Co66 O76 2.264 . S
Co66 O95 2.286 . S
Co66 O96 2.069 . S
Co66 O98 2.015 . S
Co67 O69 2.122 . S
Co67 O75 2.073 . S
Co67 O76 2.327 . S
Co67 O77 1.976 . S
Co68 O69 2.087 . S
Co68 O71 2.087 . S
Co68 O78 2.111 . S
Co68 O79 2.143 . S
Co68 O83 2.111 . S
Co68 O97 2.143 . S
O69 Co66 2.042 . S
O69 Co67 2.122 . S
O69 Co68 2.087 . S
O69 H70 0.980 . S
H70 O69 0.980 . S
O71 Co68 2.087 . S
O71 Co72 2.042 . S
O71 Co73 2.122 . S
O71 H74 0.980 . S
Co72 O71 2.042 . S
Co72 O80 2.286 . S
Co72 O81 2.069 . S
Co72 O82 2.015 . S
Co72 O85 2.264 . S
Co73 O71 2.122 . S
Co73 O84 1.976 . S
Co73 O85 2.327 . S
Co73 O86 2.073 . S
H74 O71 0.980 . S
O75 Co67 2.073 . S
O75 C90 1.245 . S
O76 Co66 2.264 . S
O76 Co67 2.327 . S
O76 C90 1.257 . S
O77 Co67 1.976 . S
O77 C89 1.251 . S
O78 Co68 2.111 . S
O78 C89 1.274 . S
O79 Co68 2.143 . S
O79 C92 1.246 . S
O80 Co72 2.286 . S
O80 C91 1.259 . S
O81 Co72 2.069 . S
O81 C91 1.289 . S
O82 Co72 2.015 . S
O82 C92 1.257 . S
O83 Co68 2.111 . S
O83 C93 1.274 . S
O84 Co73 1.976 . S
O84 C93 1.251 . S
O85 Co72 2.264 . S
O85 Co73 2.327 . S
O85 C94 1.257 . S
O86 Co73 2.073 . S
O86 C94 1.245 . S
C87 O95 1.259 . S
C87 O96 1.289 . S
C88 O97 1.246 . S
C88 O98 1.257 . S
C89 O77 1.251 . S
C89 O78 1.274 . S
C90 O75 1.245 . S
C90 O76 1.257 . S
C91 O80 1.259 . S
C91 O81 1.289 . S
C92 O79 1.246 . S
C92 O82 1.257 . S
C93 O83 1.274 . S
C93 O84 1.251 . S
C94 O85 1.257 . S
C94 O86 1.245 . S
O95 Co66 2.286 . S
O95 C87 1.259 . S
O96 Co66 2.069 . S
O96 C87 1.289 . S
O97 Co68 2.143 . S
O97 C88 1.246 . S
O98 Co66 2.015 . S
O98 C88 1.257 . S
Co99 O102 2.042 1_455 S
Co99 O109 2.264 1_455 S
Co99 O128 2.286 . S
Co99 O129 2.069 . S
Co99 O131 2.015 . S
Co100 O102 2.122 . S
Co100 O108 2.073 . S
Co100 O109 2.327 . S
Co100 O110 1.976 . S
Co101 O102 2.087 1_455 S
Co101 O104 2.087 . S
Co101 O111 2.111 1_455 S
Co101 O112 2.143 1_455 S
Co101 O116 2.111 . S
Co101 O130 2.143 . S
O102 Co99 2.042 1_655 S
O102 Co100 2.122 . S
O102 Co101 2.087 1_655 S
O102 H103 0.980 . S
H103 O102 0.980 . S
O104 Co101 2.087 . S
O104 Co105 2.042 1_455 S
O104 Co106 2.122 . S
O104 H107 0.980 . S
Co105 O104 2.042 1_655 S
Co105 O113 2.286 . S
Co105 O114 2.069 . S
Co105 O115 2.015 . S
Co105 O118 2.264 1_655 S
Co106 O104 2.122 . S
Co106 O117 1.976 . S
Co106 O118 2.327 . S
Co106 O119 2.073 . S
H107 O104 0.980 . S
O108 Co100 2.073 . S
O108 C123 1.245 . S
O109 Co99 2.264 1_655 S
O109 Co100 2.327 . S
O109 C123 1.257 . S
O110 Co100 1.976 . S
O110 C122 1.251 . S
O111 Co101 2.111 1_655 S
O111 C122 1.274 . S
O112 Co101 2.143 1_655 S
O112 C125 1.246 . S
O113 Co105 2.286 . S
O113 C124 1.259 . S
O114 Co105 2.069 . S
O114 C124 1.289 . S
O115 Co105 2.015 . S
O115 C125 1.257 . S
O116 Co101 2.111 . S
O116 C126 1.274 . S
O117 Co106 1.976 . S
O117 C126 1.251 . S
O118 Co105 2.264 1_455 S
O118 Co106 2.327 . S
O118 C127 1.257 . S
O119 Co106 2.073 . S
O119 C127 1.245 . S
C120 O128 1.259 . S
C120 O129 1.289 . S
C121 O130 1.246 . S
C121 O131 1.257 . S
C122 O110 1.251 . S
C122 O111 1.274 . S
C123 O108 1.245 . S
C123 O109 1.257 . S
C124 O113 1.259 . S
C124 O114 1.289 . S
C125 O112 1.246 . S
C125 O115 1.257 . S
C126 O116 1.274 . S
C126 O117 1.251 . S
C127 O118 1.257 . S
C127 O119 1.245 . S
O128 Co99 2.286 . S
O128 C120 1.259 . S
O129 Co99 2.069 . S
O129 C120 1.289 . S
O130 Co101 2.143 . S
O130 C121 1.246 . S
O131 Co99 2.015 . S
O131 C121 1.257 . S
Co132 O135 2.042 . S
Co132 O142 2.264 . S
Co132 O161 2.286 . S
Co132 O162 2.069 . S
Co132 O164 2.015 . S
Co133 O135 2.122 . S
Co133 O141 2.073 . S
Co133 O142 2.327 . S
Co133 O143 1.976 . S
Co134 O135 2.087 . S
Co134 O137 2.087 . S
Co134 O144 2.111 . S
Co134 O145 2.143 . S
Co134 O149 2.111 . S
Co134 O163 2.143 . S
O135 Co132 2.042 . S
O135 Co133 2.122 . S
O135 Co134 2.087 . S
O135 H136 0.980 . S
H136 O135 0.980 . S
O137 Co134 2.087 . S
O137 Co138 2.042 . S
O137 Co139 2.122 . S
O137 H140 0.980 . S
Co138 O137 2.042 . S
Co138 O146 2.286 . S
Co138 O147 2.069 . S
Co138 O148 2.015 . S
Co138 O151 2.264 . S
Co139 O137 2.122 . S
Co139 O150 1.976 . S
Co139 O151 2.327 . S
Co139 O152 2.073 . S
H140 O137 0.980 . S
O141 Co133 2.073 . S
O141 C156 1.245 . S
O142 Co132 2.264 . S
O142 Co133 2.327 . S
O142 C156 1.257 . S
O143 Co133 1.976 . S
O143 C155 1.251 . S
O144 Co134 2.111 . S
O144 C155 1.274 . S
O145 Co134 2.143 . S
O145 C158 1.246 . S
O146 Co138 2.286 . S
O146 C157 1.259 . S
O147 Co138 2.069 . S
O147 C157 1.289 . S
O148 Co138 2.015 . S
O148 C158 1.257 . S
O149 Co134 2.111 . S
O149 C159 1.274 . S
O150 Co139 1.976 . S
O150 C159 1.251 . S
O151 Co138 2.264 . S
O151 Co139 2.327 . S
O151 C160 1.257 . S
O152 Co139 2.073 . S
O152 C160 1.245 . S
C153 O161 1.259 . S
C153 O162 1.289 . S
C154 O163 1.246 . S
C154 O164 1.257 . S
C155 O143 1.251 . S
C155 O144 1.274 . S
C156 O141 1.245 . S
C156 O142 1.257 . S
C157 O146 1.259 . S
C157 O147 1.289 . S
C158 O145 1.246 . S
C158 O148 1.257 . S
C159 O149 1.274 . S
C159 O150 1.251 . S
C160 O151 1.257 . S
C160 O152 1.245 . S
O161 Co132 2.286 . S
O161 C153 1.259 . S
O162 Co132 2.069 . S
O162 C153 1.289 . S
O163 Co134 2.143 . S
O163 C154 1.246 . S
O164 Co132 2.015 . S
O164 C154 1.257 . S
Co165 O168 2.042 . S
Co165 O175 2.264 . S
Co165 O194 2.286 . S
Co165 O195 2.069 . S
Co165 O197 2.015 . S
Co166 O168 2.122 . S
Co166 O174 2.073 . S
Co166 O175 2.327 . S
Co166 O176 1.976 . S
Co167 O168 2.087 . S
Co167 O170 2.087 . S
Co167 O177 2.111 . S
Co167 O178 2.143 . S
Co167 O182 2.111 . S
Co167 O196 2.143 . S
O168 Co165 2.042 . S
O168 Co166 2.122 . S
O168 Co167 2.087 . S
O168 H169 0.980 . S
H169 O168 0.980 . S
O170 Co167 2.087 . S
O170 Co171 2.042 . S
O170 Co172 2.122 . S
O170 H173 0.980 . S
Co171 O170 2.042 . S
Co171 O179 2.286 . S
Co171 O180 2.069 . S
Co171 O181 2.015 . S
Co171 O184 2.264 . S
Co172 O170 2.122 . S
Co172 O183 1.976 . S
Co172 O184 2.327 . S
Co172 O185 2.073 . S
H173 O170 0.980 . S
O174 Co166 2.073 . S
O174 C189 1.245 . S
O175 Co165 2.264 . S
O175 Co166 2.327 . S
O175 C189 1.257 . S
O176 Co166 1.976 . S
O176 C188 1.251 . S
O177 Co167 2.111 . S
O177 C188 1.274 . S
O178 Co167 2.143 . S
O178 C191 1.246 . S
O179 Co171 2.286 . S
O179 C190 1.259 . S
O180 Co171 2.069 . S
O180 C190 1.289 . S
O181 Co171 2.015 . S
O181 C191 1.257 . S
O182 Co167 2.111 . S
O182 C192 1.274 . S
O183 Co172 1.976 . S
O183 C192 1.251 . S
O184 Co171 2.264 . S
O184 Co172 2.327 . S
O184 C193 1.257 . S
O185 Co172 2.073 . S
O185 C193 1.245 . S
C186 O194 1.259 . S
C186 O195 1.289 . S
C187 O196 1.246 . S
C187 O197 1.257 . S
C188 O176 1.251 . S
C188 O177 1.274 . S
C189 O174 1.245 . S
C189 O175 1.257 . S
C190 O179 1.259 . S
C190 O180 1.289 . S
C191 O178 1.246 . S
C191 O181 1.257 . S
C192 O182 1.274 . S
C192 O183 1.251 . S
C193 O184 1.257 . S
C193 O185 1.245 . S
O194 Co165 2.286 . S
O194 C186 1.259 . S
O195 Co165 2.069 . S
O195 C186 1.289 . S
O196 Co167 2.143 . S
O196 C187 1.246 . S
O197 Co165 2.015 . S
O197 C187 1.257 . S
Co198 O201 2.044 . S
Co198 O208 2.264 . S
Co198 O227 2.286 . S
Co198 O228 2.069 1_545 S
Co198 O230 2.015 . S
Co199 O201 2.129 . S
Co199 O207 2.073 . S
Co199 O208 2.327 . S
Co199 O209 1.976 . S
Co200 O201 2.087 . S
Co200 O203 2.087 . S
Co200 O210 2.119 . S
Co200 O211 2.140 1_545 S
Co200 O215 2.104 1_545 S
Co200 O229 2.147 . S
O201 Co198 2.044 . S
O201 Co199 2.129 . S
O201 Co200 2.087 . S
O201 H202 0.972 1_545 S
H202 O201 0.972 1_565 S
O203 Co200 2.087 . S
O203 Co204 2.041 1_545 S
O203 Co205 2.117 1_545 S
O203 H206 0.986 . S
Co204 O203 2.041 1_565 S
Co204 O212 2.286 . S
Co204 O213 2.069 1_565 S
Co204 O214 2.015 . S
Co204 O217 2.264 . S
Co205 O203 2.117 1_565 S
Co205 O216 1.976 . S
Co205 O217 2.327 . S
Co205 O218 2.073 . S
H206 O203 0.986 . S
O207 Co199 2.073 . S
O207 C222 1.245 . S
O208 Co198 2.264 . S
O208 Co199 2.327 . S
O208 C222 1.257 . S
O209 Co199 1.976 . S
O209 C221 1.251 . S
O210 Co200 2.119 . S
O210 C221 1.274 . S
O211 Co200 2.140 1_565 S
O211 C224 1.246 . S
O212 Co204 2.286 . S
O212 C223 1.259 1_565 S
O213 Co204 2.069 1_545 S
O213 C223 1.289 . S
O214 Co204 2.015 . S
O214 C224 1.257 . S
O215 Co200 2.104 1_565 S
O215 C225 1.274 . S
O216 Co205 1.976 . S
O216 C225 1.251 . S
O217 Co204 2.264 . S
O217 Co205 2.327 . S
O217 C226 1.257 . S
O218 Co205 2.073 . S
O218 C226 1.245 . S
C219 O227 1.259 1_565 S
C219 O228 1.289 . S
C220 O229 1.246 . S
C220 O230 1.257 . S
C221 O209 1.251 . S
C221 O210 1.274 . S
C222 O207 1.245 . S
C222 O208 1.257 . S
C223 O212 1.259 1_545 S
C223 O213 1.289 . S
C224 O211 1.246 . S
C224 O214 1.257 . S
C225 O215 1.274 . S
C225 O216 1.251 . S
C226 O217 1.257 . S
C226 O218 1.245 . S
O227 Co198 2.286 . S
O227 C219 1.259 1_545 S
O228 Co198 2.069 1_565 S
O228 C219 1.289 . S
O229 Co200 2.147 . S
O229 C220 1.246 . S
O230 Co198 2.015 . S
O230 C220 1.257 . S
Co231 O234 2.042 . S
Co231 O241 2.264 . S
Co231 O260 2.286 . S
Co231 O261 2.069 . S
Co231 O263 2.015 . S
Co232 O234 2.122 . S
Co232 O240 2.073 . S
Co232 O241 2.327 . S
Co232 O242 1.976 . S
Co233 O234 2.087 1_554 S
Co233 O236 2.087 . S
Co233 O243 2.111 . S
Co233 O244 2.143 . S
Co233 O248 2.111 . S
Co233 O262 2.143 . S
O234 Co231 2.042 . S
O234 Co232 2.122 . S
O234 Co233 2.087 1_556 S
O234 H235 0.980 . S
H235 O234 0.980 . S
O236 Co233 2.087 . S
O236 Co237 2.042 . S
O236 Co238 2.122 . S
O236 H239 0.980 . S
Co237 O236 2.042 . S
Co237 O245 2.286 . S
Co237 O246 2.069 . S
Co237 O247 2.015 . S
Co237 O250 2.264 . S
Co238 O236 2.122 . S
Co238 O249 1.976 . S
Co238 O250 2.327 . S
Co238 O251 2.073 . S
H239 O236 0.980 . S
O240 Co232 2.073 . S
O240 C255 1.245 . S
O241 Co231 2.264 . S
O241 Co232 2.327 . S
O241 C255 1.257 . S
O242 Co232 1.976 . S
O242 C254 1.251 1_556 S
O243 Co233 2.111 . S
O243 C254 1.274 . S
O244 Co233 2.143 . S
O244 C257 1.246 . S
O245 Co237 2.286 . S
O245 C256 1.259 . S
O246 Co237 2.069 . S
O246 C256 1.289 . S
O247 Co237 2.015 . S
O247 C257 1.257 . S
O248 Co233 2.111 . S
O248 C258 1.274 . S
O249 Co238 1.976 . S
O249 C258 1.251 . S
O250 Co237 2.264 . S
O250 Co238 2.327 . S
O250 C259 1.257 . S
O251 Co238 2.073 . S
O251 C259 1.245 . S
C252 O260 1.259 . S
C252 O261 1.289 . S
C253 O262 1.246 1_556 S
C253 O263 1.257 . S
C254 O242 1.251 1_554 S
C254 O243 1.274 . S
C255 O240 1.245 . S
C255 O241 1.257 . S
C256 O245 1.259 . S
C256 O246 1.289 . S
C257 O244 1.246 . S
C257 O247 1.257 . S
C258 O248 1.274 . S
C258 O249 1.251 . S
C259 O250 1.257 . S
C259 O251 1.245 . S
O260 Co231 2.286 . S
O260 C252 1.259 . S
O261 Co231 2.069 . S
O261 C252 1.289 . S
O262 Co233 2.143 . S
O262 C253 1.246 1_554 S
O263 Co231 2.015 . S
O263 C253 1.257 . S
C264 C265 1.391 . S
C264 C266 1.394 . S
C264 H280 0.931 . S
C265 C264 1.391 . S
C265 C269 1.376 1_565 S
C266 C264 1.394 . S
C266 C267 1.369 1_565 S
C266 C270 1.531 . S
C267 C266 1.369 1_545 S
C267 C268 1.410 . S
C267 C275 1.503 . S
C268 C267 1.410 . S
C268 C269 1.392 . S
C268 C271 1.511 . S
C269 C265 1.376 1_545 S
C269 C268 1.392 . S
C269 H281 0.929 . S
C270 C266 1.531 . S
C270 H282 0.960 . S
C270 H283 0.962 . S
C270 H284 0.960 . S
C271 C268 1.511 . S
C271 H285 0.961 . S
C271 H286 0.961 . S
C271 H287 0.961 . S
C272 C273 1.370 . S
C272 C274 1.363 . S
C272 H288 0.931 . S
C273 C272 1.370 . S
C273 C277 1.408 . S
C274 C272 1.363 . S
C274 C275 1.370 . S
C274 C278 1.524 . S
C275 C267 1.503 . S
C275 C274 1.370 . S
C275 C276 1.403 . S
C276 C275 1.403 . S
C276 C277 1.404 . S
C276 C279 1.539 . S
C277 C273 1.408 . S
C277 C276 1.404 . S
C277 H289 0.930 . S
C278 C274 1.524 . S
C278 H290 0.956 . S
C278 H291 0.961 . S
C278 H292 0.961 . S
C279 C276 1.539 . S
C279 H293 0.958 1_545 S
C279 H294 0.961 . S
C279 H295 0.960 . S
H280 C264 0.931 . S
H281 C269 0.929 . S
H282 C270 0.960 . S
H283 C270 0.962 . S
H284 C270 0.960 . S
H285 C271 0.961 . S
H286 C271 0.961 . S
H287 C271 0.961 . S
H288 C272 0.931 . S
H289 C277 0.930 . S
H290 C278 0.956 . S
H291 C278 0.961 . S
H292 C278 0.961 . S
H293 C279 0.958 1_565 S
H294 C279 0.961 . S
H295 C279 0.960 . S
C296 C297 1.391 1_565 S
C296 C298 1.394 . S
C296 H312 0.931 . S
C297 C296 1.391 1_545 S
C297 C301 1.376 . S
C298 C296 1.394 . S
C298 C299 1.369 . S
C298 C302 1.531 . S
C299 C298 1.369 . S
C299 C300 1.410 . S
C299 C307 1.503 . S
C300 C299 1.410 . S
C300 C301 1.392 1_565 S
C300 C303 1.511 . S
C301 C297 1.376 . S
C301 C300 1.392 1_545 S
C301 H313 0.929 . S
C302 C298 1.531 . S
C302 H314 0.960 . S
C302 H315 0.962 . S
C302 H316 0.960 . S
C303 C300 1.511 . S
C303 H317 0.961 1_565 S
C303 H318 0.961 . S
C303 H319 0.961 . S
C304 C305 1.370 . S
C304 C306 1.363 . S
C304 H320 0.931 . S
C305 C304 1.370 . S
C305 C309 1.408 . S
C306 C304 1.363 . S
C306 C307 1.370 . S
C306 C310 1.524 1_565 S
C307 C299 1.503 . S
C307 C306 1.370 . S
C307 C308 1.403 . S
C308 C307 1.403 . S
C308 C309 1.404 . S
C308 C311 1.539 . S
C309 C305 1.408 . S
C309 C308 1.404 . S
C309 H321 0.930 . S
C310 C306 1.524 1_545 S
C310 H322 0.956 . S
C310 H323 0.961 . S
C310 H324 0.961 . S
C311 C308 1.539 . S
C311 H325 0.958 . S
C311 H326 0.961 . S
C311 H327 0.960 . S
H312 C296 0.931 . S
H313 C301 0.929 . S
H314 C302 0.960 . S
H315 C302 0.962 . S
H316 C302 0.960 . S
H317 C303 0.961 1_545 S
H318 C303 0.961 . S
H319 C303 0.961 . S
H320 C304 0.931 . S
H321 C309 0.930 . S
H322 C310 0.956 . S
H323 C310 0.961 . S
H324 C310 0.961 . S
H325 C311 0.958 . S
H326 C311 0.961 . S
H327 C311 0.960 . S
C328 C329 1.391 . S
C328 C330 1.394 . S
C328 H344 0.931 . S
C329 C328 1.391 . S
C329 C333 1.376 . S
C330 C328 1.394 . S
C330 C331 1.369 . S
C330 C334 1.531 . S
C331 C330 1.369 . S
C331 C332 1.410 . S
C331 C339 1.503 . S
C332 C331 1.410 . S
C332 C333 1.392 . S
C332 C335 1.511 . S
C333 C329 1.376 . S
C333 C332 1.392 . S
C333 H345 0.929 . S
C334 C330 1.531 . S
C334 H346 0.960 . S
C334 H347 0.962 . S
C334 H348 0.960 . S
C335 C332 1.511 . S
C335 H349 0.961 . S
C335 H350 0.961 . S
C335 H351 0.961 . S
C336 C337 1.370 . S
C336 C338 1.363 . S
C336 H352 0.931 . S
C337 C336 1.370 . S
C337 C341 1.408 . S
C338 C336 1.363 . S
C338 C339 1.370 . S
C338 C342 1.524 . S
C339 C331 1.503 . S
C339 C338 1.370 . S
C339 C340 1.403 . S
C340 C339 1.403 . S
C340 C341 1.404 . S
C340 C343 1.539 . S
C341 C337 1.408 . S
C341 C340 1.404 . S
C341 H353 0.930 . S
C342 C338 1.524 . S
C342 H354 0.956 . S
C342 H355 0.961 . S
C342 H356 0.961 . S
C343 C340 1.539 . S
C343 H357 0.958 . S
C343 H358 0.961 . S
C343 H359 0.960 . S
H344 C328 0.931 . S
H345 C333 0.929 . S
H346 C334 0.960 . S
H347 C334 0.962 . S
H348 C334 0.960 . S
H349 C335 0.961 . S
H350 C335 0.961 . S
H351 C335 0.961 . S
H352 C336 0.931 . S
H353 C341 0.930 . S
H354 C342 0.956 . S
H355 C342 0.961 . S
H356 C342 0.961 . S
H357 C343 0.958 . S
H358 C343 0.961 . S
H359 C343 0.960 . S
C360 C361 1.391 . S
C360 C362 1.394 . S
C360 H376 0.931 . S
C361 C360 1.391 . S
C361 C365 1.376 . S
C362 C360 1.394 . S
C362 C363 1.369 . S
C362 C366 1.531 . S
C363 C362 1.369 . S
C363 C364 1.410 . S
C363 C371 1.503 . S
C364 C363 1.410 . S
C364 C365 1.392 . S
C364 C367 1.511 . S
C365 C361 1.376 . S
C365 C364 1.392 . S
C365 H377 0.929 . S
C366 C362 1.531 . S
C366 H378 0.960 . S
C366 H379 0.962 1_655 S
C366 H380 0.960 . S
C367 C364 1.511 . S
C367 H381 0.961 . S
C367 H382 0.961 . S
C367 H383 0.961 . S
C368 C369 1.370 . S
C368 C370 1.363 . S
C368 H384 0.931 . S
C369 C368 1.370 . S
C369 C373 1.408 . S
C370 C368 1.363 . S
C370 C371 1.370 . S
C370 C374 1.524 . S
C371 C363 1.503 . S
C371 C370 1.370 . S
C371 C372 1.403 . S
C372 C371 1.403 . S
C372 C373 1.404 . S
C372 C375 1.539 . S
C373 C369 1.408 . S
C373 C372 1.404 . S
C373 H385 0.930 . S
C374 C370 1.524 . S
C374 H386 0.956 . S
C374 H387 0.961 . S
C374 H388 0.961 . S
C375 C372 1.539 . S
C375 H389 0.958 . S
C375 H390 0.961 . S
C375 H391 0.960 . S
H376 C360 0.931 . S
H377 C365 0.929 . S
H378 C366 0.960 . S
H379 C366 0.962 1_455 S
H380 C366 0.960 . S
H381 C367 0.961 . S
H382 C367 0.961 . S
H383 C367 0.961 . S
H384 C368 0.931 . S
H385 C373 0.930 . S
H386 C374 0.956 . S
H387 C374 0.961 . S
H388 C374 0.961 . S
H389 C375 0.958 . S
H390 C375 0.961 . S
H391 C375 0.960 . S
C392 C393 1.391 . S
C392 C394 1.394 . S
C392 H408 0.931 1_455 S
C393 C392 1.391 . S
C393 C397 1.376 . S
C394 C392 1.394 . S
C394 C395 1.369 . S
C394 C398 1.531 . S
C395 C394 1.369 . S
C395 C396 1.410 . S
C395 C403 1.503 . S
C396 C395 1.410 . S
C396 C397 1.392 . S
C396 C399 1.511 . S
C397 C393 1.376 . S
C397 C396 1.392 . S
C397 H409 0.929 . S
C398 C394 1.531 . S
C398 H410 0.960 . S
C398 H411 0.962 1_455 S
C398 H412 0.960 1_455 S
C399 C396 1.511 . S
C399 H413 0.961 . S
C399 H414 0.961 . S
C399 H415 0.961 . S
C400 C401 1.370 . S
C400 C402 1.363 . S
C400 H416 0.931 . S
C401 C400 1.370 . S
C401 C405 1.408 . S
C402 C400 1.363 . S
C402 C403 1.370 . S
C402 C406 1.524 . S
C403 C395 1.503 . S
C403 C402 1.370 . S
C403 C404 1.403 . S
C404 C403 1.403 . S
C404 C405 1.404 . S
C404 C407 1.539 . S
C405 C401 1.408 . S
C405 C404 1.404 . S
C405 H417 0.930 . S
C406 C402 1.524 . S
C406 H418 0.956 . S
C406 H419 0.961 . S
C406 H420 0.961 . S
C407 C404 1.539 . S
C407 H421 0.958 . S
C407 H422 0.961 . S
C407 H423 0.960 . S
H408 C392 0.931 1_655 S
H409 C397 0.929 . S
H410 C398 0.960 . S
H411 C398 0.962 1_655 S
H412 C398 0.960 1_655 S
H413 C399 0.961 . S
H414 C399 0.961 . S
H415 C399 0.961 . S
H416 C400 0.931 . S
H417 C405 0.930 . S
H418 C406 0.956 . S
H419 C406 0.961 . S
H420 C406 0.961 . S
H421 C407 0.958 . S
H422 C407 0.961 . S
H423 C407 0.960 . S
C424 C425 1.391 . S
C424 C426 1.394 . S
C424 H440 0.931 . S
C425 C424 1.391 . S
C425 C429 1.376 . S
C426 C424 1.394 . S
C426 C427 1.369 . S
C426 C430 1.531 . S
C427 C426 1.369 . S
C427 C428 1.410 . S
C427 C435 1.503 . S
C428 C427 1.410 . S
C428 C429 1.392 . S
C428 C431 1.511 . S
C429 C425 1.376 . S
C429 C428 1.392 . S
C429 H441 0.929 . S
C430 C426 1.531 . S
C430 H442 0.960 . S
C430 H443 0.962 . S
C430 H444 0.960 . S
C431 C428 1.511 . S
C431 H445 0.961 . S
C431 H446 0.961 . S
C431 H447 0.961 . S
C432 C433 1.370 . S
C432 C434 1.363 . S
C432 H448 0.931 . S
C433 C432 1.370 . S
C433 C437 1.408 . S
C434 C432 1.363 . S
C434 C435 1.370 . S
C434 C438 1.524 . S
C435 C427 1.503 . S
C435 C434 1.370 . S
C435 C436 1.403 . S
C436 C435 1.403 . S
C436 C437 1.404 . S
C436 C439 1.539 . S
C437 C433 1.408 . S
C437 C436 1.404 . S
C437 H449 0.930 . S
C438 C434 1.524 . S
C438 H450 0.956 . S
C438 H451 0.961 . S
C438 H452 0.961 . S
C439 C436 1.539 . S
C439 H453 0.958 . S
C439 H454 0.961 1_655 S
C439 H455 0.960 . S
H440 C424 0.931 . S
H441 C429 0.929 . S
H442 C430 0.960 . S
H443 C430 0.962 . S
H444 C430 0.960 . S
H445 C431 0.961 . S
H446 C431 0.961 . S
H447 C431 0.961 . S
H448 C432 0.931 . S
H449 C437 0.930 . S
H450 C438 0.956 . S
H451 C438 0.961 . S
H452 C438 0.961 . S
H453 C439 0.958 . S
H454 C439 0.961 1_455 S
H455 C439 0.960 . S
C456 C457 1.391 . S
C456 C458 1.394 . S
C456 H472 0.931 . S
C457 C456 1.391 . S
C457 C461 1.376 . S
C458 C456 1.394 . S
C458 C459 1.369 . S
C458 C462 1.531 . S
C459 C458 1.369 . S
C459 C460 1.410 . S
C459 C467 1.503 . S
C460 C459 1.410 . S
C460 C461 1.392 . S
C460 C463 1.511 . S
C461 C457 1.376 . S
C461 C460 1.392 . S
C461 H473 0.929 . S
C462 C458 1.531 . S
C462 H474 0.960 . S
C462 H475 0.962 . S
C462 H476 0.960 . S
C463 C460 1.511 . S
C463 H477 0.961 . S
C463 H478 0.961 . S
C463 H479 0.961 . S
C464 C465 1.370 . S
C464 C466 1.363 . S
C464 H480 0.931 . S
C465 C464 1.370 . S
C465 C469 1.408 . S
C466 C464 1.363 . S
C466 C467 1.370 . S
C466 C470 1.524 . S
C467 C459 1.503 . S
C467 C466 1.370 . S
C467 C468 1.403 . S
C468 C467 1.403 . S
C468 C469 1.404 . S
C468 C471 1.539 . S
C469 C465 1.408 . S
C469 C468 1.404 . S
C469 H481 0.930 1_565 S
C470 C466 1.524 . S
C470 H482 0.956 . S
C470 H483 0.961 . S
C470 H484 0.961 . S
C471 C468 1.539 . S
C471 H485 0.958 . S
C471 H486 0.961 1_565 S
C471 H487 0.960 . S
H472 C456 0.931 . S
H473 C461 0.929 . S
H474 C462 0.960 . S
H475 C462 0.962 . S
H476 C462 0.960 . S
H477 C463 0.961 . S
H478 C463 0.961 . S
H479 C463 0.961 . S
H480 C464 0.931 . S
H481 C469 0.930 1_545 S
H482 C470 0.956 . S
H483 C470 0.961 . S
H484 C470 0.961 . S
H485 C471 0.958 . S
H486 C471 0.961 1_545 S
H487 C471 0.960 . S
C488 C489 1.391 . S
C488 C490 1.394 . S
C488 H504 0.931 . S
C489 C488 1.391 . S
C489 C493 1.376 . S
C490 C488 1.394 . S
C490 C491 1.369 . S
C490 C494 1.531 . S
C491 C490 1.369 . S
C491 C492 1.410 . S
C491 C499 1.503 . S
C492 C491 1.410 . S
C492 C493 1.392 . S
C492 C495 1.511 . S
C493 C489 1.376 . S
C493 C492 1.392 . S
C493 H505 0.929 . S
C494 C490 1.531 . S
C494 H506 0.960 . S
C494 H507 0.962 . S
C494 H508 0.960 . S
C495 C492 1.511 . S
C495 H509 0.966 . S
C495 H510 0.961 . S
C495 H511 0.961 1_655 S
C496 C497 1.370 . S
C496 C498 1.363 . S
C496 H512 0.931 . S
C497 C496 1.370 . S
C497 C501 1.408 . S
C498 C496 1.363 . S
C498 C499 1.370 . S
C498 C502 1.524 . S
C499 C491 1.503 . S
C499 C498 1.370 . S
C499 C500 1.403 . S
C500 C499 1.403 . S
C500 C501 1.404 . S
C500 C503 1.539 . S
C501 C497 1.408 . S
C501 C500 1.404 . S
C501 H513 0.930 1_545 S
C502 C498 1.524 . S
C502 H514 0.956 . S
C502 H515 0.961 . S
C502 H516 0.961 . S
C503 C500 1.539 . S
C503 H517 0.958 1_545 S
C503 H518 0.961 1_545 S
C503 H519 0.960 . S
H504 C488 0.931 . S
H505 C493 0.929 . S
H506 C494 0.960 . S
H507 C494 0.962 . S
H508 C494 0.960 . S
H509 C495 0.966 . S
H510 C495 0.961 . S
H511 C495 0.961 1_455 S
H512 C496 0.931 . S
H513 C501 0.930 1_565 S
H514 C502 0.956 . S
H515 C502 0.961 . S
H516 C502 0.961 . S
H517 C503 0.958 1_565 S
H518 C503 0.961 1_565 S
H519 C503 0.960 . S
C520 C521 1.391 . S
C520 C522 1.394 . S
C520 H536 0.931 . S
C521 C520 1.391 . S
C521 C525 1.376 . S
C522 C520 1.394 . S
C522 C523 1.369 . S
C522 C526 1.531 . S
C523 C522 1.369 . S
C523 C524 1.410 . S
C523 C531 1.503 . S
C524 C523 1.410 . S
C524 C525 1.392 . S
C524 C527 1.511 . S
C525 C521 1.376 . S
C525 C524 1.392 . S
C525 H537 0.929 . S
C526 C522 1.531 . S
C526 H538 0.960 . S
C526 H539 0.962 . S
C526 H540 0.960 . S
C527 C524 1.511 . S
C527 H541 0.961 1_545 S
C527 H542 0.961 1_545 S
C527 H543 0.961 . S
C528 C529 1.370 . S
C528 C530 1.363 . S
C528 H544 0.931 . S
C529 C528 1.370 . S
C529 C533 1.408 1_565 S
C530 C528 1.363 . S
C530 C531 1.370 1_565 S
C530 C534 1.524 . S
C531 C523 1.503 . S
C531 C530 1.370 1_545 S
C531 C532 1.403 . S
C532 C531 1.403 . S
C532 C533 1.404 . S
C532 C535 1.539 . S
C533 C529 1.408 1_545 S
C533 C532 1.404 . S
C533 H545 0.930 . S
C534 C530 1.524 . S
C534 H546 0.956 . S
C534 H547 0.961 . S
C534 H548 0.961 . S
C535 C532 1.539 . S
C535 H549 0.958 . S
C535 H550 0.961 . S
C535 H551 0.960 . S
H536 C520 0.931 . S
H537 C525 0.929 . S
H538 C526 0.960 . S
H539 C526 0.962 . S
H540 C526 0.960 . S
H541 C527 0.961 1_565 S
H542 C527 0.961 1_565 S
H543 C527 0.961 . S
H544 C528 0.931 . S
H545 C533 0.930 . S
H546 C534 0.956 . S
H547 C534 0.961 . S
H548 C534 0.961 . S
H549 C535 0.958 . S
H550 C535 0.961 . S
H551 C535 0.960 . S
C552 C553 1.391 1_565 S
C552 C554 1.394 . S
C552 H568 0.931 . S
C553 C552 1.391 1_545 S
C553 C557 1.376 . S
C554 C552 1.394 . S
C554 C555 1.369 . S
C554 C558 1.531 . S
C555 C554 1.369 . S
C555 C556 1.410 . S
C555 C563 1.503 . S
C556 C555 1.410 . S
C556 C557 1.392 1_565 S
C556 C559 1.511 . S
C557 C553 1.376 . S
C557 C556 1.392 1_545 S
C557 H569 0.929 . S
C558 C554 1.531 . S
C558 H570 0.960 . S
C558 H571 0.962 . S
C558 H572 0.960 . S
C559 C556 1.511 . S
C559 H573 0.961 1_565 S
C559 H574 0.961 . S
C559 H575 0.961 . S
C560 C561 1.370 . S
C560 C562 1.363 . S
C560 H576 0.931 . S
C561 C560 1.370 . S
C561 C565 1.408 . S
C562 C560 1.363 . S
C562 C563 1.370 . S
C562 C566 1.524 1_565 S
C563 C555 1.503 . S
C563 C562 1.370 . S
C563 C564 1.403 . S
C564 C563 1.403 . S
C564 C565 1.404 . S
C564 C567 1.539 . S
C565 C561 1.408 . S
C565 C564 1.404 . S
C565 H577 0.930 . S
C566 C562 1.524 1_545 S
C566 H578 0.956 . S
C566 H579 0.961 . S
C566 H580 0.961 . S
C567 C564 1.539 . S
C567 H581 0.958 . S
C567 H582 0.961 . S
C567 H583 0.960 . S
H568 C552 0.931 . S
H569 C557 0.929 . S
H570 C558 0.960 . S
H571 C558 0.962 . S
H572 C558 0.960 . S
H573 C559 0.961 1_545 S
H574 C559 0.961 . S
H575 C559 0.961 . S
H576 C560 0.931 . S
H577 C565 0.930 . S
H578 C566 0.956 . S
H579 C566 0.961 . S
H580 C566 0.961 . S
H581 C567 0.958 . S
H582 C567 0.961 . S
H583 C567 0.960 . S
C584 C585 1.391 . S
C584 C586 1.394 . S
C584 H600 0.931 . S
C585 C584 1.391 . S
C585 C589 1.376 . S
C586 C584 1.394 . S
C586 C587 1.369 . S
C586 C590 1.531 . S
C587 C586 1.369 . S
C587 C588 1.410 . S
C587 C595 1.503 . S
C588 C587 1.410 . S
C588 C589 1.392 . S
C588 C591 1.511 . S
C589 C585 1.376 . S
C589 C588 1.392 . S
C589 H601 0.929 . S
C590 C586 1.531 . S
C590 H602 0.960 . S
C590 H603 0.962 . S
C590 H604 0.960 . S
C591 C588 1.511 . S
C591 H605 0.961 . S
C591 H606 0.961 . S
C591 H607 0.961 . S
C592 C593 1.370 . S
C592 C594 1.363 . S
C592 H608 0.931 . S
C593 C592 1.370 . S
C593 C597 1.408 . S
C594 C592 1.363 . S
C594 C595 1.370 . S
C594 C598 1.524 . S
C595 C587 1.503 . S
C595 C594 1.370 . S
C595 C596 1.403 . S
C596 C595 1.403 . S
C596 C597 1.404 . S
C596 C599 1.539 . S
C597 C593 1.408 . S
C597 C596 1.404 . S
C597 H609 0.930 . S
C598 C594 1.524 . S
C598 H610 0.956 . S
C598 H611 0.961 . S
C598 H612 0.961 . S
C599 C596 1.539 . S
C599 H613 0.958 . S
C599 H614 0.961 . S
C599 H615 0.960 . S
H600 C584 0.931 . S
H601 C589 0.929 . S
H602 C590 0.960 . S
H603 C590 0.962 . S
H604 C590 0.960 . S
H605 C591 0.961 . S
H606 C591 0.961 . S
H607 C591 0.961 . S
H608 C592 0.931 . S
H609 C597 0.930 . S
H610 C598 0.956 . S
H611 C598 0.961 . S
H612 C598 0.961 . S
H613 C599 0.958 . S
H614 C599 0.961 . S
H615 C599 0.960 . S
C616 C617 1.391 . S
C616 C618 1.394 . S
C616 H632 0.931 . S
C617 C616 1.391 . S
C617 C621 1.376 . S
C618 C616 1.394 . S
C618 C619 1.369 . S
C618 C622 1.531 . S
C619 C618 1.369 . S
C619 C620 1.410 . S
C619 C627 1.503 . S
C620 C619 1.410 . S
C620 C621 1.392 . S
C620 C623 1.511 . S
C621 C617 1.376 . S
C621 C620 1.392 . S
C621 H633 0.929 . S
C622 C618 1.531 . S
C622 H634 0.960 . S
C622 H635 0.962 . S
C622 H636 0.960 . S
C623 C620 1.511 . S
C623 H637 0.961 . S
C623 H638 0.961 . S
C623 H639 0.961 . S
C624 C625 1.370 . S
C624 C626 1.363 . S
C624 H640 0.931 . S
C625 C624 1.370 . S
C625 C629 1.408 . S
C626 C624 1.363 . S
C626 C627 1.370 . S
C626 C630 1.524 . S
C627 C619 1.503 . S
C627 C626 1.370 . S
C627 C628 1.403 . S
C628 C627 1.403 . S
C628 C629 1.404 . S
C628 C631 1.539 . S
C629 C625 1.408 . S
C629 C628 1.404 . S
C629 H641 0.930 . S
C630 C626 1.524 . S
C630 H642 0.956 . S
C630 H643 0.961 . S
C630 H644 0.961 . S
C631 C628 1.539 . S
C631 H645 0.958 . S
C631 H646 0.961 . S
C631 H647 0.960 . S
H632 C616 0.931 . S
H633 C621 0.929 . S
H634 C622 0.960 . S
H635 C622 0.962 . S
H636 C622 0.960 . S
H637 C623 0.961 . S
H638 C623 0.961 . S
H639 C623 0.961 . S
H640 C624 0.931 . S
H641 C629 0.930 . S
H642 C630 0.956 . S
H643 C630 0.961 . S
H644 C630 0.961 . S
H645 C631 0.958 . S
H646 C631 0.961 . S
H647 C631 0.960 . S
C648 C649 1.391 . S
C648 C650 1.394 . S
C648 H664 0.931 . S
C649 C648 1.391 . S
C649 C653 1.376 . S
C650 C648 1.394 . S
C650 C651 1.369 . S
C650 C654 1.531 . S
C651 C650 1.369 . S
C651 C652 1.410 . S
C651 C659 1.503 . S
C652 C651 1.410 . S
C652 C653 1.392 . S
C652 C655 1.511 . S
C653 C649 1.376 . S
C653 C652 1.392 . S
C653 H665 0.929 . S
C654 C650 1.531 . S
C654 H666 0.960 . S
C654 H667 0.962 . S
C654 H668 0.960 . S
C655 C652 1.511 . S
C655 H669 0.961 . S
C655 H670 0.961 . S
C655 H671 0.961 . S
C656 C657 1.370 . S
C656 C658 1.363 . S
C656 H672 0.931 . S
C657 C656 1.370 . S
C657 C661 1.408 . S
C658 C656 1.363 . S
C658 C659 1.370 . S
C658 C662 1.524 . S
C659 C651 1.503 . S
C659 C658 1.370 . S
C659 C660 1.403 . S
C660 C659 1.403 . S
C660 C661 1.404 . S
C660 C663 1.539 . S
C661 C657 1.408 . S
C661 C660 1.404 . S
C661 H673 0.930 . S
C662 C658 1.524 . S
C662 H674 0.956 . S
C662 H675 0.961 . S
C662 H676 0.961 . S
C663 C660 1.539 . S
C663 H677 0.958 . S
C663 H678 0.961 . S
C663 H679 0.960 . S
H664 C648 0.931 . S
H665 C653 0.929 . S
H666 C654 0.960 . S
H667 C654 0.962 . S
H668 C654 0.960 . S
H669 C655 0.961 . S
H670 C655 0.961 . S
H671 C655 0.961 . S
H672 C656 0.931 . S
H673 C661 0.930 . S
H674 C662 0.956 . S
H675 C662 0.961 . S
H676 C662 0.961 . S
H677 C663 0.958 . S
H678 C663 0.961 . S
H679 C663 0.960 . S
C680 C681 1.391 . S
C680 C682 1.394 . S
C680 H696 0.931 . S
C681 C680 1.391 . S
C681 C685 1.376 . S
C682 C680 1.394 . S
C682 C683 1.369 . S
C682 C686 1.531 . S
C683 C682 1.369 . S
C683 C684 1.410 . S
C683 C691 1.503 . S
C684 C683 1.410 . S
C684 C685 1.392 . S
C684 C687 1.511 . S
C685 C681 1.376 . S
C685 C684 1.392 . S
C685 H697 0.929 . S
C686 C682 1.531 . S
C686 H698 0.960 . S
C686 H699 0.962 . S
C686 H700 0.960 . S
C687 C684 1.511 . S
C687 H701 0.961 . S
C687 H702 0.961 . S
C687 H703 0.961 . S
C688 C689 1.370 . S
C688 C690 1.363 . S
C688 H704 0.931 . S
C689 C688 1.370 . S
C689 C693 1.408 . S
C690 C688 1.363 . S
C690 C691 1.370 . S
C690 C694 1.524 . S
C691 C683 1.503 . S
C691 C690 1.370 . S
C691 C692 1.403 . S
C692 C691 1.403 . S
C692 C693 1.404 . S
C692 C695 1.539 . S
C693 C689 1.408 . S
C693 C692 1.404 . S
C693 H705 0.930 . S
C694 C690 1.524 . S
C694 H706 0.956 . S
C694 H707 0.961 . S
C694 H708 0.961 . S
C695 C692 1.539 . S
C695 H709 0.958 . S
C695 H710 0.961 . S
C695 H711 0.960 . S
H696 C680 0.931 . S
H697 C685 0.929 . S
H698 C686 0.960 . S
H699 C686 0.962 . S
H700 C686 0.960 . S
H701 C687 0.961 . S
H702 C687 0.961 . S
H703 C687 0.961 . S
H704 C688 0.931 . S
H705 C693 0.930 . S
H706 C694 0.956 . S
H707 C694 0.961 . S
H708 C694 0.961 . S
H709 C695 0.958 . S
H710 C695 0.961 . S
H711 C695 0.960 . S
C712 C713 1.391 . S
C712 C714 1.394 . S
C712 H728 0.931 . S
C713 C712 1.391 . S
C713 C717 1.376 . S
C714 C712 1.394 . S
C714 C715 1.369 . S
C714 C718 1.531 . S
C715 C714 1.369 . S
C715 C716 1.410 . S
C715 C723 1.503 . S
C716 C715 1.410 . S
C716 C717 1.392 . S
C716 C719 1.511 . S
C717 C713 1.376 . S
C717 C716 1.392 . S
C717 H729 0.929 . S
C718 C714 1.531 . S
C718 H730 0.960 . S
C718 H731 0.962 . S
C718 H732 0.960 . S
C719 C716 1.511 . S
C719 H733 0.961 . S
C719 H734 0.961 . S
C719 H735 0.961 . S
C720 C721 1.370 . S
C720 C722 1.363 . S
C720 H736 0.931 . S
C721 C720 1.370 . S
C721 C725 1.408 . S
C722 C720 1.363 . S
C722 C723 1.370 . S
C722 C726 1.524 . S
C723 C715 1.503 . S
C723 C722 1.370 . S
C723 C724 1.403 . S
C724 C723 1.403 . S
C724 C725 1.404 . S
C724 C727 1.539 . S
C725 C721 1.408 . S
C725 C724 1.404 . S
C725 H737 0.930 . S
C726 C722 1.524 . S
C726 H738 0.956 . S
C726 H739 0.961 . S
C726 H740 0.961 . S
C727 C724 1.539 . S
C727 H741 0.958 1_565 S
C727 H742 0.961 . S
C727 H743 0.960 . S
H728 C712 0.931 . S
H729 C717 0.929 . S
H730 C718 0.960 . S
H731 C718 0.962 . S
H732 C718 0.960 . S
H733 C719 0.961 . S
H734 C719 0.961 . S
H735 C719 0.961 . S
H736 C720 0.931 . S
H737 C725 0.930 . S
H738 C726 0.956 . S
H739 C726 0.961 . S
H740 C726 0.961 . S
H741 C727 0.958 1_545 S
H742 C727 0.961 . S
H743 C727 0.960 . S
C744 C745 1.391 . S
C744 C746 1.394 . S
C744 H760 0.931 1_545 S
C745 C744 1.391 . S
C745 C749 1.376 . S
C746 C744 1.394 . S
C746 C747 1.369 . S
C746 C750 1.531 . S
C747 C746 1.369 . S
C747 C748 1.410 . S
C747 C755 1.503 . S
C748 C747 1.410 . S
C748 C749 1.392 . S
C748 C751 1.511 . S
C749 C745 1.376 . S
C749 C748 1.392 . S
C749 H761 0.929 . S
C750 C746 1.531 . S
C750 H762 0.960 . S
C750 H763 0.962 1_545 S
C750 H764 0.960 1_545 S
C751 C748 1.511 . S
C751 H765 0.961 . S
C751 H766 0.961 . S
C751 H767 0.961 . S
C752 C753 1.370 . S
C752 C754 1.363 . S
C752 H768 0.931 . S
C753 C752 1.370 . S
C753 C757 1.408 . S
C754 C752 1.363 . S
C754 C755 1.370 . S
C754 C758 1.524 . S
C755 C747 1.503 . S
C755 C754 1.370 . S
C755 C756 1.403 . S
C756 C755 1.403 . S
C756 C757 1.404 . S
C756 C759 1.539 . S
C757 C753 1.408 . S
C757 C756 1.404 . S
C757 H769 0.930 . S
C758 C754 1.524 . S
C758 H770 0.956 . S
C758 H771 0.961 . S
C758 H772 0.961 . S
C759 C756 1.539 . S
C759 H773 0.958 . S
C759 H774 0.961 . S
C759 H775 0.960 . S
H760 C744 0.931 1_565 S
H761 C749 0.929 . S
H762 C750 0.960 . S
H763 C750 0.962 1_565 S
H764 C750 0.960 1_565 S
H765 C751 0.961 . S
H766 C751 0.961 . S
H767 C751 0.961 . S
H768 C752 0.931 . S
H769 C757 0.930 . S
H770 C758 0.956 . S
H771 C758 0.961 . S
H772 C758 0.961 . S
H773 C759 0.958 . S
H774 C759 0.961 . S
H775 C759 0.960 . S
C776 C777 1.378 1_455 S
C776 C778 1.394 . S
C776 H792 0.931 . S
C777 C776 1.378 1_655 S
C777 C781 1.390 1_554 S
C778 C776 1.394 . S
C778 C779 1.369 1_455 S
C778 C782 1.531 . S
C779 C778 1.369 1_655 S
C779 C780 1.405 1_554 S
C779 C787 1.503 . S
C780 C779 1.405 1_556 S
C780 C781 1.394 . S
C780 C783 1.514 . S
C781 C777 1.390 1_556 S
C781 C780 1.394 . S
C781 H793 0.929 . S
C782 C778 1.531 . S
C782 H794 0.960 . S
C782 H795 0.962 . S
C782 H796 0.960 . S
C783 C780 1.514 . S
C783 H797 0.961 . S
C783 H798 0.961 . S
C783 H799 0.961 . S
C784 C785 1.379 1_455 S
C784 C786 1.359 1_554 S
C784 H800 0.924 1_554 S
C785 C784 1.379 1_655 S
C785 C789 1.408 . S
C786 C784 1.359 1_556 S
C786 C787 1.365 1_456 S
C786 C790 1.531 . S
C787 C779 1.503 . S
C787 C786 1.365 1_654 S
C787 C788 1.403 . S
C788 C787 1.403 . S
C788 C789 1.404 . S
C788 C791 1.539 . S
C789 C785 1.408 . S
C789 C788 1.404 . S
C789 H801 0.930 . S
C790 C786 1.531 . S
C790 H802 0.956 . S
C790 H803 0.961 . S
C790 H804 0.961 . S
C791 C788 1.539 . S
C791 H805 0.958 . S
C791 H806 0.961 . S
C791 H807 0.960 . S
H792 C776 0.931 . S
H793 C781 0.929 . S
H794 C782 0.960 . S
H795 C782 0.962 . S
H796 C782 0.960 . S
H797 C783 0.961 . S
H798 C783 0.961 . S
H799 C783 0.961 . S
H800 C784 0.924 1_556 S
H801 C789 0.930 . S
H802 C790 0.956 . S
H803 C790 0.961 . S
H804 C790 0.961 . S
H805 C791 0.958 . S
H806 C791 0.961 . S
H807 C791 0.960 . S
C808 C809 1.391 . S
C808 C810 1.394 . S
C808 H824 0.931 . S
C809 C808 1.391 . S
C809 C813 1.376 . S
C810 C808 1.394 . S
C810 C811 1.369 . S
C810 C814 1.531 . S
C811 C810 1.369 . S
C811 C812 1.410 . S
C811 C819 1.503 . S
C812 C811 1.410 . S
C812 C813 1.392 . S
C812 C815 1.511 . S
C813 C809 1.376 . S
C813 C812 1.392 . S
C813 H825 0.929 . S
C814 C810 1.531 . S
C814 H826 0.960 . S
C814 H827 0.962 . S
C814 H828 0.960 . S
C815 C812 1.511 . S
C815 H829 0.961 . S
C815 H830 0.961 . S
C815 H831 0.961 . S
C816 C817 1.370 . S
C816 C818 1.363 . S
C816 H832 0.931 . S
C817 C816 1.370 . S
C817 C821 1.408 . S
C818 C816 1.363 . S
C818 C819 1.370 . S
C818 C822 1.524 . S
C819 C811 1.503 . S
C819 C818 1.370 . S
C819 C820 1.403 . S
C820 C819 1.403 . S
C820 C821 1.404 . S
C820 C823 1.539 . S
C821 C817 1.408 . S
C821 C820 1.404 . S
C821 H833 0.930 . S
C822 C818 1.524 . S
C822 H834 0.956 . S
C822 H835 0.961 . S
C822 H836 0.961 . S
C823 C820 1.539 . S
C823 H837 0.958 . S
C823 H838 0.961 . S
C823 H839 0.960 . S
H824 C808 0.931 . S
H825 C813 0.929 . S
H826 C814 0.960 . S
H827 C814 0.962 . S
H828 C814 0.960 . S
H829 C815 0.961 . S
H830 C815 0.961 . S
H831 C815 0.961 . S
H832 C816 0.931 . S
H833 C821 0.930 . S
H834 C822 0.956 . S
H835 C822 0.961 . S
H836 C822 0.961 . S
H837 C823 0.958 . S
H838 C823 0.961 . S
H839 C823 0.960 . S
C840 C841 1.391 . S
C840 C842 1.394 . S
C840 H856 0.931 . S
C841 C840 1.391 . S
C841 C845 1.376 . S
C842 C840 1.394 . S
C842 C843 1.369 . S
C842 C846 1.531 . S
C843 C842 1.369 . S
C843 C844 1.410 . S
C843 C851 1.503 . S
C844 C843 1.410 . S
C844 C845 1.392 . S
C844 C847 1.511 . S
C845 C841 1.376 . S
C845 C844 1.392 . S
C845 H857 0.929 . S
C846 C842 1.531 . S
C846 H858 0.960 . S
C846 H859 0.962 . S
C846 H860 0.960 . S
C847 C844 1.511 . S
C847 H861 0.961 . S
C847 H862 0.961 . S
C847 H863 0.961 . S
C848 C849 1.370 . S
C848 C850 1.363 . S
C848 H864 0.931 . S
C849 C848 1.370 . S
C849 C853 1.408 . S
C850 C848 1.363 . S
C850 C851 1.370 . S
C850 C854 1.524 . S
C851 C843 1.503 . S
C851 C850 1.370 . S
C851 C852 1.403 . S
C852 C851 1.403 . S
C852 C853 1.404 . S
C852 C855 1.539 . S
C853 C849 1.408 . S
C853 C852 1.404 . S
C853 H865 0.930 . S
C854 C850 1.524 . S
C854 H866 0.956 . S
C854 H867 0.961 . S
C854 H868 0.961 . S
C855 C852 1.539 . S
C855 H869 0.958 . S
C855 H870 0.961 . S
C855 H871 0.960 . S
H856 C840 0.931 . S
H857 C845 0.929 . S
H858 C846 0.960 . S
H859 C846 0.962 . S
H860 C846 0.960 . S
H861 C847 0.961 . S
H862 C847 0.961 . S
H863 C847 0.961 . S
H864 C848 0.931 . S
H865 C853 0.930 . S
H866 C854 0.956 . S
H867 C854 0.961 . S
H868 C854 0.961 . S
H869 C855 0.958 . S
H870 C855 0.961 . S
H871 C855 0.960 . S
C872 C873 1.390 . S
C872 C874 1.394 . S
C872 H888 0.931 . S
C873 C872 1.390 . S
C873 C877 1.377 1_455 S
C874 C872 1.394 . S
C874 C875 1.369 . S
C874 C878 1.531 . S
C875 C874 1.369 . S
C875 C876 1.410 1_455 S
C875 C883 1.503 1_565 S
C876 C875 1.410 1_655 S
C876 C877 1.392 . S
C876 C879 1.511 . S
C877 C873 1.377 1_655 S
C877 C876 1.392 . S
C877 H889 0.929 . S
C878 C874 1.531 . S
C878 H890 0.960 . S
C878 H891 0.962 . S
C878 H892 0.960 . S
C879 C876 1.511 . S
C879 H893 0.961 . S
C879 H894 0.961 1_565 S
C879 H895 0.961 . S
C880 C881 1.370 . S
C880 C882 1.363 . S
C880 H896 0.931 . S
C881 C880 1.370 . S
C881 C885 1.409 . S
C882 C880 1.363 . S
C882 C883 1.370 . S
C882 C886 1.524 . S
C883 C875 1.503 1_545 S
C883 C882 1.370 . S
C883 C884 1.403 . S
C884 C883 1.403 . S
C884 C885 1.404 . S
C884 C887 1.538 1_455 S
C885 C881 1.409 . S
C885 C884 1.404 . S
C885 H897 0.929 1_455 S
C886 C882 1.524 . S
C886 H898 0.956 . S
C886 H899 0.961 1_455 S
C886 H900 0.962 . S
C887 C884 1.538 1_655 S
C887 H901 0.958 1_655 S
C887 H902 0.961 . S
C887 H903 0.960 1_545 S
H888 C872 0.931 . S
H889 C877 0.929 . S
H890 C878 0.960 . S
H891 C878 0.962 . S
H892 C878 0.960 . S
H893 C879 0.961 . S
H894 C879 0.961 1_545 S
H895 C879 0.961 . S
H896 C880 0.931 . S
H897 C885 0.929 1_655 S
H898 C886 0.956 . S
H899 C886 0.961 1_655 S
H900 C886 0.962 . S
H901 C887 0.958 1_455 S
H902 C887 0.961 . S
H903 C887 0.960 1_565 S
C904 C905 1.391 . S
C904 C906 1.394 . S
C904 H920 0.931 . S
C905 C904 1.391 . S
C905 C909 1.376 . S
C906 C904 1.394 . S
C906 C907 1.369 . S
C906 C910 1.531 . S
C907 C906 1.369 . S
C907 C908 1.410 . S
C907 C915 1.503 . S
C908 C907 1.410 . S
C908 C909 1.392 . S
C908 C911 1.511 . S
C909 C905 1.376 . S
C909 C908 1.392 . S
C909 H921 0.929 . S
C910 C906 1.531 . S
C910 H922 0.960 . S
C910 H923 0.962 . S
C910 H924 0.960 . S
C911 C908 1.511 . S
C911 H925 0.961 . S
C911 H926 0.961 . S
C911 H927 0.961 . S
C912 C913 1.370 . S
C912 C914 1.363 . S
C912 H928 0.931 . S
C913 C912 1.370 . S
C913 C917 1.408 . S
C914 C912 1.363 . S
C914 C915 1.370 . S
C914 C918 1.524 . S
C915 C907 1.503 . S
C915 C914 1.370 . S
C915 C916 1.403 . S
C916 C915 1.403 . S
C916 C917 1.404 . S
C916 C919 1.539 . S
C917 C913 1.408 . S
C917 C916 1.404 . S
C917 H929 0.930 . S
C918 C914 1.524 . S
C918 H930 0.956 . S
C918 H931 0.961 . S
C918 H932 0.961 . S
C919 C916 1.539 . S
C919 H933 0.958 . S
C919 H934 0.961 . S
C919 H935 0.960 . S
H920 C904 0.931 . S
H921 C909 0.929 . S
H922 C910 0.960 . S
H923 C910 0.962 . S
H924 C910 0.960 . S
H925 C911 0.961 . S
H926 C911 0.961 . S
H927 C911 0.961 . S
H928 C912 0.931 . S
H929 C917 0.930 . S
H930 C918 0.956 . S
H931 C918 0.961 . S
H932 C918 0.961 . S
H933 C919 0.958 . S
H934 C919 0.961 . S
H935 C919 0.960 . S
C936 C937 1.391 . S
C936 C938 1.394 . S
C936 H952 0.931 . S
C937 C936 1.391 . S
C937 C941 1.376 . S
C938 C936 1.394 . S
C938 C939 1.369 . S
C938 C942 1.531 . S
C939 C938 1.369 . S
C939 C940 1.410 . S
C939 C947 1.503 . S
C940 C939 1.410 . S
C940 C941 1.392 . S
C940 C943 1.511 . S
C941 C937 1.376 . S
C941 C940 1.392 . S
C941 H953 0.929 . S
C942 C938 1.531 . S
C942 H954 0.960 . S
C942 H955 0.962 . S
C942 H956 0.960 . S
C943 C940 1.511 . S
C943 H957 0.961 . S
C943 H958 0.961 . S
C943 H959 0.961 . S
C944 C945 1.370 . S
C944 C946 1.363 . S
C944 H960 0.931 . S
C945 C944 1.370 . S
C945 C949 1.408 . S
C946 C944 1.363 . S
C946 C947 1.370 . S
C946 C950 1.524 . S
C947 C939 1.503 . S
C947 C946 1.370 . S
C947 C948 1.403 . S
C948 C947 1.403 . S
C948 C949 1.404 . S
C948 C951 1.539 . S
C949 C945 1.408 . S
C949 C948 1.404 . S
C949 H961 0.930 . S
C950 C946 1.524 . S
C950 H962 0.956 . S
C950 H963 0.961 . S
C950 H964 0.961 . S
C951 C948 1.539 . S
C951 H965 0.958 . S
C951 H966 0.961 . S
C951 H967 0.960 . S
H952 C936 0.931 . S
H953 C941 0.929 . S
H954 C942 0.960 . S
H955 C942 0.962 . S
H956 C942 0.960 . S
H957 C943 0.961 . S
H958 C943 0.961 . S
H959 C943 0.961 . S
H960 C944 0.931 . S
H961 C949 0.930 . S
H962 C950 0.956 . S
H963 C950 0.961 . S
H964 C950 0.961 . S
H965 C951 0.958 . S
H966 C951 0.961 . S
H967 C951 0.960 . S
C968 C969 1.391 . S
C968 C970 1.394 . S
C968 H984 0.931 . S
C969 C968 1.391 . S
C969 C973 1.376 . S
C970 C968 1.394 . S
C970 C971 1.369 . S
C970 C974 1.531 . S
C971 C970 1.369 . S
C971 C972 1.410 . S
C971 C979 1.503 . S
C972 C971 1.410 . S
C972 C973 1.392 . S
C972 C975 1.511 . S
C973 C969 1.376 . S
C973 C972 1.392 . S
C973 H985 0.929 . S
C974 C970 1.531 . S
C974 H986 0.960 . S
C974 H987 0.962 . S
C974 H988 0.960 . S
C975 C972 1.511 . S
C975 H989 0.961 . S
C975 H990 0.961 . S
C975 H991 0.961 . S
C976 C977 1.370 . S
C976 C978 1.363 . S
C976 H992 0.931 . S
C977 C976 1.370 . S
C977 C981 1.408 . S
C978 C976 1.363 . S
C978 C979 1.370 . S
C978 C982 1.524 . S
C979 C971 1.503 . S
C979 C978 1.370 . S
C979 C980 1.403 . S
C980 C979 1.403 . S
C980 C981 1.404 . S
C980 C983 1.539 . S
C981 C977 1.408 . S
C981 C980 1.404 . S
C981 H993 0.930 . S
C982 C978 1.524 . S
C982 H994 0.956 . S
C982 H995 0.961 . S
C982 H996 0.961 . S
C983 C980 1.539 . S
C983 H997 0.958 . S
C983 H998 0.961 . S
C983 H999 0.960 . S
H984 C968 0.931 . S
H985 C973 0.929 . S
H986 C974 0.960 . S
H987 C974 0.962 . S
H988 C974 0.960 . S
H989 C975 0.961 . S
H990 C975 0.961 . S
H991 C975 0.961 . S
H992 C976 0.931 . S
H993 C981 0.930 . S
H994 C982 0.956 . S
H995 C982 0.961 . S
H996 C982 0.961 . S
H997 C983 0.958 . S
H998 C983 0.961 . S
H999 C983 0.960 . S
C1000 C1001 1.391 . S
C1000 C1002 1.394 . S
C1000 H1016 0.931 . S
C1001 C1000 1.391 . S
C1001 C1005 1.376 . S
C1002 C1000 1.394 . S
C1002 C1003 1.369 . S
C1002 C1006 1.531 . S
C1003 C1002 1.369 . S
C1003 C1004 1.410 . S
C1003 C1011 1.503 1_565 S
C1004 C1003 1.410 . S
C1004 C1005 1.392 . S
C1004 C1007 1.511 . S
C1005 C1001 1.376 . S
C1005 C1004 1.392 . S
C1005 H1017 0.929 . S
C1006 C1002 1.531 . S
C1006 H1018 0.960 1_565 S
C1006 H1019 0.962 . S
C1006 H1020 0.960 . S
C1007 C1004 1.511 . S
C1007 H1021 0.961 . S
C1007 H1022 0.961 1_565 S
C1007 H1023 0.961 . S
C1008 C1009 1.370 1_556 S
C1008 C1010 1.363 . S
C1008 H1024 0.931 . S
C1009 C1008 1.370 1_554 S
C1009 C1013 1.408 . S
C1010 C1008 1.363 . S
C1010 C1011 1.370 1_556 S
C1010 C1014 1.524 . S
C1011 C1003 1.503 1_545 S
C1011 C1010 1.370 1_554 S
C1011 C1012 1.403 . S
C1012 C1011 1.403 . S
C1012 C1013 1.404 . S
C1012 C1015 1.539 . S
C1013 C1009 1.408 . S
C1013 C1012 1.404 . S
C1013 H1025 0.930 . S
C1014 C1010 1.524 . S
C1014 H1026 0.956 1_545 S
C1014 H1027 0.961 1_545 S
C1014 H1028 0.961 . S
C1015 C1012 1.539 . S
C1015 H1029 0.958 . S
C1015 H1030 0.961 . S
C1015 H1031 0.960 . S
H1016 C1000 0.931 . S
H1017 C1005 0.929 . S
H1018 C1006 0.960 1_545 S
H1019 C1006 0.962 . S
H1020 C1006 0.960 . S
H1021 C1007 0.961 . S
H1022 C1007 0.961 1_545 S
H1023 C1007 0.961 . S
H1024 C1008 0.931 . S
H1025 C1013 0.930 . S
H1026 C1014 0.956 1_565 S
H1027 C1014 0.961 1_565 S
H1028 C1014 0.961 . S
H1029 C1015 0.958 . S
H1030 C1015 0.961 . S
H1031 C1015 0.960 . S
C1032 C1033 1.391 . S
C1032 C1034 1.394 . S
C1032 H1048 0.931 . S
C1033 C1032 1.391 . S
C1033 C1037 1.376 . S
C1034 C1032 1.394 . S
C1034 C1035 1.369 . S
C1034 C1038 1.531 . S
C1035 C1034 1.369 . S
C1035 C1036 1.410 . S
C1035 C1043 1.503 . S
C1036 C1035 1.410 . S
C1036 C1037 1.392 . S
C1036 C1039 1.511 . S
C1037 C1033 1.376 . S
C1037 C1036 1.392 . S
C1037 H1049 0.929 . S
C1038 C1034 1.531 . S
C1038 H1050 0.960 . S
C1038 H1051 0.962 1_554 S
C1038 H1052 0.960 . S
C1039 C1036 1.511 . S
C1039 H1053 0.961 . S
C1039 H1054 0.961 . S
C1039 H1055 0.961 . S
C1040 C1041 1.370 1_556 S
C1040 C1042 1.363 . S
C1040 H1056 0.931 . S
C1041 C1040 1.370 1_554 S
C1041 C1045 1.408 . S
C1042 C1040 1.363 . S
C1042 C1043 1.370 1_556 S
C1042 C1046 1.524 . S
C1043 C1035 1.503 . S
C1043 C1042 1.370 1_554 S
C1043 C1044 1.403 . S
C1044 C1043 1.403 . S
C1044 C1045 1.404 . S
C1044 C1047 1.539 . S
C1045 C1041 1.408 . S
C1045 C1044 1.404 . S
C1045 H1057 0.930 . S
C1046 C1042 1.524 . S
C1046 H1058 0.956 . S
C1046 H1059 0.961 . S
C1046 H1060 0.961 . S
C1047 C1044 1.539 . S
C1047 H1061 0.958 . S
C1047 H1062 0.961 . S
C1047 H1063 0.960 . S
H1048 C1032 0.931 . S
H1049 C1037 0.929 . S
H1050 C1038 0.960 . S
H1051 C1038 0.962 1_556 S
H1052 C1038 0.960 . S
H1053 C1039 0.961 . S
H1054 C1039 0.961 . S
H1055 C1039 0.961 . S
H1056 C1040 0.931 . S
H1057 C1045 0.930 . S
H1058 C1046 0.956 . S
H1059 C1046 0.961 . S
H1060 C1046 0.961 . S
H1061 C1047 0.958 . S
H1062 C1047 0.961 . S
H1063 C1047 0.960 . S
C1064 C1065 1.391 . S
C1064 C1066 1.394 . S
C1064 H1080 0.931 . S
C1065 C1064 1.391 . S
C1065 C1069 1.376 . S
C1066 C1064 1.394 . S
C1066 C1067 1.369 . S
C1066 C1070 1.531 . S
C1067 C1066 1.369 . S
C1067 C1068 1.410 . S
C1067 C1075 1.503 . S
C1068 C1067 1.410 . S
C1068 C1069 1.392 . S
C1068 C1071 1.511 . S
C1069 C1065 1.376 . S
C1069 C1068 1.392 . S
C1069 H1081 0.929 . S
C1070 C1066 1.531 . S
C1070 H1082 0.960 1_554 S
C1070 H1083 0.962 . S
C1070 H1084 0.960 1_554 S
C1071 C1068 1.511 . S
C1071 H1085 0.961 . S
C1071 H1086 0.961 . S
C1071 H1087 0.961 1_554 S
C1072 C1073 1.370 . S
C1072 C1074 1.363 . S
C1072 H1088 0.931 . S
C1073 C1072 1.370 . S
C1073 C1077 1.408 1_554 S
C1074 C1072 1.363 . S
C1074 C1075 1.370 . S
C1074 C1078 1.524 . S
C1075 C1067 1.503 . S
C1075 C1074 1.370 . S
C1075 C1076 1.403 1_554 S
C1076 C1075 1.403 1_556 S
C1076 C1077 1.404 . S
C1076 C1079 1.539 . S
C1077 C1073 1.408 1_556 S
C1077 C1076 1.404 . S
C1077 H1089 0.930 . S
C1078 C1074 1.524 . S
C1078 H1090 0.956 . S
C1078 H1091 0.961 . S
C1078 H1092 0.961 . S
C1079 C1076 1.539 . S
C1079 H1093 0.958 . S
C1079 H1094 0.961 . S
C1079 H1095 0.960 . S
H1080 C1064 0.931 . S
H1081 C1069 0.929 . S
H1082 C1070 0.960 1_556 S
H1083 C1070 0.962 . S
H1084 C1070 0.960 1_556 S
H1085 C1071 0.961 . S
H1086 C1071 0.961 . S
H1087 C1071 0.961 1_556 S
H1088 C1072 0.931 . S
H1089 C1077 0.930 . S
H1090 C1078 0.956 . S
H1091 C1078 0.961 . S
H1092 C1078 0.961 . S
H1093 C1079 0.958 . S
H1094 C1079 0.961 . S
H1095 C1079 0.960 . S
C1096 C1097 1.391 . S
C1096 C1098 1.394 . S
C1096 H1112 0.931 . S
C1097 C1096 1.391 . S
C1097 C1101 1.376 . S
C1098 C1096 1.394 . S
C1098 C1099 1.369 . S
C1098 C1102 1.531 1_455 S
C1099 C1098 1.369 . S
C1099 C1100 1.410 . S
C1099 C1107 1.503 1_455 S
C1100 C1099 1.410 . S
C1100 C1101 1.392 . S
C1100 C1103 1.511 . S
C1101 C1097 1.376 . S
C1101 C1100 1.392 . S
C1101 H1113 0.929 . S
C1102 C1098 1.531 1_655 S
C1102 H1114 0.960 . S
C1102 H1115 0.962 . S
C1102 H1116 0.960 . S
C1103 C1100 1.511 . S
C1103 H1117 0.961 . S
C1103 H1118 0.961 . S
C1103 H1119 0.961 . S
C1104 C1105 1.370 . S
C1104 C1106 1.363 . S
C1104 H1120 0.931 . S
C1105 C1104 1.370 . S
C1105 C1109 1.408 . S
C1106 C1104 1.363 . S
C1106 C1107 1.370 . S
C1106 C1110 1.524 1_655 S
C1107 C1099 1.503 1_655 S
C1107 C1106 1.370 . S
C1107 C1108 1.403 . S
C1108 C1107 1.403 . S
C1108 C1109 1.404 . S
C1108 C1111 1.539 . S
C1109 C1105 1.408 . S
C1109 C1108 1.404 . S
C1109 H1121 0.930 . S
C1110 C1106 1.524 1_455 S
C1110 H1122 0.956 . S
C1110 H1123 0.961 . S
C1110 H1124 0.961 1_455 S
C1111 C1108 1.539 . S
C1111 H1125 0.958 . S
C1111 H1126 0.961 . S
C1111 H1127 0.960 1_655 S
H1112 C1096 0.931 . S
H1113 C1101 0.929 . S
H1114 C1102 0.960 . S
H1115 C1102 0.962 . S
H1116 C1102 0.960 . S
H1117 C1103 0.961 . S
H1118 C1103 0.961 . S
H1119 C1103 0.961 . S
H1120 C1104 0.931 . S
H1121 C1109 0.930 . S
H1122 C1110 0.956 . S
H1123 C1110 0.961 . S
H1124 C1110 0.961 1_655 S
H1125 C1111 0.958 . S
H1126 C1111 0.961 . S
H1127 C1111 0.960 1_455 S
C1128 C1129 1.391 . S
C1128 C1130 1.394 . S
C1128 H1144 0.931 . S
C1129 C1128 1.391 . S
C1129 C1133 1.376 . S
C1130 C1128 1.394 . S
C1130 C1131 1.369 . S
C1130 C1134 1.531 . S
C1131 C1130 1.369 . S
C1131 C1132 1.410 . S
C1131 C1139 1.503 . S
C1132 C1131 1.410 . S
C1132 C1133 1.392 . S
C1132 C1135 1.511 . S
C1133 C1129 1.376 . S
C1133 C1132 1.392 . S
C1133 H1145 0.929 . S
C1134 C1130 1.531 . S
C1134 H1146 0.960 . S
C1134 H1147 0.962 . S
C1134 H1148 0.960 . S
C1135 C1132 1.511 . S
C1135 H1149 0.961 . S
C1135 H1150 0.961 . S
C1135 H1151 0.961 . S
C1136 C1137 1.370 . S
C1136 C1138 1.363 . S
C1136 H1152 0.931 . S
C1137 C1136 1.370 . S
C1137 C1141 1.408 . S
C1138 C1136 1.363 . S
C1138 C1139 1.370 . S
C1138 C1142 1.524 . S
C1139 C1131 1.503 . S
C1139 C1138 1.370 . S
C1139 C1140 1.403 . S
C1140 C1139 1.403 . S
C1140 C1141 1.404 . S
C1140 C1143 1.539 . S
C1141 C1137 1.408 . S
C1141 C1140 1.404 . S
C1141 H1153 0.930 . S
C1142 C1138 1.524 . S
C1142 H1154 0.956 . S
C1142 H1155 0.961 . S
C1142 H1156 0.961 . S
C1143 C1140 1.539 . S
C1143 H1157 0.958 . S
C1143 H1158 0.961 . S
C1143 H1159 0.960 . S
H1144 C1128 0.931 . S
H1145 C1133 0.929 . S
H1146 C1134 0.960 . S
H1147 C1134 0.962 . S
H1148 C1134 0.960 . S
H1149 C1135 0.961 . S
H1150 C1135 0.961 . S
H1151 C1135 0.961 . S
H1152 C1136 0.931 . S
H1153 C1141 0.930 . S
H1154 C1142 0.956 . S
H1155 C1142 0.961 . S
H1156 C1142 0.961 . S
H1157 C1143 0.958 . S
H1158 C1143 0.961 . S
H1159 C1143 0.960 . S
C1160 C1161 1.391 . S
C1160 C1162 1.394 . S
C1160 H1176 0.931 . S
C1161 C1160 1.391 . S
C1161 C1165 1.376 . S
C1162 C1160 1.394 . S
C1162 C1163 1.369 . S
C1162 C1166 1.531 . S
C1163 C1162 1.369 . S
C1163 C1164 1.410 . S
C1163 C1171 1.503 . S
C1164 C1163 1.410 . S
C1164 C1165 1.392 . S
C1164 C1167 1.511 . S
C1165 C1161 1.376 . S
C1165 C1164 1.392 . S
C1165 H1177 0.929 . S
C1166 C1162 1.531 . S
C1166 H1178 0.960 . S
C1166 H1179 0.962 . S
C1166 H1180 0.960 . S
C1167 C1164 1.511 . S
C1167 H1181 0.961 . S
C1167 H1182 0.961 . S
C1167 H1183 0.961 . S
C1168 C1169 1.370 . S
C1168 C1170 1.363 . S
C1168 H1184 0.931 . S
C1169 C1168 1.370 . S
C1169 C1173 1.408 . S
C1170 C1168 1.363 . S
C1170 C1171 1.370 . S
C1170 C1174 1.524 . S
C1171 C1163 1.503 . S
C1171 C1170 1.370 . S
C1171 C1172 1.403 . S
C1172 C1171 1.403 . S
C1172 C1173 1.404 . S
C1172 C1175 1.539 . S
C1173 C1169 1.408 . S
C1173 C1172 1.404 . S
C1173 H1185 0.930 . S
C1174 C1170 1.524 . S
C1174 H1186 0.956 . S
C1174 H1187 0.961 . S
C1174 H1188 0.961 . S
C1175 C1172 1.539 . S
C1175 H1189 0.958 . S
C1175 H1190 0.961 . S
C1175 H1191 0.960 . S
H1176 C1160 0.931 . S
H1177 C1165 0.929 . S
H1178 C1166 0.960 . S
H1179 C1166 0.962 . S
H1180 C1166 0.960 . S
H1181 C1167 0.961 . S
H1182 C1167 0.961 . S
H1183 C1167 0.961 . S
H1184 C1168 0.931 . S
H1185 C1173 0.930 . S
H1186 C1174 0.956 . S
H1187 C1174 0.961 . S
H1188 C1174 0.961 . S
H1189 C1175 0.958 . S
H1190 C1175 0.961 . S
H1191 C1175 0.960 . S
C1192 C1193 1.391 . S
C1192 C1194 1.394 1_545 S
C1192 H1208 0.931 . S
C1193 C1192 1.391 . S
C1193 C1197 1.376 . S
C1194 C1192 1.394 1_565 S
C1194 C1195 1.369 1_565 S
C1194 C1198 1.531 . S
C1195 C1194 1.369 1_545 S
C1195 C1196 1.410 . S
C1195 C1203 1.503 1_645 S
C1196 C1195 1.410 . S
C1196 C1197 1.392 . S
C1196 C1199 1.511 1_655 S
C1197 C1193 1.376 . S
C1197 C1196 1.392 . S
C1197 H1209 0.929 . S
C1198 C1194 1.531 . S
C1198 H1210 0.960 . S
C1198 H1211 0.962 . S
C1198 H1212 0.960 . S
C1199 C1196 1.511 1_455 S
C1199 H1213 0.961 . S
C1199 H1214 0.961 . S
C1199 H1215 0.961 . S
C1200 C1201 1.370 . S
C1200 C1202 1.363 . S
C1200 H1216 0.931 . S
C1201 C1200 1.370 . S
C1201 C1205 1.408 . S
C1202 C1200 1.363 . S
C1202 C1203 1.370 . S
C1202 C1206 1.524 . S
C1203 C1195 1.503 1_465 S
C1203 C1202 1.370 . S
C1203 C1204 1.403 . S
C1204 C1203 1.403 . S
C1204 C1205 1.404 . S
C1204 C1207 1.539 1_565 S
C1205 C1201 1.408 . S
C1205 C1204 1.404 . S
C1205 H1217 0.930 . S
C1206 C1202 1.524 . S
C1206 H1218 0.956 1_455 S
C1206 H1219 0.961 . S
C1206 H1220 0.961 . S
C1207 C1204 1.539 1_545 S
C1207 H1221 0.958 . S
C1207 H1222 0.961 . S
C1207 H1223 0.960 . S
H1208 C1192 0.931 . S
H1209 C1197 0.929 . S
H1210 C1198 0.960 . S
H1211 C1198 0.962 . S
H1212 C1198 0.960 . S
H1213 C1199 0.961 . S
H1214 C1199 0.961 . S
H1215 C1199 0.961 . S
H1216 C1200 0.931 . S
H1217 C1205 0.930 . S
H1218 C1206 0.956 1_655 S
H1219 C1206 0.961 . S
H1220 C1206 0.961 . S
H1221 C1207 0.958 . S
H1222 C1207 0.961 . S
H1223 C1207 0.960 . S
C1224 C1225 1.391 . S
C1224 C1226 1.394 . S
C1224 H1240 0.931 . S
C1225 C1224 1.391 . S
C1225 C1229 1.376 . S
C1226 C1224 1.394 . S
C1226 C1227 1.369 . S
C1226 C1230 1.531 . S
C1227 C1226 1.369 . S
C1227 C1228 1.410 . S
C1227 C1235 1.503 . S
C1228 C1227 1.410 . S
C1228 C1229 1.392 . S
C1228 C1231 1.511 . S
C1229 C1225 1.376 . S
C1229 C1228 1.392 . S
C1229 H1241 0.929 . S
C1230 C1226 1.531 . S
C1230 H1242 0.960 . S
C1230 H1243 0.962 . S
C1230 H1244 0.960 . S
C1231 C1228 1.511 . S
C1231 H1245 0.961 . S
C1231 H1246 0.961 . S
C1231 H1247 0.961 . S
C1232 C1233 1.370 . S
C1232 C1234 1.363 . S
C1232 H1248 0.931 . S
C1233 C1232 1.370 . S
C1233 C1237 1.408 . S
C1234 C1232 1.363 . S
C1234 C1235 1.370 . S
C1234 C1238 1.524 . S
C1235 C1227 1.503 . S
C1235 C1234 1.370 . S
C1235 C1236 1.403 . S
C1236 C1235 1.403 . S
C1236 C1237 1.404 . S
C1236 C1239 1.539 . S
C1237 C1233 1.408 . S
C1237 C1236 1.404 . S
C1237 H1249 0.930 . S
C1238 C1234 1.524 . S
C1238 H1250 0.956 . S
C1238 H1251 0.961 . S
C1238 H1252 0.961 . S
C1239 C1236 1.539 . S
C1239 H1253 0.958 . S
C1239 H1254 0.961 . S
C1239 H1255 0.960 . S
H1240 C1224 0.931 . S
H1241 C1229 0.929 . S
H1242 C1230 0.960 . S
H1243 C1230 0.962 . S
H1244 C1230 0.960 . S
H1245 C1231 0.961 . S
H1246 C1231 0.961 . S
H1247 C1231 0.961 . S
H1248 C1232 0.931 . S
H1249 C1237 0.930 . S
H1250 C1238 0.956 . S
H1251 C1238 0.961 . S
H1252 C1238 0.961 . S
H1253 C1239 0.958 . S
H1254 C1239 0.961 . S
H1255 C1239 0.960 . S
C1256 C1257 1.391 . S
C1256 C1258 1.394 . S
C1256 H1272 0.931 . S
C1257 C1256 1.391 . S
C1257 C1261 1.376 . S
C1258 C1256 1.394 . S
C1258 C1259 1.369 . S
C1258 C1262 1.531 . S
C1259 C1258 1.369 . S
C1259 C1260 1.410 . S
C1259 C1267 1.503 1_565 S
C1260 C1259 1.410 . S
C1260 C1261 1.392 . S
C1260 C1263 1.511 . S
C1261 C1257 1.376 . S
C1261 C1260 1.392 . S
C1261 H1273 0.929 . S
C1262 C1258 1.531 . S
C1262 H1274 0.960 . S
C1262 H1275 0.962 1_565 S
C1262 H1276 0.960 . S
C1263 C1260 1.511 . S
C1263 H1277 0.961 . S
C1263 H1278 0.961 . S
C1263 H1279 0.961 . S
C1264 C1265 1.370 . S
C1264 C1266 1.363 . S
C1264 H1280 0.931 . S
C1265 C1264 1.370 . S
C1265 C1269 1.408 . S
C1266 C1264 1.363 . S
C1266 C1267 1.370 . S
C1266 C1270 1.524 . S
C1267 C1259 1.503 1_545 S
C1267 C1266 1.370 . S
C1267 C1268 1.403 1_545 S
C1268 C1267 1.403 1_565 S
C1268 C1269 1.404 1_565 S
C1268 C1271 1.539 . S
C1269 C1265 1.408 . S
C1269 C1268 1.404 1_545 S
C1269 H1281 0.930 1_545 S
C1270 C1266 1.524 . S
C1270 H1282 0.956 . S
C1270 H1283 0.961 . S
C1270 H1284 0.961 . S
C1271 C1268 1.539 . S
C1271 H1285 0.958 . S
C1271 H1286 0.961 . S
C1271 H1287 0.960 . S
H1272 C1256 0.931 . S
H1273 C1261 0.929 . S
H1274 C1262 0.960 . S
H1275 C1262 0.962 1_545 S
H1276 C1262 0.960 . S
H1277 C1263 0.961 . S
H1278 C1263 0.961 . S
H1279 C1263 0.961 . S
H1280 C1264 0.931 . S
H1281 C1269 0.930 1_565 S
H1282 C1270 0.956 . S
H1283 C1270 0.961 . S
H1284 C1270 0.961 . S
H1285 C1271 0.958 . S
H1286 C1271 0.961 . S
H1287 C1271 0.960 . S
C265 C28 1.637 . S
C273 C58 1.699 . S
C297 C25 2.017 . S
C305 C94 2.069 . S
C329 C120 1.683 . S
C337 C57 1.665 . S
C361 C87 2.072 . S
C369 C123 2.051 . S
C393 C127 1.665 . S
C401 C157 1.694 . S
C425 C193 2.050 . S
C433 C124 2.046 . S
C457 C156 1.662 . S
C465 C21 1.693 . S
C489 C186 2.016 . S
C497 C24 2.074 . S
C521 C190 1.698 . S
C529 C226 1.651 . S
C553 C223 2.017 . S
C561 C160 2.069 . S
C585 C252 1.679 . S
C593 C189 1.669 . S
C617 C255 2.064 . S
C625 C153 2.044 . S
C649 C259 1.645 . S
C657 C91 1.698 . S
C681 C61 2.086 . S
C689 C256 2.038 . S
C713 C219 1.687 . S
C721 C90 1.662 . S
C745 C222 2.036 . S
C753 C54 2.057 . S
C777 C27 1.102 1_655 S
C785 C23 1.117 . S
C809 C60 1.094 . S
C817 C56 1.124 1_565 S
C841 C93 1.124 1_545 S
C849 C89 1.119 . S
C873 C122 1.073 1_455 S
C881 C126 1.138 . S
C905 C159 1.116 1_545 S
C913 C155 1.122 . S
C937 C192 1.100 . S
C945 C188 1.122 1_565 S
C969 C225 1.099 . S
C977 C221 1.122 . S
C1001 C254 1.162 . S
C1009 C258 1.097 . S
C1033 C257 0.782 . S
C1041 C22 0.822 1_554 S
C1065 C26 0.849 . S
C1073 C253 0.791 1_554 S
C1097 C59 0.828 . S
C1105 C88 0.798 . S
C1129 C224 0.819 . S
C1137 C121 0.802 . S
C1161 C125 0.767 . S
C1169 C220 0.825 . S
C1193 C187 0.826 . S
C1201 C158 0.805 . S
C1225 C191 0.841 . S
C1233 C154 0.798 . S
C1257 C92 0.774 . S
C1265 C55 0.821 . S
