# Generated by pormake.
# Topology nfb, (4)-cn, num edge types: 1
# Building blocks:
#     Node 0, Type 0, BuildingBlock: ICAMEG_clean_sbu_1, # of connection points: 4
#     Node 1, Type 0, BuildingBlock: ICAMEG_clean_sbu_1, # of connection points: 4
#     Node 2, Type 0, BuildingBlock: ICAMEG_clean_sbu_1, # of connection points: 4
#     Node 3, Type 0, BuildingBlock: ICAMEG_clean_sbu_1, # of connection points: 4
#     Node 4, Type 0, BuildingBlock: ICAMEG_clean_sbu_1, # of connection points: 4
#     Node 5, Type 0, BuildingBlock: ICAMEG_clean_sbu_1, # of connection points: 4
#     Node 6, Type 0, BuildingBlock: ICAMEG_clean_sbu_1, # of connection points: 4
#     Node 7, Type 0, BuildingBlock: ICAMEG_clean_sbu_1, # of connection points: 4
#     Node 8, Type 0, BuildingBlock: ICAMEG_clean_sbu_1, # of connection points: 4
#     Node 9, Type 0, BuildingBlock: ICAMEG_clean_sbu_1, # of connection points: 4
#     Node 10, Type 0, BuildingBlock: ICAMEG_clean_sbu_1, # of connection points: 4
#     Node 11, Type 0, BuildingBlock: ICAMEG_clean_sbu_1, # of connection points: 4
#     Node 12, Type 0, BuildingBlock: ICAMEG_clean_sbu_1, # of connection points: 4
#     Node 13, Type 0, BuildingBlock: ICAMEG_clean_sbu_1, # of connection points: 4
#     Node 14, Type 0, BuildingBlock: ICAMEG_clean_sbu_1, # of connection points: 4
#     Node 15, Type 0, BuildingBlock: ICAMEG_clean_sbu_1, # of connection points: 4
#     Node 16, Type 0, BuildingBlock: ICAMEG_clean_sbu_1, # of connection points: 4
#     Node 17, Type 0, BuildingBlock: ICAMEG_clean_sbu_1, # of connection points: 4
#     Node 18, Type 0, BuildingBlock: ICAMEG_clean_sbu_1, # of connection points: 4
#     Node 19, Type 0, BuildingBlock: ICAMEG_clean_sbu_1, # of connection points: 4
#     Node 20, Type 0, BuildingBlock: ICAMEG_clean_sbu_1, # of connection points: 4
#     Node 21, Type 0, BuildingBlock: ICAMEG_clean_sbu_1, # of connection points: 4
#     Node 22, Type 0, BuildingBlock: ICAMEG_clean_sbu_1, # of connection points: 4
#     Node 23, Type 0, BuildingBlock: ICAMEG_clean_sbu_1, # of connection points: 4
#     Node 24, Type 0, BuildingBlock: ICAMEG_clean_sbu_1, # of connection points: 4
#     Node 25, Type 0, BuildingBlock: ICAMEG_clean_sbu_1, # of connection points: 4
#     Node 26, Type 0, BuildingBlock: ICAMEG_clean_sbu_1, # of connection points: 4
#     Node 27, Type 0, BuildingBlock: ICAMEG_clean_sbu_1, # of connection points: 4
#     Node 28, Type 0, BuildingBlock: ICAMEG_clean_sbu_1, # of connection points: 4
#     Node 29, Type 0, BuildingBlock: ICAMEG_clean_sbu_1, # of connection points: 4
#     Node 30, Type 0, BuildingBlock: ICAMEG_clean_sbu_1, # of connection points: 4
#     Node 31, Type 0, BuildingBlock: ICAMEG_clean_sbu_1, # of connection points: 4
#     Node 32, Type 0, BuildingBlock: ICAMEG_clean_sbu_1, # of connection points: 4
#     Node 33, Type 0, BuildingBlock: ICAMEG_clean_sbu_1, # of connection points: 4
#     Node 34, Type 0, BuildingBlock: ICAMEG_clean_sbu_1, # of connection points: 4
#     Node 35, Type 0, BuildingBlock: ICAMEG_clean_sbu_1, # of connection points: 4
#     Node 36, Type 0, BuildingBlock: ICAMEG_clean_sbu_1, # of connection points: 4
#     Node 37, Type 0, BuildingBlock: ICAMEG_clean_sbu_1, # of connection points: 4
#     Node 38, Type 0, BuildingBlock: ICAMEG_clean_sbu_1, # of connection points: 4
#     Node 39, Type 0, BuildingBlock: ICAMEG_clean_sbu_1, # of connection points: 4
#     Node 40, Type 0, BuildingBlock: ICAMEG_clean_sbu_1, # of connection points: 4
#     Node 41, Type 0, BuildingBlock: ICAMEG_clean_sbu_1, # of connection points: 4
#     Node 42, Type 0, BuildingBlock: ICAMEG_clean_sbu_1, # of connection points: 4
#     Node 43, Type 0, BuildingBlock: ICAMEG_clean_sbu_1, # of connection points: 4
#     Node 44, Type 0, BuildingBlock: ICAMEG_clean_sbu_1, # of connection points: 4
#     Node 45, Type 0, BuildingBlock: ICAMEG_clean_sbu_1, # of connection points: 4
#     Node 46, Type 0, BuildingBlock: ICAMEG_clean_sbu_1, # of connection points: 4
#     Node 47, Type 0, BuildingBlock: ICAMEG_clean_sbu_1, # of connection points: 4
#     Edge 48, Type (0, 0), BuildingBlock: XIVTED_clean_linker_0, # of connection points: 2
#     Edge 49, Type (0, 0), BuildingBlock: XIVTED_clean_linker_0, # of connection points: 2
#     Edge 50, Type (0, 0), BuildingBlock: XIVTED_clean_linker_0, # of connection points: 2
#     Edge 51, Type (0, 0), BuildingBlock: XIVTED_clean_linker_0, # of connection points: 2
#     Edge 52, Type (0, 0), BuildingBlock: XIVTED_clean_linker_0, # of connection points: 2
#     Edge 53, Type (0, 0), BuildingBlock: XIVTED_clean_linker_0, # of connection points: 2
#     Edge 54, Type (0, 0), BuildingBlock: XIVTED_clean_linker_0, # of connection points: 2
#     Edge 55, Type (0, 0), BuildingBlock: XIVTED_clean_linker_0, # of connection points: 2
#     Edge 56, Type (0, 0), BuildingBlock: XIVTED_clean_linker_0, # of connection points: 2
#     Edge 57, Type (0, 0), BuildingBlock: XIVTED_clean_linker_0, # of connection points: 2
#     Edge 58, Type (0, 0), BuildingBlock: XIVTED_clean_linker_0, # of connection points: 2
#     Edge 59, Type (0, 0), BuildingBlock: XIVTED_clean_linker_0, # of connection points: 2
#     Edge 60, Type (0, 0), BuildingBlock: XIVTED_clean_linker_0, # of connection points: 2
#     Edge 61, Type (0, 0), BuildingBlock: XIVTED_clean_linker_0, # of connection points: 2
#     Edge 62, Type (0, 0), BuildingBlock: XIVTED_clean_linker_0, # of connection points: 2
#     Edge 63, Type (0, 0), BuildingBlock: XIVTED_clean_linker_0, # of connection points: 2
#     Edge 64, Type (0, 0), BuildingBlock: XIVTED_clean_linker_0, # of connection points: 2
#     Edge 65, Type (0, 0), BuildingBlock: XIVTED_clean_linker_0, # of connection points: 2
#     Edge 66, Type (0, 0), BuildingBlock: XIVTED_clean_linker_0, # of connection points: 2
#     Edge 67, Type (0, 0), BuildingBlock: XIVTED_clean_linker_0, # of connection points: 2
#     Edge 68, Type (0, 0), BuildingBlock: XIVTED_clean_linker_0, # of connection points: 2
#     Edge 69, Type (0, 0), BuildingBlock: XIVTED_clean_linker_0, # of connection points: 2
#     Edge 70, Type (0, 0), BuildingBlock: XIVTED_clean_linker_0, # of connection points: 2
#     Edge 71, Type (0, 0), BuildingBlock: XIVTED_clean_linker_0, # of connection points: 2
#     Edge 72, Type (0, 0), BuildingBlock: XIVTED_clean_linker_0, # of connection points: 2
#     Edge 73, Type (0, 0), BuildingBlock: XIVTED_clean_linker_0, # of connection points: 2
#     Edge 74, Type (0, 0), BuildingBlock: XIVTED_clean_linker_0, # of connection points: 2
#     Edge 75, Type (0, 0), BuildingBlock: XIVTED_clean_linker_0, # of connection points: 2
#     Edge 76, Type (0, 0), BuildingBlock: XIVTED_clean_linker_0, # of connection points: 2
#     Edge 77, Type (0, 0), BuildingBlock: XIVTED_clean_linker_0, # of connection points: 2
#     Edge 78, Type (0, 0), BuildingBlock: XIVTED_clean_linker_0, # of connection points: 2
#     Edge 79, Type (0, 0), BuildingBlock: XIVTED_clean_linker_0, # of connection points: 2
#     Edge 80, Type (0, 0), BuildingBlock: XIVTED_clean_linker_0, # of connection points: 2
#     Edge 81, Type (0, 0), BuildingBlock: XIVTED_clean_linker_0, # of connection points: 2
#     Edge 82, Type (0, 0), BuildingBlock: XIVTED_clean_linker_0, # of connection points: 2
#     Edge 83, Type (0, 0), BuildingBlock: XIVTED_clean_linker_0, # of connection points: 2
#     Edge 84, Type (0, 0), BuildingBlock: XIVTED_clean_linker_0, # of connection points: 2
#     Edge 85, Type (0, 0), BuildingBlock: XIVTED_clean_linker_0, # of connection points: 2
#     Edge 86, Type (0, 0), BuildingBlock: XIVTED_clean_linker_0, # of connection points: 2
#     Edge 87, Type (0, 0), BuildingBlock: XIVTED_clean_linker_0, # of connection points: 2
#     Edge 88, Type (0, 0), BuildingBlock: XIVTED_clean_linker_0, # of connection points: 2
#     Edge 89, Type (0, 0), BuildingBlock: XIVTED_clean_linker_0, # of connection points: 2
#     Edge 90, Type (0, 0), BuildingBlock: XIVTED_clean_linker_0, # of connection points: 2
#     Edge 91, Type (0, 0), BuildingBlock: XIVTED_clean_linker_0, # of connection points: 2
#     Edge 92, Type (0, 0), BuildingBlock: XIVTED_clean_linker_0, # of connection points: 2
#     Edge 93, Type (0, 0), BuildingBlock: XIVTED_clean_linker_0, # of connection points: 2
#     Edge 94, Type (0, 0), BuildingBlock: XIVTED_clean_linker_0, # of connection points: 2
#     Edge 95, Type (0, 0), BuildingBlock: XIVTED_clean_linker_0, # of connection points: 2
#     Edge 96, Type (0, 0), BuildingBlock: XIVTED_clean_linker_0, # of connection points: 2
#     Edge 97, Type (0, 0), BuildingBlock: XIVTED_clean_linker_0, # of connection points: 2
#     Edge 98, Type (0, 0), BuildingBlock: XIVTED_clean_linker_0, # of connection points: 2
#     Edge 99, Type (0, 0), BuildingBlock: XIVTED_clean_linker_0, # of connection points: 2
#     Edge 100, Type (0, 0), BuildingBlock: XIVTED_clean_linker_0, # of connection points: 2
#     Edge 101, Type (0, 0), BuildingBlock: XIVTED_clean_linker_0, # of connection points: 2
#     Edge 102, Type (0, 0), BuildingBlock: XIVTED_clean_linker_0, # of connection points: 2
#     Edge 103, Type (0, 0), BuildingBlock: XIVTED_clean_linker_0, # of connection points: 2
#     Edge 104, Type (0, 0), BuildingBlock: XIVTED_clean_linker_0, # of connection points: 2
#     Edge 105, Type (0, 0), BuildingBlock: XIVTED_clean_linker_0, # of connection points: 2
#     Edge 106, Type (0, 0), BuildingBlock: XIVTED_clean_linker_0, # of connection points: 2
#     Edge 107, Type (0, 0), BuildingBlock: XIVTED_clean_linker_0, # of connection points: 2
#     Edge 108, Type (0, 0), BuildingBlock: XIVTED_clean_linker_0, # of connection points: 2
#     Edge 109, Type (0, 0), BuildingBlock: XIVTED_clean_linker_0, # of connection points: 2
#     Edge 110, Type (0, 0), BuildingBlock: XIVTED_clean_linker_0, # of connection points: 2
#     Edge 111, Type (0, 0), BuildingBlock: XIVTED_clean_linker_0, # of connection points: 2
#     Edge 112, Type (0, 0), BuildingBlock: XIVTED_clean_linker_0, # of connection points: 2
#     Edge 113, Type (0, 0), BuildingBlock: XIVTED_clean_linker_0, # of connection points: 2
#     Edge 114, Type (0, 0), BuildingBlock: XIVTED_clean_linker_0, # of connection points: 2
#     Edge 115, Type (0, 0), BuildingBlock: XIVTED_clean_linker_0, # of connection points: 2
#     Edge 116, Type (0, 0), BuildingBlock: XIVTED_clean_linker_0, # of connection points: 2
#     Edge 117, Type (0, 0), BuildingBlock: XIVTED_clean_linker_0, # of connection points: 2
#     Edge 118, Type (0, 0), BuildingBlock: XIVTED_clean_linker_0, # of connection points: 2
#     Edge 119, Type (0, 0), BuildingBlock: XIVTED_clean_linker_0, # of connection points: 2
#     Edge 120, Type (0, 0), BuildingBlock: XIVTED_clean_linker_0, # of connection points: 2
#     Edge 121, Type (0, 0), BuildingBlock: XIVTED_clean_linker_0, # of connection points: 2
#     Edge 122, Type (0, 0), BuildingBlock: XIVTED_clean_linker_0, # of connection points: 2
#     Edge 123, Type (0, 0), BuildingBlock: XIVTED_clean_linker_0, # of connection points: 2
#     Edge 124, Type (0, 0), BuildingBlock: XIVTED_clean_linker_0, # of connection points: 2
#     Edge 125, Type (0, 0), BuildingBlock: XIVTED_clean_linker_0, # of connection points: 2
#     Edge 126, Type (0, 0), BuildingBlock: XIVTED_clean_linker_0, # of connection points: 2
#     Edge 127, Type (0, 0), BuildingBlock: XIVTED_clean_linker_0, # of connection points: 2
#     Edge 128, Type (0, 0), BuildingBlock: XIVTED_clean_linker_0, # of connection points: 2
#     Edge 129, Type (0, 0), BuildingBlock: XIVTED_clean_linker_0, # of connection points: 2
#     Edge 130, Type (0, 0), BuildingBlock: XIVTED_clean_linker_0, # of connection points: 2
#     Edge 131, Type (0, 0), BuildingBlock: XIVTED_clean_linker_0, # of connection points: 2
#     Edge 132, Type (0, 0), BuildingBlock: XIVTED_clean_linker_0, # of connection points: 2
#     Edge 133, Type (0, 0), BuildingBlock: XIVTED_clean_linker_0, # of connection points: 2
#     Edge 134, Type (0, 0), BuildingBlock: XIVTED_clean_linker_0, # of connection points: 2
#     Edge 135, Type (0, 0), BuildingBlock: XIVTED_clean_linker_0, # of connection points: 2
#     Edge 136, Type (0, 0), BuildingBlock: XIVTED_clean_linker_0, # of connection points: 2
#     Edge 137, Type (0, 0), BuildingBlock: XIVTED_clean_linker_0, # of connection points: 2
#     Edge 138, Type (0, 0), BuildingBlock: XIVTED_clean_linker_0, # of connection points: 2
#     Edge 139, Type (0, 0), BuildingBlock: XIVTED_clean_linker_0, # of connection points: 2
#     Edge 140, Type (0, 0), BuildingBlock: XIVTED_clean_linker_0, # of connection points: 2
#     Edge 141, Type (0, 0), BuildingBlock: XIVTED_clean_linker_0, # of connection points: 2
#     Edge 142, Type (0, 0), BuildingBlock: XIVTED_clean_linker_0, # of connection points: 2
#     Edge 143, Type (0, 0), BuildingBlock: XIVTED_clean_linker_0, # of connection points: 2
# Relax obj value: 0.318
# Max RMSD: 0.135
# Mean RMSD: 0.107
data_MOF--net-nfb--node1-ICAMEG_clean_sbu_1--edge1-XIVTED_clean_linker_0
_symmetry_space_group_name_H-M    P1
_symmetry_Int_Tables_number       1
_symmetry_cell_setting            triclinic
loop_
_symmetry_equiv_pos_as_xyz
'x, y, z'
_cell_length_a     62.770853
_cell_length_b     62.864261
_cell_length_c     62.859232
_cell_angle_alpha  90.504038
_cell_angle_beta   91.542891
_cell_angle_gamma 93.049226
loop_
_atom_site_label
_atom_site_type_symbol
_atom_site_fract_x
_atom_site_fract_y
_atom_site_fract_z
_atom_type_partial_charge
Co0 Co 0.12042 0.10293 0.39926 0.0
Co1 Co 0.10542 0.14003 0.43546 0.0
O2 O 0.12417 0.13084 0.41335 0.0
C3 C 0.16547 0.10692 0.41482 0.0
O4 O 0.15752 0.11251 0.433 0.0
C5 C 0.10819 0.1765 0.40578 0.0
O6 O 0.10756 0.16302 0.3897 0.0
O7 O 0.08046 0.13421 0.41626 0.0
O8 O 0.08778 0.10383 0.39954 0.0
H9 H 0.04042 0.13424 0.48051 0.0
H10 H 0.1486 0.13638 0.37984 0.0
O11 O 0.15281 0.1017 0.39909 0.0
H12 H 0.0922 0.11827 0.32558 0.0
H13 H 0.13926 0.04677 0.34641 0.0
H14 H 0.09176 0.06442 0.4045 0.0
H15 H 0.09247 0.1 0.36014 0.0
H16 H 0.14294 0.08196 0.3643 0.0
O17 O 0.10794 0.16988 0.42484 0.0
H18 H 0.06506 0.12229 0.45349 0.0
H19 H 0.10496 0.17837 0.46367 0.0
H20 H 0.08737 0.02916 0.38691 0.0
H21 H 0.14911 0.15484 0.34539 0.0
H22 H 0.11113 0.02021 0.35757 0.0
H23 H 0.12071 0.14588 0.31801 0.0
O24 O 0.1203 0.08826 0.42712 0.0
H25 H 0.17913 0.1705 0.45477 0.0
H26 H 0.11623 0.12897 0.48041 0.0
H27 H 0.14755 0.1358 0.50447 0.0
H28 H 0.17929 0.15673 0.4917 0.0
H29 H 0.14748 0.16315 0.43116 0.0
H30 H 0.0804 0.19126 0.49019 0.0
H31 H 0.04802 0.16898 0.49907 0.0
O32 O 0.10204 0.11053 0.44687 0.0
C33 C 0.07463 0.11767 0.40532 0.0
C34 C 0.05456 0.14402 0.47692 0.0
C35 C 0.07699 0.176 0.48238 0.0
N36 N 0.08653 0.14952 0.45712 0.0
C37 C 0.06863 0.13728 0.46171 0.0
C38 C 0.0908 0.16867 0.46724 0.0
C39 C 0.05881 0.16352 0.4873 0.0
C40 C 0.13633 0.13222 0.36792 0.0
N41 N 0.12055 0.1171 0.37198 0.0
C42 C 0.13664 0.14281 0.34848 0.0
C43 C 0.12068 0.13779 0.33314 0.0
C44 C 0.10466 0.12233 0.33739 0.0
C45 C 0.10484 0.11209 0.35702 0.0
C46 C 0.12874 0.05053 0.35911 0.0
C47 C 0.10211 0.06066 0.39168 0.0
C48 C 0.13078 0.0704 0.36933 0.0
N49 N 0.11744 0.07528 0.38527 0.0
C50 C 0.09959 0.04065 0.38183 0.0
C51 C 0.11297 0.03562 0.3654 0.0
C52 C 0.10998 0.09259 0.4436 0.0
C53 C 0.16537 0.16141 0.46054 0.0
C54 C 0.13002 0.138 0.47468 0.0
C55 C 0.14768 0.14187 0.48841 0.0
C56 C 0.16547 0.15364 0.48124 0.0
N57 N 0.13003 0.1457 0.45439 0.0
C58 C 0.14739 0.15728 0.44727 0.0
Co59 Co 0.36067 0.64236 0.91615 0.0
Co60 Co 0.37257 0.63437 0.86378 0.0
O61 O 0.37565 0.62841 0.89395 0.0
C62 C 0.40581 0.64886 0.93168 0.0
O63 O 0.41051 0.65969 0.91453 0.0
C64 C 0.3612 0.58845 0.86852 0.0
O65 O 0.34751 0.59522 0.8821 0.0
O66 O 0.3408 0.63247 0.86484 0.0
O67 O 0.33418 0.64324 0.89804 0.0
H68 H 0.34366 0.6703 0.79887 0.0
H69 H 0.38193 0.60231 0.92558 0.0
O70 O 0.38686 0.6415 0.93475 0.0
H71 H 0.30609 0.58718 0.94119 0.0
H72 H 0.33994 0.65399 0.99198 0.0
H73 H 0.3321 0.67837 0.91797 0.0
H74 H 0.31859 0.62261 0.92861 0.0
H75 H 0.35886 0.63684 0.96314 0.0
O76 O 0.37259 0.6022 0.85822 0.0
H77 H 0.34752 0.66346 0.83735 0.0
H78 H 0.39148 0.61603 0.82529 0.0
H79 H 0.31275 0.69588 0.9463 0.0
H80 H 0.37015 0.56675 0.93839 0.0
H81 H 0.31632 0.68349 0.98352 0.0
H82 H 0.33197 0.55898 0.94624 0.0
O83 O 0.37026 0.67067 0.90528 0.0
H84 H 0.4467 0.61079 0.87894 0.0
H85 H 0.40406 0.66576 0.84554 0.0
H86 H 0.44335 0.66929 0.84456 0.0
H87 H 0.46494 0.64164 0.86131 0.0
H88 H 0.40739 0.60797 0.87968 0.0
H89 H 0.38798 0.6222 0.78665 0.0
H90 H 0.36399 0.64958 0.77324 0.0
O91 O 0.37248 0.6665 0.86973 0.0
C92 C 0.32811 0.63809 0.8791 0.0
C93 C 0.35422 0.65838 0.80452 0.0
C94 C 0.37907 0.63136 0.79766 0.0
N95 N 0.36984 0.6395 0.83352 0.0
C96 C 0.35652 0.65449 0.82629 0.0
C97 C 0.38095 0.6279 0.81954 0.0
C98 C 0.36561 0.64673 0.79015 0.0
C99 C 0.36533 0.59914 0.9292 0.0
N100 N 0.35101 0.61459 0.9265 0.0
C101 C 0.35874 0.57894 0.93636 0.0
C102 C 0.33731 0.57458 0.94072 0.0
C103 C 0.32278 0.59039 0.93787 0.0
C104 C 0.32994 0.6104 0.93068 0.0
C105 C 0.33811 0.65945 0.97579 0.0
C106 C 0.33377 0.67292 0.93416 0.0
C107 C 0.34882 0.64982 0.95939 0.0
N108 N 0.34632 0.6564 0.93885 0.0
C109 C 0.32282 0.68293 0.95014 0.0
C110 C 0.32492 0.67602 0.97105 0.0
C111 C 0.37259 0.67825 0.88664 0.0
C112 C 0.43746 0.6229 0.87152 0.0
C113 C 0.41335 0.65369 0.8529 0.0
C114 C 0.43559 0.65575 0.85226 0.0
C115 C 0.44769 0.64023 0.86165 0.0
N116 N 0.40344 0.63661 0.86253 0.0
C117 C 0.4152 0.62135 0.87182 0.0
Co118 Co 0.88235 0.9117 0.39759 0.0
Co119 Co 0.89971 0.87353 0.43127 0.0
O120 O 0.87918 0.88355 0.41045 0.0
C121 C 0.83826 0.90793 0.41356 0.0
O122 O 0.84721 0.90207 0.43152 0.0
C123 C 0.89505 0.83763 0.4004 0.0
O124 O 0.8996 0.85124 0.38525 0.0
O125 O 0.92284 0.87896 0.41108 0.0
O126 O 0.91493 0.91044 0.39714 0.0
H127 H 0.96973 0.87609 0.47206 0.0
H128 H 0.85307 0.87834 0.37748 0.0
O129 O 0.85004 0.91323 0.39794 0.0
H130 H 0.90506 0.89822 0.3227 0.0
H131 H 0.86021 0.96965 0.34822 0.0
H132 H 0.91175 0.9498 0.40425 0.0
H133 H 0.90717 0.91589 0.35794 0.0
H134 H 0.85768 0.93385 0.36409 0.0
O135 O 0.89444 0.84394 0.41966 0.0
H136 H 0.94248 0.88949 0.4474 0.0
H137 H 0.90163 0.83484 0.45831 0.0
H138 H 0.91502 0.98568 0.38866 0.0
H139 H 0.85026 0.86038 0.34239 0.0
H140 H 0.88915 0.99578 0.36043 0.0
H141 H 0.87642 0.87027 0.31473 0.0
O142 O 0.88467 0.92545 0.42623 0.0
H143 H 0.82727 0.84536 0.45343 0.0
H144 H 0.89415 0.88428 0.47703 0.0
H145 H 0.86534 0.87815 0.50251 0.0
H146 H 0.8316 0.85853 0.49076 0.0
H147 H 0.85646 0.852 0.42841 0.0
H148 H 0.92853 0.82079 0.48303 0.0
H149 H 0.96294 0.8414 0.48989 0.0
O150 O 0.90537 0.90284 0.44351 0.0
C151 C 0.92814 0.89595 0.40118 0.0
C152 C 0.95481 0.86696 0.46918 0.0
C153 C 0.9317 0.8359 0.4753 0.0
N154 N 0.92043 0.86302 0.4515 0.0
C155 C 0.93928 0.8745 0.45529 0.0
C156 C 0.91653 0.84393 0.46129 0.0
C157 C 0.95098 0.84749 0.47918 0.0
C158 C 0.86439 0.88286 0.36546 0.0
N159 N 0.88018 0.89822 0.3697 0.0
C160 C 0.86277 0.87258 0.34564 0.0
C161 C 0.87747 0.87811 0.33014 0.0
C162 C 0.89355 0.89378 0.33461 0.0
C163 C 0.89469 0.9037 0.35461 0.0
C164 C 0.87163 0.96541 0.36046 0.0
C165 C 0.90053 0.95404 0.39186 0.0
C166 C 0.87024 0.94518 0.36953 0.0
N167 N 0.88467 0.9397 0.38493 0.0
C168 C 0.90241 0.9744 0.38315 0.0
C169 C 0.88786 0.98007 0.36733 0.0
C170 C 0.89686 0.92074 0.4418 0.0
C171 C 0.84191 0.85389 0.45875 0.0
C172 C 0.87947 0.87584 0.47175 0.0
C173 C 0.86324 0.87236 0.48628 0.0
C174 C 0.84434 0.86132 0.47968 0.0
N175 N 0.87699 0.86848 0.45124 0.0
C176 C 0.85852 0.85761 0.44468 0.0
Co177 Co 0.6611 0.36923 0.92552 0.0
Co178 Co 0.65246 0.37924 0.87241 0.0
O179 O 0.64723 0.38371 0.90236 0.0
C180 C 0.61503 0.36095 0.93399 0.0
O181 O 0.61219 0.35135 0.91543 0.0
C182 C 0.66201 0.42507 0.88112 0.0
O183 O 0.67456 0.41813 0.89626 0.0
O184 O 0.68389 0.38192 0.87754 0.0
O185 O 0.68908 0.37041 0.91094 0.0
H186 H 0.687 0.34718 0.8094 0.0
H187 H 0.63746 0.40788 0.93442 0.0
O188 O 0.63344 0.36817 0.94046 0.0
H189 H 0.71099 0.42474 0.96131 0.0
H190 H 0.67452 0.35366 1.00288 0.0
H191 H 0.69127 0.33454 0.92916 0.0
H192 H 0.70111 0.38974 0.94481 0.0
H193 H 0.65849 0.37229 0.97264 0.0
O194 O 0.65195 0.41151 0.86863 0.0
H195 H 0.68025 0.35216 0.84758 0.0
H196 H 0.63568 0.39871 0.83285 0.0
H197 H 0.70781 0.31552 0.95901 0.0
H198 H 0.64659 0.44295 0.95108 0.0
H199 H 0.69948 0.32506 0.99619 0.0
H200 H 0.6836 0.45159 0.96461 0.0
O201 O 0.65359 0.34119 0.91184 0.0
H202 H 0.57686 0.40024 0.87993 0.0
H203 H 0.62322 0.34802 0.84865 0.0
H204 H 0.58422 0.3436 0.84277 0.0
H205 H 0.56076 0.36985 0.85844 0.0
H206 H 0.61593 0.40397 0.88553 0.0
H207 H 0.64206 0.39439 0.79451 0.0
H208 H 0.66782 0.3684 0.78258 0.0
O209 O 0.65308 0.34702 0.87647 0.0
C210 C 0.69601 0.37662 0.893 0.0
C211 C 0.67568 0.3585 0.8144 0.0
C212 C 0.65048 0.38502 0.80604 0.0
N213 N 0.65745 0.37556 0.84237 0.0
C214 C 0.67175 0.36133 0.83597 0.0
C215 C 0.64696 0.38744 0.82775 0.0
C216 C 0.66493 0.37043 0.79936 0.0
C217 C 0.65354 0.41141 0.94049 0.0
N218 N 0.66868 0.3967 0.93878 0.0
C219 C 0.65864 0.43134 0.94983 0.0
C220 C 0.67942 0.43619 0.95738 0.0
C221 C 0.6948 0.42114 0.95551 0.0
C222 C 0.68912 0.40137 0.94609 0.0
C223 C 0.67834 0.34935 0.98679 0.0
C224 C 0.68769 0.33886 0.94531 0.0
C225 C 0.66928 0.35984 0.96958 0.0
N226 N 0.67412 0.35464 0.94917 0.0
C227 C 0.69704 0.32799 0.96214 0.0
C228 C 0.69233 0.33333 0.98301 0.0
C229 C 0.65245 0.33451 0.89258 0.0
C230 C 0.58692 0.38873 0.87296 0.0
C231 C 0.61311 0.35949 0.85554 0.0
C232 C 0.59104 0.35692 0.85213 0.0
C233 C 0.57789 0.37167 0.86092 0.0
N234 N 0.62184 0.37632 0.86729 0.0
C235 C 0.60906 0.39081 0.876 0.0
Co236 Co 0.13534 0.87683 0.64921 0.0
Co237 Co 0.14804 0.87147 0.5966 0.0
O238 O 0.13203 0.88377 0.61918 0.0
C239 C 0.08994 0.86729 0.63767 0.0
O240 O 0.09758 0.85584 0.62239 0.0
C241 C 0.16482 0.91056 0.57553 0.0
O242 O 0.18403 0.90374 0.57885 0.0
O243 O 0.175 0.87964 0.61228 0.0
O244 O 0.16778 0.87681 0.64711 0.0
H245 H 0.20619 0.82921 0.56678 0.0
H246 H 0.1106 0.91375 0.63622 0.0
O247 O 0.10292 0.87672 0.6512 0.0
H248 H 0.1687 0.9435 0.68377 0.0
H249 H 0.11675 0.88238 0.72634 0.0
H250 H 0.16169 0.84788 0.67444 0.0
H251 H 0.16524 0.90495 0.67584 0.0
H252 H 0.114 0.89104 0.68816 0.0
O253 O 0.14864 0.89988 0.58239 0.0
H254 H 0.18471 0.84386 0.59516 0.0
H255 H 0.14639 0.87431 0.54912 0.0
H256 H 0.1651 0.83886 0.71247 0.0
H257 H 0.11336 0.95237 0.64385 0.0
H258 H 0.14252 0.85618 0.7387 0.0
H259 H 0.1426 0.96748 0.66777 0.0
O260 O 0.13321 0.84578 0.64277 0.0
H261 H 0.07489 0.88431 0.56647 0.0
H262 H 0.12967 0.83151 0.57566 0.0
H263 H 0.09566 0.82105 0.55692 0.0
H264 H 0.06803 0.84758 0.55213 0.0
H265 H 0.10897 0.89401 0.58542 0.0
H266 H 0.16751 0.8601 0.52024 0.0
H267 H 0.19772 0.83736 0.52906 0.0
O268 O 0.14731 0.84294 0.61047 0.0
C269 C 0.18085 0.87936 0.63183 0.0
C270 C 0.19307 0.83905 0.56275 0.0
C271 C 0.17137 0.85638 0.53663 0.0
N272 N 0.16426 0.85982 0.5738 0.0
C273 C 0.18083 0.84736 0.57875 0.0
C274 C 0.15946 0.86438 0.55304 0.0
C275 C 0.18829 0.84364 0.54157 0.0
C276 C 0.12328 0.92019 0.64675 0.0
N277 N 0.13766 0.9071 0.65567 0.0
C278 C 0.1248 0.94208 0.65097 0.0
C279 C 0.14122 0.95055 0.66437 0.0
C280 C 0.15588 0.9371 0.67334 0.0
C281 C 0.15387 0.9153 0.66876 0.0
C282 C 0.12671 0.87477 0.71507 0.0
C283 C 0.15193 0.85558 0.6858 0.0
C284 C 0.12519 0.87957 0.69345 0.0
N285 N 0.13781 0.87011 0.67916 0.0
C286 C 0.15387 0.85036 0.70729 0.0
C287 C 0.14118 0.86007 0.722 0.0
C288 C 0.13998 0.83478 0.62748 0.0
C289 C 0.08686 0.87264 0.56836 0.0
C290 C 0.11768 0.84311 0.57377 0.0
C291 C 0.09848 0.83712 0.56307 0.0
C292 C 0.083 0.85202 0.56036 0.0
N293 N 0.12138 0.8634 0.58152 0.0
C294 C 0.10623 0.87807 0.579 0.0
Co295 Co 0.64503 0.60642 0.08373 0.0
Co296 Co 0.60534 0.62511 0.11341 0.0
O297 O 0.63448 0.6274 0.10327 0.0
C298 C 0.67986 0.61099 0.11666 0.0
O299 O 0.66579 0.60641 0.13125 0.0
C300 C 0.61147 0.66976 0.09853 0.0
O301 O 0.61891 0.66149 0.08118 0.0
O302 O 0.59394 0.6241 0.08363 0.0
O303 O 0.61614 0.60129 0.06963 0.0
H304 H 0.5295 0.59526 0.11472 0.0
H305 H 0.66752 0.64917 0.08689 0.0
O306 O 0.67417 0.61128 0.09709 0.0
H307 H 0.6443 0.64066 0.01157 0.0
H308 H 0.69935 0.57711 0.03553 0.0
H309 H 0.6289 0.56398 0.06721 0.0
H310 H 0.6365 0.61205 0.03721 0.0
H311 H 0.68503 0.60368 0.05959 0.0
O312 O 0.60486 0.65744 0.11335 0.0
H313 H 0.56666 0.59747 0.10275 0.0
H314 H 0.58161 0.64949 0.14507 0.0
H315 H 0.64245 0.53715 0.04291 0.0
H316 H 0.67595 0.67807 0.06168 0.0
H317 H 0.67791 0.54366 0.02684 0.0
H318 H 0.66425 0.67393 0.02373 0.0
O319 O 0.63794 0.58344 0.10422 0.0
H320 H 0.65335 0.65361 0.17344 0.0
H321 H 0.59709 0.59925 0.15216 0.0
H322 H 0.61201 0.59966 0.18888 0.0
H323 H 0.64032 0.62702 0.19973 0.0
H324 H 0.63809 0.6525 0.13684 0.0
H325 H 0.54454 0.64797 0.15736 0.0
H326 H 0.51823 0.62065 0.14219 0.0
O327 O 0.60529 0.59257 0.11347 0.0
C328 C 0.59887 0.61111 0.06914 0.0
C329 C 0.54084 0.60718 0.1215 0.0
C330 C 0.54928 0.63679 0.14541 0.0
N331 N 0.57632 0.62347 0.12333 0.0
C332 C 0.56192 0.60847 0.11483 0.0
C333 C 0.57022 0.6376 0.13836 0.0
C334 C 0.53452 0.62145 0.1369 0.0
C335 C 0.66258 0.64715 0.07036 0.0
N336 N 0.65155 0.62892 0.06356 0.0
C337 C 0.6673 0.66362 0.05618 0.0
C338 C 0.6607 0.66131 0.0349 0.0
C339 C 0.64948 0.64265 0.02807 0.0
C340 C 0.64503 0.62654 0.0427 0.0
C341 C 0.68384 0.57412 0.04235 0.0
C342 C 0.64429 0.56699 0.0602 0.0
C343 C 0.67568 0.58907 0.05607 0.0
N344 N 0.65609 0.58545 0.06471 0.0
C345 C 0.6519 0.55171 0.04649 0.0
C346 C 0.67181 0.55535 0.0375 0.0
C347 C 0.6196 0.57882 0.11171 0.0
C348 C 0.64097 0.64165 0.16893 0.0
C349 C 0.60944 0.61117 0.15676 0.0
C350 C 0.6178 0.61135 0.17758 0.0
C351 C 0.63367 0.62671 0.18366 0.0
N352 N 0.61664 0.62592 0.14242 0.0
C353 C 0.63222 0.641 0.14825 0.0
Co354 Co 0.88778 0.12451 0.64389 0.0
Co355 Co 0.87344 0.132 0.59149 0.0
O356 O 0.89058 0.11925 0.61352 0.0
C357 C 0.93252 0.13646 0.63432 0.0
O358 O 0.92389 0.14843 0.6198 0.0
C359 C 0.86669 0.08605 0.57947 0.0
O360 O 0.85749 0.08201 0.59761 0.0
O361 O 0.847 0.12205 0.60562 0.0
O362 O 0.85523 0.12354 0.64078 0.0
H363 H 0.81419 0.17534 0.56353 0.0
H364 H 0.91355 0.08936 0.62888 0.0
O365 O 0.92031 0.12571 0.64676 0.0
H366 H 0.85732 0.05502 0.67213 0.0
H367 H 0.90851 0.11537 0.72097 0.0
H368 H 0.86088 0.1509 0.67049 0.0
H369 H 0.85944 0.09399 0.66745 0.0
H370 H 0.91066 0.10902 0.6823 0.0
O371 O 0.87347 0.10484 0.57483 0.0
H372 H 0.83608 0.15871 0.59124 0.0
H373 H 0.87325 0.13094 0.54393 0.0
H374 H 0.85806 0.15758 0.70903 0.0
H375 H 0.91212 0.05036 0.63327 0.0
H376 H 0.882 0.13974 0.73455 0.0
H377 H 0.88383 0.03294 0.655 0.0
O378 O 0.88854 0.15591 0.63988 0.0
H379 H 0.94653 0.12403 0.56262 0.0
H380 H 0.88952 0.17364 0.57396 0.0
H381 H 0.92263 0.18651 0.55689 0.0
H382 H 0.95138 0.16161 0.55104 0.0
H383 H 0.91327 0.11187 0.57985 0.0
H384 H 0.85157 0.14713 0.51564 0.0
H385 H 0.82205 0.16988 0.5256 0.0
O386 O 0.87328 0.15951 0.60752 0.0
C387 C 0.84171 0.12137 0.62506 0.0
C388 C 0.82712 0.16563 0.55909 0.0
C389 C 0.8481 0.14977 0.5322 0.0
N390 N 0.85611 0.14415 0.56921 0.0
C391 C 0.83961 0.15622 0.57469 0.0
C392 C 0.86027 0.14061 0.54827 0.0
C393 C 0.83151 0.16246 0.53774 0.0
C394 C 0.9013 0.08191 0.6385 0.0
N395 N 0.88668 0.09394 0.64801 0.0
C396 C 0.90052 0.05982 0.64086 0.0
C397 C 0.88463 0.05005 0.65304 0.0
C398 C 0.86975 0.06243 0.66265 0.0
C399 C 0.871 0.08448 0.65991 0.0
C400 C 0.89797 0.1232 0.71001 0.0
C401 C 0.87125 0.14298 0.68152 0.0
C402 C 0.89914 0.1197 0.68811 0.0
N403 N 0.88579 0.12945 0.67421 0.0
C404 C 0.86962 0.14687 0.70331 0.0
C405 C 0.88308 0.13687 0.71762 0.0
C406 C 0.88055 0.16718 0.62524 0.0
C407 C 0.93407 0.13501 0.56499 0.0
C408 C 0.902 0.16272 0.57157 0.0
C409 C 0.92069 0.17009 0.56184 0.0
C410 C 0.9368 0.15611 0.55854 0.0
N411 N 0.89941 0.14198 0.57779 0.0
C412 C 0.91517 0.12819 0.57466 0.0
Co413 Co 0.36795 0.40144 0.07805 0.0
Co414 Co 0.40374 0.38515 0.11559 0.0
O415 O 0.37644 0.38145 0.09977 0.0
C416 C 0.32967 0.39574 0.10444 0.0
O417 O 0.34222 0.39681 0.12149 0.0
C418 C 0.40101 0.34054 0.09945 0.0
O419 O 0.39614 0.34885 0.08099 0.0
O420 O 0.41951 0.38646 0.08858 0.0
O421 O 0.39812 0.40683 0.06934 0.0
H422 H 0.47706 0.41813 0.13212 0.0
H423 H 0.34613 0.35843 0.07804 0.0
O424 O 0.33747 0.39688 0.08598 0.0
H425 H 0.37842 0.36527 0.00758 0.0
H426 H 0.31976 0.4289 0.02034 0.0
H427 H 0.38524 0.44378 0.06421 0.0
H428 H 0.38244 0.39472 0.03376 0.0
H429 H 0.33166 0.40271 0.04648 0.0
O430 O 0.40539 0.35286 0.1155 0.0
H431 H 0.44225 0.41436 0.1129 0.0
H432 H 0.42355 0.3618 0.1514 0.0
H433 H 0.37406 0.47029 0.03811 0.0
H434 H 0.34156 0.32861 0.05223 0.0
H435 H 0.34102 0.46301 0.01606 0.0
H436 H 0.35782 0.33192 0.01673 0.0
O437 O 0.37159 0.42488 0.09903 0.0
H438 H 0.34956 0.35425 0.16572 0.0
H439 H 0.40483 0.41163 0.15521 0.0
H440 H 0.385 0.41055 0.18856 0.0
H441 H 0.35716 0.38167 0.194 0.0
H442 H 0.36959 0.35609 0.13251 0.0
H443 H 0.45824 0.36488 0.17093 0.0
H444 H 0.48524 0.39328 0.16135 0.0
O445 O 0.40242 0.4178 0.11571 0.0
C446 C 0.41588 0.39843 0.07284 0.0
C447 C 0.4654 0.40575 0.13649 0.0
C448 C 0.45485 0.37585 0.15825 0.0
N449 N 0.43083 0.388 0.13116 0.0
C450 C 0.44563 0.40359 0.12572 0.0
C451 C 0.43525 0.37415 0.14712 0.0
C452 C 0.46999 0.39178 0.15288 0.0
C453 C 0.35308 0.36004 0.06255 0.0
N454 N 0.3645 0.37829 0.05742 0.0
C455 C 0.35052 0.34308 0.04804 0.0
C456 C 0.35969 0.34493 0.02814 0.0
C457 C 0.37128 0.36362 0.023 0.0
C458 C 0.37356 0.38022 0.03793 0.0
C459 C 0.33418 0.43227 0.02987 0.0
C460 C 0.37095 0.44038 0.05454 0.0
C461 C 0.34097 0.41751 0.04473 0.0
N462 N 0.35916 0.42167 0.05683 0.0
C463 C 0.36467 0.45549 0.03982 0.0
C464 C 0.34613 0.45139 0.02746 0.0
C465 C 0.38805 0.43075 0.11029 0.0
C466 C 0.36169 0.36688 0.16357 0.0
C467 C 0.39266 0.39908 0.15741 0.0
C468 C 0.38153 0.39851 0.17636 0.0
C469 C 0.36594 0.38229 0.17941 0.0
N470 N 0.3884 0.38391 0.14195 0.0
C471 C 0.37316 0.36794 0.14484 0.0
Co472 Co 0.4281 0.12166 0.14212 0.0
Co473 Co 0.38941 0.13499 0.10563 0.0
O474 O 0.40495 0.13911 0.13286 0.0
C475 C 0.39939 0.12185 0.17862 0.0
O476 O 0.38317 0.11995 0.165 0.0
C477 C 0.40525 0.18022 0.10706 0.0
O478 O 0.42373 0.17257 0.11214 0.0
O479 O 0.41643 0.13556 0.08982 0.0
O480 O 0.43836 0.11929 0.11248 0.0
H481 H 0.37311 0.10195 0.03355 0.0
H482 H 0.42321 0.16275 0.16454 0.0
O483 O 0.41844 0.12313 0.17212 0.0
H484 H 0.49434 0.16903 0.13302 0.0
H485 H 0.48731 0.10083 0.19204 0.0
H486 H 0.44658 0.08245 0.12563 0.0
H487 H 0.47191 0.13582 0.12903 0.0
H488 H 0.45856 0.1232 0.17937 0.0
O489 O 0.38911 0.16731 0.10306 0.0
H490 H 0.39251 0.10651 0.06809 0.0
H491 H 0.3532 0.15652 0.08515 0.0
H492 H 0.47526 0.05967 0.13771 0.0
H493 H 0.4454 0.19611 0.16943 0.0
H494 H 0.49571 0.06874 0.17124 0.0
H495 H 0.48111 0.19951 0.15337 0.0
O496 O 0.40961 0.09564 0.13736 0.0
H497 H 0.33838 0.16208 0.1585 0.0
H498 H 0.35027 0.10601 0.10542 0.0
H499 H 0.31677 0.10473 0.12512 0.0
H500 H 0.31065 0.13295 0.15185 0.0
H501 H 0.37175 0.1626 0.13863 0.0
H502 H 0.33347 0.15265 0.05071 0.0
H503 H 0.34336 0.12515 0.02468 0.0
O504 O 0.38998 0.10245 0.10796 0.0
C505 C 0.4336 0.12644 0.09417 0.0
C506 C 0.3686 0.11394 0.04479 0.0
C507 C 0.34638 0.14242 0.05441 0.0
N508 N 0.37386 0.13163 0.07866 0.0
C509 C 0.37948 0.11654 0.0644 0.0
C510 C 0.35762 0.14457 0.07386 0.0
C511 C 0.35193 0.12698 0.03982 0.0
C512 C 0.43892 0.16396 0.15789 0.0
N513 N 0.44626 0.14734 0.14657 0.0
C514 C 0.45137 0.18293 0.1606 0.0
C515 C 0.4714 0.18483 0.15156 0.0
C516 C 0.47882 0.16776 0.14013 0.0
C517 C 0.46599 0.14901 0.13783 0.0
C518 C 0.47847 0.09669 0.17744 0.0
C519 C 0.45554 0.08659 0.14014 0.0
C520 C 0.46216 0.10928 0.17019 0.0
N521 N 0.45097 0.1042 0.15172 0.0
C522 C 0.47171 0.0736 0.14693 0.0
C523 C 0.4832 0.0787 0.16573 0.0
C524 C 0.39732 0.0895 0.12177 0.0
C525 C 0.34084 0.14974 0.14685 0.0
C526 C 0.34777 0.11827 0.11711 0.0
C527 C 0.32874 0.11751 0.12816 0.0
C528 C 0.3253 0.13336 0.14314 0.0
N529 N 0.36293 0.13439 0.12084 0.0
C530 C 0.35966 0.15 0.13547 0.0
Co531 Co 0.38623 0.87166 0.63561 0.0
Co532 Co 0.37557 0.92453 0.64178 0.0
O533 O 0.39064 0.90171 0.62907 0.0
C534 C 0.43172 0.88278 0.64535 0.0
O535 O 0.42425 0.89813 0.65678 0.0
C536 C 0.35934 0.945 0.60273 0.0
O537 O 0.34016 0.94282 0.61052 0.0
O538 O 0.34789 0.90906 0.63478 0.0
O539 O 0.35394 0.87401 0.63578 0.0
H540 H 0.31975 0.95652 0.6862 0.0
H541 H 0.41242 0.88488 0.59891 0.0
O542 O 0.41856 0.86944 0.63574 0.0
H543 H 0.35352 0.83806 0.56862 0.0
H544 H 0.40251 0.79442 0.62918 0.0
H545 H 0.35835 0.84621 0.66431 0.0
H546 H 0.35618 0.84558 0.60722 0.0
H547 H 0.40664 0.8327 0.62092 0.0
O548 O 0.37527 0.93826 0.61316 0.0
H549 H 0.33936 0.92725 0.67092 0.0
H550 H 0.37916 0.97188 0.63798 0.0
H551 H 0.35355 0.80806 0.67294 0.0
H552 H 0.41048 0.87766 0.56024 0.0
H553 H 0.37574 0.78188 0.65531 0.0
H554 H 0.38085 0.85411 0.54486 0.0
O555 O 0.38763 0.87774 0.66663 0.0
H556 H 0.44947 0.95405 0.6261 0.0
H557 H 0.39496 0.94573 0.68089 0.0
H558 H 0.42945 0.96472 0.6899 0.0
H559 H 0.45694 0.96908 0.66237 0.0
H560 H 0.41485 0.93501 0.6178 0.0
H561 H 0.36 1.00161 0.65286 0.0
H562 H 0.33006 0.99401 0.67718 0.0
O563 O 0.37597 0.91075 0.67046 0.0
C564 C 0.34139 0.88948 0.63445 0.0
C565 C 0.3328 0.96003 0.67566 0.0
C566 C 0.35538 0.98535 0.65695 0.0
N567 N 0.36046 0.94785 0.6537 0.0
C568 C 0.34397 0.94353 0.667 0.0
C569 C 0.36617 0.96845 0.64858 0.0
C570 C 0.33858 0.98107 0.67059 0.0
C571 C 0.39957 0.8745 0.59235 0.0
N572 N 0.38451 0.86555 0.60531 0.0
C573 C 0.39851 0.87053 0.57044 0.0
C574 C 0.38187 0.85733 0.56182 0.0
C575 C 0.36652 0.84833 0.57513 0.0
C576 C 0.36808 0.85268 0.59697 0.0
C577 C 0.39271 0.80566 0.63693 0.0
C578 C 0.36794 0.83488 0.65647 0.0
C579 C 0.39501 0.82735 0.63234 0.0
N580 N 0.3826 0.84161 0.64198 0.0
C581 C 0.36521 0.81332 0.66147 0.0
C582 C 0.37768 0.79864 0.65158 0.0
C583 C 0.38184 0.89314 0.67807 0.0
C584 C 0.43758 0.95233 0.63821 0.0
C585 C 0.40689 0.94743 0.66885 0.0
C586 C 0.42637 0.95826 0.67404 0.0
C587 C 0.44178 0.96072 0.65857 0.0
N588 N 0.40281 0.93939 0.64879 0.0
C589 C 0.4179 0.94164 0.63358 0.0
Co590 Co 0.58065 0.88971 0.13977 0.0
Co591 Co 0.61875 0.87551 0.1054 0.0
O592 O 0.6032 0.87135 0.13172 0.0
C593 C 0.60721 0.88676 0.17932 0.0
O594 O 0.62436 0.88849 0.16784 0.0
C595 C 0.60383 0.82994 0.10529 0.0
O596 O 0.58507 0.83709 0.10927 0.0
O597 O 0.59152 0.87426 0.08844 0.0
O598 O 0.57169 0.89385 0.10938 0.0
H599 H 0.63401 0.90804 0.03432 0.0
H600 H 0.58231 0.84744 0.16008 0.0
O601 O 0.58872 0.8865 0.17048 0.0
H602 H 0.51258 0.84653 0.12189 0.0
H603 H 0.52163 0.91273 0.18601 0.0
H604 H 0.5654 0.93081 0.12407 0.0
H605 H 0.53673 0.87873 0.12216 0.0
H606 H 0.54856 0.88848 0.17392 0.0
O607 O 0.61968 0.84324 0.10255 0.0
H608 H 0.61489 0.90349 0.06791 0.0
H609 H 0.65531 0.85448 0.08652 0.0
H610 H 0.53873 0.95557 0.1357 0.0
H611 H 0.55836 0.81503 0.1607 0.0
H612 H 0.51685 0.94672 0.16707 0.0
H613 H 0.52341 0.81432 0.1412 0.0
O614 O 0.60082 0.91473 0.13812 0.0
H615 H 0.67043 0.84985 0.16067 0.0
H616 H 0.65757 0.90499 0.10721 0.0
H617 H 0.69119 0.90694 0.12853 0.0
H618 H 0.69782 0.87919 0.15545 0.0
H619 H 0.63692 0.84866 0.13918 0.0
H620 H 0.67477 0.85836 0.05306 0.0
H621 H 0.66418 0.88535 0.02672 0.0
O622 O 0.61776 0.90806 0.10795 0.0
C623 C 0.57524 0.88494 0.09163 0.0
C624 C 0.63882 0.89627 0.0457 0.0
C625 C 0.66168 0.86837 0.0562 0.0
N626 N 0.63411 0.87887 0.07921 0.0
C627 C 0.6281 0.89367 0.06477 0.0
C628 C 0.65058 0.86621 0.0751 0.0
C629 C 0.65574 0.88352 0.04144 0.0
C630 C 0.56691 0.8474 0.15196 0.0
N631 N 0.56096 0.86493 0.14108 0.0
C632 C 0.55348 0.82896 0.15224 0.0
C633 C 0.53388 0.82856 0.14126 0.0
C634 C 0.52781 0.84661 0.13041 0.0
C635 C 0.5416 0.86478 0.13055 0.0
C636 C 0.53118 0.91683 0.17241 0.0
C637 C 0.5558 0.92674 0.13761 0.0
C638 C 0.54643 0.90315 0.16547 0.0
N639 N 0.55856 0.90822 0.14831 0.0
C640 C 0.54076 0.94086 0.14415 0.0
C641 C 0.52849 0.93588 0.16176 0.0
C642 C 0.6119 0.92097 0.12243 0.0
C643 C 0.66776 0.862 0.14895 0.0
C644 C 0.66028 0.89293 0.11898 0.0
C645 C 0.67938 0.89408 0.13095 0.0
C646 C 0.6831 0.87849 0.14604 0.0
N647 N 0.64532 0.8767 0.12193 0.0
C648 C 0.64885 0.86135 0.13667 0.0
Co649 Co 0.63724 0.13008 0.63581 0.0
Co650 Co 0.64692 0.07759 0.64579 0.0
O651 O 0.63149 0.09958 0.63154 0.0
C652 C 0.59197 0.1214 0.64604 0.0
O653 O 0.59942 0.10666 0.65841 0.0
C654 C 0.64965 0.06746 0.5998 0.0
O655 O 0.65566 0.08736 0.59611 0.0
O656 O 0.67455 0.09153 0.6379 0.0
O657 O 0.66941 0.12669 0.63604 0.0
H658 H 0.70393 0.04866 0.69342 0.0
H659 H 0.60833 0.11432 0.6003 0.0
O660 O 0.60508 0.13346 0.63576 0.0
H661 H 0.6668 0.15584 0.56641 0.0
H662 H 0.62316 0.2071 0.62354 0.0
H663 H 0.66762 0.15721 0.6625 0.0
H664 H 0.66626 0.15233 0.60546 0.0
H665 H 0.61724 0.16827 0.61821 0.0
O666 O 0.64588 0.06101 0.61855 0.0
H667 H 0.68388 0.07688 0.67625 0.0
H668 H 0.64343 0.03018 0.64386 0.0
H669 H 0.67421 0.19592 0.6682 0.0
H670 H 0.60815 0.11755 0.56122 0.0
H671 H 0.65188 0.22114 0.64863 0.0
H672 H 0.63756 0.1384 0.54402 0.0
O673 O 0.63749 0.12697 0.66722 0.0
H674 H 0.57181 0.04811 0.63162 0.0
H675 H 0.62943 0.0599 0.68599 0.0
H676 H 0.5952 0.04219 0.69598 0.0
H677 H 0.56614 0.03609 0.66867 0.0
H678 H 0.60623 0.0659 0.62234 0.0
H679 H 0.66312 1.00148 0.66051 0.0
H680 H 0.69358 0.01064 0.68556 0.0
O681 O 0.64813 0.09392 0.67337 0.0
C682 C 0.6815 0.11081 0.63592 0.0
C683 C 0.69063 0.04446 0.68261 0.0
C684 C 0.66775 0.01797 0.66413 0.0
N685 N 0.66235 0.05518 0.65929 0.0
C686 C 0.67917 0.06037 0.67292 0.0
C687 C 0.65667 0.0343 0.65473 0.0
C688 C 0.68483 0.02313 0.67818 0.0
C689 C 0.62108 0.12359 0.59295 0.0
N690 N 0.63722 0.13324 0.60515 0.0
C691 C 0.62094 0.12529 0.57081 0.0
C692 C 0.63746 0.13696 0.56117 0.0
C693 C 0.65388 0.14673 0.57372 0.0
C694 C 0.65352 0.14466 0.59582 0.0
C695 C 0.63303 0.19627 0.63212 0.0
C696 C 0.65795 0.16811 0.65382 0.0
C697 C 0.62972 0.17428 0.62919 0.0
N698 N 0.64221 0.16054 0.63989 0.0
C699 C 0.66171 0.19 0.65717 0.0
C700 C 0.64915 0.20414 0.6462 0.0
C701 C 0.64324 0.11235 0.67973 0.0
C702 C 0.58438 0.0506 0.64364 0.0
C703 C 0.61681 0.05744 0.67405 0.0
C704 C 0.59748 0.04735 0.67979 0.0
C705 C 0.58119 0.04391 0.66445 0.0
N706 N 0.61987 0.06384 0.65357 0.0
C707 C 0.60393 0.06062 0.63847 0.0
Co708 Co 0.42102 0.87367 0.87284 0.0
Co709 Co 0.36824 0.8839 0.87911 0.0
O710 O 0.39857 0.88902 0.88573 0.0
C711 C 0.44524 0.86043 0.91114 0.0
O712 O 0.44232 0.84071 0.90417 0.0
C713 C 0.37808 0.92938 0.87001 0.0
O714 O 0.3931 0.92196 0.85836 0.0
O715 O 0.37315 0.88491 0.84805 0.0
O716 O 0.40564 0.87217 0.84453 0.0
H717 H 0.30378 0.84908 0.84137 0.0
H718 H 0.43229 0.91439 0.8958 0.0
O719 O 0.43677 0.87542 0.90099 0.0
H720 H 0.45653 0.92563 0.82259 0.0
H721 H 0.49771 0.85889 0.85948 0.0
H722 H 0.42241 0.83571 0.84473 0.0
H723 H 0.43927 0.89122 0.8328 0.0
H724 H 0.46869 0.87851 0.87482 0.0
O725 O 0.36538 0.91619 0.8795 0.0
H726 H 0.34225 0.85488 0.85006 0.0
H727 H 0.32933 0.90385 0.89407 0.0
H728 H 0.45094 0.81564 0.829 0.0
H729 H 0.44984 0.94889 0.88634 0.0
H730 H 0.4889 0.82722 0.83636 0.0
H731 H 0.46203 0.95472 0.84949 0.0
O732 O 0.40647 0.84622 0.88084 0.0
H733 H 0.37657 0.90985 0.95488 0.0
H734 H 0.34368 0.85405 0.90704 0.0
H735 H 0.33762 0.85212 0.94561 0.0
H736 H 0.35407 0.8802 0.9698 0.0
H737 H 0.38236 0.91107 0.91624 0.0
H738 H 0.29073 0.89873 0.88576 0.0
H739 H 0.27775 0.87112 0.85929 0.0
O740 O 0.37124 0.85159 0.87855 0.0
C741 C 0.38809 0.87842 0.83673 0.0
C742 C 0.30924 0.86111 0.85299 0.0
C743 C 0.30192 0.889 0.87788 0.0
N744 N 0.33796 0.87954 0.87269 0.0
C745 C 0.33098 0.86441 0.85802 0.0
C746 C 0.32378 0.89186 0.8825 0.0
C747 C 0.29464 0.8735 0.86304 0.0
C748 C 0.43779 0.91668 0.8798 0.0
N749 N 0.43489 0.90071 0.86493 0.0
C750 C 0.44764 0.93629 0.87451 0.0
C751 C 0.45443 0.93957 0.85382 0.0
C752 C 0.45132 0.92327 0.83871 0.0
C753 C 0.44145 0.90384 0.84458 0.0
C754 C 0.48123 0.85371 0.85613 0.0
C755 C 0.43889 0.84087 0.84795 0.0
C756 C 0.46473 0.86475 0.86476 0.0
N757 N 0.44386 0.8583 0.8606 0.0
C758 C 0.45498 0.82944 0.83902 0.0
C759 C 0.47627 0.83594 0.84317 0.0
C760 C 0.38696 0.83936 0.88066 0.0
C761 C 0.36927 0.89755 0.9445 0.0
C762 C 0.35097 0.86628 0.91748 0.0
C763 C 0.34743 0.86513 0.9393 0.0
C764 C 0.35666 0.8809 0.95286 0.0
N765 N 0.36327 0.88272 0.9094 0.0
C766 C 0.37244 0.89819 0.9226 0.0
Co767 Co 0.63236 0.89068 0.41208 0.0
Co768 Co 0.6123 0.92561 0.37653 0.0
O769 O 0.63295 0.90471 0.38445 0.0
C770 C 0.67713 0.90747 0.40798 0.0
O771 O 0.66877 0.92549 0.40292 0.0
C772 C 0.61441 0.89794 0.33816 0.0
O773 O 0.61564 0.88135 0.35057 0.0
O774 O 0.58871 0.90413 0.38101 0.0
O775 O 0.59967 0.89016 0.412 0.0
H776 H 0.5455 0.96532 0.38467 0.0
H777 H 0.65698 0.8718 0.37773 0.0
O778 O 0.66484 0.89135 0.41261 0.0
H779 H 0.60255 0.81611 0.39637 0.0
H780 H 0.65752 0.83907 0.46685 0.0
H781 H 0.60793 0.89557 0.45141 0.0
H782 H 0.60472 0.85082 0.41513 0.0
H783 H 0.65703 0.85642 0.43179 0.0
O784 O 0.61325 0.91654 0.34604 0.0
H785 H 0.57183 0.93912 0.39452 0.0
H786 H 0.60836 0.95615 0.34076 0.0
H787 H 0.60778 0.87855 0.48663 0.0
H788 H 0.65556 0.83722 0.35875 0.0
H789 H 0.63272 0.8501 0.49454 0.0
H790 H 0.62814 0.80912 0.36799 0.0
O791 O 0.6338 0.91869 0.42697 0.0
H792 H 0.68386 0.95061 0.34962 0.0
H793 H 0.62225 0.97058 0.39106 0.0
H794 H 0.65326 0.99602 0.38821 0.0
H795 H 0.6845 0.98593 0.36759 0.0
H796 H 0.65272 0.92543 0.3533 0.0
H797 H 0.58241 0.98254 0.33033 0.0
H798 H 0.55073 0.98728 0.35237 0.0
O799 O 0.61034 0.9356 0.40672 0.0
C800 C 0.58501 0.89387 0.39802 0.0
C801 C 0.55925 0.96342 0.37494 0.0
C802 C 0.57995 0.97306 0.34443 0.0
N803 N 0.59168 0.94617 0.3683 0.0
C804 C 0.57423 0.94862 0.38046 0.0
C805 C 0.59458 0.95807 0.3504 0.0
C806 C 0.56218 0.97571 0.35681 0.0
C807 C 0.64515 0.85956 0.382 0.0
N808 N 0.63098 0.8633 0.39754 0.0
C809 C 0.64436 0.84005 0.37113 0.0
C810 C 0.62894 0.82431 0.37629 0.0
C811 C 0.61456 0.82823 0.39219 0.0
C812 C 0.61582 0.84794 0.40271 0.0
C813 C 0.64655 0.85142 0.46359 0.0
C814 C 0.61872 0.88309 0.45469 0.0
C815 C 0.64622 0.86132 0.44378 0.0
N816 N 0.63235 0.87686 0.43953 0.0
C817 C 0.61861 0.87356 0.47468 0.0
C818 C 0.63263 0.85761 0.47911 0.0
C819 C 0.62148 0.93381 0.42379 0.0
C820 C 0.67037 0.95514 0.35868 0.0
C821 C 0.63574 0.9661 0.382 0.0
C822 C 0.65323 0.98061 0.38039 0.0
C823 C 0.67071 0.97497 0.36878 0.0
N824 N 0.63571 0.94648 0.37242 0.0
C825 C 0.65262 0.94102 0.36068 0.0
Co826 Co 0.60516 0.14048 0.87162 0.0
Co827 Co 0.65747 0.12873 0.88127 0.0
O828 O 0.62697 0.12459 0.88589 0.0
C829 C 0.58172 0.15554 0.90865 0.0
O830 O 0.58549 0.17503 0.90183 0.0
C831 C 0.64657 0.08328 0.87133 0.0
O832 O 0.63169 0.09082 0.85891 0.0
O833 O 0.65284 0.12745 0.84989 0.0
O834 O 0.62074 0.14088 0.84423 0.0
H835 H 0.72318 0.16116 0.84784 0.0
H836 H 0.5926 0.1005 0.89392 0.0
O837 O 0.58922 0.1399 0.89881 0.0
H838 H 0.56854 0.08851 0.81925 0.0
H839 H 0.52928 0.15775 0.85381 0.0
H840 H 0.60526 0.17787 0.84323 0.0
H841 H 0.58649 0.12275 0.83053 0.0
H842 H 0.55746 0.13739 0.87088 0.0
O843 O 0.65945 0.09637 0.88165 0.0
H844 H 0.68455 0.1566 0.85401 0.0
H845 H 0.69556 0.10786 0.8987 0.0
H846 H 0.57757 0.19863 0.82578 0.0
H847 H 0.57445 0.06614 0.88335 0.0
H848 H 0.53928 0.1886 0.83104 0.0
H849 H 0.56235 0.05994 0.84576 0.0
O850 O 0.6205 0.16764 0.88048 0.0
H851 H 0.64744 0.10394 0.95631 0.0
H852 H 0.68258 0.15821 0.911 0.0
H853 H 0.68816 0.16047 0.94998 0.0
H854 H 0.67055 0.13317 0.9729 0.0
H855 H 0.64216 0.10239 0.91728 0.0
H856 H 0.73431 0.11176 0.89291 0.0
H857 H 0.74834 0.13863 0.86737 0.0
O858 O 0.65549 0.16109 0.88073 0.0
C859 C 0.6382 0.13408 0.83759 0.0
C860 C 0.71727 0.14946 0.85906 0.0
C861 C 0.72351 0.1217 0.88434 0.0
N862 N 0.68788 0.13213 0.87684 0.0
C863 C 0.69543 0.14686 0.86267 0.0
C864 C 0.70157 0.11954 0.88752 0.0
C865 C 0.73137 0.13679 0.87001 0.0
C866 C 0.58714 0.09804 0.87758 0.0
N867 N 0.59048 0.1137 0.86291 0.0
C868 C 0.57697 0.0785 0.87167 0.0
C869 C 0.57022 0.07502 0.85057 0.0
C870 C 0.57371 0.09104 0.83568 0.0
C871 C 0.58395 0.11037 0.84216 0.0
C872 C 0.54591 0.16226 0.85136 0.0
C873 C 0.58862 0.17337 0.84552 0.0
C874 C 0.56194 0.1508 0.86098 0.0
N875 N 0.58299 0.15639 0.85797 0.0
C876 C 0.57302 0.1852 0.83563 0.0
C877 C 0.55153 0.17957 0.8386 0.0
C878 C 0.64017 0.17382 0.88179 0.0
C879 C 0.65524 0.1159 0.94649 0.0
C880 C 0.6748 0.14632 0.92088 0.0
C881 C 0.67806 0.14765 0.94294 0.0
C882 C 0.66819 0.13232 0.95579 0.0
N883 N 0.66214 0.13012 0.91188 0.0
C884 C 0.65236 0.11507 0.92438 0.0
Co885 Co 0.37113 0.11993 0.40882 0.0
Co886 Co 0.38476 0.08117 0.37385 0.0
O887 O 0.36667 0.10386 0.38215 0.0
C888 C 0.32598 0.10362 0.40806 0.0
O889 O 0.33377 0.08514 0.40387 0.0
C890 C 0.38224 0.10788 0.33544 0.0
O891 O 0.38402 0.12479 0.34787 0.0
O892 O 0.41009 0.10094 0.3769 0.0
O893 O 0.40371 0.11974 0.40647 0.0
H894 H 0.44985 0.03801 0.37866 0.0
H895 H 0.34274 0.13659 0.37508 0.0
O896 O 0.3388 0.11995 0.41136 0.0
H897 H 0.40011 0.19244 0.387 0.0
H898 H 0.35378 0.17637 0.46192 0.0
H899 H 0.40042 0.11777 0.44646 0.0
H900 H 0.39962 0.15935 0.40782 0.0
H901 H 0.34952 0.15614 0.4281 0.0
O902 O 0.38157 0.08928 0.34332 0.0
H903 H 0.42593 0.06558 0.39006 0.0
H904 H 0.38265 0.04886 0.33877 0.0
H905 H 0.40537 0.13768 0.4804 0.0
H906 H 0.34246 0.16954 0.35409 0.0
H907 H 0.38193 0.1672 0.48831 0.0
H908 H 0.37134 0.19772 0.35994 0.0
O909 O 0.37112 0.0932 0.42552 0.0
H910 H 0.30963 0.05982 0.3498 0.0
H911 H 0.37298 0.03783 0.39032 0.0
H912 H 0.34016 0.01458 0.38952 0.0
H913 H 0.30815 0.0255 0.3691 0.0
H914 H 0.34255 0.08309 0.35183 0.0
H915 H 0.40603 0.02102 0.32692 0.0
H916 H 0.44003 0.01565 0.34676 0.0
O917 O 0.38903 0.07231 0.40401 0.0
C918 C 0.41642 0.11314 0.39236 0.0
C919 C 0.43511 0.04026 0.36984 0.0
C920 C 0.41053 0.03074 0.34078 0.0
N921 N 0.40289 0.05879 0.36514 0.0
C922 C 0.42148 0.05581 0.37625 0.0
C923 C 0.39734 0.04651 0.34759 0.0
C924 C 0.4296 0.02772 0.35193 0.0
C925 C 0.35523 0.14887 0.37788 0.0
N926 N 0.37114 0.14608 0.39269 0.0
C927 C 0.35505 0.16745 0.36587 0.0
C928 C 0.37128 0.18324 0.36914 0.0
C929 C 0.38744 0.18028 0.3843 0.0
C930 C 0.38712 0.16148 0.39599 0.0
C931 C 0.36412 0.16357 0.45864 0.0
C932 C 0.39027 0.1307 0.44973 0.0
C933 C 0.36175 0.15204 0.43955 0.0
N934 N 0.37482 0.13592 0.43527 0.0
C935 C 0.3931 0.14187 0.469 0.0
C936 C 0.37992 0.15842 0.47344 0.0
C937 C 0.38137 0.07669 0.42198 0.0
C938 C 0.32348 0.05487 0.35871 0.0
C939 C 0.35911 0.0428 0.38152 0.0
C940 C 0.34058 0.0295 0.38104 0.0
C941 C 0.32264 0.03564 0.36959 0.0
N942 N 0.35966 0.06186 0.37118 0.0
C943 C 0.34221 0.0679 0.35976 0.0
Co944 Co 0.13448 0.42883 0.11017 0.0
Co945 Co 0.09787 0.39543 0.13364 0.0
O946 O 0.12631 0.40995 0.13347 0.0
C947 C 0.17165 0.40201 0.11612 0.0
O948 O 0.15846 0.38541 0.11874 0.0
C949 C 0.10508 0.41345 0.17754 0.0
O950 O 0.11188 0.43113 0.1684 0.0
O951 O 0.08455 0.42332 0.13205 0.0
O952 O 0.1045 0.43807 0.10645 0.0
H953 H 0.02185 0.38095 0.1083 0.0
H954 H 0.15885 0.43322 0.1512 0.0
O955 O 0.16462 0.42037 0.11303 0.0
H956 H 0.13073 0.50388 0.1381 0.0
H957 H 0.18356 0.48055 0.07175 0.0
H958 H 0.11491 0.4386 0.06806 0.0
H959 H 0.12308 0.4743 0.11255 0.0
H960 H 0.1722 0.45824 0.10189 0.0
O961 O 0.09846 0.39744 0.166 0.0
H962 H 0.05777 0.39884 0.10816 0.0
H963 H 0.0773 0.36204 0.16085 0.0
H964 H 0.12546 0.46103 0.03776 0.0
H965 H 0.16697 0.46241 0.17717 0.0
H966 H 0.16006 0.48215 0.03944 0.0
H967 H 0.15285 0.49803 0.17068 0.0
O968 O 0.12829 0.40521 0.08958 0.0
H969 H 0.14966 0.34402 0.16267 0.0
H970 H 0.0917 0.35421 0.10981 0.0
H971 H 0.10873 0.31976 0.11122 0.0
H972 H 0.13788 0.31448 0.13784 0.0
H973 H 0.1324 0.37831 0.16049 0.0
H974 H 0.0415 0.34385 0.16166 0.0
H975 H 0.01361 0.35311 0.13505 0.0
O976 O 0.09647 0.39312 0.10108 0.0
C977 C 0.0878 0.43708 0.1176 0.0
C978 C 0.03392 0.37669 0.11989 0.0
C979 C 0.04495 0.35589 0.14986 0.0
N980 N 0.06967 0.38134 0.13435 0.0
C981 C 0.05431 0.38673 0.11986 0.0
C982 C 0.06516 0.36627 0.14935 0.0
C983 C 0.02929 0.36112 0.13495 0.0
C984 C 0.15275 0.44871 0.14823 0.0
N985 N 0.14052 0.45203 0.1304 0.0
C986 C 0.15734 0.46516 0.16301 0.0
C987 C 0.14939 0.48514 0.15938 0.0
C988 C 0.13694 0.48841 0.14113 0.0
C989 C 0.13261 0.47157 0.12675 0.0
C990 C 0.16846 0.47141 0.07082 0.0
C991 C 0.1299 0.44787 0.06902 0.0
C992 C 0.16195 0.45871 0.08782 0.0
N993 N 0.14288 0.44713 0.08678 0.0
C994 C 0.13582 0.4605 0.05177 0.0
C995 C 0.15526 0.47231 0.0527 0.0
C996 C 0.1103 0.39526 0.08645 0.0
C997 C 0.13693 0.34611 0.15104 0.0
C998 C 0.10448 0.35209 0.12133 0.0
C999 C 0.114 0.33252 0.12212 0.0
C1000 C 0.13034 0.32955 0.13708 0.0
N1001 N 0.11104 0.36824 0.13508 0.0
C1002 C 0.12703 0.36545 0.1498 0.0
Co1003 Co 0.13255 0.59395 0.85586 0.0
Co1004 Co 0.12713 0.64638 0.86923 0.0
O1005 O 0.12063 0.61607 0.87269 0.0
C1006 C 0.09296 0.56908 0.84221 0.0
O1007 O 0.09859 0.57192 0.82242 0.0
C1008 C 0.13814 0.63688 0.91396 0.0
O1009 O 0.15004 0.62271 0.90547 0.0
O1010 O 0.15826 0.64222 0.86962 0.0
O1011 O 0.16095 0.60997 0.85457 0.0
H1012 H 0.16378 0.71152 0.83819 0.0
H1013 H 0.11195 0.58271 0.89654 0.0
O1014 O 0.10434 0.57769 0.85735 0.0
H1015 H 0.1857 0.56 0.90459 0.0
H1016 H 0.14277 0.51775 0.83563 0.0
H1017 H 0.15885 0.59286 0.81738 0.0
H1018 H 0.17348 0.57658 0.87134 0.0
H1019 H 0.12994 0.54653 0.85776 0.0
O1020 O 0.12793 0.6492 0.90168 0.0
H1021 H 0.15519 0.67296 0.84165 0.0
H1022 H 0.11308 0.68485 0.89162 0.0
H1023 H 0.17254 0.56444 0.79499 0.0
H1024 H 0.12344 0.56593 0.92993 0.0
H1025 H 0.16446 0.52651 0.80403 0.0
H1026 H 0.16057 0.5545 0.93414 0.0
O1027 O 0.12309 0.60802 0.82948 0.0
H1028 H 0.05214 0.63635 0.89493 0.0
H1029 H 0.09807 0.67003 0.84093 0.0
H1030 H 0.05936 0.67516 0.83946 0.0
H1031 H 0.03613 0.6583 0.86665 0.0
H1032 H 0.0909 0.6315 0.8957 0.0
H1033 H 0.12132 0.72355 0.88884 0.0
H1034 H 0.14678 0.7371 0.86191 0.0
O1035 O 0.12654 0.64324 0.83679 0.0
C1036 C 0.16918 0.62771 0.86171 0.0
C1037 C 0.15259 0.70582 0.84993 0.0
C1038 C 0.12879 0.71257 0.87838 0.0
N1039 N 0.1335 0.67673 0.86667 0.0
C1040 C 0.14762 0.68402 0.85191 0.0
C1041 C 0.12421 0.69066 0.87991 0.0
C1042 C 0.14307 0.72016 0.86326 0.0
C1043 C 0.12806 0.57755 0.89813 0.0
N1044 N 0.14197 0.5805 0.88192 0.0
C1045 C 0.1345 0.56814 0.91712 0.0
C1046 C 0.15536 0.56178 0.91949 0.0
C1047 C 0.16947 0.56489 0.90293 0.0
C1048 C 0.16247 0.57435 0.88416 0.0
C1049 C 0.1466 0.53413 0.83156 0.0
C1050 C 0.15549 0.57639 0.82151 0.0
C1051 C 0.1393 0.55054 0.84403 0.0
N1052 N 0.1437 0.57136 0.83889 0.0
C1053 C 0.16322 0.56037 0.80876 0.0
C1054 C 0.15869 0.5391 0.81383 0.0
C1055 C 0.12361 0.62743 0.82371 0.0
C1056 C 0.06211 0.64383 0.88303 0.0
C1057 C 0.08805 0.66258 0.85276 0.0
C1058 C 0.06615 0.66558 0.85188 0.0
C1059 C 0.05313 0.65613 0.86714 0.0
N1060 N 0.09674 0.65058 0.86845 0.0
C1061 C 0.08407 0.64119 0.88342 0.0
Co1062 Co 0.93118 0.64801 0.37663 0.0
Co1063 Co 0.87867 0.63572 0.38763 0.0
O1064 O 0.90916 0.63283 0.39246 0.0
C1065 C 0.94412 0.60332 0.37125 0.0
O1066 O 0.92593 0.5981 0.36127 0.0
C1067 C 0.88722 0.64614 0.43313 0.0
O1068 O 0.90186 0.65967 0.42588 0.0
O1069 O 0.88223 0.66739 0.38874 0.0
O1070 O 0.91458 0.67421 0.37518 0.0
H1071 H 0.81326 0.66502 0.35357 0.0
H1072 H 0.94286 0.62742 0.41731 0.0
O1073 O 0.94842 0.62226 0.37802 0.0
H1074 H 0.96419 0.70354 0.42748 0.0
H1075 H 0.0073 0.66935 0.35954 0.0
H1076 H 0.93156 0.67621 0.33913 0.0
H1077 H 0.94776 0.69045 0.39343 0.0
H1078 H 0.97883 0.65064 0.37964 0.0
O1079 O 0.87523 0.63515 0.41985 0.0
H1080 H 0.85195 0.66124 0.35905 0.0
H1081 H 0.84012 0.6161 0.40775 0.0
H1082 H 0.95947 0.69536 0.31877 0.0
H1083 H 0.9595 0.6398 0.45151 0.0
H1084 H 0.99754 0.69217 0.32906 0.0
H1085 H 0.97023 0.67812 0.45678 0.0
O1086 O 0.91746 0.63783 0.34937 0.0
H1087 H 0.89041 0.56144 0.41268 0.0
H1088 H 0.85584 0.60458 0.35787 0.0
H1089 H 0.85186 0.56537 0.35552 0.0
H1090 H 0.86919 0.54353 0.38309 0.0
H1091 H 0.8941 0.60068 0.41432 0.0
H1092 H 0.80129 0.6195 0.40295 0.0
H1093 H 0.78765 0.64404 0.37563 0.0
O1094 O 0.88216 0.63633 0.35538 0.0
C1095 C 0.89672 0.68017 0.38157 0.0
C1096 C 0.81901 0.65422 0.36547 0.0
C1097 C 0.81229 0.62869 0.39321 0.0
N1098 N 0.84823 0.63834 0.38357 0.0
C1099 C 0.84088 0.65197 0.3686 0.0
C1100 C 0.83428 0.62687 0.3959 0.0
C1101 C 0.80465 0.64246 0.37787 0.0
C1102 C 0.94769 0.64409 0.41939 0.0
N1103 N 0.94444 0.65817 0.40334 0.0
C1104 C 0.95704 0.65101 0.43882 0.0
C1105 C 0.96301 0.67252 0.44179 0.0
C1106 C 0.9596 0.6868 0.42536 0.0
C1107 C 0.95022 0.6793 0.40614 0.0
C1108 C 0.9907 0.67097 0.35499 0.0
C1109 C 0.94813 0.67477 0.34375 0.0
C1110 C 0.97453 0.66039 0.36628 0.0
N1111 N 0.95355 0.66255 0.36072 0.0
C1112 C 0.96386 0.6856 0.33212 0.0
C1113 C 0.98526 0.68373 0.33787 0.0
C1114 C 0.89802 0.63574 0.34288 0.0
C1115 C 0.88273 0.57078 0.4006 0.0
C1116 C 0.86346 0.59518 0.3699 0.0
C1117 C 0.86112 0.57299 0.36851 0.0
C1118 C 0.87084 0.56074 0.38399 0.0
N1119 N 0.87508 0.6049 0.38629 0.0
C1120 C 0.8847 0.59301 0.4015 0.0
Co1121 Co 0.88721 0.44179 0.88007 0.0
Co1122 Co 0.899 0.39015 0.89201 0.0
O1123 O 0.90284 0.42085 0.89571 0.0
C1124 C 0.933 0.45391 0.87414 0.0
O1125 O 0.93687 0.4338 0.87131 0.0
C1126 C 0.88904 0.39919 0.93677 0.0
O1127 O 0.87647 0.41304 0.92835 0.0
O1128 O 0.86728 0.3911 0.89183 0.0
O1129 O 0.85994 0.42423 0.88189 0.0
H1130 H 0.86783 0.32195 0.85904 0.0
H1131 H 0.91399 0.45568 0.91786 0.0
O1132 O 0.91427 0.45966 0.87771 0.0
H1133 H 0.84069 0.47314 0.93495 0.0
H1134 H 0.86985 0.51676 0.86214 0.0
H1135 H 0.85366 0.44068 0.84568 0.0
H1136 H 0.84827 0.45702 0.90025 0.0
H1137 H 0.88868 0.48912 0.88134 0.0
O1138 O 0.89937 0.38737 0.92442 0.0
H1139 H 0.87277 0.36099 0.8633 0.0
H1140 H 0.9174 0.35351 0.91429 0.0
H1141 H 0.83436 0.46786 0.826 0.0
H1142 H 0.90719 0.47225 0.95255 0.0
H1143 H 0.84241 0.50624 0.83419 0.0
H1144 H 0.87029 0.48099 0.96133 0.0
O1145 O 0.89273 0.42764 0.8526 0.0
H1146 H 0.97387 0.4074 0.91975 0.0
H1147 H 0.92955 0.36938 0.86408 0.0
H1148 H 0.96876 0.36811 0.86344 0.0
H1149 H 0.99118 0.38717 0.89145 0.0
H1150 H 0.93464 0.40838 0.91968 0.0
H1151 H 0.91284 0.31439 0.91072 0.0
H1152 H 0.88796 0.29839 0.88287 0.0
O1153 O 0.89848 0.39322 0.85968 0.0
C1154 C 0.85419 0.40518 0.88678 0.0
C1155 C 0.87877 0.32874 0.87118 0.0
C1156 C 0.90401 0.32449 0.90022 0.0
N1157 N 0.89549 0.35947 0.8889 0.0
C1158 C 0.88168 0.35082 0.87362 0.0
C1159 C 0.9065 0.34664 0.9022 0.0
C1160 C 0.89005 0.31552 0.88458 0.0
C1161 C 0.89795 0.45973 0.92143 0.0
N1162 N 0.88158 0.4555 0.90698 0.0
C1163 C 0.89417 0.46899 0.94116 0.0
C1164 C 0.87345 0.47384 0.94609 0.0
C1165 C 0.85683 0.46942 0.93131 0.0
C1166 C 0.86122 0.46025 0.9117 0.0
C1167 C 0.86618 0.50013 0.85836 0.0
C1168 C 0.8572 0.45734 0.84934 0.0
C1169 C 0.87683 0.48438 0.86917 0.0
N1170 N 0.8722 0.4633 0.86468 0.0
C1171 C 0.84625 0.47266 0.83813 0.0
C1172 C 0.85079 0.4942 0.84273 0.0
C1173 C 0.89604 0.40865 0.84665 0.0
C1174 C 0.96427 0.39896 0.9075 0.0
C1175 C 0.93921 0.37778 0.87628 0.0
C1176 C 0.9614 0.37696 0.87586 0.0
C1177 C 0.97397 0.38764 0.89159 0.0
N1178 N 0.92982 0.38886 0.89196 0.0
C1179 C 0.94204 0.39939 0.90743 0.0
Co1180 Co 0.07569 0.37257 0.3976 0.0
Co1181 Co 0.11556 0.40826 0.38312 0.0
O1182 O 0.09864 0.38149 0.37889 0.0
C1183 C 0.10072 0.33416 0.39335 0.0
O1184 O 0.11826 0.34645 0.39503 0.0
C1185 C 0.09972 0.40828 0.33824 0.0
O1186 O 0.08095 0.40396 0.34632 0.0
O1187 O 0.08926 0.42451 0.38352 0.0
O1188 O 0.068 0.40262 0.40254 0.0
H1189 H 0.13515 0.47954 0.41701 0.0
H1190 H 0.07673 0.35231 0.35494 0.0
O1191 O 0.08252 0.34215 0.39359 0.0
H1192 H 0.00905 0.38869 0.35578 0.0
H1193 H 0.01462 0.32393 0.42096 0.0
H1194 H 0.06098 0.38759 0.43936 0.0
H1195 H 0.03257 0.38859 0.3878 0.0
H1196 H 0.04211 0.33717 0.39632 0.0
O1197 O 0.11605 0.41136 0.3508 0.0
H1198 H 0.11423 0.44538 0.41238 0.0
H1199 H 0.15266 0.42842 0.36098 0.0
H1200 H 0.03374 0.37484 0.46449 0.0
H1201 H 0.05338 0.35153 0.32271 0.0
H1202 H 0.01061 0.34256 0.45549 0.0
H1203 H 0.01966 0.37039 0.32279 0.0
O1204 O 0.0958 0.37495 0.42223 0.0
H1205 H 0.16383 0.3546 0.35371 0.0
H1206 H 0.15473 0.40728 0.4109 0.0
H1207 H 0.18721 0.38686 0.41084 0.0
H1208 H 0.19193 0.36033 0.38206 0.0
H1209 H 0.13148 0.37519 0.35453 0.0
H1210 H 0.17391 0.46248 0.36491 0.0
H1211 H 0.16522 0.48828 0.39314 0.0
O1212 O 0.11497 0.40531 0.41571 0.0
C1213 C 0.07266 0.42066 0.39429 0.0
C1214 C 0.13914 0.46841 0.40469 0.0
C1215 C 0.16087 0.45884 0.37543 0.0
N1216 N 0.13235 0.43488 0.38655 0.0
C1217 C 0.12739 0.44902 0.40205 0.0
C1218 C 0.14877 0.43961 0.37325 0.0
C1219 C 0.15599 0.4733 0.39128 0.0
C1220 C 0.06174 0.35999 0.35529 0.0
N1221 N 0.05608 0.37055 0.37319 0.0
C1222 C 0.04867 0.35964 0.33695 0.0
C1223 C 0.02973 0.37024 0.33701 0.0
C1224 C 0.02382 0.38057 0.35548 0.0
C1225 C 0.03724 0.3805 0.37356 0.0
C1226 C 0.02473 0.33792 0.42512 0.0
C1227 C 0.05079 0.37369 0.43522 0.0
C1228 C 0.0403 0.34551 0.41122 0.0
N1229 N 0.05314 0.36315 0.4164 0.0
C1230 C 0.03544 0.36651 0.44954 0.0
C1231 C 0.02245 0.34841 0.44448 0.0
C1232 C 0.10815 0.39067 0.42846 0.0
C1233 C 0.16198 0.36616 0.3663 0.0
C1234 C 0.15661 0.39568 0.39839 0.0
C1235 C 0.17507 0.38422 0.3984 0.0
C1236 C 0.17772 0.36935 0.38223 0.0
N1237 N 0.14125 0.39246 0.38271 0.0
C1238 C 0.14375 0.37794 0.36679 0.0
Co1239 Co 0.87079 0.58741 0.1499 0.0
Co1240 Co 0.88122 0.63989 0.13762 0.0
O1241 O 0.88521 0.60965 0.1337 0.0
C1242 C 0.91606 0.57566 0.15579 0.0
O1243 O 0.92094 0.59356 0.16613 0.0
C1244 C 0.87126 0.63053 0.09218 0.0
O1245 O 0.8579 0.61584 0.09963 0.0
O1246 O 0.84954 0.6352 0.13585 0.0
O1247 O 0.84403 0.60317 0.15082 0.0
H1248 H 0.84944 0.70428 0.16921 0.0
H1249 H 0.89123 0.57624 0.10955 0.0
O1250 O 0.8971 0.57099 0.14896 0.0
H1251 H 0.8154 0.55274 0.09944 0.0
H1252 H 0.8509 0.51118 0.16794 0.0
H1253 H 0.84297 0.5865 0.18721 0.0
H1254 H 0.82848 0.56958 0.13322 0.0
H1255 H 0.86939 0.53989 0.14793 0.0
O1256 O 0.8819 0.64297 0.1053 0.0
H1257 H 0.85459 0.66584 0.16489 0.0
H1258 H 0.89959 0.67878 0.11682 0.0
H1259 H 0.82402 0.55833 0.2075 0.0
H1260 H 0.87885 0.55921 0.07563 0.0
H1261 H 0.82758 0.52047 0.19768 0.0
H1262 H 0.84068 0.54738 0.07038 0.0
O1263 O 0.88095 0.60154 0.17689 0.0
H1264 H 0.95631 0.63055 0.11479 0.0
H1265 H 0.91147 0.66404 0.16745 0.0
H1266 H 0.95065 0.66941 0.17065 0.0
H1267 H 0.97334 0.65262 0.14417 0.0
H1268 H 0.91709 0.62549 0.11227 0.0
H1269 H 0.89482 0.71735 0.12047 0.0
H1270 H 0.86965 0.73031 0.14689 0.0
O1271 O 0.88059 0.63666 0.16997 0.0
C1272 C 0.83731 0.62049 0.14349 0.0
C1273 C 0.86051 0.69883 0.1577 0.0
C1274 C 0.88595 0.70617 0.13031 0.0
N1275 N 0.8775 0.67014 0.14075 0.0
C1276 C 0.86353 0.6771 0.15523 0.0
C1277 C 0.88855 0.68432 0.12828 0.0
C1278 C 0.87183 0.71343 0.14515 0.0
C1279 C 0.87464 0.57092 0.10749 0.0
N1280 N 0.86064 0.57379 0.12342 0.0
C1281 C 0.86771 0.56137 0.08821 0.0
C1282 C 0.84627 0.55478 0.08526 0.0
C1283 C 0.83208 0.5578 0.10154 0.0
C1284 C 0.83957 0.56742 0.12062 0.0
C1285 C 0.84906 0.52766 0.17228 0.0
C1286 C 0.84468 0.57001 0.18288 0.0
C1287 C 0.85954 0.54398 0.16104 0.0
N1288 N 0.85701 0.56485 0.16622 0.0
C1289 C 0.83395 0.55414 0.19446 0.0
C1290 C 0.83606 0.53285 0.18899 0.0
C1291 C 0.8821 0.62102 0.18291 0.0
C1292 C 0.94659 0.638 0.12639 0.0
C1293 C 0.92125 0.65666 0.15588 0.0
C1294 C 0.94342 0.65978 0.15776 0.0
C1295 C 0.95614 0.65037 0.14289 0.0
N1296 N 0.912 0.64458 0.1396 0.0
C1297 C 0.92437 0.63525 0.125 0.0
Co1298 Co 0.9263 0.36399 0.62684 0.0
Co1299 Co 0.88904 0.3987 0.64138 0.0
O1300 O 0.90358 0.37229 0.64503 0.0
C1301 C 0.89701 0.32573 0.62724 0.0
O1302 O 0.88154 0.33794 0.6216 0.0
C1303 C 0.90361 0.39802 0.68663 0.0
O1304 O 0.92227 0.39396 0.67909 0.0
O1305 O 0.91677 0.41556 0.64215 0.0
O1306 O 0.93708 0.39421 0.62347 0.0
H1307 H 0.87615 0.47012 0.60967 0.0
H1308 H 0.92183 0.34291 0.66872 0.0
O1309 O 0.91602 0.33358 0.62982 0.0
H1310 H 0.99384 0.37844 0.67076 0.0
H1311 H 0.98341 0.31613 0.60387 0.0
H1312 H 0.94462 0.38023 0.58666 0.0
H1313 H 0.97067 0.38004 0.63863 0.0
H1314 H 0.95576 0.32834 0.62758 0.0
O1315 O 0.88802 0.40123 0.67368 0.0
H1316 H 0.89421 0.43639 0.61358 0.0
H1317 H 0.85302 0.41763 0.66333 0.0
H1318 H 0.97213 0.36857 0.5625 0.0
H1319 H 0.9447 0.3405 0.70104 0.0
H1320 H 0.99159 0.33618 0.57096 0.0
H1321 H 0.98085 0.35862 0.70233 0.0
O1322 O 0.90749 0.36687 0.60146 0.0
H1323 H 0.8359 0.34272 0.66702 0.0
H1324 H 0.85028 0.39753 0.61285 0.0
H1325 H 0.81617 0.37613 0.61119 0.0
H1326 H 0.80879 0.34852 0.63844 0.0
H1327 H 0.86988 0.36435 0.66797 0.0
H1328 H 0.83463 0.45124 0.66011 0.0
H1329 H 0.84614 0.47772 0.63306 0.0
O1330 O 0.89015 0.39633 0.60886 0.0
C1331 C 0.93344 0.41215 0.63184 0.0
C1332 C 0.87094 0.45868 0.62147 0.0
C1333 C 0.84766 0.44809 0.6498 0.0
N1334 N 0.87454 0.42501 0.63854 0.0
C1335 C 0.88106 0.43953 0.6237 0.0
C1336 C 0.85815 0.42912 0.65158 0.0
C1337 C 0.85412 0.46294 0.63461 0.0
C1338 C 0.93771 0.35047 0.669 0.0
N1339 N 0.94488 0.3616 0.65179 0.0
C1340 C 0.95054 0.34917 0.68739 0.0
C1341 C 0.97081 0.35936 0.68811 0.0
C1342 C 0.97809 0.37052 0.67043 0.0
C1343 C 0.96485 0.37144 0.6523 0.0
C1344 C 0.97497 0.33021 0.59997 0.0
C1345 C 0.95314 0.36623 0.59054 0.0
C1346 C 0.9593 0.3372 0.61333 0.0
N1347 N 0.94862 0.35501 0.60854 0.0
C1348 C 0.96866 0.35966 0.57677 0.0
C1349 C 0.97956 0.34148 0.58151 0.0
C1350 C 0.8964 0.38234 0.59566 0.0
C1351 C 0.8389 0.35475 0.65509 0.0
C1352 C 0.84721 0.3855 0.62472 0.0
C1353 C 0.82785 0.37347 0.62373 0.0
C1354 C 0.82371 0.35799 0.63903 0.0
N1355 N 0.862 0.38225 0.64055 0.0
C1356 C 0.85807 0.3671 0.6556 0.0
Co1357 Co 0.08317 0.64017 0.63071 0.0
Co1358 Co 0.13528 0.63293 0.61836 0.0
O1359 O 0.10469 0.62737 0.61403 0.0
C1360 C 0.07211 0.59375 0.6337 0.0
O1361 O 0.09116 0.59066 0.64183 0.0
C1362 C 0.12554 0.64292 0.57339 0.0
O1363 O 0.11143 0.65513 0.58149 0.0
O1364 O 0.13212 0.6642 0.61831 0.0
O1365 O 0.09985 0.66824 0.63205 0.0
H1366 H 0.202 0.66815 0.65149 0.0
H1367 H 0.07085 0.61851 0.58969 0.0
O1368 O 0.06634 0.61236 0.62925 0.0
H1369 H 0.0473 0.69176 0.58253 0.0
H1370 H 0.00771 0.65069 0.65234 0.0
H1371 H 0.08381 0.66925 0.66816 0.0
H1372 H 0.06528 0.68053 0.61562 0.0
H1373 H 0.0356 0.63615 0.63025 0.0
O1374 O 0.13779 0.63293 0.58601 0.0
H1375 H 0.16313 0.6608 0.64693 0.0
H1376 H 0.17299 0.61698 0.5968 0.0
H1377 H 0.05648 0.68441 0.69037 0.0
H1378 H 0.05282 0.62904 0.55637 0.0
H1379 H 0.01811 0.67512 0.68249 0.0
H1380 H 0.04091 0.66591 0.55264 0.0
O1381 O 0.09749 0.6315 0.65731 0.0
H1382 H 0.12183 0.55771 0.59159 0.0
H1383 H 0.15831 0.60366 0.64679 0.0
H1384 H 0.16175 0.56478 0.64802 0.0
H1385 H 0.14346 0.54153 0.62025 0.0
H1386 H 0.1187 0.59664 0.59105 0.0
H1387 H 0.21198 0.62396 0.6007 0.0
H1388 H 0.2267 0.64965 0.62827 0.0
O1389 O 0.13266 0.6331 0.65076 0.0
C1390 C 0.11788 0.67573 0.62572 0.0
C1391 C 0.19578 0.65686 0.63948 0.0
C1392 C 0.20138 0.63208 0.61095 0.0
N1393 N 0.16585 0.63833 0.62176 0.0
C1394 C 0.1738 0.65258 0.63687 0.0
C1395 C 0.17931 0.62822 0.60879 0.0
C1396 C 0.20963 0.64649 0.62643 0.0
C1397 C 0.06558 0.63454 0.58825 0.0
N1398 N 0.06901 0.64885 0.60463 0.0
C1399 C 0.05544 0.64043 0.56931 0.0
C1400 C 0.04881 0.66113 0.56721 0.0
C1401 C 0.05241 0.67565 0.58397 0.0
C1402 C 0.06263 0.66921 0.60266 0.0
C1403 C 0.02437 0.65498 0.65577 0.0
C1404 C 0.06714 0.66537 0.66443 0.0
C1405 C 0.04022 0.64679 0.64335 0.0
N1406 N 0.06128 0.65215 0.64767 0.0
C1407 C 0.05173 0.67391 0.67714 0.0
C1408 C 0.03021 0.66867 0.67273 0.0
C1409 C 0.11696 0.63124 0.66348 0.0
C1410 C 0.12994 0.56767 0.60374 0.0
C1411 C 0.15027 0.59364 0.63467 0.0
C1412 C 0.15231 0.57164 0.63543 0.0
C1413 C 0.14205 0.55861 0.61984 0.0
N1414 N 0.13843 0.60242 0.61878 0.0
C1415 C 0.12829 0.58974 0.60347 0.0
Co1416 Co 0.88588 0.8754 0.64703 0.0
Co1417 Co 0.89571 0.87013 0.59387 0.0
O1418 O 0.88038 0.88172 0.61722 0.0
C1419 C 0.84027 0.863 0.63882 0.0
O1420 O 0.84717 0.85128 0.62334 0.0
C1421 C 0.90163 0.91643 0.58328 0.0
O1422 O 0.91392 0.9201 0.60028 0.0
O1423 O 0.92339 0.87976 0.60773 0.0
O1424 O 0.91801 0.87695 0.64292 0.0
H1425 H 0.95323 0.82958 0.56049 0.0
H1426 H 0.85842 0.91068 0.63511 0.0
O1427 O 0.85378 0.87365 0.65093 0.0
H1428 H 0.91798 0.94411 0.67842 0.0
H1429 H 0.87182 0.88137 0.72519 0.0
H1430 H 0.91537 0.84845 0.67104 0.0
H1431 H 0.91592 0.90537 0.6714 0.0
H1432 H 0.86619 0.88908 0.68707 0.0
O1433 O 0.89368 0.89781 0.57889 0.0
H1434 H 0.93346 0.84409 0.59021 0.0
H1435 H 0.89138 0.87312 0.54657 0.0
H1436 H 0.92166 0.84042 0.70897 0.0
H1437 H 0.85977 0.94944 0.64187 0.0
H1438 H 0.89979 0.85694 0.73634 0.0
H1439 H 0.88973 0.96641 0.66364 0.0
O1440 O 0.88511 0.84415 0.64114 0.0
H1441 H 0.81965 0.87763 0.56921 0.0
H1442 H 0.87869 0.82904 0.57431 0.0
H1443 H 0.84409 0.81611 0.55821 0.0
H1444 H 0.81429 0.84049 0.55555 0.0
H1445 H 0.85445 0.88987 0.58534 0.0
H1446 H 0.91083 0.85907 0.51634 0.0
H1447 H 0.94185 0.83688 0.52333 0.0
O1448 O 0.89771 0.84215 0.60815 0.0
C1449 C 0.93033 0.87957 0.62703 0.0
C1450 C 0.93966 0.8391 0.55729 0.0
C1451 C 0.91587 0.85567 0.53251 0.0
N1452 N 0.91113 0.8592 0.57014 0.0
C1453 C 0.92836 0.8473 0.57405 0.0
C1454 C 0.90495 0.86362 0.54969 0.0
C1455 C 0.93329 0.84326 0.53641 0.0
C1456 C 0.87142 0.91792 0.64474 0.0
N1457 N 0.887 0.90576 0.65296 0.0
C1458 C 0.87214 0.93989 0.64845 0.0
C1459 C 0.88897 0.9494 0.66065 0.0
C1460 C 0.90483 0.9369 0.66894 0.0
C1461 C 0.9036 0.91498 0.66487 0.0
C1462 C 0.88148 0.8741 0.71342 0.0
C1463 C 0.90589 0.8558 0.68288 0.0
C1464 C 0.87833 0.87838 0.69183 0.0
N1465 N 0.89056 0.86935 0.6769 0.0
C1466 C 0.90948 0.85114 0.70432 0.0
C1467 C 0.89718 0.8604 0.71967 0.0
C1468 C 0.89206 0.83365 0.62558 0.0
C1469 C 0.83254 0.86688 0.5702 0.0
C1470 C 0.86579 0.83974 0.57325 0.0
C1471 C 0.84624 0.83234 0.56408 0.0
C1472 C 0.82953 0.84603 0.56257 0.0
N1473 N 0.86864 0.86024 0.58065 0.0
C1474 C 0.85232 0.87375 0.57923 0.0
Co1475 Co 0.63914 0.36051 0.0875 0.0
Co1476 Co 0.59811 0.37429 0.11839 0.0
O1477 O 0.62706 0.37893 0.10839 0.0
C1478 C 0.67958 0.35125 0.10931 0.0
O1479 O 0.67401 0.33099 0.10626 0.0
C1480 C 0.59942 0.41985 0.10509 0.0
O1481 O 0.60317 0.413 0.08583 0.0
O1482 O 0.58652 0.37403 0.0886 0.0
O1483 O 0.61094 0.35523 0.07232 0.0
H1484 H 0.52377 0.34044 0.11853 0.0
H1485 H 0.65877 0.40394 0.09527 0.0
O1486 O 0.66741 0.36554 0.10269 0.0
H1487 H 0.63832 0.40135 0.01893 0.0
H1488 H 0.69585 0.33864 0.03771 0.0
H1489 H 0.62592 0.31867 0.06778 0.0
H1490 H 0.63173 0.36995 0.0415 0.0
H1491 H 0.67949 0.36244 0.06328 0.0
O1492 O 0.59649 0.40653 0.12016 0.0
H1493 H 0.56084 0.34518 0.10662 0.0
H1494 H 0.57315 0.39585 0.15112 0.0
H1495 H 0.64153 0.29457 0.04199 0.0
H1496 H 0.66579 0.4357 0.07322 0.0
H1497 H 0.67677 0.30449 0.0268 0.0
H1498 H 0.65552 0.43452 0.03477 0.0
O1499 O 0.6327 0.33579 0.10576 0.0
H1500 H 0.64493 0.40189 0.17977 0.0
H1501 H 0.59104 0.34626 0.15581 0.0
H1502 H 0.6058 0.3456 0.19255 0.0
H1503 H 0.63291 0.3736 0.20476 0.0
H1504 H 0.62988 0.40184 0.14312 0.0
H1505 H 0.53612 0.39181 0.16337 0.0
H1506 H 0.5112 0.36387 0.14708 0.0
O1507 O 0.59982 0.3419 0.11687 0.0
C1508 C 0.59268 0.36316 0.07292 0.0
C1509 C 0.5345 0.35261 0.1258 0.0
C1510 C 0.54143 0.38147 0.15095 0.0
N1511 N 0.56917 0.37065 0.12829 0.0
C1512 C 0.55553 0.35532 0.11917 0.0
C1513 C 0.56235 0.38371 0.14392 0.0
C1514 C 0.52745 0.36579 0.14181 0.0
C1515 C 0.65442 0.40326 0.07851 0.0
N1516 N 0.64501 0.38506 0.06967 0.0
C1517 C 0.65836 0.42131 0.06612 0.0
C1518 C 0.65256 0.42065 0.04455 0.0
C1519 C 0.64291 0.40205 0.03566 0.0
C1520 C 0.63918 0.38433 0.04854 0.0
C1521 C 0.68047 0.33416 0.04418 0.0
C1522 C 0.64119 0.32317 0.06113 0.0
C1523 C 0.67113 0.34757 0.05866 0.0
N1524 N 0.65174 0.34198 0.06696 0.0
C1525 C 0.64998 0.30943 0.04657 0.0
C1526 C 0.66975 0.315 0.03807 0.0
C1527 C 0.61515 0.32955 0.11387 0.0
C1528 C 0.63309 0.38964 0.17466 0.0
C1529 C 0.60288 0.35846 0.16099 0.0
C1530 C 0.61115 0.35803 0.18182 0.0
C1531 C 0.62635 0.37375 0.18866 0.0
N1532 N 0.60949 0.37416 0.14738 0.0
C1533 C 0.62446 0.38957 0.15394 0.0
Co1534 Co 0.13757 0.13016 0.64881 0.0
Co1535 Co 0.12785 0.142 0.59613 0.0
O1536 O 0.14233 0.12704 0.61854 0.0
C1537 C 0.18296 0.14318 0.6426 0.0
O1538 O 0.17554 0.15593 0.6281 0.0
C1539 C 0.1182 0.09658 0.58389 0.0
O1540 O 0.10917 0.09302 0.6022 0.0
O1541 O 0.09969 0.13488 0.60884 0.0
O1542 O 0.10541 0.12878 0.64375 0.0
H1543 H 0.07486 0.19161 0.56619 0.0
H1544 H 0.16513 0.0967 0.63314 0.0
O1545 O 0.16984 0.13179 0.65358 0.0
H1546 H 0.10689 0.05825 0.67044 0.0
H1547 H 0.15402 0.11608 0.726 0.0
H1548 H 0.10813 0.15363 0.67547 0.0
H1549 H 0.10843 0.09748 0.66847 0.0
H1550 H 0.15867 0.11265 0.68728 0.0
O1551 O 0.12567 0.11508 0.57905 0.0
H1552 H 0.0943 0.17334 0.59466 0.0
H1553 H 0.12946 0.14113 0.54865 0.0
H1554 H 0.10281 0.1574 0.71404 0.0
H1555 H 0.16429 0.05749 0.63486 0.0
H1556 H 0.12587 0.13854 0.73959 0.0
H1557 H 0.13499 0.038 0.65359 0.0
O1558 O 0.13771 0.16183 0.64707 0.0
H1559 H 0.20126 0.1266 0.57214 0.0
H1560 H 0.14884 0.18176 0.57918 0.0
H1561 H 0.18407 0.19134 0.56449 0.0
H1562 H 0.21056 0.16363 0.56088 0.0
H1563 H 0.1659 0.11776 0.58688 0.0
H1564 H 0.1102 0.15892 0.51964 0.0
H1565 H 0.08276 0.18448 0.52847 0.0
O1566 O 0.13023 0.16916 0.61277 0.0
C1567 C 0.09293 0.13085 0.62746 0.0
C1568 C 0.08685 0.1806 0.5622 0.0
C1569 C 0.10668 0.16222 0.53607 0.0
N1570 N 0.11314 0.15636 0.57333 0.0
C1571 C 0.09797 0.17027 0.57825 0.0
C1572 C 0.11749 0.15217 0.55256 0.0
C1573 C 0.09128 0.17654 0.541 0.0
C1574 C 0.15243 0.08835 0.64147 0.0
N1575 N 0.13693 0.09937 0.65082 0.0
C1576 C 0.15199 0.06614 0.64233 0.0
C1577 C 0.13554 0.05521 0.65281 0.0
C1578 C 0.11976 0.06656 0.66226 0.0
C1579 C 0.12069 0.08877 0.66107 0.0
C1580 C 0.14387 0.12437 0.71503 0.0
C1581 C 0.11815 0.1453 0.68649 0.0
C1582 C 0.14646 0.12252 0.6931 0.0
N1583 N 0.13362 0.13285 0.67916 0.0
C1584 C 0.1151 0.14753 0.70831 0.0
C1585 C 0.12806 0.13696 0.72264 0.0
C1586 C 0.13408 0.1748 0.63207 0.0
C1587 C 0.18983 0.1388 0.57359 0.0
C1588 C 0.16031 0.16964 0.57772 0.0
C1589 C 0.18021 0.17514 0.56934 0.0
C1590 C 0.19506 0.15959 0.56731 0.0
N1591 N 0.1553 0.14922 0.58385 0.0
C1592 C 0.16976 0.13387 0.58186 0.0
Co1593 Co 0.36671 0.6469 0.08281 0.0
Co1594 Co 0.40629 0.63577 0.11929 0.0
O1595 O 0.37802 0.63017 0.10595 0.0
C1596 C 0.32528 0.65747 0.10001 0.0
O1597 O 0.33116 0.67757 0.09711 0.0
C1598 C 0.40468 0.59072 0.10515 0.0
O1599 O 0.39902 0.59839 0.08662 0.0
O1600 O 0.42003 0.63636 0.09105 0.0
O1601 O 0.39534 0.65109 0.07012 0.0
H1602 H 0.47906 0.67248 0.12862 0.0
H1603 H 0.346 0.60436 0.09118 0.0
O1604 O 0.33782 0.6429 0.09542 0.0
H1605 H 0.36995 0.60074 0.01722 0.0
H1606 H 0.31181 0.66544 0.02689 0.0
H1607 H 0.38086 0.68709 0.06198 0.0
H1608 H 0.37621 0.63372 0.03848 0.0
H1609 H 0.32735 0.6431 0.05478 0.0
O1610 O 0.40928 0.60363 0.12067 0.0
H1611 H 0.44298 0.66638 0.1124 0.0
H1612 H 0.42996 0.61515 0.1545 0.0
H1613 H 0.36597 0.7098 0.03415 0.0
H1614 H 0.33908 0.57117 0.07034 0.0
H1615 H 0.33108 0.69923 0.01666 0.0
H1616 H 0.35118 0.56918 0.03311 0.0
O1617 O 0.37257 0.67309 0.09986 0.0
H1618 H 0.35702 0.60611 0.17471 0.0
H1619 H 0.40964 0.66407 0.15762 0.0
H1620 H 0.39257 0.66407 0.19251 0.0
H1621 H 0.3661 0.63489 0.20127 0.0
H1622 H 0.37435 0.60684 0.13994 0.0
H1623 H 0.46597 0.62056 0.17107 0.0
H1624 H 0.49077 0.64943 0.15814 0.0
O1625 O 0.40325 0.66802 0.11794 0.0
C1626 C 0.41415 0.64513 0.07383 0.0
C1627 C 0.46838 0.65989 0.13444 0.0
C1628 C 0.46104 0.63073 0.15824 0.0
N1629 N 0.43435 0.64054 0.13262 0.0
C1630 C 0.44791 0.65642 0.12537 0.0
C1631 C 0.44069 0.62772 0.14878 0.0
C1632 C 0.47494 0.64694 0.15099 0.0
C1633 C 0.35106 0.60371 0.0749 0.0
N1634 N 0.36136 0.62101 0.06603 0.0
C1635 C 0.34718 0.58484 0.06321 0.0
C1636 C 0.35403 0.58372 0.04233 0.0
C1637 C 0.36458 0.60141 0.03342 0.0
C1638 C 0.36815 0.62002 0.04557 0.0
C1639 C 0.32699 0.67028 0.03449 0.0
C1640 C 0.36578 0.6822 0.05425 0.0
C1641 C 0.33588 0.65768 0.05025 0.0
N1642 N 0.35498 0.66379 0.06002 0.0
C1643 C 0.3574 0.69517 0.03854 0.0
C1644 C 0.33783 0.68919 0.0287 0.0
C1645 C 0.38867 0.68008 0.11106 0.0
C1646 C 0.36857 0.61888 0.17111 0.0
C1647 C 0.39808 0.65137 0.16129 0.0
C1648 C 0.3885 0.65143 0.18108 0.0
C1649 C 0.37366 0.63505 0.18599 0.0
N1650 N 0.39307 0.63541 0.14681 0.0
C1651 C 0.37848 0.61934 0.15147 0.0
Co1652 Co 0.86981 0.09767 0.39452 0.0
Co1653 Co 0.85888 0.13498 0.43214 0.0
O1654 O 0.87629 0.1246 0.40961 0.0
C1655 C 0.91471 0.09691 0.40969 0.0
O1656 O 0.90698 0.10109 0.42838 0.0
C1657 C 0.86213 0.17133 0.40288 0.0
O1658 O 0.85467 0.15841 0.38759 0.0
O1659 O 0.83338 0.13188 0.41335 0.0
O1660 O 0.83762 0.10151 0.39526 0.0
H1661 H 0.79263 0.1361 0.47489 0.0
H1662 H 0.89996 0.13021 0.37641 0.0
O1663 O 0.90184 0.09387 0.39368 0.0
H1664 H 0.84258 0.11799 0.32186 0.0
H1665 H 0.88354 0.04146 0.3398 0.0
H1666 H 0.83806 0.06143 0.39874 0.0
H1667 H 0.84183 0.09806 0.35548 0.0
H1668 H 0.89001 0.07599 0.35852 0.0
O1669 O 0.86473 0.16456 0.42175 0.0
H1670 H 0.81739 0.12074 0.44997 0.0
H1671 H 0.86205 0.1731 0.46095 0.0
H1672 H 0.83089 0.02684 0.38034 0.0
H1673 H 0.90142 0.15037 0.34295 0.0
H1674 H 0.85372 0.01668 0.35064 0.0
H1675 H 0.87255 0.14434 0.31541 0.0
O1676 O 0.86847 0.0821 0.42193 0.0
H1677 H 0.93503 0.15771 0.4513 0.0
H1678 H 0.86859 0.12245 0.47682 0.0
H1679 H 0.90032 0.12594 0.50084 0.0
H1680 H 0.93384 0.14372 0.48812 0.0
H1681 H 0.90294 0.15371 0.42774 0.0
H1682 H 0.83762 0.18915 0.4859 0.0
H1683 H 0.80234 0.17088 0.49245 0.0
O1684 O 0.85283 0.1055 0.44292 0.0
C1685 C 0.826 0.1164 0.40176 0.0
C1686 C 0.80788 0.14427 0.47202 0.0
C1687 C 0.83312 0.17407 0.47815 0.0
N1688 N 0.84116 0.146 0.45403 0.0
C1689 C 0.82205 0.13558 0.45804 0.0
C1690 C 0.8469 0.16489 0.46406 0.0
C1691 C 0.81338 0.16377 0.48191 0.0
C1692 C 0.88745 0.12736 0.36442 0.0
N1693 N 0.8709 0.11289 0.36784 0.0
C1694 C 0.88831 0.13888 0.34554 0.0
C1695 C 0.87209 0.13551 0.33011 0.0
C1696 C 0.85526 0.12074 0.33372 0.0
C1697 C 0.85491 0.10953 0.35281 0.0
C1698 C 0.87344 0.04574 0.35267 0.0
C1699 C 0.84795 0.05718 0.38572 0.0
C1700 C 0.87705 0.06524 0.36335 0.0
N1701 N 0.8643 0.07076 0.37956 0.0
C1702 C 0.84387 0.03755 0.37541 0.0
C1703 C 0.8567 0.03184 0.35876 0.0
C1704 C 0.85903 0.08693 0.43886 0.0
C1705 C 0.9205 0.14999 0.45704 0.0
C1706 C 0.88314 0.13011 0.47113 0.0
C1707 C 0.90104 0.13209 0.48482 0.0
C1708 C 0.91983 0.14209 0.47769 0.0
N1709 N 0.88391 0.13792 0.45091 0.0
C1710 C 0.90227 0.14774 0.4438 0.0
Co1711 Co 0.37064 0.39558 0.91284 0.0
Co1712 Co 0.37634 0.38416 0.85956 0.0
O1713 O 0.38346 0.3808 0.88965 0.0
C1714 C 0.40952 0.41606 0.93359 0.0
O1715 O 0.4017 0.43457 0.92936 0.0
C1716 C 0.36536 0.33884 0.86907 0.0
O1717 O 0.35467 0.34657 0.88474 0.0
O1718 O 0.34514 0.38302 0.86473 0.0
O1719 O 0.34173 0.39208 0.89905 0.0
H1720 H 0.33922 0.41499 0.79603 0.0
H1721 H 0.39729 0.35893 0.9219 0.0
O1722 O 0.39958 0.39895 0.92704 0.0
H1723 H 0.32693 0.33909 0.95105 0.0
H1724 H 0.36036 0.41372 0.99008 0.0
H1725 H 0.33898 0.42866 0.91585 0.0
H1726 H 0.33345 0.37381 0.93379 0.0
H1727 H 0.37602 0.39469 0.96027 0.0
O1728 O 0.37516 0.35172 0.85646 0.0
H1729 H 0.34819 0.41139 0.83425 0.0
H1730 H 0.38976 0.36229 0.82036 0.0
H1731 H 0.32286 0.44795 0.94515 0.0
H1732 H 0.3915 0.32412 0.93918 0.0
H1733 H 0.33346 0.4405 0.98249 0.0
H1734 H 0.3561 0.31399 0.95387 0.0
O1735 O 0.37522 0.42312 0.89802 0.0
H1736 H 0.45118 0.35974 0.86622 0.0
H1737 H 0.40526 0.41332 0.8351 0.0
H1738 H 0.44386 0.41559 0.82844 0.0
H1739 H 0.46708 0.38862 0.844 0.0
H1740 H 0.41253 0.35819 0.87263 0.0
H1741 H 0.38113 0.36523 0.78199 0.0
H1742 H 0.35575 0.39179 0.76962 0.0
O1743 O 0.37718 0.41656 0.86287 0.0
C1744 C 0.33386 0.3871 0.88067 0.0
C1745 C 0.35036 0.40341 0.80122 0.0
C1746 C 0.37385 0.37545 0.79334 0.0
N1747 N 0.36961 0.38678 0.82947 0.0
C1748 C 0.35555 0.40135 0.82283 0.0
C1749 C 0.37865 0.37383 0.81508 0.0
C1750 C 0.35962 0.39037 0.78641 0.0
C1751 C 0.3819 0.35473 0.92843 0.0
N1752 N 0.36578 0.36847 0.92696 0.0
C1753 C 0.37869 0.33495 0.93812 0.0
C1754 C 0.35881 0.32926 0.94633 0.0
C1755 C 0.34243 0.34333 0.94474 0.0
C1756 C 0.34621 0.36296 0.9349 0.0
C1757 C 0.35558 0.41708 0.97383 0.0
C1758 C 0.34367 0.42529 0.9321 0.0
C1759 C 0.3644 0.40639 0.9569 0.0
N1760 N 0.35835 0.41051 0.93634 0.0
C1761 C 0.33451 0.43629 0.94861 0.0
C1762 C 0.34051 0.4321 0.96959 0.0
C1763 C 0.3767 0.42945 0.87884 0.0
C1764 C 0.44121 0.37156 0.85931 0.0
C1765 C 0.41528 0.40159 0.84201 0.0
C1766 C 0.43712 0.40292 0.83814 0.0
C1767 C 0.45013 0.38778 0.84686 0.0
N1768 N 0.40665 0.38558 0.85416 0.0
C1769 C 0.41931 0.37072 0.86283 0.0
Co1770 Co 0.13268 0.91644 0.38822 0.0
Co1771 Co 0.14262 0.87551 0.42299 0.0
O1772 O 0.12714 0.88778 0.3993 0.0
C1773 C 0.08833 0.91414 0.40278 0.0
O1774 O 0.09694 0.90706 0.4204 0.0
C1775 C 0.14773 0.84618 0.38697 0.0
O1776 O 0.15024 0.86289 0.37475 0.0
O1777 O 0.17023 0.8854 0.41128 0.0
O1778 O 0.16477 0.91258 0.38901 0.0
H1779 H 0.19908 0.87488 0.48116 0.0
H1780 H 0.10177 0.88615 0.36557 0.0
O1781 O 0.10049 0.92004 0.38763 0.0
H1782 H 0.15754 0.90404 0.31392 0.0
H1783 H 0.11682 0.97788 0.34059 0.0
H1784 H 0.16464 0.95206 0.39713 0.0
H1785 H 0.15937 0.92023 0.34986 0.0
H1786 H 0.11088 0.94176 0.35514 0.0
O1787 O 0.14413 0.84829 0.40668 0.0
H1788 H 0.178 0.89095 0.45239 0.0
H1789 H 0.14073 0.83299 0.44361 0.0
H1790 H 0.17129 0.9882 0.3829 0.0
H1791 H 0.09924 0.86972 0.32976 0.0
H1792 H 0.14734 1.00127 0.35438 0.0
H1793 H 0.1273 0.87859 0.30368 0.0
O1794 O 0.13512 0.92945 0.41738 0.0
H1795 H 0.06891 0.84017 0.41924 0.0
H1796 H 0.12332 0.87798 0.46571 0.0
H1797 H 0.08867 0.8662 0.48045 0.0
H1798 H 0.06121 0.84709 0.45715 0.0
H1799 H 0.10371 0.85242 0.40511 0.0
H1800 H 0.16155 0.81624 0.47213 0.0
H1801 H 0.19113 0.83713 0.49087 0.0
O1802 O 0.14184 0.90245 0.43951 0.0
C1803 C 0.17706 0.89984 0.3987 0.0
C1804 C 0.18626 0.86559 0.47304 0.0
C1805 C 0.16521 0.83267 0.46796 0.0
N1806 N 0.1581 0.86295 0.44641 0.0
C1807 C 0.17421 0.87464 0.45682 0.0
C1808 C 0.15349 0.84224 0.45182 0.0
C1809 C 0.18178 0.84443 0.47852 0.0
C1810 C 0.11392 0.89028 0.35423 0.0
N1811 N 0.13063 0.90423 0.35975 0.0
C1812 C 0.11245 0.88085 0.33401 0.0
C1813 C 0.12822 0.8858 0.3194 0.0
C1814 C 0.1452 0.90007 0.32514 0.0
C1815 C 0.14617 0.90915 0.34552 0.0
C1816 C 0.12741 0.97233 0.35297 0.0
C1817 C 0.15421 0.95761 0.38464 0.0
C1818 C 0.1241 0.95192 0.3613 0.0
N1819 N 0.1375 0.94478 0.37683 0.0
C1820 C 0.15801 0.97811 0.3767 0.0
C1821 C 0.14453 0.98545 0.36072 0.0
C1822 C 0.13915 0.92199 0.43575 0.0
C1823 C 0.08079 0.84838 0.42957 0.0
C1824 C 0.11143 0.86972 0.45547 0.0
C1825 C 0.09185 0.86305 0.46391 0.0
C1826 C 0.07646 0.8523 0.45084 0.0
N1827 N 0.11556 0.86575 0.43461 0.0
C1828 C 0.10053 0.8553 0.42168 0.0
Co1829 Co 0.65542 0.62031 0.92263 0.0
Co1830 Co 0.64826 0.62843 0.86879 0.0
O1831 O 0.64228 0.6339 0.89848 0.0
C1832 C 0.60913 0.61004 0.92887 0.0
O1833 O 0.6073 0.60047 0.91023 0.0
C1834 C 0.66039 0.67408 0.87666 0.0
O1835 O 0.67141 0.66717 0.89297 0.0
O1836 O 0.67962 0.6291 0.87464 0.0
O1837 O 0.68404 0.62298 0.90968 0.0
H1838 H 0.68209 0.59254 0.80747 0.0
H1839 H 0.62947 0.65789 0.92877 0.0
O1840 O 0.62703 0.61789 0.93604 0.0
H1841 H 0.70016 0.67812 0.96115 0.0
H1842 H 0.66504 0.60465 1.0007 0.0
H1843 H 0.68739 0.58764 0.92816 0.0
H1844 H 0.6929 0.6425 0.94495 0.0
H1845 H 0.64989 0.62295 0.96963 0.0
O1846 O 0.65004 0.66059 0.86431 0.0
H1847 H 0.67468 0.5988 0.84529 0.0
H1848 H 0.634 0.64816 0.82839 0.0
H1849 H 0.70309 0.56918 0.95878 0.0
H1850 H 0.63597 0.69361 0.94494 0.0
H1851 H 0.6919 0.57762 0.99531 0.0
H1852 H 0.67155 0.70395 0.96123 0.0
O1853 O 0.65019 0.59178 0.90895 0.0
H1854 H 0.57421 0.65459 0.87327 0.0
H1855 H 0.61784 0.59837 0.84503 0.0
H1856 H 0.57892 0.59629 0.83802 0.0
H1857 H 0.55684 0.62457 0.85216 0.0
H1858 H 0.61315 0.65596 0.88002 0.0
H1859 H 0.64108 0.64256 0.79037 0.0
H1860 H 0.66522 0.61451 0.77971 0.0
O1861 O 0.64688 0.5964 0.87353 0.0
C1862 C 0.69129 0.62633 0.89119 0.0
C1863 C 0.67149 0.60477 0.8119 0.0
C1864 C 0.6485 0.63286 0.80231 0.0
N1865 N 0.65382 0.62373 0.83899 0.0
C1866 C 0.6672 0.60834 0.83329 0.0
C1867 C 0.64459 0.636 0.82385 0.0
C1868 C 0.66204 0.61712 0.79634 0.0
C1869 C 0.64495 0.66221 0.93596 0.0
N1870 N 0.66079 0.64812 0.93593 0.0
C1871 C 0.64855 0.68249 0.94503 0.0
C1872 C 0.66853 0.68829 0.95415 0.0
C1873 C 0.68459 0.67381 0.95409 0.0
C1874 C 0.68042 0.65369 0.94484 0.0
C1875 C 0.67009 0.6009 0.98484 0.0
C1876 C 0.68259 0.59157 0.94404 0.0
C1877 C 0.66154 0.61116 0.96718 0.0
N1878 N 0.6679 0.6065 0.94711 0.0
C1879 C 0.69147 0.581 0.96131 0.0
C1880 C 0.68516 0.58573 0.98182 0.0
C1881 C 0.6479 0.58442 0.88995 0.0
C1882 C 0.58367 0.64221 0.86697 0.0
C1883 C 0.60833 0.61071 0.85126 0.0
C1884 C 0.58631 0.60947 0.84721 0.0
C1885 C 0.57393 0.62534 0.85514 0.0
N1886 N 0.61776 0.62734 0.86281 0.0
C1887 C 0.60573 0.64294 0.87067 0.0
Co1888 Co 0.60424 0.88532 0.87352 0.0
Co1889 Co 0.65841 0.87924 0.87967 0.0
O1890 O 0.62875 0.87246 0.88642 0.0
C1891 C 0.58416 0.90251 0.91167 0.0
O1892 O 0.58682 0.92155 0.90341 0.0
C1893 C 0.64997 0.83376 0.86771 0.0
O1894 O 0.63325 0.84043 0.85733 0.0
O1895 O 0.65177 0.87977 0.8485 0.0
O1896 O 0.61648 0.88385 0.84466 0.0
H1897 H 0.71917 0.91901 0.8444 0.0
H1898 H 0.59841 0.84711 0.90059 0.0
O1899 O 0.59161 0.88652 0.90239 0.0
H1900 H 0.56551 0.82632 0.83085 0.0
H1901 H 0.52556 0.89587 0.86353 0.0
H1902 H 0.59796 0.91915 0.84174 0.0
H1903 H 0.58146 0.86263 0.83695 0.0
H1904 H 0.55713 0.87928 0.87887 0.0
O1905 O 0.66269 0.84733 0.87764 0.0
H1906 H 0.68144 0.91101 0.85283 0.0
H1907 H 0.69912 0.86033 0.89272 0.0
H1908 H 0.5668 0.93614 0.82592 0.0
H1909 H 0.58244 0.81071 0.89525 0.0
H1910 H 0.53029 0.92451 0.83682 0.0
H1911 H 0.56592 0.80007 0.86015 0.0
O1912 O 0.61837 0.91421 0.87776 0.0
H1913 H 0.65618 0.84911 0.95345 0.0
H1914 H 0.68323 0.90876 0.90952 0.0
H1915 H 0.69162 0.90906 0.9481 0.0
H1916 H 0.67809 0.87904 0.97032 0.0
H1917 H 0.64802 0.84954 0.91485 0.0
H1918 H 0.73705 0.86768 0.88461 0.0
H1919 H 0.74727 0.89725 0.86034 0.0
O1920 O 0.65387 0.91102 0.88137 0.0
C1921 C 0.63491 0.88188 0.83711 0.0
C1922 C 0.71492 0.90612 0.85504 0.0
C1923 C 0.72495 0.87729 0.87758 0.0
N1924 N 0.68814 0.88532 0.87335 0.0
C1925 C 0.6936 0.90156 0.85992 0.0
C1926 C 0.70347 0.87317 0.88208 0.0
C1927 C 0.73068 0.89389 0.86398 0.0
C1928 C 0.59107 0.84268 0.88533 0.0
N1929 N 0.59083 0.85702 0.86911 0.0
C1930 C 0.58213 0.82201 0.88237 0.0
C1931 C 0.57289 0.81604 0.86267 0.0
C1932 C 0.57267 0.83076 0.84622 0.0
C1933 C 0.58179 0.85127 0.84974 0.0
C1934 C 0.54138 0.90107 0.85863 0.0
C1935 C 0.58211 0.91396 0.8465 0.0
C1936 C 0.55932 0.89174 0.86727 0.0
N1937 N 0.57938 0.89821 0.86116 0.0
C1938 C 0.56453 0.92366 0.83752 0.0
C1939 C 0.54405 0.91713 0.84365 0.0
C1940 C 0.6374 0.9223 0.8802 0.0
C1941 C 0.66221 0.86225 0.94392 0.0
C1942 C 0.67722 0.89568 0.91911 0.0
C1943 C 0.68206 0.89591 0.94093 0.0
C1944 C 0.67449 0.87906 0.95339 0.0
N1945 N 0.66524 0.8791 0.90994 0.0
C1946 C 0.65769 0.86255 0.92205 0.0
Co1947 Co 0.62163 0.12011 0.40513 0.0
Co1948 Co 0.6291 0.08091 0.36769 0.0
O1949 O 0.61505 0.10565 0.37796 0.0
C1950 C 0.57584 0.10693 0.40568 0.0
O1951 O 0.58241 0.08804 0.40093 0.0
C1952 C 0.64359 0.0965 0.32618 0.0
O1953 O 0.66275 0.09107 0.33212 0.0
O1954 O 0.65728 0.09562 0.37326 0.0
O1955 O 0.65357 0.11766 0.4012 0.0
H1956 H 0.68513 0.02674 0.36834 0.0
H1957 H 0.59376 0.13993 0.37285 0.0
O1958 O 0.58967 0.1224 0.40898 0.0
H1959 H 0.65469 0.1917 0.38553 0.0
H1960 H 0.6106 0.17556 0.4614 0.0
H1961 H 0.65211 0.11442 0.44125 0.0
H1962 H 0.65252 0.15773 0.4049 0.0
H1963 H 0.60354 0.157 0.42696 0.0
O1964 O 0.62793 0.09339 0.33851 0.0
H1965 H 0.66607 0.0569 0.38238 0.0
H1966 H 0.62234 0.05244 0.32959 0.0
H1967 H 0.65984 0.13261 0.47576 0.0
H1968 H 0.59519 0.17378 0.35326 0.0
H1969 H 0.63897 0.1634 0.48603 0.0
H1970 H 0.62584 0.19994 0.35955 0.0
O1971 O 0.62061 0.09267 0.42084 0.0
H1972 H 0.55318 0.0745 0.33975 0.0
H1973 H 0.6097 0.03829 0.37891 0.0
H1974 H 0.57431 0.01994 0.3733 0.0
H1975 H 0.54579 0.03797 0.35343 0.0
H1976 H 0.5887 0.09249 0.34613 0.0
H1977 H 0.6407 0.02194 0.31516 0.0
H1978 H 0.67247 0.00906 0.33444 0.0
O1979 O 0.6307 0.06872 0.39674 0.0
C1980 C 0.66507 0.10827 0.38774 0.0
C1981 C 0.6713 0.03219 0.35978 0.0
C1982 C 0.64637 0.02951 0.32993 0.0
N1983 N 0.64311 0.0564 0.35684 0.0
C1984 C 0.66043 0.04925 0.36767 0.0
C1985 C 0.63601 0.04674 0.33821 0.0
C1986 C 0.66419 0.02229 0.34077 0.0
C1987 C 0.60707 0.15129 0.37577 0.0
N1988 N 0.62297 0.14692 0.39009 0.0
C1989 C 0.60783 0.17041 0.36458 0.0
C1990 C 0.62504 0.18506 0.3681 0.0
C1991 C 0.64124 0.18045 0.38267 0.0
C1992 C 0.63995 0.16117 0.39355 0.0
C1993 C 0.61981 0.16218 0.45709 0.0
C1994 C 0.64308 0.12791 0.44555 0.0
C1995 C 0.61586 0.15159 0.43764 0.0
N1996 N 0.62751 0.13476 0.43207 0.0
C1997 C 0.64747 0.1381 0.46514 0.0
C1998 C 0.63575 0.15536 0.4709 0.0
C1999 C 0.62643 0.07427 0.41563 0.0
C2000 C 0.56552 0.06642 0.3483 0.0
C2001 C 0.59734 0.04634 0.37039 0.0
C2002 C 0.57735 0.03581 0.36717 0.0
C2003 C 0.56136 0.04594 0.35602 0.0
N2004 N 0.60132 0.0664 0.36271 0.0
C2005 C 0.58569 0.07649 0.35188 0.0
Co2006 Co 0.42135 0.1244 0.876 0.0
Co2007 Co 0.36792 0.13408 0.87584 0.0
O2008 O 0.39745 0.14014 0.88522 0.0
C2009 C 0.44164 0.11354 0.91721 0.0
O2010 O 0.43772 0.09339 0.91208 0.0
C2011 C 0.37772 0.17894 0.86354 0.0
O2012 O 0.39412 0.1714 0.85404 0.0
O2013 O 0.37592 0.13271 0.84547 0.0
O2014 O 0.40904 0.12087 0.84656 0.0
H2015 H 0.30764 0.0955 0.83479 0.0
H2016 H 0.42943 0.16658 0.89713 0.0
O2017 O 0.43428 0.12796 0.90539 0.0
H2018 H 0.46102 0.17397 0.82642 0.0
H2019 H 0.49944 0.11014 0.87205 0.0
H2020 H 0.42614 0.08487 0.85085 0.0
H2021 H 0.4437 0.13979 0.83722 0.0
H2022 H 0.46867 0.13018 0.88266 0.0
O2023 O 0.36476 0.16609 0.87316 0.0
H2024 H 0.34512 0.10254 0.84682 0.0
H2025 H 0.32742 0.1545 0.88493 0.0
H2026 H 0.45647 0.06437 0.83981 0.0
H2027 H 0.44677 0.20099 0.88703 0.0
H2028 H 0.49345 0.07698 0.85044 0.0
H2029 H 0.46267 0.20487 0.85142 0.0
O2030 O 0.4062 0.09724 0.8839 0.0
H2031 H 0.36811 0.16598 0.94945 0.0
H2032 H 0.34094 0.10607 0.90343 0.0
H2033 H 0.33097 0.10701 0.94111 0.0
H2034 H 0.34454 0.13717 0.96438 0.0
H2035 H 0.37784 0.1643 0.91173 0.0
H2036 H 0.28976 0.14815 0.87319 0.0
H2037 H 0.27967 0.11841 0.848 0.0
O2038 O 0.3712 0.102 0.87821 0.0
C2039 C 0.39213 0.12571 0.83647 0.0
C2040 C 0.31183 0.10846 0.84583 0.0
C2041 C 0.3018 0.13803 0.86735 0.0
N2042 N 0.33838 0.12879 0.8667 0.0
C2043 C 0.333 0.11248 0.85275 0.0
C2044 C 0.32314 0.14158 0.87391 0.0
C2045 C 0.29615 0.12133 0.85323 0.0
C2046 C 0.43653 0.16805 0.8817 0.0
N2047 N 0.43568 0.15112 0.86786 0.0
C2048 C 0.44623 0.18762 0.87603 0.0
C2049 C 0.45511 0.1898 0.85603 0.0
C2050 C 0.45418 0.17247 0.84199 0.0
C2051 C 0.4443 0.15316 0.84819 0.0
C2052 C 0.48341 0.10448 0.8673 0.0
C2053 C 0.44218 0.09049 0.85549 0.0
C2054 C 0.46592 0.11576 0.87327 0.0
N2055 N 0.4456 0.10872 0.86735 0.0
C2056 C 0.45929 0.0788 0.84921 0.0
C2057 C 0.48003 0.08588 0.85518 0.0
C2058 C 0.38681 0.09004 0.88217 0.0
C2059 C 0.36206 0.15279 0.93946 0.0
C2060 C 0.34699 0.11919 0.91349 0.0
C2061 C 0.34124 0.11967 0.93479 0.0
C2062 C 0.34885 0.1366 0.94783 0.0
N2063 N 0.35988 0.13516 0.90538 0.0
C2064 C 0.36746 0.15178 0.91808 0.0
Co2065 Co 0.38107 0.89232 0.4039 0.0
Co2066 Co 0.37281 0.93203 0.36804 0.0
O2067 O 0.38785 0.90761 0.37799 0.0
C2068 C 0.42771 0.90334 0.40936 0.0
O2069 O 0.42292 0.92336 0.40796 0.0
C2070 C 0.37174 0.90253 0.33168 0.0
O2071 O 0.36608 0.88756 0.34513 0.0
O2072 O 0.34497 0.91598 0.36994 0.0
O2073 O 0.3492 0.89601 0.39912 0.0
H2074 H 0.31421 0.98348 0.36701 0.0
H2075 H 0.40797 0.87235 0.37196 0.0
O2076 O 0.41284 0.88858 0.40859 0.0
H2077 H 0.34505 0.82276 0.37892 0.0
H2078 H 0.39078 0.83437 0.45745 0.0
H2079 H 0.35157 0.89799 0.43935 0.0
H2080 H 0.34872 0.85593 0.40026 0.0
H2081 H 0.39799 0.85389 0.4243 0.0
O2082 O 0.3752 0.92172 0.33805 0.0
H2083 H 0.33435 0.95382 0.38114 0.0
H2084 H 0.37928 0.96205 0.33216 0.0
H2085 H 0.34371 0.87886 0.47257 0.0
H2086 H 0.40508 0.83923 0.35053 0.0
H2087 H 0.36342 0.84682 0.48181 0.0
H2088 H 0.3734 0.81421 0.35387 0.0
O2089 O 0.38326 0.91931 0.42086 0.0
H2090 H 0.44992 0.94238 0.34909 0.0
H2091 H 0.38974 0.97466 0.38375 0.0
H2092 H 0.42494 0.99394 0.3842 0.0
H2093 H 0.4553 0.97795 0.36654 0.0
H2094 H 0.41457 0.92327 0.34968 0.0
H2095 H 0.35992 0.99214 0.3178 0.0
H2096 H 0.32699 1.00285 0.33509 0.0
O2097 O 0.36975 0.94259 0.39777 0.0
C2098 C 0.3374 0.90437 0.38475 0.0
C2099 C 0.32854 0.97896 0.35932 0.0
C2100 C 0.35418 0.98381 0.33169 0.0
N2101 N 0.35799 0.95626 0.35751 0.0
C2102 C 0.34002 0.9622 0.36727 0.0
C2103 C 0.36509 0.96679 0.33992 0.0
C2104 C 0.33571 0.98982 0.34142 0.0
C2105 C 0.39428 0.86141 0.37372 0.0
N2106 N 0.37859 0.86602 0.38744 0.0
C2107 C 0.39267 0.84274 0.36145 0.0
C2108 C 0.37486 0.82873 0.3633 0.0
C2109 C 0.35894 0.83353 0.37733 0.0
C2110 C 0.36107 0.85236 0.38933 0.0
C2111 C 0.38207 0.8483 0.45359 0.0
C2112 C 0.3601 0.88397 0.4432 0.0
C2113 C 0.38612 0.85943 0.43487 0.0
N2114 N 0.3751 0.87695 0.42984 0.0
C2115 C 0.35563 0.87325 0.46206 0.0
C2116 C 0.36671 0.85528 0.46724 0.0
C2117 C 0.3757 0.93721 0.41643 0.0
C2118 C 0.43678 0.94959 0.3567 0.0
C2119 C 0.40289 0.96749 0.37617 0.0
C2120 C 0.42277 0.97855 0.37638 0.0
C2121 C 0.4398 0.96953 0.36652 0.0
N2122 N 0.40009 0.94788 0.36661 0.0
C2123 C 0.41671 0.93891 0.35696 0.0
Co2124 Co 0.58221 0.13875 0.13922 0.0
Co2125 Co 0.6186 0.12512 0.10272 0.0
O2126 O 0.60467 0.12096 0.12985 0.0
C2127 C 0.61214 0.13827 0.17601 0.0
O2128 O 0.62747 0.14324 0.16284 0.0
C2129 C 0.60514 0.07936 0.10402 0.0
O2130 O 0.58629 0.08615 0.10827 0.0
O2131 O 0.5905 0.12306 0.0873 0.0
O2132 O 0.57108 0.14204 0.10936 0.0
H2133 H 0.62889 0.1567 0.03032 0.0
H2134 H 0.58669 0.09679 0.15968 0.0
O2135 O 0.59287 0.13593 0.16919 0.0
H2136 H 0.514 0.09383 0.1276 0.0
H2137 H 0.52594 0.16044 0.18942 0.0
H2138 H 0.56416 0.17877 0.12399 0.0
H2139 H 0.53751 0.1263 0.12499 0.0
H2140 H 0.55317 0.13724 0.17596 0.0
O2141 O 0.62048 0.09294 0.10034 0.0
H2142 H 0.61184 0.15227 0.06504 0.0
H2143 H 0.65477 0.10494 0.0822 0.0
H2144 H 0.53703 0.2024 0.13689 0.0
H2145 H 0.56352 0.0641 0.16305 0.0
H2146 H 0.51793 0.19341 0.16999 0.0
H2147 H 0.52702 0.06238 0.14668 0.0
O2148 O 0.60124 0.16443 0.13596 0.0
H2149 H 0.67352 0.10241 0.15631 0.0
H2150 H 0.65667 0.15553 0.10197 0.0
H2151 H 0.69113 0.15902 0.12182 0.0
H2152 H 0.69975 0.13231 0.14919 0.0
H2153 H 0.63917 0.09964 0.13623 0.0
H2154 H 0.67221 0.10874 0.04761 0.0
H2155 H 0.6593 0.13482 0.02142 0.0
O2156 O 0.61674 0.15748 0.10495 0.0
C2157 C 0.57411 0.13331 0.09136 0.0
C2158 C 0.63471 0.14533 0.04162 0.0
C2159 C 0.659 0.11839 0.05131 0.0
N2160 N 0.63242 0.12849 0.07566 0.0
C2161 C 0.62515 0.1428 0.06132 0.0
C2162 C 0.64904 0.11628 0.07085 0.0
C2163 C 0.65175 0.13303 0.03663 0.0
C2164 C 0.57069 0.09629 0.15284 0.0
N2165 N 0.56347 0.11344 0.14217 0.0
C2166 C 0.55768 0.0777 0.1547 0.0
C2167 C 0.5372 0.07674 0.1455 0.0
C2168 C 0.5299 0.09435 0.13475 0.0
C2169 C 0.54333 0.11268 0.13326 0.0
C2170 C 0.53424 0.16457 0.17504 0.0
C2171 C 0.55575 0.17464 0.13828 0.0
C2172 C 0.54968 0.15151 0.16734 0.0
N2173 N 0.5602 0.15662 0.14917 0.0
C2174 C 0.54046 0.18811 0.14554 0.0
C2175 C 0.52972 0.18305 0.1641 0.0
C2176 C 0.61158 0.17035 0.11974 0.0
C2177 C 0.66998 0.1141 0.14436 0.0
C2178 C 0.66028 0.14388 0.11389 0.0
C2179 C 0.67984 0.14591 0.12505 0.0
C2180 C 0.68468 0.13091 0.14039 0.0
N2181 N 0.64597 0.12734 0.11787 0.0
C2182 C 0.6506 0.11256 0.13287 0.0
Co2183 Co 0.38743 0.13414 0.63516 0.0
Co2184 Co 0.39495 0.08049 0.64107 0.0
O2185 O 0.38064 0.10418 0.62848 0.0
C2186 C 0.34222 0.12612 0.64647 0.0
O2187 O 0.3491 0.10959 0.65666 0.0
C2188 C 0.39866 0.07448 0.59438 0.0
O2189 O 0.40339 0.09489 0.59209 0.0
O2190 O 0.42323 0.09451 0.63571 0.0
O2191 O 0.41937 0.12986 0.63407 0.0
H2192 H 0.44914 0.04597 0.68784 0.0
H2193 H 0.35701 0.12235 0.59953 0.0
O2194 O 0.35555 0.13841 0.63668 0.0
H2195 H 0.41592 0.16456 0.56714 0.0
H2196 H 0.37555 0.21242 0.6297 0.0
H2197 H 0.41933 0.15825 0.66293 0.0
H2198 H 0.41636 0.15785 0.60576 0.0
H2199 H 0.36823 0.17423 0.62146 0.0
O2200 O 0.39501 0.06649 0.61255 0.0
H2201 H 0.43065 0.07614 0.6724 0.0
H2202 H 0.39015 0.03333 0.63509 0.0
H2203 H 0.42733 0.19628 0.6715 0.0
H2204 H 0.35583 0.12882 0.56088 0.0
H2205 H 0.40535 0.22365 0.65482 0.0
H2206 H 0.38547 0.15002 0.54443 0.0
O2207 O 0.38827 0.12859 0.66625 0.0
H2208 H 0.31988 0.05444 0.62124 0.0
H2209 H 0.37514 0.05941 0.67859 0.0
H2210 H 0.34004 0.04165 0.68545 0.0
H2211 H 0.31216 0.03901 0.65663 0.0
H2212 H 0.35516 0.07213 0.61508 0.0
H2213 H 0.40829 1.00272 0.65002 0.0
H2214 H 0.43795 0.00896 0.67667 0.0
O2215 O 0.3952 0.09407 0.66988 0.0
C2216 C 0.43095 0.1136 0.63414 0.0
C2217 C 0.43618 0.04305 0.67631 0.0
C2218 C 0.41327 0.01878 0.65506 0.0
N2219 N 0.40921 0.0565 0.65304 0.0
C2220 C 0.42561 0.06007 0.66757 0.0
C2221 C 0.40309 0.03618 0.64664 0.0
C2222 C 0.42991 0.02229 0.67001 0.0
C2223 C 0.36987 0.13175 0.59252 0.0
N2224 N 0.38668 0.1398 0.60489 0.0
C2225 C 0.36916 0.13529 0.57061 0.0
C2226 C 0.38581 0.14716 0.56139 0.0
C2227 C 0.40291 0.15531 0.57412 0.0
C2228 C 0.4031 0.15142 0.59596 0.0
C2229 C 0.38527 0.20065 0.63703 0.0
C2230 C 0.4098 0.1701 0.6555 0.0
C2231 C 0.38118 0.17901 0.63246 0.0
N2232 N 0.39347 0.16408 0.64157 0.0
C2233 C 0.41436 0.19159 0.66047 0.0
C2234 C 0.402 0.20694 0.65112 0.0
C2235 C 0.39203 0.11243 0.67759 0.0
C2236 C 0.33192 0.05543 0.6339 0.0
C2237 C 0.36305 0.05842 0.66599 0.0
C2238 C 0.34322 0.0483 0.66996 0.0
C2239 C 0.32759 0.04681 0.65377 0.0
N2240 N 0.36724 0.06668 0.64641 0.0
C2241 C 0.35196 0.06537 0.63049 0.0
Co2242 Co 0.42988 0.87551 0.14418 0.0
Co2243 Co 0.39019 0.88481 0.10707 0.0
O2244 O 0.40563 0.89091 0.13394 0.0
C2245 C 0.39991 0.87425 0.17915 0.0
O2246 O 0.38489 0.86942 0.16474 0.0
C2247 C 0.40394 0.93045 0.10605 0.0
O2248 O 0.42295 0.92362 0.11044 0.0
O2249 O 0.41722 0.88566 0.0911 0.0
O2250 O 0.44073 0.87299 0.11482 0.0
H2251 H 0.37506 0.84756 0.03682 0.0
H2252 H 0.42153 0.91657 0.16529 0.0
O2253 O 0.41925 0.87727 0.17382 0.0
H2254 H 0.49219 0.92758 0.13356 0.0
H2255 H 0.48993 0.86126 0.19588 0.0
H2256 H 0.45169 0.83745 0.1296 0.0
H2257 H 0.47263 0.89265 0.13091 0.0
H2258 H 0.45955 0.88072 0.18185 0.0
O2259 O 0.38822 0.91684 0.10305 0.0
H2260 H 0.3944 0.85467 0.07105 0.0
H2261 H 0.35286 0.90361 0.08561 0.0
H2262 H 0.48178 0.81736 0.14321 0.0
H2263 H 0.44108 0.95153 0.16925 0.0
H2264 H 0.50115 0.82927 0.17658 0.0
H2265 H 0.47661 0.95727 0.15316 0.0
O2266 O 0.41362 0.848 0.13997 0.0
H2267 H 0.33831 0.91177 0.15917 0.0
H2268 H 0.35228 0.85431 0.10832 0.0
H2269 H 0.31897 0.85239 0.12833 0.0
H2270 H 0.31181 0.88128 0.15395 0.0
H2271 H 0.3715 0.91295 0.139 0.0
H2272 H 0.33316 0.89716 0.05145 0.0
H2273 H 0.34422 0.86892 0.02682 0.0
O2274 O 0.39231 0.85273 0.11117 0.0
C2275 C 0.43523 0.87838 0.09605 0.0
C2276 C 0.37005 0.85987 0.04744 0.0
C2277 C 0.34656 0.88773 0.05564 0.0
N2278 N 0.37465 0.87942 0.08035 0.0
C2279 C 0.3809 0.86392 0.06687 0.0
C2280 C 0.35779 0.89134 0.07493 0.0
C2281 C 0.35276 0.87187 0.04183 0.0
C2282 C 0.4372 0.9188 0.15869 0.0
N2283 N 0.44596 0.90254 0.148 0.0
C2284 C 0.44813 0.93867 0.16086 0.0
C2285 C 0.46805 0.9419 0.15179 0.0
C2286 C 0.47684 0.92524 0.14085 0.0
C2287 C 0.46559 0.90552 0.13925 0.0
C2288 C 0.48162 0.85591 0.18133 0.0
C2289 C 0.46006 0.84275 0.14411 0.0
C2290 C 0.46442 0.86687 0.17331 0.0
N2291 N 0.45395 0.86029 0.15487 0.0
C2292 C 0.47706 0.83129 0.15176 0.0
C2293 C 0.48791 0.83797 0.17048 0.0
C2294 C 0.40102 0.84076 0.12508 0.0
C2295 C 0.34121 0.89913 0.14799 0.0
C2296 C 0.3493 0.86691 0.11949 0.0
C2297 C 0.33039 0.86576 0.13073 0.0
C2298 C 0.32637 0.88199 0.14509 0.0
N2299 N 0.36377 0.88377 0.12242 0.0
C2300 C 0.35993 0.89976 0.13644 0.0
Co2301 Co 0.63587 0.87319 0.63534 0.0
Co2302 Co 0.6292 0.92667 0.64463 0.0
O2303 O 0.64235 0.9034 0.63032 0.0
C2304 C 0.68167 0.88101 0.64716 0.0
O2305 O 0.67535 0.89736 0.65795 0.0
C2306 C 0.6207 0.93369 0.59851 0.0
O2307 O 0.61597 0.9133 0.59551 0.0
O2308 O 0.60042 0.91245 0.64014 0.0
O2309 O 0.604 0.87748 0.63415 0.0
H2310 H 0.57974 0.95919 0.69581 0.0
H2311 H 0.66478 0.88644 0.6007 0.0
O2312 O 0.66782 0.86888 0.63691 0.0
H2313 H 0.6046 0.84526 0.56534 0.0
H2314 H 0.6476 0.7952 0.62567 0.0
H2315 H 0.60496 0.84802 0.66123 0.0
H2316 H 0.60579 0.85046 0.60431 0.0
H2317 H 0.65458 0.83366 0.61968 0.0
O2318 O 0.62602 0.94131 0.61683 0.0
H2319 H 0.59721 0.92977 0.67824 0.0
H2320 H 0.63242 0.974 0.64032 0.0
H2321 H 0.59733 0.80972 0.66756 0.0
H2322 H 0.6643 0.88149 0.56172 0.0
H2323 H 0.61874 0.78302 0.6497 0.0
H2324 H 0.63402 0.86081 0.54377 0.0
O2325 O 0.6361 0.87753 0.66678 0.0
H2326 H 0.70211 0.9531 0.62224 0.0
H2327 H 0.65247 0.94792 0.68167 0.0
H2328 H 0.68824 0.9655 0.68756 0.0
H2329 H 0.7133 0.96825 0.65768 0.0
H2330 H 0.66625 0.93548 0.61712 0.0
H2331 H 0.61508 1.00386 0.65728 0.0
H2332 H 0.58867 0.99655 0.68533 0.0
O2333 O 0.63231 0.91248 0.67269 0.0
C2334 C 0.59251 0.89359 0.63651 0.0
C2335 C 0.59132 0.96259 0.68368 0.0
C2336 C 0.61116 0.98766 0.66204 0.0
N2337 N 0.61596 0.95016 0.65843 0.0
C2338 C 0.60132 0.946 0.67374 0.0
C2339 C 0.62086 0.97067 0.65245 0.0
C2340 C 0.59632 0.98355 0.67778 0.0
C2341 C 0.65164 0.87725 0.59303 0.0
N2342 N 0.63539 0.86864 0.60477 0.0
C2343 C 0.65142 0.87458 0.57094 0.0
C2344 C 0.63441 0.863 0.56088 0.0
C2345 C 0.61789 0.85428 0.57297 0.0
C2346 C 0.61863 0.85731 0.59503 0.0
C2347 C 0.63814 0.80668 0.63351 0.0
C2348 C 0.61425 0.83648 0.65331 0.0
C2349 C 0.64205 0.82846 0.63022 0.0
N2350 N 0.63008 0.84303 0.63998 0.0
C2351 C 0.6099 0.81483 0.657 0.0
C2352 C 0.62194 0.79986 0.64699 0.0
C2353 C 0.63457 0.89354 0.67914 0.0
C2354 C 0.69132 0.95203 0.63538 0.0
C2355 C 0.66335 0.9489 0.66864 0.0
C2356 C 0.68356 0.95894 0.67205 0.0
C2357 C 0.6976 0.9605 0.65527 0.0
N2358 N 0.65727 0.9407 0.64907 0.0
C2359 C 0.67098 0.94212 0.63255 0.0
Co2360 Co 0.88386 0.58859 0.89791 0.0
Co2361 Co 0.89323 0.6423 0.88872 0.0
O2362 O 0.89848 0.61241 0.88405 0.0
C2363 C 0.93005 0.58398 0.90739 0.0
O2364 O 0.93291 0.60466 0.91 0.0
C2365 C 0.88212 0.63332 0.84325 0.0
O2366 O 0.87111 0.61675 0.85047 0.0
O2367 O 0.86175 0.63655 0.88817 0.0
O2368 O 0.85573 0.60142 0.89352 0.0
H2369 H 0.86028 0.70455 0.92323 0.0
H2370 H 0.91266 0.5806 0.86233 0.0
O2371 O 0.91174 0.57529 0.90261 0.0
H2372 H 0.842 0.54983 0.83863 0.0
H2373 H 0.87056 0.5108 0.91356 0.0
H2374 H 0.84953 0.58363 0.92937 0.0
H2375 H 0.84719 0.56642 0.87421 0.0
H2376 H 0.88817 0.54168 0.8962 0.0
O2377 O 0.89223 0.64612 0.85647 0.0
H2378 H 0.86678 0.66655 0.91781 0.0
H2379 H 0.90911 0.68225 0.86808 0.0
H2380 H 0.83141 0.55311 0.94715 0.0
H2381 H 0.90833 0.56367 0.82683 0.0
H2382 H 0.8419 0.51637 0.93927 0.0
H2383 H 0.87275 0.54825 0.81472 0.0
O2384 O 0.8875 0.60307 0.92609 0.0
H2385 H 0.96763 0.63735 0.86214 0.0
H2386 H 0.92372 0.66652 0.9182 0.0
H2387 H 0.96279 0.67354 0.9199 0.0
H2388 H 0.98501 0.65892 0.8917 0.0
H2389 H 0.92855 0.63059 0.86117 0.0
H2390 H 0.90296 0.72043 0.87283 0.0
H2391 H 0.87845 0.73179 0.90064 0.0
O2392 O 0.89371 0.63825 0.92084 0.0
C2393 C 0.84932 0.62005 0.89031 0.0
C2394 C 0.87104 0.69981 0.91111 0.0
C2395 C 0.89498 0.70872 0.8828 0.0
N2396 N 0.88842 0.67224 0.89275 0.0
C2397 C 0.87483 0.67832 0.90801 0.0
C2398 C 0.89836 0.68709 0.88014 0.0
C2399 C 0.88123 0.71508 0.89841 0.0
C2400 C 0.8972 0.57368 0.85729 0.0
N2401 N 0.8802 0.57448 0.87036 0.0
C2402 C 0.89481 0.56422 0.83712 0.0
C2403 C 0.87484 0.55562 0.83031 0.0
C2404 C 0.85757 0.55652 0.84371 0.0
C2405 C 0.86059 0.566 0.86382 0.0
C2406 C 0.86581 0.52669 0.91716 0.0
C2407 C 0.85409 0.56767 0.92582 0.0
C2408 C 0.87576 0.54427 0.90738 0.0
N2409 N 0.86976 0.56443 0.91167 0.0
C2410 C 0.84383 0.55046 0.93596 0.0
C2411 C 0.84973 0.52984 0.93154 0.0
C2412 C 0.89087 0.62213 0.93309 0.0
C2413 C 0.95811 0.64387 0.87448 0.0
C2414 C 0.9333 0.66008 0.90591 0.0
C2415 C 0.9554 0.66414 0.90692 0.0
C2416 C 0.96786 0.65595 0.89109 0.0
N2417 N 0.92387 0.64826 0.88954 0.0
C2418 C 0.93597 0.64018 0.87396 0.0
Co2419 Co 0.86554 0.42573 0.15587 0.0
Co2420 Co 0.90185 0.38937 0.14197 0.0
O2421 O 0.87512 0.40337 0.13743 0.0
C2422 C 0.82973 0.39379 0.15409 0.0
O2423 O 0.8437 0.37966 0.15891 0.0
C2424 C 0.90226 0.40477 0.09761 0.0
O2425 O 0.89822 0.4232 0.10616 0.0
O2426 O 0.91825 0.41742 0.14384 0.0
O2427 O 0.89524 0.43829 0.15982 0.0
H2428 H 0.97228 0.3766 0.17815 0.0
H2429 H 0.84485 0.41869 0.11321 0.0
O2430 O 0.83571 0.41335 0.15227 0.0
H2431 H 0.87353 0.49329 0.1138 0.0
H2432 H 0.81319 0.47791 0.18077 0.0
H2433 H 0.88177 0.44577 0.19635 0.0
H2434 H 0.87785 0.47077 0.14539 0.0
H2435 H 0.82752 0.45231 0.15555 0.0
O2436 O 0.90516 0.38889 0.10978 0.0
H2437 H 0.93875 0.39476 0.17233 0.0
H2438 H 0.92213 0.35416 0.11945 0.0
H2439 H 0.86818 0.47142 0.22183 0.0
H2440 H 0.84009 0.44067 0.08127 0.0
H2441 H 0.8334 0.48718 0.21443 0.0
H2442 H 0.85453 0.47824 0.08143 0.0
O2443 O 0.86972 0.40799 0.1811 0.0
H2444 H 0.84736 0.33593 0.11023 0.0
H2445 H 0.90061 0.3502 0.16841 0.0
H2446 H 0.87962 0.31589 0.1671 0.0
H2447 H 0.85278 0.30858 0.13784 0.0
H2448 H 0.86856 0.37009 0.11224 0.0
H2449 H 0.95558 0.33566 0.12457 0.0
H2450 H 0.9807 0.34663 0.15436 0.0
O2451 O 0.89863 0.38975 0.17428 0.0
C2452 C 0.91378 0.43456 0.15335 0.0
C2453 C 0.96137 0.37157 0.16523 0.0
C2454 C 0.95201 0.34862 0.13513 0.0
N2455 N 0.92843 0.37536 0.14572 0.0
C2456 C 0.94235 0.38176 0.16188 0.0
C2457 C 0.93314 0.35918 0.13227 0.0
C2458 C 0.96614 0.35481 0.15181 0.0
C2459 C 0.85101 0.43508 0.11345 0.0
N2460 N 0.86153 0.44346 0.13115 0.0
C2461 C 0.84834 0.44742 0.09529 0.0
C2462 C 0.85648 0.46849 0.09538 0.0
C2463 C 0.86716 0.47694 0.11353 0.0
C2464 C 0.86959 0.4641 0.13136 0.0
C2465 C 0.82831 0.47099 0.18425 0.0
C2466 C 0.86688 0.45299 0.19271 0.0
C2467 C 0.8365 0.45652 0.17003 0.0
N2468 N 0.85548 0.4476 0.17445 0.0
C2469 C 0.8592 0.4674 0.20728 0.0
C2470 C 0.83969 0.47628 0.20308 0.0
C2471 C 0.88471 0.3964 0.18706 0.0
C2472 C 0.85906 0.3389 0.12301 0.0
C2473 C 0.88894 0.34715 0.15565 0.0
C2474 C 0.87713 0.32768 0.15496 0.0
C2475 C 0.86208 0.32358 0.13853 0.0
N2476 N 0.88589 0.3621 0.14035 0.0
C2477 C 0.87119 0.35818 0.12418 0.0
Co2478 Co 0.0796 0.36275 0.64504 0.0
Co2479 Co 0.11902 0.40101 0.63381 0.0
O2480 O 0.10385 0.37341 0.62884 0.0
C2481 C 0.11012 0.329 0.64765 0.0
O2482 O 0.12499 0.34416 0.65125 0.0
C2483 C 0.10494 0.40047 0.58852 0.0
O2484 O 0.08613 0.39504 0.59603 0.0
O2485 O 0.09186 0.41603 0.63344 0.0
O2486 O 0.0682 0.39168 0.64647 0.0
H2487 H 0.13364 0.4726 0.66893 0.0
H2488 H 0.08879 0.34054 0.60471 0.0
O2489 O 0.09076 0.33353 0.64448 0.0
H2490 H 0.01709 0.36773 0.59395 0.0
H2491 H 0.02043 0.30915 0.6626 0.0
H2492 H 0.05697 0.37809 0.68265 0.0
H2493 H 0.03661 0.3732 0.6282 0.0
H2494 H 0.0508 0.32358 0.64212 0.0
O2495 O 0.12069 0.40446 0.60159 0.0
H2496 H 0.11462 0.43755 0.66324 0.0
H2497 H 0.156 0.42331 0.61332 0.0
H2498 H 0.02663 0.36426 0.70356 0.0
H2499 H 0.06944 0.334 0.57038 0.0
H2500 H 0.00823 0.32949 0.69361 0.0
H2501 H 0.03337 0.34777 0.56477 0.0
O2502 O 0.09552 0.3687 0.67207 0.0
H2503 H 0.17113 0.35004 0.60639 0.0
H2504 H 0.15718 0.40181 0.66308 0.0
H2505 H 0.19066 0.38295 0.6644 0.0
H2506 H 0.19781 0.35687 0.63589 0.0
H2507 H 0.13778 0.3691 0.60581 0.0
H2508 H 0.17537 0.45828 0.61833 0.0
H2509 H 0.16423 0.48316 0.64635 0.0
O2510 O 0.11719 0.39762 0.66611 0.0
C2511 C 0.07371 0.41055 0.64082 0.0
C2512 C 0.13868 0.46187 0.65671 0.0
C2513 C 0.16208 0.45385 0.62829 0.0
N2514 N 0.13431 0.42837 0.63808 0.0
C2515 C 0.12802 0.44199 0.65346 0.0
C2516 C 0.15103 0.4341 0.62549 0.0
C2517 C 0.15583 0.46779 0.64402 0.0
C2518 C 0.07294 0.34621 0.60251 0.0
N2519 N 0.06381 0.35712 0.61847 0.0
C2520 C 0.06211 0.34257 0.58301 0.0
C2521 C 0.04188 0.35033 0.57986 0.0
C2522 C 0.03271 0.36149 0.59621 0.0
C2523 C 0.04392 0.36467 0.61555 0.0
C2524 C 0.02834 0.3243 0.6671 0.0
C2525 C 0.04894 0.36302 0.67815 0.0
C2526 C 0.04556 0.33254 0.65558 0.0
N2527 N 0.05555 0.35172 0.66111 0.0
C2528 C 0.03182 0.35524 0.69009 0.0
C2529 C 0.02149 0.33574 0.68449 0.0
C2530 C 0.10833 0.38388 0.67864 0.0
C2531 C 0.16823 0.36142 0.61886 0.0
C2532 C 0.16016 0.39044 0.65065 0.0
C2533 C 0.17917 0.37985 0.65145 0.0
C2534 C 0.18318 0.36523 0.63544 0.0
N2535 N 0.14559 0.38662 0.63434 0.0
C2536 C 0.14942 0.37234 0.61856 0.0
Co2537 Co 0.13523 0.58513 0.10569 0.0
Co2538 Co 0.12576 0.63713 0.1186 0.0
O2539 O 0.121 0.6065 0.12164 0.0
C2540 C 0.08892 0.57455 0.09843 0.0
O2541 O 0.08555 0.59465 0.09496 0.0
C2542 C 0.13732 0.62752 0.16333 0.0
O2543 O 0.14867 0.61271 0.15515 0.0
O2544 O 0.15722 0.63508 0.11872 0.0
O2545 O 0.16324 0.60158 0.10872 0.0
H2546 H 0.15798 0.70459 0.08787 0.0
H2547 H 0.10948 0.57232 0.14284 0.0
O2548 O 0.10754 0.56831 0.10245 0.0
H2549 H 0.18171 0.5487 0.15916 0.0
H2550 H 0.14871 0.50983 0.08453 0.0
H2551 H 0.16727 0.58578 0.07176 0.0
H2552 H 0.17396 0.56712 0.12557 0.0
H2553 H 0.132 0.5377 0.10498 0.0
O2554 O 0.12707 0.63969 0.15092 0.0
H2555 H 0.15184 0.66566 0.091 0.0
H2556 H 0.10958 0.67427 0.14162 0.0
H2557 H 0.18457 0.55836 0.05099 0.0
H2558 H 0.1165 0.55383 0.17654 0.0
H2559 H 0.17534 0.52007 0.05731 0.0
H2560 H 0.15284 0.54187 0.18487 0.0
O2561 O 0.12919 0.59988 0.07861 0.0
H2562 H 0.05176 0.62218 0.14531 0.0
H2563 H 0.09473 0.65903 0.09088 0.0
H2564 H 0.05563 0.66153 0.08992 0.0
H2565 H 0.03388 0.64305 0.11731 0.0
H2566 H 0.09088 0.61996 0.14556 0.0
H2567 H 0.11536 0.71331 0.13916 0.0
H2568 H 0.13966 0.72869 0.11207 0.0
O2569 O 0.12488 0.63444 0.08625 0.0
C2570 C 0.1697 0.62052 0.11401 0.0
C2571 C 0.14729 0.69808 0.09968 0.0
C2572 C 0.1234 0.70297 0.12849 0.0
N2573 N 0.13021 0.66775 0.11633 0.0
C2574 C 0.1437 0.67606 0.10148 0.0
C2575 C 0.12021 0.68087 0.12984 0.0
C2576 C 0.13702 0.71159 0.11329 0.0
C2577 C 0.1253 0.56705 0.14628 0.0
N2578 N 0.14125 0.57069 0.13218 0.0
C2579 C 0.1292 0.55666 0.16543 0.0
C2580 C 0.1496 0.54998 0.17011 0.0
C2581 C 0.16581 0.55382 0.1557 0.0
C2582 C 0.16134 0.56431 0.13673 0.0
C2583 C 0.15296 0.52643 0.08162 0.0
C2584 C 0.16329 0.56914 0.07469 0.0
C2585 C 0.14349 0.54231 0.09314 0.0
N2586 N 0.1488 0.56335 0.08968 0.0
C2587 C 0.17308 0.55369 0.06284 0.0
C2588 C 0.16787 0.5322 0.06638 0.0
C2589 C 0.12627 0.61899 0.07292 0.0
C2590 C 0.06107 0.63036 0.13333 0.0
C2591 C 0.08536 0.6509 0.10281 0.0
C2592 C 0.06324 0.65241 0.10222 0.0
C2593 C 0.05104 0.64205 0.1176 0.0
N2594 N 0.09508 0.63946 0.11833 0.0
C2595 C 0.08324 0.62923 0.13345 0.0
Co2596 Co 0.93282 0.6397 0.62655 0.0
Co2597 Co 0.87962 0.63237 0.63786 0.0
O2598 O 0.90959 0.62678 0.64245 0.0
C2599 C 0.93807 0.59325 0.62111 0.0
O2600 O 0.91856 0.59064 0.61313 0.0
C2601 C 0.88972 0.64373 0.68304 0.0
O2602 O 0.90581 0.65522 0.67548 0.0
O2603 O 0.88608 0.66367 0.63804 0.0
O2604 O 0.91976 0.66797 0.6269 0.0
H2605 H 0.81694 0.66688 0.60406 0.0
H2606 H 0.94207 0.6163 0.66629 0.0
O2607 O 0.94615 0.61162 0.62636 0.0
H2608 H 0.97509 0.68857 0.67776 0.0
H2609 H 0.00961 0.64969 0.60549 0.0
H2610 H 0.93597 0.67011 0.59087 0.0
H2611 H 0.95581 0.679 0.64403 0.0
H2612 H 0.97995 0.63495 0.6269 0.0
O2613 O 0.87681 0.63331 0.6701 0.0
H2614 H 0.855 0.65964 0.60902 0.0
H2615 H 0.84002 0.61693 0.65908 0.0
H2616 H 0.96519 0.68554 0.56951 0.0
H2617 H 0.9613 0.62516 0.70022 0.0
H2618 H 1.00233 0.67531 0.57679 0.0
H2619 H 0.97799 0.66153 0.7061 0.0
O2620 O 0.91759 0.63245 0.59934 0.0
H2621 H 0.88467 0.55782 0.66505 0.0
H2622 H 0.85376 0.60242 0.60923 0.0
H2623 H 0.8462 0.56351 0.60807 0.0
H2624 H 0.86169 0.54094 0.63614 0.0
H2625 H 0.89194 0.59677 0.66551 0.0
H2626 H 0.8018 0.62382 0.65479 0.0
H2627 H 0.79005 0.6489 0.62705 0.0
O2628 O 0.88245 0.6318 0.60551 0.0
C2629 C 0.90214 0.67533 0.63238 0.0
C2630 C 0.82185 0.65586 0.61614 0.0
C2631 C 0.81336 0.63171 0.64464 0.0
N2632 N 0.84965 0.63773 0.63417 0.0
C2633 C 0.84336 0.65164 0.61897 0.0
C2634 C 0.83501 0.6279 0.64702 0.0
C2635 C 0.80678 0.64578 0.62907 0.0
C2636 C 0.94939 0.63212 0.66869 0.0
N2637 N 0.94793 0.64707 0.65315 0.0
C2638 C 0.9602 0.63707 0.68796 0.0
C2639 C 0.96953 0.65748 0.69127 0.0
C2640 C 0.96789 0.67267 0.67538 0.0
C2641 C 0.95693 0.66717 0.65632 0.0
C2642 C 0.99352 0.65439 0.60237 0.0
C2643 C 0.95213 0.66583 0.59438 0.0
C2644 C 0.97666 0.64607 0.61437 0.0
N2645 N 0.95629 0.65193 0.61037 0.0
C2646 C 0.9686 0.67452 0.58213 0.0
C2647 C 0.98943 0.66875 0.58621 0.0
C2648 C 0.89815 0.63128 0.59283 0.0
C2649 C 0.87778 0.56749 0.65276 0.0
C2650 C 0.86059 0.5927 0.62147 0.0
C2651 C 0.85622 0.57068 0.62076 0.0
C2652 C 0.86491 0.55803 0.63652 0.0
N2653 N 0.87318 0.60186 0.63748 0.0
C2654 C 0.88177 0.58956 0.65298 0.0
Co2655 Co 0.13894 0.42318 0.87534 0.0
Co2656 Co 0.09862 0.38454 0.88265 0.0
O2657 O 0.1267 0.39811 0.88924 0.0
C2658 C 0.17841 0.40667 0.8589 0.0
O2659 O 0.17181 0.41282 0.84005 0.0
C2660 C 0.096 0.39721 0.92831 0.0
O2661 O 0.10041 0.4168 0.92215 0.0
O2662 O 0.08479 0.41245 0.88213 0.0
O2663 O 0.11123 0.43694 0.87538 0.0
H2664 H 0.02741 0.37499 0.84433 0.0
H2665 H 0.15969 0.40735 0.91465 0.0
O2666 O 0.167 0.40933 0.87511 0.0
H2667 H 0.14089 0.48061 0.9318 0.0
H2668 H 0.19683 0.47985 0.86253 0.0
H2669 H 0.12559 0.45007 0.83939 0.0
H2670 H 0.13303 0.46527 0.89603 0.0
H2671 H 0.17974 0.44946 0.88134 0.0
O2672 O 0.09413 0.38205 0.91454 0.0
H2673 H 0.06345 0.39155 0.85145 0.0
H2674 H 0.07368 0.34818 0.90166 0.0
H2675 H 0.1423 0.48012 0.81982 0.0
H2676 H 0.16797 0.42212 0.9506 0.0
H2677 H 0.1782 0.49519 0.83137 0.0
H2678 H 0.15851 0.45899 0.95937 0.0
O2679 O 0.13111 0.41061 0.84694 0.0
H2680 H 0.1461 0.32925 0.91198 0.0
H2681 H 0.09655 0.34697 0.85335 0.0
H2682 H 0.11341 0.31242 0.85285 0.0
H2683 H 0.13833 0.30334 0.88236 0.0
H2684 H 0.12904 0.3637 0.91175 0.0
H2685 H 0.03769 0.33122 0.89517 0.0
H2686 H 0.01428 0.34466 0.86634 0.0
O2687 O 0.10335 0.38695 0.85089 0.0
C2688 C 0.09174 0.43142 0.87834 0.0
C2689 C 0.03748 0.36896 0.8569 0.0
C2690 C 0.04324 0.34441 0.88546 0.0
N2691 N 0.07069 0.37074 0.87685 0.0
C2692 C 0.05793 0.37822 0.86096 0.0
C2693 C 0.06358 0.35409 0.88908 0.0
C2694 C 0.03012 0.35195 0.86927 0.0
C2695 C 0.15572 0.42348 0.91829 0.0
N2696 N 0.14606 0.43549 0.90321 0.0
C2697 C 0.16037 0.43173 0.93869 0.0
C2698 C 0.15502 0.4524 0.94362 0.0
C2699 C 0.14513 0.46454 0.92816 0.0
C2700 C 0.1407 0.45575 0.90794 0.0
C2701 C 0.18118 0.47343 0.85736 0.0
C2702 C 0.14118 0.4566 0.84456 0.0
C2703 C 0.17138 0.4563 0.868 0.0
N2704 N 0.15166 0.44805 0.86149 0.0
C2705 C 0.15057 0.47359 0.8334 0.0
C2706 C 0.17072 0.48203 0.83988 0.0
C2707 C 0.11672 0.39741 0.8393 0.0
C2708 C 0.13522 0.333 0.89906 0.0
C2709 C 0.10744 0.34317 0.8662 0.0
C2710 C 0.1169 0.32356 0.86586 0.0
C2711 C 0.13087 0.31848 0.88243 0.0
N2712 N 0.11171 0.35728 0.88263 0.0
C2713 C 0.12546 0.35245 0.89888 0.0
Co2714 Co 0.09313 0.6586 0.35342 0.0
Co2715 Co 0.13124 0.62377 0.36859 0.0
O2716 O 0.11689 0.65041 0.37153 0.0
C2717 C 0.12517 0.69405 0.35068 0.0
O2718 O 0.13936 0.6797 0.34823 0.0
C2719 C 0.11688 0.62527 0.41306 0.0
O2720 O 0.09822 0.62898 0.40435 0.0
O2721 O 0.10344 0.6068 0.3679 0.0
O2722 O 0.08042 0.62892 0.35296 0.0
H2723 H 0.14377 0.55181 0.33739 0.0
H2724 H 0.10345 0.68266 0.39349 0.0
O2725 O 0.10562 0.68846 0.35323 0.0
H2726 H 0.02919 0.65423 0.40013 0.0
H2727 H 0.03732 0.70796 0.32839 0.0
H2728 H 0.06993 0.63952 0.31558 0.0
H2729 H 0.04909 0.64729 0.36773 0.0
H2730 H 0.0664 0.69637 0.35202 0.0
O2731 O 0.13248 0.62184 0.40099 0.0
H2732 H 0.12586 0.58569 0.34044 0.0
H2733 H 0.16728 0.60507 0.39236 0.0
H2734 H 0.04064 0.65031 0.29176 0.0
H2735 H 0.08411 0.69002 0.4262 0.0
H2736 H 0.02421 0.68481 0.29804 0.0
H2737 H 0.04673 0.67572 0.42967 0.0
O2738 O 0.10895 0.6524 0.32775 0.0
H2739 H 0.18466 0.67999 0.39717 0.0
H2740 H 0.16991 0.62447 0.34203 0.0
H2741 H 0.20404 0.64582 0.34214 0.0
H2742 H 0.2116 0.6738 0.36987 0.0
H2743 H 0.15067 0.65841 0.39636 0.0
H2744 H 0.18553 0.57134 0.39 0.0
H2745 H 0.17381 0.54447 0.36231 0.0
O2746 O 0.13013 0.62575 0.33606 0.0
C2747 C 0.08528 0.61069 0.3597 0.0
C2748 C 0.14906 0.56342 0.34948 0.0
C2749 C 0.17248 0.57437 0.37903 0.0
N2750 N 0.14565 0.59737 0.36644 0.0
C2751 C 0.13903 0.58264 0.35124 0.0
C2752 C 0.16206 0.59341 0.38032 0.0
C2753 C 0.1659 0.5593 0.36348 0.0
C2754 C 0.08713 0.67654 0.39484 0.0
N2755 N 0.07739 0.66466 0.3787 0.0
C2756 C 0.07628 0.68069 0.41341 0.0
C2757 C 0.05532 0.67263 0.41537 0.0
C2758 C 0.04547 0.66055 0.39881 0.0
C2759 C 0.05684 0.65665 0.38051 0.0
C2760 C 0.04433 0.69287 0.32551 0.0
C2761 C 0.06267 0.65442 0.31857 0.0
C2762 C 0.06081 0.68624 0.33882 0.0
N2763 N 0.06972 0.66721 0.33528 0.0
C2764 C 0.04616 0.6605 0.30497 0.0
C2765 C 0.03698 0.67987 0.30848 0.0
C2766 C 0.12183 0.63841 0.32257 0.0
C2767 C 0.18159 0.66779 0.38505 0.0
C2768 C 0.17306 0.63665 0.35412 0.0
C2769 C 0.19243 0.64865 0.35413 0.0
C2770 C 0.19667 0.66434 0.36971 0.0
N2771 N 0.15835 0.64012 0.36923 0.0
C2772 C 0.1624 0.65545 0.38458 0.0
Co2773 Co 0.92679 0.36347 0.38007 0.0
Co2774 Co 0.8876 0.39766 0.39143 0.0
O2775 O 0.90269 0.37183 0.3963 0.0
C2776 C 0.89693 0.32583 0.37703 0.0
O2777 O 0.88244 0.33851 0.3699 0.0
C2778 C 0.90163 0.3992 0.43662 0.0
O2779 O 0.92054 0.39637 0.42901 0.0
O2780 O 0.91486 0.41551 0.39197 0.0
O2781 O 0.93803 0.39357 0.37787 0.0
H2782 H 0.87302 0.46723 0.3566 0.0
H2783 H 0.9182 0.34194 0.42107 0.0
O2784 O 0.91575 0.33319 0.38183 0.0
H2785 H 0.98981 0.37756 0.43024 0.0
H2786 H 0.98503 0.31488 0.36228 0.0
H2787 H 0.94871 0.37955 0.34165 0.0
H2788 H 0.96995 0.37922 0.39603 0.0
H2789 H 0.95577 0.32764 0.3836 0.0
O2790 O 0.88579 0.40113 0.42363 0.0
H2791 H 0.8921 0.43432 0.36223 0.0
H2792 H 0.85058 0.41627 0.41193 0.0
H2793 H 0.97769 0.36719 0.31971 0.0
H2794 H 0.93788 0.3392 0.45535 0.0
H2795 H 0.99593 0.33451 0.32991 0.0
H2796 H 0.97381 0.35734 0.46021 0.0
O2797 O 0.91055 0.3668 0.35308 0.0
H2798 H 0.83564 0.34089 0.41771 0.0
H2799 H 0.84945 0.39438 0.36213 0.0
H2800 H 0.81604 0.37184 0.36036 0.0
H2801 H 0.80896 0.34488 0.38831 0.0
H2802 H 0.8689 0.36365 0.41878 0.0
H2803 H 0.83115 0.44906 0.40699 0.0
H2804 H 0.84232 0.47476 0.3791 0.0
O2805 O 0.88956 0.39406 0.35922 0.0
C2806 C 0.93279 0.4119 0.38402 0.0
C2807 C 0.86797 0.45612 0.36876 0.0
C2808 C 0.84449 0.44594 0.39707 0.0
N2809 N 0.87234 0.42336 0.38728 0.0
C2810 C 0.87867 0.43745 0.37198 0.0
C2811 C 0.85557 0.42744 0.39983 0.0
C2812 C 0.85075 0.46035 0.38141 0.0
C2813 C 0.93404 0.34946 0.4229 0.0
N2814 N 0.94294 0.36066 0.40654 0.0
C2815 C 0.94505 0.34796 0.44239 0.0
C2816 C 0.96522 0.35816 0.44511 0.0
C2817 C 0.9742 0.36951 0.42832 0.0
C2818 C 0.96281 0.3705 0.40901 0.0
C2819 C 0.97715 0.32909 0.35764 0.0
C2820 C 0.95669 0.36543 0.34628 0.0
C2821 C 0.9606 0.33641 0.36966 0.0
N2822 N 0.9506 0.35436 0.3639 0.0
C2823 C 0.97305 0.35846 0.33376 0.0
C2824 C 0.98328 0.34013 0.33949 0.0
C2825 C 0.89804 0.38086 0.34662 0.0
C2826 C 0.83851 0.35263 0.40548 0.0
C2827 C 0.84648 0.38266 0.37433 0.0
C2828 C 0.82753 0.36997 0.37327 0.0
C2829 C 0.82356 0.35485 0.38896 0.0
N2830 N 0.86104 0.38041 0.39061 0.0
C2831 C 0.85727 0.36562 0.40605 0.0
H2832 H 0.06996 0.30509 0.4054 0.0
H2833 H 0.12472 0.19989 0.3727 0.0
H2834 H 0.13358 0.31001 0.38079 0.0
H2835 H 0.09014 0.20547 0.43073 0.0
H2836 H 0.12344 0.23879 0.36803 0.0
H2837 H 0.07199 0.26649 0.40684 0.0
C2838 C 0.08429 0.29803 0.40009 0.0
C2839 C 0.1017 0.31076 0.39308 0.0
C2840 C 0.1162 0.23135 0.38174 0.0
C2841 C 0.10393 0.2666 0.39448 0.0
C2842 C 0.11682 0.20928 0.38435 0.0
C2843 C 0.10758 0.19958 0.40215 0.0
C2844 C 0.10571 0.24344 0.3967 0.0
C2845 C 0.09759 0.21236 0.41686 0.0
C2846 C 0.08544 0.27604 0.40101 0.0
C2847 C 0.1199 0.30072 0.38647 0.0
N2848 N 0.09673 0.23359 0.4137 0.0
N2849 N 0.12054 0.27911 0.38724 0.0
H2850 H 0.30552 0.61732 0.84628 0.0
H2851 H 0.1937 0.65992 0.88123 0.0
H2852 H 0.298 0.65896 0.90026 0.0
H2853 H 0.19837 0.60335 0.84245 0.0
H2854 H 0.23255 0.66398 0.88328 0.0
H2855 H 0.26671 0.61616 0.83983 0.0
C2856 C 0.29576 0.62635 0.85664 0.0
C2857 C 0.305 0.63813 0.87392 0.0
C2858 C 0.22505 0.65073 0.87425 0.0
C2859 C 0.26081 0.63698 0.86656 0.0
C2860 C 0.20285 0.64842 0.87301 0.0
C2861 C 0.1927 0.63115 0.86181 0.0
C2862 C 0.23726 0.63579 0.86409 0.0
C2863 C 0.20549 0.61681 0.85142 0.0
C2864 C 0.27365 0.62561 0.853 0.0
C2865 C 0.29159 0.6495 0.88687 0.0
N2866 N 0.22713 0.61943 0.85285 0.0
N2867 N 0.27022 0.64864 0.88291 0.0
H2868 H 0.87646 0.80691 0.42527 0.0
H2869 H 0.91746 0.71095 0.35829 0.0
H2870 H 0.90635 0.81593 0.36473 0.0
H2871 H 0.86864 0.70212 0.40497 0.0
H2872 H 0.91423 0.74939 0.36077 0.0
H2873 H 0.87394 0.7685 0.41863 0.0
C2874 C 0.88237 0.80081 0.4105 0.0
C2875 C 0.89179 0.81462 0.39559 0.0
C2876 C 0.90406 0.73904 0.37029 0.0
C2877 C 0.88911 0.77066 0.388 0.0
C2878 C 0.90594 0.71708 0.36896 0.0
C2879 C 0.89338 0.70328 0.38155 0.0
C2880 C 0.88979 0.74735 0.38459 0.0
C2881 C 0.87863 0.71216 0.39497 0.0
C2882 C 0.88084 0.77889 0.40669 0.0
C2883 C 0.89902 0.80586 0.37667 0.0
N2884 N 0.87743 0.73367 0.39635 0.0
N2885 N 0.89778 0.78439 0.37353 0.0
H2886 H 0.83377 0.37088 0.90579 0.0
H2887 H 0.71787 0.39855 0.8623 0.0
H2888 H 0.82178 0.42631 0.86806 0.0
H2889 H 0.72748 0.36018 0.91807 0.0
H2890 H 0.75652 0.40422 0.85984 0.0
H2891 H 0.7952 0.36236 0.90628 0.0
C2892 C 0.82307 0.38119 0.89753 0.0
C2893 C 0.83104 0.39939 0.88694 0.0
C2894 C 0.75014 0.3945 0.87256 0.0
C2895 C 0.78705 0.3896 0.88728 0.0
C2896 C 0.72808 0.39116 0.87392 0.0
C2897 C 0.71938 0.37896 0.89049 0.0
C2898 C 0.76364 0.38538 0.88769 0.0
C2899 C 0.73346 0.36982 0.90512 0.0
C2900 C 0.8011 0.37635 0.89789 0.0
C2901 C 0.81641 0.41219 0.87654 0.0
N2902 N 0.75492 0.37321 0.90337 0.0
N2903 N 0.79515 0.40701 0.87692 0.0
H2904 H 0.15048 0.69926 0.60747 0.0
H2905 H 0.11745 0.81035 0.65597 0.0
H2906 H 0.09551 0.7055 0.64652 0.0
H2907 H 0.15838 0.80557 0.60216 0.0
H2908 H 0.11299 0.77149 0.65652 0.0
H2909 H 0.15713 0.73791 0.60907 0.0
C2910 C 0.13984 0.70871 0.61644 0.0
C2911 C 0.12234 0.69908 0.62681 0.0
C2912 C 0.12299 0.77898 0.64465 0.0
C2913 C 0.12999 0.74331 0.62878 0.0
C2914 C 0.12563 0.80116 0.64437 0.0
C2915 C 0.13823 0.81128 0.62892 0.0
C2916 C 0.13319 0.76681 0.62953 0.0
C2917 C 0.14841 0.79849 0.61428 0.0
C2918 C 0.14363 0.73078 0.61729 0.0
C2919 C 0.10912 0.7122 0.63818 0.0
N2920 N 0.14566 0.77693 0.61495 0.0
N2921 N 0.11325 0.73363 0.63889 0.0
H2922 H 0.71041 0.63081 0.09271 0.0
H2923 H 0.80721 0.59917 0.16701 0.0
H2924 H 0.70117 0.6016 0.1539 0.0
H2925 H 0.81408 0.64627 0.11775 0.0
H2926 H 0.76849 0.59957 0.16252 0.0
H2927 H 0.74845 0.63624 0.10138 0.0
C2928 C 0.71638 0.62561 0.10803 0.0
C2929 C 0.70262 0.61556 0.12255 0.0
C2930 C 0.77845 0.61001 0.15288 0.0
C2931 C 0.74624 0.62165 0.1325 0.0
C2932 C 0.80057 0.60977 0.15538 0.0
C2933 C 0.81393 0.62262 0.14263 0.0
C2934 C 0.76955 0.62292 0.13726 0.0
C2935 C 0.80441 0.63612 0.12793 0.0
C2936 C 0.73809 0.62882 0.113 0.0
C2937 C 0.71122 0.60936 0.14223 0.0
N2938 N 0.78279 0.6357 0.12544 0.0
N2939 N 0.73255 0.61226 0.14653 0.0
H2940 H 0.8564 0.19512 0.60354 0.0
H2941 H 0.92267 0.2978 0.64695 0.0
H2942 H 0.90455 0.19243 0.65369 0.0
H2943 H 0.86183 0.30103 0.61375 0.0
H2944 H 0.91676 0.2592 0.64916 0.0
H2945 H 0.85846 0.23386 0.60656 0.0
C2946 C 0.86733 0.20267 0.6153 0.0
C2947 C 0.88045 0.1905 0.62829 0.0
C2948 C 0.90461 0.26837 0.64157 0.0
C2949 C 0.88297 0.23492 0.63167 0.0
C2950 C 0.90801 0.29039 0.6402 0.0
C2951 C 0.89279 0.30261 0.62996 0.0
C2952 C 0.88602 0.25843 0.63235 0.0
C2953 C 0.87401 0.2922 0.62171 0.0
C2954 C 0.86841 0.2248 0.61705 0.0
C2955 C 0.89416 0.20117 0.64334 0.0
N2956 N 0.87126 0.27065 0.62286 0.0
N2957 N 0.89526 0.22282 0.64444 0.0
H2958 H 0.30045 0.40715 0.07461 0.0
H2959 H 0.19561 0.37156 0.13499 0.0
H2960 H 0.30558 0.38248 0.13833 0.0
H2961 H 0.20037 0.42702 0.09504 0.0
H2962 H 0.23457 0.36869 0.13281 0.0
H2963 H 0.26188 0.40731 0.07788 0.0
C2964 C 0.29345 0.40159 0.08925 0.0
C2965 C 0.30625 0.39489 0.10629 0.0
C2966 C 0.22694 0.38145 0.12462 0.0
C2967 C 0.26205 0.3949 0.10999 0.0
C2968 C 0.20482 0.38304 0.12575 0.0
C2969 C 0.19484 0.39958 0.11522 0.0
C2970 C 0.23884 0.39615 0.11241 0.0
C2971 C 0.20744 0.41411 0.10352 0.0
C2972 C 0.27145 0.4018 0.09111 0.0
C2973 C 0.29625 0.38793 0.12491 0.0
N2974 N 0.22873 0.41194 0.10227 0.0
N2975 N 0.27463 0.38802 0.12627 0.0
H2976 H 0.36494 0.13473 0.20043 0.0
H2977 H 0.39721 0.0796 0.30741 0.0
H2978 H 0.42583 0.10671 0.2091 0.0
H2979 H 0.36978 0.14104 0.31061 0.0
H2980 H 0.40066 0.08375 0.26903 0.0
H2981 H 0.35972 0.13218 0.23911 0.0
C2982 C 0.37714 0.12805 0.21046 0.0
C2983 C 0.39585 0.12094 0.20167 0.0
C2984 C 0.3938 0.09625 0.27816 0.0
C2985 C 0.38977 0.11759 0.24533 0.0
C2986 C 0.39171 0.09388 0.29999 0.0
C2987 C 0.38325 0.11006 0.31216 0.0
C2988 C 0.38692 0.11467 0.26832 0.0
C2989 C 0.3765 0.12828 0.30174 0.0
C2990 C 0.3742 0.12671 0.23241 0.0
C2991 C 0.41123 0.11247 0.21528 0.0
N2992 N 0.37833 0.13007 0.28027 0.0
N2993 N 0.40773 0.11078 0.23641 0.0
H2994 H 0.40082 0.86223 0.70103 0.0
H2995 H 0.35883 0.89986 0.81326 0.0
H2996 H 0.36377 0.91768 0.7084 0.0
H2997 H 0.41185 0.85943 0.80676 0.0
H2998 H 0.35663 0.90312 0.77452 0.0
H2999 H 0.40134 0.85777 0.73953 0.0
C3000 C 0.39275 0.87347 0.71072 0.0
C3001 C 0.38227 0.89041 0.70143 0.0
C3002 C 0.36869 0.8935 0.78161 0.0
C3003 C 0.38272 0.88524 0.74557 0.0
C3004 C 0.36988 0.89152 0.80371 0.0
C3005 C 0.38558 0.87938 0.8133 0.0
C3006 C 0.38311 0.88307 0.76901 0.0
C3007 C 0.39955 0.86902 0.80009 0.0
C3008 C 0.39312 0.87092 0.73272 0.0
C3009 C 0.37213 0.90446 0.71486 0.0
N3010 N 0.39796 0.87109 0.77863 0.0
N3011 N 0.37255 0.90152 0.73627 0.0
H3012 H 0.64058 0.87464 0.20499 0.0
H3013 H 0.59551 0.92337 0.30949 0.0
H3014 H 0.57773 0.8992 0.20699 0.0
H3015 H 0.63149 0.86687 0.3138 0.0
H3016 H 0.59417 0.91955 0.2708 0.0
H3017 H 0.64266 0.876 0.24424 0.0
C3018 C 0.62727 0.88028 0.21366 0.0
C3019 C 0.60896 0.88682 0.20278 0.0
C3020 C 0.60234 0.90798 0.28022 0.0
C3021 C 0.61141 0.88872 0.24719 0.0
C3022 C 0.60319 0.91018 0.30226 0.0
C3023 C 0.61356 0.89535 0.31482 0.0
C3024 C 0.61234 0.89113 0.27058 0.0
C3025 C 0.6232 0.87852 0.30462 0.0
C3026 C 0.62843 0.88094 0.23595 0.0
C3027 C 0.59211 0.89392 0.21472 0.0
N3028 N 0.62254 0.87694 0.28297 0.0
N3029 N 0.59385 0.89492 0.23625 0.0
H3030 H 0.66724 0.11157 0.81614 0.0
H3031 H 0.6261 0.14556 0.70063 0.0
H3032 H 0.61517 0.15288 0.80591 0.0
H3033 H 0.66141 0.08938 0.71174 0.0
H3034 H 0.62622 0.15216 0.73899 0.0
H3035 H 0.66965 0.10718 0.77761 0.0
C3036 C 0.65645 0.11989 0.80582 0.0
C3037 C 0.64092 0.13257 0.81431 0.0
C3038 C 0.63396 0.13842 0.733 0.0
C3039 C 0.64365 0.12758 0.77021 0.0
C3040 C 0.63397 0.13465 0.7111 0.0
C3041 C 0.6437 0.11683 0.70291 0.0
C3042 C 0.64397 0.12442 0.74685 0.0
C3043 C 0.65361 0.10325 0.71731 0.0
C3044 C 0.65777 0.11727 0.78383 0.0
C3045 C 0.62731 0.14287 0.80011 0.0
N3046 N 0.65353 0.10736 0.73857 0.0
N3047 N 0.62901 0.14016 0.77877 0.0
H3048 H 0.91503 0.80793 0.60092 0.0
H3049 H 0.87138 0.69871 0.65034 0.0
H3050 H 0.87313 0.8063 0.65435 0.0
H3051 H 0.92914 0.70528 0.61456 0.0
H3052 H 0.86906 0.73749 0.64977 0.0
H3053 H 0.91756 0.76961 0.60337 0.0
C3054 C 0.90633 0.79953 0.6132 0.0
C3055 C 0.89382 0.81039 0.62746 0.0
C3056 C 0.88225 0.73037 0.64214 0.0
C3057 C 0.89661 0.7663 0.63024 0.0
C3058 C 0.88355 0.70826 0.64235 0.0
C3059 C 0.90045 0.69869 0.6324 0.0
C3060 C 0.89778 0.74292 0.63166 0.0
C3061 C 0.91582 0.71189 0.62243 0.0
C3062 C 0.90787 0.77761 0.61463 0.0
C3063 C 0.883 0.79857 0.64308 0.0
N3064 N 0.91403 0.73329 0.6222 0.0
N3065 N 0.88453 0.77707 0.64398 0.0
H3066 H 0.81153 0.35317 0.15259 0.0
H3067 H 0.6964 0.39155 0.1176 0.0
H3068 H 0.79647 0.41909 0.14607 0.0
H3069 H 0.71114 0.32539 0.1222 0.0
H3070 H 0.73239 0.40181 0.13074 0.0
H3071 H 0.77421 0.34254 0.14405 0.0
C3072 C 0.80036 0.3654 0.14949 0.0
C3073 C 0.80713 0.38704 0.14994 0.0
C3074 C 0.72774 0.38503 0.12898 0.0
C3075 C 0.76451 0.37501 0.14013 0.0
C3076 C 0.70717 0.37916 0.12148 0.0
C3077 C 0.7008 0.35757 0.11864 0.0
C3078 C 0.7421 0.36922 0.13362 0.0
C3079 C 0.71541 0.34222 0.12405 0.0
C3080 C 0.77908 0.35933 0.1446 0.0
C3081 C 0.79199 0.40221 0.14579 0.0
N3082 N 0.73544 0.34835 0.13116 0.0
N3083 N 0.77142 0.3959 0.14099 0.0
H3084 H 0.1167 0.19325 0.66646 0.0
H3085 H 0.14746 0.31293 0.63533 0.0
H3086 H 0.15034 0.20808 0.60907 0.0
H3087 H 0.08551 0.29429 0.65925 0.0
H3088 H 0.15575 0.27515 0.63355 0.0
H3089 H 0.11242 0.23151 0.67225 0.0
C3090 C 0.1235 0.2046 0.65532 0.0
C3091 C 0.13375 0.19763 0.6372 0.0
C3092 C 0.14043 0.27946 0.63933 0.0
C3093 C 0.1292 0.24101 0.64385 0.0
C3094 C 0.13573 0.30089 0.64039 0.0
C3095 C 0.11574 0.30659 0.6473 0.0
C3096 C 0.12527 0.26382 0.64581 0.0
C3097 C 0.10102 0.29046 0.65364 0.0
C3098 C 0.12094 0.2263 0.65856 0.0
C3099 C 0.14216 0.21288 0.62312 0.0
N3100 N 0.10613 0.26975 0.65286 0.0
N3101 N 0.13976 0.23393 0.62677 0.0
H3102 H 0.19028 0.65946 0.12202 0.0
H3103 H 0.30637 0.61741 0.10318 0.0
H3104 H 0.20221 0.59387 0.10763 0.0
H3105 H 0.29363 0.68396 0.10981 0.0
H3106 H 0.26881 0.60807 0.10918 0.0
H3107 H 0.22859 0.66822 0.12167 0.0
C3108 C 0.20093 0.64686 0.11889 0.0
C3109 C 0.19294 0.62589 0.11473 0.0
C3110 C 0.27426 0.62471 0.10946 0.0
C3111 C 0.23688 0.63588 0.11433 0.0
C3112 C 0.29573 0.63007 0.1061 0.0
C3113 C 0.30313 0.65153 0.10581 0.0
C3114 C 0.26007 0.64091 0.11257 0.0
C3115 C 0.2886 0.66722 0.10975 0.0
C3116 C 0.22282 0.65189 0.11869 0.0
C3117 C 0.20758 0.61026 0.11082 0.0
N3118 N 0.26773 0.66159 0.11284 0.0
N3119 N 0.22882 0.6156 0.11065 0.0
H3120 H 0.88761 0.19901 0.42693 0.0
H3121 H 0.86227 0.30208 0.3607 0.0
H3122 H 0.84908 0.19498 0.36894 0.0
H3123 H 0.91918 0.29764 0.40022 0.0
H3124 H 0.85383 0.26397 0.36619 0.0
H3125 H 0.89604 0.23661 0.42009 0.0
C3126 C 0.88091 0.20606 0.41274 0.0
C3127 C 0.86762 0.1939 0.39846 0.0
C3128 C 0.86819 0.27141 0.37355 0.0
C3129 C 0.87709 0.23692 0.39067 0.0
C3130 C 0.87296 0.29311 0.37052 0.0
C3131 C 0.89146 0.30299 0.38 0.0
C3132 C 0.88183 0.25972 0.38645 0.0
C3133 C 0.90479 0.29064 0.39254 0.0
C3134 C 0.8858 0.22748 0.40882 0.0
C3135 C 0.85946 0.20381 0.38029 0.0
N3136 N 0.89964 0.26968 0.39551 0.0
N3137 N 0.8642 0.22486 0.37697 0.0
H3138 H 0.20683 0.39824 0.82808 0.0
H3139 H 0.30396 0.3903 0.91132 0.0
H3140 H 0.19989 0.39879 0.89625 0.0
H3141 H 0.31009 0.38225 0.84345 0.0
H3142 H 0.26549 0.39138 0.90608 0.0
H3143 H 0.24421 0.39013 0.83332 0.0
C3144 C 0.21311 0.39646 0.84415 0.0
C3145 C 0.20027 0.39941 0.86176 0.0
C3146 C 0.27521 0.3892 0.89234 0.0
C3147 C 0.24307 0.39028 0.86787 0.0
C3148 C 0.29724 0.38861 0.89531 0.0
C3149 C 0.31037 0.38631 0.87778 0.0
C3150 C 0.26617 0.38768 0.87169 0.0
C3151 C 0.30064 0.38411 0.85744 0.0
C3152 C 0.23446 0.39182 0.84713 0.0
C3153 C 0.20922 0.39677 0.8822 0.0
N3154 N 0.27914 0.38504 0.85494 0.0
N3155 N 0.23013 0.39256 0.88469 0.0
H3156 H 0.13283 0.83199 0.3479 0.0
H3157 H 0.16309 0.71193 0.36603 0.0
H3158 H 0.16374 0.81163 0.4058 0.0
H3159 H 0.10238 0.72755 0.33817 0.0
H3160 H 0.17214 0.75014 0.37162 0.0
H3161 H 0.13028 0.79474 0.33521 0.0
C3162 C 0.13942 0.81973 0.3577 0.0
C3163 C 0.1483 0.82465 0.37795 0.0
C3164 C 0.15702 0.7451 0.36397 0.0
C3165 C 0.14588 0.78264 0.36349 0.0
C3166 C 0.15188 0.72343 0.36074 0.0
C3167 C 0.1319 0.71675 0.35186 0.0
C3168 C 0.14226 0.76001 0.35776 0.0
C3169 C 0.11785 0.73218 0.34531 0.0
C3170 C 0.13791 0.79861 0.35052 0.0
C3171 C 0.15657 0.80831 0.39017 0.0
N3172 N 0.1233 0.75318 0.34841 0.0
N3173 N 0.15517 0.78796 0.38274 0.0
H3174 H 0.82754 0.65387 0.90361 0.0
H3175 H 0.71391 0.61057 0.8587 0.0
H3176 H 0.81866 0.5921 0.87322 0.0
H3177 H 0.72138 0.64418 0.91879 0.0
H3178 H 0.75298 0.6102 0.85681 0.0
H3179 H 0.78871 0.65702 0.90227 0.0
C3180 C 0.81742 0.64108 0.89649 0.0
C3181 C 0.82619 0.62261 0.88868 0.0
C3182 C 0.74596 0.61775 0.8703 0.0
C3183 C 0.78217 0.62631 0.88675 0.0
C3184 C 0.7238 0.61806 0.87134 0.0
C3185 C 0.71456 0.62726 0.88902 0.0
C3186 C 0.7588 0.62722 0.88676 0.0
C3187 C 0.72796 0.6367 0.90505 0.0
C3188 C 0.79537 0.64286 0.89581 0.0
C3189 C 0.81244 0.60646 0.87965 0.0
N3190 N 0.74947 0.63654 0.9035 0.0
N3191 N 0.79104 0.60872 0.87882 0.0
H3192 H 0.66764 0.89873 0.81378 0.0
H3193 H 0.61951 0.859 0.70129 0.0
H3194 H 0.60621 0.86474 0.80759 0.0
H3195 H 0.65322 0.92027 0.70938 0.0
H3196 H 0.62094 0.8545 0.7401 0.0
H3197 H 0.66903 0.90031 0.77478 0.0
C3198 C 0.65458 0.89143 0.8042 0.0
C3199 C 0.63668 0.88177 0.81381 0.0
C3200 C 0.62808 0.86885 0.73327 0.0
C3201 C 0.63837 0.88319 0.76958 0.0
C3202 C 0.62734 0.8714 0.71123 0.0
C3203 C 0.63607 0.89013 0.70225 0.0
C3204 C 0.63813 0.88489 0.74622 0.0
C3205 C 0.64605 0.90574 0.71576 0.0
C3206 C 0.65535 0.89242 0.78206 0.0
C3207 C 0.62014 0.87257 0.80076 0.0
N3208 N 0.64692 0.90273 0.73712 0.0
N3209 N 0.62142 0.87341 0.77925 0.0
H3210 H 0.58401 0.13258 0.20803 0.0
H3211 H 0.67283 0.10486 0.29533 0.0
H3212 H 0.65144 0.13518 0.19562 0.0
H3213 H 0.6057 0.10729 0.30794 0.0
H3214 H 0.66573 0.11709 0.25915 0.0
H3215 H 0.59206 0.12445 0.24505 0.0
C3216 C 0.60055 0.13152 0.21311 0.0
C3217 C 0.61709 0.13447 0.19868 0.0
C3218 C 0.65259 0.11505 0.26988 0.0
C3219 C 0.62642 0.12505 0.24115 0.0
C3220 C 0.65662 0.10805 0.29054 0.0
C3221 C 0.63981 0.10491 0.30464 0.0
C3222 C 0.6316 0.11886 0.26329 0.0
C3223 C 0.61914 0.10939 0.29759 0.0
C3224 C 0.60513 0.12689 0.2343 0.0
C3225 C 0.6382 0.13302 0.20622 0.0
N3226 N 0.61562 0.11602 0.27738 0.0
N3227 N 0.64227 0.12827 0.22695 0.0
H3228 H 0.37545 0.14434 0.70094 0.0
H3229 H 0.41794 0.10224 0.81234 0.0
H3230 H 0.40823 0.08595 0.70753 0.0
H3231 H 0.36557 0.14396 0.80727 0.0
H3232 H 0.41778 0.09911 0.77366 0.0
H3233 H 0.37493 0.14751 0.73977 0.0
C3234 C 0.38262 0.13224 0.71053 0.0
C3235 C 0.39193 0.11486 0.70097 0.0
C3236 C 0.40627 0.10888 0.78102 0.0
C3237 C 0.39142 0.11848 0.74527 0.0
C3238 C 0.40638 0.11075 0.8031 0.0
C3239 C 0.39171 0.12337 0.81307 0.0
C3240 C 0.39161 0.11995 0.76875 0.0
C3241 C 0.37708 0.13397 0.80025 0.0
C3242 C 0.38219 0.13401 0.73265 0.0
C3243 C 0.40084 0.09959 0.71419 0.0
N3244 N 0.37749 0.13214 0.7787 0.0
N3245 N 0.40047 0.10183 0.73566 0.0
H3246 H 0.36376 0.89015 0.19449 0.0
H3247 H 0.38646 0.86593 0.3155 0.0
H3248 H 0.42357 0.86481 0.2144 0.0
H3249 H 0.36369 0.92683 0.29704 0.0
H3250 H 0.39259 0.85784 0.27786 0.0
H3251 H 0.35574 0.89639 0.23207 0.0
C3252 C 0.37505 0.8857 0.2068 0.0
C3253 C 0.39435 0.87704 0.20151 0.0
C3254 C 0.38614 0.87289 0.28216 0.0
C3255 C 0.38512 0.88365 0.24404 0.0
C3256 C 0.38257 0.87746 0.30349 0.0
C3257 C 0.37466 0.89708 0.30922 0.0
C3258 C 0.3811 0.88777 0.26658 0.0
C3259 C 0.36995 0.91159 0.29317 0.0
C3260 C 0.37052 0.88934 0.22809 0.0
C3261 C 0.40857 0.87164 0.21793 0.0
N3262 N 0.37307 0.90656 0.27247 0.0
N3263 N 0.40359 0.87487 0.23856 0.0
H3264 H 0.08334 0.0729 0.56879 0.0
H3265 H 0.14218 0.06971 0.45991 0.0
H3266 H 0.15077 0.08459 0.5601 0.0
H3267 H 0.07608 0.0824 0.46809 0.0
H3268 H 0.14381 0.05612 0.49633 0.0
H3269 H 0.07998 0.05736 0.53281 0.0
C3270 C 0.09758 0.07122 0.55968 0.0
C3271 C 0.11728 0.08029 0.56704 0.0
C3272 C 0.12872 0.06107 0.48983 0.0
C3273 C 0.11359 0.06298 0.52617 0.0
C3274 C 0.12777 0.06871 0.46905 0.0
C3275 C 0.10911 0.07758 0.46135 0.0
C3276 C 0.11089 0.06239 0.50276 0.0
C3277 C 0.09088 0.07605 0.47375 0.0
C3278 C 0.09566 0.0625 0.53914 0.0
C3279 C 0.13526 0.07798 0.55469 0.0
N3280 N 0.09233 0.06905 0.49405 0.0
N3281 N 0.13293 0.06992 0.53464 0.0
H3282 H 0.4318 0.68072 0.94951 0.0
H3283 H 0.4341 0.613 0.05482 0.0
H3284 H 0.41413 0.6138 0.95442 0.0
H3285 H 0.42526 0.68038 0.05149 0.0
H3286 H 0.44539 0.61346 0.01774 0.0
H3287 H 0.44765 0.68011 0.98566 0.0
C3288 C 0.43212 0.66573 0.95786 0.0
C3289 C 0.42141 0.64736 0.94933 0.0
C3290 C 0.44186 0.62831 0.02543 0.0
C3291 C 0.43924 0.64654 0.99031 0.0
C3292 C 0.4356 0.62806 0.04659 0.0
C3293 C 0.42857 0.64664 0.05592 0.0
C3294 C 0.44101 0.64725 0.01378 0.0
C3295 C 0.43043 0.66572 0.04462 0.0
C3296 C 0.44105 0.66539 0.97846 0.0
C3297 C 0.42203 0.62835 0.96071 0.0
N3298 N 0.4361 0.66549 0.02395 0.0
N3299 N 0.43046 0.62849 0.98081 0.0
H3300 H 0.93337 0.93022 0.46466 0.0
H3301 H 0.93286 0.94459 0.56931 0.0
H3302 H 0.86659 0.94289 0.46136 0.0
H3303 H 0.86691 0.92373 0.55851 0.0
H3304 H 0.93314 0.96006 0.53363 0.0
H3305 H 0.93547 0.94329 0.50116 0.0
C3306 C 0.91934 0.93665 0.47144 0.0
C3307 C 0.89972 0.93524 0.46022 0.0
C3308 C 0.91847 0.95252 0.53925 0.0
C3309 C 0.90179 0.94993 0.50221 0.0
C3310 C 0.91823 0.94399 0.55973 0.0
C3311 C 0.90001 0.93239 0.56646 0.0
C3312 C 0.90041 0.94912 0.52563 0.0
C3313 C 0.88143 0.93214 0.55358 0.0
C3314 C 0.92053 0.94427 0.49232 0.0
C3315 C 0.88199 0.94367 0.46961 0.0
N3316 N 0.88223 0.93994 0.53357 0.0
N3317 N 0.88326 0.95 0.49037 0.0
H3318 H 0.58819 0.32831 0.94686 0.0
H3319 H 0.57383 0.39511 0.05181 0.0
H3320 H 0.60325 0.39553 0.95561 0.0
H3321 H 0.58363 0.32785 0.04866 0.0
H3322 H 0.56585 0.39469 0.01341 0.0
H3323 H 0.56835 0.32826 0.98004 0.0
C3324 C 0.58649 0.3432 0.9553 0.0
C3325 C 0.59757 0.36187 0.94891 0.0
C3326 C 0.56886 0.37986 0.0213 0.0
C3327 C 0.57523 0.36195 0.98654 0.0
C3328 C 0.57325 0.38007 0.04321 0.0
C3329 C 0.57977 0.36157 0.05313 0.0
C3330 C 0.57104 0.36101 0.00952 0.0
C3331 C 0.57897 0.3425 0.04135 0.0
C3332 C 0.57528 0.34317 0.97422 0.0
C3333 C 0.59512 0.38076 0.96034 0.0
N3334 N 0.57517 0.34278 0.02002 0.0
N3335 N 0.5845 0.38027 0.97884 0.0
H3336 H 0.12716 0.92765 0.56355 0.0
H3337 H 0.1744 0.94442 0.45058 0.0
H3338 H 0.19418 0.92996 0.54948 0.0
H3339 H 0.10828 0.92973 0.46351 0.0
H3340 H 0.18071 0.95507 0.48789 0.0
H3341 H 0.11976 0.9443 0.52946 0.0
C3342 C 0.14042 0.93218 0.55356 0.0
C3343 C 0.16123 0.92661 0.55897 0.0
C3344 C 0.16463 0.95035 0.48242 0.0
C3345 C 0.15279 0.94542 0.51986 0.0
C3346 C 0.16101 0.9445 0.46111 0.0
C3347 C 0.14083 0.93626 0.45422 0.0
C3348 C 0.14798 0.94747 0.49681 0.0
C3349 C 0.12404 0.93613 0.46839 0.0
C3350 C 0.13616 0.9417 0.53407 0.0
C3351 C 0.17781 0.93339 0.54567 0.0
N3352 N 0.12808 0.9412 0.48919 0.0
N3353 N 0.17316 0.94192 0.52643 0.0
H3354 H 0.59194 0.64359 0.94766 0.0
H3355 H 0.59026 0.57483 0.04612 0.0
H3356 H 0.588 0.57505 0.94471 0.0
H3357 H 0.57776 0.64156 0.0477 0.0
H3358 H 0.57818 0.57292 0.00897 0.0
H3359 H 0.5751 0.64233 0.98214 0.0
C3360 C 0.58658 0.62827 0.95393 0.0
C3361 C 0.5915 0.60939 0.94363 0.0
C3362 C 0.5774 0.58788 0.01751 0.0
C3363 C 0.57339 0.6077 0.9835 0.0
C3364 C 0.58432 0.58894 0.03873 0.0
C3365 C 0.58545 0.60849 0.04969 0.0
C3366 C 0.57232 0.60667 0.00702 0.0
C3367 C 0.57735 0.62625 0.03963 0.0
C3368 C 0.5771 0.6275 0.9737 0.0
C3369 C 0.58448 0.58994 0.95231 0.0
N3370 N 0.57173 0.62508 0.0186 0.0
N3371 N 0.57637 0.58955 0.97215 0.0
H3372 H 0.88995 0.06192 0.45417 0.0
H3373 H 0.83182 0.06288 0.56386 0.0
H3374 H 0.82502 0.07815 0.46365 0.0
H3375 H 0.89921 0.07481 0.55511 0.0
H3376 H 0.82817 0.049 0.52726 0.0
H3377 H 0.89124 0.04736 0.49024 0.0
C3378 C 0.87567 0.06149 0.46348 0.0
C3379 C 0.85749 0.07155 0.45626 0.0
C3380 C 0.8439 0.05377 0.53369 0.0
C3381 C 0.85887 0.05517 0.49723 0.0
C3382 C 0.846 0.06152 0.55459 0.0
C3383 C 0.86578 0.07021 0.56219 0.0
C3384 C 0.86173 0.05476 0.52061 0.0
C3385 C 0.88366 0.06842 0.54958 0.0
C3386 C 0.87644 0.0533 0.48406 0.0
C3387 C 0.83943 0.07079 0.46891 0.0
N3388 N 0.88116 0.06126 0.5292 0.0
N3389 N 0.8407 0.06313 0.48898 0.0
H3390 H 0.42791 0.38025 0.94832 0.0
H3391 H 0.4326 0.43587 0.05841 0.0
H3392 H 0.42791 0.44821 0.95878 0.0
H3393 H 0.43315 0.36802 0.04878 0.0
H3394 H 0.44563 0.44129 0.02256 0.0
H3395 H 0.44407 0.37641 0.98364 0.0
C3396 C 0.43187 0.39447 0.95779 0.0
C3397 C 0.4257 0.4145 0.95096 0.0
C3398 C 0.44367 0.42519 0.02844 0.0
C3399 C 0.44391 0.41014 0.99154 0.0
C3400 C 0.43641 0.42213 0.04898 0.0
C3401 C 0.43165 0.4015 0.05628 0.0
C3402 C 0.44532 0.40745 0.01494 0.0
C3403 C 0.43665 0.38417 0.04358 0.0
C3404 C 0.44112 0.39224 0.97802 0.0
C3405 C 0.43176 0.43236 0.96366 0.0
N3406 N 0.4426 0.38751 0.02319 0.0
N3407 N 0.43998 0.4297 0.9836 0.0
H3408 H 0.55626 0.09948 0.06874 0.0
H3409 H 0.44932 0.15922 0.07017 0.0
H3410 H 0.5507 0.16663 0.08014 0.0
H3411 H 0.45636 0.09278 0.08339 0.0
H3412 H 0.48489 0.16107 0.05481 0.0
H3413 H 0.5193 0.09699 0.05492 0.0
C3414 C 0.54758 0.11387 0.06735 0.0
C3415 C 0.55618 0.13319 0.07593 0.0
C3416 C 0.47826 0.14588 0.06026 0.0
C3417 C 0.51418 0.13046 0.06054 0.0
C3418 C 0.45796 0.14481 0.0689 0.0
C3419 C 0.45029 0.12593 0.07835 0.0
C3420 C 0.49069 0.12793 0.06117 0.0
C3421 C 0.46203 0.10771 0.07653 0.0
C3422 C 0.52648 0.11244 0.05961 0.0
C3423 C 0.54434 0.15137 0.07396 0.0
N3424 N 0.48188 0.10925 0.06851 0.0
N3425 N 0.52373 0.14949 0.06688 0.0
H3426 H 0.39636 0.95197 0.58125 0.0
H3427 H 0.36208 0.06734 0.57126 0.0
H3428 H 0.33196 0.97243 0.5842 0.0
H3429 H 0.42655 0.04785 0.57803 0.0
H3430 H 0.35104 0.03202 0.55711 0.0
H3431 H 0.40641 0.98422 0.56188 0.0
C3432 C 0.38417 0.96296 0.57731 0.0
C3433 C 0.36353 0.96003 0.58521 0.0
C3434 C 0.3678 0.03571 0.56071 0.0
C3435 C 0.37503 0.99709 0.56339 0.0
C3436 C 0.37414 0.05598 0.56852 0.0
C3437 C 0.39514 0.0602 0.57604 0.0
C3438 C 0.38257 0.01966 0.56102 0.0
C3439 C 0.41015 0.045 0.57251 0.0
C3440 C 0.38992 0.98138 0.56619 0.0
C3441 C 0.34825 0.97442 0.57904 0.0
N3442 N 0.40347 0.02511 0.56583 0.0
N3443 N 0.35446 0.99269 0.56905 0.0
H3444 H 0.4507 0.91078 0.07143 0.0
H3445 H 0.55741 0.85072 0.06969 0.0
H3446 H 0.45794 0.84463 0.08576 0.0
H3447 H 0.55244 0.91825 0.07894 0.0
H3448 H 0.52029 0.84804 0.05647 0.0
H3449 H 0.48606 0.91232 0.05556 0.0
C3450 C 0.45934 0.89636 0.0703 0.0
C3451 C 0.45176 0.87764 0.08009 0.0
C3452 C 0.52762 0.86359 0.06051 0.0
C3453 C 0.49194 0.87929 0.06238 0.0
C3454 C 0.54884 0.86514 0.06787 0.0
C3455 C 0.55768 0.88466 0.07574 0.0
C3456 C 0.51541 0.88169 0.06114 0.0
C3457 C 0.54593 0.90286 0.07328 0.0
C3458 C 0.47951 0.89725 0.06138 0.0
C3459 C 0.46351 0.85941 0.07853 0.0
N3460 N 0.52518 0.90088 0.06664 0.0
N3461 N 0.48324 0.86077 0.07021 0.0
H3462 H 0.61207 0.05699 0.57953 0.0
H3463 H 0.6549 0.94364 0.57471 0.0
H3464 H 0.67815 0.04194 0.58256 0.0
H3465 H 0.58969 0.95856 0.58408 0.0
H3466 H 0.6618 0.97883 0.55927 0.0
H3467 H 0.60296 0.02215 0.56308 0.0
C3468 C 0.62477 0.04669 0.57571 0.0
C3469 C 0.64582 0.05206 0.58241 0.0
C3470 C 0.64572 0.97411 0.5638 0.0
C3471 C 0.63554 0.01203 0.56463 0.0
C3472 C 0.64175 0.95394 0.57238 0.0
C3473 C 0.62177 0.94845 0.58072 0.0
C3474 C 0.62969 0.98889 0.56415 0.0
C3475 C 0.60531 0.96237 0.57779 0.0
C3476 C 0.61958 0.02676 0.56649 0.0
C3477 C 0.66173 0.03821 0.57755 0.0
N3478 N 0.60976 0.98223 0.57024 0.0
N3479 N 0.6562 0.01854 0.5694 0.0
H3480 H 0.45628 0.89958 0.92879 0.0
H3481 H 0.57393 0.86522 0.93213 0.0
H3482 H 0.47544 0.83466 0.92749 0.0
H3483 H 0.55475 0.92982 0.92565 0.0
H3484 H 0.53886 0.855 0.94563 0.0
H3485 H 0.49169 0.91107 0.94269 0.0
C3486 C 0.46773 0.88763 0.932 0.0
C3487 C 0.46318 0.86622 0.92615 0.0
C3488 C 0.5425 0.87155 0.94184 0.0
C3489 C 0.50382 0.87934 0.94178 0.0
C3490 C 0.56258 0.87743 0.93417 0.0
C3491 C 0.56696 0.89824 0.92692 0.0
C3492 C 0.5267 0.88653 0.94201 0.0
C3493 C 0.55185 0.91345 0.93046 0.0
C3494 C 0.48799 0.89423 0.93993 0.0
C3495 C 0.47844 0.85142 0.93119 0.0
N3496 N 0.53214 0.90717 0.93718 0.0
N3497 N 0.4983 0.85833 0.93816 0.0
H3498 H 0.65614 0.95281 0.44465 0.0
H3499 H 0.59426 0.05826 0.43999 0.0
H3500 H 0.58814 0.95661 0.43561 0.0
H3501 H 0.66057 0.05205 0.42654 0.0
H3502 H 0.59342 0.02305 0.45668 0.0
H3503 H 0.65851 0.98999 0.45685 0.0
C3504 C 0.6416 0.96117 0.44621 0.0
C3505 C 0.622 0.95198 0.43866 0.0
C3506 C 0.60837 0.02979 0.45085 0.0
C3507 C 0.6246 0.99429 0.45216 0.0
C3508 C 0.60885 0.04986 0.44145 0.0
C3509 C 0.62743 0.05768 0.43173 0.0
C3510 C 0.62658 0.0177 0.45035 0.0
C3511 C 0.6459 0.04627 0.43373 0.0
C3512 C 0.64296 0.98241 0.45302 0.0
C3513 C 0.60362 0.96342 0.4409 0.0
N3514 N 0.64494 0.02663 0.44249 0.0
N3515 N 0.60541 0.9842 0.447 0.0
H3516 H 0.47082 0.08767 0.9353 0.0
H3517 H 0.55439 0.18346 0.9255 0.0
H3518 H 0.45539 0.1536 0.93078 0.0
H3519 H 0.56918 0.11719 0.92586 0.0
H3520 H 0.52001 0.17379 0.94095 0.0
H3521 H 0.5073 0.09909 0.94591 0.0
C3522 C 0.47486 0.10455 0.93723 0.0
C3523 C 0.46025 0.11971 0.93129 0.0
C3524 C 0.531 0.16141 0.93816 0.0
C3525 C 0.5021 0.13287 0.94297 0.0
C3526 C 0.55069 0.16694 0.92936 0.0
C3527 C 0.56435 0.15101 0.92365 0.0
C3528 C 0.52491 0.1398 0.94105 0.0
C3529 C 0.55885 0.12993 0.92939 0.0
C3530 C 0.49579 0.11108 0.94318 0.0
C3531 C 0.46634 0.14135 0.93453 0.0
N3532 N 0.53933 0.12487 0.93729 0.0
N3533 N 0.48698 0.1473 0.93954 0.0
H3534 H 0.34145 0.9582 0.42823 0.0
H3535 H 0.41586 0.05573 0.4351 0.0
H3536 H 0.40894 0.95452 0.44057 0.0
H3537 H 0.34819 0.05848 0.44341 0.0
H3538 H 0.41429 0.01945 0.44847 0.0
H3539 H 0.34292 0.99349 0.44473 0.0
C3540 C 0.35643 0.96458 0.43526 0.0
C3541 C 0.37515 0.95374 0.43292 0.0
C3542 C 0.39985 0.02815 0.44822 0.0
C3543 C 0.37726 0.99445 0.45082 0.0
C3544 C 0.40081 0.04893 0.44068 0.0
C3545 C 0.38206 0.05981 0.43788 0.0
C3546 C 0.37986 0.01802 0.45212 0.0
C3547 C 0.36296 0.05045 0.44524 0.0
C3548 C 0.35733 0.98477 0.44463 0.0
C3549 C 0.39421 0.96255 0.44208 0.0
N3550 N 0.36219 0.02975 0.45137 0.0
N3551 N 0.39493 0.98275 0.45007 0.0
H3552 H 0.0731 0.45099 0.07963 0.0
H3553 H 0.06789 0.56129 0.13318 0.0
H3554 H 0.06885 0.46126 0.1472 0.0
H3555 H 0.07223 0.55014 0.06584 0.0
H3556 H 0.05312 0.52485 0.13731 0.0
H3557 H 0.05789 0.48533 0.07333 0.0
C3558 C 0.06831 0.46028 0.09312 0.0
C3559 C 0.0726 0.45367 0.11395 0.0
C3560 C 0.05641 0.53056 0.12146 0.0
C3561 C 0.05607 0.4933 0.10697 0.0
C3562 C 0.0646 0.55145 0.1191 0.0
C3563 C 0.07132 0.55847 0.09918 0.0
C3564 C 0.05557 0.51663 0.10381 0.0
C3565 C 0.06718 0.54516 0.08146 0.0
C3566 C 0.05966 0.47991 0.08956 0.0
C3567 C 0.06594 0.46603 0.13091 0.0
N3568 N 0.06008 0.52464 0.08425 0.0
N3569 N 0.05859 0.48563 0.12707 0.0
H3570 H 0.07647 0.55954 0.881 0.0
H3571 H 0.0661 0.4394 0.84442 0.0
H3572 H 0.07555 0.53737 0.81578 0.0
H3573 H 0.08539 0.46257 0.90703 0.0
H3574 H 0.05305 0.47453 0.83596 0.0
H3575 H 0.06277 0.52437 0.89184 0.0
C3576 C 0.07278 0.54747 0.86885 0.0
C3577 C 0.07795 0.55113 0.84755 0.0
C3578 C 0.05932 0.47168 0.85184 0.0
C3579 C 0.06252 0.51085 0.85992 0.0
C3580 C 0.06657 0.45163 0.85671 0.0
C3581 C 0.07675 0.44833 0.8764 0.0
C3582 C 0.06255 0.48839 0.86677 0.0
C3583 C 0.07751 0.46464 0.8917 0.0
C3584 C 0.06498 0.52738 0.87508 0.0
C3585 C 0.07233 0.53509 0.83246 0.0
N3586 N 0.07086 0.48415 0.88644 0.0
N3587 N 0.06547 0.51541 0.83901 0.0
H3588 H 0.07202 0.58744 0.39364 0.0
H3589 H 0.95747 0.57961 0.33814 0.0
H3590 H 0.0579 0.5984 0.32732 0.0
H3591 H 0.97153 0.59575 0.40397 0.0
H3592 H 0.99385 0.56766 0.33496 0.0
H3593 H 0.0357 0.57171 0.39735 0.0
C3594 C 0.0616 0.58557 0.37966 0.0
C3595 C 0.06766 0.59444 0.36023 0.0
C3596 C 0.98865 0.57298 0.35032 0.0
C3597 C 0.02637 0.57683 0.36435 0.0
C3598 C 0.96789 0.57965 0.35216 0.0
C3599 C 0.9618 0.58896 0.37123 0.0
C3600 C 1.00315 0.57563 0.36771 0.0
C3601 C 0.97587 0.58891 0.38891 0.0
C3602 C 0.04087 0.57674 0.38179 0.0
C3603 C 0.05359 0.59191 0.34261 0.0
N3604 N 0.99607 0.58275 0.38664 0.0
N3605 N 0.03341 0.58368 0.34516 0.0
H3606 H 0.95618 0.58024 0.87429 0.0
H3607 H 0.9579 0.46145 0.90938 0.0
H3608 H 0.94314 0.55579 0.93661 0.0
H3609 H 0.94565 0.48407 0.84602 0.0
H3610 H 0.97342 0.49681 0.91947 0.0
H3611 H 0.97322 0.54722 0.86551 0.0
C3612 C 0.95805 0.56839 0.88652 0.0
C3613 C 0.9482 0.57045 0.9061 0.0
C3614 C 0.96832 0.49376 0.90308 0.0
C3615 C 0.96694 0.5327 0.89607 0.0
C3616 C 0.95962 0.47357 0.89729 0.0
C3617 C 0.95042 0.47013 0.87694 0.0
C3618 C 0.96744 0.51045 0.88841 0.0
C3619 C 0.95258 0.48629 0.8619 0.0
C3620 C 0.9676 0.5495 0.88147 0.0
C3621 C 0.95057 0.55461 0.92132 0.0
N3622 N 0.96047 0.50598 0.86806 0.0
N3623 N 0.9593 0.53612 0.91583 0.0
H3624 H 0.0494 0.43174 0.42799 0.0
H3625 H 0.95646 0.42438 0.35063 0.0
H3626 H 0.05692 0.44297 0.36104 0.0
H3627 H 0.94839 0.43637 0.4174 0.0
H3628 H 0.99216 0.44155 0.35338 0.0
H3629 H 0.01335 0.4442 0.4252 0.0
C3630 C 0.04371 0.43774 0.41287 0.0
C3631 C 0.05586 0.436 0.39463 0.0
C3632 C 0.9824 0.44124 0.36733 0.0
C3633 C 0.01436 0.44928 0.39104 0.0
C3634 C 0.96198 0.43148 0.3657 0.0
C3635 C 0.94975 0.42881 0.38388 0.0
C3636 C 0.99088 0.44753 0.38748 0.0
C3637 C 0.95749 0.43811 0.40306 0.0
C3638 C 0.02307 0.44478 0.41122 0.0
C3639 C 0.0479 0.44394 0.37543 0.0
N3640 N 0.9779 0.44649 0.40455 0.0
N3641 N 0.0273 0.44956 0.37395 0.0
H3642 H 0.93706 0.45243 0.12161 0.0
H3643 H 0.93967 0.55951 0.18826 0.0
H3644 H 0.92522 0.45797 0.18856 0.0
H3645 H 0.9256 0.55282 0.121 0.0
H3646 H 0.95321 0.52358 0.18828 0.0
H3647 H 0.95173 0.48941 0.12201 0.0
C3648 C 0.93855 0.46112 0.13659 0.0
C3649 C 0.92971 0.45245 0.15502 0.0
C3650 C 0.94799 0.53035 0.17336 0.0
C3651 C 0.94605 0.49448 0.15556 0.0
C3652 C 0.94042 0.55087 0.17333 0.0
C3653 C 0.93127 0.5588 0.15466 0.0
C3654 C 0.94635 0.51797 0.15458 0.0
C3655 C 0.93232 0.547 0.13575 0.0
C3656 C 0.94676 0.48222 0.1368 0.0
C3657 C 0.93171 0.46433 0.174 0.0
N3658 N 0.93933 0.52697 0.13625 0.0
N3659 N 0.93931 0.48492 0.17371 0.0
H3660 H 0.95709 0.42472 0.59833 0.0
H3661 H 0.05041 0.42068 0.67458 0.0
H3662 H 0.95086 0.43469 0.6657 0.0
H3663 H 0.05867 0.43422 0.60819 0.0
H3664 H 0.01561 0.43605 0.67269 0.0
H3665 H 0.99394 0.43891 0.60118 0.0
C3666 C 0.9633 0.43079 0.61359 0.0
C3667 C 0.95122 0.42823 0.63189 0.0
C3668 C 0.02524 0.43645 0.65865 0.0
C3669 C 0.99356 0.44347 0.63552 0.0
C3670 C 0.04513 0.42767 0.65978 0.0
C3671 C 0.05709 0.426 0.64144 0.0
C3672 C 0.01698 0.44272 0.63881 0.0
C3673 C 0.04972 0.43518 0.62262 0.0
C3674 C 0.98438 0.43883 0.61527 0.0
C3675 C 0.95983 0.43629 0.65127 0.0
N3676 N 0.02976 0.44258 0.62159 0.0
N3677 N 0.98079 0.4429 0.65274 0.0
H3678 H 0.05381 0.56926 0.66437 0.0
H3679 H 0.95387 0.5703 0.58888 0.0
H3680 H 0.05319 0.57974 0.59678 0.0
H3681 H 0.95508 0.57734 0.65708 0.0
H3682 H 0.98828 0.55368 0.59132 0.0
H3683 H 0.01778 0.5523 0.66084 0.0
C3684 C 0.04648 0.56697 0.64865 0.0
C3685 C 0.05607 0.57615 0.63087 0.0
C3686 C 0.98057 0.55796 0.60585 0.0
C3687 C 0.015 0.55752 0.62677 0.0
C3688 C 0.96087 0.56728 0.60443 0.0
C3689 C 0.95204 0.57543 0.62279 0.0
C3690 C 0.99141 0.55727 0.62571 0.0
C3691 C 0.9617 0.57144 0.64257 0.0
C3692 C 0.02589 0.55744 0.64663 0.0
C3693 C 0.04601 0.57305 0.61087 0.0
N3694 N 0.98118 0.56309 0.64351 0.0
N3695 N 0.02576 0.56442 0.60939 0.0
H3696 H 0.94449 0.11446 0.43766 0.0
H3697 H 0.05154 0.08303 0.38599 0.0
H3698 H 0.93907 0.0825 0.37655 0.0
H3699 H 0.04342 0.1439 0.41633 0.0
H3700 H 0.01223 0.07666 0.38492 0.0
H3701 H 0.9829 0.1186 0.43392 0.0
C3702 C 0.95134 0.10814 0.42346 0.0
C3703 C 0.93835 0.0982 0.40734 0.0
C3704 C 0.01925 0.09145 0.39154 0.0
C3705 C 0.98286 0.10277 0.40311 0.0
C3706 C 0.04164 0.09513 0.39215 0.0
C3707 C 0.05105 0.11396 0.40144 0.0
C3708 C 0.00633 0.10652 0.40067 0.0
C3709 C 0.03724 0.12902 0.40918 0.0
C3710 C 0.97336 0.11061 0.42132 0.0
C3711 C 0.94843 0.09038 0.38932 0.0
N3712 N 0.01582 0.12482 0.40891 0.0
N3713 N 0.97016 0.09272 0.3877 0.0
H3714 H 0.37007 0.45985 0.9088 0.0
H3715 H 0.38559 0.56534 0.84069 0.0
H3716 H 0.38245 0.45356 0.84182 0.0
H3717 H 0.34363 0.55769 0.89368 0.0
H3718 H 0.39046 0.52645 0.84125 0.0
H3719 H 0.3673 0.49772 0.90443 0.0
C3720 C 0.37238 0.46634 0.89308 0.0
C3721 C 0.37643 0.4531 0.87563 0.0
C3722 C 0.38012 0.53343 0.8526 0.0
C3723 C 0.37319 0.49741 0.87058 0.0
C3724 C 0.37737 0.5556 0.85234 0.0
C3725 C 0.36421 0.56499 0.8672 0.0
C3726 C 0.37 0.52073 0.86811 0.0
C3727 C 0.35398 0.55146 0.88191 0.0
C3728 C 0.37066 0.48816 0.89062 0.0
C3729 C 0.37923 0.46299 0.85575 0.0
N3730 N 0.35725 0.53029 0.88208 0.0
N3731 N 0.37759 0.48458 0.85374 0.0
H3732 H 0.06057 0.891 0.42674 0.0
H3733 H 0.95049 0.932 0.38576 0.0
H3734 H 0.06165 0.93397 0.37356 0.0
H3735 H 0.95919 0.86757 0.40631 0.0
H3736 H 0.98972 0.93749 0.38367 0.0
H3737 H 0.022 0.88728 0.42332 0.0
C3738 C 0.05272 0.89977 0.41432 0.0
C3739 C 0.06456 0.91277 0.40036 0.0
C3740 C 0.98285 0.92212 0.38833 0.0
C3741 C 0.01977 0.90866 0.39651 0.0
C3742 C 0.96049 0.91895 0.38952 0.0
C3743 C 0.95133 0.89935 0.39647 0.0
C3744 C 0.99604 0.90571 0.39448 0.0
C3745 C 0.96524 0.88307 0.40113 0.0
C3746 C 0.03059 0.89754 0.41233 0.0
C3747 C 0.0532 0.92369 0.38461 0.0
N3748 N 0.9867 0.88673 0.40035 0.0
N3749 N 0.03136 0.92154 0.38318 0.0
H3750 H 0.64159 0.44867 0.84987 0.0
H3751 H 0.6519 0.55489 0.92122 0.0
H3752 H 0.675 0.45511 0.91068 0.0
H3753 H 0.64323 0.55927 0.85302 0.0
H3754 H 0.65409 0.51671 0.91769 0.0
H3755 H 0.63671 0.48752 0.85056 0.0
C3756 C 0.64789 0.45815 0.86331 0.0
C3757 C 0.65875 0.44846 0.88023 0.0
C3758 C 0.65166 0.52592 0.90342 0.0
C3759 C 0.65292 0.49269 0.88125 0.0
C3760 C 0.65031 0.5479 0.90541 0.0
C3761 C 0.6475 0.56065 0.88737 0.0
C3762 C 0.65006 0.51613 0.88326 0.0
C3763 C 0.64548 0.55021 0.8674 0.0
C3764 C 0.64513 0.4803 0.86366 0.0
C3765 C 0.66654 0.46163 0.89722 0.0
N3766 N 0.64682 0.52855 0.86586 0.0
N3767 N 0.66336 0.48282 0.89732 0.0
H3768 H 0.95427 0.87961 0.66503 0.0
H3769 H 0.06121 0.85762 0.60552 0.0
H3770 H 0.96091 0.88189 0.59686 0.0
H3771 H 0.0649 0.88348 0.66942 0.0
H3772 H 0.02314 0.8624 0.6042 0.0
H3773 H 0.9934 0.87799 0.66905 0.0
C3774 C 0.96385 0.87999 0.65095 0.0
C3775 C 0.95406 0.88079 0.63055 0.0
C3776 C 0.03218 0.86711 0.61855 0.0
C3777 C 0.99873 0.87856 0.63509 0.0
C3778 C 0.05405 0.8643 0.61938 0.0
C3779 C 0.06648 0.8702 0.63761 0.0
C3780 C 0.02222 0.87561 0.63619 0.0
C3781 C 0.05599 0.87877 0.655 0.0
C3782 C 0.98618 0.87906 0.65328 0.0
C3783 C 0.96745 0.88119 0.61294 0.0
N3784 N 0.03441 0.8811 0.65394 0.0
N3785 N 0.98887 0.87985 0.61563 0.0
H3786 H 0.61545 0.44239 0.14022 0.0
H3787 H 0.5822 0.55654 0.10092 0.0
H3788 H 0.58458 0.45055 0.07898 0.0
H3789 H 0.64448 0.54868 0.12939 0.0
H3790 H 0.57539 0.51761 0.10122 0.0
H3791 H 0.61894 0.48149 0.14461 0.0
C3792 C 0.60908 0.45238 0.12789 0.0
C3793 C 0.59972 0.44322 0.10919 0.0
C3794 C 0.59038 0.5245 0.10774 0.0
C3795 C 0.60326 0.48776 0.11433 0.0
C3796 C 0.5942 0.54668 0.10777 0.0
C3797 C 0.61389 0.55588 0.11527 0.0
C3798 C 0.60611 0.51143 0.1158 0.0
C3799 C 0.62906 0.54225 0.12353 0.0
C3800 C 0.61119 0.47463 0.13036 0.0
C3801 C 0.59195 0.45695 0.09361 0.0
N3802 N 0.62483 0.52074 0.12368 0.0
N3803 N 0.59374 0.47848 0.09658 0.0
H3804 H 0.96024 0.15177 0.60501 0.0
H3805 H 0.06918 0.12196 0.66351 0.0
H3806 H 0.95904 0.11746 0.66418 0.0
H3807 H 0.06217 0.13691 0.59684 0.0
H3808 H 0.03003 0.12224 0.66639 0.0
H3809 H 0.99855 0.14916 0.60432 0.0
C3810 C 0.96801 0.14368 0.61798 0.0
C3811 C 0.95619 0.13481 0.63469 0.0
C3812 C 0.03718 0.1253 0.65116 0.0
C3813 C 1.00079 0.13177 0.63397 0.0
C3814 C 0.05953 0.12516 0.64948 0.0
C3815 C 0.06922 0.12948 0.62991 0.0
C3816 C 0.02447 0.13006 0.63321 0.0
C3817 C 0.05573 0.13353 0.61232 0.0
C3818 C 0.99004 0.14212 0.61751 0.0
C3819 C 0.96745 0.12451 0.65095 0.0
N3820 N 0.03428 0.13386 0.61446 0.0
N3821 N 0.98916 0.12335 0.65025 0.0
H3822 H 0.38376 0.56109 0.07949 0.0
H3823 H 0.42355 0.45441 0.12748 0.0
H3824 H 0.42293 0.56627 0.13697 0.0
H3825 H 0.35953 0.46113 0.10245 0.0
H3826 H 0.4287 0.49375 0.12857 0.0
H3827 H 0.38045 0.52269 0.08375 0.0
C3828 C 0.39179 0.55419 0.09302 0.0
C3829 C 0.40355 0.56711 0.10795 0.0
C3830 C 0.41349 0.48643 0.12314 0.0
C3831 C 0.39999 0.52259 0.11276 0.0
C3832 C 0.41051 0.46401 0.12256 0.0
C3833 C 0.39113 0.45422 0.11466 0.0
C3834 C 0.39715 0.49903 0.11541 0.0
C3835 C 0.37486 0.46765 0.10843 0.0
C3836 C 0.38981 0.53217 0.09547 0.0
C3837 C 0.41359 0.55696 0.12513 0.0
N3838 N 0.37837 0.48914 0.10863 0.0
N3839 N 0.41172 0.53524 0.12702 0.0
H3840 H 0.37645 0.06584 0.08869 0.0
H3841 H 0.4318 0.96118 0.12255 0.0
H3842 H 0.41018 0.05873 0.14882 0.0
H3843 H 0.36966 0.95343 0.09152 0.0
H3844 H 0.42735 0.9992 0.12574 0.0
H3845 H 0.37577 0.02665 0.08378 0.0
C3846 C 0.38342 0.05617 0.10095 0.0
C3847 C 0.39356 0.06586 0.11911 0.0
C3848 C 0.41466 0.98924 0.11818 0.0
C3849 C 0.39323 0.02127 0.11331 0.0
C3850 C 0.41719 0.96743 0.11627 0.0
C3851 C 0.40102 0.95388 0.10686 0.0
C3852 C 0.39597 0.998 0.1103 0.0
C3853 C 0.3825 0.96323 0.099 0.0
C3854 C 0.38304 0.03384 0.0981 0.0
C3855 C 0.40236 0.05234 0.13441 0.0
N3856 N 0.38049 0.98478 0.10078 0.0
N3857 N 0.40225 0.031 0.13099 0.0
H3858 H 0.45581 0.85156 0.62733 0.0
H3859 H 0.56398 0.92435 0.64169 0.0
H3860 H 0.46169 0.91339 0.65795 0.0
H3861 H 0.56617 0.8567 0.62995 0.0
H3862 H 0.52554 0.9205 0.64276 0.0
H3863 H 0.49506 0.85284 0.62398 0.0
C3864 C 0.46526 0.86534 0.63334 0.0
C3865 C 0.45531 0.88237 0.64298 0.0
C3866 C 0.5343 0.9064 0.63994 0.0
C3867 C 0.50003 0.88402 0.63897 0.0
C3868 C 0.55645 0.90858 0.63924 0.0
C3869 C 0.56865 0.89079 0.63584 0.0
C3870 C 0.52377 0.88628 0.63713 0.0
C3871 C 0.55754 0.87087 0.63269 0.0
C3872 C 0.48764 0.86603 0.63146 0.0
C3873 C 0.46843 0.89981 0.65046 0.0
N3874 N 0.53571 0.86913 0.63343 0.0
N3875 N 0.48989 0.90018 0.64821 0.0
H3876 H 0.6373 0.05601 0.08726 0.0
H3877 H 0.60197 0.95181 0.15075 0.0
H3878 H 0.58071 0.04954 0.12461 0.0
H3879 H 0.62958 0.94448 0.08907 0.0
H3880 H 0.60228 0.98997 0.14557 0.0
H3881 H 0.64176 0.01731 0.09116 0.0
C3882 C 0.62587 0.04653 0.09626 0.0
C3883 C 0.60856 0.05611 0.10558 0.0
C3884 C 0.60844 0.98007 0.1332 0.0
C3885 C 0.61386 0.01217 0.11045 0.0
C3886 C 0.60839 0.95815 0.13614 0.0
C3887 C 0.61553 0.94458 0.1202 0.0
C3888 C 0.61597 0.98897 0.1143 0.0
C3889 C 0.62382 0.95419 0.10177 0.0
C3890 C 0.62839 0.0245 0.0984 0.0
C3891 C 0.59423 0.043 0.11705 0.0
N3892 N 0.62374 0.97582 0.09926 0.0
N3893 N 0.59732 0.02191 0.1193 0.0
H3894 H 0.5682 0.15314 0.6278 0.0
H3895 H 0.45939 0.08229 0.63502 0.0
H3896 H 0.56162 0.09175 0.65782 0.0
H3897 H 0.4574 0.15079 0.63191 0.0
H3898 H 0.49789 0.08569 0.6368 0.0
H3899 H 0.52884 0.15293 0.62362 0.0
C3900 C 0.55858 0.13967 0.6335 0.0
C3901 C 0.56835 0.12245 0.64322 0.0
C3902 C 0.48914 0.10005 0.63571 0.0
C3903 C 0.52354 0.122 0.6382 0.0
C3904 C 0.46696 0.09816 0.6346 0.0
C3905 C 0.45479 0.11631 0.63349 0.0
C3906 C 0.49976 0.12024 0.63556 0.0
C3907 C 0.466 0.13634 0.63284 0.0
C3908 C 0.53615 0.13961 0.63117 0.0
C3909 C 0.55501 0.10545 0.6503 0.0
N3910 N 0.48788 0.13779 0.63392 0.0
N3911 N 0.5335 0.10563 0.64753 0.0
H3912 H 0.34859 0.065 0.87948 0.0
H3913 H 0.40929 0.95909 0.86072 0.0
H3914 H 0.41681 0.06036 0.88674 0.0
H3915 H 0.34586 0.95387 0.88565 0.0
H3916 H 0.40972 0.99743 0.86521 0.0
H3917 H 0.34469 0.02562 0.87784 0.0
C3918 C 0.36269 0.05585 0.88094 0.0
C3919 C 0.38308 0.06628 0.88317 0.0
C3920 C 0.39566 0.988 0.86978 0.0
C3921 C 0.37869 0.02133 0.88091 0.0
C3922 C 0.39535 0.96596 0.86715 0.0
C3923 C 0.37754 0.953 0.8729 0.0
C3924 C 0.37791 0.99764 0.87793 0.0
C3925 C 0.35999 0.96318 0.88111 0.0
C3926 C 0.36042 0.03338 0.88001 0.0
C3927 C 0.40072 0.05339 0.88493 0.0
N3928 N 0.36053 0.98494 0.88326 0.0
N3929 N 0.39811 0.03185 0.88353 0.0
H3930 H 0.5649 0.9021 0.435 0.0
H3931 H 0.44658 0.86891 0.39208 0.0
H3932 H 0.55307 0.87711 0.37149 0.0
H3933 H 0.46098 0.92633 0.42886 0.0
H3934 H 0.48509 0.86306 0.39118 0.0
H3935 H 0.52608 0.90199 0.43992 0.0
C3936 C 0.55415 0.89593 0.42237 0.0
C3937 C 0.56219 0.88941 0.40288 0.0
C3938 C 0.47971 0.87677 0.39966 0.0
C3939 C 0.51791 0.88923 0.4084 0.0
C3940 C 0.45779 0.88006 0.40027 0.0
C3941 C 0.45057 0.89817 0.41052 0.0
C3942 C 0.49446 0.89132 0.40991 0.0
C3943 C 0.46585 0.91222 0.42071 0.0
C3944 C 0.53205 0.89611 0.42509 0.0
C3945 C 0.54751 0.88212 0.38681 0.0
N3946 N 0.48701 0.90845 0.42024 0.0
N3947 N 0.5261 0.88217 0.38993 0.0
H3948 H 0.6776 0.05917 0.89072 0.0
H3949 H 0.60639 0.95053 0.8734 0.0
H3950 H 0.61652 0.05324 0.85744 0.0
H3951 H 0.674 0.94901 0.88762 0.0
H3952 H 0.6098 0.98896 0.87231 0.0
H3953 H 0.67673 0.01992 0.89389 0.0
C3954 C 0.66405 0.04971 0.88411 0.0
C3955 C 0.64713 0.05966 0.87376 0.0
C3956 C 0.62397 0.98035 0.8757 0.0
C3957 C 0.64595 0.01488 0.87754 0.0
C3958 C 0.62204 0.9582 0.87644 0.0
C3959 C 0.63994 0.94617 0.8806 0.0
C3960 C 0.64395 0.99109 0.87924 0.0
C3961 C 0.65973 0.95749 0.88431 0.0
C3962 C 0.6636 0.02733 0.88588 0.0
C3963 C 0.63001 0.04651 0.86549 0.0
N3964 N 0.66121 0.97931 0.88357 0.0
N3965 N 0.62985 0.02502 0.86766 0.0
H3966 H 0.44081 0.1318 0.42617 0.0
H3967 H 0.54474 0.08058 0.38756 0.0
H3968 H 0.44642 0.10397 0.36363 0.0
H3969 H 0.55329 0.14018 0.42211 0.0
H3970 H 0.50663 0.0853 0.38483 0.0
H3971 H 0.4802 0.13282 0.43038 0.0
C3972 C 0.45019 0.12625 0.41324 0.0
C3973 C 0.44006 0.11755 0.39461 0.0
C3974 C 0.51679 0.09738 0.39304 0.0
C3975 C 0.48487 0.11826 0.39956 0.0
C3976 C 0.53864 0.09468 0.39469 0.0
C3977 C 0.55243 0.11006 0.40497 0.0
C3978 C 0.50824 0.11541 0.40209 0.0
C3979 C 0.5433 0.12797 0.41392 0.0
C3980 C 0.47264 0.12681 0.41568 0.0
C3981 C 0.45321 0.11056 0.37843 0.0
N3982 N 0.52169 0.13012 0.41242 0.0
N3983 N 0.4747 0.11076 0.38144 0.0
H3984 H 0.10979 0.36291 0.95076 0.0
H3985 H 0.07363 0.40387 0.06449 0.0
H3986 H 0.07951 0.4223 0.95873 0.0
H3987 H 0.13406 0.37563 0.05701 0.0
H3988 H 0.06757 0.40182 0.02562 0.0
H3989 H 0.11098 0.35887 0.98979 0.0
C3990 C 0.10302 0.37486 0.96068 0.0
C3991 C 0.09455 0.39299 0.9515 0.0
C3992 C 0.08192 0.39565 0.03258 0.0
C3993 C 0.09551 0.38825 0.99596 0.0
C3994 C 0.08527 0.39658 0.05474 0.0
C3995 C 0.10428 0.3897 0.06399 0.0
C3996 C 0.09744 0.38731 0.01963 0.0
C3997 C 0.11913 0.38095 0.05052 0.0
C3998 C 0.10381 0.3726 0.9829 0.0
C3999 C 0.08623 0.40812 0.96514 0.0
N4000 N 0.11539 0.37995 0.02905 0.0
N4001 N 0.08681 0.40538 0.98663 0.0
H4002 H 0.11762 0.66504 0.94021 0.0
H4003 H 0.13031 0.58991 0.041 0.0
H4004 H 0.15287 0.60794 0.94181 0.0
H4005 H 0.12103 0.65687 0.05072 0.0
H4006 H 0.13219 0.59578 1.00315 0.0
H4007 H 0.11341 0.66224 0.97919 0.0
C4008 C 0.1245 0.65201 0.94866 0.0
C4009 C 0.13561 0.6367 0.93756 0.0
C4010 C 0.12971 0.60927 0.01346 0.0
C4011 C 0.13054 0.63326 0.9819 0.0
C4012 C 0.12853 0.60594 0.03527 0.0
C4013 C 0.12565 0.62295 0.04942 0.0
C4014 C 0.12786 0.62977 1.00522 0.0
C4015 C 0.12335 0.64326 0.04054 0.0
C4016 C 0.12211 0.65045 0.97087 0.0
C4017 C 0.14416 0.62016 0.94943 0.0
N4018 N 0.12452 0.64614 0.01899 0.0
N4019 N 0.14131 0.61885 0.97071 0.0
H4020 H 0.85559 0.62544 0.45695 0.0
H4021 H 0.92842 0.63115 0.56253 0.0
H4022 H 0.91705 0.65939 0.46316 0.0
H4023 H 0.85995 0.63016 0.5685 0.0
H4024 H 0.92395 0.63366 0.52436 0.0
H4025 H 0.85619 0.62041 0.49603 0.0
C4026 C 0.86915 0.63183 0.46643 0.0
C4027 C 0.88631 0.64286 0.45663 0.0
C4028 C 0.90983 0.63283 0.53393 0.0
C4029 C 0.8872 0.63684 0.50107 0.0
C4030 C 0.91231 0.6313 0.55592 0.0
C4031 C 0.89453 0.63064 0.56913 0.0
C4032 C 0.88939 0.63349 0.52454 0.0
C4033 C 0.87415 0.63073 0.55909 0.0
C4034 C 0.86942 0.62901 0.4887 0.0
C4035 C 0.90343 0.65081 0.46979 0.0
N4036 N 0.87211 0.63217 0.53736 0.0
N4037 N 0.90349 0.64748 0.49111 0.0
H4038 H 0.87424 0.42726 0.96522 0.0
H4039 H 0.91197 0.3702 0.07228 0.0
H4040 H 0.90985 0.37047 0.9627 0.0
H4041 H 0.89131 0.43449 0.06857 0.0
H4042 H 0.90965 0.36778 0.03302 0.0
H4043 H 0.87827 0.42774 1.00364 0.0
C4044 C 0.88291 0.41477 0.97271 0.0
C4045 C 0.89169 0.39877 0.96048 0.0
C4046 C 0.90575 0.38241 0.04089 0.0
C4047 C 0.89641 0.39926 1.00524 0.0
C4048 C 0.90705 0.3838 0.06329 0.0
C4049 C 0.90187 0.4026 0.07389 0.0
C4050 C 0.89898 0.39983 0.02903 0.0
C4051 C 0.89554 0.41967 0.06132 0.0
C4052 C 0.88527 0.41512 0.99482 0.0
C4053 C 0.90282 0.38313 0.97141 0.0
N4054 N 0.8942 0.41781 0.03976 0.0
N4055 N 0.90479 0.38371 0.99319 0.0
H4056 H 0.0782 0.38085 0.55894 0.0
H4057 H 0.12858 0.42383 0.45258 0.0
H4058 H 0.13739 0.41894 0.56408 0.0
H4059 H 0.09695 0.36155 0.45863 0.0
H4060 H 0.13013 0.42704 0.4919 0.0
H4061 H 0.08179 0.37899 0.52062 0.0
C4062 C 0.09199 0.38893 0.55204 0.0
C4063 C 0.10756 0.4 0.56495 0.0
C4064 C 0.12312 0.41263 0.48445 0.0
C4065 C 0.11164 0.39808 0.52045 0.0
C4066 C 0.12226 0.41076 0.46202 0.0
C4067 C 0.11244 0.39247 0.45203 0.0
C4068 C 0.11377 0.39629 0.49686 0.0
C4069 C 0.10448 0.3761 0.46528 0.0
C4070 C 0.09406 0.38777 0.53005 0.0
C4071 C 0.12506 0.41012 0.55479 0.0
N4072 N 0.10506 0.37855 0.48677 0.0
N4073 N 0.12657 0.40907 0.53309 0.0
H4074 H 0.89786 0.65922 0.95776 0.0
H4075 H 0.85617 0.60133 0.06258 0.0
H4076 H 0.88194 0.5918 0.96286 0.0
H4077 H 0.89417 0.6605 0.06798 0.0
H4078 H 0.86205 0.60059 0.02466 0.0
H4079 H 0.89404 0.66274 0.99668 0.0
C4080 C 0.89372 0.64518 0.96694 0.0
C4081 C 0.89019 0.62518 0.95676 0.0
C4082 C 0.86917 0.61379 0.03402 0.0
C4083 C 0.88549 0.62921 1.00119 0.0
C4084 C 0.86574 0.6143 0.05582 0.0
C4085 C 0.8747 0.631 0.06872 0.0
C4086 C 0.88154 0.63021 0.02457 0.0
C4087 C 0.88697 0.64727 0.05872 0.0
C4088 C 0.89155 0.64722 0.98915 0.0
C4089 C 0.88482 0.6076 0.96966 0.0
N4090 N 0.88997 0.64653 0.03721 0.0
N4091 N 0.88251 0.61009 0.99093 0.0
H4092 H 0.92993 0.38497 0.46592 0.0
H4093 H 0.87536 0.41361 0.57324 0.0
H4094 H 0.86756 0.4106 0.46123 0.0
H4095 H 0.90984 0.35672 0.56398 0.0
H4096 H 0.87438 0.41851 0.53418 0.0
H4097 H 0.92599 0.38118 0.50402 0.0
C4098 C 0.91537 0.38991 0.47286 0.0
C4099 C 0.89898 0.39798 0.46014 0.0
C4100 C 0.8819 0.40488 0.54088 0.0
C4101 C 0.89454 0.39389 0.50437 0.0
C4102 C 0.88248 0.40205 0.56313 0.0
C4103 C 0.89286 0.38481 0.57215 0.0
C4104 C 0.89215 0.39063 0.52769 0.0
C4105 C 0.9018 0.37039 0.55809 0.0
C4106 C 0.91313 0.38766 0.49472 0.0
C4107 C 0.88055 0.40418 0.47037 0.0
N4108 N 0.9015 0.37381 0.53681 0.0
N4109 N 0.87884 0.40212 0.49196 0.0
H4110 H 0.0972 0.65762 0.54425 0.0
H4111 H 0.1519 0.6161 0.43889 0.0
H4112 H 0.15382 0.62164 0.5483 0.0
H4113 H 0.08797 0.63788 0.44152 0.0
H4114 H 0.15517 0.6198 0.47802 0.0
H4115 H 0.09607 0.65277 0.50595 0.0
C4116 C 0.10954 0.64872 0.53712 0.0
C4117 C 0.12567 0.64006 0.54974 0.0
C4118 C 0.14044 0.62366 0.46995 0.0
C4119 C 0.1244 0.63436 0.50515 0.0
C4120 C 0.13856 0.62157 0.44762 0.0
C4121 C 0.1196 0.62662 0.43676 0.0
C4122 C 0.12334 0.6311 0.48147 0.0
C4123 C 0.10289 0.63369 0.449 0.0
C4124 C 0.10881 0.64588 0.51508 0.0
C4125 C 0.14108 0.62861 0.53927 0.0
N4126 N 0.10521 0.63578 0.47049 0.0
N4127 N 0.14011 0.62614 0.51758 0.0
H4128 H 0.29564 0.07568 0.39029 0.0
H4129 H 0.19566 0.12847 0.44008 0.0
H4130 H 0.30218 0.13485 0.42571 0.0
H4131 H 0.18941 0.08682 0.38511 0.0
H4132 H 0.23451 0.1289 0.43756 0.0
H4133 H 0.25686 0.07736 0.39071 0.0
C4134 C 0.28895 0.08907 0.39818 0.0
C4135 C 0.30232 0.10514 0.40804 0.0
C4136 C 0.22466 0.11974 0.42599 0.0
C4137 C 0.25759 0.10698 0.40874 0.0
C4138 C 0.20243 0.11938 0.42745 0.0
C4139 C 0.18914 0.1075 0.41281 0.0
C4140 C 0.23388 0.10781 0.41001 0.0
C4141 C 0.19896 0.0962 0.39674 0.0
C4142 C 0.26674 0.09003 0.39832 0.0
C4143 C 0.29257 0.12211 0.4179 0.0
N4144 N 0.2207 0.09645 0.39591 0.0
N4145 N 0.27082 0.12248 0.41819 0.0
H4146 H 0.38438 0.70627 0.91867 0.0
H4147 H 0.40988 0.81273 0.90481 0.0
H4148 H 0.36593 0.70491 0.85201 0.0
H4149 H 0.35598 0.81206 0.86084 0.0
H4150 H 0.40706 0.77404 0.90567 0.0
H4151 H 0.38634 0.7449 0.91807 0.0
C4152 C 0.38091 0.71405 0.90376 0.0
C4153 C 0.37516 0.70206 0.88529 0.0
C4154 C 0.39556 0.78223 0.89607 0.0
C4155 C 0.37764 0.74704 0.8845 0.0
C4156 C 0.39726 0.80444 0.89546 0.0
C4157 C 0.38308 0.81582 0.88285 0.0
C4158 C 0.37957 0.77091 0.8839 0.0
C4159 C 0.36705 0.80399 0.87106 0.0
C4160 C 0.38216 0.73627 0.90343 0.0
C4161 C 0.37072 0.71339 0.86657 0.0
N4162 N 0.36584 0.78216 0.8717 0.0
N4163 N 0.37193 0.73525 0.86668 0.0
H4164 H 0.70204 0.87767 0.42698 0.0
H4165 H 0.81298 0.92729 0.38359 0.0
H4166 H 0.70634 0.93448 0.389 0.0
H4167 H 0.80922 0.8873 0.43892 0.0
H4168 H 0.77375 0.92645 0.38146 0.0
H4169 H 0.74121 0.87719 0.42763 0.0
C4170 C 0.71117 0.88996 0.41869 0.0
C4171 C 0.70081 0.9062 0.40803 0.0
C4172 C 0.78156 0.91785 0.39405 0.0
C4173 C 0.74568 0.90563 0.40852 0.0
C4174 C 0.80395 0.91829 0.39523 0.0
C4175 C 0.81449 0.90749 0.41154 0.0
C4176 C 0.76955 0.9062 0.40903 0.0
C4177 C 0.80186 0.89604 0.42618 0.0
C4178 C 0.73354 0.88973 0.41913 0.0
C4179 C 0.71357 0.92173 0.39757 0.0
N4180 N 0.78015 0.89563 0.42452 0.0
N4181 N 0.73524 0.92101 0.39801 0.0
H4182 H 0.62189 0.20002 0.90954 0.0
H4183 H 0.66408 0.31 0.85809 0.0
H4184 H 0.66792 0.20093 0.85993 0.0
H4185 H 0.63691 0.30482 0.92027 0.0
H4186 H 0.66303 0.27068 0.85564 0.0
H4187 H 0.625 0.23885 0.9113 0.0
C4188 C 0.63285 0.20844 0.89913 0.0
C4189 C 0.64476 0.19717 0.88468 0.0
C4190 C 0.65732 0.27824 0.86978 0.0
C4191 C 0.64809 0.24203 0.88623 0.0
C4192 C 0.65772 0.30067 0.87111 0.0
C4193 C 0.65058 0.31085 0.88942 0.0
C4194 C 0.64936 0.26592 0.88672 0.0
C4195 C 0.64269 0.29784 0.90586 0.0
C4196 C 0.63461 0.23067 0.90011 0.0
C4197 C 0.65867 0.20898 0.87152 0.0
N4198 N 0.64223 0.27625 0.90406 0.0
N4199 N 0.65981 0.2308 0.87243 0.0
H4200 H 0.31314 0.91025 0.61013 0.0
H4201 H 0.20638 0.85638 0.65894 0.0
H4202 H 0.31584 0.85972 0.6558 0.0
H4203 H 0.20878 0.90735 0.61357 0.0
H4204 H 0.24586 0.85708 0.65963 0.0
H4205 H 0.27452 0.90825 0.61155 0.0
C4206 C 0.30555 0.8986 0.62041 0.0
C4207 C 0.31783 0.88526 0.63294 0.0
C4208 C 0.23769 0.86819 0.64968 0.0
C4209 C 0.27302 0.88289 0.6349 0.0
C4210 C 0.2152 0.86798 0.64949 0.0
C4211 C 0.20428 0.88181 0.63612 0.0
C4212 C 0.2492 0.88239 0.63645 0.0
C4213 C 0.21647 0.89625 0.62393 0.0
C4214 C 0.28337 0.89746 0.62128 0.0
C4215 C 0.30697 0.87021 0.64574 0.0
N4216 N 0.23809 0.89609 0.62434 0.0
N4217 N 0.28516 0.86953 0.64654 0.0
H4218 H 0.58881 0.69323 0.1265 0.0
H4219 H 0.63635 0.80746 0.08862 0.0
H4220 H 0.63319 0.70032 0.0755 0.0
H4221 H 0.57683 0.79871 0.12099 0.0
H4222 H 0.63893 0.76851 0.08761 0.0
H4223 H 0.58773 0.73219 0.12875 0.0
C4224 C 0.5984 0.70294 0.11584 0.0
C4225 C 0.611 0.6934 0.1007 0.0
C4226 C 0.62533 0.77517 0.09494 0.0
C4227 C 0.61002 0.73811 0.10335 0.0
C4228 C 0.62388 0.7974 0.09558 0.0
C4229 C 0.60628 0.80645 0.10478 0.0
C4230 C 0.60928 0.76187 0.10393 0.0
C4231 C 0.59062 0.79254 0.11356 0.0
C4232 C 0.59772 0.7252 0.11709 0.0
C4233 C 0.62309 0.7069 0.08731 0.0
N4234 N 0.59253 0.77106 0.113 0.0
N4235 N 0.62237 0.72849 0.089 0.0
H4236 H 0.81255 0.09654 0.60229 0.0
H4237 H 0.70846 0.14478 0.65001 0.0
H4238 H 0.81768 0.1404 0.65551 0.0
H4239 H 0.70828 0.08418 0.6173 0.0
H4240 H 0.74787 0.14716 0.64906 0.0
H4241 H 0.77381 0.09501 0.60485 0.0
C4242 C 0.8055 0.10569 0.61472 0.0
C4243 C 0.81844 0.11845 0.62884 0.0
C4244 C 0.73911 0.1334 0.64207 0.0
C4245 C 0.77371 0.11725 0.6315 0.0
C4246 C 0.71664 0.13215 0.64239 0.0
C4247 C 0.70501 0.11426 0.63369 0.0
C4248 C 0.74992 0.11685 0.6326 0.0
C4249 C 0.71651 0.09824 0.62427 0.0
C4250 C 0.78333 0.10486 0.61613 0.0
C4251 C 0.80832 0.1301 0.64451 0.0
N4252 N 0.73817 0.09997 0.6239 0.0
N4253 N 0.78652 0.12941 0.64529 0.0
H4254 H 0.43221 0.21045 0.12635 0.0
H4255 H 0.38089 0.31068 0.07289 0.0
H4256 H 0.37453 0.20399 0.08745 0.0
H4257 H 0.41999 0.31627 0.13036 0.0
H4258 H 0.38063 0.27184 0.07552 0.0
H4259 H 0.43027 0.24915 0.1256 0.0
C4260 C 0.41909 0.21714 0.11762 0.0
C4261 C 0.40351 0.20382 0.10689 0.0
C4262 C 0.3892 0.28154 0.0876 0.0
C4263 C 0.40139 0.24846 0.10579 0.0
C4264 C 0.38947 0.30377 0.08608 0.0
C4265 C 0.40057 0.31687 0.1014 0.0
C4266 C 0.40046 0.27216 0.10435 0.0
C4267 C 0.41122 0.30687 0.11819 0.0
C4268 C 0.41798 0.23931 0.11729 0.0
C4269 C 0.38687 0.21357 0.09597 0.0
N4270 N 0.41109 0.28516 0.11909 0.0
N4271 N 0.38637 0.23528 0.09551 0.0
H4272 H 0.12766 0.43944 0.20644 0.0
H4273 H 0.07115 0.39104 0.30858 0.0
H4274 H 0.08323 0.38469 0.20295 0.0
H4275 H 0.13214 0.42595 0.31369 0.0
H4276 H 0.07327 0.39152 0.26989 0.0
H4277 H 0.12755 0.43768 0.24542 0.0
C4278 C 0.11785 0.42704 0.21384 0.0
C4279 C 0.10537 0.41221 0.20128 0.0
C4280 C 0.08624 0.39903 0.27942 0.0
C4281 C 0.10505 0.41028 0.24609 0.0
C4282 C 0.08504 0.39885 0.3016 0.0
C4283 C 0.1015 0.40849 0.31457 0.0
C4284 C 0.10386 0.4093 0.26984 0.0
C4285 C 0.11909 0.41828 0.3044 0.0
C4286 C 0.11789 0.42601 0.23612 0.0
C4287 C 0.09311 0.39645 0.21189 0.0
N4288 N 0.11971 0.41861 0.28266 0.0
N4289 N 0.09311 0.39604 0.2336 0.0
H4290 H 0.09332 0.60705 0.69034 0.0
H4291 H 0.14494 0.65759 0.79896 0.0
H4292 H 0.14798 0.65154 0.69003 0.0
H4293 H 0.09861 0.6045 0.79503 0.0
H4294 H 0.1452 0.65829 0.75963 0.0
H4295 H 0.09469 0.60763 0.729 0.0
C4296 C 0.10587 0.61675 0.69846 0.0
C4297 C 0.12064 0.62915 0.68685 0.0
C4298 C 0.13491 0.64659 0.76745 0.0
C4299 C 0.12203 0.63035 0.73166 0.0
C4300 C 0.13454 0.64637 0.78987 0.0
C4301 C 0.12169 0.63097 0.80034 0.0
C4302 C 0.12217 0.63143 0.7555 0.0
C4303 C 0.10885 0.61658 0.78774 0.0
C4304 C 0.10658 0.61718 0.72064 0.0
C4305 C 0.13645 0.64151 0.69834 0.0
N4306 N 0.10944 0.61717 0.76617 0.0
N4307 N 0.13663 0.64197 0.72014 0.0
H4308 H 0.86733 0.65372 0.20751 0.0
H4309 H 0.92278 0.6153 0.31529 0.0
H4310 H 0.90293 0.59703 0.21179 0.0
H4311 H 0.86533 0.6499 0.31693 0.0
H4312 H 0.91897 0.61277 0.2766 0.0
H4313 H 0.86986 0.65723 0.24672 0.0
C4314 C 0.87589 0.64219 0.21662 0.0
C4315 C 0.88496 0.62506 0.20628 0.0
C4316 C 0.9071 0.62084 0.28536 0.0
C4317 C 0.88794 0.62902 0.25101 0.0
C4318 C 0.90925 0.62229 0.30751 0.0
C4319 C 0.89428 0.63272 0.31947 0.0
C4320 C 0.89009 0.63028 0.27477 0.0
C4321 C 0.87711 0.6415 0.30838 0.0
C4322 C 0.87713 0.64408 0.23898 0.0
C4323 C 0.89563 0.61046 0.21898 0.0
N4324 N 0.87559 0.64029 0.28662 0.0
N4325 N 0.89692 0.61285 0.24051 0.0
H4326 H 0.91556 0.37724 0.82399 0.0
H4327 H 0.8719 0.41525 0.70983 0.0
H4328 H 0.87689 0.43141 0.81546 0.0
H4329 H 0.92933 0.38098 0.7172 0.0
H4330 H 0.8691 0.41619 0.74876 0.0
H4331 H 0.91651 0.37327 0.78493 0.0
C4332 C 0.90715 0.38817 0.814 0.0
C4333 C 0.89626 0.40478 0.82315 0.0
C4334 C 0.88227 0.4084 0.74181 0.0
C4335 C 0.89701 0.40014 0.77851 0.0
C4336 C 0.88384 0.40783 0.71958 0.0
C4337 C 0.90096 0.3982 0.71016 0.0
C4338 C 0.8977 0.39893 0.75477 0.0
C4339 C 0.91595 0.38878 0.72371 0.0
C4340 C 0.90776 0.38595 0.79172 0.0
C4341 C 0.88567 0.41847 0.80928 0.0
N4342 N 0.91395 0.38932 0.74524 0.0
N4343 N 0.88625 0.41581 0.78782 0.0
H4344 H 0.7141 0.90305 0.66906 0.0
H4345 H 0.80804 0.84115 0.61633 0.0
H4346 H 0.7026 0.85104 0.62424 0.0
H4347 H 0.81878 0.88846 0.66617 0.0
H4348 H 0.76964 0.84465 0.61881 0.0
H4349 H 0.7523 0.89806 0.66791 0.0
C4350 C 0.71956 0.89049 0.65898 0.0
C4351 C 0.70496 0.87742 0.64672 0.0
C4352 C 0.78035 0.8542 0.62929 0.0
C4353 C 0.7491 0.87169 0.64529 0.0
C4354 C 0.80236 0.85222 0.62791 0.0
C4355 C 0.81681 0.86451 0.64111 0.0
C4356 C 0.77252 0.86869 0.6439 0.0
C4357 C 0.80834 0.87861 0.65571 0.0
C4358 C 0.74147 0.88766 0.65837 0.0
C4359 C 0.71318 0.86147 0.63399 0.0
N4360 N 0.7868 0.88036 0.65665 0.0
N4361 N 0.73467 0.85912 0.63356 0.0
H4362 H 0.63359 0.1978 0.14691 0.0
H4363 H 0.58247 0.30164 0.10021 0.0
H4364 H 0.59606 0.19566 0.08851 0.0
H4365 H 0.6427 0.30478 0.13491 0.0
H4366 H 0.58261 0.26239 0.10059 0.0
H4367 H 0.63358 0.23688 0.14679 0.0
C4368 C 0.62579 0.20565 0.1338 0.0
C4369 C 0.61532 0.19361 0.11739 0.0
C4370 C 0.59563 0.27173 0.10834 0.0
C4371 C 0.61421 0.23816 0.11773 0.0
C4372 C 0.59538 0.29405 0.10843 0.0
C4373 C 0.61244 0.3064 0.11783 0.0
C4374 C 0.61289 0.26176 0.11804 0.0
C4375 C 0.62913 0.2958 0.12771 0.0
C4376 C 0.6256 0.22789 0.13384 0.0
C4377 C 0.60482 0.20446 0.10111 0.0
N4378 N 0.6289 0.27415 0.12765 0.0
N4379 N 0.60431 0.22614 0.10181 0.0
H4380 H 0.20547 0.11583 0.6678 0.0
H4381 H 0.32034 0.1572 0.62561 0.0
H4382 H 0.21431 0.16613 0.62206 0.0
H4383 H 0.31078 0.10331 0.667 0.0
H4384 H 0.28176 0.16199 0.62553 0.0
H4385 H 0.24425 0.1123 0.6693 0.0
C4386 C 0.21552 0.12623 0.6582 0.0
C4387 C 0.20651 0.14132 0.64483 0.0
C4388 C 0.28814 0.14914 0.63466 0.0
C4389 C 0.25102 0.13732 0.64638 0.0
C4390 C 0.3102 0.14642 0.63472 0.0
C4391 C 0.31894 0.12984 0.64632 0.0
C4392 C 0.27465 0.13522 0.64633 0.0
C4393 C 0.30488 0.11635 0.65781 0.0
C4394 C 0.23769 0.12417 0.659 0.0
C4395 C 0.22044 0.15427 0.63265 0.0
N4396 N 0.28356 0.11933 0.65752 0.0
N4397 N 0.24188 0.15196 0.63371 0.0
H4398 H 0.37457 0.81623 0.09736 0.0
H4399 H 0.4184 0.70441 0.13587 0.0
H4400 H 0.42045 0.81088 0.14925 0.0
H4401 H 0.36318 0.70999 0.09418 0.0
H4402 H 0.4209 0.74349 0.13979 0.0
H4403 H 0.37149 0.77718 0.09466 0.0
C4404 C 0.3839 0.80694 0.10824 0.0
C4405 C 0.39773 0.81705 0.12356 0.0
C4406 C 0.4082 0.73605 0.12986 0.0
C4407 C 0.39451 0.77223 0.12041 0.0
C4408 C 0.40678 0.71372 0.12763 0.0
C4409 C 0.39053 0.70367 0.11475 0.0
C4410 C 0.39342 0.74844 0.11894 0.0
C4411 C 0.37597 0.71676 0.10439 0.0
C4412 C 0.38217 0.78461 0.10669 0.0
C4413 C 0.4095 0.80399 0.13717 0.0
N4414 N 0.37783 0.73829 0.10664 0.0
N4415 N 0.4077 0.78239 0.1352 0.0
H4416 H 0.69082 0.13575 0.41333 0.0
H4417 H 0.80043 0.08596 0.3793 0.0
H4418 H 0.69391 0.08624 0.3656 0.0
H4419 H 0.79746 0.14489 0.41474 0.0
H4420 H 0.76126 0.08452 0.37534 0.0
H4421 H 0.73001 0.13807 0.41567 0.0
C4422 C 0.69964 0.12545 0.40331 0.0
C4423 C 0.68886 0.11086 0.38921 0.0
C4424 C 0.76929 0.09779 0.38389 0.0
C4425 C 0.73379 0.11323 0.39195 0.0
C4426 C 0.79167 0.09863 0.3861 0.0
C4427 C 0.80245 0.11551 0.39738 0.0
C4428 C 0.7576 0.11383 0.3932 0.0
C4429 C 0.79007 0.13146 0.40592 0.0
C4430 C 0.72204 0.12676 0.40463 0.0
C4431 C 0.70132 0.09784 0.37666 0.0
N4432 N 0.76845 0.13014 0.40378 0.0
N4433 N 0.72298 0.09927 0.37841 0.0
H4434 H 0.34325 0.3083 0.8915 0.0
H4435 H 0.40127 0.20944 0.84223 0.0
H4436 H 0.38969 0.31518 0.84232 0.0
H4437 H 0.34833 0.20232 0.88445 0.0
H4438 H 0.39779 0.24794 0.84254 0.0
H4439 H 0.34545 0.26975 0.88953 0.0
C4440 C 0.35389 0.30175 0.88017 0.0
C4441 C 0.36629 0.3152 0.86701 0.0
C4442 C 0.38686 0.238 0.85167 0.0
C4443 C 0.36898 0.27058 0.86481 0.0
C4444 C 0.38882 0.21592 0.85154 0.0
C4445 C 0.37503 0.20244 0.86333 0.0
C4446 C 0.37108 0.24694 0.86381 0.0
C4447 C 0.35929 0.21197 0.87508 0.0
C4448 C 0.35511 0.27961 0.87907 0.0
C4449 C 0.37978 0.30554 0.85273 0.0
N4450 N 0.35782 0.23357 0.87508 0.0
N4451 N 0.38082 0.28388 0.85209 0.0
H4452 H 0.20097 0.92388 0.36991 0.0
H4453 H 0.31292 0.88216 0.4139 0.0
H4454 H 0.20733 0.87883 0.42089 0.0
H4455 H 0.30743 0.92195 0.35856 0.0
H4456 H 0.27406 0.88133 0.41682 0.0
H4457 H 0.23992 0.92441 0.3658 0.0
C4458 C 0.21044 0.91417 0.38024 0.0
C4459 C 0.20065 0.90127 0.39571 0.0
C4460 C 0.28136 0.89018 0.40397 0.0
C4461 C 0.24524 0.90178 0.39112 0.0
C4462 C 0.3036 0.89058 0.40227 0.0
C4463 C 0.31365 0.9021 0.38597 0.0
C4464 C 0.26894 0.90146 0.38936 0.0
C4465 C 0.30055 0.9128 0.37142 0.0
C4466 C 0.23269 0.91442 0.37786 0.0
C4467 C 0.21391 0.889 0.40863 0.0
N4468 N 0.27899 0.91229 0.37352 0.0
N4469 N 0.23534 0.88959 0.40605 0.0
H4470 H 0.63582 0.69612 0.84798 0.0
H4471 H 0.67984 0.81195 0.89084 0.0
H4472 H 0.68299 0.70581 0.89884 0.0
H4473 H 0.62693 0.80201 0.84596 0.0
H4474 H 0.68309 0.77319 0.8921 0.0
H4475 H 0.63414 0.73497 0.84505 0.0
C4476 C 0.64591 0.70636 0.85843 0.0
C4477 C 0.65956 0.69757 0.87366 0.0
C4478 C 0.67082 0.77952 0.88192 0.0
C4479 C 0.65773 0.74215 0.87043 0.0
C4480 C 0.669 0.80169 0.88117 0.0
C4481 C 0.6531 0.81038 0.86828 0.0
C4482 C 0.65671 0.76588 0.86963 0.0
C4483 C 0.63945 0.79616 0.85615 0.0
C4484 C 0.64491 0.72856 0.8568 0.0
C4485 C 0.6722 0.71174 0.88683 0.0
N4486 N 0.64157 0.77474 0.85713 0.0
N4487 N 0.67097 0.7332 0.88491 0.0
H4488 H 0.90623 0.66295 0.8204 0.0
H4489 H 0.86102 0.61898 0.70612 0.0
H4490 H 0.85983 0.61016 0.81221 0.0
H4491 H 0.91333 0.66602 0.71391 0.0
H4492 H 0.85871 0.6172 0.745 0.0
H4493 H 0.90749 0.66605 0.78147 0.0
C4494 C 0.89625 0.6521 0.81048 0.0
C4495 C 0.88291 0.63629 0.81972 0.0
C4496 C 0.87066 0.62795 0.73819 0.0
C4497 C 0.88424 0.63973 0.77506 0.0
C4498 C 0.87194 0.629 0.71595 0.0
C4499 C 0.88737 0.64266 0.7066 0.0
C4500 C 0.88484 0.64073 0.75128 0.0
C4501 C 0.90115 0.65522 0.72028 0.0
C4502 C 0.897 0.65383 0.78823 0.0
C4503 C 0.87038 0.62262 0.80594 0.0
N4504 N 0.89955 0.65396 0.74181 0.0
N4505 N 0.87135 0.62466 0.78444 0.0
H4506 H 0.87138 0.40665 0.32386 0.0
H4507 H 0.91388 0.3728 0.20951 0.0
H4508 H 0.91691 0.35832 0.31541 0.0
H4509 H 0.85891 0.4102 0.21813 0.0
H4510 H 0.91641 0.36823 0.24833 0.0
H4511 H 0.86769 0.40932 0.28502 0.0
C4512 C 0.88051 0.39654 0.31393 0.0
C4513 C 0.89445 0.38224 0.3231 0.0
C4514 C 0.90375 0.37735 0.24162 0.0
C4515 C 0.89049 0.38536 0.27851 0.0
C4516 C 0.9023 0.37993 0.21944 0.0
C4517 C 0.8862 0.39191 0.21035 0.0
C4518 C 0.88914 0.38698 0.25482 0.0
C4519 C 0.87167 0.40082 0.22419 0.0
C4520 C 0.87842 0.39807 0.29172 0.0
C4521 C 0.90592 0.36959 0.30924 0.0
N4522 N 0.87357 0.39829 0.24558 0.0
N4523 N 0.90377 0.37154 0.28777 0.0
H4524 H 0.09224 0.36813 0.81465 0.0
H4525 H 0.13175 0.41489 0.70257 0.0
H4526 H 0.13867 0.42091 0.80958 0.0
H4527 H 0.09202 0.35718 0.70901 0.0
H4528 H 0.13415 0.41803 0.74163 0.0
H4529 H 0.09119 0.36467 0.77572 0.0
C4530 C 0.10222 0.37897 0.80544 0.0
C4531 C 0.11563 0.39475 0.81561 0.0
C4532 C 0.12499 0.40464 0.73441 0.0
C4533 C 0.11446 0.39095 0.77084 0.0
C4534 C 0.12368 0.40282 0.71208 0.0
C4535 C 0.11167 0.38577 0.70227 0.0
C4536 C 0.11413 0.38939 0.74706 0.0
C4537 C 0.10148 0.37068 0.71561 0.0
C4538 C 0.10165 0.37698 0.78316 0.0
C4539 C 0.12817 0.40836 0.80264 0.0
N4540 N 0.10286 0.37291 0.73714 0.0
N4541 N 0.12724 0.40618 0.78106 0.0
H4542 H 0.11175 0.66687 0.29192 0.0
H4543 H 0.15384 0.60115 0.19336 0.0
H4544 H 0.14216 0.60731 0.29989 0.0
H4545 H 0.11801 0.6576 0.18732 0.0
H4546 H 0.15161 0.60373 0.23207 0.0
H4547 H 0.1162 0.66436 0.25389 0.0
C4548 C 0.11947 0.65319 0.28575 0.0
C4549 C 0.12645 0.63715 0.29939 0.0
C4550 C 0.14427 0.61557 0.22231 0.0
C4551 C 0.13159 0.63425 0.2551 0.0
C4552 C 0.14555 0.61417 0.20014 0.0
C4553 C 0.13613 0.62925 0.18693 0.0
C4554 C 0.13355 0.63222 0.2315 0.0
C4555 C 0.12552 0.64563 0.19676 0.0
C4556 C 0.12197 0.6518 0.26384 0.0
C4557 C 0.13651 0.62004 0.29011 0.0
N4558 N 0.12456 0.64667 0.21838 0.0
N4559 N 0.13869 0.61899 0.26853 0.0
loop_
_geom_bond_atom_site_label_1
_geom_bond_atom_site_label_2
_geom_bond_distance
_geom_bond_site_symmetry_2
_ccdc_geom_bond_type
Co0 O2 2.143 . S
Co0 O8 2.074 . S
Co0 O11 2.093 . S
Co0 O24 2.097 . S
Co0 N41 2.151 . S
Co0 N49 2.214 . S
Co1 O2 2.160 . S
Co1 O7 2.058 . S
Co1 O17 2.057 . S
Co1 O32 2.037 . S
Co1 N36 2.145 . S
Co1 N57 2.257 . S
O2 Co0 2.143 . S
O2 Co1 2.160 . S
C3 O4 1.278 . S
C3 O11 1.224 . S
O4 C3 1.278 . S
C5 O6 1.245 . S
C5 O17 1.232 . S
O6 C5 1.245 . S
O7 Co1 2.058 . S
O7 C33 1.269 . S
O8 Co0 2.074 . S
O8 C33 1.257 . S
H9 C34 0.930 . S
H10 C40 0.930 . S
O11 Co0 2.093 . S
O11 C3 1.224 . S
H12 C44 0.929 . S
H13 C46 0.930 . S
H14 C47 0.930 . S
H15 C45 0.929 . S
H16 C48 0.928 . S
O17 Co1 2.057 . S
O17 C5 1.232 . S
H18 C37 0.929 . S
H19 C38 0.929 . S
H20 C50 0.931 . S
H21 C42 0.929 . S
H22 C51 0.930 . S
H23 C43 0.931 . S
O24 Co0 2.097 . S
O24 C52 1.214 . S
H25 C53 0.929 . S
H26 C54 0.929 . S
H27 C55 0.930 . S
H28 C56 0.929 . S
H29 C58 0.930 . S
H30 C35 0.930 . S
H31 C39 0.930 . S
O32 Co1 2.037 . S
O32 C52 1.234 . S
C33 O7 1.269 . S
C33 O8 1.257 . S
C34 H9 0.930 . S
C34 C37 1.388 . S
C34 C39 1.418 . S
C35 H30 0.930 . S
C35 C38 1.404 . S
C35 C39 1.353 . S
N36 Co1 2.145 . S
N36 C37 1.397 . S
N36 C38 1.334 . S
C37 H18 0.929 . S
C37 C34 1.388 . S
C37 N36 1.397 . S
C38 H19 0.929 . S
C38 C35 1.404 . S
C38 N36 1.334 . S
C39 H31 0.930 . S
C39 C34 1.418 . S
C39 C35 1.353 . S
C40 H10 0.930 . S
C40 N41 1.330 . S
C40 C42 1.446 . S
N41 Co0 2.151 . S
N41 C40 1.330 . S
N41 C45 1.418 . S
C42 H21 0.929 . S
C42 C40 1.446 . S
C42 C43 1.332 . S
C43 H23 0.931 . S
C43 C42 1.332 . S
C43 C44 1.267 . S
C44 H12 0.929 . S
C44 C43 1.267 . S
C44 C45 1.251 . S
C45 H15 0.929 . S
C45 N41 1.418 . S
C45 C44 1.251 . S
C46 H13 0.930 . S
C46 C48 1.406 . S
C46 C51 1.261 . S
C47 H14 0.930 . S
C47 N49 1.325 . S
C47 C50 1.357 . S
C48 H16 0.928 . S
C48 C46 1.406 . S
C48 N49 1.261 . S
N49 Co0 2.214 . S
N49 C47 1.325 . S
N49 C48 1.261 . S
C50 H20 0.931 . S
C50 C47 1.357 . S
C50 C51 1.312 . S
C51 H22 0.930 . S
C51 C46 1.261 . S
C51 C50 1.312 . S
C52 O24 1.214 . S
C52 O32 1.234 . S
C53 H25 0.929 . S
C53 C56 1.391 . S
C53 C58 1.391 . S
C54 H26 0.929 . S
C54 C55 1.390 . S
C54 N57 1.391 . S
C55 H27 0.930 . S
C55 C54 1.390 . S
C55 C56 1.392 . S
C56 H28 0.929 . S
C56 C53 1.391 . S
C56 C55 1.392 . S
N57 Co1 2.257 . S
N57 C54 1.391 . S
N57 C58 1.388 . S
C58 H29 0.930 . S
C58 C53 1.391 . S
C58 N57 1.388 . S
Co59 O61 2.143 . S
Co59 O67 2.074 . S
Co59 O70 2.093 . S
Co59 O83 2.097 . S
Co59 N100 2.151 . S
Co59 N108 2.214 . S
Co60 O61 2.160 . S
Co60 O66 2.058 . S
Co60 O76 2.057 . S
Co60 O91 2.037 . S
Co60 N95 2.145 . S
Co60 N116 2.257 . S
O61 Co59 2.143 . S
O61 Co60 2.160 . S
C62 O63 1.278 . S
C62 O70 1.224 . S
O63 C62 1.278 . S
C64 O65 1.245 . S
C64 O76 1.232 . S
O65 C64 1.245 . S
O66 Co60 2.058 . S
O66 C92 1.269 . S
O67 Co59 2.074 . S
O67 C92 1.257 . S
H68 C93 0.930 . S
H69 C99 0.930 . S
O70 Co59 2.093 . S
O70 C62 1.224 . S
H71 C103 0.929 . S
H72 C105 0.930 . S
H73 C106 0.930 . S
H74 C104 0.929 . S
H75 C107 0.928 . S
O76 Co60 2.057 . S
O76 C64 1.232 . S
H77 C96 0.929 . S
H78 C97 0.929 . S
H79 C109 0.931 . S
H80 C101 0.929 . S
H81 C110 0.930 . S
H82 C102 0.931 . S
O83 Co59 2.097 . S
O83 C111 1.214 . S
H84 C112 0.929 . S
H85 C113 0.929 . S
H86 C114 0.930 . S
H87 C115 0.929 . S
H88 C117 0.930 . S
H89 C94 0.930 . S
H90 C98 0.930 . S
O91 Co60 2.037 . S
O91 C111 1.234 . S
C92 O66 1.269 . S
C92 O67 1.257 . S
C93 H68 0.930 . S
C93 C96 1.388 . S
C93 C98 1.418 . S
C94 H89 0.930 . S
C94 C97 1.404 . S
C94 C98 1.353 . S
N95 Co60 2.145 . S
N95 C96 1.397 . S
N95 C97 1.334 . S
C96 H77 0.929 . S
C96 C93 1.388 . S
C96 N95 1.397 . S
C97 H78 0.929 . S
C97 C94 1.404 . S
C97 N95 1.334 . S
C98 H90 0.930 . S
C98 C93 1.418 . S
C98 C94 1.353 . S
C99 H69 0.930 . S
C99 N100 1.330 . S
C99 C101 1.446 . S
N100 Co59 2.151 . S
N100 C99 1.330 . S
N100 C104 1.418 . S
C101 H80 0.929 . S
C101 C99 1.446 . S
C101 C102 1.332 . S
C102 H82 0.931 . S
C102 C101 1.332 . S
C102 C103 1.267 . S
C103 H71 0.929 . S
C103 C102 1.267 . S
C103 C104 1.251 . S
C104 H74 0.929 . S
C104 N100 1.418 . S
C104 C103 1.251 . S
C105 H72 0.930 . S
C105 C107 1.406 . S
C105 C110 1.261 . S
C106 H73 0.930 . S
C106 N108 1.325 . S
C106 C109 1.357 . S
C107 H75 0.928 . S
C107 C105 1.406 . S
C107 N108 1.261 . S
N108 Co59 2.214 . S
N108 C106 1.325 . S
N108 C107 1.261 . S
C109 H79 0.931 . S
C109 C106 1.357 . S
C109 C110 1.312 . S
C110 H81 0.930 . S
C110 C105 1.261 . S
C110 C109 1.312 . S
C111 O83 1.214 . S
C111 O91 1.234 . S
C112 H84 0.929 . S
C112 C115 1.391 . S
C112 C117 1.391 . S
C113 H85 0.929 . S
C113 C114 1.390 . S
C113 N116 1.391 . S
C114 H86 0.930 . S
C114 C113 1.390 . S
C114 C115 1.392 . S
C115 H87 0.929 . S
C115 C112 1.391 . S
C115 C114 1.392 . S
N116 Co60 2.257 . S
N116 C113 1.391 . S
N116 C117 1.388 . S
C117 H88 0.930 . S
C117 C112 1.391 . S
C117 N116 1.388 . S
Co118 O120 2.143 . S
Co118 O126 2.074 . S
Co118 O129 2.093 . S
Co118 O142 2.097 . S
Co118 N159 2.151 . S
Co118 N167 2.214 . S
Co119 O120 2.160 . S
Co119 O125 2.058 . S
Co119 O135 2.057 . S
Co119 O150 2.037 . S
Co119 N154 2.145 . S
Co119 N175 2.257 . S
O120 Co118 2.143 . S
O120 Co119 2.160 . S
C121 O122 1.278 . S
C121 O129 1.224 . S
O122 C121 1.278 . S
C123 O124 1.245 . S
C123 O135 1.232 . S
O124 C123 1.245 . S
O125 Co119 2.058 . S
O125 C151 1.269 . S
O126 Co118 2.074 . S
O126 C151 1.257 . S
H127 C152 0.930 . S
H128 C158 0.930 . S
O129 Co118 2.093 . S
O129 C121 1.224 . S
H130 C162 0.929 . S
H131 C164 0.930 . S
H132 C165 0.930 . S
H133 C163 0.929 . S
H134 C166 0.928 . S
O135 Co119 2.057 . S
O135 C123 1.232 . S
H136 C155 0.929 . S
H137 C156 0.929 . S
H138 C168 0.931 . S
H139 C160 0.929 . S
H140 C169 0.930 . S
H141 C161 0.931 . S
O142 Co118 2.097 . S
O142 C170 1.214 . S
H143 C171 0.929 . S
H144 C172 0.929 . S
H145 C173 0.930 . S
H146 C174 0.929 . S
H147 C176 0.930 . S
H148 C153 0.930 . S
H149 C157 0.930 . S
O150 Co119 2.037 . S
O150 C170 1.234 . S
C151 O125 1.269 . S
C151 O126 1.257 . S
C152 H127 0.930 . S
C152 C155 1.388 . S
C152 C157 1.418 . S
C153 H148 0.930 . S
C153 C156 1.404 . S
C153 C157 1.353 . S
N154 Co119 2.145 . S
N154 C155 1.397 . S
N154 C156 1.334 . S
C155 H136 0.929 . S
C155 C152 1.388 . S
C155 N154 1.397 . S
C156 H137 0.929 . S
C156 C153 1.404 . S
C156 N154 1.334 . S
C157 H149 0.930 . S
C157 C152 1.418 . S
C157 C153 1.353 . S
C158 H128 0.930 . S
C158 N159 1.330 . S
C158 C160 1.446 . S
N159 Co118 2.151 . S
N159 C158 1.330 . S
N159 C163 1.418 . S
C160 H139 0.929 . S
C160 C158 1.446 . S
C160 C161 1.332 . S
C161 H141 0.931 . S
C161 C160 1.332 . S
C161 C162 1.267 . S
C162 H130 0.929 . S
C162 C161 1.267 . S
C162 C163 1.251 . S
C163 H133 0.929 . S
C163 N159 1.418 . S
C163 C162 1.251 . S
C164 H131 0.930 . S
C164 C166 1.406 . S
C164 C169 1.261 . S
C165 H132 0.930 . S
C165 N167 1.325 . S
C165 C168 1.357 . S
C166 H134 0.928 . S
C166 C164 1.406 . S
C166 N167 1.261 . S
N167 Co118 2.214 . S
N167 C165 1.325 . S
N167 C166 1.261 . S
C168 H138 0.931 . S
C168 C165 1.357 . S
C168 C169 1.312 . S
C169 H140 0.930 . S
C169 C164 1.261 . S
C169 C168 1.312 . S
C170 O142 1.214 . S
C170 O150 1.234 . S
C171 H143 0.929 . S
C171 C174 1.391 . S
C171 C176 1.391 . S
C172 H144 0.929 . S
C172 C173 1.390 . S
C172 N175 1.391 . S
C173 H145 0.930 . S
C173 C172 1.390 . S
C173 C174 1.392 . S
C174 H146 0.929 . S
C174 C171 1.391 . S
C174 C173 1.392 . S
N175 Co119 2.257 . S
N175 C172 1.391 . S
N175 C176 1.388 . S
C176 H147 0.930 . S
C176 C171 1.391 . S
C176 N175 1.388 . S
Co177 O179 2.143 . S
Co177 O185 2.074 . S
Co177 O188 2.093 . S
Co177 O201 2.097 . S
Co177 N218 2.151 . S
Co177 N226 2.214 . S
Co178 O179 2.160 . S
Co178 O184 2.058 . S
Co178 O194 2.057 . S
Co178 O209 2.037 . S
Co178 N213 2.145 . S
Co178 N234 2.257 . S
O179 Co177 2.143 . S
O179 Co178 2.160 . S
C180 O181 1.278 . S
C180 O188 1.224 . S
O181 C180 1.278 . S
C182 O183 1.245 . S
C182 O194 1.232 . S
O183 C182 1.245 . S
O184 Co178 2.058 . S
O184 C210 1.269 . S
O185 Co177 2.074 . S
O185 C210 1.257 . S
H186 C211 0.930 . S
H187 C217 0.930 . S
O188 Co177 2.093 . S
O188 C180 1.224 . S
H189 C221 0.929 . S
H190 C223 0.930 . S
H191 C224 0.930 . S
H192 C222 0.929 . S
H193 C225 0.928 . S
O194 Co178 2.057 . S
O194 C182 1.232 . S
H195 C214 0.929 . S
H196 C215 0.929 . S
H197 C227 0.931 . S
H198 C219 0.929 . S
H199 C228 0.930 . S
H200 C220 0.931 . S
O201 Co177 2.097 . S
O201 C229 1.214 . S
H202 C230 0.929 . S
H203 C231 0.929 . S
H204 C232 0.930 . S
H205 C233 0.929 . S
H206 C235 0.930 . S
H207 C212 0.930 . S
H208 C216 0.930 . S
O209 Co178 2.037 . S
O209 C229 1.234 . S
C210 O184 1.269 . S
C210 O185 1.257 . S
C211 H186 0.930 . S
C211 C214 1.388 . S
C211 C216 1.418 . S
C212 H207 0.930 . S
C212 C215 1.404 . S
C212 C216 1.353 . S
N213 Co178 2.145 . S
N213 C214 1.397 . S
N213 C215 1.334 . S
C214 H195 0.929 . S
C214 C211 1.388 . S
C214 N213 1.397 . S
C215 H196 0.929 . S
C215 C212 1.404 . S
C215 N213 1.334 . S
C216 H208 0.930 . S
C216 C211 1.418 . S
C216 C212 1.353 . S
C217 H187 0.930 . S
C217 N218 1.330 . S
C217 C219 1.446 . S
N218 Co177 2.151 . S
N218 C217 1.330 . S
N218 C222 1.418 . S
C219 H198 0.929 . S
C219 C217 1.446 . S
C219 C220 1.332 . S
C220 H200 0.931 . S
C220 C219 1.332 . S
C220 C221 1.267 . S
C221 H189 0.929 . S
C221 C220 1.267 . S
C221 C222 1.251 . S
C222 H192 0.929 . S
C222 N218 1.418 . S
C222 C221 1.251 . S
C223 H190 0.930 . S
C223 C225 1.406 . S
C223 C228 1.261 . S
C224 H191 0.930 . S
C224 N226 1.325 . S
C224 C227 1.357 . S
C225 H193 0.928 . S
C225 C223 1.406 . S
C225 N226 1.261 . S
N226 Co177 2.214 . S
N226 C224 1.325 . S
N226 C225 1.261 . S
C227 H197 0.931 . S
C227 C224 1.357 . S
C227 C228 1.312 . S
C228 H199 0.930 . S
C228 C223 1.261 . S
C228 C227 1.312 . S
C229 O201 1.214 . S
C229 O209 1.234 . S
C230 H202 0.929 . S
C230 C233 1.391 . S
C230 C235 1.391 . S
C231 H203 0.929 . S
C231 C232 1.390 . S
C231 N234 1.391 . S
C232 H204 0.930 . S
C232 C231 1.390 . S
C232 C233 1.392 . S
C233 H205 0.929 . S
C233 C230 1.391 . S
C233 C232 1.392 . S
N234 Co178 2.257 . S
N234 C231 1.391 . S
N234 C235 1.388 . S
C235 H206 0.930 . S
C235 C230 1.391 . S
C235 N234 1.388 . S
Co236 O238 2.143 . S
Co236 O244 2.074 . S
Co236 O247 2.093 . S
Co236 O260 2.097 . S
Co236 N277 2.151 . S
Co236 N285 2.214 . S
Co237 O238 2.160 . S
Co237 O243 2.058 . S
Co237 O253 2.057 . S
Co237 O268 2.037 . S
Co237 N272 2.145 . S
Co237 N293 2.257 . S
O238 Co236 2.143 . S
O238 Co237 2.160 . S
C239 O240 1.278 . S
C239 O247 1.224 . S
O240 C239 1.278 . S
C241 O242 1.245 . S
C241 O253 1.232 . S
O242 C241 1.245 . S
O243 Co237 2.058 . S
O243 C269 1.269 . S
O244 Co236 2.074 . S
O244 C269 1.257 . S
H245 C270 0.930 . S
H246 C276 0.930 . S
O247 Co236 2.093 . S
O247 C239 1.224 . S
H248 C280 0.929 . S
H249 C282 0.930 . S
H250 C283 0.930 . S
H251 C281 0.929 . S
H252 C284 0.928 . S
O253 Co237 2.057 . S
O253 C241 1.232 . S
H254 C273 0.929 . S
H255 C274 0.929 . S
H256 C286 0.931 . S
H257 C278 0.929 . S
H258 C287 0.930 . S
H259 C279 0.931 . S
O260 Co236 2.097 . S
O260 C288 1.214 . S
H261 C289 0.929 . S
H262 C290 0.929 . S
H263 C291 0.930 . S
H264 C292 0.929 . S
H265 C294 0.930 . S
H266 C271 0.930 . S
H267 C275 0.930 . S
O268 Co237 2.037 . S
O268 C288 1.234 . S
C269 O243 1.269 . S
C269 O244 1.257 . S
C270 H245 0.930 . S
C270 C273 1.388 . S
C270 C275 1.418 . S
C271 H266 0.930 . S
C271 C274 1.404 . S
C271 C275 1.353 . S
N272 Co237 2.145 . S
N272 C273 1.397 . S
N272 C274 1.334 . S
C273 H254 0.929 . S
C273 C270 1.388 . S
C273 N272 1.397 . S
C274 H255 0.929 . S
C274 C271 1.404 . S
C274 N272 1.334 . S
C275 H267 0.930 . S
C275 C270 1.418 . S
C275 C271 1.353 . S
C276 H246 0.930 . S
C276 N277 1.330 . S
C276 C278 1.446 . S
N277 Co236 2.151 . S
N277 C276 1.330 . S
N277 C281 1.418 . S
C278 H257 0.929 . S
C278 C276 1.446 . S
C278 C279 1.332 . S
C279 H259 0.931 . S
C279 C278 1.332 . S
C279 C280 1.267 . S
C280 H248 0.929 . S
C280 C279 1.267 . S
C280 C281 1.251 . S
C281 H251 0.929 . S
C281 N277 1.418 . S
C281 C280 1.251 . S
C282 H249 0.930 . S
C282 C284 1.406 . S
C282 C287 1.261 . S
C283 H250 0.930 . S
C283 N285 1.325 . S
C283 C286 1.357 . S
C284 H252 0.928 . S
C284 C282 1.406 . S
C284 N285 1.261 . S
N285 Co236 2.214 . S
N285 C283 1.325 . S
N285 C284 1.261 . S
C286 H256 0.931 . S
C286 C283 1.357 . S
C286 C287 1.312 . S
C287 H258 0.930 . S
C287 C282 1.261 . S
C287 C286 1.312 . S
C288 O260 1.214 . S
C288 O268 1.234 . S
C289 H261 0.929 . S
C289 C292 1.391 . S
C289 C294 1.391 . S
C290 H262 0.929 . S
C290 C291 1.390 . S
C290 N293 1.391 . S
C291 H263 0.930 . S
C291 C290 1.390 . S
C291 C292 1.392 . S
C292 H264 0.929 . S
C292 C289 1.391 . S
C292 C291 1.392 . S
N293 Co237 2.257 . S
N293 C290 1.391 . S
N293 C294 1.388 . S
C294 H265 0.930 . S
C294 C289 1.391 . S
C294 N293 1.388 . S
Co295 O297 2.143 . S
Co295 O303 2.074 . S
Co295 O306 2.093 . S
Co295 O319 2.097 . S
Co295 N336 2.151 . S
Co295 N344 2.214 . S
Co296 O297 2.160 . S
Co296 O302 2.058 . S
Co296 O312 2.057 . S
Co296 O327 2.037 . S
Co296 N331 2.145 . S
Co296 N352 2.257 . S
O297 Co295 2.143 . S
O297 Co296 2.160 . S
C298 O299 1.278 . S
C298 O306 1.224 . S
O299 C298 1.278 . S
C300 O301 1.245 . S
C300 O312 1.232 . S
O301 C300 1.245 . S
O302 Co296 2.058 . S
O302 C328 1.269 . S
O303 Co295 2.074 . S
O303 C328 1.257 . S
H304 C329 0.930 . S
H305 C335 0.930 . S
O306 Co295 2.093 . S
O306 C298 1.224 . S
H307 C339 0.929 . S
H308 C341 0.930 . S
H309 C342 0.930 . S
H310 C340 0.929 . S
H311 C343 0.928 . S
O312 Co296 2.057 . S
O312 C300 1.232 . S
H313 C332 0.929 . S
H314 C333 0.929 . S
H315 C345 0.931 . S
H316 C337 0.929 . S
H317 C346 0.930 . S
H318 C338 0.931 . S
O319 Co295 2.097 . S
O319 C347 1.214 . S
H320 C348 0.929 . S
H321 C349 0.929 . S
H322 C350 0.930 . S
H323 C351 0.929 . S
H324 C353 0.930 . S
H325 C330 0.930 . S
H326 C334 0.930 . S
O327 Co296 2.037 . S
O327 C347 1.234 . S
C328 O302 1.269 . S
C328 O303 1.257 . S
C329 H304 0.930 . S
C329 C332 1.388 . S
C329 C334 1.418 . S
C330 H325 0.930 . S
C330 C333 1.404 . S
C330 C334 1.353 . S
N331 Co296 2.145 . S
N331 C332 1.397 . S
N331 C333 1.334 . S
C332 H313 0.929 . S
C332 C329 1.388 . S
C332 N331 1.397 . S
C333 H314 0.929 . S
C333 C330 1.404 . S
C333 N331 1.334 . S
C334 H326 0.930 . S
C334 C329 1.418 . S
C334 C330 1.353 . S
C335 H305 0.930 . S
C335 N336 1.330 . S
C335 C337 1.446 . S
N336 Co295 2.151 . S
N336 C335 1.330 . S
N336 C340 1.418 . S
C337 H316 0.929 . S
C337 C335 1.446 . S
C337 C338 1.332 . S
C338 H318 0.931 . S
C338 C337 1.332 . S
C338 C339 1.267 . S
C339 H307 0.929 . S
C339 C338 1.267 . S
C339 C340 1.251 . S
C340 H310 0.929 . S
C340 N336 1.418 . S
C340 C339 1.251 . S
C341 H308 0.930 . S
C341 C343 1.406 . S
C341 C346 1.261 . S
C342 H309 0.930 . S
C342 N344 1.325 . S
C342 C345 1.357 . S
C343 H311 0.928 . S
C343 C341 1.406 . S
C343 N344 1.261 . S
N344 Co295 2.214 . S
N344 C342 1.325 . S
N344 C343 1.261 . S
C345 H315 0.931 . S
C345 C342 1.357 . S
C345 C346 1.312 . S
C346 H317 0.930 . S
C346 C341 1.261 . S
C346 C345 1.312 . S
C347 O319 1.214 . S
C347 O327 1.234 . S
C348 H320 0.929 . S
C348 C351 1.391 . S
C348 C353 1.391 . S
C349 H321 0.929 . S
C349 C350 1.390 . S
C349 N352 1.391 . S
C350 H322 0.930 . S
C350 C349 1.390 . S
C350 C351 1.392 . S
C351 H323 0.929 . S
C351 C348 1.391 . S
C351 C350 1.392 . S
N352 Co296 2.257 . S
N352 C349 1.391 . S
N352 C353 1.388 . S
C353 H324 0.930 . S
C353 C348 1.391 . S
C353 N352 1.388 . S
Co354 O356 2.143 . S
Co354 O362 2.074 . S
Co354 O365 2.093 . S
Co354 O378 2.097 . S
Co354 N395 2.151 . S
Co354 N403 2.214 . S
Co355 O356 2.160 . S
Co355 O361 2.058 . S
Co355 O371 2.057 . S
Co355 O386 2.037 . S
Co355 N390 2.145 . S
Co355 N411 2.257 . S
O356 Co354 2.143 . S
O356 Co355 2.160 . S
C357 O358 1.278 . S
C357 O365 1.224 . S
O358 C357 1.278 . S
C359 O360 1.245 . S
C359 O371 1.232 . S
O360 C359 1.245 . S
O361 Co355 2.058 . S
O361 C387 1.269 . S
O362 Co354 2.074 . S
O362 C387 1.257 . S
H363 C388 0.930 . S
H364 C394 0.930 . S
O365 Co354 2.093 . S
O365 C357 1.224 . S
H366 C398 0.929 . S
H367 C400 0.930 . S
H368 C401 0.930 . S
H369 C399 0.929 . S
H370 C402 0.928 . S
O371 Co355 2.057 . S
O371 C359 1.232 . S
H372 C391 0.929 . S
H373 C392 0.929 . S
H374 C404 0.931 . S
H375 C396 0.929 . S
H376 C405 0.930 . S
H377 C397 0.931 . S
O378 Co354 2.097 . S
O378 C406 1.214 . S
H379 C407 0.929 . S
H380 C408 0.929 . S
H381 C409 0.930 . S
H382 C410 0.929 . S
H383 C412 0.930 . S
H384 C389 0.930 . S
H385 C393 0.930 . S
O386 Co355 2.037 . S
O386 C406 1.234 . S
C387 O361 1.269 . S
C387 O362 1.257 . S
C388 H363 0.930 . S
C388 C391 1.388 . S
C388 C393 1.418 . S
C389 H384 0.930 . S
C389 C392 1.404 . S
C389 C393 1.353 . S
N390 Co355 2.145 . S
N390 C391 1.397 . S
N390 C392 1.334 . S
C391 H372 0.929 . S
C391 C388 1.388 . S
C391 N390 1.397 . S
C392 H373 0.929 . S
C392 C389 1.404 . S
C392 N390 1.334 . S
C393 H385 0.930 . S
C393 C388 1.418 . S
C393 C389 1.353 . S
C394 H364 0.930 . S
C394 N395 1.330 . S
C394 C396 1.446 . S
N395 Co354 2.151 . S
N395 C394 1.330 . S
N395 C399 1.418 . S
C396 H375 0.929 . S
C396 C394 1.446 . S
C396 C397 1.332 . S
C397 H377 0.931 . S
C397 C396 1.332 . S
C397 C398 1.267 . S
C398 H366 0.929 . S
C398 C397 1.267 . S
C398 C399 1.251 . S
C399 H369 0.929 . S
C399 N395 1.418 . S
C399 C398 1.251 . S
C400 H367 0.930 . S
C400 C402 1.406 . S
C400 C405 1.261 . S
C401 H368 0.930 . S
C401 N403 1.325 . S
C401 C404 1.357 . S
C402 H370 0.928 . S
C402 C400 1.406 . S
C402 N403 1.261 . S
N403 Co354 2.214 . S
N403 C401 1.325 . S
N403 C402 1.261 . S
C404 H374 0.931 . S
C404 C401 1.357 . S
C404 C405 1.312 . S
C405 H376 0.930 . S
C405 C400 1.261 . S
C405 C404 1.312 . S
C406 O378 1.214 . S
C406 O386 1.234 . S
C407 H379 0.929 . S
C407 C410 1.391 . S
C407 C412 1.391 . S
C408 H380 0.929 . S
C408 C409 1.390 . S
C408 N411 1.391 . S
C409 H381 0.930 . S
C409 C408 1.390 . S
C409 C410 1.392 . S
C410 H382 0.929 . S
C410 C407 1.391 . S
C410 C409 1.392 . S
N411 Co355 2.257 . S
N411 C408 1.391 . S
N411 C412 1.388 . S
C412 H383 0.930 . S
C412 C407 1.391 . S
C412 N411 1.388 . S
Co413 O415 2.143 . S
Co413 O421 2.074 . S
Co413 O424 2.093 . S
Co413 O437 2.097 . S
Co413 N454 2.151 . S
Co413 N462 2.214 . S
Co414 O415 2.160 . S
Co414 O420 2.058 . S
Co414 O430 2.057 . S
Co414 O445 2.037 . S
Co414 N449 2.145 . S
Co414 N470 2.257 . S
O415 Co413 2.143 . S
O415 Co414 2.160 . S
C416 O417 1.278 . S
C416 O424 1.224 . S
O417 C416 1.278 . S
C418 O419 1.245 . S
C418 O430 1.232 . S
O419 C418 1.245 . S
O420 Co414 2.058 . S
O420 C446 1.269 . S
O421 Co413 2.074 . S
O421 C446 1.257 . S
H422 C447 0.930 . S
H423 C453 0.930 . S
O424 Co413 2.093 . S
O424 C416 1.224 . S
H425 C457 0.929 . S
H426 C459 0.930 . S
H427 C460 0.930 . S
H428 C458 0.929 . S
H429 C461 0.928 . S
O430 Co414 2.057 . S
O430 C418 1.232 . S
H431 C450 0.929 . S
H432 C451 0.929 . S
H433 C463 0.931 . S
H434 C455 0.929 . S
H435 C464 0.930 . S
H436 C456 0.931 . S
O437 Co413 2.097 . S
O437 C465 1.214 . S
H438 C466 0.929 . S
H439 C467 0.929 . S
H440 C468 0.930 . S
H441 C469 0.929 . S
H442 C471 0.930 . S
H443 C448 0.930 . S
H444 C452 0.930 . S
O445 Co414 2.037 . S
O445 C465 1.234 . S
C446 O420 1.269 . S
C446 O421 1.257 . S
C447 H422 0.930 . S
C447 C450 1.388 . S
C447 C452 1.418 . S
C448 H443 0.930 . S
C448 C451 1.404 . S
C448 C452 1.353 . S
N449 Co414 2.145 . S
N449 C450 1.397 . S
N449 C451 1.334 . S
C450 H431 0.929 . S
C450 C447 1.388 . S
C450 N449 1.397 . S
C451 H432 0.929 . S
C451 C448 1.404 . S
C451 N449 1.334 . S
C452 H444 0.930 . S
C452 C447 1.418 . S
C452 C448 1.353 . S
C453 H423 0.930 . S
C453 N454 1.330 . S
C453 C455 1.446 . S
N454 Co413 2.151 . S
N454 C453 1.330 . S
N454 C458 1.418 . S
C455 H434 0.929 . S
C455 C453 1.446 . S
C455 C456 1.332 . S
C456 H436 0.931 . S
C456 C455 1.332 . S
C456 C457 1.267 . S
C457 H425 0.929 . S
C457 C456 1.267 . S
C457 C458 1.251 . S
C458 H428 0.929 . S
C458 N454 1.418 . S
C458 C457 1.251 . S
C459 H426 0.930 . S
C459 C461 1.406 . S
C459 C464 1.261 . S
C460 H427 0.930 . S
C460 N462 1.325 . S
C460 C463 1.357 . S
C461 H429 0.928 . S
C461 C459 1.406 . S
C461 N462 1.261 . S
N462 Co413 2.214 . S
N462 C460 1.325 . S
N462 C461 1.261 . S
C463 H433 0.931 . S
C463 C460 1.357 . S
C463 C464 1.312 . S
C464 H435 0.930 . S
C464 C459 1.261 . S
C464 C463 1.312 . S
C465 O437 1.214 . S
C465 O445 1.234 . S
C466 H438 0.929 . S
C466 C469 1.391 . S
C466 C471 1.391 . S
C467 H439 0.929 . S
C467 C468 1.390 . S
C467 N470 1.391 . S
C468 H440 0.930 . S
C468 C467 1.390 . S
C468 C469 1.392 . S
C469 H441 0.929 . S
C469 C466 1.391 . S
C469 C468 1.392 . S
N470 Co414 2.257 . S
N470 C467 1.391 . S
N470 C471 1.388 . S
C471 H442 0.930 . S
C471 C466 1.391 . S
C471 N470 1.388 . S
Co472 O474 2.143 . S
Co472 O480 2.074 . S
Co472 O483 2.093 . S
Co472 O496 2.097 . S
Co472 N513 2.151 . S
Co472 N521 2.214 . S
Co473 O474 2.160 . S
Co473 O479 2.058 . S
Co473 O489 2.057 . S
Co473 O504 2.037 . S
Co473 N508 2.145 . S
Co473 N529 2.257 . S
O474 Co472 2.143 . S
O474 Co473 2.160 . S
C475 O476 1.278 . S
C475 O483 1.224 . S
O476 C475 1.278 . S
C477 O478 1.245 . S
C477 O489 1.232 . S
O478 C477 1.245 . S
O479 Co473 2.058 . S
O479 C505 1.269 . S
O480 Co472 2.074 . S
O480 C505 1.257 . S
H481 C506 0.930 . S
H482 C512 0.930 . S
O483 Co472 2.093 . S
O483 C475 1.224 . S
H484 C516 0.929 . S
H485 C518 0.930 . S
H486 C519 0.930 . S
H487 C517 0.929 . S
H488 C520 0.928 . S
O489 Co473 2.057 . S
O489 C477 1.232 . S
H490 C509 0.929 . S
H491 C510 0.929 . S
H492 C522 0.931 . S
H493 C514 0.929 . S
H494 C523 0.930 . S
H495 C515 0.931 . S
O496 Co472 2.097 . S
O496 C524 1.214 . S
H497 C525 0.929 . S
H498 C526 0.929 . S
H499 C527 0.930 . S
H500 C528 0.929 . S
H501 C530 0.930 . S
H502 C507 0.930 . S
H503 C511 0.926 . S
O504 Co473 2.037 . S
O504 C524 1.234 . S
C505 O479 1.269 . S
C505 O480 1.257 . S
C506 H481 0.930 . S
C506 C509 1.388 . S
C506 C511 1.418 . S
C507 H502 0.930 . S
C507 C510 1.404 . S
C507 C511 1.353 . S
N508 Co473 2.145 . S
N508 C509 1.397 . S
N508 C510 1.334 . S
C509 H490 0.929 . S
C509 C506 1.388 . S
C509 N508 1.397 . S
C510 H491 0.929 . S
C510 C507 1.404 . S
C510 N508 1.334 . S
C511 H503 0.926 . S
C511 C506 1.418 . S
C511 C507 1.353 . S
C512 H482 0.930 . S
C512 N513 1.330 . S
C512 C514 1.446 . S
N513 Co472 2.151 . S
N513 C512 1.330 . S
N513 C517 1.418 . S
C514 H493 0.929 . S
C514 C512 1.446 . S
C514 C515 1.332 . S
C515 H495 0.931 . S
C515 C514 1.332 . S
C515 C516 1.267 . S
C516 H484 0.929 . S
C516 C515 1.267 . S
C516 C517 1.251 . S
C517 H487 0.929 . S
C517 N513 1.418 . S
C517 C516 1.251 . S
C518 H485 0.930 . S
C518 C520 1.406 . S
C518 C523 1.261 . S
C519 H486 0.930 . S
C519 N521 1.325 . S
C519 C522 1.357 . S
C520 H488 0.928 . S
C520 C518 1.406 . S
C520 N521 1.261 . S
N521 Co472 2.214 . S
N521 C519 1.325 . S
N521 C520 1.261 . S
C522 H492 0.931 . S
C522 C519 1.357 . S
C522 C523 1.312 . S
C523 H494 0.930 . S
C523 C518 1.261 . S
C523 C522 1.312 . S
C524 O496 1.214 . S
C524 O504 1.234 . S
C525 H497 0.929 . S
C525 C528 1.391 . S
C525 C530 1.391 . S
C526 H498 0.929 . S
C526 C527 1.390 . S
C526 N529 1.391 . S
C527 H499 0.930 . S
C527 C526 1.390 . S
C527 C528 1.392 . S
C528 H500 0.929 . S
C528 C525 1.391 . S
C528 C527 1.392 . S
N529 Co473 2.257 . S
N529 C526 1.391 . S
N529 C530 1.388 . S
C530 H501 0.930 . S
C530 C525 1.391 . S
C530 N529 1.388 . S
Co531 O533 2.143 . S
Co531 O539 2.074 . S
Co531 O542 2.093 . S
Co531 O555 2.097 . S
Co531 N572 2.151 . S
Co531 N580 2.214 . S
Co532 O533 2.160 . S
Co532 O538 2.058 . S
Co532 O548 2.057 . S
Co532 O563 2.037 . S
Co532 N567 2.145 . S
Co532 N588 2.257 . S
O533 Co531 2.143 . S
O533 Co532 2.160 . S
C534 O535 1.278 . S
C534 O542 1.224 . S
O535 C534 1.278 . S
C536 O537 1.245 . S
C536 O548 1.232 . S
O537 C536 1.245 . S
O538 Co532 2.058 . S
O538 C564 1.269 . S
O539 Co531 2.074 . S
O539 C564 1.257 . S
H540 C565 0.930 . S
H541 C571 0.930 . S
O542 Co531 2.093 . S
O542 C534 1.224 . S
H543 C575 0.929 . S
H544 C577 0.930 . S
H545 C578 0.930 . S
H546 C576 0.929 . S
H547 C579 0.928 . S
O548 Co532 2.057 . S
O548 C536 1.232 . S
H549 C568 0.929 . S
H550 C569 0.929 . S
H551 C581 0.931 . S
H552 C573 0.929 . S
H553 C582 0.930 . S
H554 C574 0.931 . S
O555 Co531 2.097 . S
O555 C583 1.214 . S
H556 C584 0.929 . S
H557 C585 0.929 . S
H558 C586 0.930 . S
H559 C587 0.929 . S
H560 C589 0.930 . S
H561 C566 0.930 . S
H562 C570 0.930 . S
O563 Co532 2.037 . S
O563 C583 1.234 . S
C564 O538 1.269 . S
C564 O539 1.257 . S
C565 H540 0.930 . S
C565 C568 1.388 . S
C565 C570 1.418 . S
C566 H561 0.930 . S
C566 C569 1.404 . S
C566 C570 1.353 . S
N567 Co532 2.145 . S
N567 C568 1.397 . S
N567 C569 1.334 . S
C568 H549 0.929 . S
C568 C565 1.388 . S
C568 N567 1.397 . S
C569 H550 0.929 . S
C569 C566 1.404 . S
C569 N567 1.334 . S
C570 H562 0.930 . S
C570 C565 1.418 . S
C570 C566 1.353 . S
C571 H541 0.930 . S
C571 N572 1.330 . S
C571 C573 1.446 . S
N572 Co531 2.151 . S
N572 C571 1.330 . S
N572 C576 1.418 . S
C573 H552 0.929 . S
C573 C571 1.446 . S
C573 C574 1.332 . S
C574 H554 0.931 . S
C574 C573 1.332 . S
C574 C575 1.267 . S
C575 H543 0.929 . S
C575 C574 1.267 . S
C575 C576 1.251 . S
C576 H546 0.929 . S
C576 N572 1.418 . S
C576 C575 1.251 . S
C577 H544 0.930 . S
C577 C579 1.406 . S
C577 C582 1.261 . S
C578 H545 0.930 . S
C578 N580 1.325 . S
C578 C581 1.357 . S
C579 H547 0.928 . S
C579 C577 1.406 . S
C579 N580 1.261 . S
N580 Co531 2.214 . S
N580 C578 1.325 . S
N580 C579 1.261 . S
C581 H551 0.931 . S
C581 C578 1.357 . S
C581 C582 1.312 . S
C582 H553 0.930 . S
C582 C577 1.261 . S
C582 C581 1.312 . S
C583 O555 1.214 . S
C583 O563 1.234 . S
C584 H556 0.929 . S
C584 C587 1.391 . S
C584 C589 1.391 . S
C585 H557 0.929 . S
C585 C586 1.390 . S
C585 N588 1.391 . S
C586 H558 0.930 . S
C586 C585 1.390 . S
C586 C587 1.392 . S
C587 H559 0.929 . S
C587 C584 1.391 . S
C587 C586 1.392 . S
N588 Co532 2.257 . S
N588 C585 1.391 . S
N588 C589 1.388 . S
C589 H560 0.930 . S
C589 C584 1.391 . S
C589 N588 1.388 . S
Co590 O592 2.143 . S
Co590 O598 2.074 . S
Co590 O601 2.093 . S
Co590 O614 2.097 . S
Co590 N631 2.151 . S
Co590 N639 2.214 . S
Co591 O592 2.160 . S
Co591 O597 2.058 . S
Co591 O607 2.057 . S
Co591 O622 2.037 . S
Co591 N626 2.145 . S
Co591 N647 2.257 . S
O592 Co590 2.143 . S
O592 Co591 2.160 . S
C593 O594 1.278 . S
C593 O601 1.224 . S
O594 C593 1.278 . S
C595 O596 1.245 . S
C595 O607 1.232 . S
O596 C595 1.245 . S
O597 Co591 2.058 . S
O597 C623 1.269 . S
O598 Co590 2.074 . S
O598 C623 1.257 . S
H599 C624 0.930 . S
H600 C630 0.930 . S
O601 Co590 2.093 . S
O601 C593 1.224 . S
H602 C634 0.929 . S
H603 C636 0.930 . S
H604 C637 0.930 . S
H605 C635 0.929 . S
H606 C638 0.928 . S
O607 Co591 2.057 . S
O607 C595 1.232 . S
H608 C627 0.929 . S
H609 C628 0.929 . S
H610 C640 0.931 . S
H611 C632 0.929 . S
H612 C641 0.930 . S
H613 C633 0.931 . S
O614 Co590 2.097 . S
O614 C642 1.214 . S
H615 C643 0.929 . S
H616 C644 0.929 . S
H617 C645 0.930 . S
H618 C646 0.929 . S
H619 C648 0.930 . S
H620 C625 0.930 . S
H621 C629 0.930 . S
O622 Co591 2.037 . S
O622 C642 1.234 . S
C623 O597 1.269 . S
C623 O598 1.257 . S
C624 H599 0.930 . S
C624 C627 1.388 . S
C624 C629 1.418 . S
C625 H620 0.930 . S
C625 C628 1.404 . S
C625 C629 1.353 . S
N626 Co591 2.145 . S
N626 C627 1.397 . S
N626 C628 1.334 . S
C627 H608 0.929 . S
C627 C624 1.388 . S
C627 N626 1.397 . S
C628 H609 0.929 . S
C628 C625 1.404 . S
C628 N626 1.334 . S
C629 H621 0.930 . S
C629 C624 1.418 . S
C629 C625 1.353 . S
C630 H600 0.930 . S
C630 N631 1.330 . S
C630 C632 1.446 . S
N631 Co590 2.151 . S
N631 C630 1.330 . S
N631 C635 1.418 . S
C632 H611 0.929 . S
C632 C630 1.446 . S
C632 C633 1.332 . S
C633 H613 0.931 . S
C633 C632 1.332 . S
C633 C634 1.267 . S
C634 H602 0.929 . S
C634 C633 1.267 . S
C634 C635 1.251 . S
C635 H605 0.929 . S
C635 N631 1.418 . S
C635 C634 1.251 . S
C636 H603 0.930 . S
C636 C638 1.406 . S
C636 C641 1.261 . S
C637 H604 0.930 . S
C637 N639 1.325 . S
C637 C640 1.357 . S
C638 H606 0.928 . S
C638 C636 1.406 . S
C638 N639 1.261 . S
N639 Co590 2.214 . S
N639 C637 1.325 . S
N639 C638 1.261 . S
C640 H610 0.931 . S
C640 C637 1.357 . S
C640 C641 1.312 . S
C641 H612 0.930 . S
C641 C636 1.261 . S
C641 C640 1.312 . S
C642 O614 1.214 . S
C642 O622 1.234 . S
C643 H615 0.929 . S
C643 C646 1.391 . S
C643 C648 1.391 . S
C644 H616 0.929 . S
C644 C645 1.390 . S
C644 N647 1.391 . S
C645 H617 0.930 . S
C645 C644 1.390 . S
C645 C646 1.392 . S
C646 H618 0.929 . S
C646 C643 1.391 . S
C646 C645 1.392 . S
N647 Co591 2.257 . S
N647 C644 1.391 . S
N647 C648 1.388 . S
C648 H619 0.930 . S
C648 C643 1.391 . S
C648 N647 1.388 . S
Co649 O651 2.143 . S
Co649 O657 2.074 . S
Co649 O660 2.093 . S
Co649 O673 2.097 . S
Co649 N690 2.151 . S
Co649 N698 2.214 . S
Co650 O651 2.160 . S
Co650 O656 2.058 . S
Co650 O666 2.057 . S
Co650 O681 2.037 . S
Co650 N685 2.145 . S
Co650 N706 2.257 . S
O651 Co649 2.143 . S
O651 Co650 2.160 . S
C652 O653 1.278 . S
C652 O660 1.224 . S
O653 C652 1.278 . S
C654 O655 1.245 . S
C654 O666 1.232 . S
O655 C654 1.245 . S
O656 Co650 2.058 . S
O656 C682 1.269 . S
O657 Co649 2.074 . S
O657 C682 1.257 . S
H658 C683 0.930 . S
H659 C689 0.930 . S
O660 Co649 2.093 . S
O660 C652 1.224 . S
H661 C693 0.929 . S
H662 C695 0.930 . S
H663 C696 0.930 . S
H664 C694 0.929 . S
H665 C697 0.928 . S
O666 Co650 2.057 . S
O666 C654 1.232 . S
H667 C686 0.929 . S
H668 C687 0.929 . S
H669 C699 0.931 . S
H670 C691 0.929 . S
H671 C700 0.930 . S
H672 C692 0.931 . S
O673 Co649 2.097 . S
O673 C701 1.214 . S
H674 C702 0.929 . S
H675 C703 0.929 . S
H676 C704 0.930 . S
H677 C705 0.929 . S
H678 C707 0.930 . S
H679 C684 0.930 . S
H680 C688 0.930 . S
O681 Co650 2.037 . S
O681 C701 1.234 . S
C682 O656 1.269 . S
C682 O657 1.257 . S
C683 H658 0.930 . S
C683 C686 1.388 . S
C683 C688 1.418 . S
C684 H679 0.930 . S
C684 C687 1.404 . S
C684 C688 1.353 . S
N685 Co650 2.145 . S
N685 C686 1.397 . S
N685 C687 1.334 . S
C686 H667 0.929 . S
C686 C683 1.388 . S
C686 N685 1.397 . S
C687 H668 0.929 . S
C687 C684 1.404 . S
C687 N685 1.334 . S
C688 H680 0.930 . S
C688 C683 1.418 . S
C688 C684 1.353 . S
C689 H659 0.930 . S
C689 N690 1.330 . S
C689 C691 1.446 . S
N690 Co649 2.151 . S
N690 C689 1.330 . S
N690 C694 1.418 . S
C691 H670 0.929 . S
C691 C689 1.446 . S
C691 C692 1.332 . S
C692 H672 0.931 . S
C692 C691 1.332 . S
C692 C693 1.267 . S
C693 H661 0.929 . S
C693 C692 1.267 . S
C693 C694 1.251 . S
C694 H664 0.929 . S
C694 N690 1.418 . S
C694 C693 1.251 . S
C695 H662 0.930 . S
C695 C697 1.406 . S
C695 C700 1.261 . S
C696 H663 0.930 . S
C696 N698 1.325 . S
C696 C699 1.357 . S
C697 H665 0.928 . S
C697 C695 1.406 . S
C697 N698 1.261 . S
N698 Co649 2.214 . S
N698 C696 1.325 . S
N698 C697 1.261 . S
C699 H669 0.931 . S
C699 C696 1.357 . S
C699 C700 1.312 . S
C700 H671 0.930 . S
C700 C695 1.261 . S
C700 C699 1.312 . S
C701 O673 1.214 . S
C701 O681 1.234 . S
C702 H674 0.929 . S
C702 C705 1.391 . S
C702 C707 1.391 . S
C703 H675 0.929 . S
C703 C704 1.390 . S
C703 N706 1.391 . S
C704 H676 0.930 . S
C704 C703 1.390 . S
C704 C705 1.392 . S
C705 H677 0.929 . S
C705 C702 1.391 . S
C705 C704 1.392 . S
N706 Co650 2.257 . S
N706 C703 1.391 . S
N706 C707 1.388 . S
C707 H678 0.930 . S
C707 C702 1.391 . S
C707 N706 1.388 . S
Co708 O710 2.143 . S
Co708 O716 2.074 . S
Co708 O719 2.093 . S
Co708 O732 2.097 . S
Co708 N749 2.151 . S
Co708 N757 2.214 . S
Co709 O710 2.160 . S
Co709 O715 2.058 . S
Co709 O725 2.057 . S
Co709 O740 2.037 . S
Co709 N744 2.145 . S
Co709 N765 2.257 . S
O710 Co708 2.143 . S
O710 Co709 2.160 . S
C711 O712 1.278 . S
C711 O719 1.224 . S
O712 C711 1.278 . S
C713 O714 1.245 . S
C713 O725 1.232 . S
O714 C713 1.245 . S
O715 Co709 2.058 . S
O715 C741 1.269 . S
O716 Co708 2.074 . S
O716 C741 1.257 . S
H717 C742 0.930 . S
H718 C748 0.930 . S
O719 Co708 2.093 . S
O719 C711 1.224 . S
H720 C752 0.929 . S
H721 C754 0.930 . S
H722 C755 0.930 . S
H723 C753 0.929 . S
H724 C756 0.928 . S
O725 Co709 2.057 . S
O725 C713 1.232 . S
H726 C745 0.929 . S
H727 C746 0.929 . S
H728 C758 0.931 . S
H729 C750 0.929 . S
H730 C759 0.930 . S
H731 C751 0.931 . S
O732 Co708 2.097 . S
O732 C760 1.214 . S
H733 C761 0.929 . S
H734 C762 0.929 . S
H735 C763 0.930 . S
H736 C764 0.929 . S
H737 C766 0.930 . S
H738 C743 0.930 . S
H739 C747 0.930 . S
O740 Co709 2.037 . S
O740 C760 1.234 . S
C741 O715 1.269 . S
C741 O716 1.257 . S
C742 H717 0.930 . S
C742 C745 1.388 . S
C742 C747 1.418 . S
C743 H738 0.930 . S
C743 C746 1.404 . S
C743 C747 1.353 . S
N744 Co709 2.145 . S
N744 C745 1.397 . S
N744 C746 1.334 . S
C745 H726 0.929 . S
C745 C742 1.388 . S
C745 N744 1.397 . S
C746 H727 0.929 . S
C746 C743 1.404 . S
C746 N744 1.334 . S
C747 H739 0.930 . S
C747 C742 1.418 . S
C747 C743 1.353 . S
C748 H718 0.930 . S
C748 N749 1.330 . S
C748 C750 1.446 . S
N749 Co708 2.151 . S
N749 C748 1.330 . S
N749 C753 1.418 . S
C750 H729 0.929 . S
C750 C748 1.446 . S
C750 C751 1.332 . S
C751 H731 0.931 . S
C751 C750 1.332 . S
C751 C752 1.267 . S
C752 H720 0.929 . S
C752 C751 1.267 . S
C752 C753 1.251 . S
C753 H723 0.929 . S
C753 N749 1.418 . S
C753 C752 1.251 . S
C754 H721 0.930 . S
C754 C756 1.406 . S
C754 C759 1.261 . S
C755 H722 0.930 . S
C755 N757 1.325 . S
C755 C758 1.357 . S
C756 H724 0.928 . S
C756 C754 1.406 . S
C756 N757 1.261 . S
N757 Co708 2.214 . S
N757 C755 1.325 . S
N757 C756 1.261 . S
C758 H728 0.931 . S
C758 C755 1.357 . S
C758 C759 1.312 . S
C759 H730 0.930 . S
C759 C754 1.261 . S
C759 C758 1.312 . S
C760 O732 1.214 . S
C760 O740 1.234 . S
C761 H733 0.929 . S
C761 C764 1.391 . S
C761 C766 1.391 . S
C762 H734 0.929 . S
C762 C763 1.390 . S
C762 N765 1.391 . S
C763 H735 0.930 . S
C763 C762 1.390 . S
C763 C764 1.392 . S
C764 H736 0.929 . S
C764 C761 1.391 . S
C764 C763 1.392 . S
N765 Co709 2.257 . S
N765 C762 1.391 . S
N765 C766 1.388 . S
C766 H737 0.930 . S
C766 C761 1.391 . S
C766 N765 1.388 . S
Co767 O769 2.143 . S
Co767 O775 2.074 . S
Co767 O778 2.093 . S
Co767 O791 2.097 . S
Co767 N808 2.151 . S
Co767 N816 2.214 . S
Co768 O769 2.160 . S
Co768 O774 2.058 . S
Co768 O784 2.057 . S
Co768 O799 2.037 . S
Co768 N803 2.145 . S
Co768 N824 2.257 . S
O769 Co767 2.143 . S
O769 Co768 2.160 . S
C770 O771 1.278 . S
C770 O778 1.224 . S
O771 C770 1.278 . S
C772 O773 1.245 . S
C772 O784 1.232 . S
O773 C772 1.245 . S
O774 Co768 2.058 . S
O774 C800 1.269 . S
O775 Co767 2.074 . S
O775 C800 1.257 . S
H776 C801 0.930 . S
H777 C807 0.930 . S
O778 Co767 2.093 . S
O778 C770 1.224 . S
H779 C811 0.929 . S
H780 C813 0.930 . S
H781 C814 0.930 . S
H782 C812 0.929 . S
H783 C815 0.928 . S
O784 Co768 2.057 . S
O784 C772 1.232 . S
H785 C804 0.929 . S
H786 C805 0.929 . S
H787 C817 0.931 . S
H788 C809 0.929 . S
H789 C818 0.930 . S
H790 C810 0.931 . S
O791 Co767 2.097 . S
O791 C819 1.214 . S
H792 C820 0.929 . S
H793 C821 0.929 . S
H794 C822 0.930 . S
H795 C823 0.929 . S
H796 C825 0.930 . S
H797 C802 0.930 . S
H798 C806 0.930 . S
O799 Co768 2.037 . S
O799 C819 1.234 . S
C800 O774 1.269 . S
C800 O775 1.257 . S
C801 H776 0.930 . S
C801 C804 1.388 . S
C801 C806 1.418 . S
C802 H797 0.930 . S
C802 C805 1.404 . S
C802 C806 1.353 . S
N803 Co768 2.145 . S
N803 C804 1.397 . S
N803 C805 1.334 . S
C804 H785 0.929 . S
C804 C801 1.388 . S
C804 N803 1.397 . S
C805 H786 0.929 . S
C805 C802 1.404 . S
C805 N803 1.334 . S
C806 H798 0.930 . S
C806 C801 1.418 . S
C806 C802 1.353 . S
C807 H777 0.930 . S
C807 N808 1.330 . S
C807 C809 1.446 . S
N808 Co767 2.151 . S
N808 C807 1.330 . S
N808 C812 1.418 . S
C809 H788 0.929 . S
C809 C807 1.446 . S
C809 C810 1.332 . S
C810 H790 0.931 . S
C810 C809 1.332 . S
C810 C811 1.267 . S
C811 H779 0.929 . S
C811 C810 1.267 . S
C811 C812 1.251 . S
C812 H782 0.929 . S
C812 N808 1.418 . S
C812 C811 1.251 . S
C813 H780 0.930 . S
C813 C815 1.406 . S
C813 C818 1.261 . S
C814 H781 0.930 . S
C814 N816 1.325 . S
C814 C817 1.357 . S
C815 H783 0.928 . S
C815 C813 1.406 . S
C815 N816 1.261 . S
N816 Co767 2.214 . S
N816 C814 1.325 . S
N816 C815 1.261 . S
C817 H787 0.931 . S
C817 C814 1.357 . S
C817 C818 1.312 . S
C818 H789 0.930 . S
C818 C813 1.261 . S
C818 C817 1.312 . S
C819 O791 1.214 . S
C819 O799 1.234 . S
C820 H792 0.929 . S
C820 C823 1.391 . S
C820 C825 1.391 . S
C821 H793 0.929 . S
C821 C822 1.390 . S
C821 N824 1.391 . S
C822 H794 0.930 . S
C822 C821 1.390 . S
C822 C823 1.392 . S
C823 H795 0.929 . S
C823 C820 1.391 . S
C823 C822 1.392 . S
N824 Co768 2.257 . S
N824 C821 1.391 . S
N824 C825 1.388 . S
C825 H796 0.930 . S
C825 C820 1.391 . S
C825 N824 1.388 . S
Co826 O828 2.143 . S
Co826 O834 2.074 . S
Co826 O837 2.093 . S
Co826 O850 2.097 . S
Co826 N867 2.151 . S
Co826 N875 2.214 . S
Co827 O828 2.160 . S
Co827 O833 2.058 . S
Co827 O843 2.057 . S
Co827 O858 2.037 . S
Co827 N862 2.145 . S
Co827 N883 2.257 . S
O828 Co826 2.143 . S
O828 Co827 2.160 . S
C829 O830 1.278 . S
C829 O837 1.224 . S
O830 C829 1.278 . S
C831 O832 1.245 . S
C831 O843 1.232 . S
O832 C831 1.245 . S
O833 Co827 2.058 . S
O833 C859 1.269 . S
O834 Co826 2.074 . S
O834 C859 1.257 . S
H835 C860 0.930 . S
H836 C866 0.930 . S
O837 Co826 2.093 . S
O837 C829 1.224 . S
H838 C870 0.929 . S
H839 C872 0.930 . S
H840 C873 0.930 . S
H841 C871 0.929 . S
H842 C874 0.928 . S
O843 Co827 2.057 . S
O843 C831 1.232 . S
H844 C863 0.929 . S
H845 C864 0.929 . S
H846 C876 0.931 . S
H847 C868 0.929 . S
H848 C877 0.930 . S
H849 C869 0.931 . S
O850 Co826 2.097 . S
O850 C878 1.214 . S
H851 C879 0.929 . S
H852 C880 0.929 . S
H853 C881 0.930 . S
H854 C882 0.929 . S
H855 C884 0.930 . S
H856 C861 0.930 . S
H857 C865 0.930 . S
O858 Co827 2.037 . S
O858 C878 1.234 . S
C859 O833 1.269 . S
C859 O834 1.257 . S
C860 H835 0.930 . S
C860 C863 1.388 . S
C860 C865 1.418 . S
C861 H856 0.930 . S
C861 C864 1.404 . S
C861 C865 1.353 . S
N862 Co827 2.145 . S
N862 C863 1.397 . S
N862 C864 1.334 . S
C863 H844 0.929 . S
C863 C860 1.388 . S
C863 N862 1.397 . S
C864 H845 0.929 . S
C864 C861 1.404 . S
C864 N862 1.334 . S
C865 H857 0.930 . S
C865 C860 1.418 . S
C865 C861 1.353 . S
C866 H836 0.930 . S
C866 N867 1.330 . S
C866 C868 1.446 . S
N867 Co826 2.151 . S
N867 C866 1.330 . S
N867 C871 1.418 . S
C868 H847 0.929 . S
C868 C866 1.446 . S
C868 C869 1.332 . S
C869 H849 0.931 . S
C869 C868 1.332 . S
C869 C870 1.267 . S
C870 H838 0.929 . S
C870 C869 1.267 . S
C870 C871 1.251 . S
C871 H841 0.929 . S
C871 N867 1.418 . S
C871 C870 1.251 . S
C872 H839 0.930 . S
C872 C874 1.406 . S
C872 C877 1.261 . S
C873 H840 0.930 . S
C873 N875 1.325 . S
C873 C876 1.357 . S
C874 H842 0.928 . S
C874 C872 1.406 . S
C874 N875 1.261 . S
N875 Co826 2.214 . S
N875 C873 1.325 . S
N875 C874 1.261 . S
C876 H846 0.931 . S
C876 C873 1.357 . S
C876 C877 1.312 . S
C877 H848 0.930 . S
C877 C872 1.261 . S
C877 C876 1.312 . S
C878 O850 1.214 . S
C878 O858 1.234 . S
C879 H851 0.929 . S
C879 C882 1.391 . S
C879 C884 1.391 . S
C880 H852 0.929 . S
C880 C881 1.390 . S
C880 N883 1.391 . S
C881 H853 0.930 . S
C881 C880 1.390 . S
C881 C882 1.392 . S
C882 H854 0.929 . S
C882 C879 1.391 . S
C882 C881 1.392 . S
N883 Co827 2.257 . S
N883 C880 1.391 . S
N883 C884 1.388 . S
C884 H855 0.930 . S
C884 C879 1.391 . S
C884 N883 1.388 . S
Co885 O887 2.143 . S
Co885 O893 2.074 . S
Co885 O896 2.093 . S
Co885 O909 2.097 . S
Co885 N926 2.151 . S
Co885 N934 2.214 . S
Co886 O887 2.160 . S
Co886 O892 2.058 . S
Co886 O902 2.057 . S
Co886 O917 2.037 . S
Co886 N921 2.145 . S
Co886 N942 2.257 . S
O887 Co885 2.143 . S
O887 Co886 2.160 . S
C888 O889 1.278 . S
C888 O896 1.224 . S
O889 C888 1.278 . S
C890 O891 1.245 . S
C890 O902 1.232 . S
O891 C890 1.245 . S
O892 Co886 2.058 . S
O892 C918 1.269 . S
O893 Co885 2.074 . S
O893 C918 1.257 . S
H894 C919 0.930 . S
H895 C925 0.930 . S
O896 Co885 2.093 . S
O896 C888 1.224 . S
H897 C929 0.929 . S
H898 C931 0.930 . S
H899 C932 0.930 . S
H900 C930 0.929 . S
H901 C933 0.928 . S
O902 Co886 2.057 . S
O902 C890 1.232 . S
H903 C922 0.929 . S
H904 C923 0.929 . S
H905 C935 0.931 . S
H906 C927 0.929 . S
H907 C936 0.930 . S
H908 C928 0.931 . S
O909 Co885 2.097 . S
O909 C937 1.214 . S
H910 C938 0.929 . S
H911 C939 0.929 . S
H912 C940 0.930 . S
H913 C941 0.929 . S
H914 C943 0.930 . S
H915 C920 0.930 . S
H916 C924 0.930 . S
O917 Co886 2.037 . S
O917 C937 1.234 . S
C918 O892 1.269 . S
C918 O893 1.257 . S
C919 H894 0.930 . S
C919 C922 1.388 . S
C919 C924 1.418 . S
C920 H915 0.930 . S
C920 C923 1.404 . S
C920 C924 1.353 . S
N921 Co886 2.145 . S
N921 C922 1.397 . S
N921 C923 1.334 . S
C922 H903 0.929 . S
C922 C919 1.388 . S
C922 N921 1.397 . S
C923 H904 0.929 . S
C923 C920 1.404 . S
C923 N921 1.334 . S
C924 H916 0.930 . S
C924 C919 1.418 . S
C924 C920 1.353 . S
C925 H895 0.930 . S
C925 N926 1.330 . S
C925 C927 1.446 . S
N926 Co885 2.151 . S
N926 C925 1.330 . S
N926 C930 1.418 . S
C927 H906 0.929 . S
C927 C925 1.446 . S
C927 C928 1.332 . S
C928 H908 0.931 . S
C928 C927 1.332 . S
C928 C929 1.267 . S
C929 H897 0.929 . S
C929 C928 1.267 . S
C929 C930 1.251 . S
C930 H900 0.929 . S
C930 N926 1.418 . S
C930 C929 1.251 . S
C931 H898 0.930 . S
C931 C933 1.406 . S
C931 C936 1.261 . S
C932 H899 0.930 . S
C932 N934 1.325 . S
C932 C935 1.357 . S
C933 H901 0.928 . S
C933 C931 1.406 . S
C933 N934 1.261 . S
N934 Co885 2.214 . S
N934 C932 1.325 . S
N934 C933 1.261 . S
C935 H905 0.931 . S
C935 C932 1.357 . S
C935 C936 1.312 . S
C936 H907 0.930 . S
C936 C931 1.261 . S
C936 C935 1.312 . S
C937 O909 1.214 . S
C937 O917 1.234 . S
C938 H910 0.929 . S
C938 C941 1.391 . S
C938 C943 1.391 . S
C939 H911 0.929 . S
C939 C940 1.390 . S
C939 N942 1.391 . S
C940 H912 0.930 . S
C940 C939 1.390 . S
C940 C941 1.392 . S
C941 H913 0.929 . S
C941 C938 1.391 . S
C941 C940 1.392 . S
N942 Co886 2.257 . S
N942 C939 1.391 . S
N942 C943 1.388 . S
C943 H914 0.930 . S
C943 C938 1.391 . S
C943 N942 1.388 . S
Co944 O946 2.143 . S
Co944 O952 2.074 . S
Co944 O955 2.093 . S
Co944 O968 2.097 . S
Co944 N985 2.151 . S
Co944 N993 2.214 . S
Co945 O946 2.160 . S
Co945 O951 2.058 . S
Co945 O961 2.057 . S
Co945 O976 2.037 . S
Co945 N980 2.145 . S
Co945 N1001 2.257 . S
O946 Co944 2.143 . S
O946 Co945 2.160 . S
C947 O948 1.278 . S
C947 O955 1.224 . S
O948 C947 1.278 . S
C949 O950 1.245 . S
C949 O961 1.232 . S
O950 C949 1.245 . S
O951 Co945 2.058 . S
O951 C977 1.269 . S
O952 Co944 2.074 . S
O952 C977 1.257 . S
H953 C978 0.930 . S
H954 C984 0.930 . S
O955 Co944 2.093 . S
O955 C947 1.224 . S
H956 C988 0.929 . S
H957 C990 0.930 . S
H958 C991 0.930 . S
H959 C989 0.929 . S
H960 C992 0.928 . S
O961 Co945 2.057 . S
O961 C949 1.232 . S
H962 C981 0.929 . S
H963 C982 0.929 . S
H964 C994 0.931 . S
H965 C986 0.929 . S
H966 C995 0.930 . S
H967 C987 0.931 . S
O968 Co944 2.097 . S
O968 C996 1.214 . S
H969 C997 0.929 . S
H970 C998 0.929 . S
H971 C999 0.930 . S
H972 C1000 0.929 . S
H973 C1002 0.930 . S
H974 C979 0.930 . S
H975 C983 0.930 1_655 S
O976 Co945 2.037 . S
O976 C996 1.234 . S
C977 O951 1.269 . S
C977 O952 1.257 . S
C978 H953 0.930 . S
C978 C981 1.388 . S
C978 C983 1.418 . S
C979 H974 0.930 . S
C979 C982 1.404 . S
C979 C983 1.353 . S
N980 Co945 2.145 . S
N980 C981 1.397 . S
N980 C982 1.334 . S
C981 H962 0.929 . S
C981 C978 1.388 . S
C981 N980 1.397 . S
C982 H963 0.929 . S
C982 C979 1.404 . S
C982 N980 1.334 . S
C983 H975 0.930 1_455 S
C983 C978 1.418 . S
C983 C979 1.353 . S
C984 H954 0.930 . S
C984 N985 1.330 . S
C984 C986 1.446 . S
N985 Co944 2.151 . S
N985 C984 1.330 . S
N985 C989 1.418 . S
C986 H965 0.929 . S
C986 C984 1.446 . S
C986 C987 1.332 . S
C987 H967 0.931 . S
C987 C986 1.332 . S
C987 C988 1.267 . S
C988 H956 0.929 . S
C988 C987 1.267 . S
C988 C989 1.251 . S
C989 H959 0.929 . S
C989 N985 1.418 . S
C989 C988 1.251 . S
C990 H957 0.930 . S
C990 C992 1.406 . S
C990 C995 1.261 . S
C991 H958 0.930 . S
C991 N993 1.325 . S
C991 C994 1.357 . S
C992 H960 0.928 . S
C992 C990 1.406 . S
C992 N993 1.261 . S
N993 Co944 2.214 . S
N993 C991 1.325 . S
N993 C992 1.261 . S
C994 H964 0.931 . S
C994 C991 1.357 . S
C994 C995 1.312 . S
C995 H966 0.930 . S
C995 C990 1.261 . S
C995 C994 1.312 . S
C996 O968 1.214 . S
C996 O976 1.234 . S
C997 H969 0.929 . S
C997 C1000 1.391 . S
C997 C1002 1.391 . S
C998 H970 0.929 . S
C998 C999 1.390 . S
C998 N1001 1.391 . S
C999 H971 0.930 . S
C999 C998 1.390 . S
C999 C1000 1.392 . S
C1000 H972 0.929 . S
C1000 C997 1.391 . S
C1000 C999 1.392 . S
N1001 Co945 2.257 . S
N1001 C998 1.391 . S
N1001 C1002 1.388 . S
C1002 H973 0.930 . S
C1002 C997 1.391 . S
C1002 N1001 1.388 . S
Co1003 O1005 2.143 . S
Co1003 O1011 2.074 . S
Co1003 O1014 2.093 . S
Co1003 O1027 2.097 . S
Co1003 N1044 2.151 . S
Co1003 N1052 2.214 . S
Co1004 O1005 2.160 . S
Co1004 O1010 2.058 . S
Co1004 O1020 2.057 . S
Co1004 O1035 2.037 . S
Co1004 N1039 2.145 . S
Co1004 N1060 2.257 . S
O1005 Co1003 2.143 . S
O1005 Co1004 2.160 . S
C1006 O1007 1.278 . S
C1006 O1014 1.224 . S
O1007 C1006 1.278 . S
C1008 O1009 1.245 . S
C1008 O1020 1.232 . S
O1009 C1008 1.245 . S
O1010 Co1004 2.058 . S
O1010 C1036 1.269 . S
O1011 Co1003 2.074 . S
O1011 C1036 1.257 . S
H1012 C1037 0.930 . S
H1013 C1043 0.930 . S
O1014 Co1003 2.093 . S
O1014 C1006 1.224 . S
H1015 C1047 0.929 . S
H1016 C1049 0.930 . S
H1017 C1050 0.930 . S
H1018 C1048 0.929 . S
H1019 C1051 0.928 . S
O1020 Co1004 2.057 . S
O1020 C1008 1.232 . S
H1021 C1040 0.929 . S
H1022 C1041 0.929 . S
H1023 C1053 0.931 . S
H1024 C1045 0.929 . S
H1025 C1054 0.930 . S
H1026 C1046 0.931 . S
O1027 Co1003 2.097 . S
O1027 C1055 1.214 . S
H1028 C1056 0.929 . S
H1029 C1057 0.929 . S
H1030 C1058 0.930 . S
H1031 C1059 0.929 . S
H1032 C1061 0.930 . S
H1033 C1038 0.930 . S
H1034 C1042 0.930 . S
O1035 Co1004 2.037 . S
O1035 C1055 1.234 . S
C1036 O1010 1.269 . S
C1036 O1011 1.257 . S
C1037 H1012 0.930 . S
C1037 C1040 1.388 . S
C1037 C1042 1.418 . S
C1038 H1033 0.930 . S
C1038 C1041 1.404 . S
C1038 C1042 1.353 . S
N1039 Co1004 2.145 . S
N1039 C1040 1.397 . S
N1039 C1041 1.334 . S
C1040 H1021 0.929 . S
C1040 C1037 1.388 . S
C1040 N1039 1.397 . S
C1041 H1022 0.929 . S
C1041 C1038 1.404 . S
C1041 N1039 1.334 . S
C1042 H1034 0.930 . S
C1042 C1037 1.418 . S
C1042 C1038 1.353 . S
C1043 H1013 0.930 . S
C1043 N1044 1.330 . S
C1043 C1045 1.446 . S
N1044 Co1003 2.151 . S
N1044 C1043 1.330 . S
N1044 C1048 1.418 . S
C1045 H1024 0.929 . S
C1045 C1043 1.446 . S
C1045 C1046 1.332 . S
C1046 H1026 0.931 . S
C1046 C1045 1.332 . S
C1046 C1047 1.267 . S
C1047 H1015 0.929 . S
C1047 C1046 1.267 . S
C1047 C1048 1.251 . S
C1048 H1018 0.929 . S
C1048 N1044 1.418 . S
C1048 C1047 1.251 . S
C1049 H1016 0.930 . S
C1049 C1051 1.406 . S
C1049 C1054 1.261 . S
C1050 H1017 0.930 . S
C1050 N1052 1.325 . S
C1050 C1053 1.357 . S
C1051 H1019 0.928 . S
C1051 C1049 1.406 . S
C1051 N1052 1.261 . S
N1052 Co1003 2.214 . S
N1052 C1050 1.325 . S
N1052 C1051 1.261 . S
C1053 H1023 0.931 . S
C1053 C1050 1.357 . S
C1053 C1054 1.312 . S
C1054 H1025 0.930 . S
C1054 C1049 1.261 . S
C1054 C1053 1.312 . S
C1055 O1027 1.214 . S
C1055 O1035 1.234 . S
C1056 H1028 0.929 . S
C1056 C1059 1.391 . S
C1056 C1061 1.391 . S
C1057 H1029 0.929 . S
C1057 C1058 1.390 . S
C1057 N1060 1.391 . S
C1058 H1030 0.930 . S
C1058 C1057 1.390 . S
C1058 C1059 1.392 . S
C1059 H1031 0.929 . S
C1059 C1056 1.391 . S
C1059 C1058 1.392 . S
N1060 Co1004 2.257 . S
N1060 C1057 1.391 . S
N1060 C1061 1.388 . S
C1061 H1032 0.930 . S
C1061 C1056 1.391 . S
C1061 N1060 1.388 . S
Co1062 O1064 2.143 . S
Co1062 O1070 2.074 . S
Co1062 O1073 2.093 . S
Co1062 O1086 2.097 . S
Co1062 N1103 2.151 . S
Co1062 N1111 2.214 . S
Co1063 O1064 2.160 . S
Co1063 O1069 2.058 . S
Co1063 O1079 2.057 . S
Co1063 O1094 2.037 . S
Co1063 N1098 2.145 . S
Co1063 N1119 2.257 . S
O1064 Co1062 2.143 . S
O1064 Co1063 2.160 . S
C1065 O1066 1.278 . S
C1065 O1073 1.224 . S
O1066 C1065 1.278 . S
C1067 O1068 1.245 . S
C1067 O1079 1.232 . S
O1068 C1067 1.245 . S
O1069 Co1063 2.058 . S
O1069 C1095 1.269 . S
O1070 Co1062 2.074 . S
O1070 C1095 1.257 . S
H1071 C1096 0.930 . S
H1072 C1102 0.930 . S
O1073 Co1062 2.093 . S
O1073 C1065 1.224 . S
H1074 C1106 0.929 . S
H1075 C1108 0.930 . S
H1076 C1109 0.930 . S
H1077 C1107 0.929 . S
H1078 C1110 0.928 . S
O1079 Co1063 2.057 . S
O1079 C1067 1.232 . S
H1080 C1099 0.929 . S
H1081 C1100 0.929 . S
H1082 C1112 0.931 . S
H1083 C1104 0.929 . S
H1084 C1113 0.930 . S
H1085 C1105 0.931 . S
O1086 Co1062 2.097 . S
O1086 C1114 1.214 . S
H1087 C1115 0.929 . S
H1088 C1116 0.929 . S
H1089 C1117 0.930 . S
H1090 C1118 0.929 . S
H1091 C1120 0.930 . S
H1092 C1097 0.930 . S
H1093 C1101 0.930 . S
O1094 Co1063 2.037 . S
O1094 C1114 1.234 . S
C1095 O1069 1.269 . S
C1095 O1070 1.257 . S
C1096 H1071 0.930 . S
C1096 C1099 1.388 . S
C1096 C1101 1.418 . S
C1097 H1092 0.930 . S
C1097 C1100 1.404 . S
C1097 C1101 1.353 . S
N1098 Co1063 2.145 . S
N1098 C1099 1.397 . S
N1098 C1100 1.334 . S
C1099 H1080 0.929 . S
C1099 C1096 1.388 . S
C1099 N1098 1.397 . S
C1100 H1081 0.929 . S
C1100 C1097 1.404 . S
C1100 N1098 1.334 . S
C1101 H1093 0.930 . S
C1101 C1096 1.418 . S
C1101 C1097 1.353 . S
C1102 H1072 0.930 . S
C1102 N1103 1.330 . S
C1102 C1104 1.446 . S
N1103 Co1062 2.151 . S
N1103 C1102 1.330 . S
N1103 C1107 1.418 . S
C1104 H1083 0.929 . S
C1104 C1102 1.446 . S
C1104 C1105 1.332 . S
C1105 H1085 0.931 . S
C1105 C1104 1.332 . S
C1105 C1106 1.267 . S
C1106 H1074 0.929 . S
C1106 C1105 1.267 . S
C1106 C1107 1.251 . S
C1107 H1077 0.929 . S
C1107 N1103 1.418 . S
C1107 C1106 1.251 . S
C1108 H1075 0.930 . S
C1108 C1110 1.406 . S
C1108 C1113 1.261 . S
C1109 H1076 0.930 . S
C1109 N1111 1.325 . S
C1109 C1112 1.357 . S
C1110 H1078 0.928 . S
C1110 C1108 1.406 . S
C1110 N1111 1.261 . S
N1111 Co1062 2.214 . S
N1111 C1109 1.325 . S
N1111 C1110 1.261 . S
C1112 H1082 0.931 . S
C1112 C1109 1.357 . S
C1112 C1113 1.312 . S
C1113 H1084 0.930 . S
C1113 C1108 1.261 . S
C1113 C1112 1.312 . S
C1114 O1086 1.214 . S
C1114 O1094 1.234 . S
C1115 H1087 0.929 . S
C1115 C1118 1.391 . S
C1115 C1120 1.391 . S
C1116 H1088 0.929 . S
C1116 C1117 1.390 . S
C1116 N1119 1.391 . S
C1117 H1089 0.930 . S
C1117 C1116 1.390 . S
C1117 C1118 1.392 . S
C1118 H1090 0.929 . S
C1118 C1115 1.391 . S
C1118 C1117 1.392 . S
N1119 Co1063 2.257 . S
N1119 C1116 1.391 . S
N1119 C1120 1.388 . S
C1120 H1091 0.930 . S
C1120 C1115 1.391 . S
C1120 N1119 1.388 . S
Co1121 O1123 2.143 . S
Co1121 O1129 2.074 . S
Co1121 O1132 2.093 . S
Co1121 O1145 2.097 . S
Co1121 N1162 2.151 . S
Co1121 N1170 2.214 . S
Co1122 O1123 2.160 . S
Co1122 O1128 2.058 . S
Co1122 O1138 2.057 . S
Co1122 O1153 2.037 . S
Co1122 N1157 2.145 . S
Co1122 N1178 2.257 . S
O1123 Co1121 2.143 . S
O1123 Co1122 2.160 . S
C1124 O1125 1.278 . S
C1124 O1132 1.224 . S
O1125 C1124 1.278 . S
C1126 O1127 1.245 . S
C1126 O1138 1.232 . S
O1127 C1126 1.245 . S
O1128 Co1122 2.058 . S
O1128 C1154 1.269 . S
O1129 Co1121 2.074 . S
O1129 C1154 1.257 . S
H1130 C1155 0.930 . S
H1131 C1161 0.930 . S
O1132 Co1121 2.093 . S
O1132 C1124 1.224 . S
H1133 C1165 0.929 . S
H1134 C1167 0.930 . S
H1135 C1168 0.930 . S
H1136 C1166 0.929 . S
H1137 C1169 0.928 . S
O1138 Co1122 2.057 . S
O1138 C1126 1.232 . S
H1139 C1158 0.929 . S
H1140 C1159 0.929 . S
H1141 C1171 0.931 . S
H1142 C1163 0.929 . S
H1143 C1172 0.930 . S
H1144 C1164 0.931 . S
O1145 Co1121 2.097 . S
O1145 C1173 1.214 . S
H1146 C1174 0.929 . S
H1147 C1175 0.929 . S
H1148 C1176 0.930 . S
H1149 C1177 0.929 . S
H1150 C1179 0.930 . S
H1151 C1156 0.930 . S
H1152 C1160 0.930 . S
O1153 Co1122 2.037 . S
O1153 C1173 1.234 . S
C1154 O1128 1.269 . S
C1154 O1129 1.257 . S
C1155 H1130 0.930 . S
C1155 C1158 1.388 . S
C1155 C1160 1.418 . S
C1156 H1151 0.930 . S
C1156 C1159 1.404 . S
C1156 C1160 1.353 . S
N1157 Co1122 2.145 . S
N1157 C1158 1.397 . S
N1157 C1159 1.334 . S
C1158 H1139 0.929 . S
C1158 C1155 1.388 . S
C1158 N1157 1.397 . S
C1159 H1140 0.929 . S
C1159 C1156 1.404 . S
C1159 N1157 1.334 . S
C1160 H1152 0.930 . S
C1160 C1155 1.418 . S
C1160 C1156 1.353 . S
C1161 H1131 0.930 . S
C1161 N1162 1.330 . S
C1161 C1163 1.446 . S
N1162 Co1121 2.151 . S
N1162 C1161 1.330 . S
N1162 C1166 1.418 . S
C1163 H1142 0.929 . S
C1163 C1161 1.446 . S
C1163 C1164 1.332 . S
C1164 H1144 0.931 . S
C1164 C1163 1.332 . S
C1164 C1165 1.267 . S
C1165 H1133 0.929 . S
C1165 C1164 1.267 . S
C1165 C1166 1.251 . S
C1166 H1136 0.929 . S
C1166 N1162 1.418 . S
C1166 C1165 1.251 . S
C1167 H1134 0.930 . S
C1167 C1169 1.406 . S
C1167 C1172 1.261 . S
C1168 H1135 0.930 . S
C1168 N1170 1.325 . S
C1168 C1171 1.357 . S
C1169 H1137 0.928 . S
C1169 C1167 1.406 . S
C1169 N1170 1.261 . S
N1170 Co1121 2.214 . S
N1170 C1168 1.325 . S
N1170 C1169 1.261 . S
C1171 H1141 0.931 . S
C1171 C1168 1.357 . S
C1171 C1172 1.312 . S
C1172 H1143 0.930 . S
C1172 C1167 1.261 . S
C1172 C1171 1.312 . S
C1173 O1145 1.214 . S
C1173 O1153 1.234 . S
C1174 H1146 0.929 . S
C1174 C1177 1.391 . S
C1174 C1179 1.391 . S
C1175 H1147 0.929 . S
C1175 C1176 1.390 . S
C1175 N1178 1.391 . S
C1176 H1148 0.930 . S
C1176 C1175 1.390 . S
C1176 C1177 1.392 . S
C1177 H1149 0.929 . S
C1177 C1174 1.391 . S
C1177 C1176 1.392 . S
N1178 Co1122 2.257 . S
N1178 C1175 1.391 . S
N1178 C1179 1.388 . S
C1179 H1150 0.930 . S
C1179 C1174 1.391 . S
C1179 N1178 1.388 . S
Co1180 O1182 2.143 . S
Co1180 O1188 2.074 . S
Co1180 O1191 2.093 . S
Co1180 O1204 2.097 . S
Co1180 N1221 2.151 . S
Co1180 N1229 2.214 . S
Co1181 O1182 2.160 . S
Co1181 O1187 2.058 . S
Co1181 O1197 2.057 . S
Co1181 O1212 2.037 . S
Co1181 N1216 2.145 . S
Co1181 N1237 2.257 . S
O1182 Co1180 2.143 . S
O1182 Co1181 2.160 . S
C1183 O1184 1.278 . S
C1183 O1191 1.224 . S
O1184 C1183 1.278 . S
C1185 O1186 1.245 . S
C1185 O1197 1.232 . S
O1186 C1185 1.245 . S
O1187 Co1181 2.058 . S
O1187 C1213 1.269 . S
O1188 Co1180 2.074 . S
O1188 C1213 1.257 . S
H1189 C1214 0.930 . S
H1190 C1220 0.930 . S
O1191 Co1180 2.093 . S
O1191 C1183 1.224 . S
H1192 C1224 0.929 . S
H1193 C1226 0.930 . S
H1194 C1227 0.930 . S
H1195 C1225 0.929 . S
H1196 C1228 0.928 . S
O1197 Co1181 2.057 . S
O1197 C1185 1.232 . S
H1198 C1217 0.929 . S
H1199 C1218 0.929 . S
H1200 C1230 0.931 . S
H1201 C1222 0.929 . S
H1202 C1231 0.930 . S
H1203 C1223 0.931 . S
O1204 Co1180 2.097 . S
O1204 C1232 1.214 . S
H1205 C1233 0.929 . S
H1206 C1234 0.929 . S
H1207 C1235 0.930 . S
H1208 C1236 0.929 . S
H1209 C1238 0.930 . S
H1210 C1215 0.930 . S
H1211 C1219 0.930 . S
O1212 Co1181 2.037 . S
O1212 C1232 1.234 . S
C1213 O1187 1.269 . S
C1213 O1188 1.257 . S
C1214 H1189 0.930 . S
C1214 C1217 1.388 . S
C1214 C1219 1.418 . S
C1215 H1210 0.930 . S
C1215 C1218 1.404 . S
C1215 C1219 1.353 . S
N1216 Co1181 2.145 . S
N1216 C1217 1.397 . S
N1216 C1218 1.334 . S
C1217 H1198 0.929 . S
C1217 C1214 1.388 . S
C1217 N1216 1.397 . S
C1218 H1199 0.929 . S
C1218 C1215 1.404 . S
C1218 N1216 1.334 . S
C1219 H1211 0.930 . S
C1219 C1214 1.418 . S
C1219 C1215 1.353 . S
C1220 H1190 0.930 . S
C1220 N1221 1.330 . S
C1220 C1222 1.446 . S
N1221 Co1180 2.151 . S
N1221 C1220 1.330 . S
N1221 C1225 1.418 . S
C1222 H1201 0.929 . S
C1222 C1220 1.446 . S
C1222 C1223 1.332 . S
C1223 H1203 0.931 . S
C1223 C1222 1.332 . S
C1223 C1224 1.267 . S
C1224 H1192 0.929 . S
C1224 C1223 1.267 . S
C1224 C1225 1.251 . S
C1225 H1195 0.929 . S
C1225 N1221 1.418 . S
C1225 C1224 1.251 . S
C1226 H1193 0.930 . S
C1226 C1228 1.406 . S
C1226 C1231 1.261 . S
C1227 H1194 0.930 . S
C1227 N1229 1.325 . S
C1227 C1230 1.357 . S
C1228 H1196 0.928 . S
C1228 C1226 1.406 . S
C1228 N1229 1.261 . S
N1229 Co1180 2.214 . S
N1229 C1227 1.325 . S
N1229 C1228 1.261 . S
C1230 H1200 0.931 . S
C1230 C1227 1.357 . S
C1230 C1231 1.312 . S
C1231 H1202 0.930 . S
C1231 C1226 1.261 . S
C1231 C1230 1.312 . S
C1232 O1204 1.214 . S
C1232 O1212 1.234 . S
C1233 H1205 0.929 . S
C1233 C1236 1.391 . S
C1233 C1238 1.391 . S
C1234 H1206 0.929 . S
C1234 C1235 1.390 . S
C1234 N1237 1.391 . S
C1235 H1207 0.930 . S
C1235 C1234 1.390 . S
C1235 C1236 1.392 . S
C1236 H1208 0.929 . S
C1236 C1233 1.391 . S
C1236 C1235 1.392 . S
N1237 Co1181 2.257 . S
N1237 C1234 1.391 . S
N1237 C1238 1.388 . S
C1238 H1209 0.930 . S
C1238 C1233 1.391 . S
C1238 N1237 1.388 . S
Co1239 O1241 2.143 . S
Co1239 O1247 2.074 . S
Co1239 O1250 2.093 . S
Co1239 O1263 2.097 . S
Co1239 N1280 2.151 . S
Co1239 N1288 2.214 . S
Co1240 O1241 2.160 . S
Co1240 O1246 2.058 . S
Co1240 O1256 2.057 . S
Co1240 O1271 2.037 . S
Co1240 N1275 2.145 . S
Co1240 N1296 2.257 . S
O1241 Co1239 2.143 . S
O1241 Co1240 2.160 . S
C1242 O1243 1.278 . S
C1242 O1250 1.224 . S
O1243 C1242 1.278 . S
C1244 O1245 1.245 . S
C1244 O1256 1.232 . S
O1245 C1244 1.245 . S
O1246 Co1240 2.058 . S
O1246 C1272 1.269 . S
O1247 Co1239 2.074 . S
O1247 C1272 1.257 . S
H1248 C1273 0.930 . S
H1249 C1279 0.930 . S
O1250 Co1239 2.093 . S
O1250 C1242 1.224 . S
H1251 C1283 0.929 . S
H1252 C1285 0.930 . S
H1253 C1286 0.930 . S
H1254 C1284 0.929 . S
H1255 C1287 0.928 . S
O1256 Co1240 2.057 . S
O1256 C1244 1.232 . S
H1257 C1276 0.929 . S
H1258 C1277 0.929 . S
H1259 C1289 0.931 . S
H1260 C1281 0.929 . S
H1261 C1290 0.930 . S
H1262 C1282 0.931 . S
O1263 Co1239 2.097 . S
O1263 C1291 1.214 . S
H1264 C1292 0.929 . S
H1265 C1293 0.929 . S
H1266 C1294 0.930 . S
H1267 C1295 0.929 . S
H1268 C1297 0.930 . S
H1269 C1274 0.930 . S
H1270 C1278 0.930 . S
O1271 Co1240 2.037 . S
O1271 C1291 1.234 . S
C1272 O1246 1.269 . S
C1272 O1247 1.257 . S
C1273 H1248 0.930 . S
C1273 C1276 1.388 . S
C1273 C1278 1.418 . S
C1274 H1269 0.930 . S
C1274 C1277 1.404 . S
C1274 C1278 1.353 . S
N1275 Co1240 2.145 . S
N1275 C1276 1.397 . S
N1275 C1277 1.334 . S
C1276 H1257 0.929 . S
C1276 C1273 1.388 . S
C1276 N1275 1.397 . S
C1277 H1258 0.929 . S
C1277 C1274 1.404 . S
C1277 N1275 1.334 . S
C1278 H1270 0.930 . S
C1278 C1273 1.418 . S
C1278 C1274 1.353 . S
C1279 H1249 0.930 . S
C1279 N1280 1.330 . S
C1279 C1281 1.446 . S
N1280 Co1239 2.151 . S
N1280 C1279 1.330 . S
N1280 C1284 1.418 . S
C1281 H1260 0.929 . S
C1281 C1279 1.446 . S
C1281 C1282 1.332 . S
C1282 H1262 0.931 . S
C1282 C1281 1.332 . S
C1282 C1283 1.267 . S
C1283 H1251 0.929 . S
C1283 C1282 1.267 . S
C1283 C1284 1.251 . S
C1284 H1254 0.929 . S
C1284 N1280 1.418 . S
C1284 C1283 1.251 . S
C1285 H1252 0.930 . S
C1285 C1287 1.406 . S
C1285 C1290 1.261 . S
C1286 H1253 0.930 . S
C1286 N1288 1.325 . S
C1286 C1289 1.357 . S
C1287 H1255 0.928 . S
C1287 C1285 1.406 . S
C1287 N1288 1.261 . S
N1288 Co1239 2.214 . S
N1288 C1286 1.325 . S
N1288 C1287 1.261 . S
C1289 H1259 0.931 . S
C1289 C1286 1.357 . S
C1289 C1290 1.312 . S
C1290 H1261 0.930 . S
C1290 C1285 1.261 . S
C1290 C1289 1.312 . S
C1291 O1263 1.214 . S
C1291 O1271 1.234 . S
C1292 H1264 0.929 . S
C1292 C1295 1.391 . S
C1292 C1297 1.391 . S
C1293 H1265 0.929 . S
C1293 C1294 1.390 . S
C1293 N1296 1.391 . S
C1294 H1266 0.930 . S
C1294 C1293 1.390 . S
C1294 C1295 1.392 . S
C1295 H1267 0.929 . S
C1295 C1292 1.391 . S
C1295 C1294 1.392 . S
N1296 Co1240 2.257 . S
N1296 C1293 1.391 . S
N1296 C1297 1.388 . S
C1297 H1268 0.930 . S
C1297 C1292 1.391 . S
C1297 N1296 1.388 . S
Co1298 O1300 2.143 . S
Co1298 O1306 2.074 . S
Co1298 O1309 2.093 . S
Co1298 O1322 2.097 . S
Co1298 N1339 2.151 . S
Co1298 N1347 2.214 . S
Co1299 O1300 2.160 . S
Co1299 O1305 2.058 . S
Co1299 O1315 2.057 . S
Co1299 O1330 2.037 . S
Co1299 N1334 2.145 . S
Co1299 N1355 2.257 . S
O1300 Co1298 2.143 . S
O1300 Co1299 2.160 . S
C1301 O1302 1.278 . S
C1301 O1309 1.224 . S
O1302 C1301 1.278 . S
C1303 O1304 1.245 . S
C1303 O1315 1.232 . S
O1304 C1303 1.245 . S
O1305 Co1299 2.058 . S
O1305 C1331 1.269 . S
O1306 Co1298 2.074 . S
O1306 C1331 1.257 . S
H1307 C1332 0.930 . S
H1308 C1338 0.930 . S
O1309 Co1298 2.093 . S
O1309 C1301 1.224 . S
H1310 C1342 0.929 . S
H1311 C1344 0.930 . S
H1312 C1345 0.930 . S
H1313 C1343 0.929 . S
H1314 C1346 0.928 . S
O1315 Co1299 2.057 . S
O1315 C1303 1.232 . S
H1316 C1335 0.929 . S
H1317 C1336 0.929 . S
H1318 C1348 0.931 . S
H1319 C1340 0.929 . S
H1320 C1349 0.930 . S
H1321 C1341 0.931 . S
O1322 Co1298 2.097 . S
O1322 C1350 1.214 . S
H1323 C1351 0.929 . S
H1324 C1352 0.929 . S
H1325 C1353 0.930 . S
H1326 C1354 0.929 . S
H1327 C1356 0.930 . S
H1328 C1333 0.930 . S
H1329 C1337 0.930 . S
O1330 Co1299 2.037 . S
O1330 C1350 1.234 . S
C1331 O1305 1.269 . S
C1331 O1306 1.257 . S
C1332 H1307 0.930 . S
C1332 C1335 1.388 . S
C1332 C1337 1.418 . S
C1333 H1328 0.930 . S
C1333 C1336 1.404 . S
C1333 C1337 1.353 . S
N1334 Co1299 2.145 . S
N1334 C1335 1.397 . S
N1334 C1336 1.334 . S
C1335 H1316 0.929 . S
C1335 C1332 1.388 . S
C1335 N1334 1.397 . S
C1336 H1317 0.929 . S
C1336 C1333 1.404 . S
C1336 N1334 1.334 . S
C1337 H1329 0.930 . S
C1337 C1332 1.418 . S
C1337 C1333 1.353 . S
C1338 H1308 0.930 . S
C1338 N1339 1.330 . S
C1338 C1340 1.446 . S
N1339 Co1298 2.151 . S
N1339 C1338 1.330 . S
N1339 C1343 1.418 . S
C1340 H1319 0.929 . S
C1340 C1338 1.446 . S
C1340 C1341 1.332 . S
C1341 H1321 0.931 . S
C1341 C1340 1.332 . S
C1341 C1342 1.267 . S
C1342 H1310 0.929 . S
C1342 C1341 1.267 . S
C1342 C1343 1.251 . S
C1343 H1313 0.929 . S
C1343 N1339 1.418 . S
C1343 C1342 1.251 . S
C1344 H1311 0.930 . S
C1344 C1346 1.406 . S
C1344 C1349 1.261 . S
C1345 H1312 0.930 . S
C1345 N1347 1.325 . S
C1345 C1348 1.357 . S
C1346 H1314 0.928 . S
C1346 C1344 1.406 . S
C1346 N1347 1.261 . S
N1347 Co1298 2.214 . S
N1347 C1345 1.325 . S
N1347 C1346 1.261 . S
C1348 H1318 0.931 . S
C1348 C1345 1.357 . S
C1348 C1349 1.312 . S
C1349 H1320 0.930 . S
C1349 C1344 1.261 . S
C1349 C1348 1.312 . S
C1350 O1322 1.214 . S
C1350 O1330 1.234 . S
C1351 H1323 0.929 . S
C1351 C1354 1.391 . S
C1351 C1356 1.391 . S
C1352 H1324 0.929 . S
C1352 C1353 1.390 . S
C1352 N1355 1.391 . S
C1353 H1325 0.930 . S
C1353 C1352 1.390 . S
C1353 C1354 1.392 . S
C1354 H1326 0.929 . S
C1354 C1351 1.391 . S
C1354 C1353 1.392 . S
N1355 Co1299 2.257 . S
N1355 C1352 1.391 . S
N1355 C1356 1.388 . S
C1356 H1327 0.930 . S
C1356 C1351 1.391 . S
C1356 N1355 1.388 . S
Co1357 O1359 2.143 . S
Co1357 O1365 2.074 . S
Co1357 O1368 2.093 . S
Co1357 O1381 2.097 . S
Co1357 N1398 2.151 . S
Co1357 N1406 2.214 . S
Co1358 O1359 2.160 . S
Co1358 O1364 2.058 . S
Co1358 O1374 2.057 . S
Co1358 O1389 2.037 . S
Co1358 N1393 2.145 . S
Co1358 N1414 2.257 . S
O1359 Co1357 2.143 . S
O1359 Co1358 2.160 . S
C1360 O1361 1.278 . S
C1360 O1368 1.224 . S
O1361 C1360 1.278 . S
C1362 O1363 1.245 . S
C1362 O1374 1.232 . S
O1363 C1362 1.245 . S
O1364 Co1358 2.058 . S
O1364 C1390 1.269 . S
O1365 Co1357 2.074 . S
O1365 C1390 1.257 . S
H1366 C1391 0.930 . S
H1367 C1397 0.930 . S
O1368 Co1357 2.093 . S
O1368 C1360 1.224 . S
H1369 C1401 0.929 . S
H1370 C1403 0.930 . S
H1371 C1404 0.930 . S
H1372 C1402 0.929 . S
H1373 C1405 0.928 . S
O1374 Co1358 2.057 . S
O1374 C1362 1.232 . S
H1375 C1394 0.929 . S
H1376 C1395 0.929 . S
H1377 C1407 0.931 . S
H1378 C1399 0.929 . S
H1379 C1408 0.930 . S
H1380 C1400 0.931 . S
O1381 Co1357 2.097 . S
O1381 C1409 1.214 . S
H1382 C1410 0.929 . S
H1383 C1411 0.929 . S
H1384 C1412 0.930 . S
H1385 C1413 0.929 . S
H1386 C1415 0.930 . S
H1387 C1392 0.930 . S
H1388 C1396 0.930 . S
O1389 Co1358 2.037 . S
O1389 C1409 1.234 . S
C1390 O1364 1.269 . S
C1390 O1365 1.257 . S
C1391 H1366 0.930 . S
C1391 C1394 1.388 . S
C1391 C1396 1.418 . S
C1392 H1387 0.930 . S
C1392 C1395 1.404 . S
C1392 C1396 1.353 . S
N1393 Co1358 2.145 . S
N1393 C1394 1.397 . S
N1393 C1395 1.334 . S
C1394 H1375 0.929 . S
C1394 C1391 1.388 . S
C1394 N1393 1.397 . S
C1395 H1376 0.929 . S
C1395 C1392 1.404 . S
C1395 N1393 1.334 . S
C1396 H1388 0.930 . S
C1396 C1391 1.418 . S
C1396 C1392 1.353 . S
C1397 H1367 0.930 . S
C1397 N1398 1.330 . S
C1397 C1399 1.446 . S
N1398 Co1357 2.151 . S
N1398 C1397 1.330 . S
N1398 C1402 1.418 . S
C1399 H1378 0.929 . S
C1399 C1397 1.446 . S
C1399 C1400 1.332 . S
C1400 H1380 0.931 . S
C1400 C1399 1.332 . S
C1400 C1401 1.267 . S
C1401 H1369 0.929 . S
C1401 C1400 1.267 . S
C1401 C1402 1.251 . S
C1402 H1372 0.929 . S
C1402 N1398 1.418 . S
C1402 C1401 1.251 . S
C1403 H1370 0.930 . S
C1403 C1405 1.406 . S
C1403 C1408 1.261 . S
C1404 H1371 0.930 . S
C1404 N1406 1.325 . S
C1404 C1407 1.357 . S
C1405 H1373 0.928 . S
C1405 C1403 1.406 . S
C1405 N1406 1.261 . S
N1406 Co1357 2.214 . S
N1406 C1404 1.325 . S
N1406 C1405 1.261 . S
C1407 H1377 0.931 . S
C1407 C1404 1.357 . S
C1407 C1408 1.312 . S
C1408 H1379 0.930 . S
C1408 C1403 1.261 . S
C1408 C1407 1.312 . S
C1409 O1381 1.214 . S
C1409 O1389 1.234 . S
C1410 H1382 0.929 . S
C1410 C1413 1.391 . S
C1410 C1415 1.391 . S
C1411 H1383 0.929 . S
C1411 C1412 1.390 . S
C1411 N1414 1.391 . S
C1412 H1384 0.930 . S
C1412 C1411 1.390 . S
C1412 C1413 1.392 . S
C1413 H1385 0.929 . S
C1413 C1410 1.391 . S
C1413 C1412 1.392 . S
N1414 Co1358 2.257 . S
N1414 C1411 1.391 . S
N1414 C1415 1.388 . S
C1415 H1386 0.930 . S
C1415 C1410 1.391 . S
C1415 N1414 1.388 . S
Co1416 O1418 2.143 . S
Co1416 O1424 2.074 . S
Co1416 O1427 2.093 . S
Co1416 O1440 2.097 . S
Co1416 N1457 2.151 . S
Co1416 N1465 2.214 . S
Co1417 O1418 2.160 . S
Co1417 O1423 2.058 . S
Co1417 O1433 2.057 . S
Co1417 O1448 2.037 . S
Co1417 N1452 2.145 . S
Co1417 N1473 2.257 . S
O1418 Co1416 2.143 . S
O1418 Co1417 2.160 . S
C1419 O1420 1.278 . S
C1419 O1427 1.224 . S
O1420 C1419 1.278 . S
C1421 O1422 1.245 . S
C1421 O1433 1.232 . S
O1422 C1421 1.245 . S
O1423 Co1417 2.058 . S
O1423 C1449 1.269 . S
O1424 Co1416 2.074 . S
O1424 C1449 1.257 . S
H1425 C1450 0.930 . S
H1426 C1456 0.930 . S
O1427 Co1416 2.093 . S
O1427 C1419 1.224 . S
H1428 C1460 0.929 . S
H1429 C1462 0.930 . S
H1430 C1463 0.930 . S
H1431 C1461 0.929 . S
H1432 C1464 0.928 . S
O1433 Co1417 2.057 . S
O1433 C1421 1.232 . S
H1434 C1453 0.929 . S
H1435 C1454 0.929 . S
H1436 C1466 0.931 . S
H1437 C1458 0.929 . S
H1438 C1467 0.930 . S
H1439 C1459 0.931 . S
O1440 Co1416 2.097 . S
O1440 C1468 1.214 . S
H1441 C1469 0.929 . S
H1442 C1470 0.929 . S
H1443 C1471 0.930 . S
H1444 C1472 0.929 . S
H1445 C1474 0.930 . S
H1446 C1451 0.930 . S
H1447 C1455 0.930 . S
O1448 Co1417 2.037 . S
O1448 C1468 1.234 . S
C1449 O1423 1.269 . S
C1449 O1424 1.257 . S
C1450 H1425 0.930 . S
C1450 C1453 1.388 . S
C1450 C1455 1.418 . S
C1451 H1446 0.930 . S
C1451 C1454 1.404 . S
C1451 C1455 1.353 . S
N1452 Co1417 2.145 . S
N1452 C1453 1.397 . S
N1452 C1454 1.334 . S
C1453 H1434 0.929 . S
C1453 C1450 1.388 . S
C1453 N1452 1.397 . S
C1454 H1435 0.929 . S
C1454 C1451 1.404 . S
C1454 N1452 1.334 . S
C1455 H1447 0.930 . S
C1455 C1450 1.418 . S
C1455 C1451 1.353 . S
C1456 H1426 0.930 . S
C1456 N1457 1.330 . S
C1456 C1458 1.446 . S
N1457 Co1416 2.151 . S
N1457 C1456 1.330 . S
N1457 C1461 1.418 . S
C1458 H1437 0.929 . S
C1458 C1456 1.446 . S
C1458 C1459 1.332 . S
C1459 H1439 0.931 . S
C1459 C1458 1.332 . S
C1459 C1460 1.267 . S
C1460 H1428 0.929 . S
C1460 C1459 1.267 . S
C1460 C1461 1.251 . S
C1461 H1431 0.929 . S
C1461 N1457 1.418 . S
C1461 C1460 1.251 . S
C1462 H1429 0.930 . S
C1462 C1464 1.406 . S
C1462 C1467 1.261 . S
C1463 H1430 0.930 . S
C1463 N1465 1.325 . S
C1463 C1466 1.357 . S
C1464 H1432 0.928 . S
C1464 C1462 1.406 . S
C1464 N1465 1.261 . S
N1465 Co1416 2.214 . S
N1465 C1463 1.325 . S
N1465 C1464 1.261 . S
C1466 H1436 0.931 . S
C1466 C1463 1.357 . S
C1466 C1467 1.312 . S
C1467 H1438 0.930 . S
C1467 C1462 1.261 . S
C1467 C1466 1.312 . S
C1468 O1440 1.214 . S
C1468 O1448 1.234 . S
C1469 H1441 0.929 . S
C1469 C1472 1.391 . S
C1469 C1474 1.391 . S
C1470 H1442 0.929 . S
C1470 C1471 1.390 . S
C1470 N1473 1.391 . S
C1471 H1443 0.930 . S
C1471 C1470 1.390 . S
C1471 C1472 1.392 . S
C1472 H1444 0.929 . S
C1472 C1469 1.391 . S
C1472 C1471 1.392 . S
N1473 Co1417 2.257 . S
N1473 C1470 1.391 . S
N1473 C1474 1.388 . S
C1474 H1445 0.930 . S
C1474 C1469 1.391 . S
C1474 N1473 1.388 . S
Co1475 O1477 2.143 . S
Co1475 O1483 2.074 . S
Co1475 O1486 2.093 . S
Co1475 O1499 2.097 . S
Co1475 N1516 2.151 . S
Co1475 N1524 2.214 . S
Co1476 O1477 2.160 . S
Co1476 O1482 2.058 . S
Co1476 O1492 2.057 . S
Co1476 O1507 2.037 . S
Co1476 N1511 2.145 . S
Co1476 N1532 2.257 . S
O1477 Co1475 2.143 . S
O1477 Co1476 2.160 . S
C1478 O1479 1.278 . S
C1478 O1486 1.224 . S
O1479 C1478 1.278 . S
C1480 O1481 1.245 . S
C1480 O1492 1.232 . S
O1481 C1480 1.245 . S
O1482 Co1476 2.058 . S
O1482 C1508 1.269 . S
O1483 Co1475 2.074 . S
O1483 C1508 1.257 . S
H1484 C1509 0.930 . S
H1485 C1515 0.930 . S
O1486 Co1475 2.093 . S
O1486 C1478 1.224 . S
H1487 C1519 0.929 . S
H1488 C1521 0.930 . S
H1489 C1522 0.930 . S
H1490 C1520 0.929 . S
H1491 C1523 0.928 . S
O1492 Co1476 2.057 . S
O1492 C1480 1.232 . S
H1493 C1512 0.929 . S
H1494 C1513 0.929 . S
H1495 C1525 0.931 . S
H1496 C1517 0.929 . S
H1497 C1526 0.930 . S
H1498 C1518 0.931 . S
O1499 Co1475 2.097 . S
O1499 C1527 1.214 . S
H1500 C1528 0.929 . S
H1501 C1529 0.929 . S
H1502 C1530 0.930 . S
H1503 C1531 0.929 . S
H1504 C1533 0.930 . S
H1505 C1510 0.930 . S
H1506 C1514 0.930 . S
O1507 Co1476 2.037 . S
O1507 C1527 1.234 . S
C1508 O1482 1.269 . S
C1508 O1483 1.257 . S
C1509 H1484 0.930 . S
C1509 C1512 1.388 . S
C1509 C1514 1.418 . S
C1510 H1505 0.930 . S
C1510 C1513 1.404 . S
C1510 C1514 1.353 . S
N1511 Co1476 2.145 . S
N1511 C1512 1.397 . S
N1511 C1513 1.334 . S
C1512 H1493 0.929 . S
C1512 C1509 1.388 . S
C1512 N1511 1.397 . S
C1513 H1494 0.929 . S
C1513 C1510 1.404 . S
C1513 N1511 1.334 . S
C1514 H1506 0.930 . S
C1514 C1509 1.418 . S
C1514 C1510 1.353 . S
C1515 H1485 0.930 . S
C1515 N1516 1.330 . S
C1515 C1517 1.446 . S
N1516 Co1475 2.151 . S
N1516 C1515 1.330 . S
N1516 C1520 1.418 . S
C1517 H1496 0.929 . S
C1517 C1515 1.446 . S
C1517 C1518 1.332 . S
C1518 H1498 0.931 . S
C1518 C1517 1.332 . S
C1518 C1519 1.267 . S
C1519 H1487 0.929 . S
C1519 C1518 1.267 . S
C1519 C1520 1.251 . S
C1520 H1490 0.929 . S
C1520 N1516 1.418 . S
C1520 C1519 1.251 . S
C1521 H1488 0.930 . S
C1521 C1523 1.406 . S
C1521 C1526 1.261 . S
C1522 H1489 0.930 . S
C1522 N1524 1.325 . S
C1522 C1525 1.357 . S
C1523 H1491 0.928 . S
C1523 C1521 1.406 . S
C1523 N1524 1.261 . S
N1524 Co1475 2.214 . S
N1524 C1522 1.325 . S
N1524 C1523 1.261 . S
C1525 H1495 0.931 . S
C1525 C1522 1.357 . S
C1525 C1526 1.312 . S
C1526 H1497 0.930 . S
C1526 C1521 1.261 . S
C1526 C1525 1.312 . S
C1527 O1499 1.214 . S
C1527 O1507 1.234 . S
C1528 H1500 0.929 . S
C1528 C1531 1.391 . S
C1528 C1533 1.391 . S
C1529 H1501 0.929 . S
C1529 C1530 1.390 . S
C1529 N1532 1.391 . S
C1530 H1502 0.930 . S
C1530 C1529 1.390 . S
C1530 C1531 1.392 . S
C1531 H1503 0.929 . S
C1531 C1528 1.391 . S
C1531 C1530 1.392 . S
N1532 Co1476 2.257 . S
N1532 C1529 1.391 . S
N1532 C1533 1.388 . S
C1533 H1504 0.930 . S
C1533 C1528 1.391 . S
C1533 N1532 1.388 . S
Co1534 O1536 2.143 . S
Co1534 O1542 2.074 . S
Co1534 O1545 2.093 . S
Co1534 O1558 2.097 . S
Co1534 N1575 2.151 . S
Co1534 N1583 2.214 . S
Co1535 O1536 2.160 . S
Co1535 O1541 2.058 . S
Co1535 O1551 2.057 . S
Co1535 O1566 2.037 . S
Co1535 N1570 2.145 . S
Co1535 N1591 2.257 . S
O1536 Co1534 2.143 . S
O1536 Co1535 2.160 . S
C1537 O1538 1.278 . S
C1537 O1545 1.224 . S
O1538 C1537 1.278 . S
C1539 O1540 1.245 . S
C1539 O1551 1.232 . S
O1540 C1539 1.245 . S
O1541 Co1535 2.058 . S
O1541 C1567 1.269 . S
O1542 Co1534 2.074 . S
O1542 C1567 1.257 . S
H1543 C1568 0.930 . S
H1544 C1574 0.930 . S
O1545 Co1534 2.093 . S
O1545 C1537 1.224 . S
H1546 C1578 0.929 . S
H1547 C1580 0.930 . S
H1548 C1581 0.930 . S
H1549 C1579 0.929 . S
H1550 C1582 0.928 . S
O1551 Co1535 2.057 . S
O1551 C1539 1.232 . S
H1552 C1571 0.929 . S
H1553 C1572 0.929 . S
H1554 C1584 0.931 . S
H1555 C1576 0.929 . S
H1556 C1585 0.930 . S
H1557 C1577 0.931 . S
O1558 Co1534 2.097 . S
O1558 C1586 1.214 . S
H1559 C1587 0.929 . S
H1560 C1588 0.929 . S
H1561 C1589 0.930 . S
H1562 C1590 0.929 . S
H1563 C1592 0.930 . S
H1564 C1569 0.930 . S
H1565 C1573 0.930 . S
O1566 Co1535 2.037 . S
O1566 C1586 1.234 . S
C1567 O1541 1.269 . S
C1567 O1542 1.257 . S
C1568 H1543 0.930 . S
C1568 C1571 1.388 . S
C1568 C1573 1.418 . S
C1569 H1564 0.930 . S
C1569 C1572 1.404 . S
C1569 C1573 1.353 . S
N1570 Co1535 2.145 . S
N1570 C1571 1.397 . S
N1570 C1572 1.334 . S
C1571 H1552 0.929 . S
C1571 C1568 1.388 . S
C1571 N1570 1.397 . S
C1572 H1553 0.929 . S
C1572 C1569 1.404 . S
C1572 N1570 1.334 . S
C1573 H1565 0.930 . S
C1573 C1568 1.418 . S
C1573 C1569 1.353 . S
C1574 H1544 0.930 . S
C1574 N1575 1.330 . S
C1574 C1576 1.446 . S
N1575 Co1534 2.151 . S
N1575 C1574 1.330 . S
N1575 C1579 1.418 . S
C1576 H1555 0.929 . S
C1576 C1574 1.446 . S
C1576 C1577 1.332 . S
C1577 H1557 0.931 . S
C1577 C1576 1.332 . S
C1577 C1578 1.267 . S
C1578 H1546 0.929 . S
C1578 C1577 1.267 . S
C1578 C1579 1.251 . S
C1579 H1549 0.929 . S
C1579 N1575 1.418 . S
C1579 C1578 1.251 . S
C1580 H1547 0.930 . S
C1580 C1582 1.406 . S
C1580 C1585 1.261 . S
C1581 H1548 0.930 . S
C1581 N1583 1.325 . S
C1581 C1584 1.357 . S
C1582 H1550 0.928 . S
C1582 C1580 1.406 . S
C1582 N1583 1.261 . S
N1583 Co1534 2.214 . S
N1583 C1581 1.325 . S
N1583 C1582 1.261 . S
C1584 H1554 0.931 . S
C1584 C1581 1.357 . S
C1584 C1585 1.312 . S
C1585 H1556 0.930 . S
C1585 C1580 1.261 . S
C1585 C1584 1.312 . S
C1586 O1558 1.214 . S
C1586 O1566 1.234 . S
C1587 H1559 0.929 . S
C1587 C1590 1.391 . S
C1587 C1592 1.391 . S
C1588 H1560 0.929 . S
C1588 C1589 1.390 . S
C1588 N1591 1.391 . S
C1589 H1561 0.930 . S
C1589 C1588 1.390 . S
C1589 C1590 1.392 . S
C1590 H1562 0.929 . S
C1590 C1587 1.391 . S
C1590 C1589 1.392 . S
N1591 Co1535 2.257 . S
N1591 C1588 1.391 . S
N1591 C1592 1.388 . S
C1592 H1563 0.930 . S
C1592 C1587 1.391 . S
C1592 N1591 1.388 . S
Co1593 O1595 2.143 . S
Co1593 O1601 2.074 . S
Co1593 O1604 2.093 . S
Co1593 O1617 2.097 . S
Co1593 N1634 2.151 . S
Co1593 N1642 2.214 . S
Co1594 O1595 2.160 . S
Co1594 O1600 2.058 . S
Co1594 O1610 2.057 . S
Co1594 O1625 2.037 . S
Co1594 N1629 2.145 . S
Co1594 N1650 2.257 . S
O1595 Co1593 2.143 . S
O1595 Co1594 2.160 . S
C1596 O1597 1.278 . S
C1596 O1604 1.224 . S
O1597 C1596 1.278 . S
C1598 O1599 1.245 . S
C1598 O1610 1.232 . S
O1599 C1598 1.245 . S
O1600 Co1594 2.058 . S
O1600 C1626 1.269 . S
O1601 Co1593 2.074 . S
O1601 C1626 1.257 . S
H1602 C1627 0.930 . S
H1603 C1633 0.930 . S
O1604 Co1593 2.093 . S
O1604 C1596 1.224 . S
H1605 C1637 0.929 . S
H1606 C1639 0.930 . S
H1607 C1640 0.930 . S
H1608 C1638 0.929 . S
H1609 C1641 0.928 . S
O1610 Co1594 2.057 . S
O1610 C1598 1.232 . S
H1611 C1630 0.929 . S
H1612 C1631 0.929 . S
H1613 C1643 0.931 . S
H1614 C1635 0.929 . S
H1615 C1644 0.930 . S
H1616 C1636 0.931 . S
O1617 Co1593 2.097 . S
O1617 C1645 1.214 . S
H1618 C1646 0.929 . S
H1619 C1647 0.929 . S
H1620 C1648 0.930 . S
H1621 C1649 0.929 . S
H1622 C1651 0.930 . S
H1623 C1628 0.930 . S
H1624 C1632 0.930 . S
O1625 Co1594 2.037 . S
O1625 C1645 1.234 . S
C1626 O1600 1.269 . S
C1626 O1601 1.257 . S
C1627 H1602 0.930 . S
C1627 C1630 1.388 . S
C1627 C1632 1.418 . S
C1628 H1623 0.930 . S
C1628 C1631 1.404 . S
C1628 C1632 1.353 . S
N1629 Co1594 2.145 . S
N1629 C1630 1.397 . S
N1629 C1631 1.334 . S
C1630 H1611 0.929 . S
C1630 C1627 1.388 . S
C1630 N1629 1.397 . S
C1631 H1612 0.929 . S
C1631 C1628 1.404 . S
C1631 N1629 1.334 . S
C1632 H1624 0.930 . S
C1632 C1627 1.418 . S
C1632 C1628 1.353 . S
C1633 H1603 0.930 . S
C1633 N1634 1.330 . S
C1633 C1635 1.446 . S
N1634 Co1593 2.151 . S
N1634 C1633 1.330 . S
N1634 C1638 1.418 . S
C1635 H1614 0.929 . S
C1635 C1633 1.446 . S
C1635 C1636 1.332 . S
C1636 H1616 0.931 . S
C1636 C1635 1.332 . S
C1636 C1637 1.267 . S
C1637 H1605 0.929 . S
C1637 C1636 1.267 . S
C1637 C1638 1.251 . S
C1638 H1608 0.929 . S
C1638 N1634 1.418 . S
C1638 C1637 1.251 . S
C1639 H1606 0.930 . S
C1639 C1641 1.406 . S
C1639 C1644 1.261 . S
C1640 H1607 0.930 . S
C1640 N1642 1.325 . S
C1640 C1643 1.357 . S
C1641 H1609 0.928 . S
C1641 C1639 1.406 . S
C1641 N1642 1.261 . S
N1642 Co1593 2.214 . S
N1642 C1640 1.325 . S
N1642 C1641 1.261 . S
C1643 H1613 0.931 . S
C1643 C1640 1.357 . S
C1643 C1644 1.312 . S
C1644 H1615 0.930 . S
C1644 C1639 1.261 . S
C1644 C1643 1.312 . S
C1645 O1617 1.214 . S
C1645 O1625 1.234 . S
C1646 H1618 0.929 . S
C1646 C1649 1.391 . S
C1646 C1651 1.391 . S
C1647 H1619 0.929 . S
C1647 C1648 1.390 . S
C1647 N1650 1.391 . S
C1648 H1620 0.930 . S
C1648 C1647 1.390 . S
C1648 C1649 1.392 . S
C1649 H1621 0.929 . S
C1649 C1646 1.391 . S
C1649 C1648 1.392 . S
N1650 Co1594 2.257 . S
N1650 C1647 1.391 . S
N1650 C1651 1.388 . S
C1651 H1622 0.930 . S
C1651 C1646 1.391 . S
C1651 N1650 1.388 . S
Co1652 O1654 2.143 . S
Co1652 O1660 2.074 . S
Co1652 O1663 2.093 . S
Co1652 O1676 2.097 . S
Co1652 N1693 2.151 . S
Co1652 N1701 2.214 . S
Co1653 O1654 2.160 . S
Co1653 O1659 2.058 . S
Co1653 O1669 2.057 . S
Co1653 O1684 2.037 . S
Co1653 N1688 2.145 . S
Co1653 N1709 2.257 . S
O1654 Co1652 2.143 . S
O1654 Co1653 2.160 . S
C1655 O1656 1.278 . S
C1655 O1663 1.224 . S
O1656 C1655 1.278 . S
C1657 O1658 1.245 . S
C1657 O1669 1.232 . S
O1658 C1657 1.245 . S
O1659 Co1653 2.058 . S
O1659 C1685 1.269 . S
O1660 Co1652 2.074 . S
O1660 C1685 1.257 . S
H1661 C1686 0.930 . S
H1662 C1692 0.930 . S
O1663 Co1652 2.093 . S
O1663 C1655 1.224 . S
H1664 C1696 0.929 . S
H1665 C1698 0.930 . S
H1666 C1699 0.930 . S
H1667 C1697 0.929 . S
H1668 C1700 0.928 . S
O1669 Co1653 2.057 . S
O1669 C1657 1.232 . S
H1670 C1689 0.929 . S
H1671 C1690 0.929 . S
H1672 C1702 0.931 . S
H1673 C1694 0.929 . S
H1674 C1703 0.930 1_565 S
H1675 C1695 0.931 . S
O1676 Co1652 2.097 . S
O1676 C1704 1.214 . S
H1677 C1705 0.929 . S
H1678 C1706 0.929 . S
H1679 C1707 0.930 . S
H1680 C1708 0.929 . S
H1681 C1710 0.930 . S
H1682 C1687 0.930 . S
H1683 C1691 0.930 . S
O1684 Co1653 2.037 . S
O1684 C1704 1.234 . S
C1685 O1659 1.269 . S
C1685 O1660 1.257 . S
C1686 H1661 0.930 . S
C1686 C1689 1.388 . S
C1686 C1691 1.418 . S
C1687 H1682 0.930 . S
C1687 C1690 1.404 . S
C1687 C1691 1.353 . S
N1688 Co1653 2.145 . S
N1688 C1689 1.397 . S
N1688 C1690 1.334 . S
C1689 H1670 0.929 . S
C1689 C1686 1.388 . S
C1689 N1688 1.397 . S
C1690 H1671 0.929 . S
C1690 C1687 1.404 . S
C1690 N1688 1.334 . S
C1691 H1683 0.930 . S
C1691 C1686 1.418 . S
C1691 C1687 1.353 . S
C1692 H1662 0.930 . S
C1692 N1693 1.330 . S
C1692 C1694 1.446 . S
N1693 Co1652 2.151 . S
N1693 C1692 1.330 . S
N1693 C1697 1.418 . S
C1694 H1673 0.929 . S
C1694 C1692 1.446 . S
C1694 C1695 1.332 . S
C1695 H1675 0.931 . S
C1695 C1694 1.332 . S
C1695 C1696 1.267 . S
C1696 H1664 0.929 . S
C1696 C1695 1.267 . S
C1696 C1697 1.251 . S
C1697 H1667 0.929 . S
C1697 N1693 1.418 . S
C1697 C1696 1.251 . S
C1698 H1665 0.930 . S
C1698 C1700 1.406 . S
C1698 C1703 1.261 . S
C1699 H1666 0.930 . S
C1699 N1701 1.325 . S
C1699 C1702 1.357 . S
C1700 H1668 0.928 . S
C1700 C1698 1.406 . S
C1700 N1701 1.261 . S
N1701 Co1652 2.214 . S
N1701 C1699 1.325 . S
N1701 C1700 1.261 . S
C1702 H1672 0.931 . S
C1702 C1699 1.357 . S
C1702 C1703 1.312 . S
C1703 H1674 0.930 1_545 S
C1703 C1698 1.261 . S
C1703 C1702 1.312 . S
C1704 O1676 1.214 . S
C1704 O1684 1.234 . S
C1705 H1677 0.929 . S
C1705 C1708 1.391 . S
C1705 C1710 1.391 . S
C1706 H1678 0.929 . S
C1706 C1707 1.390 . S
C1706 N1709 1.391 . S
C1707 H1679 0.930 . S
C1707 C1706 1.390 . S
C1707 C1708 1.392 . S
C1708 H1680 0.929 . S
C1708 C1705 1.391 . S
C1708 C1707 1.392 . S
N1709 Co1653 2.257 . S
N1709 C1706 1.391 . S
N1709 C1710 1.388 . S
C1710 H1681 0.930 . S
C1710 C1705 1.391 . S
C1710 N1709 1.388 . S
Co1711 O1713 2.143 . S
Co1711 O1719 2.074 . S
Co1711 O1722 2.093 . S
Co1711 O1735 2.097 . S
Co1711 N1752 2.151 . S
Co1711 N1760 2.214 . S
Co1712 O1713 2.160 . S
Co1712 O1718 2.058 . S
Co1712 O1728 2.057 . S
Co1712 O1743 2.037 . S
Co1712 N1747 2.145 . S
Co1712 N1768 2.257 . S
O1713 Co1711 2.143 . S
O1713 Co1712 2.160 . S
C1714 O1715 1.278 . S
C1714 O1722 1.224 . S
O1715 C1714 1.278 . S
C1716 O1717 1.245 . S
C1716 O1728 1.232 . S
O1717 C1716 1.245 . S
O1718 Co1712 2.058 . S
O1718 C1744 1.269 . S
O1719 Co1711 2.074 . S
O1719 C1744 1.257 . S
H1720 C1745 0.930 . S
H1721 C1751 0.930 . S
O1722 Co1711 2.093 . S
O1722 C1714 1.224 . S
H1723 C1755 0.929 . S
H1724 C1757 0.930 . S
H1725 C1758 0.930 . S
H1726 C1756 0.929 . S
H1727 C1759 0.928 . S
O1728 Co1712 2.057 . S
O1728 C1716 1.232 . S
H1729 C1748 0.929 . S
H1730 C1749 0.929 . S
H1731 C1761 0.931 . S
H1732 C1753 0.929 . S
H1733 C1762 0.930 . S
H1734 C1754 0.931 . S
O1735 Co1711 2.097 . S
O1735 C1763 1.214 . S
H1736 C1764 0.929 . S
H1737 C1765 0.929 . S
H1738 C1766 0.930 . S
H1739 C1767 0.929 . S
H1740 C1769 0.930 . S
H1741 C1746 0.930 . S
H1742 C1750 0.930 . S
O1743 Co1712 2.037 . S
O1743 C1763 1.234 . S
C1744 O1718 1.269 . S
C1744 O1719 1.257 . S
C1745 H1720 0.930 . S
C1745 C1748 1.388 . S
C1745 C1750 1.418 . S
C1746 H1741 0.930 . S
C1746 C1749 1.404 . S
C1746 C1750 1.353 . S
N1747 Co1712 2.145 . S
N1747 C1748 1.397 . S
N1747 C1749 1.334 . S
C1748 H1729 0.929 . S
C1748 C1745 1.388 . S
C1748 N1747 1.397 . S
C1749 H1730 0.929 . S
C1749 C1746 1.404 . S
C1749 N1747 1.334 . S
C1750 H1742 0.930 . S
C1750 C1745 1.418 . S
C1750 C1746 1.353 . S
C1751 H1721 0.930 . S
C1751 N1752 1.330 . S
C1751 C1753 1.446 . S
N1752 Co1711 2.151 . S
N1752 C1751 1.330 . S
N1752 C1756 1.418 . S
C1753 H1732 0.929 . S
C1753 C1751 1.446 . S
C1753 C1754 1.332 . S
C1754 H1734 0.931 . S
C1754 C1753 1.332 . S
C1754 C1755 1.267 . S
C1755 H1723 0.929 . S
C1755 C1754 1.267 . S
C1755 C1756 1.251 . S
C1756 H1726 0.929 . S
C1756 N1752 1.418 . S
C1756 C1755 1.251 . S
C1757 H1724 0.930 . S
C1757 C1759 1.406 . S
C1757 C1762 1.261 . S
C1758 H1725 0.930 . S
C1758 N1760 1.325 . S
C1758 C1761 1.357 . S
C1759 H1727 0.928 . S
C1759 C1757 1.406 . S
C1759 N1760 1.261 . S
N1760 Co1711 2.214 . S
N1760 C1758 1.325 . S
N1760 C1759 1.261 . S
C1761 H1731 0.931 . S
C1761 C1758 1.357 . S
C1761 C1762 1.312 . S
C1762 H1733 0.930 . S
C1762 C1757 1.261 . S
C1762 C1761 1.312 . S
C1763 O1735 1.214 . S
C1763 O1743 1.234 . S
C1764 H1736 0.929 . S
C1764 C1767 1.391 . S
C1764 C1769 1.391 . S
C1765 H1737 0.929 . S
C1765 C1766 1.390 . S
C1765 N1768 1.391 . S
C1766 H1738 0.930 . S
C1766 C1765 1.390 . S
C1766 C1767 1.392 . S
C1767 H1739 0.929 . S
C1767 C1764 1.391 . S
C1767 C1766 1.392 . S
N1768 Co1712 2.257 . S
N1768 C1765 1.391 . S
N1768 C1769 1.388 . S
C1769 H1740 0.930 . S
C1769 C1764 1.391 . S
C1769 N1768 1.388 . S
Co1770 O1772 2.143 . S
Co1770 O1778 2.074 . S
Co1770 O1781 2.093 . S
Co1770 O1794 2.097 . S
Co1770 N1811 2.151 . S
Co1770 N1819 2.214 . S
Co1771 O1772 2.160 . S
Co1771 O1777 2.058 . S
Co1771 O1787 2.057 . S
Co1771 O1802 2.037 . S
Co1771 N1806 2.145 . S
Co1771 N1827 2.257 . S
O1772 Co1770 2.143 . S
O1772 Co1771 2.160 . S
C1773 O1774 1.278 . S
C1773 O1781 1.224 . S
O1774 C1773 1.278 . S
C1775 O1776 1.245 . S
C1775 O1787 1.232 . S
O1776 C1775 1.245 . S
O1777 Co1771 2.058 . S
O1777 C1803 1.269 . S
O1778 Co1770 2.074 . S
O1778 C1803 1.257 . S
H1779 C1804 0.930 . S
H1780 C1810 0.930 . S
O1781 Co1770 2.093 . S
O1781 C1773 1.224 . S
H1782 C1814 0.929 . S
H1783 C1816 0.930 . S
H1784 C1817 0.930 . S
H1785 C1815 0.929 . S
H1786 C1818 0.928 . S
O1787 Co1771 2.057 . S
O1787 C1775 1.232 . S
H1788 C1807 0.929 . S
H1789 C1808 0.929 . S
H1790 C1820 0.931 . S
H1791 C1812 0.929 . S
H1792 C1821 0.930 1_545 S
H1793 C1813 0.931 . S
O1794 Co1770 2.097 . S
O1794 C1822 1.214 . S
H1795 C1823 0.929 . S
H1796 C1824 0.929 . S
H1797 C1825 0.930 . S
H1798 C1826 0.929 . S
H1799 C1828 0.930 . S
H1800 C1805 0.930 . S
H1801 C1809 0.930 . S
O1802 Co1771 2.037 . S
O1802 C1822 1.234 . S
C1803 O1777 1.269 . S
C1803 O1778 1.257 . S
C1804 H1779 0.930 . S
C1804 C1807 1.388 . S
C1804 C1809 1.418 . S
C1805 H1800 0.930 . S
C1805 C1808 1.404 . S
C1805 C1809 1.353 . S
N1806 Co1771 2.145 . S
N1806 C1807 1.397 . S
N1806 C1808 1.334 . S
C1807 H1788 0.929 . S
C1807 C1804 1.388 . S
C1807 N1806 1.397 . S
C1808 H1789 0.929 . S
C1808 C1805 1.404 . S
C1808 N1806 1.334 . S
C1809 H1801 0.930 . S
C1809 C1804 1.418 . S
C1809 C1805 1.353 . S
C1810 H1780 0.930 . S
C1810 N1811 1.330 . S
C1810 C1812 1.446 . S
N1811 Co1770 2.151 . S
N1811 C1810 1.330 . S
N1811 C1815 1.418 . S
C1812 H1791 0.929 . S
C1812 C1810 1.446 . S
C1812 C1813 1.332 . S
C1813 H1793 0.931 . S
C1813 C1812 1.332 . S
C1813 C1814 1.267 . S
C1814 H1782 0.929 . S
C1814 C1813 1.267 . S
C1814 C1815 1.251 . S
C1815 H1785 0.929 . S
C1815 N1811 1.418 . S
C1815 C1814 1.251 . S
C1816 H1783 0.930 . S
C1816 C1818 1.406 . S
C1816 C1821 1.261 . S
C1817 H1784 0.930 . S
C1817 N1819 1.325 . S
C1817 C1820 1.357 . S
C1818 H1786 0.928 . S
C1818 C1816 1.406 . S
C1818 N1819 1.261 . S
N1819 Co1770 2.214 . S
N1819 C1817 1.325 . S
N1819 C1818 1.261 . S
C1820 H1790 0.931 . S
C1820 C1817 1.357 . S
C1820 C1821 1.312 . S
C1821 H1792 0.930 1_565 S
C1821 C1816 1.261 . S
C1821 C1820 1.312 . S
C1822 O1794 1.214 . S
C1822 O1802 1.234 . S
C1823 H1795 0.929 . S
C1823 C1826 1.391 . S
C1823 C1828 1.391 . S
C1824 H1796 0.929 . S
C1824 C1825 1.390 . S
C1824 N1827 1.391 . S
C1825 H1797 0.930 . S
C1825 C1824 1.390 . S
C1825 C1826 1.392 . S
C1826 H1798 0.929 . S
C1826 C1823 1.391 . S
C1826 C1825 1.392 . S
N1827 Co1771 2.257 . S
N1827 C1824 1.391 . S
N1827 C1828 1.388 . S
C1828 H1799 0.930 . S
C1828 C1823 1.391 . S
C1828 N1827 1.388 . S
Co1829 O1831 2.143 . S
Co1829 O1837 2.074 . S
Co1829 O1840 2.093 . S
Co1829 O1853 2.097 . S
Co1829 N1870 2.151 . S
Co1829 N1878 2.214 . S
Co1830 O1831 2.160 . S
Co1830 O1836 2.058 . S
Co1830 O1846 2.057 . S
Co1830 O1861 2.037 . S
Co1830 N1865 2.145 . S
Co1830 N1886 2.257 . S
O1831 Co1829 2.143 . S
O1831 Co1830 2.160 . S
C1832 O1833 1.278 . S
C1832 O1840 1.224 . S
O1833 C1832 1.278 . S
C1834 O1835 1.245 . S
C1834 O1846 1.232 . S
O1835 C1834 1.245 . S
O1836 Co1830 2.058 . S
O1836 C1862 1.269 . S
O1837 Co1829 2.074 . S
O1837 C1862 1.257 . S
H1838 C1863 0.930 . S
H1839 C1869 0.930 . S
O1840 Co1829 2.093 . S
O1840 C1832 1.224 . S
H1841 C1873 0.929 . S
H1842 C1875 0.930 . S
H1843 C1876 0.930 . S
H1844 C1874 0.929 . S
H1845 C1877 0.928 . S
O1846 Co1830 2.057 . S
O1846 C1834 1.232 . S
H1847 C1866 0.929 . S
H1848 C1867 0.929 . S
H1849 C1879 0.931 . S
H1850 C1871 0.929 . S
H1851 C1880 0.930 . S
H1852 C1872 0.931 . S
O1853 Co1829 2.097 . S
O1853 C1881 1.214 . S
H1854 C1882 0.929 . S
H1855 C1883 0.929 . S
H1856 C1884 0.930 . S
H1857 C1885 0.929 . S
H1858 C1887 0.930 . S
H1859 C1864 0.930 . S
H1860 C1868 0.930 . S
O1861 Co1830 2.037 . S
O1861 C1881 1.234 . S
C1862 O1836 1.269 . S
C1862 O1837 1.257 . S
C1863 H1838 0.930 . S
C1863 C1866 1.388 . S
C1863 C1868 1.418 . S
C1864 H1859 0.930 . S
C1864 C1867 1.404 . S
C1864 C1868 1.353 . S
N1865 Co1830 2.145 . S
N1865 C1866 1.397 . S
N1865 C1867 1.334 . S
C1866 H1847 0.929 . S
C1866 C1863 1.388 . S
C1866 N1865 1.397 . S
C1867 H1848 0.929 . S
C1867 C1864 1.404 . S
C1867 N1865 1.334 . S
C1868 H1860 0.930 . S
C1868 C1863 1.418 . S
C1868 C1864 1.353 . S
C1869 H1839 0.930 . S
C1869 N1870 1.330 . S
C1869 C1871 1.446 . S
N1870 Co1829 2.151 . S
N1870 C1869 1.330 . S
N1870 C1874 1.418 . S
C1871 H1850 0.929 . S
C1871 C1869 1.446 . S
C1871 C1872 1.332 . S
C1872 H1852 0.931 . S
C1872 C1871 1.332 . S
C1872 C1873 1.267 . S
C1873 H1841 0.929 . S
C1873 C1872 1.267 . S
C1873 C1874 1.251 . S
C1874 H1844 0.929 . S
C1874 N1870 1.418 . S
C1874 C1873 1.251 . S
C1875 H1842 0.930 . S
C1875 C1877 1.406 . S
C1875 C1880 1.261 . S
C1876 H1843 0.930 . S
C1876 N1878 1.325 . S
C1876 C1879 1.357 . S
C1877 H1845 0.928 . S
C1877 C1875 1.406 . S
C1877 N1878 1.261 . S
N1878 Co1829 2.214 . S
N1878 C1876 1.325 . S
N1878 C1877 1.261 . S
C1879 H1849 0.931 . S
C1879 C1876 1.357 . S
C1879 C1880 1.312 . S
C1880 H1851 0.930 . S
C1880 C1875 1.261 . S
C1880 C1879 1.312 . S
C1881 O1853 1.214 . S
C1881 O1861 1.234 . S
C1882 H1854 0.929 . S
C1882 C1885 1.391 . S
C1882 C1887 1.391 . S
C1883 H1855 0.929 . S
C1883 C1884 1.390 . S
C1883 N1886 1.391 . S
C1884 H1856 0.930 . S
C1884 C1883 1.390 . S
C1884 C1885 1.392 . S
C1885 H1857 0.929 . S
C1885 C1882 1.391 . S
C1885 C1884 1.392 . S
N1886 Co1830 2.257 . S
N1886 C1883 1.391 . S
N1886 C1887 1.388 . S
C1887 H1858 0.930 . S
C1887 C1882 1.391 . S
C1887 N1886 1.388 . S
Co1888 O1890 2.143 . S
Co1888 O1896 2.074 . S
Co1888 O1899 2.093 . S
Co1888 O1912 2.097 . S
Co1888 N1929 2.151 . S
Co1888 N1937 2.214 . S
Co1889 O1890 2.160 . S
Co1889 O1895 2.058 . S
Co1889 O1905 2.057 . S
Co1889 O1920 2.037 . S
Co1889 N1924 2.145 . S
Co1889 N1945 2.257 . S
O1890 Co1888 2.143 . S
O1890 Co1889 2.160 . S
C1891 O1892 1.278 . S
C1891 O1899 1.224 . S
O1892 C1891 1.278 . S
C1893 O1894 1.245 . S
C1893 O1905 1.232 . S
O1894 C1893 1.245 . S
O1895 Co1889 2.058 . S
O1895 C1921 1.269 . S
O1896 Co1888 2.074 . S
O1896 C1921 1.257 . S
H1897 C1922 0.930 . S
H1898 C1928 0.930 . S
O1899 Co1888 2.093 . S
O1899 C1891 1.224 . S
H1900 C1932 0.929 . S
H1901 C1934 0.930 . S
H1902 C1935 0.930 . S
H1903 C1933 0.929 . S
H1904 C1936 0.928 . S
O1905 Co1889 2.057 . S
O1905 C1893 1.232 . S
H1906 C1925 0.929 . S
H1907 C1926 0.929 . S
H1908 C1938 0.931 . S
H1909 C1930 0.929 . S
H1910 C1939 0.930 . S
H1911 C1931 0.931 . S
O1912 Co1888 2.097 . S
O1912 C1940 1.214 . S
H1913 C1941 0.929 . S
H1914 C1942 0.929 . S
H1915 C1943 0.930 . S
H1916 C1944 0.929 . S
H1917 C1946 0.930 . S
H1918 C1923 0.930 . S
H1919 C1927 0.930 . S
O1920 Co1889 2.037 . S
O1920 C1940 1.234 . S
C1921 O1895 1.269 . S
C1921 O1896 1.257 . S
C1922 H1897 0.930 . S
C1922 C1925 1.388 . S
C1922 C1927 1.418 . S
C1923 H1918 0.930 . S
C1923 C1926 1.404 . S
C1923 C1927 1.353 . S
N1924 Co1889 2.145 . S
N1924 C1925 1.397 . S
N1924 C1926 1.334 . S
C1925 H1906 0.929 . S
C1925 C1922 1.388 . S
C1925 N1924 1.397 . S
C1926 H1907 0.929 . S
C1926 C1923 1.404 . S
C1926 N1924 1.334 . S
C1927 H1919 0.930 . S
C1927 C1922 1.418 . S
C1927 C1923 1.353 . S
C1928 H1898 0.930 . S
C1928 N1929 1.330 . S
C1928 C1930 1.446 . S
N1929 Co1888 2.151 . S
N1929 C1928 1.330 . S
N1929 C1933 1.418 . S
C1930 H1909 0.929 . S
C1930 C1928 1.446 . S
C1930 C1931 1.332 . S
C1931 H1911 0.931 . S
C1931 C1930 1.332 . S
C1931 C1932 1.267 . S
C1932 H1900 0.929 . S
C1932 C1931 1.267 . S
C1932 C1933 1.251 . S
C1933 H1903 0.929 . S
C1933 N1929 1.418 . S
C1933 C1932 1.251 . S
C1934 H1901 0.930 . S
C1934 C1936 1.406 . S
C1934 C1939 1.261 . S
C1935 H1902 0.930 . S
C1935 N1937 1.325 . S
C1935 C1938 1.357 . S
C1936 H1904 0.928 . S
C1936 C1934 1.406 . S
C1936 N1937 1.261 . S
N1937 Co1888 2.214 . S
N1937 C1935 1.325 . S
N1937 C1936 1.261 . S
C1938 H1908 0.931 . S
C1938 C1935 1.357 . S
C1938 C1939 1.312 . S
C1939 H1910 0.930 . S
C1939 C1934 1.261 . S
C1939 C1938 1.312 . S
C1940 O1912 1.214 . S
C1940 O1920 1.234 . S
C1941 H1913 0.929 . S
C1941 C1944 1.391 . S
C1941 C1946 1.391 . S
C1942 H1914 0.929 . S
C1942 C1943 1.390 . S
C1942 N1945 1.391 . S
C1943 H1915 0.930 . S
C1943 C1942 1.390 . S
C1943 C1944 1.392 . S
C1944 H1916 0.929 . S
C1944 C1941 1.391 . S
C1944 C1943 1.392 . S
N1945 Co1889 2.257 . S
N1945 C1942 1.391 . S
N1945 C1946 1.388 . S
C1946 H1917 0.930 . S
C1946 C1941 1.391 . S
C1946 N1945 1.388 . S
Co1947 O1949 2.143 . S
Co1947 O1955 2.074 . S
Co1947 O1958 2.093 . S
Co1947 O1971 2.097 . S
Co1947 N1988 2.151 . S
Co1947 N1996 2.214 . S
Co1948 O1949 2.160 . S
Co1948 O1954 2.058 . S
Co1948 O1964 2.057 . S
Co1948 O1979 2.037 . S
Co1948 N1983 2.145 . S
Co1948 N2004 2.257 . S
O1949 Co1947 2.143 . S
O1949 Co1948 2.160 . S
C1950 O1951 1.278 . S
C1950 O1958 1.224 . S
O1951 C1950 1.278 . S
C1952 O1953 1.245 . S
C1952 O1964 1.232 . S
O1953 C1952 1.245 . S
O1954 Co1948 2.058 . S
O1954 C1980 1.269 . S
O1955 Co1947 2.074 . S
O1955 C1980 1.257 . S
H1956 C1981 0.930 . S
H1957 C1987 0.930 . S
O1958 Co1947 2.093 . S
O1958 C1950 1.224 . S
H1959 C1991 0.929 . S
H1960 C1993 0.930 . S
H1961 C1994 0.930 . S
H1962 C1992 0.929 . S
H1963 C1995 0.928 . S
O1964 Co1948 2.057 . S
O1964 C1952 1.232 . S
H1965 C1984 0.929 . S
H1966 C1985 0.929 . S
H1967 C1997 0.931 . S
H1968 C1989 0.929 . S
H1969 C1998 0.930 . S
H1970 C1990 0.931 . S
O1971 Co1947 2.097 . S
O1971 C1999 1.214 . S
H1972 C2000 0.929 . S
H1973 C2001 0.929 . S
H1974 C2002 0.930 . S
H1975 C2003 0.929 . S
H1976 C2005 0.930 . S
H1977 C1982 0.930 . S
H1978 C1986 0.930 . S
O1979 Co1948 2.037 . S
O1979 C1999 1.234 . S
C1980 O1954 1.269 . S
C1980 O1955 1.257 . S
C1981 H1956 0.930 . S
C1981 C1984 1.388 . S
C1981 C1986 1.418 . S
C1982 H1977 0.930 . S
C1982 C1985 1.404 . S
C1982 C1986 1.353 . S
N1983 Co1948 2.145 . S
N1983 C1984 1.397 . S
N1983 C1985 1.334 . S
C1984 H1965 0.929 . S
C1984 C1981 1.388 . S
C1984 N1983 1.397 . S
C1985 H1966 0.929 . S
C1985 C1982 1.404 . S
C1985 N1983 1.334 . S
C1986 H1978 0.930 . S
C1986 C1981 1.418 . S
C1986 C1982 1.353 . S
C1987 H1957 0.930 . S
C1987 N1988 1.330 . S
C1987 C1989 1.446 . S
N1988 Co1947 2.151 . S
N1988 C1987 1.330 . S
N1988 C1992 1.418 . S
C1989 H1968 0.929 . S
C1989 C1987 1.446 . S
C1989 C1990 1.332 . S
C1990 H1970 0.931 . S
C1990 C1989 1.332 . S
C1990 C1991 1.267 . S
C1991 H1959 0.929 . S
C1991 C1990 1.267 . S
C1991 C1992 1.251 . S
C1992 H1962 0.929 . S
C1992 N1988 1.418 . S
C1992 C1991 1.251 . S
C1993 H1960 0.930 . S
C1993 C1995 1.406 . S
C1993 C1998 1.261 . S
C1994 H1961 0.930 . S
C1994 N1996 1.325 . S
C1994 C1997 1.357 . S
C1995 H1963 0.928 . S
C1995 C1993 1.406 . S
C1995 N1996 1.261 . S
N1996 Co1947 2.214 . S
N1996 C1994 1.325 . S
N1996 C1995 1.261 . S
C1997 H1967 0.931 . S
C1997 C1994 1.357 . S
C1997 C1998 1.312 . S
C1998 H1969 0.930 . S
C1998 C1993 1.261 . S
C1998 C1997 1.312 . S
C1999 O1971 1.214 . S
C1999 O1979 1.234 . S
C2000 H1972 0.929 . S
C2000 C2003 1.391 . S
C2000 C2005 1.391 . S
C2001 H1973 0.929 . S
C2001 C2002 1.390 . S
C2001 N2004 1.391 . S
C2002 H1974 0.930 . S
C2002 C2001 1.390 . S
C2002 C2003 1.392 . S
C2003 H1975 0.929 . S
C2003 C2000 1.391 . S
C2003 C2002 1.392 . S
N2004 Co1948 2.257 . S
N2004 C2001 1.391 . S
N2004 C2005 1.388 . S
C2005 H1976 0.930 . S
C2005 C2000 1.391 . S
C2005 N2004 1.388 . S
Co2006 O2008 2.143 . S
Co2006 O2014 2.074 . S
Co2006 O2017 2.093 . S
Co2006 O2030 2.097 . S
Co2006 N2047 2.151 . S
Co2006 N2055 2.214 . S
Co2007 O2008 2.160 . S
Co2007 O2013 2.058 . S
Co2007 O2023 2.057 . S
Co2007 O2038 2.037 . S
Co2007 N2042 2.145 . S
Co2007 N2063 2.257 . S
O2008 Co2006 2.143 . S
O2008 Co2007 2.160 . S
C2009 O2010 1.278 . S
C2009 O2017 1.224 . S
O2010 C2009 1.278 . S
C2011 O2012 1.245 . S
C2011 O2023 1.232 . S
O2012 C2011 1.245 . S
O2013 Co2007 2.058 . S
O2013 C2039 1.269 . S
O2014 Co2006 2.074 . S
O2014 C2039 1.257 . S
H2015 C2040 0.930 . S
H2016 C2046 0.930 . S
O2017 Co2006 2.093 . S
O2017 C2009 1.224 . S
H2018 C2050 0.929 . S
H2019 C2052 0.930 . S
H2020 C2053 0.930 . S
H2021 C2051 0.929 . S
H2022 C2054 0.928 . S
O2023 Co2007 2.057 . S
O2023 C2011 1.232 . S
H2024 C2043 0.929 . S
H2025 C2044 0.929 . S
H2026 C2056 0.931 . S
H2027 C2048 0.929 . S
H2028 C2057 0.930 . S
H2029 C2049 0.931 . S
O2030 Co2006 2.097 . S
O2030 C2058 1.214 . S
H2031 C2059 0.929 . S
H2032 C2060 0.929 . S
H2033 C2061 0.930 . S
H2034 C2062 0.929 . S
H2035 C2064 0.930 . S
H2036 C2041 0.930 . S
H2037 C2045 0.930 . S
O2038 Co2007 2.037 . S
O2038 C2058 1.234 . S
C2039 O2013 1.269 . S
C2039 O2014 1.257 . S
C2040 H2015 0.930 . S
C2040 C2043 1.388 . S
C2040 C2045 1.418 . S
C2041 H2036 0.930 . S
C2041 C2044 1.404 . S
C2041 C2045 1.353 . S
N2042 Co2007 2.145 . S
N2042 C2043 1.397 . S
N2042 C2044 1.334 . S
C2043 H2024 0.929 . S
C2043 C2040 1.388 . S
C2043 N2042 1.397 . S
C2044 H2025 0.929 . S
C2044 C2041 1.404 . S
C2044 N2042 1.334 . S
C2045 H2037 0.930 . S
C2045 C2040 1.418 . S
C2045 C2041 1.353 . S
C2046 H2016 0.930 . S
C2046 N2047 1.330 . S
C2046 C2048 1.446 . S
N2047 Co2006 2.151 . S
N2047 C2046 1.330 . S
N2047 C2051 1.418 . S
C2048 H2027 0.929 . S
C2048 C2046 1.446 . S
C2048 C2049 1.332 . S
C2049 H2029 0.931 . S
C2049 C2048 1.332 . S
C2049 C2050 1.267 . S
C2050 H2018 0.929 . S
C2050 C2049 1.267 . S
C2050 C2051 1.251 . S
C2051 H2021 0.929 . S
C2051 N2047 1.418 . S
C2051 C2050 1.251 . S
C2052 H2019 0.930 . S
C2052 C2054 1.406 . S
C2052 C2057 1.261 . S
C2053 H2020 0.930 . S
C2053 N2055 1.325 . S
C2053 C2056 1.357 . S
C2054 H2022 0.928 . S
C2054 C2052 1.406 . S
C2054 N2055 1.261 . S
N2055 Co2006 2.214 . S
N2055 C2053 1.325 . S
N2055 C2054 1.261 . S
C2056 H2026 0.931 . S
C2056 C2053 1.357 . S
C2056 C2057 1.312 . S
C2057 H2028 0.930 . S
C2057 C2052 1.261 . S
C2057 C2056 1.312 . S
C2058 O2030 1.214 . S
C2058 O2038 1.234 . S
C2059 H2031 0.929 . S
C2059 C2062 1.391 . S
C2059 C2064 1.391 . S
C2060 H2032 0.929 . S
C2060 C2061 1.390 . S
C2060 N2063 1.391 . S
C2061 H2033 0.930 . S
C2061 C2060 1.390 . S
C2061 C2062 1.392 . S
C2062 H2034 0.929 . S
C2062 C2059 1.391 . S
C2062 C2061 1.392 . S
N2063 Co2007 2.257 . S
N2063 C2060 1.391 . S
N2063 C2064 1.388 . S
C2064 H2035 0.930 . S
C2064 C2059 1.391 . S
C2064 N2063 1.388 . S
Co2065 O2067 2.143 . S
Co2065 O2073 2.074 . S
Co2065 O2076 2.093 . S
Co2065 O2089 2.097 . S
Co2065 N2106 2.151 . S
Co2065 N2114 2.214 . S
Co2066 O2067 2.160 . S
Co2066 O2072 2.058 . S
Co2066 O2082 2.057 . S
Co2066 O2097 2.037 . S
Co2066 N2101 2.145 . S
Co2066 N2122 2.257 . S
O2067 Co2065 2.143 . S
O2067 Co2066 2.160 . S
C2068 O2069 1.278 . S
C2068 O2076 1.224 . S
O2069 C2068 1.278 . S
C2070 O2071 1.245 . S
C2070 O2082 1.232 . S
O2071 C2070 1.245 . S
O2072 Co2066 2.058 . S
O2072 C2098 1.269 . S
O2073 Co2065 2.074 . S
O2073 C2098 1.257 . S
H2074 C2099 0.930 . S
H2075 C2105 0.930 . S
O2076 Co2065 2.093 . S
O2076 C2068 1.224 . S
H2077 C2109 0.929 . S
H2078 C2111 0.930 . S
H2079 C2112 0.930 . S
H2080 C2110 0.929 . S
H2081 C2113 0.928 . S
O2082 Co2066 2.057 . S
O2082 C2070 1.232 . S
H2083 C2102 0.929 . S
H2084 C2103 0.929 . S
H2085 C2115 0.931 . S
H2086 C2107 0.929 . S
H2087 C2116 0.930 . S
H2088 C2108 0.931 . S
O2089 Co2065 2.097 . S
O2089 C2117 1.214 . S
H2090 C2118 0.929 . S
H2091 C2119 0.929 . S
H2092 C2120 0.930 . S
H2093 C2121 0.929 . S
H2094 C2123 0.930 . S
H2095 C2100 0.930 . S
H2096 C2104 0.930 . S
O2097 Co2066 2.037 . S
O2097 C2117 1.234 . S
C2098 O2072 1.269 . S
C2098 O2073 1.257 . S
C2099 H2074 0.930 . S
C2099 C2102 1.388 . S
C2099 C2104 1.418 . S
C2100 H2095 0.930 . S
C2100 C2103 1.404 . S
C2100 C2104 1.353 . S
N2101 Co2066 2.145 . S
N2101 C2102 1.397 . S
N2101 C2103 1.334 . S
C2102 H2083 0.929 . S
C2102 C2099 1.388 . S
C2102 N2101 1.397 . S
C2103 H2084 0.929 . S
C2103 C2100 1.404 . S
C2103 N2101 1.334 . S
C2104 H2096 0.930 . S
C2104 C2099 1.418 . S
C2104 C2100 1.353 . S
C2105 H2075 0.930 . S
C2105 N2106 1.330 . S
C2105 C2107 1.446 . S
N2106 Co2065 2.151 . S
N2106 C2105 1.330 . S
N2106 C2110 1.418 . S
C2107 H2086 0.929 . S
C2107 C2105 1.446 . S
C2107 C2108 1.332 . S
C2108 H2088 0.931 . S
C2108 C2107 1.332 . S
C2108 C2109 1.267 . S
C2109 H2077 0.929 . S
C2109 C2108 1.267 . S
C2109 C2110 1.251 . S
C2110 H2080 0.929 . S
C2110 N2106 1.418 . S
C2110 C2109 1.251 . S
C2111 H2078 0.930 . S
C2111 C2113 1.406 . S
C2111 C2116 1.261 . S
C2112 H2079 0.930 . S
C2112 N2114 1.325 . S
C2112 C2115 1.357 . S
C2113 H2081 0.928 . S
C2113 C2111 1.406 . S
C2113 N2114 1.261 . S
N2114 Co2065 2.214 . S
N2114 C2112 1.325 . S
N2114 C2113 1.261 . S
C2115 H2085 0.931 . S
C2115 C2112 1.357 . S
C2115 C2116 1.312 . S
C2116 H2087 0.930 . S
C2116 C2111 1.261 . S
C2116 C2115 1.312 . S
C2117 O2089 1.214 . S
C2117 O2097 1.234 . S
C2118 H2090 0.929 . S
C2118 C2121 1.391 . S
C2118 C2123 1.391 . S
C2119 H2091 0.929 . S
C2119 C2120 1.390 . S
C2119 N2122 1.391 . S
C2120 H2092 0.930 . S
C2120 C2119 1.390 . S
C2120 C2121 1.392 . S
C2121 H2093 0.929 . S
C2121 C2118 1.391 . S
C2121 C2120 1.392 . S
N2122 Co2066 2.257 . S
N2122 C2119 1.391 . S
N2122 C2123 1.388 . S
C2123 H2094 0.930 . S
C2123 C2118 1.391 . S
C2123 N2122 1.388 . S
Co2124 O2126 2.143 . S
Co2124 O2132 2.074 . S
Co2124 O2135 2.093 . S
Co2124 O2148 2.097 . S
Co2124 N2165 2.151 . S
Co2124 N2173 2.214 . S
Co2125 O2126 2.160 . S
Co2125 O2131 2.058 . S
Co2125 O2141 2.057 . S
Co2125 O2156 2.037 . S
Co2125 N2160 2.145 . S
Co2125 N2181 2.257 . S
O2126 Co2124 2.143 . S
O2126 Co2125 2.160 . S
C2127 O2128 1.278 . S
C2127 O2135 1.224 . S
O2128 C2127 1.278 . S
C2129 O2130 1.245 . S
C2129 O2141 1.232 . S
O2130 C2129 1.245 . S
O2131 Co2125 2.058 . S
O2131 C2157 1.269 . S
O2132 Co2124 2.074 . S
O2132 C2157 1.257 . S
H2133 C2158 0.930 . S
H2134 C2164 0.930 . S
O2135 Co2124 2.093 . S
O2135 C2127 1.224 . S
H2136 C2168 0.929 . S
H2137 C2170 0.930 . S
H2138 C2171 0.930 . S
H2139 C2169 0.929 . S
H2140 C2172 0.928 . S
O2141 Co2125 2.057 . S
O2141 C2129 1.232 . S
H2142 C2161 0.929 . S
H2143 C2162 0.929 . S
H2144 C2174 0.931 . S
H2145 C2166 0.929 . S
H2146 C2175 0.930 . S
H2147 C2167 0.931 . S
O2148 Co2124 2.097 . S
O2148 C2176 1.214 . S
H2149 C2177 0.929 . S
H2150 C2178 0.929 . S
H2151 C2179 0.930 . S
H2152 C2180 0.929 . S
H2153 C2182 0.930 . S
H2154 C2159 0.930 . S
H2155 C2163 0.930 . S
O2156 Co2125 2.037 . S
O2156 C2176 1.234 . S
C2157 O2131 1.269 . S
C2157 O2132 1.257 . S
C2158 H2133 0.930 . S
C2158 C2161 1.388 . S
C2158 C2163 1.418 . S
C2159 H2154 0.930 . S
C2159 C2162 1.404 . S
C2159 C2163 1.353 . S
N2160 Co2125 2.145 . S
N2160 C2161 1.397 . S
N2160 C2162 1.334 . S
C2161 H2142 0.929 . S
C2161 C2158 1.388 . S
C2161 N2160 1.397 . S
C2162 H2143 0.929 . S
C2162 C2159 1.404 . S
C2162 N2160 1.334 . S
C2163 H2155 0.930 . S
C2163 C2158 1.418 . S
C2163 C2159 1.353 . S
C2164 H2134 0.930 . S
C2164 N2165 1.330 . S
C2164 C2166 1.446 . S
N2165 Co2124 2.151 . S
N2165 C2164 1.330 . S
N2165 C2169 1.418 . S
C2166 H2145 0.929 . S
C2166 C2164 1.446 . S
C2166 C2167 1.332 . S
C2167 H2147 0.931 . S
C2167 C2166 1.332 . S
C2167 C2168 1.267 . S
C2168 H2136 0.929 . S
C2168 C2167 1.267 . S
C2168 C2169 1.251 . S
C2169 H2139 0.929 . S
C2169 N2165 1.418 . S
C2169 C2168 1.251 . S
C2170 H2137 0.930 . S
C2170 C2172 1.406 . S
C2170 C2175 1.261 . S
C2171 H2138 0.930 . S
C2171 N2173 1.325 . S
C2171 C2174 1.357 . S
C2172 H2140 0.928 . S
C2172 C2170 1.406 . S
C2172 N2173 1.261 . S
N2173 Co2124 2.214 . S
N2173 C2171 1.325 . S
N2173 C2172 1.261 . S
C2174 H2144 0.931 . S
C2174 C2171 1.357 . S
C2174 C2175 1.312 . S
C2175 H2146 0.930 . S
C2175 C2170 1.261 . S
C2175 C2174 1.312 . S
C2176 O2148 1.214 . S
C2176 O2156 1.234 . S
C2177 H2149 0.929 . S
C2177 C2180 1.391 . S
C2177 C2182 1.391 . S
C2178 H2150 0.929 . S
C2178 C2179 1.390 . S
C2178 N2181 1.391 . S
C2179 H2151 0.930 . S
C2179 C2178 1.390 . S
C2179 C2180 1.392 . S
C2180 H2152 0.929 . S
C2180 C2177 1.391 . S
C2180 C2179 1.392 . S
N2181 Co2125 2.257 . S
N2181 C2178 1.391 . S
N2181 C2182 1.388 . S
C2182 H2153 0.930 . S
C2182 C2177 1.391 . S
C2182 N2181 1.388 . S
Co2183 O2185 2.143 . S
Co2183 O2191 2.074 . S
Co2183 O2194 2.093 . S
Co2183 O2207 2.097 . S
Co2183 N2224 2.151 . S
Co2183 N2232 2.214 . S
Co2184 O2185 2.160 . S
Co2184 O2190 2.058 . S
Co2184 O2200 2.057 . S
Co2184 O2215 2.037 . S
Co2184 N2219 2.145 . S
Co2184 N2240 2.257 . S
O2185 Co2183 2.143 . S
O2185 Co2184 2.160 . S
C2186 O2187 1.278 . S
C2186 O2194 1.224 . S
O2187 C2186 1.278 . S
C2188 O2189 1.245 . S
C2188 O2200 1.232 . S
O2189 C2188 1.245 . S
O2190 Co2184 2.058 . S
O2190 C2216 1.269 . S
O2191 Co2183 2.074 . S
O2191 C2216 1.257 . S
H2192 C2217 0.930 . S
H2193 C2223 0.930 . S
O2194 Co2183 2.093 . S
O2194 C2186 1.224 . S
H2195 C2227 0.929 . S
H2196 C2229 0.930 . S
H2197 C2230 0.930 . S
H2198 C2228 0.929 . S
H2199 C2231 0.928 . S
O2200 Co2184 2.057 . S
O2200 C2188 1.232 . S
H2201 C2220 0.929 . S
H2202 C2221 0.929 . S
H2203 C2233 0.931 . S
H2204 C2225 0.929 . S
H2205 C2234 0.930 . S
H2206 C2226 0.931 . S
O2207 Co2183 2.097 . S
O2207 C2235 1.214 . S
H2208 C2236 0.929 . S
H2209 C2237 0.929 . S
H2210 C2238 0.930 . S
H2211 C2239 0.929 . S
H2212 C2241 0.930 . S
H2213 C2218 0.930 . S
H2214 C2222 0.930 . S
O2215 Co2184 2.037 . S
O2215 C2235 1.234 . S
C2216 O2190 1.269 . S
C2216 O2191 1.257 . S
C2217 H2192 0.930 . S
C2217 C2220 1.388 . S
C2217 C2222 1.418 . S
C2218 H2213 0.930 . S
C2218 C2221 1.404 . S
C2218 C2222 1.353 . S
N2219 Co2184 2.145 . S
N2219 C2220 1.397 . S
N2219 C2221 1.334 . S
C2220 H2201 0.929 . S
C2220 C2217 1.388 . S
C2220 N2219 1.397 . S
C2221 H2202 0.929 . S
C2221 C2218 1.404 . S
C2221 N2219 1.334 . S
C2222 H2214 0.930 . S
C2222 C2217 1.418 . S
C2222 C2218 1.353 . S
C2223 H2193 0.930 . S
C2223 N2224 1.330 . S
C2223 C2225 1.446 . S
N2224 Co2183 2.151 . S
N2224 C2223 1.330 . S
N2224 C2228 1.418 . S
C2225 H2204 0.929 . S
C2225 C2223 1.446 . S
C2225 C2226 1.332 . S
C2226 H2206 0.931 . S
C2226 C2225 1.332 . S
C2226 C2227 1.267 . S
C2227 H2195 0.929 . S
C2227 C2226 1.267 . S
C2227 C2228 1.251 . S
C2228 H2198 0.929 . S
C2228 N2224 1.418 . S
C2228 C2227 1.251 . S
C2229 H2196 0.930 . S
C2229 C2231 1.406 . S
C2229 C2234 1.261 . S
C2230 H2197 0.930 . S
C2230 N2232 1.325 . S
C2230 C2233 1.357 . S
C2231 H2199 0.928 . S
C2231 C2229 1.406 . S
C2231 N2232 1.261 . S
N2232 Co2183 2.214 . S
N2232 C2230 1.325 . S
N2232 C2231 1.261 . S
C2233 H2203 0.931 . S
C2233 C2230 1.357 . S
C2233 C2234 1.312 . S
C2234 H2205 0.930 . S
C2234 C2229 1.261 . S
C2234 C2233 1.312 . S
C2235 O2207 1.214 . S
C2235 O2215 1.234 . S
C2236 H2208 0.929 . S
C2236 C2239 1.391 . S
C2236 C2241 1.391 . S
C2237 H2209 0.929 . S
C2237 C2238 1.390 . S
C2237 N2240 1.391 . S
C2238 H2210 0.930 . S
C2238 C2237 1.390 . S
C2238 C2239 1.392 . S
C2239 H2211 0.929 . S
C2239 C2236 1.391 . S
C2239 C2238 1.392 . S
N2240 Co2184 2.257 . S
N2240 C2237 1.391 . S
N2240 C2241 1.388 . S
C2241 H2212 0.930 . S
C2241 C2236 1.391 . S
C2241 N2240 1.388 . S
Co2242 O2244 2.143 . S
Co2242 O2250 2.074 . S
Co2242 O2253 2.093 . S
Co2242 O2266 2.097 . S
Co2242 N2283 2.151 . S
Co2242 N2291 2.214 . S
Co2243 O2244 2.160 . S
Co2243 O2249 2.058 . S
Co2243 O2259 2.057 . S
Co2243 O2274 2.037 . S
Co2243 N2278 2.145 . S
Co2243 N2299 2.257 . S
O2244 Co2242 2.143 . S
O2244 Co2243 2.160 . S
C2245 O2246 1.278 . S
C2245 O2253 1.224 . S
O2246 C2245 1.278 . S
C2247 O2248 1.245 . S
C2247 O2259 1.232 . S
O2248 C2247 1.245 . S
O2249 Co2243 2.058 . S
O2249 C2275 1.269 . S
O2250 Co2242 2.074 . S
O2250 C2275 1.257 . S
H2251 C2276 0.930 . S
H2252 C2282 0.930 . S
O2253 Co2242 2.093 . S
O2253 C2245 1.224 . S
H2254 C2286 0.929 . S
H2255 C2288 0.930 . S
H2256 C2289 0.930 . S
H2257 C2287 0.929 . S
H2258 C2290 0.928 . S
O2259 Co2243 2.057 . S
O2259 C2247 1.232 . S
H2260 C2279 0.929 . S
H2261 C2280 0.929 . S
H2262 C2292 0.931 . S
H2263 C2284 0.929 . S
H2264 C2293 0.930 . S
H2265 C2285 0.931 . S
O2266 Co2242 2.097 . S
O2266 C2294 1.214 . S
H2267 C2295 0.929 . S
H2268 C2296 0.929 . S
H2269 C2297 0.930 . S
H2270 C2298 0.929 . S
H2271 C2300 0.930 . S
H2272 C2277 0.930 . S
H2273 C2281 0.882 1_556 S
O2274 Co2243 2.037 . S
O2274 C2294 1.234 . S
C2275 O2249 1.269 . S
C2275 O2250 1.257 . S
C2276 H2251 0.930 . S
C2276 C2279 1.388 . S
C2276 C2281 1.418 . S
C2277 H2272 0.930 . S
C2277 C2280 1.404 . S
C2277 C2281 1.353 . S
N2278 Co2243 2.145 . S
N2278 C2279 1.397 . S
N2278 C2280 1.334 . S
C2279 H2260 0.929 . S
C2279 C2276 1.388 . S
C2279 N2278 1.397 . S
C2280 H2261 0.929 . S
C2280 C2277 1.404 . S
C2280 N2278 1.334 . S
C2281 H2273 0.882 1_554 S
C2281 C2276 1.418 . S
C2281 C2277 1.353 . S
C2282 H2252 0.930 . S
C2282 N2283 1.330 . S
C2282 C2284 1.446 . S
N2283 Co2242 2.151 . S
N2283 C2282 1.330 . S
N2283 C2287 1.418 . S
C2284 H2263 0.929 . S
C2284 C2282 1.446 . S
C2284 C2285 1.332 . S
C2285 H2265 0.931 . S
C2285 C2284 1.332 . S
C2285 C2286 1.267 . S
C2286 H2254 0.929 . S
C2286 C2285 1.267 . S
C2286 C2287 1.251 . S
C2287 H2257 0.929 . S
C2287 N2283 1.418 . S
C2287 C2286 1.251 . S
C2288 H2255 0.930 . S
C2288 C2290 1.406 . S
C2288 C2293 1.261 . S
C2289 H2256 0.930 . S
C2289 N2291 1.325 . S
C2289 C2292 1.357 . S
C2290 H2258 0.928 . S
C2290 C2288 1.406 . S
C2290 N2291 1.261 . S
N2291 Co2242 2.214 . S
N2291 C2289 1.325 . S
N2291 C2290 1.261 . S
C2292 H2262 0.931 . S
C2292 C2289 1.357 . S
C2292 C2293 1.312 . S
C2293 H2264 0.930 . S
C2293 C2288 1.261 . S
C2293 C2292 1.312 . S
C2294 O2266 1.214 . S
C2294 O2274 1.234 . S
C2295 H2267 0.929 . S
C2295 C2298 1.391 . S
C2295 C2300 1.391 . S
C2296 H2268 0.929 . S
C2296 C2297 1.390 . S
C2296 N2299 1.391 . S
C2297 H2269 0.930 . S
C2297 C2296 1.390 . S
C2297 C2298 1.392 . S
C2298 H2270 0.929 . S
C2298 C2295 1.391 . S
C2298 C2297 1.392 . S
N2299 Co2243 2.257 . S
N2299 C2296 1.391 . S
N2299 C2300 1.388 . S
C2300 H2271 0.930 . S
C2300 C2295 1.391 . S
C2300 N2299 1.388 . S
Co2301 O2303 2.143 . S
Co2301 O2309 2.074 . S
Co2301 O2312 2.093 . S
Co2301 O2325 2.097 . S
Co2301 N2342 2.151 . S
Co2301 N2350 2.214 . S
Co2302 O2303 2.160 . S
Co2302 O2308 2.058 . S
Co2302 O2318 2.057 . S
Co2302 O2333 2.037 . S
Co2302 N2337 2.145 . S
Co2302 N2358 2.257 . S
O2303 Co2301 2.143 . S
O2303 Co2302 2.160 . S
C2304 O2305 1.278 . S
C2304 O2312 1.224 . S
O2305 C2304 1.278 . S
C2306 O2307 1.245 . S
C2306 O2318 1.232 . S
O2307 C2306 1.245 . S
O2308 Co2302 2.058 . S
O2308 C2334 1.269 . S
O2309 Co2301 2.074 . S
O2309 C2334 1.257 . S
H2310 C2335 0.930 . S
H2311 C2341 0.930 . S
O2312 Co2301 2.093 . S
O2312 C2304 1.224 . S
H2313 C2345 0.929 . S
H2314 C2347 0.930 . S
H2315 C2348 0.930 . S
H2316 C2346 0.929 . S
H2317 C2349 0.928 . S
O2318 Co2302 2.057 . S
O2318 C2306 1.232 . S
H2319 C2338 0.929 . S
H2320 C2339 0.929 . S
H2321 C2351 0.931 . S
H2322 C2343 0.929 . S
H2323 C2352 0.930 . S
H2324 C2344 0.931 . S
O2325 Co2301 2.097 . S
O2325 C2353 1.214 . S
H2326 C2354 0.929 . S
H2327 C2355 0.929 . S
H2328 C2356 0.930 . S
H2329 C2357 0.929 . S
H2330 C2359 0.930 . S
H2331 C2336 0.930 . S
H2332 C2340 0.930 . S
O2333 Co2302 2.037 . S
O2333 C2353 1.234 . S
C2334 O2308 1.269 . S
C2334 O2309 1.257 . S
C2335 H2310 0.930 . S
C2335 C2338 1.388 . S
C2335 C2340 1.418 . S
C2336 H2331 0.930 . S
C2336 C2339 1.404 . S
C2336 C2340 1.353 . S
N2337 Co2302 2.145 . S
N2337 C2338 1.397 . S
N2337 C2339 1.334 . S
C2338 H2319 0.929 . S
C2338 C2335 1.388 . S
C2338 N2337 1.397 . S
C2339 H2320 0.929 . S
C2339 C2336 1.404 . S
C2339 N2337 1.334 . S
C2340 H2332 0.930 . S
C2340 C2335 1.418 . S
C2340 C2336 1.353 . S
C2341 H2311 0.930 . S
C2341 N2342 1.330 . S
C2341 C2343 1.446 . S
N2342 Co2301 2.151 . S
N2342 C2341 1.330 . S
N2342 C2346 1.418 . S
C2343 H2322 0.929 . S
C2343 C2341 1.446 . S
C2343 C2344 1.332 . S
C2344 H2324 0.931 . S
C2344 C2343 1.332 . S
C2344 C2345 1.267 . S
C2345 H2313 0.929 . S
C2345 C2344 1.267 . S
C2345 C2346 1.251 . S
C2346 H2316 0.929 . S
C2346 N2342 1.418 . S
C2346 C2345 1.251 . S
C2347 H2314 0.930 . S
C2347 C2349 1.406 . S
C2347 C2352 1.261 . S
C2348 H2315 0.930 . S
C2348 N2350 1.325 . S
C2348 C2351 1.357 . S
C2349 H2317 0.928 . S
C2349 C2347 1.406 . S
C2349 N2350 1.261 . S
N2350 Co2301 2.214 . S
N2350 C2348 1.325 . S
N2350 C2349 1.261 . S
C2351 H2321 0.931 . S
C2351 C2348 1.357 . S
C2351 C2352 1.312 . S
C2352 H2323 0.930 . S
C2352 C2347 1.261 . S
C2352 C2351 1.312 . S
C2353 O2325 1.214 . S
C2353 O2333 1.234 . S
C2354 H2326 0.929 . S
C2354 C2357 1.391 . S
C2354 C2359 1.391 . S
C2355 H2327 0.929 . S
C2355 C2356 1.390 . S
C2355 N2358 1.391 . S
C2356 H2328 0.930 . S
C2356 C2355 1.390 . S
C2356 C2357 1.392 . S
C2357 H2329 0.929 . S
C2357 C2354 1.391 . S
C2357 C2356 1.392 . S
N2358 Co2302 2.257 . S
N2358 C2355 1.391 . S
N2358 C2359 1.388 . S
C2359 H2330 0.930 . S
C2359 C2354 1.391 . S
C2359 N2358 1.388 . S
Co2360 O2362 2.143 . S
Co2360 O2368 2.074 . S
Co2360 O2371 2.093 . S
Co2360 O2384 2.097 . S
Co2360 N2401 2.151 . S
Co2360 N2409 2.214 . S
Co2361 O2362 2.160 . S
Co2361 O2367 2.058 . S
Co2361 O2377 2.057 . S
Co2361 O2392 2.037 . S
Co2361 N2396 2.145 . S
Co2361 N2417 2.257 . S
O2362 Co2360 2.143 . S
O2362 Co2361 2.160 . S
C2363 O2364 1.278 . S
C2363 O2371 1.224 . S
O2364 C2363 1.278 . S
C2365 O2366 1.245 . S
C2365 O2377 1.232 . S
O2366 C2365 1.245 . S
O2367 Co2361 2.058 . S
O2367 C2393 1.269 . S
O2368 Co2360 2.074 . S
O2368 C2393 1.257 . S
H2369 C2394 0.930 . S
H2370 C2400 0.930 . S
O2371 Co2360 2.093 . S
O2371 C2363 1.224 . S
H2372 C2404 0.929 . S
H2373 C2406 0.930 . S
H2374 C2407 0.930 . S
H2375 C2405 0.929 . S
H2376 C2408 0.928 . S
O2377 Co2361 2.057 . S
O2377 C2365 1.232 . S
H2378 C2397 0.929 . S
H2379 C2398 0.929 . S
H2380 C2410 0.931 . S
H2381 C2402 0.929 . S
H2382 C2411 0.930 . S
H2383 C2403 0.931 . S
O2384 Co2360 2.097 . S
O2384 C2412 1.214 . S
H2385 C2413 0.929 . S
H2386 C2414 0.929 . S
H2387 C2415 0.930 . S
H2388 C2416 0.929 . S
H2389 C2418 0.930 . S
H2390 C2395 0.930 . S
H2391 C2399 0.930 . S
O2392 Co2361 2.037 . S
O2392 C2412 1.234 . S
C2393 O2367 1.269 . S
C2393 O2368 1.257 . S
C2394 H2369 0.930 . S
C2394 C2397 1.388 . S
C2394 C2399 1.418 . S
C2395 H2390 0.930 . S
C2395 C2398 1.404 . S
C2395 C2399 1.353 . S
N2396 Co2361 2.145 . S
N2396 C2397 1.397 . S
N2396 C2398 1.334 . S
C2397 H2378 0.929 . S
C2397 C2394 1.388 . S
C2397 N2396 1.397 . S
C2398 H2379 0.929 . S
C2398 C2395 1.404 . S
C2398 N2396 1.334 . S
C2399 H2391 0.930 . S
C2399 C2394 1.418 . S
C2399 C2395 1.353 . S
C2400 H2370 0.930 . S
C2400 N2401 1.330 . S
C2400 C2402 1.446 . S
N2401 Co2360 2.151 . S
N2401 C2400 1.330 . S
N2401 C2405 1.418 . S
C2402 H2381 0.929 . S
C2402 C2400 1.446 . S
C2402 C2403 1.332 . S
C2403 H2383 0.931 . S
C2403 C2402 1.332 . S
C2403 C2404 1.267 . S
C2404 H2372 0.929 . S
C2404 C2403 1.267 . S
C2404 C2405 1.251 . S
C2405 H2375 0.929 . S
C2405 N2401 1.418 . S
C2405 C2404 1.251 . S
C2406 H2373 0.930 . S
C2406 C2408 1.406 . S
C2406 C2411 1.261 . S
C2407 H2374 0.930 . S
C2407 N2409 1.325 . S
C2407 C2410 1.357 . S
C2408 H2376 0.928 . S
C2408 C2406 1.406 . S
C2408 N2409 1.261 . S
N2409 Co2360 2.214 . S
N2409 C2407 1.325 . S
N2409 C2408 1.261 . S
C2410 H2380 0.931 . S
C2410 C2407 1.357 . S
C2410 C2411 1.312 . S
C2411 H2382 0.930 . S
C2411 C2406 1.261 . S
C2411 C2410 1.312 . S
C2412 O2384 1.214 . S
C2412 O2392 1.234 . S
C2413 H2385 0.929 . S
C2413 C2416 1.391 . S
C2413 C2418 1.391 . S
C2414 H2386 0.929 . S
C2414 C2415 1.390 . S
C2414 N2417 1.391 . S
C2415 H2387 0.930 . S
C2415 C2414 1.390 . S
C2415 C2416 1.392 . S
C2416 H2388 0.929 . S
C2416 C2413 1.391 . S
C2416 C2415 1.392 . S
N2417 Co2361 2.257 . S
N2417 C2414 1.391 . S
N2417 C2418 1.388 . S
C2418 H2389 0.930 . S
C2418 C2413 1.391 . S
C2418 N2417 1.388 . S
Co2419 O2421 2.143 . S
Co2419 O2427 2.074 . S
Co2419 O2430 2.093 . S
Co2419 O2443 2.097 . S
Co2419 N2460 2.151 . S
Co2419 N2468 2.214 . S
Co2420 O2421 2.160 . S
Co2420 O2426 2.058 . S
Co2420 O2436 2.057 . S
Co2420 O2451 2.037 . S
Co2420 N2455 2.145 . S
Co2420 N2476 2.257 . S
O2421 Co2419 2.143 . S
O2421 Co2420 2.160 . S
C2422 O2423 1.278 . S
C2422 O2430 1.224 . S
O2423 C2422 1.278 . S
C2424 O2425 1.245 . S
C2424 O2436 1.232 . S
O2425 C2424 1.245 . S
O2426 Co2420 2.058 . S
O2426 C2452 1.269 . S
O2427 Co2419 2.074 . S
O2427 C2452 1.257 . S
H2428 C2453 0.930 . S
H2429 C2459 0.930 . S
O2430 Co2419 2.093 . S
O2430 C2422 1.224 . S
H2431 C2463 0.929 . S
H2432 C2465 0.930 . S
H2433 C2466 0.930 . S
H2434 C2464 0.929 . S
H2435 C2467 0.928 . S
O2436 Co2420 2.057 . S
O2436 C2424 1.232 . S
H2437 C2456 0.929 . S
H2438 C2457 0.929 . S
H2439 C2469 0.931 . S
H2440 C2461 0.929 . S
H2441 C2470 0.930 . S
H2442 C2462 0.931 . S
O2443 Co2419 2.097 . S
O2443 C2471 1.214 . S
H2444 C2472 0.929 . S
H2445 C2473 0.929 . S
H2446 C2474 0.930 . S
H2447 C2475 0.929 . S
H2448 C2477 0.930 . S
H2449 C2454 0.930 . S
H2450 C2458 0.930 . S
O2451 Co2420 2.037 . S
O2451 C2471 1.234 . S
C2452 O2426 1.269 . S
C2452 O2427 1.257 . S
C2453 H2428 0.930 . S
C2453 C2456 1.388 . S
C2453 C2458 1.418 . S
C2454 H2449 0.930 . S
C2454 C2457 1.404 . S
C2454 C2458 1.353 . S
N2455 Co2420 2.145 . S
N2455 C2456 1.397 . S
N2455 C2457 1.334 . S
C2456 H2437 0.929 . S
C2456 C2453 1.388 . S
C2456 N2455 1.397 . S
C2457 H2438 0.929 . S
C2457 C2454 1.404 . S
C2457 N2455 1.334 . S
C2458 H2450 0.930 . S
C2458 C2453 1.418 . S
C2458 C2454 1.353 . S
C2459 H2429 0.930 . S
C2459 N2460 1.330 . S
C2459 C2461 1.446 . S
N2460 Co2419 2.151 . S
N2460 C2459 1.330 . S
N2460 C2464 1.418 . S
C2461 H2440 0.929 . S
C2461 C2459 1.446 . S
C2461 C2462 1.332 . S
C2462 H2442 0.931 . S
C2462 C2461 1.332 . S
C2462 C2463 1.267 . S
C2463 H2431 0.929 . S
C2463 C2462 1.267 . S
C2463 C2464 1.251 . S
C2464 H2434 0.929 . S
C2464 N2460 1.418 . S
C2464 C2463 1.251 . S
C2465 H2432 0.930 . S
C2465 C2467 1.406 . S
C2465 C2470 1.261 . S
C2466 H2433 0.930 . S
C2466 N2468 1.325 . S
C2466 C2469 1.357 . S
C2467 H2435 0.928 . S
C2467 C2465 1.406 . S
C2467 N2468 1.261 . S
N2468 Co2419 2.214 . S
N2468 C2466 1.325 . S
N2468 C2467 1.261 . S
C2469 H2439 0.931 . S
C2469 C2466 1.357 . S
C2469 C2470 1.312 . S
C2470 H2441 0.930 . S
C2470 C2465 1.261 . S
C2470 C2469 1.312 . S
C2471 O2443 1.214 . S
C2471 O2451 1.234 . S
C2472 H2444 0.929 . S
C2472 C2475 1.391 . S
C2472 C2477 1.391 . S
C2473 H2445 0.929 . S
C2473 C2474 1.390 . S
C2473 N2476 1.391 . S
C2474 H2446 0.930 . S
C2474 C2473 1.390 . S
C2474 C2475 1.392 . S
C2475 H2447 0.929 . S
C2475 C2472 1.391 . S
C2475 C2474 1.392 . S
N2476 Co2420 2.257 . S
N2476 C2473 1.391 . S
N2476 C2477 1.388 . S
C2477 H2448 0.930 . S
C2477 C2472 1.391 . S
C2477 N2476 1.388 . S
Co2478 O2480 2.143 . S
Co2478 O2486 2.074 . S
Co2478 O2489 2.093 . S
Co2478 O2502 2.097 . S
Co2478 N2519 2.151 . S
Co2478 N2527 2.214 . S
Co2479 O2480 2.160 . S
Co2479 O2485 2.058 . S
Co2479 O2495 2.057 . S
Co2479 O2510 2.037 . S
Co2479 N2514 2.145 . S
Co2479 N2535 2.257 . S
O2480 Co2478 2.143 . S
O2480 Co2479 2.160 . S
C2481 O2482 1.278 . S
C2481 O2489 1.224 . S
O2482 C2481 1.278 . S
C2483 O2484 1.245 . S
C2483 O2495 1.232 . S
O2484 C2483 1.245 . S
O2485 Co2479 2.058 . S
O2485 C2511 1.269 . S
O2486 Co2478 2.074 . S
O2486 C2511 1.257 . S
H2487 C2512 0.930 . S
H2488 C2518 0.930 . S
O2489 Co2478 2.093 . S
O2489 C2481 1.224 . S
H2490 C2522 0.929 . S
H2491 C2524 0.930 . S
H2492 C2525 0.930 . S
H2493 C2523 0.929 . S
H2494 C2526 0.928 . S
O2495 Co2479 2.057 . S
O2495 C2483 1.232 . S
H2496 C2515 0.929 . S
H2497 C2516 0.929 . S
H2498 C2528 0.931 . S
H2499 C2520 0.929 . S
H2500 C2529 0.930 . S
H2501 C2521 0.931 . S
O2502 Co2478 2.097 . S
O2502 C2530 1.214 . S
H2503 C2531 0.929 . S
H2504 C2532 0.929 . S
H2505 C2533 0.930 . S
H2506 C2534 0.929 . S
H2507 C2536 0.930 . S
H2508 C2513 0.930 . S
H2509 C2517 0.930 . S
O2510 Co2479 2.037 . S
O2510 C2530 1.234 . S
C2511 O2485 1.269 . S
C2511 O2486 1.257 . S
C2512 H2487 0.930 . S
C2512 C2515 1.388 . S
C2512 C2517 1.418 . S
C2513 H2508 0.930 . S
C2513 C2516 1.404 . S
C2513 C2517 1.353 . S
N2514 Co2479 2.145 . S
N2514 C2515 1.397 . S
N2514 C2516 1.334 . S
C2515 H2496 0.929 . S
C2515 C2512 1.388 . S
C2515 N2514 1.397 . S
C2516 H2497 0.929 . S
C2516 C2513 1.404 . S
C2516 N2514 1.334 . S
C2517 H2509 0.930 . S
C2517 C2512 1.418 . S
C2517 C2513 1.353 . S
C2518 H2488 0.930 . S
C2518 N2519 1.330 . S
C2518 C2520 1.446 . S
N2519 Co2478 2.151 . S
N2519 C2518 1.330 . S
N2519 C2523 1.418 . S
C2520 H2499 0.929 . S
C2520 C2518 1.446 . S
C2520 C2521 1.332 . S
C2521 H2501 0.931 . S
C2521 C2520 1.332 . S
C2521 C2522 1.267 . S
C2522 H2490 0.929 . S
C2522 C2521 1.267 . S
C2522 C2523 1.251 . S
C2523 H2493 0.929 . S
C2523 N2519 1.418 . S
C2523 C2522 1.251 . S
C2524 H2491 0.930 . S
C2524 C2526 1.406 . S
C2524 C2529 1.261 . S
C2525 H2492 0.930 . S
C2525 N2527 1.325 . S
C2525 C2528 1.357 . S
C2526 H2494 0.928 . S
C2526 C2524 1.406 . S
C2526 N2527 1.261 . S
N2527 Co2478 2.214 . S
N2527 C2525 1.325 . S
N2527 C2526 1.261 . S
C2528 H2498 0.931 . S
C2528 C2525 1.357 . S
C2528 C2529 1.312 . S
C2529 H2500 0.930 . S
C2529 C2524 1.261 . S
C2529 C2528 1.312 . S
C2530 O2502 1.214 . S
C2530 O2510 1.234 . S
C2531 H2503 0.929 . S
C2531 C2534 1.391 . S
C2531 C2536 1.391 . S
C2532 H2504 0.929 . S
C2532 C2533 1.390 . S
C2532 N2535 1.391 . S
C2533 H2505 0.930 . S
C2533 C2532 1.390 . S
C2533 C2534 1.392 . S
C2534 H2506 0.929 . S
C2534 C2531 1.391 . S
C2534 C2533 1.392 . S
N2535 Co2479 2.257 . S
N2535 C2532 1.391 . S
N2535 C2536 1.388 . S
C2536 H2507 0.930 . S
C2536 C2531 1.391 . S
C2536 N2535 1.388 . S
Co2537 O2539 2.143 . S
Co2537 O2545 2.074 . S
Co2537 O2548 2.093 . S
Co2537 O2561 2.097 . S
Co2537 N2578 2.151 . S
Co2537 N2586 2.214 . S
Co2538 O2539 2.160 . S
Co2538 O2544 2.058 . S
Co2538 O2554 2.057 . S
Co2538 O2569 2.037 . S
Co2538 N2573 2.145 . S
Co2538 N2594 2.257 . S
O2539 Co2537 2.143 . S
O2539 Co2538 2.160 . S
C2540 O2541 1.278 . S
C2540 O2548 1.224 . S
O2541 C2540 1.278 . S
C2542 O2543 1.245 . S
C2542 O2554 1.232 . S
O2543 C2542 1.245 . S
O2544 Co2538 2.058 . S
O2544 C2570 1.269 . S
O2545 Co2537 2.074 . S
O2545 C2570 1.257 . S
H2546 C2571 0.930 . S
H2547 C2577 0.930 . S
O2548 Co2537 2.093 . S
O2548 C2540 1.224 . S
H2549 C2581 0.929 . S
H2550 C2583 0.930 . S
H2551 C2584 0.930 . S
H2552 C2582 0.929 . S
H2553 C2585 0.928 . S
O2554 Co2538 2.057 . S
O2554 C2542 1.232 . S
H2555 C2574 0.929 . S
H2556 C2575 0.929 . S
H2557 C2587 0.931 . S
H2558 C2579 0.929 . S
H2559 C2588 0.930 . S
H2560 C2580 0.931 . S
O2561 Co2537 2.097 . S
O2561 C2589 1.214 . S
H2562 C2590 0.929 . S
H2563 C2591 0.929 . S
H2564 C2592 0.930 . S
H2565 C2593 0.929 . S
H2566 C2595 0.930 . S
H2567 C2572 0.930 . S
H2568 C2576 0.930 . S
O2569 Co2538 2.037 . S
O2569 C2589 1.234 . S
C2570 O2544 1.269 . S
C2570 O2545 1.257 . S
C2571 H2546 0.930 . S
C2571 C2574 1.388 . S
C2571 C2576 1.418 . S
C2572 H2567 0.930 . S
C2572 C2575 1.404 . S
C2572 C2576 1.353 . S
N2573 Co2538 2.145 . S
N2573 C2574 1.397 . S
N2573 C2575 1.334 . S
C2574 H2555 0.929 . S
C2574 C2571 1.388 . S
C2574 N2573 1.397 . S
C2575 H2556 0.929 . S
C2575 C2572 1.404 . S
C2575 N2573 1.334 . S
C2576 H2568 0.930 . S
C2576 C2571 1.418 . S
C2576 C2572 1.353 . S
C2577 H2547 0.930 . S
C2577 N2578 1.330 . S
C2577 C2579 1.446 . S
N2578 Co2537 2.151 . S
N2578 C2577 1.330 . S
N2578 C2582 1.418 . S
C2579 H2558 0.929 . S
C2579 C2577 1.446 . S
C2579 C2580 1.332 . S
C2580 H2560 0.931 . S
C2580 C2579 1.332 . S
C2580 C2581 1.267 . S
C2581 H2549 0.929 . S
C2581 C2580 1.267 . S
C2581 C2582 1.251 . S
C2582 H2552 0.929 . S
C2582 N2578 1.418 . S
C2582 C2581 1.251 . S
C2583 H2550 0.930 . S
C2583 C2585 1.406 . S
C2583 C2588 1.261 . S
C2584 H2551 0.930 . S
C2584 N2586 1.325 . S
C2584 C2587 1.357 . S
C2585 H2553 0.928 . S
C2585 C2583 1.406 . S
C2585 N2586 1.261 . S
N2586 Co2537 2.214 . S
N2586 C2584 1.325 . S
N2586 C2585 1.261 . S
C2587 H2557 0.931 . S
C2587 C2584 1.357 . S
C2587 C2588 1.312 . S
C2588 H2559 0.930 . S
C2588 C2583 1.261 . S
C2588 C2587 1.312 . S
C2589 O2561 1.214 . S
C2589 O2569 1.234 . S
C2590 H2562 0.929 . S
C2590 C2593 1.391 . S
C2590 C2595 1.391 . S
C2591 H2563 0.929 . S
C2591 C2592 1.390 . S
C2591 N2594 1.391 . S
C2592 H2564 0.930 . S
C2592 C2591 1.390 . S
C2592 C2593 1.392 . S
C2593 H2565 0.929 . S
C2593 C2590 1.391 . S
C2593 C2592 1.392 . S
N2594 Co2538 2.257 . S
N2594 C2591 1.391 . S
N2594 C2595 1.388 . S
C2595 H2566 0.930 . S
C2595 C2590 1.391 . S
C2595 N2594 1.388 . S
Co2596 O2598 2.143 . S
Co2596 O2604 2.074 . S
Co2596 O2607 2.093 . S
Co2596 O2620 2.097 . S
Co2596 N2637 2.151 . S
Co2596 N2645 2.214 . S
Co2597 O2598 2.160 . S
Co2597 O2603 2.058 . S
Co2597 O2613 2.057 . S
Co2597 O2628 2.037 . S
Co2597 N2632 2.145 . S
Co2597 N2653 2.257 . S
O2598 Co2596 2.143 . S
O2598 Co2597 2.160 . S
C2599 O2600 1.278 . S
C2599 O2607 1.224 . S
O2600 C2599 1.278 . S
C2601 O2602 1.245 . S
C2601 O2613 1.232 . S
O2602 C2601 1.245 . S
O2603 Co2597 2.058 . S
O2603 C2629 1.269 . S
O2604 Co2596 2.074 . S
O2604 C2629 1.257 . S
H2605 C2630 0.930 . S
H2606 C2636 0.930 . S
O2607 Co2596 2.093 . S
O2607 C2599 1.224 . S
H2608 C2640 0.929 . S
H2609 C2642 0.930 . S
H2610 C2643 0.930 . S
H2611 C2641 0.929 . S
H2612 C2644 0.928 . S
O2613 Co2597 2.057 . S
O2613 C2601 1.232 . S
H2614 C2633 0.929 . S
H2615 C2634 0.929 . S
H2616 C2646 0.931 . S
H2617 C2638 0.929 . S
H2618 C2647 0.930 . S
H2619 C2639 0.931 . S
O2620 Co2596 2.097 . S
O2620 C2648 1.214 . S
H2621 C2649 0.929 . S
H2622 C2650 0.929 . S
H2623 C2651 0.930 . S
H2624 C2652 0.929 . S
H2625 C2654 0.930 . S
H2626 C2631 0.930 . S
H2627 C2635 0.930 . S
O2628 Co2597 2.037 . S
O2628 C2648 1.234 . S
C2629 O2603 1.269 . S
C2629 O2604 1.257 . S
C2630 H2605 0.930 . S
C2630 C2633 1.388 . S
C2630 C2635 1.418 . S
C2631 H2626 0.930 . S
C2631 C2634 1.404 . S
C2631 C2635 1.353 . S
N2632 Co2597 2.145 . S
N2632 C2633 1.397 . S
N2632 C2634 1.334 . S
C2633 H2614 0.929 . S
C2633 C2630 1.388 . S
C2633 N2632 1.397 . S
C2634 H2615 0.929 . S
C2634 C2631 1.404 . S
C2634 N2632 1.334 . S
C2635 H2627 0.930 . S
C2635 C2630 1.418 . S
C2635 C2631 1.353 . S
C2636 H2606 0.930 . S
C2636 N2637 1.330 . S
C2636 C2638 1.446 . S
N2637 Co2596 2.151 . S
N2637 C2636 1.330 . S
N2637 C2641 1.418 . S
C2638 H2617 0.929 . S
C2638 C2636 1.446 . S
C2638 C2639 1.332 . S
C2639 H2619 0.931 . S
C2639 C2638 1.332 . S
C2639 C2640 1.267 . S
C2640 H2608 0.929 . S
C2640 C2639 1.267 . S
C2640 C2641 1.251 . S
C2641 H2611 0.929 . S
C2641 N2637 1.418 . S
C2641 C2640 1.251 . S
C2642 H2609 0.930 . S
C2642 C2644 1.406 . S
C2642 C2647 1.261 . S
C2643 H2610 0.930 . S
C2643 N2645 1.325 . S
C2643 C2646 1.357 . S
C2644 H2612 0.928 . S
C2644 C2642 1.406 . S
C2644 N2645 1.261 . S
N2645 Co2596 2.214 . S
N2645 C2643 1.325 . S
N2645 C2644 1.261 . S
C2646 H2616 0.931 . S
C2646 C2643 1.357 . S
C2646 C2647 1.312 . S
C2647 H2618 0.930 . S
C2647 C2642 1.261 . S
C2647 C2646 1.312 . S
C2648 O2620 1.214 . S
C2648 O2628 1.234 . S
C2649 H2621 0.929 . S
C2649 C2652 1.391 . S
C2649 C2654 1.391 . S
C2650 H2622 0.929 . S
C2650 C2651 1.390 . S
C2650 N2653 1.391 . S
C2651 H2623 0.930 . S
C2651 C2650 1.390 . S
C2651 C2652 1.392 . S
C2652 H2624 0.929 . S
C2652 C2649 1.391 . S
C2652 C2651 1.392 . S
N2653 Co2597 2.257 . S
N2653 C2650 1.391 . S
N2653 C2654 1.388 . S
C2654 H2625 0.930 . S
C2654 C2649 1.391 . S
C2654 N2653 1.388 . S
Co2655 O2657 2.143 . S
Co2655 O2663 2.074 . S
Co2655 O2666 2.093 . S
Co2655 O2679 2.097 . S
Co2655 N2696 2.151 . S
Co2655 N2704 2.214 . S
Co2656 O2657 2.160 . S
Co2656 O2662 2.058 . S
Co2656 O2672 2.057 . S
Co2656 O2687 2.037 . S
Co2656 N2691 2.145 . S
Co2656 N2712 2.257 . S
O2657 Co2655 2.143 . S
O2657 Co2656 2.160 . S
C2658 O2659 1.278 . S
C2658 O2666 1.224 . S
O2659 C2658 1.278 . S
C2660 O2661 1.245 . S
C2660 O2672 1.232 . S
O2661 C2660 1.245 . S
O2662 Co2656 2.058 . S
O2662 C2688 1.269 . S
O2663 Co2655 2.074 . S
O2663 C2688 1.257 . S
H2664 C2689 0.930 . S
H2665 C2695 0.930 . S
O2666 Co2655 2.093 . S
O2666 C2658 1.224 . S
H2667 C2699 0.929 . S
H2668 C2701 0.930 . S
H2669 C2702 0.930 . S
H2670 C2700 0.929 . S
H2671 C2703 0.928 . S
O2672 Co2656 2.057 . S
O2672 C2660 1.232 . S
H2673 C2692 0.929 . S
H2674 C2693 0.929 . S
H2675 C2705 0.931 . S
H2676 C2697 0.929 . S
H2677 C2706 0.930 . S
H2678 C2698 0.931 . S
O2679 Co2655 2.097 . S
O2679 C2707 1.214 . S
H2680 C2708 0.929 . S
H2681 C2709 0.929 . S
H2682 C2710 0.930 . S
H2683 C2711 0.929 . S
H2684 C2713 0.930 . S
H2685 C2690 0.930 . S
H2686 C2694 0.924 1_655 S
O2687 Co2656 2.037 . S
O2687 C2707 1.234 . S
C2688 O2662 1.269 . S
C2688 O2663 1.257 . S
C2689 H2664 0.930 . S
C2689 C2692 1.388 . S
C2689 C2694 1.418 . S
C2690 H2685 0.930 . S
C2690 C2693 1.404 . S
C2690 C2694 1.353 . S
N2691 Co2656 2.145 . S
N2691 C2692 1.397 . S
N2691 C2693 1.334 . S
C2692 H2673 0.929 . S
C2692 C2689 1.388 . S
C2692 N2691 1.397 . S
C2693 H2674 0.929 . S
C2693 C2690 1.404 . S
C2693 N2691 1.334 . S
C2694 H2686 0.924 1_455 S
C2694 C2689 1.418 . S
C2694 C2690 1.353 . S
C2695 H2665 0.930 . S
C2695 N2696 1.330 . S
C2695 C2697 1.446 . S
N2696 Co2655 2.151 . S
N2696 C2695 1.330 . S
N2696 C2700 1.418 . S
C2697 H2676 0.929 . S
C2697 C2695 1.446 . S
C2697 C2698 1.332 . S
C2698 H2678 0.931 . S
C2698 C2697 1.332 . S
C2698 C2699 1.267 . S
C2699 H2667 0.929 . S
C2699 C2698 1.267 . S
C2699 C2700 1.251 . S
C2700 H2670 0.929 . S
C2700 N2696 1.418 . S
C2700 C2699 1.251 . S
C2701 H2668 0.930 . S
C2701 C2703 1.406 . S
C2701 C2706 1.261 . S
C2702 H2669 0.930 . S
C2702 N2704 1.325 . S
C2702 C2705 1.357 . S
C2703 H2671 0.928 . S
C2703 C2701 1.406 . S
C2703 N2704 1.261 . S
N2704 Co2655 2.214 . S
N2704 C2702 1.325 . S
N2704 C2703 1.261 . S
C2705 H2675 0.931 . S
C2705 C2702 1.357 . S
C2705 C2706 1.312 . S
C2706 H2677 0.930 . S
C2706 C2701 1.261 . S
C2706 C2705 1.312 . S
C2707 O2679 1.214 . S
C2707 O2687 1.234 . S
C2708 H2680 0.929 . S
C2708 C2711 1.391 . S
C2708 C2713 1.391 . S
C2709 H2681 0.929 . S
C2709 C2710 1.390 . S
C2709 N2712 1.391 . S
C2710 H2682 0.930 . S
C2710 C2709 1.390 . S
C2710 C2711 1.392 . S
C2711 H2683 0.929 . S
C2711 C2708 1.391 . S
C2711 C2710 1.392 . S
N2712 Co2656 2.257 . S
N2712 C2709 1.391 . S
N2712 C2713 1.388 . S
C2713 H2684 0.930 . S
C2713 C2708 1.391 . S
C2713 N2712 1.388 . S
Co2714 O2716 2.143 . S
Co2714 O2722 2.074 . S
Co2714 O2725 2.093 . S
Co2714 O2738 2.097 . S
Co2714 N2755 2.151 . S
Co2714 N2763 2.214 . S
Co2715 O2716 2.160 . S
Co2715 O2721 2.058 . S
Co2715 O2731 2.057 . S
Co2715 O2746 2.037 . S
Co2715 N2750 2.145 . S
Co2715 N2771 2.257 . S
O2716 Co2714 2.143 . S
O2716 Co2715 2.160 . S
C2717 O2718 1.278 . S
C2717 O2725 1.224 . S
O2718 C2717 1.278 . S
C2719 O2720 1.245 . S
C2719 O2731 1.232 . S
O2720 C2719 1.245 . S
O2721 Co2715 2.058 . S
O2721 C2747 1.269 . S
O2722 Co2714 2.074 . S
O2722 C2747 1.257 . S
H2723 C2748 0.930 . S
H2724 C2754 0.930 . S
O2725 Co2714 2.093 . S
O2725 C2717 1.224 . S
H2726 C2758 0.929 . S
H2727 C2760 0.930 . S
H2728 C2761 0.930 . S
H2729 C2759 0.929 . S
H2730 C2762 0.928 . S
O2731 Co2715 2.057 . S
O2731 C2719 1.232 . S
H2732 C2751 0.929 . S
H2733 C2752 0.929 . S
H2734 C2764 0.931 . S
H2735 C2756 0.929 . S
H2736 C2765 0.930 . S
H2737 C2757 0.931 . S
O2738 Co2714 2.097 . S
O2738 C2766 1.214 . S
H2739 C2767 0.929 . S
H2740 C2768 0.929 . S
H2741 C2769 0.930 . S
H2742 C2770 0.929 . S
H2743 C2772 0.930 . S
H2744 C2749 0.930 . S
H2745 C2753 0.930 . S
O2746 Co2715 2.037 . S
O2746 C2766 1.234 . S
C2747 O2721 1.269 . S
C2747 O2722 1.257 . S
C2748 H2723 0.930 . S
C2748 C2751 1.388 . S
C2748 C2753 1.418 . S
C2749 H2744 0.930 . S
C2749 C2752 1.404 . S
C2749 C2753 1.353 . S
N2750 Co2715 2.145 . S
N2750 C2751 1.397 . S
N2750 C2752 1.334 . S
C2751 H2732 0.929 . S
C2751 C2748 1.388 . S
C2751 N2750 1.397 . S
C2752 H2733 0.929 . S
C2752 C2749 1.404 . S
C2752 N2750 1.334 . S
C2753 H2745 0.930 . S
C2753 C2748 1.418 . S
C2753 C2749 1.353 . S
C2754 H2724 0.930 . S
C2754 N2755 1.330 . S
C2754 C2756 1.446 . S
N2755 Co2714 2.151 . S
N2755 C2754 1.330 . S
N2755 C2759 1.418 . S
C2756 H2735 0.929 . S
C2756 C2754 1.446 . S
C2756 C2757 1.332 . S
C2757 H2737 0.931 . S
C2757 C2756 1.332 . S
C2757 C2758 1.267 . S
C2758 H2726 0.929 . S
C2758 C2757 1.267 . S
C2758 C2759 1.251 . S
C2759 H2729 0.929 . S
C2759 N2755 1.418 . S
C2759 C2758 1.251 . S
C2760 H2727 0.930 . S
C2760 C2762 1.406 . S
C2760 C2765 1.261 . S
C2761 H2728 0.930 . S
C2761 N2763 1.325 . S
C2761 C2764 1.357 . S
C2762 H2730 0.928 . S
C2762 C2760 1.406 . S
C2762 N2763 1.261 . S
N2763 Co2714 2.214 . S
N2763 C2761 1.325 . S
N2763 C2762 1.261 . S
C2764 H2734 0.931 . S
C2764 C2761 1.357 . S
C2764 C2765 1.312 . S
C2765 H2736 0.930 . S
C2765 C2760 1.261 . S
C2765 C2764 1.312 . S
C2766 O2738 1.214 . S
C2766 O2746 1.234 . S
C2767 H2739 0.929 . S
C2767 C2770 1.391 . S
C2767 C2772 1.391 . S
C2768 H2740 0.929 . S
C2768 C2769 1.390 . S
C2768 N2771 1.391 . S
C2769 H2741 0.930 . S
C2769 C2768 1.390 . S
C2769 C2770 1.392 . S
C2770 H2742 0.929 . S
C2770 C2767 1.391 . S
C2770 C2769 1.392 . S
N2771 Co2715 2.257 . S
N2771 C2768 1.391 . S
N2771 C2772 1.388 . S
C2772 H2743 0.930 . S
C2772 C2767 1.391 . S
C2772 N2771 1.388 . S
Co2773 O2775 2.143 . S
Co2773 O2781 2.074 . S
Co2773 O2784 2.093 . S
Co2773 O2797 2.097 . S
Co2773 N2814 2.151 . S
Co2773 N2822 2.214 . S
Co2774 O2775 2.160 . S
Co2774 O2780 2.058 . S
Co2774 O2790 2.057 . S
Co2774 O2805 2.037 . S
Co2774 N2809 2.145 . S
Co2774 N2830 2.257 . S
O2775 Co2773 2.143 . S
O2775 Co2774 2.160 . S
C2776 O2777 1.278 . S
C2776 O2784 1.224 . S
O2777 C2776 1.278 . S
C2778 O2779 1.245 . S
C2778 O2790 1.232 . S
O2779 C2778 1.245 . S
O2780 Co2774 2.058 . S
O2780 C2806 1.269 . S
O2781 Co2773 2.074 . S
O2781 C2806 1.257 . S
H2782 C2807 0.930 . S
H2783 C2813 0.930 . S
O2784 Co2773 2.093 . S
O2784 C2776 1.224 . S
H2785 C2817 0.929 . S
H2786 C2819 0.930 . S
H2787 C2820 0.930 . S
H2788 C2818 0.929 . S
H2789 C2821 0.928 . S
O2790 Co2774 2.057 . S
O2790 C2778 1.232 . S
H2791 C2810 0.929 . S
H2792 C2811 0.929 . S
H2793 C2823 0.931 . S
H2794 C2815 0.929 . S
H2795 C2824 0.930 . S
H2796 C2816 0.931 . S
O2797 Co2773 2.097 . S
O2797 C2825 1.214 . S
H2798 C2826 0.929 . S
H2799 C2827 0.929 . S
H2800 C2828 0.930 . S
H2801 C2829 0.929 . S
H2802 C2831 0.930 . S
H2803 C2808 0.930 . S
H2804 C2812 0.930 . S
O2805 Co2774 2.037 . S
O2805 C2825 1.234 . S
C2806 O2780 1.269 . S
C2806 O2781 1.257 . S
C2807 H2782 0.930 . S
C2807 C2810 1.388 . S
C2807 C2812 1.418 . S
C2808 H2803 0.930 . S
C2808 C2811 1.404 . S
C2808 C2812 1.353 . S
N2809 Co2774 2.145 . S
N2809 C2810 1.397 . S
N2809 C2811 1.334 . S
C2810 H2791 0.929 . S
C2810 C2807 1.388 . S
C2810 N2809 1.397 . S
C2811 H2792 0.929 . S
C2811 C2808 1.404 . S
C2811 N2809 1.334 . S
C2812 H2804 0.930 . S
C2812 C2807 1.418 . S
C2812 C2808 1.353 . S
C2813 H2783 0.930 . S
C2813 N2814 1.330 . S
C2813 C2815 1.446 . S
N2814 Co2773 2.151 . S
N2814 C2813 1.330 . S
N2814 C2818 1.418 . S
C2815 H2794 0.929 . S
C2815 C2813 1.446 . S
C2815 C2816 1.332 . S
C2816 H2796 0.931 . S
C2816 C2815 1.332 . S
C2816 C2817 1.267 . S
C2817 H2785 0.929 . S
C2817 C2816 1.267 . S
C2817 C2818 1.251 . S
C2818 H2788 0.929 . S
C2818 N2814 1.418 . S
C2818 C2817 1.251 . S
C2819 H2786 0.930 . S
C2819 C2821 1.406 . S
C2819 C2824 1.261 . S
C2820 H2787 0.930 . S
C2820 N2822 1.325 . S
C2820 C2823 1.357 . S
C2821 H2789 0.928 . S
C2821 C2819 1.406 . S
C2821 N2822 1.261 . S
N2822 Co2773 2.214 . S
N2822 C2820 1.325 . S
N2822 C2821 1.261 . S
C2823 H2793 0.931 . S
C2823 C2820 1.357 . S
C2823 C2824 1.312 . S
C2824 H2795 0.930 . S
C2824 C2819 1.261 . S
C2824 C2823 1.312 . S
C2825 O2797 1.214 . S
C2825 O2805 1.234 . S
C2826 H2798 0.929 . S
C2826 C2829 1.391 . S
C2826 C2831 1.391 . S
C2827 H2799 0.929 . S
C2827 C2828 1.390 . S
C2827 N2830 1.391 . S
C2828 H2800 0.930 . S
C2828 C2827 1.390 . S
C2828 C2829 1.392 . S
C2829 H2801 0.929 . S
C2829 C2826 1.391 . S
C2829 C2828 1.392 . S
N2830 Co2774 2.257 . S
N2830 C2827 1.391 . S
N2830 C2831 1.388 . S
C2831 H2802 0.930 . S
C2831 C2826 1.391 . S
C2831 N2830 1.388 . S
H2832 C2838 0.930 . S
H2833 C2842 0.930 . S
H2834 C2847 0.929 . S
H2835 C2845 0.929 . S
H2836 C2840 0.929 . S
H2837 C2846 0.929 . S
C2838 H2832 0.930 . S
C2838 C2839 1.367 . S
C2838 C2846 1.378 . S
C2839 C2838 1.367 . S
C2839 C2847 1.433 . S
C2840 H2836 0.929 . S
C2840 C2842 1.378 . S
C2840 C2844 1.350 . S
C2841 C2844 1.463 . S
C2841 C2846 1.350 . S
C2841 N2849 1.427 . S
C2842 H2833 0.930 . S
C2842 C2840 1.378 . S
C2842 C2843 1.367 . S
C2843 C2842 1.367 . S
C2843 C2845 1.433 . S
C2844 C2840 1.350 . S
C2844 C2841 1.463 . S
C2844 N2848 1.427 . S
C2845 H2835 0.929 . S
C2845 C2843 1.433 . S
C2845 N2848 1.384 . S
C2846 H2837 0.929 . S
C2846 C2838 1.378 . S
C2846 C2841 1.350 . S
C2847 H2834 0.929 . S
C2847 C2839 1.433 . S
C2847 N2849 1.384 . S
N2848 C2844 1.427 . S
N2848 C2845 1.384 . S
N2849 C2841 1.427 . S
N2849 C2847 1.384 . S
H2850 C2856 0.930 . S
H2851 C2860 0.930 . S
H2852 C2865 0.929 . S
H2853 C2863 0.929 . S
H2854 C2858 0.929 . S
H2855 C2864 0.929 . S
C2856 H2850 0.930 . S
C2856 C2857 1.367 . S
C2856 C2864 1.378 . S
C2857 C2856 1.367 . S
C2857 C2865 1.433 . S
C2858 H2854 0.929 . S
C2858 C2860 1.378 . S
C2858 C2862 1.350 . S
C2859 C2862 1.463 . S
C2859 C2864 1.350 . S
C2859 N2867 1.427 . S
C2860 H2851 0.930 . S
C2860 C2858 1.378 . S
C2860 C2861 1.367 . S
C2861 C2860 1.367 . S
C2861 C2863 1.433 . S
C2862 C2858 1.350 . S
C2862 C2859 1.463 . S
C2862 N2866 1.427 . S
C2863 H2853 0.929 . S
C2863 C2861 1.433 . S
C2863 N2866 1.384 . S
C2864 H2855 0.929 . S
C2864 C2856 1.378 . S
C2864 C2859 1.350 . S
C2865 H2852 0.929 . S
C2865 C2857 1.433 . S
C2865 N2867 1.384 . S
N2866 C2862 1.427 . S
N2866 C2863 1.384 . S
N2867 C2859 1.427 . S
N2867 C2865 1.384 . S
H2868 C2874 0.930 . S
H2869 C2878 0.930 . S
H2870 C2883 0.929 . S
H2871 C2881 0.929 . S
H2872 C2876 0.929 . S
H2873 C2882 0.929 . S
C2874 H2868 0.930 . S
C2874 C2875 1.367 . S
C2874 C2882 1.378 . S
C2875 C2874 1.367 . S
C2875 C2883 1.433 . S
C2876 H2872 0.929 . S
C2876 C2878 1.378 . S
C2876 C2880 1.350 . S
C2877 C2880 1.463 . S
C2877 C2882 1.350 . S
C2877 N2885 1.427 . S
C2878 H2869 0.930 . S
C2878 C2876 1.378 . S
C2878 C2879 1.367 . S
C2879 C2878 1.367 . S
C2879 C2881 1.433 . S
C2880 C2876 1.350 . S
C2880 C2877 1.463 . S
C2880 N2884 1.427 . S
C2881 H2871 0.929 . S
C2881 C2879 1.433 . S
C2881 N2884 1.384 . S
C2882 H2873 0.929 . S
C2882 C2874 1.378 . S
C2882 C2877 1.350 . S
C2883 H2870 0.929 . S
C2883 C2875 1.433 . S
C2883 N2885 1.384 . S
N2884 C2880 1.427 . S
N2884 C2881 1.384 . S
N2885 C2877 1.427 . S
N2885 C2883 1.384 . S
H2886 C2892 0.930 . S
H2887 C2896 0.930 . S
H2888 C2901 0.929 . S
H2889 C2899 0.929 . S
H2890 C2894 0.929 . S
H2891 C2900 0.929 . S
C2892 H2886 0.930 . S
C2892 C2893 1.367 . S
C2892 C2900 1.378 . S
C2893 C2892 1.367 . S
C2893 C2901 1.433 . S
C2894 H2890 0.929 . S
C2894 C2896 1.378 . S
C2894 C2898 1.350 . S
C2895 C2898 1.463 . S
C2895 C2900 1.350 . S
C2895 N2903 1.427 . S
C2896 H2887 0.930 . S
C2896 C2894 1.378 . S
C2896 C2897 1.367 . S
C2897 C2896 1.367 . S
C2897 C2899 1.433 . S
C2898 C2894 1.350 . S
C2898 C2895 1.463 . S
C2898 N2902 1.427 . S
C2899 H2889 0.929 . S
C2899 C2897 1.433 . S
C2899 N2902 1.384 . S
C2900 H2891 0.929 . S
C2900 C2892 1.378 . S
C2900 C2895 1.350 . S
C2901 H2888 0.929 . S
C2901 C2893 1.433 . S
C2901 N2903 1.384 . S
N2902 C2898 1.427 . S
N2902 C2899 1.384 . S
N2903 C2895 1.427 . S
N2903 C2901 1.384 . S
H2904 C2910 0.930 . S
H2905 C2914 0.930 . S
H2906 C2919 0.929 . S
H2907 C2917 0.929 . S
H2908 C2912 0.929 . S
H2909 C2918 0.929 . S
C2910 H2904 0.930 . S
C2910 C2911 1.367 . S
C2910 C2918 1.378 . S
C2911 C2910 1.367 . S
C2911 C2919 1.433 . S
C2912 H2908 0.929 . S
C2912 C2914 1.378 . S
C2912 C2916 1.350 . S
C2913 C2916 1.463 . S
C2913 C2918 1.350 . S
C2913 N2921 1.427 . S
C2914 H2905 0.930 . S
C2914 C2912 1.378 . S
C2914 C2915 1.367 . S
C2915 C2914 1.367 . S
C2915 C2917 1.433 . S
C2916 C2912 1.350 . S
C2916 C2913 1.463 . S
C2916 N2920 1.427 . S
C2917 H2907 0.929 . S
C2917 C2915 1.433 . S
C2917 N2920 1.384 . S
C2918 H2909 0.929 . S
C2918 C2910 1.378 . S
C2918 C2913 1.350 . S
C2919 H2906 0.929 . S
C2919 C2911 1.433 . S
C2919 N2921 1.384 . S
N2920 C2916 1.427 . S
N2920 C2917 1.384 . S
N2921 C2913 1.427 . S
N2921 C2919 1.384 . S
H2922 C2928 0.930 . S
H2923 C2932 0.930 . S
H2924 C2937 0.929 . S
H2925 C2935 0.929 . S
H2926 C2930 0.929 . S
H2927 C2936 0.929 . S
C2928 H2922 0.930 . S
C2928 C2929 1.367 . S
C2928 C2936 1.378 . S
C2929 C2928 1.367 . S
C2929 C2937 1.433 . S
C2930 H2926 0.929 . S
C2930 C2932 1.378 . S
C2930 C2934 1.350 . S
C2931 C2934 1.463 . S
C2931 C2936 1.350 . S
C2931 N2939 1.427 . S
C2932 H2923 0.930 . S
C2932 C2930 1.378 . S
C2932 C2933 1.367 . S
C2933 C2932 1.367 . S
C2933 C2935 1.433 . S
C2934 C2930 1.350 . S
C2934 C2931 1.463 . S
C2934 N2938 1.427 . S
C2935 H2925 0.929 . S
C2935 C2933 1.433 . S
C2935 N2938 1.384 . S
C2936 H2927 0.929 . S
C2936 C2928 1.378 . S
C2936 C2931 1.350 . S
C2937 H2924 0.929 . S
C2937 C2929 1.433 . S
C2937 N2939 1.384 . S
N2938 C2934 1.427 . S
N2938 C2935 1.384 . S
N2939 C2931 1.427 . S
N2939 C2937 1.384 . S
H2940 C2946 0.930 . S
H2941 C2950 0.930 . S
H2942 C2955 0.929 . S
H2943 C2953 0.929 . S
H2944 C2948 0.929 . S
H2945 C2954 0.929 . S
C2946 H2940 0.930 . S
C2946 C2947 1.367 . S
C2946 C2954 1.378 . S
C2947 C2946 1.367 . S
C2947 C2955 1.433 . S
C2948 H2944 0.929 . S
C2948 C2950 1.378 . S
C2948 C2952 1.350 . S
C2949 C2952 1.463 . S
C2949 C2954 1.350 . S
C2949 N2957 1.427 . S
C2950 H2941 0.930 . S
C2950 C2948 1.378 . S
C2950 C2951 1.367 . S
C2951 C2950 1.367 . S
C2951 C2953 1.433 . S
C2952 C2948 1.350 . S
C2952 C2949 1.463 . S
C2952 N2956 1.427 . S
C2953 H2943 0.929 . S
C2953 C2951 1.433 . S
C2953 N2956 1.384 . S
C2954 H2945 0.929 . S
C2954 C2946 1.378 . S
C2954 C2949 1.350 . S
C2955 H2942 0.929 . S
C2955 C2947 1.433 . S
C2955 N2957 1.384 . S
N2956 C2952 1.427 . S
N2956 C2953 1.384 . S
N2957 C2949 1.427 . S
N2957 C2955 1.384 . S
H2958 C2964 0.930 . S
H2959 C2968 0.930 . S
H2960 C2973 0.929 . S
H2961 C2971 0.929 . S
H2962 C2966 0.929 . S
H2963 C2972 0.929 . S
C2964 H2958 0.930 . S
C2964 C2965 1.367 . S
C2964 C2972 1.378 . S
C2965 C2964 1.367 . S
C2965 C2973 1.433 . S
C2966 H2962 0.929 . S
C2966 C2968 1.378 . S
C2966 C2970 1.350 . S
C2967 C2970 1.463 . S
C2967 C2972 1.350 . S
C2967 N2975 1.427 . S
C2968 H2959 0.930 . S
C2968 C2966 1.378 . S
C2968 C2969 1.367 . S
C2969 C2968 1.367 . S
C2969 C2971 1.433 . S
C2970 C2966 1.350 . S
C2970 C2967 1.463 . S
C2970 N2974 1.427 . S
C2971 H2961 0.929 . S
C2971 C2969 1.433 . S
C2971 N2974 1.384 . S
C2972 H2963 0.929 . S
C2972 C2964 1.378 . S
C2972 C2967 1.350 . S
C2973 H2960 0.929 . S
C2973 C2965 1.433 . S
C2973 N2975 1.384 . S
N2974 C2970 1.427 . S
N2974 C2971 1.384 . S
N2975 C2967 1.427 . S
N2975 C2973 1.384 . S
H2976 C2982 0.930 . S
H2977 C2986 0.930 . S
H2978 C2991 0.929 . S
H2979 C2989 0.929 . S
H2980 C2984 0.929 . S
H2981 C2990 0.929 . S
C2982 H2976 0.930 . S
C2982 C2983 1.367 . S
C2982 C2990 1.378 . S
C2983 C2982 1.367 . S
C2983 C2991 1.433 . S
C2984 H2980 0.929 . S
C2984 C2986 1.378 . S
C2984 C2988 1.350 . S
C2985 C2988 1.463 . S
C2985 C2990 1.350 . S
C2985 N2993 1.427 . S
C2986 H2977 0.930 . S
C2986 C2984 1.378 . S
C2986 C2987 1.367 . S
C2987 C2986 1.367 . S
C2987 C2989 1.433 . S
C2988 C2984 1.350 . S
C2988 C2985 1.463 . S
C2988 N2992 1.427 . S
C2989 H2979 0.929 . S
C2989 C2987 1.433 . S
C2989 N2992 1.384 . S
C2990 H2981 0.929 . S
C2990 C2982 1.378 . S
C2990 C2985 1.350 . S
C2991 H2978 0.929 . S
C2991 C2983 1.433 . S
C2991 N2993 1.384 . S
N2992 C2988 1.427 . S
N2992 C2989 1.384 . S
N2993 C2985 1.427 . S
N2993 C2991 1.384 . S
H2994 C3000 0.930 . S
H2995 C3004 0.930 . S
H2996 C3009 0.929 . S
H2997 C3007 0.929 . S
H2998 C3002 0.929 . S
H2999 C3008 0.929 . S
C3000 H2994 0.930 . S
C3000 C3001 1.367 . S
C3000 C3008 1.378 . S
C3001 C3000 1.367 . S
C3001 C3009 1.433 . S
C3002 H2998 0.929 . S
C3002 C3004 1.378 . S
C3002 C3006 1.350 . S
C3003 C3006 1.463 . S
C3003 C3008 1.350 . S
C3003 N3011 1.427 . S
C3004 H2995 0.930 . S
C3004 C3002 1.378 . S
C3004 C3005 1.367 . S
C3005 C3004 1.367 . S
C3005 C3007 1.433 . S
C3006 C3002 1.350 . S
C3006 C3003 1.463 . S
C3006 N3010 1.427 . S
C3007 H2997 0.929 . S
C3007 C3005 1.433 . S
C3007 N3010 1.384 . S
C3008 H2999 0.929 . S
C3008 C3000 1.378 . S
C3008 C3003 1.350 . S
C3009 H2996 0.929 . S
C3009 C3001 1.433 . S
C3009 N3011 1.384 . S
N3010 C3006 1.427 . S
N3010 C3007 1.384 . S
N3011 C3003 1.427 . S
N3011 C3009 1.384 . S
H3012 C3018 0.930 . S
H3013 C3022 0.930 . S
H3014 C3027 0.929 . S
H3015 C3025 0.929 . S
H3016 C3020 0.929 . S
H3017 C3026 0.929 . S
C3018 H3012 0.930 . S
C3018 C3019 1.367 . S
C3018 C3026 1.378 . S
C3019 C3018 1.367 . S
C3019 C3027 1.433 . S
C3020 H3016 0.929 . S
C3020 C3022 1.378 . S
C3020 C3024 1.350 . S
C3021 C3024 1.463 . S
C3021 C3026 1.350 . S
C3021 N3029 1.427 . S
C3022 H3013 0.930 . S
C3022 C3020 1.378 . S
C3022 C3023 1.367 . S
C3023 C3022 1.367 . S
C3023 C3025 1.433 . S
C3024 C3020 1.350 . S
C3024 C3021 1.463 . S
C3024 N3028 1.427 . S
C3025 H3015 0.929 . S
C3025 C3023 1.433 . S
C3025 N3028 1.384 . S
C3026 H3017 0.929 . S
C3026 C3018 1.378 . S
C3026 C3021 1.350 . S
C3027 H3014 0.929 . S
C3027 C3019 1.433 . S
C3027 N3029 1.384 . S
N3028 C3024 1.427 . S
N3028 C3025 1.384 . S
N3029 C3021 1.427 . S
N3029 C3027 1.384 . S
H3030 C3036 0.930 . S
H3031 C3040 0.930 . S
H3032 C3045 0.929 . S
H3033 C3043 0.929 . S
H3034 C3038 0.929 . S
H3035 C3044 0.929 . S
C3036 H3030 0.930 . S
C3036 C3037 1.367 . S
C3036 C3044 1.378 . S
C3037 C3036 1.367 . S
C3037 C3045 1.433 . S
C3038 H3034 0.929 . S
C3038 C3040 1.378 . S
C3038 C3042 1.350 . S
C3039 C3042 1.463 . S
C3039 C3044 1.350 . S
C3039 N3047 1.427 . S
C3040 H3031 0.930 . S
C3040 C3038 1.378 . S
C3040 C3041 1.367 . S
C3041 C3040 1.367 . S
C3041 C3043 1.433 . S
C3042 C3038 1.350 . S
C3042 C3039 1.463 . S
C3042 N3046 1.427 . S
C3043 H3033 0.929 . S
C3043 C3041 1.433 . S
C3043 N3046 1.384 . S
C3044 H3035 0.929 . S
C3044 C3036 1.378 . S
C3044 C3039 1.350 . S
C3045 H3032 0.929 . S
C3045 C3037 1.433 . S
C3045 N3047 1.384 . S
N3046 C3042 1.427 . S
N3046 C3043 1.384 . S
N3047 C3039 1.427 . S
N3047 C3045 1.384 . S
H3048 C3054 0.930 . S
H3049 C3058 0.930 . S
H3050 C3063 0.929 . S
H3051 C3061 0.929 . S
H3052 C3056 0.929 . S
H3053 C3062 0.929 . S
C3054 H3048 0.930 . S
C3054 C3055 1.367 . S
C3054 C3062 1.378 . S
C3055 C3054 1.367 . S
C3055 C3063 1.433 . S
C3056 H3052 0.929 . S
C3056 C3058 1.378 . S
C3056 C3060 1.350 . S
C3057 C3060 1.463 . S
C3057 C3062 1.350 . S
C3057 N3065 1.427 . S
C3058 H3049 0.930 . S
C3058 C3056 1.378 . S
C3058 C3059 1.367 . S
C3059 C3058 1.367 . S
C3059 C3061 1.433 . S
C3060 C3056 1.350 . S
C3060 C3057 1.463 . S
C3060 N3064 1.427 . S
C3061 H3051 0.929 . S
C3061 C3059 1.433 . S
C3061 N3064 1.384 . S
C3062 H3053 0.929 . S
C3062 C3054 1.378 . S
C3062 C3057 1.350 . S
C3063 H3050 0.929 . S
C3063 C3055 1.433 . S
C3063 N3065 1.384 . S
N3064 C3060 1.427 . S
N3064 C3061 1.384 . S
N3065 C3057 1.427 . S
N3065 C3063 1.384 . S
H3066 C3072 0.930 . S
H3067 C3076 0.930 . S
H3068 C3081 0.929 . S
H3069 C3079 0.929 . S
H3070 C3074 0.929 . S
H3071 C3080 0.929 . S
C3072 H3066 0.930 . S
C3072 C3073 1.367 . S
C3072 C3080 1.378 . S
C3073 C3072 1.367 . S
C3073 C3081 1.433 . S
C3074 H3070 0.929 . S
C3074 C3076 1.378 . S
C3074 C3078 1.350 . S
C3075 C3078 1.463 . S
C3075 C3080 1.350 . S
C3075 N3083 1.427 . S
C3076 H3067 0.930 . S
C3076 C3074 1.378 . S
C3076 C3077 1.367 . S
C3077 C3076 1.367 . S
C3077 C3079 1.433 . S
C3078 C3074 1.350 . S
C3078 C3075 1.463 . S
C3078 N3082 1.427 . S
C3079 H3069 0.929 . S
C3079 C3077 1.433 . S
C3079 N3082 1.384 . S
C3080 H3071 0.929 . S
C3080 C3072 1.378 . S
C3080 C3075 1.350 . S
C3081 H3068 0.929 . S
C3081 C3073 1.433 . S
C3081 N3083 1.384 . S
N3082 C3078 1.427 . S
N3082 C3079 1.384 . S
N3083 C3075 1.427 . S
N3083 C3081 1.384 . S
H3084 C3090 0.930 . S
H3085 C3094 0.930 . S
H3086 C3099 0.929 . S
H3087 C3097 0.929 . S
H3088 C3092 0.929 . S
H3089 C3098 0.929 . S
C3090 H3084 0.930 . S
C3090 C3091 1.367 . S
C3090 C3098 1.378 . S
C3091 C3090 1.367 . S
C3091 C3099 1.433 . S
C3092 H3088 0.929 . S
C3092 C3094 1.378 . S
C3092 C3096 1.350 . S
C3093 C3096 1.463 . S
C3093 C3098 1.350 . S
C3093 N3101 1.427 . S
C3094 H3085 0.930 . S
C3094 C3092 1.378 . S
C3094 C3095 1.367 . S
C3095 C3094 1.367 . S
C3095 C3097 1.433 . S
C3096 C3092 1.350 . S
C3096 C3093 1.463 . S
C3096 N3100 1.427 . S
C3097 H3087 0.929 . S
C3097 C3095 1.433 . S
C3097 N3100 1.384 . S
C3098 H3089 0.929 . S
C3098 C3090 1.378 . S
C3098 C3093 1.350 . S
C3099 H3086 0.929 . S
C3099 C3091 1.433 . S
C3099 N3101 1.384 . S
N3100 C3096 1.427 . S
N3100 C3097 1.384 . S
N3101 C3093 1.427 . S
N3101 C3099 1.384 . S
H3102 C3108 0.930 . S
H3103 C3112 0.930 . S
H3104 C3117 0.929 . S
H3105 C3115 0.929 . S
H3106 C3110 0.929 . S
H3107 C3116 0.929 . S
C3108 H3102 0.930 . S
C3108 C3109 1.367 . S
C3108 C3116 1.378 . S
C3109 C3108 1.367 . S
C3109 C3117 1.433 . S
C3110 H3106 0.929 . S
C3110 C3112 1.378 . S
C3110 C3114 1.350 . S
C3111 C3114 1.463 . S
C3111 C3116 1.350 . S
C3111 N3119 1.427 . S
C3112 H3103 0.930 . S
C3112 C3110 1.378 . S
C3112 C3113 1.367 . S
C3113 C3112 1.367 . S
C3113 C3115 1.433 . S
C3114 C3110 1.350 . S
C3114 C3111 1.463 . S
C3114 N3118 1.427 . S
C3115 H3105 0.929 . S
C3115 C3113 1.433 . S
C3115 N3118 1.384 . S
C3116 H3107 0.929 . S
C3116 C3108 1.378 . S
C3116 C3111 1.350 . S
C3117 H3104 0.929 . S
C3117 C3109 1.433 . S
C3117 N3119 1.384 . S
N3118 C3114 1.427 . S
N3118 C3115 1.384 . S
N3119 C3111 1.427 . S
N3119 C3117 1.384 . S
H3120 C3126 0.930 . S
H3121 C3130 0.930 . S
H3122 C3135 0.929 . S
H3123 C3133 0.929 . S
H3124 C3128 0.929 . S
H3125 C3134 0.929 . S
C3126 H3120 0.930 . S
C3126 C3127 1.367 . S
C3126 C3134 1.378 . S
C3127 C3126 1.367 . S
C3127 C3135 1.433 . S
C3128 H3124 0.929 . S
C3128 C3130 1.378 . S
C3128 C3132 1.350 . S
C3129 C3132 1.463 . S
C3129 C3134 1.350 . S
C3129 N3137 1.427 . S
C3130 H3121 0.930 . S
C3130 C3128 1.378 . S
C3130 C3131 1.367 . S
C3131 C3130 1.367 . S
C3131 C3133 1.433 . S
C3132 C3128 1.350 . S
C3132 C3129 1.463 . S
C3132 N3136 1.427 . S
C3133 H3123 0.929 . S
C3133 C3131 1.433 . S
C3133 N3136 1.384 . S
C3134 H3125 0.929 . S
C3134 C3126 1.378 . S
C3134 C3129 1.350 . S
C3135 H3122 0.929 . S
C3135 C3127 1.433 . S
C3135 N3137 1.384 . S
N3136 C3132 1.427 . S
N3136 C3133 1.384 . S
N3137 C3129 1.427 . S
N3137 C3135 1.384 . S
H3138 C3144 0.930 . S
H3139 C3148 0.930 . S
H3140 C3153 0.929 . S
H3141 C3151 0.929 . S
H3142 C3146 0.929 . S
H3143 C3152 0.929 . S
C3144 H3138 0.930 . S
C3144 C3145 1.367 . S
C3144 C3152 1.378 . S
C3145 C3144 1.367 . S
C3145 C3153 1.433 . S
C3146 H3142 0.929 . S
C3146 C3148 1.378 . S
C3146 C3150 1.350 . S
C3147 C3150 1.463 . S
C3147 C3152 1.350 . S
C3147 N3155 1.427 . S
C3148 H3139 0.930 . S
C3148 C3146 1.378 . S
C3148 C3149 1.367 . S
C3149 C3148 1.367 . S
C3149 C3151 1.433 . S
C3150 C3146 1.350 . S
C3150 C3147 1.463 . S
C3150 N3154 1.427 . S
C3151 H3141 0.929 . S
C3151 C3149 1.433 . S
C3151 N3154 1.384 . S
C3152 H3143 0.929 . S
C3152 C3144 1.378 . S
C3152 C3147 1.350 . S
C3153 H3140 0.929 . S
C3153 C3145 1.433 . S
C3153 N3155 1.384 . S
N3154 C3150 1.427 . S
N3154 C3151 1.384 . S
N3155 C3147 1.427 . S
N3155 C3153 1.384 . S
H3156 C3162 0.930 . S
H3157 C3166 0.930 . S
H3158 C3171 0.929 . S
H3159 C3169 0.929 . S
H3160 C3164 0.929 . S
H3161 C3170 0.929 . S
C3162 H3156 0.930 . S
C3162 C3163 1.367 . S
C3162 C3170 1.378 . S
C3163 C3162 1.367 . S
C3163 C3171 1.433 . S
C3164 H3160 0.929 . S
C3164 C3166 1.378 . S
C3164 C3168 1.350 . S
C3165 C3168 1.463 . S
C3165 C3170 1.350 . S
C3165 N3173 1.427 . S
C3166 H3157 0.930 . S
C3166 C3164 1.378 . S
C3166 C3167 1.367 . S
C3167 C3166 1.367 . S
C3167 C3169 1.433 . S
C3168 C3164 1.350 . S
C3168 C3165 1.463 . S
C3168 N3172 1.427 . S
C3169 H3159 0.929 . S
C3169 C3167 1.433 . S
C3169 N3172 1.384 . S
C3170 H3161 0.929 . S
C3170 C3162 1.378 . S
C3170 C3165 1.350 . S
C3171 H3158 0.929 . S
C3171 C3163 1.433 . S
C3171 N3173 1.384 . S
N3172 C3168 1.427 . S
N3172 C3169 1.384 . S
N3173 C3165 1.427 . S
N3173 C3171 1.384 . S
H3174 C3180 0.930 . S
H3175 C3184 0.930 . S
H3176 C3189 0.929 . S
H3177 C3187 0.929 . S
H3178 C3182 0.929 . S
H3179 C3188 0.929 . S
C3180 H3174 0.930 . S
C3180 C3181 1.367 . S
C3180 C3188 1.378 . S
C3181 C3180 1.367 . S
C3181 C3189 1.433 . S
C3182 H3178 0.929 . S
C3182 C3184 1.378 . S
C3182 C3186 1.350 . S
C3183 C3186 1.463 . S
C3183 C3188 1.350 . S
C3183 N3191 1.427 . S
C3184 H3175 0.930 . S
C3184 C3182 1.378 . S
C3184 C3185 1.367 . S
C3185 C3184 1.367 . S
C3185 C3187 1.433 . S
C3186 C3182 1.350 . S
C3186 C3183 1.463 . S
C3186 N3190 1.427 . S
C3187 H3177 0.929 . S
C3187 C3185 1.433 . S
C3187 N3190 1.384 . S
C3188 H3179 0.929 . S
C3188 C3180 1.378 . S
C3188 C3183 1.350 . S
C3189 H3176 0.929 . S
C3189 C3181 1.433 . S
C3189 N3191 1.384 . S
N3190 C3186 1.427 . S
N3190 C3187 1.384 . S
N3191 C3183 1.427 . S
N3191 C3189 1.384 . S
H3192 C3198 0.930 . S
H3193 C3202 0.930 . S
H3194 C3207 0.929 . S
H3195 C3205 0.929 . S
H3196 C3200 0.929 . S
H3197 C3206 0.929 . S
C3198 H3192 0.930 . S
C3198 C3199 1.367 . S
C3198 C3206 1.378 . S
C3199 C3198 1.367 . S
C3199 C3207 1.433 . S
C3200 H3196 0.929 . S
C3200 C3202 1.378 . S
C3200 C3204 1.350 . S
C3201 C3204 1.463 . S
C3201 C3206 1.350 . S
C3201 N3209 1.427 . S
C3202 H3193 0.930 . S
C3202 C3200 1.378 . S
C3202 C3203 1.367 . S
C3203 C3202 1.367 . S
C3203 C3205 1.433 . S
C3204 C3200 1.350 . S
C3204 C3201 1.463 . S
C3204 N3208 1.427 . S
C3205 H3195 0.929 . S
C3205 C3203 1.433 . S
C3205 N3208 1.384 . S
C3206 H3197 0.929 . S
C3206 C3198 1.378 . S
C3206 C3201 1.350 . S
C3207 H3194 0.929 . S
C3207 C3199 1.433 . S
C3207 N3209 1.384 . S
N3208 C3204 1.427 . S
N3208 C3205 1.384 . S
N3209 C3201 1.427 . S
N3209 C3207 1.384 . S
H3210 C3216 0.930 . S
H3211 C3220 0.930 . S
H3212 C3225 0.929 . S
H3213 C3223 0.929 . S
H3214 C3218 0.929 . S
H3215 C3224 0.929 . S
C3216 H3210 0.930 . S
C3216 C3217 1.367 . S
C3216 C3224 1.378 . S
C3217 C3216 1.367 . S
C3217 C3225 1.433 . S
C3218 H3214 0.929 . S
C3218 C3220 1.378 . S
C3218 C3222 1.350 . S
C3219 C3222 1.463 . S
C3219 C3224 1.350 . S
C3219 N3227 1.427 . S
C3220 H3211 0.930 . S
C3220 C3218 1.378 . S
C3220 C3221 1.367 . S
C3221 C3220 1.367 . S
C3221 C3223 1.433 . S
C3222 C3218 1.350 . S
C3222 C3219 1.463 . S
C3222 N3226 1.427 . S
C3223 H3213 0.929 . S
C3223 C3221 1.433 . S
C3223 N3226 1.384 . S
C3224 H3215 0.929 . S
C3224 C3216 1.378 . S
C3224 C3219 1.350 . S
C3225 H3212 0.929 . S
C3225 C3217 1.433 . S
C3225 N3227 1.384 . S
N3226 C3222 1.427 . S
N3226 C3223 1.384 . S
N3227 C3219 1.427 . S
N3227 C3225 1.384 . S
H3228 C3234 0.930 . S
H3229 C3238 0.930 . S
H3230 C3243 0.929 . S
H3231 C3241 0.929 . S
H3232 C3236 0.929 . S
H3233 C3242 0.929 . S
C3234 H3228 0.930 . S
C3234 C3235 1.367 . S
C3234 C3242 1.378 . S
C3235 C3234 1.367 . S
C3235 C3243 1.433 . S
C3236 H3232 0.929 . S
C3236 C3238 1.378 . S
C3236 C3240 1.350 . S
C3237 C3240 1.463 . S
C3237 C3242 1.350 . S
C3237 N3245 1.427 . S
C3238 H3229 0.930 . S
C3238 C3236 1.378 . S
C3238 C3239 1.367 . S
C3239 C3238 1.367 . S
C3239 C3241 1.433 . S
C3240 C3236 1.350 . S
C3240 C3237 1.463 . S
C3240 N3244 1.427 . S
C3241 H3231 0.929 . S
C3241 C3239 1.433 . S
C3241 N3244 1.384 . S
C3242 H3233 0.929 . S
C3242 C3234 1.378 . S
C3242 C3237 1.350 . S
C3243 H3230 0.929 . S
C3243 C3235 1.433 . S
C3243 N3245 1.384 . S
N3244 C3240 1.427 . S
N3244 C3241 1.384 . S
N3245 C3237 1.427 . S
N3245 C3243 1.384 . S
H3246 C3252 0.930 . S
H3247 C3256 0.930 . S
H3248 C3261 0.929 . S
H3249 C3259 0.929 . S
H3250 C3254 0.929 . S
H3251 C3260 0.929 . S
C3252 H3246 0.930 . S
C3252 C3253 1.367 . S
C3252 C3260 1.378 . S
C3253 C3252 1.367 . S
C3253 C3261 1.433 . S
C3254 H3250 0.929 . S
C3254 C3256 1.378 . S
C3254 C3258 1.350 . S
C3255 C3258 1.463 . S
C3255 C3260 1.350 . S
C3255 N3263 1.427 . S
C3256 H3247 0.930 . S
C3256 C3254 1.378 . S
C3256 C3257 1.367 . S
C3257 C3256 1.367 . S
C3257 C3259 1.433 . S
C3258 C3254 1.350 . S
C3258 C3255 1.463 . S
C3258 N3262 1.427 . S
C3259 H3249 0.929 . S
C3259 C3257 1.433 . S
C3259 N3262 1.384 . S
C3260 H3251 0.929 . S
C3260 C3252 1.378 . S
C3260 C3255 1.350 . S
C3261 H3248 0.929 . S
C3261 C3253 1.433 . S
C3261 N3263 1.384 . S
N3262 C3258 1.427 . S
N3262 C3259 1.384 . S
N3263 C3255 1.427 . S
N3263 C3261 1.384 . S
H3264 C3270 0.930 . S
H3265 C3274 0.930 . S
H3266 C3279 0.929 . S
H3267 C3277 0.929 . S
H3268 C3272 0.929 . S
H3269 C3278 0.929 . S
C3270 H3264 0.930 . S
C3270 C3271 1.367 . S
C3270 C3278 1.378 . S
C3271 C3270 1.367 . S
C3271 C3279 1.433 . S
C3272 H3268 0.929 . S
C3272 C3274 1.378 . S
C3272 C3276 1.350 . S
C3273 C3276 1.463 . S
C3273 C3278 1.350 . S
C3273 N3281 1.427 . S
C3274 H3265 0.930 . S
C3274 C3272 1.378 . S
C3274 C3275 1.367 . S
C3275 C3274 1.367 . S
C3275 C3277 1.433 . S
C3276 C3272 1.350 . S
C3276 C3273 1.463 . S
C3276 N3280 1.427 . S
C3277 H3267 0.929 . S
C3277 C3275 1.433 . S
C3277 N3280 1.384 . S
C3278 H3269 0.929 . S
C3278 C3270 1.378 . S
C3278 C3273 1.350 . S
C3279 H3266 0.929 . S
C3279 C3271 1.433 . S
C3279 N3281 1.384 . S
N3280 C3276 1.427 . S
N3280 C3277 1.384 . S
N3281 C3273 1.427 . S
N3281 C3279 1.384 . S
H3282 C3288 0.930 . S
H3283 C3292 0.930 . S
H3284 C3297 0.929 . S
H3285 C3295 0.929 . S
H3286 C3290 0.929 . S
H3287 C3296 0.929 . S
C3288 H3282 0.930 . S
C3288 C3289 1.367 . S
C3288 C3296 1.378 . S
C3289 C3288 1.367 . S
C3289 C3297 1.433 . S
C3290 H3286 0.929 . S
C3290 C3292 1.378 . S
C3290 C3294 1.376 . S
C3291 C3294 1.411 1_556 S
C3291 C3296 1.350 . S
C3291 N3299 1.427 . S
C3292 H3283 0.930 . S
C3292 C3290 1.378 . S
C3292 C3293 1.367 . S
C3293 C3292 1.367 . S
C3293 C3295 1.433 . S
C3294 C3290 1.376 . S
C3294 C3291 1.411 1_554 S
C3294 N3298 1.452 . S
C3295 H3285 0.929 . S
C3295 C3293 1.433 . S
C3295 N3298 1.384 . S
C3296 H3287 0.929 . S
C3296 C3288 1.378 . S
C3296 C3291 1.350 . S
C3297 H3284 0.929 . S
C3297 C3289 1.433 . S
C3297 N3299 1.384 . S
N3298 C3294 1.452 . S
N3298 C3295 1.384 . S
N3299 C3291 1.427 . S
N3299 C3297 1.384 . S
H3300 C3306 0.930 . S
H3301 C3310 0.930 . S
H3302 C3315 0.929 . S
H3303 C3313 0.929 . S
H3304 C3308 0.929 . S
H3305 C3314 0.929 . S
C3306 H3300 0.930 . S
C3306 C3307 1.367 . S
C3306 C3314 1.378 . S
C3307 C3306 1.367 . S
C3307 C3315 1.433 . S
C3308 H3304 0.929 . S
C3308 C3310 1.378 . S
C3308 C3312 1.350 . S
C3309 C3312 1.463 . S
C3309 C3314 1.350 . S
C3309 N3317 1.427 . S
C3310 H3301 0.930 . S
C3310 C3308 1.378 . S
C3310 C3311 1.367 . S
C3311 C3310 1.367 . S
C3311 C3313 1.433 . S
C3312 C3308 1.350 . S
C3312 C3309 1.463 . S
C3312 N3316 1.427 . S
C3313 H3303 0.929 . S
C3313 C3311 1.433 . S
C3313 N3316 1.384 . S
C3314 H3305 0.929 . S
C3314 C3306 1.378 . S
C3314 C3309 1.350 . S
C3315 H3302 0.929 . S
C3315 C3307 1.433 . S
C3315 N3317 1.384 . S
N3316 C3312 1.427 . S
N3316 C3313 1.384 . S
N3317 C3309 1.427 . S
N3317 C3315 1.384 . S
H3318 C3324 0.930 . S
H3319 C3328 0.930 . S
H3320 C3333 0.929 . S
H3321 C3331 0.929 . S
H3322 C3326 0.929 . S
H3323 C3332 0.929 . S
C3324 H3318 0.930 . S
C3324 C3325 1.367 . S
C3324 C3332 1.378 . S
C3325 C3324 1.367 . S
C3325 C3333 1.433 . S
C3326 H3322 0.929 . S
C3326 C3328 1.378 . S
C3326 C3330 1.350 . S
C3327 C3330 1.463 1_556 S
C3327 C3332 1.350 . S
C3327 N3335 1.427 . S
C3328 H3319 0.930 . S
C3328 C3326 1.378 . S
C3328 C3329 1.367 . S
C3329 C3328 1.367 . S
C3329 C3331 1.433 . S
C3330 C3326 1.350 . S
C3330 C3327 1.463 1_554 S
C3330 N3334 1.427 . S
C3331 H3321 0.929 . S
C3331 C3329 1.433 . S
C3331 N3334 1.384 . S
C3332 H3323 0.929 . S
C3332 C3324 1.378 . S
C3332 C3327 1.350 . S
C3333 H3320 0.929 . S
C3333 C3325 1.433 . S
C3333 N3335 1.384 . S
N3334 C3330 1.427 . S
N3334 C3331 1.384 . S
N3335 C3327 1.427 . S
N3335 C3333 1.384 . S
H3336 C3342 0.930 . S
H3337 C3346 0.930 . S
H3338 C3351 0.929 . S
H3339 C3349 0.929 . S
H3340 C3344 0.929 . S
H3341 C3350 0.929 . S
C3342 H3336 0.930 . S
C3342 C3343 1.367 . S
C3342 C3350 1.378 . S
C3343 C3342 1.367 . S
C3343 C3351 1.433 . S
C3344 H3340 0.929 . S
C3344 C3346 1.378 . S
C3344 C3348 1.350 . S
C3345 C3348 1.463 . S
C3345 C3350 1.350 . S
C3345 N3353 1.427 . S
C3346 H3337 0.930 . S
C3346 C3344 1.378 . S
C3346 C3347 1.367 . S
C3347 C3346 1.367 . S
C3347 C3349 1.433 . S
C3348 C3344 1.350 . S
C3348 C3345 1.463 . S
C3348 N3352 1.427 . S
C3349 H3339 0.929 . S
C3349 C3347 1.433 . S
C3349 N3352 1.384 . S
C3350 H3341 0.929 . S
C3350 C3342 1.378 . S
C3350 C3345 1.350 . S
C3351 H3338 0.929 . S
C3351 C3343 1.433 . S
C3351 N3353 1.384 . S
N3352 C3348 1.427 . S
N3352 C3349 1.384 . S
N3353 C3345 1.427 . S
N3353 C3351 1.384 . S
H3354 C3360 0.930 . S
H3355 C3364 0.930 . S
H3356 C3369 0.929 . S
H3357 C3367 0.929 . S
H3358 C3362 0.929 . S
H3359 C3368 0.943 . S
C3360 H3354 0.930 . S
C3360 C3361 1.367 . S
C3360 C3368 1.378 . S
C3361 C3360 1.367 . S
C3361 C3369 1.433 . S
C3362 H3358 0.929 . S
C3362 C3364 1.378 . S
C3362 C3366 1.350 . S
C3363 C3366 1.463 . S
C3363 C3368 1.350 1_554 S
C3363 N3371 1.427 1_554 S
C3364 H3355 0.930 . S
C3364 C3362 1.378 . S
C3364 C3365 1.367 . S
C3365 C3364 1.367 . S
C3365 C3367 1.433 . S
C3366 C3362 1.350 . S
C3366 C3363 1.463 . S
C3366 N3370 1.427 . S
C3367 H3357 0.929 . S
C3367 C3365 1.433 . S
C3367 N3370 1.384 . S
C3368 H3359 0.943 . S
C3368 C3360 1.378 . S
C3368 C3363 1.350 1_556 S
C3369 H3356 0.929 . S
C3369 C3361 1.433 . S
C3369 N3371 1.384 . S
N3370 C3366 1.427 . S
N3370 C3367 1.384 . S
N3371 C3363 1.427 1_556 S
N3371 C3369 1.384 . S
H3372 C3378 0.930 . S
H3373 C3382 0.930 . S
H3374 C3387 0.929 . S
H3375 C3385 0.929 . S
H3376 C3380 0.929 . S
H3377 C3386 0.929 . S
C3378 H3372 0.930 . S
C3378 C3379 1.367 . S
C3378 C3386 1.378 . S
C3379 C3378 1.367 . S
C3379 C3387 1.433 . S
C3380 H3376 0.929 . S
C3380 C3382 1.378 . S
C3380 C3384 1.350 . S
C3381 C3384 1.463 . S
C3381 C3386 1.350 . S
C3381 N3389 1.427 . S
C3382 H3373 0.930 . S
C3382 C3380 1.378 . S
C3382 C3383 1.367 . S
C3383 C3382 1.367 . S
C3383 C3385 1.433 . S
C3384 C3380 1.350 . S
C3384 C3381 1.463 . S
C3384 N3388 1.427 . S
C3385 H3375 0.929 . S
C3385 C3383 1.433 . S
C3385 N3388 1.384 . S
C3386 H3377 0.929 . S
C3386 C3378 1.378 . S
C3386 C3381 1.350 . S
C3387 H3374 0.929 . S
C3387 C3379 1.433 . S
C3387 N3389 1.384 . S
N3388 C3384 1.427 . S
N3388 C3385 1.384 . S
N3389 C3381 1.427 . S
N3389 C3387 1.384 . S
H3390 C3396 0.930 . S
H3391 C3400 0.930 . S
H3392 C3405 0.929 . S
H3393 C3403 0.929 . S
H3394 C3398 0.929 . S
H3395 C3404 0.929 . S
C3396 H3390 0.930 . S
C3396 C3397 1.367 . S
C3396 C3404 1.378 . S
C3397 C3396 1.367 . S
C3397 C3405 1.433 . S
C3398 H3394 0.929 . S
C3398 C3400 1.378 . S
C3398 C3402 1.350 . S
C3399 C3402 1.463 1_556 S
C3399 C3404 1.350 . S
C3399 N3407 1.427 . S
C3400 H3391 0.930 . S
C3400 C3398 1.378 . S
C3400 C3401 1.367 . S
C3401 C3400 1.367 . S
C3401 C3403 1.433 . S
C3402 C3398 1.350 . S
C3402 C3399 1.463 1_554 S
C3402 N3406 1.427 . S
C3403 H3393 0.929 . S
C3403 C3401 1.433 . S
C3403 N3406 1.384 . S
C3404 H3395 0.929 . S
C3404 C3396 1.378 . S
C3404 C3399 1.350 . S
C3405 H3392 0.929 . S
C3405 C3397 1.433 . S
C3405 N3407 1.384 . S
N3406 C3402 1.427 . S
N3406 C3403 1.384 . S
N3407 C3399 1.427 . S
N3407 C3405 1.384 . S
H3408 C3414 0.930 . S
H3409 C3418 0.930 . S
H3410 C3423 0.929 . S
H3411 C3421 0.929 . S
H3412 C3416 0.929 . S
H3413 C3422 0.929 . S
C3414 H3408 0.930 . S
C3414 C3415 1.367 . S
C3414 C3422 1.378 . S
C3415 C3414 1.367 . S
C3415 C3423 1.433 . S
C3416 H3412 0.929 . S
C3416 C3418 1.378 . S
C3416 C3420 1.350 . S
C3417 C3420 1.463 . S
C3417 C3422 1.350 . S
C3417 N3425 1.427 . S
C3418 H3409 0.930 . S
C3418 C3416 1.378 . S
C3418 C3419 1.367 . S
C3419 C3418 1.367 . S
C3419 C3421 1.433 . S
C3420 C3416 1.350 . S
C3420 C3417 1.463 . S
C3420 N3424 1.427 . S
C3421 H3411 0.929 . S
C3421 C3419 1.433 . S
C3421 N3424 1.384 . S
C3422 H3413 0.929 . S
C3422 C3414 1.378 . S
C3422 C3417 1.350 . S
C3423 H3410 0.929 . S
C3423 C3415 1.433 . S
C3423 N3425 1.384 . S
N3424 C3420 1.427 . S
N3424 C3421 1.384 . S
N3425 C3417 1.427 . S
N3425 C3423 1.384 . S
H3426 C3432 0.930 . S
H3427 C3436 0.930 . S
H3428 C3441 0.929 . S
H3429 C3439 0.929 . S
H3430 C3434 0.955 . S
H3431 C3440 0.929 . S
C3432 H3426 0.930 . S
C3432 C3433 1.367 . S
C3432 C3440 1.378 . S
C3433 C3432 1.367 . S
C3433 C3441 1.433 . S
C3434 H3430 0.955 . S
C3434 C3436 1.378 . S
C3434 C3438 1.355 . S
C3435 C3438 1.451 1_565 S
C3435 C3440 1.350 . S
C3435 N3443 1.427 . S
C3436 H3427 0.930 . S
C3436 C3434 1.378 . S
C3436 C3437 1.367 . S
C3437 C3436 1.367 . S
C3437 C3439 1.433 . S
C3438 C3434 1.355 . S
C3438 C3435 1.451 1_545 S
C3438 N3442 1.433 . S
C3439 H3429 0.929 . S
C3439 C3437 1.433 . S
C3439 N3442 1.384 . S
C3440 H3431 0.929 . S
C3440 C3432 1.378 . S
C3440 C3435 1.350 . S
C3441 H3428 0.929 . S
C3441 C3433 1.433 . S
C3441 N3443 1.384 . S
N3442 C3438 1.433 . S
N3442 C3439 1.384 . S
N3443 C3435 1.427 . S
N3443 C3441 1.384 . S
H3444 C3450 0.930 . S
H3445 C3454 0.930 . S
H3446 C3459 0.929 . S
H3447 C3457 0.929 . S
H3448 C3452 0.929 . S
H3449 C3458 0.929 . S
C3450 H3444 0.930 . S
C3450 C3451 1.367 . S
C3450 C3458 1.378 . S
C3451 C3450 1.367 . S
C3451 C3459 1.433 . S
C3452 H3448 0.929 . S
C3452 C3454 1.378 . S
C3452 C3456 1.350 . S
C3453 C3456 1.463 . S
C3453 C3458 1.350 . S
C3453 N3461 1.427 . S
C3454 H3445 0.930 . S
C3454 C3452 1.378 . S
C3454 C3455 1.367 . S
C3455 C3454 1.367 . S
C3455 C3457 1.433 . S
C3456 C3452 1.350 . S
C3456 C3453 1.463 . S
C3456 N3460 1.427 . S
C3457 H3447 0.929 . S
C3457 C3455 1.433 . S
C3457 N3460 1.384 . S
C3458 H3449 0.929 . S
C3458 C3450 1.378 . S
C3458 C3453 1.350 . S
C3459 H3446 0.929 . S
C3459 C3451 1.433 . S
C3459 N3461 1.384 . S
N3460 C3456 1.427 . S
N3460 C3457 1.384 . S
N3461 C3453 1.427 . S
N3461 C3459 1.384 . S
H3462 C3468 0.930 . S
H3463 C3472 0.930 . S
H3464 C3477 0.929 . S
H3465 C3475 0.929 . S
H3466 C3470 0.929 . S
H3467 C3476 0.929 . S
C3468 H3462 0.930 . S
C3468 C3469 1.367 . S
C3468 C3476 1.378 . S
C3469 C3468 1.367 . S
C3469 C3477 1.433 . S
C3470 H3466 0.929 . S
C3470 C3472 1.378 . S
C3470 C3474 1.350 . S
C3471 C3474 1.463 1_545 S
C3471 C3476 1.350 . S
C3471 N3479 1.427 . S
C3472 H3463 0.930 . S
C3472 C3470 1.378 . S
C3472 C3473 1.367 . S
C3473 C3472 1.367 . S
C3473 C3475 1.433 . S
C3474 C3470 1.350 . S
C3474 C3471 1.463 1_565 S
C3474 N3478 1.427 . S
C3475 H3465 0.929 . S
C3475 C3473 1.433 . S
C3475 N3478 1.384 . S
C3476 H3467 0.929 . S
C3476 C3468 1.378 . S
C3476 C3471 1.350 . S
C3477 H3464 0.929 . S
C3477 C3469 1.433 . S
C3477 N3479 1.384 . S
N3478 C3474 1.427 . S
N3478 C3475 1.384 . S
N3479 C3471 1.427 . S
N3479 C3477 1.384 . S
H3480 C3486 0.930 . S
H3481 C3490 0.930 . S
H3482 C3495 0.929 . S
H3483 C3493 0.929 . S
H3484 C3488 0.929 . S
H3485 C3494 0.929 . S
C3486 H3480 0.930 . S
C3486 C3487 1.367 . S
C3486 C3494 1.378 . S
C3487 C3486 1.367 . S
C3487 C3495 1.433 . S
C3488 H3484 0.929 . S
C3488 C3490 1.378 . S
C3488 C3492 1.350 . S
C3489 C3492 1.463 . S
C3489 C3494 1.350 . S
C3489 N3497 1.427 . S
C3490 H3481 0.930 . S
C3490 C3488 1.378 . S
C3490 C3491 1.367 . S
C3491 C3490 1.367 . S
C3491 C3493 1.433 . S
C3492 C3488 1.350 . S
C3492 C3489 1.463 . S
C3492 N3496 1.427 . S
C3493 H3483 0.929 . S
C3493 C3491 1.433 . S
C3493 N3496 1.384 . S
C3494 H3485 0.929 . S
C3494 C3486 1.378 . S
C3494 C3489 1.350 . S
C3495 H3482 0.929 . S
C3495 C3487 1.433 . S
C3495 N3497 1.384 . S
N3496 C3492 1.427 . S
N3496 C3493 1.384 . S
N3497 C3489 1.427 . S
N3497 C3495 1.384 . S
H3498 C3504 0.930 . S
H3499 C3508 0.930 . S
H3500 C3513 0.929 . S
H3501 C3511 0.929 . S
H3502 C3506 0.929 . S
H3503 C3512 0.929 . S
C3504 H3498 0.930 . S
C3504 C3505 1.367 . S
C3504 C3512 1.378 . S
C3505 C3504 1.367 . S
C3505 C3513 1.433 . S
C3506 H3502 0.929 . S
C3506 C3508 1.378 . S
C3506 C3510 1.350 . S
C3507 C3510 1.463 1_565 S
C3507 C3512 1.350 . S
C3507 N3515 1.427 . S
C3508 H3499 0.930 . S
C3508 C3506 1.378 . S
C3508 C3509 1.367 . S
C3509 C3508 1.367 . S
C3509 C3511 1.433 . S
C3510 C3506 1.350 . S
C3510 C3507 1.463 1_545 S
C3510 N3514 1.427 . S
C3511 H3501 0.929 . S
C3511 C3509 1.433 . S
C3511 N3514 1.384 . S
C3512 H3503 0.929 . S
C3512 C3504 1.378 . S
C3512 C3507 1.350 . S
C3513 H3500 0.929 . S
C3513 C3505 1.433 . S
C3513 N3515 1.384 . S
N3514 C3510 1.427 . S
N3514 C3511 1.384 . S
N3515 C3507 1.427 . S
N3515 C3513 1.384 . S
H3516 C3522 0.930 . S
H3517 C3526 0.930 . S
H3518 C3531 0.929 . S
H3519 C3529 0.929 . S
H3520 C3524 0.929 . S
H3521 C3530 0.929 . S
C3522 H3516 0.930 . S
C3522 C3523 1.367 . S
C3522 C3530 1.378 . S
C3523 C3522 1.367 . S
C3523 C3531 1.433 . S
C3524 H3520 0.929 . S
C3524 C3526 1.378 . S
C3524 C3528 1.350 . S
C3525 C3528 1.463 . S
C3525 C3530 1.350 . S
C3525 N3533 1.427 . S
C3526 H3517 0.930 . S
C3526 C3524 1.378 . S
C3526 C3527 1.367 . S
C3527 C3526 1.367 . S
C3527 C3529 1.433 . S
C3528 C3524 1.350 . S
C3528 C3525 1.463 . S
C3528 N3532 1.427 . S
C3529 H3519 0.929 . S
C3529 C3527 1.433 . S
C3529 N3532 1.384 . S
C3530 H3521 0.929 . S
C3530 C3522 1.378 . S
C3530 C3525 1.350 . S
C3531 H3518 0.929 . S
C3531 C3523 1.433 . S
C3531 N3533 1.384 . S
N3532 C3528 1.427 . S
N3532 C3529 1.384 . S
N3533 C3525 1.427 . S
N3533 C3531 1.384 . S
H3534 C3540 0.930 . S
H3535 C3544 0.930 . S
H3536 C3549 0.929 . S
H3537 C3547 0.929 . S
H3538 C3542 0.929 . S
H3539 C3548 0.929 . S
C3540 H3534 0.930 . S
C3540 C3541 1.367 . S
C3540 C3548 1.378 . S
C3541 C3540 1.367 . S
C3541 C3549 1.433 . S
C3542 H3538 0.929 . S
C3542 C3544 1.378 . S
C3542 C3546 1.350 . S
C3543 C3546 1.463 1_565 S
C3543 C3548 1.350 . S
C3543 N3551 1.427 . S
C3544 H3535 0.930 . S
C3544 C3542 1.378 . S
C3544 C3545 1.367 . S
C3545 C3544 1.367 . S
C3545 C3547 1.433 . S
C3546 C3542 1.350 . S
C3546 C3543 1.463 1_545 S
C3546 N3550 1.427 . S
C3547 H3537 0.929 . S
C3547 C3545 1.433 . S
C3547 N3550 1.384 . S
C3548 H3539 0.929 . S
C3548 C3540 1.378 . S
C3548 C3543 1.350 . S
C3549 H3536 0.929 . S
C3549 C3541 1.433 . S
C3549 N3551 1.384 . S
N3550 C3546 1.427 . S
N3550 C3547 1.384 . S
N3551 C3543 1.427 . S
N3551 C3549 1.384 . S
H3552 C3558 0.930 . S
H3553 C3562 0.930 . S
H3554 C3567 0.929 . S
H3555 C3565 0.929 . S
H3556 C3560 0.929 . S
H3557 C3566 0.929 . S
C3558 H3552 0.930 . S
C3558 C3559 1.367 . S
C3558 C3566 1.378 . S
C3559 C3558 1.367 . S
C3559 C3567 1.433 . S
C3560 H3556 0.929 . S
C3560 C3562 1.378 . S
C3560 C3564 1.350 . S
C3561 C3564 1.463 . S
C3561 C3566 1.350 . S
C3561 N3569 1.427 . S
C3562 H3553 0.930 . S
C3562 C3560 1.378 . S
C3562 C3563 1.367 . S
C3563 C3562 1.367 . S
C3563 C3565 1.433 . S
C3564 C3560 1.350 . S
C3564 C3561 1.463 . S
C3564 N3568 1.427 . S
C3565 H3555 0.929 . S
C3565 C3563 1.433 . S
C3565 N3568 1.384 . S
C3566 H3557 0.929 . S
C3566 C3558 1.378 . S
C3566 C3561 1.350 . S
C3567 H3554 0.929 . S
C3567 C3559 1.433 . S
C3567 N3569 1.384 . S
N3568 C3564 1.427 . S
N3568 C3565 1.384 . S
N3569 C3561 1.427 . S
N3569 C3567 1.384 . S
H3570 C3576 0.930 . S
H3571 C3580 0.930 . S
H3572 C3585 0.929 . S
H3573 C3583 0.929 . S
H3574 C3578 0.929 . S
H3575 C3584 0.929 . S
C3576 H3570 0.930 . S
C3576 C3577 1.367 . S
C3576 C3584 1.378 . S
C3577 C3576 1.367 . S
C3577 C3585 1.433 . S
C3578 H3574 0.929 . S
C3578 C3580 1.378 . S
C3578 C3582 1.350 . S
C3579 C3582 1.463 . S
C3579 C3584 1.350 . S
C3579 N3587 1.427 . S
C3580 H3571 0.930 . S
C3580 C3578 1.378 . S
C3580 C3581 1.367 . S
C3581 C3580 1.367 . S
C3581 C3583 1.433 . S
C3582 C3578 1.350 . S
C3582 C3579 1.463 . S
C3582 N3586 1.427 . S
C3583 H3573 0.929 . S
C3583 C3581 1.433 . S
C3583 N3586 1.384 . S
C3584 H3575 0.929 . S
C3584 C3576 1.378 . S
C3584 C3579 1.350 . S
C3585 H3572 0.929 . S
C3585 C3577 1.433 . S
C3585 N3587 1.384 . S
N3586 C3582 1.427 . S
N3586 C3583 1.384 . S
N3587 C3579 1.427 . S
N3587 C3585 1.384 . S
H3588 C3594 0.930 . S
H3589 C3598 0.930 . S
H3590 C3603 0.929 . S
H3591 C3601 0.929 . S
H3592 C3596 0.900 1_455 S
H3593 C3602 0.929 . S
C3594 H3588 0.930 . S
C3594 C3595 1.367 . S
C3594 C3602 1.378 . S
C3595 C3594 1.367 . S
C3595 C3603 1.433 . S
C3596 H3592 0.900 1_655 S
C3596 C3598 1.432 . S
C3596 C3600 1.327 1_655 S
C3597 C3600 1.463 . S
C3597 C3602 1.350 . S
C3597 N3605 1.427 . S
C3598 H3589 0.930 . S
C3598 C3596 1.432 . S
C3598 C3599 1.367 . S
C3599 C3598 1.367 . S
C3599 C3601 1.433 . S
C3600 C3596 1.327 1_455 S
C3600 C3597 1.463 . S
C3600 N3604 1.409 1_455 S
C3601 H3591 0.929 . S
C3601 C3599 1.433 . S
C3601 N3604 1.420 . S
C3602 H3593 0.929 . S
C3602 C3594 1.378 . S
C3602 C3597 1.350 . S
C3603 H3590 0.929 . S
C3603 C3595 1.433 . S
C3603 N3605 1.384 . S
N3604 C3600 1.409 1_655 S
N3604 C3601 1.420 . S
N3605 C3597 1.427 . S
N3605 C3603 1.384 . S
H3606 C3612 0.930 . S
H3607 C3616 0.930 . S
H3608 C3621 0.929 . S
H3609 C3619 0.929 . S
H3610 C3614 0.929 . S
H3611 C3620 0.929 . S
C3612 H3606 0.930 . S
C3612 C3613 1.367 . S
C3612 C3620 1.378 . S
C3613 C3612 1.367 . S
C3613 C3621 1.433 . S
C3614 H3610 0.929 . S
C3614 C3616 1.378 . S
C3614 C3618 1.350 . S
C3615 C3618 1.463 . S
C3615 C3620 1.350 . S
C3615 N3623 1.427 . S
C3616 H3607 0.930 . S
C3616 C3614 1.378 . S
C3616 C3617 1.367 . S
C3617 C3616 1.367 . S
C3617 C3619 1.433 . S
C3618 C3614 1.350 . S
C3618 C3615 1.463 . S
C3618 N3622 1.427 . S
C3619 H3609 0.929 . S
C3619 C3617 1.433 . S
C3619 N3622 1.384 . S
C3620 H3611 0.929 . S
C3620 C3612 1.378 . S
C3620 C3615 1.350 . S
C3621 H3608 0.929 . S
C3621 C3613 1.433 . S
C3621 N3623 1.384 . S
N3622 C3618 1.427 . S
N3622 C3619 1.384 . S
N3623 C3615 1.427 . S
N3623 C3621 1.384 . S
H3624 C3630 0.930 . S
H3625 C3634 0.930 . S
H3626 C3639 0.929 . S
H3627 C3637 0.929 . S
H3628 C3632 0.929 . S
H3629 C3638 0.929 1_655 S
C3630 H3624 0.930 . S
C3630 C3631 1.367 . S
C3630 C3638 1.378 . S
C3631 C3630 1.367 . S
C3631 C3639 1.433 . S
C3632 H3628 0.929 . S
C3632 C3634 1.378 . S
C3632 C3636 1.350 . S
C3633 C3636 1.463 . S
C3633 C3638 1.350 1_655 S
C3633 N3641 1.427 1_655 S
C3634 H3625 0.930 . S
C3634 C3632 1.378 . S
C3634 C3635 1.367 . S
C3635 C3634 1.367 . S
C3635 C3637 1.433 . S
C3636 C3632 1.350 . S
C3636 C3633 1.463 . S
C3636 N3640 1.427 . S
C3637 H3627 0.929 . S
C3637 C3635 1.433 . S
C3637 N3640 1.384 . S
C3638 H3629 0.929 1_455 S
C3638 C3630 1.378 . S
C3638 C3633 1.350 1_455 S
C3639 H3626 0.929 . S
C3639 C3631 1.433 . S
C3639 N3641 1.384 . S
N3640 C3636 1.427 . S
N3640 C3637 1.384 . S
N3641 C3633 1.427 1_455 S
N3641 C3639 1.384 . S
H3642 C3648 0.930 . S
H3643 C3652 0.930 . S
H3644 C3657 0.929 . S
H3645 C3655 0.929 . S
H3646 C3650 0.929 . S
H3647 C3656 0.929 . S
C3648 H3642 0.930 . S
C3648 C3649 1.367 . S
C3648 C3656 1.378 . S
C3649 C3648 1.367 . S
C3649 C3657 1.433 . S
C3650 H3646 0.929 . S
C3650 C3652 1.378 . S
C3650 C3654 1.350 . S
C3651 C3654 1.463 . S
C3651 C3656 1.350 . S
C3651 N3659 1.427 . S
C3652 H3643 0.930 . S
C3652 C3650 1.378 . S
C3652 C3653 1.367 . S
C3653 C3652 1.367 . S
C3653 C3655 1.433 . S
C3654 C3650 1.350 . S
C3654 C3651 1.463 . S
C3654 N3658 1.427 . S
C3655 H3645 0.929 . S
C3655 C3653 1.433 . S
C3655 N3658 1.384 . S
C3656 H3647 0.929 . S
C3656 C3648 1.378 . S
C3656 C3651 1.350 . S
C3657 H3644 0.929 . S
C3657 C3649 1.433 . S
C3657 N3659 1.384 . S
N3658 C3654 1.427 . S
N3658 C3655 1.384 . S
N3659 C3651 1.427 . S
N3659 C3657 1.384 . S
H3660 C3666 0.930 . S
H3661 C3670 0.930 . S
H3662 C3675 0.929 . S
H3663 C3673 0.929 . S
H3664 C3668 0.929 1_655 S
H3665 C3674 0.929 . S
C3666 H3660 0.930 . S
C3666 C3667 1.367 . S
C3666 C3674 1.378 . S
C3667 C3666 1.367 . S
C3667 C3675 1.433 . S
C3668 H3664 0.929 1_455 S
C3668 C3670 1.378 . S
C3668 C3672 1.350 1_455 S
C3669 C3672 1.463 . S
C3669 C3674 1.350 . S
C3669 N3677 1.427 . S
C3670 H3661 0.930 . S
C3670 C3668 1.378 . S
C3670 C3671 1.367 . S
C3671 C3670 1.367 . S
C3671 C3673 1.433 . S
C3672 C3668 1.350 1_655 S
C3672 C3669 1.463 . S
C3672 N3676 1.427 1_655 S
C3673 H3663 0.929 . S
C3673 C3671 1.433 . S
C3673 N3676 1.384 . S
C3674 H3665 0.929 . S
C3674 C3666 1.378 . S
C3674 C3669 1.350 . S
C3675 H3662 0.929 . S
C3675 C3667 1.433 . S
C3675 N3677 1.384 . S
N3676 C3672 1.427 1_455 S
N3676 C3673 1.384 . S
N3677 C3669 1.427 . S
N3677 C3675 1.384 . S
H3678 C3684 0.930 . S
H3679 C3688 0.930 . S
H3680 C3693 0.929 . S
H3681 C3691 0.929 . S
H3682 C3686 0.926 1_455 S
H3683 C3692 0.929 . S
C3684 H3678 0.930 . S
C3684 C3685 1.367 . S
C3684 C3692 1.378 . S
C3685 C3684 1.367 . S
C3685 C3693 1.433 . S
C3686 H3682 0.926 1_655 S
C3686 C3688 1.382 . S
C3686 C3690 1.348 1_655 S
C3687 C3690 1.463 . S
C3687 C3692 1.350 . S
C3687 N3695 1.427 . S
C3688 H3679 0.930 . S
C3688 C3686 1.382 . S
C3688 C3689 1.367 . S
C3689 C3688 1.367 . S
C3689 C3691 1.433 . S
C3690 C3686 1.348 1_455 S
C3690 C3687 1.463 . S
C3690 N3694 1.440 . S
C3691 H3681 0.929 . S
C3691 C3689 1.433 . S
C3691 N3694 1.356 1_655 S
C3692 H3683 0.929 . S
C3692 C3684 1.378 . S
C3692 C3687 1.350 . S
C3693 H3680 0.929 . S
C3693 C3685 1.433 . S
C3693 N3695 1.384 . S
N3694 C3690 1.440 . S
N3694 C3691 1.356 1_455 S
N3695 C3687 1.427 . S
N3695 C3693 1.384 . S
H3696 C3702 0.930 . S
H3697 C3706 0.930 . S
H3698 C3711 0.929 . S
H3699 C3709 0.929 . S
H3700 C3704 0.929 . S
H3701 C3710 0.929 . S
C3702 H3696 0.930 . S
C3702 C3703 1.367 . S
C3702 C3710 1.378 . S
C3703 C3702 1.367 . S
C3703 C3711 1.433 . S
C3704 H3700 0.929 . S
C3704 C3706 1.378 . S
C3704 C3708 1.332 1_455 S
C3705 C3708 1.498 . S
C3705 C3710 1.350 . S
C3705 N3713 1.427 . S
C3706 H3697 0.930 . S
C3706 C3704 1.378 . S
C3706 C3707 1.367 . S
C3707 C3706 1.367 . S
C3707 C3709 1.433 . S
C3708 C3704 1.332 1_655 S
C3708 C3705 1.498 . S
C3708 N3712 1.413 1_655 S
C3709 H3699 0.929 . S
C3709 C3707 1.433 . S
C3709 N3712 1.384 . S
C3710 H3701 0.929 . S
C3710 C3702 1.378 . S
C3710 C3705 1.350 . S
C3711 H3698 0.929 . S
C3711 C3703 1.433 . S
C3711 N3713 1.384 . S
N3712 C3708 1.413 1_455 S
N3712 C3709 1.384 . S
N3713 C3705 1.427 . S
N3713 C3711 1.384 . S
H3714 C3720 0.930 . S
H3715 C3724 0.930 . S
H3716 C3729 0.929 . S
H3717 C3727 0.929 . S
H3718 C3722 0.929 . S
H3719 C3728 0.929 . S
C3720 H3714 0.930 . S
C3720 C3721 1.367 . S
C3720 C3728 1.378 . S
C3721 C3720 1.367 . S
C3721 C3729 1.433 . S
C3722 H3718 0.929 . S
C3722 C3724 1.378 . S
C3722 C3726 1.350 . S
C3723 C3726 1.463 . S
C3723 C3728 1.350 . S
C3723 N3731 1.427 . S
C3724 H3715 0.930 . S
C3724 C3722 1.378 . S
C3724 C3725 1.367 . S
C3725 C3724 1.367 . S
C3725 C3727 1.433 . S
C3726 C3722 1.350 . S
C3726 C3723 1.463 . S
C3726 N3730 1.427 . S
C3727 H3717 0.929 . S
C3727 C3725 1.433 . S
C3727 N3730 1.384 . S
C3728 H3719 0.929 . S
C3728 C3720 1.378 . S
C3728 C3723 1.350 . S
C3729 H3716 0.929 . S
C3729 C3721 1.433 . S
C3729 N3731 1.384 . S
N3730 C3726 1.427 . S
N3730 C3727 1.384 . S
N3731 C3723 1.427 . S
N3731 C3729 1.384 . S
H3732 C3738 0.930 . S
H3733 C3742 0.930 . S
H3734 C3747 0.929 . S
H3735 C3745 0.929 . S
H3736 C3740 0.929 . S
H3737 C3746 0.929 . S
C3738 H3732 0.930 . S
C3738 C3739 1.367 . S
C3738 C3746 1.378 . S
C3739 C3738 1.367 . S
C3739 C3747 1.433 . S
C3740 H3736 0.929 . S
C3740 C3742 1.378 . S
C3740 C3744 1.350 . S
C3741 C3744 1.463 1_455 S
C3741 C3746 1.350 . S
C3741 N3749 1.427 . S
C3742 H3733 0.930 . S
C3742 C3740 1.378 . S
C3742 C3743 1.367 . S
C3743 C3742 1.367 . S
C3743 C3745 1.433 . S
C3744 C3740 1.350 . S
C3744 C3741 1.463 1_655 S
C3744 N3748 1.427 . S
C3745 H3735 0.929 . S
C3745 C3743 1.433 . S
C3745 N3748 1.384 . S
C3746 H3737 0.929 . S
C3746 C3738 1.378 . S
C3746 C3741 1.350 . S
C3747 H3734 0.929 . S
C3747 C3739 1.433 . S
C3747 N3749 1.384 . S
N3748 C3744 1.427 . S
N3748 C3745 1.384 . S
N3749 C3741 1.427 . S
N3749 C3747 1.384 . S
H3750 C3756 0.930 . S
H3751 C3760 0.930 . S
H3752 C3765 0.929 . S
H3753 C3763 0.929 . S
H3754 C3758 0.929 . S
H3755 C3764 0.929 . S
C3756 H3750 0.930 . S
C3756 C3757 1.367 . S
C3756 C3764 1.378 . S
C3757 C3756 1.367 . S
C3757 C3765 1.433 . S
C3758 H3754 0.929 . S
C3758 C3760 1.378 . S
C3758 C3762 1.350 . S
C3759 C3762 1.463 . S
C3759 C3764 1.350 . S
C3759 N3767 1.427 . S
C3760 H3751 0.930 . S
C3760 C3758 1.378 . S
C3760 C3761 1.367 . S
C3761 C3760 1.367 . S
C3761 C3763 1.433 . S
C3762 C3758 1.350 . S
C3762 C3759 1.463 . S
C3762 N3766 1.427 . S
C3763 H3753 0.929 . S
C3763 C3761 1.433 . S
C3763 N3766 1.384 . S
C3764 H3755 0.929 . S
C3764 C3756 1.378 . S
C3764 C3759 1.350 . S
C3765 H3752 0.929 . S
C3765 C3757 1.433 . S
C3765 N3767 1.384 . S
N3766 C3762 1.427 . S
N3766 C3763 1.384 . S
N3767 C3759 1.427 . S
N3767 C3765 1.384 . S
H3768 C3774 0.930 . S
H3769 C3778 0.930 . S
H3770 C3783 0.929 . S
H3771 C3781 0.929 . S
H3772 C3776 0.929 . S
H3773 C3782 0.929 . S
C3774 H3768 0.930 . S
C3774 C3775 1.367 . S
C3774 C3782 1.378 . S
C3775 C3774 1.367 . S
C3775 C3783 1.433 . S
C3776 H3772 0.929 . S
C3776 C3778 1.378 . S
C3776 C3780 1.350 . S
C3777 C3780 1.463 . S
C3777 C3782 1.350 1_455 S
C3777 N3785 1.427 1_455 S
C3778 H3769 0.930 . S
C3778 C3776 1.378 . S
C3778 C3779 1.367 . S
C3779 C3778 1.367 . S
C3779 C3781 1.433 . S
C3780 C3776 1.350 . S
C3780 C3777 1.463 . S
C3780 N3784 1.427 . S
C3781 H3771 0.929 . S
C3781 C3779 1.433 . S
C3781 N3784 1.384 . S
C3782 H3773 0.929 . S
C3782 C3774 1.378 . S
C3782 C3777 1.350 1_655 S
C3783 H3770 0.929 . S
C3783 C3775 1.433 . S
C3783 N3785 1.384 . S
N3784 C3780 1.427 . S
N3784 C3781 1.384 . S
N3785 C3777 1.427 1_655 S
N3785 C3783 1.384 . S
H3786 C3792 0.930 . S
H3787 C3796 0.930 . S
H3788 C3801 0.929 . S
H3789 C3799 0.929 . S
H3790 C3794 0.929 . S
H3791 C3800 0.929 . S
C3792 H3786 0.930 . S
C3792 C3793 1.367 . S
C3792 C3800 1.378 . S
C3793 C3792 1.367 . S
C3793 C3801 1.433 . S
C3794 H3790 0.929 . S
C3794 C3796 1.378 . S
C3794 C3798 1.350 . S
C3795 C3798 1.463 . S
C3795 C3800 1.350 . S
C3795 N3803 1.427 . S
C3796 H3787 0.930 . S
C3796 C3794 1.378 . S
C3796 C3797 1.367 . S
C3797 C3796 1.367 . S
C3797 C3799 1.433 . S
C3798 C3794 1.350 . S
C3798 C3795 1.463 . S
C3798 N3802 1.427 . S
C3799 H3789 0.929 . S
C3799 C3797 1.433 . S
C3799 N3802 1.384 . S
C3800 H3791 0.929 . S
C3800 C3792 1.378 . S
C3800 C3795 1.350 . S
C3801 H3788 0.929 . S
C3801 C3793 1.433 . S
C3801 N3803 1.384 . S
N3802 C3798 1.427 . S
N3802 C3799 1.384 . S
N3803 C3795 1.427 . S
N3803 C3801 1.384 . S
H3804 C3810 0.930 . S
H3805 C3814 0.930 . S
H3806 C3819 0.929 . S
H3807 C3817 0.929 . S
H3808 C3812 0.929 . S
H3809 C3818 0.929 . S
C3810 H3804 0.930 . S
C3810 C3811 1.367 . S
C3810 C3818 1.378 . S
C3811 C3810 1.367 . S
C3811 C3819 1.433 . S
C3812 H3808 0.929 . S
C3812 C3814 1.378 . S
C3812 C3816 1.350 . S
C3813 C3816 1.463 1_655 S
C3813 C3818 1.350 . S
C3813 N3821 1.427 . S
C3814 H3805 0.930 . S
C3814 C3812 1.378 . S
C3814 C3815 1.367 . S
C3815 C3814 1.367 . S
C3815 C3817 1.433 . S
C3816 C3812 1.350 . S
C3816 C3813 1.463 1_455 S
C3816 N3820 1.427 . S
C3817 H3807 0.929 . S
C3817 C3815 1.433 . S
C3817 N3820 1.384 . S
C3818 H3809 0.929 . S
C3818 C3810 1.378 . S
C3818 C3813 1.350 . S
C3819 H3806 0.929 . S
C3819 C3811 1.433 . S
C3819 N3821 1.384 . S
N3820 C3816 1.427 . S
N3820 C3817 1.384 . S
N3821 C3813 1.427 . S
N3821 C3819 1.384 . S
H3822 C3828 0.930 . S
H3823 C3832 0.930 . S
H3824 C3837 0.929 . S
H3825 C3835 0.929 . S
H3826 C3830 0.929 . S
H3827 C3836 0.929 . S
C3828 H3822 0.930 . S
C3828 C3829 1.367 . S
C3828 C3836 1.378 . S
C3829 C3828 1.367 . S
C3829 C3837 1.433 . S
C3830 H3826 0.929 . S
C3830 C3832 1.378 . S
C3830 C3834 1.350 . S
C3831 C3834 1.463 . S
C3831 C3836 1.350 . S
C3831 N3839 1.427 . S
C3832 H3823 0.930 . S
C3832 C3830 1.378 . S
C3832 C3833 1.367 . S
C3833 C3832 1.367 . S
C3833 C3835 1.433 . S
C3834 C3830 1.350 . S
C3834 C3831 1.463 . S
C3834 N3838 1.427 . S
C3835 H3825 0.929 . S
C3835 C3833 1.433 . S
C3835 N3838 1.384 . S
C3836 H3827 0.929 . S
C3836 C3828 1.378 . S
C3836 C3831 1.350 . S
C3837 H3824 0.929 . S
C3837 C3829 1.433 . S
C3837 N3839 1.384 . S
N3838 C3834 1.427 . S
N3838 C3835 1.384 . S
N3839 C3831 1.427 . S
N3839 C3837 1.384 . S
H3840 C3846 0.930 . S
H3841 C3850 0.930 . S
H3842 C3855 0.929 . S
H3843 C3853 0.929 . S
H3844 C3848 0.929 . S
H3845 C3854 0.929 . S
C3846 H3840 0.930 . S
C3846 C3847 1.367 . S
C3846 C3854 1.378 . S
C3847 C3846 1.367 . S
C3847 C3855 1.433 . S
C3848 H3844 0.929 . S
C3848 C3850 1.378 . S
C3848 C3852 1.350 . S
C3849 C3852 1.463 1_545 S
C3849 C3854 1.350 . S
C3849 N3857 1.427 . S
C3850 H3841 0.930 . S
C3850 C3848 1.378 . S
C3850 C3851 1.367 . S
C3851 C3850 1.367 . S
C3851 C3853 1.433 . S
C3852 C3848 1.350 . S
C3852 C3849 1.463 1_565 S
C3852 N3856 1.427 . S
C3853 H3843 0.929 . S
C3853 C3851 1.433 . S
C3853 N3856 1.384 . S
C3854 H3845 0.929 . S
C3854 C3846 1.378 . S
C3854 C3849 1.350 . S
C3855 H3842 0.929 . S
C3855 C3847 1.433 . S
C3855 N3857 1.384 . S
N3856 C3852 1.427 . S
N3856 C3853 1.384 . S
N3857 C3849 1.427 . S
N3857 C3855 1.384 . S
H3858 C3864 0.930 . S
H3859 C3868 0.930 . S
H3860 C3873 0.929 . S
H3861 C3871 0.929 . S
H3862 C3866 0.929 . S
H3863 C3872 0.929 . S
C3864 H3858 0.930 . S
C3864 C3865 1.367 . S
C3864 C3872 1.378 . S
C3865 C3864 1.367 . S
C3865 C3873 1.433 . S
C3866 H3862 0.929 . S
C3866 C3868 1.378 . S
C3866 C3870 1.350 . S
C3867 C3870 1.463 . S
C3867 C3872 1.350 . S
C3867 N3875 1.427 . S
C3868 H3859 0.930 . S
C3868 C3866 1.378 . S
C3868 C3869 1.367 . S
C3869 C3868 1.367 . S
C3869 C3871 1.433 . S
C3870 C3866 1.350 . S
C3870 C3867 1.463 . S
C3870 N3874 1.427 . S
C3871 H3861 0.929 . S
C3871 C3869 1.433 . S
C3871 N3874 1.384 . S
C3872 H3863 0.929 . S
C3872 C3864 1.378 . S
C3872 C3867 1.350 . S
C3873 H3860 0.929 . S
C3873 C3865 1.433 . S
C3873 N3875 1.384 . S
N3874 C3870 1.427 . S
N3874 C3871 1.384 . S
N3875 C3867 1.427 . S
N3875 C3873 1.384 . S
H3876 C3882 0.930 . S
H3877 C3886 0.930 . S
H3878 C3891 0.929 . S
H3879 C3889 0.929 . S
H3880 C3884 0.929 . S
H3881 C3890 0.929 . S
C3882 H3876 0.930 . S
C3882 C3883 1.367 . S
C3882 C3890 1.378 . S
C3883 C3882 1.367 . S
C3883 C3891 1.433 . S
C3884 H3880 0.929 . S
C3884 C3886 1.378 . S
C3884 C3888 1.350 . S
C3885 C3888 1.458 . S
C3885 C3890 1.352 1_565 S
C3885 N3893 1.429 1_565 S
C3886 H3877 0.930 . S
C3886 C3884 1.378 . S
C3886 C3887 1.367 . S
C3887 C3886 1.367 . S
C3887 C3889 1.433 . S
C3888 C3884 1.350 . S
C3888 C3885 1.458 . S
C3888 N3892 1.427 . S
C3889 H3879 0.929 . S
C3889 C3887 1.433 . S
C3889 N3892 1.384 . S
C3890 H3881 0.929 . S
C3890 C3882 1.378 . S
C3890 C3885 1.352 1_545 S
C3891 H3878 0.929 . S
C3891 C3883 1.433 . S
C3891 N3893 1.384 . S
N3892 C3888 1.427 . S
N3892 C3889 1.384 . S
N3893 C3885 1.429 1_545 S
N3893 C3891 1.384 . S
H3894 C3900 0.930 . S
H3895 C3904 0.930 . S
H3896 C3909 0.929 . S
H3897 C3907 0.929 . S
H3898 C3902 0.929 . S
H3899 C3908 0.929 . S
C3900 H3894 0.930 . S
C3900 C3901 1.367 . S
C3900 C3908 1.378 . S
C3901 C3900 1.367 . S
C3901 C3909 1.433 . S
C3902 H3898 0.929 . S
C3902 C3904 1.378 . S
C3902 C3906 1.350 . S
C3903 C3906 1.463 . S
C3903 C3908 1.350 . S
C3903 N3911 1.427 . S
C3904 H3895 0.930 . S
C3904 C3902 1.378 . S
C3904 C3905 1.367 . S
C3905 C3904 1.367 . S
C3905 C3907 1.433 . S
C3906 C3902 1.350 . S
C3906 C3903 1.463 . S
C3906 N3910 1.427 . S
C3907 H3897 0.929 . S
C3907 C3905 1.433 . S
C3907 N3910 1.384 . S
C3908 H3899 0.929 . S
C3908 C3900 1.378 . S
C3908 C3903 1.350 . S
C3909 H3896 0.929 . S
C3909 C3901 1.433 . S
C3909 N3911 1.384 . S
N3910 C3906 1.427 . S
N3910 C3907 1.384 . S
N3911 C3903 1.427 . S
N3911 C3909 1.384 . S
H3912 C3918 0.930 . S
H3913 C3922 0.930 . S
H3914 C3927 0.929 . S
H3915 C3925 0.929 . S
H3916 C3920 0.929 . S
H3917 C3926 0.929 . S
C3918 H3912 0.930 . S
C3918 C3919 1.367 . S
C3918 C3926 1.378 . S
C3919 C3918 1.367 . S
C3919 C3927 1.433 . S
C3920 H3916 0.929 . S
C3920 C3922 1.378 . S
C3920 C3924 1.350 . S
C3921 C3924 1.463 1_545 S
C3921 C3926 1.350 . S
C3921 N3929 1.427 . S
C3922 H3913 0.930 . S
C3922 C3920 1.378 . S
C3922 C3923 1.367 . S
C3923 C3922 1.367 . S
C3923 C3925 1.433 . S
C3924 C3920 1.350 . S
C3924 C3921 1.463 1_565 S
C3924 N3928 1.427 . S
C3925 H3915 0.929 . S
C3925 C3923 1.433 . S
C3925 N3928 1.384 . S
C3926 H3917 0.929 . S
C3926 C3918 1.378 . S
C3926 C3921 1.350 . S
C3927 H3914 0.929 . S
C3927 C3919 1.433 . S
C3927 N3929 1.384 . S
N3928 C3924 1.427 . S
N3928 C3925 1.384 . S
N3929 C3921 1.427 . S
N3929 C3927 1.384 . S
H3930 C3936 0.930 . S
H3931 C3940 0.930 . S
H3932 C3945 0.929 . S
H3933 C3943 0.929 . S
H3934 C3938 0.929 . S
H3935 C3944 0.929 . S
C3936 H3930 0.930 . S
C3936 C3937 1.367 . S
C3936 C3944 1.378 . S
C3937 C3936 1.367 . S
C3937 C3945 1.433 . S
C3938 H3934 0.929 . S
C3938 C3940 1.378 . S
C3938 C3942 1.350 . S
C3939 C3942 1.463 . S
C3939 C3944 1.350 . S
C3939 N3947 1.427 . S
C3940 H3931 0.930 . S
C3940 C3938 1.378 . S
C3940 C3941 1.367 . S
C3941 C3940 1.367 . S
C3941 C3943 1.433 . S
C3942 C3938 1.350 . S
C3942 C3939 1.463 . S
C3942 N3946 1.427 . S
C3943 H3933 0.929 . S
C3943 C3941 1.433 . S
C3943 N3946 1.384 . S
C3944 H3935 0.929 . S
C3944 C3936 1.378 . S
C3944 C3939 1.350 . S
C3945 H3932 0.929 . S
C3945 C3937 1.433 . S
C3945 N3947 1.384 . S
N3946 C3942 1.427 . S
N3946 C3943 1.384 . S
N3947 C3939 1.427 . S
N3947 C3945 1.384 . S
H3948 C3954 0.930 . S
H3949 C3958 0.930 . S
H3950 C3963 0.929 . S
H3951 C3961 0.929 . S
H3952 C3956 0.929 . S
H3953 C3962 0.929 . S
C3954 H3948 0.930 . S
C3954 C3955 1.367 . S
C3954 C3962 1.378 . S
C3955 C3954 1.367 . S
C3955 C3963 1.433 . S
C3956 H3952 0.929 . S
C3956 C3958 1.378 . S
C3956 C3960 1.350 . S
C3957 C3960 1.463 1_545 S
C3957 C3962 1.350 . S
C3957 N3965 1.427 . S
C3958 H3949 0.930 . S
C3958 C3956 1.378 . S
C3958 C3959 1.367 . S
C3959 C3958 1.367 . S
C3959 C3961 1.433 . S
C3960 C3956 1.350 . S
C3960 C3957 1.463 1_565 S
C3960 N3964 1.427 . S
C3961 H3951 0.929 . S
C3961 C3959 1.433 . S
C3961 N3964 1.384 . S
C3962 H3953 0.929 . S
C3962 C3954 1.378 . S
C3962 C3957 1.350 . S
C3963 H3950 0.929 . S
C3963 C3955 1.433 . S
C3963 N3965 1.384 . S
N3964 C3960 1.427 . S
N3964 C3961 1.384 . S
N3965 C3957 1.427 . S
N3965 C3963 1.384 . S
H3966 C3972 0.930 . S
H3967 C3976 0.930 . S
H3968 C3981 0.929 . S
H3969 C3979 0.929 . S
H3970 C3974 0.929 . S
H3971 C3980 0.929 . S
C3972 H3966 0.930 . S
C3972 C3973 1.367 . S
C3972 C3980 1.378 . S
C3973 C3972 1.367 . S
C3973 C3981 1.433 . S
C3974 H3970 0.929 . S
C3974 C3976 1.378 . S
C3974 C3978 1.350 . S
C3975 C3978 1.463 . S
C3975 C3980 1.350 . S
C3975 N3983 1.427 . S
C3976 H3967 0.930 . S
C3976 C3974 1.378 . S
C3976 C3977 1.367 . S
C3977 C3976 1.367 . S
C3977 C3979 1.433 . S
C3978 C3974 1.350 . S
C3978 C3975 1.463 . S
C3978 N3982 1.427 . S
C3979 H3969 0.929 . S
C3979 C3977 1.433 . S
C3979 N3982 1.384 . S
C3980 H3971 0.929 . S
C3980 C3972 1.378 . S
C3980 C3975 1.350 . S
C3981 H3968 0.929 . S
C3981 C3973 1.433 . S
C3981 N3983 1.384 . S
N3982 C3978 1.427 . S
N3982 C3979 1.384 . S
N3983 C3975 1.427 . S
N3983 C3981 1.384 . S
H3984 C3990 0.930 . S
H3985 C3994 0.930 . S
H3986 C3999 0.929 . S
H3987 C3997 0.929 . S
H3988 C3992 0.929 . S
H3989 C3998 0.929 . S
C3990 H3984 0.930 . S
C3990 C3991 1.367 . S
C3990 C3998 1.378 . S
C3991 C3990 1.367 . S
C3991 C3999 1.433 . S
C3992 H3988 0.929 . S
C3992 C3994 1.378 . S
C3992 C3996 1.350 . S
C3993 C3996 1.463 1_556 S
C3993 C3998 1.350 . S
C3993 N4001 1.427 . S
C3994 H3985 0.930 . S
C3994 C3992 1.378 . S
C3994 C3995 1.367 . S
C3995 C3994 1.367 . S
C3995 C3997 1.433 . S
C3996 C3992 1.350 . S
C3996 C3993 1.463 1_554 S
C3996 N4000 1.427 . S
C3997 H3987 0.929 . S
C3997 C3995 1.433 . S
C3997 N4000 1.384 . S
C3998 H3989 0.929 . S
C3998 C3990 1.378 . S
C3998 C3993 1.350 . S
C3999 H3986 0.929 . S
C3999 C3991 1.433 . S
C3999 N4001 1.384 . S
N4000 C3996 1.427 . S
N4000 C3997 1.384 . S
N4001 C3993 1.427 . S
N4001 C3999 1.384 . S
H4002 C4008 0.930 . S
H4003 C4012 0.930 . S
H4004 C4017 0.929 . S
H4005 C4015 0.929 . S
H4006 C4010 0.929 . S
H4007 C4016 0.929 . S
C4008 H4002 0.930 . S
C4008 C4009 1.367 . S
C4008 C4016 1.378 . S
C4009 C4008 1.367 . S
C4009 C4017 1.433 . S
C4010 H4006 0.929 . S
C4010 C4012 1.378 . S
C4010 C4014 1.350 . S
C4011 C4014 1.463 1_556 S
C4011 C4016 1.350 . S
C4011 N4019 1.427 . S
C4012 H4003 0.930 . S
C4012 C4010 1.378 . S
C4012 C4013 1.367 . S
C4013 C4012 1.367 . S
C4013 C4015 1.433 . S
C4014 C4010 1.350 . S
C4014 C4011 1.463 1_554 S
C4014 N4018 1.427 . S
C4015 H4005 0.929 . S
C4015 C4013 1.433 . S
C4015 N4018 1.384 . S
C4016 H4007 0.929 . S
C4016 C4008 1.378 . S
C4016 C4011 1.350 . S
C4017 H4004 0.929 . S
C4017 C4009 1.433 . S
C4017 N4019 1.384 . S
N4018 C4014 1.427 . S
N4018 C4015 1.384 . S
N4019 C4011 1.427 . S
N4019 C4017 1.384 . S
H4020 C4026 0.930 . S
H4021 C4030 0.930 . S
H4022 C4035 0.929 . S
H4023 C4033 0.929 . S
H4024 C4028 0.929 . S
H4025 C4034 0.929 . S
C4026 H4020 0.930 . S
C4026 C4027 1.367 . S
C4026 C4034 1.378 . S
C4027 C4026 1.367 . S
C4027 C4035 1.433 . S
C4028 H4024 0.929 . S
C4028 C4030 1.378 . S
C4028 C4032 1.350 . S
C4029 C4032 1.463 . S
C4029 C4034 1.350 . S
C4029 N4037 1.427 . S
C4030 H4021 0.930 . S
C4030 C4028 1.378 . S
C4030 C4031 1.367 . S
C4031 C4030 1.367 . S
C4031 C4033 1.433 . S
C4032 C4028 1.350 . S
C4032 C4029 1.463 . S
C4032 N4036 1.427 . S
C4033 H4023 0.929 . S
C4033 C4031 1.433 . S
C4033 N4036 1.384 . S
C4034 H4025 0.929 . S
C4034 C4026 1.378 . S
C4034 C4029 1.350 . S
C4035 H4022 0.929 . S
C4035 C4027 1.433 . S
C4035 N4037 1.384 . S
N4036 C4032 1.427 . S
N4036 C4033 1.384 . S
N4037 C4029 1.427 . S
N4037 C4035 1.384 . S
H4038 C4044 0.930 . S
H4039 C4048 0.930 . S
H4040 C4053 0.929 . S
H4041 C4051 0.929 . S
H4042 C4046 0.929 . S
H4043 C4052 0.929 1_554 S
C4044 H4038 0.930 . S
C4044 C4045 1.367 . S
C4044 C4052 1.378 . S
C4045 C4044 1.367 . S
C4045 C4053 1.433 . S
C4046 H4042 0.929 . S
C4046 C4048 1.378 . S
C4046 C4050 1.350 . S
C4047 C4050 1.463 . S
C4047 C4052 1.350 1_554 S
C4047 N4055 1.426 1_554 S
C4048 H4039 0.930 . S
C4048 C4046 1.378 . S
C4048 C4049 1.367 . S
C4049 C4048 1.367 . S
C4049 C4051 1.433 . S
C4050 C4046 1.350 . S
C4050 C4047 1.463 . S
C4050 N4054 1.427 . S
C4051 H4041 0.929 . S
C4051 C4049 1.433 . S
C4051 N4054 1.384 . S
C4052 H4043 0.929 1_556 S
C4052 C4044 1.378 . S
C4052 C4047 1.350 1_556 S
C4053 H4040 0.929 . S
C4053 C4045 1.433 . S
C4053 N4055 1.387 . S
N4054 C4050 1.427 . S
N4054 C4051 1.384 . S
N4055 C4047 1.426 1_556 S
N4055 C4053 1.387 . S
H4056 C4062 0.930 . S
H4057 C4066 0.930 . S
H4058 C4071 0.929 . S
H4059 C4069 0.929 . S
H4060 C4064 0.929 . S
H4061 C4070 0.929 . S
C4062 H4056 0.930 . S
C4062 C4063 1.367 . S
C4062 C4070 1.378 . S
C4063 C4062 1.367 . S
C4063 C4071 1.433 . S
C4064 H4060 0.929 . S
C4064 C4066 1.378 . S
C4064 C4068 1.350 . S
C4065 C4068 1.463 . S
C4065 C4070 1.350 . S
C4065 N4073 1.427 . S
C4066 H4057 0.930 . S
C4066 C4064 1.378 . S
C4066 C4067 1.367 . S
C4067 C4066 1.367 . S
C4067 C4069 1.433 . S
C4068 C4064 1.350 . S
C4068 C4065 1.463 . S
C4068 N4072 1.427 . S
C4069 H4059 0.929 . S
C4069 C4067 1.433 . S
C4069 N4072 1.384 . S
C4070 H4061 0.929 . S
C4070 C4062 1.378 . S
C4070 C4065 1.350 . S
C4071 H4058 0.929 . S
C4071 C4063 1.433 . S
C4071 N4073 1.384 . S
N4072 C4068 1.427 . S
N4072 C4069 1.384 . S
N4073 C4065 1.427 . S
N4073 C4071 1.384 . S
H4074 C4080 0.930 . S
H4075 C4084 0.930 . S
H4076 C4089 0.929 . S
H4077 C4087 0.929 . S
H4078 C4082 0.929 . S
H4079 C4088 0.929 . S
C4080 H4074 0.930 . S
C4080 C4081 1.367 . S
C4080 C4088 1.378 . S
C4081 C4080 1.367 . S
C4081 C4089 1.433 . S
C4082 H4078 0.929 . S
C4082 C4084 1.378 . S
C4082 C4086 1.350 . S
C4083 C4086 1.463 1_556 S
C4083 C4088 1.350 . S
C4083 N4091 1.427 . S
C4084 H4075 0.930 . S
C4084 C4082 1.378 . S
C4084 C4085 1.367 . S
C4085 C4084 1.367 . S
C4085 C4087 1.433 . S
C4086 C4082 1.350 . S
C4086 C4083 1.463 1_554 S
C4086 N4090 1.427 . S
C4087 H4077 0.929 . S
C4087 C4085 1.433 . S
C4087 N4090 1.384 . S
C4088 H4079 0.929 . S
C4088 C4080 1.378 . S
C4088 C4083 1.350 . S
C4089 H4076 0.929 . S
C4089 C4081 1.433 . S
C4089 N4091 1.384 . S
N4090 C4086 1.427 . S
N4090 C4087 1.384 . S
N4091 C4083 1.427 . S
N4091 C4089 1.384 . S
H4092 C4098 0.930 . S
H4093 C4102 0.930 . S
H4094 C4107 0.929 . S
H4095 C4105 0.929 . S
H4096 C4100 0.929 . S
H4097 C4106 0.929 . S
C4098 H4092 0.930 . S
C4098 C4099 1.367 . S
C4098 C4106 1.378 . S
C4099 C4098 1.367 . S
C4099 C4107 1.433 . S
C4100 H4096 0.929 . S
C4100 C4102 1.378 . S
C4100 C4104 1.350 . S
C4101 C4104 1.463 . S
C4101 C4106 1.350 . S
C4101 N4109 1.427 . S
C4102 H4093 0.930 . S
C4102 C4100 1.378 . S
C4102 C4103 1.367 . S
C4103 C4102 1.367 . S
C4103 C4105 1.433 . S
C4104 C4100 1.350 . S
C4104 C4101 1.463 . S
C4104 N4108 1.427 . S
C4105 H4095 0.929 . S
C4105 C4103 1.433 . S
C4105 N4108 1.384 . S
C4106 H4097 0.929 . S
C4106 C4098 1.378 . S
C4106 C4101 1.350 . S
C4107 H4094 0.929 . S
C4107 C4099 1.433 . S
C4107 N4109 1.384 . S
N4108 C4104 1.427 . S
N4108 C4105 1.384 . S
N4109 C4101 1.427 . S
N4109 C4107 1.384 . S
H4110 C4116 0.930 . S
H4111 C4120 0.930 . S
H4112 C4125 0.929 . S
H4113 C4123 0.929 . S
H4114 C4118 0.929 . S
H4115 C4124 0.929 . S
C4116 H4110 0.930 . S
C4116 C4117 1.367 . S
C4116 C4124 1.378 . S
C4117 C4116 1.367 . S
C4117 C4125 1.433 . S
C4118 H4114 0.929 . S
C4118 C4120 1.378 . S
C4118 C4122 1.350 . S
C4119 C4122 1.463 . S
C4119 C4124 1.350 . S
C4119 N4127 1.427 . S
C4120 H4111 0.930 . S
C4120 C4118 1.378 . S
C4120 C4121 1.367 . S
C4121 C4120 1.367 . S
C4121 C4123 1.433 . S
C4122 C4118 1.350 . S
C4122 C4119 1.463 . S
C4122 N4126 1.427 . S
C4123 H4113 0.929 . S
C4123 C4121 1.433 . S
C4123 N4126 1.384 . S
C4124 H4115 0.929 . S
C4124 C4116 1.378 . S
C4124 C4119 1.350 . S
C4125 H4112 0.929 . S
C4125 C4117 1.433 . S
C4125 N4127 1.384 . S
N4126 C4122 1.427 . S
N4126 C4123 1.384 . S
N4127 C4119 1.427 . S
N4127 C4125 1.384 . S
H4128 C4134 0.930 . S
H4129 C4138 0.930 . S
H4130 C4143 0.929 . S
H4131 C4141 0.929 . S
H4132 C4136 0.929 . S
H4133 C4142 0.929 . S
C4134 H4128 0.930 . S
C4134 C4135 1.367 . S
C4134 C4142 1.378 . S
C4135 C4134 1.367 . S
C4135 C4143 1.433 . S
C4136 H4132 0.929 . S
C4136 C4138 1.378 . S
C4136 C4140 1.350 . S
C4137 C4140 1.463 . S
C4137 C4142 1.350 . S
C4137 N4145 1.427 . S
C4138 H4129 0.930 . S
C4138 C4136 1.378 . S
C4138 C4139 1.367 . S
C4139 C4138 1.367 . S
C4139 C4141 1.433 . S
C4140 C4136 1.350 . S
C4140 C4137 1.463 . S
C4140 N4144 1.427 . S
C4141 H4131 0.929 . S
C4141 C4139 1.433 . S
C4141 N4144 1.384 . S
C4142 H4133 0.929 . S
C4142 C4134 1.378 . S
C4142 C4137 1.350 . S
C4143 H4130 0.929 . S
C4143 C4135 1.433 . S
C4143 N4145 1.384 . S
N4144 C4140 1.427 . S
N4144 C4141 1.384 . S
N4145 C4137 1.427 . S
N4145 C4143 1.384 . S
H4146 C4152 0.930 . S
H4147 C4156 0.930 . S
H4148 C4161 0.929 . S
H4149 C4159 0.929 . S
H4150 C4154 0.929 . S
H4151 C4160 0.929 . S
C4152 H4146 0.930 . S
C4152 C4153 1.367 . S
C4152 C4160 1.378 . S
C4153 C4152 1.367 . S
C4153 C4161 1.433 . S
C4154 H4150 0.929 . S
C4154 C4156 1.378 . S
C4154 C4158 1.350 . S
C4155 C4158 1.463 . S
C4155 C4160 1.350 . S
C4155 N4163 1.427 . S
C4156 H4147 0.930 . S
C4156 C4154 1.378 . S
C4156 C4157 1.367 . S
C4157 C4156 1.367 . S
C4157 C4159 1.433 . S
C4158 C4154 1.350 . S
C4158 C4155 1.463 . S
C4158 N4162 1.427 . S
C4159 H4149 0.929 . S
C4159 C4157 1.433 . S
C4159 N4162 1.384 . S
C4160 H4151 0.929 . S
C4160 C4152 1.378 . S
C4160 C4155 1.350 . S
C4161 H4148 0.929 . S
C4161 C4153 1.433 . S
C4161 N4163 1.384 . S
N4162 C4158 1.427 . S
N4162 C4159 1.384 . S
N4163 C4155 1.427 . S
N4163 C4161 1.384 . S
H4164 C4170 0.930 . S
H4165 C4174 0.930 . S
H4166 C4179 0.929 . S
H4167 C4177 0.929 . S
H4168 C4172 0.929 . S
H4169 C4178 0.929 . S
C4170 H4164 0.930 . S
C4170 C4171 1.367 . S
C4170 C4178 1.378 . S
C4171 C4170 1.367 . S
C4171 C4179 1.433 . S
C4172 H4168 0.929 . S
C4172 C4174 1.378 . S
C4172 C4176 1.350 . S
C4173 C4176 1.463 . S
C4173 C4178 1.350 . S
C4173 N4181 1.427 . S
C4174 H4165 0.930 . S
C4174 C4172 1.378 . S
C4174 C4175 1.367 . S
C4175 C4174 1.367 . S
C4175 C4177 1.433 . S
C4176 C4172 1.350 . S
C4176 C4173 1.463 . S
C4176 N4180 1.427 . S
C4177 H4167 0.929 . S
C4177 C4175 1.433 . S
C4177 N4180 1.384 . S
C4178 H4169 0.929 . S
C4178 C4170 1.378 . S
C4178 C4173 1.350 . S
C4179 H4166 0.929 . S
C4179 C4171 1.433 . S
C4179 N4181 1.384 . S
N4180 C4176 1.427 . S
N4180 C4177 1.384 . S
N4181 C4173 1.427 . S
N4181 C4179 1.384 . S
H4182 C4188 0.930 . S
H4183 C4192 0.930 . S
H4184 C4197 0.929 . S
H4185 C4195 0.929 . S
H4186 C4190 0.929 . S
H4187 C4196 0.929 . S
C4188 H4182 0.930 . S
C4188 C4189 1.367 . S
C4188 C4196 1.378 . S
C4189 C4188 1.367 . S
C4189 C4197 1.433 . S
C4190 H4186 0.929 . S
C4190 C4192 1.378 . S
C4190 C4194 1.350 . S
C4191 C4194 1.463 . S
C4191 C4196 1.350 . S
C4191 N4199 1.427 . S
C4192 H4183 0.930 . S
C4192 C4190 1.378 . S
C4192 C4193 1.367 . S
C4193 C4192 1.367 . S
C4193 C4195 1.433 . S
C4194 C4190 1.350 . S
C4194 C4191 1.463 . S
C4194 N4198 1.427 . S
C4195 H4185 0.929 . S
C4195 C4193 1.433 . S
C4195 N4198 1.384 . S
C4196 H4187 0.929 . S
C4196 C4188 1.378 . S
C4196 C4191 1.350 . S
C4197 H4184 0.929 . S
C4197 C4189 1.433 . S
C4197 N4199 1.384 . S
N4198 C4194 1.427 . S
N4198 C4195 1.384 . S
N4199 C4191 1.427 . S
N4199 C4197 1.384 . S
H4200 C4206 0.930 . S
H4201 C4210 0.930 . S
H4202 C4215 0.929 . S
H4203 C4213 0.929 . S
H4204 C4208 0.929 . S
H4205 C4214 0.929 . S
C4206 H4200 0.930 . S
C4206 C4207 1.367 . S
C4206 C4214 1.378 . S
C4207 C4206 1.367 . S
C4207 C4215 1.433 . S
C4208 H4204 0.929 . S
C4208 C4210 1.378 . S
C4208 C4212 1.350 . S
C4209 C4212 1.463 . S
C4209 C4214 1.350 . S
C4209 N4217 1.427 . S
C4210 H4201 0.930 . S
C4210 C4208 1.378 . S
C4210 C4211 1.367 . S
C4211 C4210 1.367 . S
C4211 C4213 1.433 . S
C4212 C4208 1.350 . S
C4212 C4209 1.463 . S
C4212 N4216 1.427 . S
C4213 H4203 0.929 . S
C4213 C4211 1.433 . S
C4213 N4216 1.384 . S
C4214 H4205 0.929 . S
C4214 C4206 1.378 . S
C4214 C4209 1.350 . S
C4215 H4202 0.929 . S
C4215 C4207 1.433 . S
C4215 N4217 1.384 . S
N4216 C4212 1.427 . S
N4216 C4213 1.384 . S
N4217 C4209 1.427 . S
N4217 C4215 1.384 . S
H4218 C4224 0.930 . S
H4219 C4228 0.930 . S
H4220 C4233 0.929 . S
H4221 C4231 0.929 . S
H4222 C4226 0.929 . S
H4223 C4232 0.929 . S
C4224 H4218 0.930 . S
C4224 C4225 1.367 . S
C4224 C4232 1.378 . S
C4225 C4224 1.367 . S
C4225 C4233 1.433 . S
C4226 H4222 0.929 . S
C4226 C4228 1.378 . S
C4226 C4230 1.350 . S
C4227 C4230 1.463 . S
C4227 C4232 1.350 . S
C4227 N4235 1.427 . S
C4228 H4219 0.930 . S
C4228 C4226 1.378 . S
C4228 C4229 1.367 . S
C4229 C4228 1.367 . S
C4229 C4231 1.433 . S
C4230 C4226 1.350 . S
C4230 C4227 1.463 . S
C4230 N4234 1.427 . S
C4231 H4221 0.929 . S
C4231 C4229 1.433 . S
C4231 N4234 1.384 . S
C4232 H4223 0.929 . S
C4232 C4224 1.378 . S
C4232 C4227 1.350 . S
C4233 H4220 0.929 . S
C4233 C4225 1.433 . S
C4233 N4235 1.384 . S
N4234 C4230 1.427 . S
N4234 C4231 1.384 . S
N4235 C4227 1.427 . S
N4235 C4233 1.384 . S
H4236 C4242 0.930 . S
H4237 C4246 0.930 . S
H4238 C4251 0.929 . S
H4239 C4249 0.929 . S
H4240 C4244 0.929 . S
H4241 C4250 0.929 . S
C4242 H4236 0.930 . S
C4242 C4243 1.367 . S
C4242 C4250 1.378 . S
C4243 C4242 1.367 . S
C4243 C4251 1.433 . S
C4244 H4240 0.929 . S
C4244 C4246 1.378 . S
C4244 C4248 1.350 . S
C4245 C4248 1.463 . S
C4245 C4250 1.350 . S
C4245 N4253 1.427 . S
C4246 H4237 0.930 . S
C4246 C4244 1.378 . S
C4246 C4247 1.367 . S
C4247 C4246 1.367 . S
C4247 C4249 1.433 . S
C4248 C4244 1.350 . S
C4248 C4245 1.463 . S
C4248 N4252 1.427 . S
C4249 H4239 0.929 . S
C4249 C4247 1.433 . S
C4249 N4252 1.384 . S
C4250 H4241 0.929 . S
C4250 C4242 1.378 . S
C4250 C4245 1.350 . S
C4251 H4238 0.929 . S
C4251 C4243 1.433 . S
C4251 N4253 1.384 . S
N4252 C4248 1.427 . S
N4252 C4249 1.384 . S
N4253 C4245 1.427 . S
N4253 C4251 1.384 . S
H4254 C4260 0.930 . S
H4255 C4264 0.930 . S
H4256 C4269 0.929 . S
H4257 C4267 0.929 . S
H4258 C4262 0.929 . S
H4259 C4268 0.929 . S
C4260 H4254 0.930 . S
C4260 C4261 1.367 . S
C4260 C4268 1.378 . S
C4261 C4260 1.367 . S
C4261 C4269 1.433 . S
C4262 H4258 0.929 . S
C4262 C4264 1.378 . S
C4262 C4266 1.350 . S
C4263 C4266 1.463 . S
C4263 C4268 1.350 . S
C4263 N4271 1.427 . S
C4264 H4255 0.930 . S
C4264 C4262 1.378 . S
C4264 C4265 1.367 . S
C4265 C4264 1.367 . S
C4265 C4267 1.433 . S
C4266 C4262 1.350 . S
C4266 C4263 1.463 . S
C4266 N4270 1.427 . S
C4267 H4257 0.929 . S
C4267 C4265 1.433 . S
C4267 N4270 1.384 . S
C4268 H4259 0.929 . S
C4268 C4260 1.378 . S
C4268 C4263 1.350 . S
C4269 H4256 0.929 . S
C4269 C4261 1.433 . S
C4269 N4271 1.384 . S
N4270 C4266 1.427 . S
N4270 C4267 1.384 . S
N4271 C4263 1.427 . S
N4271 C4269 1.384 . S
H4272 C4278 0.930 . S
H4273 C4282 0.930 . S
H4274 C4287 0.929 . S
H4275 C4285 0.929 . S
H4276 C4280 0.929 . S
H4277 C4286 0.929 . S
C4278 H4272 0.930 . S
C4278 C4279 1.367 . S
C4278 C4286 1.378 . S
C4279 C4278 1.367 . S
C4279 C4287 1.433 . S
C4280 H4276 0.929 . S
C4280 C4282 1.378 . S
C4280 C4284 1.350 . S
C4281 C4284 1.463 . S
C4281 C4286 1.350 . S
C4281 N4289 1.427 . S
C4282 H4273 0.930 . S
C4282 C4280 1.378 . S
C4282 C4283 1.367 . S
C4283 C4282 1.367 . S
C4283 C4285 1.433 . S
C4284 C4280 1.350 . S
C4284 C4281 1.463 . S
C4284 N4288 1.427 . S
C4285 H4275 0.929 . S
C4285 C4283 1.433 . S
C4285 N4288 1.384 . S
C4286 H4277 0.929 . S
C4286 C4278 1.378 . S
C4286 C4281 1.350 . S
C4287 H4274 0.929 . S
C4287 C4279 1.433 . S
C4287 N4289 1.384 . S
N4288 C4284 1.427 . S
N4288 C4285 1.384 . S
N4289 C4281 1.427 . S
N4289 C4287 1.384 . S
H4290 C4296 0.930 . S
H4291 C4300 0.930 . S
H4292 C4305 0.929 . S
H4293 C4303 0.929 . S
H4294 C4298 0.929 . S
H4295 C4304 0.929 . S
C4296 H4290 0.930 . S
C4296 C4297 1.367 . S
C4296 C4304 1.378 . S
C4297 C4296 1.367 . S
C4297 C4305 1.433 . S
C4298 H4294 0.929 . S
C4298 C4300 1.378 . S
C4298 C4302 1.350 . S
C4299 C4302 1.463 . S
C4299 C4304 1.350 . S
C4299 N4307 1.427 . S
C4300 H4291 0.930 . S
C4300 C4298 1.378 . S
C4300 C4301 1.367 . S
C4301 C4300 1.367 . S
C4301 C4303 1.433 . S
C4302 C4298 1.350 . S
C4302 C4299 1.463 . S
C4302 N4306 1.427 . S
C4303 H4293 0.929 . S
C4303 C4301 1.433 . S
C4303 N4306 1.384 . S
C4304 H4295 0.929 . S
C4304 C4296 1.378 . S
C4304 C4299 1.350 . S
C4305 H4292 0.929 . S
C4305 C4297 1.433 . S
C4305 N4307 1.384 . S
N4306 C4302 1.427 . S
N4306 C4303 1.384 . S
N4307 C4299 1.427 . S
N4307 C4305 1.384 . S
H4308 C4314 0.930 . S
H4309 C4318 0.930 . S
H4310 C4323 0.929 . S
H4311 C4321 0.929 . S
H4312 C4316 0.929 . S
H4313 C4322 0.929 . S
C4314 H4308 0.930 . S
C4314 C4315 1.367 . S
C4314 C4322 1.378 . S
C4315 C4314 1.367 . S
C4315 C4323 1.433 . S
C4316 H4312 0.929 . S
C4316 C4318 1.378 . S
C4316 C4320 1.350 . S
C4317 C4320 1.463 . S
C4317 C4322 1.350 . S
C4317 N4325 1.427 . S
C4318 H4309 0.930 . S
C4318 C4316 1.378 . S
C4318 C4319 1.367 . S
C4319 C4318 1.367 . S
C4319 C4321 1.433 . S
C4320 C4316 1.350 . S
C4320 C4317 1.463 . S
C4320 N4324 1.427 . S
C4321 H4311 0.929 . S
C4321 C4319 1.433 . S
C4321 N4324 1.384 . S
C4322 H4313 0.929 . S
C4322 C4314 1.378 . S
C4322 C4317 1.350 . S
C4323 H4310 0.929 . S
C4323 C4315 1.433 . S
C4323 N4325 1.384 . S
N4324 C4320 1.427 . S
N4324 C4321 1.384 . S
N4325 C4317 1.427 . S
N4325 C4323 1.384 . S
H4326 C4332 0.930 . S
H4327 C4336 0.930 . S
H4328 C4341 0.929 . S
H4329 C4339 0.929 . S
H4330 C4334 0.929 . S
H4331 C4340 0.929 . S
C4332 H4326 0.930 . S
C4332 C4333 1.367 . S
C4332 C4340 1.378 . S
C4333 C4332 1.367 . S
C4333 C4341 1.433 . S
C4334 H4330 0.929 . S
C4334 C4336 1.378 . S
C4334 C4338 1.350 . S
C4335 C4338 1.463 . S
C4335 C4340 1.350 . S
C4335 N4343 1.427 . S
C4336 H4327 0.930 . S
C4336 C4334 1.378 . S
C4336 C4337 1.367 . S
C4337 C4336 1.367 . S
C4337 C4339 1.433 . S
C4338 C4334 1.350 . S
C4338 C4335 1.463 . S
C4338 N4342 1.427 . S
C4339 H4329 0.929 . S
C4339 C4337 1.433 . S
C4339 N4342 1.384 . S
C4340 H4331 0.929 . S
C4340 C4332 1.378 . S
C4340 C4335 1.350 . S
C4341 H4328 0.929 . S
C4341 C4333 1.433 . S
C4341 N4343 1.384 . S
N4342 C4338 1.427 . S
N4342 C4339 1.384 . S
N4343 C4335 1.427 . S
N4343 C4341 1.384 . S
H4344 C4350 0.930 . S
H4345 C4354 0.930 . S
H4346 C4359 0.929 . S
H4347 C4357 0.929 . S
H4348 C4352 0.929 . S
H4349 C4358 0.929 . S
C4350 H4344 0.930 . S
C4350 C4351 1.367 . S
C4350 C4358 1.378 . S
C4351 C4350 1.367 . S
C4351 C4359 1.433 . S
C4352 H4348 0.929 . S
C4352 C4354 1.378 . S
C4352 C4356 1.350 . S
C4353 C4356 1.463 . S
C4353 C4358 1.350 . S
C4353 N4361 1.427 . S
C4354 H4345 0.930 . S
C4354 C4352 1.378 . S
C4354 C4355 1.367 . S
C4355 C4354 1.367 . S
C4355 C4357 1.433 . S
C4356 C4352 1.350 . S
C4356 C4353 1.463 . S
C4356 N4360 1.427 . S
C4357 H4347 0.929 . S
C4357 C4355 1.433 . S
C4357 N4360 1.384 . S
C4358 H4349 0.929 . S
C4358 C4350 1.378 . S
C4358 C4353 1.350 . S
C4359 H4346 0.929 . S
C4359 C4351 1.433 . S
C4359 N4361 1.384 . S
N4360 C4356 1.427 . S
N4360 C4357 1.384 . S
N4361 C4353 1.427 . S
N4361 C4359 1.384 . S
H4362 C4368 0.930 . S
H4363 C4372 0.930 . S
H4364 C4377 0.929 . S
H4365 C4375 0.929 . S
H4366 C4370 0.929 . S
H4367 C4376 0.929 . S
C4368 H4362 0.930 . S
C4368 C4369 1.367 . S
C4368 C4376 1.378 . S
C4369 C4368 1.367 . S
C4369 C4377 1.433 . S
C4370 H4366 0.929 . S
C4370 C4372 1.378 . S
C4370 C4374 1.350 . S
C4371 C4374 1.463 . S
C4371 C4376 1.350 . S
C4371 N4379 1.427 . S
C4372 H4363 0.930 . S
C4372 C4370 1.378 . S
C4372 C4373 1.367 . S
C4373 C4372 1.367 . S
C4373 C4375 1.433 . S
C4374 C4370 1.350 . S
C4374 C4371 1.463 . S
C4374 N4378 1.427 . S
C4375 H4365 0.929 . S
C4375 C4373 1.433 . S
C4375 N4378 1.384 . S
C4376 H4367 0.929 . S
C4376 C4368 1.378 . S
C4376 C4371 1.350 . S
C4377 H4364 0.929 . S
C4377 C4369 1.433 . S
C4377 N4379 1.384 . S
N4378 C4374 1.427 . S
N4378 C4375 1.384 . S
N4379 C4371 1.427 . S
N4379 C4377 1.384 . S
H4380 C4386 0.930 . S
H4381 C4390 0.930 . S
H4382 C4395 0.929 . S
H4383 C4393 0.929 . S
H4384 C4388 0.929 . S
H4385 C4394 0.929 . S
C4386 H4380 0.930 . S
C4386 C4387 1.367 . S
C4386 C4394 1.378 . S
C4387 C4386 1.367 . S
C4387 C4395 1.433 . S
C4388 H4384 0.929 . S
C4388 C4390 1.378 . S
C4388 C4392 1.350 . S
C4389 C4392 1.463 . S
C4389 C4394 1.350 . S
C4389 N4397 1.427 . S
C4390 H4381 0.930 . S
C4390 C4388 1.378 . S
C4390 C4391 1.367 . S
C4391 C4390 1.367 . S
C4391 C4393 1.433 . S
C4392 C4388 1.350 . S
C4392 C4389 1.463 . S
C4392 N4396 1.427 . S
C4393 H4383 0.929 . S
C4393 C4391 1.433 . S
C4393 N4396 1.384 . S
C4394 H4385 0.929 . S
C4394 C4386 1.378 . S
C4394 C4389 1.350 . S
C4395 H4382 0.929 . S
C4395 C4387 1.433 . S
C4395 N4397 1.384 . S
N4396 C4392 1.427 . S
N4396 C4393 1.384 . S
N4397 C4389 1.427 . S
N4397 C4395 1.384 . S
H4398 C4404 0.930 . S
H4399 C4408 0.930 . S
H4400 C4413 0.929 . S
H4401 C4411 0.929 . S
H4402 C4406 0.929 . S
H4403 C4412 0.929 . S
C4404 H4398 0.930 . S
C4404 C4405 1.367 . S
C4404 C4412 1.378 . S
C4405 C4404 1.367 . S
C4405 C4413 1.433 . S
C4406 H4402 0.929 . S
C4406 C4408 1.378 . S
C4406 C4410 1.350 . S
C4407 C4410 1.463 . S
C4407 C4412 1.350 . S
C4407 N4415 1.427 . S
C4408 H4399 0.930 . S
C4408 C4406 1.378 . S
C4408 C4409 1.367 . S
C4409 C4408 1.367 . S
C4409 C4411 1.433 . S
C4410 C4406 1.350 . S
C4410 C4407 1.463 . S
C4410 N4414 1.427 . S
C4411 H4401 0.929 . S
C4411 C4409 1.433 . S
C4411 N4414 1.384 . S
C4412 H4403 0.929 . S
C4412 C4404 1.378 . S
C4412 C4407 1.350 . S
C4413 H4400 0.929 . S
C4413 C4405 1.433 . S
C4413 N4415 1.384 . S
N4414 C4410 1.427 . S
N4414 C4411 1.384 . S
N4415 C4407 1.427 . S
N4415 C4413 1.384 . S
H4416 C4422 0.930 . S
H4417 C4426 0.930 . S
H4418 C4431 0.929 . S
H4419 C4429 0.929 . S
H4420 C4424 0.929 . S
H4421 C4430 0.929 . S
C4422 H4416 0.930 . S
C4422 C4423 1.367 . S
C4422 C4430 1.378 . S
C4423 C4422 1.367 . S
C4423 C4431 1.433 . S
C4424 H4420 0.929 . S
C4424 C4426 1.378 . S
C4424 C4428 1.350 . S
C4425 C4428 1.463 . S
C4425 C4430 1.350 . S
C4425 N4433 1.427 . S
C4426 H4417 0.930 . S
C4426 C4424 1.378 . S
C4426 C4427 1.367 . S
C4427 C4426 1.367 . S
C4427 C4429 1.433 . S
C4428 C4424 1.350 . S
C4428 C4425 1.463 . S
C4428 N4432 1.427 . S
C4429 H4419 0.929 . S
C4429 C4427 1.433 . S
C4429 N4432 1.384 . S
C4430 H4421 0.929 . S
C4430 C4422 1.378 . S
C4430 C4425 1.350 . S
C4431 H4418 0.929 . S
C4431 C4423 1.433 . S
C4431 N4433 1.384 . S
N4432 C4428 1.427 . S
N4432 C4429 1.384 . S
N4433 C4425 1.427 . S
N4433 C4431 1.384 . S
H4434 C4440 0.930 . S
H4435 C4444 0.930 . S
H4436 C4449 0.929 . S
H4437 C4447 0.929 . S
H4438 C4442 0.929 . S
H4439 C4448 0.929 . S
C4440 H4434 0.930 . S
C4440 C4441 1.367 . S
C4440 C4448 1.378 . S
C4441 C4440 1.367 . S
C4441 C4449 1.433 . S
C4442 H4438 0.929 . S
C4442 C4444 1.378 . S
C4442 C4446 1.350 . S
C4443 C4446 1.463 . S
C4443 C4448 1.350 . S
C4443 N4451 1.427 . S
C4444 H4435 0.930 . S
C4444 C4442 1.378 . S
C4444 C4445 1.367 . S
C4445 C4444 1.367 . S
C4445 C4447 1.433 . S
C4446 C4442 1.350 . S
C4446 C4443 1.463 . S
C4446 N4450 1.427 . S
C4447 H4437 0.929 . S
C4447 C4445 1.433 . S
C4447 N4450 1.384 . S
C4448 H4439 0.929 . S
C4448 C4440 1.378 . S
C4448 C4443 1.350 . S
C4449 H4436 0.929 . S
C4449 C4441 1.433 . S
C4449 N4451 1.384 . S
N4450 C4446 1.427 . S
N4450 C4447 1.384 . S
N4451 C4443 1.427 . S
N4451 C4449 1.384 . S
H4452 C4458 0.930 . S
H4453 C4462 0.930 . S
H4454 C4467 0.929 . S
H4455 C4465 0.929 . S
H4456 C4460 0.929 . S
H4457 C4466 0.929 . S
C4458 H4452 0.930 . S
C4458 C4459 1.367 . S
C4458 C4466 1.378 . S
C4459 C4458 1.367 . S
C4459 C4467 1.433 . S
C4460 H4456 0.929 . S
C4460 C4462 1.378 . S
C4460 C4464 1.350 . S
C4461 C4464 1.463 . S
C4461 C4466 1.350 . S
C4461 N4469 1.427 . S
C4462 H4453 0.930 . S
C4462 C4460 1.378 . S
C4462 C4463 1.367 . S
C4463 C4462 1.367 . S
C4463 C4465 1.433 . S
C4464 C4460 1.350 . S
C4464 C4461 1.463 . S
C4464 N4468 1.427 . S
C4465 H4455 0.929 . S
C4465 C4463 1.433 . S
C4465 N4468 1.384 . S
C4466 H4457 0.929 . S
C4466 C4458 1.378 . S
C4466 C4461 1.350 . S
C4467 H4454 0.929 . S
C4467 C4459 1.433 . S
C4467 N4469 1.384 . S
N4468 C4464 1.427 . S
N4468 C4465 1.384 . S
N4469 C4461 1.427 . S
N4469 C4467 1.384 . S
H4470 C4476 0.930 . S
H4471 C4480 0.930 . S
H4472 C4485 0.929 . S
H4473 C4483 0.929 . S
H4474 C4478 0.929 . S
H4475 C4484 0.929 . S
C4476 H4470 0.930 . S
C4476 C4477 1.367 . S
C4476 C4484 1.378 . S
C4477 C4476 1.367 . S
C4477 C4485 1.433 . S
C4478 H4474 0.929 . S
C4478 C4480 1.378 . S
C4478 C4482 1.350 . S
C4479 C4482 1.463 . S
C4479 C4484 1.350 . S
C4479 N4487 1.427 . S
C4480 H4471 0.930 . S
C4480 C4478 1.378 . S
C4480 C4481 1.367 . S
C4481 C4480 1.367 . S
C4481 C4483 1.433 . S
C4482 C4478 1.350 . S
C4482 C4479 1.463 . S
C4482 N4486 1.427 . S
C4483 H4473 0.929 . S
C4483 C4481 1.433 . S
C4483 N4486 1.384 . S
C4484 H4475 0.929 . S
C4484 C4476 1.378 . S
C4484 C4479 1.350 . S
C4485 H4472 0.929 . S
C4485 C4477 1.433 . S
C4485 N4487 1.384 . S
N4486 C4482 1.427 . S
N4486 C4483 1.384 . S
N4487 C4479 1.427 . S
N4487 C4485 1.384 . S
H4488 C4494 0.930 . S
H4489 C4498 0.930 . S
H4490 C4503 0.929 . S
H4491 C4501 0.929 . S
H4492 C4496 0.929 . S
H4493 C4502 0.929 . S
C4494 H4488 0.930 . S
C4494 C4495 1.367 . S
C4494 C4502 1.378 . S
C4495 C4494 1.367 . S
C4495 C4503 1.433 . S
C4496 H4492 0.929 . S
C4496 C4498 1.378 . S
C4496 C4500 1.350 . S
C4497 C4500 1.463 . S
C4497 C4502 1.350 . S
C4497 N4505 1.427 . S
C4498 H4489 0.930 . S
C4498 C4496 1.378 . S
C4498 C4499 1.367 . S
C4499 C4498 1.367 . S
C4499 C4501 1.433 . S
C4500 C4496 1.350 . S
C4500 C4497 1.463 . S
C4500 N4504 1.427 . S
C4501 H4491 0.929 . S
C4501 C4499 1.433 . S
C4501 N4504 1.384 . S
C4502 H4493 0.929 . S
C4502 C4494 1.378 . S
C4502 C4497 1.350 . S
C4503 H4490 0.929 . S
C4503 C4495 1.433 . S
C4503 N4505 1.384 . S
N4504 C4500 1.427 . S
N4504 C4501 1.384 . S
N4505 C4497 1.427 . S
N4505 C4503 1.384 . S
H4506 C4512 0.930 . S
H4507 C4516 0.930 . S
H4508 C4521 0.929 . S
H4509 C4519 0.929 . S
H4510 C4514 0.929 . S
H4511 C4520 0.929 . S
C4512 H4506 0.930 . S
C4512 C4513 1.367 . S
C4512 C4520 1.378 . S
C4513 C4512 1.367 . S
C4513 C4521 1.433 . S
C4514 H4510 0.929 . S
C4514 C4516 1.378 . S
C4514 C4518 1.350 . S
C4515 C4518 1.463 . S
C4515 C4520 1.350 . S
C4515 N4523 1.427 . S
C4516 H4507 0.930 . S
C4516 C4514 1.378 . S
C4516 C4517 1.367 . S
C4517 C4516 1.367 . S
C4517 C4519 1.433 . S
C4518 C4514 1.350 . S
C4518 C4515 1.463 . S
C4518 N4522 1.427 . S
C4519 H4509 0.929 . S
C4519 C4517 1.433 . S
C4519 N4522 1.384 . S
C4520 H4511 0.929 . S
C4520 C4512 1.378 . S
C4520 C4515 1.350 . S
C4521 H4508 0.929 . S
C4521 C4513 1.433 . S
C4521 N4523 1.384 . S
N4522 C4518 1.427 . S
N4522 C4519 1.384 . S
N4523 C4515 1.427 . S
N4523 C4521 1.384 . S
H4524 C4530 0.930 . S
H4525 C4534 0.930 . S
H4526 C4539 0.929 . S
H4527 C4537 0.929 . S
H4528 C4532 0.929 . S
H4529 C4538 0.929 . S
C4530 H4524 0.930 . S
C4530 C4531 1.367 . S
C4530 C4538 1.378 . S
C4531 C4530 1.367 . S
C4531 C4539 1.433 . S
C4532 H4528 0.929 . S
C4532 C4534 1.378 . S
C4532 C4536 1.350 . S
C4533 C4536 1.463 . S
C4533 C4538 1.350 . S
C4533 N4541 1.427 . S
C4534 H4525 0.930 . S
C4534 C4532 1.378 . S
C4534 C4535 1.367 . S
C4535 C4534 1.367 . S
C4535 C4537 1.433 . S
C4536 C4532 1.350 . S
C4536 C4533 1.463 . S
C4536 N4540 1.427 . S
C4537 H4527 0.929 . S
C4537 C4535 1.433 . S
C4537 N4540 1.384 . S
C4538 H4529 0.929 . S
C4538 C4530 1.378 . S
C4538 C4533 1.350 . S
C4539 H4526 0.929 . S
C4539 C4531 1.433 . S
C4539 N4541 1.384 . S
N4540 C4536 1.427 . S
N4540 C4537 1.384 . S
N4541 C4533 1.427 . S
N4541 C4539 1.384 . S
H4542 C4548 0.930 . S
H4543 C4552 0.930 . S
H4544 C4557 0.929 . S
H4545 C4555 0.929 . S
H4546 C4550 0.929 . S
H4547 C4556 0.929 . S
C4548 H4542 0.930 . S
C4548 C4549 1.367 . S
C4548 C4556 1.378 . S
C4549 C4548 1.367 . S
C4549 C4557 1.433 . S
C4550 H4546 0.929 . S
C4550 C4552 1.378 . S
C4550 C4554 1.350 . S
C4551 C4554 1.463 . S
C4551 C4556 1.350 . S
C4551 N4559 1.427 . S
C4552 H4543 0.930 . S
C4552 C4550 1.378 . S
C4552 C4553 1.367 . S
C4553 C4552 1.367 . S
C4553 C4555 1.433 . S
C4554 C4550 1.350 . S
C4554 C4551 1.463 . S
C4554 N4558 1.427 . S
C4555 H4545 0.929 . S
C4555 C4553 1.433 . S
C4555 N4558 1.384 . S
C4556 H4547 0.929 . S
C4556 C4548 1.378 . S
C4556 C4551 1.350 . S
C4557 H4544 0.929 . S
C4557 C4549 1.433 . S
C4557 N4559 1.384 . S
N4558 C4554 1.427 . S
N4558 C4555 1.384 . S
N4559 C4551 1.427 . S
N4559 C4557 1.384 . S
C2839 C1183 1.694 . S
C2843 C5 1.695 . S
C2857 C92 1.766 . S
C2861 C1036 1.778 . S
C2875 C123 1.778 . S
C2879 C1095 1.787 . S
C2893 C1154 1.879 . S
C2897 C210 1.890 . S
C2911 C1390 1.854 . S
C2915 C288 1.870 . S
C2929 C298 1.802 . S
C2933 C1272 1.821 . S
C2947 C406 1.694 . S
C2951 C1301 1.697 . S
C2965 C416 1.694 . S
C2969 C947 1.696 . S
C2983 C475 1.711 . S
C2987 C890 1.706 . S
C3001 C583 1.733 . S
C3005 C741 1.745 . S
C3019 C593 1.621 . S
C3023 C772 1.618 . S
C3037 C859 1.776 . S
C3041 C701 1.774 . S
C3055 C1468 1.916 . S
C3059 C2629 1.937 . S
C3073 C2422 1.547 . S
C3077 C1478 1.546 . S
C3091 C1586 1.887 . S
C3095 C2481 1.894 . S
C3109 C2570 1.795 . S
C3113 C1596 1.777 . S
C3127 C1657 1.609 . S
C3131 C2776 1.596 . S
C3145 C2658 1.838 . S
C3149 C1744 1.844 . S
C3163 C1775 1.472 . S
C3167 C2717 1.457 . S
C3181 C2393 1.953 . S
C3185 C1862 1.958 . S
C3199 C1921 1.815 . S
C3203 C2353 1.799 . S
C3217 C2127 1.706 . S
C3221 C1952 1.724 . S
C3235 C2235 1.734 . S
C3239 C2039 1.751 . S
C3253 C2245 1.759 . S
C3257 C2070 1.774 . S
C3271 C1539 1.217 . S
C3275 C52 1.198 . S
C3289 C62 1.137 . S
C3293 C1626 1.144 . S
C3307 C170 1.203 . S
C3311 C1421 1.229 . S
C3325 C180 1.321 . S
C3329 C1508 1.311 . S
C3343 C241 1.371 . S
C3347 C1822 1.349 . S
C3361 C1832 1.220 . S
C3365 C328 1.227 . S
C3379 C1704 1.189 . S
C3383 C359 1.210 . S
C3397 C1714 1.199 . S
C3401 C446 1.224 . S
C3415 C2157 1.315 . S
C3419 C505 1.314 . S
C3433 C536 1.120 . S
C3437 C2188 1.124 . S
C3451 C2275 1.300 . S
C3455 C623 1.311 . S
C3469 C654 1.111 . S
C3473 C2306 1.108 . S
C3487 C711 1.155 . S
C3491 C1891 1.151 . S
C3505 C819 1.270 . S
C3509 C1999 1.248 . S
C3523 C2009 1.152 . S
C3527 C829 1.161 . S
C3541 C2117 1.255 . S
C3545 C937 1.275 . S
C3559 C977 1.281 . S
C3563 C2540 1.257 . S
C3577 C1006 1.211 . S
C3581 C2688 1.217 . S
C3595 C2747 1.324 . S
C3599 C1065 1.325 . S
C3613 C2363 1.053 . S
C3617 C1124 1.033 . S
C3631 C1213 1.278 . S
C3635 C2806 1.281 . S
C3649 C2452 1.358 . S
C3653 C1242 1.362 . S
C3667 C1331 1.320 . S
C3671 C2511 1.329 . S
C3685 C1360 1.042 . S
C3689 C2599 1.045 . S
C3703 C1655 1.818 . S
C3707 C33 1.834 . S
C3721 C1763 1.881 . S
C3725 C64 1.859 . S
C3739 C1773 1.910 . S
C3743 C151 1.942 . S
C3757 C182 1.867 . S
C3761 C1881 1.894 . S
C3775 C1449 1.913 . S
C3779 C239 1.868 . S
C3793 C1480 1.914 . S
C3797 C347 1.934 . S
C3811 C357 1.802 . S
C3815 C1567 1.851 . S
C3829 C1598 1.864 . S
C3833 C465 1.877 . S
C3847 C524 1.839 . S
C3851 C2247 1.822 . S
C3865 C534 1.906 . S
C3869 C2334 1.939 . S
C3883 C2129 1.833 . S
C3887 C642 1.848 . S
C3901 C652 1.934 . S
C3905 C2216 1.961 . S
C3919 C2058 1.972 . S
C3923 C713 1.933 . S
C3937 C800 1.814 . S
C3941 C2068 1.809 . S
C3955 C831 1.938 . S
C3959 C1940 1.963 . S
C3973 C918 1.830 . S
C3977 C1950 1.811 . S
C3991 C2660 1.860 . S
C3995 C996 1.859 . S
C4009 C1008 1.989 . S
C4013 C2589 2.009 . S
C4027 C1067 1.905 . S
C4031 C2648 1.924 . S
C4045 C1126 1.765 . S
C4049 C2424 1.783 . S
C4063 C2483 1.820 . S
C4067 C1232 1.834 . S
C4081 C2412 1.940 . S
C4085 C1244 1.927 . S
C4099 C2778 1.984 . S
C4103 C1350 2.018 . S
C4117 C1362 1.786 . S
C4121 C2719 1.808 . S
C4135 C888 1.470 . S
C4139 C3 1.456 . S
C4153 C111 1.380 . S
C4157 C760 1.370 . S
C4171 C770 1.454 . S
C4175 C121 1.427 . S
C4189 C878 1.369 . S
C4193 C229 1.384 . S
C4207 C564 1.323 . S
C4211 C269 1.328 . S
C4225 C300 1.460 . S
C4229 C595 1.471 . S
C4243 C387 1.379 . S
C4247 C682 1.373 . S
C4261 C477 1.454 . S
C4265 C418 1.444 . S
C4279 C949 1.410 . S
C4283 C1185 1.419 . S
C4297 C1409 1.499 . S
C4301 C1055 1.517 . S
C4315 C1291 1.262 . S
C4319 C1114 1.255 . S
C4333 C1173 1.506 . S
C4337 C1303 1.500 . S
C4351 C2304 1.426 . S
C4355 C1419 1.426 . S
C4369 C2176 1.457 . S
C4373 C1527 1.461 . S
C4387 C1537 1.485 . S
C4391 C2186 1.470 . S
C4405 C2294 1.442 . S
C4409 C1645 1.443 . S
C4423 C1980 1.423 . S
C4427 C1685 1.426 . S
C4441 C1716 1.469 . S
C4445 C2011 1.474 . S
C4459 C1803 1.447 . S
C4463 C2098 1.455 . S
C4477 C1834 1.452 . S
C4481 C1893 1.456 . S
C4495 C2365 1.462 . S
C4499 C2601 1.466 . S
C4513 C2825 1.517 . S
C4517 C2471 1.534 . S
C4531 C2707 1.441 . S
C4535 C2530 1.439 . S
C4549 C2766 1.582 . S
C4553 C2542 1.550 . S
