# Generated by pormake.
# Topology pem, (4)-cn, num edge types: 1
# Building blocks:
#     Node 0, Type 0, BuildingBlock: KUFVIS_clean_sbu_0, # of connection points: 4
#     Node 1, Type 0, BuildingBlock: KUFVIS_clean_sbu_0, # of connection points: 4
#     Node 2, Type 0, BuildingBlock: KUFVIS_clean_sbu_0, # of connection points: 4
#     Node 3, Type 0, BuildingBlock: KUFVIS_clean_sbu_0, # of connection points: 4
#     Node 4, Type 0, BuildingBlock: KUFVIS_clean_sbu_0, # of connection points: 4
#     Node 5, Type 0, BuildingBlock: KUFVIS_clean_sbu_0, # of connection points: 4
#     Node 6, Type 0, BuildingBlock: KUFVIS_clean_sbu_0, # of connection points: 4
#     Node 7, Type 0, BuildingBlock: KUFVIS_clean_sbu_0, # of connection points: 4
#     Node 8, Type 0, BuildingBlock: KUFVIS_clean_sbu_0, # of connection points: 4
#     Node 9, Type 0, BuildingBlock: KUFVIS_clean_sbu_0, # of connection points: 4
#     Node 10, Type 0, BuildingBlock: KUFVIS_clean_sbu_0, # of connection points: 4
#     Node 11, Type 0, BuildingBlock: KUFVIS_clean_sbu_0, # of connection points: 4
#     Node 12, Type 0, BuildingBlock: KUFVIS_clean_sbu_0, # of connection points: 4
#     Node 13, Type 0, BuildingBlock: KUFVIS_clean_sbu_0, # of connection points: 4
#     Node 14, Type 0, BuildingBlock: KUFVIS_clean_sbu_0, # of connection points: 4
#     Node 15, Type 0, BuildingBlock: KUFVIS_clean_sbu_0, # of connection points: 4
#     Node 16, Type 0, BuildingBlock: KUFVIS_clean_sbu_0, # of connection points: 4
#     Node 17, Type 0, BuildingBlock: KUFVIS_clean_sbu_0, # of connection points: 4
#     Node 18, Type 0, BuildingBlock: KUFVIS_clean_sbu_0, # of connection points: 4
#     Node 19, Type 0, BuildingBlock: KUFVIS_clean_sbu_0, # of connection points: 4
#     Node 20, Type 0, BuildingBlock: KUFVIS_clean_sbu_0, # of connection points: 4
#     Node 21, Type 0, BuildingBlock: KUFVIS_clean_sbu_0, # of connection points: 4
#     Node 22, Type 0, BuildingBlock: KUFVIS_clean_sbu_0, # of connection points: 4
#     Node 23, Type 0, BuildingBlock: KUFVIS_clean_sbu_0, # of connection points: 4
#     Node 24, Type 0, BuildingBlock: KUFVIS_clean_sbu_0, # of connection points: 4
#     Node 25, Type 0, BuildingBlock: KUFVIS_clean_sbu_0, # of connection points: 4
#     Node 26, Type 0, BuildingBlock: KUFVIS_clean_sbu_0, # of connection points: 4
#     Node 27, Type 0, BuildingBlock: KUFVIS_clean_sbu_0, # of connection points: 4
#     Node 28, Type 0, BuildingBlock: KUFVIS_clean_sbu_0, # of connection points: 4
#     Node 29, Type 0, BuildingBlock: KUFVIS_clean_sbu_0, # of connection points: 4
#     Node 30, Type 0, BuildingBlock: KUFVIS_clean_sbu_0, # of connection points: 4
#     Node 31, Type 0, BuildingBlock: KUFVIS_clean_sbu_0, # of connection points: 4
#     Edge 32, Type (0, 0), BuildingBlock: ZUJKAS_clean_linker_0, # of connection points: 2
#     Edge 33, Type (0, 0), BuildingBlock: ZUJKAS_clean_linker_0, # of connection points: 2
#     Edge 34, Type (0, 0), BuildingBlock: ZUJKAS_clean_linker_0, # of connection points: 2
#     Edge 35, Type (0, 0), BuildingBlock: ZUJKAS_clean_linker_0, # of connection points: 2
#     Edge 36, Type (0, 0), BuildingBlock: ZUJKAS_clean_linker_0, # of connection points: 2
#     Edge 37, Type (0, 0), BuildingBlock: ZUJKAS_clean_linker_0, # of connection points: 2
#     Edge 38, Type (0, 0), BuildingBlock: ZUJKAS_clean_linker_0, # of connection points: 2
#     Edge 39, Type (0, 0), BuildingBlock: ZUJKAS_clean_linker_0, # of connection points: 2
#     Edge 40, Type (0, 0), BuildingBlock: ZUJKAS_clean_linker_0, # of connection points: 2
#     Edge 41, Type (0, 0), BuildingBlock: ZUJKAS_clean_linker_0, # of connection points: 2
#     Edge 42, Type (0, 0), BuildingBlock: ZUJKAS_clean_linker_0, # of connection points: 2
#     Edge 43, Type (0, 0), BuildingBlock: ZUJKAS_clean_linker_0, # of connection points: 2
#     Edge 44, Type (0, 0), BuildingBlock: ZUJKAS_clean_linker_0, # of connection points: 2
#     Edge 45, Type (0, 0), BuildingBlock: ZUJKAS_clean_linker_0, # of connection points: 2
#     Edge 46, Type (0, 0), BuildingBlock: ZUJKAS_clean_linker_0, # of connection points: 2
#     Edge 47, Type (0, 0), BuildingBlock: ZUJKAS_clean_linker_0, # of connection points: 2
#     Edge 48, Type (0, 0), BuildingBlock: ZUJKAS_clean_linker_0, # of connection points: 2
#     Edge 49, Type (0, 0), BuildingBlock: ZUJKAS_clean_linker_0, # of connection points: 2
#     Edge 50, Type (0, 0), BuildingBlock: ZUJKAS_clean_linker_0, # of connection points: 2
#     Edge 51, Type (0, 0), BuildingBlock: ZUJKAS_clean_linker_0, # of connection points: 2
#     Edge 52, Type (0, 0), BuildingBlock: ZUJKAS_clean_linker_0, # of connection points: 2
#     Edge 53, Type (0, 0), BuildingBlock: ZUJKAS_clean_linker_0, # of connection points: 2
#     Edge 54, Type (0, 0), BuildingBlock: ZUJKAS_clean_linker_0, # of connection points: 2
#     Edge 55, Type (0, 0), BuildingBlock: ZUJKAS_clean_linker_0, # of connection points: 2
#     Edge 56, Type (0, 0), BuildingBlock: ZUJKAS_clean_linker_0, # of connection points: 2
#     Edge 57, Type (0, 0), BuildingBlock: ZUJKAS_clean_linker_0, # of connection points: 2
#     Edge 58, Type (0, 0), BuildingBlock: ZUJKAS_clean_linker_0, # of connection points: 2
#     Edge 59, Type (0, 0), BuildingBlock: ZUJKAS_clean_linker_0, # of connection points: 2
#     Edge 60, Type (0, 0), BuildingBlock: ZUJKAS_clean_linker_0, # of connection points: 2
#     Edge 61, Type (0, 0), BuildingBlock: ZUJKAS_clean_linker_0, # of connection points: 2
#     Edge 62, Type (0, 0), BuildingBlock: ZUJKAS_clean_linker_0, # of connection points: 2
#     Edge 63, Type (0, 0), BuildingBlock: ZUJKAS_clean_linker_0, # of connection points: 2
#     Edge 64, Type (0, 0), BuildingBlock: ZUJKAS_clean_linker_0, # of connection points: 2
#     Edge 65, Type (0, 0), BuildingBlock: ZUJKAS_clean_linker_0, # of connection points: 2
#     Edge 66, Type (0, 0), BuildingBlock: ZUJKAS_clean_linker_0, # of connection points: 2
#     Edge 67, Type (0, 0), BuildingBlock: ZUJKAS_clean_linker_0, # of connection points: 2
#     Edge 68, Type (0, 0), BuildingBlock: ZUJKAS_clean_linker_0, # of connection points: 2
#     Edge 69, Type (0, 0), BuildingBlock: ZUJKAS_clean_linker_0, # of connection points: 2
#     Edge 70, Type (0, 0), BuildingBlock: ZUJKAS_clean_linker_0, # of connection points: 2
#     Edge 71, Type (0, 0), BuildingBlock: ZUJKAS_clean_linker_0, # of connection points: 2
#     Edge 72, Type (0, 0), BuildingBlock: ZUJKAS_clean_linker_0, # of connection points: 2
#     Edge 73, Type (0, 0), BuildingBlock: ZUJKAS_clean_linker_0, # of connection points: 2
#     Edge 74, Type (0, 0), BuildingBlock: ZUJKAS_clean_linker_0, # of connection points: 2
#     Edge 75, Type (0, 0), BuildingBlock: ZUJKAS_clean_linker_0, # of connection points: 2
#     Edge 76, Type (0, 0), BuildingBlock: ZUJKAS_clean_linker_0, # of connection points: 2
#     Edge 77, Type (0, 0), BuildingBlock: ZUJKAS_clean_linker_0, # of connection points: 2
#     Edge 78, Type (0, 0), BuildingBlock: ZUJKAS_clean_linker_0, # of connection points: 2
#     Edge 79, Type (0, 0), BuildingBlock: ZUJKAS_clean_linker_0, # of connection points: 2
#     Edge 80, Type (0, 0), BuildingBlock: ZUJKAS_clean_linker_0, # of connection points: 2
#     Edge 81, Type (0, 0), BuildingBlock: ZUJKAS_clean_linker_0, # of connection points: 2
#     Edge 82, Type (0, 0), BuildingBlock: ZUJKAS_clean_linker_0, # of connection points: 2
#     Edge 83, Type (0, 0), BuildingBlock: ZUJKAS_clean_linker_0, # of connection points: 2
#     Edge 84, Type (0, 0), BuildingBlock: ZUJKAS_clean_linker_0, # of connection points: 2
#     Edge 85, Type (0, 0), BuildingBlock: ZUJKAS_clean_linker_0, # of connection points: 2
#     Edge 86, Type (0, 0), BuildingBlock: ZUJKAS_clean_linker_0, # of connection points: 2
#     Edge 87, Type (0, 0), BuildingBlock: ZUJKAS_clean_linker_0, # of connection points: 2
#     Edge 88, Type (0, 0), BuildingBlock: ZUJKAS_clean_linker_0, # of connection points: 2
#     Edge 89, Type (0, 0), BuildingBlock: ZUJKAS_clean_linker_0, # of connection points: 2
#     Edge 90, Type (0, 0), BuildingBlock: ZUJKAS_clean_linker_0, # of connection points: 2
#     Edge 91, Type (0, 0), BuildingBlock: ZUJKAS_clean_linker_0, # of connection points: 2
#     Edge 92, Type (0, 0), BuildingBlock: ZUJKAS_clean_linker_0, # of connection points: 2
#     Edge 93, Type (0, 0), BuildingBlock: ZUJKAS_clean_linker_0, # of connection points: 2
#     Edge 94, Type (0, 0), BuildingBlock: ZUJKAS_clean_linker_0, # of connection points: 2
#     Edge 95, Type (0, 0), BuildingBlock: ZUJKAS_clean_linker_0, # of connection points: 2
# Relax obj value: 0.174
# Max RMSD: 0.151
# Mean RMSD: 0.131
data_MOF--net-pem--node1-KUFVIS_clean_sbu_0--edge1-ZUJKAS_clean_linker_0
_symmetry_space_group_name_H-M    P1
_symmetry_Int_Tables_number       1
_symmetry_cell_setting            triclinic
loop_
_symmetry_equiv_pos_as_xyz
'x, y, z'
_cell_length_a     57.318687
_cell_length_b     53.51117
_cell_length_c     52.516252
_cell_angle_alpha  91.387894
_cell_angle_beta   91.431953
_cell_angle_gamma 92.666299
loop_
_atom_site_label
_atom_site_type_symbol
_atom_site_fract_x
_atom_site_fract_y
_atom_site_fract_z
_atom_type_partial_charge
Mn0 Mn 0.09176 0.08455 0.10878 0.0
Mn1 Mn 0.109 0.03038 0.08216 0.0
C2 C 0.0811 0.07349 0.06709 0.0
C3 C 0.06536 0.10935 0.13007 0.0
C4 C 0.13946 0.07789 0.0849 0.0
O5 O 0.10183 0.06499 0.14039 0.0
O6 O 0.11351 0.03072 0.11959 0.0
C7 C 0.07227 0.9971 0.10397 0.0
N8 N 0.08385 0.00574 0.08338 0.0
C9 C 0.06174 0.97699 0.05514 0.0
C10 C 0.04965 0.96769 0.07605 0.0
C11 C 0.05486 0.97789 0.10055 0.0
C12 C 0.07869 0.99637 0.05968 0.0
H13 H 0.07631 1.00478 0.12285 0.0
C14 C 0.11038 0.04327 0.14013 0.0
O15 O 0.08736 0.11599 0.12895 0.0
O16 O 0.05914 0.08716 0.12103 0.0
N17 N 0.10578 0.02654 0.04595 0.0
C18 C 0.1188 0.03788 0.02776 0.0
C19 C 0.11622 0.02941 1.00231 0.0
C20 C 0.10054 0.00919 0.99588 0.0
C21 C 0.08709 0.99802 0.01483 0.0
C22 C 0.09064 0.00705 0.03992 0.0
H23 H 0.1313 0.05305 0.03263 0.0
O24 O 0.08113 0.09658 0.07507 0.0
O25 O 0.08658 0.05709 0.08388 0.0
O26 O 0.12559 0.091 0.09766 0.0
O27 O 0.13541 0.0548 0.07908 0.0
C28 C 0.07049 0.97813 0.00987 0.0
C29 C 0.05763 0.96782 0.02997 0.0
H30 H 0.0363 0.95277 0.07351 0.0
H31 H 0.04556 0.97086 0.11678 0.0
H32 H 0.12657 0.03818 0.98775 0.0
H33 H 0.09913 1.00229 0.97634 0.0
H34 H 0.06737 0.9707 0.99066 0.0
H35 H 0.04472 0.95273 0.02587 0.0
Mn36 Mn 0.17241 0.8402 0.36203 0.0
Mn37 Mn 0.18895 0.78191 0.37366 0.0
C38 C 0.19648 0.81974 0.33466 0.0
C39 C 0.15028 0.86927 0.34065 0.0
C40 C 0.20965 0.82784 0.40219 0.0
O41 O 0.14639 0.82688 0.38485 0.0
O42 O 0.16017 0.78867 0.39247 0.0
C43 C 0.14912 0.75127 0.35043 0.0
N44 N 0.17244 0.7575 0.35197 0.0
C45 C 0.18118 0.72152 0.32618 0.0
C46 C 0.15727 0.71471 0.32432 0.0
C47 C 0.14115 0.72987 0.33617 0.0
C48 C 0.18799 0.7436 0.33974 0.0
H49 H 0.13672 0.76233 0.36023 0.0
C50 C 0.14471 0.80512 0.39465 0.0
O51 O 0.16192 0.87521 0.36162 0.0
O52 O 0.14941 0.84584 0.33365 0.0
N53 N 0.21613 0.7729 0.35578 0.0
C54 C 0.23832 0.7832 0.35773 0.0
C55 C 0.25633 0.77154 0.34504 0.0
C56 C 0.25145 0.7491 0.33107 0.0
C57 C 0.22847 0.73887 0.32938 0.0
C58 C 0.21111 0.75188 0.34157 0.0
H59 H 0.24221 0.80016 0.36887 0.0
O60 O 0.1978 0.84397 0.33684 0.0
O61 O 0.18244 0.8083 0.34992 0.0
O62 O 0.19663 0.8436 0.39183 0.0
O63 O 0.20782 0.80454 0.39674 0.0
C64 C 0.22215 0.71609 0.31645 0.0
C65 C 0.19855 0.70721 0.31521 0.0
H66 H 0.1511 0.69795 0.31378 0.0
H67 H 0.12267 0.72479 0.33472 0.0
H68 H 0.274 0.7796 0.34639 0.0
H69 H 0.26547 0.73985 0.32178 0.0
H70 H 0.23524 0.70533 0.30724 0.0
H71 H 0.19386 0.68978 0.30502 0.0
Mn72 Mn 0.43025 0.89892 0.62047 0.0
Mn73 Mn 0.41377 0.95532 0.59995 0.0
C74 C 0.4431 0.91397 0.58204 0.0
C75 C 0.45575 0.87285 0.64141 0.0
C76 C 0.38278 0.90796 0.59473 0.0
O77 O 0.41963 0.916 0.65361 0.0
O78 O 0.4099 0.95257 0.63693 0.0
C79 C 0.45019 0.98779 0.62703 0.0
N80 N 0.43846 0.98033 0.60507 0.0
C81 C 0.45863 0.01232 0.58146 0.0
C82 C 0.47086 0.02041 0.60384 0.0
C83 C 0.4667 0.00801 0.62669 0.0
C84 C 0.44246 0.99201 0.58295 0.0
H85 H 0.44694 0.97842 0.64466 0.0
C86 C 0.4127 0.93835 0.65585 0.0
O87 O 0.43395 0.86614 0.637 0.0
O88 O 0.46231 0.89545 0.63536 0.0
N89 N 0.41684 0.96138 0.5644 0.0
C90 C 0.40488 0.95011 0.54417 0.0
C91 C 0.40732 0.96001 0.51982 0.0
C92 C 0.42192 0.98145 0.51652 0.0
C93 C 0.43414 0.99266 0.53757 0.0
C94 C 0.43077 0.98216 0.56145 0.0
H95 H 0.3934 0.93383 0.5466 0.0
O96 O 0.4425 0.89016 0.58615 0.0
O97 O 0.43612 0.92838 0.60034 0.0
O98 O 0.3967 0.89347 0.60574 0.0
O99 O 0.38718 0.9314 0.59284 0.0
C100 C 0.44987 0.01354 0.53573 0.0
C101 C 0.46219 0.02329 0.55764 0.0
H102 H 0.48363 0.03598 0.60367 0.0
H103 H 0.47613 0.01409 0.64402 0.0
H104 H 0.39789 0.9512 0.50362 0.0
H105 H 0.42382 0.98899 0.49769 0.0
H106 H 0.45297 0.02191 0.51747 0.0
H107 H 0.47459 0.03902 0.55589 0.0
Mn108 Mn 0.32602 0.16971 0.86422 0.0
Mn109 Mn 0.33749 0.18058 0.80263 0.0
C110 C 0.31606 0.20698 0.84647 0.0
C111 C 0.30075 0.15278 0.89408 0.0
C112 C 0.37395 0.18787 0.84564 0.0
O113 O 0.33334 0.13493 0.85036 0.0
O114 O 0.33721 0.14425 0.80916 0.0
C115 C 0.29392 0.15643 0.78008 0.0
N116 N 0.30923 0.17663 0.78252 0.0
C117 C 0.28726 0.19933 0.75186 0.0
C118 C 0.27142 0.17864 0.74874 0.0
C119 C 0.27468 0.15717 0.76306 0.0
C120 C 0.30592 0.1976 0.76933 0.0
H121 H 0.29634 0.13993 0.79108 0.0
C122 C 0.3359 0.12853 0.82709 0.0
O123 O 0.32288 0.15699 0.89946 0.0
O124 O 0.29359 0.15769 0.87124 0.0
N125 N 0.33807 0.21476 0.79261 0.0
C126 C 0.35427 0.23354 0.79867 0.0
C127 C 0.35413 0.25593 0.78535 0.0
C128 C 0.33726 0.25885 0.76597 0.0
C129 C 0.32011 0.23975 0.76078 0.0
C130 C 0.32153 0.21759 0.77424 0.0
H131 H 0.36723 0.23148 0.81352 0.0
O132 O 0.31747 0.20497 0.87098 0.0
O133 O 0.3194 0.18685 0.83299 0.0
O134 O 0.36067 0.1817 0.86391 0.0
O135 O 0.36731 0.18627 0.82217 0.0
C136 C 0.30179 0.24174 0.74266 0.0
C137 C 0.28521 0.22165 0.73841 0.0
H138 H 0.25663 0.17909 0.73554 0.0
H139 H 0.26244 0.1412 0.76091 0.0
H140 H 0.36713 0.2708 0.78983 0.0
H141 H 0.33761 0.27589 0.75527 0.0
H142 H 0.30015 0.25874 0.73209 0.0
H143 H 0.27101 0.22352 0.7247 0.0
Mn144 Mn 0.10092 0.90575 0.40023 0.0
Mn145 Mn 0.08704 0.88231 0.45769 0.0
C146 C 0.06903 0.91928 0.42189 0.0
C147 C 0.11783 0.93622 0.37365 0.0
C148 C 0.07542 0.85454 0.40763 0.0
O149 O 0.13208 0.89121 0.41267 0.0
O150 O 0.12028 0.87717 0.45082 0.0
C151 C 0.11643 0.91703 0.49128 0.0
N152 N 0.09512 0.90627 0.48449 0.0
C153 C 0.07699 0.92741 0.51926 0.0
C154 C 0.09876 0.93867 0.52662 0.0
C155 C 0.11855 0.93352 0.5125 0.0
C156 C 0.07593 0.91127 0.49782 0.0
H157 H 0.13166 0.91308 0.48059 0.0
C158 C 0.13594 0.881 0.43423 0.0
O159 O 0.1117 0.91381 0.36529 0.0
O160 O 0.11623 0.94033 0.39798 0.0
N161 N 0.05537 0.88639 0.46714 0.0
C162 C 0.03547 0.87482 0.45695 0.0
C163 C 0.01425 0.87735 0.46927 0.0
C164 C 0.01368 0.89173 0.49192 0.0
C165 C 0.0342 0.90414 0.50162 0.0
C166 C 0.05494 0.90045 0.48883 0.0
H167 H 0.03578 0.86343 0.43976 0.0
O168 O 0.06983 0.92106 0.39735 0.0
O169 O 0.0866 0.90927 0.43302 0.0
O170 O 0.08458 0.87089 0.39309 0.0
O171 O 0.07693 0.85651 0.43186 0.0
C172 C 0.0349 0.91995 0.5235 0.0
C173 C 0.05624 0.93176 0.53218 0.0
H174 H 0.10047 0.95138 0.543 0.0
H175 H 0.13542 0.94219 0.51802 0.0
H176 H 0.9984 0.86803 0.46147 0.0
H177 H 0.9973 0.89341 0.50153 0.0
H178 H 0.01908 0.92334 0.53364 0.0
H179 H 0.05652 0.94414 0.54882 0.0
Mn180 Mn 0.339 0.81794 0.65162 0.0
Mn181 Mn 0.34842 0.79528 0.71023 0.0
C182 C 0.31989 0.78104 0.66417 0.0
C183 C 0.31594 0.84064 0.62308 0.0
C184 C 0.38318 0.79027 0.66745 0.0
O185 O 0.35201 0.84934 0.67196 0.0
O186 O 0.35663 0.83166 0.71023 0.0
C187 C 0.31285 0.82262 0.7384 0.0
N188 N 0.32227 0.80069 0.7313 0.0
C189 C 0.29606 0.77724 0.75784 0.0
C190 C 0.28627 0.79959 0.76567 0.0
C191 C 0.29457 0.82236 0.75573 0.0
C192 C 0.31401 0.77863 0.74027 0.0
H193 H 0.31916 0.84018 0.73088 0.0
C194 C 0.35677 0.8508 0.69602 0.0
O195 O 0.3372 0.83523 0.61791 0.0
O196 O 0.30869 0.8343 0.64521 0.0
N197 N 0.34016 0.7604 0.71306 0.0
C198 C 0.34974 0.74034 0.70159 0.0
C199 C 0.34263 0.71606 0.7086 0.0
C200 C 0.3259 0.71267 0.72746 0.0
C201 C 0.31599 0.73359 0.73868 0.0
C202 C 0.32358 0.7573 0.73072 0.0
H203 H 0.36266 0.74284 0.68718 0.0
O204 O 0.3231 0.78506 0.64024 0.0
O205 O 0.32876 0.79815 0.67982 0.0
O206 O 0.37165 0.80197 0.65059 0.0
O207 O 0.37613 0.78777 0.69018 0.0
C208 C 0.29873 0.73183 0.75728 0.0
C209 C 0.28866 0.75362 0.76672 0.0
H210 H 0.27225 0.79947 0.77913 0.0
H211 H 0.28699 0.83969 0.76151 0.0
H212 H 0.35014 0.7 0.69963 0.0
H213 H 0.32054 0.69391 0.73291 0.0
H214 H 0.2928 0.71376 0.76414 0.0
H215 H 0.2752 0.75201 0.78077 0.0
Mn216 Mn 0.42621 0.10486 0.9187 0.0
Mn217 Mn 0.41916 0.04747 0.94325 0.0
C218 C 0.44541 0.09507 0.95617 0.0
C219 C 0.45008 0.13375 0.89649 0.0
C220 C 0.38252 0.08681 0.9478 0.0
O221 O 0.41431 0.08335 0.88724 0.0
O222 O 0.41072 0.04588 0.90618 0.0
C223 C 0.45584 0.02145 0.91566 0.0
N224 N 0.44658 0.02911 0.93801 0.0
C225 C 0.47765 0.01142 0.96231 0.0
C226 C 0.48746 1.00328 0.93956 0.0
C227 C 0.47648 0.00828 0.91614 0.0
C228 C 0.45684 0.02409 0.96069 0.0
H229 H 0.44765 0.02546 0.89758 0.0
C230 C 0.40981 0.05955 0.88642 0.0
O231 O 0.42824 0.13786 0.9004 0.0
O232 O 0.45683 0.11199 0.90262 0.0
N233 N 0.42765 0.04699 0.97877 0.0
C234 C 0.41715 0.05798 0.99889 0.0
C235 C 0.42654 0.05557 0.02361 0.0
C236 C 0.44666 0.04199 0.02742 0.0
C237 C 0.45717 0.03087 0.00645 0.0
C238 C 0.44686 0.03363 0.98226 0.0
H239 H 0.40187 0.06873 0.99612 0.0
O240 O 0.44097 0.11807 0.9517 0.0
O241 O 0.43725 0.07866 0.93932 0.0
O242 O 0.39331 0.10401 0.93534 0.0
O243 O 0.39053 0.06512 0.95057 0.0
C244 C 0.47789 0.01785 0.00854 0.0
C245 C 0.48817 0.00828 0.98648 0.0
H246 H 0.50356 0.99345 0.93984 0.0
H247 H 0.48401 1.00217 0.89849 0.0
H248 H 0.4184 0.06435 0.03968 0.0
H249 H 0.45405 0.04049 0.04647 0.0
H250 H 0.48636 0.01558 0.02696 0.0
H251 H 0.50453 0.99918 0.98829 0.0
Mn252 Mn 0.1734 0.16295 0.1481 0.0
Mn253 Mn 0.17207 0.19347 0.20486 0.0
C254 C 0.19512 0.20029 0.15534 0.0
C255 C 0.19448 0.13629 0.12105 0.0
C256 C 0.13176 0.19276 0.16557 0.0
O257 O 0.16065 0.13545 0.17202 0.0
O258 O 0.16494 0.15705 0.2097 0.0
C259 C 0.21287 0.17245 0.23096 0.0
N260 N 0.20147 0.19263 0.22286 0.0
C261 C 0.23278 0.22077 0.23882 0.0
C262 C 0.24459 0.20022 0.24772 0.0
C263 C 0.23461 0.17595 0.24374 0.0
C264 C 0.21098 0.2161 0.22649 0.0
H265 H 0.20573 0.15385 0.22703 0.0
C266 C 0.16014 0.13681 0.19653 0.0
O267 O 0.17287 0.14119 0.11585 0.0
O268 O 0.20275 0.14473 0.14277 0.0
N269 N 0.17932 0.22864 0.2022 0.0
C270 C 0.16701 0.24613 0.18991 0.0
C271 C 0.17521 0.27127 0.19094 0.0
C272 C 0.19599 0.2782 0.20454 0.0
C273 C 0.20846 0.25989 0.21689 0.0
C274 C 0.19927 0.23517 0.21548 0.0
H275 H 0.15106 0.241 0.17935 0.0
O276 O 0.18908 0.19302 0.13236 0.0
O277 O 0.18721 0.18608 0.1731 0.0
O278 O 0.14156 0.18056 0.14768 0.0
O279 O 0.14131 0.19653 0.18768 0.0
C280 C 0.22997 0.26512 0.22994 0.0
C281 C 0.24227 0.24554 0.24059 0.0
H282 H 0.26161 0.20276 0.257 0.0
H283 H 0.24383 0.15996 0.25013 0.0
H284 H 0.16556 0.28527 0.18121 0.0
H285 H 0.20237 0.29759 0.2051 0.0
H286 H 0.23754 0.28404 0.23132 0.0
H287 H 0.25928 0.24971 0.24948 0.0
Mn288 Mn 0.59892 0.40653 0.91123 0.0
Mn289 Mn 0.58542 0.38347 0.96875 0.0
C290 C 0.57018 0.42368 0.93511 0.0
C291 C 0.61761 0.4349 0.88428 0.0
C292 C 0.56716 0.35948 0.91898 0.0
O293 O 0.62849 0.3879 0.92087 0.0
O294 O 0.61608 0.37249 0.95802 0.0
C295 C 0.62269 0.41187 0.99899 0.0
N296 N 0.59971 0.40488 0.99498 0.0
C297 C 0.589 0.42746 0.03277 0.0
C298 C 0.61256 0.43481 0.03736 0.0
C299 C 0.62946 0.42707 0.02032 0.0
C300 C 0.58327 0.41258 0.01101 0.0
H301 H 0.63578 0.40593 0.98604 0.0
C302 C 0.63155 0.37537 0.94112 0.0
O303 O 0.60881 0.41338 0.87591 0.0
O304 O 0.61763 0.43896 0.90875 0.0
N305 N 0.55634 0.39261 0.98249 0.0
C306 C 0.53434 0.38405 0.97525 0.0
C307 C 0.5156 0.38879 0.99107 0.0
C308 C 0.51967 0.40222 0.01417 0.0
C309 C 0.54228 0.41154 0.02084 0.0
C310 C 0.56037 0.4056 0.00469 0.0
H311 H 0.53116 0.37313 0.95785 0.0
O312 O 0.56996 0.42578 0.91056 0.0
O313 O 0.58691 0.4113 0.94505 0.0
O314 O 0.57862 0.37405 0.90441 0.0
O315 O 0.56919 0.36091 0.94321 0.0
C316 C 0.54764 0.42616 0.04308 0.0
C317 C 0.57095 0.43438 0.04887 0.0
H318 H 0.61786 0.44643 0.05386 0.0
H319 H 0.64768 0.43271 0.02368 0.0
H320 H 0.49811 0.38182 0.98565 0.0
H321 H 0.50521 0.40558 0.02649 0.0
H322 H 0.53394 0.43128 0.05578 0.0
H323 H 0.57484 0.44584 0.06587 0.0
Mn324 Mn 0.84503 0.31688 0.14367 0.0
Mn325 Mn 0.85054 0.2937 0.20249 0.0
C326 C 0.82317 0.28093 0.15432 0.0
C327 C 0.82408 0.34056 0.1146 0.0
C328 C 0.88716 0.28808 0.16208 0.0
O329 O 0.85921 0.34725 0.16445 0.0
O330 O 0.86032 0.32966 0.20311 0.0
C331 C 0.81456 0.32218 0.22848 0.0
N332 N 0.82313 0.29986 0.22124 0.0
C333 C 0.7926 0.27704 0.24272 0.0
C334 C 0.78366 0.2998 0.25071 0.0
C335 C 0.79459 0.32246 0.24341 0.0
C336 C 0.81261 0.27795 0.22795 0.0
H337 H 0.82296 0.33965 0.22301 0.0
C338 C 0.86328 0.34834 0.18859 0.0
O339 O 0.84526 0.33429 0.11005 0.0
O340 O 0.81623 0.33515 0.13672 0.0
N341 N 0.84136 0.25901 0.20479 0.0
C342 C 0.85273 0.23871 0.19635 0.0
C343 C 0.84426 0.21459 0.20244 0.0
C344 C 0.82432 0.21159 0.21728 0.0
C345 C 0.81312 0.23276 0.22608 0.0
C346 C 0.82248 0.25634 0.2196 0.0
H347 H 0.8682 0.24088 0.18516 0.0
O348 O 0.82812 0.28531 0.13089 0.0
O349 O 0.83243 0.29717 0.17083 0.0
O350 O 0.87638 0.29905 0.14419 0.0
O351 O 0.87922 0.28591 0.18447 0.0
C352 C 0.79285 0.23139 0.24071 0.0
C353 C 0.78248 0.2535 0.24882 0.0
H354 H 0.76821 0.30014 0.26213 0.0
H355 H 0.78765 0.34008 0.24932 0.0
H356 H 0.85309 0.19835 0.1957 0.0
H357 H 0.81775 0.19295 0.22178 0.0
H358 H 0.78499 0.21342 0.24567 0.0
H359 H 0.76671 0.25212 0.25969 0.0
Mn360 Mn 0.92248 0.60402 0.43556 0.0
Mn361 Mn 0.90666 0.5487 0.46091 0.0
C362 C 0.93668 0.59321 0.47528 0.0
C363 C 0.95031 0.62938 0.41461 0.0
C364 C 0.87459 0.59202 0.45887 0.0
O365 O 0.91108 0.58269 0.40391 0.0
O366 O 0.90175 0.54646 0.42354 0.0
C367 C 0.94277 0.51735 0.43908 0.0
N368 N 0.93232 0.52722 0.4598 0.0
C369 C 0.95728 0.50557 0.48843 0.0
C370 C 0.96818 0.49499 0.4674 0.0
C371 C 0.96098 0.50102 0.44263 0.0
C372 C 0.93926 0.52173 0.48372 0.0
H373 H 0.93721 0.52182 0.42 0.0
C374 C 0.90382 0.55957 0.40356 0.0
O375 O 0.92876 0.63574 0.41623 0.0
O376 O 0.95484 0.60743 0.4226 0.0
N377 N 0.91127 0.54892 0.49713 0.0
C378 C 0.89967 0.56159 0.51533 0.0
C379 C 0.90535 0.55829 0.54115 0.0
C380 C 0.92273 0.54187 0.54798 0.0
C381 C 0.93438 0.52902 0.52889 0.0
C382 C 0.9281 0.53319 0.50348 0.0
H383 H 0.88621 0.57414 0.51021 0.0
O384 O 0.93555 0.61657 0.46963 0.0
O385 O 0.92827 0.57739 0.45805 0.0
O386 O 0.8887 0.60762 0.44825 0.0
O387 O 0.87952 0.56958 0.46358 0.0
C388 C 0.95203 0.51233 0.53408 0.0
C389 C 0.96356 0.50075 0.51388 0.0
H390 H 0.98206 0.48219 0.46999 0.0
H391 H 0.96936 0.493 0.42632 0.0
H392 H 0.89631 0.56833 0.55576 0.0
H393 H 0.92706 0.53934 0.56792 0.0
H394 H 0.95703 0.50842 0.55356 0.0
H395 H 0.97725 0.48827 0.5182 0.0
Mn396 Mn 0.84305 0.65112 0.34092 0.0
Mn397 Mn 0.85567 0.66555 0.28014 0.0
C398 C 0.83061 0.6877 0.32381 0.0
C399 C 0.81843 0.63318 0.37157 0.0
C400 C 0.88981 0.67575 0.32461 0.0
O401 O 0.85267 0.61749 0.32564 0.0
O402 O 0.86082 0.62965 0.28598 0.0
C403 C 0.81713 0.63469 0.2548 0.0
N404 N 0.82884 0.65725 0.25871 0.0
C405 C 0.80362 0.67678 0.22858 0.0
C406 C 0.79139 0.65372 0.22411 0.0
C407 C 0.79813 0.63261 0.23736 0.0
C408 C 0.82233 0.67774 0.2463 0.0
H409 H 0.82225 0.6184 0.26489 0.0
C410 C 0.85902 0.61285 0.30283 0.0
O411 O 0.84056 0.63799 0.37631 0.0
O412 O 0.81107 0.63697 0.34849 0.0
N413 N 0.85144 0.69939 0.27075 0.0
C414 C 0.86463 0.72041 0.27775 0.0
C415 C 0.86044 0.74305 0.26591 0.0
C416 C 0.84288 0.74382 0.24687 0.0
C417 C 0.82933 0.72208 0.2402 0.0
C418 C 0.83457 0.69995 0.25234 0.0
H419 H 0.87833 0.71991 0.29215 0.0
O420 O 0.8323 0.68528 0.34827 0.0
O421 O 0.83555 0.66834 0.30979 0.0
O422 O 0.87705 0.66579 0.34163 0.0
O423 O 0.88376 0.67572 0.30102 0.0
C424 C 0.81084 0.72149 0.22197 0.0
C425 C 0.79788 0.69889 0.21631 0.0
H426 H 0.77675 0.65203 0.21064 0.0
H427 H 0.78872 0.61477 0.23408 0.0
H428 H 0.87087 0.75982 0.27125 0.0
H429 H 0.84009 0.76117 0.23737 0.0
H430 H 0.80631 0.73836 0.21238 0.0
H431 H 0.78353 0.69872 0.20248 0.0
Mn432 Mn 0.66516 0.35826 0.8542 0.0
Mn433 Mn 0.67887 0.29948 0.86944 0.0
C434 C 0.69257 0.33703 0.83181 0.0
C435 C 0.6465 0.38798 0.82943 0.0
C436 C 0.6977 0.34539 0.89921 0.0
O437 O 0.63611 0.3457 0.87391 0.0
O438 O 0.6487 0.3076 0.88366 0.0
C439 C 0.64097 0.27186 0.83948 0.0
N440 N 0.66412 0.27606 0.84538 0.0
C441 C 0.67432 0.24167 0.81817 0.0
C442 C 0.65059 0.23694 0.81181 0.0
C443 C 0.63386 0.25223 0.82238 0.0
C444 C 0.68039 0.26187 0.83482 0.0
H445 H 0.62802 0.28332 0.8478 0.0
C446 C 0.63337 0.32416 0.88415 0.0
O447 O 0.65578 0.39368 0.85173 0.0
O448 O 0.64565 0.36444 0.82276 0.0
N449 N 0.70768 0.28856 0.85661 0.0
C450 C 0.72988 0.29592 0.86433 0.0
C451 C 0.74865 0.28218 0.85608 0.0
C452 C 0.74438 0.26076 0.84039 0.0
C453 C 0.72142 0.25372 0.83241 0.0
C454 C 0.70343 0.2682 0.84116 0.0
H455 H 0.73322 0.3119 0.87706 0.0
O456 O 0.69347 0.36129 0.83267 0.0
O457 O 0.6763 0.32597 0.84462 0.0
O458 O 0.68646 0.3613 0.88664 0.0
O459 O 0.69547 0.3219 0.89468 0.0
C460 C 0.71564 0.23273 0.81637 0.0
C461 C 0.69216 0.22698 0.80886 0.0
H462 H 0.64502 0.22161 0.7989 0.0
H463 H 0.61551 0.24871 0.81759 0.0
H464 H 0.76633 0.2878 0.86218 0.0
H465 H 0.7589 0.24996 0.83444 0.0
H466 H 0.72913 0.22098 0.80953 0.0
H467 H 0.68801 0.21105 0.79617 0.0
Mn468 Mn 0.90883 0.91278 0.91343 0.0
Mn469 Mn 0.88262 0.96061 0.94308 0.0
C470 C 0.92864 0.95122 0.92019 0.0
C471 C 0.93218 0.87755 0.91303 0.0
C472 C 0.87626 0.94908 0.88668 0.0
O473 O 0.88097 0.89429 0.93044 0.0
O474 O 0.86537 0.92833 0.94753 0.0
C475 C 0.89065 0.94383 0.99585 0.0
N476 N 0.89234 0.96201 0.97818 0.0
C477 C 0.90726 0.99234 0.00975 0.0
C478 C 0.90558 0.97399 0.02832 0.0
C479 C 0.89739 0.94959 0.02129 0.0
C480 C 0.90066 0.9854 0.98464 0.0
H481 H 0.88413 0.92512 0.99063 0.0
C482 C 0.86545 0.90469 0.94364 0.0
O483 O 0.9178 0.8819 0.89434 0.0
O484 O 0.93176 0.89262 0.93273 0.0
N485 N 0.89692 0.99351 0.9414 0.0
C486 C 0.89793 0.00891 0.92112 0.0
C487 C 0.90543 0.03409 0.92496 0.0
C488 C 0.91135 0.04329 0.94966 0.0
C489 C 0.91031 0.02709 0.97022 0.0
C490 C 0.90266 1.00221 0.96524 0.0
H491 H 0.89281 1.00215 0.90217 0.0
O492 O 0.93508 0.93552 0.90287 0.0
O493 O 0.91126 0.9438 0.93407 0.0
O494 O 0.8879 0.92919 0.88628 0.0
O495 O 0.87234 0.96137 0.90711 0.0
C496 C 0.91637 0.03471 0.9955 0.0
C497 C 0.91514 0.01728 0.0152 0.0
H498 H 0.91056 0.97842 0.04801 0.0
H499 H 0.89607 0.9353 0.03549 0.0
H500 H 0.90626 0.04648 0.909 0.0
H501 H 0.91659 0.06287 0.95261 0.0
H502 H 0.92218 0.0539 0.99998 0.0
H503 H 0.92016 0.02328 0.03449 0.0
Mn504 Mn 0.84891 0.16551 0.6557 0.0
Mn505 Mn 0.86892 0.19853 0.70799 0.0
C506 C 0.8238 0.17756 0.68719 0.0
C507 C 0.82843 0.16213 0.61632 0.0
C508 C 0.87414 0.14259 0.70146 0.0
O509 O 0.88047 0.18128 0.64309 0.0
O510 O 0.89085 0.20176 0.67995 0.0
C511 C 0.86688 0.24953 0.68733 0.0
N512 N 0.86102 0.23274 0.70547 0.0
C513 C 0.84145 0.26395 0.72958 0.0
C514 C 0.84737 0.28158 0.71123 0.0
C515 C 0.86003 0.2743 0.68994 0.0
C516 C 0.84849 0.23946 0.72578 0.0
H517 H 0.87662 0.24408 0.67096 0.0
C518 C 0.89437 0.19627 0.65656 0.0
O519 O 0.84091 0.14417 0.6245 0.0
O520 O 0.8305 0.1831 0.62917 0.0
N521 N 0.84885 0.19754 0.73655 0.0
C522 C 0.84389 0.1781 0.75213 0.0
C523 C 0.83212 0.18243 0.7748 0.0
C524 C 0.82566 0.2067 0.78129 0.0
C525 C 0.83033 0.22629 0.76462 0.0
C526 C 0.8424 0.22091 0.74247 0.0
H527 H 0.84926 0.15949 0.74757 0.0
O528 O 0.8187 0.15787 0.673 0.0
O529 O 0.84391 0.18867 0.68355 0.0
O530 O 0.86503 0.14027 0.67897 0.0
O531 O 0.87715 0.16369 0.71316 0.0
C532 C 0.82348 0.25093 0.76912 0.0
C533 C 0.82878 0.26968 0.75145 0.0
H534 H 0.84222 0.30074 0.71324 0.0
H535 H 0.86459 0.28778 0.67564 0.0
H536 H 0.82829 0.16715 0.7874 0.0
H537 H 0.81668 0.20999 0.79888 0.0
H538 H 0.81392 0.25561 0.78599 0.0
H539 H 0.82314 0.28847 0.75494 0.0
Mn540 Mn 0.58726 0.10206 0.41155 0.0
Mn541 Mn 0.60388 0.04776 0.43703 0.0
C542 C 0.5603 0.06832 0.4144 0.0
C543 C 0.57084 0.14165 0.41454 0.0
C544 C 0.61328 0.06173 0.38261 0.0
O545 O 0.61826 0.11316 0.43098 0.0
O546 O 0.62546 0.076 0.44773 0.0
C547 C 0.59675 0.06064 0.49138 0.0
N548 N 0.59297 0.04472 0.47093 0.0
C549 C 0.57663 0.01259 0.49724 0.0
C550 C 0.58133 0.02821 0.51878 0.0
C551 C 0.59094 0.05256 0.51575 0.0
C552 C 0.58226 0.02195 0.47339 0.0
H553 H 0.60423 0.07929 0.4891 0.0
C554 C 0.63017 0.09939 0.44561 0.0
O555 O 0.5839 0.13554 0.39575 0.0
O556 O 0.56909 0.12569 0.43268 0.0
N557 N 0.58487 0.018 0.42932 0.0
C558 C 0.58324 1.0043 0.40705 0.0
C559 C 0.57202 0.98039 0.4065 0.0
C560 C 0.56373 0.97018 0.42911 0.0
C561 C 0.56696 0.98388 0.4521 0.0
C562 C 0.57759 0.00796 0.45133 0.0
H563 H 0.59033 0.01152 0.38977 0.0
O564 O 0.55703 0.08601 0.39851 0.0
O565 O 0.57911 0.07096 0.4288 0.0
O566 O 0.60388 0.08292 0.38318 0.0
O567 O 0.61551 0.04819 0.40205 0.0
C568 C 0.5609 0.97416 0.47587 0.0
C569 C 0.56598 0.98839 0.49845 0.0
H570 H 0.57707 0.02194 0.53763 0.0
H571 H 0.5941 0.06495 0.53219 0.0
H572 H 0.57019 0.96966 0.38877 0.0
H573 H 0.55549 0.95153 0.4287 0.0
H574 H 0.55264 0.95562 0.47704 0.0
H575 H 0.5613 0.9807 0.51661 0.0
Mn576 Mn 0.6618 0.83996 0.15367 0.0
Mn577 Mn 0.63224 0.81352 0.20205 0.0
C578 C 0.68061 0.83285 0.19248 0.0
C579 C 0.6856 0.83847 0.11764 0.0
C580 C 0.63035 0.86843 0.19026 0.0
O581 O 0.63242 0.82364 0.13472 0.0
O582 O 0.61552 0.80753 0.16918 0.0
C583 C 0.63573 0.76034 0.18611 0.0
N584 N 0.63882 0.77896 0.20418 0.0
C585 C 0.64906 0.74968 0.23615 0.0
C586 C 0.64597 0.73015 0.21791 0.0
C587 C 0.63946 0.73554 0.19272 0.0
C588 C 0.64559 0.77406 0.22829 0.0
H589 H 0.63031 0.76435 0.16685 0.0
C590 C 0.61599 0.8108 0.14519 0.0
O591 O 0.67294 0.85739 0.12257 0.0
O592 O 0.68316 0.81962 0.13259 0.0
N593 N 0.64634 0.8172 0.23537 0.0
C594 C 0.64976 0.83831 0.25029 0.0
C595 C 0.65661 0.83624 0.27597 0.0
C596 C 0.6593 0.8125 0.28617 0.0
C597 C 0.65574 0.79105 0.27042 0.0
C598 C 0.64928 0.79429 0.2449 0.0
H599 H 0.64704 0.85657 0.24274 0.0
O600 O 0.68891 0.84956 0.17723 0.0
O601 O 0.6617 0.82042 0.18462 0.0
O602 O 0.64334 0.868 0.1708 0.0
O603 O 0.62447 0.84893 0.20243 0.0
C604 C 0.65818 0.76656 0.27906 0.0
C605 C 0.65524 0.74592 0.26185 0.0
H606 H 0.64854 0.71096 0.22302 0.0
H607 H 0.63705 0.72058 0.17853 0.0
H608 H 0.65939 0.85289 0.28799 0.0
H609 H 0.66422 0.81097 0.3061 0.0
H610 H 0.66274 0.76341 0.29883 0.0
H611 H 0.65771 0.72724 0.26861 0.0
Mn612 Mn 0.91201 0.10614 0.59201 0.0
Mn613 Mn 0.88224 0.05835 0.56046 0.0
C614 C 0.93067 0.0716 0.57754 0.0
C615 C 0.93634 0.14269 0.59363 0.0
C616 C 0.88213 0.06498 0.61781 0.0
O617 O 0.88245 0.12297 0.57922 0.0
O618 O 0.86392 0.08876 0.56055 0.0
C619 C 0.88245 0.07975 0.50887 0.0
N620 N 0.88773 0.06096 0.52479 0.0
C621 C 0.90328 0.03697 0.49032 0.0
C622 C 0.89792 0.05602 0.47358 0.0
C623 C 0.88752 0.07753 0.48292 0.0
C624 C 0.89789 0.04026 0.51601 0.0
H625 H 0.87442 0.09632 0.51585 0.0
C626 C 0.86528 0.11215 0.56648 0.0
O627 O 0.92425 0.13579 0.61307 0.0
O628 O 0.93247 0.12978 0.57262 0.0
N629 N 0.89848 0.02791 0.55822 0.0
C630 C 0.90336 0.01163 0.57698 0.0
C631 C 0.91409 0.9893 0.5708 0.0
C632 C 0.91944 0.98377 0.5454 0.0
C633 C 0.91414 1.00072 0.52639 0.0
C634 C 0.90343 0.02268 0.53367 0.0
H635 H 0.89911 0.01563 0.5965 0.0
O636 O 0.93947 0.08487 0.59673 0.0
O637 O 0.91101 0.07843 0.568 0.0
O638 O 0.89437 0.08559 0.61901 0.0
O639 O 0.87631 0.05342 0.59693 0.0
C640 C 0.91918 0.99675 0.50052 0.0
C641 C 0.91392 0.01495 0.48253 0.0
H642 H 0.9018 0.05437 0.45354 0.0
H643 H 0.88338 0.09235 0.47013 0.0
H644 H 0.91813 0.97632 0.58559 0.0
H645 H 0.92766 0.96649 0.54073 0.0
H646 H 0.92726 0.97985 0.49425 0.0
H647 H 0.91819 0.01183 0.46277 0.0
Mn648 Mn 0.65091 0.17698 0.34943 0.0
Mn649 Mn 0.67743 0.23349 0.36308 0.0
C650 C 0.6571 0.20572 0.31799 0.0
C651 C 0.65201 0.13543 0.33404 0.0
C652 C 0.62632 0.22145 0.37341 0.0
O653 O 0.66837 0.17091 0.38304 0.0
O654 O 0.68323 0.21021 0.39142 0.0
C655 C 0.72661 0.21838 0.36239 0.0
N656 N 0.70934 0.23261 0.35315 0.0
C657 C 0.7357 0.25263 0.32415 0.0
C658 C 0.75373 0.23827 0.33345 0.0
C659 C 0.74913 0.22102 0.3526 0.0
C660 C 0.71357 0.24917 0.33459 0.0
H661 H 0.72333 0.20509 0.37713 0.0
C662 C 0.68079 0.18695 0.39666 0.0
O663 O 0.63469 0.14283 0.34738 0.0
O664 O 0.66932 0.15152 0.33158 0.0
N665 N 0.67414 0.2574 0.33674 0.0
C666 C 0.65492 0.2698 0.3296 0.0
C667 C 0.65644 0.28709 0.30995 0.0
C668 C 0.67786 0.29186 0.29818 0.0
C669 C 0.69759 0.27943 0.30631 0.0
C670 C 0.69496 0.26227 0.32589 0.0
H671 H 0.63859 0.26664 0.3389 0.0
O672 O 0.64024 0.18876 0.31544 0.0
O673 O 0.66919 0.20582 0.3392 0.0
O674 O 0.62623 0.19825 0.36686 0.0
O675 O 0.64443 0.23625 0.3727 0.0
C676 C 0.71978 0.28345 0.2958 0.0
C677 C 0.73883 0.27017 0.30484 0.0
H678 H 0.77113 0.24025 0.32593 0.0
H679 H 0.76293 0.20979 0.35984 0.0
H680 H 0.64117 0.29681 0.304 0.0
H681 H 0.67898 0.30522 0.28303 0.0
H682 H 0.7224 0.29677 0.28081 0.0
H683 H 0.75587 0.2736 0.2969 0.0
Mn684 Mn 0.61304 0.92036 0.10174 0.0
Mn685 Mn 0.58268 0.90102 0.04836 0.0
C686 C 0.60319 0.94867 0.07121 0.0
C687 C 0.61654 0.93864 0.14263 0.0
C688 C 0.63451 0.89392 0.05588 0.0
O689 O 0.59705 0.88733 0.11285 0.0
O690 O 0.57867 0.87591 0.07548 0.0
C691 C 0.53433 0.90147 0.06725 0.0
N692 N 0.55065 0.90937 0.05042 0.0
C693 C 0.52238 0.93275 0.02755 0.0
C694 C 0.50529 0.92477 0.04458 0.0
C695 C 0.51131 0.90912 0.06455 0.0
C696 C 0.54501 0.92439 0.03108 0.0
H697 H 0.53875 0.88943 0.08264 0.0
C698 C 0.58314 0.87269 0.09924 0.0
O699 O 0.63288 0.92534 0.13343 0.0
O700 O 0.59733 0.93924 0.12913 0.0
N701 N 0.58438 0.9243 0.02124 0.0
C702 C 0.60325 0.932 0.00771 0.0
C703 C 0.60042 0.94883 0.98791 0.0
C704 C 0.5782 0.95742 0.98206 0.0
C705 C 0.55901 0.94917 0.99617 0.0
C706 C 0.56289 0.93241 0.01573 0.0
H707 H 0.62035 0.92541 0.01201 0.0
O708 O 0.62151 0.95292 0.08593 0.0
O709 O 0.59183 0.92734 0.07387 0.0
O710 O 0.63627 0.90303 0.07854 0.0
O711 O 0.6153 0.89199 0.04313 0.0
C712 C 0.53625 0.95722 0.99182 0.0
C713 C 0.51794 0.94902 0.0075 0.0
H714 H 0.48755 0.93074 0.04265 0.0
H715 H 0.49824 0.90295 0.07783 0.0
H716 H 0.61534 0.95515 0.97715 0.0
H717 H 0.57609 0.97047 0.96681 0.0
H718 H 0.53274 0.96989 0.97657 0.0
H719 H 0.50055 0.95555 0.00418 0.0
Mn720 Mn 0.85697 0.85487 0.8456 0.0
Mn721 Mn 0.83195 0.7995 0.8623 0.0
C722 C 0.85061 0.82249 0.8159 0.0
C723 C 0.85616 0.89403 0.8263 0.0
C724 C 0.8829 0.81404 0.87377 0.0
O725 O 0.83961 0.86486 0.87805 0.0
O726 O 0.82604 0.82611 0.88804 0.0
C727 C 0.78196 0.81169 0.85954 0.0
N728 N 0.79964 0.79727 0.85196 0.0
C729 C 0.77279 0.76979 0.82743 0.0
C730 C 0.75431 0.78426 0.83509 0.0
C731 C 0.75895 0.80539 0.8511 0.0
C732 C 0.79536 0.77701 0.83637 0.0
H733 H 0.78528 0.82781 0.87202 0.0
C734 C 0.82768 0.84989 0.89205 0.0
O735 O 0.87339 0.88838 0.84129 0.0
O736 O 0.83841 0.87813 0.82475 0.0
N737 N 0.83555 0.7725 0.83832 0.0
C738 C 0.85536 0.76122 0.83154 0.0
C739 C 0.85389 0.74083 0.81415 0.0
C740 C 0.832 0.73192 0.8043 0.0
C741 C 0.81181 0.74358 0.81185 0.0
C742 C 0.81439 0.76405 0.82896 0.0
H743 H 0.87215 0.76769 0.83933 0.0
O744 O 0.8674 0.83922 0.81325 0.0
O745 O 0.83868 0.82448 0.83651 0.0
O746 O 0.88247 0.8363 0.86551 0.0
O747 O 0.86504 0.79896 0.8733 0.0
C748 C 0.78921 0.73567 0.80308 0.0
C749 C 0.76968 0.74854 0.81117 0.0
H750 H 0.73654 0.77943 0.82864 0.0
H751 H 0.74481 0.81671 0.85706 0.0
H752 H 0.86958 0.7319 0.80851 0.0
H753 H 0.8309 0.71611 0.79097 0.0
H754 H 0.78677 0.71967 0.79013 0.0
H755 H 0.75232 0.74207 0.80472 0.0
Mn756 Mn 0.40017 0.60566 0.08681 0.0
Mn757 Mn 0.38071 0.55046 0.05995 0.0
C758 C 0.42488 0.57311 0.08121 0.0
C759 C 0.42039 0.64473 0.08359 0.0
C760 C 0.3722 0.56481 0.11514 0.0
O761 O 0.36972 0.61535 0.06788 0.0
O762 O 0.35972 0.57716 0.05088 0.0
C763 C 0.38765 0.56364 0.00603 0.0
N764 N 0.39142 0.54818 0.0258 0.0
C765 C 0.41257 0.5204 0.99918 0.0
C766 C 0.40856 0.53577 0.97844 0.0
C767 C 0.39624 0.55762 0.98194 0.0
C768 C 0.40389 0.52756 0.02282 0.0
H769 H 0.37827 0.58048 0.0086 0.0
C770 C 0.35665 0.60061 0.0533 0.0
O771 O 0.40743 0.63974 0.10298 0.0
O772 O 0.4194 0.62826 0.06512 0.0
N773 N 0.40006 0.523 0.06651 0.0
C774 C 0.40392 0.51117 0.08881 0.0
C775 C 0.41683 0.48949 0.08878 0.0
C776 C 0.42522 0.47995 0.06578 0.0
C777 C 0.42091 0.49238 0.04306 0.0
C778 C 0.4083 0.51411 0.04433 0.0
H779 H 0.39715 0.51813 0.10648 0.0
O780 O 0.42977 0.59032 0.0985 0.0
O781 O 0.40565 0.57523 0.0683 0.0
O782 O 0.38245 0.58664 0.11505 0.0
O783 O 0.36963 0.55062 0.09526 0.0
C784 C 0.42862 0.48403 0.01919 0.0
C785 C 0.42485 0.49826 0.99735 0.0
H786 H 0.41502 0.5311 0.95979 0.0
H787 H 0.39327 0.56973 0.9661 0.0
H788 H 0.42009 0.48002 0.1064 0.0
H789 H 0.43503 0.46312 0.06579 0.0
H790 H 0.43779 0.46687 0.01751 0.0
H791 H 0.43146 0.492 0.97925 0.0
Mn792 Mn 0.13498 0.66555 0.83723 0.0
Mn793 Mn 0.17102 0.71702 0.84373 0.0
C794 C 0.14064 0.69195 0.80297 0.0
C795 C 0.12907 0.62349 0.82361 0.0
C796 C 0.12205 0.71426 0.86514 0.0
O797 O 0.15532 0.65743 0.86852 0.0
O798 O 0.17886 0.6925 0.87006 0.0
C799 C 0.21433 0.69262 0.82929 0.0
N800 N 0.19888 0.71087 0.82567 0.0
C801 C 0.22047 0.72689 0.79035 0.0
C802 C 0.23665 0.70833 0.79379 0.0
C803 C 0.23354 0.6911 0.81332 0.0
C804 C 0.20156 0.72735 0.80673 0.0
H805 H 0.21196 0.67919 0.84413 0.0
C806 C 0.1727 0.67079 0.87799 0.0
O807 O 0.11443 0.6339 0.83863 0.0
O808 O 0.14754 0.63683 0.81822 0.0
N809 N 0.16599 0.74227 0.81921 0.0
C810 C 0.14855 0.75872 0.81804 0.0
C811 C 0.14943 0.77767 0.79999 0.0
C812 C 0.16824 0.7796 0.7834 0.0
C813 C 0.18611 0.76266 0.78514 0.0
C814 C 0.18447 0.74438 0.80376 0.0
H815 H 0.13411 0.75747 0.83079 0.0
O816 O 0.12181 0.67777 0.80429 0.0
O817 O 0.15484 0.69098 0.82249 0.0
O818 O 0.11674 0.69168 0.85755 0.0
O819 O 0.14213 0.72501 0.86173 0.0
C820 C 0.20522 0.76285 0.76875 0.0
C821 C 0.22222 0.74477 0.77114 0.0
H822 H 0.25143 0.70705 0.78147 0.0
H823 H 0.2459 0.67665 0.81601 0.0
H824 H 0.1356 0.79072 0.79884 0.0
H825 H 0.16871 0.79406 0.76933 0.0
H826 H 0.20678 0.77652 0.75394 0.0
H827 H 0.23649 0.74474 0.75801 0.0
Mn828 Mn 0.11083 0.41481 0.58879 0.0
Mn829 Mn 0.08411 0.40798 0.53119 0.0
C830 C 0.10754 0.44945 0.563 0.0
C831 C 0.10887 0.42698 0.63181 0.0
C832 C 0.1342 0.3938 0.54152 0.0
O833 O 0.09167 0.38186 0.59252 0.0
O834 O 0.0756 0.37922 0.55299 0.0
C835 C 0.03581 0.41232 0.54914 0.0
N836 N 0.0535 0.42044 0.53408 0.0
C837 C 0.0304 0.45309 0.51759 0.0
C838 C 0.01188 0.44485 0.53271 0.0
C839 C 0.01464 0.42445 0.54861 0.0
C840 C 0.05112 0.44028 0.51896 0.0
H841 H 0.03776 0.39675 0.56154 0.0
C842 C 0.07793 0.37112 0.57562 0.0
O843 O 0.12603 0.41404 0.62381 0.0
O844 O 0.09224 0.43051 0.61549 0.0
N845 N 0.08958 0.43446 0.50786 0.0
C846 C 0.10809 0.43831 0.49241 0.0
C847 C 0.10773 0.45739 0.47453 0.0
C848 C 0.08806 0.47193 0.47221 0.0
C849 C 0.0687 0.46678 0.48734 0.0
C850 C 0.07002 0.44737 0.50469 0.0
H851 H 0.12275 0.42652 0.49324 0.0
O852 O 0.1241 0.44857 0.5801 0.0
O853 O 0.09412 0.4292 0.56068 0.0
O854 O 0.13475 0.39858 0.56552 0.0
O855 O 0.11618 0.39631 0.52707 0.0
C856 C 0.04815 0.48016 0.4859 0.0
C857 C 0.02914 0.47351 0.50126 0.0
H858 H 0.99548 0.45401 0.53238 0.0
H859 H 1.00047 0.4181 0.56045 0.0
H860 H 0.12249 0.46073 0.46242 0.0
H861 H 0.08786 0.48671 0.45848 0.0
H862 H 0.04678 0.49561 0.47307 0.0
H863 H 0.01365 0.4842 0.50022 0.0
Mn864 Mn 0.16673 0.35615 0.65804 0.0
Mn865 Mn 0.14551 0.32765 0.71012 0.0
C866 C 0.19037 0.35174 0.69375 0.0
C867 C 0.18607 0.355 0.61898 0.0
C868 C 0.13836 0.38212 0.69942 0.0
O869 O 0.13675 0.33742 0.64363 0.0
O870 O 0.12496 0.31982 0.6799 0.0
C871 C 0.15252 0.27561 0.69224 0.0
N872 N 0.15617 0.29429 0.71019 0.0
C873 C 0.17823 0.26768 0.73707 0.0
C874 C 0.17461 0.24814 0.71893 0.0
C875 C 0.16176 0.25216 0.69638 0.0
C876 C 0.16881 0.29073 0.73176 0.0
H877 H 0.14266 0.27856 0.67488 0.0
C878 C 0.12264 0.32326 0.65597 0.0
O879 O 0.17305 0.37334 0.62517 0.0
O880 O 0.18638 0.3366 0.63456 0.0
N881 N 0.16352 0.33279 0.74115 0.0
C882 C 0.16494 0.35336 0.75704 0.0
C883 C 0.17624 0.35211 0.78095 0.0
C884 C 0.18568 0.32963 0.78845 0.0
C885 C 0.18413 0.30872 0.7718 0.0
C886 C 0.17229 0.31096 0.74838 0.0
H887 H 0.15714 0.3705 0.7518 0.0
O888 O 0.19569 0.36848 0.67718 0.0
O889 O 0.17176 0.33754 0.68871 0.0
O890 O 0.14871 0.38262 0.67807 0.0
O891 O 0.13493 0.36226 0.71206 0.0
C892 C 0.19356 0.28563 0.77768 0.0
C893 C 0.19083 0.2652 0.76019 0.0
H894 H 0.18162 0.22999 0.72209 0.0
H895 H 0.15895 0.23719 0.68225 0.0
H896 H 0.17732 0.36831 0.79373 0.0
H897 H 0.19379 0.32858 0.8072 0.0
H898 H 0.20301 0.28341 0.79554 0.0
H899 H 0.19831 0.24761 0.76482 0.0
Mn900 Mn 0.344 0.67975 0.15911 0.0
Mn901 Mn 0.35272 0.70751 0.21692 0.0
C902 C 0.31278 0.68793 0.1842 0.0
C903 C 0.33088 0.6823 0.11665 0.0
C904 C 0.36198 0.65275 0.20608 0.0
O905 O 0.37673 0.69689 0.15581 0.0
O906 O 0.38011 0.71493 0.19525 0.0
C907 C 0.35368 0.76102 0.20346 0.0
N908 N 0.34401 0.74161 0.21652 0.0
C909 C 0.31587 0.7682 0.23508 0.0
C910 C 0.32561 0.78846 0.2219 0.0
C911 C 0.34461 0.78485 0.20605 0.0
C912 C 0.32591 0.74496 0.23212 0.0
H913 H 0.36811 0.75835 0.19104 0.0
C914 C 0.38772 0.71105 0.17273 0.0
O915 O 0.34193 0.663 0.12428 0.0
O916 O 0.33082 0.70113 0.13245 0.0
N917 N 0.32663 0.70212 0.2386 0.0
C918 C 0.31794 0.68026 0.24821 0.0
C919 C 0.29815 0.68043 0.26344 0.0
C920 C 0.28743 0.70302 0.26855 0.0
C921 C 0.29662 0.72527 0.25841 0.0
C922 C 0.31655 0.724 0.2436 0.0
H923 H 0.32592 0.66278 0.24411 0.0
O924 O 0.31143 0.6694 0.16789 0.0
O925 O 0.33305 0.69971 0.18676 0.0
O926 O 0.3564 0.65224 0.1823 0.0
O927 O 0.36164 0.67256 0.22007 0.0
C928 C 0.28643 0.74852 0.26191 0.0
C929 C 0.29609 0.76999 0.25032 0.0
H930 H 0.31846 0.8068 0.22355 0.0
H931 H 0.35213 0.80037 0.1957 0.0
H932 H 0.29108 0.66315 0.27107 0.0
H933 H 0.27202 0.70302 0.28007 0.0
H934 H 0.27092 0.75004 0.27313 0.0
H935 H 0.28788 0.78768 0.25283 0.0
Mn936 Mn 0.60206 0.60376 0.59323 0.0
Mn937 Mn 0.61382 0.54572 0.57099 0.0
C938 C 0.58745 0.58921 0.55382 0.0
C939 C 0.57709 0.63093 0.61486 0.0
C940 C 0.64768 0.59056 0.5667 0.0
O941 O 0.61418 0.5866 0.62588 0.0
O942 O 0.61987 0.54876 0.60803 0.0
C943 C 0.57571 0.51793 0.59687 0.0
N944 N 0.587 0.52379 0.57515 0.0
C945 C 0.56161 0.49521 0.55008 0.0
C946 C 0.54974 0.48879 0.5722 0.0
C947 C 0.55675 0.5003 0.59567 0.0
C948 C 0.58011 0.5132 0.55241 0.0
H949 H 0.58116 0.52661 0.61497 0.0
C950 C 0.62006 0.56377 0.62731 0.0
O951 O 0.59873 0.6375 0.61061 0.0
O952 O 0.57062 0.60808 0.60855 0.0
N953 N 0.60898 0.53926 0.53525 0.0
C954 C 0.62261 0.54716 0.51582 0.0
C955 C 0.61881 0.53649 0.49133 0.0
C956 C 0.60126 0.51759 0.48711 0.0
C957 C 0.58724 0.50995 0.50727 0.0
C958 C 0.59212 0.52096 0.53137 0.0
H959 H 0.63658 0.56118 0.51902 0.0
O960 O 0.58873 0.61293 0.5594 0.0
O961 O 0.59387 0.57445 0.57169 0.0
O962 O 0.63528 0.60687 0.5777 0.0
O963 O 0.6417 0.56729 0.56503 0.0
C964 C 0.5689 0.49153 0.50452 0.0
C965 C 0.5559 0.48439 0.52585 0.0
H966 H 0.53524 0.47505 0.57139 0.0
H967 H 0.54766 0.49547 0.61282 0.0
H968 H 0.62966 0.5425 0.47585 0.0
H969 H 0.59887 0.50892 0.46833 0.0
H970 H 0.5646 0.48279 0.48607 0.0
H971 H 0.54173 0.47036 0.52346 0.0
Mn972 Mn 0.92433 0.39952 0.11365 0.0
Mn973 Mn 0.90804 0.4583 0.10084 0.0
C974 C 0.93492 0.41829 0.07607 0.0
C975 C 0.95028 0.37021 0.12996 0.0
C976 C 0.87594 0.41234 0.09192 0.0
O977 O 0.91554 0.41355 0.14901 0.0
O978 O 0.90521 0.45194 0.13758 0.0
C979 C 0.94684 0.48602 0.12925 0.0
N980 N 0.93411 0.48138 0.10724 0.0
C981 C 0.95625 0.51336 0.08564 0.0
C982 C 0.96952 0.51857 0.1081 0.0
C983 C 0.96485 0.50474 0.12996 0.0
C984 C 0.93869 0.49431 0.086 0.0
H985 H 0.94327 0.47552 0.14613 0.0
C986 C 0.90863 0.43552 0.15436 0.0
O987 O 0.92818 0.3647 0.1261 0.0
O988 O 0.95704 0.39329 0.12614 0.0
N989 N 0.90994 0.46799 0.06611 0.0
C990 C 0.89575 0.46044 0.04588 0.0
C991 C 0.89757 0.47295 0.02281 0.0
C992 C 0.91377 0.49323 0.02083 0.0
C993 C 0.92851 0.50039 0.04169 0.0
C994 C 0.92559 0.48753 0.06436 0.0
H995 H 0.8828 0.44533 0.04743 0.0
O996 O 0.93446 0.39414 0.07792 0.0
O997 O 0.9297 0.43099 0.09641 0.0
O998 O 0.89013 0.39654 0.10025 0.0
O999 O 0.88038 0.43592 0.09258 0.0
C1000 C 0.94577 0.51997 0.04099 0.0
C1001 C 0.95981 0.52627 0.06287 0.0
H1002 H 0.98336 0.53307 0.10875 0.0
H1003 H 0.97506 0.5086 0.14734 0.0
H1004 H 0.8862 0.46727 0.00674 0.0
H1005 H 0.91451 0.50332 1.00326 0.0
H1006 H 0.94852 0.53018 0.02368 0.0
H1007 H 0.97321 0.54116 0.06202 0.0
Mn1008 Mn 0.6707 0.66094 0.66159 0.0
Mn1009 Mn 0.66443 0.69403 0.71606 0.0
C1010 C 0.68993 0.69959 0.66781 0.0
C1011 C 0.6944 0.63497 0.63779 0.0
C1012 C 0.62712 0.68946 0.67397 0.0
O1013 O 0.65847 0.63406 0.68596 0.0
O1014 O 0.65646 0.65809 0.72184 0.0
C1015 C 0.70246 0.67366 0.74718 0.0
N1016 N 0.69243 0.6936 0.73648 0.0
C1017 C 0.72399 0.72164 0.75181 0.0
C1018 C 0.73463 0.70138 0.76298 0.0
C1019 C 0.72378 0.67733 0.76076 0.0
C1020 C 0.70253 0.71693 0.73889 0.0
H1021 H 0.69438 0.65506 0.74511 0.0
C1022 C 0.65438 0.63693 0.70976 0.0
O1023 O 0.67261 0.63733 0.63104 0.0
O1024 O 0.70111 0.64504 0.65943 0.0
N1025 N 0.67208 0.72895 0.71246 0.0
C1026 C 0.66052 0.74602 0.69873 0.0
C1027 C 0.6693 0.77095 0.6986 0.0
C1028 C 0.68992 0.77803 0.71244 0.0
C1029 C 0.70159 0.7601 0.7263 0.0
C1030 C 0.69174 0.73565 0.72616 0.0
H1031 H 0.64477 0.74066 0.68786 0.0
O1032 O 0.68527 0.69091 0.64495 0.0
O1033 O 0.68194 0.6859 0.68601 0.0
O1034 O 0.63807 0.6761 0.65802 0.0
O1035 O 0.63533 0.69611 0.69603 0.0
C1036 C 0.72297 0.76536 0.73957 0.0
C1037 C 0.73432 0.74609 0.75197 0.0
H1038 H 0.75128 0.70395 0.773 0.0
H1039 H 0.73198 0.66161 0.76923 0.0
H1040 H 0.66027 0.78463 0.68773 0.0
H1041 H 0.69678 0.79722 0.71205 0.0
H1042 H 0.73116 0.78402 0.73981 0.0
H1043 H 0.75131 0.75019 0.7609 0.0
Mn1044 Mn 0.40879 0.41346 0.40763 0.0
Mn1045 Mn 0.39354 0.46517 0.44062 0.0
C1046 C 0.43474 0.44757 0.41307 0.0
C1047 C 0.42684 0.37476 0.40583 0.0
C1048 C 0.38055 0.45584 0.38493 0.0
O1049 O 0.37943 0.40027 0.42632 0.0
O1050 O 0.37182 0.43635 0.44665 0.0
C1051 C 0.40397 0.44593 0.49191 0.0
N1052 N 0.40704 0.46389 0.47421 0.0
C1053 C 0.43275 0.48873 0.50273 0.0
C1054 C 0.42978 0.47054 0.52131 0.0
C1055 C 0.41539 0.44901 0.51583 0.0
C1056 C 0.42114 0.48448 0.47914 0.0
H1057 H 0.3929 0.42936 0.48782 0.0
C1058 C 0.3672 0.41317 0.44145 0.0
O1059 O 0.41258 0.38129 0.3878 0.0
O1060 O 0.42884 0.38951 0.42574 0.0
N1061 N 0.41281 0.495 0.43725 0.0
C1062 C 0.41333 0.51107 0.41749 0.0
C1063 C 0.42595 0.53412 0.42033 0.0
C1064 C 0.43766 0.54055 0.44352 0.0
C1065 C 0.43701 0.5237 0.46353 0.0
C1066 C 0.42376 0.50121 0.45977 0.0
H1067 H 0.40393 0.50653 0.39979 0.0
O1068 O 0.43747 0.43107 0.39513 0.0
O1069 O 0.41746 0.44327 0.42818 0.0
O1070 O 0.38941 0.43431 0.38263 0.0
O1071 O 0.38011 0.46822 0.40601 0.0
C1072 C 0.44871 0.5285 0.48718 0.0
C1073 C 0.44677 0.5109 0.50669 0.0
H1074 H 0.43847 0.47291 0.53982 0.0
H1075 H 0.41305 0.43486 0.53005 0.0
H1076 H 0.42637 0.54705 0.4048 0.0
H1077 H 0.4468 0.55865 0.44587 0.0
H1078 H 0.4593 0.54562 0.49053 0.0
H1079 H 0.45596 0.5147 0.52473 0.0
Mn1080 Mn 0.09226 0.60973 0.92202 0.0
Mn1081 Mn 0.123 0.56661 0.95326 0.0
C1082 C 0.07459 0.57129 0.93231 0.0
C1083 C 0.06753 0.64366 0.91962 0.0
C1084 C 0.12504 0.57293 0.89642 0.0
O1085 O 0.12089 0.63136 0.9364 0.0
O1086 O 0.13868 0.59998 0.9553 0.0
C1087 C 0.11817 0.58808 0.00531 0.0
N1088 N 0.11616 0.56815 0.98864 0.0
C1089 C 0.10705 0.53993 0.02231 0.0
C1090 C 0.10904 0.56013 0.03988 0.0
C1091 C 0.11444 0.58434 0.0313 0.0
C1092 C 0.11037 0.54492 0.99658 0.0
H1093 H 0.12274 0.60663 0.99886 0.0
C1094 C 0.13774 0.62297 0.94969 0.0
O1095 O 0.08059 0.6374 0.90093 0.0
O1096 O 0.06998 0.63137 0.94048 0.0
N1097 N 0.11048 0.53293 0.95368 0.0
C1098 C 0.1089 0.51558 0.9342 0.0
C1099 C 0.10433 0.49029 0.93959 0.0
C1100 C 0.10197 0.48306 0.96495 0.0
C1101 C 0.10331 0.50127 0.98465 0.0
C1102 C 0.10788 0.52617 0.97812 0.0
H1103 H 0.11155 0.5209 0.91475 0.0
O1104 O 0.06609 0.58455 0.9143 0.0
O1105 O 0.09288 0.58106 0.94469 0.0
O1106 O 0.11179 0.59148 0.89535 0.0
O1107 O 0.13092 0.56282 0.91718 0.0
C1108 C 0.10068 0.49566 0.01054 0.0
C1109 C 0.10217 0.51502 0.02931 0.0
H1110 H 0.10652 0.55725 0.05999 0.0
H1111 H 0.11602 0.60002 0.04474 0.0
H1112 H 0.10318 0.47634 0.92429 0.0
H1113 H 0.09909 0.46345 0.96909 0.0
H1114 H 0.09729 0.47653 0.01621 0.0
H1115 H 0.09977 0.51051 0.0491 0.0
Mn1116 Mn 0.36056 0.35042 0.339 0.0
Mn1117 Mn 0.33643 0.29455 0.3557 0.0
C1118 C 0.35507 0.31795 0.3093 0.0
C1119 C 0.35774 0.38967 0.3198 0.0
C1120 C 0.38668 0.31071 0.36868 0.0
O1121 O 0.3434 0.35967 0.37183 0.0
O1122 O 0.32877 0.32098 0.38073 0.0
C1123 C 0.28615 0.30448 0.35022 0.0
N1124 N 0.30468 0.29086 0.34367 0.0
C1125 C 0.28006 0.26277 0.3172 0.0
C1126 C 0.26071 0.27645 0.32371 0.0
C1127 C 0.26379 0.29746 0.34022 0.0
C1128 C 0.30191 0.27061 0.32779 0.0
H1129 H 0.28836 0.32054 0.36304 0.0
C1130 C 0.33116 0.3446 0.38544 0.0
O1131 O 0.37547 0.38486 0.33453 0.0
O1132 O 0.34085 0.37276 0.31842 0.0
N1133 N 0.3422 0.2678 0.33219 0.0
C1134 C 0.36289 0.25783 0.32627 0.0
C1135 C 0.36303 0.23765 0.30869 0.0
C1136 C 0.34192 0.22782 0.29757 0.0
C1137 C 0.32086 0.23837 0.30401 0.0
C1138 C 0.3218 0.25854 0.32153 0.0
H1139 H 0.37917 0.26533 0.33475 0.0
O1140 O 0.37125 0.33531 0.30647 0.0
O1141 O 0.34324 0.31955 0.33 0.0
O1142 O 0.38651 0.33233 0.35876 0.0
O1143 O 0.36887 0.29561 0.36878 0.0
C1144 C 0.29898 0.2298 0.29356 0.0
C1145 C 0.27857 0.24183 0.30039 0.0
H1146 H 0.24344 0.27112 0.31597 0.0
H1147 H 0.24895 0.30815 0.3453 0.0
H1148 H 0.37938 0.22967 0.30375 0.0
H1149 H 0.3421 0.21226 0.28399 0.0
H1150 H 0.29772 0.21404 0.28021 0.0
H1151 H 0.26181 0.23499 0.29248 0.0
H1152 H 0.04847 0.03674 0.0557 0.0
H1153 H 0.02842 0.02783 0.01463 0.0
H1154 H 0.06842 0.08833 0.98126 0.0
H1155 H 0.08947 0.09657 0.02238 0.0
H1156 H 0.0074 0.07932 0.98633 0.0
H1157 H 0.05962 0.00646 0.96193 0.0
H1158 H 0.07402 0.037 0.95833 0.0
H1159 H 0.06284 0.01885 0.93081 0.0
C1160 C 0.05364 0.04744 0.03935 0.0
C1161 C 0.07102 0.06665 0.04179 0.0
C1162 C 0.0421 0.04251 0.01602 0.0
C1163 C 0.04725 0.05724 0.99497 0.0
C1164 C 0.06458 0.07656 0.99725 0.0
H1165 H 0.94775 0.98307 0.88605 0.0
H1166 H 0.97618 0.01828 0.8953 0.0
C1167 C 0.07644 0.08125 0.02064 0.0
C1168 C 0.03214 0.05375 0.97198 0.0
H1169 H 0.01978 0.00813 0.9268 0.0
C1170 C 0.01035 0.06453 0.97245 0.0
C1171 C 0.03621 0.03501 0.95348 0.0
C1172 C 0.05965 0.02393 0.95103 0.0
C1173 C 0.99156 0.05431 0.9575 0.0
C1174 C 0.9947 0.03268 0.94233 0.0
C1175 C 0.01729 0.02449 0.93887 0.0
C1176 C 0.97499 0.01472 0.93617 0.0
C1177 C 0.96798 0.06507 0.95992 0.0
C1178 C 0.9653 1.00101 0.95611 0.0
C1179 C 0.94977 0.98065 0.95087 0.0
C1180 C 0.943 0.97423 0.92568 0.0
C1181 C 0.95238 0.98816 0.90568 0.0
C1182 C 0.96841 0.00827 0.9109 0.0
H1183 H 0.96948 0.08515 0.96589 0.0
H1184 H 0.958 0.06306 0.94154 0.0
H1185 H 0.95829 0.05474 0.97465 0.0
H1186 H 0.97075 0.00526 0.97571 0.0
H1187 H 0.94365 0.96941 0.96645 0.0
H1188 H 0.26868 0.66768 0.18967 0.0
H1189 H 0.23284 0.69033 0.1936 0.0
H1190 H 0.27403 0.7603 0.19369 0.0
H1191 H 0.308 0.73773 0.18382 0.0
H1192 H 0.21785 0.71086 0.2269 0.0
H1193 H 0.22161 0.78956 0.16541 0.0
H1194 H 0.24055 0.76418 0.15947 0.0
H1195 H 0.25073 0.79172 0.17823 0.0
C1196 C 0.26974 0.68795 0.19023 0.0
C1197 C 0.29136 0.70109 0.18873 0.0
C1198 C 0.24928 0.70098 0.1924 0.0
C1199 C 0.25026 0.72736 0.19417 0.0
C1200 C 0.27199 0.74019 0.19158 0.0
H1201 H 0.23677 0.8171 0.30817 0.0
H1202 H 0.24066 0.79756 0.26566 0.0
C1203 C 0.29196 0.72719 0.18755 0.0
C1204 C 0.23013 0.74127 0.20351 0.0
H1205 H 0.21715 0.80218 0.21378 0.0
C1206 C 0.21694 0.73055 0.22297 0.0
C1207 C 0.22727 0.76681 0.19803 0.0
C1208 C 0.23563 0.77844 0.17383 0.0
C1209 C 0.2048 0.74546 0.23974 0.0
C1210 C 0.20701 0.77171 0.23781 0.0
C1211 C 0.21678 0.78208 0.21608 0.0
C1212 C 0.20367 0.78787 0.26038 0.0
C1213 C 0.19165 0.7332 0.26088 0.0
C1214 C 0.18167 0.78893 0.27119 0.0
C1215 C 0.17972 0.79881 0.29574 0.0
C1216 C 0.19961 0.80852 0.30944 0.0
C1217 C 0.22139 0.80916 0.29801 0.0
C1218 C 0.22347 0.79851 0.27367 0.0
H1219 H 0.19406 0.71274 0.26141 0.0
H1220 H 0.19741 0.74202 0.27937 0.0
H1221 H 0.17271 0.73611 0.25822 0.0
H1222 H 0.16622 0.78095 0.26117 0.0
H1223 H 0.1626 0.79888 0.30406 0.0
H1224 H 0.47336 0.95314 0.58512 0.0
H1225 H 0.48815 0.97698 0.55106 0.0
H1226 H 0.46559 0.91696 0.49771 0.0
H1227 H 0.4454 0.89602 0.53244 0.0
H1228 H 0.51353 0.98314 0.52276 0.0
H1229 H 0.44221 0.95991 0.45081 0.0
H1230 H 0.44049 0.94735 0.48195 0.0
H1231 H 0.45912 0.93379 0.45864 0.0
C1232 C 0.47064 0.94565 0.56587 0.0
C1233 C 0.45629 0.92434 0.56093 0.0
C1234 C 0.47993 0.95892 0.54598 0.0
C1235 C 0.47696 0.95009 0.52047 0.0
C1236 C 0.46618 0.92601 0.5163 0.0
H1237 H 0.52941 0.08336 0.44834 0.0
H1238 H 0.49894 0.05748 0.4682 0.0
C1239 C 0.45519 0.91356 0.53631 0.0
C1240 C 0.48474 0.96695 0.49942 0.0
H1241 H 0.4727 0.98773 0.43936 0.0
C1242 C 0.50311 0.98463 0.50545 0.0
C1243 C 0.473 0.9686 0.47521 0.0
C1244 C 0.45254 0.95155 0.46635 0.0
C1245 C 0.50774 0.00533 0.49054 0.0
C1246 C 0.49737 0.00595 0.46592 0.0
C1247 C 0.48054 0.98724 0.45835 0.0
C1248 C 0.50657 0.02372 0.44703 0.0
C1249 C 0.52285 0.02673 0.50218 0.0
C1250 C 0.51782 0.0144 0.42555 0.0
C1251 C 0.53384 0.0298 0.41287 0.0
C1252 C 0.53983 0.05377 0.42282 0.0
C1253 C 0.52602 0.06421 0.44157 0.0
C1254 C 0.50867 0.04947 0.45287 0.0
H1255 H 0.53175 0.02162 0.5202 0.0
H1256 H 0.53606 0.03368 0.48875 0.0
H1257 H 0.51162 0.04239 0.50704 0.0
H1258 H 0.51567 0.99481 0.41986 0.0
H1259 H 0.54259 0.02251 0.3965 0.0
H1260 H 0.33382 0.25452 0.85475 0.0
H1261 H 0.31911 0.29293 0.8363 0.0
H1262 H 0.26398 0.24884 0.79674 0.0
H1263 H 0.27873 0.21066 0.81484 0.0
H1264 H 0.30848 0.29576 0.77513 0.0
H1265 H 0.23661 0.31297 0.84101 0.0
H1266 H 0.26322 0.29854 0.85086 0.0
H1267 H 0.24085 0.28061 0.83303 0.0
C1268 C 0.31857 0.25323 0.84208 0.0
C1269 C 0.30767 0.22985 0.83548 0.0
C1270 C 0.31022 0.27502 0.8317 0.0
C1271 C 0.29047 0.27353 0.81539 0.0
C1272 C 0.2792 0.25022 0.80946 0.0
H1273 H 0.20955 0.30745 0.69985 0.0
H1274 H 0.23883 0.2968 0.73195 0.0
C1275 C 0.2877 0.22851 0.81953 0.0
C1276 C 0.28186 0.29582 0.80309 0.0
H1277 H 0.23281 0.32887 0.79893 0.0
C1278 C 0.29212 0.30322 0.78041 0.0
C1279 C 0.26096 0.30631 0.81067 0.0
C1280 C 0.24977 0.29942 0.83536 0.0
C1281 C 0.28029 0.31808 0.76329 0.0
C1282 C 0.25806 0.3262 0.76959 0.0
C1283 C 0.24948 0.32189 0.79391 0.0
C1284 C 0.24158 0.33383 0.74966 0.0
C1285 C 0.2907 0.32321 0.73775 0.0
C1286 C 0.23337 0.35809 0.74932 0.0
C1287 C 0.21667 0.36419 0.73088 0.0
C1288 C 0.20755 0.34578 0.71341 0.0
C1289 C 0.21604 0.32169 0.71361 0.0
C1290 C 0.23288 0.31572 0.73168 0.0
H1291 H 0.31004 0.32252 0.73866 0.0
H1292 H 0.28388 0.30866 0.7237 0.0
H1293 H 0.28584 0.34176 0.73082 0.0
H1294 H 0.23983 0.37217 0.76324 0.0
H1295 H 0.2105 0.38301 0.73061 0.0
H1296 H 0.08146 0.95 0.46141 0.0
H1297 H 0.05653 0.97592 0.48659 0.0
H1298 H 0.99764 0.95369 0.43686 0.0
H1299 H 0.02254 0.92568 0.41286 0.0
H1300 H 0.03384 0.01469 0.47453 0.0
H1301 H 0.97157 0.93962 0.50494 0.0
H1302 H 0.99374 0.93366 0.48226 0.0
H1303 H 0.96706 0.94685 0.47203 0.0
C1304 C 0.06301 0.94997 0.45644 0.0
C1305 C 0.05348 0.93486 0.43629 0.0
C1306 C 0.04887 0.96515 0.47048 0.0
C1307 C 0.0251 0.96632 0.46396 0.0
C1308 C 0.01579 0.95244 0.44268 0.0
H1309 H 0.93876 0.07749 0.52809 0.0
H1310 H 0.96307 0.05254 0.50084 0.0
C1311 C 0.02994 0.9366 0.42899 0.0
C1312 C 0.0106 0.98242 0.47966 0.0
H1313 H 0.96458 0.98123 0.51948 0.0
C1314 C 0.01858 0.0074 0.48422 0.0
C1315 C 0.99062 0.97293 0.49223 0.0
C1316 C 0.98036 0.94672 0.48775 0.0
C1317 C 0.00745 0.02293 0.50141 0.0
C1318 C 0.98782 0.01321 0.51418 0.0
C1319 C 0.97971 0.98844 0.50958 0.0
C1320 C 0.97443 0.0289 0.53116 0.0
C1321 C 0.017 0.04944 0.50615 0.0
C1322 C 0.97269 0.0235 0.55709 0.0
C1323 C 0.95865 0.03765 0.57268 0.0
C1324 C 0.94587 0.05669 0.56212 0.0
C1325 C 0.94813 0.0624 0.53636 0.0
C1326 C 0.96217 0.04845 0.52091 0.0
H1327 H 0.03531 0.05201 0.49989 0.0
H1328 H 0.00616 0.06237 0.49529 0.0
H1329 H 0.01634 0.05482 0.52667 0.0
H1330 H 0.98203 0.00829 0.56514 0.0
H1331 H 0.95725 0.03333 0.59265 0.0
H1332 H 0.28572 0.79418 0.69506 0.0
H1333 H 0.25087 0.76958 0.70627 0.0
H1334 H 0.27233 0.70786 0.65942 0.0
H1335 H 0.30801 0.73264 0.64844 0.0
H1336 H 0.21489 0.74466 0.66905 0.0
H1337 H 0.26188 0.68548 0.73681 0.0
H1338 H 0.27707 0.70661 0.71599 0.0
H1339 H 0.26507 0.67727 0.70374 0.0
C1340 C 0.28334 0.77516 0.68759 0.0
C1341 C 0.29989 0.7649 0.67166 0.0
C1342 C 0.2632 0.76133 0.6936 0.0
C1343 C 0.259 0.73706 0.68349 0.0
C1344 C 0.27532 0.72668 0.66726 0.0
H1345 H 0.16284 0.657 0.77713 0.0
H1346 H 0.18522 0.66198 0.73884 0.0
C1347 C 0.29565 0.74067 0.66119 0.0
C1348 C 0.23792 0.72276 0.69147 0.0
H1349 H 0.22095 0.68419 0.73848 0.0
C1350 C 0.21596 0.73088 0.6838 0.0
C1351 C 0.23936 0.70432 0.71005 0.0
C1352 C 0.26212 0.69299 0.71728 0.0
C1353 C 0.19548 0.72217 0.69549 0.0
C1354 C 0.19726 0.70624 0.71656 0.0
C1355 C 0.21917 0.69671 0.72271 0.0
C1356 C 0.17771 0.70102 0.73421 0.0
C1357 C 0.17238 0.73023 0.68496 0.0
C1358 C 0.16386 0.72035 0.74315 0.0
C1359 C 0.14973 0.71682 0.76426 0.0
C1360 C 0.15063 0.69468 0.77771 0.0
C1361 C 0.16262 0.67467 0.76755 0.0
C1362 C 0.17555 0.6776 0.74568 0.0
H1363 H 0.17275 0.73114 0.66386 0.0
H1364 H 0.15765 0.71728 0.6901 0.0
H1365 H 0.16923 0.74937 0.69231 0.0
H1366 H 0.16515 0.73878 0.73521 0.0
H1367 H 0.13958 0.73199 0.77115 0.0
H1368 H 0.45748 0.11159 0.00488 0.0
H1369 H 0.49302 0.10194 0.02928 0.0
H1370 H 0.51489 0.05713 0.96531 0.0
H1371 H 0.48129 0.06894 0.94067 0.0
H1372 H 0.50519 0.06402 0.04766 0.0
H1373 H 0.57614 0.08351 0.98358 0.0
H1374 H 0.54759 0.09492 0.97686 0.0
H1375 H 0.55575 0.06482 0.96423 0.0
C1376 C 0.47026 0.10007 0.99614 0.0
C1377 C 0.46633 0.09001 0.97144 0.0
C1378 C 0.49055 0.09458 0.00997 0.0
C1379 C 0.50708 0.07904 0.99914 0.0
C1380 C 0.50323 0.06995 0.97402 0.0
H1381 H 0.55701 0.95624 0.07035 0.0
H1382 H 0.53713 0.99159 0.05403 0.0
C1383 C 0.48349 0.07601 0.96014 0.0
C1384 C 0.52649 0.06917 0.01464 0.0
H1385 H 0.57842 0.04217 0.006 0.0
C1386 C 0.52157 0.06008 0.03887 0.0
C1387 C 0.54858 0.06487 0.00424 0.0
C1388 C 0.5573 0.07794 0.98094 0.0
C1389 C 0.53676 0.04434 0.0513 0.0
C1390 C 0.5564 0.03587 0.03826 0.0
C1391 C 0.5628 0.04746 0.01561 0.0
C1392 C 0.56889 0.01352 0.04637 0.0
C1393 C 0.53118 0.03679 0.07805 0.0
C1394 C 0.59337 0.01269 0.04523 0.0
C1395 C 0.60462 0.99107 0.05208 0.0
C1396 C 0.59159 0.97015 0.06049 0.0
C1397 C 0.56733 0.9713 0.06219 0.0
C1398 C 0.55602 0.99217 0.05402 0.0
H1399 H 0.52428 0.0528 0.08891 0.0
H1400 H 0.51723 0.02167 0.07735 0.0
H1401 H 0.54674 0.03034 0.08856 0.0
H1402 H 0.60382 0.0288 0.03933 0.0
H1403 H 0.62348 0.9909 0.05136 0.0
H1404 H 0.30944 0.31077 0.29679 0.0
H1405 H 0.29198 0.29275 0.25768 0.0
H1406 H 0.36074 0.28391 0.22779 0.0
H1407 H 0.37826 0.29909 0.2688 0.0
H1408 H 0.29423 0.31159 0.21302 0.0
H1409 H 0.33215 0.21779 0.20692 0.0
H1410 H 0.33518 0.2372 0.23541 0.0
H1411 H 0.35251 0.24433 0.20819 0.0
C1412 C 0.32082 0.30347 0.28256 0.0
C1413 C 0.34511 0.30473 0.28643 0.0
C1414 C 0.31086 0.29389 0.25982 0.0
C1415 C 0.325 0.28672 0.23973 0.0
C1416 C 0.34942 0.28858 0.24321 0.0
H1417 H 0.20964 0.24402 0.1327 0.0
H1418 H 0.24742 0.26709 0.14007 0.0
C1419 C 0.35942 0.29733 0.26655 0.0
C1420 C 0.31347 0.27815 0.21529 0.0
H1421 H 0.30287 0.22624 0.17739 0.0
C1422 C 0.29597 0.29284 0.20521 0.0
C1423 C 0.31672 0.25428 0.20428 0.0
C1424 C 0.33504 0.23737 0.21426 0.0
C1425 C 0.27912 0.28284 0.18754 0.0
C1426 C 0.28069 0.25771 0.17869 0.0
C1427 C 0.30093 0.24498 0.18513 0.0
C1428 C 0.25982 0.24224 0.16907 0.0
C1429 C 0.25912 0.2989 0.18034 0.0
C1430 C 0.25504 0.21916 0.18054 0.0
C1431 C 0.23432 0.20552 0.17517 0.0
C1432 C 0.21707 0.21518 0.15949 0.0
C1433 C 0.22223 0.23709 0.1462 0.0
C1434 C 0.24373 0.25034 0.15062 0.0
H1435 H 0.25922 0.31657 0.19191 0.0
H1436 H 0.26049 0.30399 0.16007 0.0
H1437 H 0.24208 0.28882 0.18285 0.0
H1438 H 0.26694 0.21185 0.19455 0.0
H1439 H 0.2316 0.18754 0.1839 0.0
H1440 H 0.45395 0.54115 0.1047 0.0
H1441 H 0.48489 0.51786 0.08411 0.0
H1442 H 0.46911 0.55284 0.01291 0.0
H1443 H 0.4384 0.57557 0.03311 0.0
H1444 H 0.4726 0.48582 0.03907 0.0
H1445 H 0.54244 0.55754 0.02046 0.0
H1446 H 0.52209 0.5606 0.04602 0.0
H1447 H 0.51331 0.56719 0.0139 0.0
C1448 C 0.45742 0.54387 0.08475 0.0
C1449 C 0.44372 0.55948 0.07017 0.0
C1450 C 0.47506 0.53086 0.07314 0.0
C1451 C 0.47947 0.53422 0.04724 0.0
C1452 C 0.46628 0.55056 0.03307 0.0
H1453 H 0.52485 0.43547 0.9274 0.0
H1454 H 0.50275 0.46424 0.95377 0.0
C1455 C 0.44856 0.56315 0.04448 0.0
C1456 C 0.49521 0.51815 0.03356 0.0
H1457 H 0.54168 0.52013 0.99447 0.0
C1458 C 0.48761 0.49323 0.02916 0.0
C1459 C 0.51499 0.52804 0.02119 0.0
C1460 C 0.52386 0.55479 0.02574 0.0
C1461 C 0.4981 0.47825 0.01104 0.0
C1462 C 0.51796 0.48803 0.99846 0.0
C1463 C 0.5264 0.51268 1.00403 0.0
C1464 C 0.53129 0.47256 0.98097 0.0
C1465 C 0.48678 0.45275 0.00501 0.0
C1466 C 0.55489 0.46908 0.98672 0.0
C1467 C 0.56751 0.45342 0.97137 0.0
C1468 C 0.55652 0.44027 0.95067 0.0
C1469 C 0.5333 0.44476 0.94396 0.0
C1470 C 0.52077 0.46109 0.95894 0.0
H1471 H 0.47988 0.4441 0.02248 0.0
H1472 H 0.47177 0.45487 0.9916 0.0
H1473 H 0.49868 0.43992 0.99591 0.0
H1474 H 0.56347 0.47817 1.00332 0.0
H1475 H 0.58587 0.45142 0.97584 0.0
H1476 H 0.78303 0.30365 0.1456 0.0
H1477 H 0.74408 0.29045 0.15889 0.0
H1478 H 0.7712 0.22204 0.18681 0.0
H1479 H 0.80939 0.23377 0.16947 0.0
H1480 H 0.72893 0.21351 0.17665 0.0
H1481 H 0.73234 0.3053 0.22937 0.0
H1482 H 0.7278 0.30774 0.19571 0.0
H1483 H 0.75501 0.29715 0.20818 0.0
C1484 C 0.78055 0.2856 0.15421 0.0
C1485 C 0.79952 0.27047 0.15865 0.0
C1486 C 0.7583 0.27817 0.16201 0.0
C1487 C 0.75505 0.25625 0.17581 0.0
C1488 C 0.7734 0.23966 0.17723 0.0
H1489 H 0.70151 0.2018 0.30454 0.0
H1490 H 0.71942 0.2151 0.26519 0.0
C1491 C 0.79539 0.24651 0.16796 0.0
C1492 C 0.73372 0.25162 0.19085 0.0
H1493 H 0.70297 0.27615 0.23976 0.0
C1494 C 0.72311 0.22739 0.19017 0.0
C1495 C 0.72563 0.26986 0.20832 0.0
C1496 C 0.73588 0.29637 0.21063 0.0
C1497 C 0.70624 0.22033 0.20779 0.0
C1498 C 0.6996 0.23803 0.22623 0.0
C1499 C 0.70836 0.26277 0.22549 0.0
C1500 C 0.68791 0.23008 0.24944 0.0
C1501 C 0.69669 0.1936 0.20776 0.0
C1502 C 0.66441 0.23473 0.25365 0.0
C1503 C 0.65413 0.22721 0.27632 0.0
C1504 C 0.66755 0.21576 0.29503 0.0
C1505 C 0.69104 0.21128 0.29065 0.0
C1506 C 0.70117 0.21853 0.26811 0.0
H1507 H 0.69912 0.18386 0.18915 0.0
H1508 H 0.70602 0.18339 0.22276 0.0
H1509 H 0.67781 0.1928 0.21213 0.0
H1510 H 0.65409 0.24387 0.23939 0.0
H1511 H 0.63586 0.23038 0.27929 0.0
H1512 H 0.08546 0.47365 0.59994 0.0
H1513 H 0.06277 0.5107 0.59628 0.0
H1514 H 0.08272 0.51714 0.51791 0.0
H1515 H 0.10848 0.48206 0.52317 0.0
H1516 H 0.07382 0.56029 0.53455 0.0
H1517 H 1.00079 0.49734 0.56579 0.0
H1518 H 0.02182 0.50453 0.59098 0.0
H1519 H 0.02991 0.48682 0.56321 0.0
C1520 C 0.08519 0.48311 0.582 0.0
C1521 C 0.09691 0.47376 0.5609 0.0
C1522 C 0.07212 0.50425 0.5799 0.0
C1523 C 0.06951 0.5155 0.55627 0.0
C1524 C 0.08361 0.50808 0.53611 0.0
H1525 H 0.97237 0.56652 0.46078 0.0
H1526 H 0.00599 0.55485 0.48622 0.0
C1527 C 0.09781 0.48767 0.53875 0.0
C1528 C 0.05064 0.53307 0.55182 0.0
H1529 H 0.99154 0.53777 0.55452 0.0
C1530 C 0.05585 0.55534 0.53907 0.0
C1531 C 0.02707 0.52683 0.55791 0.0
C1532 C 0.01952 0.5025 0.56998 0.0
C1533 C 0.03805 0.57053 0.53072 0.0
C1534 C 0.01463 0.56355 0.5358 0.0
C1535 C 0.00958 0.54279 0.55062 0.0
C1536 C 0.99517 0.57325 0.52081 0.0
C1537 C 0.0442 0.59316 0.51525 0.0
C1538 C 0.97768 0.58696 0.53214 0.0
C1539 C 0.95828 0.59373 0.5175 0.0
C1540 C 0.956 0.58595 0.49182 0.0
C1541 C 0.97357 0.57228 0.48072 0.0
C1542 C 0.99293 0.56595 0.49508 0.0
H1543 H 0.06251 0.60019 0.51921 0.0
H1544 H 0.0424 0.58794 0.49468 0.0
H1545 H 0.03223 0.60843 0.51922 0.0
H1546 H 0.97902 0.59226 0.55217 0.0
H1547 H 0.94496 0.60454 0.52621 0.0
H1548 H 0.79481 0.68735 0.28951 0.0
H1549 H 0.77364 0.72315 0.27489 0.0
H1550 H 0.81751 0.7726 0.32365 0.0
H1551 H 0.83962 0.73665 0.33736 0.0
H1552 H 0.75118 0.75447 0.31299 0.0
H1553 H 0.81071 0.78935 0.24502 0.0
H1554 H 0.8231 0.78422 0.27638 0.0
H1555 H 0.81499 0.8149 0.26731 0.0
C1556 C 0.80048 0.70597 0.29632 0.0
C1557 C 0.81936 0.70953 0.31363 0.0
C1558 C 0.78831 0.72636 0.28818 0.0
C1559 C 0.79437 0.75055 0.29781 0.0
C1560 C 0.81301 0.75416 0.31552 0.0
H1561 H 0.70678 0.86232 0.22658 0.0
H1562 H 0.73426 0.8482 0.2595 0.0
C1563 C 0.82547 0.7337 0.32339 0.0
C1564 C 0.77904 0.77098 0.29132 0.0
H1565 H 0.77242 0.81728 0.24864 0.0
C1566 C 0.75597 0.76869 0.29942 0.0
C1567 C 0.78545 0.79003 0.27427 0.0
C1568 C 0.81005 0.7946 0.26555 0.0
C1569 C 0.73861 0.78296 0.28876 0.0
C1570 C 0.74439 0.79968 0.26928 0.0
C1571 C 0.76791 0.80414 0.26334 0.0
C1572 C 0.72624 0.8088 0.25178 0.0
C1573 C 0.71395 0.77863 0.29717 0.0
C1574 C 0.71294 0.79132 0.23648 0.0
C1575 C 0.69771 0.79929 0.21761 0.0
C1576 C 0.69502 0.82487 0.21409 0.0
C1577 C 0.70823 0.84246 0.22942 0.0
C1578 C 0.72381 0.83446 0.24817 0.0
H1579 H 0.71344 0.77292 0.31736 0.0
H1580 H 0.70397 0.79572 0.29499 0.0
H1581 H 0.70557 0.76319 0.28525 0.0
H1582 H 0.71509 0.77143 0.23841 0.0
H1583 H 0.68863 0.78543 0.20516 0.0
H1584 H 0.81808 0.22655 0.68152 0.0
H1585 H 0.78813 0.25175 0.69939 0.0
H1586 H 0.7539 0.18532 0.72888 0.0
H1587 H 0.78541 0.16006 0.71244 0.0
H1588 H 0.74027 0.25372 0.69661 0.0
H1589 H 0.77343 0.22627 0.79204 0.0
H1590 H 0.78319 0.21192 0.76314 0.0
H1591 H 0.75526 0.20288 0.77499 0.0
C1592 C 0.80454 0.2174 0.69244 0.0
C1593 C 0.80483 0.19179 0.69736 0.0
C1594 C 0.78702 0.23168 0.70191 0.0
C1595 C 0.76903 0.22043 0.71576 0.0
C1596 C 0.76792 0.19433 0.71852 0.0
H1597 H 0.671 0.30497 0.79796 0.0
H1598 H 0.68888 0.27967 0.76513 0.0
C1599 C 0.78593 0.18003 0.70947 0.0
C1600 C 0.75415 0.23691 0.73034 0.0
H1601 H 0.75002 0.26082 0.79031 0.0
C1602 C 0.74161 0.25481 0.71725 0.0
C1603 C 0.75628 0.23847 0.75718 0.0
C1604 C 0.76787 0.21899 0.77273 0.0
C1605 C 0.7315 0.2745 0.73047 0.0
C1606 C 0.73482 0.27657 0.75713 0.0
C1607 C 0.74736 0.25883 0.76998 0.0
C1608 C 0.72383 0.29552 0.77284 0.0
C1609 C 0.71813 0.29341 0.71597 0.0
C1610 C 0.7377 0.31267 0.78802 0.0
C1611 C 0.72753 0.32699 0.80696 0.0
C1612 C 0.7036 0.32362 0.8112 0.0
C1613 C 0.68964 0.30733 0.79525 0.0
C1614 C 0.69971 0.29328 0.77623 0.0
H1615 H 0.72111 0.29208 0.69517 0.0
H1616 H 0.69917 0.29011 0.71908 0.0
H1617 H 0.72318 0.31269 0.72304 0.0
H1618 H 0.75646 0.31419 0.78586 0.0
H1619 H 0.73842 0.33973 0.81899 0.0
H1620 H 0.8049 0.81511 0.80372 0.0
H1621 H 0.78725 0.79677 0.76485 0.0
H1622 H 0.85582 0.78835 0.7343 0.0
H1623 H 0.87359 0.80396 0.77506 0.0
H1624 H 0.78892 0.81478 0.71941 0.0
H1625 H 0.82778 0.72127 0.71566 0.0
H1626 H 0.83085 0.74137 0.74365 0.0
H1627 H 0.84764 0.74822 0.71597 0.0
C1628 C 0.81622 0.80792 0.78938 0.0
C1629 C 0.84053 0.8094 0.79301 0.0
C1630 C 0.80614 0.79816 0.76677 0.0
C1631 C 0.82017 0.79093 0.7466 0.0
C1632 C 0.84461 0.79308 0.7498 0.0
H1633 H 0.70388 0.74207 0.64282 0.0
H1634 H 0.74128 0.76615 0.64914 0.0
C1635 C 0.85473 0.80207 0.77299 0.0
C1636 C 0.80847 0.7816 0.72253 0.0
H1637 H 0.79689 0.72791 0.68759 0.0
C1638 C 0.79062 0.79575 0.71231 0.0
C1639 C 0.81158 0.75731 0.71245 0.0
C1640 C 0.83039 0.74104 0.72249 0.0
C1641 C 0.77333 0.78489 0.69566 0.0
C1642 C 0.77478 0.75942 0.68803 0.0
C1643 C 0.79521 0.74703 0.69438 0.0
C1644 C 0.75371 0.74354 0.68001 0.0
C1645 C 0.75293 0.80034 0.68839 0.0
C1646 C 0.74893 0.7216 0.69349 0.0
C1647 C 0.72835 0.70744 0.68899 0.0
C1648 C 0.71127 0.71549 0.67201 0.0
C1649 C 0.71634 0.73642 0.65716 0.0
C1650 C 0.73764 0.7502 0.66089 0.0
H1651 H 0.75322 0.81855 0.69905 0.0
H1652 H 0.75353 0.80434 0.66779 0.0
H1653 H 0.73614 0.79019 0.69205 0.0
H1654 H 0.76085 0.71557 0.7082 0.0
H1655 H 0.72567 0.69025 0.6992 0.0
H1656 H 0.4512 0.48191 0.37993 0.0
H1657 H 0.48307 0.51393 0.38816 0.0
H1658 H 0.49155 0.48761 0.46471 0.0
H1659 H 0.45979 0.45602 0.45663 0.0
H1660 H 0.48443 0.55158 0.43558 0.0
H1661 H 0.55858 0.48956 0.42777 0.0
H1662 H 0.53109 0.48358 0.41044 0.0
H1663 H 0.53385 0.47558 0.4434 0.0
C1664 C 0.45993 0.48322 0.39849 0.0
C1665 C 0.45286 0.46726 0.41799 0.0
C1666 C 0.47803 0.50131 0.40309 0.0
C1667 C 0.48959 0.50285 0.42692 0.0
C1668 C 0.48283 0.48647 0.44614 0.0
H1669 H 0.54991 0.55721 0.54981 0.0
H1670 H 0.52903 0.54229 0.51071 0.0
C1671 C 0.46463 0.4687 0.44166 0.0
C1672 C 0.50829 0.52193 0.43284 0.0
H1673 H 0.56364 0.52482 0.45731 0.0
C1674 C 0.50189 0.546 0.43996 0.0
C1675 C 0.53137 0.51488 0.43744 0.0
C1676 C 0.53927 0.48954 0.42914 0.0
C1677 C 0.5169 0.5617 0.4553 0.0
C1678 C 0.53893 0.55323 0.46266 0.0
C1679 C 0.54657 0.53089 0.45211 0.0
C1680 C 0.55131 0.5636 0.48563 0.0
C1681 C 0.50832 0.58599 0.46573 0.0
C1682 C 0.57067 0.58042 0.4842 0.0
C1683 C 0.58255 0.58899 0.50656 0.0
C1684 C 0.57552 0.58012 0.53026 0.0
C1685 C 0.55591 0.56367 0.5316 0.0
C1686 C 0.54393 0.55538 0.5094 0.0
H1687 H 0.49338 0.59247 0.45416 0.0
H1688 H 0.50244 0.58323 0.4855 0.0
H1689 H 0.52263 0.60074 0.4664 0.0
H1690 H 0.57654 0.58681 0.46592 0.0
H1691 H 0.59746 0.60206 0.50537 0.0
H1692 H 0.06513 0.55753 0.98041 0.0
H1693 H 0.04111 0.5213 0.99348 0.0
H1694 H 0.02809 0.49926 0.9147 0.0
H1695 H 0.05324 0.535 0.90158 0.0
H1696 H 0.98678 0.5071 0.94908 0.0
H1697 H 0.05088 0.44201 0.98668 0.0
H1698 H 0.05804 0.47467 0.99297 0.0
H1699 H 0.05661 0.46264 0.96055 0.0
C1700 C 0.05793 0.54439 0.96596 0.0
C1701 C 0.06171 0.54841 0.9401 0.0
C1702 C 0.04408 0.52384 0.97339 0.0
C1703 C 0.0332 0.5074 0.95503 0.0
C1704 C 0.03669 0.51152 0.92911 0.0
H1705 H 0.9263 0.40679 0.02568 0.0
H1706 H 0.94718 0.42448 0.98921 0.0
C1707 C 0.05093 0.53189 0.92169 0.0
C1708 C 0.01629 0.48779 0.9634 0.0
H1709 H 0.01308 0.43979 0.00472 0.0
C1710 C 0.99241 0.49182 0.96059 0.0
C1711 C 0.02356 0.46757 0.97785 0.0
C1712 C 0.04873 0.46117 0.97957 0.0
C1713 C 0.97585 0.47787 0.97431 0.0
C1714 C 0.98363 0.4599 0.99153 0.0
C1715 C 0.0072 0.45401 0.99198 0.0
C1716 C 0.9692 0.4504 0.01243 0.0
C1717 C 0.9507 0.48436 0.97159 0.0
C1718 C 0.97507 0.45876 0.0374 0.0
C1719 C 0.96363 0.44843 0.058 0.0
C1720 C 0.94564 0.43006 0.05398 0.0
C1721 C 0.93978 0.42145 0.02905 0.0
C1722 C 0.95153 0.43159 0.00831 0.0
H1723 H 0.94875 0.50312 0.9805 0.0
H1724 H 0.94577 0.48576 0.9511 0.0
H1725 H 0.93851 0.47055 0.98023 0.0
H1726 H 0.98898 0.47293 0.04099 0.0
H1727 H 0.96911 0.45452 0.07713 0.0
H1728 H 0.1412 0.00683 0.14646 0.0
H1729 H 0.14612 0.97998 0.18247 0.0
H1730 H 0.09797 0.02308 0.22519 0.0
H1731 H 0.09146 0.04902 0.18782 0.0
H1732 H 0.16237 0.98354 0.22651 0.0
H1733 H 0.06839 0.9571 0.23655 0.0
H1734 H 0.07876 0.97568 0.21065 0.0
H1735 H 0.07498 0.98993 0.24166 0.0
C1736 C 0.13161 0.01075 0.1635 0.0
C1737 C 0.11591 0.03023 0.16418 0.0
C1738 C 0.13454 0.99532 0.18428 0.0
C1739 C 0.12211 0.99893 0.20669 0.0
C1740 C 0.10726 0.01919 0.20797 0.0
H1741 H 0.16488 0.91828 0.34132 0.0
H1742 H 0.1579 0.94895 0.30914 0.0
C1743 C 0.10391 0.03444 0.18677 0.0
C1744 C 0.12478 0.98095 0.22801 0.0
H1745 H 0.09462 0.94082 0.26661 0.0
C1746 C 0.14745 0.97432 0.23524 0.0
C1747 C 0.10545 0.96825 0.23924 0.0
C1748 C 0.08054 0.97289 0.23147 0.0
C1749 C 0.15131 0.95532 0.25271 0.0
C1750 C 0.13207 0.94355 0.2648 0.0
C1751 C 0.10941 0.95005 0.25765 0.0
C1752 C 0.13526 0.92465 0.285 0.0
C1753 C 0.17587 0.94682 0.25668 0.0
C1754 C 0.12408 0.90068 0.28299 0.0
C1755 C 0.12807 0.88281 0.30161 0.0
C1756 C 0.14288 0.88877 0.3229 0.0
C1757 C 0.15325 0.91302 0.3253 0.0
C1758 C 0.14958 0.93059 0.30657 0.0
H1759 H 0.17587 0.92615 0.25817 0.0
H1760 H 0.18732 0.95252 0.24087 0.0
H1761 H 0.18367 0.95523 0.27457 0.0
H1762 H 0.11286 0.89554 0.26662 0.0
H1763 H 0.11998 0.86418 0.29907 0.0
H1764 H 0.3759 0.85968 0.57597 0.0
H1765 H 0.34902 0.84536 0.54116 0.0
H1766 H 0.31829 0.9175 0.54213 0.0
H1767 H 0.34499 0.93177 0.57649 0.0
H1768 H 0.30615 0.83768 0.53263 0.0
H1769 H 0.33097 0.9145 0.46958 0.0
H1770 H 0.34621 0.91018 0.49946 0.0
H1771 H 0.31977 0.92729 0.49832 0.0
C1772 C 0.36299 0.87227 0.56918 0.0
C1773 C 0.36278 0.89699 0.57895 0.0
C1774 C 0.34776 0.86414 0.549 0.0
C1775 C 0.33201 0.88053 0.53813 0.0
C1776 C 0.33065 0.90456 0.54929 0.0
H1777 H 0.21689 0.8739 0.42701 0.0
H1778 H 0.24841 0.88647 0.45783 0.0
C1779 C 0.34581 0.91268 0.56935 0.0
C1780 C 0.31668 0.87241 0.5156 0.0
H1781 H 0.29442 0.89207 0.45875 0.0
C1782 C 0.30374 0.84952 0.51643 0.0
C1783 C 0.3138 0.88749 0.49396 0.0
C1784 C 0.32866 0.91106 0.49016 0.0
C1785 C 0.28711 0.84202 0.49725 0.0
C1786 C 0.28333 0.85777 0.47633 0.0
C1787 C 0.29688 0.88022 0.47497 0.0
C1788 C 0.2654 0.85119 0.45579 0.0
C1789 C 0.27311 0.81769 0.50015 0.0
C1790 C 0.26528 0.82796 0.44284 0.0
C1791 C 0.24705 0.82051 0.42583 0.0
C1792 C 0.22891 0.83656 0.42028 0.0
C1793 C 0.23012 0.86075 0.43144 0.0
C1794 C 0.24815 0.86794 0.44911 0.0
H1795 H 0.27569 0.8097 0.51917 0.0
H1796 H 0.2542 0.82032 0.4966 0.0
H1797 H 0.27895 0.80346 0.48636 0.0
H1798 H 0.27927 0.8154 0.4459 0.0
H1799 H 0.24737 0.80209 0.41688 0.0
H1800 H 0.3491 0.08877 0.8562 0.0
H1801 H 0.35621 0.04632 0.8404 0.0
H1802 H 0.33167 0.06558 0.76554 0.0
H1803 H 0.32436 0.10721 0.78089 0.0
H1804 H 0.33357 1.00099 0.81303 0.0
H1805 H 0.40166 0.06726 0.75529 0.0
H1806 H 0.38375 0.0764 0.78134 0.0
H1807 H 0.37131 0.07224 0.74956 0.0
C1808 C 0.34492 0.08372 0.83645 0.0
C1809 C 0.33703 0.1017 0.81957 0.0
C1810 C 0.34908 0.05943 0.82741 0.0
C1811 C 0.34566 0.05294 0.80145 0.0
C1812 C 0.33516 0.07004 0.78548 0.0
H1813 H 0.38533 0.97698 0.66499 0.0
H1814 H 0.37719 0.99737 0.70474 0.0
C1815 C 0.33115 0.09415 0.79431 0.0
C1816 C 0.35678 0.03096 0.78989 0.0
H1817 H 0.40499 0.02564 0.7369 0.0
C1818 C 0.34718 1.00216 0.79914 0.0
C1819 C 0.37779 0.03786 0.76817 0.0
C1820 C 0.38404 0.06497 0.76346 0.0
C1821 C 0.35784 0.97503 0.78666 0.0
C1822 C 0.38958 0.98642 0.75263 0.0
C1823 C 0.3931 0.01799 0.75073 0.0
C1824 C 0.39883 0.97439 0.72821 0.0
C1825 C 0.34469 0.95152 0.79673 0.0
C1826 C 0.41535 0.95564 0.72716 0.0
C1827 C 0.41943 0.94293 0.70392 0.0
C1828 C 0.40818 0.9499 0.68119 0.0
C1829 C 0.39383 0.97046 0.68208 0.0
C1830 C 0.38929 0.98241 0.70505 0.0
H1831 H 0.33362 0.9568 0.81283 0.0
H1832 H 0.33264 0.94262 0.78195 0.0
H1833 H 0.35639 0.93735 0.80417 0.0
H1834 H 0.42492 0.95061 0.74409 0.0
H1835 H 0.43166 0.92811 0.70365 0.0
H1836 H 0.30753 0.1528 0.94556 0.0
H1837 H 0.27884 0.1414 0.97776 0.0
H1838 H 0.22705 0.12398 0.91824 0.0
H1839 H 0.25574 0.13487 0.88609 0.0
H1840 H 0.2338 0.164 0.98331 0.0
H1841 H 0.2241 0.06162 0.96247 0.0
H1842 H 0.24723 0.08092 0.94916 0.0
H1843 H 0.21789 0.08194 0.93672 0.0
C1844 C 0.2902 0.14594 0.93942 0.0
C1845 C 0.284 0.14432 0.91339 0.0
C1846 C 0.27379 0.13968 0.95776 0.0
C1847 C 0.25093 0.13156 0.95035 0.0
C1848 C 0.2447 0.12981 0.92435 0.0
H1849 H 0.13646 0.12139 0.06008 0.0
H1850 H 0.1615 0.1361 0.02617 0.0
C1851 C 0.2611 0.13611 0.90602 0.0
C1852 C 0.23346 0.12574 0.96993 0.0
H1853 H 0.20121 0.07782 0.99518 0.0
C1854 C 0.22676 0.14513 0.98617 0.0
C1855 C 0.22353 0.10136 0.97269 0.0
C1856 C 0.22859 0.08019 0.95443 0.0
C1857 C 0.21085 0.14076 0.00569 0.0
C1858 C 0.20233 0.11587 0.00993 0.0
C1859 C 0.20843 0.09669 0.99285 0.0
C1860 C 0.18766 0.10867 0.03198 0.0
C1861 C 0.20322 0.16323 0.02068 0.0
C1862 C 0.19336 0.08783 0.04637 0.0
C1863 C 0.17863 0.0789 0.06525 0.0
C1864 C 0.15805 0.09091 0.07064 0.0
C1865 C 0.15274 0.11236 0.05709 0.0
C1866 C 0.16709 0.12079 0.03757 0.0
H1867 H 0.21731 0.17821 0.02211 0.0
H1868 H 0.18811 0.17102 0.01049 0.0
H1869 H 0.19778 0.15868 0.04008 0.0
H1870 H 0.2089 0.07783 0.04241 0.0
H1871 H 0.18285 0.06198 0.07495 0.0
H1872 H 0.12137 0.10395 0.19406 0.0
H1873 H 0.11199 0.07042 0.22377 0.0
H1874 H 0.17818 0.08566 0.26321 0.0
H1875 H 0.18744 0.11839 0.23382 0.0
H1876 H 0.17407 0.04091 0.26122 0.0
H1877 H 0.08687 0.06851 0.29078 0.0
H1878 H 0.08703 0.06142 0.25731 0.0
H1879 H 0.10463 0.08771 0.27049 0.0
C1880 C 0.13405 0.09969 0.20878 0.0
C1881 C 0.15522 0.11393 0.21147 0.0
C1882 C 0.12861 0.08055 0.22597 0.0
C1883 C 0.14429 0.07499 0.246 0.0
C1884 C 0.16561 0.08904 0.24807 0.0
H1885 H 0.15083 0.97544 0.37784 0.0
H1886 H 0.15744 0.00945 0.34762 0.0
C1887 C 0.17093 0.10809 0.23116 0.0
C1888 C 0.1394 0.05441 0.26457 0.0
H1889 H 0.09884 0.02902 0.30463 0.0
C1890 C 0.15761 0.03867 0.27082 0.0
C1891 C 0.11801 0.05104 0.27746 0.0
C1892 C 0.09814 0.06824 0.27387 0.0
C1893 C 0.15539 0.0204 0.28954 0.0
C1894 C 0.13383 0.01651 0.30183 0.0
C1895 C 0.11534 0.03171 0.29518 0.0
C1896 C 0.12976 0.99644 0.321 0.0
C1897 C 0.17661 0.006 0.29603 0.0
C1898 C 0.11153 0.97822 0.31684 0.0
C1899 C 0.10814 0.95854 0.33371 0.0
C1900 C 0.1224 0.95696 0.35575 0.0
C1901 C 0.13988 0.97589 0.36077 0.0
C1902 C 0.14366 0.9953 0.34345 0.0
H1903 H 0.18781 1.00377 0.27923 0.0
H1904 H 0.18716 0.01659 0.31106 0.0
H1905 H 0.17198 0.98733 0.30328 0.0
H1906 H 0.10004 0.97902 0.30025 0.0
H1907 H 0.09416 0.9446 0.3296 0.0
H1908 H 0.29449 0.80998 0.58771 0.0
H1909 H 0.26317 0.81902 0.5576 0.0
H1910 H 0.26616 0.89597 0.58421 0.0
H1911 H 0.29721 0.88649 0.61523 0.0
H1912 H 0.22264 0.83221 0.55691 0.0
H1913 H 0.27043 0.91209 0.51331 0.0
H1914 H 0.28262 0.89588 0.53968 0.0
H1915 H 0.26136 0.91881 0.54509 0.0
C1916 C 0.28887 0.829 0.58665 0.0
C1917 C 0.29895 0.84776 0.60305 0.0
C1918 C 0.27091 0.83423 0.5693 0.0
C1919 C 0.26302 0.85862 0.567 0.0
C1920 C 0.27258 0.87728 0.58426 0.0
H1921 H 0.1661 0.91741 0.45273 0.0
H1922 H 0.19554 0.91221 0.48606 0.0
C1923 C 0.29035 0.87189 0.60208 0.0
C1924 C 0.24479 0.86379 0.54671 0.0
H1925 H 0.23309 0.90091 0.49626 0.0
C1926 C 0.22511 0.84715 0.54352 0.0
C1927 C 0.24703 0.88387 0.52959 0.0
C1928 C 0.26656 0.90362 0.53194 0.0
C1929 C 0.20819 0.84962 0.52383 0.0
C1930 C 0.21146 0.86853 0.50549 0.0
C1931 C 0.23063 0.88574 0.50936 0.0
C1932 C 0.19489 0.87163 0.48297 0.0
C1933 C 0.18649 0.83252 0.52402 0.0
C1934 C 0.18516 0.85094 0.46849 0.0
C1935 C 0.16742 0.85398 0.44997 0.0
C1936 C 0.16005 0.87791 0.44417 0.0
C1937 C 0.17174 0.89873 0.45633 0.0
C1938 C 0.18854 0.89566 0.47575 0.0
H1939 H 0.18272 0.82636 0.54362 0.0
H1940 H 0.17093 0.84181 0.5165 0.0
H1941 H 0.18925 0.81544 0.5123 0.0
H1942 H 0.19059 0.83224 0.47206 0.0
H1943 H 0.15853 0.83751 0.44124 0.0
H1944 H 0.42251 0.07219 0.83743 0.0
H1945 H 0.41585 0.04684 0.79803 0.0
H1946 H 0.37822 0.99055 0.84018 0.0
H1947 H 0.38638 0.01452 0.87932 0.0
H1948 H 0.41186 0.96974 0.80848 0.0
H1949 H 0.32769 0.00828 0.72672 0.0
H1950 H 0.34487 0.0352 0.73629 0.0
H1951 H 0.323 0.02177 0.7571 0.0
C1952 C 0.41237 0.05465 0.83811 0.0
C1953 C 0.40423 0.04595 0.86157 0.0
C1954 C 0.40828 0.04021 0.81539 0.0
C1955 C 0.39471 0.01748 0.81538 0.0
C1956 C 0.3878 0.00841 0.8391 0.0
H1957 H 0.35867 0.85984 0.74747 0.0
H1958 H 0.35988 0.89939 0.77066 0.0
C1959 C 0.39244 0.02229 0.86168 0.0
C1960 C 0.38765 1.00131 0.79144 0.0
H1961 H 0.33801 0.96669 0.72733 0.0
C1962 C 0.39862 0.97249 0.79388 0.0
C1963 C 0.35475 1.0002 0.75518 0.0
C1964 C 0.33685 0.01762 0.74347 0.0
C1965 C 0.38899 0.9478 0.77537 0.0
C1966 C 0.36729 0.94653 0.75204 0.0
C1967 C 0.35114 0.97047 0.74226 0.0
C1968 C 0.36274 0.92226 0.73742 0.0
C1969 C 0.40217 0.92467 0.78045 0.0
C1970 C 0.36116 0.9214 0.71056 0.0
C1971 C 0.3599 0.89844 0.6968 0.0
C1972 C 0.35968 0.8757 0.70966 0.0
C1973 C 0.35975 0.87675 0.73658 0.0
C1974 C 0.36063 0.89959 0.75011 0.0
H1975 H 0.39261 0.91305 0.79434 0.0
H1976 H 0.40449 0.91349 0.76274 0.0
H1977 H 0.41973 0.92966 0.789 0.0
H1978 H 0.36109 0.93844 0.70005 0.0
H1979 H 0.35898 0.89854 0.67618 0.0
H1980 H 0.35675 0.05427 0.97645 0.0
H1981 H 0.32543 0.06267 0.00483 0.0
H1982 H 0.3272 0.13957 0.98241 0.0
H1983 H 0.35978 0.13151 0.95415 0.0
H1984 H 0.32125 0.1387 0.03048 0.0
H1985 H 0.2587 0.06383 0.99308 0.0
H1986 H 0.28633 0.05243 1.00179 0.0
H1987 H 0.28424 0.07366 0.97573 0.0
C1988 C 0.35032 0.07298 0.97688 0.0
C1989 C 0.36087 0.09209 0.96235 0.0
C1990 C 0.33194 0.07768 0.99314 0.0
C1991 C 0.32272 0.1015 0.99506 0.0
C1992 C 0.33325 0.12077 0.98075 0.0
H1993 H 0.21162 0.16582 0.08467 0.0
H1994 H 0.24307 0.15788 0.05522 0.0
C1995 C 0.35195 0.11614 0.96449 0.0
C1996 C 0.30307 0.10636 0.01296 0.0
H1997 H 0.24951 0.0834 0.0319 0.0
C1998 C 0.30549 0.12669 0.03051 0.0
C1999 C 0.28235 0.09069 0.01355 0.0
C2000 C 0.27762 0.06912 0.99484 0.0
C2001 C 0.28834 0.13139 0.04869 0.0
C2002 C 0.26772 0.11566 0.04928 0.0
C2003 C 0.26522 0.09544 0.03172 0.0
C2004 C 0.24833 0.12025 0.06743 0.0
C2005 C 0.2929 0.15281 0.06763 0.0
C2006 C 0.24036 0.10172 0.08424 0.0
C2007 C 0.22223 0.10631 0.10122 0.0
C2008 C 0.21112 0.12919 0.10109 0.0
C2009 C 0.21915 0.14761 0.08441 0.0
C2010 C 0.23743 0.14322 0.06783 0.0
H2011 H 0.31188 0.15776 0.07005 0.0
H2012 H 0.2843 0.16956 0.06059 0.0
H2013 H 0.28583 0.14827 0.08655 0.0
H2014 H 0.24844 0.08383 0.08454 0.0
H2015 H 0.21699 0.09207 0.1145 0.0
H2016 H 0.90047 0.26644 0.11693 0.0
H2017 H 0.93211 0.23751 0.11126 0.0
H2018 H 0.95468 0.25112 0.18948 0.0
H2019 H 0.92285 0.27932 0.19545 0.0
H2020 H 0.98018 0.23955 0.11696 0.0
H2021 H 0.94128 0.17612 0.18792 0.0
H2022 H 0.92609 0.20213 0.17542 0.0
H2023 H 0.94794 0.20718 0.20047 0.0
C2024 C 0.91244 0.26361 0.13277 0.0
C2025 C 0.90891 0.27493 0.15674 0.0
C2026 C 0.93045 0.24694 0.12956 0.0
C2027 C 0.94533 0.24143 0.1502 0.0
C2028 C 0.94295 0.25431 0.17352 0.0
H2029 H 0.07316 0.15884 0.14319 0.0
H2030 H 0.04424 0.19057 0.14738 0.0
C2031 C 0.92485 0.27065 0.17682 0.0
C2032 C 0.96265 0.22154 0.1478 0.0
H2033 H 0.97891 0.16665 0.17362 0.0
C2034 C 0.97983 0.22355 0.12926 0.0
C2035 C 0.96206 0.20039 0.16358 0.0
C2036 C 0.94322 0.19612 0.18279 0.0
C2037 C 0.99659 0.20529 0.12637 0.0
C2038 C 0.99658 0.18469 0.1429 0.0
C2039 C 0.97916 0.18251 0.16113 0.0
C2040 C 0.01424 0.16501 0.1414 0.0
C2041 C 0.01376 0.20795 0.10521 0.0
C2042 C 0.00713 0.13966 0.13762 0.0
C2043 C 0.0237 0.12128 0.13525 0.0
C2044 C 0.04777 0.12783 0.1369 0.0
C2045 C 0.0548 0.15306 0.14186 0.0
C2046 C 0.03824 0.17137 0.14402 0.0
H2047 H 0.00741 0.22037 0.09013 0.0
H2048 H 0.03049 0.21638 0.11309 0.0
H2049 H 0.0172 0.18947 0.09639 0.0
H2050 H 0.98873 0.13414 0.13574 0.0
H2051 H 0.01764 0.10208 0.1313 0.0
H2052 H 0.54382 0.32151 0.94265 0.0
H2053 H 0.51121 0.29464 0.9263 0.0
H2054 H 0.51309 0.33254 0.8548 0.0
H2055 H 0.54668 0.35887 0.87078 0.0
H2056 H 0.46941 0.30501 0.91272 0.0
H2057 H 0.50771 0.26479 0.82525 0.0
H2058 H 0.52489 0.28455 0.84722 0.0
H2059 H 0.5043 0.29794 0.82605 0.0
C2060 C 0.53778 0.32374 0.92318 0.0
C2061 C 0.54849 0.34187 0.90782 0.0
C2062 C 0.51892 0.30843 0.91387 0.0
C2063 C 0.50989 0.31087 0.88899 0.0
C2064 C 0.52014 0.32942 0.8737 0.0
H2065 H 0.40321 0.2114 0.81247 0.0
H2066 H 0.43296 0.24366 0.8226 0.0
C2067 C 0.53936 0.34461 0.88293 0.0
C2068 C 0.48921 0.29448 0.88017 0.0
H2069 H 0.47118 0.24908 0.83644 0.0
C2070 C 0.46976 0.2928 0.89595 0.0
C2071 C 0.48886 0.27937 0.85761 0.0
C2072 C 0.50755 0.28161 0.83804 0.0
C2073 C 0.45059 0.276 0.89042 0.0
C2074 C 0.45144 0.25896 0.86936 0.0
C2075 C 0.47042 0.26151 0.85296 0.0
C2076 C 0.43287 0.23872 0.86351 0.0
C2077 C 0.42944 0.27766 0.90682 0.0
C2078 C 0.4229 0.22406 0.88278 0.0
C2079 C 0.40453 0.2064 0.87706 0.0
C2080 C 0.39653 0.20197 0.85174 0.0
C2081 C 0.40834 0.21461 0.8323 0.0
C2082 C 0.42567 0.23318 0.83813 0.0
H2083 H 0.42786 0.297 0.91456 0.0
H2084 H 0.41304 0.2721 0.89603 0.0
H2085 H 0.43135 0.26533 0.92336 0.0
H2086 H 0.42907 0.22639 0.90235 0.0
H2087 H 0.39628 0.19664 0.89253 0.0
H2088 H 0.99234 0.63364 0.43927 0.0
H2089 H 0.02319 0.66643 0.43573 0.0
H2090 H 0.9839 0.6996 0.37547 0.0
H2091 H 0.9524 0.6667 0.3794 0.0
H2092 H 0.03686 0.69321 0.36907 0.0
H2093 H 0.01331 0.74278 0.45831 0.0
H2094 H 0.01465 0.7093 0.45986 0.0
H2095 H 0.99271 0.72253 0.44001 0.0
C2096 C 0.99028 0.64779 0.42507 0.0
C2097 C 0.96977 0.64786 0.40975 0.0
C2098 C 0.00788 0.66664 0.42322 0.0
C2099 C 1.00563 0.68582 0.40571 0.0
C2100 C 0.98571 0.68529 0.38948 0.0
H2101 H 0.10383 0.80891 0.36916 0.0
H2102 H 0.07 0.78017 0.37157 0.0
C2103 C 0.96777 0.66663 0.39172 0.0
C2104 C 0.02408 0.70639 0.40487 0.0
H2105 H 0.04941 0.75536 0.44038 0.0
C2106 C 0.03941 0.70704 0.38445 0.0
C2107 C 0.02758 0.72426 0.42509 0.0
C2108 C 0.01114 0.72495 0.44703 0.0
C2109 C 0.05857 0.72454 0.38416 0.0
C2110 C 0.06218 0.74232 0.40451 0.0
C2111 C 0.04668 0.74179 0.42479 0.0
C2112 C 0.082 0.76149 0.40496 0.0
C2113 C 0.07563 0.72297 0.36282 0.0
C2114 C 0.09998 0.76136 0.42364 0.0
C2115 C 0.11982 0.77766 0.4221 0.0
C2116 C 0.1216 0.79499 0.40239 0.0
C2117 C 0.10276 0.79635 0.38502 0.0
C2118 C 0.08349 0.77949 0.38604 0.0
H2119 H 0.07297 0.70529 0.35138 0.0
H2120 H 0.07352 0.73881 0.34989 0.0
H2121 H 0.09385 0.72428 0.37061 0.0
H2122 H 0.09933 0.74767 0.43849 0.0
H2123 H 0.13437 0.77571 0.43535 0.0
H2124 H 0.99758 0.37609 0.13999 0.0
H2125 H 0.02582 0.34344 0.14482 0.0
H2126 H 0.97016 0.28678 0.13558 0.0
H2127 H 0.94171 0.31931 0.13167 0.0
H2128 H 0.99973 0.27413 0.1722 0.0
H2129 H 0.05144 0.30098 0.08899 0.0
H2130 H 0.04982 0.32643 0.11163 0.0
H2131 H 0.02362 0.31392 0.09542 0.0
C2132 C 0.99128 0.35669 0.13924 0.0
C2133 C 0.96729 0.35046 0.1354 0.0
C2134 C 0.00754 0.33794 0.14169 0.0
C2135 C 1.00034 0.31241 0.13997 0.0
C2136 C 0.97629 0.3062 0.1369 0.0
H2137 H 0.10743 0.19964 0.1198 0.0
H2138 H 0.07406 0.22609 0.11278 0.0
C2139 C 0.95999 0.32492 0.13468 0.0
C2140 C 0.01774 0.29226 0.14177 0.0
H2141 H 0.06887 0.27264 0.11743 0.0
C2142 C 0.01478 0.27375 0.1601 0.0
C2143 C 0.03715 0.2911 0.12561 0.0
C2144 C 0.0406 0.309 0.10412 0.0
C2145 C 0.031 0.25496 0.16347 0.0
C2146 C 0.05128 0.2547 0.14835 0.0
C2147 C 0.05367 0.27266 0.1293 0.0
C2148 C 0.07066 0.23691 0.15255 0.0
C2149 C 0.02581 0.2357 0.18332 0.0
C2150 C 0.08024 0.23387 0.17708 0.0
C2151 C 0.09898 0.21844 0.18114 0.0
C2152 C 0.10943 0.20584 0.16073 0.0
C2153 C 0.09983 0.20869 0.13607 0.0
C2154 C 0.08078 0.22408 0.13204 0.0
H2155 H 0.00667 0.23195 0.18489 0.0
H2156 H 0.03393 0.21775 0.17917 0.0
H2157 H 0.03249 0.24309 0.20217 0.0
H2158 H 0.07372 0.24407 0.19325 0.0
H2159 H 0.10582 0.21715 0.20045 0.0
H2160 H 0.61517 0.71038 0.62838 0.0
H2161 H 0.58516 0.74132 0.62248 0.0
H2162 H 0.56087 0.72743 0.69812 0.0
H2163 H 0.59025 0.69659 0.70384 0.0
H2164 H 0.53886 0.74459 0.62342 0.0
H2165 H 0.5774 0.80035 0.70495 0.0
H2166 H 0.59121 0.77351 0.69184 0.0
H2167 H 0.56834 0.76958 0.71456 0.0
C2168 C 0.60278 0.71325 0.64329 0.0
C2169 C 0.60508 0.7011 0.66659 0.0
C2170 C 0.58586 0.73121 0.64008 0.0
C2171 C 0.57115 0.73734 0.66018 0.0
C2172 C 0.57229 0.7236 0.68254 0.0
H2173 H 0.44705 0.8246 0.65594 0.0
H2174 H 0.47553 0.79225 0.66158 0.0
C2175 C 0.58893 0.70567 0.68567 0.0
C2176 C 0.55526 0.75861 0.65847 0.0
H2177 H 0.53964 0.81177 0.69004 0.0
C2178 C 0.539 0.75906 0.63807 0.0
C2179 C 0.55593 0.77837 0.67705 0.0
C2180 C 0.57435 0.78062 0.69815 0.0
C2181 C 0.52281 0.77792 0.63634 0.0
C2182 C 0.52264 0.79674 0.65568 0.0
C2183 C 0.53941 0.79694 0.67558 0.0
C2184 C 0.50563 0.81684 0.65499 0.0
C2185 C 0.50646 0.77809 0.6134 0.0
C2186 C 0.51325 0.84168 0.65086 0.0
C2187 C 0.49707 0.86028 0.64794 0.0
C2188 C 0.47294 0.85437 0.64912 0.0
C2189 C 0.46547 0.82973 0.6547 0.0
C2190 C 0.48169 0.81118 0.65771 0.0
H2191 H 0.51039 0.7636 0.59881 0.0
H2192 H 0.48826 0.7746 0.61939 0.0
H2193 H 0.50752 0.79676 0.6046 0.0
H2194 H 0.53169 0.84649 0.64895 0.0
H2195 H 0.50343 0.87905 0.64364 0.0
H2196 H 0.90779 0.68551 0.37324 0.0
H2197 H 0.93965 0.71528 0.38626 0.0
H2198 H 0.95039 0.73311 0.3076 0.0
H2199 H 0.91978 0.70234 0.29441 0.0
H2200 H 0.98927 0.73247 0.32726 0.0
H2201 H 0.94001 0.78719 0.39625 0.0
H2202 H 0.941 0.75538 0.40577 0.0
H2203 H 0.92602 0.76271 0.3764 0.0
C2204 C 0.91714 0.69551 0.35867 0.0
C2205 C 0.91108 0.69134 0.33273 0.0
C2206 C 0.93513 0.71303 0.3662 0.0
C2207 C 0.94721 0.72723 0.34807 0.0
C2208 C 0.94149 0.72261 0.32214 0.0
H2209 H 0.05997 0.84658 0.35757 0.0
H2210 H 0.02925 0.81639 0.34146 0.0
C2211 C 0.92387 0.70484 0.31458 0.0
C2212 C 0.96634 0.74622 0.35574 0.0
H2213 H 0.98134 0.79479 0.39738 0.0
C2214 C 0.98735 0.74624 0.34245 0.0
C2215 C 0.96404 0.76454 0.37539 0.0
C2216 C 0.94145 0.76764 0.38903 0.0
C2217 C 0.00605 0.76352 0.34837 0.0
C2218 C 1.00417 0.78104 0.36883 0.0
C2219 C 0.98311 0.78116 0.38201 0.0
C2220 C 0.02377 0.7989 0.37773 0.0
C2221 C 0.0274 0.76258 0.33227 0.0
C2222 C 0.03081 0.79964 0.40355 0.0
C2223 C 0.04835 0.81678 0.41278 0.0
C2224 C 0.0593 0.83408 0.39655 0.0
C2225 C 0.05233 0.83332 0.37059 0.0
C2226 C 0.0347 0.816 0.36132 0.0
H2227 H 0.02555 0.77562 0.31631 0.0
H2228 H 0.04346 0.76823 0.34321 0.0
H2229 H 0.02943 0.74354 0.32394 0.0
H2230 H 0.02254 0.78699 0.41675 0.0
H2231 H 0.05295 0.81673 0.4329 0.0
H2232 H 0.44519 0.17751 0.87012 0.0
H2233 H 0.47449 0.2125 0.86721 0.0
H2234 H 0.52419 0.1712 0.9097 0.0
H2235 H 0.49558 0.13619 0.91207 0.0
H2236 H 0.51648 0.22127 0.9299 0.0
H2237 H 0.53644 0.22057 0.82681 0.0
H2238 H 0.50628 0.2173 0.83552 0.0
H2239 H 0.52559 0.19285 0.84253 0.0
C2240 C 0.46241 0.1759 0.87862 0.0
C2241 C 0.46792 0.1541 0.8914 0.0
C2242 C 0.47915 0.1959 0.87696 0.0
C2243 C 0.5015 0.19473 0.88849 0.0
C2244 C 0.50712 0.1727 0.90068 0.0
H2245 H 0.62399 0.29486 0.92444 0.0
H2246 H 0.59177 0.26383 0.92617 0.0
C2247 C 0.49069 0.15259 0.90186 0.0
C2248 C 0.51869 0.21674 0.88931 0.0
H2249 H 0.55579 0.25155 0.85282 0.0
C2250 C 0.5249 0.22816 0.913 0.0
C2251 C 0.52986 0.22556 0.86738 0.0
C2252 C 0.52443 0.21347 0.84155 0.0
C2253 C 0.54173 0.24822 0.91545 0.0
C2254 C 0.55318 0.25718 0.89345 0.0
C2255 C 0.54694 0.24543 0.86973 0.0
C2256 C 0.572 0.278 0.89434 0.0
C2257 C 0.54675 0.25914 0.9419 0.0
C2258 C 0.57255 0.29663 0.87575 0.0
C2259 C 0.59115 0.31456 0.87473 0.0
C2260 C 0.61015 0.31409 0.89197 0.0
C2261 C 0.60921 0.29634 0.91137 0.0
C2262 C 0.59067 0.27836 0.91229 0.0
H2263 H 0.53072 0.25847 0.95338 0.0
H2264 H 0.55972 0.24769 0.95171 0.0
H2265 H 0.55373 0.27873 0.9418 0.0
H2266 H 0.55908 0.29696 0.86119 0.0
H2267 H 0.59163 0.32727 0.85898 0.0
H2268 H 0.89381 0.14081 0.7494 0.0
H2269 H 0.89327 0.10586 0.77794 0.0
H2270 H 0.86266 0.05756 0.71822 0.0
H2271 H 0.86226 0.09292 0.68934 0.0
H2272 H 0.84093 0.04829 0.75854 0.0
H2273 H 0.93432 0.05053 0.78732 0.0
H2274 H 0.92193 0.0798 0.7949 0.0
H2275 H 0.92369 0.06947 0.76206 0.0
C2276 C 0.88743 0.12266 0.74191 0.0
C2277 C 0.87825 0.11986 0.71675 0.0
C2278 C 0.88728 0.10248 0.7584 0.0
C2279 C 0.87853 0.07862 0.75018 0.0
C2280 C 0.86989 0.07559 0.7249 0.0
H2281 H 0.90175 0.94839 0.84349 0.0
H2282 H 0.90084 0.97821 0.80902 0.0
C2283 C 0.86983 0.09585 0.70834 0.0
C2284 C 0.87714 0.05729 0.76827 0.0
H2285 H 0.90844 0.02634 0.81294 0.0
C2286 C 0.85582 0.04342 0.77024 0.0
C2287 C 0.89643 0.05063 0.78374 0.0
C2288 C 0.92041 0.06326 0.78171 0.0
C2289 C 0.85312 0.0236 0.78728 0.0
C2290 C 0.87226 0.01734 0.80316 0.0
C2291 C 0.89366 0.03099 0.80095 0.0
C2292 C 0.87073 0.99709 0.82242 0.0
C2293 C 0.82963 0.00974 0.78771 0.0
C2294 C 0.85396 0.99731 0.84152 0.0
C2295 C 0.85436 0.98005 0.86122 0.0
C2296 C 0.87158 0.96214 0.86244 0.0
C2297 C 0.8878 0.96135 0.84282 0.0
C2298 C 0.88747 0.97869 0.8232 0.0
H2299 H 0.82205 0.00722 0.76808 0.0
H2300 H 0.83046 0.99116 0.79633 0.0
H2301 H 0.81755 0.02105 0.79887 0.0
H2302 H 0.84119 0.01159 0.8419 0.0
H2303 H 0.84194 0.98162 0.87632 0.0
H2304 H 0.64473 0.07941 0.48984 0.0
H2305 H 0.67415 0.09458 0.52022 0.0
H2306 H 0.69007 0.15766 0.47325 0.0
H2307 H 0.65838 0.14351 0.44304 0.0
H2308 H 0.71511 0.09519 0.5173 0.0
H2309 H 0.69851 0.19424 0.53763 0.0
H2310 H 0.67781 0.1738 0.51992 0.0
H2311 H 0.70208 0.18882 0.50424 0.0
C2312 C 0.65398 0.09689 0.48585 0.0
C2313 C 0.64885 0.11019 0.46368 0.0
C2314 C 0.67123 0.10551 0.50343 0.0
C2315 C 0.685 0.12729 0.49924 0.0
C2316 C 0.67983 0.14097 0.47727 0.0
H2317 H 0.81406 0.18842 0.57473 0.0
H2318 H 0.77838 0.18019 0.5483 0.0
C2319 C 0.66174 0.13273 0.45982 0.0
C2320 C 0.7057 0.13368 0.51693 0.0
H2321 H 0.73576 0.18065 0.551 0.0
C2322 C 0.71933 0.11395 0.52484 0.0
C2323 C 0.71156 0.15799 0.52712 0.0
C2324 C 0.69656 0.17984 0.52203 0.0
C2325 C 0.73824 0.11742 0.54233 0.0
C2326 C 0.74491 0.14202 0.55168 0.0
C2327 C 0.73134 0.16188 0.54363 0.0
C2328 C 0.76593 0.14792 0.56908 0.0
C2329 C 0.74985 0.09383 0.55013 0.0
C2330 C 0.77056 0.13367 0.59065 0.0
C2331 C 0.79152 0.13755 0.60486 0.0
C2332 C 0.8078 0.15689 0.599 0.0
C2333 C 0.80229 0.17276 0.57905 0.0
C2334 C 0.78171 0.16818 0.56413 0.0
H2335 H 0.73805 0.08331 0.56294 0.0
H2336 H 0.75223 0.08151 0.53314 0.0
H2337 H 0.76695 0.09667 0.56 0.0
H2338 H 0.75809 0.11921 0.59641 0.0
H2339 H 0.79466 0.12587 0.62104 0.0
H2340 H 0.66 0.90951 0.1969 0.0
H2341 H 0.65632 0.94423 0.22764 0.0
H2342 H 0.58686 0.91637 0.24467 0.0
H2343 H 0.59072 0.88118 0.21444 0.0
H2344 H 0.59074 0.9688 0.24123 0.0
H2345 H 0.65968 0.93434 0.30517 0.0
H2346 H 0.66868 0.93887 0.27303 0.0
H2347 H 0.64619 0.91548 0.27938 0.0
C2348 C 0.64367 0.91117 0.20661 0.0
C2349 C 0.62553 0.89273 0.20296 0.0
C2350 C 0.64173 0.93082 0.22453 0.0
C2351 C 0.62146 0.93274 0.23885 0.0
C2352 C 0.60273 0.91527 0.23401 0.0
H2353 H 0.57803 0.04541 0.35135 0.0
H2354 H 0.57887 0.01333 0.31811 0.0
C2355 C 0.60486 0.89529 0.21652 0.0
C2356 C 0.62009 0.95252 0.25932 0.0
H2357 H 0.64505 0.97334 0.31602 0.0
C2358 C 0.60306 0.97035 0.2572 0.0
C2359 C 0.63545 0.95386 0.28084 0.0
C2360 C 0.6534 0.9345 0.28499 0.0
C2361 C 0.60215 0.99068 0.27466 0.0
C2362 C 0.61738 0.99207 0.29662 0.0
C2363 C 0.63366 0.97322 0.29926 0.0
C2364 C 0.61669 0.0123 0.31721 0.0
C2365 C 0.58544 0.01073 0.26827 0.0
C2366 C 0.63737 0.02164 0.3301 0.0
C2367 C 0.63673 0.03922 0.35033 0.0
C2368 C 0.61545 0.04853 0.35781 0.0
C2369 C 0.59484 0.03964 0.34495 0.0
C2370 C 0.59537 0.02125 0.32559 0.0
H2371 H 0.58247 0.01184 0.24737 0.0
H2372 H 0.5682 0.00596 0.27646 0.0
H2373 H 0.59194 0.02944 0.27554 0.0
H2374 H 0.65412 0.01471 0.32526 0.0
H2375 H 0.65277 0.04493 0.36066 0.0
H2376 H 0.86736 0.85668 0.96318 0.0
H2377 H 0.84109 0.83825 0.995 0.0
H2378 H 0.799 0.90263 0.99057 0.0
H2379 H 0.82389 0.92025 0.95883 0.0
H2380 H 0.80584 0.89502 0.03597 0.0
H2381 H 0.80757 0.80298 0.00755 0.0
H2382 H 0.77924 0.80252 0.99225 0.0
H2383 H 0.80313 0.82099 0.97978 0.0
C2384 C 0.85186 0.86629 0.96825 0.0
C2385 C 0.84766 0.88986 0.95806 0.0
C2386 C 0.83684 0.85579 0.98659 0.0
C2387 C 0.81722 0.86856 0.9948 0.0
C2388 C 0.81317 0.89176 0.9841 0.0
H2389 H 0.69428 0.87555 0.08371 0.0
H2390 H 0.72691 0.88014 0.05503 0.0
C2391 C 0.82776 0.90201 0.96593 0.0
C2392 C 0.80121 0.85968 0.01543 0.0
H2393 H 0.76047 0.81395 0.03092 0.0
C2394 C 0.79598 0.87721 0.03466 0.0
C2395 C 0.78895 0.83595 0.01507 0.0
C2396 C 0.79497 0.81466 0.99746 0.0
C2397 C 0.77798 0.87272 0.05188 0.0
C2398 C 0.76403 0.85018 0.04969 0.0
C2399 C 0.77042 0.8317 0.03199 0.0
C2400 C 0.74278 0.84582 0.06546 0.0
C2401 C 0.77435 0.89231 0.0724 0.0
C2402 C 0.73973 0.82419 0.07995 0.0
C2403 C 0.72059 0.82119 0.09605 0.0
C2404 C 0.70403 0.83976 0.09804 0.0
C2405 C 0.70663 0.86086 0.08275 0.0
C2406 C 0.72555 0.86368 0.0665 0.0
H2407 H 0.79087 0.90326 0.07729 0.0
H2408 H 0.76156 0.90564 0.06537 0.0
H2409 H 0.7677 0.8838 0.09004 0.0
H2410 H 0.75257 0.80997 0.07948 0.0
H2411 H 0.71924 0.80472 0.10761 0.0
H2412 H 0.84266 0.05706 0.64599 0.0
H2413 H 0.8382 0.02924 0.68241 0.0
H2414 H 0.90988 0.00925 0.67536 0.0
H2415 H 0.91469 0.03842 0.64078 0.0
H2416 H 0.84011 0.98201 0.68781 0.0
H2417 H 0.91543 0.02012 0.74773 0.0
H2418 H 0.90454 0.03703 0.72088 0.0
H2419 H 0.92264 0.0107 0.71645 0.0
C2420 C 0.85759 0.04731 0.65294 0.0
C2421 C 0.87927 0.05061 0.64134 0.0
C2422 C 0.85503 0.03115 0.67354 0.0
C2423 C 0.87401 0.01773 0.68273 0.0
C2424 C 0.89535 0.02042 0.67019 0.0
H2425 H 0.89546 0.90997 0.80243 0.0
H2426 H 0.89869 0.93877 0.76717 0.0
C2427 C 0.89806 0.037 0.65015 0.0
C2428 C 0.87121 1.00029 0.70462 0.0
H2429 H 0.89571 0.98411 0.76164 0.0
C2430 C 0.85219 0.98267 0.70407 0.0
C2431 C 0.88724 1.00044 0.72571 0.0
C2432 C 0.90844 0.01825 0.72787 0.0
C2433 C 0.84898 0.9651 0.72344 0.0
C2434 C 0.86459 0.96578 0.74491 0.0
C2435 C 0.88355 0.98348 0.74548 0.0
C2436 C 0.86224 0.94799 0.76658 0.0
C2437 C 0.8295 0.94528 0.7198 0.0
C2438 C 0.84079 0.94337 0.77856 0.0
C2439 C 0.83888 0.92654 0.7986 0.0
C2440 C 0.85852 0.91441 0.80769 0.0
C2441 C 0.88008 0.91942 0.79623 0.0
C2442 C 0.88189 0.93583 0.77588 0.0
H2443 H 0.82491 0.94186 0.69929 0.0
H2444 H 0.83428 0.92726 0.72807 0.0
H2445 H 0.81364 0.95174 0.72917 0.0
H2446 H 0.82537 0.95269 0.77243 0.0
H2447 H 0.82198 0.92285 0.80687 0.0
H2448 H 0.87101 0.15325 0.53659 0.0
H2449 H 0.84229 0.16738 0.50532 0.0
H2450 H 0.79071 0.11583 0.53498 0.0
H2451 H 0.81904 0.10137 0.56546 0.0
H2452 H 0.78386 0.11116 0.49219 0.0
H2453 H 0.82022 0.20074 0.49089 0.0
H2454 H 0.81053 0.19452 0.52259 0.0
H2455 H 0.79439 0.2144 0.50226 0.0
C2456 C 0.85311 0.14592 0.53722 0.0
C2457 C 0.84707 0.1268 0.55414 0.0
C2458 C 0.8366 0.15389 0.51913 0.0
C2459 C 0.81357 0.14328 0.51801 0.0
C2460 C 0.80787 0.12467 0.53549 0.0
H2461 H 0.69565 0.2106 0.44139 0.0
H2462 H 0.72797 0.19958 0.4695 0.0
C2463 C 0.82412 0.11663 0.55325 0.0
C2464 C 0.79523 0.14992 0.49844 0.0
H2465 H 0.76901 0.19809 0.46913 0.0
C2466 C 0.78042 0.13037 0.48784 0.0
C2467 C 0.79059 0.17479 0.49174 0.0
C2468 C 0.80463 0.19728 0.50264 0.0
C2469 C 0.76059 0.13479 0.47262 0.0
C2470 C 0.75629 0.15956 0.46528 0.0
C2471 C 0.77178 0.17907 0.47474 0.0
C2472 C 0.73584 0.16579 0.44831 0.0
C2473 C 0.74412 0.11261 0.46587 0.0
C2474 C 0.72907 0.1509 0.42662 0.0
C2475 C 0.70969 0.1565 0.41134 0.0
C2476 C 0.69726 0.17801 0.41638 0.0
C2477 C 0.70442 0.19349 0.43742 0.0
C2478 C 0.72328 0.18735 0.45328 0.0
H2479 H 0.74525 0.09784 0.4803 0.0
H2480 H 0.7257 0.118 0.46442 0.0
H2481 H 0.74915 0.10407 0.44748 0.0
H2482 H 0.73912 0.13525 0.42085 0.0
H2483 H 0.70543 0.14488 0.39453 0.0
H2484 H 0.58456 0.9611 0.17211 0.0
H2485 H 0.59196 0.99388 0.20469 0.0
H2486 H 0.6662 0.98989 0.19442 0.0
H2487 H 0.65876 0.95654 0.16226 0.0
H2488 H 0.66147 0.99529 0.24057 0.0
H2489 H 0.60492 0.06495 0.19921 0.0
H2490 H 0.58746 0.03739 0.20565 0.0
H2491 H 0.61022 0.03607 0.18252 0.0
C2492 C 0.60247 0.96701 0.17705 0.0
C2493 C 0.62106 0.95605 0.16478 0.0
C2494 C 0.60674 0.98609 0.19551 0.0
C2495 C 0.62969 0.99494 0.20202 0.0
C2496 C 0.64829 0.9836 0.18997 0.0
H2497 H 0.68623 0.11571 0.30554 0.0
H2498 H 0.68221 0.081 0.27438 0.0
C2499 C 0.64404 0.96436 0.17164 0.0
C2500 C 0.63438 0.01531 0.22186 0.0
H2501 H 0.61615 0.07188 0.2433 0.0
C2502 C 0.65168 0.01215 0.24086 0.0
C2503 C 0.6221 0.03775 0.22232 0.0
C2504 C 0.60538 0.04434 0.20113 0.0
C2505 C 0.65653 0.03018 0.26047 0.0
C2506 C 0.64298 0.05165 0.26194 0.0
C2507 C 0.62604 0.05509 0.24272 0.0
C2508 C 0.64622 0.0712 0.28267 0.0
C2509 C 0.67638 0.02581 0.27896 0.0
C2510 C 0.62733 0.07744 0.29782 0.0
C2511 C 0.62959 0.09727 0.3158 0.0
C2512 C 0.65071 0.11161 0.31873 0.0
C2513 C 0.66977 0.10493 0.30399 0.0
C2514 C 0.66751 0.08505 0.28611 0.0
H2515 H 0.67652 0.00574 0.28389 0.0
H2516 H 0.69312 0.03054 0.26963 0.0
H2517 H 0.67585 0.03726 0.29675 0.0
H2518 H 0.61063 0.06728 0.29536 0.0
H2519 H 0.61449 0.10202 0.3266 0.0
H2520 H 0.65701 0.85083 0.04424 0.0
H2521 H 0.6908 0.84698 0.01664 0.0
H2522 H 0.69154 0.92649 0.00417 0.0
H2523 H 0.65956 0.93043 0.03349 0.0
H2524 H 0.69687 0.8523 0.97058 0.0
H2525 H 0.75791 0.9242 0.01481 0.0
H2526 H 0.7305 0.91619 0.02909 0.0
H2527 H 0.73208 0.93876 0.00413 0.0
C2528 C 0.66495 0.86748 0.03611 0.0
C2529 C 0.65611 0.89099 0.04143 0.0
C2530 C 0.68411 0.86532 0.02009 0.0
C2531 C 0.69447 0.88656 0.00858 0.0
C2532 C 0.68499 0.90991 0.01355 0.0
H2533 H 0.80935 0.89703 0.89652 0.0
H2534 H 0.77556 0.90823 0.92194 0.0
C2535 C 0.66645 0.91215 0.03017 0.0
C2536 C 0.71412 0.88409 0.99031 0.0
H2537 H 0.76601 0.91131 0.97177 0.0
C2538 C 0.71232 0.86481 0.97154 0.0
C2539 C 0.7342 0.90077 0.99057 0.0
C2540 C 0.73884 0.92093 0.01091 0.0
C2541 C 0.72999 0.86137 0.95379 0.0
C2542 C 0.75023 0.87768 0.95452 0.0
C2543 C 0.75126 0.89798 0.97197 0.0
C2544 C 0.77143 0.87217 0.93955 0.0
C2545 C 0.72645 0.84047 0.93404 0.0
C2546 C 0.78121 0.84882 0.94185 0.0
C2547 C 0.80084 0.84272 0.92822 0.0
C2548 C 0.81122 0.85963 0.91121 0.0
C2549 C 0.80208 0.88358 0.90959 0.0
C2550 C 0.7825 0.88987 0.92384 0.0
H2551 H 0.7076 0.83677 0.92924 0.0
H2552 H 0.73573 0.84479 0.91625 0.0
H2553 H 0.73317 0.82304 0.94186 0.0
H2554 H 0.77331 0.83499 0.95403 0.0
H2555 H 0.80723 0.82411 0.93017 0.0
H2556 H 0.96276 0.86189 0.94988 0.0
H2557 H 0.99525 0.83429 0.94442 0.0
H2558 H 0.97543 0.82334 0.86498 0.0
H2559 H 0.94316 0.85056 0.87044 0.0
H2560 H 1.00088 0.78887 0.9339 0.0
H2561 H 0.04129 0.84015 0.85517 0.0
H2562 H 0.01691 0.85191 0.87194 0.0
H2563 H 0.01223 0.82906 0.84624 0.0
C2564 C 0.9652 0.85331 0.93131 0.0
C2565 C 0.95026 0.85849 0.91061 0.0
C2566 C 0.98387 0.83748 0.92816 0.0
C2567 C 0.98834 0.82661 0.90417 0.0
C2568 C 0.97295 0.83137 0.88368 0.0
H2569 H 0.0766 0.70002 0.87611 0.0
H2570 H 0.04554 0.72691 0.88901 0.0
C2571 C 0.95422 0.84701 0.88685 0.0
C2572 C 0.0089 0.81034 0.90079 0.0
H2573 H 0.05531 0.79963 0.86275 0.0
C2574 C 0.01276 0.79136 0.9183 0.0
C2575 C 0.0251 0.81374 0.88099 0.0
C2576 C 0.02383 0.835 0.86273 0.0
C2577 C 0.03173 0.77555 0.91633 0.0
C2578 C 0.04709 0.77803 0.89565 0.0
C2579 C 0.04351 0.79731 0.87844 0.0
C2580 C 0.0669 0.7611 0.89111 0.0
C2581 C 0.03569 0.75785 0.93775 0.0
C2582 C 0.08978 0.7711 0.88839 0.0
C2583 C 0.10785 0.75571 0.88126 0.0
C2584 C 0.10351 0.72983 0.87623 0.0
C2585 C 0.08075 0.71974 0.87974 0.0
C2586 C 0.0628 0.73518 0.88705 0.0
H2587 H 0.04849 0.74355 0.93361 0.0
H2588 H 0.04227 0.7689 0.95482 0.0
H2589 H 0.01886 0.74848 0.94295 0.0
H2590 H 0.09362 0.791 0.89128 0.0
H2591 H 0.12508 0.76435 0.87886 0.0
H2592 H 0.44739 0.66108 0.04449 0.0
H2593 H 0.48298 0.68819 0.04749 0.0
H2594 H 0.47202 0.70092 0.1276 0.0
H2595 H 0.43677 0.67334 0.12482 0.0
H2596 H 0.49523 0.73461 0.05877 0.0
H2597 H 0.5364 0.6772 0.13128 0.0
H2598 H 0.50931 0.66729 0.11511 0.0
H2599 H 0.5094 0.68801 0.14275 0.0
C2600 C 0.45233 0.67 0.06269 0.0
C2601 C 0.43907 0.66509 0.08441 0.0
C2602 C 0.4728 0.68546 0.06439 0.0
C2603 C 0.48067 0.69625 0.0879 0.0
C2604 C 0.4668 0.69235 0.10933 0.0
H2605 H 0.57531 0.79333 0.16325 0.0
H2606 H 0.5456 0.76553 0.14343 0.0
C2607 C 0.44632 0.67691 0.10765 0.0
C2608 C 0.50348 0.71116 0.09022 0.0
H2609 H 0.553 0.71903 0.12759 0.0
C2610 C 0.50797 0.73105 0.07372 0.0
C2611 C 0.52081 0.70597 0.1088 0.0
C2612 C 0.51887 0.68326 0.12524 0.0
C2613 C 0.52819 0.74711 0.07669 0.0
C2614 C 0.54415 0.7436 0.09727 0.0
C2615 C 0.54056 0.72238 0.11228 0.0
C2616 C 0.56209 0.7631 0.10697 0.0
C2617 C 0.53138 0.76762 0.05773 0.0
C2618 C 0.58166 0.7716 0.09317 0.0
C2619 C 0.59878 0.7886 0.10458 0.0
C2620 C 0.59683 0.79683 0.13012 0.0
C2621 C 0.57716 0.7882 0.14342 0.0
C2622 C 0.56018 0.77186 0.13212 0.0
H2623 H 0.53317 0.75902 0.03847 0.0
H2624 H 0.51548 0.77871 0.0569 0.0
H2625 H 0.54677 0.7804 0.06176 0.0
H2626 H 0.58405 0.76461 0.07394 0.0
H2627 H 0.61397 0.79427 0.09391 0.0
H2628 H 0.05108 0.3395 0.54401 0.0
H2629 H 0.01949 0.31048 0.55505 0.0
H2630 H 0.0325 0.32902 0.63482 0.0
H2631 H 0.06502 0.35732 0.62372 0.0
H2632 H 0.02395 0.28608 0.63448 0.0
H2633 H 0.95495 0.31424 0.56833 0.0
H2634 H 0.97908 0.30488 0.55006 0.0
H2635 H 0.98243 0.33177 0.57164 0.0
C2636 C 0.04739 0.33727 0.56398 0.0
C2637 C 0.06088 0.35073 0.58295 0.0
C2638 C 0.02869 0.32102 0.5703 0.0
C2639 C 0.02268 0.31763 0.59585 0.0
C2640 C 0.03646 0.33087 0.61489 0.0
H2641 H 0.92182 0.23257 0.6809 0.0
H2642 H 0.951 0.26062 0.66444 0.0
C2643 C 0.05534 0.34703 0.60855 0.0
C2644 C 1.00358 0.29883 0.6029 0.0
H2645 H 0.94887 0.27382 0.58635 0.0
C2646 C 0.00764 0.28363 0.62383 0.0
C2647 C 0.98171 0.29539 0.5895 0.0
C2648 C 0.97422 0.31268 0.56886 0.0
C2649 C 0.9912 0.26529 0.63159 0.0
C2650 C 0.96971 0.26123 0.6177 0.0
C2651 C 0.96553 0.27619 0.59658 0.0
C2652 C 0.95048 0.2438 0.6266 0.0
C2653 C 0.99727 0.25114 0.65519 0.0
C2654 C 0.93865 0.22562 0.61039 0.0
C2655 C 0.92059 0.20958 0.61965 0.0
C2656 C 0.91429 0.21125 0.64538 0.0
C2657 C 0.92614 0.22983 0.66111 0.0
C2658 C 0.94329 0.24609 0.65176 0.0
H2659 H 0.99312 0.2626 0.67224 0.0
H2660 H 0.98756 0.23291 0.65608 0.0
H2661 H 0.01624 0.24798 0.65651 0.0
H2662 H 0.94351 0.22369 0.59067 0.0
H2663 H 0.91168 0.19596 0.60678 0.0
H2664 H 0.04851 0.67436 0.95558 0.0
H2665 H 0.01764 0.70379 0.9492 0.0
H2666 H 0.01192 0.68149 0.86962 0.0
H2667 H 0.04386 0.65351 0.87575 0.0
H2668 H 0.01015 0.72646 0.86992 0.0
H2669 H 0.95016 0.69959 0.94585 0.0
H2670 H 0.97826 0.7086 0.9596 0.0
H2671 H 0.97492 0.6815 0.93842 0.0
C2672 C 0.04067 0.67587 0.93673 0.0
C2673 C 0.04886 0.66183 0.91613 0.0
C2674 C 0.02266 0.6925 0.93309 0.0
C2675 C 0.01179 0.69491 0.90891 0.0
C2676 C 0.01978 0.68033 0.88849 0.0
H2677 H 0.90812 0.78966 0.8397 0.0
H2678 H 0.93881 0.761 0.84817 0.0
C2679 C 0.0382 0.66431 0.89198 0.0
C2680 C 0.99371 0.71401 0.90416 0.0
H2681 H 0.94421 0.73896 0.92711 0.0
C2682 C 0.996 0.72922 0.88281 0.0
C2683 C 0.97448 0.71761 0.92016 0.0
C2684 C 0.96916 0.70074 0.94209 0.0
C2685 C 0.98068 0.74832 0.87758 0.0
C2686 C 0.96156 0.75222 0.89373 0.0
C2687 C 0.95899 0.73673 0.91491 0.0
C2688 C 0.94326 0.77092 0.88835 0.0
C2689 C 0.98588 0.76407 0.85479 0.0
C2690 C 0.93417 0.78568 0.90814 0.0
C2691 C 0.91528 0.80105 0.90348 0.0
C2692 C 0.90563 0.80269 0.87876 0.0
C2693 C 0.91536 0.78895 0.85891 0.0
C2694 C 0.93333 0.77276 0.86372 0.0
H2695 H 1.00498 0.76625 0.85187 0.0
H2696 H 0.97801 0.75453 0.83742 0.0
H2697 H 0.97895 0.78288 0.85664 0.0
H2698 H 0.94126 0.78483 0.92739 0.0
H2699 H 0.90785 0.81111 0.91923 0.0
H2700 H 0.4244 0.30376 0.33986 0.0
H2701 H 0.45608 0.27611 0.34861 0.0
H2702 H 0.43046 0.26432 0.42415 0.0
H2703 H 0.39788 0.29112 0.41469 0.0
H2704 H 0.47529 0.26825 0.428 0.0
H2705 H 0.45436 0.20301 0.34694 0.0
H2706 H 0.46058 0.23388 0.33578 0.0
H2707 H 0.43559 0.22783 0.35532 0.0
C2708 C 0.42597 0.29589 0.35861 0.0
C2709 C 0.40901 0.30011 0.37681 0.0
C2710 C 0.44402 0.27974 0.36358 0.0
C2711 C 0.44596 0.26783 0.38714 0.0
C2712 C 0.42957 0.27313 0.40583 0.0
H2713 H 0.53925 0.15694 0.44949 0.0
H2714 H 0.50992 0.18833 0.44419 0.0
C2715 C 0.41108 0.28871 0.40055 0.0
C2716 C 0.46488 0.24991 0.39229 0.0
H2717 H 0.49158 0.19916 0.36749 0.0
C2718 C 0.47875 0.25313 0.41474 0.0
C2719 C 0.46938 0.2297 0.3754 0.0
C2720 C 0.454 0.22322 0.35219 0.0
C2721 C 0.49736 0.23758 0.42021 0.0
C2722 C 0.50234 0.21792 0.40285 0.0
C2723 C 0.48822 0.21442 0.38065 0.0
C2724 C 0.52161 0.2003 0.40735 0.0
C2725 C 0.5115 0.24273 0.44452 0.0
C2726 C 0.5381 0.19615 0.38847 0.0
C2727 C 0.555 0.17824 0.3915 0.0
C2728 C 0.55565 0.16357 0.41335 0.0
C2729 C 0.5395 0.16806 0.43253 0.0
C2730 C 0.52267 0.18613 0.42954 0.0
H2731 H 0.51168 0.26287 0.45024 0.0
H2732 H 0.50335 0.23195 0.46003 0.0
H2733 H 0.52976 0.23715 0.44283 0.0
H2734 H 0.5377 0.20649 0.37106 0.0
H2735 H 0.56699 0.17525 0.37623 0.0
H2736 H 0.96519 0.16026 0.55647 0.0
H2737 H 1.00088 0.18677 0.56198 0.0
H2738 H 0.98852 0.19349 0.64256 0.0
H2739 H 0.95351 0.16664 0.63717 0.0
H2740 H 0.01283 0.22918 0.57197 0.0
H2741 H 0.05312 0.18082 0.65112 0.0
H2742 H 0.02686 0.16808 0.63526 0.0
H2743 H 0.02542 0.19016 0.66181 0.0
C2744 C 0.97001 0.16765 0.57534 0.0
C2745 C 0.9563 0.16145 0.59634 0.0
C2746 C 0.99056 0.18286 0.57853 0.0
C2747 C 0.998 0.19232 0.60282 0.0
C2748 C 0.98386 0.18647 0.62363 0.0
H2749 H 0.08178 0.30625 0.67539 0.0
H2750 H 0.05573 0.27235 0.65904 0.0
C2751 C 0.96348 0.17115 0.6205 0.0
C2752 C 0.01983 0.20902 0.60621 0.0
H2753 H 0.06495 0.22508 0.64822 0.0
C2754 C 0.02438 0.22787 0.58849 0.0
C2755 C 0.03597 0.20704 0.62695 0.0
C2756 C 0.03521 0.18518 0.64458 0.0
C2757 C 0.04318 0.2457 0.59202 0.0
C2758 C 0.05707 0.24583 0.61472 0.0
C2759 C 0.05372 0.22585 0.63135 0.0
C2760 C 0.07319 0.26752 0.62329 0.0
C2761 C 0.04778 0.26403 0.57126 0.0
C2762 C 0.09204 0.27657 0.6088 0.0
C2763 C 0.10721 0.29635 0.61828 0.0
C2764 C 0.10401 0.30717 0.64258 0.0
C2765 C 0.08475 0.29855 0.65653 0.0
C2766 C 0.06981 0.27894 0.64719 0.0
H2767 H 0.06106 0.25647 0.55852 0.0
H2768 H 0.03177 0.26678 0.55949 0.0
H2769 H 0.05478 0.28232 0.57897 0.0
H2770 H 0.09548 0.26787 0.59054 0.0
H2771 H 0.12218 0.30211 0.60729 0.0
H2772 H 0.41279 0.74562 0.20275 0.0
H2773 H 0.44506 0.77348 0.19145 0.0
H2774 H 0.44514 0.73868 0.11649 0.0
H2775 H 0.41132 0.71162 0.12721 0.0
H2776 H 0.48585 0.76982 0.18246 0.0
H2777 H 0.4491 0.80669 0.09364 0.0
H2778 H 0.43197 0.78661 0.11371 0.0
H2779 H 0.45127 0.7735 0.09076 0.0
C2780 C 0.41955 0.74368 0.18377 0.0
C2781 C 0.40929 0.72605 0.16595 0.0
C2782 C 0.43824 0.75979 0.17731 0.0
C2783 C 0.44773 0.75868 0.15293 0.0
C2784 C 0.43799 0.74059 0.13524 0.0
H2785 H 0.56293 0.83017 0.0775 0.0
H2786 H 0.53013 0.80514 0.0931 0.0
C2787 C 0.41881 0.72472 0.14154 0.0
C2788 C 0.46806 0.77611 0.14671 0.0
H2789 H 0.48964 0.81548 0.10176 0.0
C2790 C 0.48652 0.77989 0.1648 0.0
C2791 C 0.46906 0.78989 0.124 0.0
C2792 C 0.44915 0.78919 0.1046 0.0
C2793 C 0.50596 0.79628 0.16074 0.0
C2794 C 0.50769 0.80886 0.1373 0.0
C2795 C 0.48893 0.8055 0.11947 0.0
C2796 C 0.52902 0.82411 0.1296 0.0
C2797 C 0.524 0.79962 0.18208 0.0
C2798 C 0.53977 0.84359 0.14494 0.0
C2799 C 0.55908 0.85796 0.13619 0.0
C2800 C 0.56766 0.85363 0.11162 0.0
C2801 C 0.55712 0.83392 0.09663 0.0
C2802 C 0.53813 0.81962 0.10544 0.0
H2803 H 0.5181 0.81381 0.19596 0.0
H2804 H 0.52589 0.78191 0.1924 0.0
H2805 H 0.5413 0.80598 0.17556 0.0
H2806 H 0.5328 0.8483 0.16331 0.0
H2807 H 0.56623 0.87351 0.14796 0.0
H2808 H 0.66627 0.43506 0.8288 0.0
H2809 H 0.66218 0.46638 0.79632 0.0
H2810 H 0.61323 0.41695 0.75393 0.0
H2811 H 0.61758 0.38507 0.78645 0.0
H2812 H 0.67222 0.46974 0.75121 0.0
H2813 H 0.57669 0.47738 0.75249 0.0
H2814 H 0.59083 0.45504 0.7719 0.0
H2815 H 0.58358 0.44762 0.73905 0.0
C2816 C 0.65426 0.43094 0.81283 0.0
C2817 C 0.64171 0.40775 0.81068 0.0
C2818 C 0.65205 0.44892 0.7941 0.0
C2819 C 0.63672 0.44476 0.77295 0.0
C2820 C 0.62445 0.42132 0.77048 0.0
H2821 H 0.65088 0.52771 0.63425 0.0
H2822 H 0.65525 0.50097 0.6705 0.0
C2823 C 0.62698 0.40301 0.78908 0.0
C2824 C 0.6348 0.46471 0.75331 0.0
H2825 H 0.5965 0.49821 0.71822 0.0
C2826 C 0.65556 0.47604 0.74429 0.0
C2827 C 0.61319 0.47335 0.744 0.0
C2828 C 0.5899 0.46283 0.7526 0.0
C2829 C 0.65548 0.49504 0.72621 0.0
C2830 C 0.63389 0.50316 0.71631 0.0
C2831 C 0.6131 0.49231 0.72574 0.0
C2832 C 0.63238 0.52123 0.69487 0.0
C2833 C 0.67888 0.50582 0.71811 0.0
C2834 C 0.61769 0.5417 0.69583 0.0
C2835 C 0.61496 0.55722 0.6747 0.0
C2836 C 0.62658 0.55227 0.65198 0.0
C2837 C 0.64177 0.53229 0.65146 0.0
C2838 C 0.64439 0.5169 0.67236 0.0
H2839 H 0.68653 0.49247 0.70453 0.0
H2840 H 0.67785 0.52413 0.70888 0.0
H2841 H 0.69115 0.50814 0.73481 0.0
H2842 H 0.60793 0.54537 0.71275 0.0
H2843 H 0.6028 0.57209 0.67565 0.0
H2844 H 0.88196 0.39017 0.04665 0.0
H2845 H 0.85361 0.38326 0.01174 0.0
H2846 H 0.79888 0.40637 0.06104 0.0
H2847 H 0.82816 0.41603 0.09521 0.0
H2848 H 0.82249 0.35562 0.99987 0.0
H2849 H 0.77516 0.42948 0.03465 0.0
H2850 H 0.77814 0.44448 0.00481 0.0
H2851 H 0.80381 0.43952 0.02412 0.0
C2852 C 0.86377 0.39346 0.05009 0.0
C2853 C 0.85716 0.40321 0.07374 0.0
C2854 C 0.84746 0.38967 0.02999 0.0
C2855 C 0.8238 0.39473 0.0331 0.0
C2856 C 0.81701 0.40336 0.05735 0.0
H2857 H 0.71818 0.31797 0.93591 0.0
H2858 H 0.75023 0.33051 0.96503 0.0
C2859 C 0.83364 0.40823 0.07723 0.0
C2860 C 0.80646 0.38972 0.0113 0.0
H2861 H 0.75716 0.4105 0.98212 0.0
C2862 C 0.80853 0.36806 0.99589 0.0
C2863 C 0.78829 0.4059 0.0051 0.0
C2864 C 0.78643 0.43126 0.01787 0.0
C2865 C 0.7927 0.36155 0.97571 0.0
C2866 C 0.77321 0.37636 0.97125 0.0
C2867 C 0.77166 0.39865 0.98574 0.0
C2868 C 0.75396 0.36868 0.95237 0.0
C2869 C 0.79762 0.33905 0.95913 0.0
C2870 C 0.74475 0.38588 0.93536 0.0
C2871 C 0.72607 0.37868 0.91849 0.0
C2872 C 0.71605 0.35414 0.91839 0.0
C2873 C 0.72532 0.33705 0.9354 0.0
C2874 C 0.74395 0.3442 0.95204 0.0
H2875 H 0.81673 0.33672 0.95789 0.0
H2876 H 0.79 0.32192 0.96781 0.0
H2877 H 0.79029 0.34054 0.9395 0.0
H2878 H 0.75208 0.40488 0.935 0.0
H2879 H 0.71965 0.39224 0.90538 0.0
H2880 H 0.87584 0.59608 0.25705 0.0
H2881 H 0.88529 0.55398 0.24455 0.0
H2882 H 0.85904 0.52888 0.31671 0.0
H2883 H 0.85138 0.56975 0.32885 0.0
H2884 H 0.91947 0.53596 0.26293 0.0
H2885 H 0.85114 0.44359 0.3087 0.0
H2886 H 0.86017 0.46612 0.32623 0.0
H2887 H 0.87965 0.44628 0.32841 0.0
C2888 C 0.87267 0.58129 0.27043 0.0
C2889 C 0.86398 0.5867 0.29469 0.0
C2890 C 0.87806 0.55681 0.26321 0.0
C2891 C 0.87562 0.5365 0.27997 0.0
C2892 C 0.86437 0.54228 0.30318 0.0
H2893 H 0.93515 0.42333 0.19582 0.0
H2894 H 0.93482 0.44122 0.23854 0.0
C2895 C 0.85919 0.56667 0.31052 0.0
C2896 C 0.88844 0.51218 0.27264 0.0
H2897 H 0.88022 0.42743 0.29155 0.0
C2898 C 0.91095 0.51757 0.26446 0.0
C2899 C 0.88839 0.4769 0.27583 0.0
C2900 C 0.86997 0.45588 0.30999 0.0
C2901 C 0.92138 0.49595 0.25924 0.0
C2902 C 0.90076 0.47397 0.26112 0.0
C2903 C 0.88123 0.45781 0.29011 0.0
C2904 C 0.90548 0.46524 0.2318 0.0
C2905 C 0.94564 0.49533 0.2488 0.0
C2906 C 0.89037 0.47316 0.21238 0.0
C2907 C 0.89104 0.46302 0.18753 0.0
C2908 C 0.90661 0.44429 0.1813 0.0
C2909 C 0.92229 0.43689 0.20023 0.0
C2910 C 0.92209 0.44746 0.22491 0.0
H2911 H 0.95655 0.51181 0.25605 0.0
H2912 H 0.95403 0.47803 0.2546 0.0
H2913 H 0.94485 0.49608 0.22769 0.0
H2914 H 0.87749 0.48669 0.21675 0.0
H2915 H 0.87906 0.46961 0.1732 0.0
H2916 H 0.77184 0.6195 0.36661 0.0
H2917 H 0.74354 0.61424 0.40044 0.0
H2918 H 0.79857 0.62868 0.45699 0.0
H2919 H 0.82704 0.63364 0.42331 0.0
H2920 H 0.73917 0.58208 0.43836 0.0
H2921 H 0.75171 0.67792 0.48037 0.0
H2922 H 0.76008 0.66969 0.44844 0.0
H2923 H 0.7784 0.66249 0.47514 0.0
C2924 C 0.77801 0.62125 0.38626 0.0
C2925 C 0.80179 0.62697 0.39215 0.0
C2926 C 0.76175 0.61833 0.40563 0.0
C2927 C 0.76874 0.62141 0.43142 0.0
C2928 C 0.79258 0.62652 0.43735 0.0
H2929 H 0.68376 0.56224 0.553 0.0
H2930 H 0.71305 0.57103 0.52146 0.0
C2931 C 0.80892 0.62916 0.418 0.0
C2932 C 0.75116 0.61878 0.45197 0.0
H2933 H 0.72897 0.64888 0.50361 0.0
C2934 C 0.73705 0.59668 0.4527 0.0
C2935 C 0.74756 0.63816 0.47013 0.0
C2936 C 0.75999 0.66352 0.46848 0.0
C2937 C 0.72001 0.59311 0.47131 0.0
C2938 C 0.71771 0.61163 0.49088 0.0
C2939 C 0.73124 0.63417 0.4895 0.0
C2940 C 0.70145 0.60785 0.51271 0.0
C2941 C 0.70402 0.56989 0.46886 0.0
C2942 C 0.6863 0.62646 0.52055 0.0
C2943 C 0.66997 0.62184 0.53973 0.0
C2944 C 0.66829 0.59842 0.55137 0.0
C2945 C 0.68426 0.58042 0.54435 0.0
C2946 C 0.70085 0.58526 0.52579 0.0
H2947 H 0.70183 0.56337 0.44865 0.0
H2948 H 0.71185 0.55456 0.47951 0.0
H2949 H 0.68644 0.57315 0.47633 0.0
H2950 H 0.6864 0.64423 0.51111 0.0
H2951 H 0.65775 0.63602 0.54428 0.0
H2952 H 0.59978 0.43966 0.83652 0.0
H2953 H 0.60562 0.4744 0.80805 0.0
H2954 H 0.65236 0.51223 0.86341 0.0
H2955 H 0.64631 0.47728 0.89245 0.0
H2956 H 0.59641 0.51912 0.80836 0.0
H2957 H 0.69252 0.51762 0.80391 0.0
H2958 H 0.67657 0.49688 0.82435 0.0
H2959 H 0.68403 0.52852 0.83469 0.0
C2960 C 0.61165 0.45514 0.84255 0.0
C2961 C 0.62316 0.45533 0.86647 0.0
C2962 C 0.61483 0.47516 0.82624 0.0
C2963 C 0.63012 0.49567 0.83291 0.0
C2964 C 0.64122 0.49625 0.85718 0.0
H2965 H 0.62755 0.63576 0.75179 0.0
H2966 H 0.62102 0.60124 0.78075 0.0
C2967 C 0.63773 0.47628 0.87382 0.0
C2968 C 0.63354 0.51639 0.81444 0.0
H2969 H 0.67458 0.55184 0.78333 0.0
C2970 C 0.61358 0.52608 0.80287 0.0
C2971 C 0.6559 0.52571 0.807 0.0
C2972 C 0.67839 0.51642 0.81799 0.0
C2973 C 0.61523 0.5446 0.78438 0.0
C2974 C 0.6375 0.55421 0.77736 0.0
C2975 C 0.65749 0.54447 0.78866 0.0
C2976 C 0.64047 0.57486 0.75894 0.0
C2977 C 0.59293 0.55349 0.77256 0.0
C2978 C 0.65374 0.57178 0.73704 0.0
C2979 C 0.65718 0.5914 0.72007 0.0
C2980 C 0.64803 0.61484 0.7252 0.0
C2981 C 0.63472 0.61788 0.74716 0.0
C2982 C 0.63092 0.59812 0.76375 0.0
H2983 H 0.58703 0.56955 0.78409 0.0
H2984 H 0.59536 0.5597 0.75278 0.0
H2985 H 0.5788 0.53854 0.77237 0.0
H2986 H 0.66156 0.55419 0.73322 0.0
H2987 H 0.66779 0.58853 0.70357 0.0
H2988 H 0.78459 0.36626 0.12066 0.0
H2989 H 0.75329 0.37159 0.08906 0.0
H2990 H 0.79397 0.33589 0.03186 0.0
H2991 H 0.82551 0.33117 0.06325 0.0
H2992 H 0.7472 0.3949 0.0482 0.0
H2993 H 0.7365 0.29449 0.02187 0.0
H2994 H 0.75594 0.30581 0.04748 0.0
H2995 H 0.76523 0.30653 0.01489 0.0
C2996 C 0.7871 0.36016 0.10115 0.0
C2997 C 0.80765 0.34853 0.09441 0.0
C2998 C 0.76909 0.36307 0.08307 0.0
C2999 C 0.77096 0.35398 0.05789 0.0
C3000 C 0.79184 0.34301 0.05103 0.0
H3001 H 0.67288 0.40287 0.93936 0.0
H3002 H 0.70681 0.39811 0.9677 0.0
C3003 C 0.81007 0.34055 0.06899 0.0
C3004 C 0.75102 0.3559 0.03909 0.0
H3005 H 0.71657 0.32223 0.99534 0.0
C3006 C 0.74055 0.37899 0.03659 0.0
C3007 C 0.74158 0.33504 0.02447 0.0
C3008 C 0.75024 0.30905 0.02752 0.0
C3009 C 0.72154 0.382 0.01955 0.0
C3010 C 0.71317 0.36155 1.00357 0.0
C3011 C 0.72308 0.33823 0.00691 0.0
C3012 C 0.69376 0.36345 0.98393 0.0
C3013 C 0.71016 0.40688 0.01993 0.0
C3014 C 0.67584 0.34459 0.98157 0.0
C3015 C 0.65687 0.34687 0.96462 0.0
C3016 C 0.65511 0.36815 0.94959 0.0
C3017 C 0.67384 0.38605 0.95034 0.0
C3018 C 0.69294 0.3837 0.96728 0.0
H3019 H 0.71261 0.41654 0.03885 0.0
H3020 H 0.71848 0.41921 0.00574 0.0
H3021 H 0.69113 0.40471 0.01549 0.0
H3022 H 0.67576 0.32862 0.99385 0.0
H3023 H 0.64255 0.33292 0.9648 0.0
H3024 H 0.86798 0.52596 0.39355 0.0
H3025 H 0.8627 0.49695 0.35718 0.0
H3026 H 0.92379 0.53052 0.323 0.0
H3027 H 0.92897 0.56017 0.35963 0.0
H3028 H 0.83966 0.50007 0.29508 0.0
H3029 H 0.94904 0.4557 0.32439 0.0
H3030 H 0.93239 0.47566 0.34514 0.0
H3031 H 0.94802 0.48895 0.31918 0.0
C3032 C 0.88008 0.52747 0.37807 0.0
C3033 C 0.89863 0.54566 0.3792 0.0
C3034 C 0.87725 0.51057 0.35743 0.0
C3035 C 0.89303 0.5113 0.33747 0.0
C3036 C 0.91154 0.52951 0.33835 0.0
H3037 H 0.84555 0.3946 0.18132 0.0
H3038 H 0.85105 0.43134 0.21014 0.0
C3039 C 0.9142 0.54677 0.35896 0.0
C3040 C 0.88944 0.49392 0.31511 0.0
H3041 H 0.91914 0.44973 0.29359 0.0
C3042 C 0.855 0.48978 0.29108 0.0
C3043 C 0.91615 0.46789 0.30774 0.0
C3044 C 0.93788 0.47209 0.32533 0.0
C3045 C 0.85206 0.4611 0.26182 0.0
C3046 C 0.87885 0.43553 0.25435 0.0
C3047 C 0.91239 0.4379 0.27875 0.0
C3048 C 0.8756 0.41431 0.23568 0.0
C3049 C 0.82939 0.45805 0.24747 0.0
C3050 C 0.88868 0.39316 0.23932 0.0
C3051 C 0.88582 0.3724 0.22275 0.0
C3052 C 0.87008 0.37242 0.20181 0.0
C3053 C 0.85795 0.39415 0.19718 0.0
C3054 C 0.8606 0.41492 0.21411 0.0
H3055 H 0.81586 0.46829 0.25759 0.0
H3056 H 0.83146 0.46592 0.22827 0.0
H3057 H 0.82412 0.4379 0.24529 0.0
H3058 H 0.90062 0.39222 0.25552 0.0
H3059 H 0.89532 0.35587 0.22687 0.0
H3060 H 0.8683 0.63461 0.48709 0.0
H3061 H 0.83623 0.6414 0.51615 0.0
H3062 H 0.7995 0.5747 0.48554 0.0
H3063 H 0.83204 0.56726 0.45749 0.0
H3064 H 0.79192 0.64861 0.51485 0.0
H3065 H 0.80234 0.55647 0.55809 0.0
H3066 H 0.8224 0.56895 0.53524 0.0
H3067 H 0.79511 0.55347 0.52474 0.0
C3068 C 0.85308 0.62181 0.48609 0.0
C3069 C 0.85269 0.6004 0.47004 0.0
C3070 C 0.83483 0.62552 0.50293 0.0
C3071 C 0.81578 0.60798 0.50391 0.0
C3072 C 0.81444 0.58787 0.48613 0.0
H3073 H 0.69384 0.59575 0.60218 0.0
H3074 H 0.7246 0.58747 0.57123 0.0
C3075 C 0.83283 0.58392 0.46968 0.0
C3076 C 0.79773 0.61039 0.52385 0.0
H3077 H 0.76972 0.5788 0.5711 0.0
C3078 C 0.787 0.63327 0.52698 0.0
C3079 C 0.79153 0.59056 0.54025 0.0
C3080 C 0.80363 0.5661 0.53963 0.0
C3081 C 0.76999 0.63675 0.54544 0.0
C3082 C 0.76367 0.61688 0.56169 0.0
C3083 C 0.77433 0.59396 0.55856 0.0
C3084 C 0.74657 0.61985 0.58246 0.0
C3085 C 0.75878 0.6617 0.5471 0.0
C3086 C 0.75005 0.63912 0.60091 0.0
C3087 C 0.73328 0.64315 0.6192 0.0
C3088 C 0.71246 0.62812 0.61948 0.0
C3089 C 0.70939 0.60801 0.60191 0.0
C3090 C 0.72672 0.60352 0.58404 0.0
H3091 H 0.76058 0.67212 0.52916 0.0
H3092 H 0.73994 0.65932 0.55135 0.0
H3093 H 0.76759 0.6734 0.56254 0.0
H3094 H 0.76571 0.65125 0.60109 0.0
H3095 H 0.73631 0.6587 0.63267 0.0
H3096 H 0.57396 0.67888 0.59915 0.0
H3097 H 0.54196 0.70687 0.60541 0.0
H3098 H 0.50806 0.65305 0.65362 0.0
H3099 H 0.53929 0.624 0.64557 0.0
H3100 H 0.49138 0.69756 0.59582 0.0
H3101 H 0.5171 0.72282 0.6943 0.0
H3102 H 0.53029 0.69717 0.67801 0.0
H3103 H 0.50343 0.69208 0.69438 0.0
C3104 C 0.55991 0.67317 0.61147 0.0
C3105 C 0.55949 0.64937 0.62229 0.0
C3106 C 0.54152 0.68929 0.61509 0.0
C3107 C 0.5227 0.68262 0.63065 0.0
C3108 C 0.52244 0.65893 0.64181 0.0
H3109 H 0.40405 0.75389 0.69423 0.0
H3110 H 0.43644 0.729 0.68294 0.0
C3111 C 0.5404 0.64237 0.63736 0.0
C3112 C 0.50326 0.70015 0.63496 0.0
H3113 H 0.47782 0.73533 0.68087 0.0
C3114 C 0.48832 0.70582 0.61444 0.0
C3115 C 0.49899 0.71089 0.65921 0.0
C3116 C 0.51352 0.70544 0.68256 0.0
C3117 C 0.46884 0.72087 0.61768 0.0
C3118 C 0.46474 0.73202 0.64197 0.0
C3119 C 0.48035 0.72695 0.6622 0.0
C3120 C 0.44387 0.7476 0.64764 0.0
C3121 C 0.45241 0.72354 0.59514 0.0
C3122 C 0.43637 0.76685 0.63177 0.0
C3123 C 0.41682 0.78084 0.63788 0.0
C3124 C 0.40466 0.77663 0.66049 0.0
C3125 C 0.41269 0.75795 0.6766 0.0
C3126 C 0.43158 0.74357 0.67015 0.0
H3127 H 0.45368 0.70788 0.58104 0.0
H3128 H 0.43399 0.72404 0.6011 0.0
H3129 H 0.45717 0.74114 0.58537 0.0
H3130 H 0.44569 0.77142 0.61475 0.0
H3131 H 0.41143 0.79515 0.62505 0.0
H3132 H 0.38493 0.64801 0.25173 0.0
H3133 H 0.38769 0.61074 0.27708 0.0
H3134 H 0.35192 0.56665 0.21723 0.0
H3135 H 0.34905 0.60405 0.19141 0.0
H3136 H 0.33377 0.5562 0.26293 0.0
H3137 H 0.42962 0.55286 0.27182 0.0
H3138 H 0.42018 0.58304 0.28146 0.0
H3139 H 0.41547 0.57211 0.24892 0.0
C3140 C 0.37805 0.6303 0.24359 0.0
C3141 C 0.36693 0.62912 0.21932 0.0
C3142 C 0.37974 0.60888 0.25817 0.0
C3143 C 0.37042 0.58557 0.24896 0.0
C3144 C 0.35955 0.58423 0.22462 0.0
H3145 H 0.40385 0.45653 0.3406 0.0
H3146 H 0.40054 0.48635 0.3064 0.0
C3147 C 0.35806 0.60567 0.2098 0.0
C3148 C 0.37106 0.56315 0.26545 0.0
H3149 H 0.40776 0.53112 0.30358 0.0
C3150 C 0.34998 0.55046 0.27156 0.0
C3151 C 0.39218 0.55516 0.2764 0.0
C3152 C 0.41565 0.56634 0.26909 0.0
C3153 C 0.34936 0.53092 0.28915 0.0
C3154 C 0.37037 0.52414 0.30156 0.0
C3155 C 0.39151 0.53622 0.29453 0.0
C3156 C 0.37104 0.50479 0.32185 0.0
C3157 C 0.32612 0.51775 0.29408 0.0
C3158 C 0.35608 0.50538 0.34271 0.0
C3159 C 0.3579 0.48814 0.36232 0.0
C3160 C 0.37481 0.46991 0.36171 0.0
C3161 C 0.38979 0.46937 0.34098 0.0
C3162 C 0.38806 0.48669 0.3215 0.0
H3163 H 0.31369 0.51922 0.27772 0.0
H3164 H 0.3281 0.49764 0.29795 0.0
H3165 H 0.31816 0.52678 0.31076 0.0
H3166 H 0.34367 0.51988 0.34458 0.0
H3167 H 0.34674 0.48978 0.37856 0.0
H3168 H 0.30858 0.72075 0.09507 0.0
H3169 H 0.27334 0.71793 0.06802 0.0
H3170 H 0.27786 0.63771 0.06248 0.0
H3171 H 0.31216 0.64039 0.09115 0.0
H3172 H 0.26005 0.70669 0.02458 0.0
H3173 H 0.21328 0.63728 0.08234 0.0
H3174 H 0.2412 0.65129 0.09262 0.0
H3175 H 0.23942 0.62402 0.07151 0.0
C3176 C 0.30226 0.70249 0.0878 0.0
C3177 C 0.31342 0.6808 0.09514 0.0
C3178 C 0.28193 0.70088 0.07235 0.0
C3179 C 0.2722 0.67752 0.06364 0.0
C3180 C 0.28416 0.65594 0.06976 0.0
H3181 H 0.18097 0.60922 0.95907 0.0
H3182 H 0.21059 0.62871 0.98759 0.0
C3183 C 0.30427 0.65751 0.08564 0.0
C3184 C 0.24973 0.67581 0.04818 0.0
H3185 H 0.19877 0.64062 0.03897 0.0
C3186 C 0.24654 0.69243 0.02812 0.0
C3187 C 0.23129 0.65811 0.05313 0.0
C3188 C 0.23137 0.64194 0.07629 0.0
C3189 C 0.22646 0.69067 0.01198 0.0
C3190 C 0.20957 0.67087 0.01501 0.0
C3191 C 0.21195 0.65545 0.03612 0.0
C3192 C 0.19214 0.66225 0.99463 0.0
C3193 C 0.22416 0.71011 0.99193 0.0
C3194 C 0.17155 0.67467 0.98872 0.0
C3195 C 0.15419 0.66329 0.97196 0.0
C3196 C 0.15723 0.63932 0.96117 0.0
C3197 C 0.17833 0.62788 0.9664 0.0
C3198 C 0.1953 0.63897 0.98292 0.0
H3199 H 0.22523 0.729 1.00126 0.0
H3200 H 0.23917 0.70942 0.97901 0.0
H3201 H 0.20756 0.70812 0.9807 0.0
H3202 H 0.16841 0.69246 0.99796 0.0
H3203 H 0.1379 0.67237 0.96892 0.0
H3204 H 0.09443 0.56207 0.85732 0.0
H3205 H 0.09735 0.52981 0.82441 0.0
H3206 H 0.16806 0.51773 0.84884 0.0
H3207 H 0.1647 0.54919 0.88336 0.0
H3208 H 0.16429 0.51855 0.79734 0.0
H3209 H 0.09425 0.45525 0.83256 0.0
H3210 H 0.08439 0.48611 0.82761 0.0
H3211 H 0.10686 0.48142 0.85131 0.0
C3212 C 0.11086 0.55307 0.85532 0.0
C3213 C 0.12949 0.55854 0.87269 0.0
C3214 C 0.11241 0.53433 0.83651 0.0
C3215 C 0.13283 0.52108 0.83393 0.0
C3216 C 0.15202 0.52751 0.8504 0.0
H3217 H 0.17445 0.40954 0.71994 0.0
H3218 H 0.17387 0.44215 0.75283 0.0
C3219 C 0.1502 0.54571 0.86992 0.0
C3220 C 0.13411 0.50088 0.81382 0.0
H3221 H 0.10691 0.44651 0.79074 0.0
C3222 C 0.15144 0.50308 0.79557 0.0
C3223 C 0.11801 0.48 0.81204 0.0
C3224 C 0.09999 0.47535 0.83207 0.0
C3225 C 0.15212 0.4863 0.77455 0.0
C3226 C 0.13588 0.4653 0.77247 0.0
C3227 C 0.11912 0.46261 0.79155 0.0
C3228 C 0.13628 0.44548 0.75151 0.0
C3229 C 0.16993 0.49225 0.75466 0.0
C3230 C 0.11533 0.4347 0.74034 0.0
C3231 C 0.11566 0.41482 0.72229 0.0
C3232 C 0.13697 0.40589 0.71425 0.0
C3233 C 0.15781 0.41686 0.72493 0.0
C3234 C 0.15746 0.43579 0.74375 0.0
H3235 H 0.17345 0.51278 0.75342 0.0
H3236 H 0.18669 0.48401 0.7601 0.0
H3237 H 0.16417 0.48497 0.73557 0.0
H3238 H 0.09859 0.44131 0.74589 0.0
H3239 H 0.09931 0.40621 0.71492 0.0
H3240 H 0.19306 0.39351 0.58605 0.0
H3241 H 0.22399 0.39858 0.55525 0.0
H3242 H 0.2481 0.32574 0.57304 0.0
H3243 H 0.21705 0.32047 0.60375 0.0
H3244 H 0.26947 0.40112 0.56408 0.0
H3245 H 0.25082 0.32019 0.49789 0.0
H3246 H 0.23124 0.32777 0.52292 0.0
H3247 H 0.25692 0.31091 0.52983 0.0
C3248 C 0.20461 0.37831 0.58302 0.0
C3249 C 0.20242 0.35653 0.59736 0.0
C3250 C 0.22242 0.38126 0.56536 0.0
C3251 C 0.23835 0.3624 0.56124 0.0
C3252 C 0.23579 0.34035 0.57513 0.0
H3253 H 0.36039 0.36463 0.45887 0.0
H3254 H 0.33112 0.35048 0.48975 0.0
C3255 C 0.218 0.3374 0.59286 0.0
C3256 C 0.25858 0.36681 0.54406 0.0
H3257 H 0.28697 0.34312 0.493 0.0
C3258 C 0.27301 0.38854 0.54828 0.0
C3259 C 0.26408 0.34998 0.52402 0.0
C3260 C 0.24982 0.32602 0.51826 0.0
C3261 C 0.29216 0.39425 0.53285 0.0
C3262 C 0.29669 0.37834 0.51168 0.0
C3263 C 0.28314 0.35587 0.5084 0.0
C3264 C 0.314 0.38575 0.49184 0.0
C3265 C 0.30766 0.41704 0.54004 0.0
C3266 C 0.31358 0.40967 0.48153 0.0
C3267 C 0.32976 0.41746 0.46367 0.0
C3268 C 0.34727 0.40174 0.45555 0.0
C3269 C 0.3471 0.37719 0.46461 0.0
C3270 C 0.33052 0.36923 0.48253 0.0
H3271 H 0.3084 0.42028 0.56103 0.0
H3272 H 0.32576 0.41523 0.53342 0.0
H3273 H 0.30024 0.4338 0.53152 0.0
H3274 H 0.3008 0.4227 0.48749 0.0
H3275 H 0.32907 0.43638 0.4569 0.0
H3276 H 0.32206 0.40516 0.28923 0.0
H3277 H 0.32398 0.43614 0.25601 0.0
H3278 H 0.39639 0.45356 0.27655 0.0
H3279 H 0.39474 0.4216 0.30877 0.0
H3280 H 0.32753 0.48007 0.25106 0.0
H3281 H 0.40759 0.45028 0.20586 0.0
H3282 H 0.39454 0.43274 0.23099 0.0
H3283 H 0.41464 0.45921 0.23823 0.0
C3284 C 0.33838 0.41578 0.28683 0.0
C3285 C 0.35818 0.41108 0.30206 0.0
C3286 C 0.3395 0.43364 0.26768 0.0
C3287 C 0.36044 0.4475 0.26314 0.0
C3288 C 0.38006 0.44308 0.27884 0.0
H3289 H 0.39515 0.57149 0.16145 0.0
H3290 H 0.39153 0.54447 0.19843 0.0
C3291 C 0.37902 0.42501 0.2978 0.0
C3292 C 0.36146 0.46667 0.24242 0.0
H3293 H 0.39532 0.49073 0.19502 0.0
C3294 C 0.34243 0.48215 0.23887 0.0
C3295 C 0.38051 0.46951 0.22567 0.0
C3296 C 0.40027 0.45182 0.2252 0.0
C3297 C 0.34198 0.50011 0.21966 0.0
C3298 C 0.36152 0.5037 0.204 0.0
C3299 C 0.3806 0.48852 0.2075 0.0
C3300 C 0.36206 0.5219 0.18276 0.0
C3301 C 0.32027 0.51461 0.21586 0.0
C3302 C 0.3466 0.51848 0.16166 0.0
C3303 C 0.34878 0.53375 0.14042 0.0
C3304 C 0.36632 0.55305 0.1398 0.0
C3305 C 0.38112 0.55721 0.16144 0.0
C3306 C 0.37925 0.54154 0.18249 0.0
H3307 H 0.30941 0.51462 0.23305 0.0
H3308 H 0.32457 0.53421 0.21073 0.0
H3309 H 0.30952 0.50567 0.19999 0.0
H3310 H 0.33351 0.50321 0.16106 0.0
H3311 H 0.33734 0.52973 0.12395 0.0
H3312 H 0.33456 0.57504 0.01369 0.0
H3313 H 0.3067 0.58875 0.98313 0.0
H3314 H 0.3071 0.66103 0.02161 0.0
H3315 H 0.33836 0.64812 0.05072 0.0
H3316 H 0.26718 0.59582 0.98546 0.0
H3317 H 0.30261 0.68798 0.95534 0.0
H3318 H 0.31955 0.66818 0.97505 0.0
H3319 H 0.29824 0.68792 0.98895 0.0
C3320 C 0.32907 0.59405 0.01588 0.0
C3321 C 0.33843 0.61022 0.03556 0.0
C3322 C 0.31272 0.60189 0.99815 0.0
C3323 C 0.304 0.62593 0.99982 0.0
C3324 C 0.31345 0.64244 0.01928 0.0
H3325 H 0.18896 0.69357 0.92185 0.0
H3326 H 0.22104 0.68111 0.9492 0.0
C3327 C 0.33097 0.63488 0.03649 0.0
C3328 C 0.28433 0.63228 0.98179 0.0
H3329 H 0.26335 0.67699 0.94294 0.0
C3330 C 0.26677 0.61355 0.97592 0.0
C3331 C 0.2832 0.65531 0.96907 0.0
C3332 C 0.30205 0.67586 0.97222 0.0
C3333 C 0.24873 0.61673 0.95784 0.0
C3334 C 0.24687 0.6402 0.94612 0.0
C3335 C 0.26426 0.6591 0.95211 0.0
C3336 C 0.22653 0.64644 0.92906 0.0
C3337 C 0.23226 0.5944 0.95186 0.0
C3338 C 0.21856 0.63115 0.90807 0.0
C3339 C 0.19948 0.63787 0.89268 0.0
C3340 C 0.18855 0.66046 0.89739 0.0
C3341 C 0.19663 0.67576 0.9181 0.0
C3342 C 0.21523 0.66879 0.93364 0.0
H3343 H 0.22953 0.58293 0.96898 0.0
H3344 H 0.21506 0.59952 0.94446 0.0
H3345 H 0.2402 0.58239 0.93722 0.0
H3346 H 0.22736 0.6143 0.90318 0.0
H3347 H 0.19423 0.62618 0.87621 0.0
H3348 H 0.07289 0.44872 0.65496 0.0
H3349 H 0.07528 0.48082 0.68862 0.0
H3350 H 0.14948 0.47158 0.69687 0.0
H3351 H 0.14719 0.43989 0.66261 0.0
H3352 H 0.08468 0.48391 0.73488 0.0
H3353 H 0.15181 0.54449 0.69028 0.0
H3354 H 0.13865 0.51709 0.67413 0.0
H3355 H 0.16263 0.51436 0.69663 0.0
C3356 C 0.0897 0.45321 0.66428 0.0
C3357 C 0.10986 0.44169 0.65612 0.0
C3358 C 0.09107 0.47175 0.68352 0.0
C3359 C 0.11265 0.47933 0.69518 0.0
C3360 C 0.13267 0.46684 0.68793 0.0
H3361 H 0.16012 0.5895 0.80968 0.0
H3362 H 0.15396 0.55488 0.77907 0.0
C3363 C 0.1313 0.44826 0.66856 0.0
C3364 C 0.11381 0.50007 0.71492 0.0
H3365 H 0.14283 0.5551 0.73293 0.0
C3366 C 0.09743 0.4995 0.73438 0.0
C3367 C 0.1299 0.52092 0.71409 0.0
C3368 C 0.14654 0.52443 0.6925 0.0
C3369 C 0.097 0.51851 0.75332 0.0
C3370 C 0.11409 0.53867 0.75348 0.0
C3371 C 0.13011 0.53949 0.73355 0.0
C3372 C 0.11669 0.55875 0.77401 0.0
C3373 C 0.07791 0.51586 0.77243 0.0
C3374 C 0.09802 0.5734 0.78127 0.0
C3375 C 0.10151 0.59313 0.79936 0.0
C3376 C 0.12394 0.59933 0.80974 0.0
C3377 C 0.14254 0.58482 0.80248 0.0
C3378 C 0.13897 0.56491 0.7849 0.0
H3379 H 0.07785 0.49695 0.78067 0.0
H3380 H 0.07904 0.52988 0.78804 0.0
H3381 H 0.06075 0.51731 0.7624 0.0
H3382 H 0.08089 0.57017 0.77232 0.0
H3383 H 0.08701 0.60457 0.80389 0.0
H3384 H 0.16051 0.35191 0.54071 0.0
H3385 H 0.19575 0.34572 0.51603 0.0
H3386 H 0.19184 0.42038 0.48737 0.0
H3387 H 0.15814 0.42705 0.51345 0.0
H3388 H 0.20357 0.34333 0.46911 0.0
H3389 H 0.25778 0.42573 0.50321 0.0
H3390 H 0.23012 0.41807 0.51709 0.0
H3391 H 0.23157 0.43587 0.48842 0.0
C3392 C 0.16759 0.36707 0.52952 0.0
C3393 C 0.15647 0.38984 0.52869 0.0
C3394 C 0.18772 0.36357 0.5153 0.0
C3395 C 0.19719 0.38281 0.50016 0.0
C3396 C 0.18579 0.40548 0.49947 0.0
H3397 H 0.31155 0.39079 0.39002 0.0
H3398 H 0.27844 0.40081 0.41676 0.0
C3399 C 0.16606 0.4091 0.51396 0.0
C3400 C 0.21797 0.37881 0.48393 0.0
H3401 H 0.26888 0.40659 0.46365 0.0
C3402 C 0.21817 0.35693 0.46857 0.0
C3403 C 0.23692 0.39676 0.48231 0.0
C3404 C 0.23915 0.42026 0.49885 0.0
C3405 C 0.23655 0.35244 0.45199 0.0
C3406 C 0.25568 0.37017 0.45082 0.0
C3407 C 0.25492 0.39251 0.46522 0.0
C3408 C 0.27706 0.36534 0.43588 0.0
C3409 C 0.23465 0.32913 0.43516 0.0
C3410 C 0.28843 0.34287 0.43872 0.0
C3411 C 0.30754 0.33742 0.424 0.0
C3412 C 0.31588 0.35416 0.40567 0.0
C3413 C 0.3057 0.37751 0.40401 0.0
C3414 C 0.28653 0.38309 0.41908 0.0
H3415 H 0.21609 0.32326 0.43088 0.0
H3416 H 0.24357 0.33191 0.41685 0.0
H3417 H 0.2427 0.31359 0.44526 0.0
H3418 H 0.28216 0.32902 0.45188 0.0
H3419 H 0.31506 0.31935 0.42606 0.0
H3420 H 0.44338 0.3424 0.4409 0.0
H3421 H 0.47553 0.31428 0.43607 0.0
H3422 H 0.48287 0.33679 0.35817 0.0
H3423 H 0.44939 0.36305 0.36246 0.0
H3424 H 0.49161 0.29336 0.35753 0.0
H3425 H 0.54198 0.32937 0.4422 0.0
H3426 H 0.51437 0.31624 0.45166 0.0
H3427 H 0.51554 0.34329 0.43171 0.0
C3428 C 0.45162 0.3409 0.42262 0.0
C3429 C 0.44373 0.3548 0.40202 0.0
C3430 C 0.47043 0.32519 0.41998 0.0
C3431 C 0.48265 0.32391 0.39703 0.0
C3432 C 0.47419 0.33735 0.37624 0.0
H3433 H 0.60241 0.24689 0.33871 0.0
H3434 H 0.56862 0.2719 0.34494 0.0
C3435 C 0.45484 0.35232 0.37861 0.0
C3436 C 0.50359 0.30805 0.39426 0.0
H3437 H 0.55485 0.29188 0.42313 0.0
C3438 C 0.50503 0.29278 0.37225 0.0
C3439 C 0.52214 0.30777 0.41272 0.0
C3440 C 0.52357 0.32527 0.43572 0.0
C3441 C 0.52317 0.27631 0.36881 0.0
C3442 C 0.54168 0.2759 0.38727 0.0
C3443 C 0.54065 0.29162 0.40907 0.0
C3444 C 0.5628 0.26058 0.38373 0.0
C3445 C 0.52163 0.25928 0.34541 0.0
C3446 C 0.57224 0.24678 0.40382 0.0
C3447 C 0.59247 0.2332 0.40053 0.0
C3448 C 0.60368 0.23319 0.37709 0.0
C3449 C 0.59423 0.24672 0.35706 0.0
C3450 C 0.57447 0.26066 0.36048 0.0
H3451 H 0.53057 0.24166 0.34835 0.0
H3452 H 0.50314 0.25445 0.33971 0.0
H3453 H 0.52966 0.26918 0.32926 0.0
H3454 H 0.56409 0.2466 0.42214 0.0
H3455 H 0.59955 0.22313 0.41638 0.0
loop_
_geom_bond_atom_site_label_1
_geom_bond_atom_site_label_2
_geom_bond_distance
_geom_bond_site_symmetry_2
_ccdc_geom_bond_type
Mn0 O5 2.095 . S
Mn0 O15 2.162 . S
Mn0 O16 2.297 . S
Mn0 O24 2.385 . S
Mn0 O25 2.209 . S
Mn0 O26 2.094 . S
Mn1 O6 2.121 . S
Mn1 N8 2.257 . S
Mn1 N17 2.282 . S
Mn1 O25 2.215 . S
Mn1 O27 2.117 . S
C2 O24 1.234 . S
C2 O25 1.283 . S
C3 O15 1.281 . S
C3 O16 1.236 . S
C4 O26 1.240 . S
C4 O27 1.264 . S
O5 Mn0 2.095 . S
O5 C14 1.250 . S
O6 Mn1 2.121 . S
O6 C14 1.258 . S
C7 N8 1.337 . S
C7 C11 1.440 1_545 S
C7 H13 0.939 . S
N8 Mn1 2.257 . S
N8 C7 1.337 . S
N8 C12 1.362 . S
C9 C10 1.258 . S
C9 C12 1.431 1_565 S
C9 C29 1.449 . S
C10 C9 1.258 . S
C10 C11 1.477 . S
C10 H30 0.931 . S
C11 C7 1.440 1_565 S
C11 C10 1.477 . S
C11 H31 0.930 . S
C12 N8 1.362 . S
C12 C9 1.431 1_545 S
C12 C22 1.476 . S
H13 C7 0.939 . S
C14 O5 1.250 . S
C14 O6 1.258 . S
O15 Mn0 2.162 . S
O15 C3 1.281 . S
O16 Mn0 2.297 . S
O16 C3 1.236 . S
N17 Mn1 2.282 . S
N17 C18 1.328 . S
N17 C22 1.318 . S
C18 N17 1.328 . S
C18 C19 1.457 1_554 S
C18 H23 0.929 . S
C19 C18 1.457 1_556 S
C19 C20 1.291 . S
C19 H32 0.931 . S
C20 C19 1.291 . S
C20 C21 1.373 1_556 S
C20 H33 0.929 . S
C21 C20 1.373 1_554 S
C21 C22 1.396 . S
C21 C28 1.403 1_545 S
C22 C12 1.476 . S
C22 N17 1.318 . S
C22 C21 1.396 . S
H23 C18 0.929 . S
O24 Mn0 2.385 . S
O24 C2 1.234 . S
O25 Mn0 2.209 . S
O25 Mn1 2.215 . S
O25 C2 1.283 . S
O26 Mn0 2.094 . S
O26 C4 1.240 . S
O27 Mn1 2.117 . S
O27 C4 1.264 . S
C28 C21 1.403 1_565 S
C28 C29 1.399 . S
C28 H34 0.929 1_554 S
C29 C9 1.449 . S
C29 C28 1.399 . S
C29 H35 0.930 . S
H30 C10 0.931 . S
H31 C11 0.930 . S
H32 C19 0.931 . S
H33 C20 0.929 . S
H34 C28 0.929 1_556 S
H35 C29 0.930 . S
Mn36 O41 2.095 . S
Mn36 O51 2.162 . S
Mn36 O52 2.297 . S
Mn36 O60 2.385 . S
Mn36 O61 2.209 . S
Mn36 O62 2.094 . S
Mn37 O42 2.121 . S
Mn37 N44 2.257 . S
Mn37 N53 2.282 . S
Mn37 O61 2.215 . S
Mn37 O63 2.117 . S
C38 O60 1.234 . S
C38 O61 1.283 . S
C39 O51 1.281 . S
C39 O52 1.236 . S
C40 O62 1.240 . S
C40 O63 1.264 . S
O41 Mn36 2.095 . S
O41 C50 1.250 . S
O42 Mn37 2.121 . S
O42 C50 1.258 . S
C43 N44 1.326 . S
C43 C47 1.460 . S
C43 H49 0.929 . S
N44 Mn37 2.257 . S
N44 C43 1.326 . S
N44 C48 1.362 . S
C45 C46 1.258 . S
C45 C48 1.431 . S
C45 C65 1.449 . S
C46 C45 1.258 . S
C46 C47 1.477 . S
C46 H66 0.931 . S
C47 C43 1.460 . S
C47 C46 1.477 . S
C47 H67 0.930 . S
C48 N44 1.362 . S
C48 C45 1.431 . S
C48 C58 1.476 . S
H49 C43 0.929 . S
C50 O41 1.250 . S
C50 O42 1.258 . S
O51 Mn36 2.162 . S
O51 C39 1.281 . S
O52 Mn36 2.297 . S
O52 C39 1.236 . S
N53 Mn37 2.282 . S
N53 C54 1.328 . S
N53 C58 1.318 . S
C54 N53 1.328 . S
C54 C55 1.457 . S
C54 H59 0.929 . S
C55 C54 1.457 . S
C55 C56 1.291 . S
C55 H68 0.931 . S
C56 C55 1.291 . S
C56 C57 1.373 . S
C56 H69 0.929 . S
C57 C56 1.373 . S
C57 C58 1.396 . S
C57 C64 1.403 . S
C58 C48 1.476 . S
C58 N53 1.318 . S
C58 C57 1.396 . S
H59 C54 0.929 . S
O60 Mn36 2.385 . S
O60 C38 1.234 . S
O61 Mn36 2.209 . S
O61 Mn37 2.215 . S
O61 C38 1.283 . S
O62 Mn36 2.094 . S
O62 C40 1.240 . S
O63 Mn37 2.117 . S
O63 C40 1.264 . S
C64 C57 1.403 . S
C64 C65 1.399 . S
C64 H70 0.929 . S
C65 C45 1.449 . S
C65 C64 1.399 . S
C65 H71 0.930 . S
H66 C46 0.931 . S
H67 C47 0.930 . S
H68 C55 0.931 . S
H69 C56 0.929 . S
H70 C64 0.929 . S
H71 C65 0.930 . S
Mn72 O77 2.095 . S
Mn72 O87 2.162 . S
Mn72 O88 2.297 . S
Mn72 O96 2.385 . S
Mn72 O97 2.209 . S
Mn72 O98 2.094 . S
Mn73 O78 2.121 . S
Mn73 N80 2.257 . S
Mn73 N89 2.282 . S
Mn73 O97 2.215 . S
Mn73 O99 2.117 . S
C74 O96 1.234 . S
C74 O97 1.283 . S
C75 O87 1.281 . S
C75 O88 1.236 . S
C76 O98 1.240 . S
C76 O99 1.264 . S
O77 Mn72 2.095 . S
O77 C86 1.250 . S
O78 Mn73 2.121 . S
O78 C86 1.258 . S
C79 N80 1.326 . S
C79 C83 1.460 1_565 S
C79 H85 0.929 . S
N80 Mn73 2.257 . S
N80 C79 1.326 . S
N80 C84 1.362 . S
C81 C82 1.261 . S
C81 C84 1.425 1_545 S
C81 C101 1.451 . S
C82 C81 1.261 . S
C82 C83 1.477 . S
C82 H102 0.931 . S
C83 C79 1.460 1_545 S
C83 C82 1.477 . S
C83 H103 0.930 . S
C84 N80 1.362 . S
C84 C81 1.425 1_565 S
C84 C94 1.476 . S
H85 C79 0.929 . S
C86 O77 1.250 . S
C86 O78 1.258 . S
O87 Mn72 2.162 . S
O87 C75 1.281 . S
O88 Mn72 2.297 . S
O88 C75 1.236 . S
N89 Mn73 2.282 . S
N89 C90 1.328 . S
N89 C94 1.318 . S
C90 N89 1.328 . S
C90 C91 1.457 . S
C90 H95 0.929 . S
C91 C90 1.457 . S
C91 C92 1.291 . S
C91 H104 0.931 . S
C92 C91 1.291 . S
C92 C93 1.373 . S
C92 H105 0.929 . S
C93 C92 1.373 . S
C93 C94 1.396 . S
C93 C100 1.403 . S
C94 C84 1.476 . S
C94 N89 1.318 . S
C94 C93 1.396 . S
H95 C90 0.929 . S
O96 Mn72 2.385 . S
O96 C74 1.234 . S
O97 Mn72 2.209 . S
O97 Mn73 2.215 . S
O97 C74 1.283 . S
O98 Mn72 2.094 . S
O98 C76 1.240 . S
O99 Mn73 2.117 . S
O99 C76 1.264 . S
C100 C93 1.403 . S
C100 C101 1.399 1_565 S
C100 H106 0.929 1_565 S
C101 C81 1.451 . S
C101 C100 1.399 1_545 S
C101 H107 0.930 . S
H102 C82 0.931 . S
H103 C83 0.930 . S
H104 C91 0.931 . S
H105 C92 0.929 . S
H106 C100 0.929 1_545 S
H107 C101 0.930 . S
Mn108 O113 2.095 . S
Mn108 O123 2.162 . S
Mn108 O124 2.297 . S
Mn108 O132 2.385 . S
Mn108 O133 2.209 . S
Mn108 O134 2.094 . S
Mn109 O114 2.121 . S
Mn109 N116 2.257 . S
Mn109 N125 2.282 . S
Mn109 O133 2.215 . S
Mn109 O135 2.117 . S
C110 O132 1.234 . S
C110 O133 1.283 . S
C111 O123 1.281 . S
C111 O124 1.236 . S
C112 O134 1.240 . S
C112 O135 1.264 . S
O113 Mn108 2.095 . S
O113 C122 1.250 . S
O114 Mn109 2.121 . S
O114 C122 1.258 . S
C115 N116 1.326 . S
C115 C119 1.460 . S
C115 H121 0.929 . S
N116 Mn109 2.257 . S
N116 C115 1.326 . S
N116 C120 1.362 . S
C117 C118 1.258 . S
C117 C120 1.431 . S
C117 C137 1.449 . S
C118 C117 1.258 . S
C118 C119 1.477 . S
C118 H138 0.931 . S
C119 C115 1.460 . S
C119 C118 1.477 . S
C119 H139 0.930 . S
C120 N116 1.362 . S
C120 C117 1.431 . S
C120 C130 1.476 . S
H121 C115 0.929 . S
C122 O113 1.250 . S
C122 O114 1.258 . S
O123 Mn108 2.162 . S
O123 C111 1.281 . S
O124 Mn108 2.297 . S
O124 C111 1.236 . S
N125 Mn109 2.282 . S
N125 C126 1.328 . S
N125 C130 1.318 . S
C126 N125 1.328 . S
C126 C127 1.457 . S
C126 H131 0.929 . S
C127 C126 1.457 . S
C127 C128 1.291 . S
C127 H140 0.931 . S
C128 C127 1.291 . S
C128 C129 1.373 . S
C128 H141 0.929 . S
C129 C128 1.373 . S
C129 C130 1.396 . S
C129 C136 1.403 . S
C130 C120 1.476 . S
C130 N125 1.318 . S
C130 C129 1.396 . S
H131 C126 0.929 . S
O132 Mn108 2.385 . S
O132 C110 1.234 . S
O133 Mn108 2.209 . S
O133 Mn109 2.215 . S
O133 C110 1.283 . S
O134 Mn108 2.094 . S
O134 C112 1.240 . S
O135 Mn109 2.117 . S
O135 C112 1.264 . S
C136 C129 1.403 . S
C136 C137 1.399 . S
C136 H142 0.929 . S
C137 C117 1.449 . S
C137 C136 1.399 . S
C137 H143 0.930 . S
H138 C118 0.931 . S
H139 C119 0.930 . S
H140 C127 0.931 . S
H141 C128 0.929 . S
H142 C136 0.929 . S
H143 C137 0.930 . S
Mn144 O149 2.095 . S
Mn144 O159 2.162 . S
Mn144 O160 2.297 . S
Mn144 O168 2.385 . S
Mn144 O169 2.209 . S
Mn144 O170 2.094 . S
Mn145 O150 2.121 . S
Mn145 N152 2.257 . S
Mn145 N161 2.282 . S
Mn145 O169 2.215 . S
Mn145 O171 2.117 . S
C146 O168 1.234 . S
C146 O169 1.283 . S
C147 O159 1.281 . S
C147 O160 1.236 . S
C148 O170 1.240 . S
C148 O171 1.264 . S
O149 Mn144 2.095 . S
O149 C158 1.250 . S
O150 Mn145 2.121 . S
O150 C158 1.258 . S
C151 N152 1.326 . S
C151 C155 1.460 . S
C151 H157 0.929 . S
N152 Mn145 2.257 . S
N152 C151 1.326 . S
N152 C156 1.362 . S
C153 C154 1.258 . S
C153 C156 1.431 . S
C153 C173 1.449 . S
C154 C153 1.258 . S
C154 C155 1.477 . S
C154 H174 0.931 . S
C155 C151 1.460 . S
C155 C154 1.477 . S
C155 H175 0.930 . S
C156 N152 1.362 . S
C156 C153 1.431 . S
C156 C166 1.476 . S
H157 C151 0.929 . S
C158 O149 1.250 . S
C158 O150 1.258 . S
O159 Mn144 2.162 . S
O159 C147 1.281 . S
O160 Mn144 2.297 . S
O160 C147 1.236 . S
N161 Mn145 2.282 . S
N161 C162 1.328 . S
N161 C166 1.318 . S
C162 N161 1.328 . S
C162 C163 1.457 1_455 S
C162 H167 0.929 . S
C163 C162 1.457 1_655 S
C163 C164 1.291 . S
C163 H176 0.931 . S
C164 C163 1.291 . S
C164 C165 1.373 1_655 S
C164 H177 0.929 . S
C165 C164 1.373 1_455 S
C165 C166 1.396 . S
C165 C172 1.403 . S
C166 C156 1.476 . S
C166 N161 1.318 . S
C166 C165 1.396 . S
H167 C162 0.929 . S
O168 Mn144 2.385 . S
O168 C146 1.234 . S
O169 Mn144 2.209 . S
O169 Mn145 2.215 . S
O169 C146 1.283 . S
O170 Mn144 2.094 . S
O170 C148 1.240 . S
O171 Mn145 2.117 . S
O171 C148 1.264 . S
C172 C165 1.403 . S
C172 C173 1.399 . S
C172 H178 0.929 1_455 S
C173 C153 1.449 . S
C173 C172 1.399 . S
C173 H179 0.930 . S
H174 C154 0.931 . S
H175 C155 0.930 . S
H176 C163 0.931 . S
H177 C164 0.929 . S
H178 C172 0.929 1_655 S
H179 C173 0.930 . S
Mn180 O185 2.095 . S
Mn180 O195 2.162 . S
Mn180 O196 2.297 . S
Mn180 O204 2.385 . S
Mn180 O205 2.209 . S
Mn180 O206 2.094 . S
Mn181 O186 2.121 . S
Mn181 N188 2.257 . S
Mn181 N197 2.282 . S
Mn181 O205 2.215 . S
Mn181 O207 2.117 . S
C182 O204 1.234 . S
C182 O205 1.283 . S
C183 O195 1.281 . S
C183 O196 1.236 . S
C184 O206 1.240 . S
C184 O207 1.264 . S
O185 Mn180 2.095 . S
O185 C194 1.250 . S
O186 Mn181 2.121 . S
O186 C194 1.258 . S
C187 N188 1.326 . S
C187 C191 1.460 . S
C187 H193 0.929 . S
N188 Mn181 2.257 . S
N188 C187 1.326 . S
N188 C192 1.362 . S
C189 C190 1.258 . S
C189 C192 1.431 . S
C189 C209 1.449 . S
C190 C189 1.258 . S
C190 C191 1.477 . S
C190 H210 0.931 . S
C191 C187 1.460 . S
C191 C190 1.477 . S
C191 H211 0.930 . S
C192 N188 1.362 . S
C192 C189 1.431 . S
C192 C202 1.476 . S
H193 C187 0.929 . S
C194 O185 1.250 . S
C194 O186 1.258 . S
O195 Mn180 2.162 . S
O195 C183 1.281 . S
O196 Mn180 2.297 . S
O196 C183 1.236 . S
N197 Mn181 2.282 . S
N197 C198 1.328 . S
N197 C202 1.318 . S
C198 N197 1.328 . S
C198 C199 1.457 . S
C198 H203 0.929 . S
C199 C198 1.457 . S
C199 C200 1.291 . S
C199 H212 0.931 . S
C200 C199 1.291 . S
C200 C201 1.373 . S
C200 H213 0.929 . S
C201 C200 1.373 . S
C201 C202 1.396 . S
C201 C208 1.403 . S
C202 C192 1.476 . S
C202 N197 1.318 . S
C202 C201 1.396 . S
H203 C198 0.929 . S
O204 Mn180 2.385 . S
O204 C182 1.234 . S
O205 Mn180 2.209 . S
O205 Mn181 2.215 . S
O205 C182 1.283 . S
O206 Mn180 2.094 . S
O206 C184 1.240 . S
O207 Mn181 2.117 . S
O207 C184 1.264 . S
C208 C201 1.403 . S
C208 C209 1.399 . S
C208 H214 0.929 . S
C209 C189 1.449 . S
C209 C208 1.399 . S
C209 H215 0.930 . S
H210 C190 0.931 . S
H211 C191 0.930 . S
H212 C199 0.931 . S
H213 C200 0.929 . S
H214 C208 0.929 . S
H215 C209 0.930 . S
Mn216 O221 2.095 . S
Mn216 O231 2.162 . S
Mn216 O232 2.297 . S
Mn216 O240 2.385 . S
Mn216 O241 2.209 . S
Mn216 O242 2.094 . S
Mn217 O222 2.121 . S
Mn217 N224 2.257 . S
Mn217 N233 2.282 . S
Mn217 O241 2.215 . S
Mn217 O243 2.117 . S
C218 O240 1.234 . S
C218 O241 1.283 . S
C219 O231 1.281 . S
C219 O232 1.236 . S
C220 O242 1.240 . S
C220 O243 1.264 . S
O221 Mn216 2.095 . S
O221 C230 1.250 . S
O222 Mn217 2.121 . S
O222 C230 1.258 . S
C223 N224 1.326 . S
C223 C227 1.460 1_545 S
C223 H229 0.929 . S
N224 Mn217 2.257 . S
N224 C223 1.326 . S
N224 C228 1.362 . S
C225 C226 1.258 . S
C225 C228 1.431 1_565 S
C225 C245 1.449 . S
C226 C225 1.258 . S
C226 C227 1.477 . S
C226 H246 0.931 . S
C227 C223 1.460 1_565 S
C227 C226 1.477 . S
C227 H247 0.930 . S
C228 N224 1.362 . S
C228 C225 1.431 1_545 S
C228 C238 1.476 . S
H229 C223 0.929 . S
C230 O221 1.250 . S
C230 O222 1.258 . S
O231 Mn216 2.162 . S
O231 C219 1.281 . S
O232 Mn216 2.297 . S
O232 C219 1.236 . S
N233 Mn217 2.282 . S
N233 C234 1.328 . S
N233 C238 1.318 . S
C234 N233 1.328 . S
C234 C235 1.457 1_556 S
C234 H239 0.929 . S
C235 C234 1.457 1_554 S
C235 C236 1.291 . S
C235 H248 0.931 . S
C236 C235 1.291 . S
C236 C237 1.373 1_554 S
C236 H249 0.929 . S
C237 C236 1.373 1_556 S
C237 C238 1.396 . S
C237 C244 1.403 1_545 S
C238 C228 1.476 . S
C238 N233 1.318 . S
C238 C237 1.396 . S
H239 C234 0.929 . S
O240 Mn216 2.385 . S
O240 C218 1.234 . S
O241 Mn216 2.209 . S
O241 Mn217 2.215 . S
O241 C218 1.283 . S
O242 Mn216 2.094 . S
O242 C220 1.240 . S
O243 Mn217 2.117 . S
O243 C220 1.264 . S
C244 C237 1.403 1_565 S
C244 C245 1.399 . S
C244 H250 0.929 1_556 S
C245 C225 1.449 . S
C245 C244 1.399 . S
C245 H251 0.930 . S
H246 C226 0.931 . S
H247 C227 0.930 . S
H248 C235 0.931 . S
H249 C236 0.929 . S
H250 C244 0.929 1_554 S
H251 C245 0.930 . S
Mn252 O257 2.095 . S
Mn252 O267 2.162 . S
Mn252 O268 2.297 . S
Mn252 O276 2.385 . S
Mn252 O277 2.209 . S
Mn252 O278 2.094 . S
Mn253 O258 2.121 . S
Mn253 N260 2.257 . S
Mn253 N269 2.282 . S
Mn253 O277 2.215 . S
Mn253 O279 2.117 . S
C254 O276 1.234 . S
C254 O277 1.283 . S
C255 O267 1.281 . S
C255 O268 1.236 . S
C256 O278 1.240 . S
C256 O279 1.264 . S
O257 Mn252 2.095 . S
O257 C266 1.250 . S
O258 Mn253 2.121 . S
O258 C266 1.258 . S
C259 N260 1.326 . S
C259 C263 1.460 . S
C259 H265 0.929 . S
N260 Mn253 2.257 . S
N260 C259 1.326 . S
N260 C264 1.362 . S
C261 C262 1.258 . S
C261 C264 1.431 . S
C261 C281 1.449 . S
C262 C261 1.258 . S
C262 C263 1.477 . S
C262 H282 0.931 . S
C263 C259 1.460 . S
C263 C262 1.477 . S
C263 H283 0.930 . S
C264 N260 1.362 . S
C264 C261 1.431 . S
C264 C274 1.476 . S
H265 C259 0.929 . S
C266 O257 1.250 . S
C266 O258 1.258 . S
O267 Mn252 2.162 . S
O267 C255 1.281 . S
O268 Mn252 2.297 . S
O268 C255 1.236 . S
N269 Mn253 2.282 . S
N269 C270 1.328 . S
N269 C274 1.318 . S
C270 N269 1.328 . S
C270 C271 1.457 . S
C270 H275 0.929 . S
C271 C270 1.457 . S
C271 C272 1.291 . S
C271 H284 0.931 . S
C272 C271 1.291 . S
C272 C273 1.373 . S
C272 H285 0.929 . S
C273 C272 1.373 . S
C273 C274 1.396 . S
C273 C280 1.403 . S
C274 C264 1.476 . S
C274 N269 1.318 . S
C274 C273 1.396 . S
H275 C270 0.929 . S
O276 Mn252 2.385 . S
O276 C254 1.234 . S
O277 Mn252 2.209 . S
O277 Mn253 2.215 . S
O277 C254 1.283 . S
O278 Mn252 2.094 . S
O278 C256 1.240 . S
O279 Mn253 2.117 . S
O279 C256 1.264 . S
C280 C273 1.403 . S
C280 C281 1.399 . S
C280 H286 0.929 . S
C281 C261 1.449 . S
C281 C280 1.399 . S
C281 H287 0.930 . S
H282 C262 0.931 . S
H283 C263 0.930 . S
H284 C271 0.931 . S
H285 C272 0.929 . S
H286 C280 0.929 . S
H287 C281 0.930 . S
Mn288 O293 2.095 . S
Mn288 O303 2.162 . S
Mn288 O304 2.297 . S
Mn288 O312 2.385 . S
Mn288 O313 2.209 . S
Mn288 O314 2.094 . S
Mn289 O294 2.121 . S
Mn289 N296 2.257 . S
Mn289 N305 2.282 . S
Mn289 O313 2.215 . S
Mn289 O315 2.117 . S
C290 O312 1.234 . S
C290 O313 1.283 . S
C291 O303 1.281 . S
C291 O304 1.236 . S
C292 O314 1.240 . S
C292 O315 1.264 . S
O293 Mn288 2.095 . S
O293 C302 1.250 . S
O294 Mn289 2.121 . S
O294 C302 1.258 . S
C295 N296 1.326 . S
C295 C299 1.460 1_556 S
C295 H301 0.929 . S
N296 Mn289 2.257 . S
N296 C295 1.326 . S
N296 C300 1.362 . S
C297 C298 1.258 . S
C297 C300 1.431 1_554 S
C297 C317 1.449 . S
C298 C297 1.258 . S
C298 C299 1.477 . S
C298 H318 0.931 . S
C299 C295 1.460 1_554 S
C299 C298 1.477 . S
C299 H319 0.930 . S
C300 N296 1.362 . S
C300 C297 1.431 1_556 S
C300 C310 1.476 . S
H301 C295 0.929 . S
C302 O293 1.250 . S
C302 O294 1.258 . S
O303 Mn288 2.162 . S
O303 C291 1.281 . S
O304 Mn288 2.297 . S
O304 C291 1.236 . S
N305 Mn289 2.282 . S
N305 C306 1.328 . S
N305 C310 1.318 . S
C306 N305 1.328 . S
C306 C307 1.457 . S
C306 H311 0.929 . S
C307 C306 1.457 . S
C307 C308 1.291 . S
C307 H320 0.931 . S
C308 C307 1.291 . S
C308 C309 1.373 . S
C308 H321 0.929 . S
C309 C308 1.373 . S
C309 C310 1.396 . S
C309 C316 1.403 1_556 S
C310 C300 1.476 . S
C310 N305 1.318 . S
C310 C309 1.396 . S
H311 C306 0.929 . S
O312 Mn288 2.385 . S
O312 C290 1.234 . S
O313 Mn288 2.209 . S
O313 Mn289 2.215 . S
O313 C290 1.283 . S
O314 Mn288 2.094 . S
O314 C292 1.240 . S
O315 Mn289 2.117 . S
O315 C292 1.264 . S
C316 C309 1.403 1_554 S
C316 C317 1.399 . S
C316 H322 0.929 . S
C317 C297 1.449 . S
C317 C316 1.399 . S
C317 H323 0.930 . S
H318 C298 0.931 . S
H319 C299 0.930 . S
H320 C307 0.931 . S
H321 C308 0.929 . S
H322 C316 0.929 . S
H323 C317 0.930 . S
Mn324 O329 2.095 . S
Mn324 O339 2.162 . S
Mn324 O340 2.297 . S
Mn324 O348 2.385 . S
Mn324 O349 2.209 . S
Mn324 O350 2.094 . S
Mn325 O330 2.121 . S
Mn325 N332 2.257 . S
Mn325 N341 2.282 . S
Mn325 O349 2.215 . S
Mn325 O351 2.117 . S
C326 O348 1.234 . S
C326 O349 1.283 . S
C327 O339 1.281 . S
C327 O340 1.236 . S
C328 O350 1.240 . S
C328 O351 1.264 . S
O329 Mn324 2.095 . S
O329 C338 1.250 . S
O330 Mn325 2.121 . S
O330 C338 1.258 . S
C331 N332 1.326 . S
C331 C335 1.460 . S
C331 H337 0.929 . S
N332 Mn325 2.257 . S
N332 C331 1.326 . S
N332 C336 1.362 . S
C333 C334 1.258 . S
C333 C336 1.431 . S
C333 C353 1.449 . S
C334 C333 1.258 . S
C334 C335 1.477 . S
C334 H354 0.931 . S
C335 C331 1.460 . S
C335 C334 1.477 . S
C335 H355 0.930 . S
C336 N332 1.362 . S
C336 C333 1.431 . S
C336 C346 1.476 . S
H337 C331 0.929 . S
C338 O329 1.250 . S
C338 O330 1.258 . S
O339 Mn324 2.162 . S
O339 C327 1.281 . S
O340 Mn324 2.297 . S
O340 C327 1.236 . S
N341 Mn325 2.282 . S
N341 C342 1.328 . S
N341 C346 1.318 . S
C342 N341 1.328 . S
C342 C343 1.457 . S
C342 H347 0.929 . S
C343 C342 1.457 . S
C343 C344 1.291 . S
C343 H356 0.931 . S
C344 C343 1.291 . S
C344 C345 1.373 . S
C344 H357 0.929 . S
C345 C344 1.373 . S
C345 C346 1.396 . S
C345 C352 1.403 . S
C346 C336 1.476 . S
C346 N341 1.318 . S
C346 C345 1.396 . S
H347 C342 0.929 . S
O348 Mn324 2.385 . S
O348 C326 1.234 . S
O349 Mn324 2.209 . S
O349 Mn325 2.215 . S
O349 C326 1.283 . S
O350 Mn324 2.094 . S
O350 C328 1.240 . S
O351 Mn325 2.117 . S
O351 C328 1.264 . S
C352 C345 1.403 . S
C352 C353 1.399 . S
C352 H358 0.929 . S
C353 C333 1.449 . S
C353 C352 1.399 . S
C353 H359 0.930 . S
H354 C334 0.931 . S
H355 C335 0.930 . S
H356 C343 0.931 . S
H357 C344 0.929 . S
H358 C352 0.929 . S
H359 C353 0.930 . S
Mn360 O365 2.095 . S
Mn360 O375 2.162 . S
Mn360 O376 2.297 . S
Mn360 O384 2.385 . S
Mn360 O385 2.209 . S
Mn360 O386 2.094 . S
Mn361 O366 2.121 . S
Mn361 N368 2.257 . S
Mn361 N377 2.282 . S
Mn361 O385 2.215 . S
Mn361 O387 2.117 . S
C362 O384 1.234 . S
C362 O385 1.283 . S
C363 O375 1.281 . S
C363 O376 1.236 . S
C364 O386 1.240 . S
C364 O387 1.264 . S
O365 Mn360 2.095 . S
O365 C374 1.250 . S
O366 Mn361 2.121 . S
O366 C374 1.258 . S
C367 N368 1.326 . S
C367 C371 1.460 . S
C367 H373 0.929 . S
N368 Mn361 2.257 . S
N368 C367 1.326 . S
N368 C372 1.362 . S
C369 C370 1.258 . S
C369 C372 1.431 . S
C369 C389 1.449 . S
C370 C369 1.258 . S
C370 C371 1.477 . S
C370 H390 0.931 . S
C371 C367 1.460 . S
C371 C370 1.477 . S
C371 H391 0.930 . S
C372 N368 1.362 . S
C372 C369 1.431 . S
C372 C382 1.476 . S
H373 C367 0.929 . S
C374 O365 1.250 . S
C374 O366 1.258 . S
O375 Mn360 2.162 . S
O375 C363 1.281 . S
O376 Mn360 2.297 . S
O376 C363 1.236 . S
N377 Mn361 2.282 . S
N377 C378 1.328 . S
N377 C382 1.318 . S
C378 N377 1.328 . S
C378 C379 1.457 . S
C378 H383 0.929 . S
C379 C378 1.457 . S
C379 C380 1.291 . S
C379 H392 0.931 . S
C380 C379 1.291 . S
C380 C381 1.373 . S
C380 H393 0.929 . S
C381 C380 1.373 . S
C381 C382 1.396 . S
C381 C388 1.403 . S
C382 C372 1.476 . S
C382 N377 1.318 . S
C382 C381 1.396 . S
H383 C378 0.929 . S
O384 Mn360 2.385 . S
O384 C362 1.234 . S
O385 Mn360 2.209 . S
O385 Mn361 2.215 . S
O385 C362 1.283 . S
O386 Mn360 2.094 . S
O386 C364 1.240 . S
O387 Mn361 2.117 . S
O387 C364 1.264 . S
C388 C381 1.403 . S
C388 C389 1.399 . S
C388 H394 0.929 . S
C389 C369 1.449 . S
C389 C388 1.399 . S
C389 H395 0.930 . S
H390 C370 0.931 . S
H391 C371 0.930 . S
H392 C379 0.931 . S
H393 C380 0.929 . S
H394 C388 0.929 . S
H395 C389 0.930 . S
Mn396 O401 2.095 . S
Mn396 O411 2.162 . S
Mn396 O412 2.297 . S
Mn396 O420 2.385 . S
Mn396 O421 2.209 . S
Mn396 O422 2.094 . S
Mn397 O402 2.121 . S
Mn397 N404 2.257 . S
Mn397 N413 2.282 . S
Mn397 O421 2.215 . S
Mn397 O423 2.117 . S
C398 O420 1.234 . S
C398 O421 1.283 . S
C399 O411 1.281 . S
C399 O412 1.236 . S
C400 O422 1.240 . S
C400 O423 1.264 . S
O401 Mn396 2.095 . S
O401 C410 1.250 . S
O402 Mn397 2.121 . S
O402 C410 1.258 . S
C403 N404 1.326 . S
C403 C407 1.460 . S
C403 H409 0.929 . S
N404 Mn397 2.257 . S
N404 C403 1.326 . S
N404 C408 1.362 . S
C405 C406 1.258 . S
C405 C408 1.431 . S
C405 C425 1.449 . S
C406 C405 1.258 . S
C406 C407 1.477 . S
C406 H426 0.931 . S
C407 C403 1.460 . S
C407 C406 1.477 . S
C407 H427 0.930 . S
C408 N404 1.362 . S
C408 C405 1.431 . S
C408 C418 1.476 . S
H409 C403 0.929 . S
C410 O401 1.250 . S
C410 O402 1.258 . S
O411 Mn396 2.162 . S
O411 C399 1.281 . S
O412 Mn396 2.297 . S
O412 C399 1.236 . S
N413 Mn397 2.282 . S
N413 C414 1.328 . S
N413 C418 1.318 . S
C414 N413 1.328 . S
C414 C415 1.457 . S
C414 H419 0.929 . S
C415 C414 1.457 . S
C415 C416 1.291 . S
C415 H428 0.931 . S
C416 C415 1.291 . S
C416 C417 1.373 . S
C416 H429 0.929 . S
C417 C416 1.373 . S
C417 C418 1.396 . S
C417 C424 1.403 . S
C418 C408 1.476 . S
C418 N413 1.318 . S
C418 C417 1.396 . S
H419 C414 0.929 . S
O420 Mn396 2.385 . S
O420 C398 1.234 . S
O421 Mn396 2.209 . S
O421 Mn397 2.215 . S
O421 C398 1.283 . S
O422 Mn396 2.094 . S
O422 C400 1.240 . S
O423 Mn397 2.117 . S
O423 C400 1.264 . S
C424 C417 1.403 . S
C424 C425 1.399 . S
C424 H430 0.929 . S
C425 C405 1.449 . S
C425 C424 1.399 . S
C425 H431 0.930 . S
H426 C406 0.931 . S
H427 C407 0.930 . S
H428 C415 0.931 . S
H429 C416 0.929 . S
H430 C424 0.929 . S
H431 C425 0.930 . S
Mn432 O437 2.095 . S
Mn432 O447 2.162 . S
Mn432 O448 2.297 . S
Mn432 O456 2.385 . S
Mn432 O457 2.209 . S
Mn432 O458 2.094 . S
Mn433 O438 2.121 . S
Mn433 N440 2.257 . S
Mn433 N449 2.282 . S
Mn433 O457 2.215 . S
Mn433 O459 2.117 . S
C434 O456 1.234 . S
C434 O457 1.283 . S
C435 O447 1.281 . S
C435 O448 1.236 . S
C436 O458 1.240 . S
C436 O459 1.264 . S
O437 Mn432 2.095 . S
O437 C446 1.250 . S
O438 Mn433 2.121 . S
O438 C446 1.258 . S
C439 N440 1.326 . S
C439 C443 1.460 . S
C439 H445 0.929 . S
N440 Mn433 2.257 . S
N440 C439 1.326 . S
N440 C444 1.362 . S
C441 C442 1.258 . S
C441 C444 1.431 . S
C441 C461 1.449 . S
C442 C441 1.258 . S
C442 C443 1.477 . S
C442 H462 0.931 . S
C443 C439 1.460 . S
C443 C442 1.477 . S
C443 H463 0.930 . S
C444 N440 1.362 . S
C444 C441 1.431 . S
C444 C454 1.476 . S
H445 C439 0.929 . S
C446 O437 1.250 . S
C446 O438 1.258 . S
O447 Mn432 2.162 . S
O447 C435 1.281 . S
O448 Mn432 2.297 . S
O448 C435 1.236 . S
N449 Mn433 2.282 . S
N449 C450 1.328 . S
N449 C454 1.318 . S
C450 N449 1.328 . S
C450 C451 1.457 . S
C450 H455 0.929 . S
C451 C450 1.457 . S
C451 C452 1.291 . S
C451 H464 0.931 . S
C452 C451 1.291 . S
C452 C453 1.373 . S
C452 H465 0.929 . S
C453 C452 1.373 . S
C453 C454 1.396 . S
C453 C460 1.403 . S
C454 C444 1.476 . S
C454 N449 1.318 . S
C454 C453 1.396 . S
H455 C450 0.929 . S
O456 Mn432 2.385 . S
O456 C434 1.234 . S
O457 Mn432 2.209 . S
O457 Mn433 2.215 . S
O457 C434 1.283 . S
O458 Mn432 2.094 . S
O458 C436 1.240 . S
O459 Mn433 2.117 . S
O459 C436 1.264 . S
C460 C453 1.403 . S
C460 C461 1.399 . S
C460 H466 0.929 . S
C461 C441 1.449 . S
C461 C460 1.399 . S
C461 H467 0.930 . S
H462 C442 0.931 . S
H463 C443 0.930 . S
H464 C451 0.931 . S
H465 C452 0.929 . S
H466 C460 0.929 . S
H467 C461 0.930 . S
Mn468 O473 2.095 . S
Mn468 O483 2.162 . S
Mn468 O484 2.297 . S
Mn468 O492 2.385 . S
Mn468 O493 2.209 . S
Mn468 O494 2.094 . S
Mn469 O474 2.121 . S
Mn469 N476 2.257 . S
Mn469 N485 2.282 . S
Mn469 O493 2.215 . S
Mn469 O495 2.117 . S
C470 O492 1.234 . S
C470 O493 1.283 . S
C471 O483 1.281 . S
C471 O484 1.236 . S
C472 O494 1.240 . S
C472 O495 1.264 . S
O473 Mn468 2.095 . S
O473 C482 1.250 . S
O474 Mn469 2.121 . S
O474 C482 1.258 . S
C475 N476 1.326 . S
C475 C479 1.460 1_556 S
C475 H481 0.929 . S
N476 Mn469 2.257 . S
N476 C475 1.326 . S
N476 C480 1.362 . S
C477 C478 1.261 1_556 S
C477 C480 1.434 . S
C477 C497 1.440 1_566 S
C478 C477 1.261 1_554 S
C478 C479 1.477 . S
C478 H498 0.931 . S
C479 C475 1.460 1_554 S
C479 C478 1.477 . S
C479 H499 0.930 . S
C480 N476 1.362 . S
C480 C477 1.434 . S
C480 C490 1.476 1_565 S
H481 C475 0.929 . S
C482 O473 1.250 . S
C482 O474 1.258 . S
O483 Mn468 2.162 . S
O483 C471 1.281 . S
O484 Mn468 2.297 . S
O484 C471 1.236 . S
N485 Mn469 2.282 . S
N485 C486 1.328 1_565 S
N485 C490 1.318 1_565 S
C486 N485 1.328 1_545 S
C486 C487 1.457 . S
C486 H491 0.929 1_545 S
C487 C486 1.457 . S
C487 C488 1.291 . S
C487 H500 0.931 . S
C488 C487 1.291 . S
C488 C489 1.373 . S
C488 H501 0.929 . S
C489 C488 1.373 . S
C489 C490 1.396 . S
C489 C496 1.403 . S
C490 C480 1.476 1_545 S
C490 N485 1.318 1_545 S
C490 C489 1.396 . S
H491 C486 0.929 1_565 S
O492 Mn468 2.385 . S
O492 C470 1.234 . S
O493 Mn468 2.209 . S
O493 Mn469 2.215 . S
O493 C470 1.283 . S
O494 Mn468 2.094 . S
O494 C472 1.240 . S
O495 Mn469 2.117 . S
O495 C472 1.264 . S
C496 C489 1.403 . S
C496 C497 1.362 1_556 S
C496 H502 0.929 . S
C497 C477 1.440 1_544 S
C497 C496 1.362 1_554 S
C497 H503 0.972 . S
H498 C478 0.931 . S
H499 C479 0.930 . S
H500 C487 0.931 . S
H501 C488 0.929 . S
H502 C496 0.929 . S
H503 C497 0.972 . S
Mn504 O509 2.095 . S
Mn504 O519 2.162 . S
Mn504 O520 2.297 . S
Mn504 O528 2.385 . S
Mn504 O529 2.209 . S
Mn504 O530 2.094 . S
Mn505 O510 2.121 . S
Mn505 N512 2.257 . S
Mn505 N521 2.282 . S
Mn505 O529 2.215 . S
Mn505 O531 2.117 . S
C506 O528 1.234 . S
C506 O529 1.283 . S
C507 O519 1.281 . S
C507 O520 1.236 . S
C508 O530 1.240 . S
C508 O531 1.264 . S
O509 Mn504 2.095 . S
O509 C518 1.250 . S
O510 Mn505 2.121 . S
O510 C518 1.258 . S
C511 N512 1.326 . S
C511 C515 1.460 . S
C511 H517 0.929 . S
N512 Mn505 2.257 . S
N512 C511 1.326 . S
N512 C516 1.362 . S
C513 C514 1.258 . S
C513 C516 1.431 . S
C513 C533 1.449 . S
C514 C513 1.258 . S
C514 C515 1.477 . S
C514 H534 0.931 . S
C515 C511 1.460 . S
C515 C514 1.477 . S
C515 H535 0.930 . S
C516 N512 1.362 . S
C516 C513 1.431 . S
C516 C526 1.476 . S
H517 C511 0.929 . S
C518 O509 1.250 . S
C518 O510 1.258 . S
O519 Mn504 2.162 . S
O519 C507 1.281 . S
O520 Mn504 2.297 . S
O520 C507 1.236 . S
N521 Mn505 2.282 . S
N521 C522 1.328 . S
N521 C526 1.318 . S
C522 N521 1.328 . S
C522 C523 1.457 . S
C522 H527 0.929 . S
C523 C522 1.457 . S
C523 C524 1.291 . S
C523 H536 0.931 . S
C524 C523 1.291 . S
C524 C525 1.373 . S
C524 H537 0.929 . S
C525 C524 1.373 . S
C525 C526 1.396 . S
C525 C532 1.403 . S
C526 C516 1.476 . S
C526 N521 1.318 . S
C526 C525 1.396 . S
H527 C522 0.929 . S
O528 Mn504 2.385 . S
O528 C506 1.234 . S
O529 Mn504 2.209 . S
O529 Mn505 2.215 . S
O529 C506 1.283 . S
O530 Mn504 2.094 . S
O530 C508 1.240 . S
O531 Mn505 2.117 . S
O531 C508 1.264 . S
C532 C525 1.403 . S
C532 C533 1.399 . S
C532 H538 0.929 . S
C533 C513 1.449 . S
C533 C532 1.399 . S
C533 H539 0.930 . S
H534 C514 0.931 . S
H535 C515 0.930 . S
H536 C523 0.931 . S
H537 C524 0.929 . S
H538 C532 0.929 . S
H539 C533 0.930 . S
Mn540 O545 2.095 . S
Mn540 O555 2.162 . S
Mn540 O556 2.297 . S
Mn540 O564 2.385 . S
Mn540 O565 2.209 . S
Mn540 O566 2.094 . S
Mn541 O546 2.121 . S
Mn541 N548 2.257 . S
Mn541 N557 2.282 . S
Mn541 O565 2.215 . S
Mn541 O567 2.117 . S
C542 O564 1.234 . S
C542 O565 1.283 . S
C543 O555 1.281 . S
C543 O556 1.236 . S
C544 O566 1.240 . S
C544 O567 1.264 . S
O545 Mn540 2.095 . S
O545 C554 1.250 . S
O546 Mn541 2.121 . S
O546 C554 1.258 . S
C547 N548 1.326 . S
C547 C551 1.460 . S
C547 H553 0.929 . S
N548 Mn541 2.257 . S
N548 C547 1.326 . S
N548 C552 1.362 . S
C549 C550 1.258 . S
C549 C552 1.431 . S
C549 C569 1.449 1_545 S
C550 C549 1.258 . S
C550 C551 1.477 . S
C550 H570 0.931 . S
C551 C547 1.460 . S
C551 C550 1.477 . S
C551 H571 0.930 . S
C552 N548 1.362 . S
C552 C549 1.431 . S
C552 C562 1.476 . S
H553 C547 0.929 . S
C554 O545 1.250 . S
C554 O546 1.258 . S
O555 Mn540 2.162 . S
O555 C543 1.281 . S
O556 Mn540 2.297 . S
O556 C543 1.236 . S
N557 Mn541 2.282 . S
N557 C558 1.328 1_545 S
N557 C562 1.318 . S
C558 N557 1.328 1_565 S
C558 C559 1.457 . S
C558 H563 0.929 1_565 S
C559 C558 1.457 . S
C559 C560 1.291 . S
C559 H572 0.931 . S
C560 C559 1.291 . S
C560 C561 1.373 . S
C560 H573 0.929 . S
C561 C560 1.373 . S
C561 C562 1.396 1_565 S
C561 C568 1.403 . S
C562 C552 1.476 . S
C562 N557 1.318 . S
C562 C561 1.396 1_545 S
H563 C558 0.929 1_545 S
O564 Mn540 2.385 . S
O564 C542 1.234 . S
O565 Mn540 2.209 . S
O565 Mn541 2.215 . S
O565 C542 1.283 . S
O566 Mn540 2.094 . S
O566 C544 1.240 . S
O567 Mn541 2.117 . S
O567 C544 1.264 . S
C568 C561 1.403 . S
C568 C569 1.399 . S
C568 H574 0.929 . S
C569 C549 1.449 1_565 S
C569 C568 1.399 . S
C569 H575 0.930 . S
H570 C550 0.931 . S
H571 C551 0.930 . S
H572 C559 0.931 . S
H573 C560 0.929 . S
H574 C568 0.929 . S
H575 C569 0.930 . S
Mn576 O581 2.095 . S
Mn576 O591 2.162 . S
Mn576 O592 2.297 . S
Mn576 O600 2.385 . S
Mn576 O601 2.209 . S
Mn576 O602 2.094 . S
Mn577 O582 2.121 . S
Mn577 N584 2.257 . S
Mn577 N593 2.282 . S
Mn577 O601 2.215 . S
Mn577 O603 2.117 . S
C578 O600 1.234 . S
C578 O601 1.283 . S
C579 O591 1.281 . S
C579 O592 1.236 . S
C580 O602 1.240 . S
C580 O603 1.264 . S
O581 Mn576 2.095 . S
O581 C590 1.250 . S
O582 Mn577 2.121 . S
O582 C590 1.258 . S
C583 N584 1.326 . S
C583 C587 1.460 . S
C583 H589 0.929 . S
N584 Mn577 2.257 . S
N584 C583 1.326 . S
N584 C588 1.362 . S
C585 C586 1.258 . S
C585 C588 1.431 . S
C585 C605 1.449 . S
C586 C585 1.258 . S
C586 C587 1.477 . S
C586 H606 0.931 . S
C587 C583 1.460 . S
C587 C586 1.477 . S
C587 H607 0.930 . S
C588 N584 1.362 . S
C588 C585 1.431 . S
C588 C598 1.476 . S
H589 C583 0.929 . S
C590 O581 1.250 . S
C590 O582 1.258 . S
O591 Mn576 2.162 . S
O591 C579 1.281 . S
O592 Mn576 2.297 . S
O592 C579 1.236 . S
N593 Mn577 2.282 . S
N593 C594 1.328 . S
N593 C598 1.318 . S
C594 N593 1.328 . S
C594 C595 1.457 . S
C594 H599 0.929 . S
C595 C594 1.457 . S
C595 C596 1.291 . S
C595 H608 0.931 . S
C596 C595 1.291 . S
C596 C597 1.373 . S
C596 H609 0.929 . S
C597 C596 1.373 . S
C597 C598 1.396 . S
C597 C604 1.403 . S
C598 C588 1.476 . S
C598 N593 1.318 . S
C598 C597 1.396 . S
H599 C594 0.929 . S
O600 Mn576 2.385 . S
O600 C578 1.234 . S
O601 Mn576 2.209 . S
O601 Mn577 2.215 . S
O601 C578 1.283 . S
O602 Mn576 2.094 . S
O602 C580 1.240 . S
O603 Mn577 2.117 . S
O603 C580 1.264 . S
C604 C597 1.403 . S
C604 C605 1.399 . S
C604 H610 0.929 . S
C605 C585 1.449 . S
C605 C604 1.399 . S
C605 H611 0.930 . S
H606 C586 0.931 . S
H607 C587 0.930 . S
H608 C595 0.931 . S
H609 C596 0.929 . S
H610 C604 0.929 . S
H611 C605 0.930 . S
Mn612 O617 2.095 . S
Mn612 O627 2.162 . S
Mn612 O628 2.297 . S
Mn612 O636 2.385 . S
Mn612 O637 2.209 . S
Mn612 O638 2.094 . S
Mn613 O618 2.121 . S
Mn613 N620 2.257 . S
Mn613 N629 2.282 . S
Mn613 O637 2.215 . S
Mn613 O639 2.117 . S
C614 O636 1.234 . S
C614 O637 1.283 . S
C615 O627 1.281 . S
C615 O628 1.236 . S
C616 O638 1.240 . S
C616 O639 1.264 . S
O617 Mn612 2.095 . S
O617 C626 1.250 . S
O618 Mn613 2.121 . S
O618 C626 1.258 . S
C619 N620 1.326 . S
C619 C623 1.460 . S
C619 H625 0.929 . S
N620 Mn613 2.257 . S
N620 C619 1.326 . S
N620 C624 1.362 . S
C621 C622 1.258 . S
C621 C624 1.431 . S
C621 C641 1.449 . S
C622 C621 1.258 . S
C622 C623 1.477 . S
C622 H642 0.931 . S
C623 C619 1.460 . S
C623 C622 1.477 . S
C623 H643 0.930 . S
C624 N620 1.362 . S
C624 C621 1.431 . S
C624 C634 1.476 . S
H625 C619 0.929 . S
C626 O617 1.250 . S
C626 O618 1.258 . S
O627 Mn612 2.162 . S
O627 C615 1.281 . S
O628 Mn612 2.297 . S
O628 C615 1.236 . S
N629 Mn613 2.282 . S
N629 C630 1.328 . S
N629 C634 1.318 . S
C630 N629 1.328 . S
C630 C631 1.490 . S
C630 H635 0.929 . S
C631 C630 1.490 . S
C631 C632 1.277 1_545 S
C631 H644 0.913 1_545 S
C632 C631 1.277 1_565 S
C632 C633 1.373 1_565 S
C632 H645 0.929 . S
C633 C632 1.373 1_545 S
C633 C634 1.396 . S
C633 C640 1.403 1_545 S
C634 C624 1.476 . S
C634 N629 1.318 . S
C634 C633 1.396 . S
H635 C630 0.929 . S
O636 Mn612 2.385 . S
O636 C614 1.234 . S
O637 Mn612 2.209 . S
O637 Mn613 2.215 . S
O637 C614 1.283 . S
O638 Mn612 2.094 . S
O638 C616 1.240 . S
O639 Mn613 2.117 . S
O639 C616 1.264 . S
C640 C633 1.403 1_565 S
C640 C641 1.399 1_565 S
C640 H646 0.929 . S
C641 C621 1.449 . S
C641 C640 1.399 1_545 S
C641 H647 0.930 1_545 S
H642 C622 0.931 . S
H643 C623 0.930 . S
H644 C631 0.913 1_565 S
H645 C632 0.929 . S
H646 C640 0.929 . S
H647 C641 0.930 1_565 S
Mn648 O653 2.095 . S
Mn648 O663 2.162 . S
Mn648 O664 2.297 . S
Mn648 O672 2.385 . S
Mn648 O673 2.209 . S
Mn648 O674 2.094 . S
Mn649 O654 2.121 . S
Mn649 N656 2.257 . S
Mn649 N665 2.282 . S
Mn649 O673 2.215 . S
Mn649 O675 2.117 . S
C650 O672 1.234 . S
C650 O673 1.283 . S
C651 O663 1.281 . S
C651 O664 1.236 . S
C652 O674 1.240 . S
C652 O675 1.264 . S
O653 Mn648 2.095 . S
O653 C662 1.250 . S
O654 Mn649 2.121 . S
O654 C662 1.258 . S
C655 N656 1.326 . S
C655 C659 1.460 . S
C655 H661 0.929 . S
N656 Mn649 2.257 . S
N656 C655 1.326 . S
N656 C660 1.362 . S
C657 C658 1.258 . S
C657 C660 1.431 . S
C657 C677 1.449 . S
C658 C657 1.258 . S
C658 C659 1.477 . S
C658 H678 0.931 . S
C659 C655 1.460 . S
C659 C658 1.477 . S
C659 H679 0.930 . S
C660 N656 1.362 . S
C660 C657 1.431 . S
C660 C670 1.476 . S
H661 C655 0.929 . S
C662 O653 1.250 . S
C662 O654 1.258 . S
O663 Mn648 2.162 . S
O663 C651 1.281 . S
O664 Mn648 2.297 . S
O664 C651 1.236 . S
N665 Mn649 2.282 . S
N665 C666 1.328 . S
N665 C670 1.318 . S
C666 N665 1.328 . S
C666 C667 1.457 . S
C666 H671 0.929 . S
C667 C666 1.457 . S
C667 C668 1.291 . S
C667 H680 0.931 . S
C668 C667 1.291 . S
C668 C669 1.373 . S
C668 H681 0.929 . S
C669 C668 1.373 . S
C669 C670 1.396 . S
C669 C676 1.403 . S
C670 C660 1.476 . S
C670 N665 1.318 . S
C670 C669 1.396 . S
H671 C666 0.929 . S
O672 Mn648 2.385 . S
O672 C650 1.234 . S
O673 Mn648 2.209 . S
O673 Mn649 2.215 . S
O673 C650 1.283 . S
O674 Mn648 2.094 . S
O674 C652 1.240 . S
O675 Mn649 2.117 . S
O675 C652 1.264 . S
C676 C669 1.403 . S
C676 C677 1.399 . S
C676 H682 0.929 . S
C677 C657 1.449 . S
C677 C676 1.399 . S
C677 H683 0.930 . S
H678 C658 0.931 . S
H679 C659 0.930 . S
H680 C667 0.931 . S
H681 C668 0.929 . S
H682 C676 0.929 . S
H683 C677 0.930 . S
Mn684 O689 2.095 . S
Mn684 O699 2.162 . S
Mn684 O700 2.297 . S
Mn684 O708 2.385 . S
Mn684 O709 2.209 . S
Mn684 O710 2.094 . S
Mn685 O690 2.121 . S
Mn685 N692 2.257 . S
Mn685 N701 2.282 . S
Mn685 O709 2.215 . S
Mn685 O711 2.117 . S
C686 O708 1.234 . S
C686 O709 1.283 . S
C687 O699 1.281 . S
C687 O700 1.236 . S
C688 O710 1.240 . S
C688 O711 1.264 . S
O689 Mn684 2.095 . S
O689 C698 1.250 . S
O690 Mn685 2.121 . S
O690 C698 1.258 . S
C691 N692 1.326 . S
C691 C695 1.460 . S
C691 H697 0.929 . S
N692 Mn685 2.257 . S
N692 C691 1.326 . S
N692 C696 1.362 . S
C693 C694 1.258 . S
C693 C696 1.431 . S
C693 C713 1.449 1_554 S
C694 C693 1.258 . S
C694 C695 1.477 . S
C694 H714 0.931 . S
C695 C691 1.460 . S
C695 C694 1.477 . S
C695 H715 0.930 . S
C696 N692 1.362 . S
C696 C693 1.431 . S
C696 C706 1.476 . S
H697 C691 0.929 . S
C698 O689 1.250 . S
C698 O690 1.258 . S
O699 Mn684 2.162 . S
O699 C687 1.281 . S
O700 Mn684 2.297 . S
O700 C687 1.236 . S
N701 Mn685 2.282 . S
N701 C702 1.328 . S
N701 C706 1.318 . S
C702 N701 1.328 . S
C702 C703 1.457 1_554 S
C702 H707 0.929 . S
C703 C702 1.457 1_556 S
C703 C704 1.291 . S
C703 H716 0.931 . S
C704 C703 1.291 . S
C704 C705 1.373 . S
C704 H717 0.929 . S
C705 C704 1.373 . S
C705 C706 1.396 1_556 S
C705 C712 1.403 . S
C706 C696 1.476 . S
C706 N701 1.318 . S
C706 C705 1.396 1_554 S
H707 C702 0.929 . S
O708 Mn684 2.385 . S
O708 C686 1.234 . S
O709 Mn684 2.209 . S
O709 Mn685 2.215 . S
O709 C686 1.283 . S
O710 Mn684 2.094 . S
O710 C688 1.240 . S
O711 Mn685 2.117 . S
O711 C688 1.264 . S
C712 C705 1.403 . S
C712 C713 1.399 . S
C712 H718 0.929 . S
C713 C693 1.449 1_556 S
C713 C712 1.399 . S
C713 H719 0.930 . S
H714 C694 0.931 . S
H715 C695 0.930 . S
H716 C703 0.931 . S
H717 C704 0.929 . S
H718 C712 0.929 . S
H719 C713 0.930 . S
Mn720 O725 2.095 . S
Mn720 O735 2.162 . S
Mn720 O736 2.297 . S
Mn720 O744 2.385 . S
Mn720 O745 2.209 . S
Mn720 O746 2.094 . S
Mn721 O726 2.121 . S
Mn721 N728 2.257 . S
Mn721 N737 2.282 . S
Mn721 O745 2.215 . S
Mn721 O747 2.117 . S
C722 O744 1.234 . S
C722 O745 1.283 . S
C723 O735 1.281 . S
C723 O736 1.236 . S
C724 O746 1.240 . S
C724 O747 1.264 . S
O725 Mn720 2.095 . S
O725 C734 1.250 . S
O726 Mn721 2.121 . S
O726 C734 1.258 . S
C727 N728 1.326 . S
C727 C731 1.460 . S
C727 H733 0.929 . S
N728 Mn721 2.257 . S
N728 C727 1.326 . S
N728 C732 1.362 . S
C729 C730 1.258 . S
C729 C732 1.431 . S
C729 C749 1.449 . S
C730 C729 1.258 . S
C730 C731 1.477 . S
C730 H750 0.931 . S
C731 C727 1.460 . S
C731 C730 1.477 . S
C731 H751 0.930 . S
C732 N728 1.362 . S
C732 C729 1.431 . S
C732 C742 1.476 . S
H733 C727 0.929 . S
C734 O725 1.250 . S
C734 O726 1.258 . S
O735 Mn720 2.162 . S
O735 C723 1.281 . S
O736 Mn720 2.297 . S
O736 C723 1.236 . S
N737 Mn721 2.282 . S
N737 C738 1.328 . S
N737 C742 1.318 . S
C738 N737 1.328 . S
C738 C739 1.457 . S
C738 H743 0.929 . S
C739 C738 1.457 . S
C739 C740 1.291 . S
C739 H752 0.931 . S
C740 C739 1.291 . S
C740 C741 1.373 . S
C740 H753 0.929 . S
C741 C740 1.373 . S
C741 C742 1.396 . S
C741 C748 1.403 . S
C742 C732 1.476 . S
C742 N737 1.318 . S
C742 C741 1.396 . S
H743 C738 0.929 . S
O744 Mn720 2.385 . S
O744 C722 1.234 . S
O745 Mn720 2.209 . S
O745 Mn721 2.215 . S
O745 C722 1.283 . S
O746 Mn720 2.094 . S
O746 C724 1.240 . S
O747 Mn721 2.117 . S
O747 C724 1.264 . S
C748 C741 1.403 . S
C748 C749 1.399 . S
C748 H754 0.929 . S
C749 C729 1.449 . S
C749 C748 1.399 . S
C749 H755 0.930 . S
H750 C730 0.931 . S
H751 C731 0.930 . S
H752 C739 0.931 . S
H753 C740 0.929 . S
H754 C748 0.929 . S
H755 C749 0.930 . S
Mn756 O761 2.095 . S
Mn756 O771 2.162 . S
Mn756 O772 2.297 . S
Mn756 O780 2.385 . S
Mn756 O781 2.209 . S
Mn756 O782 2.094 . S
Mn757 O762 2.121 . S
Mn757 N764 2.257 . S
Mn757 N773 2.282 . S
Mn757 O781 2.215 . S
Mn757 O783 2.117 . S
C758 O780 1.234 . S
C758 O781 1.283 . S
C759 O771 1.281 . S
C759 O772 1.236 . S
C760 O782 1.240 . S
C760 O783 1.264 . S
O761 Mn756 2.095 . S
O761 C770 1.250 . S
O762 Mn757 2.121 . S
O762 C770 1.258 . S
C763 N764 1.326 1_556 S
C763 C767 1.460 . S
C763 H769 0.929 1_556 S
N764 Mn757 2.257 . S
N764 C763 1.326 1_554 S
N764 C768 1.362 . S
C765 C766 1.258 . S
C765 C768 1.431 1_556 S
C765 C785 1.449 . S
C766 C765 1.258 . S
C766 C767 1.477 . S
C766 H786 0.931 . S
C767 C763 1.460 . S
C767 C766 1.477 . S
C767 H787 0.930 . S
C768 N764 1.362 . S
C768 C765 1.431 1_554 S
C768 C778 1.476 . S
H769 C763 0.929 1_554 S
C770 O761 1.250 . S
C770 O762 1.258 . S
O771 Mn756 2.162 . S
O771 C759 1.281 . S
O772 Mn756 2.297 . S
O772 C759 1.236 . S
N773 Mn757 2.282 . S
N773 C774 1.328 . S
N773 C778 1.318 . S
C774 N773 1.328 . S
C774 C775 1.457 . S
C774 H779 0.929 . S
C775 C774 1.457 . S
C775 C776 1.291 . S
C775 H788 0.931 . S
C776 C775 1.291 . S
C776 C777 1.373 . S
C776 H789 0.929 . S
C777 C776 1.373 . S
C777 C778 1.396 . S
C777 C784 1.403 . S
C778 C768 1.476 . S
C778 N773 1.318 . S
C778 C777 1.396 . S
H779 C774 0.929 . S
O780 Mn756 2.385 . S
O780 C758 1.234 . S
O781 Mn756 2.209 . S
O781 Mn757 2.215 . S
O781 C758 1.283 . S
O782 Mn756 2.094 . S
O782 C760 1.240 . S
O783 Mn757 2.117 . S
O783 C760 1.264 . S
C784 C777 1.403 . S
C784 C785 1.399 1_554 S
C784 H790 0.936 . S
C785 C765 1.449 . S
C785 C784 1.399 1_556 S
C785 H791 0.930 . S
H786 C766 0.931 . S
H787 C767 0.930 . S
H788 C775 0.931 . S
H789 C776 0.929 . S
H790 C784 0.936 . S
H791 C785 0.930 . S
Mn792 O797 2.095 . S
Mn792 O807 2.162 . S
Mn792 O808 2.297 . S
Mn792 O816 2.385 . S
Mn792 O817 2.209 . S
Mn792 O818 2.094 . S
Mn793 O798 2.121 . S
Mn793 N800 2.257 . S
Mn793 N809 2.282 . S
Mn793 O817 2.215 . S
Mn793 O819 2.117 . S
C794 O816 1.234 . S
C794 O817 1.283 . S
C795 O807 1.281 . S
C795 O808 1.236 . S
C796 O818 1.240 . S
C796 O819 1.264 . S
O797 Mn792 2.095 . S
O797 C806 1.250 . S
O798 Mn793 2.121 . S
O798 C806 1.258 . S
C799 N800 1.326 . S
C799 C803 1.460 . S
C799 H805 0.929 . S
N800 Mn793 2.257 . S
N800 C799 1.326 . S
N800 C804 1.362 . S
C801 C802 1.258 . S
C801 C804 1.431 . S
C801 C821 1.449 . S
C802 C801 1.258 . S
C802 C803 1.477 . S
C802 H822 0.931 . S
C803 C799 1.460 . S
C803 C802 1.477 . S
C803 H823 0.930 . S
C804 N800 1.362 . S
C804 C801 1.431 . S
C804 C814 1.476 . S
H805 C799 0.929 . S
C806 O797 1.250 . S
C806 O798 1.258 . S
O807 Mn792 2.162 . S
O807 C795 1.281 . S
O808 Mn792 2.297 . S
O808 C795 1.236 . S
N809 Mn793 2.282 . S
N809 C810 1.328 . S
N809 C814 1.318 . S
C810 N809 1.328 . S
C810 C811 1.457 . S
C810 H815 0.929 . S
C811 C810 1.457 . S
C811 C812 1.291 . S
C811 H824 0.931 . S
C812 C811 1.291 . S
C812 C813 1.373 . S
C812 H825 0.929 . S
C813 C812 1.373 . S
C813 C814 1.396 . S
C813 C820 1.403 . S
C814 C804 1.476 . S
C814 N809 1.318 . S
C814 C813 1.396 . S
H815 C810 0.929 . S
O816 Mn792 2.385 . S
O816 C794 1.234 . S
O817 Mn792 2.209 . S
O817 Mn793 2.215 . S
O817 C794 1.283 . S
O818 Mn792 2.094 . S
O818 C796 1.240 . S
O819 Mn793 2.117 . S
O819 C796 1.264 . S
C820 C813 1.403 . S
C820 C821 1.399 . S
C820 H826 0.929 . S
C821 C801 1.449 . S
C821 C820 1.399 . S
C821 H827 0.930 . S
H822 C802 0.931 . S
H823 C803 0.930 . S
H824 C811 0.931 . S
H825 C812 0.929 . S
H826 C820 0.929 . S
H827 C821 0.930 . S
Mn828 O833 2.095 . S
Mn828 O843 2.162 . S
Mn828 O844 2.297 . S
Mn828 O852 2.385 . S
Mn828 O853 2.209 . S
Mn828 O854 2.094 . S
Mn829 O834 2.121 . S
Mn829 N836 2.257 . S
Mn829 N845 2.282 . S
Mn829 O853 2.215 . S
Mn829 O855 2.117 . S
C830 O852 1.234 . S
C830 O853 1.283 . S
C831 O843 1.281 . S
C831 O844 1.236 . S
C832 O854 1.240 . S
C832 O855 1.264 . S
O833 Mn828 2.095 . S
O833 C842 1.250 . S
O834 Mn829 2.121 . S
O834 C842 1.258 . S
C835 N836 1.326 . S
C835 C839 1.460 . S
C835 H841 0.929 . S
N836 Mn829 2.257 . S
N836 C835 1.326 . S
N836 C840 1.362 . S
C837 C838 1.258 . S
C837 C840 1.431 . S
C837 C857 1.449 . S
C838 C837 1.258 . S
C838 C839 1.477 . S
C838 H858 0.931 1_455 S
C839 C835 1.460 . S
C839 C838 1.477 . S
C839 H859 0.930 1_455 S
C840 N836 1.362 . S
C840 C837 1.431 . S
C840 C850 1.476 . S
H841 C835 0.929 . S
C842 O833 1.250 . S
C842 O834 1.258 . S
O843 Mn828 2.162 . S
O843 C831 1.281 . S
O844 Mn828 2.297 . S
O844 C831 1.236 . S
N845 Mn829 2.282 . S
N845 C846 1.328 . S
N845 C850 1.318 . S
C846 N845 1.328 . S
C846 C847 1.457 . S
C846 H851 0.929 . S
C847 C846 1.457 . S
C847 C848 1.291 . S
C847 H860 0.931 . S
C848 C847 1.291 . S
C848 C849 1.373 . S
C848 H861 0.929 . S
C849 C848 1.373 . S
C849 C850 1.396 . S
C849 C856 1.403 . S
C850 C840 1.476 . S
C850 N845 1.318 . S
C850 C849 1.396 . S
H851 C846 0.929 . S
O852 Mn828 2.385 . S
O852 C830 1.234 . S
O853 Mn828 2.209 . S
O853 Mn829 2.215 . S
O853 C830 1.283 . S
O854 Mn828 2.094 . S
O854 C832 1.240 . S
O855 Mn829 2.117 . S
O855 C832 1.264 . S
C856 C849 1.403 . S
C856 C857 1.399 . S
C856 H862 0.929 . S
C857 C837 1.449 . S
C857 C856 1.399 . S
C857 H863 0.930 . S
H858 C838 0.931 1_655 S
H859 C839 0.930 1_655 S
H860 C847 0.931 . S
H861 C848 0.929 . S
H862 C856 0.929 . S
H863 C857 0.930 . S
Mn864 O869 2.095 . S
Mn864 O879 2.162 . S
Mn864 O880 2.297 . S
Mn864 O888 2.385 . S
Mn864 O889 2.209 . S
Mn864 O890 2.094 . S
Mn865 O870 2.121 . S
Mn865 N872 2.257 . S
Mn865 N881 2.282 . S
Mn865 O889 2.215 . S
Mn865 O891 2.117 . S
C866 O888 1.234 . S
C866 O889 1.283 . S
C867 O879 1.281 . S
C867 O880 1.236 . S
C868 O890 1.240 . S
C868 O891 1.264 . S
O869 Mn864 2.095 . S
O869 C878 1.250 . S
O870 Mn865 2.121 . S
O870 C878 1.258 . S
C871 N872 1.326 . S
C871 C875 1.460 . S
C871 H877 0.929 . S
N872 Mn865 2.257 . S
N872 C871 1.326 . S
N872 C876 1.362 . S
C873 C874 1.258 . S
C873 C876 1.431 . S
C873 C893 1.449 . S
C874 C873 1.258 . S
C874 C875 1.477 . S
C874 H894 0.931 . S
C875 C871 1.460 . S
C875 C874 1.477 . S
C875 H895 0.930 . S
C876 N872 1.362 . S
C876 C873 1.431 . S
C876 C886 1.476 . S
H877 C871 0.929 . S
C878 O869 1.250 . S
C878 O870 1.258 . S
O879 Mn864 2.162 . S
O879 C867 1.281 . S
O880 Mn864 2.297 . S
O880 C867 1.236 . S
N881 Mn865 2.282 . S
N881 C882 1.328 . S
N881 C886 1.318 . S
C882 N881 1.328 . S
C882 C883 1.457 . S
C882 H887 0.929 . S
C883 C882 1.457 . S
C883 C884 1.291 . S
C883 H896 0.931 . S
C884 C883 1.291 . S
C884 C885 1.373 . S
C884 H897 0.929 . S
C885 C884 1.373 . S
C885 C886 1.396 . S
C885 C892 1.403 . S
C886 C876 1.476 . S
C886 N881 1.318 . S
C886 C885 1.396 . S
H887 C882 0.929 . S
O888 Mn864 2.385 . S
O888 C866 1.234 . S
O889 Mn864 2.209 . S
O889 Mn865 2.215 . S
O889 C866 1.283 . S
O890 Mn864 2.094 . S
O890 C868 1.240 . S
O891 Mn865 2.117 . S
O891 C868 1.264 . S
C892 C885 1.403 . S
C892 C893 1.399 . S
C892 H898 0.929 . S
C893 C873 1.449 . S
C893 C892 1.399 . S
C893 H899 0.930 . S
H894 C874 0.931 . S
H895 C875 0.930 . S
H896 C883 0.931 . S
H897 C884 0.929 . S
H898 C892 0.929 . S
H899 C893 0.930 . S
Mn900 O905 2.095 . S
Mn900 O915 2.162 . S
Mn900 O916 2.297 . S
Mn900 O924 2.385 . S
Mn900 O925 2.209 . S
Mn900 O926 2.094 . S
Mn901 O906 2.121 . S
Mn901 N908 2.257 . S
Mn901 N917 2.282 . S
Mn901 O925 2.215 . S
Mn901 O927 2.117 . S
C902 O924 1.234 . S
C902 O925 1.283 . S
C903 O915 1.281 . S
C903 O916 1.236 . S
C904 O926 1.240 . S
C904 O927 1.264 . S
O905 Mn900 2.095 . S
O905 C914 1.250 . S
O906 Mn901 2.121 . S
O906 C914 1.258 . S
C907 N908 1.326 . S
C907 C911 1.460 . S
C907 H913 0.929 . S
N908 Mn901 2.257 . S
N908 C907 1.326 . S
N908 C912 1.362 . S
C909 C910 1.258 . S
C909 C912 1.431 . S
C909 C929 1.449 . S
C910 C909 1.258 . S
C910 C911 1.477 . S
C910 H930 0.931 . S
C911 C907 1.460 . S
C911 C910 1.477 . S
C911 H931 0.930 . S
C912 N908 1.362 . S
C912 C909 1.431 . S
C912 C922 1.476 . S
H913 C907 0.929 . S
C914 O905 1.250 . S
C914 O906 1.258 . S
O915 Mn900 2.162 . S
O915 C903 1.281 . S
O916 Mn900 2.297 . S
O916 C903 1.236 . S
N917 Mn901 2.282 . S
N917 C918 1.328 . S
N917 C922 1.318 . S
C918 N917 1.328 . S
C918 C919 1.457 . S
C918 H923 0.929 . S
C919 C918 1.457 . S
C919 C920 1.291 . S
C919 H932 0.931 . S
C920 C919 1.291 . S
C920 C921 1.373 . S
C920 H933 0.929 . S
C921 C920 1.373 . S
C921 C922 1.396 . S
C921 C928 1.403 . S
C922 C912 1.476 . S
C922 N917 1.318 . S
C922 C921 1.396 . S
H923 C918 0.929 . S
O924 Mn900 2.385 . S
O924 C902 1.234 . S
O925 Mn900 2.209 . S
O925 Mn901 2.215 . S
O925 C902 1.283 . S
O926 Mn900 2.094 . S
O926 C904 1.240 . S
O927 Mn901 2.117 . S
O927 C904 1.264 . S
C928 C921 1.403 . S
C928 C929 1.399 . S
C928 H934 0.929 . S
C929 C909 1.449 . S
C929 C928 1.399 . S
C929 H935 0.930 . S
H930 C910 0.931 . S
H931 C911 0.930 . S
H932 C919 0.931 . S
H933 C920 0.929 . S
H934 C928 0.929 . S
H935 C929 0.930 . S
Mn936 O941 2.095 . S
Mn936 O951 2.162 . S
Mn936 O952 2.297 . S
Mn936 O960 2.385 . S
Mn936 O961 2.209 . S
Mn936 O962 2.094 . S
Mn937 O942 2.121 . S
Mn937 N944 2.257 . S
Mn937 N953 2.282 . S
Mn937 O961 2.215 . S
Mn937 O963 2.117 . S
C938 O960 1.234 . S
C938 O961 1.283 . S
C939 O951 1.281 . S
C939 O952 1.236 . S
C940 O962 1.240 . S
C940 O963 1.264 . S
O941 Mn936 2.095 . S
O941 C950 1.250 . S
O942 Mn937 2.121 . S
O942 C950 1.258 . S
C943 N944 1.326 . S
C943 C947 1.460 . S
C943 H949 0.929 . S
N944 Mn937 2.257 . S
N944 C943 1.326 . S
N944 C948 1.362 . S
C945 C946 1.258 . S
C945 C948 1.431 . S
C945 C965 1.449 . S
C946 C945 1.258 . S
C946 C947 1.477 . S
C946 H966 0.931 . S
C947 C943 1.460 . S
C947 C946 1.477 . S
C947 H967 0.930 . S
C948 N944 1.362 . S
C948 C945 1.431 . S
C948 C958 1.476 . S
H949 C943 0.929 . S
C950 O941 1.250 . S
C950 O942 1.258 . S
O951 Mn936 2.162 . S
O951 C939 1.281 . S
O952 Mn936 2.297 . S
O952 C939 1.236 . S
N953 Mn937 2.282 . S
N953 C954 1.328 . S
N953 C958 1.318 . S
C954 N953 1.328 . S
C954 C955 1.457 . S
C954 H959 0.929 . S
C955 C954 1.457 . S
C955 C956 1.291 . S
C955 H968 0.931 . S
C956 C955 1.291 . S
C956 C957 1.373 . S
C956 H969 0.929 . S
C957 C956 1.373 . S
C957 C958 1.396 . S
C957 C964 1.403 . S
C958 C948 1.476 . S
C958 N953 1.318 . S
C958 C957 1.396 . S
H959 C954 0.929 . S
O960 Mn936 2.385 . S
O960 C938 1.234 . S
O961 Mn936 2.209 . S
O961 Mn937 2.215 . S
O961 C938 1.283 . S
O962 Mn936 2.094 . S
O962 C940 1.240 . S
O963 Mn937 2.117 . S
O963 C940 1.264 . S
C964 C957 1.403 . S
C964 C965 1.399 . S
C964 H970 0.929 . S
C965 C945 1.449 . S
C965 C964 1.399 . S
C965 H971 0.930 . S
H966 C946 0.931 . S
H967 C947 0.930 . S
H968 C955 0.931 . S
H969 C956 0.929 . S
H970 C964 0.929 . S
H971 C965 0.930 . S
Mn972 O977 2.095 . S
Mn972 O987 2.162 . S
Mn972 O988 2.297 . S
Mn972 O996 2.385 . S
Mn972 O997 2.209 . S
Mn972 O998 2.094 . S
Mn973 O978 2.121 . S
Mn973 N980 2.257 . S
Mn973 N989 2.282 . S
Mn973 O997 2.215 . S
Mn973 O999 2.117 . S
C974 O996 1.234 . S
C974 O997 1.283 . S
C975 O987 1.281 . S
C975 O988 1.236 . S
C976 O998 1.240 . S
C976 O999 1.264 . S
O977 Mn972 2.095 . S
O977 C986 1.250 . S
O978 Mn973 2.121 . S
O978 C986 1.258 . S
C979 N980 1.326 . S
C979 C983 1.460 . S
C979 H985 0.929 . S
N980 Mn973 2.257 . S
N980 C979 1.326 . S
N980 C984 1.362 . S
C981 C982 1.258 . S
C981 C984 1.431 . S
C981 C1001 1.449 . S
C982 C981 1.258 . S
C982 C983 1.477 . S
C982 H1002 0.931 . S
C983 C979 1.460 . S
C983 C982 1.477 . S
C983 H1003 0.930 . S
C984 N980 1.362 . S
C984 C981 1.431 . S
C984 C994 1.476 . S
H985 C979 0.929 . S
C986 O977 1.250 . S
C986 O978 1.258 . S
O987 Mn972 2.162 . S
O987 C975 1.281 . S
O988 Mn972 2.297 . S
O988 C975 1.236 . S
N989 Mn973 2.282 . S
N989 C990 1.328 . S
N989 C994 1.318 . S
C990 N989 1.328 . S
C990 C991 1.457 . S
C990 H995 0.929 . S
C991 C990 1.457 . S
C991 C992 1.291 . S
C991 H1004 0.931 . S
C992 C991 1.291 . S
C992 C993 1.373 . S
C992 H1005 0.964 . S
C993 C992 1.373 . S
C993 C994 1.396 . S
C993 C1000 1.403 . S
C994 C984 1.476 . S
C994 N989 1.318 . S
C994 C993 1.396 . S
H995 C990 0.929 . S
O996 Mn972 2.385 . S
O996 C974 1.234 . S
O997 Mn972 2.209 . S
O997 Mn973 2.215 . S
O997 C974 1.283 . S
O998 Mn972 2.094 . S
O998 C976 1.240 . S
O999 Mn973 2.117 . S
O999 C976 1.264 . S
C1000 C993 1.403 . S
C1000 C1001 1.399 . S
C1000 H1006 0.929 . S
C1001 C981 1.449 . S
C1001 C1000 1.399 . S
C1001 H1007 0.930 . S
H1002 C982 0.931 . S
H1003 C983 0.930 . S
H1004 C991 0.931 . S
H1005 C992 0.964 . S
H1006 C1000 0.929 . S
H1007 C1001 0.930 . S
Mn1008 O1013 2.095 . S
Mn1008 O1023 2.162 . S
Mn1008 O1024 2.297 . S
Mn1008 O1032 2.385 . S
Mn1008 O1033 2.209 . S
Mn1008 O1034 2.094 . S
Mn1009 O1014 2.121 . S
Mn1009 N1016 2.257 . S
Mn1009 N1025 2.282 . S
Mn1009 O1033 2.215 . S
Mn1009 O1035 2.117 . S
C1010 O1032 1.234 . S
C1010 O1033 1.283 . S
C1011 O1023 1.281 . S
C1011 O1024 1.236 . S
C1012 O1034 1.240 . S
C1012 O1035 1.264 . S
O1013 Mn1008 2.095 . S
O1013 C1022 1.250 . S
O1014 Mn1009 2.121 . S
O1014 C1022 1.258 . S
C1015 N1016 1.326 . S
C1015 C1019 1.460 . S
C1015 H1021 0.929 . S
N1016 Mn1009 2.257 . S
N1016 C1015 1.326 . S
N1016 C1020 1.362 . S
C1017 C1018 1.258 . S
C1017 C1020 1.431 . S
C1017 C1037 1.449 . S
C1018 C1017 1.258 . S
C1018 C1019 1.477 . S
C1018 H1038 0.931 . S
C1019 C1015 1.460 . S
C1019 C1018 1.477 . S
C1019 H1039 0.930 . S
C1020 N1016 1.362 . S
C1020 C1017 1.431 . S
C1020 C1030 1.476 . S
H1021 C1015 0.929 . S
C1022 O1013 1.250 . S
C1022 O1014 1.258 . S
O1023 Mn1008 2.162 . S
O1023 C1011 1.281 . S
O1024 Mn1008 2.297 . S
O1024 C1011 1.236 . S
N1025 Mn1009 2.282 . S
N1025 C1026 1.328 . S
N1025 C1030 1.318 . S
C1026 N1025 1.328 . S
C1026 C1027 1.457 . S
C1026 H1031 0.929 . S
C1027 C1026 1.457 . S
C1027 C1028 1.291 . S
C1027 H1040 0.931 . S
C1028 C1027 1.291 . S
C1028 C1029 1.373 . S
C1028 H1041 0.929 . S
C1029 C1028 1.373 . S
C1029 C1030 1.396 . S
C1029 C1036 1.403 . S
C1030 C1020 1.476 . S
C1030 N1025 1.318 . S
C1030 C1029 1.396 . S
H1031 C1026 0.929 . S
O1032 Mn1008 2.385 . S
O1032 C1010 1.234 . S
O1033 Mn1008 2.209 . S
O1033 Mn1009 2.215 . S
O1033 C1010 1.283 . S
O1034 Mn1008 2.094 . S
O1034 C1012 1.240 . S
O1035 Mn1009 2.117 . S
O1035 C1012 1.264 . S
C1036 C1029 1.403 . S
C1036 C1037 1.399 . S
C1036 H1042 0.929 . S
C1037 C1017 1.449 . S
C1037 C1036 1.399 . S
C1037 H1043 0.930 . S
H1038 C1018 0.931 . S
H1039 C1019 0.930 . S
H1040 C1027 0.931 . S
H1041 C1028 0.929 . S
H1042 C1036 0.929 . S
H1043 C1037 0.930 . S
Mn1044 O1049 2.095 . S
Mn1044 O1059 2.162 . S
Mn1044 O1060 2.297 . S
Mn1044 O1068 2.385 . S
Mn1044 O1069 2.209 . S
Mn1044 O1070 2.094 . S
Mn1045 O1050 2.121 . S
Mn1045 N1052 2.257 . S
Mn1045 N1061 2.282 . S
Mn1045 O1069 2.215 . S
Mn1045 O1071 2.117 . S
C1046 O1068 1.234 . S
C1046 O1069 1.283 . S
C1047 O1059 1.281 . S
C1047 O1060 1.236 . S
C1048 O1070 1.240 . S
C1048 O1071 1.264 . S
O1049 Mn1044 2.095 . S
O1049 C1058 1.250 . S
O1050 Mn1045 2.121 . S
O1050 C1058 1.258 . S
C1051 N1052 1.326 . S
C1051 C1055 1.460 . S
C1051 H1057 0.929 . S
N1052 Mn1045 2.257 . S
N1052 C1051 1.326 . S
N1052 C1056 1.362 . S
C1053 C1054 1.258 . S
C1053 C1056 1.431 . S
C1053 C1073 1.449 . S
C1054 C1053 1.258 . S
C1054 C1055 1.477 . S
C1054 H1074 0.931 . S
C1055 C1051 1.460 . S
C1055 C1054 1.477 . S
C1055 H1075 0.930 . S
C1056 N1052 1.362 . S
C1056 C1053 1.431 . S
C1056 C1066 1.476 . S
H1057 C1051 0.929 . S
C1058 O1049 1.250 . S
C1058 O1050 1.258 . S
O1059 Mn1044 2.162 . S
O1059 C1047 1.281 . S
O1060 Mn1044 2.297 . S
O1060 C1047 1.236 . S
N1061 Mn1045 2.282 . S
N1061 C1062 1.328 . S
N1061 C1066 1.318 . S
C1062 N1061 1.328 . S
C1062 C1063 1.457 . S
C1062 H1067 0.929 . S
C1063 C1062 1.457 . S
C1063 C1064 1.291 . S
C1063 H1076 0.931 . S
C1064 C1063 1.291 . S
C1064 C1065 1.373 . S
C1064 H1077 0.929 . S
C1065 C1064 1.373 . S
C1065 C1066 1.396 . S
C1065 C1072 1.403 . S
C1066 C1056 1.476 . S
C1066 N1061 1.318 . S
C1066 C1065 1.396 . S
H1067 C1062 0.929 . S
O1068 Mn1044 2.385 . S
O1068 C1046 1.234 . S
O1069 Mn1044 2.209 . S
O1069 Mn1045 2.215 . S
O1069 C1046 1.283 . S
O1070 Mn1044 2.094 . S
O1070 C1048 1.240 . S
O1071 Mn1045 2.117 . S
O1071 C1048 1.264 . S
C1072 C1065 1.403 . S
C1072 C1073 1.399 . S
C1072 H1078 0.929 . S
C1073 C1053 1.449 . S
C1073 C1072 1.399 . S
C1073 H1079 0.930 . S
H1074 C1054 0.931 . S
H1075 C1055 0.930 . S
H1076 C1063 0.931 . S
H1077 C1064 0.929 . S
H1078 C1072 0.929 . S
H1079 C1073 0.930 . S
Mn1080 O1085 2.095 . S
Mn1080 O1095 2.162 . S
Mn1080 O1096 2.297 . S
Mn1080 O1104 2.385 . S
Mn1080 O1105 2.209 . S
Mn1080 O1106 2.094 . S
Mn1081 O1086 2.121 . S
Mn1081 N1088 2.257 . S
Mn1081 N1097 2.282 . S
Mn1081 O1105 2.215 . S
Mn1081 O1107 2.117 . S
C1082 O1104 1.234 . S
C1082 O1105 1.283 . S
C1083 O1095 1.281 . S
C1083 O1096 1.236 . S
C1084 O1106 1.240 . S
C1084 O1107 1.264 . S
O1085 Mn1080 2.095 . S
O1085 C1094 1.250 . S
O1086 Mn1081 2.121 . S
O1086 C1094 1.258 . S
C1087 N1088 1.326 . S
C1087 C1091 1.460 1_556 S
C1087 H1093 0.929 . S
N1088 Mn1081 2.257 . S
N1088 C1087 1.326 . S
N1088 C1092 1.362 . S
C1089 C1090 1.258 . S
C1089 C1092 1.431 1_554 S
C1089 C1109 1.449 . S
C1090 C1089 1.258 . S
C1090 C1091 1.477 . S
C1090 H1110 0.931 . S
C1091 C1087 1.460 1_554 S
C1091 C1090 1.477 . S
C1091 H1111 0.930 . S
C1092 N1088 1.362 . S
C1092 C1089 1.431 1_556 S
C1092 C1102 1.476 . S
H1093 C1087 0.929 . S
C1094 O1085 1.250 . S
C1094 O1086 1.258 . S
O1095 Mn1080 2.162 . S
O1095 C1083 1.281 . S
O1096 Mn1080 2.297 . S
O1096 C1083 1.236 . S
N1097 Mn1081 2.282 . S
N1097 C1098 1.328 . S
N1097 C1102 1.318 . S
C1098 N1097 1.328 . S
C1098 C1099 1.457 . S
C1098 H1103 0.929 . S
C1099 C1098 1.457 . S
C1099 C1100 1.291 . S
C1099 H1112 0.931 . S
C1100 C1099 1.291 . S
C1100 C1101 1.373 . S
C1100 H1113 0.929 . S
C1101 C1100 1.373 . S
C1101 C1102 1.396 . S
C1101 C1108 1.403 . S
C1102 C1092 1.476 . S
C1102 N1097 1.318 . S
C1102 C1101 1.396 . S
H1103 C1098 0.929 . S
O1104 Mn1080 2.385 . S
O1104 C1082 1.234 . S
O1105 Mn1080 2.209 . S
O1105 Mn1081 2.215 . S
O1105 C1082 1.283 . S
O1106 Mn1080 2.094 . S
O1106 C1084 1.240 . S
O1107 Mn1081 2.117 . S
O1107 C1084 1.264 . S
C1108 C1101 1.403 . S
C1108 C1109 1.399 1_556 S
C1108 H1114 0.929 . S
C1109 C1089 1.449 . S
C1109 C1108 1.399 1_554 S
C1109 H1115 0.930 . S
H1110 C1090 0.931 . S
H1111 C1091 0.930 . S
H1112 C1099 0.931 . S
H1113 C1100 0.929 . S
H1114 C1108 0.929 . S
H1115 C1109 0.930 . S
Mn1116 O1121 2.095 . S
Mn1116 O1131 2.162 . S
Mn1116 O1132 2.297 . S
Mn1116 O1140 2.385 . S
Mn1116 O1141 2.209 . S
Mn1116 O1142 2.094 . S
Mn1117 O1122 2.121 . S
Mn1117 N1124 2.257 . S
Mn1117 N1133 2.282 . S
Mn1117 O1141 2.215 . S
Mn1117 O1143 2.117 . S
C1118 O1140 1.234 . S
C1118 O1141 1.283 . S
C1119 O1131 1.281 . S
C1119 O1132 1.236 . S
C1120 O1142 1.240 . S
C1120 O1143 1.264 . S
O1121 Mn1116 2.095 . S
O1121 C1130 1.250 . S
O1122 Mn1117 2.121 . S
O1122 C1130 1.258 . S
C1123 N1124 1.326 . S
C1123 C1127 1.460 . S
C1123 H1129 0.929 . S
N1124 Mn1117 2.257 . S
N1124 C1123 1.326 . S
N1124 C1128 1.362 . S
C1125 C1126 1.258 . S
C1125 C1128 1.431 . S
C1125 C1145 1.449 . S
C1126 C1125 1.258 . S
C1126 C1127 1.477 . S
C1126 H1146 0.931 . S
C1127 C1123 1.460 . S
C1127 C1126 1.477 . S
C1127 H1147 0.930 . S
C1128 N1124 1.362 . S
C1128 C1125 1.431 . S
C1128 C1138 1.476 . S
H1129 C1123 0.929 . S
C1130 O1121 1.250 . S
C1130 O1122 1.258 . S
O1131 Mn1116 2.162 . S
O1131 C1119 1.281 . S
O1132 Mn1116 2.297 . S
O1132 C1119 1.236 . S
N1133 Mn1117 2.282 . S
N1133 C1134 1.328 . S
N1133 C1138 1.318 . S
C1134 N1133 1.328 . S
C1134 C1135 1.457 . S
C1134 H1139 0.929 . S
C1135 C1134 1.457 . S
C1135 C1136 1.291 . S
C1135 H1148 0.931 . S
C1136 C1135 1.291 . S
C1136 C1137 1.373 . S
C1136 H1149 0.929 . S
C1137 C1136 1.373 . S
C1137 C1138 1.396 . S
C1137 C1144 1.403 . S
C1138 C1128 1.476 . S
C1138 N1133 1.318 . S
C1138 C1137 1.396 . S
H1139 C1134 0.929 . S
O1140 Mn1116 2.385 . S
O1140 C1118 1.234 . S
O1141 Mn1116 2.209 . S
O1141 Mn1117 2.215 . S
O1141 C1118 1.283 . S
O1142 Mn1116 2.094 . S
O1142 C1120 1.240 . S
O1143 Mn1117 2.117 . S
O1143 C1120 1.264 . S
C1144 C1137 1.403 . S
C1144 C1145 1.399 . S
C1144 H1150 0.929 . S
C1145 C1125 1.449 . S
C1145 C1144 1.399 . S
C1145 H1151 0.930 . S
H1146 C1126 0.931 . S
H1147 C1127 0.930 . S
H1148 C1135 0.931 . S
H1149 C1136 0.929 . S
H1150 C1144 0.929 . S
H1151 C1145 0.930 . S
H1152 C1160 0.929 . S
H1153 C1162 0.930 . S
H1154 C1164 0.930 1_556 S
H1155 C1167 0.929 . S
H1156 C1170 0.930 . S
H1157 C1172 0.960 1_565 S
H1158 C1172 0.960 1_564 S
H1159 C1172 0.960 . S
C1160 H1152 0.929 . S
C1160 C1161 1.377 . S
C1160 C1162 1.384 . S
C1161 C1160 1.377 . S
C1161 C1167 1.390 . S
C1162 H1153 0.930 . S
C1162 C1160 1.384 . S
C1162 C1163 1.372 . S
C1163 C1162 1.372 . S
C1163 C1164 1.400 . S
C1163 C1168 1.490 . S
C1164 H1154 0.930 1_554 S
C1164 C1163 1.400 . S
C1164 C1167 1.386 . S
H1165 C1181 0.930 . S
H1166 C1182 0.931 . S
C1167 H1155 0.929 . S
C1167 C1161 1.390 . S
C1167 C1164 1.386 . S
C1168 C1163 1.490 . S
C1168 C1170 1.395 1_455 S
C1168 C1171 1.403 1_554 S
H1169 C1175 0.930 . S
C1170 H1156 0.930 . S
C1170 C1168 1.395 1_655 S
C1170 C1173 1.403 1_554 S
C1171 C1168 1.403 1_556 S
C1171 C1172 1.524 . S
C1171 C1175 1.400 1_545 S
C1172 H1157 0.960 1_545 S
C1172 H1158 0.960 1_546 S
C1172 H1159 0.960 . S
C1172 C1171 1.524 . S
C1173 C1170 1.403 1_556 S
C1173 C1174 1.392 1_545 S
C1173 C1177 1.495 . S
C1174 C1173 1.392 1_565 S
C1174 C1175 1.385 1_655 S
C1174 C1176 1.478 . S
C1175 H1169 0.930 . S
C1175 C1171 1.400 1_565 S
C1175 C1174 1.385 1_455 S
C1176 C1174 1.478 . S
C1176 C1178 1.381 . S
C1176 C1182 1.383 . S
C1177 C1173 1.495 . S
C1177 H1183 0.959 1_556 S
C1177 H1184 0.961 . S
C1177 H1185 0.960 1_546 S
C1178 C1176 1.381 . S
C1178 C1179 1.394 . S
C1178 H1186 0.930 . S
C1179 C1178 1.394 . S
C1179 C1180 1.383 . S
C1179 H1187 0.929 . S
C1180 C1179 1.383 . S
C1180 C1181 1.377 . S
C1181 H1165 0.930 . S
C1181 C1180 1.377 . S
C1181 C1182 1.379 . S
C1182 H1166 0.931 . S
C1182 C1176 1.383 . S
C1182 C1181 1.379 . S
H1183 C1177 0.959 1_554 S
H1184 C1177 0.961 . S
H1185 C1177 0.960 1_564 S
H1186 C1178 0.930 . S
H1187 C1179 0.929 . S
H1188 C1196 0.929 . S
H1189 C1198 0.930 . S
H1190 C1200 0.930 . S
H1191 C1203 0.929 . S
H1192 C1206 0.930 . S
H1193 C1208 0.960 . S
H1194 C1208 0.960 . S
H1195 C1208 0.960 . S
C1196 H1188 0.929 . S
C1196 C1197 1.377 . S
C1196 C1198 1.384 . S
C1197 C1196 1.377 . S
C1197 C1203 1.390 . S
C1198 H1189 0.930 . S
C1198 C1196 1.384 . S
C1198 C1199 1.372 . S
C1199 C1198 1.372 . S
C1199 C1200 1.400 . S
C1199 C1204 1.490 . S
C1200 H1190 0.930 . S
C1200 C1199 1.400 . S
C1200 C1203 1.386 . S
H1201 C1217 0.930 . S
H1202 C1218 0.931 . S
C1203 H1191 0.929 . S
C1203 C1197 1.390 . S
C1203 C1200 1.386 . S
C1204 C1199 1.490 . S
C1204 C1206 1.395 . S
C1204 C1207 1.403 . S
H1205 C1211 0.930 . S
C1206 H1192 0.930 . S
C1206 C1204 1.395 . S
C1206 C1209 1.403 . S
C1207 C1204 1.403 . S
C1207 C1208 1.524 . S
C1207 C1211 1.400 . S
C1208 H1193 0.960 . S
C1208 H1194 0.960 . S
C1208 H1195 0.960 . S
C1208 C1207 1.524 . S
C1209 C1206 1.403 . S
C1209 C1210 1.392 . S
C1209 C1213 1.495 . S
C1210 C1209 1.392 . S
C1210 C1211 1.385 . S
C1210 C1212 1.478 . S
C1211 H1205 0.930 . S
C1211 C1207 1.400 . S
C1211 C1210 1.385 . S
C1212 C1210 1.478 . S
C1212 C1214 1.381 . S
C1212 C1218 1.383 . S
C1213 C1209 1.495 . S
C1213 H1219 0.959 . S
C1213 H1220 0.961 . S
C1213 H1221 0.960 . S
C1214 C1212 1.381 . S
C1214 C1215 1.394 . S
C1214 H1222 0.930 . S
C1215 C1214 1.394 . S
C1215 C1216 1.383 . S
C1215 H1223 0.929 . S
C1216 C1215 1.383 . S
C1216 C1217 1.377 . S
C1217 H1201 0.930 . S
C1217 C1216 1.377 . S
C1217 C1218 1.379 . S
C1218 H1202 0.931 . S
C1218 C1212 1.383 . S
C1218 C1217 1.379 . S
H1219 C1213 0.959 . S
H1220 C1213 0.961 . S
H1221 C1213 0.960 . S
H1222 C1214 0.930 . S
H1223 C1215 0.929 . S
H1224 C1232 0.929 . S
H1225 C1234 0.930 . S
H1226 C1236 0.930 . S
H1227 C1239 0.929 . S
H1228 C1242 0.930 . S
H1229 C1244 0.960 . S
H1230 C1244 0.960 . S
H1231 C1244 0.960 . S
C1232 H1224 0.929 . S
C1232 C1233 1.377 . S
C1232 C1234 1.384 . S
C1233 C1232 1.377 . S
C1233 C1239 1.390 . S
C1234 H1225 0.930 . S
C1234 C1232 1.384 . S
C1234 C1235 1.372 . S
C1235 C1234 1.372 . S
C1235 C1236 1.400 . S
C1235 C1240 1.490 . S
C1236 H1226 0.930 . S
C1236 C1235 1.400 . S
C1236 C1239 1.386 . S
H1237 C1253 0.930 . S
H1238 C1254 0.931 1_565 S
C1239 H1227 0.929 . S
C1239 C1233 1.390 . S
C1239 C1236 1.386 . S
C1240 C1235 1.490 . S
C1240 C1242 1.395 . S
C1240 C1243 1.403 . S
H1241 C1247 0.930 . S
C1242 H1228 0.930 . S
C1242 C1240 1.395 . S
C1242 C1245 1.403 1_565 S
C1243 C1240 1.403 . S
C1243 C1244 1.524 . S
C1243 C1247 1.400 . S
C1244 H1229 0.960 . S
C1244 H1230 0.960 . S
C1244 H1231 0.960 . S
C1244 C1243 1.524 . S
C1245 C1242 1.403 1_545 S
C1245 C1246 1.402 . S
C1245 C1249 1.495 . S
C1246 C1245 1.402 . S
C1246 C1247 1.352 1_545 S
C1246 C1248 1.501 . S
C1247 H1241 0.930 . S
C1247 C1243 1.400 . S
C1247 C1246 1.352 1_565 S
C1248 C1246 1.501 . S
C1248 C1250 1.381 . S
C1248 C1254 1.383 . S
C1249 C1245 1.495 . S
C1249 H1255 0.959 . S
C1249 H1256 0.961 . S
C1249 H1257 0.960 . S
C1250 C1248 1.381 . S
C1250 C1251 1.394 . S
C1250 H1258 0.930 . S
C1251 C1250 1.394 . S
C1251 C1252 1.383 . S
C1251 H1259 0.929 . S
C1252 C1251 1.383 . S
C1252 C1253 1.377 . S
C1253 H1237 0.930 . S
C1253 C1252 1.377 . S
C1253 C1254 1.379 . S
C1254 H1238 0.931 1_545 S
C1254 C1248 1.383 . S
C1254 C1253 1.379 . S
H1255 C1249 0.959 . S
H1256 C1249 0.961 . S
H1257 C1249 0.960 . S
H1258 C1250 0.930 . S
H1259 C1251 0.929 . S
H1260 C1268 0.929 . S
H1261 C1270 0.930 . S
H1262 C1272 0.930 . S
H1263 C1275 0.929 . S
H1264 C1278 0.930 . S
H1265 C1280 0.960 . S
H1266 C1280 0.960 . S
H1267 C1280 0.960 . S
C1268 H1260 0.929 . S
C1268 C1269 1.377 . S
C1268 C1270 1.384 . S
C1269 C1268 1.377 . S
C1269 C1275 1.390 . S
C1270 H1261 0.930 . S
C1270 C1268 1.384 . S
C1270 C1271 1.372 . S
C1271 C1270 1.372 . S
C1271 C1272 1.400 . S
C1271 C1276 1.490 . S
C1272 H1262 0.930 . S
C1272 C1271 1.400 . S
C1272 C1275 1.386 . S
H1273 C1289 0.930 . S
H1274 C1290 0.931 . S
C1275 H1263 0.929 . S
C1275 C1269 1.390 . S
C1275 C1272 1.386 . S
C1276 C1271 1.490 . S
C1276 C1278 1.395 . S
C1276 C1279 1.403 . S
H1277 C1283 0.930 . S
C1278 H1264 0.930 . S
C1278 C1276 1.395 . S
C1278 C1281 1.403 . S
C1279 C1276 1.403 . S
C1279 C1280 1.524 . S
C1279 C1283 1.400 . S
C1280 H1265 0.960 . S
C1280 H1266 0.960 . S
C1280 H1267 0.960 . S
C1280 C1279 1.524 . S
C1281 C1278 1.403 . S
C1281 C1282 1.392 . S
C1281 C1285 1.495 . S
C1282 C1281 1.392 . S
C1282 C1283 1.385 . S
C1282 C1284 1.478 . S
C1283 H1277 0.930 . S
C1283 C1279 1.400 . S
C1283 C1282 1.385 . S
C1284 C1282 1.478 . S
C1284 C1286 1.381 . S
C1284 C1290 1.383 . S
C1285 C1281 1.495 . S
C1285 H1291 0.959 . S
C1285 H1292 0.961 . S
C1285 H1293 0.960 . S
C1286 C1284 1.381 . S
C1286 C1287 1.394 . S
C1286 H1294 0.930 . S
C1287 C1286 1.394 . S
C1287 C1288 1.383 . S
C1287 H1295 0.929 . S
C1288 C1287 1.383 . S
C1288 C1289 1.377 . S
C1289 H1273 0.930 . S
C1289 C1288 1.377 . S
C1289 C1290 1.379 . S
C1290 H1274 0.931 . S
C1290 C1284 1.383 . S
C1290 C1289 1.379 . S
H1291 C1285 0.959 . S
H1292 C1285 0.961 . S
H1293 C1285 0.960 . S
H1294 C1286 0.930 . S
H1295 C1287 0.929 . S
H1296 C1304 0.929 . S
H1297 C1306 0.930 . S
H1298 C1308 0.930 . S
H1299 C1311 0.929 . S
H1300 C1314 0.930 . S
H1301 C1316 0.960 . S
H1302 C1316 0.960 . S
H1303 C1316 0.960 . S
C1304 H1296 0.929 . S
C1304 C1305 1.377 . S
C1304 C1306 1.384 . S
C1305 C1304 1.377 . S
C1305 C1311 1.390 . S
C1306 H1297 0.930 . S
C1306 C1304 1.384 . S
C1306 C1307 1.372 . S
C1307 C1306 1.372 . S
C1307 C1308 1.400 . S
C1307 C1312 1.490 . S
C1308 H1298 0.930 . S
C1308 C1307 1.400 . S
C1308 C1311 1.386 . S
H1309 C1325 0.930 . S
H1310 C1326 0.931 . S
C1311 H1299 0.929 . S
C1311 C1305 1.390 . S
C1311 C1308 1.386 . S
C1312 C1307 1.490 . S
C1312 C1314 1.395 1_565 S
C1312 C1315 1.403 1_455 S
H1313 C1319 0.930 . S
C1314 H1300 0.930 . S
C1314 C1312 1.395 1_545 S
C1314 C1317 1.426 . S
C1315 C1312 1.403 1_655 S
C1315 C1316 1.524 . S
C1315 C1319 1.400 1_565 S
C1316 H1301 0.960 . S
C1316 H1302 0.960 . S
C1316 H1303 0.960 . S
C1316 C1315 1.524 . S
C1317 C1314 1.426 . S
C1317 C1318 1.353 1_455 S
C1317 C1321 1.513 . S
C1318 C1317 1.353 1_655 S
C1318 C1319 1.385 . S
C1318 C1320 1.478 . S
C1319 H1313 0.930 . S
C1319 C1315 1.400 1_545 S
C1319 C1318 1.385 . S
C1320 C1318 1.478 . S
C1320 C1322 1.381 . S
C1320 C1326 1.383 . S
C1321 C1317 1.513 . S
C1321 H1327 0.959 . S
C1321 H1328 0.961 . S
C1321 H1329 0.960 . S
C1322 C1320 1.381 . S
C1322 C1323 1.394 . S
C1322 H1330 0.930 . S
C1323 C1322 1.394 . S
C1323 C1324 1.383 . S
C1323 H1331 0.929 . S
C1324 C1323 1.383 . S
C1324 C1325 1.377 . S
C1325 H1309 0.930 . S
C1325 C1324 1.377 . S
C1325 C1326 1.379 . S
C1326 H1310 0.931 . S
C1326 C1320 1.383 . S
C1326 C1325 1.379 . S
H1327 C1321 0.959 . S
H1328 C1321 0.961 . S
H1329 C1321 0.960 . S
H1330 C1322 0.930 . S
H1331 C1323 0.929 . S
H1332 C1340 0.929 . S
H1333 C1342 0.930 . S
H1334 C1344 0.930 . S
H1335 C1347 0.929 . S
H1336 C1350 0.930 . S
H1337 C1352 0.960 . S
H1338 C1352 0.960 . S
H1339 C1352 0.960 . S
C1340 H1332 0.929 . S
C1340 C1341 1.377 . S
C1340 C1342 1.384 . S
C1341 C1340 1.377 . S
C1341 C1347 1.390 . S
C1342 H1333 0.930 . S
C1342 C1340 1.384 . S
C1342 C1343 1.372 . S
C1343 C1342 1.372 . S
C1343 C1344 1.400 . S
C1343 C1348 1.490 . S
C1344 H1334 0.930 . S
C1344 C1343 1.400 . S
C1344 C1347 1.386 . S
H1345 C1361 0.930 . S
H1346 C1362 0.931 . S
C1347 H1335 0.929 . S
C1347 C1341 1.390 . S
C1347 C1344 1.386 . S
C1348 C1343 1.490 . S
C1348 C1350 1.395 . S
C1348 C1351 1.403 . S
H1349 C1355 0.930 . S
C1350 H1336 0.930 . S
C1350 C1348 1.395 . S
C1350 C1353 1.403 . S
C1351 C1348 1.403 . S
C1351 C1352 1.524 . S
C1351 C1355 1.400 . S
C1352 H1337 0.960 . S
C1352 H1338 0.960 . S
C1352 H1339 0.960 . S
C1352 C1351 1.524 . S
C1353 C1350 1.403 . S
C1353 C1354 1.392 . S
C1353 C1357 1.495 . S
C1354 C1353 1.392 . S
C1354 C1355 1.385 . S
C1354 C1356 1.478 . S
C1355 H1349 0.930 . S
C1355 C1351 1.400 . S
C1355 C1354 1.385 . S
C1356 C1354 1.478 . S
C1356 C1358 1.381 . S
C1356 C1362 1.383 . S
C1357 C1353 1.495 . S
C1357 H1363 0.959 . S
C1357 H1364 0.961 . S
C1357 H1365 0.960 . S
C1358 C1356 1.381 . S
C1358 C1359 1.394 . S
C1358 H1366 0.930 . S
C1359 C1358 1.394 . S
C1359 C1360 1.383 . S
C1359 H1367 0.929 . S
C1360 C1359 1.383 . S
C1360 C1361 1.377 . S
C1361 H1345 0.930 . S
C1361 C1360 1.377 . S
C1361 C1362 1.379 . S
C1362 H1346 0.931 . S
C1362 C1356 1.383 . S
C1362 C1361 1.379 . S
H1363 C1357 0.959 . S
H1364 C1357 0.961 . S
H1365 C1357 0.960 . S
H1366 C1358 0.930 . S
H1367 C1359 0.929 . S
H1368 C1376 0.929 . S
H1369 C1378 0.930 . S
H1370 C1380 0.930 . S
H1371 C1383 0.929 . S
H1372 C1386 0.930 . S
H1373 C1388 0.960 . S
H1374 C1388 0.960 1_545 S
H1375 C1388 0.960 . S
C1376 H1368 0.929 . S
C1376 C1377 1.377 . S
C1376 C1378 1.384 . S
C1377 C1376 1.377 . S
C1377 C1383 1.390 . S
C1378 H1369 0.930 . S
C1378 C1376 1.384 . S
C1378 C1379 1.372 . S
C1379 C1378 1.372 . S
C1379 C1380 1.400 . S
C1379 C1384 1.490 . S
C1380 H1370 0.930 . S
C1380 C1379 1.400 . S
C1380 C1383 1.386 . S
H1381 C1397 0.930 . S
H1382 C1398 0.931 . S
C1383 H1371 0.929 . S
C1383 C1377 1.390 . S
C1383 C1380 1.386 . S
C1384 C1379 1.490 . S
C1384 C1386 1.395 1_556 S
C1384 C1387 1.403 . S
H1385 C1391 0.930 . S
C1386 H1372 0.930 . S
C1386 C1384 1.395 1_554 S
C1386 C1389 1.403 . S
C1387 C1384 1.403 . S
C1387 C1388 1.524 1_545 S
C1387 C1391 1.400 1_545 S
C1388 H1373 0.960 . S
C1388 H1374 0.960 1_565 S
C1388 H1375 0.960 . S
C1388 C1387 1.524 1_565 S
C1389 C1386 1.403 . S
C1389 C1390 1.392 1_545 S
C1389 C1393 1.495 . S
C1390 C1389 1.392 1_565 S
C1390 C1391 1.385 1_554 S
C1390 C1392 1.478 . S
C1391 H1385 0.930 . S
C1391 C1387 1.400 1_565 S
C1391 C1390 1.385 1_556 S
C1392 C1390 1.478 . S
C1392 C1394 1.381 . S
C1392 C1398 1.383 . S
C1393 C1389 1.495 . S
C1393 H1399 0.959 . S
C1393 H1400 0.961 . S
C1393 H1401 0.960 . S
C1394 C1392 1.381 . S
C1394 C1395 1.394 . S
C1394 H1402 0.930 1_565 S
C1395 C1394 1.394 . S
C1395 C1396 1.383 . S
C1395 H1403 0.929 . S
C1396 C1395 1.383 . S
C1396 C1397 1.377 . S
C1397 H1381 0.930 . S
C1397 C1396 1.377 . S
C1397 C1398 1.379 . S
C1398 H1382 0.931 . S
C1398 C1392 1.383 . S
C1398 C1397 1.379 . S
H1399 C1393 0.959 . S
H1400 C1393 0.961 . S
H1401 C1393 0.960 . S
H1402 C1394 0.930 1_545 S
H1403 C1395 0.929 . S
H1404 C1412 0.929 . S
H1405 C1414 0.930 . S
H1406 C1416 0.930 . S
H1407 C1419 0.929 . S
H1408 C1422 0.930 . S
H1409 C1424 0.960 . S
H1410 C1424 0.960 . S
H1411 C1424 0.960 . S
C1412 H1404 0.929 . S
C1412 C1413 1.377 . S
C1412 C1414 1.384 . S
C1413 C1412 1.377 . S
C1413 C1419 1.390 . S
C1414 H1405 0.930 . S
C1414 C1412 1.384 . S
C1414 C1415 1.372 . S
C1415 C1414 1.372 . S
C1415 C1416 1.400 . S
C1415 C1420 1.490 . S
C1416 H1406 0.930 . S
C1416 C1415 1.400 . S
C1416 C1419 1.386 . S
H1417 C1433 0.930 . S
H1418 C1434 0.931 . S
C1419 H1407 0.929 . S
C1419 C1413 1.390 . S
C1419 C1416 1.386 . S
C1420 C1415 1.490 . S
C1420 C1422 1.395 . S
C1420 C1423 1.403 . S
H1421 C1427 0.930 . S
C1422 H1408 0.930 . S
C1422 C1420 1.395 . S
C1422 C1425 1.403 . S
C1423 C1420 1.403 . S
C1423 C1424 1.524 . S
C1423 C1427 1.400 . S
C1424 H1409 0.960 . S
C1424 H1410 0.960 . S
C1424 H1411 0.960 . S
C1424 C1423 1.524 . S
C1425 C1422 1.403 . S
C1425 C1426 1.392 . S
C1425 C1429 1.495 . S
C1426 C1425 1.392 . S
C1426 C1427 1.385 . S
C1426 C1428 1.478 . S
C1427 H1421 0.930 . S
C1427 C1423 1.400 . S
C1427 C1426 1.385 . S
C1428 C1426 1.478 . S
C1428 C1430 1.381 . S
C1428 C1434 1.383 . S
C1429 C1425 1.495 . S
C1429 H1435 0.959 . S
C1429 H1436 0.961 . S
C1429 H1437 0.960 . S
C1430 C1428 1.381 . S
C1430 C1431 1.394 . S
C1430 H1438 0.930 . S
C1431 C1430 1.394 . S
C1431 C1432 1.383 . S
C1431 H1439 0.929 . S
C1432 C1431 1.383 . S
C1432 C1433 1.377 . S
C1433 H1417 0.930 . S
C1433 C1432 1.377 . S
C1433 C1434 1.379 . S
C1434 H1418 0.931 . S
C1434 C1428 1.383 . S
C1434 C1433 1.379 . S
H1435 C1429 0.959 . S
H1436 C1429 0.961 . S
H1437 C1429 0.960 . S
H1438 C1430 0.930 . S
H1439 C1431 0.929 . S
H1440 C1448 0.929 . S
H1441 C1450 0.930 . S
H1442 C1452 0.930 1_556 S
H1443 C1455 0.929 . S
H1444 C1458 0.930 1_554 S
H1445 C1460 0.960 1_556 S
H1446 C1460 0.960 . S
H1447 C1460 0.960 1_556 S
C1448 H1440 0.929 . S
C1448 C1449 1.377 . S
C1448 C1450 1.384 . S
C1449 C1448 1.377 . S
C1449 C1455 1.390 . S
C1450 H1441 0.930 . S
C1450 C1448 1.384 . S
C1450 C1451 1.372 . S
C1451 C1450 1.372 . S
C1451 C1452 1.400 . S
C1451 C1456 1.490 . S
C1452 H1442 0.930 1_554 S
C1452 C1451 1.400 . S
C1452 C1455 1.386 . S
H1453 C1469 0.930 . S
H1454 C1470 0.931 . S
C1455 H1443 0.929 . S
C1455 C1449 1.390 . S
C1455 C1452 1.386 . S
C1456 C1451 1.490 . S
C1456 C1458 1.395 1_554 S
C1456 C1459 1.403 1_554 S
H1457 C1463 0.930 . S
C1458 H1444 0.930 1_556 S
C1458 C1456 1.395 1_556 S
C1458 C1461 1.403 . S
C1459 C1456 1.403 1_556 S
C1459 C1460 1.524 1_556 S
C1459 C1463 1.400 . S
C1460 H1445 0.960 1_554 S
C1460 H1446 0.960 . S
C1460 H1447 0.960 1_554 S
C1460 C1459 1.524 1_554 S
C1461 C1458 1.403 . S
C1461 C1462 1.392 . S
C1461 C1465 1.495 . S
C1462 C1461 1.392 . S
C1462 C1463 1.385 . S
C1462 C1464 1.478 . S
C1463 H1457 0.930 . S
C1463 C1459 1.400 . S
C1463 C1462 1.385 . S
C1464 C1462 1.478 . S
C1464 C1466 1.381 . S
C1464 C1470 1.383 . S
C1465 C1461 1.495 . S
C1465 H1471 0.959 . S
C1465 H1472 0.961 . S
C1465 H1473 0.960 . S
C1466 C1464 1.381 . S
C1466 C1467 1.394 . S
C1466 H1474 0.930 . S
C1467 C1466 1.394 . S
C1467 C1468 1.383 . S
C1467 H1475 0.929 . S
C1468 C1467 1.383 . S
C1468 C1469 1.377 . S
C1469 H1453 0.930 . S
C1469 C1468 1.377 . S
C1469 C1470 1.379 . S
C1470 H1454 0.931 . S
C1470 C1464 1.383 . S
C1470 C1469 1.379 . S
H1471 C1465 0.959 . S
H1472 C1465 0.961 . S
H1473 C1465 0.960 . S
H1474 C1466 0.930 . S
H1475 C1467 0.929 . S
H1476 C1484 0.929 . S
H1477 C1486 0.930 . S
H1478 C1488 0.930 . S
H1479 C1491 0.929 . S
H1480 C1494 0.930 . S
H1481 C1496 0.960 . S
H1482 C1496 0.960 . S
H1483 C1496 0.960 . S
C1484 H1476 0.929 . S
C1484 C1485 1.377 . S
C1484 C1486 1.384 . S
C1485 C1484 1.377 . S
C1485 C1491 1.390 . S
C1486 H1477 0.930 . S
C1486 C1484 1.384 . S
C1486 C1487 1.372 . S
C1487 C1486 1.372 . S
C1487 C1488 1.400 . S
C1487 C1492 1.490 . S
C1488 H1478 0.930 . S
C1488 C1487 1.400 . S
C1488 C1491 1.386 . S
H1489 C1505 0.930 . S
H1490 C1506 0.931 . S
C1491 H1479 0.929 . S
C1491 C1485 1.390 . S
C1491 C1488 1.386 . S
C1492 C1487 1.490 . S
C1492 C1494 1.395 . S
C1492 C1495 1.403 . S
H1493 C1499 0.930 . S
C1494 H1480 0.930 . S
C1494 C1492 1.395 . S
C1494 C1497 1.403 . S
C1495 C1492 1.403 . S
C1495 C1496 1.524 . S
C1495 C1499 1.400 . S
C1496 H1481 0.960 . S
C1496 H1482 0.960 . S
C1496 H1483 0.960 . S
C1496 C1495 1.524 . S
C1497 C1494 1.403 . S
C1497 C1498 1.392 . S
C1497 C1501 1.495 . S
C1498 C1497 1.392 . S
C1498 C1499 1.385 . S
C1498 C1500 1.478 . S
C1499 H1493 0.930 . S
C1499 C1495 1.400 . S
C1499 C1498 1.385 . S
C1500 C1498 1.478 . S
C1500 C1502 1.381 . S
C1500 C1506 1.383 . S
C1501 C1497 1.495 . S
C1501 H1507 0.959 . S
C1501 H1508 0.961 . S
C1501 H1509 0.960 . S
C1502 C1500 1.381 . S
C1502 C1503 1.394 . S
C1502 H1510 0.930 . S
C1503 C1502 1.394 . S
C1503 C1504 1.383 . S
C1503 H1511 0.929 . S
C1504 C1503 1.383 . S
C1504 C1505 1.377 . S
C1505 H1489 0.930 . S
C1505 C1504 1.377 . S
C1505 C1506 1.379 . S
C1506 H1490 0.931 . S
C1506 C1500 1.383 . S
C1506 C1505 1.379 . S
H1507 C1501 0.959 . S
H1508 C1501 0.961 . S
H1509 C1501 0.960 . S
H1510 C1502 0.930 . S
H1511 C1503 0.929 . S
H1512 C1520 0.929 . S
H1513 C1522 0.930 . S
H1514 C1524 0.930 . S
H1515 C1527 0.929 . S
H1516 C1530 0.930 . S
H1517 C1532 0.960 1_655 S
H1518 C1532 0.960 . S
H1519 C1532 0.960 . S
C1520 H1512 0.929 . S
C1520 C1521 1.377 . S
C1520 C1522 1.384 . S
C1521 C1520 1.377 . S
C1521 C1527 1.390 . S
C1522 H1513 0.930 . S
C1522 C1520 1.384 . S
C1522 C1523 1.372 . S
C1523 C1522 1.372 . S
C1523 C1524 1.400 . S
C1523 C1528 1.490 . S
C1524 H1514 0.930 . S
C1524 C1523 1.400 . S
C1524 C1527 1.386 . S
H1525 C1541 0.930 . S
H1526 C1542 0.931 . S
C1527 H1515 0.929 . S
C1527 C1521 1.390 . S
C1527 C1524 1.386 . S
C1528 C1523 1.490 . S
C1528 C1530 1.395 . S
C1528 C1531 1.403 . S
H1529 C1535 0.930 1_655 S
C1530 H1516 0.930 . S
C1530 C1528 1.395 . S
C1530 C1533 1.403 . S
C1531 C1528 1.403 . S
C1531 C1532 1.524 . S
C1531 C1535 1.400 . S
C1532 H1517 0.960 1_455 S
C1532 H1518 0.960 . S
C1532 H1519 0.960 . S
C1532 C1531 1.524 . S
C1533 C1530 1.403 . S
C1533 C1534 1.392 . S
C1533 C1537 1.495 . S
C1534 C1533 1.392 . S
C1534 C1535 1.385 . S
C1534 C1536 1.462 1_455 S
C1535 H1529 0.930 1_455 S
C1535 C1531 1.400 . S
C1535 C1534 1.385 . S
C1536 C1534 1.462 1_655 S
C1536 C1538 1.392 . S
C1536 C1542 1.390 . S
C1537 C1533 1.495 . S
C1537 H1543 0.959 . S
C1537 H1544 0.961 . S
C1537 H1545 0.960 . S
C1538 C1536 1.392 . S
C1538 C1539 1.394 . S
C1538 H1546 0.930 . S
C1539 C1538 1.394 . S
C1539 C1540 1.383 . S
C1539 H1547 0.929 . S
C1540 C1539 1.383 . S
C1540 C1541 1.377 . S
C1541 H1525 0.930 . S
C1541 C1540 1.377 . S
C1541 C1542 1.379 . S
C1542 H1526 0.931 . S
C1542 C1536 1.390 . S
C1542 C1541 1.379 . S
H1543 C1537 0.959 . S
H1544 C1537 0.961 . S
H1545 C1537 0.960 . S
H1546 C1538 0.930 . S
H1547 C1539 0.929 . S
H1548 C1556 0.929 . S
H1549 C1558 0.930 . S
H1550 C1560 0.930 . S
H1551 C1563 0.929 . S
H1552 C1566 0.930 . S
H1553 C1568 0.960 . S
H1554 C1568 0.960 . S
H1555 C1568 0.960 . S
C1556 H1548 0.929 . S
C1556 C1557 1.377 . S
C1556 C1558 1.384 . S
C1557 C1556 1.377 . S
C1557 C1563 1.390 . S
C1558 H1549 0.930 . S
C1558 C1556 1.384 . S
C1558 C1559 1.372 . S
C1559 C1558 1.372 . S
C1559 C1560 1.400 . S
C1559 C1564 1.490 . S
C1560 H1550 0.930 . S
C1560 C1559 1.400 . S
C1560 C1563 1.386 . S
H1561 C1577 0.930 . S
H1562 C1578 0.931 . S
C1563 H1551 0.929 . S
C1563 C1557 1.390 . S
C1563 C1560 1.386 . S
C1564 C1559 1.490 . S
C1564 C1566 1.395 . S
C1564 C1567 1.403 . S
H1565 C1571 0.930 . S
C1566 H1552 0.930 . S
C1566 C1564 1.395 . S
C1566 C1569 1.403 . S
C1567 C1564 1.403 . S
C1567 C1568 1.524 . S
C1567 C1571 1.400 . S
C1568 H1553 0.960 . S
C1568 H1554 0.960 . S
C1568 H1555 0.960 . S
C1568 C1567 1.524 . S
C1569 C1566 1.403 . S
C1569 C1570 1.392 . S
C1569 C1573 1.495 . S
C1570 C1569 1.392 . S
C1570 C1571 1.385 . S
C1570 C1572 1.478 . S
C1571 H1565 0.930 . S
C1571 C1567 1.400 . S
C1571 C1570 1.385 . S
C1572 C1570 1.478 . S
C1572 C1574 1.381 . S
C1572 C1578 1.383 . S
C1573 C1569 1.495 . S
C1573 H1579 0.959 . S
C1573 H1580 0.961 . S
C1573 H1581 0.960 . S
C1574 C1572 1.381 . S
C1574 C1575 1.394 . S
C1574 H1582 0.930 . S
C1575 C1574 1.394 . S
C1575 C1576 1.383 . S
C1575 H1583 0.929 . S
C1576 C1575 1.383 . S
C1576 C1577 1.377 . S
C1577 H1561 0.930 . S
C1577 C1576 1.377 . S
C1577 C1578 1.379 . S
C1578 H1562 0.931 . S
C1578 C1572 1.383 . S
C1578 C1577 1.379 . S
H1579 C1573 0.959 . S
H1580 C1573 0.961 . S
H1581 C1573 0.960 . S
H1582 C1574 0.930 . S
H1583 C1575 0.929 . S
H1584 C1592 0.929 . S
H1585 C1594 0.930 . S
H1586 C1596 0.930 . S
H1587 C1599 0.929 . S
H1588 C1602 0.930 . S
H1589 C1604 0.960 . S
H1590 C1604 0.960 . S
H1591 C1604 0.960 . S
C1592 H1584 0.929 . S
C1592 C1593 1.377 . S
C1592 C1594 1.384 . S
C1593 C1592 1.377 . S
C1593 C1599 1.390 . S
C1594 H1585 0.930 . S
C1594 C1592 1.384 . S
C1594 C1595 1.372 . S
C1595 C1594 1.372 . S
C1595 C1596 1.400 . S
C1595 C1600 1.490 . S
C1596 H1586 0.930 . S
C1596 C1595 1.400 . S
C1596 C1599 1.386 . S
H1597 C1613 0.930 . S
H1598 C1614 0.931 . S
C1599 H1587 0.929 . S
C1599 C1593 1.390 . S
C1599 C1596 1.386 . S
C1600 C1595 1.490 . S
C1600 C1602 1.395 . S
C1600 C1603 1.403 . S
H1601 C1607 0.930 . S
C1602 H1588 0.930 . S
C1602 C1600 1.395 . S
C1602 C1605 1.403 . S
C1603 C1600 1.403 . S
C1603 C1604 1.524 . S
C1603 C1607 1.400 . S
C1604 H1589 0.960 . S
C1604 H1590 0.960 . S
C1604 H1591 0.960 . S
C1604 C1603 1.524 . S
C1605 C1602 1.403 . S
C1605 C1606 1.392 . S
C1605 C1609 1.495 . S
C1606 C1605 1.392 . S
C1606 C1607 1.385 . S
C1606 C1608 1.478 . S
C1607 H1601 0.930 . S
C1607 C1603 1.400 . S
C1607 C1606 1.385 . S
C1608 C1606 1.478 . S
C1608 C1610 1.381 . S
C1608 C1614 1.383 . S
C1609 C1605 1.495 . S
C1609 H1615 0.959 . S
C1609 H1616 0.961 . S
C1609 H1617 0.960 . S
C1610 C1608 1.381 . S
C1610 C1611 1.394 . S
C1610 H1618 0.930 . S
C1611 C1610 1.394 . S
C1611 C1612 1.383 . S
C1611 H1619 0.929 . S
C1612 C1611 1.383 . S
C1612 C1613 1.377 . S
C1613 H1597 0.930 . S
C1613 C1612 1.377 . S
C1613 C1614 1.379 . S
C1614 H1598 0.931 . S
C1614 C1608 1.383 . S
C1614 C1613 1.379 . S
H1615 C1609 0.959 . S
H1616 C1609 0.961 . S
H1617 C1609 0.960 . S
H1618 C1610 0.930 . S
H1619 C1611 0.929 . S
H1620 C1628 0.929 . S
H1621 C1630 0.930 . S
H1622 C1632 0.930 . S
H1623 C1635 0.929 . S
H1624 C1638 0.930 . S
H1625 C1640 0.960 . S
H1626 C1640 0.960 . S
H1627 C1640 0.960 . S
C1628 H1620 0.929 . S
C1628 C1629 1.377 . S
C1628 C1630 1.384 . S
C1629 C1628 1.377 . S
C1629 C1635 1.390 . S
C1630 H1621 0.930 . S
C1630 C1628 1.384 . S
C1630 C1631 1.372 . S
C1631 C1630 1.372 . S
C1631 C1632 1.400 . S
C1631 C1636 1.490 . S
C1632 H1622 0.930 . S
C1632 C1631 1.400 . S
C1632 C1635 1.386 . S
H1633 C1649 0.930 . S
H1634 C1650 0.931 . S
C1635 H1623 0.929 . S
C1635 C1629 1.390 . S
C1635 C1632 1.386 . S
C1636 C1631 1.490 . S
C1636 C1638 1.395 . S
C1636 C1639 1.403 . S
H1637 C1643 0.930 . S
C1638 H1624 0.930 . S
C1638 C1636 1.395 . S
C1638 C1641 1.403 . S
C1639 C1636 1.403 . S
C1639 C1640 1.524 . S
C1639 C1643 1.400 . S
C1640 H1625 0.960 . S
C1640 H1626 0.960 . S
C1640 H1627 0.960 . S
C1640 C1639 1.524 . S
C1641 C1638 1.403 . S
C1641 C1642 1.392 . S
C1641 C1645 1.495 . S
C1642 C1641 1.392 . S
C1642 C1643 1.385 . S
C1642 C1644 1.478 . S
C1643 H1637 0.930 . S
C1643 C1639 1.400 . S
C1643 C1642 1.385 . S
C1644 C1642 1.478 . S
C1644 C1646 1.381 . S
C1644 C1650 1.383 . S
C1645 C1641 1.495 . S
C1645 H1651 0.959 . S
C1645 H1652 0.961 . S
C1645 H1653 0.960 . S
C1646 C1644 1.381 . S
C1646 C1647 1.394 . S
C1646 H1654 0.930 . S
C1647 C1646 1.394 . S
C1647 C1648 1.383 . S
C1647 H1655 0.929 . S
C1648 C1647 1.383 . S
C1648 C1649 1.377 . S
C1649 H1633 0.930 . S
C1649 C1648 1.377 . S
C1649 C1650 1.379 . S
C1650 H1634 0.931 . S
C1650 C1644 1.383 . S
C1650 C1649 1.379 . S
H1651 C1645 0.959 . S
H1652 C1645 0.961 . S
H1653 C1645 0.960 . S
H1654 C1646 0.930 . S
H1655 C1647 0.929 . S
H1656 C1664 0.929 . S
H1657 C1666 0.930 . S
H1658 C1668 0.930 . S
H1659 C1671 0.929 . S
H1660 C1674 0.930 . S
H1661 C1676 0.960 . S
H1662 C1676 0.960 . S
H1663 C1676 0.960 . S
C1664 H1656 0.929 . S
C1664 C1665 1.377 . S
C1664 C1666 1.384 . S
C1665 C1664 1.377 . S
C1665 C1671 1.390 . S
C1666 H1657 0.930 . S
C1666 C1664 1.384 . S
C1666 C1667 1.372 . S
C1667 C1666 1.372 . S
C1667 C1668 1.400 . S
C1667 C1672 1.490 . S
C1668 H1658 0.930 . S
C1668 C1667 1.400 . S
C1668 C1671 1.386 . S
H1669 C1685 0.930 . S
H1670 C1686 0.931 . S
C1671 H1659 0.929 . S
C1671 C1665 1.390 . S
C1671 C1668 1.386 . S
C1672 C1667 1.490 . S
C1672 C1674 1.395 . S
C1672 C1675 1.403 . S
H1673 C1679 0.930 . S
C1674 H1660 0.930 . S
C1674 C1672 1.395 . S
C1674 C1677 1.403 . S
C1675 C1672 1.403 . S
C1675 C1676 1.524 . S
C1675 C1679 1.400 . S
C1676 H1661 0.960 . S
C1676 H1662 0.960 . S
C1676 H1663 0.960 . S
C1676 C1675 1.524 . S
C1677 C1674 1.403 . S
C1677 C1678 1.392 . S
C1677 C1681 1.495 . S
C1678 C1677 1.392 . S
C1678 C1679 1.385 . S
C1678 C1680 1.478 . S
C1679 H1673 0.930 . S
C1679 C1675 1.400 . S
C1679 C1678 1.385 . S
C1680 C1678 1.478 . S
C1680 C1682 1.381 . S
C1680 C1686 1.383 . S
C1681 C1677 1.495 . S
C1681 H1687 0.959 . S
C1681 H1688 0.961 . S
C1681 H1689 0.960 . S
C1682 C1680 1.381 . S
C1682 C1683 1.394 . S
C1682 H1690 0.930 . S
C1683 C1682 1.394 . S
C1683 C1684 1.383 . S
C1683 H1691 0.929 . S
C1684 C1683 1.383 . S
C1684 C1685 1.377 . S
C1685 H1669 0.930 . S
C1685 C1684 1.377 . S
C1685 C1686 1.379 . S
C1686 H1670 0.931 . S
C1686 C1680 1.383 . S
C1686 C1685 1.379 . S
H1687 C1681 0.959 . S
H1688 C1681 0.961 . S
H1689 C1681 0.960 . S
H1690 C1682 0.930 . S
H1691 C1683 0.929 . S
H1692 C1700 0.929 . S
H1693 C1702 0.930 1_655 S
H1694 C1704 0.930 . S
H1695 C1707 0.929 . S
H1696 C1710 0.930 . S
H1697 C1712 0.960 . S
H1698 C1712 0.960 . S
H1699 C1712 0.960 . S
C1700 H1692 0.929 . S
C1700 C1701 1.377 . S
C1700 C1702 1.384 . S
C1701 C1700 1.377 . S
C1701 C1707 1.390 . S
C1702 H1693 0.930 1_455 S
C1702 C1700 1.384 . S
C1702 C1703 1.372 . S
C1703 C1702 1.372 . S
C1703 C1704 1.400 . S
C1703 C1708 1.469 1_455 S
C1704 H1694 0.930 . S
C1704 C1703 1.400 . S
C1704 C1707 1.386 . S
H1705 C1721 0.930 . S
H1706 C1722 0.931 . S
C1707 H1695 0.929 . S
C1707 C1701 1.390 . S
C1707 C1704 1.386 . S
C1708 C1703 1.469 1_655 S
C1708 C1710 1.435 . S
C1708 C1711 1.385 1_656 S
H1709 C1715 0.930 1_455 S
C1710 H1696 0.930 . S
C1710 C1708 1.435 . S
C1710 C1713 1.403 1_556 S
C1711 C1708 1.385 1_454 S
C1711 C1712 1.524 . S
C1711 C1715 1.400 1_455 S
C1712 H1697 0.960 . S
C1712 H1698 0.960 . S
C1712 H1699 0.960 . S
C1712 C1711 1.524 . S
C1713 C1710 1.403 1_554 S
C1713 C1714 1.392 . S
C1713 C1717 1.495 1_554 S
C1714 C1713 1.392 . S
C1714 C1715 1.385 . S
C1714 C1716 1.478 . S
C1715 H1709 0.930 1_655 S
C1715 C1711 1.400 1_655 S
C1715 C1714 1.385 . S
C1716 C1714 1.478 . S
C1716 C1718 1.381 . S
C1716 C1722 1.383 . S
C1717 C1713 1.495 1_556 S
C1717 H1723 0.959 . S
C1717 H1724 0.961 . S
C1717 H1725 0.960 1_556 S
C1718 C1716 1.381 . S
C1718 C1719 1.394 . S
C1718 H1726 0.930 . S
C1719 C1718 1.394 . S
C1719 C1720 1.383 . S
C1719 H1727 0.929 . S
C1720 C1719 1.383 . S
C1720 C1721 1.377 . S
C1721 H1705 0.930 . S
C1721 C1720 1.377 . S
C1721 C1722 1.379 . S
C1722 H1706 0.931 . S
C1722 C1716 1.383 . S
C1722 C1721 1.379 . S
H1723 C1717 0.959 . S
H1724 C1717 0.961 . S
H1725 C1717 0.960 1_554 S
H1726 C1718 0.930 . S
H1727 C1719 0.929 . S
H1728 C1736 0.929 . S
H1729 C1738 0.930 . S
H1730 C1740 0.930 . S
H1731 C1743 0.929 . S
H1732 C1746 0.930 . S
H1733 C1748 0.960 . S
H1734 C1748 0.960 . S
H1735 C1748 0.960 . S
C1736 H1728 0.929 . S
C1736 C1737 1.377 . S
C1736 C1738 1.384 . S
C1737 C1736 1.377 . S
C1737 C1743 1.390 . S
C1738 H1729 0.930 . S
C1738 C1736 1.384 . S
C1738 C1739 1.372 . S
C1739 C1738 1.372 . S
C1739 C1740 1.400 . S
C1739 C1744 1.490 . S
C1740 H1730 0.930 . S
C1740 C1739 1.400 . S
C1740 C1743 1.386 . S
H1741 C1757 0.930 . S
H1742 C1758 0.931 . S
C1743 H1731 0.929 . S
C1743 C1737 1.390 . S
C1743 C1740 1.386 . S
C1744 C1739 1.490 . S
C1744 C1746 1.395 . S
C1744 C1747 1.403 1_545 S
H1745 C1751 0.930 . S
C1746 H1732 0.930 . S
C1746 C1744 1.395 . S
C1746 C1749 1.403 1_545 S
C1747 C1744 1.403 1_565 S
C1747 C1748 1.524 . S
C1747 C1751 1.400 . S
C1748 H1733 0.960 . S
C1748 H1734 0.960 . S
C1748 H1735 0.960 . S
C1748 C1747 1.524 . S
C1749 C1746 1.403 1_565 S
C1749 C1750 1.392 . S
C1749 C1753 1.495 . S
C1750 C1749 1.392 . S
C1750 C1751 1.385 . S
C1750 C1752 1.478 . S
C1751 H1745 0.930 . S
C1751 C1747 1.400 . S
C1751 C1750 1.385 . S
C1752 C1750 1.478 . S
C1752 C1754 1.381 . S
C1752 C1758 1.383 . S
C1753 C1749 1.495 . S
C1753 H1759 0.959 1_565 S
C1753 H1760 0.961 . S
C1753 H1761 0.960 . S
C1754 C1752 1.381 . S
C1754 C1755 1.394 . S
C1754 H1762 0.930 . S
C1755 C1754 1.394 . S
C1755 C1756 1.383 . S
C1755 H1763 0.929 . S
C1756 C1755 1.383 . S
C1756 C1757 1.377 . S
C1757 H1741 0.930 . S
C1757 C1756 1.377 . S
C1757 C1758 1.379 . S
C1758 H1742 0.931 . S
C1758 C1752 1.383 . S
C1758 C1757 1.379 . S
H1759 C1753 0.959 1_545 S
H1760 C1753 0.961 . S
H1761 C1753 0.960 . S
H1762 C1754 0.930 . S
H1763 C1755 0.929 . S
H1764 C1772 0.929 . S
H1765 C1774 0.930 . S
H1766 C1776 0.930 . S
H1767 C1779 0.929 . S
H1768 C1782 0.930 . S
H1769 C1784 0.960 . S
H1770 C1784 0.960 . S
H1771 C1784 0.960 . S
C1772 H1764 0.929 . S
C1772 C1773 1.377 . S
C1772 C1774 1.384 . S
C1773 C1772 1.377 . S
C1773 C1779 1.390 . S
C1774 H1765 0.930 . S
C1774 C1772 1.384 . S
C1774 C1775 1.372 . S
C1775 C1774 1.372 . S
C1775 C1776 1.400 . S
C1775 C1780 1.490 . S
C1776 H1766 0.930 . S
C1776 C1775 1.400 . S
C1776 C1779 1.386 . S
H1777 C1793 0.930 . S
H1778 C1794 0.931 . S
C1779 H1767 0.929 . S
C1779 C1773 1.390 . S
C1779 C1776 1.386 . S
C1780 C1775 1.490 . S
C1780 C1782 1.395 . S
C1780 C1783 1.403 . S
H1781 C1787 0.930 . S
C1782 H1768 0.930 . S
C1782 C1780 1.395 . S
C1782 C1785 1.403 . S
C1783 C1780 1.403 . S
C1783 C1784 1.524 . S
C1783 C1787 1.400 . S
C1784 H1769 0.960 . S
C1784 H1770 0.960 . S
C1784 H1771 0.960 . S
C1784 C1783 1.524 . S
C1785 C1782 1.403 . S
C1785 C1786 1.392 . S
C1785 C1789 1.495 . S
C1786 C1785 1.392 . S
C1786 C1787 1.385 . S
C1786 C1788 1.478 . S
C1787 H1781 0.930 . S
C1787 C1783 1.400 . S
C1787 C1786 1.385 . S
C1788 C1786 1.478 . S
C1788 C1790 1.381 . S
C1788 C1794 1.383 . S
C1789 C1785 1.495 . S
C1789 H1795 0.959 . S
C1789 H1796 0.961 . S
C1789 H1797 0.960 . S
C1790 C1788 1.381 . S
C1790 C1791 1.394 . S
C1790 H1798 0.930 . S
C1791 C1790 1.394 . S
C1791 C1792 1.383 . S
C1791 H1799 0.929 . S
C1792 C1791 1.383 . S
C1792 C1793 1.377 . S
C1793 H1777 0.930 . S
C1793 C1792 1.377 . S
C1793 C1794 1.379 . S
C1794 H1778 0.931 . S
C1794 C1788 1.383 . S
C1794 C1793 1.379 . S
H1795 C1789 0.959 . S
H1796 C1789 0.961 . S
H1797 C1789 0.960 . S
H1798 C1790 0.930 . S
H1799 C1791 0.929 . S
H1800 C1808 0.929 . S
H1801 C1810 0.930 . S
H1802 C1812 0.930 . S
H1803 C1815 0.929 . S
H1804 C1818 0.930 . S
H1805 C1820 0.960 . S
H1806 C1820 0.960 . S
H1807 C1820 0.960 . S
C1808 H1800 0.929 . S
C1808 C1809 1.377 . S
C1808 C1810 1.384 . S
C1809 C1808 1.377 . S
C1809 C1815 1.390 . S
C1810 H1801 0.930 . S
C1810 C1808 1.384 . S
C1810 C1811 1.372 . S
C1811 C1810 1.372 . S
C1811 C1812 1.400 . S
C1811 C1816 1.490 . S
C1812 H1802 0.930 . S
C1812 C1811 1.400 . S
C1812 C1815 1.386 . S
H1813 C1829 0.930 . S
H1814 C1830 0.931 . S
C1815 H1803 0.929 . S
C1815 C1809 1.390 . S
C1815 C1812 1.386 . S
C1816 C1811 1.490 . S
C1816 C1818 1.395 1_545 S
C1816 C1819 1.403 . S
H1817 C1823 0.930 . S
C1818 H1804 0.930 . S
C1818 C1816 1.395 1_565 S
C1818 C1821 1.403 . S
C1819 C1816 1.403 . S
C1819 C1820 1.524 . S
C1819 C1823 1.400 1_545 S
C1820 H1805 0.960 . S
C1820 H1806 0.960 . S
C1820 H1807 0.960 . S
C1820 C1819 1.524 . S
C1821 C1818 1.403 . S
C1821 C1822 1.392 . S
C1821 C1825 1.495 . S
C1822 C1821 1.392 . S
C1822 C1823 1.385 . S
C1822 C1824 1.478 . S
C1823 H1817 0.930 . S
C1823 C1819 1.400 1_565 S
C1823 C1822 1.385 . S
C1824 C1822 1.478 . S
C1824 C1826 1.381 . S
C1824 C1830 1.383 . S
C1825 C1821 1.495 . S
C1825 H1831 0.959 . S
C1825 H1832 0.961 . S
C1825 H1833 0.960 . S
C1826 C1824 1.381 . S
C1826 C1827 1.394 . S
C1826 H1834 0.930 . S
C1827 C1826 1.394 . S
C1827 C1828 1.383 . S
C1827 H1835 0.929 . S
C1828 C1827 1.383 . S
C1828 C1829 1.377 . S
C1829 H1813 0.930 . S
C1829 C1828 1.377 . S
C1829 C1830 1.379 . S
C1830 H1814 0.931 . S
C1830 C1824 1.383 . S
C1830 C1829 1.379 . S
H1831 C1825 0.959 . S
H1832 C1825 0.961 . S
H1833 C1825 0.960 . S
H1834 C1826 0.930 . S
H1835 C1827 0.929 . S
H1836 C1844 0.929 . S
H1837 C1846 0.930 . S
H1838 C1848 0.930 . S
H1839 C1851 0.929 . S
H1840 C1854 0.930 . S
H1841 C1856 0.960 . S
H1842 C1856 0.960 . S
H1843 C1856 0.960 . S
C1844 H1836 0.929 . S
C1844 C1845 1.377 . S
C1844 C1846 1.384 . S
C1845 C1844 1.377 . S
C1845 C1851 1.390 . S
C1846 H1837 0.930 . S
C1846 C1844 1.384 . S
C1846 C1847 1.372 . S
C1847 C1846 1.372 . S
C1847 C1848 1.400 . S
C1847 C1852 1.490 . S
C1848 H1838 0.930 . S
C1848 C1847 1.400 . S
C1848 C1851 1.386 . S
H1849 C1865 0.930 . S
H1850 C1866 0.931 . S
C1851 H1839 0.929 . S
C1851 C1845 1.390 . S
C1851 C1848 1.386 . S
C1852 C1847 1.490 . S
C1852 C1854 1.395 . S
C1852 C1855 1.403 . S
H1853 C1859 0.930 . S
C1854 H1840 0.930 . S
C1854 C1852 1.395 . S
C1854 C1857 1.403 1_556 S
C1855 C1852 1.403 . S
C1855 C1856 1.524 . S
C1855 C1859 1.400 . S
C1856 H1841 0.960 . S
C1856 H1842 0.960 . S
C1856 H1843 0.960 . S
C1856 C1855 1.524 . S
C1857 C1854 1.403 1_554 S
C1857 C1858 1.392 . S
C1857 C1861 1.495 . S
C1858 C1857 1.392 . S
C1858 C1859 1.385 1_554 S
C1858 C1860 1.478 . S
C1859 H1853 0.930 . S
C1859 C1855 1.400 . S
C1859 C1858 1.385 1_556 S
C1860 C1858 1.478 . S
C1860 C1862 1.381 . S
C1860 C1866 1.383 . S
C1861 C1857 1.495 . S
C1861 H1867 0.959 . S
C1861 H1868 0.961 . S
C1861 H1869 0.960 . S
C1862 C1860 1.381 . S
C1862 C1863 1.394 . S
C1862 H1870 0.930 . S
C1863 C1862 1.394 . S
C1863 C1864 1.383 . S
C1863 H1871 0.929 . S
C1864 C1863 1.383 . S
C1864 C1865 1.377 . S
C1865 H1849 0.930 . S
C1865 C1864 1.377 . S
C1865 C1866 1.379 . S
C1866 H1850 0.931 . S
C1866 C1860 1.383 . S
C1866 C1865 1.379 . S
H1867 C1861 0.959 . S
H1868 C1861 0.961 . S
H1869 C1861 0.960 . S
H1870 C1862 0.930 . S
H1871 C1863 0.929 . S
H1872 C1880 0.929 . S
H1873 C1882 0.930 . S
H1874 C1884 0.930 . S
H1875 C1887 0.929 . S
H1876 C1890 0.930 . S
H1877 C1892 0.960 . S
H1878 C1892 0.960 . S
H1879 C1892 0.960 . S
C1880 H1872 0.929 . S
C1880 C1881 1.377 . S
C1880 C1882 1.384 . S
C1881 C1880 1.377 . S
C1881 C1887 1.390 . S
C1882 H1873 0.930 . S
C1882 C1880 1.384 . S
C1882 C1883 1.372 . S
C1883 C1882 1.372 . S
C1883 C1884 1.400 . S
C1883 C1888 1.490 . S
C1884 H1874 0.930 . S
C1884 C1883 1.400 . S
C1884 C1887 1.386 . S
H1885 C1901 0.930 . S
H1886 C1902 0.931 1_545 S
C1887 H1875 0.929 . S
C1887 C1881 1.390 . S
C1887 C1884 1.386 . S
C1888 C1883 1.490 . S
C1888 C1890 1.395 . S
C1888 C1891 1.403 . S
H1889 C1895 0.930 . S
C1890 H1876 0.930 . S
C1890 C1888 1.395 . S
C1890 C1893 1.403 1_545 S
C1891 C1888 1.403 . S
C1891 C1892 1.524 . S
C1891 C1895 1.400 . S
C1892 H1877 0.960 . S
C1892 H1878 0.960 . S
C1892 H1879 0.960 . S
C1892 C1891 1.524 . S
C1893 C1890 1.403 1_565 S
C1893 C1894 1.392 1_565 S
C1893 C1897 1.495 . S
C1894 C1893 1.392 1_545 S
C1894 C1895 1.385 . S
C1894 C1896 1.478 1_545 S
C1895 H1889 0.930 . S
C1895 C1891 1.400 . S
C1895 C1894 1.385 . S
C1896 C1894 1.478 1_565 S
C1896 C1898 1.381 . S
C1896 C1902 1.383 . S
C1897 C1893 1.495 . S
C1897 H1903 0.959 . S
C1897 H1904 0.961 . S
C1897 H1905 0.960 . S
C1898 C1896 1.381 . S
C1898 C1899 1.394 . S
C1898 H1906 0.930 . S
C1899 C1898 1.394 . S
C1899 C1900 1.383 . S
C1899 H1907 0.929 . S
C1900 C1899 1.383 . S
C1900 C1901 1.377 . S
C1901 H1885 0.930 . S
C1901 C1900 1.377 . S
C1901 C1902 1.379 . S
C1902 H1886 0.931 1_565 S
C1902 C1896 1.383 . S
C1902 C1901 1.379 . S
H1903 C1897 0.959 . S
H1904 C1897 0.961 . S
H1905 C1897 0.960 . S
H1906 C1898 0.930 . S
H1907 C1899 0.929 . S
H1908 C1916 0.929 . S
H1909 C1918 0.930 . S
H1910 C1920 0.930 . S
H1911 C1923 0.929 . S
H1912 C1926 0.930 . S
H1913 C1928 0.960 . S
H1914 C1928 0.960 . S
H1915 C1928 0.960 . S
C1916 H1908 0.929 . S
C1916 C1917 1.377 . S
C1916 C1918 1.384 . S
C1917 C1916 1.377 . S
C1917 C1923 1.390 . S
C1918 H1909 0.930 . S
C1918 C1916 1.384 . S
C1918 C1919 1.372 . S
C1919 C1918 1.372 . S
C1919 C1920 1.400 . S
C1919 C1924 1.490 . S
C1920 H1910 0.930 . S
C1920 C1919 1.400 . S
C1920 C1923 1.386 . S
H1921 C1937 0.930 . S
H1922 C1938 0.931 . S
C1923 H1911 0.929 . S
C1923 C1917 1.390 . S
C1923 C1920 1.386 . S
C1924 C1919 1.490 . S
C1924 C1926 1.395 . S
C1924 C1927 1.403 . S
H1925 C1931 0.930 . S
C1926 H1912 0.930 . S
C1926 C1924 1.395 . S
C1926 C1929 1.403 . S
C1927 C1924 1.403 . S
C1927 C1928 1.524 . S
C1927 C1931 1.400 . S
C1928 H1913 0.960 . S
C1928 H1914 0.960 . S
C1928 H1915 0.960 . S
C1928 C1927 1.524 . S
C1929 C1926 1.403 . S
C1929 C1930 1.392 . S
C1929 C1933 1.495 . S
C1930 C1929 1.392 . S
C1930 C1931 1.385 . S
C1930 C1932 1.478 . S
C1931 H1925 0.930 . S
C1931 C1927 1.400 . S
C1931 C1930 1.385 . S
C1932 C1930 1.478 . S
C1932 C1934 1.381 . S
C1932 C1938 1.383 . S
C1933 C1929 1.495 . S
C1933 H1939 0.959 . S
C1933 H1940 0.961 . S
C1933 H1941 0.960 . S
C1934 C1932 1.381 . S
C1934 C1935 1.394 . S
C1934 H1942 0.930 . S
C1935 C1934 1.394 . S
C1935 C1936 1.383 . S
C1935 H1943 0.929 . S
C1936 C1935 1.383 . S
C1936 C1937 1.377 . S
C1937 H1921 0.930 . S
C1937 C1936 1.377 . S
C1937 C1938 1.379 . S
C1938 H1922 0.931 . S
C1938 C1932 1.383 . S
C1938 C1937 1.379 . S
H1939 C1933 0.959 . S
H1940 C1933 0.961 . S
H1941 C1933 0.960 . S
H1942 C1934 0.930 . S
H1943 C1935 0.929 . S
H1944 C1952 0.929 . S
H1945 C1954 0.930 . S
H1946 C1956 0.930 . S
H1947 C1959 0.929 . S
H1948 C1962 0.930 . S
H1949 C1964 0.960 1_565 S
H1950 C1964 0.960 . S
H1951 C1964 0.960 . S
C1952 H1944 0.929 . S
C1952 C1953 1.377 . S
C1952 C1954 1.384 . S
C1953 C1952 1.377 . S
C1953 C1959 1.390 . S
C1954 H1945 0.930 . S
C1954 C1952 1.384 . S
C1954 C1955 1.372 . S
C1955 C1954 1.372 . S
C1955 C1956 1.400 . S
C1955 C1960 1.490 . S
C1956 H1946 0.930 . S
C1956 C1955 1.400 . S
C1956 C1959 1.386 . S
H1957 C1973 0.930 . S
H1958 C1974 0.931 . S
C1959 H1947 0.929 . S
C1959 C1953 1.390 . S
C1959 C1956 1.386 . S
C1960 C1955 1.490 . S
C1960 C1962 1.395 1_545 S
C1960 C1963 1.403 1_545 S
H1961 C1967 0.930 . S
C1962 H1948 0.930 . S
C1962 C1960 1.395 1_565 S
C1962 C1965 1.403 . S
C1963 C1960 1.403 1_565 S
C1963 C1964 1.524 1_565 S
C1963 C1967 1.400 . S
C1964 H1949 0.960 1_545 S
C1964 H1950 0.960 . S
C1964 H1951 0.960 . S
C1964 C1963 1.524 1_545 S
C1965 C1962 1.403 . S
C1965 C1966 1.392 . S
C1965 C1969 1.495 . S
C1966 C1965 1.392 . S
C1966 C1967 1.385 . S
C1966 C1968 1.478 . S
C1967 H1961 0.930 . S
C1967 C1963 1.400 . S
C1967 C1966 1.385 . S
C1968 C1966 1.478 . S
C1968 C1970 1.381 . S
C1968 C1974 1.383 . S
C1969 C1965 1.495 . S
C1969 H1975 0.959 . S
C1969 H1976 0.961 . S
C1969 H1977 0.960 . S
C1970 C1968 1.381 . S
C1970 C1971 1.394 . S
C1970 H1978 0.930 . S
C1971 C1970 1.394 . S
C1971 C1972 1.383 . S
C1971 H1979 0.929 . S
C1972 C1971 1.383 . S
C1972 C1973 1.377 . S
C1973 H1957 0.930 . S
C1973 C1972 1.377 . S
C1973 C1974 1.379 . S
C1974 H1958 0.931 . S
C1974 C1968 1.383 . S
C1974 C1973 1.379 . S
H1975 C1969 0.959 . S
H1976 C1969 0.961 . S
H1977 C1969 0.960 . S
H1978 C1970 0.930 . S
H1979 C1971 0.929 . S
H1980 C1988 0.929 . S
H1981 C1990 0.929 1_554 S
H1982 C1992 0.930 . S
H1983 C1995 0.929 . S
H1984 C1998 0.930 . S
H1985 C2000 0.960 . S
H1986 C2000 0.960 . S
H1987 C2000 0.960 . S
C1988 H1980 0.929 . S
C1988 C1989 1.377 . S
C1988 C1990 1.384 . S
C1989 C1988 1.377 . S
C1989 C1995 1.390 . S
C1990 H1981 0.929 1_556 S
C1990 C1988 1.384 . S
C1990 C1991 1.372 . S
C1991 C1990 1.372 . S
C1991 C1992 1.400 . S
C1991 C1996 1.490 1_556 S
C1992 H1982 0.930 . S
C1992 C1991 1.400 . S
C1992 C1995 1.386 . S
H1993 C2009 0.930 . S
H1994 C2010 0.931 . S
C1995 H1983 0.929 . S
C1995 C1989 1.390 . S
C1995 C1992 1.386 . S
C1996 C1991 1.490 1_554 S
C1996 C1998 1.395 . S
C1996 C1999 1.403 1_554 S
H1997 C2003 0.930 . S
C1998 H1984 0.930 . S
C1998 C1996 1.395 . S
C1998 C2001 1.403 . S
C1999 C1996 1.403 1_556 S
C1999 C2000 1.524 . S
C1999 C2003 1.400 1_556 S
C2000 H1985 0.960 . S
C2000 H1986 0.960 . S
C2000 H1987 0.960 . S
C2000 C1999 1.524 . S
C2001 C1998 1.403 . S
C2001 C2002 1.392 . S
C2001 C2005 1.495 . S
C2002 C2001 1.392 . S
C2002 C2003 1.385 . S
C2002 C2004 1.478 . S
C2003 H1997 0.930 . S
C2003 C1999 1.400 1_554 S
C2003 C2002 1.385 . S
C2004 C2002 1.478 . S
C2004 C2006 1.381 . S
C2004 C2010 1.383 . S
C2005 C2001 1.495 . S
C2005 H2011 0.959 . S
C2005 H2012 0.961 . S
C2005 H2013 0.960 . S
C2006 C2004 1.381 . S
C2006 C2007 1.394 . S
C2006 H2014 0.930 . S
C2007 C2006 1.394 . S
C2007 C2008 1.383 . S
C2007 H2015 0.929 . S
C2008 C2007 1.383 . S
C2008 C2009 1.377 . S
C2009 H1993 0.930 . S
C2009 C2008 1.377 . S
C2009 C2010 1.379 . S
C2010 H1994 0.931 . S
C2010 C2004 1.383 . S
C2010 C2009 1.379 . S
H2011 C2005 0.959 . S
H2012 C2005 0.961 . S
H2013 C2005 0.960 . S
H2014 C2006 0.930 . S
H2015 C2007 0.929 . S
H2016 C2024 0.929 . S
H2017 C2026 0.930 . S
H2018 C2028 0.930 . S
H2019 C2031 0.929 . S
H2020 C2034 0.930 . S
H2021 C2036 0.960 . S
H2022 C2036 0.960 . S
H2023 C2036 0.960 . S
C2024 H2016 0.929 . S
C2024 C2025 1.377 . S
C2024 C2026 1.384 . S
C2025 C2024 1.377 . S
C2025 C2031 1.390 . S
C2026 H2017 0.930 . S
C2026 C2024 1.384 . S
C2026 C2027 1.372 . S
C2027 C2026 1.372 . S
C2027 C2028 1.400 . S
C2027 C2032 1.490 . S
C2028 H2018 0.930 . S
C2028 C2027 1.400 . S
C2028 C2031 1.386 . S
H2029 C2045 0.930 . S
H2030 C2046 0.931 . S
C2031 H2019 0.929 . S
C2031 C2025 1.390 . S
C2031 C2028 1.386 . S
C2032 C2027 1.490 . S
C2032 C2034 1.395 . S
C2032 C2035 1.403 . S
H2033 C2039 0.930 . S
C2034 H2020 0.930 . S
C2034 C2032 1.395 . S
C2034 C2037 1.403 . S
C2035 C2032 1.403 . S
C2035 C2036 1.524 . S
C2035 C2039 1.400 . S
C2036 H2021 0.960 . S
C2036 H2022 0.960 . S
C2036 H2023 0.960 . S
C2036 C2035 1.524 . S
C2037 C2034 1.403 . S
C2037 C2038 1.392 . S
C2037 C2041 1.495 . S
C2038 C2037 1.392 . S
C2038 C2039 1.385 . S
C2038 C2040 1.478 . S
C2039 H2033 0.930 . S
C2039 C2035 1.400 . S
C2039 C2038 1.385 . S
C2040 C2038 1.478 . S
C2040 C2042 1.381 . S
C2040 C2046 1.383 1_655 S
C2041 C2037 1.495 . S
C2041 H2047 0.959 . S
C2041 H2048 0.961 . S
C2041 H2049 0.960 . S
C2042 C2040 1.381 . S
C2042 C2043 1.394 1_655 S
C2042 H2050 0.930 . S
C2043 C2042 1.394 1_455 S
C2043 C2044 1.383 . S
C2043 H2051 0.929 . S
C2044 C2043 1.383 . S
C2044 C2045 1.377 . S
C2045 H2029 0.930 . S
C2045 C2044 1.377 . S
C2045 C2046 1.379 . S
C2046 H2030 0.931 . S
C2046 C2040 1.383 1_455 S
C2046 C2045 1.379 . S
H2047 C2041 0.959 . S
H2048 C2041 0.961 . S
H2049 C2041 0.960 . S
H2050 C2042 0.930 . S
H2051 C2043 0.929 . S
H2052 C2060 0.929 . S
H2053 C2062 0.930 . S
H2054 C2064 0.930 . S
H2055 C2067 0.929 . S
H2056 C2070 0.930 . S
H2057 C2072 0.960 . S
H2058 C2072 0.960 . S
H2059 C2072 0.960 . S
C2060 H2052 0.929 . S
C2060 C2061 1.377 . S
C2060 C2062 1.384 . S
C2061 C2060 1.377 . S
C2061 C2067 1.390 . S
C2062 H2053 0.930 . S
C2062 C2060 1.384 . S
C2062 C2063 1.372 . S
C2063 C2062 1.372 . S
C2063 C2064 1.400 . S
C2063 C2068 1.490 . S
C2064 H2054 0.930 . S
C2064 C2063 1.400 . S
C2064 C2067 1.386 . S
H2065 C2081 0.930 . S
H2066 C2082 0.931 . S
C2067 H2055 0.929 . S
C2067 C2061 1.390 . S
C2067 C2064 1.386 . S
C2068 C2063 1.490 . S
C2068 C2070 1.395 . S
C2068 C2071 1.403 . S
H2069 C2075 0.930 . S
C2070 H2056 0.930 . S
C2070 C2068 1.395 . S
C2070 C2073 1.403 . S
C2071 C2068 1.403 . S
C2071 C2072 1.524 . S
C2071 C2075 1.400 . S
C2072 H2057 0.960 . S
C2072 H2058 0.960 . S
C2072 H2059 0.960 . S
C2072 C2071 1.524 . S
C2073 C2070 1.403 . S
C2073 C2074 1.392 . S
C2073 C2077 1.495 . S
C2074 C2073 1.392 . S
C2074 C2075 1.385 . S
C2074 C2076 1.478 . S
C2075 H2069 0.930 . S
C2075 C2071 1.400 . S
C2075 C2074 1.385 . S
C2076 C2074 1.478 . S
C2076 C2078 1.381 . S
C2076 C2082 1.383 . S
C2077 C2073 1.495 . S
C2077 H2083 0.959 . S
C2077 H2084 0.961 . S
C2077 H2085 0.960 . S
C2078 C2076 1.381 . S
C2078 C2079 1.394 . S
C2078 H2086 0.930 . S
C2079 C2078 1.394 . S
C2079 C2080 1.383 . S
C2079 H2087 0.929 . S
C2080 C2079 1.383 . S
C2080 C2081 1.377 . S
C2081 H2065 0.930 . S
C2081 C2080 1.377 . S
C2081 C2082 1.379 . S
C2082 H2066 0.931 . S
C2082 C2076 1.383 . S
C2082 C2081 1.379 . S
H2083 C2077 0.959 . S
H2084 C2077 0.961 . S
H2085 C2077 0.960 . S
H2086 C2078 0.930 . S
H2087 C2079 0.929 . S
H2088 C2096 0.929 . S
H2089 C2098 0.930 . S
H2090 C2100 0.930 . S
H2091 C2103 0.929 . S
H2092 C2106 0.930 . S
H2093 C2108 0.960 . S
H2094 C2108 0.960 . S
H2095 C2108 0.960 . S
C2096 H2088 0.929 . S
C2096 C2097 1.377 . S
C2096 C2098 1.384 1_655 S
C2097 C2096 1.377 . S
C2097 C2103 1.390 . S
C2098 H2089 0.930 . S
C2098 C2096 1.384 1_455 S
C2098 C2099 1.372 . S
C2099 C2098 1.372 . S
C2099 C2100 1.400 1_455 S
C2099 C2104 1.490 . S
C2100 H2090 0.930 . S
C2100 C2099 1.400 1_655 S
C2100 C2103 1.386 . S
H2101 C2117 0.930 . S
H2102 C2118 0.931 . S
C2103 H2091 0.929 . S
C2103 C2097 1.390 . S
C2103 C2100 1.386 . S
C2104 C2099 1.490 . S
C2104 C2106 1.395 . S
C2104 C2107 1.403 . S
H2105 C2111 0.930 . S
C2106 H2092 0.930 . S
C2106 C2104 1.395 . S
C2106 C2109 1.403 . S
C2107 C2104 1.403 . S
C2107 C2108 1.524 1_455 S
C2107 C2111 1.400 . S
C2108 H2093 0.960 . S
C2108 H2094 0.960 . S
C2108 H2095 0.960 . S
C2108 C2107 1.524 1_655 S
C2109 C2106 1.403 . S
C2109 C2110 1.392 . S
C2109 C2113 1.495 . S
C2110 C2109 1.392 . S
C2110 C2111 1.385 . S
C2110 C2112 1.478 . S
C2111 H2105 0.930 . S
C2111 C2107 1.400 . S
C2111 C2110 1.385 . S
C2112 C2110 1.478 . S
C2112 C2114 1.381 . S
C2112 C2118 1.383 . S
C2113 C2109 1.495 . S
C2113 H2119 0.959 . S
C2113 H2120 0.961 . S
C2113 H2121 0.960 . S
C2114 C2112 1.381 . S
C2114 C2115 1.394 . S
C2114 H2122 0.930 . S
C2115 C2114 1.394 . S
C2115 C2116 1.383 . S
C2115 H2123 0.929 . S
C2116 C2115 1.383 . S
C2116 C2117 1.377 . S
C2117 H2101 0.930 . S
C2117 C2116 1.377 . S
C2117 C2118 1.379 . S
C2118 H2102 0.931 . S
C2118 C2112 1.383 . S
C2118 C2117 1.379 . S
H2119 C2113 0.959 . S
H2120 C2113 0.961 . S
H2121 C2113 0.960 . S
H2122 C2114 0.930 . S
H2123 C2115 0.929 . S
H2124 C2132 0.929 . S
H2125 C2134 0.930 . S
H2126 C2136 0.930 . S
H2127 C2139 0.929 . S
H2128 C2142 0.930 1_655 S
H2129 C2144 0.960 . S
H2130 C2144 0.960 . S
H2131 C2144 0.960 . S
C2132 H2124 0.929 . S
C2132 C2133 1.377 . S
C2132 C2134 1.384 . S
C2133 C2132 1.377 . S
C2133 C2139 1.390 . S
C2134 H2125 0.930 . S
C2134 C2132 1.384 . S
C2134 C2135 1.372 . S
C2135 C2134 1.372 . S
C2135 C2136 1.400 . S
C2135 C2140 1.490 1_655 S
C2136 H2126 0.930 . S
C2136 C2135 1.400 . S
C2136 C2139 1.386 . S
H2137 C2153 0.930 . S
H2138 C2154 0.931 . S
C2139 H2127 0.929 . S
C2139 C2133 1.390 . S
C2139 C2136 1.386 . S
C2140 C2135 1.490 1_455 S
C2140 C2142 1.395 . S
C2140 C2143 1.403 . S
H2141 C2147 0.930 . S
C2142 H2128 0.930 1_455 S
C2142 C2140 1.395 . S
C2142 C2145 1.403 . S
C2143 C2140 1.403 . S
C2143 C2144 1.524 . S
C2143 C2147 1.400 . S
C2144 H2129 0.960 . S
C2144 H2130 0.960 . S
C2144 H2131 0.960 . S
C2144 C2143 1.524 . S
C2145 C2142 1.403 . S
C2145 C2146 1.392 . S
C2145 C2149 1.495 . S
C2146 C2145 1.392 . S
C2146 C2147 1.385 . S
C2146 C2148 1.478 . S
C2147 H2141 0.930 . S
C2147 C2143 1.400 . S
C2147 C2146 1.385 . S
C2148 C2146 1.478 . S
C2148 C2150 1.381 . S
C2148 C2154 1.383 . S
C2149 C2145 1.495 . S
C2149 H2155 0.959 . S
C2149 H2156 0.961 . S
C2149 H2157 0.960 . S
C2150 C2148 1.381 . S
C2150 C2151 1.394 . S
C2150 H2158 0.930 . S
C2151 C2150 1.394 . S
C2151 C2152 1.383 . S
C2151 H2159 0.929 . S
C2152 C2151 1.383 . S
C2152 C2153 1.377 . S
C2153 H2137 0.930 . S
C2153 C2152 1.377 . S
C2153 C2154 1.379 . S
C2154 H2138 0.931 . S
C2154 C2148 1.383 . S
C2154 C2153 1.379 . S
H2155 C2149 0.959 . S
H2156 C2149 0.961 . S
H2157 C2149 0.960 . S
H2158 C2150 0.930 . S
H2159 C2151 0.929 . S
H2160 C2168 0.929 . S
H2161 C2170 0.930 . S
H2162 C2172 0.930 . S
H2163 C2175 0.929 . S
H2164 C2178 0.930 . S
H2165 C2180 0.960 . S
H2166 C2180 0.960 . S
H2167 C2180 0.960 . S
C2168 H2160 0.929 . S
C2168 C2169 1.377 . S
C2168 C2170 1.384 . S
C2169 C2168 1.377 . S
C2169 C2175 1.390 . S
C2170 H2161 0.930 . S
C2170 C2168 1.384 . S
C2170 C2171 1.372 . S
C2171 C2170 1.372 . S
C2171 C2172 1.400 . S
C2171 C2176 1.490 . S
C2172 H2162 0.930 . S
C2172 C2171 1.400 . S
C2172 C2175 1.386 . S
H2173 C2189 0.930 . S
H2174 C2190 0.931 . S
C2175 H2163 0.929 . S
C2175 C2169 1.390 . S
C2175 C2172 1.386 . S
C2176 C2171 1.490 . S
C2176 C2178 1.395 . S
C2176 C2179 1.403 . S
H2177 C2183 0.930 . S
C2178 H2164 0.930 . S
C2178 C2176 1.395 . S
C2178 C2181 1.403 . S
C2179 C2176 1.403 . S
C2179 C2180 1.524 . S
C2179 C2183 1.400 . S
C2180 H2165 0.960 . S
C2180 H2166 0.960 . S
C2180 H2167 0.960 . S
C2180 C2179 1.524 . S
C2181 C2178 1.403 . S
C2181 C2182 1.392 . S
C2181 C2185 1.495 . S
C2182 C2181 1.392 . S
C2182 C2183 1.385 . S
C2182 C2184 1.478 . S
C2183 H2177 0.930 . S
C2183 C2179 1.400 . S
C2183 C2182 1.385 . S
C2184 C2182 1.478 . S
C2184 C2186 1.381 . S
C2184 C2190 1.383 . S
C2185 C2181 1.495 . S
C2185 H2191 0.959 . S
C2185 H2192 0.961 . S
C2185 H2193 0.960 . S
C2186 C2184 1.381 . S
C2186 C2187 1.394 . S
C2186 H2194 0.930 . S
C2187 C2186 1.394 . S
C2187 C2188 1.383 . S
C2187 H2195 0.929 . S
C2188 C2187 1.383 . S
C2188 C2189 1.377 . S
C2189 H2173 0.930 . S
C2189 C2188 1.377 . S
C2189 C2190 1.379 . S
C2190 H2174 0.931 . S
C2190 C2184 1.383 . S
C2190 C2189 1.379 . S
H2191 C2185 0.959 . S
H2192 C2185 0.961 . S
H2193 C2185 0.960 . S
H2194 C2186 0.930 . S
H2195 C2187 0.929 . S
H2196 C2204 0.929 . S
H2197 C2206 0.930 . S
H2198 C2208 0.930 . S
H2199 C2211 0.929 . S
H2200 C2214 0.930 . S
H2201 C2216 0.960 . S
H2202 C2216 0.960 . S
H2203 C2216 0.960 . S
C2204 H2196 0.929 . S
C2204 C2205 1.377 . S
C2204 C2206 1.384 . S
C2205 C2204 1.377 . S
C2205 C2211 1.390 . S
C2206 H2197 0.930 . S
C2206 C2204 1.384 . S
C2206 C2207 1.372 . S
C2207 C2206 1.372 . S
C2207 C2208 1.400 . S
C2207 C2212 1.490 . S
C2208 H2198 0.930 . S
C2208 C2207 1.400 . S
C2208 C2211 1.386 . S
H2209 C2225 0.930 . S
H2210 C2226 0.936 . S
C2211 H2199 0.929 . S
C2211 C2205 1.390 . S
C2211 C2208 1.386 . S
C2212 C2207 1.490 . S
C2212 C2214 1.395 . S
C2212 C2215 1.403 . S
H2213 C2219 0.930 . S
C2214 H2200 0.930 . S
C2214 C2212 1.395 . S
C2214 C2217 1.403 1_655 S
C2215 C2212 1.403 . S
C2215 C2216 1.524 . S
C2215 C2219 1.400 . S
C2216 H2201 0.960 . S
C2216 H2202 0.960 . S
C2216 H2203 0.960 . S
C2216 C2215 1.524 . S
C2217 C2214 1.403 1_455 S
C2217 C2218 1.392 1_455 S
C2217 C2221 1.495 . S
C2218 C2217 1.392 1_655 S
C2218 C2219 1.385 . S
C2218 C2220 1.478 1_655 S
C2219 H2213 0.930 . S
C2219 C2215 1.400 . S
C2219 C2218 1.385 . S
C2220 C2218 1.478 1_455 S
C2220 C2222 1.381 . S
C2220 C2226 1.383 . S
C2221 C2217 1.495 . S
C2221 H2227 0.959 . S
C2221 H2228 0.961 . S
C2221 H2229 0.960 . S
C2222 C2220 1.381 . S
C2222 C2223 1.394 . S
C2222 H2230 0.930 . S
C2223 C2222 1.394 . S
C2223 C2224 1.383 . S
C2223 H2231 0.929 . S
C2224 C2223 1.383 . S
C2224 C2225 1.377 . S
C2225 H2209 0.930 . S
C2225 C2224 1.377 . S
C2225 C2226 1.379 . S
C2226 H2210 0.936 . S
C2226 C2220 1.383 . S
C2226 C2225 1.379 . S
H2227 C2221 0.959 . S
H2228 C2221 0.961 . S
H2229 C2221 0.960 . S
H2230 C2222 0.930 . S
H2231 C2223 0.929 . S
H2232 C2240 0.929 . S
H2233 C2242 0.930 . S
H2234 C2244 0.930 . S
H2235 C2247 0.929 . S
H2236 C2250 0.930 . S
H2237 C2252 0.960 . S
H2238 C2252 0.960 . S
H2239 C2252 0.960 . S
C2240 H2232 0.929 . S
C2240 C2241 1.377 . S
C2240 C2242 1.384 . S
C2241 C2240 1.377 . S
C2241 C2247 1.390 . S
C2242 H2233 0.930 . S
C2242 C2240 1.384 . S
C2242 C2243 1.372 . S
C2243 C2242 1.372 . S
C2243 C2244 1.400 . S
C2243 C2248 1.490 . S
C2244 H2234 0.930 . S
C2244 C2243 1.400 . S
C2244 C2247 1.386 . S
H2245 C2261 0.930 . S
H2246 C2262 0.931 . S
C2247 H2235 0.929 . S
C2247 C2241 1.390 . S
C2247 C2244 1.386 . S
C2248 C2243 1.490 . S
C2248 C2250 1.395 . S
C2248 C2251 1.403 . S
H2249 C2255 0.930 . S
C2250 H2236 0.930 . S
C2250 C2248 1.395 . S
C2250 C2253 1.403 . S
C2251 C2248 1.403 . S
C2251 C2252 1.524 . S
C2251 C2255 1.400 . S
C2252 H2237 0.960 . S
C2252 H2238 0.960 . S
C2252 H2239 0.960 . S
C2252 C2251 1.524 . S
C2253 C2250 1.403 . S
C2253 C2254 1.392 . S
C2253 C2257 1.495 . S
C2254 C2253 1.392 . S
C2254 C2255 1.385 . S
C2254 C2256 1.478 . S
C2255 H2249 0.930 . S
C2255 C2251 1.400 . S
C2255 C2254 1.385 . S
C2256 C2254 1.478 . S
C2256 C2258 1.381 . S
C2256 C2262 1.383 . S
C2257 C2253 1.495 . S
C2257 H2263 0.959 . S
C2257 H2264 0.961 . S
C2257 H2265 0.960 . S
C2258 C2256 1.381 . S
C2258 C2259 1.394 . S
C2258 H2266 0.930 . S
C2259 C2258 1.394 . S
C2259 C2260 1.383 . S
C2259 H2267 0.929 . S
C2260 C2259 1.383 . S
C2260 C2261 1.377 . S
C2261 H2245 0.930 . S
C2261 C2260 1.377 . S
C2261 C2262 1.379 . S
C2262 H2246 0.931 . S
C2262 C2256 1.383 . S
C2262 C2261 1.379 . S
H2263 C2257 0.959 . S
H2264 C2257 0.961 . S
H2265 C2257 0.960 . S
H2266 C2258 0.930 . S
H2267 C2259 0.929 . S
H2268 C2276 0.929 . S
H2269 C2278 0.930 . S
H2270 C2280 0.930 . S
H2271 C2283 0.929 . S
H2272 C2286 0.930 . S
H2273 C2288 0.960 . S
H2274 C2288 0.960 . S
H2275 C2288 0.960 . S
C2276 H2268 0.929 . S
C2276 C2277 1.377 . S
C2276 C2278 1.384 . S
C2277 C2276 1.377 . S
C2277 C2283 1.390 . S
C2278 H2269 0.930 . S
C2278 C2276 1.384 . S
C2278 C2279 1.372 . S
C2279 C2278 1.372 . S
C2279 C2280 1.400 . S
C2279 C2284 1.490 . S
C2280 H2270 0.930 . S
C2280 C2279 1.400 . S
C2280 C2283 1.386 . S
H2281 C2297 0.930 . S
H2282 C2298 0.931 . S
C2283 H2271 0.929 . S
C2283 C2277 1.390 . S
C2283 C2280 1.386 . S
C2284 C2279 1.490 . S
C2284 C2286 1.395 . S
C2284 C2287 1.403 . S
H2285 C2291 0.930 . S
C2286 H2272 0.930 . S
C2286 C2284 1.395 . S
C2286 C2289 1.403 . S
C2287 C2284 1.403 . S
C2287 C2288 1.524 . S
C2287 C2291 1.400 . S
C2288 H2273 0.960 . S
C2288 H2274 0.960 . S
C2288 H2275 0.960 . S
C2288 C2287 1.524 . S
C2289 C2286 1.403 . S
C2289 C2290 1.392 . S
C2289 C2293 1.495 . S
C2290 C2289 1.392 . S
C2290 C2291 1.385 . S
C2290 C2292 1.478 . S
C2291 H2285 0.930 . S
C2291 C2287 1.400 . S
C2291 C2290 1.385 . S
C2292 C2290 1.478 . S
C2292 C2294 1.381 . S
C2292 C2298 1.383 1_545 S
C2293 C2289 1.495 . S
C2293 H2299 0.959 . S
C2293 H2300 0.961 . S
C2293 H2301 0.960 . S
C2294 C2292 1.381 . S
C2294 C2295 1.394 1_545 S
C2294 H2302 0.930 . S
C2295 C2294 1.394 1_565 S
C2295 C2296 1.383 . S
C2295 H2303 0.929 . S
C2296 C2295 1.383 . S
C2296 C2297 1.377 . S
C2297 H2281 0.930 . S
C2297 C2296 1.377 . S
C2297 C2298 1.379 . S
C2298 H2282 0.931 . S
C2298 C2292 1.383 1_565 S
C2298 C2297 1.379 . S
H2299 C2293 0.959 . S
H2300 C2293 0.961 . S
H2301 C2293 0.960 . S
H2302 C2294 0.930 . S
H2303 C2295 0.929 . S
H2304 C2312 0.929 . S
H2305 C2314 0.930 . S
H2306 C2316 0.930 . S
H2307 C2319 0.929 . S
H2308 C2322 0.930 . S
H2309 C2324 0.960 . S
H2310 C2324 0.960 . S
H2311 C2324 0.960 . S
C2312 H2304 0.929 . S
C2312 C2313 1.377 . S
C2312 C2314 1.384 . S
C2313 C2312 1.377 . S
C2313 C2319 1.390 . S
C2314 H2305 0.930 . S
C2314 C2312 1.384 . S
C2314 C2315 1.372 . S
C2315 C2314 1.372 . S
C2315 C2316 1.400 . S
C2315 C2320 1.490 . S
C2316 H2306 0.930 . S
C2316 C2315 1.400 . S
C2316 C2319 1.386 . S
H2317 C2333 0.930 . S
H2318 C2334 0.931 . S
C2319 H2307 0.929 . S
C2319 C2313 1.390 . S
C2319 C2316 1.386 . S
C2320 C2315 1.490 . S
C2320 C2322 1.395 . S
C2320 C2323 1.403 . S
H2321 C2327 0.930 . S
C2322 H2308 0.930 . S
C2322 C2320 1.395 . S
C2322 C2325 1.403 . S
C2323 C2320 1.403 . S
C2323 C2324 1.524 . S
C2323 C2327 1.400 . S
C2324 H2309 0.960 . S
C2324 H2310 0.960 . S
C2324 H2311 0.960 . S
C2324 C2323 1.524 . S
C2325 C2322 1.403 . S
C2325 C2326 1.392 . S
C2325 C2329 1.495 . S
C2326 C2325 1.392 . S
C2326 C2327 1.385 . S
C2326 C2328 1.478 . S
C2327 H2321 0.930 . S
C2327 C2323 1.400 . S
C2327 C2326 1.385 . S
C2328 C2326 1.478 . S
C2328 C2330 1.381 . S
C2328 C2334 1.383 . S
C2329 C2325 1.495 . S
C2329 H2335 0.959 . S
C2329 H2336 0.961 . S
C2329 H2337 0.960 . S
C2330 C2328 1.381 . S
C2330 C2331 1.394 . S
C2330 H2338 0.930 . S
C2331 C2330 1.394 . S
C2331 C2332 1.383 . S
C2331 H2339 0.929 . S
C2332 C2331 1.383 . S
C2332 C2333 1.377 . S
C2333 H2317 0.930 . S
C2333 C2332 1.377 . S
C2333 C2334 1.379 . S
C2334 H2318 0.931 . S
C2334 C2328 1.383 . S
C2334 C2333 1.379 . S
H2335 C2329 0.959 . S
H2336 C2329 0.961 . S
H2337 C2329 0.960 . S
H2338 C2330 0.930 . S
H2339 C2331 0.929 . S
H2340 C2348 0.929 . S
H2341 C2350 0.930 . S
H2342 C2352 0.930 . S
H2343 C2355 0.929 . S
H2344 C2358 0.930 . S
H2345 C2360 0.960 . S
H2346 C2360 0.960 . S
H2347 C2360 0.960 . S
C2348 H2340 0.929 . S
C2348 C2349 1.377 . S
C2348 C2350 1.384 . S
C2349 C2348 1.377 . S
C2349 C2355 1.390 . S
C2350 H2341 0.930 . S
C2350 C2348 1.384 . S
C2350 C2351 1.372 . S
C2351 C2350 1.372 . S
C2351 C2352 1.400 . S
C2351 C2356 1.490 . S
C2352 H2342 0.930 . S
C2352 C2351 1.400 . S
C2352 C2355 1.386 . S
H2353 C2369 0.930 . S
H2354 C2370 0.931 . S
C2355 H2343 0.929 . S
C2355 C2349 1.390 . S
C2355 C2352 1.386 . S
C2356 C2351 1.490 . S
C2356 C2358 1.395 . S
C2356 C2359 1.403 . S
H2357 C2363 0.930 . S
C2358 H2344 0.930 . S
C2358 C2356 1.395 . S
C2358 C2361 1.403 . S
C2359 C2356 1.403 . S
C2359 C2360 1.524 . S
C2359 C2363 1.400 . S
C2360 H2345 0.960 . S
C2360 H2346 0.960 . S
C2360 H2347 0.960 . S
C2360 C2359 1.524 . S
C2361 C2358 1.403 . S
C2361 C2362 1.392 . S
C2361 C2365 1.495 1_565 S
C2362 C2361 1.392 . S
C2362 C2363 1.385 . S
C2362 C2364 1.478 1_565 S
C2363 H2357 0.930 . S
C2363 C2359 1.400 . S
C2363 C2362 1.385 . S
C2364 C2362 1.478 1_545 S
C2364 C2366 1.381 . S
C2364 C2370 1.383 . S
C2365 C2361 1.495 1_545 S
C2365 H2371 0.959 . S
C2365 H2372 0.961 . S
C2365 H2373 0.960 . S
C2366 C2364 1.381 . S
C2366 C2367 1.394 . S
C2366 H2374 0.930 . S
C2367 C2366 1.394 . S
C2367 C2368 1.383 . S
C2367 H2375 0.929 . S
C2368 C2367 1.383 . S
C2368 C2369 1.377 . S
C2369 H2353 0.930 . S
C2369 C2368 1.377 . S
C2369 C2370 1.379 . S
C2370 H2354 0.931 . S
C2370 C2364 1.383 . S
C2370 C2369 1.379 . S
H2371 C2365 0.959 . S
H2372 C2365 0.961 . S
H2373 C2365 0.960 . S
H2374 C2366 0.930 . S
H2375 C2367 0.929 . S
H2376 C2384 0.929 . S
H2377 C2386 0.930 . S
H2378 C2388 0.930 . S
H2379 C2391 0.929 . S
H2380 C2394 0.930 . S
H2381 C2396 0.960 . S
H2382 C2396 0.960 . S
H2383 C2396 0.960 . S
C2384 H2376 0.929 . S
C2384 C2385 1.377 . S
C2384 C2386 1.384 . S
C2385 C2384 1.377 . S
C2385 C2391 1.390 . S
C2386 H2377 0.930 . S
C2386 C2384 1.384 . S
C2386 C2387 1.372 . S
C2387 C2386 1.372 . S
C2387 C2388 1.400 . S
C2387 C2392 1.490 . S
C2388 H2378 0.930 . S
C2388 C2387 1.400 . S
C2388 C2391 1.386 . S
H2389 C2405 0.930 . S
H2390 C2406 0.931 . S
C2391 H2379 0.929 . S
C2391 C2385 1.390 . S
C2391 C2388 1.386 . S
C2392 C2387 1.490 . S
C2392 C2394 1.395 1_556 S
C2392 C2395 1.403 . S
H2393 C2399 0.930 . S
C2394 H2380 0.930 . S
C2394 C2392 1.395 1_554 S
C2394 C2397 1.403 . S
C2395 C2392 1.403 . S
C2395 C2396 1.524 . S
C2395 C2399 1.400 1_556 S
C2396 H2381 0.960 . S
C2396 H2382 0.960 . S
C2396 H2383 0.960 . S
C2396 C2395 1.524 . S
C2397 C2394 1.403 . S
C2397 C2398 1.392 . S
C2397 C2401 1.495 . S
C2398 C2397 1.392 . S
C2398 C2399 1.385 . S
C2398 C2400 1.478 . S
C2399 H2393 0.930 . S
C2399 C2395 1.400 1_554 S
C2399 C2398 1.385 . S
C2400 C2398 1.478 . S
C2400 C2402 1.381 . S
C2400 C2406 1.383 . S
C2401 C2397 1.495 . S
C2401 H2407 0.959 . S
C2401 H2408 0.961 . S
C2401 H2409 0.960 . S
C2402 C2400 1.381 . S
C2402 C2403 1.394 . S
C2402 H2410 0.930 . S
C2403 C2402 1.394 . S
C2403 C2404 1.383 . S
C2403 H2411 0.929 . S
C2404 C2403 1.383 . S
C2404 C2405 1.377 . S
C2405 H2389 0.930 . S
C2405 C2404 1.377 . S
C2405 C2406 1.379 . S
C2406 H2390 0.931 . S
C2406 C2400 1.383 . S
C2406 C2405 1.379 . S
H2407 C2401 0.959 . S
H2408 C2401 0.961 . S
H2409 C2401 0.960 . S
H2410 C2402 0.930 . S
H2411 C2403 0.929 . S
H2412 C2420 0.929 . S
H2413 C2422 0.930 . S
H2414 C2424 0.930 . S
H2415 C2427 0.929 . S
H2416 C2430 0.930 . S
H2417 C2432 0.960 . S
H2418 C2432 0.960 . S
H2419 C2432 0.960 . S
C2420 H2412 0.929 . S
C2420 C2421 1.377 . S
C2420 C2422 1.384 . S
C2421 C2420 1.377 . S
C2421 C2427 1.390 . S
C2422 H2413 0.930 . S
C2422 C2420 1.384 . S
C2422 C2423 1.372 . S
C2423 C2422 1.372 . S
C2423 C2424 1.400 . S
C2423 C2428 1.490 . S
C2424 H2414 0.930 . S
C2424 C2423 1.400 . S
C2424 C2427 1.386 . S
H2425 C2441 0.930 . S
H2426 C2442 0.931 . S
C2427 H2415 0.929 . S
C2427 C2421 1.390 . S
C2427 C2424 1.386 . S
C2428 C2423 1.490 . S
C2428 C2430 1.395 1_545 S
C2428 C2431 1.396 1_545 S
H2429 C2435 0.930 . S
C2430 H2416 0.930 . S
C2430 C2428 1.395 1_565 S
C2430 C2433 1.403 . S
C2431 C2428 1.396 1_565 S
C2431 C2432 1.506 1_565 S
C2431 C2435 1.426 . S
C2432 H2417 0.960 . S
C2432 H2418 0.960 . S
C2432 H2419 0.960 . S
C2432 C2431 1.506 1_545 S
C2433 C2430 1.403 . S
C2433 C2434 1.392 . S
C2433 C2437 1.495 . S
C2434 C2433 1.392 . S
C2434 C2435 1.385 . S
C2434 C2436 1.478 . S
C2435 H2429 0.930 . S
C2435 C2431 1.426 . S
C2435 C2434 1.385 . S
C2436 C2434 1.478 . S
C2436 C2438 1.381 . S
C2436 C2442 1.383 . S
C2437 C2433 1.495 . S
C2437 H2443 0.959 . S
C2437 H2444 0.961 . S
C2437 H2445 0.960 . S
C2438 C2436 1.381 . S
C2438 C2439 1.394 . S
C2438 H2446 0.930 . S
C2439 C2438 1.394 . S
C2439 C2440 1.383 . S
C2439 H2447 0.929 . S
C2440 C2439 1.383 . S
C2440 C2441 1.377 . S
C2441 H2425 0.930 . S
C2441 C2440 1.377 . S
C2441 C2442 1.379 . S
C2442 H2426 0.931 . S
C2442 C2436 1.383 . S
C2442 C2441 1.379 . S
H2443 C2437 0.959 . S
H2444 C2437 0.961 . S
H2445 C2437 0.960 . S
H2446 C2438 0.930 . S
H2447 C2439 0.929 . S
H2448 C2456 0.929 . S
H2449 C2458 0.930 . S
H2450 C2460 0.930 . S
H2451 C2463 0.929 . S
H2452 C2466 0.930 . S
H2453 C2468 0.960 . S
H2454 C2468 0.960 . S
H2455 C2468 0.960 . S
C2456 H2448 0.929 . S
C2456 C2457 1.377 . S
C2456 C2458 1.384 . S
C2457 C2456 1.377 . S
C2457 C2463 1.390 . S
C2458 H2449 0.930 . S
C2458 C2456 1.384 . S
C2458 C2459 1.372 . S
C2459 C2458 1.372 . S
C2459 C2460 1.400 . S
C2459 C2464 1.490 . S
C2460 H2450 0.930 . S
C2460 C2459 1.400 . S
C2460 C2463 1.386 . S
H2461 C2477 0.930 . S
H2462 C2478 0.931 . S
C2463 H2451 0.929 . S
C2463 C2457 1.390 . S
C2463 C2460 1.386 . S
C2464 C2459 1.490 . S
C2464 C2466 1.395 . S
C2464 C2467 1.403 . S
H2465 C2471 0.930 . S
C2466 H2452 0.930 . S
C2466 C2464 1.395 . S
C2466 C2469 1.403 . S
C2467 C2464 1.403 . S
C2467 C2468 1.524 . S
C2467 C2471 1.400 . S
C2468 H2453 0.960 . S
C2468 H2454 0.960 . S
C2468 H2455 0.960 . S
C2468 C2467 1.524 . S
C2469 C2466 1.403 . S
C2469 C2470 1.392 . S
C2469 C2473 1.495 . S
C2470 C2469 1.392 . S
C2470 C2471 1.385 . S
C2470 C2472 1.478 . S
C2471 H2465 0.930 . S
C2471 C2467 1.400 . S
C2471 C2470 1.385 . S
C2472 C2470 1.478 . S
C2472 C2474 1.381 . S
C2472 C2478 1.383 . S
C2473 C2469 1.495 . S
C2473 H2479 0.959 . S
C2473 H2480 0.961 . S
C2473 H2481 0.960 . S
C2474 C2472 1.381 . S
C2474 C2475 1.394 . S
C2474 H2482 0.930 . S
C2475 C2474 1.394 . S
C2475 C2476 1.383 . S
C2475 H2483 0.929 . S
C2476 C2475 1.383 . S
C2476 C2477 1.377 . S
C2477 H2461 0.930 . S
C2477 C2476 1.377 . S
C2477 C2478 1.379 . S
C2478 H2462 0.931 . S
C2478 C2472 1.383 . S
C2478 C2477 1.379 . S
H2479 C2473 0.959 . S
H2480 C2473 0.961 . S
H2481 C2473 0.960 . S
H2482 C2474 0.930 . S
H2483 C2475 0.929 . S
H2484 C2492 0.929 . S
H2485 C2494 0.930 . S
H2486 C2496 0.930 1_545 S
H2487 C2499 0.929 . S
H2488 C2502 0.930 . S
H2489 C2504 0.960 . S
H2490 C2504 0.960 . S
H2491 C2504 0.960 . S
C2492 H2484 0.929 . S
C2492 C2493 1.377 . S
C2492 C2494 1.384 . S
C2493 C2492 1.377 . S
C2493 C2499 1.390 . S
C2494 H2485 0.930 . S
C2494 C2492 1.384 . S
C2494 C2495 1.372 . S
C2495 C2494 1.372 . S
C2495 C2496 1.400 . S
C2495 C2500 1.490 . S
C2496 H2486 0.930 1_565 S
C2496 C2495 1.400 . S
C2496 C2499 1.386 . S
H2497 C2513 0.930 . S
H2498 C2514 0.931 . S
C2499 H2487 0.929 . S
C2499 C2493 1.390 . S
C2499 C2496 1.386 . S
C2500 C2495 1.490 . S
C2500 C2502 1.395 . S
C2500 C2503 1.403 1_565 S
H2501 C2507 0.930 . S
C2502 H2488 0.930 . S
C2502 C2500 1.395 . S
C2502 C2505 1.403 1_565 S
C2503 C2500 1.403 1_545 S
C2503 C2504 1.524 . S
C2503 C2507 1.400 . S
C2504 H2489 0.960 . S
C2504 H2490 0.960 . S
C2504 H2491 0.960 . S
C2504 C2503 1.524 . S
C2505 C2502 1.403 1_545 S
C2505 C2506 1.392 . S
C2505 C2509 1.495 . S
C2506 C2505 1.392 . S
C2506 C2507 1.385 . S
C2506 C2508 1.478 . S
C2507 H2501 0.930 . S
C2507 C2503 1.400 . S
C2507 C2506 1.385 . S
C2508 C2506 1.478 . S
C2508 C2510 1.381 . S
C2508 C2514 1.383 . S
C2509 C2505 1.495 . S
C2509 H2515 0.959 1_545 S
C2509 H2516 0.961 . S
C2509 H2517 0.960 . S
C2510 C2508 1.381 . S
C2510 C2511 1.394 . S
C2510 H2518 0.930 . S
C2511 C2510 1.394 . S
C2511 C2512 1.383 . S
C2511 H2519 0.929 . S
C2512 C2511 1.383 . S
C2512 C2513 1.377 . S
C2513 H2497 0.930 . S
C2513 C2512 1.377 . S
C2513 C2514 1.379 . S
C2514 H2498 0.931 . S
C2514 C2508 1.383 . S
C2514 C2513 1.379 . S
H2515 C2509 0.959 1_565 S
H2516 C2509 0.961 . S
H2517 C2509 0.960 . S
H2518 C2510 0.930 . S
H2519 C2511 0.929 . S
H2520 C2528 0.929 . S
H2521 C2530 0.930 . S
H2522 C2532 0.930 . S
H2523 C2535 0.929 . S
H2524 C2538 0.930 . S
H2525 C2540 0.960 . S
H2526 C2540 0.960 . S
H2527 C2540 0.960 . S
C2528 H2520 0.929 . S
C2528 C2529 1.377 . S
C2528 C2530 1.384 . S
C2529 C2528 1.377 . S
C2529 C2535 1.390 . S
C2530 H2521 0.930 . S
C2530 C2528 1.384 . S
C2530 C2531 1.372 . S
C2531 C2530 1.372 . S
C2531 C2532 1.400 . S
C2531 C2536 1.490 1_554 S
C2532 H2522 0.930 . S
C2532 C2531 1.400 . S
C2532 C2535 1.386 . S
H2533 C2549 0.930 . S
H2534 C2550 0.931 . S
C2535 H2523 0.929 . S
C2535 C2529 1.390 . S
C2535 C2532 1.386 . S
C2536 C2531 1.490 1_556 S
C2536 C2538 1.395 . S
C2536 C2539 1.403 . S
H2537 C2543 0.930 . S
C2538 H2524 0.930 . S
C2538 C2536 1.395 . S
C2538 C2541 1.403 . S
C2539 C2536 1.403 . S
C2539 C2540 1.524 1_556 S
C2539 C2543 1.400 . S
C2540 H2525 0.960 . S
C2540 H2526 0.960 . S
C2540 H2527 0.960 . S
C2540 C2539 1.524 1_554 S
C2541 C2538 1.403 . S
C2541 C2542 1.392 . S
C2541 C2545 1.495 . S
C2542 C2541 1.392 . S
C2542 C2543 1.385 . S
C2542 C2544 1.478 . S
C2543 H2537 0.930 . S
C2543 C2539 1.400 . S
C2543 C2542 1.385 . S
C2544 C2542 1.478 . S
C2544 C2546 1.381 . S
C2544 C2550 1.383 . S
C2545 C2541 1.495 . S
C2545 H2551 0.959 . S
C2545 H2552 0.961 . S
C2545 H2553 0.960 . S
C2546 C2544 1.381 . S
C2546 C2547 1.394 . S
C2546 H2554 0.930 . S
C2547 C2546 1.394 . S
C2547 C2548 1.383 . S
C2547 H2555 0.929 . S
C2548 C2547 1.383 . S
C2548 C2549 1.377 . S
C2549 H2533 0.930 . S
C2549 C2548 1.377 . S
C2549 C2550 1.379 . S
C2550 H2534 0.931 . S
C2550 C2544 1.383 . S
C2550 C2549 1.379 . S
H2551 C2545 0.959 . S
H2552 C2545 0.961 . S
H2553 C2545 0.960 . S
H2554 C2546 0.930 . S
H2555 C2547 0.929 . S
H2556 C2564 0.929 . S
H2557 C2566 0.930 . S
H2558 C2568 0.930 . S
H2559 C2571 0.929 . S
H2560 C2574 0.930 . S
H2561 C2576 0.960 . S
H2562 C2576 0.960 . S
H2563 C2576 0.960 . S
C2564 H2556 0.929 . S
C2564 C2565 1.377 . S
C2564 C2566 1.384 . S
C2565 C2564 1.377 . S
C2565 C2571 1.390 . S
C2566 H2557 0.930 . S
C2566 C2564 1.384 . S
C2566 C2567 1.372 . S
C2567 C2566 1.372 . S
C2567 C2568 1.400 . S
C2567 C2572 1.490 1_655 S
C2568 H2558 0.930 . S
C2568 C2567 1.400 . S
C2568 C2571 1.386 . S
H2569 C2585 0.930 . S
H2570 C2586 0.931 . S
C2571 H2559 0.929 . S
C2571 C2565 1.390 . S
C2571 C2568 1.386 . S
C2572 C2567 1.490 1_455 S
C2572 C2574 1.395 1_455 S
C2572 C2575 1.403 . S
H2573 C2579 0.930 . S
C2574 H2560 0.930 . S
C2574 C2572 1.395 1_655 S
C2574 C2577 1.403 1_655 S
C2575 C2572 1.403 . S
C2575 C2576 1.524 . S
C2575 C2579 1.400 . S
C2576 H2561 0.960 . S
C2576 H2562 0.960 . S
C2576 H2563 0.960 . S
C2576 C2575 1.524 . S
C2577 C2574 1.403 1_455 S
C2577 C2578 1.392 . S
C2577 C2581 1.495 . S
C2578 C2577 1.392 . S
C2578 C2579 1.385 . S
C2578 C2580 1.478 . S
C2579 H2573 0.930 . S
C2579 C2575 1.400 . S
C2579 C2578 1.385 . S
C2580 C2578 1.478 . S
C2580 C2582 1.381 . S
C2580 C2586 1.383 . S
C2581 C2577 1.495 . S
C2581 H2587 0.959 1_455 S
C2581 H2588 0.961 . S
C2581 H2589 0.960 . S
C2582 C2580 1.381 . S
C2582 C2583 1.394 . S
C2582 H2590 0.930 . S
C2583 C2582 1.394 . S
C2583 C2584 1.383 . S
C2583 H2591 0.929 . S
C2584 C2583 1.383 . S
C2584 C2585 1.377 . S
C2585 H2569 0.930 . S
C2585 C2584 1.377 . S
C2585 C2586 1.379 . S
C2586 H2570 0.931 . S
C2586 C2580 1.383 . S
C2586 C2585 1.379 . S
H2587 C2581 0.959 1_655 S
H2588 C2581 0.961 . S
H2589 C2581 0.960 . S
H2590 C2582 0.930 . S
H2591 C2583 0.929 . S
H2592 C2600 0.929 . S
H2593 C2602 0.930 . S
H2594 C2604 0.930 . S
H2595 C2607 0.929 . S
H2596 C2610 0.930 . S
H2597 C2612 0.960 . S
H2598 C2612 0.960 . S
H2599 C2612 0.960 . S
C2600 H2592 0.929 . S
C2600 C2601 1.377 . S
C2600 C2602 1.384 . S
C2601 C2600 1.377 . S
C2601 C2607 1.390 . S
C2602 H2593 0.930 . S
C2602 C2600 1.384 . S
C2602 C2603 1.372 . S
C2603 C2602 1.372 . S
C2603 C2604 1.400 . S
C2603 C2608 1.490 . S
C2604 H2594 0.930 . S
C2604 C2603 1.400 . S
C2604 C2607 1.386 . S
H2605 C2621 0.930 . S
H2606 C2622 0.931 . S
C2607 H2595 0.929 . S
C2607 C2601 1.390 . S
C2607 C2604 1.386 . S
C2608 C2603 1.490 . S
C2608 C2610 1.395 . S
C2608 C2611 1.403 . S
H2609 C2615 0.930 . S
C2610 H2596 0.930 . S
C2610 C2608 1.395 . S
C2610 C2613 1.403 . S
C2611 C2608 1.403 . S
C2611 C2612 1.524 . S
C2611 C2615 1.400 . S
C2612 H2597 0.960 . S
C2612 H2598 0.960 . S
C2612 H2599 0.960 . S
C2612 C2611 1.524 . S
C2613 C2610 1.403 . S
C2613 C2614 1.392 . S
C2613 C2617 1.495 . S
C2614 C2613 1.392 . S
C2614 C2615 1.385 . S
C2614 C2616 1.478 . S
C2615 H2609 0.930 . S
C2615 C2611 1.400 . S
C2615 C2614 1.385 . S
C2616 C2614 1.478 . S
C2616 C2618 1.381 . S
C2616 C2622 1.383 . S
C2617 C2613 1.495 . S
C2617 H2623 0.959 . S
C2617 H2624 0.961 . S
C2617 H2625 0.960 . S
C2618 C2616 1.381 . S
C2618 C2619 1.394 . S
C2618 H2626 0.930 . S
C2619 C2618 1.394 . S
C2619 C2620 1.383 . S
C2619 H2627 0.929 . S
C2620 C2619 1.383 . S
C2620 C2621 1.377 . S
C2621 H2605 0.930 . S
C2621 C2620 1.377 . S
C2621 C2622 1.379 . S
C2622 H2606 0.931 . S
C2622 C2616 1.383 . S
C2622 C2621 1.379 . S
H2623 C2617 0.959 . S
H2624 C2617 0.961 . S
H2625 C2617 0.960 . S
H2626 C2618 0.930 . S
H2627 C2619 0.929 . S
H2628 C2636 0.929 . S
H2629 C2638 0.930 . S
H2630 C2640 0.930 . S
H2631 C2643 0.929 . S
H2632 C2646 0.930 . S
H2633 C2648 0.960 . S
H2634 C2648 0.960 . S
H2635 C2648 0.960 . S
C2636 H2628 0.929 . S
C2636 C2637 1.377 . S
C2636 C2638 1.384 . S
C2637 C2636 1.377 . S
C2637 C2643 1.390 . S
C2638 H2629 0.930 . S
C2638 C2636 1.384 . S
C2638 C2639 1.372 . S
C2639 C2638 1.372 . S
C2639 C2640 1.400 . S
C2639 C2644 1.490 . S
C2640 H2630 0.930 . S
C2640 C2639 1.400 . S
C2640 C2643 1.386 . S
H2641 C2657 0.930 . S
H2642 C2658 0.931 . S
C2643 H2631 0.929 . S
C2643 C2637 1.390 . S
C2643 C2640 1.386 . S
C2644 C2639 1.490 . S
C2644 C2646 1.395 . S
C2644 C2647 1.403 1_455 S
H2645 C2651 0.930 . S
C2646 H2632 0.930 . S
C2646 C2644 1.395 . S
C2646 C2649 1.403 1_455 S
C2647 C2644 1.403 1_655 S
C2647 C2648 1.524 . S
C2647 C2651 1.400 . S
C2648 H2633 0.960 . S
C2648 H2634 0.960 . S
C2648 H2635 0.960 . S
C2648 C2647 1.524 . S
C2649 C2646 1.403 1_655 S
C2649 C2650 1.392 . S
C2649 C2653 1.495 . S
C2650 C2649 1.392 . S
C2650 C2651 1.385 . S
C2650 C2652 1.478 . S
C2651 H2645 0.930 . S
C2651 C2647 1.400 . S
C2651 C2650 1.385 . S
C2652 C2650 1.478 . S
C2652 C2654 1.381 . S
C2652 C2658 1.383 . S
C2653 C2649 1.495 . S
C2653 H2659 0.959 1_655 S
C2653 H2660 0.961 . S
C2653 H2661 0.960 . S
C2654 C2652 1.381 . S
C2654 C2655 1.394 . S
C2654 H2662 0.930 . S
C2655 C2654 1.394 . S
C2655 C2656 1.383 . S
C2655 H2663 0.929 . S
C2656 C2655 1.383 . S
C2656 C2657 1.377 . S
C2657 H2641 0.930 . S
C2657 C2656 1.377 . S
C2657 C2658 1.379 . S
C2658 H2642 0.931 . S
C2658 C2652 1.383 . S
C2658 C2657 1.379 . S
H2659 C2653 0.959 1_455 S
H2660 C2653 0.961 . S
H2661 C2653 0.960 . S
H2662 C2654 0.930 . S
H2663 C2655 0.929 . S
H2664 C2672 0.929 . S
H2665 C2674 0.930 . S
H2666 C2676 0.935 . S
H2667 C2679 0.929 . S
H2668 C2682 0.930 1_455 S
H2669 C2684 0.960 . S
H2670 C2684 0.960 . S
H2671 C2684 0.960 . S
C2672 H2664 0.929 . S
C2672 C2673 1.377 . S
C2672 C2674 1.384 . S
C2673 C2672 1.377 . S
C2673 C2679 1.390 . S
C2674 H2665 0.930 . S
C2674 C2672 1.384 . S
C2674 C2675 1.372 1_455 S
C2675 C2674 1.372 1_655 S
C2675 C2676 1.402 . S
C2675 C2680 1.490 . S
C2676 H2666 0.935 . S
C2676 C2675 1.402 . S
C2676 C2679 1.379 1_655 S
H2677 C2693 0.930 . S
H2678 C2694 0.931 . S
C2679 H2667 0.929 . S
C2679 C2673 1.390 . S
C2679 C2676 1.379 1_455 S
C2680 C2675 1.490 . S
C2680 C2682 1.395 . S
C2680 C2683 1.403 . S
H2681 C2687 0.930 . S
C2682 H2668 0.930 1_655 S
C2682 C2680 1.395 . S
C2682 C2685 1.403 . S
C2683 C2680 1.403 . S
C2683 C2684 1.524 . S
C2683 C2687 1.400 . S
C2684 H2669 0.960 . S
C2684 H2670 0.960 . S
C2684 H2671 0.960 . S
C2684 C2683 1.524 . S
C2685 C2682 1.403 . S
C2685 C2686 1.392 . S
C2685 C2689 1.495 . S
C2686 C2685 1.392 . S
C2686 C2687 1.385 . S
C2686 C2688 1.478 . S
C2687 H2681 0.930 . S
C2687 C2683 1.400 . S
C2687 C2686 1.385 . S
C2688 C2686 1.478 . S
C2688 C2690 1.381 . S
C2688 C2694 1.383 . S
C2689 C2685 1.495 . S
C2689 H2695 0.959 . S
C2689 H2696 0.961 . S
C2689 H2697 0.960 . S
C2690 C2688 1.381 . S
C2690 C2691 1.394 . S
C2690 H2698 0.930 . S
C2691 C2690 1.394 . S
C2691 C2692 1.383 . S
C2691 H2699 0.929 . S
C2692 C2691 1.383 . S
C2692 C2693 1.377 . S
C2693 H2677 0.930 . S
C2693 C2692 1.377 . S
C2693 C2694 1.379 . S
C2694 H2678 0.931 . S
C2694 C2688 1.383 . S
C2694 C2693 1.379 . S
H2695 C2689 0.959 . S
H2696 C2689 0.961 . S
H2697 C2689 0.960 . S
H2698 C2690 0.930 . S
H2699 C2691 0.929 . S
H2700 C2708 0.929 . S
H2701 C2710 0.930 . S
H2702 C2712 0.930 . S
H2703 C2715 0.929 . S
H2704 C2718 0.930 . S
H2705 C2720 0.960 . S
H2706 C2720 0.960 . S
H2707 C2720 0.960 . S
C2708 H2700 0.929 . S
C2708 C2709 1.377 . S
C2708 C2710 1.384 . S
C2709 C2708 1.377 . S
C2709 C2715 1.390 . S
C2710 H2701 0.930 . S
C2710 C2708 1.384 . S
C2710 C2711 1.372 . S
C2711 C2710 1.372 . S
C2711 C2712 1.400 . S
C2711 C2716 1.490 . S
C2712 H2702 0.930 . S
C2712 C2711 1.400 . S
C2712 C2715 1.386 . S
H2713 C2729 0.930 . S
H2714 C2730 0.931 . S
C2715 H2703 0.929 . S
C2715 C2709 1.390 . S
C2715 C2712 1.386 . S
C2716 C2711 1.490 . S
C2716 C2718 1.395 . S
C2716 C2719 1.403 . S
H2717 C2723 0.930 . S
C2718 H2704 0.930 . S
C2718 C2716 1.395 . S
C2718 C2721 1.403 . S
C2719 C2716 1.403 . S
C2719 C2720 1.524 . S
C2719 C2723 1.400 . S
C2720 H2705 0.960 . S
C2720 H2706 0.960 . S
C2720 H2707 0.960 . S
C2720 C2719 1.524 . S
C2721 C2718 1.403 . S
C2721 C2722 1.392 . S
C2721 C2725 1.495 . S
C2722 C2721 1.392 . S
C2722 C2723 1.385 . S
C2722 C2724 1.478 . S
C2723 H2717 0.930 . S
C2723 C2719 1.400 . S
C2723 C2722 1.385 . S
C2724 C2722 1.478 . S
C2724 C2726 1.381 . S
C2724 C2730 1.383 . S
C2725 C2721 1.495 . S
C2725 H2731 0.959 . S
C2725 H2732 0.961 . S
C2725 H2733 0.960 . S
C2726 C2724 1.381 . S
C2726 C2727 1.394 . S
C2726 H2734 0.930 . S
C2727 C2726 1.394 . S
C2727 C2728 1.383 . S
C2727 H2735 0.929 . S
C2728 C2727 1.383 . S
C2728 C2729 1.377 . S
C2729 H2713 0.930 . S
C2729 C2728 1.377 . S
C2729 C2730 1.379 . S
C2730 H2714 0.931 . S
C2730 C2724 1.383 . S
C2730 C2729 1.379 . S
H2731 C2725 0.959 . S
H2732 C2725 0.961 . S
H2733 C2725 0.960 . S
H2734 C2726 0.930 . S
H2735 C2727 0.929 . S
H2736 C2744 0.929 . S
H2737 C2746 0.930 . S
H2738 C2748 0.930 . S
H2739 C2751 0.929 . S
H2740 C2754 0.930 . S
H2741 C2756 0.960 . S
H2742 C2756 0.960 . S
H2743 C2756 0.960 . S
C2744 H2736 0.929 . S
C2744 C2745 1.377 . S
C2744 C2746 1.384 . S
C2745 C2744 1.377 . S
C2745 C2751 1.390 . S
C2746 H2737 0.930 . S
C2746 C2744 1.384 . S
C2746 C2747 1.372 . S
C2747 C2746 1.372 . S
C2747 C2748 1.400 . S
C2747 C2752 1.465 1_655 S
C2748 H2738 0.930 . S
C2748 C2747 1.400 . S
C2748 C2751 1.386 . S
H2749 C2765 0.930 . S
H2750 C2766 0.931 . S
C2751 H2739 0.929 . S
C2751 C2745 1.390 . S
C2751 C2748 1.386 . S
C2752 C2747 1.465 1_455 S
C2752 C2754 1.389 1_455 S
C2752 C2755 1.434 . S
H2753 C2759 0.930 . S
C2754 H2740 0.930 . S
C2754 C2752 1.389 1_655 S
C2754 C2757 1.403 1_655 S
C2755 C2752 1.434 . S
C2755 C2756 1.524 . S
C2755 C2759 1.400 . S
C2756 H2741 0.960 . S
C2756 H2742 0.960 . S
C2756 H2743 0.960 . S
C2756 C2755 1.524 . S
C2757 C2754 1.403 1_455 S
C2757 C2758 1.392 . S
C2757 C2761 1.495 . S
C2758 C2757 1.392 . S
C2758 C2759 1.385 . S
C2758 C2760 1.478 . S
C2759 H2753 0.930 . S
C2759 C2755 1.400 . S
C2759 C2758 1.385 . S
C2760 C2758 1.478 . S
C2760 C2762 1.381 . S
C2760 C2766 1.383 . S
C2761 C2757 1.495 . S
C2761 H2767 0.959 1_455 S
C2761 H2768 0.961 . S
C2761 H2769 0.960 . S
C2762 C2760 1.381 . S
C2762 C2763 1.394 . S
C2762 H2770 0.930 . S
C2763 C2762 1.394 . S
C2763 C2764 1.383 . S
C2763 H2771 0.929 . S
C2764 C2763 1.383 . S
C2764 C2765 1.377 . S
C2765 H2749 0.930 . S
C2765 C2764 1.377 . S
C2765 C2766 1.379 . S
C2766 H2750 0.931 . S
C2766 C2760 1.383 . S
C2766 C2765 1.379 . S
H2767 C2761 0.959 1_655 S
H2768 C2761 0.961 . S
H2769 C2761 0.960 . S
H2770 C2762 0.930 . S
H2771 C2763 0.929 . S
H2772 C2780 0.929 . S
H2773 C2782 0.930 . S
H2774 C2784 0.930 . S
H2775 C2787 0.929 . S
H2776 C2790 0.930 . S
H2777 C2792 0.960 . S
H2778 C2792 0.960 . S
H2779 C2792 0.960 . S
C2780 H2772 0.929 . S
C2780 C2781 1.377 . S
C2780 C2782 1.384 . S
C2781 C2780 1.377 . S
C2781 C2787 1.390 . S
C2782 H2773 0.930 . S
C2782 C2780 1.384 . S
C2782 C2783 1.372 . S
C2783 C2782 1.372 . S
C2783 C2784 1.400 . S
C2783 C2788 1.490 . S
C2784 H2774 0.930 . S
C2784 C2783 1.400 . S
C2784 C2787 1.386 . S
H2785 C2801 0.930 . S
H2786 C2802 0.931 . S
C2787 H2775 0.929 . S
C2787 C2781 1.390 . S
C2787 C2784 1.386 . S
C2788 C2783 1.490 . S
C2788 C2790 1.395 . S
C2788 C2791 1.403 . S
H2789 C2795 0.930 . S
C2790 H2776 0.930 . S
C2790 C2788 1.395 . S
C2790 C2793 1.403 . S
C2791 C2788 1.403 . S
C2791 C2792 1.524 . S
C2791 C2795 1.400 . S
C2792 H2777 0.960 . S
C2792 H2778 0.960 . S
C2792 H2779 0.960 . S
C2792 C2791 1.524 . S
C2793 C2790 1.403 . S
C2793 C2794 1.392 . S
C2793 C2797 1.495 . S
C2794 C2793 1.392 . S
C2794 C2795 1.385 . S
C2794 C2796 1.478 . S
C2795 H2789 0.930 . S
C2795 C2791 1.400 . S
C2795 C2794 1.385 . S
C2796 C2794 1.478 . S
C2796 C2798 1.381 . S
C2796 C2802 1.383 . S
C2797 C2793 1.495 . S
C2797 H2803 0.959 . S
C2797 H2804 0.961 . S
C2797 H2805 0.960 . S
C2798 C2796 1.381 . S
C2798 C2799 1.394 . S
C2798 H2806 0.930 . S
C2799 C2798 1.394 . S
C2799 C2800 1.383 . S
C2799 H2807 0.929 . S
C2800 C2799 1.383 . S
C2800 C2801 1.377 . S
C2801 H2785 0.930 . S
C2801 C2800 1.377 . S
C2801 C2802 1.379 . S
C2802 H2786 0.931 . S
C2802 C2796 1.383 . S
C2802 C2801 1.379 . S
H2803 C2797 0.959 . S
H2804 C2797 0.961 . S
H2805 C2797 0.960 . S
H2806 C2798 0.930 . S
H2807 C2799 0.929 . S
H2808 C2816 0.929 . S
H2809 C2818 0.930 . S
H2810 C2820 0.930 . S
H2811 C2823 0.929 . S
H2812 C2826 0.930 . S
H2813 C2828 0.960 . S
H2814 C2828 0.960 . S
H2815 C2828 0.960 . S
C2816 H2808 0.929 . S
C2816 C2817 1.377 . S
C2816 C2818 1.384 . S
C2817 C2816 1.377 . S
C2817 C2823 1.390 . S
C2818 H2809 0.930 . S
C2818 C2816 1.384 . S
C2818 C2819 1.372 . S
C2819 C2818 1.372 . S
C2819 C2820 1.400 . S
C2819 C2824 1.490 . S
C2820 H2810 0.930 . S
C2820 C2819 1.400 . S
C2820 C2823 1.386 . S
H2821 C2837 0.930 . S
H2822 C2838 0.931 . S
C2823 H2811 0.929 . S
C2823 C2817 1.390 . S
C2823 C2820 1.386 . S
C2824 C2819 1.490 . S
C2824 C2826 1.395 . S
C2824 C2827 1.403 . S
H2825 C2831 0.930 . S
C2826 H2812 0.930 . S
C2826 C2824 1.395 . S
C2826 C2829 1.403 . S
C2827 C2824 1.403 . S
C2827 C2828 1.524 . S
C2827 C2831 1.400 . S
C2828 H2813 0.960 . S
C2828 H2814 0.960 . S
C2828 H2815 0.960 . S
C2828 C2827 1.524 . S
C2829 C2826 1.403 . S
C2829 C2830 1.392 . S
C2829 C2833 1.495 . S
C2830 C2829 1.392 . S
C2830 C2831 1.385 . S
C2830 C2832 1.478 . S
C2831 H2825 0.930 . S
C2831 C2827 1.400 . S
C2831 C2830 1.385 . S
C2832 C2830 1.478 . S
C2832 C2834 1.381 . S
C2832 C2838 1.383 . S
C2833 C2829 1.495 . S
C2833 H2839 0.959 . S
C2833 H2840 0.961 . S
C2833 H2841 0.960 . S
C2834 C2832 1.381 . S
C2834 C2835 1.394 . S
C2834 H2842 0.930 . S
C2835 C2834 1.394 . S
C2835 C2836 1.383 . S
C2835 H2843 0.929 . S
C2836 C2835 1.383 . S
C2836 C2837 1.377 . S
C2837 H2821 0.930 . S
C2837 C2836 1.377 . S
C2837 C2838 1.379 . S
C2838 H2822 0.931 . S
C2838 C2832 1.383 . S
C2838 C2837 1.379 . S
H2839 C2833 0.959 . S
H2840 C2833 0.961 . S
H2841 C2833 0.960 . S
H2842 C2834 0.930 . S
H2843 C2835 0.929 . S
H2844 C2852 0.929 . S
H2845 C2854 0.930 . S
H2846 C2856 0.930 . S
H2847 C2859 0.929 . S
H2848 C2862 0.930 . S
H2849 C2864 0.960 . S
H2850 C2864 0.960 . S
H2851 C2864 0.960 . S
C2852 H2844 0.929 . S
C2852 C2853 1.377 . S
C2852 C2854 1.384 . S
C2853 C2852 1.377 . S
C2853 C2859 1.390 . S
C2854 H2845 0.930 . S
C2854 C2852 1.384 . S
C2854 C2855 1.372 . S
C2855 C2854 1.372 . S
C2855 C2856 1.400 . S
C2855 C2860 1.490 . S
C2856 H2846 0.930 . S
C2856 C2855 1.400 . S
C2856 C2859 1.386 . S
H2857 C2873 0.930 . S
H2858 C2874 0.931 . S
C2859 H2847 0.929 . S
C2859 C2853 1.390 . S
C2859 C2856 1.386 . S
C2860 C2855 1.490 . S
C2860 C2862 1.395 1_554 S
C2860 C2863 1.403 . S
H2861 C2867 0.930 . S
C2862 H2848 0.930 . S
C2862 C2860 1.395 1_556 S
C2862 C2865 1.403 . S
C2863 C2860 1.403 . S
C2863 C2864 1.524 . S
C2863 C2867 1.400 1_554 S
C2864 H2849 0.960 . S
C2864 H2850 0.960 . S
C2864 H2851 0.960 . S
C2864 C2863 1.524 . S
C2865 C2862 1.403 . S
C2865 C2866 1.392 . S
C2865 C2869 1.495 . S
C2866 C2865 1.392 . S
C2866 C2867 1.385 . S
C2866 C2868 1.478 . S
C2867 H2861 0.930 . S
C2867 C2863 1.400 1_556 S
C2867 C2866 1.385 . S
C2868 C2866 1.478 . S
C2868 C2870 1.381 . S
C2868 C2874 1.383 . S
C2869 C2865 1.495 . S
C2869 H2875 0.959 . S
C2869 H2876 0.961 . S
C2869 H2877 0.960 . S
C2870 C2868 1.381 . S
C2870 C2871 1.394 . S
C2870 H2878 0.930 . S
C2871 C2870 1.394 . S
C2871 C2872 1.383 . S
C2871 H2879 0.929 . S
C2872 C2871 1.383 . S
C2872 C2873 1.377 . S
C2873 H2857 0.930 . S
C2873 C2872 1.377 . S
C2873 C2874 1.379 . S
C2874 H2858 0.931 . S
C2874 C2868 1.383 . S
C2874 C2873 1.379 . S
H2875 C2869 0.959 . S
H2876 C2869 0.961 . S
H2877 C2869 0.960 . S
H2878 C2870 0.930 . S
H2879 C2871 0.929 . S
H2880 C2888 0.929 . S
H2881 C2890 0.930 . S
H2882 C2892 0.930 . S
H2883 C2895 0.929 . S
H2884 C2898 0.930 . S
H2885 C2900 0.960 . S
H2886 C2900 0.960 . S
H2887 C2900 0.960 . S
C2888 H2880 0.929 . S
C2888 C2889 1.377 . S
C2888 C2890 1.384 . S
C2889 C2888 1.377 . S
C2889 C2895 1.390 . S
C2890 H2881 0.930 . S
C2890 C2888 1.384 . S
C2890 C2891 1.372 . S
C2891 C2890 1.372 . S
C2891 C2892 1.400 . S
C2891 C2896 1.490 . S
C2892 H2882 0.930 . S
C2892 C2891 1.400 . S
C2892 C2895 1.386 . S
H2893 C2909 0.930 . S
H2894 C2910 0.931 . S
C2895 H2883 0.929 . S
C2895 C2889 1.390 . S
C2895 C2892 1.386 . S
C2896 C2891 1.490 . S
C2896 C2898 1.395 . S
C2896 C2899 1.403 . S
H2897 C2903 0.930 . S
C2898 H2884 0.930 . S
C2898 C2896 1.395 . S
C2898 C2901 1.403 . S
C2899 C2896 1.403 . S
C2899 C2900 1.524 . S
C2899 C2903 1.400 . S
C2900 H2885 0.960 . S
C2900 H2886 0.960 . S
C2900 H2887 0.960 . S
C2900 C2899 1.524 . S
C2901 C2898 1.403 . S
C2901 C2902 1.392 . S
C2901 C2905 1.495 . S
C2902 C2901 1.392 . S
C2902 C2903 1.385 . S
C2902 C2904 1.478 . S
C2903 H2897 0.930 . S
C2903 C2899 1.400 . S
C2903 C2902 1.385 . S
C2904 C2902 1.478 . S
C2904 C2906 1.381 . S
C2904 C2910 1.383 . S
C2905 C2901 1.495 . S
C2905 H2911 0.959 . S
C2905 H2912 0.961 . S
C2905 H2913 0.960 . S
C2906 C2904 1.381 . S
C2906 C2907 1.394 . S
C2906 H2914 0.930 . S
C2907 C2906 1.394 . S
C2907 C2908 1.383 . S
C2907 H2915 0.929 . S
C2908 C2907 1.383 . S
C2908 C2909 1.377 . S
C2909 H2893 0.930 . S
C2909 C2908 1.377 . S
C2909 C2910 1.379 . S
C2910 H2894 0.931 . S
C2910 C2904 1.383 . S
C2910 C2909 1.379 . S
H2911 C2905 0.959 . S
H2912 C2905 0.961 . S
H2913 C2905 0.960 . S
H2914 C2906 0.930 . S
H2915 C2907 0.929 . S
H2916 C2924 0.929 . S
H2917 C2926 0.930 . S
H2918 C2928 0.930 . S
H2919 C2931 0.929 . S
H2920 C2934 0.930 . S
H2921 C2936 0.960 . S
H2922 C2936 0.960 . S
H2923 C2936 0.960 . S
C2924 H2916 0.929 . S
C2924 C2925 1.377 . S
C2924 C2926 1.384 . S
C2925 C2924 1.377 . S
C2925 C2931 1.390 . S
C2926 H2917 0.930 . S
C2926 C2924 1.384 . S
C2926 C2927 1.372 . S
C2927 C2926 1.372 . S
C2927 C2928 1.400 . S
C2927 C2932 1.490 . S
C2928 H2918 0.930 . S
C2928 C2927 1.400 . S
C2928 C2931 1.386 . S
H2929 C2945 0.930 . S
H2930 C2946 0.931 . S
C2931 H2919 0.929 . S
C2931 C2925 1.390 . S
C2931 C2928 1.386 . S
C2932 C2927 1.490 . S
C2932 C2934 1.395 . S
C2932 C2935 1.403 . S
H2933 C2939 0.930 . S
C2934 H2920 0.930 . S
C2934 C2932 1.395 . S
C2934 C2937 1.403 . S
C2935 C2932 1.403 . S
C2935 C2936 1.524 . S
C2935 C2939 1.400 . S
C2936 H2921 0.960 . S
C2936 H2922 0.960 . S
C2936 H2923 0.960 . S
C2936 C2935 1.524 . S
C2937 C2934 1.403 . S
C2937 C2938 1.392 . S
C2937 C2941 1.495 . S
C2938 C2937 1.392 . S
C2938 C2939 1.385 . S
C2938 C2940 1.478 . S
C2939 H2933 0.930 . S
C2939 C2935 1.400 . S
C2939 C2938 1.385 . S
C2940 C2938 1.478 . S
C2940 C2942 1.381 . S
C2940 C2946 1.383 . S
C2941 C2937 1.495 . S
C2941 H2947 0.959 . S
C2941 H2948 0.961 . S
C2941 H2949 0.960 . S
C2942 C2940 1.381 . S
C2942 C2943 1.394 . S
C2942 H2950 0.930 . S
C2943 C2942 1.394 . S
C2943 C2944 1.383 . S
C2943 H2951 0.929 . S
C2944 C2943 1.383 . S
C2944 C2945 1.377 . S
C2945 H2929 0.930 . S
C2945 C2944 1.377 . S
C2945 C2946 1.379 . S
C2946 H2930 0.931 . S
C2946 C2940 1.383 . S
C2946 C2945 1.379 . S
H2947 C2941 0.959 . S
H2948 C2941 0.961 . S
H2949 C2941 0.960 . S
H2950 C2942 0.930 . S
H2951 C2943 0.929 . S
H2952 C2960 0.929 . S
H2953 C2962 0.930 . S
H2954 C2964 0.930 . S
H2955 C2967 0.929 . S
H2956 C2970 0.930 . S
H2957 C2972 0.960 . S
H2958 C2972 0.960 . S
H2959 C2972 0.960 . S
C2960 H2952 0.929 . S
C2960 C2961 1.377 . S
C2960 C2962 1.384 . S
C2961 C2960 1.377 . S
C2961 C2967 1.390 . S
C2962 H2953 0.930 . S
C2962 C2960 1.384 . S
C2962 C2963 1.372 . S
C2963 C2962 1.372 . S
C2963 C2964 1.400 . S
C2963 C2968 1.490 . S
C2964 H2954 0.930 . S
C2964 C2963 1.400 . S
C2964 C2967 1.386 . S
H2965 C2981 0.930 . S
H2966 C2982 0.931 . S
C2967 H2955 0.929 . S
C2967 C2961 1.390 . S
C2967 C2964 1.386 . S
C2968 C2963 1.490 . S
C2968 C2970 1.395 . S
C2968 C2971 1.403 . S
H2969 C2975 0.930 . S
C2970 H2956 0.930 . S
C2970 C2968 1.395 . S
C2970 C2973 1.403 . S
C2971 C2968 1.403 . S
C2971 C2972 1.524 . S
C2971 C2975 1.400 . S
C2972 H2957 0.960 . S
C2972 H2958 0.960 . S
C2972 H2959 0.960 . S
C2972 C2971 1.524 . S
C2973 C2970 1.403 . S
C2973 C2974 1.392 . S
C2973 C2977 1.495 . S
C2974 C2973 1.392 . S
C2974 C2975 1.385 . S
C2974 C2976 1.478 . S
C2975 H2969 0.930 . S
C2975 C2971 1.400 . S
C2975 C2974 1.385 . S
C2976 C2974 1.478 . S
C2976 C2978 1.381 . S
C2976 C2982 1.383 . S
C2977 C2973 1.495 . S
C2977 H2983 0.959 . S
C2977 H2984 0.961 . S
C2977 H2985 0.960 . S
C2978 C2976 1.381 . S
C2978 C2979 1.394 . S
C2978 H2986 0.930 . S
C2979 C2978 1.394 . S
C2979 C2980 1.383 . S
C2979 H2987 0.929 . S
C2980 C2979 1.383 . S
C2980 C2981 1.377 . S
C2981 H2965 0.930 . S
C2981 C2980 1.377 . S
C2981 C2982 1.379 . S
C2982 H2966 0.931 . S
C2982 C2976 1.383 . S
C2982 C2981 1.379 . S
H2983 C2977 0.959 . S
H2984 C2977 0.961 . S
H2985 C2977 0.960 . S
H2986 C2978 0.930 . S
H2987 C2979 0.929 . S
H2988 C2996 0.929 . S
H2989 C2998 0.930 . S
H2990 C3000 0.930 . S
H2991 C3003 0.929 . S
H2992 C3006 0.930 . S
H2993 C3008 0.960 . S
H2994 C3008 0.960 1_554 S
H2995 C3008 0.960 1_554 S
C2996 H2988 0.929 . S
C2996 C2997 1.377 . S
C2996 C2998 1.384 . S
C2997 C2996 1.377 . S
C2997 C3003 1.390 . S
C2998 H2989 0.930 . S
C2998 C2996 1.384 . S
C2998 C2999 1.372 . S
C2999 C2998 1.372 . S
C2999 C3000 1.400 . S
C2999 C3004 1.490 . S
C3000 H2990 0.930 . S
C3000 C2999 1.400 . S
C3000 C3003 1.386 . S
H3001 C3017 0.930 . S
H3002 C3018 0.931 . S
C3003 H2991 0.929 . S
C3003 C2997 1.390 . S
C3003 C3000 1.386 . S
C3004 C2999 1.490 . S
C3004 C3006 1.395 . S
C3004 C3007 1.403 . S
H3005 C3011 0.930 . S
C3006 H2992 0.930 . S
C3006 C3004 1.395 . S
C3006 C3009 1.403 . S
C3007 C3004 1.403 . S
C3007 C3008 1.524 1_554 S
C3007 C3011 1.400 1_554 S
C3008 H2993 0.960 . S
C3008 H2994 0.960 1_556 S
C3008 H2995 0.960 1_556 S
C3008 C3007 1.524 1_556 S
C3009 C3006 1.403 . S
C3009 C3010 1.392 1_554 S
C3009 C3013 1.495 . S
C3010 C3009 1.392 1_556 S
C3010 C3011 1.385 . S
C3010 C3012 1.478 . S
C3011 H3005 0.930 . S
C3011 C3007 1.400 1_556 S
C3011 C3010 1.385 . S
C3012 C3010 1.478 . S
C3012 C3014 1.381 . S
C3012 C3018 1.383 . S
C3013 C3009 1.495 . S
C3013 H3019 0.959 . S
C3013 H3020 0.961 . S
C3013 H3021 0.960 . S
C3014 C3012 1.381 . S
C3014 C3015 1.394 . S
C3014 H3022 0.930 . S
C3015 C3014 1.394 . S
C3015 C3016 1.383 . S
C3015 H3023 0.929 . S
C3016 C3015 1.383 . S
C3016 C3017 1.377 . S
C3017 H3001 0.930 . S
C3017 C3016 1.377 . S
C3017 C3018 1.379 . S
C3018 H3002 0.931 . S
C3018 C3012 1.383 . S
C3018 C3017 1.379 . S
H3019 C3013 0.959 . S
H3020 C3013 0.961 . S
H3021 C3013 0.960 . S
H3022 C3014 0.930 . S
H3023 C3015 0.929 . S
H3024 C3032 0.929 . S
H3025 C3034 0.930 . S
H3026 C3036 0.930 . S
H3027 C3039 0.929 . S
H3028 C3042 0.930 . S
H3029 C3044 0.960 . S
H3030 C3044 0.960 . S
H3031 C3044 0.960 . S
C3032 H3024 0.929 . S
C3032 C3033 1.377 . S
C3032 C3034 1.384 . S
C3033 C3032 1.377 . S
C3033 C3039 1.390 . S
C3034 H3025 0.930 . S
C3034 C3032 1.384 . S
C3034 C3035 1.372 . S
C3035 C3034 1.372 . S
C3035 C3036 1.400 . S
C3035 C3040 1.490 . S
C3036 H3026 0.930 . S
C3036 C3035 1.400 . S
C3036 C3039 1.386 . S
H3037 C3053 0.930 . S
H3038 C3054 0.931 . S
C3039 H3027 0.929 . S
C3039 C3033 1.390 . S
C3039 C3036 1.386 . S
C3040 C3035 1.490 . S
C3040 C3042 1.395 . S
C3040 C3043 1.403 . S
H3041 C3047 0.930 . S
C3042 H3028 0.930 . S
C3042 C3040 1.395 . S
C3042 C3045 1.403 . S
C3043 C3040 1.403 . S
C3043 C3044 1.524 . S
C3043 C3047 1.400 . S
C3044 H3029 0.960 . S
C3044 H3030 0.960 . S
C3044 H3031 0.960 . S
C3044 C3043 1.524 . S
C3045 C3042 1.403 . S
C3045 C3046 1.392 . S
C3045 C3049 1.495 . S
C3046 C3045 1.392 . S
C3046 C3047 1.385 . S
C3046 C3048 1.478 . S
C3047 H3041 0.930 . S
C3047 C3043 1.400 . S
C3047 C3046 1.385 . S
C3048 C3046 1.478 . S
C3048 C3050 1.381 . S
C3048 C3054 1.383 . S
C3049 C3045 1.495 . S
C3049 H3055 0.959 . S
C3049 H3056 0.961 . S
C3049 H3057 0.960 . S
C3050 C3048 1.381 . S
C3050 C3051 1.394 . S
C3050 H3058 0.930 . S
C3051 C3050 1.394 . S
C3051 C3052 1.383 . S
C3051 H3059 0.929 . S
C3052 C3051 1.383 . S
C3052 C3053 1.377 . S
C3053 H3037 0.930 . S
C3053 C3052 1.377 . S
C3053 C3054 1.379 . S
C3054 H3038 0.931 . S
C3054 C3048 1.383 . S
C3054 C3053 1.379 . S
H3055 C3049 0.959 . S
H3056 C3049 0.961 . S
H3057 C3049 0.960 . S
H3058 C3050 0.930 . S
H3059 C3051 0.929 . S
H3060 C3068 0.929 . S
H3061 C3070 0.930 . S
H3062 C3072 0.930 . S
H3063 C3075 0.929 . S
H3064 C3078 0.930 . S
H3065 C3080 0.960 . S
H3066 C3080 0.960 . S
H3067 C3080 0.960 . S
C3068 H3060 0.929 . S
C3068 C3069 1.377 . S
C3068 C3070 1.384 . S
C3069 C3068 1.377 . S
C3069 C3075 1.390 . S
C3070 H3061 0.930 . S
C3070 C3068 1.384 . S
C3070 C3071 1.372 . S
C3071 C3070 1.372 . S
C3071 C3072 1.400 . S
C3071 C3076 1.490 . S
C3072 H3062 0.930 . S
C3072 C3071 1.400 . S
C3072 C3075 1.386 . S
H3073 C3089 0.930 . S
H3074 C3090 0.931 . S
C3075 H3063 0.929 . S
C3075 C3069 1.390 . S
C3075 C3072 1.386 . S
C3076 C3071 1.490 . S
C3076 C3078 1.395 . S
C3076 C3079 1.403 . S
H3077 C3083 0.930 . S
C3078 H3064 0.930 . S
C3078 C3076 1.395 . S
C3078 C3081 1.403 . S
C3079 C3076 1.403 . S
C3079 C3080 1.524 . S
C3079 C3083 1.400 . S
C3080 H3065 0.960 . S
C3080 H3066 0.960 . S
C3080 H3067 0.960 . S
C3080 C3079 1.524 . S
C3081 C3078 1.403 . S
C3081 C3082 1.392 . S
C3081 C3085 1.495 . S
C3082 C3081 1.392 . S
C3082 C3083 1.385 . S
C3082 C3084 1.478 . S
C3083 H3077 0.930 . S
C3083 C3079 1.400 . S
C3083 C3082 1.385 . S
C3084 C3082 1.478 . S
C3084 C3086 1.381 . S
C3084 C3090 1.383 . S
C3085 C3081 1.495 . S
C3085 H3091 0.959 . S
C3085 H3092 0.961 . S
C3085 H3093 0.960 . S
C3086 C3084 1.381 . S
C3086 C3087 1.394 . S
C3086 H3094 0.930 . S
C3087 C3086 1.394 . S
C3087 C3088 1.383 . S
C3087 H3095 0.929 . S
C3088 C3087 1.383 . S
C3088 C3089 1.377 . S
C3089 H3073 0.930 . S
C3089 C3088 1.377 . S
C3089 C3090 1.379 . S
C3090 H3074 0.931 . S
C3090 C3084 1.383 . S
C3090 C3089 1.379 . S
H3091 C3085 0.959 . S
H3092 C3085 0.961 . S
H3093 C3085 0.960 . S
H3094 C3086 0.930 . S
H3095 C3087 0.929 . S
H3096 C3104 0.929 . S
H3097 C3106 0.930 . S
H3098 C3108 0.930 . S
H3099 C3111 0.929 . S
H3100 C3114 0.930 . S
H3101 C3116 0.960 . S
H3102 C3116 0.960 . S
H3103 C3116 0.960 . S
C3104 H3096 0.929 . S
C3104 C3105 1.377 . S
C3104 C3106 1.384 . S
C3105 C3104 1.377 . S
C3105 C3111 1.390 . S
C3106 H3097 0.930 . S
C3106 C3104 1.384 . S
C3106 C3107 1.372 . S
C3107 C3106 1.372 . S
C3107 C3108 1.400 . S
C3107 C3112 1.490 . S
C3108 H3098 0.930 . S
C3108 C3107 1.400 . S
C3108 C3111 1.386 . S
H3109 C3125 0.930 . S
H3110 C3126 0.931 . S
C3111 H3099 0.929 . S
C3111 C3105 1.390 . S
C3111 C3108 1.386 . S
C3112 C3107 1.490 . S
C3112 C3114 1.395 . S
C3112 C3115 1.403 . S
H3113 C3119 0.930 . S
C3114 H3100 0.930 . S
C3114 C3112 1.395 . S
C3114 C3117 1.403 . S
C3115 C3112 1.403 . S
C3115 C3116 1.524 . S
C3115 C3119 1.400 . S
C3116 H3101 0.960 . S
C3116 H3102 0.960 . S
C3116 H3103 0.960 . S
C3116 C3115 1.524 . S
C3117 C3114 1.403 . S
C3117 C3118 1.392 . S
C3117 C3121 1.495 . S
C3118 C3117 1.392 . S
C3118 C3119 1.385 . S
C3118 C3120 1.478 . S
C3119 H3113 0.930 . S
C3119 C3115 1.400 . S
C3119 C3118 1.385 . S
C3120 C3118 1.478 . S
C3120 C3122 1.381 . S
C3120 C3126 1.383 . S
C3121 C3117 1.495 . S
C3121 H3127 0.959 . S
C3121 H3128 0.961 . S
C3121 H3129 0.960 . S
C3122 C3120 1.381 . S
C3122 C3123 1.394 . S
C3122 H3130 0.930 . S
C3123 C3122 1.394 . S
C3123 C3124 1.383 . S
C3123 H3131 0.929 . S
C3124 C3123 1.383 . S
C3124 C3125 1.377 . S
C3125 H3109 0.930 . S
C3125 C3124 1.377 . S
C3125 C3126 1.379 . S
C3126 H3110 0.931 . S
C3126 C3120 1.383 . S
C3126 C3125 1.379 . S
H3127 C3121 0.959 . S
H3128 C3121 0.961 . S
H3129 C3121 0.960 . S
H3130 C3122 0.930 . S
H3131 C3123 0.929 . S
H3132 C3140 0.929 . S
H3133 C3142 0.930 . S
H3134 C3144 0.930 . S
H3135 C3147 0.929 . S
H3136 C3150 0.930 . S
H3137 C3152 0.960 . S
H3138 C3152 0.960 . S
H3139 C3152 0.960 . S
C3140 H3132 0.929 . S
C3140 C3141 1.377 . S
C3140 C3142 1.384 . S
C3141 C3140 1.377 . S
C3141 C3147 1.390 . S
C3142 H3133 0.930 . S
C3142 C3140 1.384 . S
C3142 C3143 1.372 . S
C3143 C3142 1.372 . S
C3143 C3144 1.400 . S
C3143 C3148 1.490 . S
C3144 H3134 0.930 . S
C3144 C3143 1.400 . S
C3144 C3147 1.386 . S
H3145 C3161 0.930 . S
H3146 C3162 0.931 . S
C3147 H3135 0.929 . S
C3147 C3141 1.390 . S
C3147 C3144 1.386 . S
C3148 C3143 1.490 . S
C3148 C3150 1.395 . S
C3148 C3151 1.403 . S
H3149 C3155 0.930 . S
C3150 H3136 0.930 . S
C3150 C3148 1.395 . S
C3150 C3153 1.403 . S
C3151 C3148 1.403 . S
C3151 C3152 1.524 . S
C3151 C3155 1.400 . S
C3152 H3137 0.960 . S
C3152 H3138 0.960 . S
C3152 H3139 0.960 . S
C3152 C3151 1.524 . S
C3153 C3150 1.403 . S
C3153 C3154 1.392 . S
C3153 C3157 1.495 . S
C3154 C3153 1.392 . S
C3154 C3155 1.385 . S
C3154 C3156 1.478 . S
C3155 H3149 0.930 . S
C3155 C3151 1.400 . S
C3155 C3154 1.385 . S
C3156 C3154 1.478 . S
C3156 C3158 1.381 . S
C3156 C3162 1.383 . S
C3157 C3153 1.495 . S
C3157 H3163 0.959 . S
C3157 H3164 0.961 . S
C3157 H3165 0.960 . S
C3158 C3156 1.381 . S
C3158 C3159 1.394 . S
C3158 H3166 0.930 . S
C3159 C3158 1.394 . S
C3159 C3160 1.383 . S
C3159 H3167 0.929 . S
C3160 C3159 1.383 . S
C3160 C3161 1.377 . S
C3161 H3145 0.930 . S
C3161 C3160 1.377 . S
C3161 C3162 1.379 . S
C3162 H3146 0.931 . S
C3162 C3156 1.383 . S
C3162 C3161 1.379 . S
H3163 C3157 0.959 . S
H3164 C3157 0.961 . S
H3165 C3157 0.960 . S
H3166 C3158 0.930 . S
H3167 C3159 0.929 . S
H3168 C3176 0.929 . S
H3169 C3178 0.930 . S
H3170 C3180 0.930 . S
H3171 C3183 0.929 . S
H3172 C3186 0.930 . S
H3173 C3188 0.960 . S
H3174 C3188 0.960 . S
H3175 C3188 0.960 . S
C3176 H3168 0.929 . S
C3176 C3177 1.377 . S
C3176 C3178 1.384 . S
C3177 C3176 1.377 . S
C3177 C3183 1.390 . S
C3178 H3169 0.930 . S
C3178 C3176 1.384 . S
C3178 C3179 1.372 . S
C3179 C3178 1.372 . S
C3179 C3180 1.400 . S
C3179 C3184 1.490 . S
C3180 H3170 0.930 . S
C3180 C3179 1.400 . S
C3180 C3183 1.386 . S
H3181 C3197 0.930 . S
H3182 C3198 0.931 . S
C3183 H3171 0.929 . S
C3183 C3177 1.390 . S
C3183 C3180 1.386 . S
C3184 C3179 1.490 . S
C3184 C3186 1.395 . S
C3184 C3187 1.403 . S
H3185 C3191 0.930 . S
C3186 H3172 0.930 . S
C3186 C3184 1.395 . S
C3186 C3189 1.403 1_554 S
C3187 C3184 1.403 . S
C3187 C3188 1.524 . S
C3187 C3191 1.400 . S
C3188 H3173 0.960 . S
C3188 H3174 0.960 . S
C3188 H3175 0.960 . S
C3188 C3187 1.524 . S
C3189 C3186 1.403 1_556 S
C3189 C3190 1.392 . S
C3189 C3193 1.495 . S
C3190 C3189 1.392 . S
C3190 C3191 1.385 1_556 S
C3190 C3192 1.478 . S
C3191 H3185 0.930 . S
C3191 C3187 1.400 . S
C3191 C3190 1.385 1_554 S
C3192 C3190 1.478 . S
C3192 C3194 1.381 . S
C3192 C3198 1.383 . S
C3193 C3189 1.495 . S
C3193 H3199 0.959 . S
C3193 H3200 0.961 . S
C3193 H3201 0.960 . S
C3194 C3192 1.381 . S
C3194 C3195 1.394 . S
C3194 H3202 0.930 . S
C3195 C3194 1.394 . S
C3195 C3196 1.383 . S
C3195 H3203 0.929 . S
C3196 C3195 1.383 . S
C3196 C3197 1.377 . S
C3197 H3181 0.930 . S
C3197 C3196 1.377 . S
C3197 C3198 1.379 . S
C3198 H3182 0.931 . S
C3198 C3192 1.383 . S
C3198 C3197 1.379 . S
H3199 C3193 0.959 . S
H3200 C3193 0.961 . S
H3201 C3193 0.960 . S
H3202 C3194 0.930 . S
H3203 C3195 0.929 . S
H3204 C3212 0.929 . S
H3205 C3214 0.930 . S
H3206 C3216 0.930 . S
H3207 C3219 0.929 . S
H3208 C3222 0.930 . S
H3209 C3224 0.960 . S
H3210 C3224 0.960 . S
H3211 C3224 0.960 . S
C3212 H3204 0.929 . S
C3212 C3213 1.377 . S
C3212 C3214 1.384 . S
C3213 C3212 1.377 . S
C3213 C3219 1.390 . S
C3214 H3205 0.930 . S
C3214 C3212 1.384 . S
C3214 C3215 1.372 . S
C3215 C3214 1.372 . S
C3215 C3216 1.400 . S
C3215 C3220 1.490 . S
C3216 H3206 0.930 . S
C3216 C3215 1.400 . S
C3216 C3219 1.386 . S
H3217 C3233 0.930 . S
H3218 C3234 0.931 . S
C3219 H3207 0.929 . S
C3219 C3213 1.390 . S
C3219 C3216 1.386 . S
C3220 C3215 1.490 . S
C3220 C3222 1.395 . S
C3220 C3223 1.403 . S
H3221 C3227 0.930 . S
C3222 H3208 0.930 . S
C3222 C3220 1.395 . S
C3222 C3225 1.403 . S
C3223 C3220 1.403 . S
C3223 C3224 1.524 . S
C3223 C3227 1.400 . S
C3224 H3209 0.960 . S
C3224 H3210 0.960 . S
C3224 H3211 0.960 . S
C3224 C3223 1.524 . S
C3225 C3222 1.403 . S
C3225 C3226 1.392 . S
C3225 C3229 1.495 . S
C3226 C3225 1.392 . S
C3226 C3227 1.385 . S
C3226 C3228 1.478 . S
C3227 H3221 0.930 . S
C3227 C3223 1.400 . S
C3227 C3226 1.385 . S
C3228 C3226 1.478 . S
C3228 C3230 1.381 . S
C3228 C3234 1.383 . S
C3229 C3225 1.495 . S
C3229 H3235 0.959 . S
C3229 H3236 0.961 . S
C3229 H3237 0.960 . S
C3230 C3228 1.381 . S
C3230 C3231 1.394 . S
C3230 H3238 0.930 . S
C3231 C3230 1.394 . S
C3231 C3232 1.383 . S
C3231 H3239 0.929 . S
C3232 C3231 1.383 . S
C3232 C3233 1.377 . S
C3233 H3217 0.930 . S
C3233 C3232 1.377 . S
C3233 C3234 1.379 . S
C3234 H3218 0.931 . S
C3234 C3228 1.383 . S
C3234 C3233 1.379 . S
H3235 C3229 0.959 . S
H3236 C3229 0.961 . S
H3237 C3229 0.960 . S
H3238 C3230 0.930 . S
H3239 C3231 0.929 . S
H3240 C3248 0.929 . S
H3241 C3250 0.930 . S
H3242 C3252 0.930 . S
H3243 C3255 0.929 . S
H3244 C3258 0.930 . S
H3245 C3260 0.960 . S
H3246 C3260 0.960 . S
H3247 C3260 0.960 . S
C3248 H3240 0.929 . S
C3248 C3249 1.377 . S
C3248 C3250 1.384 . S
C3249 C3248 1.377 . S
C3249 C3255 1.390 . S
C3250 H3241 0.930 . S
C3250 C3248 1.384 . S
C3250 C3251 1.372 . S
C3251 C3250 1.372 . S
C3251 C3252 1.400 . S
C3251 C3256 1.490 . S
C3252 H3242 0.930 . S
C3252 C3251 1.400 . S
C3252 C3255 1.386 . S
H3253 C3269 0.930 . S
H3254 C3270 0.931 . S
C3255 H3243 0.929 . S
C3255 C3249 1.390 . S
C3255 C3252 1.386 . S
C3256 C3251 1.490 . S
C3256 C3258 1.395 . S
C3256 C3259 1.403 . S
H3257 C3263 0.930 . S
C3258 H3244 0.930 . S
C3258 C3256 1.395 . S
C3258 C3261 1.403 . S
C3259 C3256 1.403 . S
C3259 C3260 1.524 . S
C3259 C3263 1.400 . S
C3260 H3245 0.960 . S
C3260 H3246 0.960 . S
C3260 H3247 0.960 . S
C3260 C3259 1.524 . S
C3261 C3258 1.403 . S
C3261 C3262 1.392 . S
C3261 C3265 1.495 . S
C3262 C3261 1.392 . S
C3262 C3263 1.385 . S
C3262 C3264 1.478 . S
C3263 H3257 0.930 . S
C3263 C3259 1.400 . S
C3263 C3262 1.385 . S
C3264 C3262 1.478 . S
C3264 C3266 1.381 . S
C3264 C3270 1.383 . S
C3265 C3261 1.495 . S
C3265 H3271 0.959 . S
C3265 H3272 0.961 . S
C3265 H3273 0.960 . S
C3266 C3264 1.381 . S
C3266 C3267 1.394 . S
C3266 H3274 0.930 . S
C3267 C3266 1.394 . S
C3267 C3268 1.383 . S
C3267 H3275 0.929 . S
C3268 C3267 1.383 . S
C3268 C3269 1.377 . S
C3269 H3253 0.930 . S
C3269 C3268 1.377 . S
C3269 C3270 1.379 . S
C3270 H3254 0.931 . S
C3270 C3264 1.383 . S
C3270 C3269 1.379 . S
H3271 C3265 0.959 . S
H3272 C3265 0.961 . S
H3273 C3265 0.960 . S
H3274 C3266 0.930 . S
H3275 C3267 0.929 . S
H3276 C3284 0.929 . S
H3277 C3286 0.930 . S
H3278 C3288 0.930 . S
H3279 C3291 0.929 . S
H3280 C3294 0.930 . S
H3281 C3296 0.960 . S
H3282 C3296 0.960 . S
H3283 C3296 0.960 . S
C3284 H3276 0.929 . S
C3284 C3285 1.377 . S
C3284 C3286 1.384 . S
C3285 C3284 1.377 . S
C3285 C3291 1.390 . S
C3286 H3277 0.930 . S
C3286 C3284 1.384 . S
C3286 C3287 1.372 . S
C3287 C3286 1.372 . S
C3287 C3288 1.400 . S
C3287 C3292 1.490 . S
C3288 H3278 0.930 . S
C3288 C3287 1.400 . S
C3288 C3291 1.386 . S
H3289 C3305 0.930 . S
H3290 C3306 0.931 . S
C3291 H3279 0.929 . S
C3291 C3285 1.390 . S
C3291 C3288 1.386 . S
C3292 C3287 1.490 . S
C3292 C3294 1.395 . S
C3292 C3295 1.403 . S
H3293 C3299 0.930 . S
C3294 H3280 0.930 . S
C3294 C3292 1.395 . S
C3294 C3297 1.403 . S
C3295 C3292 1.403 . S
C3295 C3296 1.524 . S
C3295 C3299 1.400 . S
C3296 H3281 0.960 . S
C3296 H3282 0.960 . S
C3296 H3283 0.960 . S
C3296 C3295 1.524 . S
C3297 C3294 1.403 . S
C3297 C3298 1.392 . S
C3297 C3301 1.495 . S
C3298 C3297 1.392 . S
C3298 C3299 1.385 . S
C3298 C3300 1.478 . S
C3299 H3293 0.930 . S
C3299 C3295 1.400 . S
C3299 C3298 1.385 . S
C3300 C3298 1.478 . S
C3300 C3302 1.381 . S
C3300 C3306 1.383 . S
C3301 C3297 1.495 . S
C3301 H3307 0.959 . S
C3301 H3308 0.961 . S
C3301 H3309 0.960 . S
C3302 C3300 1.381 . S
C3302 C3303 1.394 . S
C3302 H3310 0.930 . S
C3303 C3302 1.394 . S
C3303 C3304 1.383 . S
C3303 H3311 0.929 . S
C3304 C3303 1.383 . S
C3304 C3305 1.377 . S
C3305 H3289 0.930 . S
C3305 C3304 1.377 . S
C3305 C3306 1.379 . S
C3306 H3290 0.931 . S
C3306 C3300 1.383 . S
C3306 C3305 1.379 . S
H3307 C3301 0.959 . S
H3308 C3301 0.961 . S
H3309 C3301 0.960 . S
H3310 C3302 0.930 . S
H3311 C3303 0.929 . S
H3312 C3320 0.929 . S
H3313 C3322 0.930 1_556 S
H3314 C3324 0.930 . S
H3315 C3327 0.929 . S
H3316 C3330 0.930 . S
H3317 C3332 0.960 1_556 S
H3318 C3332 0.960 1_556 S
H3319 C3332 0.960 . S
C3320 H3312 0.929 . S
C3320 C3321 1.377 . S
C3320 C3322 1.384 . S
C3321 C3320 1.377 . S
C3321 C3327 1.390 . S
C3322 H3313 0.930 1_554 S
C3322 C3320 1.384 . S
C3322 C3323 1.372 . S
C3323 C3322 1.372 . S
C3323 C3324 1.400 . S
C3323 C3328 1.514 . S
C3324 H3314 0.930 . S
C3324 C3323 1.400 . S
C3324 C3327 1.386 . S
H3325 C3341 0.930 . S
H3326 C3342 0.931 . S
C3327 H3315 0.929 . S
C3327 C3321 1.390 . S
C3327 C3324 1.386 . S
C3328 C3323 1.514 . S
C3328 C3330 1.381 1_554 S
C3328 C3331 1.394 1_554 S
H3329 C3335 0.930 . S
C3330 H3316 0.930 . S
C3330 C3328 1.381 1_556 S
C3330 C3333 1.403 . S
C3331 C3328 1.394 1_556 S
C3331 C3332 1.524 1_556 S
C3331 C3335 1.400 . S
C3332 H3317 0.960 1_554 S
C3332 H3318 0.960 1_554 S
C3332 H3319 0.960 . S
C3332 C3331 1.524 1_554 S
C3333 C3330 1.403 . S
C3333 C3334 1.392 . S
C3333 C3337 1.495 . S
C3334 C3333 1.392 . S
C3334 C3335 1.385 . S
C3334 C3336 1.478 . S
C3335 H3329 0.930 . S
C3335 C3331 1.400 . S
C3335 C3334 1.385 . S
C3336 C3334 1.478 . S
C3336 C3338 1.381 . S
C3336 C3342 1.383 . S
C3337 C3333 1.495 . S
C3337 H3343 0.959 . S
C3337 H3344 0.961 . S
C3337 H3345 0.960 . S
C3338 C3336 1.381 . S
C3338 C3339 1.394 . S
C3338 H3346 0.930 . S
C3339 C3338 1.394 . S
C3339 C3340 1.383 . S
C3339 H3347 0.929 . S
C3340 C3339 1.383 . S
C3340 C3341 1.377 . S
C3341 H3325 0.930 . S
C3341 C3340 1.377 . S
C3341 C3342 1.379 . S
C3342 H3326 0.931 . S
C3342 C3336 1.383 . S
C3342 C3341 1.379 . S
H3343 C3337 0.959 . S
H3344 C3337 0.961 . S
H3345 C3337 0.960 . S
H3346 C3338 0.930 . S
H3347 C3339 0.929 . S
H3348 C3356 0.929 . S
H3349 C3358 0.930 . S
H3350 C3360 0.930 . S
H3351 C3363 0.929 . S
H3352 C3366 0.930 . S
H3353 C3368 0.960 . S
H3354 C3368 0.960 . S
H3355 C3368 0.960 . S
C3356 H3348 0.929 . S
C3356 C3357 1.377 . S
C3356 C3358 1.384 . S
C3357 C3356 1.377 . S
C3357 C3363 1.390 . S
C3358 H3349 0.930 . S
C3358 C3356 1.384 . S
C3358 C3359 1.372 . S
C3359 C3358 1.372 . S
C3359 C3360 1.400 . S
C3359 C3364 1.490 . S
C3360 H3350 0.930 . S
C3360 C3359 1.400 . S
C3360 C3363 1.386 . S
H3361 C3377 0.930 . S
H3362 C3378 0.931 . S
C3363 H3351 0.929 . S
C3363 C3357 1.390 . S
C3363 C3360 1.386 . S
C3364 C3359 1.490 . S
C3364 C3366 1.395 . S
C3364 C3367 1.403 . S
H3365 C3371 0.930 . S
C3366 H3352 0.930 . S
C3366 C3364 1.395 . S
C3366 C3369 1.403 . S
C3367 C3364 1.403 . S
C3367 C3368 1.524 . S
C3367 C3371 1.400 . S
C3368 H3353 0.960 . S
C3368 H3354 0.960 . S
C3368 H3355 0.960 . S
C3368 C3367 1.524 . S
C3369 C3366 1.403 . S
C3369 C3370 1.392 . S
C3369 C3373 1.495 . S
C3370 C3369 1.392 . S
C3370 C3371 1.385 . S
C3370 C3372 1.478 . S
C3371 H3365 0.930 . S
C3371 C3367 1.400 . S
C3371 C3370 1.385 . S
C3372 C3370 1.478 . S
C3372 C3374 1.381 . S
C3372 C3378 1.383 . S
C3373 C3369 1.495 . S
C3373 H3379 0.959 . S
C3373 H3380 0.961 . S
C3373 H3381 0.960 . S
C3374 C3372 1.381 . S
C3374 C3375 1.394 . S
C3374 H3382 0.930 . S
C3375 C3374 1.394 . S
C3375 C3376 1.383 . S
C3375 H3383 0.929 . S
C3376 C3375 1.383 . S
C3376 C3377 1.377 . S
C3377 H3361 0.930 . S
C3377 C3376 1.377 . S
C3377 C3378 1.379 . S
C3378 H3362 0.931 . S
C3378 C3372 1.383 . S
C3378 C3377 1.379 . S
H3379 C3373 0.959 . S
H3380 C3373 0.961 . S
H3381 C3373 0.960 . S
H3382 C3374 0.930 . S
H3383 C3375 0.929 . S
H3384 C3392 0.929 . S
H3385 C3394 0.930 . S
H3386 C3396 0.930 . S
H3387 C3399 0.929 . S
H3388 C3402 0.930 . S
H3389 C3404 0.960 . S
H3390 C3404 0.960 . S
H3391 C3404 0.960 . S
C3392 H3384 0.929 . S
C3392 C3393 1.377 . S
C3392 C3394 1.384 . S
C3393 C3392 1.377 . S
C3393 C3399 1.390 . S
C3394 H3385 0.930 . S
C3394 C3392 1.384 . S
C3394 C3395 1.372 . S
C3395 C3394 1.372 . S
C3395 C3396 1.400 . S
C3395 C3400 1.490 . S
C3396 H3386 0.930 . S
C3396 C3395 1.400 . S
C3396 C3399 1.386 . S
H3397 C3413 0.930 . S
H3398 C3414 0.931 . S
C3399 H3387 0.929 . S
C3399 C3393 1.390 . S
C3399 C3396 1.386 . S
C3400 C3395 1.490 . S
C3400 C3402 1.395 . S
C3400 C3403 1.403 . S
H3401 C3407 0.930 . S
C3402 H3388 0.930 . S
C3402 C3400 1.395 . S
C3402 C3405 1.403 . S
C3403 C3400 1.403 . S
C3403 C3404 1.524 . S
C3403 C3407 1.400 . S
C3404 H3389 0.960 . S
C3404 H3390 0.960 . S
C3404 H3391 0.960 . S
C3404 C3403 1.524 . S
C3405 C3402 1.403 . S
C3405 C3406 1.392 . S
C3405 C3409 1.495 . S
C3406 C3405 1.392 . S
C3406 C3407 1.385 . S
C3406 C3408 1.478 . S
C3407 H3401 0.930 . S
C3407 C3403 1.400 . S
C3407 C3406 1.385 . S
C3408 C3406 1.478 . S
C3408 C3410 1.381 . S
C3408 C3414 1.383 . S
C3409 C3405 1.495 . S
C3409 H3415 0.959 . S
C3409 H3416 0.961 . S
C3409 H3417 0.960 . S
C3410 C3408 1.381 . S
C3410 C3411 1.394 . S
C3410 H3418 0.930 . S
C3411 C3410 1.394 . S
C3411 C3412 1.383 . S
C3411 H3419 0.929 . S
C3412 C3411 1.383 . S
C3412 C3413 1.377 . S
C3413 H3397 0.930 . S
C3413 C3412 1.377 . S
C3413 C3414 1.379 . S
C3414 H3398 0.931 . S
C3414 C3408 1.383 . S
C3414 C3413 1.379 . S
H3415 C3409 0.959 . S
H3416 C3409 0.961 . S
H3417 C3409 0.960 . S
H3418 C3410 0.930 . S
H3419 C3411 0.929 . S
H3420 C3428 0.929 . S
H3421 C3430 0.930 . S
H3422 C3432 0.930 . S
H3423 C3435 0.929 . S
H3424 C3438 0.930 . S
H3425 C3440 0.960 . S
H3426 C3440 0.960 . S
H3427 C3440 0.960 . S
C3428 H3420 0.929 . S
C3428 C3429 1.377 . S
C3428 C3430 1.384 . S
C3429 C3428 1.377 . S
C3429 C3435 1.390 . S
C3430 H3421 0.930 . S
C3430 C3428 1.384 . S
C3430 C3431 1.372 . S
C3431 C3430 1.372 . S
C3431 C3432 1.400 . S
C3431 C3436 1.490 . S
C3432 H3422 0.930 . S
C3432 C3431 1.400 . S
C3432 C3435 1.386 . S
H3433 C3449 0.930 . S
H3434 C3450 0.931 . S
C3435 H3423 0.929 . S
C3435 C3429 1.390 . S
C3435 C3432 1.386 . S
C3436 C3431 1.490 . S
C3436 C3438 1.395 . S
C3436 C3439 1.403 . S
H3437 C3443 0.930 . S
C3438 H3424 0.930 . S
C3438 C3436 1.395 . S
C3438 C3441 1.403 . S
C3439 C3436 1.403 . S
C3439 C3440 1.524 . S
C3439 C3443 1.400 . S
C3440 H3425 0.960 . S
C3440 H3426 0.960 . S
C3440 H3427 0.960 . S
C3440 C3439 1.524 . S
C3441 C3438 1.403 . S
C3441 C3442 1.392 . S
C3441 C3445 1.495 . S
C3442 C3441 1.392 . S
C3442 C3443 1.385 . S
C3442 C3444 1.478 . S
C3443 H3437 0.930 . S
C3443 C3439 1.400 . S
C3443 C3442 1.385 . S
C3444 C3442 1.478 . S
C3444 C3446 1.381 . S
C3444 C3450 1.383 . S
C3445 C3441 1.495 . S
C3445 H3451 0.959 . S
C3445 H3452 0.961 . S
C3445 H3453 0.960 . S
C3446 C3444 1.381 . S
C3446 C3447 1.394 . S
C3446 H3454 0.930 . S
C3447 C3446 1.394 . S
C3447 C3448 1.383 . S
C3447 H3455 0.929 . S
C3448 C3447 1.383 . S
C3448 C3449 1.377 . S
C3449 H3433 0.930 . S
C3449 C3448 1.377 . S
C3449 C3450 1.379 . S
C3450 H3434 0.931 . S
C3450 C3444 1.383 . S
C3450 C3449 1.379 . S
H3451 C3445 0.959 . S
H3452 C3445 0.961 . S
H3453 C3445 0.960 . S
H3454 C3446 0.930 . S
H3455 C3447 0.929 . S
C1161 C2 0.441 . S
C1180 C470 0.447 . S
C1197 C902 1.079 . S
C1216 C38 1.080 . S
C1233 C74 1.264 . S
C1252 C542 1.270 . S
C1269 C110 1.611 . S
C1288 C866 1.615 . S
C1305 C146 1.450 . S
C1324 C614 1.438 . S
C1341 C182 1.286 . S
C1360 C794 1.280 . S
C1377 C218 1.241 . S
C1396 C686 1.234 . S
C1413 C1118 0.461 . S
C1432 C254 0.468 . S
C1449 C758 1.447 . S
C1468 C290 1.443 . S
C1485 C326 1.286 . S
C1504 C650 1.276 . S
C1521 C830 1.240 . S
C1540 C362 1.237 . S
C1557 C398 1.612 . S
C1576 C578 1.616 . S
C1593 C506 1.079 . S
C1612 C434 1.079 . S
C1629 C722 0.461 . S
C1648 C1010 0.468 . S
C1665 C1046 0.440 . S
C1684 C938 0.428 . S
C1701 C1082 1.267 . S
C1720 C974 1.256 . S
C1737 C14 1.357 . S
C1756 C39 1.454 . S
C1773 C76 1.315 . S
C1792 C40 1.314 . S
C1809 C122 1.518 . S
C1828 C86 1.522 . S
C1845 C111 1.374 . S
C1864 C4 1.375 . S
C1881 C266 1.331 . S
C1900 C147 1.437 . S
C1917 C183 1.517 . S
C1936 C158 1.406 . S
C1953 C230 1.702 . S
C1972 C194 1.699 . S
C1989 C220 1.625 . S
C2008 C255 1.627 . S
C2025 C328 1.849 . S
C2044 C3 1.850 . S
C2061 C292 1.324 . S
C2080 C112 1.301 . S
C2097 C363 1.320 . S
C2116 C50 1.196 . S
C2133 C975 1.662 . S
C2152 C256 1.646 . S
C2169 C1012 1.647 . S
C2188 C75 1.646 . S
C2205 C400 1.317 . S
C2224 C148 1.338 . S
C2241 C219 1.326 . S
C2260 C446 1.278 . S
C2277 C508 1.636 . S
C2296 C472 1.639 . S
C2313 C554 1.594 . S
C2332 C507 1.698 . S
C2349 C580 1.461 . S
C2368 C544 1.477 . S
C2385 C482 1.639 . S
C2404 C579 1.724 . S
C2421 C616 1.601 . S
C2440 C723 1.612 . S
C2457 C626 1.283 . S
C2476 C662 1.285 . S
C2493 C687 1.112 . S
C2512 C651 1.114 . S
C2529 C688 1.464 . S
C2548 C734 1.342 . S
C2565 C471 1.451 . S
C2584 C796 1.436 . S
C2601 C759 1.642 . S
C2620 C590 1.525 . S
C2637 C842 1.553 . S
C2656 C518 1.564 . S
C2673 C1083 1.759 . S
C2692 C724 1.749 . S
C2709 C1120 1.742 . S
C2728 C543 1.761 . S
C2745 C615 1.642 . S
C2764 C878 1.525 . S
C2781 C914 1.549 . S
C2800 C698 1.564 . S
C2817 C435 1.468 . S
C2836 C950 1.388 . S
C2853 C976 1.315 . S
C2872 C436 1.305 . S
C2889 C410 1.524 . S
C2908 C986 1.450 . S
C2925 C399 1.369 . S
C2944 C940 1.338 . S
C2961 C291 1.439 . S
C2980 C1022 1.337 . S
C2997 C327 1.515 . S
C3016 C302 1.397 . S
C3033 C374 1.695 . S
C3052 C338 1.686 . S
C3069 C364 1.626 . S
C3088 C1011 1.625 . S
C3105 C939 1.861 . S
C3124 C184 1.858 . S
C3141 C904 1.637 . S
C3160 C1048 1.637 . S
C3177 C903 1.689 . S
C3196 C1094 1.621 . S
C3213 C1084 1.466 . S
C3232 C868 1.470 . S
C3249 C867 1.735 . S
C3268 C1058 1.614 . S
C3285 C1119 1.617 . S
C3304 C760 1.611 . S
C3321 C770 1.277 . S
C3340 C806 1.311 . S
C3357 C831 1.110 . S
C3376 C795 1.120 . S
C3393 C832 1.464 . S
C3412 C1130 1.348 . S
C3429 C1047 1.451 . S
C3448 C652 1.439 . S
