# Generated by pormake.
# Topology wmn, (6)-cn, num edge types: 1
# Building blocks:
#     Node 0, Type 0, BuildingBlock: KUMBOL_clean_sbu_1, # of connection points: 6
#     Node 1, Type 0, BuildingBlock: KUMBOL_clean_sbu_1, # of connection points: 6
#     Node 2, Type 0, BuildingBlock: KUMBOL_clean_sbu_1, # of connection points: 6
#     Node 3, Type 0, BuildingBlock: KUMBOL_clean_sbu_1, # of connection points: 6
#     Node 4, Type 0, BuildingBlock: KUMBOL_clean_sbu_1, # of connection points: 6
#     Node 5, Type 0, BuildingBlock: KUMBOL_clean_sbu_1, # of connection points: 6
#     Node 6, Type 0, BuildingBlock: KUMBOL_clean_sbu_1, # of connection points: 6
#     Node 7, Type 0, BuildingBlock: KUMBOL_clean_sbu_1, # of connection points: 6
#     Node 8, Type 0, BuildingBlock: KUMBOL_clean_sbu_1, # of connection points: 6
#     Node 9, Type 0, BuildingBlock: KUMBOL_clean_sbu_1, # of connection points: 6
#     Node 10, Type 0, BuildingBlock: KUMBOL_clean_sbu_1, # of connection points: 6
#     Node 11, Type 0, BuildingBlock: KUMBOL_clean_sbu_1, # of connection points: 6
#     Edge 12, Type (0, 0), BuildingBlock: AJUNOK_clean_linker_0, # of connection points: 2
#     Edge 13, Type (0, 0), BuildingBlock: AJUNOK_clean_linker_0, # of connection points: 2
#     Edge 14, Type (0, 0), BuildingBlock: AJUNOK_clean_linker_0, # of connection points: 2
#     Edge 15, Type (0, 0), BuildingBlock: AJUNOK_clean_linker_0, # of connection points: 2
#     Edge 16, Type (0, 0), BuildingBlock: AJUNOK_clean_linker_0, # of connection points: 2
#     Edge 17, Type (0, 0), BuildingBlock: AJUNOK_clean_linker_0, # of connection points: 2
#     Edge 18, Type (0, 0), BuildingBlock: AJUNOK_clean_linker_0, # of connection points: 2
#     Edge 19, Type (0, 0), BuildingBlock: AJUNOK_clean_linker_0, # of connection points: 2
#     Edge 20, Type (0, 0), BuildingBlock: AJUNOK_clean_linker_0, # of connection points: 2
#     Edge 21, Type (0, 0), BuildingBlock: AJUNOK_clean_linker_0, # of connection points: 2
#     Edge 22, Type (0, 0), BuildingBlock: AJUNOK_clean_linker_0, # of connection points: 2
#     Edge 23, Type (0, 0), BuildingBlock: AJUNOK_clean_linker_0, # of connection points: 2
#     Edge 24, Type (0, 0), BuildingBlock: AJUNOK_clean_linker_0, # of connection points: 2
#     Edge 25, Type (0, 0), BuildingBlock: AJUNOK_clean_linker_0, # of connection points: 2
#     Edge 26, Type (0, 0), BuildingBlock: AJUNOK_clean_linker_0, # of connection points: 2
#     Edge 27, Type (0, 0), BuildingBlock: AJUNOK_clean_linker_0, # of connection points: 2
#     Edge 28, Type (0, 0), BuildingBlock: AJUNOK_clean_linker_0, # of connection points: 2
#     Edge 29, Type (0, 0), BuildingBlock: AJUNOK_clean_linker_0, # of connection points: 2
#     Edge 30, Type (0, 0), BuildingBlock: AJUNOK_clean_linker_0, # of connection points: 2
#     Edge 31, Type (0, 0), BuildingBlock: AJUNOK_clean_linker_0, # of connection points: 2
#     Edge 32, Type (0, 0), BuildingBlock: AJUNOK_clean_linker_0, # of connection points: 2
#     Edge 33, Type (0, 0), BuildingBlock: AJUNOK_clean_linker_0, # of connection points: 2
#     Edge 34, Type (0, 0), BuildingBlock: AJUNOK_clean_linker_0, # of connection points: 2
#     Edge 35, Type (0, 0), BuildingBlock: AJUNOK_clean_linker_0, # of connection points: 2
#     Edge 36, Type (0, 0), BuildingBlock: AJUNOK_clean_linker_0, # of connection points: 2
#     Edge 37, Type (0, 0), BuildingBlock: AJUNOK_clean_linker_0, # of connection points: 2
#     Edge 38, Type (0, 0), BuildingBlock: AJUNOK_clean_linker_0, # of connection points: 2
#     Edge 39, Type (0, 0), BuildingBlock: AJUNOK_clean_linker_0, # of connection points: 2
#     Edge 40, Type (0, 0), BuildingBlock: AJUNOK_clean_linker_0, # of connection points: 2
#     Edge 41, Type (0, 0), BuildingBlock: AJUNOK_clean_linker_0, # of connection points: 2
#     Edge 42, Type (0, 0), BuildingBlock: AJUNOK_clean_linker_0, # of connection points: 2
#     Edge 43, Type (0, 0), BuildingBlock: AJUNOK_clean_linker_0, # of connection points: 2
#     Edge 44, Type (0, 0), BuildingBlock: AJUNOK_clean_linker_0, # of connection points: 2
#     Edge 45, Type (0, 0), BuildingBlock: AJUNOK_clean_linker_0, # of connection points: 2
#     Edge 46, Type (0, 0), BuildingBlock: AJUNOK_clean_linker_0, # of connection points: 2
#     Edge 47, Type (0, 0), BuildingBlock: AJUNOK_clean_linker_0, # of connection points: 2
# Relax obj value: 0.144
# Max RMSD: 0.311
# Mean RMSD: 0.311
data_MOF--net-wmn--node1-KUMBOL_clean_sbu_1--edge1-AJUNOK_clean_linker_0
_symmetry_space_group_name_H-M    P1
_symmetry_Int_Tables_number       1
_symmetry_cell_setting            triclinic
loop_
_symmetry_equiv_pos_as_xyz
'x, y, z'
_cell_length_a     47.755718
_cell_length_b     47.745397
_cell_length_c     17.364234
_cell_angle_alpha  90.00914
_cell_angle_beta   90.033226
_cell_angle_gamma 119.97559
loop_
_atom_site_label
_atom_site_type_symbol
_atom_site_fract_x
_atom_site_fract_y
_atom_site_fract_z
_atom_type_partial_charge
C0 C 0.07927 0.25371 0.05066 0.0
C1 C 0.08556 0.24303 0.91747 0.0
C2 C 0.09512 0.26413 0.98127 0.0
C3 C 0.05852 0.21193 0.92368 0.0
C4 C 0.05294 0.22197 0.05829 0.0
C5 C 0.0419 0.20156 0.99369 0.0
N6 N 0.09213 0.27321 0.1128 0.0
C7 C 0.08184 0.26131 0.18501 0.0
C8 C 0.04022 0.21086 0.13173 0.0
C9 C 0.05526 0.23042 0.19563 0.0
Gd10 Gd 0.13067 0.40851 0.07971 0.0
Gd11 Gd 0.13678 0.32517 0.09191 0.0
N12 N 0.12195 0.2938 0.97851 0.0
C13 C 0.10456 0.25315 0.85088 0.0
C14 C 0.14165 0.30283 0.91558 0.0
C15 C 0.13312 0.28294 0.85061 0.0
H16 H 0.16399 0.32529 0.91599 0.0
H17 H 0.14892 0.29028 0.80106 0.0
H18 H 0.101 0.40269 0.25966 0.0
H19 H 0.09501 0.27539 0.23447 0.0
H20 H 0.11819 0.43278 0.38144 0.0
H21 H 0.09815 0.23761 0.80077 0.0
H22 H 0.05094 0.19532 0.87544 0.0
H23 H 0.18797 0.45443 0.9501 0.0
H24 H 0.02021 0.18654 0.1401 0.0
H25 H 0.04714 0.22142 0.25317 0.0
H26 H 0.22158 0.5248 0.32442 0.0
H27 H 0.02164 0.17715 0.9983 0.0
H28 H 0.26219 0.53673 0.06733 0.0
H29 H 0.2405 0.50468 0.94809 0.0
N30 N 0.18091 0.45619 0.07045 0.0
C31 C 0.19161 0.47424 0.13588 0.0
C32 C 0.19763 0.46729 1.00317 0.0
C33 C 0.2393 0.51427 0.06887 0.0
C34 C 0.22722 0.49619 1.00153 0.0
C35 C 0.22132 0.5036 0.13696 0.0
H36 H 0.25481 0.5441 0.20734 0.0
N37 N 0.144 0.43516 0.19929 0.0
C38 C 0.1726 0.46354 0.20195 0.0
C39 C 0.16349 0.47022 0.33595 0.0
C40 C 0.18321 0.48167 0.27066 0.0
C41 C 0.12424 0.4244 0.26221 0.0
C42 C 0.13379 0.44161 0.33149 0.0
O43 O 0.11459 0.33489 0.98917 0.0
O44 O 0.08863 0.36051 0.03546 0.0
O45 O 0.09787 0.42707 0.09989 0.0
O46 O 0.12225 0.43608 0.99096 0.0
O47 O 0.17647 0.37338 0.04339 0.0
O48 O 0.15311 0.39761 0.97659 0.0
O49 O 0.16904 0.40639 0.15836 0.0
O50 O 0.14428 0.35358 0.19973 0.0
O51 O 0.18526 0.3318 0.07948 0.0
O52 O 0.15107 0.2956 0.15635 0.0
O53 O 0.09101 0.3689 0.14876 0.0
O54 O 0.10057 0.3265 0.17862 0.0
C55 C 0.08854 0.33705 0.9952 0.0
C56 C 0.17446 0.38775 0.98031 0.0
C57 C 0.10469 0.47304 0.03133 0.0
C58 C 0.07864 0.5066 0.02419 0.0
C59 C 0.13701 0.53146 0.04093 0.0
C60 C 0.13475 0.50116 0.04053 0.0
C61 C 0.10935 0.53421 0.03278 0.0
C62 C 0.0766 0.47588 0.02271 0.0
C63 C 0.10223 0.44071 0.0329 0.0
C64 C 0.21304 0.51061 0.27211 0.0
C65 C 0.23199 0.52157 0.20545 0.0
H66 H 0.17082 0.48343 0.38982 0.0
C67 C 0.16595 0.38402 0.20842 0.0
C68 C 0.08435 0.34238 0.1867 0.0
C69 C 0.1857 0.28258 0.0891 0.0
C70 C 0.22395 0.26433 0.05985 0.0
C71 C 0.16677 0.2294 0.03334 0.0
C72 C 0.1604 0.25292 0.06191 0.0
C73 C 0.19831 0.23497 0.03267 0.0
C74 C 0.21757 0.28838 0.08696 0.0
C75 C 0.17875 0.3069 0.12206 0.0
H76 H 0.1604 0.55302 0.04761 0.0
H77 H 0.15652 0.49972 0.04743 0.0
H78 H 0.11208 0.55814 0.03237 0.0
H79 H 0.05321 0.45424 0.01616 0.0
H80 H 0.14715 0.20666 0.01239 0.0
H81 H 0.13565 0.24768 0.06359 0.0
H82 H 0.20279 0.2164 0.01052 0.0
H83 H 0.23717 0.31115 0.10805 0.0
C84 C 0.78084 0.84657 0.07802 0.0
C85 C 0.79536 0.86672 0.94797 0.0
C86 C 0.77199 0.8516 1.00631 0.0
C87 C 0.82756 0.87501 0.96226 0.0
C88 C 0.81343 0.85651 0.09437 0.0
C89 C 0.83659 0.86988 0.03544 0.0
N90 N 0.75805 0.8348 0.13383 0.0
C91 C 0.76679 0.8354 0.20884 0.0
C92 C 0.82198 0.85431 0.17031 0.0
C93 C 0.79864 0.84439 0.22816 0.0
Gd94 Gd 0.62256 0.72725 0.08215 0.0
Gd95 Gd 0.70459 0.81917 0.09847 0.0
N96 N 0.74073 0.84339 0.99501 0.0
C97 C 0.78585 0.87402 0.87809 0.0
C98 C 0.73164 0.85172 0.92825 0.0
C99 C 0.75395 0.86702 0.86877 0.0
H100 H 0.7071 0.84627 0.92082 0.0
H101 H 0.74661 0.87355 0.81594 0.0
H102 H 0.63191 0.70713 0.26325 0.0
H103 H 0.7491 0.82947 0.25376 0.0
H104 H 0.60209 0.69312 0.38564 0.0
H105 H 0.80308 0.88584 0.83197 0.0
H106 H 0.8458 0.88625 0.91791 0.0
H107 H 0.57611 0.73906 0.9545 0.0
H108 H 0.84674 0.8617 0.18541 0.0
H109 H 0.80529 0.84428 0.28769 0.0
H110 H 0.5059 0.69721 0.32887 0.0
H111 H 0.86169 0.87733 0.04656 0.0
H112 H 0.49193 0.72563 0.07303 0.0
H113 H 0.52446 0.73871 0.95396 0.0
N114 N 0.57423 0.72851 0.07415 0.0
C115 C 0.55613 0.72 0.13964 0.0
C116 C 0.56287 0.73446 1.00762 0.0
C117 C 0.5149 0.72621 0.07401 0.0
C118 C 0.53326 0.73376 1.00675 0.0
C119 C 0.52611 0.71899 0.14141 0.0
H120 H 0.48508 0.70986 0.21238 0.0
N121 N 0.59695 0.71388 0.20259 0.0
C122 C 0.56769 0.71233 0.20547 0.0
C123 C 0.56245 0.69737 0.33988 0.0
C124 C 0.54978 0.70422 0.27449 0.0
C125 C 0.60917 0.70671 0.26584 0.0
C126 C 0.59221 0.69855 0.33544 0.0
O127 O 0.69799 0.78923 0.99251 0.0
O128 O 0.67008 0.736 0.03079 0.0
O129 O 0.60553 0.67609 0.10158 0.0
O130 O 0.59476 0.69117 0.99418 0.0
O131 O 0.65571 0.80733 0.04724 0.0
O132 O 0.63295 0.76027 0.97901 0.0
O133 O 0.6228 0.76688 0.15906 0.0
O134 O 0.67489 0.79126 0.19912 0.0
O135 O 0.70004 0.86179 0.07748 0.0
O136 O 0.71671 0.85535 0.18732 0.0
O137 O 0.66403 0.72835 0.14899 0.0
O138 O 0.70946 0.78027 0.16635 0.0
C139 C 0.69418 0.76003 0.99357 0.0
C140 C 0.64293 0.79145 0.98268 0.0
C141 C 0.55892 0.63673 0.03497 0.0
C142 C 0.52586 0.57724 0.02641 0.0
C143 C 0.50046 0.61025 0.04335 0.0
C144 C 0.53064 0.63841 0.0438 0.0
C145 C 0.49803 0.58002 0.03448 0.0
C146 C 0.55643 0.60601 0.02601 0.0
C147 C 0.59107 0.66671 0.0354 0.0
C148 C 0.51999 0.70341 0.27633 0.0
C149 C 0.50816 0.71069 0.21 0.0
H150 H 0.54943 0.6911 0.39401 0.0
C151 C 0.64565 0.78595 0.20765 0.0
C152 C 0.69322 0.74831 0.17706 0.0
C153 C 0.74041 0.9087 0.13934 0.0
C154 C 0.76103 0.96584 0.11279 0.0
C155 C 0.79814 0.94698 0.14627 0.0
C156 C 0.77224 0.91554 0.15333 0.0
C157 C 0.79265 0.97201 0.12546 0.0
C158 C 0.73491 0.93408 0.11905 0.0
C159 C 0.71314 0.87517 0.14282 0.0
H160 H 0.47876 0.61187 0.04956 0.0
H161 H 0.53181 0.66148 0.05058 0.0
H162 H 0.47419 0.55875 0.03287 0.0
H163 H 0.57821 0.60452 0.01957 0.0
H164 H 0.82255 0.95192 0.15666 0.0
H165 H 0.77727 0.89668 0.16945 0.0
H166 H 0.81302 0.99624 0.11931 0.0
H167 H 0.71058 0.92909 0.10668 0.0
C168 C 0.19232 0.94424 0.07429 0.0
C169 C 0.17298 0.93879 0.94328 0.0
C170 C 0.18746 0.93022 1.00258 0.0
C171 C 0.16492 0.96292 0.95662 0.0
C172 C 0.18279 0.96729 0.08939 0.0
C173 C 0.1698 0.97714 0.02966 0.0
N174 N 0.20375 0.93322 0.13105 0.0
C175 C 0.20421 0.94258 0.20562 0.0
C176 C 0.18513 0.97852 0.16487 0.0
C177 C 0.19547 0.96577 0.2235 0.0
Gd178 Gd 0.30635 0.89831 0.08267 0.0
Gd179 Gd 0.21709 0.89357 0.09771 0.0
N180 N 0.19485 0.90653 0.99244 0.0
C181 C 0.16579 0.92187 0.87357 0.0
C182 C 0.18651 0.88891 0.92603 0.0
C183 C 0.17217 0.89649 0.8654 0.0
H184 H 0.19093 0.869 0.92007 0.0
H185 H 0.16563 0.88247 0.81299 0.0
H186 H 0.32448 0.92005 0.268 0.0
H187 H 0.21174 0.93237 0.25128 0.0
H188 H 0.3348 0.89808 0.38648 0.0
H189 H 0.15432 0.92745 0.82692 0.0
H190 H 0.15407 0.97009 0.91157 0.0
H191 H 0.29589 0.84503 0.94016 0.0
H192 H 0.17787 0.99609 0.17877 0.0
H193 H 0.19648 0.97358 0.28247 0.0
H194 H 0.32227 0.79606 0.30823 0.0
H195 H 0.16261 0.99505 0.0399 0.0
H196 H 0.29791 0.76498 0.04379 0.0
H197 H 0.29145 0.7917 0.92876 0.0
N198 N 0.30165 0.84748 0.0623 0.0
C199 C 0.30718 0.83406 0.1257 0.0
C200 C 0.2973 0.8332 0.99173 0.0
C201 C 0.29924 0.78821 0.04966 0.0
C202 C 0.29541 0.80314 0.98463 0.0
C203 C 0.30568 0.80382 0.12107 0.0
H204 H 0.30981 0.76703 0.18482 0.0
N205 N 0.31569 0.87968 0.19916 0.0
C206 C 0.31474 0.8507 0.19567 0.0
C207 C 0.32739 0.85444 0.33145 0.0
C208 C 0.3202 0.83716 0.26218 0.0
C209 C 0.32329 0.89692 0.26607 0.0
C210 C 0.32913 0.88451 0.33325 0.0
O211 O 0.24834 0.91535 0.99316 0.0
O212 O 0.30127 0.93981 0.0324 0.0
O213 O 0.35735 0.92393 0.11388 0.0
O214 O 0.3439 0.90958 0.99635 0.0
O215 O 0.22633 0.85453 0.04789 0.0
O216 O 0.27319 0.87713 0.97912 0.0
O217 O 0.26538 0.86066 0.16039 0.0
O218 O 0.24314 0.8904 0.20047 0.0
O219 O 0.17281 0.84789 0.07759 0.0
O220 O 0.18085 0.87159 0.18744 0.0
O221 O 0.30732 0.93904 0.15294 0.0
O222 O 0.25732 0.93748 0.16073 0.0
C223 C 0.27739 0.94079 0.99634 0.0
C224 C 0.24189 0.85658 0.98349 0.0
C225 C 0.39499 0.95701 0.01966 0.0
C226 C 0.45346 0.99493 1.00285 0.0
C227 C 0.41402 1.01206 0.97722 0.0
C228 C 0.38869 0.98146 0.9967 0.0
C229 C 0.44603 0.01878 0.98031 0.0
C230 C 0.42751 0.96383 0.02265 0.0
C231 C 0.36783 0.9251 0.04434 0.0
C232 C 0.3182 0.80686 0.25767 0.0
C233 C 0.31101 0.79028 0.18739 0.0
H234 H 0.33172 0.84482 0.38378 0.0
C235 C 0.24741 0.86584 0.20961 0.0
C236 C 0.28877 0.9509 0.17596 0.0
C237 C 0.12722 0.84378 0.14057 0.0
C238 C 0.06932 0.80833 0.1186 0.0
C239 C 0.09079 0.86536 0.14733 0.0
C240 C 0.12187 0.86984 0.15233 0.0
C241 C 0.06472 0.83488 0.13058 0.0
C242 C 0.10084 0.81301 0.12432 0.0
C243 C 0.16017 0.84852 0.14333 0.0
H244 H 0.40881 0.03075 0.95972 0.0
H245 H 0.36413 0.97694 0.99434 0.0
H246 H 0.46507 0.04272 0.96417 0.0
H247 H 0.43258 0.94521 0.0418 0.0
H248 H 0.08687 0.88555 0.15677 0.0
H249 H 0.14154 0.89365 0.16582 0.0
H250 H 0.04091 0.83205 0.12778 0.0
H251 H 0.10491 0.79279 0.11689 0.0
C252 C 0.26214 0.07732 0.41529 0.0
C253 C 0.24141 0.06619 0.54569 0.0
C254 C 0.26708 0.0831 0.4935 0.0
C255 C 0.21131 0.04189 0.5181 0.0
C256 C 0.23146 0.05446 0.38677 0.0
C257 C 0.20633 0.03605 0.43873 0.0
N258 N 0.28674 0.09582 0.36678 0.0
C259 C 0.28198 0.09425 0.28901 0.0
C260 C 0.22664 0.05176 0.30693 0.0
C261 C 0.25189 0.07206 0.25782 0.0
Gd262 Gd 0.4208 0.12658 0.43193 0.0
Gd263 Gd 0.33649 0.13188 0.42301 0.0
N264 N 0.29626 0.10711 0.51784 0.0
C265 C 0.24635 0.07531 0.62336 0.0
C266 C 0.30057 0.11754 0.59252 0.0
C267 C 0.27581 0.10163 0.6465 0.0
H268 H 0.32343 0.13784 0.61053 0.0
H269 H 0.27953 0.10955 0.70593 0.0
H270 H 0.41808 0.10266 0.24907 0.0
H271 H 0.30173 0.10966 0.25123 0.0
H272 H 0.45069 0.12312 0.13085 0.0
H273 H 0.22724 0.06299 0.66531 0.0
H274 H 0.19139 0.02833 0.55736 0.0
H275 H 0.46466 0.18009 0.57323 0.0
H276 H 0.2033 0.03476 0.28288 0.0
H277 H 0.24826 0.07052 0.19608 0.0
H278 H 0.54087 0.22522 0.20583 0.0
H279 H 0.18267 0.01802 0.41801 0.0
H280 H 0.54785 0.2583 0.46867 0.0
H281 H 0.51427 0.23274 0.58381 0.0
N282 N 0.46795 0.17679 0.45128 0.0
C283 C 0.48698 0.18962 0.38793 0.0
C284 C 0.47804 0.1914 0.5215 0.0
C285 C 0.52559 0.23538 0.46311 0.0
C286 C 0.50664 0.22109 0.52819 0.0
C287 C 0.51616 0.21945 0.39212 0.0
H288 H 0.55768 0.25514 0.32809 0.0
N289 N 0.44966 0.14369 0.3163 0.0
C290 C 0.47778 0.17249 0.31885 0.0
C291 C 0.48705 0.16716 0.18415 0.0
C292 C 0.4971 0.18511 0.25247 0.0
C293 C 0.44006 0.12575 0.25038 0.0
C294 C 0.45853 0.13727 0.18327 0.0
O295 O 0.34759 0.10975 0.52451 0.0
O296 O 0.3743 0.08456 0.47941 0.0
O297 O 0.43835 0.09343 0.40571 0.0
O298 O 0.44838 0.11646 0.51683 0.0
O299 O 0.386 0.16985 0.46713 0.0
O300 O 0.40982 0.14781 0.53727 0.0
O301 O 0.41749 0.16344 0.35076 0.0
O302 O 0.36405 0.13725 0.31459 0.0
O303 O 0.32542 0.16754 0.46937 0.0
O304 O 0.33383 0.16689 0.34771 0.0
O305 O 0.3806 0.08824 0.35868 0.0
O306 O 0.33145 0.08838 0.35518 0.0
C307 C 0.35042 0.08398 0.51831 0.0
C308 C 0.39882 0.1681 0.53257 0.0
C309 C 0.48407 0.09849 0.47164 0.0
C310 C 0.51624 0.07129 0.48111 0.0
C311 C 0.54228 0.12921 0.45596 0.0
C312 C 0.51241 0.12788 0.45769 0.0
C313 C 0.54425 0.10126 0.46764 0.0
C314 C 0.48609 0.07022 0.48367 0.0
C315 C 0.4522 0.09669 0.47209 0.0
C316 C 0.52576 0.21512 0.25629 0.0
C317 C 0.53529 0.2322 0.3259 0.0
H318 H 0.50123 0.17605 0.13194 0.0
C319 C 0.39404 0.15965 0.30347 0.0
C320 C 0.35015 0.07604 0.33646 0.0
C321 C 0.29958 0.18678 0.38697 0.0
C322 C 0.27954 0.22489 0.38698 0.0
C323 C 0.24558 0.16993 0.34053 0.0
C324 C 0.26993 0.16281 0.35704 0.0
C325 C 0.25054 0.20088 0.35399 0.0
C326 C 0.30413 0.21765 0.40294 0.0
C327 C 0.32591 0.18008 0.40272 0.0
H328 H 0.56408 0.15206 0.44561 0.0
H329 H 0.51146 0.14979 0.44822 0.0
H330 H 0.56784 0.10319 0.46703 0.0
H331 H 0.4642 0.04738 0.49388 0.0
H332 H 0.22271 0.15139 0.31739 0.0
H333 H 0.26562 0.13873 0.346 0.0
H334 H 0.23136 0.20576 0.34028 0.0
H335 H 0.32679 0.23606 0.42747 0.0
C336 C 0.9539 0.18739 0.44017 0.0
C337 C 0.94881 0.1675 0.57058 0.0
C338 C 0.93977 0.1819 0.51215 0.0
C339 C 0.97395 0.1609 0.55709 0.0
C340 C 0.97787 0.17913 0.42482 0.0
C341 C 0.98855 0.16683 0.48437 0.0
N342 N 0.94197 0.19785 0.38324 0.0
C343 C 0.95181 0.19928 0.3088 0.0
C344 C 0.98915 0.18193 0.34923 0.0
C345 C 0.97577 0.19171 0.29083 0.0
Gd346 Gd 0.90557 0.29861 0.42533 0.0
Gd347 Gd 0.90172 0.20984 0.41818 0.0
N348 N 0.91521 0.18804 0.52288 0.0
C349 C 0.93118 0.15863 0.63927 0.0
C350 C 0.89715 0.17838 0.58855 0.0
C351 C 0.90502 0.16378 0.64793 0.0
H352 H 0.87663 0.18188 0.59464 0.0
H353 H 0.89057 0.15599 0.69961 0.0
H354 H 0.92833 0.31689 0.24122 0.0
H355 H 0.94122 0.20653 0.26341 0.0
H356 H 0.90688 0.32677 0.1212 0.0
H357 H 0.93674 0.14657 0.68441 0.0
H358 H 0.9815 0.15019 0.60165 0.0
H359 H 0.85146 0.28778 0.56551 0.0
H360 H 1.00737 0.17558 0.335 0.0
H361 H 0.98358 0.19312 0.23186 0.0
H362 H 0.80483 0.31518 0.19553 0.0
H363 H 1.00716 0.16063 0.47393 0.0
H364 H 0.77248 0.29104 0.45931 0.0
H365 H 0.79833 0.28386 0.57518 0.0
N366 N 0.85488 0.29444 0.4437 0.0
C367 C 0.84172 0.29986 0.37974 0.0
C368 C 0.84008 0.28966 0.51365 0.0
C369 C 0.79565 0.29219 0.45424 0.0
C370 C 0.8101 0.288 0.51974 0.0
C371 C 0.81158 0.29858 0.38331 0.0
H372 H 0.77529 0.30306 0.31813 0.0
N373 N 0.88756 0.30813 0.30825 0.0
C374 C 0.85862 0.30721 0.31038 0.0
C375 C 0.86307 0.3197 0.17449 0.0
C376 C 0.84549 0.31273 0.24321 0.0
C377 C 0.90515 0.31561 0.24198 0.0
C378 C 0.89307 0.32126 0.17398 0.0
O379 O 0.92629 0.23968 0.52359 0.0
O380 O 0.94436 0.2925 0.4859 0.0
O381 O 0.9408 0.34878 0.39934 0.0
O382 O 0.91262 0.33764 0.50311 0.0
O383 O 0.86376 0.22108 0.46355 0.0
O384 O 0.88647 0.26747 0.53202 0.0
O385 O 0.86946 0.25769 0.34461 0.0
O386 O 0.89901 0.23416 0.31094 0.0
O387 O 0.8544 0.16791 0.4382 0.0
O388 O 0.88155 0.16945 0.33783 0.0
O389 O 0.94648 0.29959 0.35674 0.0
O390 O 0.94678 0.25048 0.36191 0.0
C391 C 0.9485 0.27051 0.52221 0.0
C392 C 0.86636 0.2362 0.52865 0.0
C393 C 0.93441 0.39108 0.45209 0.0
C394 C 0.96221 0.45057 0.46217 0.0
C395 C 0.90703 0.42 0.41302 0.0
C396 C 0.90704 0.39096 0.42274 0.0
C397 C 0.93427 0.44949 0.43237 0.0
C398 C 0.96201 0.42097 0.47167 0.0
C399 C 0.9349 0.36044 0.46089 0.0
C400 C 0.81531 0.31104 0.24659 0.0
C401 C 0.79845 0.30405 0.31641 0.0
H402 H 0.85375 0.324 0.12162 0.0
C403 C 0.87482 0.23887 0.29836 0.0
C404 C 0.95976 0.28144 0.34348 0.0
C405 C 0.85007 0.11877 0.39884 0.0
C406 C 0.8123 0.06206 0.4279 0.0
C407 C 0.87011 0.08197 0.42565 0.0
C408 C 0.87584 0.11267 0.40621 0.0
C409 C 0.83859 0.05682 0.43648 0.0
C410 C 0.81816 0.09333 0.41033 0.0
C411 C 0.85648 0.15165 0.38071 0.0
H412 H 0.88575 0.41966 0.39034 0.0
H413 H 0.88572 0.36846 0.40713 0.0
H414 H 0.93333 0.47152 0.42478 0.0
H415 H 0.98342 0.42114 0.49307 0.0
H416 H 0.89016 0.07758 0.43164 0.0
H417 H 0.90045 0.13156 0.39668 0.0
H418 H 0.83464 0.03304 0.45074 0.0
H419 H 0.79806 0.09767 0.40398 0.0
C420 C 0.84346 0.7742 0.4586 0.0
C421 C 0.86006 0.78654 0.59197 0.0
C422 C 0.8482 0.76448 0.53008 0.0
C423 C 0.86431 0.81765 0.58248 0.0
C424 C 0.84961 0.80603 0.44739 0.0
C425 C 0.85894 0.82733 0.51036 0.0
N426 N 0.83582 0.75346 0.39858 0.0
C427 C 0.83578 0.76359 0.32494 0.0
C428 C 0.84764 0.81594 0.37265 0.0
C429 C 0.84112 0.79474 0.311 0.0
Gd430 Gd 0.73556 0.61674 0.43353 0.0
Gd431 Gd 0.82509 0.70091 0.42826 0.0
N432 N 0.84418 0.73439 0.53699 0.0
C433 C 0.86884 0.77719 0.66011 0.0
C434 C 0.85426 0.72575 0.60161 0.0
C435 C 0.86641 0.74683 0.6644 0.0
H436 H 0.85297 0.70263 0.6044 0.0
H437 H 0.87399 0.73968 0.71578 0.0
H438 H 0.71585 0.61562 0.24847 0.0
H439 H 0.83102 0.74731 0.27702 0.0
H440 H 0.7062 0.58149 0.13349 0.0
H441 H 0.87832 0.79351 0.70882 0.0
H442 H 0.87288 0.83477 0.62973 0.0
H443 H 0.74379 0.57552 0.58382 0.0
H444 H 0.85213 0.84017 0.36164 0.0
H445 H 0.8403 0.8024 0.25278 0.0
H446 H 0.72027 0.49441 0.22472 0.0
H447 H 0.86338 0.85176 0.50313 0.0
H448 H 0.74295 0.49212 0.49247 0.0
H449 H 0.74814 0.52695 0.60315 0.0
N450 N 0.7394 0.57051 0.46152 0.0
C451 C 0.7347 0.55071 0.40044 0.0
C452 C 0.74298 0.56161 0.53407 0.0
C453 C 0.74174 0.51393 0.48311 0.0
C454 C 0.74482 0.5336 0.54569 0.0
C455 C 0.73607 0.52205 0.4096 0.0
H456 H 0.73227 0.48007 0.35163 0.0
N457 N 0.72599 0.58612 0.32142 0.0
C458 C 0.72744 0.55851 0.3287 0.0
C459 C 0.71464 0.5469 0.19359 0.0
C460 C 0.7221 0.5383 0.26461 0.0
C461 C 0.71783 0.59417 0.25304 0.0
C462 C 0.71226 0.57482 0.18796 0.0
O463 O 0.79333 0.69526 0.53043 0.0
O464 O 0.74107 0.66307 0.4848 0.0
O465 O 0.68511 0.59945 0.4032 0.0
O466 O 0.69657 0.5887 0.51502 0.0
O467 O 0.8136 0.65189 0.47464 0.0
O468 O 0.76676 0.62966 0.54105 0.0
O469 O 0.77643 0.6204 0.35406 0.0
O470 O 0.80371 0.67382 0.31863 0.0
O471 O 0.8666 0.69427 0.44829 0.0
O472 O 0.86771 0.72508 0.35652 0.0
O473 O 0.73568 0.65533 0.35713 0.0
O474 O 0.78577 0.70371 0.35978 0.0
C475 C 0.76273 0.68746 0.52639 0.0
C476 C 0.79794 0.64 0.53935 0.0
C477 C 0.64337 0.55322 0.46678 0.0
C478 C 0.58379 0.52024 0.47543 0.0
C479 C 0.61665 0.49487 0.45435 0.0
C480 C 0.64488 0.52498 0.45504 0.0
C481 C 0.58649 0.49245 0.46478 0.0
C482 C 0.61269 0.55075 0.47717 0.0
C483 C 0.67355 0.5852 0.46874 0.0
C484 C 0.72422 0.51019 0.27337 0.0
C485 C 0.73114 0.50207 0.34563 0.0
H486 H 0.7104 0.53201 0.14299 0.0
C487 C 0.79651 0.64391 0.30753 0.0
C488 C 0.75502 0.68608 0.33903 0.0
C489 C 0.91698 0.74063 0.41991 0.0
C490 C 0.97453 0.75969 0.43768 0.0
C491 C 0.95326 0.79563 0.46283 0.0
C492 C 0.92241 0.77122 0.44231 0.0
C493 C 0.97919 0.79 0.46038 0.0
C494 C 0.94317 0.7348 0.41838 0.0
C495 C 0.88429 0.7153 0.3962 0.0
H496 H 0.61814 0.47319 0.44607 0.0
H497 H 0.66793 0.52618 0.44699 0.0
H498 H 0.56521 0.46861 0.46555 0.0
H499 H 0.61135 0.57253 0.48586 0.0
H500 H 0.95714 0.81908 0.48021 0.0
H501 H 0.90288 0.77644 0.44318 0.0
H502 H 1.00298 0.80934 0.47668 0.0
H503 H 0.93931 0.71134 0.40078 0.0
C504 C 0.84832 0.55506 0.8892 0.0
C505 C 0.8517 0.54586 0.7526 0.0
C506 C 0.86478 0.56486 0.81933 0.0
C507 C 0.82204 0.51683 0.75697 0.0
C508 C 0.81879 0.5256 0.89384 0.0
C509 C 0.80569 0.5067 0.82736 0.0
N510 N 0.8614 0.57393 0.95273 0.0
C511 C 0.84735 0.56361 0.02331 0.0
C512 C 0.80348 0.51575 0.96541 0.0
C513 C 0.81799 0.53468 0.0305 0.0
Gd514 Gd 0.90428 0.70481 0.92405 0.0
Gd515 Gd 0.91092 0.62161 0.93294 0.0
N516 N 0.89322 0.59339 0.8163 0.0
C517 C 0.86879 0.55665 0.68332 0.0
C518 C 0.91035 0.60368 0.74933 0.0
C519 C 0.8983 0.58559 0.68181 0.0
H520 H 0.93327 0.62586 0.74746 0.0
H521 H 0.91178 0.59398 0.62861 0.0
H522 H 0.87144 0.69981 0.09495 0.0
H523 H 0.85887 0.57718 0.07476 0.0
H524 H 0.8834 0.73057 0.2159 0.0
H525 H 0.8595 0.54275 0.6308 0.0
H526 H 0.81161 0.50195 0.70625 0.0
H527 H 0.94712 0.75909 0.78982 0.0
H528 H 0.78079 0.49327 0.97132 0.0
H529 H 0.80676 0.52682 0.08644 0.0
H530 H 0.981 0.82977 0.16009 0.0
H531 H 0.78297 0.48409 0.82987 0.0
H532 H 1.01763 0.84667 0.89845 0.0
H533 H 0.99458 0.81434 0.78016 0.0
N534 N 0.94756 0.75824 0.9114 0.0
C535 C 0.95829 0.77634 0.9763 0.0
C536 C 0.95907 0.77213 0.84138 0.0
C537 C 0.99801 0.82191 0.90282 0.0
C538 C 0.98515 0.8037 0.83593 0.0
C539 C 0.98365 0.80875 0.97386 0.0
H540 H 1.01168 0.85251 0.04037 0.0
N541 N 0.91491 0.73352 0.04057 0.0
C542 C 0.941 0.76371 0.04315 0.0
C543 C 0.92813 0.77029 0.17408 0.0
C544 C 0.94842 0.78296 0.10998 0.0
C545 C 0.89366 0.72225 0.10043 0.0
C546 C 0.90025 0.74 0.16858 0.0
O547 O 0.87226 0.62385 0.85627 0.0
O548 O 0.89775 0.67663 0.81613 0.0
O549 O 0.85524 0.69683 0.93226 0.0
O550 O 0.88977 0.73363 0.85697 0.0
O551 O 0.94943 0.66112 0.85946 0.0
O552 O 0.94348 0.70674 0.84268 0.0
O553 O 0.92746 0.69575 0.02635 0.0
O554 O 0.95232 0.66899 0.97904 0.0
O555 O 0.94391 0.6039 0.90556 0.0
O556 O 0.92185 0.59436 0.01748 0.0
O557 O 0.86517 0.65616 0.97178 0.0
O558 O 0.88951 0.63281 0.03783 0.0
C559 C 0.87514 0.64656 0.80777 0.0
C560 C 0.95822 0.68974 0.82895 0.0
C561 C 0.85377 0.74534 0.92208 0.0
C562 C 0.81437 0.76223 0.94986 0.0
C563 C 0.87095 0.79729 0.98273 0.0
C564 C 0.87827 0.77469 0.95263 0.0
C565 C 0.83925 0.79119 0.98123 0.0
C566 C 0.82173 0.73899 0.92169 0.0
C567 C 0.86166 0.72167 0.8895 0.0
C568 C 0.97473 0.81467 0.10921 0.0
C569 C 0.99225 0.82758 0.0411 0.0
H570 H 0.93293 0.78425 0.22658 0.0
C571 C 0.95294 0.69244 0.02028 0.0
C572 C 0.86755 0.64187 0.0345 0.0
C573 C 0.93948 0.55825 0.97141 0.0
C574 C 0.96628 0.52538 0.97995 0.0
C575 C 0.90838 0.50005 0.95462 0.0
C576 C 0.90997 0.53004 0.95744 0.0
C577 C 0.93614 0.49769 0.96558 0.0
C578 C 0.96768 0.55582 0.98274 0.0
C579 C 0.94127 0.59029 0.97199 0.0
H580 H 0.88996 0.81976 1.00652 0.0
H581 H 0.90315 0.78039 0.95254 0.0
H582 H 0.83411 0.80916 1.00465 0.0
H583 H 0.80289 0.71655 0.89719 0.0
H584 H 0.88542 0.47842 0.94385 0.0
H585 H 0.88815 0.53117 0.94846 0.0
H586 H 0.9339 0.47398 0.9637 0.0
H587 H 0.99066 0.57761 0.99239 0.0
C588 C 0.48357 0.29936 0.90395 0.0
C589 C 0.49617 0.31011 0.76767 0.0
C590 C 0.47552 0.30494 0.83067 0.0
C591 C 0.52507 0.30973 0.77919 0.0
C592 C 0.51297 0.29968 0.91578 0.0
C593 C 0.53347 0.30458 0.853 0.0
N594 N 0.46329 0.2947 0.96387 0.0
C595 C 0.47224 0.29272 0.03756 0.0
C596 C 0.52125 0.2957 0.99066 0.0
C597 C 0.50097 0.29258 0.05185 0.0
Gd598 Gd 0.33239 0.20536 0.92039 0.0
Gd599 Gd 0.41594 0.29573 0.93165 0.0
N600 N 0.44716 0.30474 0.82076 0.0
C601 C 0.48712 0.31548 0.69484 0.0
C602 C 0.43851 0.3106 0.75035 0.0
C603 C 0.45821 0.31583 0.68624 0.0
H604 H 0.41602 0.31037 0.74335 0.0
H605 H 0.45101 0.31996 0.63019 0.0
H606 H 0.33345 0.18037 0.09778 0.0
H607 H 0.45767 0.29184 0.08602 0.0
H608 H 0.29596 0.15474 0.20673 0.0
H609 H 0.50229 0.31946 0.64498 0.0
H610 H 0.54121 0.31359 0.73144 0.0
H611 H 0.28651 0.20113 0.77017 0.0
H612 H 0.54362 0.29581 1.00206 0.0
H613 H 0.50768 0.2905 0.11024 0.0
H614 H 0.19492 0.14056 0.11405 0.0
H615 H 0.55605 0.30475 0.86107 0.0
H616 H 0.19011 0.16769 0.85042 0.0
H617 H 0.23002 0.18692 0.7443 0.0
N618 N 0.27916 0.19242 0.89064 0.0
C619 C 0.25738 0.18064 0.94883 0.0
C620 C 0.2694 0.19352 0.81722 0.0
C621 C 0.215 0.17451 0.86233 0.0
C622 C 0.23742 0.1853 0.80227 0.0
C623 C 0.22465 0.17121 0.93632 0.0
H624 H 0.17719 0.15023 0.98865 0.0
N625 N 0.29867 0.1833 0.0277 0.0
C626 C 0.26733 0.17534 0.01927 0.0
C627 C 0.25542 0.15291 0.14757 0.0
C628 C 0.24486 0.16021 0.07929 0.0
C629 C 0.30888 0.17533 0.09318 0.0
C630 C 0.2876 0.16054 0.15457 0.0
O631 O 0.41365 0.25554 0.85241 0.0
O632 O 0.36079 0.22973 0.81489 0.0
O633 O 0.33774 0.16319 0.93916 0.0
O634 O 0.3123 0.1654 0.83902 0.0
O635 O 0.37641 0.29467 0.85608 0.0
O636 O 0.32764 0.24497 0.85756 0.0
O637 O 0.34049 0.23649 0.02466 0.0
O638 O 0.36913 0.28904 0.98277 0.0
O639 O 0.43297 0.34582 0.89891 0.0
O640 O 0.44192 0.33517 0.01364 0.0
O641 O 0.38149 0.21613 0.96738 0.0
O642 O 0.404 0.26298 0.03576 0.0
C643 C 0.3903 0.23572 0.80538 0.0
C644 C 0.34548 0.27587 0.83765 0.0
C645 C 0.29219 0.11443 0.8995 0.0
C646 C 0.2727 0.05769 0.93164 0.0
C647 C 0.2348 0.07742 0.91783 0.0
C648 C 0.26013 0.10812 0.90003 0.0
C649 C 0.24096 0.0524 0.93342 0.0
C650 C 0.29841 0.08919 0.91626 0.0
C651 C 0.31909 0.1472 0.88177 0.0
C652 C 0.21248 0.15192 0.06833 0.0
C653 C 0.2024 0.15745 0.99697 0.0
H654 H 0.23871 0.14053 0.19412 0.0
C655 C 0.34452 0.26571 0.02027 0.0
C656 C 0.39486 0.23205 0.03143 0.0
C657 C 0.47772 0.38818 0.96512 0.0
C658 C 0.5099 0.44765 0.97702 0.0
C659 C 0.53603 0.41585 0.95133 0.0
C660 C 0.5062 0.38729 0.95205 0.0
C661 C 0.53793 0.44568 0.96365 0.0
C662 C 0.47964 0.41847 0.97744 0.0
C663 C 0.44594 0.35781 0.96544 0.0
H664 H 0.21021 0.07289 0.91858 0.0
H665 H 0.2545 0.12678 0.88613 0.0
H666 H 0.22077 0.02872 0.94616 0.0
H667 H 0.32304 0.09384 0.91377 0.0
H668 H 0.5579 0.41485 0.94135 0.0
H669 H 0.50539 0.36453 0.94243 0.0
H670 H 0.56154 0.4673 0.96365 0.0
H671 H 0.4576 0.41928 0.98629 0.0
C672 C 0.73708 0.19109 0.87521 0.0
C673 C 0.72115 0.18523 0.74035 0.0
C674 C 0.72755 0.17279 0.80757 0.0
C675 C 0.72435 0.2161 0.74175 0.0
C676 C 0.73986 0.22193 0.87676 0.0
C677 C 0.73362 0.23435 0.8097 0.0
N678 N 0.74368 0.17883 0.93917 0.0
C679 C 0.7505 0.19499 1.00768 0.0
C680 C 0.74861 0.23934 0.9459 0.0
C681 C 0.75359 0.22566 0.01177 0.0
Gd682 Gd 0.82561 0.1307 0.9063 0.0
Gd683 Gd 0.73698 0.12695 0.92452 0.0
N684 N 0.72537 0.14321 0.80706 0.0
C685 C 0.71175 0.16628 0.67354 0.0
C686 C 0.71543 0.1243 0.74263 0.0
C687 C 0.70862 0.1356 0.67492 0.0
H688 H 0.71252 0.10041 0.74299 0.0
H689 H 0.70101 0.12066 0.62373 0.0
H690 H 0.8425 0.13954 0.09506 0.0
H691 H 0.75296 0.18425 0.05998 0.0
H692 H 0.85701 0.11296 0.19758 0.0
H693 H 0.70664 0.175 0.62077 0.0
H694 H 0.71961 0.22605 0.69057 0.0
H695 H 0.83621 0.10297 0.74028 0.0
H696 H 0.75095 0.26309 0.94939 0.0
H697 H 0.75945 0.23856 0.06599 0.0
H698 H 0.87069 0.0328 0.06231 0.0
H699 H 0.73578 0.25805 0.80987 0.0
H700 H 0.8637 0.03179 0.78674 0.0
H701 H 0.85097 0.06305 0.69324 0.0
N702 N 0.8394 0.09327 0.85833 0.0
C703 C 0.84712 0.07704 0.91021 0.0
C704 C 0.84136 0.08904 0.78118 0.0
C705 C 0.8569 0.04897 0.80734 0.0
C706 C 0.84981 0.06661 0.75446 0.0
C707 C 0.85581 0.0542 0.88633 0.0
H708 H 0.86991 0.01981 0.92479 0.0
N709 N 0.84119 0.10806 1.00674 0.0
C710 C 0.84768 0.08443 0.98714 0.0
C711 C 0.85912 0.07881 0.12 0.0
C712 C 0.85666 0.06899 0.04312 0.0
C713 C 0.84599 0.11945 0.08068 0.0
C714 C 0.85424 0.10452 0.13868 0.0
O715 O 0.7787 0.16608 0.85095 0.0
O716 O 0.80185 0.13788 0.80394 0.0
O717 O 0.87139 0.17081 0.94594 0.0
O718 O 0.8633 0.16052 0.82484 0.0
O719 O 0.73596 0.08739 0.8505 0.0
O720 O 0.78664 0.09178 0.82789 0.0
O721 O 0.79187 0.10624 1.00528 0.0
O722 O 0.73958 0.08249 0.96409 0.0
O723 O 0.6854 0.10344 0.89962 0.0
O724 O 0.70173 0.11662 0.01616 0.0
O725 O 0.8169 0.16916 0.96084 0.0
O726 O 0.77007 0.14644 0.0293 0.0
C727 C 0.79637 0.16185 0.79877 0.0
C728 C 0.7547 0.07764 0.81772 0.0
C729 C 0.91714 0.18408 0.86945 0.0
C730 C 0.9753 0.22145 0.87926 0.0
C731 C 0.95497 0.16604 0.83703 0.0
C732 C 0.92325 0.15949 0.8463 0.0
C733 C 0.98082 0.1969 0.8522 0.0
C734 C 0.94321 0.21499 0.88573 0.0
C735 C 0.88394 0.1781 0.87753 0.0
C736 C 0.86394 0.04511 0.02018 0.0
C737 C 0.86357 0.03777 0.94187 0.0
H738 H 0.86576 0.06743 0.16484 0.0
C739 C 0.76345 0.0806 0.99713 0.0
C740 C 0.80157 0.16638 0.02591 0.0
C741 C 0.6496 0.07007 0.9965 0.0
C742 C 0.59118 0.0315 0.01117 0.0
C743 C 0.63109 0.01593 0.04524 0.0
C744 C 0.65622 0.04635 0.02385 0.0
C745 C 0.59895 1.00856 0.03916 0.0
C746 C 0.6169 0.06258 0.99054 0.0
C747 C 0.67664 0.10191 0.97092 0.0
H748 H 0.95956 0.1471 0.81813 0.0
H749 H 0.90363 0.13543 0.83429 0.0
H750 H 1.00509 0.20126 0.84466 0.0
H751 H 0.93844 0.23392 0.90403 0.0
H752 H 0.63655 0.99789 0.06659 0.0
H753 H 0.68089 0.05129 0.0285 0.0
H754 H 0.58006 0.98485 0.05719 0.0
H755 H 0.61152 0.08062 0.96865 0.0
C756 C 0.55769 0.83279 0.60054 0.0
C757 C 0.54374 0.82723 0.7365 0.0
C758 C 0.56446 0.84489 0.67526 0.0
C759 C 0.51622 0.79713 0.72178 0.0
C760 C 0.52948 0.80299 0.58539 0.0
C761 C 0.50908 0.78507 0.64645 0.0
N762 N 0.57787 0.85067 0.54246 0.0
C763 C 0.56954 0.84144 0.46751 0.0
C764 C 0.52217 0.7924 0.50906 0.0
C765 C 0.54204 0.81195 0.44983 0.0
Gd766 Gd 0.70695 0.8933 0.58943 0.0
Gd767 Gd 0.62381 0.89942 0.58049 0.0
N768 N 0.59147 0.87391 0.68816 0.0
C769 C 0.55125 0.84043 0.81075 0.0
C770 C 0.59842 0.88735 0.75988 0.0
C771 C 0.57861 0.87073 0.82237 0.0
H772 H 0.61977 0.91041 0.76909 0.0
H773 H 0.58455 0.8812 0.87948 0.0
H774 H 0.70819 0.86703 0.41441 0.0
H775 H 0.58369 0.85689 0.42069 0.0
H776 H 0.74774 0.87801 0.31053 0.0
H777 H 0.53598 0.82756 0.85933 0.0
H778 H 0.50009 0.78314 0.76815 0.0
H779 H 0.75175 0.93349 0.7433 0.0
H780 H 0.50074 0.76966 0.49509 0.0
H781 H 0.53595 0.80451 0.3904 0.0
H782 H 0.84545 0.96954 0.40191 0.0
H783 H 0.48746 0.76204 0.63584 0.0
H784 H 0.84766 0.99982 0.66535 0.0
H785 H 0.80768 0.97681 0.77092 0.0
N786 N 0.75958 0.93378 0.62258 0.0
C787 C 0.78151 0.94509 0.56452 0.0
C788 C 0.76889 0.94405 0.69657 0.0
C789 C 0.82301 0.98138 0.65274 0.0
C790 C 0.80052 0.96843 0.71248 0.0
C791 C 0.81391 0.96907 0.57811 0.0
H792 H 0.86145 0.99729 0.52715 0.0
N793 N 0.74114 0.90656 0.48294 0.0
C794 C 0.77223 0.93042 0.49302 0.0
C795 C 0.78636 0.91902 0.36792 0.0
C796 C 0.79549 0.93796 0.43474 0.0
C797 C 0.73231 0.8874 0.4191 0.0
C798 C 0.75471 0.89339 0.36059 0.0
O799 O 0.62847 0.86261 0.65904 0.0
O800 O 0.68131 0.88778 0.70092 0.0
O801 O 0.6935 0.84286 0.57618 0.0
O802 O 0.73632 0.87512 0.64128 0.0
O803 O 0.6616 0.93714 0.65872 0.0
O804 O 0.71015 0.93586 0.65797 0.0
O805 O 0.70066 0.91842 0.4871 0.0
O806 O 0.67072 0.94082 0.53195 0.0
O807 O 0.60634 0.93159 0.61731 0.0
O808 O 0.59708 0.91309 0.50146 0.0
O809 O 0.65833 0.85611 0.53901 0.0
O810 O 0.63695 0.88179 0.47301 0.0
C811 C 0.65059 0.86725 0.71148 0.0
C812 C 0.69223 0.9488 0.67807 0.0
C813 C 0.71451 0.81856 0.6596 0.0
C814 C 0.72111 0.77114 0.66974 0.0
C815 C 0.69886 0.78673 0.77661 0.0
C816 C 0.70203 0.81309 0.73442 0.0
C817 C 0.70854 0.76596 0.74484 0.0
C818 C 0.72372 0.79738 0.6272 0.0
C819 C 0.71857 0.84613 0.61357 0.0
C820 C 0.82741 0.96295 0.44663 0.0
C821 C 0.83653 0.97869 0.518 0.0
H822 H 0.80365 0.92356 0.32245 0.0
C823 C 0.69536 0.94282 0.49289 0.0
C824 C 0.64626 0.86018 0.47476 0.0
C825 C 0.56146 0.92969 0.55367 0.0
C826 C 0.52947 0.957 0.54086 0.0
C827 C 0.50364 0.89997 0.57608 0.0
C828 C 0.53332 0.9009 0.57277 0.0
C829 C 0.50168 0.92768 0.56043 0.0
C830 C 0.55947 0.95772 0.53785 0.0
C831 C 0.59315 0.93115 0.55151 0.0
H832 H 0.68899 0.78248 0.83421 0.0
H833 H 0.69497 0.82927 0.76011 0.0
H834 H 0.70597 0.74572 0.77857 0.0
H835 H 0.73346 0.80164 0.56922 0.0
H836 H 0.48199 0.87761 0.59085 0.0
H837 H 0.53431 0.87921 0.58535 0.0
H838 H 0.47825 0.92607 0.56282 0.0
H839 H 0.58134 0.98015 0.52445 0.0
C840 C 0.19562 0.72416 0.62325 0.0
C841 C 0.19066 0.70863 0.75816 0.0
C842 C 0.17847 0.71619 0.69228 0.0
C843 C 0.22024 0.70908 0.7539 0.0
C844 C 0.22505 0.72402 0.61864 0.0
C845 C 0.23735 0.71671 0.68437 0.0
N846 N 0.18318 0.73121 0.56037 0.0
C847 C 0.19786 0.736 0.49022 0.0
C848 C 0.24104 0.73071 0.54776 0.0
C849 C 0.2272 0.73638 0.48317 0.0
Gd850 Gd 0.14339 0.82094 0.59529 0.0
Gd851 Gd 0.13355 0.72935 0.58033 0.0
N852 N 0.15014 0.71649 0.69532 0.0
C853 C 0.17273 0.7008 0.82646 0.0
C854 C 0.1322 0.70819 0.76111 0.0
C855 C 0.14329 0.7004 0.82777 0.0
H856 H 0.10946 0.7078 0.76256 0.0
H857 H 0.12917 0.69418 0.88017 0.0
H858 H 0.16849 0.84986 0.41971 0.0
H859 H 0.18684 0.73887 0.43884 0.0
H860 H 0.15944 0.88232 0.32211 0.0
H861 H 0.18131 0.69488 0.87831 0.0
H862 H 0.23002 0.70339 0.80397 0.0
H863 H 0.10535 0.82381 0.75351 0.0
H864 H 0.26369 0.73082 0.5419 0.0
H865 H 0.23891 0.74062 0.42761 0.0
H866 H 0.07554 0.89738 0.43183 0.0
H867 H 0.25999 0.71663 0.68186 0.0
H868 H 0.04579 0.86423 0.69387 0.0
H869 H 0.06575 0.84046 0.79107 0.0
N870 N 0.10599 0.8362 0.63566 0.0
C871 C 0.09638 0.85037 0.58236 0.0
C872 C 0.09624 0.83367 0.71058 0.0
C873 C 0.06274 0.85653 0.67696 0.0
C874 C 0.07402 0.84321 0.73206 0.0
C875 C 0.07448 0.86097 0.60143 0.0
H876 H 0.04913 0.8849 0.55887 0.0
N877 N 0.13246 0.84718 0.4956 0.0
C878 C 0.11055 0.85663 0.51038 0.0
C879 C 0.122 0.88398 0.38756 0.0
C880 C 0.10418 0.87472 0.45613 0.0
C881 C 0.15025 0.85649 0.42946 0.0
C882 C 0.14529 0.87498 0.37443 0.0
O883 O 0.17116 0.76809 0.66269 0.0
O884 O 0.14437 0.79409 0.69963 0.0
O885 O 0.18921 0.86457 0.57197 0.0
O886 O 0.16844 0.85649 0.68525 0.0
O887 O 0.09465 0.73102 0.65262 0.0
O888 O 0.09643 0.78123 0.64848 0.0
O889 O 0.11952 0.79199 0.48794 0.0
O890 O 0.09554 0.7383 0.52449 0.0
O891 O 0.09727 0.6792 0.60346 0.0
O892 O 0.12406 0.69111 0.49753 0.0
O893 O 0.17983 0.80785 0.54758 0.0
O894 O 0.15497 0.76201 0.47657 0.0
C895 C 0.16733 0.7874 0.71064 0.0
C896 C 0.08257 0.75017 0.66762 0.0
C897 C 0.19772 0.91083 0.64096 0.0
C898 C 0.23531 0.96872 0.62292 0.0
C899 C 0.18027 0.94987 0.66572 0.0
C900 C 0.17368 0.91796 0.66323 0.0
C901 C 0.21085 0.9751 0.6461 0.0
C902 C 0.2285 0.93638 0.61983 0.0
C903 C 0.19093 0.877 0.63948 0.0
C904 C 0.0812 0.88397 0.47328 0.0
C905 C 0.06617 0.87687 0.54563 0.0
H906 H 0.11815 0.89823 0.34475 0.0
C907 C 0.09482 0.76222 0.48799 0.0
C908 C 0.17667 0.79288 0.48181 0.0
C909 C 0.10271 0.63725 0.54515 0.0
C910 C 0.0746 0.57774 0.53654 0.0
C911 C 0.13133 0.60847 0.57429 0.0
C912 C 0.13097 0.63743 0.56773 0.0
C913 C 0.1035 0.57894 0.55886 0.0
C914 C 0.07453 0.60728 0.52908 0.0
C915 C 0.10215 0.668 0.53977 0.0
H916 H 0.16159 0.95509 0.68315 0.0
H917 H 0.14982 0.89895 0.67941 0.0
H918 H 0.21533 0.99967 0.64822 0.0
H919 H 0.24718 0.93116 0.60211 0.0
H920 H 0.15334 0.60892 0.5914 0.0
H921 H 0.15278 0.65994 0.5802 0.0
H922 H 0.10471 0.55694 0.56354 0.0
H923 H 0.05253 0.60693 0.51198 0.0
C924 C 0.3056 0.47285 0.63441 0.0
C925 C 0.31689 0.47913 0.77187 0.0
C926 C 0.31202 0.46179 0.70273 0.0
C927 C 0.31551 0.50783 0.77145 0.0
C928 C 0.30481 0.502 0.63373 0.0
C929 C 0.30959 0.51927 0.70259 0.0
N930 N 0.30053 0.4554 0.56865 0.0
C931 C 0.29695 0.46696 0.49962 0.0
C932 C 0.29956 0.51313 0.56365 0.0
C933 C 0.29598 0.49571 0.49624 0.0
Gd934 Gd 0.21296 0.32254 0.58136 0.0
Gd935 Gd 0.30277 0.40769 0.58215 0.0
N936 N 0.3127 0.43363 0.70186 0.0
C937 C 0.32287 0.46704 0.83954 0.0
C938 C 0.31922 0.42207 0.76728 0.0
C939 C 0.32418 0.43848 0.83712 0.0
H940 H 0.32052 0.40017 0.76617 0.0
H941 H 0.329 0.42907 0.88907 0.0
H942 H 0.19499 0.32701 0.39812 0.0
H943 H 0.29537 0.45446 0.44659 0.0
H944 H 0.18108 0.29433 0.27967 0.0
H945 H 0.32664 0.47963 0.89384 0.0
H946 H 0.31913 0.52144 0.82406 0.0
H947 H 0.20207 0.27135 0.72514 0.0
H948 H 0.29885 0.53543 0.56074 0.0
H949 H 0.29275 0.50457 0.44149 0.0
H950 H 0.17721 0.19636 0.35932 0.0
H951 H 0.30889 0.54161 0.70313 0.0
H952 H 0.18933 0.18322 0.62835 0.0
H953 H 0.19469 0.21665 0.74239 0.0
N954 N 0.20437 0.27012 0.60299 0.0
C955 C 0.19967 0.25154 0.5399 0.0
C956 C 0.20097 0.25733 0.67509 0.0
C957 C 0.19349 0.20752 0.62055 0.0
C958 C 0.19644 0.22627 0.68504 0.0
C959 C 0.19401 0.21967 0.54689 0.0
H960 H 0.18286 0.17587 0.48493 0.0
N961 N 0.20125 0.29342 0.46527 0.0
C962 C 0.19752 0.26337 0.46884 0.0
C963 C 0.18357 0.25508 0.33368 0.0
C964 C 0.1888 0.24344 0.40299 0.0
C965 C 0.19402 0.30399 0.39913 0.0
C966 C 0.18582 0.28536 0.33213 0.0
O967 O 0.26102 0.4032 0.65815 0.0
O968 O 0.23027 0.34937 0.69399 0.0
O969 O 0.16744 0.29399 0.64271 0.0
O970 O 0.1695 0.32283 0.54586 0.0
O971 O 0.30001 0.36664 0.65196 0.0
O972 O 0.24952 0.31949 0.66248 0.0
O973 O 0.24839 0.33595 0.48393 0.0
O974 O 0.29914 0.36153 0.53523 0.0
O975 O 0.35355 0.42665 0.61054 0.0
O976 O 0.34073 0.43496 0.4974 0.0
O977 O 0.22281 0.37248 0.54395 0.0
O978 O 0.27029 0.39805 0.47783 0.0
C979 C 0.24185 0.38034 0.70717 0.0
C980 C 0.28092 0.33711 0.67832 0.0
C981 C 0.12931 0.31201 0.63806 0.0
C982 C 0.07677 0.30903 0.64369 0.0
C983 C 0.11864 0.34148 0.73643 0.0
C984 C 0.13953 0.33271 0.70192 0.0
C985 C 0.08754 0.32999 0.70713 0.0
C986 C 0.09778 0.30009 0.60905 0.0
C987 C 0.15143 0.30339 0.59965 0.0
C988 C 0.18408 0.21206 0.40921 0.0
C989 C 0.18719 0.20037 0.48079 0.0
H990 H 0.17692 0.24057 0.28171 0.0
C991 C 0.27672 0.33851 0.49266 0.0
C992 C 0.23901 0.38772 0.48157 0.0
C993 C 0.39456 0.47147 0.54207 0.0
C994 C 0.45405 0.5038 0.52903 0.0
C995 C 0.42219 0.52977 0.55644 0.0
C996 C 0.39364 0.49989 0.55596 0.0
C997 C 0.45202 0.53176 0.54321 0.0
C998 C 0.42487 0.4735 0.52876 0.0
C999 C 0.3643 0.43956 0.54337 0.0
H1000 H 0.12642 0.35707 0.7864 0.0
H1001 H 0.16354 0.34183 0.72519 0.0
H1002 H 0.07182 0.3374 0.73408 0.0
H1003 H 0.08984 0.28444 0.55893 0.0
H1004 H 0.4212 0.5516 0.56711 0.0
H1005 H 0.37088 0.49898 0.56666 0.0
H1006 H 0.4736 0.5554 0.5432 0.0
H1007 H 0.4257 0.45149 0.51948 0.0
C1008 C 0.02751 0.49594 0.95436 0.0
C1009 C 0.04937 0.51059 0.01575 0.0
C1010 C 1.00132 0.50136 0.94255 0.0
C1011 C 0.99561 0.52164 0.99162 0.0
H1012 H 0.03104 0.48065 0.91406 0.0
H1013 H 0.98549 0.48968 0.89394 0.0
S1014 S 0.04393 0.56344 0.16518 0.0
N1015 N 0.06227 0.54485 0.12899 0.0
N1016 N 1.01329 0.55482 0.10696 0.0
C1017 C 1.01701 0.53602 0.0539 0.0
C1018 C 0.04368 0.53051 0.06594 0.0
C1019 C 0.53393 0.50702 0.94389 0.0
C1020 C 0.51299 0.48031 0.99019 0.0
C1021 C 0.53856 0.53823 0.95689 0.0
C1022 C 0.52238 0.54429 0.0167 0.0
H1023 H 0.54674 0.50375 0.89644 0.0
H1024 H 0.55444 0.55764 0.91866 0.0
S1025 S 0.4669 0.48366 0.15861 0.0
N1026 N 0.47732 0.46281 0.10124 0.0
N1027 N 0.48583 0.52107 0.12547 0.0
C1028 C 0.50174 0.51794 0.06416 0.0
C1029 C 0.49705 0.48617 0.05093 0.0
C1030 C 0.5452 0.04215 0.03851 0.0
C1031 C 0.55621 0.0225 1.00526 0.0
C1032 C 0.51209 0.03277 0.03867 0.0
C1033 C 0.48836 1.00331 1.00548 0.0
H1034 H 0.56223 0.06466 0.06616 0.0
H1035 H 0.50497 0.0487 0.06575 0.0
S1036 S 0.50477 0.9445 0.9045 0.0
N1037 N 0.54072 0.973 0.93405 0.0
N1038 N 0.4789 0.95559 0.93429 0.0
C1039 C 0.49915 0.98372 0.97095 0.0
C1040 C 0.53285 0.99327 0.97072 0.0
C1041 C 0.50421 0.02146 0.55773 0.0
C1042 C 0.51896 0.04161 0.49367 0.0
C1043 C 0.50801 0.99454 0.57281 0.0
C1044 C 0.52667 0.98643 0.52442 0.0
H1045 H 0.49011 0.02692 0.5975 0.0
H1046 H 0.49648 0.98013 0.62349 0.0
S1047 S 0.56774 0.02947 0.34477 0.0
N1048 N 0.55134 0.05028 0.37872 0.0
N1049 N 0.5583 0.99983 0.40677 0.0
C1050 C 0.54104 1.00604 0.45936 0.0
C1051 C 0.5372 0.03347 0.44405 0.0
C1052 C 0.02809 0.54006 0.45046 0.0
C1053 C 0.04512 0.54557 0.5202 0.0
C1054 C 1.00176 0.50936 0.43197 0.0
C1055 C 0.99114 0.48272 0.48243 0.0
H1056 H 0.03561 0.55946 0.40899 0.0
H1057 H 0.98981 0.50639 0.37705 0.0
S1058 S 0.02551 0.48513 0.67577 0.0
N1059 N 0.04812 0.52216 0.64208 0.0
N1060 N 0.99878 0.46485 0.60767 0.0
C1061 C 1.00761 0.48812 0.553 0.0
C1062 C 0.03444 0.51936 0.57178 0.0
C1063 C 0.51365 0.52792 0.56088 0.0
C1064 C 0.48675 0.50702 0.51489 0.0
C1065 C 0.54486 0.53266 0.54691 0.0
C1066 C 0.55079 0.5167 0.48628 0.0
H1067 H 0.51052 0.54059 0.60887 0.0
H1068 H 0.56438 0.54847 0.58503 0.0
S1069 S 0.48961 0.4615 0.34461 0.0
N1070 N 0.46893 0.47164 0.40326 0.0
N1071 N 0.52715 0.48046 0.37695 0.0
C1072 C 0.52424 0.49614 0.43906 0.0
C1073 C 0.49246 0.49128 0.45339 0.0
C1074 C 1.00163 0.32382 0.25839 0.0
C1075 C 0.99253 0.2977 0.30873 0.0
C1076 C 0.03207 0.33916 0.22329 0.0
C1077 C 0.0548 0.32891 0.23627 0.0
H1078 H 0.98478 0.3319 0.24377 0.0
H1079 H 0.03693 0.3581 0.18214 0.0
S1080 S 0.04714 0.27014 0.38622 0.0
N1081 N 1.01136 0.26755 0.38466 0.0
N1082 N 0.06904 0.29731 0.32042 0.0
C1083 C 0.04735 0.30536 0.29344 0.0
C1084 C 1.01607 0.28942 0.32886 0.0
C1085 C 0.70168 0.70131 0.20256 0.0
C1086 C 0.7089 0.73297 0.22118 0.0
C1087 C 0.71719 0.68657 0.23937 0.0
C1088 C 0.74028 0.7027 0.29738 0.0
H1089 H 0.68381 0.68766 0.15898 0.0
H1090 H 0.71101 0.66237 0.22216 0.0
S1091 S 0.7605 0.78153 0.38447 0.0
N1092 N 0.73547 0.77669 0.31345 0.0
N1093 N 0.76541 0.74971 0.38109 0.0
C1094 C 0.74627 0.7335 0.32012 0.0
C1095 C 0.73029 0.74839 0.28279 0.0
C1096 C 0.30328 0.02988 0.26755 0.0
C1097 C 0.33551 0.04472 0.29312 0.0
C1098 C 0.28854 0.9998 0.23015 0.0
C1099 C 0.30492 0.98251 0.21806 0.0
H1100 H 0.28906 0.0414 0.27646 0.0
H1101 H 0.26426 0.99053 0.20929 0.0
S1102 S 0.39032 1.01062 0.27218 0.0
N1103 N 0.38381 0.03967 0.30179 0.0
N1104 N 0.35599 0.98325 0.23307 0.0
C1105 C 0.33733 0.99708 0.24294 0.0
C1106 C 0.35255 0.02798 0.28014 0.0
C1107 C 0.03953 0.70653 0.74917 0.0
C1108 C 0.05019 0.73483 0.70531 0.0
C1109 C 1.00925 0.69145 0.78541 0.0
C1110 C 0.98804 0.70393 0.77982 0.0
H1111 H 0.05497 0.69621 0.75744 0.0
H1112 H 1.00315 0.67052 0.8209 0.0
S1113 S 0.99996 0.77102 0.65078 0.0
N1114 N 0.03445 0.771 0.64588 0.0
N1115 N 0.97689 0.7413 0.70995 0.0
C1116 C 0.99706 0.73022 0.72962 0.0
C1117 C 0.02828 0.74608 0.69382 0.0
C1118 C 0.27996 0.2933 0.7637 0.0
C1119 C 0.29749 0.32213 0.7214 0.0
C1120 C 0.29544 0.27823 0.79984 0.0
C1121 C 0.32924 0.29129 0.79553 0.0
H1122 H 0.25414 0.28248 0.7703 0.0
H1123 H 0.28081 0.2567 0.83348 0.0
S1124 S 0.38691 0.36686 0.69361 0.0
N1125 N 0.35121 0.36328 0.67841 0.0
N1126 N 0.37977 0.33545 0.74692 0.0
C1127 C 0.34711 0.32038 0.75459 0.0
C1128 C 0.33146 0.33564 0.71759 0.0
C1129 C 0.7548 0.03609 0.72726 0.0
C1130 C 0.7378 0.0458 0.77673 0.0
C1131 C 0.74051 1.00424 0.69877 0.0
C1132 C 0.70832 0.981 0.71677 0.0
H1133 H 0.77955 0.05298 0.71166 0.0
H1134 H 0.75458 0.99807 0.66071 0.0
S1135 S 0.65294 0.99372 0.84313 0.0
N1136 N 0.6867 0.02892 0.84262 0.0
N1137 N 0.65995 0.97009 0.78683 0.0
C1138 C 0.69091 0.99057 0.76479 0.0
C1139 C 0.70549 0.02269 0.79479 0.0
C1140 C 0.23373 0.37777 0.85012 0.0
C1141 C 0.23004 0.38885 0.77793 0.0
C1142 C 0.21781 0.38005 0.91607 0.0
C1143 C 0.19576 0.39162 0.91206 0.0
H1144 H 0.24843 0.36642 0.85529 0.0
H1145 H 0.22134 0.37066 0.96962 0.0
S1146 S 0.18069 0.42715 0.73688 0.0
N1147 N 0.20626 0.41562 0.70757 0.0
N1148 N 0.17421 0.41763 0.82915 0.0
C1149 C 0.19343 0.40455 0.84055 0.0
C1150 C 0.21092 0.40356 0.77415 0.0
C1151 C 0.64948 0.84214 0.91951 0.0
C1152 C 0.63965 0.80897 0.91407 0.0
C1153 C 0.65147 0.86049 0.85413 0.0
C1154 C 0.64209 0.84624 0.78088 0.0
H1155 H 0.65734 0.85461 0.97408 0.0
H1156 H 0.66125 0.8863 0.86064 0.0
S1157 S 0.61042 0.75982 0.73493 0.0
N1158 N 0.618 0.76232 0.82829 0.0
N1159 N 0.61992 0.79661 0.70715 0.0
C1160 C 0.62962 0.81274 0.77516 0.0
C1161 C 0.62871 0.79415 0.84125 0.0
C1162 C 0.2378 0.84339 0.84074 0.0
C1163 C 0.22403 0.83582 0.91522 0.0
C1164 C 0.22009 0.82628 0.77483 0.0
C1165 C 0.18784 0.80102 0.78063 0.0
H1166 H 0.26209 0.86347 0.83278 0.0
H1167 H 0.2312 0.83389 0.71863 0.0
S1168 S 0.14147 0.76903 0.96146 0.0
N1169 N 0.17696 0.79858 0.99015 0.0
N1170 N 0.14343 0.7682 0.86664 0.0
C1171 C 0.17419 0.79249 0.85451 0.0
C1172 C 0.19234 0.80932 0.9216 0.0
C1173 C 0.40815 0.18209 0.67495 0.0
C1174 C 0.39975 0.18795 0.60098 0.0
C1175 C 0.40706 0.19903 0.74071 0.0
C1176 C 0.39725 0.22227 0.73524 0.0
H1177 H 0.41482 0.16367 0.68263 0.0
H1178 H 0.41253 0.19284 0.79659 0.0
S1179 S 0.37608 0.24947 0.55585 0.0
N1180 N 0.38462 0.22165 0.52679 0.0
N1181 N 0.38059 0.25148 0.65025 0.0
C1182 C 0.38974 0.22904 0.66189 0.0
C1183 C 0.39156 0.21248 0.5949 0.0
C1184 C 0.8525 0.23249 0.67063 0.0
C1185 C 0.84512 0.21862 0.59619 0.0
C1186 C 0.83491 0.21498 0.73616 0.0
C1187 C 0.80947 0.18286 0.7298 0.0
H1188 H 0.87283 0.25662 0.67889 0.0
H1189 H 0.8425 0.22598 0.79251 0.0
S1190 S 0.77785 0.13627 0.54888 0.0
N1191 N 0.80745 0.17183 0.52061 0.0
N1192 N 0.77683 0.1384 0.64359 0.0
C1193 C 0.80109 0.16919 0.65591 0.0
C1194 C 0.81819 0.18721 0.58921 0.0
C1195 C 0.86457 0.64154 0.66568 0.0
C1196 C 0.8528 0.63893 0.74113 0.0
C1197 C 0.84615 0.6405 0.60111 0.0
C1198 C 0.81539 0.63763 0.60906 0.0
H1199 H 0.88869 0.64541 0.65652 0.0
H1200 H 0.85663 0.64296 0.5445 0.0
S1201 S 0.77433 0.63147 0.79528 0.0
N1202 N 0.80874 0.63368 0.82053 0.0
N1203 N 0.77434 0.63246 0.70014 0.0
C1204 C 0.80319 0.63455 0.68457 0.0
C1205 C 0.82188 0.63518 0.75024 0.0
C1206 C 0.85407 0.63154 0.17732 0.0
C1207 C 0.84583 0.63683 0.10263 0.0
C1208 C 0.83664 0.63158 0.24331 0.0
C1209 C 0.81032 0.63703 0.23752 0.0
H1210 H 0.87506 0.6288 0.18543 0.0
H1211 H 0.84489 0.629 0.29958 0.0
S1212 S 0.77667 0.64905 0.0563 0.0
N1213 N 0.80696 0.64427 0.02766 0.0
N1214 N 0.77608 0.6465 0.15114 0.0
C1215 C 0.80108 0.6411 0.1634 0.0
C1216 C 0.81818 0.64025 0.09624 0.0
C1217 C 0.40618 0.21183 0.2394 0.0
C1218 C 0.40075 0.1801 0.23355 0.0
C1219 C 0.40546 0.22894 0.17365 0.0
C1220 C 0.39937 0.21504 0.09928 0.0
H1221 H 0.4093 0.22288 0.2956 0.0
H1222 H 0.40841 0.25276 0.18176 0.0
S1223 S 0.38709 0.13368 0.05294 0.0
N1224 N 0.39048 0.136 0.14765 0.0
N1225 N 0.39136 0.16855 0.0243 0.0
C1226 C 0.3958 0.18396 0.09277 0.0
C1227 C 0.39579 0.16638 0.15974 0.0
C1228 C 0.80495 0.18162 0.16752 0.0
C1229 C 0.81953 0.18743 0.09396 0.0
C1230 C 0.82224 0.19963 0.23305 0.0
C1231 C 0.85492 0.22398 0.22791 0.0
H1232 H 0.7802 0.16241 0.17512 0.0
H1233 H 0.81038 0.19346 0.28865 0.0
S1234 S 0.90369 0.25161 0.04927 0.0
N1235 N 0.8681 0.22227 0.0203 0.0
N1236 N 0.90064 0.25421 0.14334 0.0
C1237 C 0.86946 0.23072 0.15489 0.0
C1238 C 0.85179 0.21302 0.08808 0.0
C1239 C 0.64347 0.79294 0.34943 0.0
C1240 C 0.63928 0.80135 0.27443 0.0
C1241 C 0.6444 0.81132 0.41376 0.0
C1242 C 0.64204 0.83948 0.40577 0.0
H1243 H 0.64711 0.77252 0.35823 0.0
H1244 H 0.64797 0.80384 0.47002 0.0
S1245 S 0.63196 0.87243 0.22039 0.0
N1246 N 0.63277 0.83947 0.19527 0.0
N1247 N 0.63547 0.87473 0.31517 0.0
C1248 C 0.63731 0.84781 0.33074 0.0
C1249 C 0.63582 0.82867 0.26539 0.0
C1250 C 0.1908 0.79614 0.34001 0.0
C1251 C 0.19777 0.81048 0.41398 0.0
C1252 C 0.20843 0.81333 0.27424 0.0
C1253 C 0.23338 0.84571 0.27965 0.0
H1254 H 0.1709 0.77173 0.33228 0.0
H1255 H 0.20137 0.80178 0.21834 0.0
S1256 S 0.26363 0.89385 0.45892 0.0
N1257 N 0.2345 0.8582 0.48815 0.0
N1258 N 0.26496 0.89111 0.36442 0.0
C1259 C 0.2412 0.86002 0.35297 0.0
C1260 C 0.22419 0.84226 0.42009 0.0
C1261 C 0.21903 0.40042 0.2743 0.0
C1262 C 0.1864 0.39226 0.27897 0.0
C1263 C 0.23633 0.4003 0.3404 0.0
C1264 C 0.22173 0.39212 0.414 0.0
H1265 H 0.23071 0.40503 0.21858 0.0
H1266 H 0.2609 0.40525 0.33301 0.0
S1267 S 0.13765 0.37259 0.45753 0.0
N1268 N 0.14067 0.37742 0.36321 0.0
N1269 N 0.17339 0.37953 0.48734 0.0
C1270 C 0.18968 0.38607 0.41959 0.0
C1271 C 0.17197 0.38543 0.35221 0.0
C1272 C 0.26271 0.24613 0.09737 0.0
C1273 C 0.25701 0.269 0.06045 0.0
C1274 C 0.29246 0.2473 0.09026 0.0
C1275 C 0.31715 0.27045 0.04325 0.0
H1276 H 0.24374 0.22676 0.13069 0.0
H1277 H 0.29563 0.22909 0.11951 0.0
S1278 S 0.31598 0.33926 0.94577 0.0
N1279 N 0.27971 0.31819 0.98456 0.0
N1280 N 0.33555 0.32013 0.96944 0.0
C1281 C 0.31269 0.2952 0.01157 0.0
C1282 C 0.2825 0.29433 0.02006 0.0
C1283 C 0.75265 0.04093 0.10358 0.0
C1284 C 0.75865 0.04914 0.02511 0.0
C1285 C 0.75166 1.01283 0.13236 0.0
C1286 C 0.7565 0.9922 0.08314 0.0
H1287 H 0.74966 0.05677 0.14318 0.0
H1288 H 0.74808 1.0078 0.19342 0.0
S1289 S 0.77379 1.0027 0.87526 0.0
N1290 N 0.77068 0.03432 0.9008 0.0
N1291 N 0.76716 0.98128 0.95423 0.0
C1292 C 0.7618 0.99972 1.00518 0.0
C1293 C 0.76335 0.02831 0.97629 0.0
C1294 C 0.98383 0.73613 0.11684 0.0
C1295 C 0.98399 0.71838 0.05239 0.0
C1296 C 1.01175 0.76455 0.13966 0.0
C1297 C 0.04109 0.77616 0.09942 0.0
H1298 H 0.96165 0.7286 0.14844 0.0
H1299 H 1.01007 0.77794 0.18801 0.0
S1300 S 0.05542 0.7365 0.93286 0.0
N1301 N 1.01694 0.71255 0.95423 0.0
N1302 N 0.06907 0.76646 0.99534 0.0
C1303 C 0.04207 0.75753 0.03799 0.0
C1304 C 1.01367 0.72845 0.01517 0.0
C1305 C 0.29218 0.26809 0.4852 0.0
C1306 C 0.28297 0.2565 0.40954 0.0
C1307 C 0.29179 0.29579 0.51067 0.0
C1308 C 0.28184 0.31261 0.46175 0.0
H1309 H 0.29848 0.25494 0.52595 0.0
H1310 H 0.29796 0.30315 0.56992 0.0
S1311 S 0.26126 0.29586 0.25524 0.0
N1312 N 0.26785 0.26661 0.28334 0.0
N1313 N 0.26658 0.31834 0.33211 0.0
C1314 C 0.27435 0.30241 0.38506 0.0
C1315 C 0.27501 0.27441 0.35878 0.0
C1316 C 0.72867 1.00334 0.50614 0.0
C1317 C 0.7209 0.97487 0.46505 0.0
C1318 C 0.75757 0.03247 0.49144 0.0
C1319 C 0.77908 0.03399 0.43413 0.0
H1320 H 0.71339 1.00268 0.55289 0.0
H1321 H 0.76392 0.05327 0.52772 0.0
S1322 S 0.76543 0.96891 0.29846 0.0
N1323 N 0.7338 0.95197 0.35581 0.0
N1324 N 0.78796 1.00648 0.32805 0.0
C1325 C 0.7698 1.00667 0.38789 0.0
C1326 C 0.74068 0.97721 0.40313 0.0
C1327 C 1.0046 0.73208 0.48315 0.0
C1328 C 1.00298 0.75496 0.43538 0.0
C1329 C 0.03411 0.73282 0.49507 0.0
C1330 C 0.06295 0.7566 0.45999 0.0
H1331 H 0.98359 0.7151 0.5158 0.0
H1332 H 0.03464 0.71609 0.53634 0.0
S1333 S 0.06863 0.81497 0.31232 0.0
N1334 N 0.03071 0.79737 0.34108 0.0
N1335 N 0.08594 0.79831 0.36212 0.0
C1336 C 0.06056 0.77696 0.40541 0.0
C1337 C 0.03065 0.77627 0.39355 0.0
C1338 C 0.74706 0.78126 0.9255 0.0
C1339 C 0.72108 0.75568 0.96432 0.0
C1340 C 0.77676 0.78248 0.91786 0.0
C1341 C 0.78123 0.75738 0.9458 0.0
H1342 H 0.74495 0.80118 0.90334 0.0
H1343 H 0.79669 0.8037 0.8918 0.0
S1344 S 0.7173 0.6791 0.02367 0.0
N1345 N 0.69916 0.70052 0.01123 0.0
N1346 N 0.75512 0.70268 0.99637 0.0
C1347 C 0.75414 0.72943 0.97402 0.0
C1348 C 0.7239 0.72844 0.98284 0.0
C1349 C 0.25701 1.00017 0.90436 0.0
C1350 C 0.27793 0.02957 0.94156 0.0
C1351 C 0.25891 0.97228 0.91772 0.0
C1352 C 0.28139 0.97225 0.96994 0.0
H1353 H 0.23851 0.99847 0.86534 0.0
H1354 H 0.24188 0.95027 0.88847 0.0
S1355 S 0.34555 0.04422 0.07185 0.0
N1356 N 0.32444 0.05784 0.02608 0.0
N1357 N 0.32851 1.00549 0.04969 0.0
C1358 C 0.30435 1.00209 1.00239 0.0
C1359 C 0.30237 0.03065 0.98893 0.0
C1360 C 0.05872 0.29682 0.89108 0.0
C1361 C 0.05809 0.31032 0.96255 0.0
C1362 C 0.03162 0.26886 0.86274 0.0
C1363 C 1.00289 0.25281 0.90587 0.0
H1364 H 0.08083 0.30727 0.85824 0.0
H1365 H 0.03353 0.25926 0.80778 0.0
S1366 S 0.98984 0.2758 0.10062 0.0
N1367 N 0.02655 0.30453 0.07675 0.0
N1368 N 0.97642 0.251 0.02646 0.0
C1369 C 1.00204 0.26582 0.97782 0.0
C1370 C 0.02938 0.29477 1.00545 0.0
C1371 C 0.71763 0.73282 0.56645 0.0
C1372 C 0.73157 0.74932 0.63547 0.0
C1373 C 0.72731 0.71224 0.53297 0.0
C1374 C 0.75196 0.70806 0.566 0.0
H1375 H 0.69898 0.73573 0.53835 0.0
H1376 H 0.71587 0.7001 0.47968 0.0
S1377 S 0.79533 0.74525 0.74762 0.0
N1378 N 0.77057 0.75967 0.73663 0.0
N1379 N 0.78899 0.72119 0.67342 0.0
C1380 C 0.76587 0.72427 0.6353 0.0
C1381 C 0.75563 0.74483 0.67004 0.0
C1382 C 0.2805 0.99744 0.52745 0.0
C1383 C 0.26749 0.9962 0.60088 0.0
C1384 C 0.30859 0.02536 0.50228 0.0
C1385 C 0.32431 0.05301 0.54936 0.0
H1386 H 0.26817 0.97727 0.48807 0.0
H1387 H 0.31714 0.02568 0.4446 0.0
S1388 S 0.30405 0.05942 0.75123 0.0
N1389 N 0.27529 0.02323 0.72393 0.0
N1390 N 0.32787 0.07558 0.67607 0.0
C1391 C 0.31283 0.05118 0.62434 0.0
C1392 C 0.28446 0.02284 0.65018 0.0
C1393 C 0.98634 0.26021 0.6037 0.0
C1394 C 0.98118 0.28093 0.55519 0.0
C1395 C 1.01744 0.26896 0.63097 0.0
C1396 C 0.04444 0.29875 0.61086 0.0
H1397 H 0.96626 0.23714 0.62116 0.0
H1398 H 0.02033 0.25246 0.66846 0.0
S1399 S 0.04518 0.3613 0.48376 0.0
N1400 N 1.00687 0.3326 0.48695 0.0
N1401 N 0.06465 0.34858 0.53916 0.0
C1402 C 0.03986 0.31957 0.56255 0.0
C1403 C 1.00842 0.31083 0.53465 0.0
loop_
_geom_bond_atom_site_label_1
_geom_bond_atom_site_label_2
_geom_bond_distance
_geom_bond_site_symmetry_2
_ccdc_geom_bond_type
C0 C2 1.422 . S
C0 C4 1.415 . S
C0 N6 1.369 . S
C1 C2 1.421 1_556 S
C1 C3 1.417 . S
C1 C13 1.422 . S
C2 C0 1.422 . S
C2 C1 1.421 1_554 S
C2 N12 1.359 . S
C3 C1 1.417 . S
C3 C5 1.329 1_556 S
C3 H22 0.930 . S
C4 C0 1.415 . S
C4 C5 1.437 . S
C4 C8 1.413 . S
C5 C3 1.329 1_554 S
C5 C4 1.437 . S
C5 H27 0.929 1_455 S
N6 C0 1.369 . S
N6 C7 1.338 . S
N6 Gd11 2.622 . S
C7 N6 1.338 . S
C7 C9 1.378 . S
C7 H19 0.929 . S
C8 C4 1.413 . S
C8 C9 1.348 . S
C8 H24 0.931 1_455 S
C9 C7 1.378 . S
C9 C8 1.348 . S
C9 H25 0.930 . S
Gd10 N30 2.622 . S
Gd10 N37 2.570 . S
Gd10 O44 2.353 . S
Gd10 O45 2.468 . S
Gd10 O46 2.427 . S
Gd10 O48 2.388 1_554 S
Gd10 O49 2.386 . S
Gd10 O53 2.307 . S
Gd10 C63 2.805 . S
Gd11 N6 2.622 . S
Gd11 N12 2.570 . S
Gd11 O43 2.386 . S
Gd11 O47 2.307 . S
Gd11 O50 2.353 . S
Gd11 O51 2.468 . S
Gd11 O52 2.427 . S
Gd11 O54 2.388 . S
Gd11 C75 2.805 . S
N12 C2 1.359 . S
N12 Gd11 2.570 . S
N12 C14 1.343 1_554 S
C13 C1 1.422 . S
C13 C15 1.321 . S
C13 H21 0.931 . S
C14 N12 1.343 1_556 S
C14 C15 1.390 . S
C14 H16 0.931 . S
C15 C13 1.321 . S
C15 C14 1.390 . S
C15 H17 0.930 . S
H16 C14 0.931 . S
H17 C15 0.930 . S
H18 C41 0.931 . S
H19 C7 0.929 . S
H20 C42 0.930 . S
H21 C13 0.931 . S
H22 C3 0.930 . S
H23 C32 0.929 . S
H24 C8 0.931 1_655 S
H25 C9 0.930 . S
H26 C64 0.930 . S
H27 C5 0.929 1_655 S
H28 C33 0.931 . S
H29 C34 0.930 . S
N30 Gd10 2.622 . S
N30 C31 1.369 . S
N30 C32 1.338 1_554 S
C31 N30 1.369 . S
C31 C35 1.415 . S
C31 C38 1.422 . S
C32 H23 0.929 . S
C32 N30 1.338 1_556 S
C32 C34 1.378 . S
C33 H28 0.931 . S
C33 C34 1.348 1_554 S
C33 C35 1.413 . S
C34 H29 0.930 . S
C34 C32 1.378 . S
C34 C33 1.348 1_556 S
C35 C31 1.415 . S
C35 C33 1.413 . S
C35 C65 1.437 . S
H36 C65 0.929 . S
N37 Gd10 2.570 . S
N37 C38 1.359 . S
N37 C41 1.343 . S
C38 C31 1.422 . S
C38 N37 1.359 . S
C38 C40 1.421 . S
C39 C40 1.422 . S
C39 C42 1.321 . S
C39 H66 0.931 . S
C40 C38 1.421 . S
C40 C39 1.422 . S
C40 C64 1.417 . S
C41 H18 0.931 . S
C41 N37 1.343 . S
C41 C42 1.390 . S
C42 H20 0.930 . S
C42 C39 1.321 . S
C42 C41 1.390 . S
O43 Gd11 2.386 . S
O43 C55 1.265 . S
O44 Gd10 2.353 . S
O44 C55 1.242 . S
O45 Gd10 2.468 . S
O45 C63 1.263 . S
O46 Gd10 2.427 . S
O46 C63 1.252 . S
O47 Gd11 2.307 . S
O47 C56 1.261 1_554 S
O48 Gd10 2.388 1_556 S
O48 C56 1.252 . S
O49 Gd10 2.386 . S
O49 C67 1.265 . S
O50 Gd11 2.353 . S
O50 C67 1.242 . S
O51 Gd11 2.468 . S
O51 C75 1.263 . S
O52 Gd11 2.427 . S
O52 C75 1.252 . S
O53 Gd10 2.307 . S
O53 C68 1.261 . S
O54 Gd11 2.388 . S
O54 C68 1.252 . S
C55 O43 1.265 . S
C55 O44 1.242 . S
C56 O47 1.261 1_556 S
C56 O48 1.252 . S
C57 C60 1.394 1_554 S
C57 C62 1.370 . S
C57 C63 1.500 . S
C58 C61 1.389 . S
C58 C62 1.395 . S
C59 C60 1.396 . S
C59 C61 1.361 1_556 S
C59 H76 0.929 . S
C60 C57 1.394 1_556 S
C60 C59 1.396 . S
C60 H77 0.930 . S
C61 C58 1.389 . S
C61 C59 1.361 1_554 S
C61 H78 0.930 1_554 S
C62 C57 1.370 . S
C62 C58 1.395 . S
C62 H79 0.930 . S
C63 Gd10 2.805 . S
C63 O45 1.263 . S
C63 O46 1.252 . S
C63 C57 1.500 . S
C64 H26 0.930 . S
C64 C40 1.417 . S
C64 C65 1.329 . S
C65 C35 1.437 . S
C65 H36 0.929 . S
C65 C64 1.329 . S
H66 C39 0.931 . S
C67 O49 1.265 . S
C67 O50 1.242 . S
C68 O53 1.261 . S
C68 O54 1.252 . S
C69 C72 1.394 . S
C69 C74 1.370 . S
C69 C75 1.500 . S
C70 C73 1.383 . S
C70 C74 1.395 . S
C71 C72 1.396 . S
C71 C73 1.365 . S
C71 H80 0.929 . S
C72 C69 1.394 . S
C72 C71 1.396 . S
C72 H81 0.930 . S
C73 C70 1.383 . S
C73 C71 1.365 . S
C73 H82 0.931 . S
C74 C69 1.370 . S
C74 C70 1.395 . S
C74 H83 0.930 . S
C75 Gd11 2.805 . S
C75 O51 1.263 . S
C75 O52 1.252 . S
C75 C69 1.500 . S
H76 C59 0.929 . S
H77 C60 0.930 . S
H78 C61 0.930 1_556 S
H79 C62 0.930 . S
H80 C71 0.929 . S
H81 C72 0.930 . S
H82 C73 0.931 . S
H83 C74 0.930 . S
C84 C86 1.422 . S
C84 C88 1.415 . S
C84 N90 1.369 . S
C85 C86 1.421 1_556 S
C85 C87 1.417 . S
C85 C97 1.422 . S
C86 C84 1.422 . S
C86 C85 1.421 1_554 S
C86 N96 1.359 . S
C87 C85 1.417 . S
C87 C89 1.329 1_556 S
C87 H106 0.930 . S
C88 C84 1.415 . S
C88 C89 1.437 . S
C88 C92 1.413 . S
C89 C87 1.329 1_554 S
C89 C88 1.437 . S
C89 H111 0.929 . S
N90 C84 1.369 . S
N90 C91 1.338 . S
N90 Gd95 2.622 . S
C91 N90 1.338 . S
C91 C93 1.378 . S
C91 H103 0.929 . S
C92 C88 1.413 . S
C92 C93 1.348 . S
C92 H108 0.931 . S
C93 C91 1.378 . S
C93 C92 1.348 . S
C93 H109 0.930 . S
Gd94 N114 2.622 . S
Gd94 N121 2.570 . S
Gd94 O128 2.353 . S
Gd94 O129 2.468 . S
Gd94 O130 2.427 . S
Gd94 O132 2.388 1_554 S
Gd94 O133 2.386 . S
Gd94 O137 2.307 . S
Gd94 C147 2.805 . S
Gd95 N90 2.622 . S
Gd95 N96 2.570 . S
Gd95 O127 2.386 . S
Gd95 O131 2.307 . S
Gd95 O134 2.353 . S
Gd95 O135 2.468 . S
Gd95 O136 2.427 . S
Gd95 O138 2.388 . S
Gd95 C159 2.805 . S
N96 C86 1.359 . S
N96 Gd95 2.570 . S
N96 C98 1.343 1_554 S
C97 C85 1.422 . S
C97 C99 1.321 . S
C97 H105 0.931 . S
C98 N96 1.343 1_556 S
C98 C99 1.390 . S
C98 H100 0.931 . S
C99 C97 1.321 . S
C99 C98 1.390 . S
C99 H101 0.930 . S
H100 C98 0.931 . S
H101 C99 0.930 . S
H102 C125 0.931 . S
H103 C91 0.929 . S
H104 C126 0.930 . S
H105 C97 0.931 . S
H106 C87 0.930 . S
H107 C116 0.929 . S
H108 C92 0.931 . S
H109 C93 0.930 . S
H110 C148 0.930 . S
H111 C89 0.929 . S
H112 C117 0.931 . S
H113 C118 0.930 . S
N114 Gd94 2.622 . S
N114 C115 1.369 . S
N114 C116 1.338 1_554 S
C115 N114 1.369 . S
C115 C119 1.415 . S
C115 C122 1.422 . S
C116 H107 0.929 . S
C116 N114 1.338 1_556 S
C116 C118 1.378 . S
C117 H112 0.931 . S
C117 C118 1.348 1_554 S
C117 C119 1.413 . S
C118 H113 0.930 . S
C118 C116 1.378 . S
C118 C117 1.348 1_556 S
C119 C115 1.415 . S
C119 C117 1.413 . S
C119 C149 1.437 . S
H120 C149 0.929 . S
N121 Gd94 2.570 . S
N121 C122 1.359 . S
N121 C125 1.343 . S
C122 C115 1.422 . S
C122 N121 1.359 . S
C122 C124 1.421 . S
C123 C124 1.422 . S
C123 C126 1.321 . S
C123 H150 0.931 . S
C124 C122 1.421 . S
C124 C123 1.422 . S
C124 C148 1.417 . S
C125 H102 0.931 . S
C125 N121 1.343 . S
C125 C126 1.390 . S
C126 H104 0.930 . S
C126 C123 1.321 . S
C126 C125 1.390 . S
O127 Gd95 2.386 . S
O127 C139 1.265 . S
O128 Gd94 2.353 . S
O128 C139 1.242 . S
O129 Gd94 2.468 . S
O129 C147 1.263 . S
O130 Gd94 2.427 . S
O130 C147 1.252 . S
O131 Gd95 2.307 . S
O131 C140 1.261 1_554 S
O132 Gd94 2.388 1_556 S
O132 C140 1.252 . S
O133 Gd94 2.386 . S
O133 C151 1.265 . S
O134 Gd95 2.353 . S
O134 C151 1.242 . S
O135 Gd95 2.468 . S
O135 C159 1.263 . S
O136 Gd95 2.427 . S
O136 C159 1.252 . S
O137 Gd94 2.307 . S
O137 C152 1.261 . S
O138 Gd95 2.388 . S
O138 C152 1.252 . S
C139 O127 1.265 . S
C139 O128 1.242 . S
C140 O131 1.261 1_556 S
C140 O132 1.252 . S
C141 C144 1.394 1_554 S
C141 C146 1.370 . S
C141 C147 1.500 . S
C142 C145 1.388 . S
C142 C146 1.395 . S
C143 C144 1.396 . S
C143 C145 1.362 1_556 S
C143 H160 0.929 . S
C144 C141 1.394 1_556 S
C144 C143 1.396 . S
C144 H161 0.930 . S
C145 C142 1.388 . S
C145 C143 1.362 1_554 S
C145 H162 0.930 1_554 S
C146 C141 1.370 . S
C146 C142 1.395 . S
C146 H163 0.930 . S
C147 Gd94 2.805 . S
C147 O129 1.263 . S
C147 O130 1.252 . S
C147 C141 1.500 . S
C148 H110 0.930 . S
C148 C124 1.417 . S
C148 C149 1.329 . S
C149 C119 1.437 . S
C149 H120 0.929 . S
C149 C148 1.329 . S
H150 C123 0.931 . S
C151 O133 1.265 . S
C151 O134 1.242 . S
C152 O137 1.261 . S
C152 O138 1.252 . S
C153 C156 1.394 . S
C153 C158 1.370 . S
C153 C159 1.500 . S
C154 C157 1.383 . S
C154 C158 1.395 . S
C155 C156 1.396 . S
C155 C157 1.365 . S
C155 H164 0.929 . S
C156 C153 1.394 . S
C156 C155 1.396 . S
C156 H165 0.930 . S
C157 C154 1.383 . S
C157 C155 1.365 . S
C157 H166 0.931 . S
C158 C153 1.370 . S
C158 C154 1.395 . S
C158 H167 0.930 . S
C159 Gd95 2.805 . S
C159 O135 1.263 . S
C159 O136 1.252 . S
C159 C153 1.500 . S
H160 C143 0.929 . S
H161 C144 0.930 . S
H162 C145 0.930 1_556 S
H163 C146 0.930 . S
H164 C155 0.929 . S
H165 C156 0.930 . S
H166 C157 0.931 . S
H167 C158 0.930 . S
C168 C170 1.422 . S
C168 C172 1.415 . S
C168 N174 1.369 . S
C169 C170 1.421 1_556 S
C169 C171 1.417 . S
C169 C181 1.422 . S
C170 C168 1.422 . S
C170 C169 1.421 1_554 S
C170 N180 1.359 . S
C171 C169 1.417 . S
C171 C173 1.329 1_556 S
C171 H190 0.930 . S
C172 C168 1.415 . S
C172 C173 1.437 . S
C172 C176 1.413 . S
C173 C171 1.329 1_554 S
C173 C172 1.437 . S
C173 H195 0.929 1_565 S
N174 C168 1.369 . S
N174 C175 1.338 . S
N174 Gd179 2.622 . S
C175 N174 1.338 . S
C175 C177 1.378 . S
C175 H187 0.929 . S
C176 C172 1.413 . S
C176 C177 1.348 . S
C176 H192 0.931 1_565 S
C177 C175 1.378 . S
C177 C176 1.348 . S
C177 H193 0.930 . S
Gd178 N198 2.622 . S
Gd178 N205 2.570 . S
Gd178 O212 2.353 . S
Gd178 O213 2.468 . S
Gd178 O214 2.427 . S
Gd178 O216 2.388 1_554 S
Gd178 O217 2.386 . S
Gd178 O221 2.307 . S
Gd178 C231 2.805 . S
Gd179 N174 2.622 . S
Gd179 N180 2.570 . S
Gd179 O211 2.386 . S
Gd179 O215 2.307 . S
Gd179 O218 2.353 . S
Gd179 O219 2.468 . S
Gd179 O220 2.427 . S
Gd179 O222 2.388 . S
Gd179 C243 2.805 . S
N180 C170 1.359 . S
N180 Gd179 2.570 . S
N180 C182 1.343 1_554 S
C181 C169 1.422 . S
C181 C183 1.321 . S
C181 H189 0.931 . S
C182 N180 1.343 1_556 S
C182 C183 1.390 . S
C182 H184 0.931 . S
C183 C181 1.321 . S
C183 C182 1.390 . S
C183 H185 0.930 . S
H184 C182 0.931 . S
H185 C183 0.930 . S
H186 C209 0.931 . S
H187 C175 0.929 . S
H188 C210 0.930 . S
H189 C181 0.931 . S
H190 C171 0.930 . S
H191 C200 0.929 . S
H192 C176 0.931 1_545 S
H193 C177 0.930 . S
H194 C232 0.930 . S
H195 C173 0.929 1_545 S
H196 C201 0.931 . S
H197 C202 0.930 . S
N198 Gd178 2.622 . S
N198 C199 1.369 . S
N198 C200 1.338 1_554 S
C199 N198 1.369 . S
C199 C203 1.415 . S
C199 C206 1.422 . S
C200 H191 0.929 . S
C200 N198 1.338 1_556 S
C200 C202 1.378 . S
C201 H196 0.931 . S
C201 C202 1.348 1_554 S
C201 C203 1.413 . S
C202 H197 0.930 . S
C202 C200 1.378 . S
C202 C201 1.348 1_556 S
C203 C199 1.415 . S
C203 C201 1.413 . S
C203 C233 1.437 . S
H204 C233 0.929 . S
N205 Gd178 2.570 . S
N205 C206 1.359 . S
N205 C209 1.343 . S
C206 C199 1.422 . S
C206 N205 1.359 . S
C206 C208 1.421 . S
C207 C208 1.422 . S
C207 C210 1.321 . S
C207 H234 0.931 . S
C208 C206 1.421 . S
C208 C207 1.422 . S
C208 C232 1.417 . S
C209 H186 0.931 . S
C209 N205 1.343 . S
C209 C210 1.390 . S
C210 H188 0.930 . S
C210 C207 1.321 . S
C210 C209 1.390 . S
O211 Gd179 2.386 . S
O211 C223 1.265 . S
O212 Gd178 2.353 . S
O212 C223 1.242 . S
O213 Gd178 2.468 . S
O213 C231 1.263 . S
O214 Gd178 2.427 . S
O214 C231 1.252 . S
O215 Gd179 2.307 . S
O215 C224 1.261 1_554 S
O216 Gd178 2.388 1_556 S
O216 C224 1.252 . S
O217 Gd178 2.386 . S
O217 C235 1.265 . S
O218 Gd179 2.353 . S
O218 C235 1.242 . S
O219 Gd179 2.468 . S
O219 C243 1.263 . S
O220 Gd179 2.427 . S
O220 C243 1.252 . S
O221 Gd178 2.307 . S
O221 C236 1.261 . S
O222 Gd179 2.388 . S
O222 C236 1.252 . S
C223 O211 1.265 . S
C223 O212 1.242 . S
C224 O215 1.261 1_556 S
C224 O216 1.252 . S
C225 C228 1.394 1_554 S
C225 C230 1.370 . S
C225 C231 1.500 . S
C226 C229 1.389 . S
C226 C230 1.395 . S
C227 C228 1.396 . S
C227 C229 1.361 1_556 S
C227 H244 0.929 . S
C228 C225 1.394 1_556 S
C228 C227 1.396 . S
C228 H245 0.930 . S
C229 C226 1.389 . S
C229 C227 1.361 1_554 S
C229 H246 0.930 1_554 S
C230 C225 1.370 . S
C230 C226 1.395 . S
C230 H247 0.930 . S
C231 Gd178 2.805 . S
C231 O213 1.263 . S
C231 O214 1.252 . S
C231 C225 1.500 . S
C232 H194 0.930 . S
C232 C208 1.417 . S
C232 C233 1.329 . S
C233 C203 1.437 . S
C233 H204 0.929 . S
C233 C232 1.329 . S
H234 C207 0.931 . S
C235 O217 1.265 . S
C235 O218 1.242 . S
C236 O221 1.261 . S
C236 O222 1.252 . S
C237 C240 1.394 . S
C237 C242 1.370 . S
C237 C243 1.500 . S
C238 C241 1.383 . S
C238 C242 1.395 . S
C239 C240 1.396 . S
C239 C241 1.365 . S
C239 H248 0.929 . S
C240 C237 1.394 . S
C240 C239 1.396 . S
C240 H249 0.930 . S
C241 C238 1.383 . S
C241 C239 1.365 . S
C241 H250 0.931 . S
C242 C237 1.370 . S
C242 C238 1.395 . S
C242 H251 0.930 . S
C243 Gd179 2.805 . S
C243 O219 1.263 . S
C243 O220 1.252 . S
C243 C237 1.500 . S
H244 C227 0.929 . S
H245 C228 0.930 . S
H246 C229 0.930 1_556 S
H247 C230 0.930 . S
H248 C239 0.929 . S
H249 C240 0.930 . S
H250 C241 0.931 . S
H251 C242 0.930 . S
C252 C254 1.422 . S
C252 C256 1.415 . S
C252 N258 1.369 . S
C253 C254 1.421 . S
C253 C255 1.417 . S
C253 C265 1.422 . S
C254 C252 1.422 . S
C254 C253 1.421 . S
C254 N264 1.359 . S
C255 C253 1.417 . S
C255 C257 1.329 . S
C255 H274 0.930 . S
C256 C252 1.415 . S
C256 C257 1.437 . S
C256 C260 1.413 . S
C257 C255 1.329 . S
C257 C256 1.437 . S
C257 H279 0.929 1_545 S
N258 C252 1.369 . S
N258 C259 1.338 . S
N258 Gd263 2.622 . S
C259 N258 1.338 . S
C259 C261 1.378 . S
C259 H271 0.929 . S
C260 C256 1.413 . S
C260 C261 1.348 . S
C260 H276 0.931 1_545 S
C261 C259 1.378 . S
C261 C260 1.348 . S
C261 H277 0.930 . S
Gd262 N282 2.622 . S
Gd262 N289 2.570 . S
Gd262 O296 2.353 . S
Gd262 O297 2.468 . S
Gd262 O298 2.427 . S
Gd262 O300 2.388 . S
Gd262 O301 2.386 . S
Gd262 O305 2.307 . S
Gd262 C315 2.805 . S
Gd263 N258 2.622 . S
Gd263 N264 2.570 . S
Gd263 O295 2.386 . S
Gd263 O299 2.307 . S
Gd263 O302 2.353 . S
Gd263 O303 2.468 . S
Gd263 O304 2.427 . S
Gd263 O306 2.388 . S
Gd263 C327 2.805 . S
N264 C254 1.359 . S
N264 Gd263 2.570 . S
N264 C266 1.343 . S
C265 C253 1.422 . S
C265 C267 1.321 . S
C265 H273 0.931 . S
C266 N264 1.343 . S
C266 C267 1.390 . S
C266 H268 0.931 . S
C267 C265 1.321 . S
C267 C266 1.390 . S
C267 H269 0.930 . S
H268 C266 0.931 . S
H269 C267 0.930 . S
H270 C293 0.931 . S
H271 C259 0.929 . S
H272 C294 0.930 . S
H273 C265 0.931 . S
H274 C255 0.930 . S
H275 C284 0.929 . S
H276 C260 0.931 1_565 S
H277 C261 0.930 . S
H278 C316 0.930 . S
H279 C257 0.929 1_565 S
H280 C285 0.931 . S
H281 C286 0.930 . S
N282 Gd262 2.622 . S
N282 C283 1.369 . S
N282 C284 1.338 . S
C283 N282 1.369 . S
C283 C287 1.415 . S
C283 C290 1.422 . S
C284 H275 0.929 . S
C284 N282 1.338 . S
C284 C286 1.378 . S
C285 H280 0.931 . S
C285 C286 1.348 . S
C285 C287 1.413 . S
C286 H281 0.930 . S
C286 C284 1.378 . S
C286 C285 1.348 . S
C287 C283 1.415 . S
C287 C285 1.413 . S
C287 C317 1.437 . S
H288 C317 0.929 . S
N289 Gd262 2.570 . S
N289 C290 1.359 . S
N289 C293 1.343 . S
C290 C283 1.422 . S
C290 N289 1.359 . S
C290 C292 1.421 . S
C291 C292 1.422 . S
C291 C294 1.321 . S
C291 H318 0.931 . S
C292 C290 1.421 . S
C292 C291 1.422 . S
C292 C316 1.417 . S
C293 H270 0.931 . S
C293 N289 1.343 . S
C293 C294 1.390 . S
C294 H272 0.930 . S
C294 C291 1.321 . S
C294 C293 1.390 . S
O295 Gd263 2.386 . S
O295 C307 1.265 . S
O296 Gd262 2.353 . S
O296 C307 1.242 . S
O297 Gd262 2.468 . S
O297 C315 1.263 . S
O298 Gd262 2.427 . S
O298 C315 1.252 . S
O299 Gd263 2.307 . S
O299 C308 1.261 . S
O300 Gd262 2.388 . S
O300 C308 1.252 . S
O301 Gd262 2.386 . S
O301 C319 1.265 . S
O302 Gd263 2.353 . S
O302 C319 1.242 . S
O303 Gd263 2.468 . S
O303 C327 1.263 . S
O304 Gd263 2.427 . S
O304 C327 1.252 . S
O305 Gd262 2.307 . S
O305 C320 1.261 . S
O306 Gd263 2.388 . S
O306 C320 1.252 . S
C307 O295 1.265 . S
C307 O296 1.242 . S
C308 O299 1.261 . S
C308 O300 1.252 . S
C309 C312 1.394 . S
C309 C314 1.370 . S
C309 C315 1.500 . S
C310 C313 1.383 . S
C310 C314 1.395 . S
C311 C312 1.396 . S
C311 C313 1.365 . S
C311 H328 0.929 . S
C312 C309 1.394 . S
C312 C311 1.396 . S
C312 H329 0.930 . S
C313 C310 1.383 . S
C313 C311 1.365 . S
C313 H330 0.931 . S
C314 C309 1.370 . S
C314 C310 1.395 . S
C314 H331 0.930 . S
C315 Gd262 2.805 . S
C315 O297 1.263 . S
C315 O298 1.252 . S
C315 C309 1.500 . S
C316 H278 0.930 . S
C316 C292 1.417 . S
C316 C317 1.329 . S
C317 C287 1.437 . S
C317 H288 0.929 . S
C317 C316 1.329 . S
H318 C291 0.931 . S
C319 O301 1.265 . S
C319 O302 1.242 . S
C320 O305 1.261 . S
C320 O306 1.252 . S
C321 C324 1.394 . S
C321 C326 1.370 . S
C321 C327 1.500 . S
C322 C325 1.383 . S
C322 C326 1.395 . S
C323 C324 1.396 . S
C323 C325 1.365 . S
C323 H332 0.929 . S
C324 C321 1.394 . S
C324 C323 1.396 . S
C324 H333 0.930 . S
C325 C322 1.383 . S
C325 C323 1.365 . S
C325 H334 0.931 . S
C326 C321 1.370 . S
C326 C322 1.395 . S
C326 H335 0.930 . S
C327 Gd263 2.805 . S
C327 O303 1.263 . S
C327 O304 1.252 . S
C327 C321 1.500 . S
H328 C311 0.929 . S
H329 C312 0.930 . S
H330 C313 0.931 . S
H331 C314 0.930 . S
H332 C323 0.929 . S
H333 C324 0.930 . S
H334 C325 0.931 . S
H335 C326 0.930 . S
C336 C338 1.422 . S
C336 C340 1.415 . S
C336 N342 1.369 . S
C337 C338 1.421 . S
C337 C339 1.417 . S
C337 C349 1.422 . S
C338 C336 1.422 . S
C338 C337 1.421 . S
C338 N348 1.359 . S
C339 C337 1.417 . S
C339 C341 1.329 . S
C339 H358 0.930 . S
C340 C336 1.415 . S
C340 C341 1.437 . S
C340 C344 1.413 . S
C341 C339 1.329 . S
C341 C340 1.437 . S
C341 H363 0.929 1_655 S
N342 C336 1.369 . S
N342 C343 1.338 . S
N342 Gd347 2.622 . S
C343 N342 1.338 . S
C343 C345 1.378 . S
C343 H355 0.929 . S
C344 C340 1.413 . S
C344 C345 1.348 . S
C344 H360 0.931 1_655 S
C345 C343 1.378 . S
C345 C344 1.348 . S
C345 H361 0.930 . S
Gd346 N366 2.622 . S
Gd346 N373 2.570 . S
Gd346 O380 2.353 . S
Gd346 O381 2.468 . S
Gd346 O382 2.427 . S
Gd346 O384 2.388 . S
Gd346 O385 2.386 . S
Gd346 O389 2.307 . S
Gd346 C399 2.805 . S
Gd347 N342 2.622 . S
Gd347 N348 2.570 . S
Gd347 O379 2.386 . S
Gd347 O383 2.307 . S
Gd347 O386 2.353 . S
Gd347 O387 2.468 . S
Gd347 O388 2.427 . S
Gd347 O390 2.388 . S
Gd347 C411 2.805 . S
N348 C338 1.359 . S
N348 Gd347 2.570 . S
N348 C350 1.343 . S
C349 C337 1.422 . S
C349 C351 1.321 . S
C349 H357 0.931 . S
C350 N348 1.343 . S
C350 C351 1.390 . S
C350 H352 0.931 . S
C351 C349 1.321 . S
C351 C350 1.390 . S
C351 H353 0.930 . S
H352 C350 0.931 . S
H353 C351 0.930 . S
H354 C377 0.931 . S
H355 C343 0.929 . S
H356 C378 0.930 . S
H357 C349 0.931 . S
H358 C339 0.930 . S
H359 C368 0.929 . S
H360 C344 0.931 1_455 S
H361 C345 0.930 . S
H362 C400 0.930 . S
H363 C341 0.929 1_455 S
H364 C369 0.931 . S
H365 C370 0.930 . S
N366 Gd346 2.622 . S
N366 C367 1.369 . S
N366 C368 1.338 . S
C367 N366 1.369 . S
C367 C371 1.415 . S
C367 C374 1.422 . S
C368 H359 0.929 . S
C368 N366 1.338 . S
C368 C370 1.378 . S
C369 H364 0.931 . S
C369 C370 1.348 . S
C369 C371 1.413 . S
C370 H365 0.930 . S
C370 C368 1.378 . S
C370 C369 1.348 . S
C371 C367 1.415 . S
C371 C369 1.413 . S
C371 C401 1.437 . S
H372 C401 0.929 . S
N373 Gd346 2.570 . S
N373 C374 1.359 . S
N373 C377 1.343 . S
C374 C367 1.422 . S
C374 N373 1.359 . S
C374 C376 1.421 . S
C375 C376 1.422 . S
C375 C378 1.321 . S
C375 H402 0.931 . S
C376 C374 1.421 . S
C376 C375 1.422 . S
C376 C400 1.417 . S
C377 H354 0.931 . S
C377 N373 1.343 . S
C377 C378 1.390 . S
C378 H356 0.930 . S
C378 C375 1.321 . S
C378 C377 1.390 . S
O379 Gd347 2.386 . S
O379 C391 1.265 . S
O380 Gd346 2.353 . S
O380 C391 1.242 . S
O381 Gd346 2.468 . S
O381 C399 1.263 . S
O382 Gd346 2.427 . S
O382 C399 1.252 . S
O383 Gd347 2.307 . S
O383 C392 1.261 . S
O384 Gd346 2.388 . S
O384 C392 1.252 . S
O385 Gd346 2.386 . S
O385 C403 1.265 . S
O386 Gd347 2.353 . S
O386 C403 1.242 . S
O387 Gd347 2.468 . S
O387 C411 1.263 . S
O388 Gd347 2.427 . S
O388 C411 1.252 . S
O389 Gd346 2.307 . S
O389 C404 1.261 . S
O390 Gd347 2.388 . S
O390 C404 1.252 . S
C391 O379 1.265 . S
C391 O380 1.242 . S
C392 O383 1.261 . S
C392 O384 1.252 . S
C393 C396 1.394 . S
C393 C398 1.370 . S
C393 C399 1.500 . S
C394 C397 1.383 . S
C394 C398 1.395 . S
C395 C396 1.396 . S
C395 C397 1.365 . S
C395 H412 0.929 . S
C396 C393 1.394 . S
C396 C395 1.396 . S
C396 H413 0.930 . S
C397 C394 1.383 . S
C397 C395 1.365 . S
C397 H414 0.931 . S
C398 C393 1.370 . S
C398 C394 1.395 . S
C398 H415 0.930 . S
C399 Gd346 2.805 . S
C399 O381 1.263 . S
C399 O382 1.252 . S
C399 C393 1.500 . S
C400 H362 0.930 . S
C400 C376 1.417 . S
C400 C401 1.329 . S
C401 C371 1.437 . S
C401 H372 0.929 . S
C401 C400 1.329 . S
H402 C375 0.931 . S
C403 O385 1.265 . S
C403 O386 1.242 . S
C404 O389 1.261 . S
C404 O390 1.252 . S
C405 C408 1.394 . S
C405 C410 1.370 . S
C405 C411 1.500 . S
C406 C409 1.383 . S
C406 C410 1.395 . S
C407 C408 1.396 . S
C407 C409 1.365 . S
C407 H416 0.929 . S
C408 C405 1.394 . S
C408 C407 1.396 . S
C408 H417 0.930 . S
C409 C406 1.383 . S
C409 C407 1.365 . S
C409 H418 0.931 . S
C410 C405 1.370 . S
C410 C406 1.395 . S
C410 H419 0.930 . S
C411 Gd347 2.805 . S
C411 O387 1.263 . S
C411 O388 1.252 . S
C411 C405 1.500 . S
H412 C395 0.929 . S
H413 C396 0.930 . S
H414 C397 0.931 . S
H415 C398 0.930 . S
H416 C407 0.929 . S
H417 C408 0.930 . S
H418 C409 0.931 . S
H419 C410 0.930 . S
C420 C422 1.422 . S
C420 C424 1.415 . S
C420 N426 1.369 . S
C421 C422 1.421 . S
C421 C423 1.417 . S
C421 C433 1.422 . S
C422 C420 1.422 . S
C422 C421 1.421 . S
C422 N432 1.359 . S
C423 C421 1.417 . S
C423 C425 1.329 . S
C423 H442 0.930 . S
C424 C420 1.415 . S
C424 C425 1.437 . S
C424 C428 1.413 . S
C425 C423 1.329 . S
C425 C424 1.437 . S
C425 H447 0.929 . S
N426 C420 1.369 . S
N426 C427 1.338 . S
N426 Gd431 2.622 . S
C427 N426 1.338 . S
C427 C429 1.378 . S
C427 H439 0.929 . S
C428 C424 1.413 . S
C428 C429 1.348 . S
C428 H444 0.931 . S
C429 C427 1.378 . S
C429 C428 1.348 . S
C429 H445 0.930 . S
Gd430 N450 2.622 . S
Gd430 N457 2.570 . S
Gd430 O464 2.353 . S
Gd430 O465 2.468 . S
Gd430 O466 2.427 . S
Gd430 O468 2.388 . S
Gd430 O469 2.386 . S
Gd430 O473 2.307 . S
Gd430 C483 2.805 . S
Gd431 N426 2.622 . S
Gd431 N432 2.570 . S
Gd431 O463 2.386 . S
Gd431 O467 2.307 . S
Gd431 O470 2.353 . S
Gd431 O471 2.468 . S
Gd431 O472 2.427 . S
Gd431 O474 2.388 . S
Gd431 C495 2.805 . S
N432 C422 1.359 . S
N432 Gd431 2.570 . S
N432 C434 1.343 . S
C433 C421 1.422 . S
C433 C435 1.321 . S
C433 H441 0.931 . S
C434 N432 1.343 . S
C434 C435 1.390 . S
C434 H436 0.931 . S
C435 C433 1.321 . S
C435 C434 1.390 . S
C435 H437 0.930 . S
H436 C434 0.931 . S
H437 C435 0.930 . S
H438 C461 0.931 . S
H439 C427 0.929 . S
H440 C462 0.930 . S
H441 C433 0.931 . S
H442 C423 0.930 . S
H443 C452 0.929 . S
H444 C428 0.931 . S
H445 C429 0.930 . S
H446 C484 0.930 . S
H447 C425 0.929 . S
H448 C453 0.931 . S
H449 C454 0.930 . S
N450 Gd430 2.622 . S
N450 C451 1.369 . S
N450 C452 1.338 . S
C451 N450 1.369 . S
C451 C455 1.415 . S
C451 C458 1.422 . S
C452 H443 0.929 . S
C452 N450 1.338 . S
C452 C454 1.378 . S
C453 H448 0.931 . S
C453 C454 1.348 . S
C453 C455 1.413 . S
C454 H449 0.930 . S
C454 C452 1.378 . S
C454 C453 1.348 . S
C455 C451 1.415 . S
C455 C453 1.413 . S
C455 C485 1.437 . S
H456 C485 0.929 . S
N457 Gd430 2.570 . S
N457 C458 1.359 . S
N457 C461 1.343 . S
C458 C451 1.422 . S
C458 N457 1.359 . S
C458 C460 1.421 . S
C459 C460 1.422 . S
C459 C462 1.321 . S
C459 H486 0.931 . S
C460 C458 1.421 . S
C460 C459 1.422 . S
C460 C484 1.417 . S
C461 H438 0.931 . S
C461 N457 1.343 . S
C461 C462 1.390 . S
C462 H440 0.930 . S
C462 C459 1.321 . S
C462 C461 1.390 . S
O463 Gd431 2.386 . S
O463 C475 1.265 . S
O464 Gd430 2.353 . S
O464 C475 1.242 . S
O465 Gd430 2.468 . S
O465 C483 1.263 . S
O466 Gd430 2.427 . S
O466 C483 1.252 . S
O467 Gd431 2.307 . S
O467 C476 1.261 . S
O468 Gd430 2.388 . S
O468 C476 1.252 . S
O469 Gd430 2.386 . S
O469 C487 1.265 . S
O470 Gd431 2.353 . S
O470 C487 1.242 . S
O471 Gd431 2.468 . S
O471 C495 1.263 . S
O472 Gd431 2.427 . S
O472 C495 1.252 . S
O473 Gd430 2.307 . S
O473 C488 1.261 . S
O474 Gd431 2.388 . S
O474 C488 1.252 . S
C475 O463 1.265 . S
C475 O464 1.242 . S
C476 O467 1.261 . S
C476 O468 1.252 . S
C477 C480 1.394 . S
C477 C482 1.370 . S
C477 C483 1.500 . S
C478 C481 1.383 . S
C478 C482 1.395 . S
C479 C480 1.396 . S
C479 C481 1.365 . S
C479 H496 0.929 . S
C480 C477 1.394 . S
C480 C479 1.396 . S
C480 H497 0.930 . S
C481 C478 1.383 . S
C481 C479 1.365 . S
C481 H498 0.931 . S
C482 C477 1.370 . S
C482 C478 1.395 . S
C482 H499 0.930 . S
C483 Gd430 2.805 . S
C483 O465 1.263 . S
C483 O466 1.252 . S
C483 C477 1.500 . S
C484 H446 0.930 . S
C484 C460 1.417 . S
C484 C485 1.329 . S
C485 C455 1.437 . S
C485 H456 0.929 . S
C485 C484 1.329 . S
H486 C459 0.931 . S
C487 O469 1.265 . S
C487 O470 1.242 . S
C488 O473 1.261 . S
C488 O474 1.252 . S
C489 C492 1.394 . S
C489 C494 1.370 . S
C489 C495 1.500 . S
C490 C493 1.383 . S
C490 C494 1.395 . S
C491 C492 1.396 . S
C491 C493 1.365 . S
C491 H500 0.929 . S
C492 C489 1.394 . S
C492 C491 1.396 . S
C492 H501 0.930 . S
C493 C490 1.383 . S
C493 C491 1.365 . S
C493 H502 0.931 . S
C494 C489 1.370 . S
C494 C490 1.395 . S
C494 H503 0.930 . S
C495 Gd431 2.805 . S
C495 O471 1.263 . S
C495 O472 1.252 . S
C495 C489 1.500 . S
H496 C479 0.929 . S
H497 C480 0.930 . S
H498 C481 0.931 . S
H499 C482 0.930 . S
H500 C491 0.929 . S
H501 C492 0.930 . S
H502 C493 0.931 . S
H503 C494 0.930 . S
C504 C506 1.422 . S
C504 C508 1.415 . S
C504 N510 1.369 . S
C505 C506 1.421 . S
C505 C507 1.417 . S
C505 C517 1.422 . S
C506 C504 1.422 . S
C506 C505 1.421 . S
C506 N516 1.359 . S
C507 C505 1.417 . S
C507 C509 1.329 . S
C507 H526 0.930 . S
C508 C504 1.415 . S
C508 C509 1.437 . S
C508 C512 1.413 . S
C509 C507 1.329 . S
C509 C508 1.437 . S
C509 H531 0.929 . S
N510 C504 1.369 . S
N510 C511 1.338 1_556 S
N510 Gd515 2.622 . S
C511 N510 1.338 1_554 S
C511 C513 1.378 . S
C511 H523 0.929 . S
C512 C508 1.413 . S
C512 C513 1.348 1_556 S
C512 H528 0.931 . S
C513 C511 1.378 . S
C513 C512 1.348 1_554 S
C513 H529 0.930 . S
Gd514 N534 2.622 . S
Gd514 N541 2.570 . S
Gd514 O548 2.353 . S
Gd514 O549 2.468 . S
Gd514 O550 2.427 . S
Gd514 O552 2.388 . S
Gd514 O553 2.386 . S
Gd514 O557 2.307 . S
Gd514 C567 2.805 . S
Gd515 N510 2.622 . S
Gd515 N516 2.570 . S
Gd515 O547 2.386 . S
Gd515 O551 2.307 . S
Gd515 O554 2.353 . S
Gd515 O555 2.468 . S
Gd515 O556 2.427 . S
Gd515 O558 2.388 1_556 S
Gd515 C579 2.805 . S
N516 C506 1.359 . S
N516 Gd515 2.570 . S
N516 C518 1.343 . S
C517 C505 1.422 . S
C517 C519 1.321 . S
C517 H525 0.931 . S
C518 N516 1.343 . S
C518 C519 1.390 . S
C518 H520 0.931 . S
C519 C517 1.321 . S
C519 C518 1.390 . S
C519 H521 0.930 . S
H520 C518 0.931 . S
H521 C519 0.930 . S
H522 C545 0.931 . S
H523 C511 0.929 . S
H524 C546 0.930 . S
H525 C517 0.931 . S
H526 C507 0.930 . S
H527 C536 0.929 . S
H528 C512 0.931 . S
H529 C513 0.930 . S
H530 C568 0.930 . S
H531 C509 0.929 . S
H532 C537 0.931 1_455 S
H533 C538 0.930 . S
N534 Gd514 2.622 . S
N534 C535 1.369 . S
N534 C536 1.338 . S
C535 N534 1.369 . S
C535 C539 1.415 . S
C535 C542 1.422 . S
C536 H527 0.929 . S
C536 N534 1.338 . S
C536 C538 1.378 . S
C537 H532 0.931 1_655 S
C537 C538 1.348 . S
C537 C539 1.413 . S
C538 H533 0.930 . S
C538 C536 1.378 . S
C538 C537 1.348 . S
C539 C535 1.415 . S
C539 C537 1.413 . S
C539 C569 1.437 . S
H540 C569 0.929 1_455 S
N541 Gd514 2.570 . S
N541 C542 1.359 . S
N541 C545 1.343 1_556 S
C542 C535 1.422 . S
C542 N541 1.359 . S
C542 C544 1.421 1_556 S
C543 C544 1.422 . S
C543 C546 1.321 . S
C543 H570 0.931 . S
C544 C542 1.421 1_554 S
C544 C543 1.422 . S
C544 C568 1.417 . S
C545 H522 0.931 . S
C545 N541 1.343 1_554 S
C545 C546 1.390 . S
C546 H524 0.930 . S
C546 C543 1.321 . S
C546 C545 1.390 . S
O547 Gd515 2.386 . S
O547 C559 1.265 . S
O548 Gd514 2.353 . S
O548 C559 1.242 . S
O549 Gd514 2.468 . S
O549 C567 1.263 . S
O550 Gd514 2.427 . S
O550 C567 1.252 . S
O551 Gd515 2.307 . S
O551 C560 1.261 . S
O552 Gd514 2.388 . S
O552 C560 1.252 . S
O553 Gd514 2.386 . S
O553 C571 1.265 . S
O554 Gd515 2.353 . S
O554 C571 1.242 . S
O555 Gd515 2.468 . S
O555 C579 1.263 . S
O556 Gd515 2.427 . S
O556 C579 1.252 . S
O557 Gd514 2.307 . S
O557 C572 1.261 1_556 S
O558 Gd515 2.388 1_554 S
O558 C572 1.252 . S
C559 O547 1.265 . S
C559 O548 1.242 . S
C560 O551 1.261 . S
C560 O552 1.252 . S
C561 C564 1.394 . S
C561 C566 1.370 . S
C561 C567 1.500 . S
C562 C565 1.383 . S
C562 C566 1.395 . S
C563 C564 1.396 . S
C563 C565 1.365 . S
C563 H580 0.929 . S
C564 C561 1.394 . S
C564 C563 1.396 . S
C564 H581 0.930 . S
C565 C562 1.383 . S
C565 C563 1.365 . S
C565 H582 0.931 . S
C566 C561 1.370 . S
C566 C562 1.395 . S
C566 H583 0.930 . S
C567 Gd514 2.805 . S
C567 O549 1.263 . S
C567 O550 1.252 . S
C567 C561 1.500 . S
C568 H530 0.930 . S
C568 C544 1.417 . S
C568 C569 1.329 1_554 S
C569 C539 1.437 . S
C569 H540 0.929 1_655 S
C569 C568 1.329 1_556 S
H570 C543 0.931 . S
C571 O553 1.265 . S
C571 O554 1.242 . S
C572 O557 1.261 1_554 S
C572 O558 1.252 . S
C573 C576 1.394 1_556 S
C573 C578 1.370 . S
C573 C579 1.500 . S
C574 C577 1.389 . S
C574 C578 1.395 . S
C575 C576 1.396 . S
C575 C577 1.361 1_554 S
C575 H584 0.929 . S
C576 C573 1.394 1_554 S
C576 C575 1.396 . S
C576 H585 0.930 . S
C577 C574 1.389 . S
C577 C575 1.361 1_556 S
C577 H586 0.930 1_556 S
C578 C573 1.370 . S
C578 C574 1.395 . S
C578 H587 0.930 . S
C579 Gd515 2.805 . S
C579 O555 1.263 . S
C579 O556 1.252 . S
C579 C573 1.500 . S
H580 C563 0.929 . S
H581 C564 0.930 . S
H582 C565 0.931 . S
H583 C566 0.930 . S
H584 C575 0.929 . S
H585 C576 0.930 . S
H586 C577 0.930 1_554 S
H587 C578 0.930 . S
C588 C590 1.422 . S
C588 C592 1.415 . S
C588 N594 1.369 . S
C589 C590 1.421 . S
C589 C591 1.417 . S
C589 C601 1.422 . S
C590 C588 1.422 . S
C590 C589 1.421 . S
C590 N600 1.359 . S
C591 C589 1.417 . S
C591 C593 1.329 . S
C591 H610 0.930 . S
C592 C588 1.415 . S
C592 C593 1.437 . S
C592 C596 1.413 . S
C593 C591 1.329 . S
C593 C592 1.437 . S
C593 H615 0.929 . S
N594 C588 1.369 . S
N594 C595 1.338 1_556 S
N594 Gd599 2.622 . S
C595 N594 1.338 1_554 S
C595 C597 1.378 . S
C595 H607 0.929 . S
C596 C592 1.413 . S
C596 C597 1.348 1_556 S
C596 H612 0.931 . S
C597 C595 1.378 . S
C597 C596 1.348 1_554 S
C597 H613 0.930 . S
Gd598 N618 2.622 . S
Gd598 N625 2.570 . S
Gd598 O632 2.353 . S
Gd598 O633 2.468 . S
Gd598 O634 2.427 . S
Gd598 O636 2.388 . S
Gd598 O637 2.386 . S
Gd598 O641 2.307 . S
Gd598 C651 2.805 . S
Gd599 N594 2.622 . S
Gd599 N600 2.570 . S
Gd599 O631 2.386 . S
Gd599 O635 2.307 . S
Gd599 O638 2.353 . S
Gd599 O639 2.468 . S
Gd599 O640 2.427 . S
Gd599 O642 2.388 1_556 S
Gd599 C663 2.805 . S
N600 C590 1.359 . S
N600 Gd599 2.570 . S
N600 C602 1.343 . S
C601 C589 1.422 . S
C601 C603 1.321 . S
C601 H609 0.931 . S
C602 N600 1.343 . S
C602 C603 1.390 . S
C602 H604 0.931 . S
C603 C601 1.321 . S
C603 C602 1.390 . S
C603 H605 0.930 . S
H604 C602 0.931 . S
H605 C603 0.930 . S
H606 C629 0.931 . S
H607 C595 0.929 . S
H608 C630 0.930 . S
H609 C601 0.931 . S
H610 C591 0.930 . S
H611 C620 0.929 . S
H612 C596 0.931 . S
H613 C597 0.930 . S
H614 C652 0.930 . S
H615 C593 0.929 . S
H616 C621 0.931 . S
H617 C622 0.930 . S
N618 Gd598 2.622 . S
N618 C619 1.369 . S
N618 C620 1.338 . S
C619 N618 1.369 . S
C619 C623 1.415 . S
C619 C626 1.422 . S
C620 H611 0.929 . S
C620 N618 1.338 . S
C620 C622 1.378 . S
C621 H616 0.931 . S
C621 C622 1.348 . S
C621 C623 1.413 . S
C622 H617 0.930 . S
C622 C620 1.378 . S
C622 C621 1.348 . S
C623 C619 1.415 . S
C623 C621 1.413 . S
C623 C653 1.437 . S
H624 C653 0.929 . S
N625 Gd598 2.570 . S
N625 C626 1.359 . S
N625 C629 1.343 1_556 S
C626 C619 1.422 . S
C626 N625 1.359 . S
C626 C628 1.421 1_556 S
C627 C628 1.422 . S
C627 C630 1.321 . S
C627 H654 0.931 . S
C628 C626 1.421 1_554 S
C628 C627 1.422 . S
C628 C652 1.417 . S
C629 H606 0.931 . S
C629 N625 1.343 1_554 S
C629 C630 1.390 . S
C630 H608 0.930 . S
C630 C627 1.321 . S
C630 C629 1.390 . S
O631 Gd599 2.386 . S
O631 C643 1.265 . S
O632 Gd598 2.353 . S
O632 C643 1.242 . S
O633 Gd598 2.468 . S
O633 C651 1.263 . S
O634 Gd598 2.427 . S
O634 C651 1.252 . S
O635 Gd599 2.307 . S
O635 C644 1.261 . S
O636 Gd598 2.388 . S
O636 C644 1.252 . S
O637 Gd598 2.386 . S
O637 C655 1.265 . S
O638 Gd599 2.353 . S
O638 C655 1.242 . S
O639 Gd599 2.468 . S
O639 C663 1.263 . S
O640 Gd599 2.427 . S
O640 C663 1.252 . S
O641 Gd598 2.307 . S
O641 C656 1.261 1_556 S
O642 Gd599 2.388 1_554 S
O642 C656 1.252 . S
C643 O631 1.265 . S
C643 O632 1.242 . S
C644 O635 1.261 . S
C644 O636 1.252 . S
C645 C648 1.394 . S
C645 C650 1.370 . S
C645 C651 1.500 . S
C646 C649 1.383 . S
C646 C650 1.395 . S
C647 C648 1.396 . S
C647 C649 1.365 . S
C647 H664 0.929 . S
C648 C645 1.394 . S
C648 C647 1.396 . S
C648 H665 0.930 . S
C649 C646 1.383 . S
C649 C647 1.365 . S
C649 H666 0.931 . S
C650 C645 1.370 . S
C650 C646 1.395 . S
C650 H667 0.930 . S
C651 Gd598 2.805 . S
C651 O633 1.263 . S
C651 O634 1.252 . S
C651 C645 1.500 . S
C652 H614 0.930 . S
C652 C628 1.417 . S
C652 C653 1.329 1_554 S
C653 C623 1.437 . S
C653 H624 0.929 . S
C653 C652 1.329 1_556 S
H654 C627 0.931 . S
C655 O637 1.265 . S
C655 O638 1.242 . S
C656 O641 1.261 1_554 S
C656 O642 1.252 . S
C657 C660 1.394 1_556 S
C657 C662 1.370 . S
C657 C663 1.500 . S
C658 C661 1.388 . S
C658 C662 1.395 . S
C659 C660 1.396 . S
C659 C661 1.362 1_554 S
C659 H668 0.929 . S
C660 C657 1.394 1_554 S
C660 C659 1.396 . S
C660 H669 0.930 . S
C661 C658 1.388 . S
C661 C659 1.362 1_556 S
C661 H670 0.930 1_556 S
C662 C657 1.370 . S
C662 C658 1.395 . S
C662 H671 0.930 . S
C663 Gd599 2.805 . S
C663 O639 1.263 . S
C663 O640 1.252 . S
C663 C657 1.500 . S
H664 C647 0.929 . S
H665 C648 0.930 . S
H666 C649 0.931 . S
H667 C650 0.930 . S
H668 C659 0.929 . S
H669 C660 0.930 . S
H670 C661 0.930 1_554 S
H671 C662 0.930 . S
C672 C674 1.422 . S
C672 C676 1.415 . S
C672 N678 1.369 . S
C673 C674 1.421 . S
C673 C675 1.417 . S
C673 C685 1.422 . S
C674 C672 1.422 . S
C674 C673 1.421 . S
C674 N684 1.359 . S
C675 C673 1.417 . S
C675 C677 1.329 . S
C675 H694 0.930 . S
C676 C672 1.415 . S
C676 C677 1.437 . S
C676 C680 1.413 . S
C677 C675 1.329 . S
C677 C676 1.437 . S
C677 H699 0.929 . S
N678 C672 1.369 . S
N678 C679 1.338 1_556 S
N678 Gd683 2.622 . S
C679 N678 1.338 1_554 S
C679 C681 1.378 . S
C679 H691 0.929 . S
C680 C676 1.413 . S
C680 C681 1.348 1_556 S
C680 H696 0.931 . S
C681 C679 1.378 . S
C681 C680 1.348 1_554 S
C681 H697 0.930 . S
Gd682 N702 2.622 . S
Gd682 N709 2.570 . S
Gd682 O716 2.353 . S
Gd682 O717 2.468 . S
Gd682 O718 2.427 . S
Gd682 O720 2.388 . S
Gd682 O721 2.386 . S
Gd682 O725 2.307 . S
Gd682 C735 2.805 . S
Gd683 N678 2.622 . S
Gd683 N684 2.570 . S
Gd683 O715 2.386 . S
Gd683 O719 2.307 . S
Gd683 O722 2.353 . S
Gd683 O723 2.468 . S
Gd683 O724 2.427 . S
Gd683 O726 2.388 1_556 S
Gd683 C747 2.805 . S
N684 C674 1.359 . S
N684 Gd683 2.570 . S
N684 C686 1.343 . S
C685 C673 1.422 . S
C685 C687 1.321 . S
C685 H693 0.931 . S
C686 N684 1.343 . S
C686 C687 1.390 . S
C686 H688 0.931 . S
C687 C685 1.321 . S
C687 C686 1.390 . S
C687 H689 0.930 . S
H688 C686 0.931 . S
H689 C687 0.930 . S
H690 C713 0.931 . S
H691 C679 0.929 . S
H692 C714 0.930 . S
H693 C685 0.931 . S
H694 C675 0.930 . S
H695 C704 0.929 . S
H696 C680 0.931 . S
H697 C681 0.930 . S
H698 C736 0.930 . S
H699 C677 0.929 . S
H700 C705 0.931 1_565 S
H701 C706 0.930 . S
N702 Gd682 2.622 . S
N702 C703 1.369 . S
N702 C704 1.338 . S
C703 N702 1.369 . S
C703 C707 1.415 . S
C703 C710 1.422 . S
C704 H695 0.929 . S
C704 N702 1.338 . S
C704 C706 1.378 . S
C705 H700 0.931 1_545 S
C705 C706 1.348 . S
C705 C707 1.413 . S
C706 H701 0.930 . S
C706 C704 1.378 . S
C706 C705 1.348 . S
C707 C703 1.415 . S
C707 C705 1.413 . S
C707 C737 1.437 . S
H708 C737 0.929 1_565 S
N709 Gd682 2.570 . S
N709 C710 1.359 . S
N709 C713 1.343 1_556 S
C710 C703 1.422 . S
C710 N709 1.359 . S
C710 C712 1.421 1_556 S
C711 C712 1.422 . S
C711 C714 1.321 . S
C711 H738 0.931 . S
C712 C710 1.421 1_554 S
C712 C711 1.422 . S
C712 C736 1.417 . S
C713 H690 0.931 . S
C713 N709 1.343 1_554 S
C713 C714 1.390 . S
C714 H692 0.930 . S
C714 C711 1.321 . S
C714 C713 1.390 . S
O715 Gd683 2.386 . S
O715 C727 1.265 . S
O716 Gd682 2.353 . S
O716 C727 1.242 . S
O717 Gd682 2.468 . S
O717 C735 1.263 . S
O718 Gd682 2.427 . S
O718 C735 1.252 . S
O719 Gd683 2.307 . S
O719 C728 1.261 . S
O720 Gd682 2.388 . S
O720 C728 1.252 . S
O721 Gd682 2.386 . S
O721 C739 1.265 . S
O722 Gd683 2.353 . S
O722 C739 1.242 . S
O723 Gd683 2.468 . S
O723 C747 1.263 . S
O724 Gd683 2.427 . S
O724 C747 1.252 . S
O725 Gd682 2.307 . S
O725 C740 1.261 1_556 S
O726 Gd683 2.388 1_554 S
O726 C740 1.252 . S
C727 O715 1.265 . S
C727 O716 1.242 . S
C728 O719 1.261 . S
C728 O720 1.252 . S
C729 C732 1.394 . S
C729 C734 1.370 . S
C729 C735 1.500 . S
C730 C733 1.383 . S
C730 C734 1.395 . S
C731 C732 1.396 . S
C731 C733 1.365 . S
C731 H748 0.929 . S
C732 C729 1.394 . S
C732 C731 1.396 . S
C732 H749 0.930 . S
C733 C730 1.383 . S
C733 C731 1.365 . S
C733 H750 0.931 . S
C734 C729 1.370 . S
C734 C730 1.395 . S
C734 H751 0.930 . S
C735 Gd682 2.805 . S
C735 O717 1.263 . S
C735 O718 1.252 . S
C735 C729 1.500 . S
C736 H698 0.930 . S
C736 C712 1.417 . S
C736 C737 1.329 1_554 S
C737 C707 1.437 . S
C737 H708 0.929 1_545 S
C737 C736 1.329 1_556 S
H738 C711 0.931 . S
C739 O721 1.265 . S
C739 O722 1.242 . S
C740 O725 1.261 1_554 S
C740 O726 1.252 . S
C741 C744 1.394 1_556 S
C741 C746 1.370 . S
C741 C747 1.500 . S
C742 C745 1.389 . S
C742 C746 1.395 . S
C743 C744 1.396 . S
C743 C745 1.361 1_554 S
C743 H752 0.929 . S
C744 C741 1.394 1_554 S
C744 C743 1.396 . S
C744 H753 0.930 . S
C745 C742 1.389 . S
C745 C743 1.361 1_556 S
C745 H754 0.930 1_556 S
C746 C741 1.370 . S
C746 C742 1.395 . S
C746 H755 0.930 . S
C747 Gd683 2.805 . S
C747 O723 1.263 . S
C747 O724 1.252 . S
C747 C741 1.500 . S
H748 C731 0.929 . S
H749 C732 0.930 . S
H750 C733 0.931 . S
H751 C734 0.930 . S
H752 C743 0.929 . S
H753 C744 0.930 . S
H754 C745 0.930 1_554 S
H755 C746 0.930 . S
C756 C758 1.422 . S
C756 C760 1.415 . S
C756 N762 1.369 . S
C757 C758 1.421 . S
C757 C759 1.417 . S
C757 C769 1.422 . S
C758 C756 1.422 . S
C758 C757 1.421 . S
C758 N768 1.359 . S
C759 C757 1.417 . S
C759 C761 1.329 . S
C759 H778 0.930 . S
C760 C756 1.415 . S
C760 C761 1.437 . S
C760 C764 1.413 . S
C761 C759 1.329 . S
C761 C760 1.437 . S
C761 H783 0.929 . S
N762 C756 1.369 . S
N762 C763 1.338 . S
N762 Gd767 2.622 . S
C763 N762 1.338 . S
C763 C765 1.378 . S
C763 H775 0.929 . S
C764 C760 1.413 . S
C764 C765 1.348 . S
C764 H780 0.931 . S
C765 C763 1.378 . S
C765 C764 1.348 . S
C765 H781 0.930 . S
Gd766 N786 2.622 . S
Gd766 N793 2.570 . S
Gd766 O800 2.353 . S
Gd766 O801 2.468 . S
Gd766 O802 2.427 . S
Gd766 O804 2.388 . S
Gd766 O805 2.386 . S
Gd766 O809 2.307 . S
Gd766 C819 2.805 . S
Gd767 N762 2.622 . S
Gd767 N768 2.570 . S
Gd767 O799 2.386 . S
Gd767 O803 2.307 . S
Gd767 O806 2.353 . S
Gd767 O807 2.468 . S
Gd767 O808 2.427 . S
Gd767 O810 2.388 . S
Gd767 C831 2.805 . S
N768 C758 1.359 . S
N768 Gd767 2.570 . S
N768 C770 1.343 . S
C769 C757 1.422 . S
C769 C771 1.321 . S
C769 H777 0.931 . S
C770 N768 1.343 . S
C770 C771 1.390 . S
C770 H772 0.931 . S
C771 C769 1.321 . S
C771 C770 1.390 . S
C771 H773 0.930 . S
H772 C770 0.931 . S
H773 C771 0.930 . S
H774 C797 0.931 . S
H775 C763 0.929 . S
H776 C798 0.930 . S
H777 C769 0.931 . S
H778 C759 0.930 . S
H779 C788 0.929 . S
H780 C764 0.931 . S
H781 C765 0.930 . S
H782 C820 0.930 . S
H783 C761 0.929 . S
H784 C789 0.931 1_545 S
H785 C790 0.930 . S
N786 Gd766 2.622 . S
N786 C787 1.369 . S
N786 C788 1.338 . S
C787 N786 1.369 . S
C787 C791 1.415 . S
C787 C794 1.422 . S
C788 H779 0.929 . S
C788 N786 1.338 . S
C788 C790 1.378 . S
C789 H784 0.931 1_565 S
C789 C790 1.348 . S
C789 C791 1.413 . S
C790 H785 0.930 . S
C790 C788 1.378 . S
C790 C789 1.348 . S
C791 C787 1.415 . S
C791 C789 1.413 . S
C791 C821 1.437 . S
H792 C821 0.929 1_545 S
N793 Gd766 2.570 . S
N793 C794 1.359 . S
N793 C797 1.343 . S
C794 C787 1.422 . S
C794 N793 1.359 . S
C794 C796 1.421 . S
C795 C796 1.422 . S
C795 C798 1.321 . S
C795 H822 0.931 . S
C796 C794 1.421 . S
C796 C795 1.422 . S
C796 C820 1.417 . S
C797 H774 0.931 . S
C797 N793 1.343 . S
C797 C798 1.390 . S
C798 H776 0.930 . S
C798 C795 1.321 . S
C798 C797 1.390 . S
O799 Gd767 2.386 . S
O799 C811 1.265 . S
O800 Gd766 2.353 . S
O800 C811 1.242 . S
O801 Gd766 2.468 . S
O801 C819 1.263 . S
O802 Gd766 2.427 . S
O802 C819 1.252 . S
O803 Gd767 2.307 . S
O803 C812 1.261 . S
O804 Gd766 2.388 . S
O804 C812 1.252 . S
O805 Gd766 2.386 . S
O805 C823 1.265 . S
O806 Gd767 2.353 . S
O806 C823 1.242 . S
O807 Gd767 2.468 . S
O807 C831 1.263 . S
O808 Gd767 2.427 . S
O808 C831 1.252 . S
O809 Gd766 2.307 . S
O809 C824 1.261 . S
O810 Gd767 2.388 . S
O810 C824 1.252 . S
C811 O799 1.265 . S
C811 O800 1.242 . S
C812 O803 1.261 . S
C812 O804 1.252 . S
C813 C816 1.394 . S
C813 C818 1.370 . S
C813 C819 1.500 . S
C814 C817 1.383 . S
C814 C818 1.395 . S
C815 C816 1.396 . S
C815 C817 1.365 . S
C815 H832 0.929 . S
C816 C813 1.394 . S
C816 C815 1.396 . S
C816 H833 0.930 . S
C817 C814 1.383 . S
C817 C815 1.365 . S
C817 H834 0.931 . S
C818 C813 1.370 . S
C818 C814 1.395 . S
C818 H835 0.930 . S
C819 Gd766 2.805 . S
C819 O801 1.263 . S
C819 O802 1.252 . S
C819 C813 1.500 . S
C820 H782 0.930 . S
C820 C796 1.417 . S
C820 C821 1.329 . S
C821 C791 1.437 . S
C821 H792 0.929 1_565 S
C821 C820 1.329 . S
H822 C795 0.931 . S
C823 O805 1.265 . S
C823 O806 1.242 . S
C824 O809 1.261 . S
C824 O810 1.252 . S
C825 C828 1.394 . S
C825 C830 1.370 . S
C825 C831 1.500 . S
C826 C829 1.383 . S
C826 C830 1.395 . S
C827 C828 1.396 . S
C827 C829 1.365 . S
C827 H836 0.929 . S
C828 C825 1.394 . S
C828 C827 1.396 . S
C828 H837 0.930 . S
C829 C826 1.383 . S
C829 C827 1.365 . S
C829 H838 0.931 . S
C830 C825 1.370 . S
C830 C826 1.395 . S
C830 H839 0.930 . S
C831 Gd767 2.805 . S
C831 O807 1.263 . S
C831 O808 1.252 . S
C831 C825 1.500 . S
H832 C815 0.929 . S
H833 C816 0.930 . S
H834 C817 0.931 . S
H835 C818 0.930 . S
H836 C827 0.929 . S
H837 C828 0.930 . S
H838 C829 0.931 . S
H839 C830 0.930 . S
C840 C842 1.422 . S
C840 C844 1.415 . S
C840 N846 1.369 . S
C841 C842 1.421 . S
C841 C843 1.417 . S
C841 C853 1.422 . S
C842 C840 1.422 . S
C842 C841 1.421 . S
C842 N852 1.359 . S
C843 C841 1.417 . S
C843 C845 1.329 . S
C843 H862 0.930 . S
C844 C840 1.415 . S
C844 C845 1.437 . S
C844 C848 1.413 . S
C845 C843 1.329 . S
C845 C844 1.437 . S
C845 H867 0.929 . S
N846 C840 1.369 . S
N846 C847 1.338 . S
N846 Gd851 2.622 . S
C847 N846 1.338 . S
C847 C849 1.378 . S
C847 H859 0.929 . S
C848 C844 1.413 . S
C848 C849 1.348 . S
C848 H864 0.931 . S
C849 C847 1.378 . S
C849 C848 1.348 . S
C849 H865 0.930 . S
Gd850 N870 2.622 . S
Gd850 N877 2.570 . S
Gd850 O884 2.353 . S
Gd850 O885 2.468 . S
Gd850 O886 2.427 . S
Gd850 O888 2.388 . S
Gd850 O889 2.386 . S
Gd850 O893 2.307 . S
Gd850 C903 2.805 . S
Gd851 N846 2.622 . S
Gd851 N852 2.570 . S
Gd851 O883 2.386 . S
Gd851 O887 2.307 . S
Gd851 O890 2.353 . S
Gd851 O891 2.468 . S
Gd851 O892 2.427 . S
Gd851 O894 2.388 . S
Gd851 C915 2.805 . S
N852 C842 1.359 . S
N852 Gd851 2.570 . S
N852 C854 1.343 . S
C853 C841 1.422 . S
C853 C855 1.321 . S
C853 H861 0.931 . S
C854 N852 1.343 . S
C854 C855 1.390 . S
C854 H856 0.931 . S
C855 C853 1.321 . S
C855 C854 1.390 . S
C855 H857 0.930 . S
H856 C854 0.931 . S
H857 C855 0.930 . S
H858 C881 0.931 . S
H859 C847 0.929 . S
H860 C882 0.930 . S
H861 C853 0.931 . S
H862 C843 0.930 . S
H863 C872 0.929 . S
H864 C848 0.931 . S
H865 C849 0.930 . S
H866 C904 0.930 . S
H867 C845 0.929 . S
H868 C873 0.931 1_655 S
H869 C874 0.930 . S
N870 Gd850 2.622 . S
N870 C871 1.369 . S
N870 C872 1.338 . S
C871 N870 1.369 . S
C871 C875 1.415 . S
C871 C878 1.422 . S
C872 H863 0.929 . S
C872 N870 1.338 . S
C872 C874 1.378 . S
C873 H868 0.931 1_455 S
C873 C874 1.348 . S
C873 C875 1.413 . S
C874 H869 0.930 . S
C874 C872 1.378 . S
C874 C873 1.348 . S
C875 C871 1.415 . S
C875 C873 1.413 . S
C875 C905 1.437 . S
H876 C905 0.929 1_655 S
N877 Gd850 2.570 . S
N877 C878 1.359 . S
N877 C881 1.343 . S
C878 C871 1.422 . S
C878 N877 1.359 . S
C878 C880 1.421 . S
C879 C880 1.422 . S
C879 C882 1.321 . S
C879 H906 0.931 . S
C880 C878 1.421 . S
C880 C879 1.422 . S
C880 C904 1.417 . S
C881 H858 0.931 . S
C881 N877 1.343 . S
C881 C882 1.390 . S
C882 H860 0.930 . S
C882 C879 1.321 . S
C882 C881 1.390 . S
O883 Gd851 2.386 . S
O883 C895 1.265 . S
O884 Gd850 2.353 . S
O884 C895 1.242 . S
O885 Gd850 2.468 . S
O885 C903 1.263 . S
O886 Gd850 2.427 . S
O886 C903 1.252 . S
O887 Gd851 2.307 . S
O887 C896 1.261 . S
O888 Gd850 2.388 . S
O888 C896 1.252 . S
O889 Gd850 2.386 . S
O889 C907 1.265 . S
O890 Gd851 2.353 . S
O890 C907 1.242 . S
O891 Gd851 2.468 . S
O891 C915 1.263 . S
O892 Gd851 2.427 . S
O892 C915 1.252 . S
O893 Gd850 2.307 . S
O893 C908 1.261 . S
O894 Gd851 2.388 . S
O894 C908 1.252 . S
C895 O883 1.265 . S
C895 O884 1.242 . S
C896 O887 1.261 . S
C896 O888 1.252 . S
C897 C900 1.394 . S
C897 C902 1.370 . S
C897 C903 1.500 . S
C898 C901 1.383 . S
C898 C902 1.395 . S
C899 C900 1.396 . S
C899 C901 1.365 . S
C899 H916 0.929 . S
C900 C897 1.394 . S
C900 C899 1.396 . S
C900 H917 0.930 . S
C901 C898 1.383 . S
C901 C899 1.365 . S
C901 H918 0.931 . S
C902 C897 1.370 . S
C902 C898 1.395 . S
C902 H919 0.930 . S
C903 Gd850 2.805 . S
C903 O885 1.263 . S
C903 O886 1.252 . S
C903 C897 1.500 . S
C904 H866 0.930 . S
C904 C880 1.417 . S
C904 C905 1.329 . S
C905 C875 1.437 . S
C905 H876 0.929 1_455 S
C905 C904 1.329 . S
H906 C879 0.931 . S
C907 O889 1.265 . S
C907 O890 1.242 . S
C908 O893 1.261 . S
C908 O894 1.252 . S
C909 C912 1.394 . S
C909 C914 1.370 . S
C909 C915 1.500 . S
C910 C913 1.383 . S
C910 C914 1.395 . S
C911 C912 1.396 . S
C911 C913 1.365 . S
C911 H920 0.929 . S
C912 C909 1.394 . S
C912 C911 1.396 . S
C912 H921 0.930 . S
C913 C910 1.383 . S
C913 C911 1.365 . S
C913 H922 0.931 . S
C914 C909 1.370 . S
C914 C910 1.395 . S
C914 H923 0.930 . S
C915 Gd851 2.805 . S
C915 O891 1.263 . S
C915 O892 1.252 . S
C915 C909 1.500 . S
H916 C899 0.929 . S
H917 C900 0.930 . S
H918 C901 0.931 . S
H919 C902 0.930 . S
H920 C911 0.929 . S
H921 C912 0.930 . S
H922 C913 0.931 . S
H923 C914 0.930 . S
C924 C926 1.422 . S
C924 C928 1.415 . S
C924 N930 1.369 . S
C925 C926 1.421 . S
C925 C927 1.417 . S
C925 C937 1.422 . S
C926 C924 1.422 . S
C926 C925 1.421 . S
C926 N936 1.359 . S
C927 C925 1.417 . S
C927 C929 1.329 . S
C927 H946 0.930 . S
C928 C924 1.415 . S
C928 C929 1.437 . S
C928 C932 1.413 . S
C929 C927 1.329 . S
C929 C928 1.437 . S
C929 H951 0.929 . S
N930 C924 1.369 . S
N930 C931 1.338 . S
N930 Gd935 2.622 . S
C931 N930 1.338 . S
C931 C933 1.378 . S
C931 H943 0.929 . S
C932 C928 1.413 . S
C932 C933 1.348 . S
C932 H948 0.931 . S
C933 C931 1.378 . S
C933 C932 1.348 . S
C933 H949 0.930 . S
Gd934 N954 2.622 . S
Gd934 N961 2.570 . S
Gd934 O968 2.353 . S
Gd934 O969 2.468 . S
Gd934 O970 2.427 . S
Gd934 O972 2.388 . S
Gd934 O973 2.386 . S
Gd934 O977 2.307 . S
Gd934 C987 2.805 . S
Gd935 N930 2.622 . S
Gd935 N936 2.570 . S
Gd935 O967 2.386 . S
Gd935 O971 2.307 . S
Gd935 O974 2.353 . S
Gd935 O975 2.468 . S
Gd935 O976 2.427 . S
Gd935 O978 2.388 . S
Gd935 C999 2.805 . S
N936 C926 1.359 . S
N936 Gd935 2.570 . S
N936 C938 1.343 . S
C937 C925 1.422 . S
C937 C939 1.321 . S
C937 H945 0.931 . S
C938 N936 1.343 . S
C938 C939 1.390 . S
C938 H940 0.931 . S
C939 C937 1.321 . S
C939 C938 1.390 . S
C939 H941 0.930 . S
H940 C938 0.931 . S
H941 C939 0.930 . S
H942 C965 0.931 . S
H943 C931 0.929 . S
H944 C966 0.930 . S
H945 C937 0.931 . S
H946 C927 0.930 . S
H947 C956 0.929 . S
H948 C932 0.931 . S
H949 C933 0.930 . S
H950 C988 0.930 . S
H951 C929 0.929 . S
H952 C957 0.931 . S
H953 C958 0.930 . S
N954 Gd934 2.622 . S
N954 C955 1.369 . S
N954 C956 1.338 . S
C955 N954 1.369 . S
C955 C959 1.415 . S
C955 C962 1.422 . S
C956 H947 0.929 . S
C956 N954 1.338 . S
C956 C958 1.378 . S
C957 H952 0.931 . S
C957 C958 1.348 . S
C957 C959 1.413 . S
C958 H953 0.930 . S
C958 C956 1.378 . S
C958 C957 1.348 . S
C959 C955 1.415 . S
C959 C957 1.413 . S
C959 C989 1.437 . S
H960 C989 0.929 . S
N961 Gd934 2.570 . S
N961 C962 1.359 . S
N961 C965 1.343 . S
C962 C955 1.422 . S
C962 N961 1.359 . S
C962 C964 1.421 . S
C963 C964 1.422 . S
C963 C966 1.321 . S
C963 H990 0.931 . S
C964 C962 1.421 . S
C964 C963 1.422 . S
C964 C988 1.417 . S
C965 H942 0.931 . S
C965 N961 1.343 . S
C965 C966 1.390 . S
C966 H944 0.930 . S
C966 C963 1.321 . S
C966 C965 1.390 . S
O967 Gd935 2.386 . S
O967 C979 1.265 . S
O968 Gd934 2.353 . S
O968 C979 1.242 . S
O969 Gd934 2.468 . S
O969 C987 1.263 . S
O970 Gd934 2.427 . S
O970 C987 1.252 . S
O971 Gd935 2.307 . S
O971 C980 1.261 . S
O972 Gd934 2.388 . S
O972 C980 1.252 . S
O973 Gd934 2.386 . S
O973 C991 1.265 . S
O974 Gd935 2.353 . S
O974 C991 1.242 . S
O975 Gd935 2.468 . S
O975 C999 1.263 . S
O976 Gd935 2.427 . S
O976 C999 1.252 . S
O977 Gd934 2.307 . S
O977 C992 1.261 . S
O978 Gd935 2.388 . S
O978 C992 1.252 . S
C979 O967 1.265 . S
C979 O968 1.242 . S
C980 O971 1.261 . S
C980 O972 1.252 . S
C981 C984 1.394 . S
C981 C986 1.370 . S
C981 C987 1.500 . S
C982 C985 1.383 . S
C982 C986 1.395 . S
C983 C984 1.396 . S
C983 C985 1.365 . S
C983 H1000 0.929 . S
C984 C981 1.394 . S
C984 C983 1.396 . S
C984 H1001 0.930 . S
C985 C982 1.383 . S
C985 C983 1.365 . S
C985 H1002 0.931 . S
C986 C981 1.370 . S
C986 C982 1.395 . S
C986 H1003 0.930 . S
C987 Gd934 2.805 . S
C987 O969 1.263 . S
C987 O970 1.252 . S
C987 C981 1.500 . S
C988 H950 0.930 . S
C988 C964 1.417 . S
C988 C989 1.329 . S
C989 C959 1.437 . S
C989 H960 0.929 . S
C989 C988 1.329 . S
H990 C963 0.931 . S
C991 O973 1.265 . S
C991 O974 1.242 . S
C992 O977 1.261 . S
C992 O978 1.252 . S
C993 C996 1.394 . S
C993 C998 1.370 . S
C993 C999 1.500 . S
C994 C997 1.383 . S
C994 C998 1.395 . S
C995 C996 1.396 . S
C995 C997 1.365 . S
C995 H1004 0.929 . S
C996 C993 1.394 . S
C996 C995 1.396 . S
C996 H1005 0.930 . S
C997 C994 1.383 . S
C997 C995 1.365 . S
C997 H1006 0.931 . S
C998 C993 1.370 . S
C998 C994 1.395 . S
C998 H1007 0.930 . S
C999 Gd935 2.805 . S
C999 O975 1.263 . S
C999 O976 1.252 . S
C999 C993 1.500 . S
H1000 C983 0.929 . S
H1001 C984 0.930 . S
H1002 C985 0.931 . S
H1003 C986 0.930 . S
H1004 C995 0.929 . S
H1005 C996 0.930 . S
H1006 C997 0.931 . S
H1007 C998 0.930 . S
C1008 C1009 1.369 1_656 S
C1008 C1010 1.419 . S
C1008 H1012 0.930 . S
C1009 C1008 1.369 1_454 S
C1009 C1018 1.429 . S
C1010 C1008 1.419 . S
C1010 C1011 1.363 . S
C1010 H1013 0.929 . S
C1011 C1010 1.363 . S
C1011 C1017 1.428 1_656 S
H1012 C1008 0.930 . S
H1013 C1010 0.929 . S
S1014 N1015 1.613 . S
S1014 N1016 1.610 . S
N1015 S1014 1.613 . S
N1015 C1018 1.350 . S
N1016 S1014 1.610 . S
N1016 C1017 1.351 . S
C1017 C1011 1.428 1_454 S
C1017 N1016 1.351 . S
C1017 C1018 1.434 . S
C1018 C1009 1.429 . S
C1018 N1015 1.350 . S
C1018 C1017 1.434 . S
C1019 C1020 1.369 . S
C1019 C1021 1.419 . S
C1019 H1023 0.930 . S
C1020 C1019 1.369 . S
C1020 C1029 1.429 1_556 S
C1021 C1019 1.419 . S
C1021 C1022 1.363 1_556 S
C1021 H1024 0.929 . S
C1022 C1021 1.363 1_554 S
C1022 C1028 1.428 . S
H1023 C1019 0.930 . S
H1024 C1021 0.929 . S
S1025 N1026 1.613 . S
S1025 N1027 1.610 . S
N1026 S1025 1.613 . S
N1026 C1029 1.350 . S
N1027 S1025 1.610 . S
N1027 C1028 1.351 . S
C1028 C1022 1.428 . S
C1028 N1027 1.351 . S
C1028 C1029 1.434 . S
C1029 C1020 1.429 1_554 S
C1029 N1026 1.350 . S
C1029 C1028 1.434 . S
C1030 C1031 1.369 . S
C1030 C1032 1.419 1_556 S
C1030 H1034 0.930 . S
C1031 C1030 1.369 . S
C1031 C1040 1.429 1_545 S
C1032 C1030 1.419 1_554 S
C1032 C1033 1.363 1_545 S
C1032 H1035 0.929 . S
C1033 C1032 1.363 1_565 S
C1033 C1039 1.428 . S
H1034 C1030 0.930 . S
H1035 C1032 0.929 . S
S1036 N1037 1.613 1_554 S
S1036 N1038 1.610 . S
N1037 S1036 1.613 1_556 S
N1037 C1040 1.350 . S
N1038 S1036 1.610 . S
N1038 C1039 1.351 . S
C1039 C1033 1.428 . S
C1039 N1038 1.351 . S
C1039 C1040 1.434 1_554 S
C1040 C1031 1.429 1_565 S
C1040 N1037 1.350 . S
C1040 C1039 1.434 1_556 S
C1041 C1042 1.369 1_565 S
C1041 C1043 1.419 . S
C1041 H1045 0.930 . S
C1042 C1041 1.369 1_545 S
C1042 C1051 1.429 . S
C1043 C1041 1.419 . S
C1043 C1044 1.363 . S
C1043 H1046 0.929 . S
C1044 C1043 1.363 . S
C1044 C1050 1.428 1_565 S
H1045 C1041 0.930 . S
H1046 C1043 0.929 . S
S1047 N1048 1.613 . S
S1047 N1049 1.610 . S
N1048 S1047 1.613 . S
N1048 C1051 1.350 . S
N1049 S1047 1.610 . S
N1049 C1050 1.351 . S
C1050 C1044 1.428 1_545 S
C1050 N1049 1.351 . S
C1050 C1051 1.434 . S
C1051 C1042 1.429 . S
C1051 N1048 1.350 . S
C1051 C1050 1.434 . S
C1052 C1053 1.369 . S
C1052 C1054 1.419 . S
C1052 H1056 0.930 . S
C1053 C1052 1.369 . S
C1053 C1062 1.445 1_455 S
C1054 C1052 1.419 . S
C1054 C1055 1.363 1_455 S
C1054 H1057 0.929 . S
C1055 C1054 1.363 1_655 S
C1055 C1061 1.428 . S
H1056 C1052 0.930 . S
H1057 C1054 0.929 . S
S1058 N1059 1.594 . S
S1058 N1060 1.610 . S
N1059 S1058 1.594 . S
N1059 C1062 1.350 . S
N1060 S1058 1.610 . S
N1060 C1061 1.351 . S
C1061 C1055 1.428 . S
C1061 N1060 1.351 . S
C1061 C1062 1.418 . S
C1062 C1053 1.445 1_655 S
C1062 N1059 1.350 . S
C1062 C1061 1.418 . S
C1063 C1064 1.369 . S
C1063 C1065 1.419 . S
C1063 H1067 0.930 . S
C1064 C1063 1.369 . S
C1064 C1073 1.429 . S
C1065 C1063 1.419 . S
C1065 C1066 1.363 . S
C1065 H1068 0.929 . S
C1066 C1065 1.363 . S
C1066 C1072 1.428 . S
H1067 C1063 0.930 . S
H1068 C1065 0.929 . S
S1069 N1070 1.613 . S
S1069 N1071 1.610 . S
N1070 S1069 1.613 . S
N1070 C1073 1.350 . S
N1071 S1069 1.610 . S
N1071 C1072 1.351 . S
C1072 C1066 1.428 . S
C1072 N1071 1.351 . S
C1072 C1073 1.434 . S
C1073 C1064 1.429 . S
C1073 N1070 1.350 . S
C1073 C1072 1.434 . S
C1074 C1075 1.369 . S
C1074 C1076 1.419 1_655 S
C1074 H1078 0.930 . S
C1075 C1074 1.369 . S
C1075 C1084 1.429 . S
C1076 C1074 1.419 1_455 S
C1076 C1077 1.363 . S
C1076 H1079 0.929 . S
C1077 C1076 1.363 . S
C1077 C1083 1.428 . S
H1078 C1074 0.930 . S
H1079 C1076 0.929 . S
S1080 N1081 1.613 1_455 S
S1080 N1082 1.610 . S
N1081 S1080 1.613 1_655 S
N1081 C1084 1.350 . S
N1082 S1080 1.610 . S
N1082 C1083 1.351 . S
C1083 C1077 1.428 . S
C1083 N1082 1.351 . S
C1083 C1084 1.434 1_455 S
C1084 C1075 1.429 . S
C1084 N1081 1.350 . S
C1084 C1083 1.434 1_655 S
C1085 C1086 1.369 . S
C1085 C1087 1.419 . S
C1085 H1089 0.930 . S
C1086 C1085 1.369 . S
C1086 C1095 1.429 . S
C1087 C1085 1.419 . S
C1087 C1088 1.363 . S
C1087 H1090 0.929 . S
C1088 C1087 1.363 . S
C1088 C1094 1.428 . S
H1089 C1085 0.930 . S
H1090 C1087 0.929 . S
S1091 N1092 1.613 . S
S1091 N1093 1.610 . S
N1092 S1091 1.613 . S
N1092 C1095 1.350 . S
N1093 S1091 1.610 . S
N1093 C1094 1.351 . S
C1094 C1088 1.428 . S
C1094 N1093 1.351 . S
C1094 C1095 1.434 . S
C1095 C1086 1.429 . S
C1095 N1092 1.350 . S
C1095 C1094 1.434 . S
C1096 C1097 1.369 . S
C1096 C1098 1.419 1_545 S
C1096 H1100 0.930 . S
C1097 C1096 1.369 . S
C1097 C1106 1.429 . S
C1098 C1096 1.419 1_565 S
C1098 C1099 1.363 . S
C1098 H1101 0.929 . S
C1099 C1098 1.363 . S
C1099 C1105 1.428 . S
H1100 C1096 0.930 . S
H1101 C1098 0.929 . S
S1102 N1103 1.613 . S
S1102 N1104 1.610 1_545 S
N1103 S1102 1.613 . S
N1103 C1106 1.350 . S
N1104 S1102 1.610 1_565 S
N1104 C1105 1.351 . S
C1105 C1099 1.428 . S
C1105 N1104 1.351 . S
C1105 C1106 1.434 1_565 S
C1106 C1097 1.429 . S
C1106 N1103 1.350 . S
C1106 C1105 1.434 1_545 S
C1107 C1108 1.369 . S
C1107 C1109 1.419 1_455 S
C1107 H1111 0.930 . S
C1108 C1107 1.369 . S
C1108 C1117 1.429 . S
C1109 C1107 1.419 1_655 S
C1109 C1110 1.363 . S
C1109 H1112 0.929 . S
C1110 C1109 1.363 . S
C1110 C1116 1.428 . S
H1111 C1107 0.930 . S
H1112 C1109 0.929 . S
S1113 N1114 1.610 1_655 S
S1113 N1115 1.611 . S
N1114 S1113 1.610 1_455 S
N1114 C1117 1.350 . S
N1115 S1113 1.611 . S
N1115 C1116 1.351 . S
C1116 C1110 1.428 . S
C1116 N1115 1.351 . S
C1116 C1117 1.434 1_655 S
C1117 C1108 1.429 . S
C1117 N1114 1.350 . S
C1117 C1116 1.434 1_455 S
C1118 C1119 1.369 . S
C1118 C1120 1.419 . S
C1118 H1122 0.930 . S
C1119 C1118 1.369 . S
C1119 C1128 1.429 . S
C1120 C1118 1.419 . S
C1120 C1121 1.363 . S
C1120 H1123 0.929 . S
C1121 C1120 1.363 . S
C1121 C1127 1.428 . S
H1122 C1118 0.930 . S
H1123 C1120 0.929 . S
S1124 N1125 1.613 . S
S1124 N1126 1.610 . S
N1125 S1124 1.613 . S
N1125 C1128 1.350 . S
N1126 S1124 1.610 . S
N1126 C1127 1.351 . S
C1127 C1121 1.428 . S
C1127 N1126 1.351 . S
C1127 C1128 1.434 . S
C1128 C1119 1.429 . S
C1128 N1125 1.350 . S
C1128 C1127 1.434 . S
C1129 C1130 1.369 . S
C1129 C1131 1.419 1_545 S
C1129 H1133 0.930 . S
C1130 C1129 1.369 . S
C1130 C1139 1.429 . S
C1131 C1129 1.419 1_565 S
C1131 C1132 1.363 . S
C1131 H1134 0.929 . S
C1132 C1131 1.363 . S
C1132 C1138 1.428 . S
H1133 C1129 0.930 . S
H1134 C1131 0.929 . S
S1135 N1136 1.613 . S
S1135 N1137 1.610 1_545 S
N1136 S1135 1.613 . S
N1136 C1139 1.350 . S
N1137 S1135 1.610 1_565 S
N1137 C1138 1.351 . S
C1138 C1132 1.428 . S
C1138 N1137 1.351 . S
C1138 C1139 1.434 1_565 S
C1139 C1130 1.429 . S
C1139 N1136 1.350 . S
C1139 C1138 1.434 1_545 S
C1140 C1141 1.369 . S
C1140 C1142 1.419 . S
C1140 H1144 0.930 . S
C1141 C1140 1.369 . S
C1141 C1150 1.429 . S
C1142 C1140 1.419 . S
C1142 C1143 1.363 . S
C1142 H1145 0.929 . S
C1143 C1142 1.363 . S
C1143 C1149 1.428 . S
H1144 C1140 0.930 . S
H1145 C1142 0.929 . S
S1146 N1147 1.613 . S
S1146 N1148 1.610 . S
N1147 S1146 1.613 . S
N1147 C1150 1.350 . S
N1148 S1146 1.610 . S
N1148 C1149 1.351 . S
C1149 C1143 1.428 . S
C1149 N1148 1.351 . S
C1149 C1150 1.434 . S
C1150 C1141 1.429 . S
C1150 N1147 1.350 . S
C1150 C1149 1.434 . S
C1151 C1152 1.369 . S
C1151 C1153 1.419 . S
C1151 H1155 0.930 . S
C1152 C1151 1.369 . S
C1152 C1161 1.429 . S
C1153 C1151 1.419 . S
C1153 C1154 1.363 . S
C1153 H1156 0.929 . S
C1154 C1153 1.363 . S
C1154 C1160 1.428 . S
H1155 C1151 0.930 . S
H1156 C1153 0.929 . S
S1157 N1158 1.613 . S
S1157 N1159 1.610 . S
N1158 S1157 1.613 . S
N1158 C1161 1.350 . S
N1159 S1157 1.610 . S
N1159 C1160 1.351 . S
C1160 C1154 1.428 . S
C1160 N1159 1.351 . S
C1160 C1161 1.434 . S
C1161 C1152 1.429 . S
C1161 N1158 1.350 . S
C1161 C1160 1.434 . S
C1162 C1163 1.369 . S
C1162 C1164 1.419 . S
C1162 H1166 0.930 . S
C1163 C1162 1.369 . S
C1163 C1172 1.429 . S
C1164 C1162 1.419 . S
C1164 C1165 1.363 . S
C1164 H1167 0.929 . S
C1165 C1164 1.363 . S
C1165 C1171 1.428 . S
H1166 C1162 0.930 . S
H1167 C1164 0.929 . S
S1168 N1169 1.613 . S
S1168 N1170 1.610 . S
N1169 S1168 1.613 . S
N1169 C1172 1.350 . S
N1170 S1168 1.610 . S
N1170 C1171 1.351 . S
C1171 C1165 1.428 . S
C1171 N1170 1.351 . S
C1171 C1172 1.434 . S
C1172 C1163 1.429 . S
C1172 N1169 1.350 . S
C1172 C1171 1.434 . S
C1173 C1174 1.369 . S
C1173 C1175 1.419 . S
C1173 H1177 0.930 . S
C1174 C1173 1.369 . S
C1174 C1183 1.429 . S
C1175 C1173 1.419 . S
C1175 C1176 1.363 . S
C1175 H1178 0.929 . S
C1176 C1175 1.363 . S
C1176 C1182 1.428 . S
H1177 C1173 0.930 . S
H1178 C1175 0.929 . S
S1179 N1180 1.613 . S
S1179 N1181 1.610 . S
N1180 S1179 1.613 . S
N1180 C1183 1.350 . S
N1181 S1179 1.610 . S
N1181 C1182 1.351 . S
C1182 C1176 1.428 . S
C1182 N1181 1.351 . S
C1182 C1183 1.434 . S
C1183 C1174 1.429 . S
C1183 N1180 1.350 . S
C1183 C1182 1.434 . S
C1184 C1185 1.369 . S
C1184 C1186 1.419 . S
C1184 H1188 0.930 . S
C1185 C1184 1.369 . S
C1185 C1194 1.429 . S
C1186 C1184 1.419 . S
C1186 C1187 1.363 . S
C1186 H1189 0.929 . S
C1187 C1186 1.363 . S
C1187 C1193 1.428 . S
H1188 C1184 0.930 . S
H1189 C1186 0.929 . S
S1190 N1191 1.613 . S
S1190 N1192 1.610 . S
N1191 S1190 1.613 . S
N1191 C1194 1.350 . S
N1192 S1190 1.610 . S
N1192 C1193 1.351 . S
C1193 C1187 1.428 . S
C1193 N1192 1.351 . S
C1193 C1194 1.434 . S
C1194 C1185 1.429 . S
C1194 N1191 1.350 . S
C1194 C1193 1.434 . S
C1195 C1196 1.369 . S
C1195 C1197 1.419 . S
C1195 H1199 0.930 . S
C1196 C1195 1.369 . S
C1196 C1205 1.429 . S
C1197 C1195 1.419 . S
C1197 C1198 1.363 . S
C1197 H1200 0.929 . S
C1198 C1197 1.363 . S
C1198 C1204 1.428 . S
H1199 C1195 0.930 . S
H1200 C1197 0.929 . S
S1201 N1202 1.613 . S
S1201 N1203 1.610 . S
N1202 S1201 1.613 . S
N1202 C1205 1.350 . S
N1203 S1201 1.610 . S
N1203 C1204 1.351 . S
C1204 C1198 1.428 . S
C1204 N1203 1.351 . S
C1204 C1205 1.434 . S
C1205 C1196 1.429 . S
C1205 N1202 1.350 . S
C1205 C1204 1.434 . S
C1206 C1207 1.369 . S
C1206 C1208 1.419 . S
C1206 H1210 0.930 . S
C1207 C1206 1.369 . S
C1207 C1216 1.429 . S
C1208 C1206 1.419 . S
C1208 C1209 1.363 . S
C1208 H1211 0.929 . S
C1209 C1208 1.363 . S
C1209 C1215 1.428 . S
H1210 C1206 0.930 . S
H1211 C1208 0.929 . S
S1212 N1213 1.613 . S
S1212 N1214 1.610 . S
N1213 S1212 1.613 . S
N1213 C1216 1.350 . S
N1214 S1212 1.610 . S
N1214 C1215 1.351 . S
C1215 C1209 1.428 . S
C1215 N1214 1.351 . S
C1215 C1216 1.434 . S
C1216 C1207 1.429 . S
C1216 N1213 1.350 . S
C1216 C1215 1.434 . S
C1217 C1218 1.369 . S
C1217 C1219 1.419 . S
C1217 H1221 0.930 . S
C1218 C1217 1.369 . S
C1218 C1227 1.429 . S
C1219 C1217 1.419 . S
C1219 C1220 1.363 . S
C1219 H1222 0.929 . S
C1220 C1219 1.363 . S
C1220 C1226 1.428 . S
H1221 C1217 0.930 . S
H1222 C1219 0.929 . S
S1223 N1224 1.613 . S
S1223 N1225 1.610 . S
N1224 S1223 1.613 . S
N1224 C1227 1.350 . S
N1225 S1223 1.610 . S
N1225 C1226 1.351 . S
C1226 C1220 1.428 . S
C1226 N1225 1.351 . S
C1226 C1227 1.434 . S
C1227 C1218 1.429 . S
C1227 N1224 1.350 . S
C1227 C1226 1.434 . S
C1228 C1229 1.369 . S
C1228 C1230 1.419 . S
C1228 H1232 0.930 . S
C1229 C1228 1.369 . S
C1229 C1238 1.429 . S
C1230 C1228 1.419 . S
C1230 C1231 1.363 . S
C1230 H1233 0.929 . S
C1231 C1230 1.363 . S
C1231 C1237 1.428 . S
H1232 C1228 0.930 . S
H1233 C1230 0.929 . S
S1234 N1235 1.613 . S
S1234 N1236 1.610 . S
N1235 S1234 1.613 . S
N1235 C1238 1.350 . S
N1236 S1234 1.610 . S
N1236 C1237 1.351 . S
C1237 C1231 1.428 . S
C1237 N1236 1.351 . S
C1237 C1238 1.434 . S
C1238 C1229 1.429 . S
C1238 N1235 1.350 . S
C1238 C1237 1.434 . S
C1239 C1240 1.369 . S
C1239 C1241 1.419 . S
C1239 H1243 0.930 . S
C1240 C1239 1.369 . S
C1240 C1249 1.429 . S
C1241 C1239 1.419 . S
C1241 C1242 1.363 . S
C1241 H1244 0.929 . S
C1242 C1241 1.363 . S
C1242 C1248 1.428 . S
H1243 C1239 0.930 . S
H1244 C1241 0.929 . S
S1245 N1246 1.613 . S
S1245 N1247 1.610 . S
N1246 S1245 1.613 . S
N1246 C1249 1.350 . S
N1247 S1245 1.610 . S
N1247 C1248 1.351 . S
C1248 C1242 1.428 . S
C1248 N1247 1.351 . S
C1248 C1249 1.434 . S
C1249 C1240 1.429 . S
C1249 N1246 1.350 . S
C1249 C1248 1.434 . S
C1250 C1251 1.369 . S
C1250 C1252 1.419 . S
C1250 H1254 0.930 . S
C1251 C1250 1.369 . S
C1251 C1260 1.429 . S
C1252 C1250 1.419 . S
C1252 C1253 1.363 . S
C1252 H1255 0.929 . S
C1253 C1252 1.363 . S
C1253 C1259 1.428 . S
H1254 C1250 0.930 . S
H1255 C1252 0.929 . S
S1256 N1257 1.613 . S
S1256 N1258 1.610 . S
N1257 S1256 1.613 . S
N1257 C1260 1.350 . S
N1258 S1256 1.610 . S
N1258 C1259 1.351 . S
C1259 C1253 1.428 . S
C1259 N1258 1.351 . S
C1259 C1260 1.434 . S
C1260 C1251 1.429 . S
C1260 N1257 1.350 . S
C1260 C1259 1.434 . S
C1261 C1262 1.369 . S
C1261 C1263 1.419 . S
C1261 H1265 0.930 . S
C1262 C1261 1.369 . S
C1262 C1271 1.429 . S
C1263 C1261 1.419 . S
C1263 C1264 1.363 . S
C1263 H1266 0.929 . S
C1264 C1263 1.363 . S
C1264 C1270 1.428 . S
H1265 C1261 0.930 . S
H1266 C1263 0.929 . S
S1267 N1268 1.613 . S
S1267 N1269 1.610 . S
N1268 S1267 1.613 . S
N1268 C1271 1.350 . S
N1269 S1267 1.610 . S
N1269 C1270 1.351 . S
C1270 C1264 1.428 . S
C1270 N1269 1.351 . S
C1270 C1271 1.434 . S
C1271 C1262 1.429 . S
C1271 N1268 1.350 . S
C1271 C1270 1.434 . S
C1272 C1273 1.369 . S
C1272 C1274 1.419 . S
C1272 H1276 0.930 . S
C1273 C1272 1.369 . S
C1273 C1282 1.429 . S
C1274 C1272 1.419 . S
C1274 C1275 1.363 . S
C1274 H1277 0.929 . S
C1275 C1274 1.363 . S
C1275 C1281 1.428 . S
H1276 C1272 0.930 . S
H1277 C1274 0.929 . S
S1278 N1279 1.613 . S
S1278 N1280 1.610 . S
N1279 S1278 1.613 . S
N1279 C1282 1.350 1_556 S
N1280 S1278 1.610 . S
N1280 C1281 1.351 1_556 S
C1281 C1275 1.428 . S
C1281 N1280 1.351 1_554 S
C1281 C1282 1.434 . S
C1282 C1273 1.429 . S
C1282 N1279 1.350 1_554 S
C1282 C1281 1.434 . S
C1283 C1284 1.369 . S
C1283 C1285 1.419 1_545 S
C1283 H1287 0.930 . S
C1284 C1283 1.369 . S
C1284 C1293 1.429 1_554 S
C1285 C1283 1.419 1_565 S
C1285 C1286 1.363 . S
C1285 H1288 0.929 . S
C1286 C1285 1.363 . S
C1286 C1292 1.428 . S
H1287 C1283 0.930 . S
H1288 C1285 0.929 . S
S1289 N1290 1.613 1_565 S
S1289 N1291 1.610 . S
N1290 S1289 1.613 1_545 S
N1290 C1293 1.350 . S
N1291 S1289 1.610 . S
N1291 C1292 1.351 1_556 S
C1292 C1286 1.428 . S
C1292 N1291 1.351 1_554 S
C1292 C1293 1.434 1_564 S
C1293 C1284 1.429 1_556 S
C1293 N1290 1.350 . S
C1293 C1292 1.434 1_546 S
C1294 C1295 1.369 . S
C1294 C1296 1.419 1_655 S
C1294 H1298 0.930 . S
C1295 C1294 1.369 . S
C1295 C1304 1.429 . S
C1296 C1294 1.419 1_455 S
C1296 C1297 1.363 . S
C1296 H1299 0.929 . S
C1297 C1296 1.363 . S
C1297 C1303 1.409 1_455 S
H1298 C1294 0.930 . S
H1299 C1296 0.929 . S
S1300 N1301 1.613 . S
S1300 N1302 1.610 1_556 S
N1301 S1300 1.613 . S
N1301 C1304 1.350 1_556 S
N1302 S1300 1.610 1_554 S
N1302 C1303 1.362 . S
C1303 C1297 1.409 1_655 S
C1303 N1302 1.362 . S
C1303 C1304 1.444 . S
C1304 C1295 1.429 . S
C1304 N1301 1.350 1_554 S
C1304 C1303 1.444 . S
C1305 C1306 1.369 . S
C1305 C1307 1.419 . S
C1305 H1309 0.930 . S
C1306 C1305 1.369 . S
C1306 C1315 1.429 . S
C1307 C1305 1.419 . S
C1307 C1308 1.363 . S
C1307 H1310 0.929 . S
C1308 C1307 1.363 . S
C1308 C1314 1.428 . S
H1309 C1305 0.930 . S
H1310 C1307 0.929 . S
S1311 N1312 1.613 . S
S1311 N1313 1.610 . S
N1312 S1311 1.613 . S
N1312 C1315 1.350 . S
N1313 S1311 1.610 . S
N1313 C1314 1.351 . S
C1314 C1308 1.428 . S
C1314 N1313 1.351 . S
C1314 C1315 1.434 . S
C1315 C1306 1.429 . S
C1315 N1312 1.350 . S
C1315 C1314 1.434 . S
C1316 C1317 1.369 . S
C1316 C1318 1.419 1_565 S
C1316 H1320 0.943 . S
C1317 C1316 1.369 . S
C1317 C1326 1.429 . S
C1318 C1316 1.419 1_545 S
C1318 C1319 1.363 . S
C1318 H1321 0.929 . S
C1319 C1318 1.363 . S
C1319 C1325 1.428 1_545 S
H1320 C1316 0.943 . S
H1321 C1318 0.929 . S
S1322 N1323 1.613 . S
S1322 N1324 1.610 . S
N1323 S1322 1.613 . S
N1323 C1326 1.350 . S
N1324 S1322 1.610 . S
N1324 C1325 1.351 . S
C1325 C1319 1.428 1_565 S
C1325 N1324 1.351 . S
C1325 C1326 1.434 . S
C1326 C1317 1.429 . S
C1326 N1323 1.350 . S
C1326 C1325 1.434 . S
C1327 C1328 1.369 . S
C1327 C1329 1.419 1_655 S
C1327 H1331 0.930 . S
C1328 C1327 1.369 . S
C1328 C1337 1.429 1_655 S
C1329 C1327 1.419 1_455 S
C1329 C1330 1.363 . S
C1329 H1332 0.923 . S
C1330 C1329 1.363 . S
C1330 C1336 1.428 . S
H1331 C1327 0.930 . S
H1332 C1329 0.923 . S
S1333 N1334 1.613 . S
S1333 N1335 1.610 . S
N1334 S1333 1.613 . S
N1334 C1337 1.350 . S
N1335 S1333 1.610 . S
N1335 C1336 1.351 . S
C1336 C1330 1.428 . S
C1336 N1335 1.351 . S
C1336 C1337 1.434 . S
C1337 C1328 1.429 1_455 S
C1337 N1334 1.350 . S
C1337 C1336 1.434 . S
C1338 C1339 1.369 . S
C1338 C1340 1.419 . S
C1338 H1342 0.930 . S
C1339 C1338 1.369 . S
C1339 C1348 1.429 . S
C1340 C1338 1.419 . S
C1340 C1341 1.363 . S
C1340 H1343 0.929 . S
C1341 C1340 1.363 . S
C1341 C1347 1.428 . S
H1342 C1338 0.930 . S
H1343 C1340 0.929 . S
S1344 N1345 1.613 . S
S1344 N1346 1.610 . S
N1345 S1344 1.613 . S
N1345 C1348 1.350 . S
N1346 S1344 1.610 . S
N1346 C1347 1.351 . S
C1347 C1341 1.428 . S
C1347 N1346 1.351 . S
C1347 C1348 1.434 . S
C1348 C1339 1.429 . S
C1348 N1345 1.350 . S
C1348 C1347 1.434 . S
C1349 C1350 1.369 . S
C1349 C1351 1.419 1_545 S
C1349 H1353 0.930 . S
C1350 C1349 1.369 . S
C1350 C1359 1.429 . S
C1351 C1349 1.419 1_565 S
C1351 C1352 1.363 . S
C1351 H1354 0.929 . S
C1352 C1351 1.363 . S
C1352 C1358 1.428 . S
H1353 C1349 0.930 . S
H1354 C1351 0.929 . S
S1355 N1356 1.613 1_564 S
S1355 N1357 1.610 . S
N1356 S1355 1.613 1_546 S
N1356 C1359 1.350 . S
N1357 S1355 1.610 . S
N1357 C1358 1.351 1_554 S
C1358 C1352 1.428 . S
C1358 N1357 1.351 1_556 S
C1358 C1359 1.434 1_565 S
C1359 C1350 1.429 . S
C1359 N1356 1.350 . S
C1359 C1358 1.434 1_545 S
C1360 C1361 1.369 . S
C1360 C1362 1.419 1_455 S
C1360 H1364 0.930 . S
C1361 C1360 1.369 . S
C1361 C1370 1.429 . S
C1362 C1360 1.419 1_655 S
C1362 C1363 1.363 . S
C1362 H1365 0.929 . S
C1363 C1362 1.363 . S
C1363 C1369 1.431 1_655 S
H1364 C1360 0.930 . S
H1365 C1362 0.929 . S
S1366 N1367 1.613 . S
S1366 N1368 1.610 1_554 S
N1367 S1366 1.613 . S
N1367 C1370 1.350 1_554 S
N1368 S1366 1.610 1_556 S
N1368 C1369 1.350 . S
C1369 C1363 1.431 1_455 S
C1369 N1368 1.350 . S
C1369 C1370 1.433 . S
C1370 C1361 1.429 . S
C1370 N1367 1.350 1_556 S
C1370 C1369 1.433 . S
C1371 C1372 1.369 . S
C1371 C1373 1.419 . S
C1371 H1375 0.930 . S
C1372 C1371 1.369 . S
C1372 C1381 1.429 . S
C1373 C1371 1.419 . S
C1373 C1374 1.363 . S
C1373 H1376 0.929 . S
C1374 C1373 1.363 . S
C1374 C1380 1.428 . S
H1375 C1371 0.930 . S
H1376 C1373 0.929 . S
S1377 N1378 1.613 . S
S1377 N1379 1.610 . S
N1378 S1377 1.613 . S
N1378 C1381 1.350 . S
N1379 S1377 1.610 . S
N1379 C1380 1.351 . S
C1380 C1374 1.428 . S
C1380 N1379 1.351 . S
C1380 C1381 1.434 . S
C1381 C1372 1.429 . S
C1381 N1378 1.350 . S
C1381 C1380 1.434 . S
C1382 C1383 1.369 . S
C1382 C1384 1.419 1_565 S
C1382 H1386 0.930 . S
C1383 C1382 1.369 . S
C1383 C1392 1.429 . S
C1384 C1382 1.419 1_545 S
C1384 C1385 1.363 . S
C1384 H1387 0.929 . S
C1385 C1384 1.363 . S
C1385 C1391 1.428 . S
H1386 C1382 0.930 . S
H1387 C1384 0.929 . S
S1388 N1389 1.613 . S
S1388 N1390 1.610 1_565 S
N1389 S1388 1.613 . S
N1389 C1392 1.350 . S
N1390 S1388 1.610 1_545 S
N1390 C1391 1.351 . S
C1391 C1385 1.428 . S
C1391 N1390 1.351 . S
C1391 C1392 1.434 1_545 S
C1392 C1383 1.429 . S
C1392 N1389 1.350 . S
C1392 C1391 1.434 1_565 S
C1393 C1394 1.369 . S
C1393 C1395 1.419 . S
C1393 H1397 0.930 . S
C1394 C1393 1.369 . S
C1394 C1403 1.410 1_655 S
C1395 C1393 1.419 . S
C1395 C1396 1.363 1_655 S
C1395 H1398 0.929 . S
C1396 C1395 1.363 1_455 S
C1396 C1402 1.428 . S
H1397 C1393 0.930 . S
H1398 C1395 0.929 . S
S1399 N1400 1.613 . S
S1399 N1401 1.610 . S
N1400 S1399 1.613 . S
N1400 C1403 1.341 . S
N1401 S1399 1.610 . S
N1401 C1402 1.351 . S
C1402 C1396 1.428 . S
C1402 N1401 1.351 . S
C1402 C1403 1.465 . S
C1403 C1394 1.410 1_455 S
C1403 N1400 1.341 . S
C1403 C1402 1.465 . S
C1009 C58 1.535 . S
C1011 C574 1.531 . S
C1020 C658 1.528 . S
C1022 C142 1.536 . S
C1031 C742 1.541 . S
C1033 C226 1.527 . S
C1042 C310 1.539 . S
C1044 C826 1.528 . S
C1053 C910 1.535 . S
C1055 C394 1.530 . S
C1064 C994 1.529 . S
C1066 C478 1.536 . S
C1075 C404 1.949 . S
C1077 C68 1.953 . S
C1086 C152 1.950 . S
C1088 C488 1.952 . S
C1097 C320 1.957 . S
C1099 C236 1.952 . S
C1108 C896 1.952 . S
C1110 C560 1.951 . S
C1119 C980 1.950 . S
C1121 C644 1.956 . S
C1130 C728 1.956 . S
C1132 C812 1.953 . S
C1141 C979 1.615 . S
C1143 C56 1.620 . S
C1152 C140 1.621 . S
C1154 C811 1.613 . S
C1163 C224 1.625 . S
C1165 C895 1.616 . S
C1174 C308 1.627 . S
C1176 C643 1.613 . S
C1185 C392 1.625 . S
C1187 C727 1.611 . S
C1196 C559 1.618 . S
C1198 C476 1.622 . S
C1207 C572 1.625 . S
C1209 C487 1.611 . S
C1218 C319 1.612 . S
C1220 C656 1.626 . S
C1229 C740 1.625 . S
C1231 C403 1.616 . S
C1240 C151 1.614 . S
C1242 C824 1.620 . S
C1251 C908 1.627 . S
C1253 C235 1.615 . S
C1262 C67 1.616 . S
C1264 C992 1.626 . S
C1273 C70 1.879 . S
C1275 C655 1.795 1_554 S
C1284 C739 1.794 1_554 S
C1286 C154 1.879 . S
C1295 C571 1.793 1_554 S
C1297 C238 1.878 . S
C1306 C322 1.876 . S
C1308 C991 1.798 . S
C1317 C823 1.797 . S
C1319 C406 1.876 . S
C1328 C490 1.875 . S
C1330 C907 1.800 . S
C1339 C139 1.797 1_556 S
C1341 C562 1.879 . S
C1350 C646 1.879 . S
C1352 C223 1.794 1_556 S
C1361 C55 1.794 1_556 S
C1363 C730 1.877 . S
C1372 C814 1.878 . S
C1374 C475 1.795 . S
C1383 C898 1.876 . S
C1385 C307 1.801 . S
C1394 C391 1.798 . S
C1396 C982 1.879 . S
