# Generated by pormake.
# Topology wjz, (5)-cn, num edge types: 1
# Building blocks:
#     Node 0, Type 0, BuildingBlock: XOMCOT_clean_sbu_0, # of connection points: 5
#     Node 1, Type 0, BuildingBlock: XOMCOT_clean_sbu_0, # of connection points: 5
#     Node 2, Type 0, BuildingBlock: XOMCOT_clean_sbu_0, # of connection points: 5
#     Node 3, Type 0, BuildingBlock: XOMCOT_clean_sbu_0, # of connection points: 5
#     Node 4, Type 0, BuildingBlock: XOMCOT_clean_sbu_0, # of connection points: 5
#     Node 5, Type 0, BuildingBlock: XOMCOT_clean_sbu_0, # of connection points: 5
#     Node 6, Type 0, BuildingBlock: XOMCOT_clean_sbu_0, # of connection points: 5
#     Node 7, Type 0, BuildingBlock: XOMCOT_clean_sbu_0, # of connection points: 5
#     Node 8, Type 0, BuildingBlock: XOMCOT_clean_sbu_0, # of connection points: 5
#     Node 9, Type 0, BuildingBlock: XOMCOT_clean_sbu_0, # of connection points: 5
#     Node 10, Type 0, BuildingBlock: XOMCOT_clean_sbu_0, # of connection points: 5
#     Node 11, Type 0, BuildingBlock: XOMCOT_clean_sbu_0, # of connection points: 5
#     Edge 12, Type (0, 0), BuildingBlock: AJUNOK_clean_linker_0, # of connection points: 2
#     Edge 13, Type (0, 0), BuildingBlock: AJUNOK_clean_linker_0, # of connection points: 2
#     Edge 14, Type (0, 0), BuildingBlock: AJUNOK_clean_linker_0, # of connection points: 2
#     Edge 15, Type (0, 0), BuildingBlock: AJUNOK_clean_linker_0, # of connection points: 2
#     Edge 16, Type (0, 0), BuildingBlock: AJUNOK_clean_linker_0, # of connection points: 2
#     Edge 17, Type (0, 0), BuildingBlock: AJUNOK_clean_linker_0, # of connection points: 2
#     Edge 18, Type (0, 0), BuildingBlock: AJUNOK_clean_linker_0, # of connection points: 2
#     Edge 19, Type (0, 0), BuildingBlock: AJUNOK_clean_linker_0, # of connection points: 2
#     Edge 20, Type (0, 0), BuildingBlock: AJUNOK_clean_linker_0, # of connection points: 2
#     Edge 21, Type (0, 0), BuildingBlock: AJUNOK_clean_linker_0, # of connection points: 2
#     Edge 22, Type (0, 0), BuildingBlock: AJUNOK_clean_linker_0, # of connection points: 2
#     Edge 23, Type (0, 0), BuildingBlock: AJUNOK_clean_linker_0, # of connection points: 2
#     Edge 24, Type (0, 0), BuildingBlock: AJUNOK_clean_linker_0, # of connection points: 2
#     Edge 25, Type (0, 0), BuildingBlock: AJUNOK_clean_linker_0, # of connection points: 2
#     Edge 26, Type (0, 0), BuildingBlock: AJUNOK_clean_linker_0, # of connection points: 2
#     Edge 27, Type (0, 0), BuildingBlock: AJUNOK_clean_linker_0, # of connection points: 2
#     Edge 28, Type (0, 0), BuildingBlock: AJUNOK_clean_linker_0, # of connection points: 2
#     Edge 29, Type (0, 0), BuildingBlock: AJUNOK_clean_linker_0, # of connection points: 2
#     Edge 30, Type (0, 0), BuildingBlock: AJUNOK_clean_linker_0, # of connection points: 2
#     Edge 31, Type (0, 0), BuildingBlock: AJUNOK_clean_linker_0, # of connection points: 2
#     Edge 32, Type (0, 0), BuildingBlock: AJUNOK_clean_linker_0, # of connection points: 2
#     Edge 33, Type (0, 0), BuildingBlock: AJUNOK_clean_linker_0, # of connection points: 2
#     Edge 34, Type (0, 0), BuildingBlock: AJUNOK_clean_linker_0, # of connection points: 2
#     Edge 35, Type (0, 0), BuildingBlock: AJUNOK_clean_linker_0, # of connection points: 2
#     Edge 36, Type (0, 0), BuildingBlock: AJUNOK_clean_linker_0, # of connection points: 2
#     Edge 37, Type (0, 0), BuildingBlock: AJUNOK_clean_linker_0, # of connection points: 2
#     Edge 38, Type (0, 0), BuildingBlock: AJUNOK_clean_linker_0, # of connection points: 2
#     Edge 39, Type (0, 0), BuildingBlock: AJUNOK_clean_linker_0, # of connection points: 2
#     Edge 40, Type (0, 0), BuildingBlock: AJUNOK_clean_linker_0, # of connection points: 2
#     Edge 41, Type (0, 0), BuildingBlock: AJUNOK_clean_linker_0, # of connection points: 2
# Relax obj value: 0.153
# Max RMSD: 0.182
# Mean RMSD: 0.182
data_MOF--net-wjz--node1-XOMCOT_clean_sbu_0--edge1-AJUNOK_clean_linker_0
_symmetry_space_group_name_H-M    P1
_symmetry_Int_Tables_number       1
_symmetry_cell_setting            triclinic
loop_
_symmetry_equiv_pos_as_xyz
'x, y, z'
_cell_length_a     55.406086
_cell_length_b     55.41559
_cell_length_c     13.530497
_cell_angle_alpha  90.109872
_cell_angle_beta   89.909054
_cell_angle_gamma 119.98974
loop_
_atom_site_label
_atom_site_type_symbol
_atom_site_fract_x
_atom_site_fract_y
_atom_site_fract_z
_atom_type_partial_charge
Co0 Co 0.33665 0.4913 0.12455 0.0
C1 C 0.33977 0.49294 0.34111 0.0
C2 C 0.36017 0.5341 0.27895 0.0
C3 C 0.35972 0.53629 0.38031 0.0
N4 N 0.34773 0.50694 0.25489 0.0
N5 N 0.34691 0.51037 0.41921 0.0
H6 H 0.32818 0.47044 0.34619 0.0
H7 H 0.3676 0.55101 0.22633 0.0
C8 C 0.38842 0.5194 1.00314 0.0
O9 O 0.38205 0.49432 0.9732 0.0
N10 N 0.32497 0.47634 0.99158 0.0
C11 C 0.31131 0.44982 0.95836 0.0
C12 C 0.30973 0.45009 0.85668 0.0
C13 C 0.33011 0.49215 0.90973 0.0
N14 N 0.32203 0.47678 0.82602 0.0
C15 C 0.33693 0.43988 0.16035 0.0
C16 C 0.39358 0.46458 0.19395 0.0
C17 C 0.37753 0.43553 0.19211 0.0
C18 C 0.34871 0.42308 0.17871 0.0
C19 C 0.38089 0.48047 0.17696 0.0
N20 N 0.35331 0.46812 0.15187 0.0
H21 H 0.31459 0.43016 0.15487 0.0
H22 H 0.39342 0.50284 0.18336 0.0
H23 H 0.303 0.43134 1.00301 0.0
H24 H 0.3401 0.51463 0.9118 0.0
O25 O 0.29947 0.46692 0.17447 0.0
O26 O 0.31446 0.50921 0.11414 0.0
O27 O 0.3729 0.52226 0.06705 0.0
C28 C 0.29451 0.48709 0.15641 0.0
H29 H 0.36692 0.55544 0.42147 0.0
H30 H 0.30103 0.432 0.80882 0.0
H31 H 0.41576 0.47489 0.20863 0.0
H32 H 0.33552 0.40064 0.18116 0.0
Co33 Co 0.84484 0.33529 0.30669 0.0
C34 C 0.85019 0.33991 0.52508 0.0
C35 C 0.83477 0.36551 0.46701 0.0
C36 C 0.83431 0.36658 0.5688 0.0
N37 N 0.84533 0.34923 0.43932 0.0
N38 N 0.84417 0.35055 0.605 0.0
H39 H 0.85556 0.32375 0.52983 0.0
H40 H 0.82643 0.37473 0.41709 0.0
C41 C 0.86544 0.39631 0.26451 0.0
O42 O 0.88377 0.40407 0.33636 0.0
N43 N 0.84389 0.32128 0.17495 0.0
C44 C 0.85221 0.30314 0.14837 0.0
C45 C 0.85282 0.3021 0.04661 0.0
C46 C 0.83933 0.33085 0.08934 0.0
N47 N 0.84501 0.31978 1.00985 0.0
C48 C 0.89559 0.33853 0.37393 0.0
C49 C 0.93142 0.38148 0.25186 0.0
C50 C 0.94276 0.37228 0.32555 0.0
C51 C 0.92429 0.34946 0.38344 0.0
C52 C 0.90251 0.36927 0.2429 0.0
N53 N 0.88504 0.34979 0.3094 0.0
H54 H 0.8819 0.32065 0.41771 0.0
H55 H 0.89431 0.3759 0.18315 0.0
H56 H 0.85859 0.29237 0.19935 0.0
H57 H 0.8334 0.34669 0.08475 0.0
O58 O 0.83222 0.29855 0.3609 0.0
O59 O 0.80461 0.31456 0.31351 0.0
O60 O 0.84906 0.37052 0.24635 0.0
C61 C 0.80705 0.29442 0.35252 0.0
H62 H 0.82643 0.3775 0.61272 0.0
H63 H 0.85909 0.28974 1.00319 0.0
H64 H 0.94468 0.39829 0.2024 0.0
H65 H 0.93182 0.33996 0.43559 0.0
Co66 Co 0.50858 0.84319 0.46579 0.0
C67 C 0.50829 0.84635 0.68499 0.0
C68 C 0.4686 0.83607 0.62474 0.0
C69 C 0.46646 0.83464 0.72636 0.0
N70 N 0.49506 0.84403 0.5984 0.0
N71 N 0.49144 0.84092 0.76393 0.0
H72 H 0.52919 0.84974 0.6908 0.0
H73 H 0.45146 0.83006 0.57418 0.0
C74 C 0.46807 0.86326 0.41255 0.0
O75 O 0.4787 0.88309 0.47955 0.0
N76 N 0.5215 0.84169 0.3342 0.0
C77 C 0.54794 0.85059 0.30595 0.0
C78 C 0.54879 0.84981 0.20409 0.0
C79 C 0.50664 0.83545 0.24963 0.0
N80 N 0.52278 0.84032 0.16886 0.0
C81 C 0.55393 0.89497 0.53647 0.0
C82 C 0.54863 0.92922 0.40094 0.0
C83 C 0.56831 0.94151 0.47722 0.0
C84 C 0.57136 0.92377 0.54348 0.0
C85 C 0.5323 0.90019 0.39469 0.0
N86 N 0.53354 0.88352 0.46646 0.0
H87 H 0.55716 0.88191 0.587 0.0
H88 H 0.51815 0.89123 0.33316 0.0
H89 H 0.56555 0.85835 0.35559 0.0
H90 H 0.48477 0.82909 0.24673 0.0
O91 O 0.53354 0.8318 0.52104 0.0
O92 O 0.48998 0.80302 0.47532 0.0
O93 O 0.47708 0.84621 0.40324 0.0
C94 C 0.51294 0.80633 0.51421 0.0
H95 H 0.44776 0.82876 0.76885 0.0
H96 H 0.56727 0.85654 0.15934 0.0
H97 H 0.54521 0.94172 0.34768 0.0
H98 H 0.58708 0.93206 0.60087 0.0
Co99 Co 0.67106 0.51142 0.63652 0.0
C100 C 0.66752 0.51146 0.85569 0.0
C101 C 0.63792 0.47185 0.79527 0.0
C102 C 0.63728 0.46969 0.8968 0.0
N103 N 0.65649 0.49828 0.76906 0.0
N104 N 0.65612 0.4946 0.93453 0.0
H105 H 0.68517 0.53228 0.86151 0.0
H106 H 0.62677 0.45471 0.7446 0.0
C107 C 0.61001 0.47231 0.5865 0.0
O108 O 0.60173 0.48376 0.65365 0.0
N109 N 0.68571 0.52393 0.50505 0.0
C110 C 0.70397 0.55018 0.47711 0.0
C111 C 0.70564 0.55102 0.37529 0.0
C112 C 0.67672 0.50914 0.42034 0.0
N113 N 0.68845 0.52518 0.3398 0.0
C114 C 0.6666 0.55818 0.70631 0.0
C115 C 0.62722 0.55351 0.57098 0.0
C116 C 0.63518 0.57351 0.64648 0.0
C117 C 0.65587 0.57622 0.71274 0.0
C118 C 0.63928 0.53661 0.56525 0.0
N119 N 0.65709 0.53756 0.63692 0.0
H120 H 0.68282 0.5611 0.75678 0.0
H121 H 0.63363 0.52219 0.50425 0.0
H122 H 0.71429 0.56773 0.52695 0.0
H123 H 0.66064 0.48747 0.41717 0.0
O124 O 0.70785 0.53513 0.69218 0.0
O125 O 0.69098 0.49126 0.64562 0.0
O126 O 0.63588 0.48071 0.57455 0.0
C127 C 0.71124 0.51356 0.68565 0.0
H128 H 0.62446 0.45099 0.93911 0.0
H129 H 0.71789 0.5694 0.33072 0.0
H130 H 0.61127 0.55021 0.51796 0.0
H131 H 0.66368 0.5921 0.76968 0.0
Co132 Co 0.15923 0.66929 0.78048 0.0
C133 C 0.15752 0.66532 0.99716 0.0
C134 C 0.18034 0.64724 0.93339 0.0
C135 C 0.18333 0.64796 0.03463 0.0
N136 N 0.16413 0.65809 0.9103 0.0
N137 N 0.16888 0.65927 0.07481 0.0
H138 H 0.14555 0.67584 1.00286 0.0
H139 H 0.19075 0.641 0.88009 0.0
C140 C 0.13545 0.6181 0.65571 0.0
O141 O 0.11687 0.62472 0.62658 0.0
N142 N 0.15561 0.68102 0.64812 0.0
C143 C 0.14007 0.69174 0.61397 0.0
C144 C 0.142 0.69323 0.51231 0.0
C145 C 0.1676 0.67733 0.56668 0.0
N146 N 0.15895 0.6837 0.48233 0.0
C147 C 0.10849 0.67016 0.82475 0.0
C148 C 0.07539 0.61341 0.85327 0.0
C149 C 0.06315 0.63016 0.85882 0.0
C150 C 0.08016 0.659 0.84722 0.0
C151 C 0.10377 0.62548 0.83242 0.0
N152 N 0.11955 0.65323 0.81055 0.0
H153 H 0.12157 0.69249 0.8196 0.0
H154 H 0.11301 0.61236 0.83437 0.0
H155 H 0.12754 0.69753 0.65769 0.0
H156 H 0.18173 0.66922 0.56972 0.0
O157 O 0.17322 0.70678 0.83099 0.0
O158 O 0.19921 0.69072 0.76688 0.0
O159 O 0.15338 0.63297 0.7217 0.0
C160 C 0.19804 0.71101 0.81077 0.0
H161 H 0.19662 0.64222 0.07448 0.0
H162 H 0.13067 0.69962 0.46394 0.0
H163 H 0.06314 0.59117 0.86607 0.0
H164 H 0.0716 0.67273 0.85419 0.0
Co165 Co 0.49314 0.1587 0.97246 0.0
C166 C 0.49271 0.15468 0.19104 0.0
C167 C 0.53271 0.16537 0.13256 0.0
C168 C 0.53424 0.16597 0.23448 0.0
N169 N 0.50639 0.1576 0.10503 0.0
N170 N 0.50894 0.159 0.27079 0.0
H171 H 0.47199 0.15179 0.1961 0.0
H172 H 0.55011 0.17173 0.08273 0.0
C173 C 0.53309 0.13797 0.91961 0.0
O174 O 0.52181 0.11772 0.98469 0.0
N175 N 0.48032 0.16037 0.84098 0.0
C176 C 0.45411 0.15313 0.81483 0.0
C177 C 0.45254 0.15298 0.71309 0.0
C178 C 0.49438 0.16475 0.75507 0.0
N179 N 0.47782 0.15993 0.67579 0.0
C180 C 0.44781 0.10665 0.04389 0.0
C181 C 0.45308 0.07279 0.90582 0.0
C182 C 0.43465 0.06048 0.98513 0.0
C183 C 0.43124 0.07774 0.05238 0.0
C184 C 0.4689 0.10185 0.89931 0.0
N185 N 0.46783 0.11836 0.97245 0.0
H186 H 0.44438 0.11951 0.09492 0.0
H187 H 0.48264 0.11097 0.83679 0.0
H188 H 0.43704 0.1472 0.86597 0.0
H189 H 0.51591 0.16989 0.74993 0.0
O190 O 0.46864 0.17078 0.02826 0.0
O191 O 0.51235 0.19879 0.98199 0.0
O192 O 0.52445 0.1553 0.91041 0.0
C193 C 0.48966 0.19606 0.02126 0.0
H194 H 0.5527 0.17187 0.27835 0.0
H195 H 0.43407 0.14759 0.67012 0.0
H196 H 0.45537 0.06007 0.84986 0.0
H197 H 0.41641 0.06897 0.11252 0.0
Co198 Co 0.51449 0.67173 0.73475 0.0
C199 C 0.51428 0.66811 0.51549 0.0
C200 C 0.4739 0.64099 0.57618 0.0
C201 C 0.47173 0.64038 0.47468 0.0
N202 N 0.50076 0.6579 0.60213 0.0
N203 N 0.49714 0.65769 0.43676 0.0
H204 H 0.53567 0.6846 0.50953 0.0
H205 H 0.45666 0.63092 0.62726 0.0
C206 C 0.47532 0.61059 0.77496 0.0
O207 O 0.48612 0.60401 0.70026 0.0
N208 N 0.52762 0.68568 0.86627 0.0
C209 C 0.55414 0.70295 0.89422 0.0
C210 C 0.55506 0.70451 0.99608 0.0
C211 C 0.51277 0.67719 0.95084 0.0
N212 N 0.529 0.68829 0.03141 0.0
C213 C 0.56183 0.66871 0.66227 0.0
C214 C 0.5557 0.62614 0.78427 0.0
C215 C 0.57558 0.63499 0.70809 0.0
C216 C 0.57951 0.6577 0.65037 0.0
C217 C 0.53919 0.6385 0.79583 0.0
N218 N 0.54062 0.65773 0.72945 0.0
H219 H 0.56553 0.68634 0.61799 0.0
H220 H 0.52479 0.63203 0.85708 0.0
H221 H 0.57172 0.71271 0.84432 0.0
H222 H 0.49081 0.66198 0.95377 0.0
O223 O 0.53796 0.70865 0.6808 0.0
O224 O 0.49434 0.69183 0.73026 0.0
O225 O 0.48408 0.63612 0.79572 0.0
C226 C 0.51658 0.71223 0.69038 0.0
H227 H 0.45275 0.62862 0.43253 0.0
H228 H 0.57356 0.71608 0.04078 0.0
H229 H 0.55242 0.60941 0.83363 0.0
H230 H 0.5961 0.66704 0.59638 0.0
Co231 Co 0.84505 0.51332 0.92299 0.0
C232 C 0.84609 0.51273 0.70386 0.0
C233 C 0.84328 0.4756 0.76232 0.0
C234 C 0.84091 0.47318 0.66078 0.0
N235 N 0.8472 0.50077 0.78966 0.0
N236 N 0.84237 0.49648 0.62451 0.0
H237 H 0.84698 0.5326 0.6993 0.0
H238 H 0.84045 0.45919 0.81209 0.0
C239 C 0.86957 0.47692 0.98021 0.0
O240 O 0.89108 0.49051 0.92127 0.0
N241 N 0.84182 0.52498 0.05493 0.0
C242 C 0.8476 0.55057 0.08428 0.0
C243 C 0.84549 0.55064 0.186 0.0
C244 C 0.8361 0.50984 0.13862 0.0
N245 N 0.83838 0.52503 0.21966 0.0
C246 C 0.89705 0.55768 0.84655 0.0
C247 C 0.93033 0.55885 1.00053 0.0
C248 C 0.94298 0.57475 0.91585 0.0
C249 C 0.92593 0.57464 0.83953 0.0
C250 C 0.90127 0.54188 1.00395 0.0
N251 N 0.88512 0.54009 0.92469 0.0
H252 H 0.88443 0.55864 0.78834 0.0
H253 H 0.89193 0.52916 0.06866 0.0
H254 H 0.85413 0.56824 0.03567 0.0
H255 H 0.83118 0.48835 0.14113 0.0
O256 O 0.83139 0.53661 0.86798 0.0
O257 O 0.80507 0.49247 0.91203 0.0
O258 O 0.85023 0.48303 0.98414 0.0
C259 C 0.80661 0.51465 0.87309 0.0
H260 H 0.83694 0.45511 0.61749 0.0
H261 H 0.85033 0.56852 0.23193 0.0
H262 H 0.9428 0.55861 0.06166 0.0
H263 H 0.9349 0.58737 0.77431 0.0
Co264 Co 0.3353 0.84212 0.04516 0.0
C265 C 0.33788 0.84475 0.82622 0.0
C266 C 0.37004 0.83832 0.88485 0.0
C267 C 0.37011 0.83618 0.78322 0.0
N268 N 0.35014 0.8443 0.91218 0.0
N269 N 0.3496 0.83989 0.74684 0.0
H270 H 0.31975 0.84715 0.82151 0.0
H271 H 0.3824 0.83374 0.93475 0.0
C272 C 0.39591 0.86424 0.10218 0.0
O273 O 0.40461 0.88523 0.04038 0.0
N274 N 0.32033 0.83903 0.17694 0.0
C275 C 0.30121 0.84581 0.20622 0.0
C276 C 0.29911 0.84396 0.30798 0.0
C277 C 0.32945 0.83304 0.26083 0.0
N278 N 0.317 0.83606 0.34186 0.0
C279 C 0.34297 0.89456 0.97495 0.0
C280 C 0.37884 0.92736 0.1226 0.0
C281 C 0.37422 0.94026 0.04165 0.0
C282 C 0.35516 0.9235 0.96931 0.0
C283 C 0.36578 0.89827 0.12612 0.0
N284 N 0.34979 0.88234 0.04896 0.0
H285 H 0.32815 0.88208 0.91922 0.0
H286 H 0.36949 0.88865 0.18922 0.0
H287 H 0.2906 0.85293 0.15755 0.0
H288 H 0.34555 0.82744 0.26351 0.0
O289 O 0.29875 0.83008 0.98917 0.0
O290 O 0.31491 0.80214 0.03129 0.0
O291 O 0.37015 0.84579 0.1072 0.0
C292 C 0.29499 0.80493 0.99216 0.0
H293 H 0.38309 0.83065 0.73996 0.0
H294 H 0.28664 0.84959 0.35375 0.0
H295 H 0.39269 0.93966 0.18188 0.0
H296 H 0.35036 0.93271 0.90726 0.0
Co297 Co 0.49371 0.3332 0.24678 0.0
C298 C 0.49439 0.33624 0.02725 0.0
C299 C 0.53327 0.36705 0.08873 0.0
C300 C 0.5357 0.36792 0.98727 0.0
N301 N 0.50704 0.34767 0.11423 0.0
N302 N 0.51114 0.34856 0.94879 0.0
H303 H 0.47383 0.31821 0.02087 0.0
H304 H 0.55021 0.37854 0.13974 0.0
C305 C 0.53195 0.39394 0.2996 0.0
O306 O 0.5195 0.40183 0.2354 0.0
N307 N 0.48132 0.31869 0.37827 0.0
C308 C 0.455 0.30144 0.40862 0.0
C309 C 0.45479 0.30036 0.51062 0.0
C310 C 0.49675 0.3275 0.46142 0.0
N311 N 0.48101 0.31711 0.54332 0.0
C312 C 0.44958 0.34127 0.17214 0.0
C313 C 0.45113 0.37623 0.32095 0.0
C314 C 0.43439 0.37203 0.23798 0.0
C315 C 0.43294 0.35351 0.16477 0.0
C316 C 0.46763 0.36365 0.32494 0.0
N317 N 0.46817 0.34795 0.24762 0.0
H318 H 0.44738 0.32639 0.11688 0.0
H319 H 0.48075 0.36741 0.38879 0.0
H320 H 0.43705 0.29169 0.36042 0.0
H321 H 0.51892 0.34204 0.46245 0.0
O322 O 0.46921 0.29668 0.19157 0.0
O323 O 0.51303 0.3124 0.2364 0.0
O324 O 0.52473 0.36827 0.30854 0.0
C325 C 0.49022 0.2924 0.1979 0.0
H326 H 0.5546 0.3806 0.94568 0.0
H327 H 0.43656 0.2895 0.55726 0.0
H328 H 0.45224 0.38987 0.38037 0.0
H329 H 0.41922 0.34871 0.10181 0.0
Co330 Co 0.16215 0.49248 0.38218 0.0
C331 C 0.15652 0.49156 0.16368 0.0
C332 C 0.17229 0.53264 0.22188 0.0
C333 C 0.17288 0.53414 0.12015 0.0
N334 N 0.16131 0.50577 0.24958 0.0
N335 N 0.16284 0.50821 0.08379 0.0
H336 H 0.1512 0.47005 0.15888 0.0
H337 H 0.1809 0.55025 0.27179 0.0
C338 C 0.14166 0.5327 0.42214 0.0
O339 O 0.12412 0.52155 0.34817 0.0
N340 N 0.16364 0.47957 0.51352 0.0
C341 C 0.15568 0.45316 0.53945 0.0
C342 C 0.15528 0.45147 0.64115 0.0
C343 C 0.16821 0.49361 0.59949 0.0
N344 N 0.16287 0.47687 0.67855 0.0
C345 C 0.11017 0.44574 0.31678 0.0
C346 C 0.07641 0.45294 0.44971 0.0
C347 C 0.06387 0.43217 0.37712 0.0
C348 C 0.0813 0.42821 0.3119 0.0
C349 C 0.1054 0.46943 0.45358 0.0
N350 N 0.12183 0.46724 0.38277 0.0
H351 H 0.12308 0.44159 0.26837 0.0
H352 H 0.11451 0.48435 0.51292 0.0
H353 H 0.14935 0.43605 0.48812 0.0
H354 H 0.17381 0.51524 0.60475 0.0
O355 O 0.17396 0.46783 0.32646 0.0
O356 O 0.20233 0.5115 0.37231 0.0
O357 O 0.15836 0.52385 0.44313 0.0
C358 C 0.1993 0.48869 0.33278 0.0
H359 H 0.1811 0.55296 0.07643 0.0
H360 H 0.14926 0.43285 0.68409 0.0
H361 H 0.0641 0.45702 0.50203 0.0
H362 H 0.07273 0.41167 0.2574 0.0
Co363 Co 0.66945 0.16037 0.56965 0.0
C364 C 0.66489 0.15534 0.3513 0.0
C365 C 0.63919 0.17064 0.41006 0.0
C366 C 0.63812 0.1711 0.30821 0.0
N367 N 0.65556 0.16018 0.43731 0.0
N368 N 0.65421 0.16129 0.27162 0.0
H369 H 0.68104 0.14996 0.34619 0.0
H370 H 0.62988 0.17886 0.46027 0.0
C371 C 0.6086 0.14066 0.61564 0.0
O372 O 0.59996 0.12208 0.54425 0.0
N373 N 0.68337 0.16098 0.70115 0.0
C374 C 0.7011 0.15213 0.72736 0.0
C375 C 0.7021 0.15149 0.82914 0.0
C376 C 0.67402 0.16582 0.787 0.0
N377 N 0.6848 0.1598 0.86631 0.0
C378 C 0.66537 0.10942 0.49971 0.0
C379 C 0.62142 0.07364 0.61838 0.0
C380 C 0.63016 0.0623 0.54281 0.0
C381 C 0.65355 0.08069 0.48698 0.0
C382 C 0.63455 0.10254 0.6307 0.0
N383 N 0.65444 0.12008 0.56547 0.0
H384 H 0.68355 0.12302 0.45701 0.0
H385 H 0.6282 0.11069 0.69162 0.0
H386 H 0.71161 0.14545 0.67613 0.0
H387 H 0.65854 0.17221 0.79191 0.0
O388 O 0.70613 0.17271 0.51478 0.0
O389 O 0.69053 0.20058 0.56382 0.0
O390 O 0.63458 0.15669 0.63131 0.0
C391 C 0.7105 0.19797 0.52395 0.0
H392 H 0.62713 0.17888 0.26453 0.0
H393 H 0.71419 0.14487 0.87226 0.0
H394 H 0.60423 0.06043 0.66662 0.0
H395 H 0.6628 0.07308 0.43382 0.0
C396 C 0.31563 0.47862 0.54905 0.0
C397 C 0.34053 0.50274 0.52186 0.0
C398 C 0.30946 0.47065 0.64852 0.0
C399 C 0.32791 0.48646 0.72483 0.0
H400 H 0.3007 0.46589 0.49308 0.0
H401 H 0.29006 0.45194 0.66587 0.0
S402 S 0.39641 0.55085 0.6913 0.0
N403 N 0.38401 0.5419 0.57838 0.0
N404 N 0.37259 0.52717 0.7648 0.0
C405 C 0.35284 0.51073 0.69828 0.0
C406 C 0.35909 0.51877 0.59705 0.0
C407 C 0.82416 0.33241 0.87229 0.0
C408 C 0.84514 0.32747 0.90793 0.0
C409 C 0.82406 0.3402 0.77364 0.0
C410 C 0.84503 0.34346 0.70705 0.0
H411 H 0.80748 0.32984 0.92083 0.0
H412 H 0.80717 0.34319 0.74888 0.0
S413 S 0.90657 0.33646 0.76668 0.0
N414 N 0.88867 0.32866 0.87087 0.0
N415 N 0.88854 0.34337 0.68595 0.0
C416 C 0.86653 0.33931 0.74249 0.0
C417 C 0.86658 0.3313 0.84273 0.0
C418 C 0.53315 0.85956 0.99924 0.0
C419 C 0.51466 0.83953 0.06685 0.0
C420 C 0.52535 0.85987 0.90086 0.0
C421 C 0.4987 0.84026 0.866 0.0
H422 H 0.55366 0.87551 0.02296 0.0
H423 H 0.54016 0.87588 0.85187 0.0
S424 S 0.44334 0.7819 1.0104 0.0
N425 N 0.46906 0.79847 0.08999 0.0
N426 N 0.45438 0.79919 0.90541 0.0
C427 C 0.48012 0.81985 0.93226 0.0
C428 C 0.4881 0.81946 0.03248 0.0
C429 C 0.67163 0.52842 0.07213 0.0
C430 C 0.66425 0.50172 0.03659 0.0
C431 C 0.67982 0.53603 0.17065 0.0
C432 C 0.68104 0.51727 0.23769 0.0
H433 H 0.67065 0.54342 0.0236 0.0
H434 H 0.68468 0.55659 0.19497 0.0
S435 S 0.66648 0.44575 0.17946 0.0
N436 N 0.66047 0.4571 0.07477 0.0
N437 N 0.67585 0.47139 0.25973 0.0
C438 C 0.67423 0.49067 0.20267 0.0
C439 C 0.66584 0.4829 0.10229 0.0
C440 C 0.16506 0.6889 0.20449 0.0
C441 C 0.16763 0.66571 0.1778 0.0
C442 C 0.16301 0.69501 0.3039 0.0
C443 C 0.16352 0.67827 0.38116 0.0
H444 H 0.16475 0.70259 0.1482 0.0
H445 H 0.16095 0.71302 0.32041 0.0
S446 S 0.16977 0.61495 0.35046 0.0
N447 N 0.17034 0.6258 0.23676 0.0
N448 N 0.16682 0.6373 0.42296 0.0
C449 C 0.16654 0.65524 0.35543 0.0
C450 C 0.16849 0.64897 0.2541 0.0
C451 C 0.51189 0.17913 0.53866 0.0
C452 C 0.48522 0.15949 0.57364 0.0
C453 C 0.5197 0.17873 0.44007 0.0
C454 C 0.50112 0.15864 0.37282 0.0
H455 H 0.5267 0.19514 0.5877 0.0
H456 H 0.54022 0.19454 0.41581 0.0
S457 S 0.43021 0.10055 0.42998 0.0
N458 N 0.44115 0.11799 0.53483 0.0
N459 N 0.45578 0.11734 0.35003 0.0
C460 C 0.47468 0.1385 0.40744 0.0
C461 C 0.46674 0.13889 0.50763 0.0
C462 C 0.53077 0.67088 0.29926 0.0
C463 C 0.5046 0.66538 0.3346 0.0
C464 C 0.53872 0.67866 0.2007 0.0
C465 C 0.52081 0.68128 0.13344 0.0
H466 H 0.54508 0.66875 0.348 0.0
H467 H 0.55882 0.68209 0.1765 0.0
S468 S 0.45115 0.67192 0.19085 0.0
N469 N 0.46154 0.66495 0.29585 0.0
N470 N 0.47645 0.67947 0.11074 0.0
C471 C 0.49479 0.67634 0.16815 0.0
C472 C 0.48668 0.66841 0.26859 0.0
C473 C 0.8517 0.49445 0.44699 0.0
C474 C 0.8397 0.50248 0.52262 0.0
C475 C 0.85074 0.50144 0.34799 0.0
C476 C 0.83783 0.51681 0.32101 0.0
H477 H 0.86254 0.48331 0.46487 0.0
H478 H 0.86085 0.49545 0.29243 0.0
S479 S 0.79978 0.53932 0.48836 0.0
N480 N 0.81182 0.524 0.56189 0.0
N481 N 0.81066 0.53765 0.37613 0.0
C482 C 0.82495 0.52416 0.39522 0.0
C483 C 0.8257 0.51685 0.49592 0.0
C484 C 0.35288 0.84733 0.46995 0.0
C485 C 0.32463 0.83549 0.44333 0.0
C486 C 0.36084 0.8483 0.569 0.0
C487 C 0.34087 0.83742 0.64505 0.0
H488 H 0.36898 0.85659 0.41404 0.0
H489 H 0.38282 0.85824 0.58658 0.0
S490 S 0.26407 0.80042 0.61228 0.0
N491 N 0.27662 0.8104 0.49958 0.0
N492 N 0.29146 0.81166 0.68539 0.0
C493 C 0.3125 0.82449 0.61884 0.0
C494 C 0.30443 0.82369 0.5181 0.0
C495 C 0.48642 0.31297 0.81912 0.0
C496 C 0.50453 0.34095 0.84613 0.0
C497 C 0.47899 0.30531 0.72008 0.0
C498 C 0.48957 0.32526 0.64422 0.0
H499 H 0.47804 0.29682 0.87485 0.0
H500 H 0.465 0.2836 0.70244 0.0
S501 S 0.53599 0.40147 0.67596 0.0
N502 N 0.53168 0.38877 0.78896 0.0
N503 N 0.51795 0.37436 0.60306 0.0
C504 C 0.50761 0.35329 0.67003 0.0
C505 C 0.51506 0.36112 0.77086 0.0
C506 C 0.18321 0.51812 0.91544 0.0
C507 C 0.16225 0.50026 0.98172 0.0
C508 C 0.18332 0.51031 0.81671 0.0
C509 C 0.1626 0.48429 0.78067 0.0
H510 H 0.19991 0.5381 0.94043 0.0
H511 H 0.19995 0.52457 0.76841 0.0
S512 S 0.10136 0.43134 0.92082 0.0
N513 N 0.11904 0.45635 1.00193 0.0
N514 N 0.11937 0.44163 0.81694 0.0
C515 C 0.14121 0.4665 0.84552 0.0
C516 C 0.14102 0.47449 0.94582 0.0
C517 C 0.67242 0.18098 1.00409 0.0
C518 C 0.67715 0.15982 0.96837 0.0
C519 C 0.66463 0.18122 0.1028 0.0
C520 C 0.66119 0.16025 0.16944 0.0
H521 H 0.67514 0.19768 0.95558 0.0
H522 H 0.66179 0.19822 0.12761 0.0
S523 S 0.66758 0.09831 0.10982 0.0
N524 N 0.67552 0.11613 1.00555 0.0
N525 N 0.66088 0.11658 0.19056 0.0
C526 C 0.66514 0.1386 0.13396 0.0
C527 C 0.67311 0.13838 0.03364 0.0
C528 C 0.45145 0.56177 0.83949 0.0
C529 C 0.45424 0.58841 0.83972 0.0
C530 C 0.43091 0.54002 0.89612 0.0
C531 C 0.41221 0.54394 0.95546 0.0
H532 H 0.46498 0.55747 0.794 0.0
H533 H 0.42929 0.51975 0.89122 0.0
S534 S 0.41171 0.61025 0.98685 0.0
N535 N 0.43732 0.6179 0.9081 0.0
N536 N 0.39879 0.57705 0.01467 0.0
C537 C 0.41548 0.5708 0.95967 0.0
C538 C 0.43645 0.593 0.90179 0.0
C539 C 0.89146 0.44094 0.16939 0.0
C540 C 0.86604 0.41714 0.19453 0.0
C541 C 0.89265 0.45975 0.09728 0.0
C542 C 0.86836 0.45571 0.04949 0.0
H543 H 0.91066 0.44476 0.20414 0.0
H544 H 0.91261 0.47787 0.08042 0.0
S545 S 0.79664 0.3969 0.08943 0.0
N546 N 0.8161 0.39055 0.16539 0.0
N547 N 0.81822 0.42626 0.03249 0.0
C548 C 0.84283 0.43216 0.07468 0.0
C549 C 0.8417 0.41277 0.14643 0.0
C550 C 0.4345 0.88853 0.22512 0.0
C551 C 0.415 0.86376 0.17763 0.0
C552 C 0.45088 0.88812 0.30369 0.0
C553 C 0.44872 0.86299 0.33624 0.0
H554 H 0.43666 0.90829 0.20295 0.0
H555 H 0.46576 0.9077 0.3377 0.0
S556 S 0.40111 0.79254 0.23495 0.0
N557 N 0.3944 0.8135 0.16874 0.0
N558 N 0.42565 0.81276 0.31404 0.0
C559 C 0.42946 0.83815 0.28855 0.0
C560 C 0.41247 0.83852 0.20998 0.0
C561 C 0.54882 0.43568 0.40974 0.0
C562 C 0.55256 0.4143 0.36984 0.0
C563 C 0.56701 0.4539 0.48215 0.0
C564 C 0.58987 0.45171 0.51562 0.0
H565 H 0.53138 0.43798 0.38643 0.0
H566 H 0.56342 0.47011 0.5108 0.0
S567 S 0.60908 0.39964 0.43288 0.0
N568 N 0.58076 0.392 0.369 0.0
N569 N 0.61535 0.42665 0.50259 0.0
C570 C 0.59397 0.43061 0.47537 0.0
C571 C 0.57519 0.41177 0.40327 0.0
C572 C 0.11716 0.55773 0.48045 0.0
C573 C 0.14027 0.55373 0.48673 0.0
C574 C 0.11542 0.57783 0.53817 0.0
C575 C 0.13669 0.59489 0.60495 0.0
H576 H 0.10029 0.54543 0.4297 0.0
H577 H 0.09738 0.58032 0.52861 0.0
S578 S 0.20132 0.59224 0.65244 0.0
N579 N 0.1847 0.56815 0.56733 0.0
N580 N 0.18129 0.60575 0.67632 0.0
C581 C 0.15957 0.59059 0.61435 0.0
C582 C 0.16139 0.57009 0.55519 0.0
C583 C 0.56654 0.11487 0.72379 0.0
C584 C 0.58878 0.14031 0.68981 0.0
C585 C 0.54921 0.11413 0.80123 0.0
C586 C 0.55321 0.13884 0.84571 0.0
H587 H 0.5629 0.09538 0.69193 0.0
H588 H 0.53219 0.09415 0.82481 0.0
S589 S 0.60823 0.21072 0.78287 0.0
N590 N 0.61395 0.1907 0.70712 0.0
N591 N 0.58085 0.18936 0.84981 0.0
C592 C 0.57518 0.16436 0.81164 0.0
C593 C 0.59312 0.16508 0.73452 0.0
C594 C 0.26976 0.51184 0.21438 0.0
C595 C 0.26921 0.48659 0.19538 0.0
C596 C 0.24729 0.51229 0.26061 0.0
C597 C 0.22318 0.48748 0.28835 0.0
H598 H 0.28799 0.53154 0.19567 0.0
H599 H 0.24877 0.53227 0.27376 0.0
S600 S 0.2109 0.41578 0.25287 0.0
N601 N 0.24237 0.43608 0.20715 0.0
N602 N 0.19991 0.43689 0.29197 0.0
C603 C 0.22213 0.46205 0.26833 0.0
C604 C 0.2452 0.46161 0.2225 0.0
C605 C 0.75819 0.26983 0.4169 0.0
C606 C 0.78263 0.26921 0.39367 0.0
C607 C 0.73529 0.24694 0.46111 0.0
C608 C 0.73572 0.22232 0.48256 0.0
H609 H 0.75682 0.28833 0.40227 0.0
H610 H 0.71693 0.24846 0.47721 0.0
S611 S 0.79459 0.20983 0.43539 0.0
N612 N 0.80592 0.24187 0.39556 0.0
N613 N 0.76269 0.19867 0.47681 0.0
C614 C 0.75996 0.22131 0.45909 0.0
C615 C 0.78345 0.2448 0.41523 0.0
C616 C 0.49006 0.75781 0.58143 0.0
C617 C 0.51465 0.78257 0.55697 0.0
C618 C 0.49096 0.73553 0.62689 0.0
C619 C 0.51647 0.73692 0.64848 0.0
H620 H 0.46989 0.7557 0.56666 0.0
H621 H 0.47142 0.71687 0.64372 0.0
S622 S 0.58688 0.79701 0.59872 0.0
N623 N 0.56532 0.80721 0.5581 0.0
N624 N 0.56699 0.76516 0.64173 0.0
C625 C 0.54123 0.7615 0.62397 0.0
C626 C 0.54033 0.78436 0.5788 0.0
C627 C 0.78333 0.53886 0.79481 0.0
C628 C 0.78188 0.51406 0.82769 0.0
C629 C 0.76051 0.53858 0.74829 0.0
C630 C 0.73556 0.51345 0.73103 0.0
H631 H 0.80222 0.55869 0.80525 0.0
H632 H 0.76251 0.5582 0.72508 0.0
S633 S 0.72082 0.44273 0.80302 0.0
N634 N 0.7531 0.46363 0.84013 0.0
N635 N 0.71061 0.46314 0.75183 0.0
C636 C 0.73387 0.48851 0.76305 0.0
C637 C 0.7569 0.48881 0.81163 0.0
C638 C 0.24532 0.78109 0.93374 0.0
C639 C 0.27065 0.7812 0.94391 0.0
C640 C 0.2221 0.75867 0.88821 0.0
C641 C 0.22354 0.73585 0.84901 0.0
H642 H 0.24324 0.79817 0.96296 0.0
H643 H 0.2028 0.75912 0.8847 0.0
S644 S 0.28601 0.72742 0.849 0.0
N645 N 0.2963 0.75733 0.90622 0.0
N646 N 0.2531 0.71563 0.81936 0.0
C647 C 0.24914 0.73628 0.85561 0.0
C648 C 0.27255 0.75882 0.90345 0.0
C649 C 0.51414 0.26762 0.13203 0.0
C650 C 0.48916 0.2672 0.15513 0.0
C651 C 0.51399 0.24475 0.08687 0.0
C652 C 0.48886 0.22032 0.06418 0.0
H653 H 0.53407 0.28594 0.14762 0.0
H654 H 0.53382 0.24614 0.07094 0.0
S655 S 0.41766 0.20839 0.11013 0.0
N656 N 0.43853 0.24026 0.15155 0.0
N657 N 0.43826 0.19706 0.06845 0.0
C658 C 0.4637 0.2195 0.08741 0.0
C659 C 0.46385 0.24298 0.13228 0.0
C660 C 0.38657 0.4018 0.28577 0.0
C661 C 0.39119 0.41856 0.20206 0.0
C662 C 0.40071 0.38682 0.29766 0.0
C663 C 0.41942 0.38775 0.22518 0.0
H664 H 0.37237 0.40068 0.34305 0.0
H665 H 0.39687 0.37431 0.36347 0.0
S666 S 0.43833 0.42846 0.99241 0.0
N667 N 0.4156 0.43527 0.04608 0.0
N668 N 0.44178 0.40687 0.06728 0.0
C669 C 0.42388 0.40424 0.14079 0.0
C670 C 0.40985 0.41972 0.12954 0.0
C671 C 0.99178 0.39552 0.25946 0.0
C672 C 0.97355 0.38628 0.34105 0.0
C673 C 0.02077 0.40988 0.27205 0.0
C674 C 0.03291 0.41538 0.36679 0.0
H675 H 0.98364 0.39175 0.18485 0.0
H676 H 0.03376 0.41723 0.20665 0.0
S677 S 0.99457 0.39448 0.6053 0.0
N678 N 0.96992 0.38375 0.52061 0.0
N679 N 0.02427 0.40883 0.5438 0.0
C680 C 0.01496 0.40552 0.44912 0.0
C681 C 0.98539 0.39139 0.43638 0.0
C682 C 0.60469 0.01267 0.60276 0.0
C683 C 0.61519 0.0316 0.52349 0.0
C684 C 0.58976 0.98383 0.58674 0.0
C685 C 0.58496 0.97243 0.49072 0.0
H686 H 0.60802 0.02012 0.67832 0.0
H687 H 0.58155 0.97037 0.65064 0.0
S688 S 0.60865 0.0128 0.25699 0.0
N689 N 0.61918 0.03673 0.34446 0.0
N690 N 0.59316 0.98258 0.31495 0.0
C691 C 0.59583 0.99107 0.41061 0.0
C692 C 0.6105 0.02055 0.42682 0.0
C693 C 0.61505 0.59601 0.75483 0.0
C694 C 0.6214 0.59068 0.65918 0.0
C695 C 0.60094 0.61083 0.76981 0.0
C696 C 0.59203 0.62066 0.68984 0.0
H697 H 0.6205 0.58818 0.81926 0.0
H698 H 0.59692 0.61446 0.84513 0.0
S699 S 0.60408 0.61309 0.42392 0.0
N700 N 0.61918 0.59814 0.48299 0.0
N701 N 0.59061 0.6238 0.51058 0.0
C702 C 0.5984 0.61567 0.59357 0.0
C703 C 0.61344 0.60117 0.57841 0.0
C704 C 0.01427 0.59702 0.80733 0.0
C705 C 0.03267 0.61716 0.87464 0.0
C706 C 0.98534 0.58379 0.82087 0.0
C707 C 0.97372 0.58982 0.90323 0.0
H708 H 0.02233 0.59152 0.74343 0.0
H709 H 0.97194 0.56835 0.76724 0.0
S710 S 0.01289 0.64084 0.10128 0.0
N711 N 0.03733 0.64268 0.02626 0.0
N712 N 0.98282 0.61735 0.05284 0.0
C713 C 0.99187 0.60986 0.97133 0.0
C714 C 0.02138 0.6237 0.95662 0.0
C715 C 0.39019 0.01488 1.00465 0.0
C716 C 0.41947 0.02983 0.99914 0.0
C717 C 0.3756 0.98588 0.01878 0.0
C718 C 0.38986 0.971 0.03031 0.0
H719 H 0.3785 0.02565 0.99677 0.0
H720 H 0.35304 0.97503 0.02128 0.0
S721 S 0.46644 1.00056 0.02377 0.0
N722 N 0.46215 0.0277 1.00707 0.0
N723 N 0.43481 0.97334 0.03532 0.0
C724 C 0.41912 0.98578 0.02614 0.0
C725 C 0.4339 0.01516 1.01004 0.0
loop_
_geom_bond_atom_site_label_1
_geom_bond_atom_site_label_2
_geom_bond_distance
_geom_bond_site_symmetry_2
_ccdc_geom_bond_type
Co0 N4 2.148 . S
Co0 N10 2.128 1_554 S
Co0 N20 2.194 . S
Co0 O25 2.351 . S
Co0 O26 2.155 . S
Co0 O27 2.096 . S
C1 N4 1.301 . S
C1 N5 1.328 . S
C1 H6 0.930 . S
C2 C3 1.333 . S
C2 N4 1.317 . S
C2 H7 0.930 . S
C3 C2 1.333 . S
C3 N5 1.350 . S
C3 H29 0.931 . S
N4 Co0 2.148 . S
N4 C1 1.301 . S
N4 C2 1.317 . S
N5 C1 1.328 . S
N5 C3 1.350 . S
H6 C1 0.930 . S
H7 C2 0.930 . S
C8 O9 1.224 . S
C8 O27 1.247 . S
O9 C8 1.224 . S
N10 Co0 2.128 1_556 S
N10 C11 1.355 . S
N10 C13 1.311 . S
C11 N10 1.355 . S
C11 C12 1.363 . S
C11 H23 0.929 . S
C12 C11 1.363 . S
C12 N14 1.375 . S
C12 H30 0.931 . S
C13 N10 1.311 . S
C13 N14 1.347 . S
C13 H24 0.929 . S
N14 C12 1.375 . S
N14 C13 1.347 . S
C15 C18 1.365 . S
C15 N20 1.328 . S
C15 H21 0.929 . S
C16 C17 1.362 . S
C16 C19 1.378 . S
C16 H31 0.929 . S
C17 C16 1.362 . S
C17 C18 1.366 . S
C18 C15 1.365 . S
C18 C17 1.366 . S
C18 H32 0.930 . S
C19 C16 1.378 . S
C19 N20 1.315 . S
C19 H22 0.930 . S
N20 Co0 2.194 . S
N20 C15 1.328 . S
N20 C19 1.315 . S
H21 C15 0.929 . S
H22 C19 0.930 . S
H23 C11 0.929 . S
H24 C13 0.929 . S
O25 Co0 2.351 . S
O25 C28 1.244 . S
O26 Co0 2.155 . S
O26 C28 1.240 . S
O27 Co0 2.096 . S
O27 C8 1.247 . S
C28 O25 1.244 . S
C28 O26 1.240 . S
H29 C3 0.931 . S
H30 C12 0.931 . S
H31 C16 0.929 . S
H32 C18 0.930 . S
Co33 N37 2.148 . S
Co33 N43 2.128 . S
Co33 N53 2.194 . S
Co33 O58 2.351 . S
Co33 O59 2.155 . S
Co33 O60 2.096 . S
C34 N37 1.301 . S
C34 N38 1.328 . S
C34 H39 0.930 . S
C35 C36 1.333 . S
C35 N37 1.317 . S
C35 H40 0.930 . S
C36 C35 1.333 . S
C36 N38 1.350 . S
C36 H62 0.931 . S
N37 Co33 2.148 . S
N37 C34 1.301 . S
N37 C35 1.317 . S
N38 C34 1.328 . S
N38 C36 1.350 . S
H39 C34 0.930 . S
H40 C35 0.930 . S
C41 O42 1.224 . S
C41 O60 1.247 . S
O42 C41 1.224 . S
N43 Co33 2.128 . S
N43 C44 1.355 . S
N43 C46 1.311 . S
C44 N43 1.355 . S
C44 C45 1.363 1_554 S
C44 H56 0.929 . S
C45 C44 1.363 1_556 S
C45 N47 1.375 . S
C45 H63 0.931 . S
C46 N43 1.311 . S
C46 N47 1.347 1_554 S
C46 H57 0.929 . S
N47 C45 1.375 . S
N47 C46 1.347 1_556 S
C48 C51 1.365 . S
C48 N53 1.328 . S
C48 H54 0.929 . S
C49 C50 1.362 . S
C49 C52 1.378 . S
C49 H64 0.929 . S
C50 C49 1.362 . S
C50 C51 1.366 . S
C51 C48 1.365 . S
C51 C50 1.366 . S
C51 H65 0.930 . S
C52 C49 1.378 . S
C52 N53 1.315 . S
C52 H55 0.930 . S
N53 Co33 2.194 . S
N53 C48 1.328 . S
N53 C52 1.315 . S
H54 C48 0.929 . S
H55 C52 0.930 . S
H56 C44 0.929 . S
H57 C46 0.929 . S
O58 Co33 2.351 . S
O58 C61 1.244 . S
O59 Co33 2.155 . S
O59 C61 1.240 . S
O60 Co33 2.096 . S
O60 C41 1.247 . S
C61 O58 1.244 . S
C61 O59 1.240 . S
H62 C36 0.931 . S
H63 C45 0.931 . S
H64 C49 0.929 . S
H65 C51 0.930 . S
Co66 N70 2.148 . S
Co66 N76 2.128 . S
Co66 N86 2.194 . S
Co66 O91 2.351 . S
Co66 O92 2.155 . S
Co66 O93 2.096 . S
C67 N70 1.301 . S
C67 N71 1.328 . S
C67 H72 0.930 . S
C68 C69 1.333 . S
C68 N70 1.317 . S
C68 H73 0.930 . S
C69 C68 1.333 . S
C69 N71 1.350 . S
C69 H95 0.931 . S
N70 Co66 2.148 . S
N70 C67 1.301 . S
N70 C68 1.317 . S
N71 C67 1.328 . S
N71 C69 1.350 . S
H72 C67 0.930 . S
H73 C68 0.930 . S
C74 O75 1.224 . S
C74 O93 1.247 . S
O75 C74 1.224 . S
N76 Co66 2.128 . S
N76 C77 1.355 . S
N76 C79 1.311 . S
C77 N76 1.355 . S
C77 C78 1.363 . S
C77 H89 0.929 . S
C78 C77 1.363 . S
C78 N80 1.375 . S
C78 H96 0.931 . S
C79 N76 1.311 . S
C79 N80 1.347 . S
C79 H90 0.929 . S
N80 C78 1.375 . S
N80 C79 1.347 . S
C81 C84 1.365 . S
C81 N86 1.328 . S
C81 H87 0.929 . S
C82 C83 1.362 . S
C82 C85 1.378 . S
C82 H97 0.929 . S
C83 C82 1.362 . S
C83 C84 1.366 . S
C84 C81 1.365 . S
C84 C83 1.366 . S
C84 H98 0.930 . S
C85 C82 1.378 . S
C85 N86 1.315 . S
C85 H88 0.930 . S
N86 Co66 2.194 . S
N86 C81 1.328 . S
N86 C85 1.315 . S
H87 C81 0.929 . S
H88 C85 0.930 . S
H89 C77 0.929 . S
H90 C79 0.929 . S
O91 Co66 2.351 . S
O91 C94 1.244 . S
O92 Co66 2.155 . S
O92 C94 1.240 . S
O93 Co66 2.096 . S
O93 C74 1.247 . S
C94 O91 1.244 . S
C94 O92 1.240 . S
H95 C69 0.931 . S
H96 C78 0.931 . S
H97 C82 0.929 . S
H98 C84 0.930 . S
Co99 N103 2.148 . S
Co99 N109 2.128 . S
Co99 N119 2.194 . S
Co99 O124 2.351 . S
Co99 O125 2.155 . S
Co99 O126 2.096 . S
C100 N103 1.301 . S
C100 N104 1.328 . S
C100 H105 0.930 . S
C101 C102 1.333 . S
C101 N103 1.317 . S
C101 H106 0.930 . S
C102 C101 1.333 . S
C102 N104 1.350 . S
C102 H128 0.931 . S
N103 Co99 2.148 . S
N103 C100 1.301 . S
N103 C101 1.317 . S
N104 C100 1.328 . S
N104 C102 1.350 . S
H105 C100 0.930 . S
H106 C101 0.930 . S
C107 O108 1.224 . S
C107 O126 1.247 . S
O108 C107 1.224 . S
N109 Co99 2.128 . S
N109 C110 1.355 . S
N109 C112 1.311 . S
C110 N109 1.355 . S
C110 C111 1.363 . S
C110 H122 0.929 . S
C111 C110 1.363 . S
C111 N113 1.375 . S
C111 H129 0.931 . S
C112 N109 1.311 . S
C112 N113 1.347 . S
C112 H123 0.929 . S
N113 C111 1.375 . S
N113 C112 1.347 . S
C114 C117 1.365 . S
C114 N119 1.328 . S
C114 H120 0.929 . S
C115 C116 1.362 . S
C115 C118 1.378 . S
C115 H130 0.929 . S
C116 C115 1.362 . S
C116 C117 1.366 . S
C117 C114 1.365 . S
C117 C116 1.366 . S
C117 H131 0.930 . S
C118 C115 1.378 . S
C118 N119 1.315 . S
C118 H121 0.930 . S
N119 Co99 2.194 . S
N119 C114 1.328 . S
N119 C118 1.315 . S
H120 C114 0.929 . S
H121 C118 0.930 . S
H122 C110 0.929 . S
H123 C112 0.929 . S
O124 Co99 2.351 . S
O124 C127 1.244 . S
O125 Co99 2.155 . S
O125 C127 1.240 . S
O126 Co99 2.096 . S
O126 C107 1.247 . S
C127 O124 1.244 . S
C127 O125 1.240 . S
H128 C102 0.931 . S
H129 C111 0.931 . S
H130 C115 0.929 . S
H131 C117 0.930 . S
Co132 N136 2.148 . S
Co132 N142 2.128 . S
Co132 N152 2.194 . S
Co132 O157 2.351 . S
Co132 O158 2.155 . S
Co132 O159 2.096 . S
C133 N136 1.301 . S
C133 N137 1.328 1_556 S
C133 H138 0.930 . S
C134 C135 1.333 1_556 S
C134 N136 1.317 . S
C134 H139 0.930 . S
C135 C134 1.333 1_554 S
C135 N137 1.350 . S
C135 H161 0.931 . S
N136 Co132 2.148 . S
N136 C133 1.301 . S
N136 C134 1.317 . S
N137 C133 1.328 1_554 S
N137 C135 1.350 . S
H138 C133 0.930 . S
H139 C134 0.930 . S
C140 O141 1.224 . S
C140 O159 1.247 . S
O141 C140 1.224 . S
N142 Co132 2.128 . S
N142 C143 1.355 . S
N142 C145 1.311 . S
C143 N142 1.355 . S
C143 C144 1.363 . S
C143 H155 0.929 . S
C144 C143 1.363 . S
C144 N146 1.375 . S
C144 H162 0.931 . S
C145 N142 1.311 . S
C145 N146 1.347 . S
C145 H156 0.929 . S
N146 C144 1.375 . S
N146 C145 1.347 . S
C147 C150 1.365 . S
C147 N152 1.328 . S
C147 H153 0.929 . S
C148 C149 1.362 . S
C148 C151 1.378 . S
C148 H163 0.929 . S
C149 C148 1.362 . S
C149 C150 1.366 . S
C150 C147 1.365 . S
C150 C149 1.366 . S
C150 H164 0.930 . S
C151 C148 1.378 . S
C151 N152 1.315 . S
C151 H154 0.930 . S
N152 Co132 2.194 . S
N152 C147 1.328 . S
N152 C151 1.315 . S
H153 C147 0.929 . S
H154 C151 0.930 . S
H155 C143 0.929 . S
H156 C145 0.929 . S
O157 Co132 2.351 . S
O157 C160 1.244 . S
O158 Co132 2.155 . S
O158 C160 1.240 . S
O159 Co132 2.096 . S
O159 C140 1.247 . S
C160 O157 1.244 . S
C160 O158 1.240 . S
H161 C135 0.931 . S
H162 C144 0.931 . S
H163 C148 0.929 . S
H164 C150 0.930 . S
Co165 N169 2.148 1_556 S
Co165 N175 2.128 . S
Co165 N185 2.194 . S
Co165 O190 2.351 . S
Co165 O191 2.155 . S
Co165 O192 2.096 . S
C166 N169 1.301 . S
C166 N170 1.328 . S
C166 H171 0.930 . S
C167 C168 1.333 . S
C167 N169 1.317 . S
C167 H172 0.930 . S
C168 C167 1.333 . S
C168 N170 1.350 . S
C168 H194 0.931 . S
N169 Co165 2.148 1_554 S
N169 C166 1.301 . S
N169 C167 1.317 . S
N170 C166 1.328 . S
N170 C168 1.350 . S
H171 C166 0.930 . S
H172 C167 0.930 . S
C173 O174 1.224 . S
C173 O192 1.247 . S
O174 C173 1.224 . S
N175 Co165 2.128 . S
N175 C176 1.355 . S
N175 C178 1.311 . S
C176 N175 1.355 . S
C176 C177 1.363 . S
C176 H188 0.929 . S
C177 C176 1.363 . S
C177 N179 1.375 . S
C177 H195 0.931 . S
C178 N175 1.311 . S
C178 N179 1.347 . S
C178 H189 0.929 . S
N179 C177 1.375 . S
N179 C178 1.347 . S
C180 C183 1.365 . S
C180 N185 1.328 . S
C180 H186 0.929 1_556 S
C181 C182 1.362 . S
C181 C184 1.378 . S
C181 H196 0.929 . S
C182 C181 1.362 . S
C182 C183 1.366 . S
C183 C180 1.365 . S
C183 C182 1.366 . S
C183 H197 0.930 1_556 S
C184 C181 1.378 . S
C184 N185 1.315 . S
C184 H187 0.930 . S
N185 Co165 2.194 . S
N185 C180 1.328 . S
N185 C184 1.315 . S
H186 C180 0.929 1_554 S
H187 C184 0.930 . S
H188 C176 0.929 . S
H189 C178 0.929 . S
O190 Co165 2.351 . S
O190 C193 1.244 . S
O191 Co165 2.155 . S
O191 C193 1.240 . S
O192 Co165 2.096 . S
O192 C173 1.247 . S
C193 O190 1.244 . S
C193 O191 1.240 . S
H194 C168 0.931 . S
H195 C177 0.931 . S
H196 C181 0.929 . S
H197 C183 0.930 1_554 S
Co198 N202 2.148 . S
Co198 N208 2.128 . S
Co198 N218 2.194 . S
Co198 O223 2.351 . S
Co198 O224 2.155 . S
Co198 O225 2.096 . S
C199 N202 1.301 . S
C199 N203 1.328 . S
C199 H204 0.930 . S
C200 C201 1.333 . S
C200 N202 1.317 . S
C200 H205 0.930 . S
C201 C200 1.333 . S
C201 N203 1.350 . S
C201 H227 0.931 . S
N202 Co198 2.148 . S
N202 C199 1.301 . S
N202 C200 1.317 . S
N203 C199 1.328 . S
N203 C201 1.350 . S
H204 C199 0.930 . S
H205 C200 0.930 . S
C206 O207 1.224 . S
C206 O225 1.247 . S
O207 C206 1.224 . S
N208 Co198 2.128 . S
N208 C209 1.355 . S
N208 C211 1.311 . S
C209 N208 1.355 . S
C209 C210 1.363 1_556 S
C209 H221 0.929 . S
C210 C209 1.363 1_554 S
C210 N212 1.375 . S
C210 H228 0.931 . S
C211 N208 1.311 . S
C211 N212 1.347 1_556 S
C211 H222 0.929 . S
N212 C210 1.375 . S
N212 C211 1.347 1_554 S
C213 C216 1.365 . S
C213 N218 1.328 . S
C213 H219 0.929 . S
C214 C215 1.362 . S
C214 C217 1.378 . S
C214 H229 0.929 . S
C215 C214 1.362 . S
C215 C216 1.366 . S
C216 C213 1.365 . S
C216 C215 1.366 . S
C216 H230 0.930 . S
C217 C214 1.378 . S
C217 N218 1.315 . S
C217 H220 0.930 . S
N218 Co198 2.194 . S
N218 C213 1.328 . S
N218 C217 1.315 . S
H219 C213 0.929 . S
H220 C217 0.930 . S
H221 C209 0.929 . S
H222 C211 0.929 . S
O223 Co198 2.351 . S
O223 C226 1.244 . S
O224 Co198 2.155 . S
O224 C226 1.240 . S
O225 Co198 2.096 . S
O225 C206 1.247 . S
C226 O223 1.244 . S
C226 O224 1.240 . S
H227 C201 0.931 . S
H228 C210 0.931 . S
H229 C214 0.929 . S
H230 C216 0.930 . S
Co231 N235 2.148 . S
Co231 N241 2.128 1_556 S
Co231 N251 2.194 . S
Co231 O256 2.351 . S
Co231 O257 2.155 . S
Co231 O258 2.096 . S
C232 N235 1.301 . S
C232 N236 1.328 . S
C232 H237 0.930 . S
C233 C234 1.333 . S
C233 N235 1.317 . S
C233 H238 0.930 . S
C234 C233 1.333 . S
C234 N236 1.350 . S
C234 H260 0.931 . S
N235 Co231 2.148 . S
N235 C232 1.301 . S
N235 C233 1.317 . S
N236 C232 1.328 . S
N236 C234 1.350 . S
H237 C232 0.930 . S
H238 C233 0.930 . S
C239 O240 1.224 . S
C239 O258 1.247 . S
O240 C239 1.224 . S
N241 Co231 2.128 1_554 S
N241 C242 1.355 . S
N241 C244 1.311 . S
C242 N241 1.355 . S
C242 C243 1.363 . S
C242 H254 0.929 . S
C243 C242 1.363 . S
C243 N245 1.375 . S
C243 H261 0.931 . S
C244 N241 1.311 . S
C244 N245 1.347 . S
C244 H255 0.929 . S
N245 C243 1.375 . S
N245 C244 1.347 . S
C246 C249 1.365 . S
C246 N251 1.328 . S
C246 H252 0.929 . S
C247 C248 1.362 . S
C247 C250 1.378 . S
C247 H262 0.929 . S
C248 C247 1.362 . S
C248 C249 1.366 . S
C249 C246 1.365 . S
C249 C248 1.366 . S
C249 H263 0.930 . S
C250 C247 1.378 . S
C250 N251 1.315 . S
C250 H253 0.930 . S
N251 Co231 2.194 . S
N251 C246 1.328 . S
N251 C250 1.315 . S
H252 C246 0.929 . S
H253 C250 0.930 . S
H254 C242 0.929 . S
H255 C244 0.929 . S
O256 Co231 2.351 . S
O256 C259 1.244 . S
O257 Co231 2.155 . S
O257 C259 1.240 . S
O258 Co231 2.096 . S
O258 C239 1.247 . S
C259 O256 1.244 . S
C259 O257 1.240 . S
H260 C234 0.931 . S
H261 C243 0.931 . S
H262 C247 0.929 . S
H263 C249 0.930 . S
Co264 N268 2.148 1_554 S
Co264 N274 2.128 . S
Co264 N284 2.194 . S
Co264 O289 2.351 . S
Co264 O290 2.155 . S
Co264 O291 2.096 . S
C265 N268 1.301 . S
C265 N269 1.328 . S
C265 H270 0.930 . S
C266 C267 1.333 . S
C266 N268 1.317 . S
C266 H271 0.930 . S
C267 C266 1.333 . S
C267 N269 1.350 . S
C267 H293 0.931 . S
N268 Co264 2.148 1_556 S
N268 C265 1.301 . S
N268 C266 1.317 . S
N269 C265 1.328 . S
N269 C267 1.350 . S
H270 C265 0.930 . S
H271 C266 0.930 . S
C272 O273 1.224 . S
C272 O291 1.247 . S
O273 C272 1.224 . S
N274 Co264 2.128 . S
N274 C275 1.355 . S
N274 C277 1.311 . S
C275 N274 1.355 . S
C275 C276 1.363 . S
C275 H287 0.929 . S
C276 C275 1.363 . S
C276 N278 1.375 . S
C276 H294 0.931 . S
C277 N274 1.311 . S
C277 N278 1.347 . S
C277 H288 0.929 . S
N278 C276 1.375 . S
N278 C277 1.347 . S
C279 C282 1.365 . S
C279 N284 1.328 . S
C279 H285 0.929 1_554 S
C280 C281 1.362 . S
C280 C283 1.378 . S
C280 H295 0.929 . S
C281 C280 1.362 . S
C281 C282 1.366 . S
C282 C279 1.365 . S
C282 C281 1.366 . S
C282 H296 0.930 1_554 S
C283 C280 1.378 . S
C283 N284 1.315 . S
C283 H286 0.930 . S
N284 Co264 2.194 . S
N284 C279 1.328 . S
N284 C283 1.315 . S
H285 C279 0.929 1_556 S
H286 C283 0.930 . S
H287 C275 0.929 . S
H288 C277 0.929 . S
O289 Co264 2.351 . S
O289 C292 1.244 . S
O290 Co264 2.155 . S
O290 C292 1.240 . S
O291 Co264 2.096 . S
O291 C272 1.247 . S
C292 O289 1.244 . S
C292 O290 1.240 . S
H293 C267 0.931 . S
H294 C276 0.931 . S
H295 C280 0.929 . S
H296 C282 0.930 1_556 S
Co297 N301 2.148 . S
Co297 N307 2.128 . S
Co297 N317 2.194 . S
Co297 O322 2.351 . S
Co297 O323 2.155 . S
Co297 O324 2.096 . S
C298 N301 1.301 . S
C298 N302 1.328 1_554 S
C298 H303 0.930 . S
C299 C300 1.333 1_554 S
C299 N301 1.317 . S
C299 H304 0.930 . S
C300 C299 1.333 1_556 S
C300 N302 1.350 . S
C300 H326 0.931 . S
N301 Co297 2.148 . S
N301 C298 1.301 . S
N301 C299 1.317 . S
N302 C298 1.328 1_556 S
N302 C300 1.350 . S
H303 C298 0.930 . S
H304 C299 0.930 . S
C305 O306 1.224 . S
C305 O324 1.247 . S
O306 C305 1.224 . S
N307 Co297 2.128 . S
N307 C308 1.355 . S
N307 C310 1.311 . S
C308 N307 1.355 . S
C308 C309 1.363 . S
C308 H320 0.929 . S
C309 C308 1.363 . S
C309 N311 1.375 . S
C309 H327 0.931 . S
C310 N307 1.311 . S
C310 N311 1.347 . S
C310 H321 0.929 . S
N311 C309 1.375 . S
N311 C310 1.347 . S
C312 C315 1.365 . S
C312 N317 1.328 . S
C312 H318 0.929 . S
C313 C314 1.362 . S
C313 C316 1.378 . S
C313 H328 0.929 . S
C314 C313 1.362 . S
C314 C315 1.366 . S
C315 C312 1.365 . S
C315 C314 1.366 . S
C315 H329 0.930 . S
C316 C313 1.378 . S
C316 N317 1.315 . S
C316 H319 0.930 . S
N317 Co297 2.194 . S
N317 C312 1.328 . S
N317 C316 1.315 . S
H318 C312 0.929 . S
H319 C316 0.930 . S
H320 C308 0.929 . S
H321 C310 0.929 . S
O322 Co297 2.351 . S
O322 C325 1.244 . S
O323 Co297 2.155 . S
O323 C325 1.240 . S
O324 Co297 2.096 . S
O324 C305 1.247 . S
C325 O322 1.244 . S
C325 O323 1.240 . S
H326 C300 0.931 . S
H327 C309 0.931 . S
H328 C313 0.929 . S
H329 C315 0.930 . S
Co330 N334 2.148 . S
Co330 N340 2.128 . S
Co330 N350 2.194 . S
Co330 O355 2.351 . S
Co330 O356 2.155 . S
Co330 O357 2.096 . S
C331 N334 1.301 . S
C331 N335 1.328 . S
C331 H336 0.930 . S
C332 C333 1.333 . S
C332 N334 1.317 . S
C332 H337 0.930 . S
C333 C332 1.333 . S
C333 N335 1.350 . S
C333 H359 0.931 . S
N334 Co330 2.148 . S
N334 C331 1.301 . S
N334 C332 1.317 . S
N335 C331 1.328 . S
N335 C333 1.350 . S
H336 C331 0.930 . S
H337 C332 0.930 . S
C338 O339 1.224 . S
C338 O357 1.247 . S
O339 C338 1.224 . S
N340 Co330 2.128 . S
N340 C341 1.355 . S
N340 C343 1.311 . S
C341 N340 1.355 . S
C341 C342 1.363 . S
C341 H353 0.929 . S
C342 C341 1.363 . S
C342 N344 1.375 . S
C342 H360 0.931 . S
C343 N340 1.311 . S
C343 N344 1.347 . S
C343 H354 0.929 . S
N344 C342 1.375 . S
N344 C343 1.347 . S
C345 C348 1.365 . S
C345 N350 1.328 . S
C345 H351 0.929 . S
C346 C347 1.362 . S
C346 C349 1.378 . S
C346 H361 0.929 . S
C347 C346 1.362 . S
C347 C348 1.366 . S
C348 C345 1.365 . S
C348 C347 1.366 . S
C348 H362 0.930 . S
C349 C346 1.378 . S
C349 N350 1.315 . S
C349 H352 0.930 . S
N350 Co330 2.194 . S
N350 C345 1.328 . S
N350 C349 1.315 . S
H351 C345 0.929 . S
H352 C349 0.930 . S
H353 C341 0.929 . S
H354 C343 0.929 . S
O355 Co330 2.351 . S
O355 C358 1.244 . S
O356 Co330 2.155 . S
O356 C358 1.240 . S
O357 Co330 2.096 . S
O357 C338 1.247 . S
C358 O355 1.244 . S
C358 O356 1.240 . S
H359 C333 0.931 . S
H360 C342 0.931 . S
H361 C346 0.929 . S
H362 C348 0.930 . S
Co363 N367 2.148 . S
Co363 N373 2.128 . S
Co363 N383 2.194 . S
Co363 O388 2.351 . S
Co363 O389 2.155 . S
Co363 O390 2.096 . S
C364 N367 1.301 . S
C364 N368 1.328 . S
C364 H369 0.930 . S
C365 C366 1.333 . S
C365 N367 1.317 . S
C365 H370 0.930 . S
C366 C365 1.333 . S
C366 N368 1.350 . S
C366 H392 0.931 . S
N367 Co363 2.148 . S
N367 C364 1.301 . S
N367 C365 1.317 . S
N368 C364 1.328 . S
N368 C366 1.350 . S
H369 C364 0.930 . S
H370 C365 0.930 . S
C371 O372 1.224 . S
C371 O390 1.247 . S
O372 C371 1.224 . S
N373 Co363 2.128 . S
N373 C374 1.355 . S
N373 C376 1.311 . S
C374 N373 1.355 . S
C374 C375 1.363 . S
C374 H386 0.929 . S
C375 C374 1.363 . S
C375 N377 1.375 . S
C375 H393 0.931 . S
C376 N373 1.311 . S
C376 N377 1.347 . S
C376 H387 0.929 . S
N377 C375 1.375 . S
N377 C376 1.347 . S
C378 C381 1.365 . S
C378 N383 1.328 . S
C378 H384 0.929 . S
C379 C380 1.362 . S
C379 C382 1.378 . S
C379 H394 0.929 . S
C380 C379 1.362 . S
C380 C381 1.366 . S
C381 C378 1.365 . S
C381 C380 1.366 . S
C381 H395 0.930 . S
C382 C379 1.378 . S
C382 N383 1.315 . S
C382 H385 0.930 . S
N383 Co363 2.194 . S
N383 C378 1.328 . S
N383 C382 1.315 . S
H384 C378 0.929 . S
H385 C382 0.930 . S
H386 C374 0.929 . S
H387 C376 0.929 . S
O388 Co363 2.351 . S
O388 C391 1.244 . S
O389 Co363 2.155 . S
O389 C391 1.240 . S
O390 Co363 2.096 . S
O390 C371 1.247 . S
C391 O388 1.244 . S
C391 O389 1.240 . S
H392 C366 0.931 . S
H393 C375 0.931 . S
H394 C379 0.929 . S
H395 C381 0.930 . S
C396 C397 1.369 . S
C396 C398 1.419 . S
C396 H400 0.930 . S
C397 C396 1.369 . S
C397 C406 1.429 . S
C398 C396 1.419 . S
C398 C399 1.363 . S
C398 H401 0.929 . S
C399 C398 1.363 . S
C399 C405 1.428 . S
H400 C396 0.930 . S
H401 C398 0.929 . S
S402 N403 1.613 . S
S402 N404 1.610 . S
N403 S402 1.613 . S
N403 C406 1.350 . S
N404 S402 1.610 . S
N404 C405 1.351 . S
C405 C399 1.428 . S
C405 N404 1.351 . S
C405 C406 1.434 . S
C406 C397 1.429 . S
C406 N403 1.350 . S
C406 C405 1.434 . S
C407 C408 1.369 . S
C407 C409 1.419 . S
C407 H411 0.930 . S
C408 C407 1.369 . S
C408 C417 1.429 . S
C409 C407 1.419 . S
C409 C410 1.363 . S
C409 H412 0.929 . S
C410 C409 1.363 . S
C410 C416 1.428 . S
H411 C407 0.930 . S
H412 C409 0.929 . S
S413 N414 1.613 . S
S413 N415 1.610 . S
N414 S413 1.613 . S
N414 C417 1.350 . S
N415 S413 1.610 . S
N415 C416 1.351 . S
C416 C410 1.428 . S
C416 N415 1.351 . S
C416 C417 1.434 . S
C417 C408 1.429 . S
C417 N414 1.350 . S
C417 C416 1.434 . S
C418 C419 1.369 1_556 S
C418 C420 1.419 . S
C418 H422 0.930 1_556 S
C419 C418 1.369 1_554 S
C419 C428 1.429 1_554 S
C420 C418 1.419 . S
C420 C421 1.363 . S
C420 H423 0.929 . S
C421 C420 1.363 . S
C421 C427 1.428 . S
H422 C418 0.930 1_554 S
H423 C420 0.929 . S
S424 N425 1.613 1_556 S
S424 N426 1.610 . S
N425 S424 1.613 1_554 S
N425 C428 1.350 1_554 S
N426 S424 1.610 . S
N426 C427 1.351 . S
C427 C421 1.428 . S
C427 N426 1.351 . S
C427 C428 1.434 . S
C428 C419 1.429 1_556 S
C428 N425 1.350 1_556 S
C428 C427 1.434 . S
C429 C430 1.369 1_554 S
C429 C431 1.419 . S
C429 H433 0.930 1_554 S
C430 C429 1.369 1_556 S
C430 C439 1.429 1_556 S
C431 C429 1.419 . S
C431 C432 1.363 . S
C431 H434 0.929 . S
C432 C431 1.363 . S
C432 C438 1.428 . S
H433 C429 0.930 1_556 S
H434 C431 0.929 . S
S435 N436 1.613 . S
S435 N437 1.610 . S
N436 S435 1.613 . S
N436 C439 1.350 . S
N437 S435 1.610 . S
N437 C438 1.351 . S
C438 C432 1.428 . S
C438 N437 1.351 . S
C438 C439 1.434 . S
C439 C430 1.429 1_554 S
C439 N436 1.350 . S
C439 C438 1.434 . S
C440 C441 1.369 . S
C440 C442 1.419 . S
C440 H444 0.930 . S
C441 C440 1.369 . S
C441 C450 1.429 . S
C442 C440 1.419 . S
C442 C443 1.363 . S
C442 H445 0.929 . S
C443 C442 1.363 . S
C443 C449 1.428 . S
H444 C440 0.930 . S
H445 C442 0.929 . S
S446 N447 1.613 . S
S446 N448 1.610 . S
N447 S446 1.613 . S
N447 C450 1.350 . S
N448 S446 1.610 . S
N448 C449 1.351 . S
C449 C443 1.428 . S
C449 N448 1.351 . S
C449 C450 1.434 . S
C450 C441 1.429 . S
C450 N447 1.350 . S
C450 C449 1.434 . S
C451 C452 1.369 . S
C451 C453 1.419 . S
C451 H455 0.930 . S
C452 C451 1.369 . S
C452 C461 1.429 . S
C453 C451 1.419 . S
C453 C454 1.363 . S
C453 H456 0.929 . S
C454 C453 1.363 . S
C454 C460 1.428 . S
H455 C451 0.930 . S
H456 C453 0.929 . S
S457 N458 1.613 . S
S457 N459 1.610 . S
N458 S457 1.613 . S
N458 C461 1.350 . S
N459 S457 1.610 . S
N459 C460 1.351 . S
C460 C454 1.428 . S
C460 N459 1.351 . S
C460 C461 1.434 . S
C461 C452 1.429 . S
C461 N458 1.350 . S
C461 C460 1.434 . S
C462 C463 1.369 . S
C462 C464 1.419 . S
C462 H466 0.930 . S
C463 C462 1.369 . S
C463 C472 1.429 . S
C464 C462 1.419 . S
C464 C465 1.363 . S
C464 H467 0.929 . S
C465 C464 1.363 . S
C465 C471 1.428 . S
H466 C462 0.930 . S
H467 C464 0.929 . S
S468 N469 1.613 . S
S468 N470 1.610 . S
N469 S468 1.613 . S
N469 C472 1.350 . S
N470 S468 1.610 . S
N470 C471 1.351 . S
C471 C465 1.428 . S
C471 N470 1.351 . S
C471 C472 1.434 . S
C472 C463 1.429 . S
C472 N469 1.350 . S
C472 C471 1.434 . S
C473 C474 1.369 . S
C473 C475 1.419 . S
C473 H477 0.930 . S
C474 C473 1.369 . S
C474 C483 1.429 . S
C475 C473 1.419 . S
C475 C476 1.363 . S
C475 H478 0.929 . S
C476 C475 1.363 . S
C476 C482 1.428 . S
H477 C473 0.930 . S
H478 C475 0.929 . S
S479 N480 1.613 . S
S479 N481 1.610 . S
N480 S479 1.613 . S
N480 C483 1.350 . S
N481 S479 1.610 . S
N481 C482 1.351 . S
C482 C476 1.428 . S
C482 N481 1.351 . S
C482 C483 1.434 . S
C483 C474 1.429 . S
C483 N480 1.350 . S
C483 C482 1.434 . S
C484 C485 1.369 . S
C484 C486 1.419 . S
C484 H488 0.930 . S
C485 C484 1.369 . S
C485 C494 1.429 . S
C486 C484 1.419 . S
C486 C487 1.363 . S
C486 H489 0.929 . S
C487 C486 1.363 . S
C487 C493 1.428 . S
H488 C484 0.930 . S
H489 C486 0.929 . S
S490 N491 1.613 . S
S490 N492 1.610 . S
N491 S490 1.613 . S
N491 C494 1.350 . S
N492 S490 1.610 . S
N492 C493 1.351 . S
C493 C487 1.428 . S
C493 N492 1.351 . S
C493 C494 1.434 . S
C494 C485 1.429 . S
C494 N491 1.350 . S
C494 C493 1.434 . S
C495 C496 1.369 . S
C495 C497 1.419 . S
C495 H499 0.930 . S
C496 C495 1.369 . S
C496 C505 1.429 . S
C497 C495 1.419 . S
C497 C498 1.363 . S
C497 H500 0.929 . S
C498 C497 1.363 . S
C498 C504 1.428 . S
H499 C495 0.930 . S
H500 C497 0.929 . S
S501 N502 1.613 . S
S501 N503 1.610 . S
N502 S501 1.613 . S
N502 C505 1.350 . S
N503 S501 1.610 . S
N503 C504 1.351 . S
C504 C498 1.428 . S
C504 N503 1.351 . S
C504 C505 1.434 . S
C505 C496 1.429 . S
C505 N502 1.350 . S
C505 C504 1.434 . S
C506 C507 1.369 1_556 S
C506 C508 1.419 . S
C506 H510 0.930 . S
C507 C506 1.369 1_554 S
C507 C516 1.429 1_554 S
C508 C506 1.419 . S
C508 C509 1.363 . S
C508 H511 0.929 . S
C509 C508 1.363 . S
C509 C515 1.428 . S
H510 C506 0.930 . S
H511 C508 0.929 . S
S512 N513 1.613 1_556 S
S512 N514 1.610 . S
N513 S512 1.613 1_554 S
N513 C516 1.350 1_554 S
N514 S512 1.610 . S
N514 C515 1.351 . S
C515 C509 1.428 . S
C515 N514 1.351 . S
C515 C516 1.434 . S
C516 C507 1.429 1_556 S
C516 N513 1.350 1_556 S
C516 C515 1.434 . S
C517 C518 1.369 1_554 S
C517 C519 1.419 . S
C517 H521 0.930 1_554 S
C518 C517 1.369 1_556 S
C518 C527 1.429 1_556 S
C519 C517 1.419 . S
C519 C520 1.363 . S
C519 H522 0.929 . S
C520 C519 1.363 . S
C520 C526 1.428 . S
H521 C517 0.930 1_556 S
H522 C519 0.929 . S
S523 N524 1.613 1_554 S
S523 N525 1.610 . S
N524 S523 1.613 1_556 S
N524 C527 1.350 1_556 S
N525 S523 1.610 . S
N525 C526 1.351 . S
C526 C520 1.428 . S
C526 N525 1.351 . S
C526 C527 1.434 . S
C527 C518 1.429 1_554 S
C527 N524 1.350 1_554 S
C527 C526 1.434 . S
C528 C529 1.369 . S
C528 C530 1.419 . S
C528 H532 0.930 . S
C529 C528 1.369 . S
C529 C538 1.429 . S
C530 C528 1.419 . S
C530 C531 1.363 . S
C530 H533 0.929 1_556 S
C531 C530 1.363 . S
C531 C537 1.428 . S
H532 C528 0.930 . S
H533 C530 0.929 1_554 S
S534 N535 1.613 . S
S534 N536 1.610 . S
N535 S534 1.613 . S
N535 C538 1.350 . S
N536 S534 1.610 . S
N536 C537 1.351 . S
C537 C531 1.428 . S
C537 N536 1.351 . S
C537 C538 1.434 . S
C538 C529 1.429 . S
C538 N535 1.350 . S
C538 C537 1.434 . S
C539 C540 1.369 . S
C539 C541 1.419 1_554 S
C539 H543 0.930 . S
C540 C539 1.369 . S
C540 C549 1.429 . S
C541 C539 1.419 1_556 S
C541 C542 1.363 1_556 S
C541 H544 0.929 . S
C542 C541 1.363 1_554 S
C542 C548 1.428 . S
H543 C539 0.930 . S
H544 C541 0.929 . S
S545 N546 1.613 . S
S545 N547 1.610 . S
N546 S545 1.613 . S
N546 C549 1.350 . S
N547 S545 1.610 . S
N547 C548 1.351 . S
C548 C542 1.428 . S
C548 N547 1.351 . S
C548 C549 1.434 . S
C549 C540 1.429 . S
C549 N546 1.350 . S
C549 C548 1.434 . S
C550 C551 1.369 . S
C550 C552 1.419 . S
C550 H554 0.930 . S
C551 C550 1.369 . S
C551 C560 1.429 . S
C552 C550 1.419 . S
C552 C553 1.363 . S
C552 H555 0.929 . S
C553 C552 1.363 . S
C553 C559 1.428 . S
H554 C550 0.930 . S
H555 C552 0.929 . S
S556 N557 1.613 . S
S556 N558 1.610 . S
N557 S556 1.613 . S
N557 C560 1.350 . S
N558 S556 1.610 . S
N558 C559 1.351 . S
C559 C553 1.428 . S
C559 N558 1.351 . S
C559 C560 1.434 . S
C560 C551 1.429 . S
C560 N557 1.350 . S
C560 C559 1.434 . S
C561 C562 1.369 . S
C561 C563 1.419 . S
C561 H565 0.930 . S
C562 C561 1.369 . S
C562 C571 1.429 . S
C563 C561 1.419 . S
C563 C564 1.363 . S
C563 H566 0.929 . S
C564 C563 1.363 . S
C564 C570 1.428 . S
H565 C561 0.930 . S
H566 C563 0.929 . S
S567 N568 1.613 . S
S567 N569 1.610 . S
N568 S567 1.613 . S
N568 C571 1.350 . S
N569 S567 1.610 . S
N569 C570 1.351 . S
C570 C564 1.428 . S
C570 N569 1.351 . S
C570 C571 1.434 . S
C571 C562 1.429 . S
C571 N568 1.350 . S
C571 C570 1.434 . S
C572 C573 1.369 . S
C572 C574 1.419 . S
C572 H576 0.930 . S
C573 C572 1.369 . S
C573 C582 1.429 . S
C574 C572 1.419 . S
C574 C575 1.363 . S
C574 H577 0.929 . S
C575 C574 1.363 . S
C575 C581 1.428 . S
H576 C572 0.930 . S
H577 C574 0.929 . S
S578 N579 1.613 . S
S578 N580 1.610 . S
N579 S578 1.613 . S
N579 C582 1.350 . S
N580 S578 1.610 . S
N580 C581 1.351 . S
C581 C575 1.428 . S
C581 N580 1.351 . S
C581 C582 1.434 . S
C582 C573 1.429 . S
C582 N579 1.350 . S
C582 C581 1.434 . S
C583 C584 1.369 . S
C583 C585 1.419 . S
C583 H587 0.930 . S
C584 C583 1.369 . S
C584 C593 1.429 . S
C585 C583 1.419 . S
C585 C586 1.363 . S
C585 H588 0.929 . S
C586 C585 1.363 . S
C586 C592 1.428 . S
H587 C583 0.930 . S
H588 C585 0.929 . S
S589 N590 1.613 . S
S589 N591 1.610 . S
N590 S589 1.613 . S
N590 C593 1.350 . S
N591 S589 1.610 . S
N591 C592 1.351 . S
C592 C586 1.428 . S
C592 N591 1.351 . S
C592 C593 1.434 . S
C593 C584 1.429 . S
C593 N590 1.350 . S
C593 C592 1.434 . S
C594 C595 1.369 . S
C594 C596 1.419 . S
C594 H598 0.930 . S
C595 C594 1.369 . S
C595 C604 1.429 . S
C596 C594 1.419 . S
C596 C597 1.363 . S
C596 H599 0.929 . S
C597 C596 1.363 . S
C597 C603 1.428 . S
H598 C594 0.930 . S
H599 C596 0.929 . S
S600 N601 1.613 . S
S600 N602 1.610 . S
N601 S600 1.613 . S
N601 C604 1.350 . S
N602 S600 1.610 . S
N602 C603 1.351 . S
C603 C597 1.428 . S
C603 N602 1.351 . S
C603 C604 1.434 . S
C604 C595 1.429 . S
C604 N601 1.350 . S
C604 C603 1.434 . S
C605 C606 1.369 . S
C605 C607 1.419 . S
C605 H609 0.930 . S
C606 C605 1.369 . S
C606 C615 1.429 . S
C607 C605 1.419 . S
C607 C608 1.363 . S
C607 H610 0.929 . S
C608 C607 1.363 . S
C608 C614 1.428 . S
H609 C605 0.930 . S
H610 C607 0.929 . S
S611 N612 1.613 . S
S611 N613 1.610 . S
N612 S611 1.613 . S
N612 C615 1.350 . S
N613 S611 1.610 . S
N613 C614 1.351 . S
C614 C608 1.428 . S
C614 N613 1.351 . S
C614 C615 1.434 . S
C615 C606 1.429 . S
C615 N612 1.350 . S
C615 C614 1.434 . S
C616 C617 1.369 . S
C616 C618 1.419 . S
C616 H620 0.930 . S
C617 C616 1.369 . S
C617 C626 1.429 . S
C618 C616 1.419 . S
C618 C619 1.363 . S
C618 H621 0.929 . S
C619 C618 1.363 . S
C619 C625 1.428 . S
H620 C616 0.930 . S
H621 C618 0.929 . S
S622 N623 1.613 . S
S622 N624 1.610 . S
N623 S622 1.613 . S
N623 C626 1.350 . S
N624 S622 1.610 . S
N624 C625 1.351 . S
C625 C619 1.428 . S
C625 N624 1.351 . S
C625 C626 1.434 . S
C626 C617 1.429 . S
C626 N623 1.350 . S
C626 C625 1.434 . S
C627 C628 1.369 . S
C627 C629 1.419 . S
C627 H631 0.930 . S
C628 C627 1.369 . S
C628 C637 1.429 . S
C629 C627 1.419 . S
C629 C630 1.363 . S
C629 H632 0.929 . S
C630 C629 1.363 . S
C630 C636 1.428 . S
H631 C627 0.930 . S
H632 C629 0.929 . S
S633 N634 1.613 . S
S633 N635 1.610 . S
N634 S633 1.613 . S
N634 C637 1.350 . S
N635 S633 1.610 . S
N635 C636 1.351 . S
C636 C630 1.428 . S
C636 N635 1.351 . S
C636 C637 1.434 . S
C637 C628 1.429 . S
C637 N634 1.350 . S
C637 C636 1.434 . S
C638 C639 1.369 . S
C638 C640 1.419 . S
C638 H642 0.930 . S
C639 C638 1.369 . S
C639 C648 1.429 . S
C640 C638 1.419 . S
C640 C641 1.363 . S
C640 H643 0.929 . S
C641 C640 1.363 . S
C641 C647 1.428 . S
H642 C638 0.930 . S
H643 C640 0.929 . S
S644 N645 1.613 1_556 S
S644 N646 1.610 . S
N645 S644 1.613 1_554 S
N645 C648 1.350 1_554 S
N646 S644 1.610 . S
N646 C647 1.351 . S
C647 C641 1.428 . S
C647 N646 1.351 . S
C647 C648 1.434 . S
C648 C639 1.429 . S
C648 N645 1.350 1_556 S
C648 C647 1.434 . S
C649 C650 1.369 . S
C649 C651 1.419 1_554 S
C649 H653 0.930 . S
C650 C649 1.369 . S
C650 C659 1.429 . S
C651 C649 1.419 1_556 S
C651 C652 1.363 1_556 S
C651 H654 0.929 . S
C652 C651 1.363 1_554 S
C652 C658 1.428 . S
H653 C649 0.930 . S
H654 C651 0.929 . S
S655 N656 1.613 . S
S655 N657 1.610 . S
N656 S655 1.613 . S
N656 C659 1.350 . S
N657 S655 1.610 . S
N657 C658 1.351 . S
C658 C652 1.428 . S
C658 N657 1.351 . S
C658 C659 1.434 . S
C659 C650 1.429 . S
C659 N656 1.350 . S
C659 C658 1.434 . S
C660 C661 1.369 . S
C660 C662 1.419 . S
C660 H664 0.930 . S
C661 C660 1.369 . S
C661 C670 1.429 . S
C662 C660 1.419 . S
C662 C663 1.363 . S
C662 H665 0.929 . S
C663 C662 1.363 . S
C663 C669 1.428 . S
H664 C660 0.930 . S
H665 C662 0.929 . S
S666 N667 1.613 . S
S666 N668 1.610 . S
N667 S666 1.613 . S
N667 C670 1.350 . S
N668 S666 1.610 . S
N668 C669 1.351 . S
C669 C663 1.428 . S
C669 N668 1.351 . S
C669 C670 1.434 . S
C670 C661 1.429 . S
C670 N667 1.350 . S
C670 C669 1.434 . S
C671 C672 1.369 . S
C671 C673 1.419 1_655 S
C671 H675 0.930 . S
C672 C671 1.369 . S
C672 C681 1.429 . S
C673 C671 1.419 1_455 S
C673 C674 1.363 . S
C673 H676 0.929 . S
C674 C673 1.363 . S
C674 C680 1.428 . S
H675 C671 0.930 . S
H676 C673 0.929 . S
S677 N678 1.613 . S
S677 N679 1.610 1_655 S
N678 S677 1.613 . S
N678 C681 1.350 . S
N679 S677 1.610 1_455 S
N679 C680 1.351 . S
C680 C674 1.428 . S
C680 N679 1.351 . S
C680 C681 1.434 1_455 S
C681 C672 1.429 . S
C681 N678 1.350 . S
C681 C680 1.434 1_655 S
C682 C683 1.369 . S
C682 C684 1.419 1_545 S
C682 H686 0.930 . S
C683 C682 1.369 . S
C683 C692 1.429 . S
C684 C682 1.419 1_565 S
C684 C685 1.363 . S
C684 H687 0.929 . S
C685 C684 1.363 . S
C685 C691 1.428 . S
H686 C682 0.930 . S
H687 C684 0.929 . S
S688 N689 1.613 . S
S688 N690 1.610 1_545 S
N689 S688 1.613 . S
N689 C692 1.350 . S
N690 S688 1.610 1_565 S
N690 C691 1.351 . S
C691 C685 1.428 . S
C691 N690 1.351 . S
C691 C692 1.434 1_565 S
C692 C683 1.429 . S
C692 N689 1.350 . S
C692 C691 1.434 1_545 S
C693 C694 1.369 . S
C693 C695 1.419 . S
C693 H697 0.930 . S
C694 C693 1.369 . S
C694 C703 1.429 . S
C695 C693 1.419 . S
C695 C696 1.363 . S
C695 H698 0.929 . S
C696 C695 1.363 . S
C696 C702 1.428 . S
H697 C693 0.930 . S
H698 C695 0.929 . S
S699 N700 1.613 . S
S699 N701 1.610 . S
N700 S699 1.613 . S
N700 C703 1.350 . S
N701 S699 1.610 . S
N701 C702 1.351 . S
C702 C696 1.428 . S
C702 N701 1.351 . S
C702 C703 1.434 . S
C703 C694 1.429 . S
C703 N700 1.350 . S
C703 C702 1.434 . S
C704 C705 1.369 . S
C704 C706 1.419 1_455 S
C704 H708 0.930 . S
C705 C704 1.369 . S
C705 C714 1.429 . S
C706 C704 1.419 1_655 S
C706 C707 1.363 . S
C706 H709 0.929 . S
C707 C706 1.363 . S
C707 C713 1.428 . S
H708 C704 0.930 . S
H709 C706 0.929 . S
S710 N711 1.613 1_554 S
S710 N712 1.610 1_455 S
N711 S710 1.613 1_556 S
N711 C714 1.350 . S
N712 S710 1.610 1_655 S
N712 C713 1.351 1_554 S
C713 C707 1.428 . S
C713 N712 1.351 1_556 S
C713 C714 1.434 1_655 S
C714 C705 1.429 . S
C714 N711 1.350 . S
C714 C713 1.434 1_455 S
C715 C716 1.369 . S
C715 C717 1.419 1_546 S
C715 H719 0.930 . S
C716 C715 1.369 . S
C716 C725 1.429 . S
C717 C715 1.419 1_564 S
C717 C718 1.363 . S
C717 H720 0.929 . S
C718 C717 1.363 . S
C718 C724 1.428 . S
H719 C715 0.930 . S
H720 C717 0.929 . S
S721 N722 1.649 1_554 S
S721 N723 1.598 1_545 S
N722 S721 1.649 1_556 S
N722 C725 1.350 . S
N723 S721 1.598 1_565 S
N723 C724 1.351 . S
C724 C718 1.428 . S
C724 N723 1.351 . S
C724 C725 1.434 1_564 S
C725 C716 1.429 . S
C725 N722 1.350 . S
C725 C724 1.434 1_546 S
C397 N5 1.394 . S
C399 N14 1.395 . S
C408 N47 1.395 . S
C410 N38 1.394 . S
C419 N80 1.395 . S
C421 N71 1.395 . S
C430 N104 1.395 . S
C432 N113 1.395 . S
C441 N137 1.394 . S
C443 N146 1.395 . S
C452 N179 1.395 . S
C454 N170 1.394 . S
C463 N203 1.395 . S
C465 N212 1.395 . S
C474 N236 1.394 . S
C476 N245 1.395 . S
C485 N278 1.395 . S
C487 N269 1.394 . S
C496 N302 1.395 . S
C498 N311 1.395 . S
C507 N335 1.394 . S
C509 N344 1.395 . S
C518 N377 1.395 . S
C520 N368 1.394 . S
C529 C206 1.548 . S
C531 C8 1.547 1_556 S
C540 C41 1.549 . S
C542 C239 1.546 1_554 S
C551 C272 1.545 . S
C553 C74 1.548 . S
C562 C305 1.544 . S
C564 C107 1.548 . S
C573 C338 1.548 . S
C575 C140 1.547 . S
C584 C371 1.547 . S
C586 C173 1.548 . S
C595 C28 1.265 . S
C597 C358 1.259 . S
C606 C61 1.260 . S
C608 C391 1.264 . S
C617 C94 1.265 . S
C619 C226 1.259 . S
C628 C259 1.262 . S
C630 C127 1.257 . S
C639 C292 1.258 1_556 S
C641 C160 1.259 . S
C650 C325 1.265 . S
C652 C193 1.258 1_554 S
C661 C17 1.558 . S
C663 C314 1.556 . S
C672 C50 1.552 . S
C674 C347 1.553 . S
C683 C380 1.552 . S
C685 C83 1.553 . S
C694 C116 1.558 . S
C696 C215 1.555 . S
C705 C149 1.553 . S
C707 C248 1.556 . S
C716 C182 1.553 . S
C718 C281 1.553 . S
