# Generated by pormake.
# Topology sou, (8)-cn, num edge types: 1
# Building blocks:
#     Node 0, Type 0, BuildingBlock: EBIMEJ_clean_sbu_0, # of connection points: 8
#     Node 1, Type 0, BuildingBlock: EBIMEJ_clean_sbu_0, # of connection points: 8
#     Node 2, Type 0, BuildingBlock: EBIMEJ_clean_sbu_0, # of connection points: 8
#     Node 3, Type 0, BuildingBlock: EBIMEJ_clean_sbu_0, # of connection points: 8
#     Node 4, Type 0, BuildingBlock: EBIMEJ_clean_sbu_0, # of connection points: 8
#     Node 5, Type 0, BuildingBlock: EBIMEJ_clean_sbu_0, # of connection points: 8
#     Node 6, Type 0, BuildingBlock: EBIMEJ_clean_sbu_0, # of connection points: 8
#     Node 7, Type 0, BuildingBlock: EBIMEJ_clean_sbu_0, # of connection points: 8
#     Node 8, Type 0, BuildingBlock: EBIMEJ_clean_sbu_0, # of connection points: 8
#     Node 9, Type 0, BuildingBlock: EBIMEJ_clean_sbu_0, # of connection points: 8
#     Node 10, Type 0, BuildingBlock: EBIMEJ_clean_sbu_0, # of connection points: 8
#     Node 11, Type 0, BuildingBlock: EBIMEJ_clean_sbu_0, # of connection points: 8
#     Node 12, Type 0, BuildingBlock: EBIMEJ_clean_sbu_0, # of connection points: 8
#     Node 13, Type 0, BuildingBlock: EBIMEJ_clean_sbu_0, # of connection points: 8
#     Node 14, Type 0, BuildingBlock: EBIMEJ_clean_sbu_0, # of connection points: 8
#     Node 15, Type 0, BuildingBlock: EBIMEJ_clean_sbu_0, # of connection points: 8
#     Node 16, Type 0, BuildingBlock: EBIMEJ_clean_sbu_0, # of connection points: 8
#     Node 17, Type 0, BuildingBlock: EBIMEJ_clean_sbu_0, # of connection points: 8
#     Node 18, Type 0, BuildingBlock: EBIMEJ_clean_sbu_0, # of connection points: 8
#     Node 19, Type 0, BuildingBlock: EBIMEJ_clean_sbu_0, # of connection points: 8
#     Node 20, Type 0, BuildingBlock: EBIMEJ_clean_sbu_0, # of connection points: 8
#     Node 21, Type 0, BuildingBlock: EBIMEJ_clean_sbu_0, # of connection points: 8
#     Node 22, Type 0, BuildingBlock: EBIMEJ_clean_sbu_0, # of connection points: 8
#     Node 23, Type 0, BuildingBlock: EBIMEJ_clean_sbu_0, # of connection points: 8
#     Node 24, Type 0, BuildingBlock: EBIMEJ_clean_sbu_0, # of connection points: 8
#     Node 25, Type 0, BuildingBlock: EBIMEJ_clean_sbu_0, # of connection points: 8
#     Node 26, Type 0, BuildingBlock: EBIMEJ_clean_sbu_0, # of connection points: 8
#     Node 27, Type 0, BuildingBlock: EBIMEJ_clean_sbu_0, # of connection points: 8
#     Node 28, Type 0, BuildingBlock: EBIMEJ_clean_sbu_0, # of connection points: 8
#     Node 29, Type 0, BuildingBlock: EBIMEJ_clean_sbu_0, # of connection points: 8
#     Node 30, Type 0, BuildingBlock: EBIMEJ_clean_sbu_0, # of connection points: 8
#     Node 31, Type 0, BuildingBlock: EBIMEJ_clean_sbu_0, # of connection points: 8
#     Edge 32, Type (0, 0), BuildingBlock: CIFDUS_clean_linker_0, # of connection points: 2
#     Edge 33, Type (0, 0), BuildingBlock: CIFDUS_clean_linker_0, # of connection points: 2
#     Edge 34, Type (0, 0), BuildingBlock: CIFDUS_clean_linker_0, # of connection points: 2
#     Edge 35, Type (0, 0), BuildingBlock: CIFDUS_clean_linker_0, # of connection points: 2
#     Edge 36, Type (0, 0), BuildingBlock: CIFDUS_clean_linker_0, # of connection points: 2
#     Edge 37, Type (0, 0), BuildingBlock: CIFDUS_clean_linker_0, # of connection points: 2
#     Edge 38, Type (0, 0), BuildingBlock: CIFDUS_clean_linker_0, # of connection points: 2
#     Edge 39, Type (0, 0), BuildingBlock: CIFDUS_clean_linker_0, # of connection points: 2
#     Edge 40, Type (0, 0), BuildingBlock: CIFDUS_clean_linker_0, # of connection points: 2
#     Edge 41, Type (0, 0), BuildingBlock: CIFDUS_clean_linker_0, # of connection points: 2
#     Edge 42, Type (0, 0), BuildingBlock: CIFDUS_clean_linker_0, # of connection points: 2
#     Edge 43, Type (0, 0), BuildingBlock: CIFDUS_clean_linker_0, # of connection points: 2
#     Edge 44, Type (0, 0), BuildingBlock: CIFDUS_clean_linker_0, # of connection points: 2
#     Edge 45, Type (0, 0), BuildingBlock: CIFDUS_clean_linker_0, # of connection points: 2
#     Edge 46, Type (0, 0), BuildingBlock: CIFDUS_clean_linker_0, # of connection points: 2
#     Edge 47, Type (0, 0), BuildingBlock: CIFDUS_clean_linker_0, # of connection points: 2
#     Edge 48, Type (0, 0), BuildingBlock: CIFDUS_clean_linker_0, # of connection points: 2
#     Edge 49, Type (0, 0), BuildingBlock: CIFDUS_clean_linker_0, # of connection points: 2
#     Edge 50, Type (0, 0), BuildingBlock: CIFDUS_clean_linker_0, # of connection points: 2
#     Edge 51, Type (0, 0), BuildingBlock: CIFDUS_clean_linker_0, # of connection points: 2
#     Edge 52, Type (0, 0), BuildingBlock: CIFDUS_clean_linker_0, # of connection points: 2
#     Edge 53, Type (0, 0), BuildingBlock: CIFDUS_clean_linker_0, # of connection points: 2
#     Edge 54, Type (0, 0), BuildingBlock: CIFDUS_clean_linker_0, # of connection points: 2
#     Edge 55, Type (0, 0), BuildingBlock: CIFDUS_clean_linker_0, # of connection points: 2
#     Edge 56, Type (0, 0), BuildingBlock: CIFDUS_clean_linker_0, # of connection points: 2
#     Edge 57, Type (0, 0), BuildingBlock: CIFDUS_clean_linker_0, # of connection points: 2
#     Edge 58, Type (0, 0), BuildingBlock: CIFDUS_clean_linker_0, # of connection points: 2
#     Edge 59, Type (0, 0), BuildingBlock: CIFDUS_clean_linker_0, # of connection points: 2
#     Edge 60, Type (0, 0), BuildingBlock: CIFDUS_clean_linker_0, # of connection points: 2
#     Edge 61, Type (0, 0), BuildingBlock: CIFDUS_clean_linker_0, # of connection points: 2
#     Edge 62, Type (0, 0), BuildingBlock: CIFDUS_clean_linker_0, # of connection points: 2
#     Edge 63, Type (0, 0), BuildingBlock: CIFDUS_clean_linker_0, # of connection points: 2
#     Edge 64, Type (0, 0), BuildingBlock: CIFDUS_clean_linker_0, # of connection points: 2
#     Edge 65, Type (0, 0), BuildingBlock: CIFDUS_clean_linker_0, # of connection points: 2
#     Edge 66, Type (0, 0), BuildingBlock: CIFDUS_clean_linker_0, # of connection points: 2
#     Edge 67, Type (0, 0), BuildingBlock: CIFDUS_clean_linker_0, # of connection points: 2
#     Edge 68, Type (0, 0), BuildingBlock: CIFDUS_clean_linker_0, # of connection points: 2
#     Edge 69, Type (0, 0), BuildingBlock: CIFDUS_clean_linker_0, # of connection points: 2
#     Edge 70, Type (0, 0), BuildingBlock: CIFDUS_clean_linker_0, # of connection points: 2
#     Edge 71, Type (0, 0), BuildingBlock: CIFDUS_clean_linker_0, # of connection points: 2
#     Edge 72, Type (0, 0), BuildingBlock: CIFDUS_clean_linker_0, # of connection points: 2
#     Edge 73, Type (0, 0), BuildingBlock: CIFDUS_clean_linker_0, # of connection points: 2
#     Edge 74, Type (0, 0), BuildingBlock: CIFDUS_clean_linker_0, # of connection points: 2
#     Edge 75, Type (0, 0), BuildingBlock: CIFDUS_clean_linker_0, # of connection points: 2
#     Edge 76, Type (0, 0), BuildingBlock: CIFDUS_clean_linker_0, # of connection points: 2
#     Edge 77, Type (0, 0), BuildingBlock: CIFDUS_clean_linker_0, # of connection points: 2
#     Edge 78, Type (0, 0), BuildingBlock: CIFDUS_clean_linker_0, # of connection points: 2
#     Edge 79, Type (0, 0), BuildingBlock: CIFDUS_clean_linker_0, # of connection points: 2
#     Edge 80, Type (0, 0), BuildingBlock: CIFDUS_clean_linker_0, # of connection points: 2
#     Edge 81, Type (0, 0), BuildingBlock: CIFDUS_clean_linker_0, # of connection points: 2
#     Edge 82, Type (0, 0), BuildingBlock: CIFDUS_clean_linker_0, # of connection points: 2
#     Edge 83, Type (0, 0), BuildingBlock: CIFDUS_clean_linker_0, # of connection points: 2
#     Edge 84, Type (0, 0), BuildingBlock: CIFDUS_clean_linker_0, # of connection points: 2
#     Edge 85, Type (0, 0), BuildingBlock: CIFDUS_clean_linker_0, # of connection points: 2
#     Edge 86, Type (0, 0), BuildingBlock: CIFDUS_clean_linker_0, # of connection points: 2
#     Edge 87, Type (0, 0), BuildingBlock: CIFDUS_clean_linker_0, # of connection points: 2
#     Edge 88, Type (0, 0), BuildingBlock: CIFDUS_clean_linker_0, # of connection points: 2
#     Edge 89, Type (0, 0), BuildingBlock: CIFDUS_clean_linker_0, # of connection points: 2
#     Edge 90, Type (0, 0), BuildingBlock: CIFDUS_clean_linker_0, # of connection points: 2
#     Edge 91, Type (0, 0), BuildingBlock: CIFDUS_clean_linker_0, # of connection points: 2
#     Edge 92, Type (0, 0), BuildingBlock: CIFDUS_clean_linker_0, # of connection points: 2
#     Edge 93, Type (0, 0), BuildingBlock: CIFDUS_clean_linker_0, # of connection points: 2
#     Edge 94, Type (0, 0), BuildingBlock: CIFDUS_clean_linker_0, # of connection points: 2
#     Edge 95, Type (0, 0), BuildingBlock: CIFDUS_clean_linker_0, # of connection points: 2
#     Edge 96, Type (0, 0), BuildingBlock: CIFDUS_clean_linker_0, # of connection points: 2
#     Edge 97, Type (0, 0), BuildingBlock: CIFDUS_clean_linker_0, # of connection points: 2
#     Edge 98, Type (0, 0), BuildingBlock: CIFDUS_clean_linker_0, # of connection points: 2
#     Edge 99, Type (0, 0), BuildingBlock: CIFDUS_clean_linker_0, # of connection points: 2
#     Edge 100, Type (0, 0), BuildingBlock: CIFDUS_clean_linker_0, # of connection points: 2
#     Edge 101, Type (0, 0), BuildingBlock: CIFDUS_clean_linker_0, # of connection points: 2
#     Edge 102, Type (0, 0), BuildingBlock: CIFDUS_clean_linker_0, # of connection points: 2
#     Edge 103, Type (0, 0), BuildingBlock: CIFDUS_clean_linker_0, # of connection points: 2
#     Edge 104, Type (0, 0), BuildingBlock: CIFDUS_clean_linker_0, # of connection points: 2
#     Edge 105, Type (0, 0), BuildingBlock: CIFDUS_clean_linker_0, # of connection points: 2
#     Edge 106, Type (0, 0), BuildingBlock: CIFDUS_clean_linker_0, # of connection points: 2
#     Edge 107, Type (0, 0), BuildingBlock: CIFDUS_clean_linker_0, # of connection points: 2
#     Edge 108, Type (0, 0), BuildingBlock: CIFDUS_clean_linker_0, # of connection points: 2
#     Edge 109, Type (0, 0), BuildingBlock: CIFDUS_clean_linker_0, # of connection points: 2
#     Edge 110, Type (0, 0), BuildingBlock: CIFDUS_clean_linker_0, # of connection points: 2
#     Edge 111, Type (0, 0), BuildingBlock: CIFDUS_clean_linker_0, # of connection points: 2
#     Edge 112, Type (0, 0), BuildingBlock: CIFDUS_clean_linker_0, # of connection points: 2
#     Edge 113, Type (0, 0), BuildingBlock: CIFDUS_clean_linker_0, # of connection points: 2
#     Edge 114, Type (0, 0), BuildingBlock: CIFDUS_clean_linker_0, # of connection points: 2
#     Edge 115, Type (0, 0), BuildingBlock: CIFDUS_clean_linker_0, # of connection points: 2
#     Edge 116, Type (0, 0), BuildingBlock: CIFDUS_clean_linker_0, # of connection points: 2
#     Edge 117, Type (0, 0), BuildingBlock: CIFDUS_clean_linker_0, # of connection points: 2
#     Edge 118, Type (0, 0), BuildingBlock: CIFDUS_clean_linker_0, # of connection points: 2
#     Edge 119, Type (0, 0), BuildingBlock: CIFDUS_clean_linker_0, # of connection points: 2
#     Edge 120, Type (0, 0), BuildingBlock: CIFDUS_clean_linker_0, # of connection points: 2
#     Edge 121, Type (0, 0), BuildingBlock: CIFDUS_clean_linker_0, # of connection points: 2
#     Edge 122, Type (0, 0), BuildingBlock: CIFDUS_clean_linker_0, # of connection points: 2
#     Edge 123, Type (0, 0), BuildingBlock: CIFDUS_clean_linker_0, # of connection points: 2
#     Edge 124, Type (0, 0), BuildingBlock: CIFDUS_clean_linker_0, # of connection points: 2
#     Edge 125, Type (0, 0), BuildingBlock: CIFDUS_clean_linker_0, # of connection points: 2
#     Edge 126, Type (0, 0), BuildingBlock: CIFDUS_clean_linker_0, # of connection points: 2
#     Edge 127, Type (0, 0), BuildingBlock: CIFDUS_clean_linker_0, # of connection points: 2
#     Edge 128, Type (0, 0), BuildingBlock: CIFDUS_clean_linker_0, # of connection points: 2
#     Edge 129, Type (0, 0), BuildingBlock: CIFDUS_clean_linker_0, # of connection points: 2
#     Edge 130, Type (0, 0), BuildingBlock: CIFDUS_clean_linker_0, # of connection points: 2
#     Edge 131, Type (0, 0), BuildingBlock: CIFDUS_clean_linker_0, # of connection points: 2
#     Edge 132, Type (0, 0), BuildingBlock: CIFDUS_clean_linker_0, # of connection points: 2
#     Edge 133, Type (0, 0), BuildingBlock: CIFDUS_clean_linker_0, # of connection points: 2
#     Edge 134, Type (0, 0), BuildingBlock: CIFDUS_clean_linker_0, # of connection points: 2
#     Edge 135, Type (0, 0), BuildingBlock: CIFDUS_clean_linker_0, # of connection points: 2
#     Edge 136, Type (0, 0), BuildingBlock: CIFDUS_clean_linker_0, # of connection points: 2
#     Edge 137, Type (0, 0), BuildingBlock: CIFDUS_clean_linker_0, # of connection points: 2
#     Edge 138, Type (0, 0), BuildingBlock: CIFDUS_clean_linker_0, # of connection points: 2
#     Edge 139, Type (0, 0), BuildingBlock: CIFDUS_clean_linker_0, # of connection points: 2
#     Edge 140, Type (0, 0), BuildingBlock: CIFDUS_clean_linker_0, # of connection points: 2
#     Edge 141, Type (0, 0), BuildingBlock: CIFDUS_clean_linker_0, # of connection points: 2
#     Edge 142, Type (0, 0), BuildingBlock: CIFDUS_clean_linker_0, # of connection points: 2
#     Edge 143, Type (0, 0), BuildingBlock: CIFDUS_clean_linker_0, # of connection points: 2
#     Edge 144, Type (0, 0), BuildingBlock: CIFDUS_clean_linker_0, # of connection points: 2
#     Edge 145, Type (0, 0), BuildingBlock: CIFDUS_clean_linker_0, # of connection points: 2
#     Edge 146, Type (0, 0), BuildingBlock: CIFDUS_clean_linker_0, # of connection points: 2
#     Edge 147, Type (0, 0), BuildingBlock: CIFDUS_clean_linker_0, # of connection points: 2
#     Edge 148, Type (0, 0), BuildingBlock: CIFDUS_clean_linker_0, # of connection points: 2
#     Edge 149, Type (0, 0), BuildingBlock: CIFDUS_clean_linker_0, # of connection points: 2
#     Edge 150, Type (0, 0), BuildingBlock: CIFDUS_clean_linker_0, # of connection points: 2
#     Edge 151, Type (0, 0), BuildingBlock: CIFDUS_clean_linker_0, # of connection points: 2
#     Edge 152, Type (0, 0), BuildingBlock: CIFDUS_clean_linker_0, # of connection points: 2
#     Edge 153, Type (0, 0), BuildingBlock: CIFDUS_clean_linker_0, # of connection points: 2
#     Edge 154, Type (0, 0), BuildingBlock: CIFDUS_clean_linker_0, # of connection points: 2
#     Edge 155, Type (0, 0), BuildingBlock: CIFDUS_clean_linker_0, # of connection points: 2
#     Edge 156, Type (0, 0), BuildingBlock: CIFDUS_clean_linker_0, # of connection points: 2
#     Edge 157, Type (0, 0), BuildingBlock: CIFDUS_clean_linker_0, # of connection points: 2
#     Edge 158, Type (0, 0), BuildingBlock: CIFDUS_clean_linker_0, # of connection points: 2
#     Edge 159, Type (0, 0), BuildingBlock: CIFDUS_clean_linker_0, # of connection points: 2
# Relax obj value: 0.098
# Max RMSD: 0.248
# Mean RMSD: 0.186
data_MOF--net-sou--node1-EBIMEJ_clean_sbu_0--edge1-CIFDUS_clean_linker_0
_symmetry_space_group_name_H-M    P1
_symmetry_Int_Tables_number       1
_symmetry_cell_setting            triclinic
loop_
_symmetry_equiv_pos_as_xyz
'x, y, z'
_cell_length_a     59.581464
_cell_length_b     38.801291
_cell_length_c     39.155892
_cell_angle_alpha  88.803325
_cell_angle_beta   96.643367
_cell_angle_gamma 94.673673
loop_
_atom_site_label
_atom_site_type_symbol
_atom_site_fract_x
_atom_site_fract_y
_atom_site_fract_z
_atom_type_partial_charge
Co0 Co 0.98279 0.26437 0.01229 0.0
Co1 Co 1.00886 0.34132 6e-05 0.0
Co2 Co 0.03575 0.28657 0.0355 0.0
H3 H 1.00873 0.28449 0.02616 0.0
O4 O 1.00388 0.30321 0.03278 0.0
H5 H 0.03592 0.34199 0.00582 0.0
O6 O 0.04039 0.32267 3e-05 0.0
Co7 Co 0.06229 0.36263 0.016 0.0
O8 O 0.04743 0.4035 -0.00608 0.0
O9 O 0.01426 0.38104 0.96836 0.0
O10 O 0.08136 0.3347 0.0508 0.0
O11 O 0.06851 0.27911 0.04359 0.0
O12 O 0.96292 0.23359 0.97577 0.0
O13 O 0.95363 0.23572 0.02479 0.0
O14 O 0.05088 0.37297 0.06037 0.0
O15 O 0.01423 0.37327 0.04084 0.0
C16 C 1.01305 0.22605 0.06756 0.0
C17 C 0.95902 0.33256 0.00327 0.0
C18 C 0.09655 0.40189 0.00305 0.0
C19 C 0.01778 0.24481 0.97279 0.0
C20 C 0.02893 0.40657 0.97482 0.0
C21 C 0.08324 0.30247 0.05623 0.0
C22 C 0.94871 0.22257 -0.00446 0.0
C23 C 0.03103 0.38117 0.06339 0.0
O24 O 0.9951 0.22817 0.04646 0.0
O25 O 0.02973 0.24912 0.06934 0.0
O26 O 0.9767 0.35158 -0.00275 0.0
O27 O 0.95926 0.30024 0.0107 0.0
O28 O 0.08397 0.40644 0.02582 0.0
O29 O 0.08973 0.37449 0.98699 0.0
O30 O 0.99807 0.25524 0.97107 0.0
O31 O 0.03275 0.25137 -0.00178 0.0
Co32 Co 0.29913 0.92582 0.01234 0.0
Co33 Co 0.2459 0.91809 0.02812 0.0
Co34 Co 0.27413 0.98352 0.04776 0.0
H35 H 0.28299 0.94866 0.03555 0.0
O36 O 0.27757 0.93116 0.04659 0.0
H37 H 0.23713 0.95049 0.04447 0.0
O38 O 0.24167 0.96913 0.03432 0.0
Co39 Co 0.22107 0.96815 0.07132 0.0
O40 O 0.19568 0.93319 0.04834 0.0
O41 O 0.21372 0.90575 0.01119 0.0
O42 O 0.2306 0.02046 0.06972 0.0
O43 O 0.26628 0.03104 0.05522 0.0
O44 O 0.32741 0.92651 0.9866 0.0
O45 O 0.32496 0.89529 0.02994 0.0
O46 O 0.24096 0.94392 0.10751 0.0
O47 O 0.24151 0.89849 0.07449 0.0
C48 C 0.32327 0.99413 0.03735 0.0
C49 C 0.26945 0.85711 0.00889 0.0
C50 C 0.19163 0.97799 0.11012 0.0
C51 C 0.27481 0.97733 0.97139 0.0
C52 C 0.19565 0.91131 0.02412 0.0
C53 C 0.24784 0.04114 0.06404 0.0
C54 C 0.337 0.90521 0.00672 0.0
C55 C 0.24471 0.91261 0.10384 0.0
O56 O 0.32082 0.96929 0.01612 0.0
O57 O 0.3078 0.99966 0.05659 0.0
O58 O 0.25223 0.87109 0.01682 0.0
O59 O 0.28858 0.87409 0.00652 0.0
O60 O 0.20874 0.9615 0.11828 0.0
O61 O 0.19114 0.98914 0.07968 0.0
O62 O 0.28045 0.94642 0.97235 0.0
O63 O 0.27485 0.99515 -0.00163 0.0
Co64 Co 0.97652 0.99522 0.20693 0.0
Co65 Co 0.99812 0.92056 0.21505 0.0
Co66 Co 0.02783 0.98374 0.19611 0.0
H67 H 1.00119 0.98062 0.19734 0.0
O68 O 0.99494 0.96259 0.18656 0.0
H69 H 0.02515 0.92421 0.21722 0.0
O70 O 0.03099 0.94288 0.22733 0.0
Co71 Co 0.05063 0.90943 0.21038 0.0
O72 O 0.03501 0.86333 0.22304 0.0
O73 O 1.00261 0.87657 0.24172 0.0
O74 O 0.07457 0.94451 0.19516 0.0
O75 O 0.06147 0.99693 0.1987 0.0
O76 O 0.95928 0.02278 0.23914 0.0
O77 O 0.94792 0.01901 0.18732 0.0
O78 O 0.03485 0.92221 0.1644 0.0
O79 O 1.00205 0.89555 0.17221 0.0
C80 C 1.00468 0.04164 0.16062 0.0
C81 C 0.94778 0.92571 0.20159 0.0
C82 C 0.0862 0.87819 0.22318 0.0
C83 C 1.01242 0.00654 0.26036 0.0
C84 C 0.01699 0.85477 0.23699 0.0
C85 C 0.07719 0.97744 0.19377 0.0
C86 C 0.9444 0.03089 0.21561 0.0
C87 C 0.01767 0.90275 0.15308 0.0
O88 O 0.9866 0.03322 0.17446 0.0
O89 O 0.02249 0.02497 0.16574 0.0
O90 O 0.96454 0.90658 0.20673 0.0
O91 O 0.95029 0.95866 0.20082 0.0
O92 O 0.06876 0.87195 0.23823 0.0
O93 O 0.08334 0.90191 0.2013 0.0
O94 O 0.99423 0.98774 0.25271 0.0
O95 O 0.02619 0.01264 0.23792 0.0
Co96 Co 0.29883 0.26311 0.20453 0.0
Co97 Co 0.27899 0.33798 0.21279 0.0
Co98 Co 0.24854 0.28076 0.17722 0.0
H99 H 0.27494 0.28112 0.18808 0.0
O100 O 0.28153 0.30012 0.18142 0.0
H101 H 0.25164 0.33469 0.20975 0.0
O102 O 0.24654 0.31398 0.21469 0.0
Co103 Co 0.22544 0.35165 0.20475 0.0
O104 O 0.239 0.38128 0.24459 0.0
O105 O 0.27609 0.37989 0.24072 0.0
O106 O 0.20153 0.3197 0.17764 0.0
O107 O 0.2154 0.269 0.16849 0.0
O108 O 0.32407 0.25237 0.24322 0.0
O109 O 0.31998 0.2245 0.1981 0.0
O110 O 0.23922 0.38564 0.17218 0.0
O111 O 0.27347 0.36643 0.17044 0.0
C112 C 0.26969 0.22813 0.14197 0.0
C113 C 0.32823 0.33277 0.20812 0.0
C114 C 0.18907 0.37923 0.21157 0.0
C115 C 0.26167 0.23756 0.23896 0.0
C116 C 0.25934 0.39406 0.25065 0.0
C117 C 0.19918 0.2886 0.16707 0.0
C118 C 0.33139 0.2289 0.22693 0.0
C119 C 0.2581 0.38631 0.15998 0.0
O120 O 0.28716 0.23105 0.16446 0.0
O121 O 0.25304 0.24711 0.14157 0.0
O122 O 0.31235 0.35209 0.21302 0.0
O123 O 0.32473 0.30017 0.20367 0.0
O124 O 0.19602 0.37315 0.18333 0.0
O125 O 0.20257 0.36897 0.23606 0.0
O126 O 0.28093 0.25394 0.2444 0.0
O127 O 0.24914 0.2413 0.2109 0.0
Co128 Co 0.96687 0.64878 0.96376 0.0
Co129 Co 0.99534 0.72438 0.94367 0.0
Co130 Co 0.02079 0.66671 0.97653 0.0
H131 H 0.99387 0.66802 0.97221 0.0
O132 O 0.99006 0.68765 0.97839 0.0
H133 H 0.0221 0.72456 0.95341 0.0
O134 O 0.02668 0.70604 0.94592 0.0
Co135 Co 0.04821 0.74266 0.96883 0.0
O136 O 0.04004 0.77367 0.92755 0.0
O137 O 1.00273 0.76226 0.91065 0.0
O138 O 0.07142 0.7064 0.97187 0.0
O139 O 0.05268 0.65417 0.97767 0.0
O140 O 0.94756 0.60197 0.95778 0.0
O141 O 0.93867 0.63732 0.99123 0.0
O142 O 0.03234 0.74751 0.01072 0.0
O143 O 0.99934 0.75848 0.98203 0.0
C144 C 1.00039 0.60006 -0.00551 0.0
C145 C 0.94461 0.7158 0.94035 0.0
C146 C 0.08076 0.7864 0.98686 0.0
C147 C 0.99633 0.63598 0.91081 0.0
C148 C 0.02189 0.77914 0.90808 0.0
C149 C 0.07099 0.67345 0.97541 0.0
C150 C 0.93373 0.60779 0.97842 0.0
C151 C 1.01339 0.76055 0.00915 0.0
O152 O 0.98218 0.60475 0.97518 0.0
O153 O 0.0141 0.62541 0.00548 0.0
O154 O 0.96285 0.73444 0.93628 0.0
O155 O 0.9441 0.68452 0.95139 0.0
O156 O 0.06281 0.78228 0.00082 0.0
O157 O 0.08035 0.76547 0.96272 0.0
O158 O 0.97717 0.64529 0.91679 0.0
O159 O 1.01361 0.63873 0.93342 0.0
Co160 Co 0.80592 0.04282 0.91691 0.0
Co161 Co 0.75227 0.03036 0.94107 0.0
Co162 Co 0.78473 0.08817 0.9703 0.0
H163 H 0.79115 0.05825 0.94721 0.0
O164 O 0.78541 0.03868 0.95401 0.0
H165 H 0.74591 0.06328 0.9598 0.0
O166 O 0.75238 0.08194 0.95207 0.0
Co167 Co 0.7307 0.08269 0.98686 0.0
O168 O 0.71015 0.03828 0.98413 0.0
O169 O 0.71791 0.01875 0.93401 0.0
O170 O 0.7435 0.1335 0.99141 0.0
O171 O 0.78118 0.13297 0.99068 0.0
O172 O 0.82284 0.02954 0.87578 0.0
O173 O 0.83941 0.03172 0.92511 0.0
O174 O 0.74853 0.05399 0.02272 0.0
O175 O 0.75272 0.01048 0.98801 0.0
C176 C 0.83377 0.09519 0.96698 0.0
C177 C 0.77256 0.97459 0.90874 0.0
C178 C 0.6921 0.10328 0.98992 0.0
C179 C 0.78693 0.10709 0.89613 0.0
C180 C 0.70526 0.01799 0.95869 0.0
C181 C 0.76362 0.14849 -0.0056 0.0
C182 C 0.84129 0.0261 0.89416 0.0
C183 C 0.75364 0.02336 0.01781 0.0
O184 O 0.8311 0.07961 0.93794 0.0
O185 O 0.81775 0.09447 0.98615 0.0
O186 O 0.75651 0.98459 0.92416 0.0
O187 O 0.79084 0.99358 0.9042 0.0
O188 O 0.69993 0.07833 0.00701 0.0
O189 O 0.70643 0.11717 0.97168 0.0
O190 O 0.78825 0.07633 0.88649 0.0
O191 O 0.78974 0.11519 0.9277 0.0
Co192 Co 0.97473 0.09658 0.77501 0.0
Co193 Co 0.99754 0.02393 0.78441 0.0
Co194 Co 0.02641 0.08737 0.76635 0.0
H195 H 0.99965 0.083 0.76526 0.0
O196 O 0.99377 0.06486 0.75433 0.0
H197 H 0.02452 0.02673 0.78277 0.0
O198 O 0.03049 0.04477 0.79376 0.0
Co199 Co 0.04972 0.01264 0.77341 0.0
O200 O 0.03652 0.96957 0.79817 0.0
O201 O 1.00297 0.98278 0.81348 0.0
O202 O 0.07547 0.05168 0.77697 0.0
O203 O 0.05925 0.10227 0.77442 0.0
O204 O 0.96129 0.14394 0.77421 0.0
O205 O 0.94076 0.1008 0.75693 0.0
O206 O 0.03128 0.01989 0.72803 0.0
O207 O 0.99899 0.99554 0.74238 0.0
C208 C 1.00532 0.15135 0.74242 0.0
C209 C 0.95015 0.03014 0.79561 0.0
C210 C 0.08382 0.97993 0.76578 0.0
C211 C 1.00872 0.10187 0.83139 0.0
C212 C 0.01873 0.96234 0.81346 0.0
C213 C 0.07673 0.08487 0.77724 0.0
C214 C 0.94167 0.13273 0.76222 0.0
C215 C 1.01326 1.00061 0.72054 0.0
O216 O 0.98751 0.1418 0.75615 0.0
O217 O 0.02149 0.1319 0.74083 0.0
O218 O 0.96369 0.01134 0.78245 0.0
O219 O 0.95429 0.06266 0.79921 0.0
O220 O 0.06422 0.97271 0.75095 0.0
O221 O 0.08393 0.00527 0.78525 0.0
O222 O 0.9904 0.08439 0.82122 0.0
O223 O 0.02286 0.11073 0.81019 0.0
Co224 Co 0.81037 0.65726 0.78309 0.0
Co225 Co 0.78691 0.72711 0.80132 0.0
Co226 Co 0.75728 0.66663 0.77099 0.0
H227 H 0.78413 0.67182 0.77372 0.0
O228 O 0.78871 0.69188 0.76636 0.0
H229 H 0.76002 0.72345 0.79548 0.0
O230 O 0.75491 0.70389 0.80331 0.0
Co231 Co 0.7344 0.73871 0.7829 0.0
O232 O 0.74915 0.77883 0.8133 0.0
O233 O 0.78353 0.76332 0.83475 0.0
O234 O 0.70934 0.69908 0.7824 0.0
O235 O 0.72497 0.64976 0.77274 0.0
O236 O 0.83125 0.61718 0.784 0.0
O237 O 0.83655 0.65943 0.75204 0.0
O238 O 0.74832 0.74001 0.73849 0.0
O239 O 0.78158 0.76143 0.76307 0.0
C240 C 0.77527 0.60463 0.74782 0.0
C241 C 0.83549 0.72226 0.81485 0.0
C242 C 0.70133 0.7751 0.77286 0.0
C243 C 0.7816 0.63752 0.83501 0.0
C244 C 0.76783 0.78406 0.83302 0.0
C245 C 0.70791 0.66629 0.7778 0.0
C246 C 0.84333 0.63077 0.76239 0.0
C247 C 0.7669 0.75793 0.73686 0.0
O248 O 0.79414 0.61177 0.76619 0.0
O249 O 0.76083 0.62717 0.74073 0.0
O250 O 0.81987 0.74187 0.80433 0.0
O251 O 0.83297 0.68937 0.81253 0.0
O252 O 0.72098 0.78614 0.78493 0.0
O253 O 0.70048 0.74346 0.76634 0.0
O254 O 0.80032 0.65376 0.83021 0.0
O255 O 0.76469 0.63635 0.81192 0.0
Co256 Co 0.97691 0.76724 0.51668 0.0
Co257 Co 1.00697 0.84107 0.50955 0.0
Co258 Co 0.03087 0.77932 0.53745 0.0
H259 H 1.00412 0.78216 0.53042 0.0
O260 O 1.00081 0.80089 0.53928 0.0
H261 H 0.03365 0.83733 0.51196 0.0
O262 O 0.0365 0.81769 0.50434 0.0
Co263 Co 0.06134 0.85386 0.51982 0.0
O264 O 0.04857 0.89945 0.50633 0.0
O265 O 1.01377 0.88331 0.48154 0.0
O266 O 0.08293 0.81696 0.53439 0.0
O267 O 0.06282 0.76599 0.54172 0.0
O268 O 0.95733 0.7262 0.49181 0.0
O269 O 0.94373 0.75552 0.52655 0.0
O270 O 0.05315 0.86269 0.56698 0.0
O271 O 0.01625 0.86789 0.55268 0.0
C272 C 1.00406 0.72284 0.57043 0.0
C273 C 0.95685 0.83841 0.51053 0.0
C274 C 0.09546 0.89256 0.50575 0.0
C275 C 1.00853 0.74987 0.47126 0.0
C276 C 0.03004 0.90636 0.4891 0.0
C277 C 0.08156 0.78468 0.54178 0.0
C278 C 0.94003 0.73047 0.50633 0.0
C279 C 0.03425 0.87228 0.57365 0.0
O280 O 0.98578 0.73021 0.55227 0.0
O281 O 0.0232 0.74013 0.56893 0.0
O282 O 0.97594 0.85627 0.51152 0.0
O283 O 0.95497 0.80531 0.511 0.0
O284 O 0.08293 0.89789 0.52842 0.0
O285 O 0.08869 0.86469 0.49054 0.0
O286 O 0.99139 0.76681 0.47301 0.0
O287 O 0.02343 0.74746 0.49716 0.0
Co288 Co 0.29933 0.42435 0.50601 0.0
Co289 Co 0.2461 0.40906 0.52432 0.0
Co290 Co 0.27216 0.47736 0.54283 0.0
H291 H 0.28209 0.44413 0.5298 0.0
O292 O 0.27777 0.42562 0.5405 0.0
H293 H 0.23742 0.43969 0.54393 0.0
O294 O 0.24004 0.45904 0.5335 0.0
Co295 Co 0.22408 0.4551 0.57568 0.0
O296 O 0.19875 0.42106 0.55276 0.0
O297 O 0.21332 0.39379 0.51131 0.0
O298 O 0.23149 0.50762 0.57809 0.0
O299 O 0.26268 0.52371 0.55212 0.0
O300 O 0.3224 0.39519 0.48658 0.0
O301 O 0.33198 0.42477 0.53015 0.0
O302 O 0.24748 0.43014 0.60634 0.0
O303 O 0.24405 0.38712 0.56985 0.0
C304 C 0.31966 0.49527 0.52626 0.0
C305 C 0.27303 0.3526 0.5022 0.0
C306 C 0.19533 0.46511 0.61567 0.0
C307 C 0.27127 0.47281 0.46561 0.0
C308 C 0.19661 0.39974 0.52772 0.0
C309 C 0.24598 0.53077 0.56793 0.0
C310 C 0.3383 0.40465 0.50919 0.0
C311 C 0.25119 0.39953 0.59909 0.0
O312 O 0.31752 0.4708 0.50459 0.0
O313 O 0.30519 0.49743 0.54804 0.0
O314 O 0.2546 0.36314 0.51046 0.0
O315 O 0.29081 0.37275 0.49936 0.0
O316 O 0.21101 0.44528 0.62192 0.0
O317 O 0.19601 0.47938 0.58669 0.0
O318 O 0.27989 0.44386 0.46612 0.0
O319 O 0.26963 0.48928 0.49296 0.0
Co320 Co 0.9795 0.49084 0.70889 0.0
Co321 Co 1.00206 0.41718 0.71868 0.0
Co322 Co 0.0316 0.47995 0.69954 0.0
H323 H 1.00467 0.47688 0.70011 0.0
O324 O 0.99883 0.45863 0.6893 0.0
H325 H 0.02892 0.42167 0.72259 0.0
O326 O 0.03441 0.44064 0.73242 0.0
Co327 Co 0.05453 0.40697 0.71758 0.0
O328 O 0.04072 0.36266 0.7365 0.0
O329 O 1.00587 0.37386 0.74683 0.0
O330 O 0.07874 0.44041 0.70173 0.0
O331 O 0.06551 0.49299 0.70239 0.0
O332 O 0.95911 0.53227 0.70308 0.0
O333 O 0.95291 0.4929 0.73799 0.0
O334 O 0.04097 0.41709 0.66964 0.0
O335 O 1.00763 0.39142 0.67693 0.0
C336 C 1.00982 0.5387 0.665 0.0
C337 C 0.95187 0.41949 0.70348 0.0
C338 C 0.08701 0.37015 0.73242 0.0
C339 C 0.0153 0.50894 0.76154 0.0
C340 C 0.02206 0.354 0.7482 0.0
C341 C 0.08142 0.47317 0.69897 0.0
C342 C 0.94668 0.52104 0.72536 0.0
C343 C 0.02353 0.39823 0.65815 0.0
O344 O 0.99178 0.53131 0.67965 0.0
O345 O 0.02647 0.51957 0.66781 0.0
O346 O 0.96928 0.40194 0.70841 0.0
O347 O 0.95332 0.45265 0.70258 0.0
O348 O 0.06739 0.35904 0.72032 0.0
O349 O 0.08818 0.40225 0.73671 0.0
O350 O 0.99683 0.49041 0.75567 0.0
O351 O 0.02963 0.51129 0.73959 0.0
Co352 Co 0.29375 0.76085 0.69663 0.0
Co353 Co 0.27272 0.83425 0.70674 0.0
Co354 Co 0.24181 0.77409 0.67669 0.0
H355 H 0.26858 0.7769 0.68321 0.0
O356 O 0.27419 0.79606 0.67513 0.0
H357 H 0.24553 0.83003 0.70446 0.0
O358 O 0.24075 0.81 0.71181 0.0
Co359 Co 0.21904 0.84504 0.69553 0.0
O360 O 0.23586 0.88994 0.71298 0.0
O361 O 0.26994 0.87494 0.73614 0.0
O362 O 0.19491 0.81276 0.66888 0.0
O363 O 0.20855 0.76031 0.67273 0.0
O364 O 0.31047 0.72966 0.73314 0.0
O365 O 0.32285 0.73922 0.68634 0.0
O366 O 0.22966 0.84541 0.64875 0.0
O367 O 0.26531 0.86375 0.66546 0.0
C368 C 0.26252 0.72119 0.63991 0.0
C369 C 0.32212 0.83105 0.69855 0.0
C370 C 0.18424 0.87188 0.71105 0.0
C371 C 0.26087 0.74014 0.74059 0.0
C372 C 0.25517 0.89723 0.73014 0.0
C373 C 0.19253 0.78004 0.66486 0.0
C374 C 0.32578 0.72406 0.71495 0.0
C375 C 0.24807 0.86203 0.64296 0.0
O376 O 0.28156 0.72716 0.65841 0.0
O377 O 0.24513 0.73778 0.64283 0.0
O378 O 0.30597 0.84956 0.70439 0.0
O379 O 0.31912 0.79838 0.6944 0.0
O380 O 0.20382 0.87759 0.7266 0.0
O381 O 0.18449 0.85075 0.68734 0.0
O382 O 0.27883 0.75979 0.73989 0.0
O383 O 0.24605 0.73859 0.71444 0.0
Co384 Co 0.96383 0.14742 0.46761 0.0
Co385 Co 0.99394 0.21969 0.44753 0.0
Co386 Co 0.01852 0.16072 0.47954 0.0
H387 H 0.99159 0.1637 0.47585 0.0
O388 O 0.98864 0.1836 0.48262 0.0
H389 H 0.02074 0.21838 0.45472 0.0
O390 O 0.02444 0.19912 0.4475 0.0
Co391 Co 0.04753 0.23616 0.46643 0.0
O392 O 0.03592 0.27524 0.43492 0.0
O393 O 1.00062 0.25623 0.41367 0.0
O394 O 0.06908 0.19746 0.46922 0.0
O395 O 0.04994 0.14663 0.47986 0.0
O396 O 0.93368 0.12088 0.44937 0.0
O397 O 0.9404 0.13021 0.50148 0.0
O398 O 0.03509 0.24737 0.50973 0.0
O399 O 0.99998 0.25394 0.48581 0.0
C400 C 0.99518 0.09707 0.50394 0.0
C401 C 0.94364 0.21427 0.43907 0.0
C402 C 0.08478 0.27204 0.47511 0.0
C403 C 0.99243 0.12229 0.41795 0.0
C404 C 0.01765 0.27845 0.4148 0.0
C405 C 0.06826 0.16479 0.47505 0.0
C406 C 0.9265 0.1163 0.47814 0.0
C407 C 0.01587 0.259 0.51032 0.0
O408 O 0.97648 0.10328 0.48666 0.0
O409 O 1.01173 0.1201 0.50961 0.0
O410 O 0.96232 0.23297 0.44241 0.0
O411 O 0.94207 0.18197 0.44627 0.0
O412 O 0.06758 0.27765 0.48925 0.0
O413 O 0.08082 0.24607 0.45607 0.0
O414 O 0.97296 0.12991 0.424 0.0
O415 O 1.01044 0.13108 0.43774 0.0
Co416 Co 0.80162 0.54095 0.41293 0.0
Co417 Co 0.75055 0.52658 0.44259 0.0
Co418 Co 0.77943 0.59239 0.46101 0.0
H419 H 0.78734 0.55998 0.44218 0.0
O420 O 0.7833 0.54125 0.45264 0.0
H421 H 0.74284 0.55952 0.45944 0.0
O422 O 0.74694 0.57816 0.4488 0.0
Co423 Co 0.72821 0.57811 0.48765 0.0
O424 O 0.70895 0.53226 0.48656 0.0
O425 O 0.71691 0.51005 0.43773 0.0
O426 O 0.7382 0.62955 0.49305 0.0
O427 O 0.77257 0.63936 0.47443 0.0
O428 O 0.81939 0.52753 0.37265 0.0
O429 O 0.83488 0.52822 0.42256 0.0
O430 O 0.74879 0.55462 0.52379 0.0
O431 O 0.7532 0.51003 0.4909 0.0
C432 C 0.82883 0.60104 0.454 0.0
C433 C 0.77136 0.47128 0.41027 0.0
C434 C 0.68986 0.59642 0.49526 0.0
C435 C 0.77565 0.59707 0.38426 0.0
C436 C 0.70443 0.51022 0.4625 0.0
C437 C 0.7553 0.64983 0.48662 0.0
C438 C 0.83737 0.52283 0.39174 0.0
C439 C 0.7548 0.52439 0.52006 0.0
O440 O 0.82639 0.57894 0.42972 0.0
O441 O 0.81261 0.60653 0.47148 0.0
O442 O 0.75704 0.48039 0.42945 0.0
O443 O 0.78776 0.4915 0.40085 0.0
O444 O 0.69664 0.56747 0.5041 0.0
O445 O 0.70503 0.61543 0.48277 0.0
O446 O 0.77969 0.56588 0.37992 0.0
O447 O 0.77966 0.61128 0.41356 0.0
Co448 Co 0.97329 0.59229 0.28065 0.0
Co449 Co 0.99678 0.51794 0.28716 0.0
Co450 Co 0.02353 0.58255 0.26592 0.0
H451 H 0.9972 0.57771 0.26845 0.0
O452 O 0.99082 0.55936 0.2583 0.0
H453 H 0.02339 0.52217 0.28221 0.0
O454 O 0.02952 0.54034 0.29284 0.0
Co455 Co 0.04823 0.50975 0.26951 0.0
O456 O 0.04037 0.4714 0.30318 0.0
O457 O 1.00467 0.47638 0.3154 0.0
O458 O 0.07312 0.54873 0.26771 0.0
O459 O 0.05624 0.59836 0.26922 0.0
O460 O 0.95758 0.6368 0.28637 0.0
O461 O 0.94065 0.59738 0.25646 0.0
O462 O 0.02746 0.51718 0.22636 0.0
O463 O 0.99675 0.49041 0.24379 0.0
C464 C 1.0035 0.64828 0.24969 0.0
C465 C 0.94872 0.5234 0.29907 0.0
C466 C 0.08132 0.47488 0.26082 0.0
C467 C 1.00999 0.60301 0.33391 0.0
C468 C 0.02319 0.46136 0.31866 0.0
C469 C 0.07385 0.58173 0.26868 0.0
C470 C 0.93956 0.62706 0.26816 0.0
C471 C 1.00964 0.49711 0.22019 0.0
O472 O 0.98755 0.63945 0.26792 0.0
O473 O 0.01664 0.62644 0.24071 0.0
O474 O 0.96322 0.50422 0.28864 0.0
O475 O 0.95186 0.55626 0.30059 0.0
O476 O 0.0685 0.48758 0.23688 0.0
O477 O 0.07519 0.48179 0.28936 0.0
O478 O 0.99024 0.58823 0.32758 0.0
O479 O 0.02323 0.60688 0.31061 0.0
Co480 Co 0.80556 0.15455 0.28462 0.0
Co481 Co 0.78273 0.22413 0.30195 0.0
Co482 Co 0.75238 0.16484 0.26973 0.0
H483 H 0.77936 0.1692 0.27362 0.0
O484 O 0.7844 0.18916 0.26661 0.0
H485 H 0.75596 0.22172 0.29482 0.0
O486 O 0.75022 0.20225 0.3021 0.0
Co487 Co 0.73101 0.23858 0.28188 0.0
O488 O 0.74645 0.27872 0.31128 0.0
O489 O 0.77938 0.26013 0.33544 0.0
O490 O 0.70524 0.20092 0.27121 0.0
O491 O 0.71942 0.14901 0.26994 0.0
O492 O 0.83703 0.13815 0.30169 0.0
O493 O 0.82506 0.13435 0.25011 0.0
O494 O 0.74553 0.24087 0.23803 0.0
O495 O 0.77936 0.25922 0.26341 0.0
C496 C 0.77147 0.10469 0.2429 0.0
C497 C 0.82916 0.21507 0.32435 0.0
C498 C 0.6961 0.27061 0.2806 0.0
C499 C 0.77547 0.1361 0.33392 0.0
C500 C 0.76459 0.28233 0.33235 0.0
C501 C 0.70268 0.16796 0.26869 0.0
C502 C 0.84116 0.12885 0.27277 0.0
C503 C 0.76472 0.2572 0.23692 0.0
O504 O 0.7905 0.11188 0.26073 0.0
O505 O 0.75585 0.12574 0.239 0.0
O506 O 0.81618 0.23634 0.30853 0.0
O507 O 0.82509 0.18247 0.32129 0.0
O508 O 0.71512 0.28451 0.27485 0.0
O509 O 0.69711 0.239 0.28726 0.0
O510 O 0.79304 0.15558 0.32979 0.0
O511 O 0.75896 0.1334 0.3102 0.0
Co512 Co 0.48154 0.25495 0.5135 0.0
Co513 Co 0.50625 0.33342 0.51259 0.0
Co514 Co 0.53374 0.27544 0.5402 0.0
H515 H 0.50698 0.27386 0.53088 0.0
O516 O 0.50172 0.291 0.5399 0.0
H517 H 0.53337 0.33473 0.51779 0.0
O518 O 0.53802 0.31639 0.50989 0.0
Co519 Co 0.55982 0.35559 0.52782 0.0
O520 O 0.5439 0.39904 0.51629 0.0
O521 O 0.51141 0.37799 0.48727 0.0
O522 O 0.58332 0.32095 0.5407 0.0
O523 O 0.56654 0.26716 0.54602 0.0
O524 O 0.46067 0.21687 0.48611 0.0
O525 O 0.45126 0.23604 0.53073 0.0
O526 O 0.54802 0.37201 0.5704 0.0
O527 O 0.51092 0.35764 0.55767 0.0
C528 C 0.51187 0.2091 0.56039 0.0
C529 C 0.45605 0.32115 0.50468 0.0
C530 C 0.59544 0.39149 0.5156 0.0
C531 C 0.5162 0.25075 0.47099 0.0
C532 C 0.5253 0.40341 0.49785 0.0
C533 C 0.58408 0.28854 0.54666 0.0
C534 C 0.44575 0.21529 0.50643 0.0
C535 C 0.52766 0.37095 0.57752 0.0
O536 O 0.49496 0.21282 0.53764 0.0
O537 O 0.5274 0.23328 0.56841 0.0
O538 O 0.47363 0.34226 0.51111 0.0
O539 O 0.457 0.28847 0.5027 0.0
O540 O 0.58622 0.39191 0.54284 0.0
O541 O 0.58459 0.36999 0.49498 0.0
O542 O 0.49863 0.26647 0.47308 0.0
O543 O 0.52996 0.24642 0.49782 0.0
Co544 Co 0.79491 0.92811 0.5032 0.0
Co545 Co 0.74268 0.91449 0.52666 0.0
Co546 Co 0.7705 0.98141 0.54468 0.0
H547 H 0.77918 0.94801 0.52942 0.0
O548 O 0.77494 0.92957 0.54031 0.0
H549 H 0.73486 0.94632 0.54545 0.0
O550 O 0.73809 0.96538 0.53493 0.0
Co551 Co 0.72169 0.96336 0.57655 0.0
O552 O 0.695 0.93272 0.5528 0.0
O553 O 0.7096 0.90056 0.51515 0.0
O554 O 0.72952 0.01586 0.57777 0.0
O555 O 0.76269 0.02824 0.55581 0.0
O556 O 0.81324 0.89231 0.48241 0.0
O557 O 0.82952 0.92789 0.51742 0.0
O558 O 0.74603 0.94063 0.60697 0.0
O559 O 0.74161 0.89486 0.57371 0.0
C560 C 0.81719 0.99744 0.52673 0.0
C561 C 0.7672 0.85674 0.50249 0.0
C562 C 0.69294 0.9662 0.61814 0.0
C563 C 0.76859 0.98155 0.46701 0.0
C564 C 0.69275 0.90961 0.52949 0.0
C565 C 0.74553 0.03736 0.56927 0.0
C566 C 0.83187 0.90308 0.49851 0.0
C567 C 0.7487 0.90903 0.60232 0.0
O568 O 0.81392 0.97408 0.5038 0.0
O569 O 0.80383 0.99879 0.55014 0.0
O570 O 0.7497 0.86754 0.51357 0.0
O571 O 0.78464 0.87675 0.49712 0.0
O572 O 0.70765 0.94466 0.61972 0.0
O573 O 0.69462 0.9865 0.59298 0.0
O574 O 0.77705 0.95279 0.46463 0.0
O575 O 0.76773 0.99606 0.4956 0.0
Co576 Co 0.48061 0.99473 0.71919 0.0
Co577 Co 0.4971 0.91687 0.72419 0.0
Co578 Co 0.53026 0.97597 0.7072 0.0
H579 H 0.50375 0.97676 0.70816 0.0
O580 O 0.49648 0.95986 0.69671 0.0
H581 H 0.52428 0.91721 0.72904 0.0
O582 O 0.53044 0.93578 0.73888 0.0
Co583 Co 0.54954 0.89828 0.72939 0.0
O584 O 0.53471 0.87903 0.77048 0.0
O585 O 0.49867 0.87198 0.74979 0.0
O586 O 0.57286 0.92899 0.70633 0.0
O587 O 0.5642 0.98386 0.71078 0.0
O588 O 0.47123 0.0353 0.74652 0.0
O589 O 0.44845 0.0117 0.70856 0.0
O590 O 0.53274 0.86544 0.69546 0.0
O591 O 0.50069 0.89117 0.68101 0.0
C592 C 0.5131 0.03977 0.67738 0.0
C593 C 0.44776 0.92847 0.71393 0.0
C594 C 0.58332 0.86331 0.73821 0.0
C595 C 0.51657 1.00134 0.7713 0.0
C596 C 0.51613 0.86021 0.76648 0.0
C597 C 0.57785 0.96156 0.70432 0.0
C598 C 0.45155 0.03468 0.7311 0.0
C599 C 0.51408 0.86784 0.67676 0.0
O600 O 0.49565 0.03541 0.69376 0.0
O601 O 0.52767 0.01737 0.67684 0.0
O602 O 0.46325 0.90717 0.71406 0.0
O603 O 0.45228 0.96119 0.71649 0.0
O604 O 0.56425 0.85266 0.7235 0.0
O605 O 0.58333 0.89407 0.74769 0.0
O606 O 0.49835 0.98267 0.76377 0.0
O607 O 0.53022 0.00637 0.74858 0.0
Co608 Co 0.79712 0.26852 0.70022 0.0
Co609 Co 0.77321 0.33861 0.71274 0.0
Co610 Co 0.74454 0.27775 0.68077 0.0
H611 H 0.77131 0.28261 0.68727 0.0
O612 O 0.77623 0.30243 0.67978 0.0
H613 H 0.74637 0.33232 0.71 0.0
O614 O 0.74201 0.31188 0.71673 0.0
Co615 Co 0.71991 0.34638 0.70081 0.0
O616 O 0.73556 0.39201 0.71851 0.0
O617 O 0.769 0.37706 0.74381 0.0
O618 O 0.69745 0.31393 0.67155 0.0
O619 O 0.71163 0.26189 0.67659 0.0
O620 O 0.808 0.21934 0.70645 0.0
O621 O 0.83077 0.26221 0.71657 0.0
O622 O 0.73039 0.34827 0.65401 0.0
O623 O 0.76516 0.36915 0.67238 0.0
C624 C 0.76679 0.22712 0.64345 0.0
C625 C 0.82268 0.34136 0.70511 0.0
C626 C 0.68673 0.37402 0.71989 0.0
C627 C 0.76478 0.24298 0.744 0.0
C628 C 0.75434 0.39931 0.73704 0.0
C629 C 0.69553 0.28121 0.66753 0.0
C630 C 0.82822 0.22978 0.71585 0.0
C631 C 0.74833 0.36665 0.64919 0.0
O632 O 0.78567 0.23419 0.66208 0.0
O633 O 0.74902 0.24289 0.64612 0.0
O634 O 0.80542 0.35707 0.71105 0.0
O635 O 0.82164 0.30869 0.70004 0.0
O636 O 0.69064 0.3718 0.68927 0.0
O637 O 0.70163 0.36031 0.73987 0.0
O638 O 0.78287 0.26255 0.74406 0.0
O639 O 0.74994 0.24188 0.71782 0.0
Co640 Co 0.46664 0.64622 0.46497 0.0
Co641 Co 0.49289 0.72137 0.44411 0.0
Co642 Co 0.52011 0.66724 0.48155 0.0
H643 H 0.49306 0.66678 0.47558 0.0
O644 O 0.48835 0.6862 0.48072 0.0
H645 H 0.51946 0.7239 0.45507 0.0
O646 O 0.525 0.70549 0.44903 0.0
Co647 Co 0.5446 0.74469 0.47057 0.0
O648 O 0.5355 0.77463 0.42895 0.0
O649 O 0.49949 0.75731 0.40881 0.0
O650 O 0.56884 0.71171 0.48425 0.0
O651 O 0.55295 0.65725 0.48504 0.0
O652 O 0.44864 0.59865 0.46661 0.0
O653 O 0.43681 0.63974 0.48955 0.0
O654 O 0.52725 0.74908 0.51103 0.0
O655 O 0.49484 0.75821 0.47971 0.0
C656 C 0.49997 0.60099 0.5045 0.0
C657 C 0.44536 0.70436 0.42201 0.0
C658 C 0.58029 0.78421 0.47718 0.0
C659 C 0.49815 0.6318 0.41681 0.0
C660 C 0.51786 0.77655 0.40729 0.0
C661 C 0.57039 0.67916 0.48724 0.0
C662 C 0.43325 0.60805 0.48272 0.0
C663 C 0.50786 0.76083 0.5078 0.0
O664 O 0.48174 0.60438 0.48473 0.0
O665 O 0.5144 0.62661 0.51234 0.0
O666 O 0.46001 0.72811 0.43413 0.0
O667 O 0.44729 0.67228 0.4286 0.0
O668 O 0.56366 0.78714 0.49373 0.0
O669 O 0.57652 0.75907 0.45714 0.0
O670 O 0.47874 0.64191 0.41978 0.0
O671 O 0.51469 0.63626 0.44047 0.0
Co672 Co 0.30167 0.03951 0.40531 0.0
Co673 Co 0.25151 0.02546 0.43617 0.0
Co674 Co 0.28278 0.08765 0.45936 0.0
H675 H 0.28903 0.05639 0.43748 0.0
O676 O 0.28457 0.03702 0.44642 0.0
H677 H 0.24496 0.05827 0.45436 0.0
O678 O 0.25009 0.07718 0.44517 0.0
Co679 Co 0.23047 0.0772 0.48249 0.0
O680 O 0.20938 0.03327 0.48017 0.0
O681 O 0.21753 0.0116 0.43109 0.0
O682 O 0.24309 0.12664 0.49336 0.0
O683 O 0.27799 0.13439 0.47636 0.0
O684 O 0.31967 0.03092 0.36384 0.0
O685 O 0.33398 0.02318 0.41369 0.0
O686 O 0.24834 0.04939 0.51849 0.0
O687 O 0.25369 0.00669 0.48367 0.0
C688 C 0.33136 0.09436 0.45056 0.0
C689 C 0.27055 0.97031 0.40103 0.0
C690 C 0.19415 0.10495 0.48145 0.0
C691 C 0.27667 0.09893 0.38485 0.0
C692 C 0.20467 0.01209 0.45537 0.0
C693 C 0.26108 0.14571 0.48881 0.0
C694 C 0.33695 0.02221 0.38251 0.0
C695 C 0.25443 0.01945 0.51344 0.0
O696 O 0.32722 0.07609 0.42328 0.0
O697 O 0.31627 0.09763 0.47081 0.0
O698 O 0.25633 0.97937 0.42044 0.0
O699 O 0.28727 0.99037 0.39223 0.0
O700 O 0.19775 0.07619 0.4954 0.0
O701 O 0.21128 0.11819 0.46873 0.0
O702 O 0.2791 0.06801 0.3766 0.0
O703 O 0.28468 0.11039 0.41419 0.0
Co704 Co 0.47823 0.09544 0.28159 0.0
Co705 Co 0.49674 0.02047 0.28093 0.0
Co706 Co 0.52899 0.08225 0.26874 0.0
H707 H 0.50232 0.081 0.26952 0.0
O708 O 0.49537 0.06496 0.25657 0.0
H709 H 0.52344 0.02073 0.27989 0.0
O710 O 0.53059 0.03697 0.2924 0.0
Co711 Co 0.54718 0.00462 0.2678 0.0
O712 O 0.53292 0.96098 0.28979 0.0
O713 O 0.49953 0.97535 0.30453 0.0
O714 O 0.57518 0.03838 0.27601 0.0
O715 O 0.56298 0.09199 0.2747 0.0
O716 O 0.45475 0.12989 0.28997 0.0
O717 O 0.45071 0.10154 0.24515 0.0
O718 O 0.5299 0.02653 0.22713 0.0
O719 O 0.4978 0.99816 0.23517 0.0
C720 C 0.51177 0.15077 0.25612 0.0
C721 C 0.45063 0.02989 0.2943 0.0
C722 C 0.57689 0.9673 0.25172 0.0
C723 C 0.51462 0.10162 0.33669 0.0
C724 C 0.51461 0.9539 0.30373 0.0
C725 C 0.57891 0.07129 0.27715 0.0
C726 C 0.44256 0.12366 0.26211 0.0
C727 C 0.51213 0.00899 0.2148 0.0
O728 O 0.49454 0.14149 0.27162 0.0
O729 O 0.52546 0.12931 0.24763 0.0
O730 O 0.46257 0.01199 0.27706 0.0
O731 O 0.45747 0.0604 0.30428 0.0
O732 O 0.55823 0.97078 0.234 0.0
O733 O 0.57852 0.9846 0.27875 0.0
O734 O 0.49427 0.08972 0.3289 0.0
O735 O 0.52882 0.1037 0.31471 0.0
Co736 Co 0.30493 0.64958 0.27803 0.0
Co737 Co 0.28112 0.7206 0.29782 0.0
Co738 Co 0.25173 0.66034 0.26581 0.0
H739 H 0.27876 0.66499 0.26969 0.0
O740 O 0.28352 0.68527 0.26301 0.0
H741 H 0.2541 0.7176 0.29067 0.0
O742 O 0.2489 0.69781 0.29779 0.0
Co743 Co 0.22829 0.73323 0.27912 0.0
O744 O 0.24365 0.77401 0.30782 0.0
O745 O 0.27718 0.75672 0.33106 0.0
O746 O 0.20381 0.69279 0.27779 0.0
O747 O 0.21938 0.64414 0.26573 0.0
O748 O 0.31965 0.62448 0.24129 0.0
O749 O 0.33923 0.642 0.28561 0.0
O750 O 0.24188 0.74367 0.23538 0.0
O751 O 0.27726 0.75543 0.25949 0.0
C752 C 0.27037 0.59755 0.24255 0.0
C753 C 0.33071 0.71621 0.30784 0.0
C754 C 0.19276 0.76462 0.27211 0.0
C755 C 0.27382 0.61992 0.32633 0.0
C756 C 0.26211 0.77852 0.32812 0.0
C757 C 0.20243 0.66033 0.27164 0.0
C758 C 0.33903 0.62613 0.25794 0.0
C759 C 0.26169 0.75801 0.23463 0.0
O760 O 0.28927 0.60451 0.26054 0.0
O761 O 0.25534 0.6194 0.23672 0.0
O762 O 0.31416 0.73536 0.30299 0.0
O763 O 0.32872 0.68383 0.30195 0.0
O764 O 0.21005 0.77321 0.25739 0.0
O765 O 0.19569 0.7383 0.29082 0.0
O766 O 0.29407 0.6251 0.31923 0.0
O767 O 0.257 0.63147 0.30805 0.0
Co768 Co 0.48186 0.76177 0.02024 0.0
Co769 Co 0.5067 0.83891 0.0072 0.0
Co770 Co 0.53496 0.78295 0.03758 0.0
H771 H 0.50811 0.78163 0.03181 0.0
O772 O 0.50357 0.80005 0.03941 0.0
H773 H 0.53394 0.83991 0.01068 0.0
O774 O 0.53811 0.8209 0.00345 0.0
Co775 Co 0.56074 0.86019 0.01909 0.0
O776 O 0.54461 0.90214 0.00316 0.0
O777 O 0.511 0.88088 0.97772 0.0
O778 O 0.58444 0.82606 0.03263 0.0
O779 O 0.56733 0.77304 0.04032 0.0
O780 O 0.46422 0.71783 -0.00263 0.0
O781 O 0.44895 0.74754 0.02974 0.0
O782 O 0.55036 0.87797 0.06236 0.0
O783 O 0.51297 0.86693 0.04956 0.0
C784 C 0.51365 0.72138 0.06955 0.0
C785 C 0.45808 0.82908 0.01925 0.0
C786 C 0.59688 0.89543 0.00795 0.0
C787 C 0.51261 0.75297 0.97326 0.0
C788 C 0.52571 0.90618 0.98544 0.0
C789 C 0.58501 0.79382 0.03955 0.0
C790 C 0.44648 0.72134 0.01102 0.0
C791 C 0.53009 0.87918 0.06919 0.0
O792 O 0.49537 0.72277 0.04912 0.0
O793 O 0.53005 0.74484 0.07098 0.0
O794 O 0.47421 0.84844 0.00811 0.0
O795 O 0.45955 0.79712 0.02704 0.0
O796 O 0.58973 0.89053 0.03675 0.0
O797 O 0.58365 0.87959 0.98504 0.0
O798 O 0.49627 0.77081 0.97704 0.0
O799 O 0.52807 0.74991 -0.00178 0.0
Co800 Co 0.79787 0.42133 -3e-05 0.0
Co801 Co 0.74534 0.41344 0.02115 0.0
Co802 Co 0.77612 0.47572 0.04357 0.0
H803 H 0.78312 0.44211 0.02664 0.0
O804 O 0.77776 0.42379 0.03655 0.0
H805 H 0.73834 0.44506 0.04081 0.0
O806 O 0.74309 0.46425 0.03185 0.0
Co807 Co 0.72406 0.46144 0.07081 0.0
O808 O 0.69693 0.42966 0.04779 0.0
O809 O 0.71252 0.40359 0.00697 0.0
O810 O 0.73712 0.51162 0.07971 0.0
O811 O 0.77067 0.5221 0.05774 0.0
O812 O 0.83031 0.42132 0.98661 0.0
O813 O 0.81641 0.37953 0.01327 0.0
O814 O 0.74702 0.43656 0.10163 0.0
O815 O 0.74279 0.39147 0.06747 0.0
C816 C 0.82374 0.48743 0.02678 0.0
C817 C 0.76631 0.35384 -0.00526 0.0
C818 C 0.69429 0.47052 0.10909 0.0
C819 C 0.77623 0.4806 0.96631 0.0
C820 C 0.69533 0.4094 0.02195 0.0
C821 C 0.75444 0.53148 0.07309 0.0
C822 C 0.83358 0.39235 0.00033 0.0
C823 C 0.74909 0.40483 0.09681 0.0
O824 O 0.81971 0.46486 0.00305 0.0
O825 O 0.81012 0.48945 0.04988 0.0
O826 O 0.74975 0.36708 0.0057 0.0
O827 O 0.78531 0.37078 0.99126 0.0
O828 O 0.71038 0.45169 0.11629 0.0
O829 O 0.69493 0.48421 0.0798 0.0
O830 O 0.78226 0.45037 0.96226 0.0
O831 O 0.77524 0.4933 -0.00427 0.0
Co832 Co 0.48287 0.49916 0.2196 0.0
Co833 Co 0.50282 0.42309 0.22672 0.0
Co834 Co 0.53217 0.48377 0.20215 0.0
H835 H 0.50602 0.48244 0.20681 0.0
O836 O 0.49879 0.46437 0.1974 0.0
H837 H 0.52958 0.42612 0.22635 0.0
O838 O 0.536 0.44509 0.23518 0.0
Co839 Co 0.55454 0.4105 0.21908 0.0
O840 O 0.53883 0.36507 0.2309 0.0
O841 O 0.50797 0.37893 0.25351 0.0
O842 O 0.57668 0.442 0.19546 0.0
O843 O 0.56568 0.49542 0.20055 0.0
O844 O 0.47251 0.5396 0.24636 0.0
O845 O 0.45014 0.51383 0.20934 0.0
O846 O 0.53928 0.40132 0.17173 0.0
O847 O 0.50329 0.39715 0.18312 0.0
C848 C 0.50942 0.54157 0.16807 0.0
C849 C 0.45307 0.43076 0.22358 0.0
C850 C 0.58995 0.3848 0.24439 0.0
C851 C 0.52115 0.5088 0.26712 0.0
C852 C 0.52165 0.35679 0.24665 0.0
C853 C 0.58008 0.47475 0.19305 0.0
C854 C 0.45268 0.53738 0.23125 0.0
C855 C 0.51839 0.39264 0.16349 0.0
O856 O 0.49272 0.53664 0.18589 0.0
O857 O 0.52601 0.52254 0.16998 0.0
O858 O 0.46911 0.41063 0.2226 0.0
O859 O 0.45642 0.46369 0.2238 0.0
O860 O 0.57231 0.3677 0.23166 0.0
O861 O 0.5874 0.41663 0.24339 0.0
O862 O 0.50363 0.4882 0.26159 0.0
O863 O 0.53318 0.51546 0.2426 0.0
Co864 Co 0.7941 0.76137 0.20504 0.0
Co865 Co 0.77434 0.83628 0.21048 0.0
Co866 Co 0.7432 0.77692 0.18089 0.0
H867 H 0.76985 0.77847 0.18884 0.0
O868 O 0.77607 0.79701 0.18046 0.0
H869 H 0.74729 0.8326 0.20737 0.0
O870 O 0.74217 0.813 0.21519 0.0
Co871 Co 0.7211 0.84763 0.19687 0.0
O872 O 0.73786 0.89259 0.21297 0.0
O873 O 0.77144 0.87785 0.23836 0.0
O874 O 0.699 0.8181 0.16433 0.0
O875 O 0.70977 0.76477 0.17594 0.0
O876 O 0.82529 0.75159 0.23081 0.0
O877 O 0.80737 0.71442 0.19911 0.0
O878 O 0.73222 0.84674 0.15054 0.0
O879 O 0.76776 0.86498 0.1681 0.0
C880 C 0.76209 0.72001 0.14974 0.0
C881 C 0.82392 0.83057 0.21128 0.0
C882 C 0.68812 0.87406 0.21803 0.0
C883 C 0.75942 0.7463 0.24714 0.0
C884 C 0.75685 0.90012 0.2308 0.0
C885 C 0.69536 0.7853 0.16276 0.0
C886 C 0.82522 0.72187 0.21872 0.0
C887 C 0.75073 0.86328 0.14515 0.0
O888 O 0.78008 0.72417 0.17108 0.0
O889 O 0.74627 0.74049 0.14774 0.0
O890 O 0.80752 0.8504 0.20924 0.0
O891 O 0.82085 0.79757 0.21117 0.0
O892 O 0.68785 0.86115 0.18888 0.0
O893 O 0.70702 0.87154 0.23541 0.0
O894 O 0.77818 0.76403 0.24718 0.0
O895 O 0.74622 0.7422 0.21938 0.0
Co896 Co 0.46611 0.15015 0.97359 0.0
Co897 Co 0.4922 0.22739 0.95206 0.0
Co898 Co 0.52075 0.16989 0.97825 0.0
H899 H 0.49354 0.16944 0.97772 0.0
O900 O 0.49005 0.1886 0.98553 0.0
H901 H 0.51896 0.22823 0.95656 0.0
O902 O 0.52336 0.21035 0.9475 0.0
Co903 Co 0.54501 0.24763 0.96924 0.0
O904 O 0.53294 0.28437 0.93548 0.0
O905 O 0.49623 0.26738 0.92015 0.0
O906 O 0.56895 0.21386 0.96551 0.0
O907 O 0.55318 0.16015 0.97476 0.0
O908 O 0.44854 0.10656 -0.00691 0.0
O909 O 0.4336 0.15259 0.98825 0.0
O910 O 0.53172 0.23883 0.01358 0.0
O911 O 0.49943 0.25874 0.9926 0.0
C912 C 0.50197 0.10288 0.0019 0.0
C913 C 0.44243 0.21561 0.94818 0.0
C914 C 0.57748 0.29171 0.98634 0.0
C915 C 0.49364 0.1276 0.91983 0.0
C916 C 0.51373 0.28843 0.91817 0.0
C917 C 0.57022 0.18117 0.96908 0.0
C918 C 0.43104 0.1213 -0.003 0.0
C919 C 0.51427 0.25397 0.018 0.0
O920 O 0.48223 0.1073 0.98698 0.0
O921 O 0.51724 0.12781 0.00769 0.0
O922 O 0.45997 0.23693 0.95128 0.0
O923 O 0.44292 0.18305 0.95351 0.0
O924 O 0.56081 0.28519 0.00296 0.0
O925 O 0.57567 0.27332 0.96 0.0
O926 O 0.47434 0.13034 0.93008 0.0
O927 O 0.51204 0.14116 0.93583 0.0
Co928 Co 0.30597 0.53747 0.91163 0.0
Co929 Co 0.25519 0.52914 0.94121 0.0
Co930 Co 0.28813 0.58891 0.9631 0.0
H931 H 0.29357 0.55632 0.9426 0.0
O932 O 0.28836 0.53776 0.95217 0.0
H933 H 0.24899 0.56465 0.95521 0.0
O934 O 0.25565 0.58198 0.9454 0.0
Co935 Co 0.23376 0.58806 0.97907 0.0
O936 O 0.21139 0.54512 0.97912 0.0
O937 O 0.22107 0.51801 0.9341 0.0
O938 O 0.24838 0.63771 0.98549 0.0
O939 O 0.28533 0.63619 0.97899 0.0
O940 O 0.31842 0.54482 0.86468 0.0
O941 O 0.33489 0.51422 0.90177 0.0
O942 O 0.25033 0.56356 0.01874 0.0
O943 O 0.25582 0.51592 0.99072 0.0
C944 C 0.33722 0.58808 0.96064 0.0
C945 C 0.27407 0.46861 0.91552 0.0
C946 C 0.19748 0.61618 0.97847 0.0
C947 C 0.28839 0.60131 0.88792 0.0
C948 C 0.20733 0.52139 0.95659 0.0
C949 C 0.26851 0.65225 0.98551 0.0
C950 C 0.33493 0.52679 0.87192 0.0
C951 C 0.25597 0.53267 0.01847 0.0
O952 O 0.33374 0.56794 0.93455 0.0
O953 O 0.32122 0.59508 0.9779 0.0
O954 O 0.25883 0.48111 0.93082 0.0
O955 O 0.29182 0.48657 0.907 0.0
O956 O 0.21488 0.63001 0.96684 0.0
O957 O 0.20078 0.58668 0.99075 0.0
O958 O 0.28757 0.56956 0.88033 0.0
O959 O 0.29366 0.61143 0.9186 0.0
Co960 Co 0.47558 0.59891 0.77415 0.0
Co961 Co 0.50019 0.52562 0.78436 0.0
Co962 Co 0.52765 0.59114 0.76617 0.0
H963 H 0.50097 0.58574 0.76578 0.0
O964 O 0.49522 0.56725 0.75526 0.0
H965 H 0.52672 0.53035 0.78083 0.0
O966 O 0.5329 0.54806 0.79216 0.0
Co967 Co 0.55128 0.51847 0.76751 0.0
O968 O 0.54245 0.47711 0.79758 0.0
O969 O 0.5075 0.48349 0.81211 0.0
O970 O 0.57708 0.55677 0.77167 0.0
O971 O 0.56058 0.60689 0.77266 0.0
O972 O 0.44414 0.61449 0.78194 0.0
O973 O 0.45627 0.62327 0.73483 0.0
O974 O 0.53075 0.53118 0.72574 0.0
O975 O 0.50151 0.49922 0.74084 0.0
C976 C 0.50649 0.65658 0.74845 0.0
C977 C 0.45095 0.53 0.7913 0.0
C978 C 0.58125 0.48291 0.74942 0.0
C979 C 0.5103 0.6098 0.83182 0.0
C980 C 0.52534 0.46689 0.81329 0.0
C981 C 0.57819 0.58981 0.77357 0.0
C982 C 0.44018 0.62693 0.75221 0.0
C983 C 0.51394 0.5097 0.71767 0.0
O984 O 0.48924 0.6465 0.76342 0.0
O985 O 0.52155 0.63644 0.74242 0.0
O986 O 0.46655 0.51115 0.78391 0.0
O987 O 0.45343 0.56291 0.79174 0.0
O988 O 0.56774 0.49891 0.72914 0.0
O989 O 0.57772 0.48701 0.78002 0.0
O990 O 0.49034 0.5968 0.82265 0.0
O991 O 0.52531 0.61297 0.81114 0.0
Co992 Co 0.30841 0.15405 0.78452 0.0
Co993 Co 0.28478 0.22229 0.80882 0.0
Co994 Co 0.25521 0.1646 0.7731 0.0
H995 H 0.28223 0.16945 0.77671 0.0
O996 O 0.28697 0.19013 0.77118 0.0
H997 H 0.25799 0.21967 0.8013 0.0
O998 O 0.25241 0.19972 0.80734 0.0
Co999 Co 0.23273 0.23619 0.78914 0.0
O1000 O 0.24745 0.27353 0.82306 0.0
O1001 O 0.28097 0.25515 0.84509 0.0
O1002 O 0.20765 0.1962 0.78767 0.0
O1003 O 0.22275 0.14805 0.77281 0.0
O1004 O 0.32191 0.13011 0.74574 0.0
O1005 O 0.34256 0.14578 0.78977 0.0
O1006 O 0.24756 0.24601 0.74623 0.0
O1007 O 0.28104 0.26091 0.77457 0.0
C1008 C 0.27314 0.10267 0.74852 0.0
C1009 C 0.3341 0.21765 0.81947 0.0
C1010 C 0.20097 0.27432 0.77702 0.0
C1011 C 0.27799 0.12545 0.83361 0.0
C1012 C 0.26578 0.27667 0.84386 0.0
C1013 C 0.20595 0.16393 0.78018 0.0
C1014 C 0.34155 0.13084 0.76145 0.0
C1015 C 0.26654 0.26349 0.74843 0.0
O1016 O 0.29199 0.10921 0.76699 0.0
O1017 O 0.25896 0.1257 0.74176 0.0
O1018 O 0.31768 0.23691 0.81438 0.0
O1019 O 0.33228 0.18549 0.81258 0.0
O1020 O 0.22128 0.28506 0.78515 0.0
O1021 O 0.19866 0.2419 0.77586 0.0
O1022 O 0.29829 0.13352 0.8279 0.0
O1023 O 0.26089 0.13374 0.81365 0.0
H1024 H 0.87398 0.42145 0.98431 0.0
H1025 H 0.84157 0.32659 0.02101 0.0
H1026 H 0.8775 0.2996 0.02516 0.0
H1027 H 0.9181 0.30309 0.01853 0.0
H1028 H 0.95065 0.39875 0.9832 0.0
H1029 H 0.91472 0.42526 0.9786 0.0
C1030 C 0.87479 0.39483 -0.00692 0.0
C1031 C 0.85518 0.37595 0.00216 0.0
C1032 C 0.89554 0.37965 -0.0042 0.0
C1033 C 0.85647 0.3416 0.0138 0.0
C1034 C 0.877 0.32618 0.0162 0.0
C1035 C 0.91739 0.32973 0.00981 0.0
C1036 C 0.93714 0.34875 0.00117 0.0
C1037 C 0.89666 0.34498 0.00732 0.0
C1038 C 0.9358 0.38336 0.99007 0.0
C1039 C 0.91522 0.39861 0.98734 0.0
H1040 H 0.36015 0.86061 0.04855 0.0
H1041 H 0.36629 0.92899 0.96133 0.0
H1042 H 0.40517 0.91388 0.95898 0.0
H1043 H 0.43713 0.87941 0.9807 0.0
H1044 H 0.42989 0.80981 0.06684 0.0
H1045 H 0.39203 0.82756 0.07094 0.0
C1046 C 0.37001 0.87216 0.02902 0.0
C1047 C 0.36034 0.89562 0.00501 0.0
C1048 C 0.39227 0.86329 0.02776 0.0
C1049 C 0.37333 0.91059 0.97996 0.0
C1050 C 0.39559 0.90208 0.97867 0.0
C1051 C 0.42734 0.86856 0.00061 0.0
C1052 C 0.43628 0.84332 0.02337 0.0
C1053 C 0.40523 0.87829 0.00235 0.0
C1054 C 0.42333 0.82915 0.04885 0.0
C1055 C 0.40164 0.83921 0.05121 0.0
H1056 H 0.84133 0.89135 0.18377 0.0
H1057 H 0.86071 0.80183 0.24376 0.0
H1058 H 0.90059 0.82132 0.244 0.0
H1059 H 0.93048 0.8641 0.22749 0.0
H1060 H 0.91114 0.95374 0.16758 0.0
H1061 H 0.87126 0.93379 0.16663 0.0
C1062 C 0.85429 0.87637 0.19719 0.0
C1063 C 0.84792 0.84519 0.2137 0.0
C1064 C 0.87743 0.88752 0.19689 0.0
C1065 C 0.86504 0.82585 0.23061 0.0
C1066 C 0.88795 0.83693 0.23075 0.0
C1067 C 0.91756 0.87894 0.21378 0.0
C1068 C 0.92392 0.91031 0.1976 0.0
C1069 C 0.89442 0.86761 0.21376 0.0
C1070 C 0.90682 0.92947 0.18036 0.0
C1071 C 0.88391 0.91819 0.1799 0.0
H1072 H 0.34742 0.39744 0.22786 0.0
H1073 H 0.36343 0.30023 0.18858 0.0
H1074 H 0.40309 0.3208 0.19121 0.0
H1075 H 0.43387 0.36626 0.20458 0.0
H1076 H 0.41809 0.46373 0.24333 0.0
H1077 H 0.37832 0.44314 0.24111 0.0
C1078 C 0.35954 0.38087 0.21966 0.0
C1079 C 0.35219 0.34732 0.2081 0.0
C1080 C 0.38268 0.39278 0.22131 0.0
C1081 C 0.36836 0.3262 0.19775 0.0
C1082 C 0.39122 0.33787 0.19926 0.0
C1083 C 0.42177 0.38287 0.21279 0.0
C1084 C 0.42913 0.41648 0.22402 0.0
C1085 C 0.39866 0.37104 0.21116 0.0
C1086 C 0.41304 0.43773 0.23432 0.0
C1087 C 0.39017 0.42602 0.23307 0.0
H1088 H 0.15652 0.58473 0.99002 0.0
H1089 H 0.18933 0.68314 0.96306 0.0
H1090 H 0.15318 0.70943 0.9599 0.0
H1091 H 0.11238 0.70448 0.96459 0.0
H1092 H 0.07913 0.60568 0.98997 0.0
H1093 H 0.1153 0.57954 -0.00627 0.0
C1094 C 0.15574 0.61196 0.98356 0.0
C1095 C 0.17559 0.63203 0.97691 0.0
C1096 C 0.13482 0.6268 0.98136 0.0
C1097 C 0.1743 0.66717 0.96827 0.0
C1098 C 0.15363 0.6822 0.96646 0.0
C1099 C 0.11295 0.67721 0.97098 0.0
C1100 C 0.09292 0.6572 0.97709 0.0
C1101 C 0.13379 0.66226 0.97291 0.0
C1102 C 0.09416 0.62182 0.98511 0.0
C1103 C 0.11489 0.60682 0.98733 0.0
H1104 H 0.67296 0.158 0.95684 0.0
H1105 H 0.65753 0.06905 0.02027 0.0
H1106 H 0.61807 0.08331 0.01761 0.0
H1107 H 0.58787 0.12234 -0.00161 0.0
H1108 H 0.60431 0.2119 0.93605 0.0
H1109 H 0.643 0.196 0.93695 0.0
C1110 C 0.66098 0.14178 0.97014 0.0
C1111 C 0.66829 0.11269 0.98896 0.0
C1112 C 0.63829 0.15018 0.96858 0.0
C1113 C 0.65246 0.09185 0.0059 0.0
C1114 C 0.62982 0.0999 0.00426 0.0
C1115 C 0.59984 0.13808 0.98465 0.0
C1116 C 0.59301 0.16832 0.9672 0.0
C1117 C 0.62249 0.12912 0.98576 0.0
C1118 C 0.60896 0.18857 0.94984 0.0
C1119 C 0.63121 0.17955 0.95036 0.0
H1120 H 0.16501 0.18858 0.78771 0.0
H1121 H 0.19592 0.09414 0.77191 0.0
H1122 H 0.1591 0.06144 0.77068 0.0
H1123 H 0.11794 0.05954 0.77298 0.0
H1124 H 0.08701 0.15422 0.78771 0.0
H1125 H 0.12397 0.18665 0.79039 0.0
C1126 C 0.16379 0.16084 0.78407 0.0
C1127 C 0.1834 0.14404 0.77989 0.0
C1128 C 0.14247 0.14208 0.78314 0.0
C1129 C 0.18125 0.10798 0.77512 0.0
C1130 C 0.16014 0.08915 0.77443 0.0
C1131 C 0.11924 0.08722 0.77703 0.0
C1132 C 0.09955 0.10423 0.78018 0.0
C1133 C 0.14061 0.10592 0.7783 0.0
C1134 C 0.10174 0.14026 0.78512 0.0
C1135 C 0.12292 0.15893 0.78668 0.0
H1136 H 0.66703 0.6922 0.78281 0.0
H1137 H 0.69759 0.59625 0.77259 0.0
H1138 H 0.66047 0.5644 0.7712 0.0
H1139 H 0.61928 0.56365 0.7718 0.0
H1140 H 0.58864 0.65967 0.78115 0.0
H1141 H 0.62588 0.69143 0.78388 0.0
C1142 C 0.66568 0.66432 0.78035 0.0
C1143 C 0.68527 0.64681 0.77777 0.0
C1144 C 0.64421 0.64607 0.77934 0.0
C1145 C 0.68294 0.61058 0.77458 0.0
C1146 C 0.66167 0.59227 0.77378 0.0
C1147 C 0.62067 0.59152 0.77459 0.0
C1148 C 0.60101 0.6091 0.77627 0.0
C1149 C 0.64217 0.60974 0.77599 0.0
C1150 C 0.60335 0.6453 0.77977 0.0
C1151 C 0.62469 0.66355 0.78134 0.0
H1152 H 0.91437 0.81383 0.48521 0.0
H1153 H 0.95179 0.90372 0.53256 0.0
H1154 H 0.91646 0.93181 0.5331 0.0
H1155 H 0.87458 0.92995 0.52162 0.0
H1156 H 0.83806 0.84144 0.47046 0.0
H1157 H 0.8733 0.8137 0.47004 0.0
C1158 C 0.91484 0.83961 0.49563 0.0
C1159 C 0.9357 0.85648 0.50915 0.0
C1160 C 0.89455 0.85579 0.49532 0.0
C1161 C 0.93598 0.89011 0.52202 0.0
C1162 C 0.91577 0.90615 0.52243 0.0
C1163 C 0.87439 0.90462 0.51032 0.0
C1164 C 0.85362 0.88751 0.49662 0.0
C1165 C 0.8949 0.88911 0.5094 0.0
C1166 C 0.85369 0.85498 0.48157 0.0
C1167 C 0.87388 0.83911 0.48125 0.0
H1168 H 0.35286 0.35095 0.47684 0.0
H1169 H 0.37627 0.43586 0.54455 0.0
H1170 H 0.41518 0.41926 0.54723 0.0
H1171 H 0.44246 0.37923 0.53185 0.0
H1172 H 0.4183 0.29218 0.46712 0.0
H1173 H 0.37998 0.31101 0.46161 0.0
C1174 C 0.36652 0.36583 0.49207 0.0
C1175 C 0.36175 0.39449 0.51049 0.0
C1176 C 0.38877 0.35574 0.49403 0.0
C1177 C 0.37954 0.41351 0.53031 0.0
C1178 C 0.4018 0.4041 0.53178 0.0
C1179 C 0.42883 0.36464 0.51627 0.0
C1180 C 0.43326 0.33442 0.49986 0.0
C1181 C 0.40662 0.3751 0.51393 0.0
C1182 C 0.41535 0.3155 0.48011 0.0
C1183 C 0.3934 0.32622 0.47694 0.0
H1184 H 0.86345 0.3166 0.69759 0.0
H1185 H 0.83264 0.41173 0.71061 0.0
H1186 H 0.86948 0.44431 0.70975 0.0
H1187 H 0.91072 0.44573 0.70656 0.0
H1188 H 0.94121 0.35005 0.69467 0.0
H1189 H 0.90421 0.31802 0.69372 0.0
C1190 C 0.86465 0.34448 0.70015 0.0
C1191 C 0.84509 0.36152 0.70419 0.0
C1192 C 0.88592 0.36309 0.69978 0.0
C1193 C 0.84727 0.39775 0.70753 0.0
C1194 C 0.86839 0.41646 0.707 0.0
C1195 C 0.90929 0.41791 0.7034 0.0
C1196 C 0.9289 0.40048 0.70057 0.0
C1197 C 0.88787 0.39941 0.70325 0.0
C1198 C 0.92656 0.36431 0.69688 0.0
C1199 C 0.90535 0.34588 0.69637 0.0
H1200 H 0.34132 0.8969 0.71638 0.0
H1201 H 0.35716 0.79942 0.67739 0.0
H1202 H 0.39664 0.82011 0.67895 0.0
H1203 H 0.42766 0.86499 0.69278 0.0
H1204 H 0.41239 0.96322 0.73029 0.0
H1205 H 0.37244 0.94319 0.72781 0.0
C1206 C 0.35335 0.88032 0.70794 0.0
C1207 C 0.34592 0.84646 0.69711 0.0
C1208 C 0.37651 0.8924 0.70877 0.0
C1209 C 0.36204 0.82551 0.68625 0.0
C1210 C 0.38485 0.83727 0.68709 0.0
C1211 C 0.41562 0.88203 0.70042 0.0
C1212 C 0.42328 0.91554 0.71175 0.0
C1213 C 0.39241 0.8705 0.69867 0.0
C1214 C 0.40719 0.93727 0.72128 0.0
C1215 C 0.38419 0.92584 0.71994 0.0
H1216 H 0.10957 0.19362 0.46157 0.0
H1217 H 0.07583 0.09743 0.49317 0.0
H1218 H 0.11184 0.0706 0.49862 0.0
H1219 H 0.15314 0.07473 0.49501 0.0
H1220 H 0.18617 0.17085 0.46222 0.0
H1221 H 0.15017 0.19751 0.45697 0.0
C1222 C 0.10995 0.16677 0.46964 0.0
C1223 C 0.08988 0.14773 0.47705 0.0
C1224 C 0.13066 0.15152 0.47272 0.0
C1225 C 0.09092 0.11283 0.48726 0.0
C1226 C 0.11154 0.09745 0.49049 0.0
C1227 C 0.15243 0.10154 0.48685 0.0
C1228 C 0.1723 0.12087 0.47916 0.0
C1229 C 0.13156 0.11661 0.48346 0.0
C1230 C 0.17112 0.15546 0.4683 0.0
C1231 C 0.15053 0.1707 0.46526 0.0
H1232 H 0.58461 0.61266 0.4927 0.0
H1233 H 0.60976 0.72043 0.4922 0.0
H1234 H 0.64818 0.70449 0.49455 0.0
H1235 H 0.67525 0.66057 0.49464 0.0
H1236 H 0.65182 0.55274 0.49875 0.0
H1237 H 0.61258 0.568 0.49724 0.0
C1238 C 0.59849 0.63261 0.49336 0.0
C1239 C 0.59391 0.66773 0.4917 0.0
C1240 C 0.62108 0.62332 0.49526 0.0
C1241 C 0.61236 0.69314 0.4929 0.0
C1242 C 0.63457 0.68413 0.49432 0.0
C1243 C 0.66155 0.64045 0.49539 0.0
C1244 C 0.66638 0.60568 0.49663 0.0
C1245 C 0.63915 0.6494 0.49509 0.0
C1246 C 0.6485 0.5798 0.4979 0.0
C1247 C 0.62605 0.58851 0.49693 0.0
H1248 H 0.16121 0.68596 0.27242 0.0
H1249 H 0.19311 0.5901 0.26977 0.0
H1250 H 0.15625 0.55757 0.26863 0.0
H1251 H 0.1151 0.55621 0.26827 0.0
H1252 H 0.08314 0.65208 0.2707 0.0
H1253 H 0.12002 0.68462 0.27213 0.0
C1254 C 0.16019 0.65795 0.27177 0.0
C1255 C 0.18 0.6406 0.27125 0.0
C1256 C 0.13893 0.63935 0.27103 0.0
C1257 C 0.1782 0.60424 0.27008 0.0
C1258 C 0.15711 0.58556 0.26947 0.0
C1259 C 0.11612 0.58423 0.26911 0.0
C1260 C 0.09627 0.60157 0.26941 0.0
C1261 C 0.13737 0.60285 0.26989 0.0
C1262 C 0.09806 0.63794 0.27048 0.0
C1263 C 0.11917 0.65663 0.2713 0.0
H1264 H 0.59636 0.1335 0.25347 0.0
H1265 H 0.61606 0.0398 0.30566 0.0
H1266 H 0.65601 0.05987 0.3061 0.0
H1267 H 0.68581 0.10451 0.29183 0.0
H1268 H 0.66571 0.19691 0.23752 0.0
H1269 H 0.62591 0.17688 0.2375 0.0
C1270 C 0.60939 0.11767 0.2653 0.0
C1271 C 0.6031 0.08535 0.27981 0.0
C1272 C 0.63246 0.129 0.26478 0.0
C1273 C 0.62032 0.06489 0.2944 0.0
C1274 C 0.64325 0.07627 0.29456 0.0
C1275 C 0.67271 0.11995 0.27958 0.0
C1276 C 0.67883 0.15237 0.26505 0.0
C1277 C 0.6496 0.10823 0.27963 0.0
C1278 C 0.66155 0.1721 0.24942 0.0
C1279 C 0.6387 0.16068 0.24936 0.0
H1280 H 0.17419 0.52352 -0.00085 0.0
H1281 H 0.1939 0.46205 0.91877 0.0
H1282 H 0.16167 0.41975 0.92527 0.0
H1283 H 0.1279 0.39911 0.95535 0.0
H1284 H 0.10953 0.46211 0.03573 0.0
H1285 H 0.1409 0.50438 0.02753 0.0
C1286 C 0.17148 0.50107 0.98273 0.0
C1287 C 0.18669 0.4964 0.95835 0.0
C1288 C 0.15299 0.47669 0.98678 0.0
C1289 C 0.18259 0.46676 0.93762 0.0
C1290 C 0.16412 0.44236 0.94146 0.0
C1291 C 0.13078 0.42209 0.97102 0.0
C1292 C 0.11619 0.42704 -0.00366 0.0
C1293 C 0.14921 0.44683 0.96619 0.0
C1294 C 0.12032 0.45722 0.01621 0.0
C1295 C 0.13836 0.48161 0.01153 0.0
H1296 H 0.15454 0.9023 0.05141 0.0
H1297 H 0.18924 0.86952 0.9682 0.0
H1298 H 0.15734 0.82871 0.94971 0.0
H1299 H 0.11996 0.80019 0.95763 0.0
H1300 H 0.08448 0.83216 0.03995 0.0
H1301 H 0.11597 0.87491 0.058 0.0
C1302 C 0.15501 0.88658 0.02898 0.0
C1303 C 0.17453 0.88933 0.01142 0.0
C1304 C 0.1364 0.86255 0.0183 0.0
C1305 C 0.17467 0.8683 0.98248 0.0
C1306 C 0.15636 0.84469 0.97178 0.0
C1307 C 0.11908 0.81655 0.97948 0.0
C1308 C 0.09987 0.81274 -0.00254 0.0
C1309 C 0.13724 0.84124 0.98965 0.0
C1310 C 0.09907 0.83435 0.02568 0.0
C1311 C 0.1171 0.8589 0.03601 0.0
H1312 H 0.09477 0.82052 0.26328 0.0
H1313 H 0.12608 0.89673 0.19824 0.0
H1314 H 0.16174 0.86943 0.20827 0.0
H1315 H 0.18415 0.82309 0.23451 0.0
H1316 H 0.15298 0.74574 0.29849 0.0
H1317 H 0.11741 0.77382 0.28971 0.0
C1318 C 0.10942 0.83114 0.2514 0.0
C1319 C 0.1077 0.86079 0.23013 0.0
C1320 C 0.12999 0.81489 0.25693 0.0
C1321 C 0.12687 0.87405 0.21478 0.0
C1322 C 0.14732 0.85838 0.22045 0.0
C1323 C 0.16959 0.81242 0.24659 0.0
C1324 C 0.17131 0.78234 0.26717 0.0
C1325 C 0.14909 0.82868 0.24132 0.0
C1326 C 0.15221 0.76891 0.28261 0.0
C1327 C 0.13181 0.78497 0.27757 0.0
H1328 H 0.17161 0.39566 0.27077 0.0
H1329 H 0.15843 0.40204 0.16034 0.0
H1330 H 0.12421 0.43159 0.16523 0.0
H1331 H 0.09787 0.45676 0.20103 0.0
H1332 H 0.11103 0.44957 0.31147 0.0
H1333 H 0.14495 0.41956 0.30641 0.0
C1334 C 0.16123 0.40342 0.24776 0.0
C1335 C 0.1678 0.39655 0.21519 0.0
C1336 C 0.14138 0.4205 0.25076 0.0
C1337 C 0.15397 0.40692 0.18575 0.0
C1338 C 0.13431 0.4239 0.18853 0.0
C1339 C 0.10812 0.44855 0.22399 0.0
C1340 C 0.10173 0.45564 0.25665 0.0
C1341 C 0.12782 0.43102 0.22091 0.0
C1342 C 0.11537 0.44464 0.286 0.0
C1343 C 0.13488 0.4274 0.28314 0.0
H1344 H 0.85925 0.48261 0.98938 0.0
H1345 H 0.83419 0.5507 0.05925 0.0
H1346 H 0.86566 0.59401 0.05104 0.0
H1347 H 0.90016 0.61353 0.022 0.0
H1348 H 0.92405 0.54351 0.95255 0.0
H1349 H 0.89342 0.5005 0.96266 0.0
C1350 C 0.86062 0.50675 0.00317 0.0
C1351 C 0.84413 0.51297 0.02509 0.0
C1352 C 0.87869 0.53159 -0.00184 0.0
C1353 C 0.84656 0.54472 0.04251 0.0
C1354 C 0.86457 0.5697 0.0376 0.0
C1355 C 0.89867 0.58884 0.00915 0.0
C1356 C 0.91457 0.58214 0.98627 0.0
C1357 C 0.88071 0.56363 0.01519 0.0
C1358 C 0.91221 0.54978 0.97007 0.0
C1359 C 0.89462 0.52497 0.97587 0.0
H1360 H 0.91428 0.19978 0.03334 0.0
H1361 H 0.93854 0.18739 0.93516 0.0
H1362 H 0.90623 0.14581 0.91811 0.0
H1363 H 0.87015 0.11375 0.93038 0.0
H1364 H 0.84594 0.12739 0.02861 0.0
H1365 H 0.87885 0.16704 0.04602 0.0
C1366 C 0.91253 0.18796 0.00822 0.0
C1367 C 0.92889 0.19701 0.98556 0.0
C1368 C 0.89375 0.16402 -0.00155 0.0
C1369 C 0.92622 0.18125 0.95311 0.0
C1370 C 0.90771 0.15732 0.94333 0.0
C1371 C 0.87214 0.1251 0.95573 0.0
C1372 C 0.85531 0.11717 0.97802 0.0
C1373 C 0.89123 0.14855 0.96569 0.0
C1374 C 0.85839 0.13261 0.01071 0.0
C1375 C 0.87729 0.15554 0.02078 0.0
H1376 H 0.87286 0.24858 0.73431 0.0
H1377 H 0.82538 0.15922 0.71536 0.0
H1378 H 0.85615 0.12108 0.72769 0.0
H1379 H 0.89682 0.11307 0.74376 0.0
H1380 H 0.94398 0.20282 0.76303 0.0
H1381 H 0.91322 0.24067 0.75061 0.0
C1382 C 0.86925 0.22075 0.73297 0.0
C1383 C 0.84686 0.20677 0.72397 0.0
C1384 C 0.88703 0.19897 0.74009 0.0
C1385 C 0.84247 0.17065 0.72226 0.0
C1386 C 0.86007 0.14881 0.72928 0.0
C1387 C 0.90031 0.14091 0.74518 0.0
C1388 C 0.92265 0.15507 0.75435 0.0
C1389 C 0.88245 0.16266 0.73816 0.0
C1390 C 0.92692 0.19121 0.75619 0.0
C1391 C 0.90934 0.21293 0.74906 0.0
H1392 H 0.85966 0.56953 0.78363 0.0
H1393 H 0.8718 0.65644 0.716 0.0
H1394 H 0.90479 0.63057 0.69837 0.0
H1395 H 0.93053 0.58293 0.70247 0.0
H1396 H 0.9179 0.49652 0.77065 0.0
H1397 H 0.88501 0.52241 0.78768 0.0
C1398 C 0.86951 0.58283 0.765 0.0
C1399 C 0.86321 0.61492 0.75118 0.0
C1400 C 0.8885 0.56784 0.75509 0.0
C1401 C 0.87621 0.63173 0.72706 0.0
C1402 C 0.89512 0.61693 0.71698 0.0
C1403 C 0.92057 0.56983 0.72106 0.0
C1404 C 0.92678 0.53778 0.73528 0.0
C1405 C 0.90149 0.58498 0.73087 0.0
C1406 C 0.91363 0.52119 0.75933 0.0
C1407 C 0.89475 0.53598 0.7691 0.0
H1408 H 0.17079 0.0157 0.49557 0.0
H1409 H 0.19255 0.95072 0.41976 0.0
H1410 H 0.16082 0.90775 0.42796 0.0
H1411 H 0.12711 0.88772 0.45881 0.0
H1412 H 0.1071 0.95489 0.53454 0.0
H1413 H 0.13775 0.99751 0.52413 0.0
C1414 C 0.16866 0.99233 0.48047 0.0
C1415 C 0.18424 0.98681 0.45693 0.0
C1416 C 0.15058 0.96776 0.48556 0.0
C1417 C 0.18085 0.95609 0.43782 0.0
C1418 C 0.16273 0.93133 0.44272 0.0
C1419 C 0.12949 0.9117 0.47297 0.0
C1420 C 0.1147 0.91773 0.49771 0.0
C1421 C 0.14752 0.93667 0.46684 0.0
C1422 C 0.11813 0.94914 0.51561 0.0
C1423 C 0.13571 0.97374 0.50963 0.0
H1424 H 0.0957 0.33003 0.51387 0.0
H1425 H 0.12406 0.26096 0.44865 0.0
H1426 H 0.16079 0.29459 0.45783 0.0
H1427 H 0.18528 0.34339 0.48536 0.0
H1428 H 0.1565 0.41189 0.55099 0.0
H1429 H 0.11986 0.37905 0.54052 0.0
C1430 C 0.1099 0.32239 0.50158 0.0
C1431 C 0.10704 0.29296 0.48055 0.0
C1432 C 0.13105 0.34191 0.50699 0.0
C1433 C 0.1257 0.28348 0.4649 0.0
C1434 C 0.14676 0.30275 0.47016 0.0
C1435 C 0.17097 0.35137 0.49713 0.0
C1436 C 0.17391 0.38035 0.51893 0.0
C1437 C 0.1497 0.33205 0.49122 0.0
C1438 C 0.15501 0.38986 0.53411 0.0
C1439 C 0.13391 0.371 0.52818 0.0
H1440 H 0.13186 0.39013 0.74909 0.0
H1441 H 0.08459 0.29996 0.73433 0.0
H1442 H 0.11552 0.26237 0.74702 0.0
H1443 H 0.1561 0.25493 0.76177 0.0
H1444 H 0.20361 0.34485 0.77601 0.0
H1445 H 0.17263 0.38262 0.76392 0.0
C1446 C 0.12837 0.36226 0.74876 0.0
C1447 C 0.10598 0.34786 0.74076 0.0
C1448 C 0.14631 0.34072 0.75586 0.0
C1449 C 0.10169 0.31169 0.74027 0.0
C1450 C 0.11937 0.29016 0.74755 0.0
C1451 C 0.15966 0.2828 0.76224 0.0
C1452 C 0.18212 0.29706 0.76979 0.0
C1453 C 0.14176 0.30435 0.75525 0.0
C1454 C 0.18646 0.33322 0.77032 0.0
C1455 C 0.16875 0.35484 0.76342 0.0
H1456 H 0.08753 0.92739 0.7212 0.0
H1457 H 0.12694 0.99317 0.79711 0.0
H1458 H 0.16121 0.96579 0.78766 0.0
H1459 H 0.18045 0.92312 0.75739 0.0
H1460 H 0.14101 0.858 0.68091 0.0
H1461 H 0.10671 0.88487 0.69096 0.0
C1462 C 0.1036 0.93561 0.7358 0.0
C1463 C 0.1045 0.96226 0.76004 0.0
C1464 C 0.12342 0.91976 0.7301 0.0
C1465 C 0.1256 0.97267 0.77844 0.0
C1466 C 0.14529 0.957 0.77301 0.0
C1467 C 0.16433 0.9147 0.74306 0.0
C1468 C 0.16344 0.88836 0.71847 0.0
C1469 C 0.14448 0.93049 0.74889 0.0
C1470 C 0.14233 0.87808 0.70002 0.0
C1471 C 0.12261 0.89348 0.70576 0.0
H1472 H 0.83846 0.01372 0.47064 0.0
H1473 H 0.84093 0.03957 0.57761 0.0
H1474 H 0.87499 0.07899 0.5726 0.0
H1475 H 0.90501 0.10485 0.53731 0.0
H1476 H 0.89947 0.07962 0.4296 0.0
H1477 H 0.86559 0.04175 0.43542 0.0
C1478 C 0.84621 0.02809 0.49298 0.0
C1479 C 0.83706 0.02337 0.52456 0.0
C1480 C 0.86539 0.05096 0.48971 0.0
C1481 C 0.84751 0.04257 0.55298 0.0
C1482 C 0.86706 0.06507 0.55009 0.0
C1483 C 0.89629 0.09115 0.51516 0.0
C1484 C 0.90503 0.09501 0.48305 0.0
C1485 C 0.87632 0.06932 0.51855 0.0
C1486 C 0.89334 0.0772 0.4546 0.0
C1487 C 0.8739 0.05539 0.45788 0.0
H1488 H 0.84055 0.65592 0.49785 0.0
H1489 H 0.8681 0.59266 0.42601 0.0
H1490 H 0.9045 0.62641 0.43575 0.0
H1491 H 0.92888 0.67463 0.46412 0.0
H1492 H 0.90135 0.73832 0.53538 0.0
H1493 H 0.86495 0.70397 0.52637 0.0
C1494 C 0.85452 0.64933 0.48443 0.0
C1495 C 0.85133 0.62146 0.46127 0.0
C1496 C 0.8756 0.66915 0.48995 0.0
C1497 C 0.8698 0.61374 0.44404 0.0
C1498 C 0.89076 0.63315 0.44955 0.0
C1499 C 0.91492 0.68096 0.4777 0.0
C1500 C 0.91795 0.70908 0.50046 0.0
C1501 C 0.89388 0.66102 0.47234 0.0
C1502 C 0.89959 0.71685 0.51777 0.0
C1503 C 0.87871 0.69717 0.51262 0.0
H1504 H 0.89819 0.61042 0.23122 0.0
H1505 H 0.93687 0.69216 0.2904 0.0
H1506 H 0.90505 0.72829 0.28083 0.0
H1507 H 0.86617 0.73703 0.25582 0.0
H1508 H 0.82723 0.65614 0.19597 0.0
H1509 H 0.85899 0.61946 0.2057 0.0
C1510 C 0.89961 0.63614 0.24198 0.0
C1511 C 0.91991 0.64849 0.26155 0.0
C1512 C 0.88113 0.65697 0.23636 0.0
C1513 C 0.92147 0.68192 0.2753 0.0
C1514 C 0.90325 0.70266 0.26986 0.0
C1515 C 0.8646 0.71133 0.24499 0.0
C1516 C 0.84431 0.69933 0.22531 0.0
C1517 C 0.88298 0.69048 0.25051 0.0
C1518 C 0.84262 0.666 0.21131 0.0
C1519 C 0.86081 0.64501 0.21683 0.0
H1520 H 0.85266 0.10395 0.21265 0.0
H1521 H 0.87679 0.11642 0.32018 0.0
H1522 H 0.91088 0.088 0.31223 0.0
H1523 H 0.93379 0.05844 0.27493 0.0
H1524 H 0.90976 0.04597 0.16738 0.0
H1525 H 0.87598 0.07538 0.17507 0.0
C1526 C 0.86543 0.10056 0.23428 0.0
C1527 C 0.8621 0.11234 0.26696 0.0
C1528 C 0.88511 0.08406 0.22954 0.0
C1529 C 0.87884 0.10763 0.29473 0.0
C1530 C 0.89839 0.09133 0.29022 0.0
C1531 C 0.9212 0.0623 0.25317 0.0
C1532 C 0.92437 0.05 0.22061 0.0
C1533 C 0.9017 0.07928 0.25778 0.0
C1534 C 0.90783 0.05522 0.19271 0.0
C1535 C 0.88844 0.07202 0.19709 0.0
H1536 H 0.61982 0.39591 0.45853 0.0
H1537 H 0.61789 0.43913 0.55881 0.0
H1538 H 0.65084 0.47831 0.55098 0.0
H1539 H 0.67997 0.50093 0.51668 0.0
H1540 H 0.68378 0.46014 0.41604 0.0
H1541 H 0.65067 0.41933 0.4232 0.0
C1542 C 0.62667 0.41388 0.47863 0.0
C1543 C 0.61615 0.41438 0.50933 0.0
C1544 C 0.64601 0.43685 0.47396 0.0
C1545 C 0.62541 0.43791 0.53501 0.0
C1546 C 0.64435 0.46047 0.53056 0.0
C1547 C 0.67365 0.48345 0.4959 0.0
C1548 C 0.68444 0.48431 0.46552 0.0
C1549 C 0.65472 0.46029 0.50021 0.0
C1550 C 0.67589 0.46055 0.43959 0.0
C1551 C 0.65689 0.43714 0.44373 0.0
H1552 H 0.59131 0.84227 0.51621 0.0
H1553 H 0.61881 0.77422 0.44891 0.0
H1554 H 0.65559 0.80734 0.45784 0.0
H1555 H 0.68051 0.85474 0.48611 0.0
H1556 H 0.65293 0.9231 0.55327 0.0
H1557 H 0.61592 0.89117 0.54277 0.0
C1558 C 0.60534 0.83483 0.5034 0.0
C1559 C 0.60225 0.80572 0.48199 0.0
C1560 C 0.62656 0.85416 0.50856 0.0
C1561 C 0.62064 0.79651 0.46551 0.0
C1562 C 0.64174 0.81545 0.47062 0.0
C1563 C 0.66639 0.86291 0.49823 0.0
C1564 C 0.66975 0.89144 0.52051 0.0
C1565 C 0.64499 0.84424 0.49224 0.0
C1566 C 0.65107 0.90135 0.536 0.0
C1567 C 0.6298 0.883 0.53009 0.0
H1568 H 0.65758 0.75435 0.74903 0.0
H1569 H 0.70057 0.84386 0.7858 0.0
H1570 H 0.66805 0.87907 0.7785 0.0
H1571 H 0.62715 0.88444 0.76206 0.0
H1572 H 0.58432 0.79491 0.72489 0.0
H1573 H 0.61685 0.75981 0.73214 0.0
C1574 C 0.65984 0.78158 0.75538 0.0
C1575 C 0.68152 0.79643 0.7679 0.0
C1576 C 0.64102 0.80171 0.75116 0.0
C1577 C 0.68411 0.83176 0.77608 0.0
C1578 C 0.66549 0.85193 0.77194 0.0
C1579 C 0.62496 0.85726 0.75554 0.0
C1580 C 0.6033 0.84236 0.74292 0.0
C1581 C 0.64383 0.83719 0.75958 0.0
C1582 C 0.60078 0.80708 0.73456 0.0
C1583 C 0.61939 0.78696 0.73871 0.0
H1584 H 0.61302 0.44867 0.79014 0.0
H1585 H 0.59045 0.47173 0.68409 0.0
H1586 H 0.62063 0.43992 0.6656 0.0
H1587 H 0.65394 0.40608 0.67943 0.0
H1588 H 0.67667 0.38302 0.78539 0.0
H1589 H 0.64609 0.41404 0.80392 0.0
C1590 C 0.61468 0.44666 0.76298 0.0
C1591 C 0.59944 0.46271 0.73857 0.0
C1592 C 0.63219 0.42827 0.75247 0.0
C1593 C 0.6019 0.45977 0.70347 0.0
C1594 C 0.6192 0.44154 0.69286 0.0
C1595 C 0.65217 0.40774 0.70658 0.0
C1596 C 0.66765 0.39214 0.73097 0.0
C1597 C 0.63451 0.42576 0.71709 0.0
C1598 C 0.66504 0.39467 0.76604 0.0
C1599 C 0.64754 0.41248 0.77667 0.0
H1600 H 0.39606 0.62048 0.51728 0.0
H1601 H 0.42643 0.5402 0.46811 0.0
H1602 H 0.39513 0.49894 0.47889 0.0
H1603 H 0.3586 0.48526 0.49974 0.0
H1604 H 0.32679 0.56302 0.54981 0.0
H1605 H 0.35904 0.60513 0.54164 0.0
C1606 C 0.39582 0.59394 0.50907 0.0
C1607 C 0.41373 0.58379 0.49157 0.0
C1608 C 0.37744 0.5697 0.51551 0.0
C1609 C 0.41303 0.5491 0.48137 0.0
C1610 C 0.39505 0.52529 0.48755 0.0
C1611 C 0.35861 0.51136 0.50914 0.0
C1612 C 0.34002 0.52077 0.52527 0.0
C1613 C 0.37709 0.53529 0.50423 0.0
C1614 C 0.34077 0.55479 0.53745 0.0
C1615 C 0.35922 0.57898 0.53255 0.0
H1616 H 0.34749 0.13786 0.50419 0.0
H1617 H 0.36719 0.09432 0.41257 0.0
H1618 H 0.404 0.12699 0.4218 0.0
H1619 H 0.43072 0.16925 0.45507 0.0
H1620 H 0.41126 0.21264 0.54672 0.0
H1621 H 0.37461 0.17891 0.5383 0.0
C1622 C 0.35984 0.13532 0.4863 0.0
C1623 C 0.3543 0.11346 0.45767 0.0
C1624 C 0.3812 0.15436 0.49171 0.0
C1625 C 0.37073 0.11076 0.43487 0.0
C1626 C 0.39191 0.12956 0.44008 0.0
C1627 C 0.41849 0.1712 0.47328 0.0
C1628 C 0.42382 0.19353 0.5015 0.0
C1629 C 0.39733 0.15162 0.46828 0.0
C1630 C 0.4077 0.1957 0.52479 0.0
C1631 C 0.38666 0.17639 0.51997 0.0
H1632 H 0.42278 0.17171 0.29597 0.0
H1633 H 0.41402 0.11194 0.20308 0.0
H1634 H 0.37869 0.13838 0.18433 0.0
H1635 H 0.35034 0.17916 0.19394 0.0
H1636 H 0.35918 0.23891 0.28686 0.0
H1637 H 0.3942 0.21185 0.30595 0.0
C1638 C 0.41313 0.16446 0.27163 0.0
C1639 C 0.4211 0.13991 0.25092 0.0
C1640 C 0.39275 0.17977 0.26101 0.0
C1641 C 0.40834 0.13081 0.21948 0.0
C1642 C 0.38809 0.14591 0.20875 0.0
C1643 C 0.35988 0.18611 0.21845 0.0
C1644 C 0.35207 0.211 0.23897 0.0
C1645 C 0.38013 0.17048 0.22925 0.0
C1646 C 0.36471 0.21976 0.27061 0.0
C1647 C 0.3848 0.20434 0.28152 0.0
H1648 H 0.38324 0.63229 0.28677 0.0
H1649 H 0.33832 0.57998 0.20646 0.0
H1650 H 0.36939 0.54826 0.19105 0.0
H1651 H 0.40918 0.53435 0.20092 0.0
H1652 H 0.45455 0.58692 0.28049 0.0
H1653 H 0.42365 0.61965 0.29545 0.0
C1654 C 0.38034 0.61415 0.26573 0.0
C1655 C 0.35849 0.60867 0.24769 0.0
C1656 C 0.3984 0.59602 0.25684 0.0
C1657 C 0.35499 0.58496 0.22056 0.0
C1658 C 0.37275 0.56669 0.21179 0.0
C1659 C 0.41235 0.55313 0.2214 0.0
C1660 C 0.43418 0.55821 0.2395 0.0
C1661 C 0.3945 0.57189 0.2298 0.0
C1662 C 0.43794 0.58255 0.26608 0.0
C1663 C 0.42025 0.60125 0.27468 0.0
H1664 H 0.68467 0.99941 0.01511 0.0
H1665 H 0.68035 0.97766 0.90689 0.0
H1666 H 0.64658 0.93757 0.91205 0.0
H1667 H 0.61741 0.90955 0.94796 0.0
H1668 H 0.62409 0.93231 0.05631 0.0
H1669 H 0.65762 0.97095 0.05027 0.0
C1670 C 0.67643 0.98614 0.99236 0.0
C1671 C 0.6851 0.9922 0.96044 0.0
C1672 C 0.65725 0.96311 -0.00437 0.0
C1673 C 0.67416 0.97387 0.93174 0.0
C1674 C 0.65477 0.95092 0.93474 0.0
C1675 C 0.62627 0.92293 0.9702 0.0
C1676 C 0.61795 0.91794 0.00263 0.0
C1677 C 0.646 0.94544 0.9666 0.0
C1678 C 0.62984 0.93549 0.03109 0.0
C1679 C 0.64911 0.95773 0.02767 0.0
H1680 H 0.61481 0.30766 0.95334 0.0
H1681 H 0.58423 0.33322 0.04307 0.0
H1682 H 0.61704 0.37362 0.0613 0.0
H1683 H 0.6556 0.40003 0.05293 0.0
H1684 H 0.68543 0.37319 0.96258 0.0
H1685 H 0.65199 0.33554 0.9437 0.0
C1686 C 0.61526 0.32218 0.97682 0.0
C1687 C 0.59707 0.31722 -0.00317 0.0
C1688 C 0.63421 0.34533 0.98719 0.0
C1689 C 0.598 0.33637 0.02718 0.0
C1690 C 0.6168 0.35953 0.03764 0.0
C1691 C 0.65466 0.38633 0.0289 0.0
C1692 C 0.67329 0.3897 0.00942 0.0
C1693 C 0.63517 0.36408 0.01801 0.0
C1694 C 0.67161 0.37134 0.97839 0.0
C1695 C 0.6524 0.34957 0.96744 0.0
H1696 H 0.69015 0.34003 0.27665 0.0
H1697 H 0.65361 0.23938 0.27694 0.0
H1698 H 0.61768 0.26562 0.26633 0.0
H1699 H 0.59645 0.31692 0.25452 0.0
H1700 H 0.63217 0.41818 0.25961 0.0
H1701 H 0.6684 0.3922 0.27072 0.0
C1702 C 0.67429 0.32395 0.27455 0.0
C1703 C 0.67459 0.28774 0.27691 0.0
C1704 C 0.65349 0.33935 0.26934 0.0
C1705 C 0.65391 0.26725 0.27472 0.0
C1706 C 0.63329 0.28224 0.26873 0.0
C1707 C 0.61216 0.33332 0.25836 0.0
C1708 C 0.61164 0.36941 0.25544 0.0
C1709 C 0.63287 0.31822 0.26561 0.0
C1710 C 0.6321 0.39031 0.26102 0.0
C1711 C 0.65286 0.37544 0.26748 0.0
H1712 H 0.64553 0.87941 0.18453 0.0
H1713 H 0.68796 0.90911 0.27771 0.0
H1714 H 0.65747 0.94002 0.29652 0.0
H1715 H 0.61879 0.95956 0.28627 0.0
H1716 H 0.57623 0.92981 0.19322 0.0
H1717 H 0.60651 0.89809 0.17475 0.0
C1718 C 0.64807 0.89253 0.20902 0.0
C1719 C 0.66907 0.89181 0.22969 0.0
C1720 C 0.63036 0.91033 0.21975 0.0
C1721 C 0.67201 0.90904 0.26133 0.0
C1722 C 0.65455 0.92682 0.2721 0.0
C1723 C 0.61609 0.94598 0.26203 0.0
C1724 C 0.59517 0.94706 0.24123 0.0
C1725 C 0.63366 0.92775 0.25152 0.0
C1726 C 0.59208 0.9294 0.20981 0.0
C1727 C 0.60944 0.91126 0.1992 0.0
H1728 H 0.42325 0.05413 0.01902 0.0
H1729 H 0.39015 0.14842 -0.00041 0.0
H1730 H 0.35443 0.11913 0.01412 0.0
H1731 H 0.33152 0.06503 0.02874 0.0
H1732 H 0.36498 0.97086 0.04634 0.0
H1733 H 0.40119 1.00153 0.03688 0.0
C1734 C 0.40829 0.06841 0.01826 0.0
C1735 C 0.40958 0.10359 0.0081 0.0
C1736 C 0.38764 0.05127 0.02662 0.0
C1737 C 0.38985 0.12143 0.00731 0.0
C1738 C 0.3693 0.10461 0.01564 0.0
C1739 C 0.34687 0.05153 0.03154 0.0
C1740 C 0.34546 0.01565 0.03901 0.0
C1741 C 0.36784 0.06935 0.02503 0.0
C1742 C 0.36552 0.99846 0.04126 0.0
C1743 C 0.38629 0.01598 0.03551 0.0
H1744 H 0.34874 0.64243 0.00422 0.0
H1745 H 0.37727 0.57758 0.93494 0.0
H1746 H 0.41358 0.61231 0.9446 0.0
H1747 H 0.4371 0.66286 0.97133 0.0
H1748 H 0.40754 0.72787 0.03921 0.0
H1749 H 0.37201 0.69156 0.03133 0.0
C1750 C 0.36293 0.63546 0.9915 0.0
C1751 C 0.3601 0.60704 0.96902 0.0
C1752 C 0.38369 0.65593 -0.0033 0.0
C1753 C 0.3788 0.59906 0.95252 0.0
C1754 C 0.39962 0.61906 0.95794 0.0
C1755 C 0.4229 0.66895 0.98447 0.0
C1756 C 0.42511 0.69816 0.0059 0.0
C1757 C 0.40224 0.64784 0.97971 0.0
C1758 C 0.40645 0.70564 0.02263 0.0
C1759 C 0.38605 0.68482 0.01816 0.0
H1760 H 0.40309 0.63437 0.78557 0.0
H1761 H 0.43132 0.66058 0.69093 0.0
H1762 H 0.39839 0.69228 0.67079 0.0
H1763 H 0.36181 0.71369 0.68043 0.0
H1764 H 0.33362 0.688 0.77521 0.0
H1765 H 0.36611 0.65503 0.79483 0.0
C1766 C 0.40199 0.64697 0.76051 0.0
C1767 C 0.41969 0.6451 0.73979 0.0
C1768 C 0.38297 0.66532 0.74911 0.0
C1769 C 0.41796 0.66151 0.70735 0.0
C1770 C 0.39912 0.67972 0.69584 0.0
C1771 C 0.36274 0.70077 0.70533 0.0
C1772 C 0.34529 0.70334 0.72631 0.0
C1773 C 0.38157 0.68196 0.71653 0.0
C1774 C 0.34681 0.68649 0.75855 0.0
C1775 C 0.36541 0.66763 0.7698 0.0
H1776 H 0.38557 0.13248 0.79045 0.0
H1777 H 0.3396 0.08807 0.70675 0.0
H1778 H 0.36951 0.05482 0.68968 0.0
H1779 H 0.4085 0.0369 0.69946 0.0
H1780 H 0.45469 0.08154 0.78279 0.0
H1781 H 0.42508 0.11607 0.79899 0.0
C1782 C 0.38218 0.11574 0.7683 0.0
C1783 C 0.36037 0.11287 0.74984 0.0
C1784 C 0.39952 0.09662 0.7586 0.0
C1785 C 0.35625 0.09099 0.72126 0.0
C1786 C 0.37334 0.07183 0.71155 0.0
C1787 C 0.41212 0.05437 0.72102 0.0
C1788 C 0.43379 0.05667 0.73984 0.0
C1789 C 0.395 0.07424 0.73015 0.0
C1790 C 0.43818 0.07934 0.76779 0.0
C1791 C 0.42123 0.09908 0.77711 0.0
H1792 H 0.04224 0.14898 0.85776 0.0
H1793 H 0.97828 0.09654 0.87846 0.0
H1794 H 0.97616 0.1361 0.92512 0.0
H1795 H 0.99028 0.18883 0.95571 0.0
H1796 H 0.05416 0.24162 0.93667 0.0
H1797 H 0.05861 0.19842 0.89336 0.0
C1798 C 0.02806 0.14577 0.8729 0.0
C1799 C 1.01024 0.12028 0.8642 0.0
C1800 C 0.02675 0.16893 0.89943 0.0
C1801 C 0.99212 0.11616 0.88436 0.0
C1802 C 0.9908 0.13888 0.91092 0.0
C1803 C 1.00512 0.19091 0.94192 0.0
C1804 C 0.02155 0.21865 0.94822 0.0
C1805 C 1.00759 0.166 0.91779 0.0
C1806 C 0.04118 0.22058 0.93149 0.0
C1807 C 0.0437 0.19594 0.90694 0.0
H1808 H 0.25029 0.0316 0.9557 0.0
H1809 H 0.29509 0.96539 0.9144 0.0
H1810 H 0.30011 0.00655 0.86729 0.0
H1811 H 0.29531 0.06437 0.84231 0.0
H1812 H 0.25006 0.13011 0.88282 0.0
H1813 H 0.24198 0.08631 0.92677 0.0
C1814 C 0.26075 0.02591 0.93591 0.0
C1815 C 0.27254 0.99596 0.93852 0.0
C1816 C 0.26403 0.04998 0.90969 0.0
C1817 C 0.28579 0.98834 0.91269 0.0
C1818 C 0.28895 0.01206 0.88612 0.0
C1819 C 0.28388 0.06904 0.8611 0.0
C1820 C 0.27387 0.10045 0.86067 0.0
C1821 C 0.27889 0.04352 0.88529 0.0
C1822 C 0.25831 0.10617 0.88373 0.0
C1823 C 0.25358 0.08115 0.90846 0.0
H1824 H 0.02826 0.11469 0.38138 0.0
H1825 H 0.95927 0.07562 0.39126 0.0
H1826 H 0.96068 0.03398 0.34629 0.0
H1827 H 0.98063 0.0096 0.30365 0.0
H1828 H 0.04819 0.05097 0.28791 0.0
H1829 H 0.04846 0.09014 0.33645 0.0
C1830 C 1.01357 0.0971 0.37351 0.0
C1831 C 0.99362 0.09852 0.38938 0.0
C1832 C 0.0143 0.07341 0.34697 0.0
C1833 C 0.9747 0.07554 0.37907 0.0
C1834 C 0.97553 0.05147 0.35355 0.0
C1835 C 0.99555 0.02701 0.31071 0.0
C1836 C 0.01434 0.02738 0.292 0.0
C1837 C 0.99515 0.05032 0.33728 0.0
C1838 C 0.03349 0.05012 0.30189 0.0
C1839 C 0.03358 0.07265 0.32948 0.0
H1840 H 0.27109 0.09594 0.31446 0.0
H1841 H 0.25986 0.15851 0.39993 0.0
H1842 H 0.25118 0.20646 0.36126 0.0
H1843 H 0.25289 0.23374 0.30463 0.0
H1844 H 0.26307 0.17209 0.21846 0.0
H1845 H 0.26583 0.12064 0.25564 0.0
C1846 C 0.26623 0.11979 0.3244 0.0
C1847 C 0.26687 0.12408 0.35998 0.0
C1848 C 0.26131 0.1476 0.30197 0.0
C1849 C 0.26019 0.15494 0.37261 0.0
C1850 C 0.25516 0.18244 0.35058 0.0
C1851 C 0.25504 0.20875 0.29404 0.0
C1852 C 0.25784 0.20626 0.25934 0.0
C1853 C 0.25665 0.17957 0.31546 0.0
C1854 C 0.26072 0.1741 0.24537 0.0
C1855 C 0.26246 0.14486 0.26659 0.0
H1856 H 0.98403 0.86753 0.11161 0.0
H1857 H 0.05686 0.8836 0.13331 0.0
H1858 H 0.06154 0.83827 0.09359 0.0
H1859 H 0.04532 0.79363 0.05403 0.0
H1860 H 0.97302 0.78104 0.02544 0.0
H1861 H 0.96765 0.82473 0.06753 0.0
C1862 C 1.00087 0.86132 0.10718 0.0
C1863 C 0.02002 0.87895 0.12523 0.0
C1864 C 1.00353 0.8355 0.08371 0.0
C1865 C 0.04181 0.87077 0.1194 0.0
C1866 C 0.04454 0.84458 0.09696 0.0
C1867 C 0.02835 0.80037 0.05672 0.0
C1868 C 1.00961 0.78414 0.03659 0.0
C1869 C 0.02555 0.82665 0.07926 0.0
C1870 C 0.98773 0.7932 0.04076 0.0
C1871 C 0.98468 0.81828 0.06461 0.0
H1872 H 0.7272 0.96608 0.02349 0.0
H1873 H 0.78516 0.02554 0.07465 0.0
H1874 H 0.79084 0.9787 0.11743 0.0
H1875 H 0.77908 0.92089 0.13927 0.0
H1876 H 0.72035 0.86269 0.08771 0.0
H1877 H 0.71537 0.90908 0.04524 0.0
C1878 C 0.74096 0.96878 0.04428 0.0
C1879 C 0.75571 0.99884 0.04646 0.0
C1880 C 0.74414 0.94191 0.06802 0.0
C1881 C 0.77347 0.00259 0.07317 0.0
C1882 C 0.77681 0.97575 0.09719 0.0
C1883 C 0.76548 0.91802 0.11834 0.0
C1884 C 0.75024 0.88823 0.11636 0.0
C1885 C 0.76235 0.94516 0.09458 0.0
C1886 C 0.73243 0.8852 0.08951 0.0
C1887 C 0.72945 0.91178 0.06544 0.0
H1888 H 0.99753 0.88774 0.60435 0.0
H1889 H 0.07024 0.90806 0.60941 0.0
H1890 H 0.06948 0.95176 0.65279 0.0
H1891 H 0.04839 0.98546 0.68739 0.0
H1892 H 0.97638 0.96211 0.68825 0.0
H1893 H 0.97649 0.91911 0.64315 0.0
C1894 C 1.01322 0.90146 0.61528 0.0
C1895 C 0.0339 0.8946 0.60363 0.0
C1896 C 1.01272 0.9265 0.64052 0.0
C1897 C 0.05411 0.91251 0.6181 0.0
C1898 C 0.05368 0.93781 0.64264 0.0
C1899 C 0.03264 0.97102 0.6779 0.0
C1900 C 1.01237 0.97708 0.69112 0.0
C1901 C 0.03308 0.94529 0.65363 0.0
C1902 C 0.99218 0.95804 0.67834 0.0
C1903 C 0.99229 0.93332 0.6528 0.0
H1904 H 0.77191 0.82699 0.74044 0.0
H1905 H 0.76376 0.74232 0.66942 0.0
H1906 H 0.76035 0.78306 0.62078 0.0
H1907 H 0.75576 0.84153 0.59937 0.0
H1908 H 0.75962 0.92619 0.67031 0.0
H1909 H 0.76887 0.88662 0.71846 0.0
C1910 C 0.7699 0.81773 0.7142 0.0
C1911 C 0.76832 0.78208 0.70804 0.0
C1912 C 0.7669 0.84114 0.68668 0.0
C1913 C 0.76515 0.76984 0.67432 0.0
C1914 C 0.76311 0.79304 0.64671 0.0
C1915 C 0.75876 0.85152 0.62531 0.0
C1916 C 0.75673 0.88668 0.63133 0.0
C1917 C 0.76332 0.8286 0.65269 0.0
C1918 C 0.76097 0.89919 0.66505 0.0
C1919 C 0.76621 0.87659 0.69255 0.0
H1920 H 0.03603 0.69809 0.46336 0.0
H1921 H 0.98087 0.75169 0.4111 0.0
H1922 H 0.97658 0.71031 0.36463 0.0
H1923 H 0.98676 0.65734 0.3404 0.0
H1924 H 0.04245 0.60385 0.38976 0.0
H1925 H 0.04823 0.64664 0.43624 0.0
C1926 C 0.0233 0.70099 0.44158 0.0
C1927 C 1.00864 0.7278 0.44096 0.0
C1928 C 0.02075 0.67683 0.41486 0.0
C1929 C 0.99226 0.73121 0.41246 0.0
C1930 C 0.9897 0.70747 0.38589 0.0
C1931 C 1.00004 0.65496 0.36153 0.0
C1932 C 1.01378 0.62727 0.36252 0.0
C1933 C 1.00348 0.67984 0.38725 0.0
C1934 C 0.03145 0.6248 0.38915 0.0
C1935 C 0.03477 0.64928 0.41546 0.0
H1936 H 0.28577 0.55517 0.33106 0.0
H1937 H 0.2498 0.62877 0.37981 0.0
H1938 H 0.24216 0.58636 0.42526 0.0
H1939 H 0.24923 0.53081 0.45341 0.0
H1940 H 0.28493 0.45697 0.40387 0.0
H1941 H 0.28809 0.49649 0.35513 0.0
C1942 C 0.27636 0.56177 0.35183 0.0
C1943 C 0.26904 0.59503 0.35333 0.0
C1944 C 0.27164 0.53717 0.37707 0.0
C1945 C 0.25603 0.60335 0.37911 0.0
C1946 C 0.25155 0.57914 0.40476 0.0
C1947 C 0.25736 0.52308 0.43168 0.0
C1948 C 0.26738 0.49147 0.43264 0.0
C1949 C 0.25973 0.54626 0.40434 0.0
C1950 C 0.27731 0.48137 0.40394 0.0
C1951 C 0.27938 0.5041 0.37625 0.0
H1952 H 0.98165 0.544 0.77887 0.0
H1953 H 0.05264 0.53116 0.80615 0.0
H1954 H 0.05352 0.57146 0.85417 0.0
H1955 H 0.03314 0.60773 0.88986 0.0
H1956 H 0.9622 0.62092 0.85947 0.0
H1957 H 0.96238 0.58329 0.81071 0.0
C1958 C 0.99733 0.54991 0.79537 0.0
C1959 C 0.01693 0.53413 0.7896 0.0
C1960 C 0.99771 0.57326 0.82217 0.0
C1961 C 0.0373 0.54281 0.81045 0.0
C1962 C 0.03776 0.56578 0.8378 0.0
C1963 C 0.01779 0.60272 0.87235 0.0
C1964 C 0.99762 0.61696 0.87869 0.0
C1965 C 0.01795 0.58086 0.84413 0.0
C1966 C 0.97794 0.61029 0.85552 0.0
C1967 C 0.97797 0.58862 0.82762 0.0
H1968 H 0.25664 0.60407 0.83198 0.0
H1969 H 0.31581 0.65928 0.88517 0.0
H1970 H 0.31125 0.70834 0.84596 0.0
H1971 H 0.29045 0.73588 0.7977 0.0
H1972 H 0.23134 0.68204 0.74276 0.0
H1973 H 0.23533 0.63262 0.78233 0.0
C1974 C 0.26862 0.62671 0.83447 0.0
C1975 C 0.28658 0.62818 0.8611 0.0
C1976 C 0.26561 0.65531 0.8122 0.0
C1977 C 0.30187 0.65773 0.86471 0.0
C1978 C 0.29922 0.68583 0.8425 0.0
C1979 C 0.27829 0.71348 0.7944 0.0
C1980 C 0.26069 0.71265 0.76726 0.0
C1981 C 0.28103 0.68504 0.81647 0.0
C1982 C 0.24501 0.68345 0.7636 0.0
C1983 C 0.24742 0.65503 0.78597 0.0
H1984 H 0.0488 0.29885 0.5469 0.0
H1985 H 0.97644 0.27402 0.5343 0.0
H1986 H 0.97207 0.31634 0.57824 0.0
H1987 H 0.98921 0.35994 0.62074 0.0
H1988 H 0.06152 0.38627 0.62949 0.0
H1989 H 0.06542 0.34408 0.58608 0.0
C1990 C 0.03206 0.30244 0.55392 0.0
C1991 C 1.01301 0.28303 0.53783 0.0
C1992 C 0.02965 0.32739 0.57817 0.0
C1993 C 0.99139 0.28854 0.54664 0.0
C1994 C 0.98888 0.31277 0.57161 0.0
C1995 C 1.00574 0.3567 0.61277 0.0
C1996 C 0.02499 0.37628 0.62831 0.0
C1997 C 1.00793 0.3324 0.58751 0.0
C1998 C 0.04634 0.37187 0.61773 0.0
C1999 C 0.04867 0.3475 0.5931 0.0
H2000 H 0.77958 0.41962 0.63904 0.0
H2001 H 0.7144 0.37187 0.59683 0.0
H2002 H 0.71003 0.41927 0.5555 0.0
H2003 H 0.72449 0.47385 0.53167 0.0
H2004 H 0.78958 0.5219 0.57207 0.0
H2005 H 0.7941 0.47488 0.61495 0.0
C2006 C 0.76455 0.4193 0.62052 0.0
C2007 C 0.74737 0.39217 0.62091 0.0
C2008 C 0.76196 0.44688 0.59724 0.0
C2009 C 0.72794 0.39229 0.5969 0.0
C2010 C 0.72532 0.41949 0.57348 0.0
C2011 C 0.7395 0.47415 0.55031 0.0
C2012 C 0.75659 0.50101 0.5495 0.0
C2013 C 0.7421 0.44694 0.57372 0.0
C2014 C 0.77612 0.50152 0.5731 0.0
C2015 C 0.77876 0.47454 0.5971 0.0
H2016 H 0.03899 0.49852 0.17258 0.0
H2017 H 0.97573 0.44722 0.19712 0.0
H2018 H 0.97585 0.40744 0.14916 0.0
H2019 H 0.99576 0.38477 0.1025 0.0
H2020 H 0.06079 0.43443 0.08386 0.0
H2021 H 0.05822 0.47706 0.12751 0.0
C2022 C 0.02503 0.47888 0.16749 0.0
C2023 C 1.00741 0.47588 0.18864 0.0
C2024 C 0.02574 0.45539 0.14112 0.0
C2025 C 0.98952 0.45021 0.18128 0.0
C2026 C 0.98967 0.4273 0.15399 0.0
C2027 C 1.00929 0.40496 0.10817 0.0
C2028 C 0.0286 0.40613 0.09042 0.0
C2029 C 1.00798 0.42918 0.13416 0.0
C2030 C 0.046 0.4325 0.09772 0.0
C2031 C 0.04448 0.45708 0.12249 0.0
H2032 H 0.75315 0.33568 0.09607 0.0
H2033 H 0.76174 0.42336 0.16384 0.0
H2034 H 0.77099 0.38529 0.21303 0.0
H2035 H 0.77285 0.3264 0.23747 0.0
H2036 H 0.76083 0.23881 0.17016 0.0
H2037 H 0.75724 0.2775 0.11992 0.0
C2038 C 0.75722 0.34657 0.12154 0.0
C2039 C 0.75649 0.38229 0.12626 0.0
C2040 C 0.76206 0.3245 0.14976 0.0
C2041 C 0.76199 0.39593 0.15946 0.0
C2042 C 0.76731 0.37418 0.18763 0.0
C2043 C 0.77009 0.31599 0.21167 0.0
C2044 C 0.76742 0.28005 0.20716 0.0
C2045 C 0.76694 0.33836 0.18317 0.0
C2046 C 0.76318 0.26651 0.17391 0.0
C2047 C 0.76094 0.28859 0.14533 0.0
H2048 H 0.54315 0.19837 0.46377 0.0
H2049 H 0.48982 0.25462 0.4099 0.0
H2050 H 0.48451 0.21222 0.36426 0.0
H2051 H 0.49269 0.15719 0.34208 0.0
H2052 H 0.54701 0.10149 0.39259 0.0
H2053 H 0.5541 0.14551 0.43788 0.0
C2054 C 0.53066 0.20168 0.44175 0.0
C2055 C 0.51666 0.22932 0.44051 0.0
C2056 C 0.52748 0.17693 0.41566 0.0
C2057 C 0.50066 0.23339 0.41167 0.0
C2058 C 0.49748 0.20906 0.38567 0.0
C2059 C 0.50594 0.1546 0.36325 0.0
C2060 C 0.51883 0.1259 0.36509 0.0
C2061 C 0.51029 0.18029 0.388 0.0
C2062 C 0.53656 0.12314 0.39156 0.0
C2063 C 0.54067 0.14835 0.4171 0.0
H2064 H 0.80112 0.02226 0.44422 0.0
H2065 H 0.7297 0.99257 0.42542 0.0
H2066 H 0.72516 0.03941 0.38239 0.0
H2067 H 0.74178 0.09027 0.35241 0.0
H2068 H 0.81312 0.12166 0.37623 0.0
H2069 H 0.81744 0.07301 0.41578 0.0
C2070 C 0.78472 0.02567 0.42998 0.0
C2071 C 0.76591 0.00381 0.43673 0.0
C2072 C 0.7822 0.05338 0.40702 0.0
C2073 C 0.74446 0.00876 0.41947 0.0
C2074 C 0.74188 0.03572 0.3954 0.0
C2075 C 0.7582 0.08663 0.36653 0.0
C2076 C 0.77704 0.10963 0.3614 0.0
C2077 C 0.76061 0.05856 0.38943 0.0
C2078 C 0.79824 0.10461 0.37989 0.0
C2079 C 0.80083 0.07659 0.40228 0.0
H2080 H 0.52936 0.11965 0.88276 0.0
H2081 H 0.46069 0.07962 0.89398 0.0
H2082 H 0.46301 0.03532 0.85209 0.0
H2083 H 0.48396 0.00765 0.81273 0.0
H2084 H 0.55129 0.04911 0.79584 0.0
H2085 H 0.55029 0.09243 0.84037 0.0
C2086 C 0.51486 0.1014 0.8758 0.0
C2087 C 0.49485 0.10325 0.8915 0.0
C2088 C 0.51617 0.07584 0.85119 0.0
C2089 C 0.47623 0.07929 0.88216 0.0
C2090 C 0.47758 0.05362 0.85838 0.0
C2091 C 0.49858 0.02595 0.81873 0.0
C2092 C 0.5177 0.02501 0.80088 0.0
C2093 C 0.49745 0.05157 0.84292 0.0
C2094 C 0.53637 0.04911 0.80925 0.0
C2095 C 0.53572 0.07405 0.83451 0.0
H2096 H 0.78935 0.24286 0.80642 0.0
H2097 H 0.73813 0.18199 0.74155 0.0
H2098 H 0.74087 0.13364 0.78245 0.0
H2099 H 0.75941 0.10763 0.83561 0.0
H2100 H 0.80945 0.1701 0.90083 0.0
H2101 H 0.80588 0.21864 0.86057 0.0
C2102 C 0.77861 0.21915 0.80138 0.0
C2103 C 0.76369 0.21596 0.77096 0.0
C2104 C 0.78034 0.19152 0.82481 0.0
C2105 C 0.74972 0.18518 0.76491 0.0
C2106 C 0.75142 0.15739 0.78812 0.0
C2107 C 0.76955 0.13186 0.84072 0.0
C2108 C 0.78481 0.13535 0.87076 0.0
C2109 C 0.76699 0.16004 0.81786 0.0
C2110 C 0.79761 0.16695 0.87771 0.0
C2111 C 0.79556 0.1947 0.8548 0.0
H2112 H 0.49154 0.87465 0.61194 0.0
H2113 H 0.52425 0.80173 0.68189 0.0
H2114 H 0.52249 0.7601 0.63617 0.0
H2115 H 0.51711 0.74772 0.57507 0.0
H2116 H 0.48491 0.81929 0.50347 0.0
H2117 H 0.48089 0.85799 0.5508 0.0
C2118 C 0.49776 0.84935 0.61715 0.0
C2119 C 0.50837 0.84149 0.64998 0.0
C2120 C 0.49718 0.82552 0.59034 0.0
C2121 C 0.51632 0.80857 0.65662 0.0
C2122 C 0.5154 0.78472 0.6305 0.0
C2123 C 0.50889 0.77156 0.56997 0.0
C2124 C 0.50167 0.78107 0.53609 0.0
C2125 C 0.50677 0.79349 0.59705 0.0
C2126 C 0.49067 0.81162 0.52957 0.0
C2127 C 0.48848 0.83379 0.55656 0.0
H2128 H 0.22522 0.96646 0.52254 0.0
H2129 H 0.28875 0.01732 0.56598 0.0
H2130 H 0.29354 0.97017 0.60862 0.0
H2131 H 0.27928 0.91488 0.6327 0.0
H2132 H 0.21515 0.86503 0.58882 0.0
H2133 H 0.21111 0.91143 0.54621 0.0
C2134 C 0.23997 0.96723 0.5417 0.0
C2135 C 0.25651 0.99498 0.54192 0.0
C2136 C 0.24262 0.94017 0.56531 0.0
C2137 C 0.27569 0.9962 0.56623 0.0
C2138 C 0.27849 0.9692 0.59013 0.0
C2139 C 0.26459 0.91382 0.61348 0.0
C2140 C 0.24757 0.8865 0.61381 0.0
C2141 C 0.2621 0.94096 0.58967 0.0
C2142 C 0.22855 0.88568 0.58895 0.0
C2143 C 0.22612 0.91229 0.5648 0.0
H2144 H 0.54372 0.94543 0.08428 0.0
H2145 H 0.50458 0.85593 0.11887 0.0
H2146 H 0.4931 0.88942 0.16538 0.0
H2147 H 0.49508 0.94394 0.19686 0.0
H2148 H 0.53329 0.03396 0.16086 0.0
H2149 H 0.54361 1.00093 0.11342 0.0
C2150 C 0.533 0.9333 0.10245 0.0
C2151 C 0.52548 0.89826 0.09912 0.0
C2152 C 0.52585 0.953 0.1282 0.0
C2153 C 0.51089 0.88283 0.12173 0.0
C2154 C 0.50417 0.90201 0.14799 0.0
C2155 C 0.50515 0.95652 0.17811 0.0
C2156 C 0.51336 0.99131 0.18223 0.0
C2157 C 0.51148 0.93716 0.1514 0.0
C2158 C 0.52672 0.00717 0.15805 0.0
C2159 C 0.53284 0.98824 0.1312 0.0
H2160 H 0.24733 0.82075 0.23758 0.0
H2161 H 0.28169 0.75633 0.17569 0.0
H2162 H 0.28133 0.80103 0.13023 0.0
H2163 H 0.26781 0.85569 0.10655 0.0
H2164 H 0.23314 0.91986 0.16865 0.0
H2165 H 0.23716 0.87802 0.21611 0.0
C2166 C 0.25499 0.81691 0.21424 0.0
C2167 C 0.26439 0.78567 0.20938 0.0
C2168 C 0.2545 0.84241 0.18849 0.0
C2169 C 0.27438 0.78042 0.17949 0.0
C2170 C 0.27408 0.80582 0.15366 0.0
C2171 C 0.26139 0.86065 0.13066 0.0
C2172 C 0.24998 0.89047 0.13412 0.0
C2173 C 0.26367 0.8365 0.1576 0.0
C2174 C 0.242 0.89704 0.16551 0.0
C2175 C 0.24419 0.87309 0.19252 0.0
H2176 H 0.48046 0.64843 0.85463 0.0
H2177 H 0.5491 0.61989 0.87646 0.0
H2178 H 0.55629 0.66248 0.92284 0.0
H2179 H 0.543 0.70947 0.95532 0.0
H2180 H 0.47519 0.74071 0.92736 0.0
H2181 H 0.46789 0.69576 0.88466 0.0
C2182 C 0.49684 0.65095 0.87008 0.0
C2183 C 0.51407 0.63064 0.86299 0.0
C2184 C 0.50113 0.6765 0.89499 0.0
C2185 C 0.5355 0.63498 0.88215 0.0
C2186 C 0.53964 0.65948 0.9083 0.0
C2187 C 0.52672 0.70655 0.93967 0.0
C2188 C 0.50969 0.72833 0.9447 0.0
C2189 C 0.52263 0.68079 0.91457 0.0
C2190 C 0.48869 0.72441 0.92408 0.0
C2191 C 0.48437 0.69851 0.89976 0.0
H2192 H 0.79777 0.54296 0.96552 0.0
H2193 H 0.75149 0.47242 0.90298 0.0
H2194 H 0.74761 0.51679 0.85726 0.0
H2195 H 0.75768 0.57549 0.8359 0.0
H2196 H 0.80591 0.64411 0.89792 0.0
H2197 H 0.80857 0.60045 0.94384 0.0
C2198 C 0.78679 0.5374 0.94183 0.0
C2199 C 0.77473 0.50494 0.93735 0.0
C2200 C 0.78487 0.56265 0.91609 0.0
C2201 C 0.76092 0.49739 0.90658 0.0
C2202 C 0.75862 0.52275 0.88075 0.0
C2203 C 0.76842 0.58109 0.85977 0.0
C2204 C 0.78126 0.6131 0.86403 0.0
C2205 C 0.77042 0.55552 0.88542 0.0
C2206 C 0.79568 0.61976 0.89447 0.0
C2207 C 0.79729 0.59482 0.92052 0.0
H2208 H 0.48984 0.51217 0.3109 0.0
H2209 H 0.5552 0.55851 0.2896 0.0
H2210 H 0.55435 0.60087 0.33517 0.0
H2211 H 0.53376 0.62601 0.37952 0.0
H2212 H 0.46648 0.58206 0.39364 0.0
H2213 H 0.46915 0.53779 0.35163 0.0
C2214 C 0.50406 0.53136 0.31611 0.0
C2215 C 0.52258 0.53215 0.29682 0.0
C2216 C 0.50287 0.55643 0.34067 0.0
C2217 C 0.54076 0.5573 0.30417 0.0
C2218 C 0.5402 0.58161 0.33002 0.0
C2219 C 0.51971 0.60683 0.37304 0.0
C2220 C 0.49986 0.60743 0.38923 0.0
C2221 C 0.52113 0.58175 0.34808 0.0
C2222 C 0.48172 0.58249 0.38093 0.0
C2223 C 0.48332 0.55697 0.35721 0.0
H2224 H 0.75428 0.67706 0.24418 0.0
H2225 H 0.76052 0.76262 0.31399 0.0
H2226 H 0.76339 0.72258 0.36318 0.0
H2227 H 0.7683 0.66467 0.38558 0.0
H2228 H 0.76626 0.57901 0.3162 0.0
H2229 H 0.75741 0.61777 0.2672 0.0
C2230 C 0.75565 0.68665 0.27024 0.0
C2231 C 0.75687 0.72239 0.27591 0.0
C2232 C 0.75842 0.66365 0.29818 0.0
C2233 C 0.75932 0.73504 0.30946 0.0
C2234 C 0.7611 0.71224 0.3374 0.0
C2235 C 0.76576 0.65422 0.35981 0.0
C2236 C 0.76821 0.61903 0.35453 0.0
C2237 C 0.76135 0.67666 0.33198 0.0
C2238 C 0.76465 0.60605 0.32094 0.0
C2239 C 0.7596 0.62818 0.29296 0.0
H2240 H 0.53942 0.33681 0.15377 0.0
H2241 H 0.48385 0.39438 0.11071 0.0
H2242 H 0.47586 0.35365 0.06259 0.0
H2243 H 0.48695 0.30411 0.03128 0.0
H2244 H 0.54213 0.24648 0.07708 0.0
H2245 H 0.54768 0.28449 0.12638 0.0
C2246 C 0.52563 0.34049 0.13368 0.0
C2247 C 0.51266 0.36888 0.13476 0.0
C2248 C 0.52099 0.31687 0.10699 0.0
C2249 C 0.49427 0.37291 0.10965 0.0
C2250 C 0.48971 0.34964 0.08239 0.0
C2251 C 0.49992 0.29955 0.05231 0.0
C2252 C 0.51439 0.27293 0.05022 0.0
C2253 C 0.50323 0.32181 0.08055 0.0
C2254 C 0.53099 0.2671 0.07782 0.0
C2255 C 0.53426 0.28888 0.10597 0.0
H2256 H 0.27799 0.47485 0.03004 0.0
H2257 H 0.24166 0.54746 0.07995 0.0
H2258 H 0.24042 0.50876 0.12982 0.0
H2259 H 0.24529 0.45123 0.15548 0.0
H2260 H 0.28185 0.3789 0.10579 0.0
H2261 H 0.28721 0.4206 0.05912 0.0
C2262 C 0.27008 0.4824 0.05205 0.0
C2263 C 0.25954 0.51351 0.05113 0.0
C2264 C 0.26906 0.45987 0.08019 0.0
C2265 C 0.24979 0.52348 0.08003 0.0
C2266 C 0.24887 0.50126 0.10838 0.0
C2267 C 0.25445 0.44474 0.13438 0.0
C2268 C 0.26265 0.41197 0.13327 0.0
C2269 C 0.25766 0.46886 0.10806 0.0
C2270 C 0.27514 0.40396 0.10667 0.0
C2271 C 0.27822 0.42772 0.08012 0.0
H2272 H 0.54149 0.43726 0.58915 0.0
H2273 H 0.5013 0.35126 0.62818 0.0
H2274 H 0.49133 0.38773 0.67386 0.0
H2275 H 0.49552 0.44388 0.70369 0.0
H2276 H 0.53397 0.5303 0.66124 0.0
H2277 H 0.54252 0.49418 0.61508 0.0
C2278 C 0.53074 0.42652 0.60793 0.0
C2279 C 0.52265 0.39161 0.60624 0.0
C2280 C 0.52443 0.44787 0.63298 0.0
C2281 C 0.50805 0.37803 0.62971 0.0
C2282 C 0.50225 0.39891 0.65554 0.0
C2283 C 0.50532 0.45496 0.68391 0.0
C2284 C 0.51428 0.48964 0.68611 0.0
C2285 C 0.5104 0.4339 0.65748 0.0
C2286 C 0.527 0.50361 0.66027 0.0
C2287 C 0.53208 0.48293 0.63401 0.0
H2288 H 0.27784 0.26833 0.68393 0.0
H2289 H 0.25847 0.32751 0.76599 0.0
H2290 H 0.25459 0.37801 0.72779 0.0
H2291 H 0.25209 0.40241 0.66892 0.0
H2292 H 0.27204 0.34257 0.58734 0.0
H2293 H 0.28096 0.29572 0.6275 0.0
C2294 C 0.27326 0.2926 0.69339 0.0
C2295 C 0.26821 0.29459 0.72714 0.0
C2296 C 0.27112 0.32132 0.67138 0.0
C2297 C 0.26231 0.32582 0.73972 0.0
C2298 C 0.26007 0.35455 0.71796 0.0
C2299 C 0.2589 0.37946 0.66023 0.0
C2300 C 0.26088 0.37553 0.62523 0.0
C2301 C 0.26376 0.35227 0.68341 0.0
C2302 C 0.26988 0.34579 0.61417 0.0
C2303 C 0.27498 0.31893 0.63704 0.0
H2304 H 0.15883 0.30851 0.17933 0.0
H2305 H 0.1898 0.24318 0.11362 0.0
H2306 H 0.15446 0.23688 0.07464 0.0
H2307 H 0.11696 0.25879 0.05449 0.0
H2308 H 0.0881 0.32719 0.11984 0.0
H2309 H 0.12025 0.32339 0.16377 0.0
C2310 C 0.15768 0.29223 0.15688 0.0
C2311 C 0.17689 0.27681 0.14899 0.0
C2312 C 0.13772 0.28972 0.13425 0.0
C2313 C 0.17515 0.25535 0.12016 0.0
C2314 C 0.15503 0.25205 0.09769 0.0
C2315 C 0.11758 0.27198 0.07877 0.0
C2316 C 0.10051 0.29353 0.08402 0.0
C2317 C 0.13653 0.2704 0.10369 0.0
C2318 C 0.10131 0.31076 0.11535 0.0
C2319 C 0.11965 0.30863 0.14042 0.0
H2320 H 0.11927 0.95962 0.21576 0.0
H2321 H 0.08296 0.02497 0.14228 0.0
H2322 H 0.11603 0.03285 0.11006 0.0
H2323 H 0.15356 0.01432 0.09874 0.0
H2324 H 0.18911 0.94843 0.17302 0.0
H2325 H 0.15825 0.94765 0.20883 0.0
C2326 C 0.11888 0.97652 0.1933 0.0
C2327 C 0.09874 0.99183 0.18154 0.0
C2328 C 0.13771 0.98014 0.17455 0.0
C2329 C 0.09839 0.01344 0.15226 0.0
C2330 C 0.11719 0.01743 0.1335 0.0
C2331 C 0.15462 1.00016 0.12296 0.0
C2332 C 0.17354 0.98105 0.13289 0.0
C2333 C 0.13666 0.99982 0.14369 0.0
C2334 C 0.17473 0.9631 0.16453 0.0
C2335 C 0.15705 0.96263 0.1851 0.0
H2336 H 0.93501 0.75185 0.88118 0.0
H2337 H 0.90485 0.70583 0.96796 0.0
H2338 H 0.86703 0.71059 0.93763 0.0
H2339 H 0.84338 0.71678 0.8828 0.0
H2340 H 0.87327 0.75722 0.79386 0.0
H2341 H 0.91037 0.76616 0.82845 0.0
C2342 C 0.92011 0.74413 0.89386 0.0
C2343 C 0.92262 0.72846 0.9267 0.0
C2344 C 0.89843 0.74535 0.87553 0.0
C2345 C 0.90325 0.71795 0.9427 0.0
C2346 C 0.88166 0.72041 0.92526 0.0
C2347 C 0.85794 0.72866 0.87142 0.0
C2348 C 0.85584 0.73658 0.83615 0.0
C2349 C 0.87914 0.73241 0.89112 0.0
C2350 C 0.87464 0.7514 0.82117 0.0
C2351 C 0.89582 0.75618 0.84088 0.0
H2352 H 0.94266 0.02924 0.86159 0.0
H2353 H 0.9105 0.00212 0.76063 0.0
H2354 H 0.87327 0.99651 0.78251 0.0
H2355 H 0.84954 0.00676 0.82943 0.0
H2356 H 0.88293 0.03456 0.92996 0.0
H2357 H 0.91979 0.03261 0.90932 0.0
C2358 C 0.92756 0.02077 0.84469 0.0
C2359 C 0.92937 0.01533 0.80972 0.0
C2360 C 0.90631 0.01861 0.8573 0.0
C2361 C 0.90963 0.00545 0.78783 0.0
C2362 C 0.8883 0.00286 0.80028 0.0
C2363 C 0.8649 0.0119 0.84686 0.0
C2364 C 0.86337 0.02102 0.88123 0.0
C2365 C 0.88634 0.01054 0.83477 0.0
C2366 C 0.88349 0.02745 0.90348 0.0
C2367 C 0.90467 0.02638 0.89168 0.0
H2368 H 0.18306 0.77575 0.59662 0.0
H2369 H 0.15366 0.75675 0.69123 0.0
H2370 H 0.11571 0.74881 0.6592 0.0
H2371 H 0.09077 0.75746 0.60526 0.0
H2372 H 0.12045 0.78401 0.51207 0.0
H2373 H 0.15835 0.77786 0.54194 0.0
C2374 C 0.16835 0.76858 0.60996 0.0
C2375 C 0.17101 0.76608 0.64602 0.0
C2376 C 0.14662 0.76567 0.59146 0.0
C2377 C 0.15193 0.75798 0.66339 0.0
C2378 C 0.13026 0.7538 0.64507 0.0
C2379 C 0.10552 0.76045 0.59129 0.0
C2380 C 0.1029 0.77056 0.55641 0.0
C2381 C 0.12733 0.75888 0.60921 0.0
C2382 C 0.12212 0.77565 0.53875 0.0
C2383 C 0.14377 0.77252 0.55595 0.0
H2384 H 0.1596 0.50634 0.60623 0.0
H2385 H 0.19085 0.43276 0.67696 0.0
H2386 H 0.16008 0.4343 0.71275 0.0
H2387 H 0.12243 0.45125 0.72065 0.0
H2388 H 0.08957 0.52253 0.64946 0.0
H2389 H 0.1231 0.52838 0.61803 0.0
C2390 C 0.15978 0.491 0.62971 0.0
C2391 C 0.17746 0.46914 0.63866 0.0
C2392 C 0.14181 0.49188 0.6503 0.0
C2393 C 0.17747 0.44959 0.66928 0.0
C2394 C 0.15986 0.4505 0.68984 0.0
C2395 C 0.12284 0.46889 0.69883 0.0
C2396 C 0.10349 0.48649 0.68751 0.0
C2397 C 0.14173 0.47092 0.68021 0.0
C2398 C 0.10431 0.50915 0.65913 0.0
C2399 C 0.12336 0.51197 0.64079 0.0
H2400 H 0.86925 0.25481 0.32319 0.0
H2401 H 0.82687 0.19744 0.3901 0.0
H2402 H 0.85864 0.19609 0.4351 0.0
H2403 H 0.89979 0.20107 0.45062 0.0
H2404 H 0.94261 0.25952 0.38509 0.0
H2405 H 0.90953 0.27118 0.34479 0.0
C2406 C 0.86685 0.24346 0.34818 0.0
C2407 C 0.84589 0.22614 0.35342 0.0
C2408 C 0.8854 0.24231 0.37396 0.0
C2409 C 0.84294 0.211 0.38568 0.0
C2410 C 0.86113 0.2099 0.41131 0.0
C2411 C 0.90175 0.21727 0.42806 0.0
C2412 C 0.92354 0.22903 0.42059 0.0
C2413 C 0.88268 0.22388 0.40504 0.0
C2414 C 0.92594 0.2502 0.39141 0.0
C2415 C 0.90703 0.25665 0.36817 0.0
H2416 H 0.93971 0.51817 0.36471 0.0
H2417 H 0.90909 0.50089 0.26092 0.0
H2418 H 0.87123 0.49732 0.28047 0.0
H2419 H 0.84674 0.50674 0.32657 0.0
H2420 H 0.87835 0.52468 0.43015 0.0
H2421 H 0.91561 0.52044 0.4114 0.0
C2422 C 0.92475 0.51212 0.34662 0.0
C2423 C 0.92727 0.50875 0.31153 0.0
C2424 C 0.90308 0.51119 0.35799 0.0
C2425 C 0.90769 0.50235 0.28818 0.0
C2426 C 0.886 0.50097 0.29934 0.0
C2427 C 0.86177 0.50923 0.34508 0.0
C2428 C 0.85961 0.51636 0.37977 0.0
C2429 C 0.88343 0.50655 0.33407 0.0
C2430 C 0.87935 0.51932 0.40335 0.0
C2431 C 0.90077 0.51689 0.39263 0.0
H2432 H 0.59553 0.24925 0.60314 0.0
H2433 H 0.62305 0.30426 0.51864 0.0
H2434 H 0.66146 0.30043 0.54713 0.0
H2435 H 0.68618 0.29165 0.60037 0.0
H2436 H 0.65898 0.24182 0.68756 0.0
H2437 H 0.62151 0.23291 0.65394 0.0
C2438 C 0.61003 0.25914 0.59049 0.0
C2439 C 0.60659 0.2769 0.55883 0.0
C2440 C 0.63205 0.25832 0.60789 0.0
C2441 C 0.6254 0.29037 0.54293 0.0
C2442 C 0.64732 0.28844 0.55934 0.0
C2443 C 0.67215 0.27779 0.61151 0.0
C2444 C 0.67513 0.26714 0.64608 0.0
C2445 C 0.65072 0.27399 0.59246 0.0
C2446 C 0.65697 0.24975 0.66076 0.0
C2447 C 0.63557 0.245 0.64162 0.0
H2448 H 0.61624 0.92827 0.71363 0.0
H2449 H 0.58886 0.01883 0.66499 0.0
H2450 H 0.62281 0.02969 0.63503 0.0
H2451 H 0.6588 0.00982 0.61855 0.0
H2452 H 0.68537 0.91902 0.66839 0.0
H2453 H 0.65326 0.9119 0.70192 0.0
C2454 C 0.6178 0.95073 0.69691 0.0
C2455 C 0.59993 0.97259 0.69148 0.0
C2456 C 0.63717 0.95651 0.67962 0.0
C2457 C 0.60239 1.00173 0.66988 0.0
C2458 C 0.62173 0.00773 0.65248 0.0
C2459 C 0.65766 0.98875 0.63705 0.0
C2460 C 0.67442 0.96479 0.64069 0.0
C2461 C 0.639 0.98477 0.65648 0.0
C2462 C 0.67272 0.93773 0.66491 0.0
C2463 C 0.65433 0.93359 0.68412 0.0
H2464 H 0.41122 0.74787 0.42202 0.0
H2465 H 0.44113 0.67872 0.35871 0.0
H2466 H 0.40995 0.68322 0.31322 0.0
H2467 H 0.37159 0.69853 0.29572 0.0
H2468 H 0.33916 0.76337 0.35988 0.0
H2469 H 0.37398 0.76999 0.40008 0.0
C2470 C 0.411 0.7345 0.39792 0.0
C2471 C 0.42815 0.71266 0.39368 0.0
C2472 C 0.39252 0.73634 0.37211 0.0
C2473 C 0.42786 0.69531 0.36252 0.0
C2474 C 0.41008 0.69787 0.33652 0.0
C2475 C 0.37236 0.71487 0.31805 0.0
C2476 C 0.35284 0.73004 0.32514 0.0
C2477 C 0.39191 0.71712 0.34163 0.0
C2478 C 0.35405 0.75153 0.35385 0.0
C2479 C 0.37386 0.75488 0.37709 0.0
H2480 H 0.43978 0.02047 0.35855 0.0
H2481 H 0.41121 0.01288 0.25269 0.0
H2482 H 0.37278 0.00816 0.27039 0.0
H2483 H 0.34735 0.01313 0.31634 0.0
H2484 H 0.37715 0.02018 0.42206 0.0
H2485 H 0.4148 0.01818 0.40422 0.0
C2486 C 0.42511 0.01654 0.33945 0.0
C2487 C 0.42832 0.01635 0.30442 0.0
C2488 C 0.4032 0.0145 0.34986 0.0
C2489 C 0.4092 0.01214 0.27984 0.0
C2490 C 0.38722 0.01001 0.29 0.0
C2491 C 0.36208 0.01373 0.33543 0.0
C2492 C 0.35933 0.01707 0.37055 0.0
C2493 C 0.38398 0.01225 0.32495 0.0
C2494 C 0.37865 0.01763 0.39493 0.0
C2495 C 0.40028 0.01654 0.38474 0.0
H2496 H 0.68658 0.7969 0.09562 0.0
H2497 H 0.6585 0.74568 0.18145 0.0
H2498 H 0.62133 0.73711 0.14694 0.0
H2499 H 0.59586 0.75396 0.0958 0.0
H2500 H 0.62434 0.80952 0.01236 0.0
H2501 H 0.66249 0.8057 0.04181 0.0
C2502 C 0.67242 0.7829 0.1063 0.0
C2503 C 0.67503 0.77188 0.14076 0.0
C2504 C 0.65121 0.77903 0.08668 0.0
C2505 C 0.65676 0.75402 0.15476 0.0
C2506 C 0.63553 0.74943 0.13511 0.0
C2507 C 0.61052 0.76397 0.08357 0.0
C2508 C 0.60741 0.78197 0.05198 0.0
C2509 C 0.63236 0.7631 0.10148 0.0
C2510 C 0.62643 0.79551 0.03661 0.0
C2511 C 0.64819 0.7936 0.05358 0.0
H2512 H 0.65758 0.50987 0.09873 0.0
H2513 H 0.69005 0.43781 0.16995 0.0
H2514 H 0.65895 0.4375 0.20517 0.0
H2515 H 0.62097 0.45266 0.21262 0.0
H2516 H 0.58708 0.52329 0.14221 0.0
H2517 H 0.62046 0.53022 0.11034 0.0
C2518 C 0.65792 0.49447 0.12218 0.0
C2519 C 0.67605 0.47357 0.13146 0.0
C2520 C 0.63979 0.49436 0.14255 0.0
C2521 C 0.67631 0.45392 0.16204 0.0
C2522 C 0.65852 0.45375 0.18227 0.0
C2523 C 0.62113 0.4703 0.19088 0.0
C2524 C 0.60165 0.48747 0.1799 0.0
C2525 C 0.64 0.47324 0.17239 0.0
C2526 C 0.602 0.51019 0.15152 0.0
C2527 C 0.62098 0.51369 0.13302 0.0
H2528 H 0.43413 0.24428 0.88563 0.0
H2529 H 0.40242 0.21054 0.97529 0.0
H2530 H 0.36489 0.21508 0.94344 0.0
H2531 H 0.34161 0.21853 0.88772 0.0
H2532 H 0.37341 0.24376 0.79617 0.0
H2533 H 0.41045 0.25312 0.83073 0.0
C2534 C 0.41894 0.23922 0.89837 0.0
C2535 C 0.4208 0.22759 0.93272 0.0
C2536 C 0.39752 0.23983 0.87926 0.0
C2537 C 0.40119 0.21995 0.94894 0.0
C2538 C 0.37981 0.22225 0.93065 0.0
C2539 C 0.35663 0.22715 0.87565 0.0
C2540 C 0.35504 0.231 0.83979 0.0
C2541 C 0.37781 0.23069 0.89547 0.0
C2542 C 0.37443 0.24124 0.8239 0.0
C2543 C 0.39554 0.2463 0.84363 0.0
H2544 H 0.37214 0.48795 0.88139 0.0
H2545 H 0.33941 0.56114 0.81184 0.0
H2546 H 0.37102 0.56381 0.7774 0.0
H2547 H 0.40959 0.55054 0.77028 0.0
H2548 H 0.44357 0.47849 0.83919 0.0
H2549 H 0.4097 0.46912 0.86972 0.0
C2550 C 0.37181 0.50404 0.8584 0.0
C2551 C 0.35339 0.52456 0.84947 0.0
C2552 C 0.39023 0.50541 0.83835 0.0
C2553 C 0.35327 0.54517 0.81949 0.0
C2554 C 0.37139 0.54671 0.79968 0.0
C2555 C 0.40933 0.53187 0.7913 0.0
C2556 C 0.42905 0.51502 0.80224 0.0
C2557 C 0.39013 0.52755 0.80924 0.0
C2558 C 0.42852 0.49126 0.82977 0.0
C2559 C 0.40925 0.48641 0.84761 0.0
H2560 H 0.05202 0.46563 -0.00137 0.0
H2561 H 0.98977 0.4271 0.93887 0.0
H2562 H 0.97488 0.48371 0.94181 0.0
H2563 H 0.97865 0.54229 0.96467 0.0
H2564 H 0.0404 0.5794 0.02661 0.0
H2565 H 0.05594 0.52387 0.02089 0.0
C2566 C 0.0353 0.46954 0.98568 0.0
C2567 C 0.022 0.44202 0.96859 0.0
C2568 C 0.02646 0.50135 0.98896 0.0
C2569 C 1.00042 0.44784 0.95203 0.0
C2570 C 0.99177 0.48002 0.95415 0.0
C2571 C 0.99543 0.53822 0.97731 0.0
C2572 C 1.0083 0.56498 -0.00376 0.0
C2573 C 1.00442 0.50657 0.97337 0.0
C2574 C 0.03004 0.55919 0.01221 0.0
C2575 C 0.03905 0.52762 0.00858 0.0
H2576 H 0.23715 0.69958 0.98538 0.0
H2577 H 0.30935 0.69012 -0.00085 0.0
H2578 H 0.31632 0.75252 0.00647 0.0
H2579 H 0.30188 0.81037 0.00895 0.0
H2580 H 0.22949 0.81861 -0.0056 0.0
H2581 H 0.22287 0.75657 0.9872 0.0
C2582 C 0.25442 0.71105 0.99023 0.0
C2583 C 0.27262 0.69 0.99181 0.0
C2584 C 0.25839 0.74703 -0.00593 0.0
C2585 C 0.29492 0.70558 -0.00223 0.0
C2586 C 0.29898 0.74137 0.00191 0.0
C2587 C 0.2847 0.79859 0.00397 0.0
C2588 C 0.26629 0.81932 0.00243 0.0
C2589 C 0.28084 0.76245 -4e-05 0.0
C2590 C 0.24408 0.80346 -0.00393 0.0
C2591 C 0.24019 0.76784 0.99192 0.0
H2592 H 0.9796 0.70126 0.26639 0.0
H2593 H 0.03855 0.67991 0.21802 0.0
H2594 H 0.04834 0.74189 0.21177 0.0
H2595 H 0.04054 0.80161 0.22059 0.0
H2596 H 0.98141 0.82342 0.2682 0.0
H2597 H 0.97159 0.76132 0.27479 0.0
C2598 C 0.99452 0.71001 0.2542 0.0
C2599 C 1.00826 0.68574 0.24253 0.0
C2600 C 1.0002 0.74568 0.25102 0.0
C2601 C 0.02754 0.69783 0.22696 0.0
C2602 C 0.03325 0.73331 0.2236 0.0
C2603 C 0.02556 0.79299 0.23271 0.0
C2604 C 1.01181 0.81737 0.2441 0.0
C2605 C 0.0198 0.75739 0.23578 0.0
C2606 C 0.99239 0.80538 0.25941 0.0
C2607 C 0.9867 0.76986 0.26299 0.0
H2608 H 0.24761 0.55028 0.27883 0.0
H2609 H 0.28446 0.56319 0.19051 0.0
H2610 H 0.28664 0.50048 0.18809 0.0
H2611 H 0.27995 0.44265 0.21322 0.0
H2612 H 0.24219 0.4289 0.30061 0.0
H2613 H 0.23944 0.49164 0.30267 0.0
C2614 C 0.25537 0.53908 0.25837 0.0
C2615 C 0.26514 0.56094 0.23406 0.0
C2616 C 0.2574 0.50324 0.25818 0.0
C2617 C 0.27609 0.54658 0.20857 0.0
C2618 C 0.27777 0.51089 0.20772 0.0
C2619 C 0.27165 0.45352 0.2333 0.0
C2620 C 0.26204 0.43144 0.25762 0.0
C2621 C 0.26904 0.48914 0.23297 0.0
C2622 C 0.25037 0.4456 0.28244 0.0
C2623 C 0.24844 0.48131 0.28315 0.0
H2624 H 0.79713 0.30645 0.01032 0.0
H2625 H 0.72812 0.31735 0.96709 0.0
H2626 H 0.7206 0.25457 0.96503 0.0
H2627 H 0.73333 0.19648 0.97689 0.0
H2628 H 0.80222 0.18552 0.02107 0.0
H2629 H 0.80991 0.24821 0.02208 0.0
C2630 C 0.78062 0.29498 -0.00018 0.0
C2631 C 0.76329 0.31635 0.98851 0.0
C2632 C 0.77621 0.25885 -0.00037 0.0
C2633 C 0.74177 0.30128 0.97573 0.0
C2634 C 0.7374 0.26543 0.97479 0.0
C2635 C 0.74991 0.20783 0.98721 0.0
C2636 C 0.76709 0.18635 -0.00094 0.0
C2637 C 0.75438 0.24394 0.98718 0.0
C2638 C 0.78864 0.20148 0.01183 0.0
C2639 C 0.79313 0.23734 0.01223 0.0
H2640 H 0.99067 0.30801 0.71704 0.0
H2641 H 0.04759 0.31799 0.79563 0.0
H2642 H 0.04955 0.25519 0.79729 0.0
H2643 H 0.0359 0.19761 0.77459 0.0
H2644 H 0.97892 0.18747 0.69617 0.0
H2645 H 0.97664 0.25027 0.69494 0.0
C2646 C 1.00291 0.29618 0.73539 0.0
C2647 C 0.01846 0.31724 0.75707 0.0
C2648 C 1.00461 0.26029 0.73492 0.0
C2649 C 0.03499 0.30198 0.77962 0.0
C2650 C 0.03641 0.26623 0.78001 0.0
C2651 C 0.02355 0.20942 0.75643 0.0
C2652 C 1.00821 0.18839 0.73444 0.0
C2653 C 0.02168 0.24524 0.75715 0.0
C2654 C 0.99144 0.20353 0.71228 0.0
C2655 C 0.98985 0.23926 0.71213 0.0
H2656 H 0.79913 0.5496 0.76803 0.0
H2657 H 0.7361 0.57633 0.71158 0.0
H2658 H 0.7235 0.51497 0.70576 0.0
H2659 H 0.73017 0.45424 0.71736 0.0
H2660 H 0.79324 0.42767 0.7738 0.0
H2661 H 0.80572 0.489 0.77985 0.0
C2662 C 0.7827 0.54218 0.75409 0.0
C2663 C 0.76865 0.56772 0.74005 0.0
C2664 C 0.77537 0.50699 0.7515 0.0
C2665 C 0.74736 0.55734 0.72237 0.0
C2666 C 0.74006 0.52226 0.71931 0.0
C2667 C 0.74657 0.46171 0.73138 0.0
C2668 C 0.7607 0.4362 0.74527 0.0
C2669 C 0.75384 0.49693 0.73409 0.0
C2670 C 0.78193 0.44662 0.76309 0.0
C2671 C 0.78916 0.48169 0.76629 0.0
H2672 H 0.0335 0.06799 0.49484 0.0
H2673 H 0.96551 0.04406 0.52067 0.0
H2674 H 0.96948 0.98224 0.51456 0.0
H2675 H 0.9919 0.93534 0.49988 0.0
H2676 H 0.05984 0.95951 0.47389 0.0
H2677 H 0.05602 0.02122 0.48074 0.0
C2678 C 0.01982 0.04916 0.50014 0.0
C2679 C 0.99943 0.06039 0.50895 0.0
C2680 C 0.02189 0.01394 0.49515 0.0
C2681 C 0.98151 0.03584 0.51453 0.0
C2682 C 0.98365 1.00062 0.5105 0.0
C2683 C 1.0056 0.95424 0.49479 0.0
C2684 C 0.0259 0.94315 0.48552 0.0
C2685 C 1.00358 0.98946 0.50006 0.0
C2686 C 0.04389 0.96768 0.48029 0.0
C2687 C 0.04183 0.00283 0.48471 0.0
H2688 H 0.24205 0.30002 0.51608 0.0
H2689 H 0.30711 0.31997 0.47798 0.0
H2690 H 0.30975 0.25799 0.47197 0.0
H2691 H 0.29335 0.19786 0.47679 0.0
H2692 H 0.22839 0.17871 0.51557 0.0
H2693 H 0.22617 0.2404 0.5221 0.0
C2694 C 0.25678 0.29094 0.50625 0.0
C2695 C 0.27424 0.31487 0.49725 0.0
C2696 C 0.25833 0.2552 0.50315 0.0
C2697 C 0.2933 0.30233 0.48497 0.0
C2698 C 0.29488 0.26679 0.48159 0.0
C2699 C 0.27882 0.2071 0.48702 0.0
C2700 C 0.26113 0.18334 0.49571 0.0
C2701 C 0.2775 0.24293 0.49062 0.0
C2702 C 0.24236 0.19609 0.50872 0.0
C2703 C 0.24098 0.23153 0.51237 0.0
H2704 H 0.22976 0.9518 0.71417 0.0
H2705 H 0.29483 0.92614 0.76453 0.0
H2706 H 0.30636 0.98762 0.77239 0.0
H2707 H 0.29834 0.04807 0.76403 0.0
H2708 H 0.23326 0.07408 0.71407 0.0
H2709 H 0.22163 0.01253 0.70606 0.0
C2710 C 0.24643 0.95946 0.72719 0.0
C2711 C 0.26137 0.93413 0.73889 0.0
C2712 C 0.25311 0.99483 0.73103 0.0
C2713 C 0.28291 0.94488 0.75548 0.0
C2714 C 0.28958 0.98006 0.75973 0.0
C2715 C 0.28163 0.04051 0.75107 0.0
C2716 C 0.26674 0.06591 0.73945 0.0
C2717 C 0.27491 0.00519 0.74727 0.0
C2718 C 0.24516 0.05527 0.72295 0.0
C2719 C 0.23844 0.02005 0.71865 0.0
H2720 H 0.7867 0.70258 0.4739 0.0
H2721 H 0.72162 0.68228 0.51194 0.0
H2722 H 0.71929 0.74397 0.51945 0.0
H2723 H 0.73563 0.80401 0.51541 0.0
H2724 H 0.80043 0.82405 0.4767 0.0
H2725 H 0.80288 0.76246 0.46951 0.0
C2726 C 0.77203 0.71154 0.48398 0.0
C2727 C 0.75444 0.68751 0.49239 0.0
C2728 C 0.77067 0.74722 0.48814 0.0
C2729 C 0.73552 0.69992 0.50529 0.0
C2730 C 0.73411 0.73533 0.50957 0.0
C2731 C 0.75025 0.795 0.50523 0.0
C2732 C 0.76786 0.81899 0.49672 0.0
C2733 C 0.75156 0.75927 0.50103 0.0
C2734 C 0.78666 0.80648 0.48365 0.0
C2735 C 0.78808 0.7711 0.47948 0.0
H2736 H 0.7302 0.95288 0.21579 0.0
H2737 H 0.79761 0.93096 0.25958 0.0
H2738 H 0.80872 0.99297 0.26295 0.0
H2739 H 0.79925 0.05261 0.25346 0.0
H2740 H 0.73162 0.07437 0.21052 0.0
H2741 H 0.721 0.01242 0.20509 0.0
C2742 C 0.74734 0.96147 0.22633 0.0
C2743 C 0.76303 0.93718 0.23764 0.0
C2744 C 0.75371 0.99692 0.22743 0.0
C2745 C 0.78512 0.94901 0.2511 0.0
C2746 C 0.79154 0.98443 0.25264 0.0
C2747 C 0.78222 0.04401 0.24247 0.0
C2748 C 0.76621 0.06826 0.23253 0.0
C2749 C 0.77601 0.00851 0.24063 0.0
C2750 C 0.7443 0.05639 0.21824 0.0
C2751 C 0.73814 0.02097 0.21554 0.0
H2752 H 0.47765 0.54207 0.47859 0.0
H2753 H 0.53732 0.5796 0.54494 0.0
H2754 H 0.55083 0.52159 0.54735 0.0
H2755 H 0.54656 0.46151 0.52801 0.0
H2756 H 0.48722 0.42504 0.46037 0.0
H2757 H 0.47312 0.48237 0.46005 0.0
C2758 C 0.4935 0.53771 0.49405 0.0
C2759 C 0.50644 0.56531 0.51164 0.0
C2760 C 0.50152 0.50484 0.49424 0.0
C2761 C 0.52696 0.55888 0.53131 0.0
C2762 C 0.5348 0.52582 0.53237 0.0
C2763 C 0.53062 0.46605 0.5129 0.0
C2764 C 0.51804 0.43895 0.494 0.0
C2765 C 0.52243 0.49886 0.51331 0.0
C2766 C 0.49735 0.44541 0.47488 0.0
C2767 C 0.48918 0.47809 0.47495 0.0
H2768 H 0.53809 0.70315 0.77948 0.0
H2769 H 0.4792 0.693 0.70437 0.0
H2770 H 0.47616 0.75544 0.705 0.0
H2771 H 0.48835 0.81181 0.73009 0.0
H2772 H 0.54738 0.82322 0.80523 0.0
H2773 H 0.55192 0.76119 0.80223 0.0
C2774 C 0.52515 0.71495 0.76239 0.0
C2775 C 0.50926 0.69386 0.74115 0.0
C2776 C 0.52297 0.75074 0.76399 0.0
C2777 C 0.49196 0.70901 0.72011 0.0
C2778 C 0.48998 0.74456 0.72098 0.0
C2779 C 0.50202 0.80076 0.74634 0.0
C2780 C 0.51717 0.82211 0.76855 0.0
C2781 C 0.50495 0.76546 0.74361 0.0
C2782 C 0.53519 0.8073 0.78847 0.0
C2783 C 0.53795 0.77191 0.78643 0.0
H2784 H 0.49428 0.20228 0.28757 0.0
H2785 H 0.53938 0.18383 0.21215 0.0
H2786 H 0.54607 0.24627 0.2031 0.0
H2787 H 0.53895 0.30496 0.21627 0.0
H2788 H 0.49393 0.32424 0.29149 0.0
H2789 H 0.48725 0.26163 0.30101 0.0
C2790 C 0.50551 0.21178 0.26895 0.0
C2791 C 0.51623 0.18834 0.25028 0.0
C2792 C 0.50929 0.24753 0.26403 0.0
C2793 C 0.53097 0.20124 0.22678 0.0
C2794 C 0.53476 0.23687 0.22162 0.0
C2795 C 0.52777 0.29573 0.23505 0.0
C2796 C 0.51707 0.31937 0.25346 0.0
C2797 C 0.52401 0.2601 0.24013 0.0
C2798 C 0.50234 0.30666 0.27707 0.0
C2799 C 0.49857 0.27094 0.28247 0.0
H2800 H 0.47989 0.04654 0.97039 0.0
H2801 H 0.53946 0.07929 0.03934 0.0
H2802 H 0.55281 0.0215 0.03753 0.0
H2803 H 0.54789 0.96303 0.01561 0.0
H2804 H 0.48812 0.92956 0.94737 0.0
H2805 H 0.47486 0.98756 0.94863 0.0
C2806 C 0.49564 0.04101 0.98554 0.0
C2807 C 0.50859 0.06711 0.00532 0.0
C2808 C 0.50343 0.00817 0.98369 0.0
C2809 C 0.52912 0.05958 0.02419 0.0
C2810 C 0.53684 0.0267 0.02288 0.0
C2811 C 0.53206 0.9683 0.00055 0.0
C2812 C 0.51906 0.94195 0.98118 0.0
C2813 C 0.52426 1.00107 0.00235 0.0
C2814 C 0.49852 0.94941 0.96224 0.0
C2815 C 0.49084 0.98241 0.96326 0.0
H2816 H 0.03747 0.09469 0.15918 0.0
H2817 H 0.9707 0.05822 0.11322 0.0
H2818 H 0.96727 0.11235 0.08093 0.0
H2819 H 0.98244 0.17038 0.0674 0.0
H2820 H 0.0487 0.20891 0.11424 0.0
H2821 H 0.05293 0.15392 0.14508 0.0
C2822 C 0.0224 0.09854 0.14161 0.0
C2823 C 1.00445 0.07255 0.13821 0.0
C2824 C 0.02024 0.13025 0.12388 0.0
C2825 C 0.98475 0.07792 0.11602 0.0
C2826 C 0.98273 0.10888 0.09774 0.0
C2827 C 0.99781 0.167 0.08446 0.0
C2828 C 0.01517 0.19393 0.08852 0.0
C2829 C 1.0002 0.13539 0.10187 0.0
C2830 C 0.03497 0.18876 0.11071 0.0
C2831 C 0.03748 0.15722 0.12822 0.0
H2832 H 0.23192 0.18796 0.11805 0.0
H2833 H 0.30413 0.20179 0.11397 0.0
H2834 H 0.30311 0.14656 0.08486 0.0
H2835 H 0.28273 0.09129 0.06788 0.0
H2836 H 0.21096 0.07511 0.07613 0.0
H2837 H 0.21076 0.13429 0.09592 0.0
C2838 C 0.24729 0.17927 0.1099 0.0
C2839 C 0.26806 0.19884 0.11811 0.0
C2840 C 0.24673 0.14677 0.09442 0.0
C2841 C 0.28795 0.18707 0.10795 0.0
C2842 C 0.28739 0.15543 0.09147 0.0
C2843 C 0.26693 0.10078 0.07342 0.0
C2844 C 0.24696 0.07849 0.07088 0.0
C2845 C 0.26703 0.13453 0.08571 0.0
C2846 C 0.22667 0.09148 0.07816 0.0
C2847 C 0.22652 0.12537 0.08953 0.0
H2848 H 0.9899 0.82398 0.89056 0.0
H2849 H 0.0574 0.80163 0.87349 0.0
H2850 H 0.06229 0.85612 0.84173 0.0
H2851 H 0.04835 0.91187 0.82235 0.0
H2852 H 0.98152 0.93545 0.84261 0.0
H2853 H 0.97556 0.87903 0.8698 0.0
C2854 C 1.00546 0.83073 0.87919 0.0
C2855 C 0.02318 0.80879 0.88404 0.0
C2856 C 1.00847 0.86267 0.86212 0.0
C2857 C 0.04348 0.81814 0.86989 0.0
C2858 C 0.04634 0.84936 0.85195 0.0
C2859 C 0.03248 0.90471 0.83269 0.0
C2860 C 0.01553 0.92813 0.83058 0.0
C2861 C 0.02914 0.8722 0.84859 0.0
C2862 C 0.99501 0.91821 0.84406 0.0
C2863 C 0.99149 0.8858 0.85951 0.0
H2864 H 0.80362 0.92725 0.90245 0.0
H2865 H 0.73245 0.94323 0.88215 0.0
H2866 H 0.72454 0.88543 0.85858 0.0
H2867 H 0.73761 0.83067 0.84288 0.0
H2868 H 0.80843 0.81268 0.86451 0.0
H2869 H 0.81654 0.87037 0.88897 0.0
C2870 C 0.78645 0.91801 0.89272 0.0
C2871 C 0.76869 0.93956 0.89391 0.0
C2872 C 0.78186 0.88421 0.87977 0.0
C2873 C 0.74643 0.92713 0.88164 0.0
C2874 C 0.74185 0.89404 0.86815 0.0
C2875 C 0.75481 0.83917 0.85315 0.0
C2876 C 0.77234 0.81729 0.85167 0.0
C2877 C 0.7594 0.87236 0.8671 0.0
C2878 C 0.79452 0.82884 0.86539 0.0
C2879 C 0.79924 0.86199 0.87919 0.0
H2880 H 0.97943 0.58797 0.65506 0.0
H2881 H 0.04576 0.56491 0.63204 0.0
H2882 H 0.05061 0.62095 0.60335 0.0
H2883 H 0.03586 0.67647 0.58392 0.0
H2884 H 0.96893 0.69813 0.60474 0.0
H2885 H 0.96471 0.64306 0.63567 0.0
C2886 C 0.99493 0.59503 0.64367 0.0
C2887 C 1.01214 0.57201 0.64574 0.0
C2888 C 0.99766 0.62735 0.62714 0.0
C2889 C 0.03213 0.5819 0.63083 0.0
C2890 C 0.03501 0.61409 0.61451 0.0
C2891 C 0.02052 0.66931 0.59573 0.0
C2892 C 1.00283 0.69143 0.59237 0.0
C2893 C 0.01791 0.63708 0.61258 0.0
C2894 C 0.98282 0.68154 0.60711 0.0
C2895 C 0.98035 0.65001 0.62465 0.0
H2896 H 0.22739 0.67249 0.63098 0.0
H2897 H 0.29329 0.70174 0.59945 0.0
H2898 H 0.2929 0.64628 0.57062 0.0
H2899 H 0.27581 0.58709 0.56048 0.0
H2900 H 0.21111 0.55654 0.59636 0.0
H2901 H 0.20912 0.61463 0.6174 0.0
C2902 C 0.24136 0.667 0.61698 0.0
C2903 C 0.26027 0.69109 0.61706 0.0
C2904 C 0.24144 0.63452 0.60181 0.0
C2905 C 0.27854 0.68349 0.59959 0.0
C2906 C 0.27837 0.65174 0.58331 0.0
C2907 C 0.2611 0.59322 0.57242 0.0
C2908 C 0.24374 0.56724 0.57694 0.0
C2909 C 0.26022 0.62663 0.5852 0.0
C2910 C 0.22483 0.57582 0.59259 0.0
C2911 C 0.22363 0.60913 0.60468 0.0
H2912 H 0.04988 0.33125 0.40792 0.0
H2913 H 0.97978 0.2982 0.37546 0.0
H2914 H 0.97483 0.35289 0.34503 0.0
H2915 H 0.99036 0.41034 0.32735 0.0
H2916 H 0.06081 0.44206 0.35754 0.0
H2917 H 0.06552 0.38797 0.38956 0.0
C2918 C 0.03354 0.33588 0.39406 0.0
C2919 C 0.01529 0.31055 0.39404 0.0
C2920 C 0.03076 0.36739 0.37651 0.0
C2921 C 0.99422 0.3171 0.37586 0.0
C2922 C 0.99129 0.34849 0.35856 0.0
C2923 C 1.00662 0.4055 0.34136 0.0
C2924 C 0.02514 0.43013 0.34043 0.0
C2925 C 1.0094 0.37392 0.35886 0.0
C2926 C 0.04629 0.4234 0.35803 0.0
C2927 C 0.04903 0.39247 0.37621 0.0
H2928 H 0.73474 0.32766 0.3461 0.0
H2929 H 0.80597 0.311 0.36021 0.0
H2930 H 0.81474 0.36852 0.38494 0.0
H2931 H 0.80214 0.42492 0.4004 0.0
H2932 H 0.73058 0.43924 0.38872 0.0
H2933 H 0.72204 0.38158 0.36488 0.0
C2934 C 0.75217 0.33649 0.35484 0.0
C2935 C 0.76964 0.31518 0.35116 0.0
C2936 C 0.75708 0.36941 0.36913 0.0
C2937 C 0.79214 0.32686 0.3629 0.0
C2938 C 0.79722 0.35986 0.37682 0.0
C2939 C 0.78474 0.41527 0.39255 0.0
C2940 C 0.76704 0.43623 0.39605 0.0
C2941 C 0.77984 0.38159 0.37961 0.0
C2942 C 0.74449 0.42344 0.3863 0.0
C2943 C 0.73957 0.3905 0.37267 0.0
H2944 H 0.50728 0.05309 0.60917 0.0
H2945 H 0.52655 0.10094 0.70753 0.0
H2946 H 0.5299 0.15807 0.67976 0.0
H2947 H 0.52508 0.19464 0.62754 0.0
H2948 H 0.50209 0.14691 0.52993 0.0
H2949 H 0.50259 0.0896 0.55698 0.0
C2950 C 0.51251 0.07609 0.62426 0.0
C2951 C 0.51697 0.0732 0.66006 0.0
C2952 C 0.5136 0.10881 0.60822 0.0
C2953 C 0.52329 0.10292 0.67978 0.0
C2954 C 0.52513 0.13546 0.66395 0.0
C2955 C 0.52043 0.1716 0.61227 0.0
C2956 C 0.51358 0.17481 0.57691 0.0
C2957 C 0.52002 0.13879 0.62821 0.0
C2958 C 0.50729 0.14493 0.55731 0.0
C2959 C 0.50759 0.11219 0.57272 0.0
H2960 H 0.77995 0.08833 0.57152 0.0
H2961 H 0.70912 0.06984 0.58548 0.0
H2962 H 0.70868 0.12907 0.60499 0.0
H2963 H 0.72939 0.18401 0.62406 0.0
H2964 H 0.8008 0.20077 0.61388 0.0
H2965 H 0.79991 0.14467 0.58645 0.0
C2966 C 0.76431 0.09734 0.57834 0.0
C2967 C 0.74466 0.07444 0.5773 0.0
C2968 C 0.76429 0.13122 0.59035 0.0
C2969 C 0.72458 0.0867 0.58634 0.0
C2970 C 0.72429 0.12063 0.5975 0.0
C2971 C 0.74462 0.17574 0.61506 0.0
C2972 C 0.76512 0.19655 0.62101 0.0
C2973 C 0.74418 0.14285 0.60044 0.0
C2974 C 0.7848 0.18522 0.60966 0.0
C2975 C 0.78434 0.15306 0.59412 0.0
H2976 H 0.54413 0.90376 0.31502 0.0
H2977 H 0.47588 0.92626 0.32841 0.0
H2978 H 0.46975 0.87078 0.35755 0.0
H2979 H 0.48482 0.81794 0.38367 0.0
H2980 H 0.55378 0.79755 0.37347 0.0
H2981 H 0.5584 0.84963 0.33806 0.0
C2982 C 0.52785 0.89648 0.32407 0.0
C2983 C 0.51063 0.91941 0.31984 0.0
C2984 C 0.5245 0.86473 0.34128 0.0
C2985 C 0.48959 0.90936 0.33165 0.0
C2986 C 0.486 0.87754 0.34825 0.0
C2987 C 0.50063 0.82457 0.37296 0.0
C2988 C 0.51891 0.80407 0.38099 0.0
C2989 C 0.50346 0.85528 0.35375 0.0
C2990 C 0.53949 0.81309 0.36755 0.0
C2991 C 0.54218 0.84292 0.34749 0.0
H2992 H 0.30073 0.92219 0.39369 0.0
H2993 H 0.22981 0.94016 0.37631 0.0
H2994 H 0.22072 0.88211 0.35345 0.0
H2995 H 0.23278 0.82649 0.33782 0.0
H2996 H 0.30333 0.80641 0.35774 0.0
H2997 H 0.3126 0.8645 0.38076 0.0
C2998 C 0.28336 0.91331 0.38469 0.0
C2999 C 0.26599 0.9354 0.38635 0.0
C3000 C 0.27812 0.87938 0.37242 0.0
C3001 C 0.24346 0.92353 0.37521 0.0
C3002 C 0.23823 0.89035 0.36219 0.0
C3003 C 0.25016 0.83467 0.34744 0.0
C3004 C 0.26728 0.81208 0.34592 0.0
C3005 C 0.25539 0.86803 0.36072 0.0
C3006 C 0.28973 0.82314 0.35873 0.0
C3007 C 0.29511 0.8565 0.37169 0.0
H3008 H 0.49925 0.65577 0.05324 0.0
H3009 H 0.53292 0.71923 0.13592 0.0
H3010 H 0.53468 0.66849 0.17417 0.0
H3011 H 0.52572 0.60618 0.18412 0.0
H3012 H 0.49361 0.54257 0.1007 0.0
H3013 H 0.49226 0.59326 0.06219 0.0
C3014 C 0.507 0.65835 0.07963 0.0
C3015 C 0.51583 0.69091 0.09202 0.0
C3016 C 0.50826 0.62915 0.10108 0.0
C3017 C 0.52614 0.69418 0.12599 0.0
C3018 C 0.52707 0.6653 0.1478 0.0
C3019 C 0.5186 0.60367 0.15742 0.0
C3020 C 0.5097 0.5713 0.14485 0.0
C3021 C 0.51809 0.63272 0.13563 0.0
C3022 C 0.50047 0.56764 0.11048 0.0
C3023 C 0.49969 0.59647 0.08865 0.0
H3024 H 0.73328 0.58991 0.05535 0.0
H3025 H 0.78409 0.54717 0.12769 0.0
H3026 H 0.79163 0.60249 0.15709 0.0
H3027 H 0.78343 0.66191 0.16271 0.0
H3028 H 0.7328 0.7065 0.09117 0.0
H3029 H 0.72572 0.65161 0.06037 0.0
C3030 C 0.74594 0.59303 0.07755 0.0
C3031 C 0.75816 0.56503 0.08967 0.0
C3032 C 0.75033 0.62505 0.0941 0.0
C3033 C 0.77465 0.5688 0.11817 0.0
C3034 C 0.77895 0.60028 0.13487 0.0
C3035 C 0.77105 0.65995 0.14011 0.0
C3036 C 0.75873 0.68825 0.12916 0.0
C3037 C 0.76691 0.6285 0.12303 0.0
C3038 C 0.74246 0.68496 0.10015 0.0
C3039 C 0.73838 0.65361 0.0826 0.0
H3040 H 0.49046 0.42589 0.83655 0.0
H3041 H 0.56299 0.43315 0.83381 0.0
H3042 H 0.56553 0.37832 0.86461 0.0
H3043 H 0.54757 0.32865 0.89312 0.0
H3044 H 0.47505 0.31953 0.89496 0.0
H3045 H 0.47215 0.37448 0.86355 0.0
C3046 C 0.50683 0.41557 0.84288 0.0
C3047 C 0.5265 0.43391 0.83307 0.0
C3048 C 0.50821 0.38354 0.86029 0.0
C3049 C 0.54754 0.41981 0.84108 0.0
C3050 C 0.54905 0.38835 0.8587 0.0
C3051 C 0.53109 0.33857 0.88654 0.0
C3052 C 0.51159 0.32002 0.89646 0.0
C3053 C 0.52954 0.37004 0.86847 0.0
C3054 C 0.49035 0.33315 0.88743 0.0
C3055 C 0.48868 0.36469 0.86966 0.0
H3056 H 0.23627 0.32028 0.86315 0.0
H3057 H 0.30768 0.30693 0.86659 0.0
H3058 H 0.31692 0.36517 0.88919 0.0
H3059 H 0.30458 0.42176 0.9044 0.0
H3060 H 0.23298 0.43313 0.90317 0.0
H3061 H 0.2241 0.37417 0.88342 0.0
C3062 C 0.25385 0.32992 0.86936 0.0
C3063 C 0.27119 0.3093 0.86312 0.0
C3064 C 0.25908 0.36338 0.88244 0.0
C3065 C 0.29393 0.32213 0.87143 0.0
C3066 C 0.29927 0.3556 0.88408 0.0
C3067 C 0.28708 0.41122 0.89992 0.0
C3068 C 0.26953 0.432 0.90504 0.0
C3069 C 0.28197 0.37677 0.88905 0.0
C3070 C 0.2469 0.41778 0.89952 0.0
C3071 C 0.24173 0.384 0.88813 0.0
loop_
_geom_bond_atom_site_label_1
_geom_bond_atom_site_label_2
_geom_bond_distance
_geom_bond_site_symmetry_2
_ccdc_geom_bond_type
Co0 H3 2.400 . S
Co0 O4 2.009 . S
Co0 O12 2.115 . S
Co0 O13 2.315 . S
Co0 O24 2.053 . S
Co0 O27 2.094 1_554 S
Co0 O30 2.122 1_554 S
Co1 O4 2.126 . S
Co1 H5 2.377 1_654 S
Co1 O6 2.053 1_655 S
Co1 O9 2.047 1_554 S
Co1 O15 2.113 . S
Co1 O26 2.063 . S
Co2 H3 2.388 1_455 S
Co2 O4 2.053 1_455 S
Co2 O6 2.126 . S
Co2 O11 2.063 . S
Co2 O25 2.047 . S
Co2 O31 2.113 1_554 S
H3 Co0 2.400 . S
H3 Co2 2.388 1_655 S
H3 O4 0.760 . S
O4 Co0 2.009 . S
O4 Co1 2.126 . S
O4 Co2 2.053 1_655 S
O4 H3 0.760 . S
H5 Co1 2.377 1_456 S
H5 O6 0.733 1_556 S
H5 Co7 2.384 1_556 S
O6 Co1 2.053 1_455 S
O6 Co2 2.126 . S
O6 H5 0.733 1_554 S
O6 Co7 2.009 . S
Co7 H5 2.384 1_554 S
Co7 O6 2.009 . S
Co7 O8 2.053 . S
Co7 O10 2.094 . S
Co7 O14 2.122 . S
Co7 O28 2.115 . S
Co7 O29 2.319 . S
O8 Co7 2.053 . S
O8 C20 1.254 1_554 S
O9 Co1 2.047 1_556 S
O9 C20 1.259 1_655 S
O10 Co7 2.094 . S
O10 C21 1.253 . S
O11 Co2 2.063 . S
O11 C21 1.268 . S
O12 Co0 2.115 . S
O12 C22 1.281 . S
O13 Co0 2.315 . S
O13 C22 1.252 . S
O14 Co7 2.122 . S
O14 C23 1.272 . S
O15 Co1 2.113 . S
O15 C23 1.245 1_655 S
C16 O24 1.252 1_455 S
C16 O25 1.263 . S
C17 O26 1.268 . S
C17 O27 1.253 1_554 S
C18 O28 1.281 . S
C18 O29 1.255 . S
C19 O30 1.272 . S
C19 O31 1.245 1_655 S
C20 O8 1.254 1_556 S
C20 O9 1.259 1_455 S
C21 O10 1.253 . S
C21 O11 1.268 . S
C22 O12 1.281 . S
C22 O13 1.252 . S
C23 O14 1.272 . S
C23 O15 1.245 1_455 S
O24 Co0 2.053 . S
O24 C16 1.252 1_655 S
O25 Co2 2.047 . S
O25 C16 1.263 . S
O26 Co1 2.063 . S
O26 C17 1.268 . S
O27 Co0 2.094 1_556 S
O27 C17 1.253 1_556 S
O28 Co7 2.115 . S
O28 C18 1.281 . S
O29 Co7 2.319 . S
O29 C18 1.255 . S
O30 Co0 2.122 1_556 S
O30 C19 1.272 . S
O31 Co2 2.113 1_556 S
O31 C19 1.245 1_455 S
Co32 H35 2.400 . S
Co32 O36 2.009 . S
Co32 O44 2.115 1_554 S
Co32 O45 2.315 . S
Co32 O56 2.053 . S
Co32 O59 2.094 1_554 S
Co32 O62 2.122 1_554 S
Co33 O36 2.126 . S
Co33 H37 2.388 . S
Co33 O38 2.053 . S
Co33 O41 2.047 . S
Co33 O47 2.113 . S
Co33 O58 2.063 . S
Co34 H35 2.388 . S
Co34 O36 2.053 . S
Co34 O38 2.126 . S
Co34 O43 2.063 1_565 S
Co34 O57 2.047 . S
Co34 O63 2.113 . S
H35 Co32 2.400 . S
H35 Co34 2.388 . S
H35 O36 0.760 . S
O36 Co32 2.009 . S
O36 Co33 2.126 . S
O36 Co34 2.053 . S
O36 H35 0.760 . S
H37 Co33 2.388 . S
H37 O38 0.760 . S
H37 Co39 2.400 . S
O38 Co33 2.053 . S
O38 Co34 2.126 . S
O38 H37 0.760 . S
O38 Co39 2.009 . S
Co39 H37 2.400 . S
Co39 O38 2.009 . S
Co39 O40 2.053 . S
Co39 O42 2.094 . S
Co39 O46 2.122 . S
Co39 O60 2.115 . S
Co39 O61 2.315 . S
O40 Co39 2.053 . S
O40 C52 1.259 . S
O41 Co33 2.047 . S
O41 C52 1.257 . S
O42 Co39 2.094 . S
O42 C53 1.253 1_565 S
O43 Co34 2.063 1_545 S
O43 C53 1.268 . S
O44 Co32 2.115 1_556 S
O44 C54 1.281 1_556 S
O45 Co32 2.315 . S
O45 C54 1.252 . S
O46 Co39 2.122 . S
O46 C55 1.272 . S
O47 Co33 2.113 . S
O47 C55 1.245 . S
C48 O56 1.259 . S
C48 O57 1.257 . S
C49 O58 1.268 . S
C49 O59 1.253 1_554 S
C50 O60 1.281 . S
C50 O61 1.252 . S
C51 O62 1.272 . S
C51 O63 1.245 1_556 S
C52 O40 1.259 . S
C52 O41 1.257 . S
C53 O42 1.253 1_545 S
C53 O43 1.268 . S
C54 O44 1.281 1_554 S
C54 O45 1.252 . S
C55 O46 1.272 . S
C55 O47 1.245 . S
O56 Co32 2.053 . S
O56 C48 1.259 . S
O57 Co34 2.047 . S
O57 C48 1.257 . S
O58 Co33 2.063 . S
O58 C49 1.268 . S
O59 Co32 2.094 1_556 S
O59 C49 1.253 1_556 S
O60 Co39 2.115 . S
O60 C50 1.281 . S
O61 Co39 2.315 . S
O61 C50 1.252 . S
O62 Co32 2.122 1_556 S
O62 C51 1.272 . S
O63 Co34 2.113 . S
O63 C51 1.245 1_554 S
Co64 H67 2.400 . S
Co64 O68 2.009 . S
Co64 O76 2.115 1_565 S
Co64 O77 2.315 . S
Co64 O88 2.053 1_565 S
Co64 O91 2.094 . S
Co64 O94 2.126 . S
Co65 O68 2.126 . S
Co65 H69 2.388 1_655 S
Co65 O70 2.053 1_655 S
Co65 O73 2.047 . S
Co65 O79 2.113 . S
Co65 O90 2.063 . S
Co66 H67 2.388 1_455 S
Co66 O68 2.053 1_455 S
Co66 O70 2.126 . S
Co66 O75 2.063 . S
Co66 O89 2.047 1_565 S
Co66 O95 2.113 . S
H67 Co64 2.400 . S
H67 Co66 2.388 1_655 S
H67 O68 0.760 . S
O68 Co64 2.009 . S
O68 Co65 2.126 . S
O68 Co66 2.053 1_655 S
O68 H67 0.760 . S
H69 Co65 2.388 1_455 S
H69 O70 0.760 . S
H69 Co71 2.400 . S
O70 Co65 2.053 1_455 S
O70 Co66 2.126 . S
O70 H69 0.760 . S
O70 Co71 2.009 . S
Co71 H69 2.400 . S
Co71 O70 2.009 . S
Co71 O72 2.053 . S
Co71 O74 2.094 . S
Co71 O78 2.122 . S
Co71 O92 2.115 . S
Co71 O93 2.315 . S
O72 Co71 2.053 . S
O72 C84 1.259 . S
O73 Co65 2.047 . S
O73 C84 1.257 1_655 S
O74 Co71 2.094 . S
O74 C85 1.253 . S
O75 Co66 2.063 . S
O75 C85 1.268 . S
O76 Co64 2.115 1_545 S
O76 C86 1.281 . S
O77 Co64 2.315 . S
O77 C86 1.252 1_565 S
O78 Co71 2.122 . S
O78 C87 1.272 1_455 S
O79 Co65 2.113 . S
O79 C87 1.245 . S
C80 O88 1.259 1_455 S
C80 O89 1.257 . S
C81 O90 1.268 . S
C81 O91 1.253 . S
C82 O92 1.281 . S
C82 O93 1.252 . S
C83 O94 1.272 1_445 S
C83 O95 1.245 1_545 S
C84 O72 1.259 . S
C84 O73 1.257 1_455 S
C85 O74 1.253 . S
C85 O75 1.268 . S
C86 O76 1.281 . S
C86 O77 1.252 1_545 S
C87 O78 1.272 1_655 S
C87 O79 1.245 . S
O88 Co64 2.053 1_545 S
O88 C80 1.259 1_655 S
O89 Co66 2.047 1_545 S
O89 C80 1.257 . S
O90 Co65 2.063 . S
O90 C81 1.268 . S
O91 Co64 2.094 . S
O91 C81 1.253 . S
O92 Co71 2.115 . S
O92 C82 1.281 . S
O93 Co71 2.315 . S
O93 C82 1.252 . S
O94 Co64 2.126 . S
O94 C83 1.272 1_665 S
O95 Co66 2.113 . S
O95 C83 1.245 1_565 S
Co96 H99 2.400 . S
Co96 O100 2.009 . S
Co96 O108 2.115 . S
Co96 O109 2.315 . S
Co96 O120 2.053 . S
Co96 O123 2.094 . S
Co96 O126 2.122 . S
Co97 O100 2.126 . S
Co97 H101 2.388 . S
Co97 O102 2.053 . S
Co97 O105 2.047 . S
Co97 O111 2.113 . S
Co97 O122 2.063 . S
Co98 H99 2.388 . S
Co98 O100 2.053 . S
Co98 O102 2.126 . S
Co98 O107 2.063 . S
Co98 O121 2.047 . S
Co98 O127 2.113 . S
H99 Co96 2.400 . S
H99 Co98 2.388 . S
H99 O100 0.760 . S
O100 Co96 2.009 . S
O100 Co97 2.126 . S
O100 Co98 2.053 . S
O100 H99 0.760 . S
H101 Co97 2.388 . S
H101 O102 0.760 . S
H101 Co103 2.400 . S
O102 Co97 2.053 . S
O102 Co98 2.126 . S
O102 H101 0.760 . S
O102 Co103 2.009 . S
Co103 H101 2.400 . S
Co103 O102 2.009 . S
Co103 O104 2.053 . S
Co103 O106 2.094 . S
Co103 O110 2.122 . S
Co103 O124 2.115 . S
Co103 O125 2.315 . S
O104 Co103 2.053 . S
O104 C116 1.259 . S
O105 Co97 2.047 . S
O105 C116 1.257 . S
O106 Co103 2.094 . S
O106 C117 1.253 . S
O107 Co98 2.063 . S
O107 C117 1.268 . S
O108 Co96 2.115 . S
O108 C118 1.281 . S
O109 Co96 2.315 . S
O109 C118 1.252 . S
O110 Co103 2.122 . S
O110 C119 1.272 . S
O111 Co97 2.113 . S
O111 C119 1.245 . S
C112 O120 1.259 . S
C112 O121 1.257 . S
C113 O122 1.268 . S
C113 O123 1.253 . S
C114 O124 1.281 . S
C114 O125 1.252 . S
C115 O126 1.272 . S
C115 O127 1.245 . S
C116 O104 1.259 . S
C116 O105 1.257 . S
C117 O106 1.253 . S
C117 O107 1.268 . S
C118 O108 1.281 . S
C118 O109 1.252 . S
C119 O110 1.272 . S
C119 O111 1.245 . S
O120 Co96 2.053 . S
O120 C112 1.259 . S
O121 Co98 2.047 . S
O121 C112 1.257 . S
O122 Co97 2.063 . S
O122 C113 1.268 . S
O123 Co96 2.094 . S
O123 C113 1.253 . S
O124 Co103 2.115 . S
O124 C114 1.281 . S
O125 Co103 2.315 . S
O125 C114 1.252 . S
O126 Co96 2.122 . S
O126 C115 1.272 . S
O127 Co98 2.113 . S
O127 C115 1.245 . S
Co128 H131 2.384 1_556 S
Co128 O132 2.009 . S
Co128 O140 2.115 . S
Co128 O141 2.319 . S
Co128 O152 2.053 . S
Co128 O155 2.094 . S
Co128 O158 2.122 . S
Co129 O132 2.126 . S
Co129 H133 2.388 1_655 S
Co129 O134 2.053 1_655 S
Co129 O137 2.047 . S
Co129 O143 2.113 1_556 S
Co129 O154 2.063 . S
Co130 H131 2.377 1_456 S
Co130 O132 2.053 1_455 S
Co130 O134 2.126 . S
Co130 O139 2.063 . S
Co130 O153 2.047 1_556 S
Co130 O159 2.113 . S
H131 Co128 2.384 1_554 S
H131 Co130 2.377 1_654 S
H131 O132 0.733 1_554 S
O132 Co128 2.009 . S
O132 Co129 2.126 . S
O132 Co130 2.053 1_655 S
O132 H131 0.733 1_556 S
H133 Co129 2.388 1_455 S
H133 O134 0.760 . S
H133 Co135 2.400 . S
O134 Co129 2.053 1_455 S
O134 Co130 2.126 . S
O134 H133 0.760 . S
O134 Co135 2.009 . S
Co135 H133 2.400 . S
Co135 O134 2.009 . S
Co135 O136 2.053 . S
Co135 O138 2.094 1_556 S
Co135 O142 2.122 1_556 S
Co135 O156 2.115 . S
Co135 O157 2.315 . S
O136 Co135 2.053 . S
O136 C148 1.252 1_455 S
O137 Co129 2.047 . S
O137 C148 1.263 . S
O138 Co135 2.094 1_554 S
O138 C149 1.253 1_554 S
O139 Co130 2.063 . S
O139 C149 1.268 . S
O140 Co128 2.115 . S
O140 C150 1.281 . S
O141 Co128 2.319 . S
O141 C150 1.255 . S
O142 Co135 2.122 1_554 S
O142 C151 1.272 . S
O143 Co129 2.113 1_554 S
O143 C151 1.245 1_655 S
C144 O152 1.254 1_554 S
C144 O153 1.259 1_655 S
C145 O154 1.268 . S
C145 O155 1.253 . S
C146 O156 1.281 . S
C146 O157 1.252 . S
C147 O158 1.272 . S
C147 O159 1.245 1_655 S
C148 O136 1.252 1_655 S
C148 O137 1.263 . S
C149 O138 1.253 1_556 S
C149 O139 1.268 . S
C150 O140 1.281 . S
C150 O141 1.255 . S
C151 O142 1.272 . S
C151 O143 1.245 1_455 S
O152 Co128 2.053 . S
O152 C144 1.254 1_556 S
O153 Co130 2.047 1_554 S
O153 C144 1.259 1_455 S
O154 Co129 2.063 . S
O154 C145 1.268 . S
O155 Co128 2.094 . S
O155 C145 1.253 . S
O156 Co135 2.115 . S
O156 C146 1.281 . S
O157 Co135 2.315 . S
O157 C146 1.252 . S
O158 Co128 2.122 . S
O158 C147 1.272 . S
O159 Co130 2.113 . S
O159 C147 1.245 1_455 S
Co160 H163 2.400 . S
Co160 O164 2.009 . S
Co160 O172 2.115 . S
Co160 O173 2.315 . S
Co160 O184 2.053 . S
Co160 O187 2.094 . S
Co160 O190 2.122 . S
Co161 O164 2.126 . S
Co161 H165 2.388 . S
Co161 O166 2.053 . S
Co161 O169 2.047 . S
Co161 O175 2.113 . S
Co161 O186 2.063 1_545 S
Co162 H163 2.388 . S
Co162 O164 2.053 . S
Co162 O166 2.126 . S
Co162 O171 2.063 . S
Co162 O185 2.047 . S
Co162 O191 2.113 . S
H163 Co160 2.400 . S
H163 Co162 2.388 . S
H163 O164 0.760 . S
O164 Co160 2.009 . S
O164 Co161 2.126 . S
O164 Co162 2.053 . S
O164 H163 0.760 . S
H165 Co161 2.388 . S
H165 O166 0.760 . S
H165 Co167 2.400 . S
O166 Co161 2.053 . S
O166 Co162 2.126 . S
O166 H165 0.760 . S
O166 Co167 2.009 . S
Co167 H165 2.400 . S
Co167 O166 2.009 . S
Co167 O168 2.053 . S
Co167 O170 2.094 1_556 S
Co167 O174 2.122 1_556 S
Co167 O188 2.115 1_556 S
Co167 O189 2.315 . S
O168 Co167 2.053 . S
O168 C180 1.259 . S
O169 Co161 2.047 . S
O169 C180 1.257 . S
O170 Co167 2.094 1_554 S
O170 C181 1.253 1_554 S
O171 Co162 2.063 . S
O171 C181 1.268 . S
O172 Co160 2.115 . S
O172 C182 1.281 . S
O173 Co160 2.315 . S
O173 C182 1.252 . S
O174 Co167 2.122 1_554 S
O174 C183 1.272 . S
O175 Co161 2.113 . S
O175 C183 1.245 1_556 S
C176 O184 1.259 . S
C176 O185 1.257 . S
C177 O186 1.268 . S
C177 O187 1.253 1_565 S
C178 O188 1.281 1_556 S
C178 O189 1.252 . S
C179 O190 1.272 . S
C179 O191 1.245 . S
C180 O168 1.259 . S
C180 O169 1.257 . S
C181 O170 1.253 1_556 S
C181 O171 1.268 . S
C182 O172 1.281 . S
C182 O173 1.252 . S
C183 O174 1.272 . S
C183 O175 1.245 1_554 S
O184 Co160 2.053 . S
O184 C176 1.259 . S
O185 Co162 2.047 . S
O185 C176 1.257 . S
O186 Co161 2.063 1_565 S
O186 C177 1.268 . S
O187 Co160 2.094 . S
O187 C177 1.253 1_545 S
O188 Co167 2.115 1_554 S
O188 C178 1.281 1_554 S
O189 Co167 2.315 . S
O189 C178 1.252 . S
O190 Co160 2.122 . S
O190 C179 1.272 . S
O191 Co162 2.113 . S
O191 C179 1.245 . S
Co192 H195 2.400 . S
Co192 O196 2.009 . S
Co192 O204 2.115 . S
Co192 O205 2.315 . S
Co192 O216 2.053 . S
Co192 O219 2.094 . S
Co192 O222 2.122 . S
Co193 O196 2.126 . S
Co193 H197 2.388 1_655 S
Co193 O198 2.053 1_655 S
Co193 O201 2.047 1_545 S
Co193 O207 2.113 . S
Co193 O218 2.063 . S
Co194 H195 2.388 1_455 S
Co194 O196 2.053 1_455 S
Co194 O198 2.126 . S
Co194 O203 2.063 . S
Co194 O217 2.047 . S
Co194 O223 2.113 . S
H195 Co192 2.400 . S
H195 Co194 2.388 1_655 S
H195 O196 0.760 . S
O196 Co192 2.009 . S
O196 Co193 2.126 . S
O196 Co194 2.053 1_655 S
O196 H195 0.760 . S
H197 Co193 2.388 1_455 S
H197 O198 0.760 . S
H197 Co199 2.400 . S
O198 Co193 2.053 1_455 S
O198 Co194 2.126 . S
O198 H197 0.760 . S
O198 Co199 2.009 . S
Co199 H197 2.400 . S
Co199 O198 2.009 . S
Co199 O200 2.053 1_545 S
Co199 O202 2.094 . S
Co199 O206 2.126 . S
Co199 O220 2.115 1_545 S
Co199 O221 2.315 . S
O200 Co199 2.053 1_565 S
O200 C212 1.259 1_455 S
O201 Co193 2.047 1_565 S
O201 C212 1.257 . S
O202 Co199 2.094 . S
O202 C213 1.253 . S
O203 Co194 2.063 . S
O203 C213 1.268 . S
O204 Co192 2.115 . S
O204 C214 1.281 . S
O205 Co192 2.315 . S
O205 C214 1.252 . S
O206 Co199 2.126 . S
O206 C215 1.272 1_445 S
O207 Co193 2.113 . S
O207 C215 1.245 1_545 S
C208 O216 1.259 . S
C208 O217 1.257 1_655 S
C209 O218 1.268 . S
C209 O219 1.253 . S
C210 O220 1.281 . S
C210 O221 1.252 1_565 S
C211 O222 1.272 1_455 S
C211 O223 1.245 . S
C212 O200 1.259 1_655 S
C212 O201 1.257 . S
C213 O202 1.253 . S
C213 O203 1.268 . S
C214 O204 1.281 . S
C214 O205 1.252 . S
C215 O206 1.272 1_665 S
C215 O207 1.245 1_565 S
O216 Co192 2.053 . S
O216 C208 1.259 . S
O217 Co194 2.047 . S
O217 C208 1.257 1_455 S
O218 Co193 2.063 . S
O218 C209 1.268 . S
O219 Co192 2.094 . S
O219 C209 1.253 . S
O220 Co199 2.115 1_565 S
O220 C210 1.281 . S
O221 Co199 2.315 . S
O221 C210 1.252 1_545 S
O222 Co192 2.122 . S
O222 C211 1.272 1_655 S
O223 Co194 2.113 . S
O223 C211 1.245 . S
Co224 H227 2.400 . S
Co224 O228 2.009 . S
Co224 O236 2.115 . S
Co224 O237 2.315 . S
Co224 O248 2.053 . S
Co224 O251 2.094 . S
Co224 O254 2.122 . S
Co225 O228 2.126 . S
Co225 H229 2.388 . S
Co225 O230 2.053 . S
Co225 O233 2.047 . S
Co225 O239 2.113 . S
Co225 O250 2.063 . S
Co226 H227 2.388 . S
Co226 O228 2.053 . S
Co226 O230 2.126 . S
Co226 O235 2.063 . S
Co226 O249 2.047 . S
Co226 O255 2.113 . S
H227 Co224 2.400 . S
H227 Co226 2.388 . S
H227 O228 0.760 . S
O228 Co224 2.009 . S
O228 Co225 2.126 . S
O228 Co226 2.053 . S
O228 H227 0.760 . S
H229 Co225 2.388 . S
H229 O230 0.760 . S
H229 Co231 2.400 . S
O230 Co225 2.053 . S
O230 Co226 2.126 . S
O230 H229 0.760 . S
O230 Co231 2.009 . S
Co231 H229 2.400 . S
Co231 O230 2.009 . S
Co231 O232 2.053 . S
Co231 O234 2.094 . S
Co231 O238 2.122 . S
Co231 O252 2.115 . S
Co231 O253 2.315 . S
O232 Co231 2.053 . S
O232 C244 1.259 . S
O233 Co225 2.047 . S
O233 C244 1.257 . S
O234 Co231 2.094 . S
O234 C245 1.253 . S
O235 Co226 2.063 . S
O235 C245 1.268 . S
O236 Co224 2.115 . S
O236 C246 1.281 . S
O237 Co224 2.315 . S
O237 C246 1.252 . S
O238 Co231 2.122 . S
O238 C247 1.272 . S
O239 Co225 2.113 . S
O239 C247 1.245 . S
C240 O248 1.259 . S
C240 O249 1.257 . S
C241 O250 1.268 . S
C241 O251 1.253 . S
C242 O252 1.281 . S
C242 O253 1.252 . S
C243 O254 1.272 . S
C243 O255 1.245 . S
C244 O232 1.259 . S
C244 O233 1.257 . S
C245 O234 1.253 . S
C245 O235 1.268 . S
C246 O236 1.281 . S
C246 O237 1.252 . S
C247 O238 1.272 . S
C247 O239 1.245 . S
O248 Co224 2.053 . S
O248 C240 1.259 . S
O249 Co226 2.047 . S
O249 C240 1.257 . S
O250 Co225 2.063 . S
O250 C241 1.268 . S
O251 Co224 2.094 . S
O251 C241 1.253 . S
O252 Co231 2.115 . S
O252 C242 1.281 . S
O253 Co231 2.315 . S
O253 C242 1.252 . S
O254 Co224 2.122 . S
O254 C243 1.272 . S
O255 Co226 2.113 . S
O255 C243 1.245 . S
Co256 H259 2.400 . S
Co256 O260 2.009 . S
Co256 O268 2.115 . S
Co256 O269 2.315 . S
Co256 O280 2.053 . S
Co256 O283 2.094 . S
Co256 O286 2.122 . S
Co257 O260 2.126 . S
Co257 H261 2.388 1_655 S
Co257 O262 2.053 1_655 S
Co257 O265 2.047 . S
Co257 O271 2.113 . S
Co257 O282 2.063 . S
Co258 H259 2.388 1_455 S
Co258 O260 2.053 1_455 S
Co258 O262 2.126 . S
Co258 O267 2.063 . S
Co258 O281 2.047 . S
Co258 O287 2.113 . S
H259 Co256 2.400 . S
H259 Co258 2.388 1_655 S
H259 O260 0.760 . S
O260 Co256 2.009 . S
O260 Co257 2.126 . S
O260 Co258 2.053 1_655 S
O260 H259 0.760 . S
H261 Co257 2.388 1_455 S
H261 O262 0.760 . S
H261 Co263 2.400 . S
O262 Co257 2.053 1_455 S
O262 Co258 2.126 . S
O262 H261 0.760 . S
O262 Co263 2.009 . S
Co263 H261 2.400 . S
Co263 O262 2.009 . S
Co263 O264 2.053 . S
Co263 O266 2.094 . S
Co263 O270 2.122 . S
Co263 O284 2.115 . S
Co263 O285 2.315 . S
O264 Co263 2.053 . S
O264 C276 1.259 . S
O265 Co257 2.047 . S
O265 C276 1.257 1_655 S
O266 Co263 2.094 . S
O266 C277 1.253 . S
O267 Co258 2.063 . S
O267 C277 1.268 . S
O268 Co256 2.115 . S
O268 C278 1.281 . S
O269 Co256 2.315 . S
O269 C278 1.252 . S
O270 Co263 2.122 . S
O270 C279 1.272 . S
O271 Co257 2.113 . S
O271 C279 1.245 1_655 S
C272 O280 1.252 1_455 S
C272 O281 1.263 . S
C273 O282 1.268 . S
C273 O283 1.253 . S
C274 O284 1.281 . S
C274 O285 1.252 . S
C275 O286 1.272 . S
C275 O287 1.245 1_655 S
C276 O264 1.259 . S
C276 O265 1.257 1_455 S
C277 O266 1.253 . S
C277 O267 1.268 . S
C278 O268 1.281 . S
C278 O269 1.252 . S
C279 O270 1.272 . S
C279 O271 1.245 1_455 S
O280 Co256 2.053 . S
O280 C272 1.252 1_655 S
O281 Co258 2.047 . S
O281 C272 1.263 . S
O282 Co257 2.063 . S
O282 C273 1.268 . S
O283 Co256 2.094 . S
O283 C273 1.253 . S
O284 Co263 2.115 . S
O284 C274 1.281 . S
O285 Co263 2.315 . S
O285 C274 1.252 . S
O286 Co256 2.122 . S
O286 C275 1.272 . S
O287 Co258 2.113 . S
O287 C275 1.245 1_455 S
Co288 H291 2.400 . S
Co288 O292 2.009 . S
Co288 O300 2.115 . S
Co288 O301 2.315 . S
Co288 O312 2.053 . S
Co288 O315 2.094 . S
Co288 O318 2.122 . S
Co289 O292 2.126 . S
Co289 H293 2.388 . S
Co289 O294 2.053 . S
Co289 O297 2.047 . S
Co289 O303 2.113 . S
Co289 O314 2.063 . S
Co290 H291 2.388 . S
Co290 O292 2.053 . S
Co290 O294 2.126 . S
Co290 O299 2.063 . S
Co290 O313 2.047 . S
Co290 O319 2.113 . S
H291 Co288 2.400 . S
H291 Co290 2.388 . S
H291 O292 0.760 . S
O292 Co288 2.009 . S
O292 Co289 2.126 . S
O292 Co290 2.053 . S
O292 H291 0.760 . S
H293 Co289 2.388 . S
H293 O294 0.760 . S
H293 Co295 2.400 . S
O294 Co289 2.053 . S
O294 Co290 2.126 . S
O294 H293 0.760 . S
O294 Co295 2.009 . S
Co295 H293 2.400 . S
Co295 O294 2.009 . S
Co295 O296 2.053 . S
Co295 O298 2.094 . S
Co295 O302 2.122 . S
Co295 O316 2.115 . S
Co295 O317 2.315 . S
O296 Co295 2.053 . S
O296 C308 1.259 . S
O297 Co289 2.047 . S
O297 C308 1.257 . S
O298 Co295 2.094 . S
O298 C309 1.253 . S
O299 Co290 2.063 . S
O299 C309 1.268 . S
O300 Co288 2.115 . S
O300 C310 1.281 . S
O301 Co288 2.315 . S
O301 C310 1.252 . S
O302 Co295 2.122 . S
O302 C311 1.272 . S
O303 Co289 2.113 . S
O303 C311 1.245 . S
C304 O312 1.259 . S
C304 O313 1.257 . S
C305 O314 1.268 . S
C305 O315 1.253 . S
C306 O316 1.281 . S
C306 O317 1.252 . S
C307 O318 1.272 . S
C307 O319 1.245 . S
C308 O296 1.259 . S
C308 O297 1.257 . S
C309 O298 1.253 . S
C309 O299 1.268 . S
C310 O300 1.281 . S
C310 O301 1.252 . S
C311 O302 1.272 . S
C311 O303 1.245 . S
O312 Co288 2.053 . S
O312 C304 1.259 . S
O313 Co290 2.047 . S
O313 C304 1.257 . S
O314 Co289 2.063 . S
O314 C305 1.268 . S
O315 Co288 2.094 . S
O315 C305 1.253 . S
O316 Co295 2.115 . S
O316 C306 1.281 . S
O317 Co295 2.315 . S
O317 C306 1.252 . S
O318 Co288 2.122 . S
O318 C307 1.272 . S
O319 Co290 2.113 . S
O319 C307 1.245 . S
Co320 H323 2.400 . S
Co320 O324 2.009 . S
Co320 O332 2.115 . S
Co320 O333 2.315 . S
Co320 O344 2.053 . S
Co320 O347 2.094 . S
Co320 O350 2.122 . S
Co321 O324 2.126 . S
Co321 H325 2.388 1_655 S
Co321 O326 2.053 1_655 S
Co321 O329 2.047 . S
Co321 O335 2.113 . S
Co321 O346 2.063 . S
Co322 H323 2.388 1_455 S
Co322 O324 2.053 1_455 S
Co322 O326 2.126 . S
Co322 O331 2.063 . S
Co322 O345 2.047 . S
Co322 O351 2.113 . S
H323 Co320 2.400 . S
H323 Co322 2.388 1_655 S
H323 O324 0.760 . S
O324 Co320 2.009 . S
O324 Co321 2.126 . S
O324 Co322 2.053 1_655 S
O324 H323 0.760 . S
H325 Co321 2.388 1_455 S
H325 O326 0.760 . S
H325 Co327 2.400 . S
O326 Co321 2.053 1_455 S
O326 Co322 2.126 . S
O326 H325 0.760 . S
O326 Co327 2.009 . S
Co327 H325 2.400 . S
Co327 O326 2.009 . S
Co327 O328 2.053 . S
Co327 O330 2.094 . S
Co327 O334 2.122 . S
Co327 O348 2.115 . S
Co327 O349 2.315 . S
O328 Co327 2.053 . S
O328 C340 1.259 . S
O329 Co321 2.047 . S
O329 C340 1.257 1_655 S
O330 Co327 2.094 . S
O330 C341 1.253 . S
O331 Co322 2.063 . S
O331 C341 1.268 . S
O332 Co320 2.115 . S
O332 C342 1.281 . S
O333 Co320 2.315 . S
O333 C342 1.252 . S
O334 Co327 2.122 . S
O334 C343 1.272 1_455 S
O335 Co321 2.113 . S
O335 C343 1.245 . S
C336 O344 1.259 1_455 S
C336 O345 1.257 . S
C337 O346 1.268 . S
C337 O347 1.253 . S
C338 O348 1.281 . S
C338 O349 1.252 . S
C339 O350 1.272 1_455 S
C339 O351 1.245 . S
C340 O328 1.259 . S
C340 O329 1.257 1_455 S
C341 O330 1.253 . S
C341 O331 1.268 . S
C342 O332 1.281 . S
C342 O333 1.252 . S
C343 O334 1.272 1_655 S
C343 O335 1.245 . S
O344 Co320 2.053 . S
O344 C336 1.259 1_655 S
O345 Co322 2.047 . S
O345 C336 1.257 . S
O346 Co321 2.063 . S
O346 C337 1.268 . S
O347 Co320 2.094 . S
O347 C337 1.253 . S
O348 Co327 2.115 . S
O348 C338 1.281 . S
O349 Co327 2.315 . S
O349 C338 1.252 . S
O350 Co320 2.122 . S
O350 C339 1.272 1_655 S
O351 Co322 2.113 . S
O351 C339 1.245 . S
Co352 H355 2.400 . S
Co352 O356 2.009 . S
Co352 O364 2.115 . S
Co352 O365 2.315 . S
Co352 O376 2.053 . S
Co352 O379 2.094 . S
Co352 O382 2.122 . S
Co353 O356 2.126 . S
Co353 H357 2.388 . S
Co353 O358 2.053 . S
Co353 O361 2.047 . S
Co353 O367 2.113 . S
Co353 O378 2.063 . S
Co354 H355 2.388 . S
Co354 O356 2.053 . S
Co354 O358 2.126 . S
Co354 O363 2.063 . S
Co354 O377 2.047 . S
Co354 O383 2.113 . S
H355 Co352 2.400 . S
H355 Co354 2.388 . S
H355 O356 0.760 . S
O356 Co352 2.009 . S
O356 Co353 2.126 . S
O356 Co354 2.053 . S
O356 H355 0.760 . S
H357 Co353 2.388 . S
H357 O358 0.760 . S
H357 Co359 2.400 . S
O358 Co353 2.053 . S
O358 Co354 2.126 . S
O358 H357 0.760 . S
O358 Co359 2.009 . S
Co359 H357 2.400 . S
Co359 O358 2.009 . S
Co359 O360 2.053 . S
Co359 O362 2.094 . S
Co359 O366 2.122 . S
Co359 O380 2.115 . S
Co359 O381 2.315 . S
O360 Co359 2.053 . S
O360 C372 1.259 . S
O361 Co353 2.047 . S
O361 C372 1.257 . S
O362 Co359 2.094 . S
O362 C373 1.253 . S
O363 Co354 2.063 . S
O363 C373 1.268 . S
O364 Co352 2.115 . S
O364 C374 1.281 . S
O365 Co352 2.315 . S
O365 C374 1.252 . S
O366 Co359 2.122 . S
O366 C375 1.272 . S
O367 Co353 2.113 . S
O367 C375 1.245 . S
C368 O376 1.259 . S
C368 O377 1.257 . S
C369 O378 1.268 . S
C369 O379 1.253 . S
C370 O380 1.281 . S
C370 O381 1.252 . S
C371 O382 1.272 . S
C371 O383 1.245 . S
C372 O360 1.259 . S
C372 O361 1.257 . S
C373 O362 1.253 . S
C373 O363 1.268 . S
C374 O364 1.281 . S
C374 O365 1.252 . S
C375 O366 1.272 . S
C375 O367 1.245 . S
O376 Co352 2.053 . S
O376 C368 1.259 . S
O377 Co354 2.047 . S
O377 C368 1.257 . S
O378 Co353 2.063 . S
O378 C369 1.268 . S
O379 Co352 2.094 . S
O379 C369 1.253 . S
O380 Co359 2.115 . S
O380 C370 1.281 . S
O381 Co359 2.315 . S
O381 C370 1.252 . S
O382 Co352 2.122 . S
O382 C371 1.272 . S
O383 Co354 2.113 . S
O383 C371 1.245 . S
Co384 H387 2.400 . S
Co384 O388 2.009 . S
Co384 O396 2.115 . S
Co384 O397 2.315 . S
Co384 O408 2.053 . S
Co384 O411 2.094 . S
Co384 O414 2.122 . S
Co385 O388 2.126 . S
Co385 H389 2.388 1_655 S
Co385 O390 2.053 1_655 S
Co385 O393 2.047 . S
Co385 O399 2.113 . S
Co385 O410 2.063 . S
Co386 H387 2.388 1_455 S
Co386 O388 2.053 1_455 S
Co386 O390 2.126 . S
Co386 O395 2.063 . S
Co386 O409 2.047 . S
Co386 O415 2.113 . S
H387 Co384 2.400 . S
H387 Co386 2.388 1_655 S
H387 O388 0.760 . S
O388 Co384 2.009 . S
O388 Co385 2.126 . S
O388 Co386 2.053 1_655 S
O388 H387 0.760 . S
H389 Co385 2.388 1_455 S
H389 O390 0.760 . S
H389 Co391 2.400 . S
O390 Co385 2.053 1_455 S
O390 Co386 2.126 . S
O390 H389 0.760 . S
O390 Co391 2.009 . S
Co391 H389 2.400 . S
Co391 O390 2.009 . S
Co391 O392 2.053 . S
Co391 O394 2.094 . S
Co391 O398 2.122 . S
Co391 O412 2.115 . S
Co391 O413 2.315 . S
O392 Co391 2.053 . S
O392 C404 1.252 1_455 S
O393 Co385 2.047 . S
O393 C404 1.263 . S
O394 Co391 2.094 . S
O394 C405 1.253 . S
O395 Co386 2.063 . S
O395 C405 1.268 . S
O396 Co384 2.115 . S
O396 C406 1.281 . S
O397 Co384 2.315 . S
O397 C406 1.252 . S
O398 Co391 2.122 . S
O398 C407 1.272 . S
O399 Co385 2.113 . S
O399 C407 1.245 1_655 S
C400 O408 1.259 . S
C400 O409 1.257 1_655 S
C401 O410 1.268 . S
C401 O411 1.253 . S
C402 O412 1.281 . S
C402 O413 1.252 . S
C403 O414 1.272 . S
C403 O415 1.245 1_655 S
C404 O392 1.252 1_655 S
C404 O393 1.263 . S
C405 O394 1.253 . S
C405 O395 1.268 . S
C406 O396 1.281 . S
C406 O397 1.252 . S
C407 O398 1.272 . S
C407 O399 1.245 1_455 S
O408 Co384 2.053 . S
O408 C400 1.259 . S
O409 Co386 2.047 . S
O409 C400 1.257 1_455 S
O410 Co385 2.063 . S
O410 C401 1.268 . S
O411 Co384 2.094 . S
O411 C401 1.253 . S
O412 Co391 2.115 . S
O412 C402 1.281 . S
O413 Co391 2.315 . S
O413 C402 1.252 . S
O414 Co384 2.122 . S
O414 C403 1.272 . S
O415 Co386 2.113 . S
O415 C403 1.245 1_455 S
Co416 H419 2.400 . S
Co416 O420 2.009 . S
Co416 O428 2.115 . S
Co416 O429 2.315 . S
Co416 O440 2.053 . S
Co416 O443 2.094 . S
Co416 O446 2.122 . S
Co417 O420 2.126 . S
Co417 H421 2.388 . S
Co417 O422 2.053 . S
Co417 O425 2.047 . S
Co417 O431 2.113 . S
Co417 O442 2.063 . S
Co418 H419 2.388 . S
Co418 O420 2.053 . S
Co418 O422 2.126 . S
Co418 O427 2.063 . S
Co418 O441 2.047 . S
Co418 O447 2.113 . S
H419 Co416 2.400 . S
H419 Co418 2.388 . S
H419 O420 0.760 . S
O420 Co416 2.009 . S
O420 Co417 2.126 . S
O420 Co418 2.053 . S
O420 H419 0.760 . S
H421 Co417 2.388 . S
H421 O422 0.760 . S
H421 Co423 2.400 . S
O422 Co417 2.053 . S
O422 Co418 2.126 . S
O422 H421 0.760 . S
O422 Co423 2.009 . S
Co423 H421 2.400 . S
Co423 O422 2.009 . S
Co423 O424 2.053 . S
Co423 O426 2.094 . S
Co423 O430 2.122 . S
Co423 O444 2.115 . S
Co423 O445 2.315 . S
O424 Co423 2.053 . S
O424 C436 1.259 . S
O425 Co417 2.047 . S
O425 C436 1.257 . S
O426 Co423 2.094 . S
O426 C437 1.253 . S
O427 Co418 2.063 . S
O427 C437 1.268 . S
O428 Co416 2.115 . S
O428 C438 1.281 . S
O429 Co416 2.315 . S
O429 C438 1.252 . S
O430 Co423 2.122 . S
O430 C439 1.272 . S
O431 Co417 2.113 . S
O431 C439 1.245 . S
C432 O440 1.259 . S
C432 O441 1.257 . S
C433 O442 1.268 . S
C433 O443 1.253 . S
C434 O444 1.281 . S
C434 O445 1.252 . S
C435 O446 1.272 . S
C435 O447 1.245 . S
C436 O424 1.259 . S
C436 O425 1.257 . S
C437 O426 1.253 . S
C437 O427 1.268 . S
C438 O428 1.281 . S
C438 O429 1.252 . S
C439 O430 1.272 . S
C439 O431 1.245 . S
O440 Co416 2.053 . S
O440 C432 1.259 . S
O441 Co418 2.047 . S
O441 C432 1.257 . S
O442 Co417 2.063 . S
O442 C433 1.268 . S
O443 Co416 2.094 . S
O443 C433 1.253 . S
O444 Co423 2.115 . S
O444 C434 1.281 . S
O445 Co423 2.315 . S
O445 C434 1.252 . S
O446 Co416 2.122 . S
O446 C435 1.272 . S
O447 Co418 2.113 . S
O447 C435 1.245 . S
Co448 H451 2.400 . S
Co448 O452 2.009 . S
Co448 O460 2.115 . S
Co448 O461 2.315 . S
Co448 O472 2.053 . S
Co448 O475 2.094 . S
Co448 O478 2.122 . S
Co449 O452 2.126 . S
Co449 H453 2.388 1_655 S
Co449 O454 2.053 1_655 S
Co449 O457 2.047 . S
Co449 O463 2.113 . S
Co449 O474 2.063 . S
Co450 H451 2.388 1_455 S
Co450 O452 2.053 1_455 S
Co450 O454 2.126 . S
Co450 O459 2.063 . S
Co450 O473 2.047 . S
Co450 O479 2.113 . S
H451 Co448 2.400 . S
H451 Co450 2.388 1_655 S
H451 O452 0.760 . S
O452 Co448 2.009 . S
O452 Co449 2.126 . S
O452 Co450 2.053 1_655 S
O452 H451 0.760 . S
H453 Co449 2.388 1_455 S
H453 O454 0.760 . S
H453 Co455 2.400 . S
O454 Co449 2.053 1_455 S
O454 Co450 2.126 . S
O454 H453 0.760 . S
O454 Co455 2.009 . S
Co455 H453 2.400 . S
Co455 O454 2.009 . S
Co455 O456 2.053 . S
Co455 O458 2.094 . S
Co455 O462 2.122 . S
Co455 O476 2.115 . S
Co455 O477 2.315 . S
O456 Co455 2.053 . S
O456 C468 1.259 1_455 S
O457 Co449 2.047 . S
O457 C468 1.257 . S
O458 Co455 2.094 . S
O458 C469 1.253 . S
O459 Co450 2.063 . S
O459 C469 1.268 . S
O460 Co448 2.115 . S
O460 C470 1.281 . S
O461 Co448 2.315 . S
O461 C470 1.252 . S
O462 Co455 2.122 . S
O462 C471 1.272 1_455 S
O463 Co449 2.113 . S
O463 C471 1.245 . S
C464 O472 1.259 . S
C464 O473 1.257 1_655 S
C465 O474 1.268 . S
C465 O475 1.253 . S
C466 O476 1.281 . S
C466 O477 1.252 . S
C467 O478 1.272 1_455 S
C467 O479 1.245 . S
C468 O456 1.259 1_655 S
C468 O457 1.257 . S
C469 O458 1.253 . S
C469 O459 1.268 . S
C470 O460 1.281 . S
C470 O461 1.252 . S
C471 O462 1.272 1_655 S
C471 O463 1.245 . S
O472 Co448 2.053 . S
O472 C464 1.259 . S
O473 Co450 2.047 . S
O473 C464 1.257 1_455 S
O474 Co449 2.063 . S
O474 C465 1.268 . S
O475 Co448 2.094 . S
O475 C465 1.253 . S
O476 Co455 2.115 . S
O476 C466 1.281 . S
O477 Co455 2.315 . S
O477 C466 1.252 . S
O478 Co448 2.122 . S
O478 C467 1.272 1_655 S
O479 Co450 2.113 . S
O479 C467 1.245 . S
Co480 H483 2.400 . S
Co480 O484 2.009 . S
Co480 O492 2.115 . S
Co480 O493 2.315 . S
Co480 O504 2.053 . S
Co480 O507 2.094 . S
Co480 O510 2.122 . S
Co481 O484 2.126 . S
Co481 H485 2.388 . S
Co481 O486 2.053 . S
Co481 O489 2.047 . S
Co481 O495 2.113 . S
Co481 O506 2.063 . S
Co482 H483 2.388 . S
Co482 O484 2.053 . S
Co482 O486 2.126 . S
Co482 O491 2.063 . S
Co482 O505 2.047 . S
Co482 O511 2.113 . S
H483 Co480 2.400 . S
H483 Co482 2.388 . S
H483 O484 0.760 . S
O484 Co480 2.009 . S
O484 Co481 2.126 . S
O484 Co482 2.053 . S
O484 H483 0.760 . S
H485 Co481 2.388 . S
H485 O486 0.760 . S
H485 Co487 2.400 . S
O486 Co481 2.053 . S
O486 Co482 2.126 . S
O486 H485 0.760 . S
O486 Co487 2.009 . S
Co487 H485 2.400 . S
Co487 O486 2.009 . S
Co487 O488 2.053 . S
Co487 O490 2.094 . S
Co487 O494 2.122 . S
Co487 O508 2.115 . S
Co487 O509 2.315 . S
O488 Co487 2.053 . S
O488 C500 1.259 . S
O489 Co481 2.047 . S
O489 C500 1.257 . S
O490 Co487 2.094 . S
O490 C501 1.253 . S
O491 Co482 2.063 . S
O491 C501 1.268 . S
O492 Co480 2.115 . S
O492 C502 1.281 . S
O493 Co480 2.315 . S
O493 C502 1.252 . S
O494 Co487 2.122 . S
O494 C503 1.272 . S
O495 Co481 2.113 . S
O495 C503 1.245 . S
C496 O504 1.259 . S
C496 O505 1.257 . S
C497 O506 1.268 . S
C497 O507 1.253 . S
C498 O508 1.281 . S
C498 O509 1.252 . S
C499 O510 1.272 . S
C499 O511 1.245 . S
C500 O488 1.259 . S
C500 O489 1.257 . S
C501 O490 1.253 . S
C501 O491 1.268 . S
C502 O492 1.281 . S
C502 O493 1.252 . S
C503 O494 1.272 . S
C503 O495 1.245 . S
O504 Co480 2.053 . S
O504 C496 1.259 . S
O505 Co482 2.047 . S
O505 C496 1.257 . S
O506 Co481 2.063 . S
O506 C497 1.268 . S
O507 Co480 2.094 . S
O507 C497 1.253 . S
O508 Co487 2.115 . S
O508 C498 1.281 . S
O509 Co487 2.315 . S
O509 C498 1.252 . S
O510 Co480 2.122 . S
O510 C499 1.272 . S
O511 Co482 2.113 . S
O511 C499 1.245 . S
Co512 H515 2.400 . S
Co512 O516 2.009 . S
Co512 O524 2.115 . S
Co512 O525 2.315 . S
Co512 O536 2.053 . S
Co512 O539 2.094 . S
Co512 O542 2.122 . S
Co513 O516 2.126 . S
Co513 H517 2.388 . S
Co513 O518 2.053 . S
Co513 O521 2.047 . S
Co513 O527 2.113 . S
Co513 O538 2.063 . S
Co514 H515 2.388 . S
Co514 O516 2.053 . S
Co514 O518 2.126 . S
Co514 O523 2.063 . S
Co514 O537 2.047 . S
Co514 O543 2.113 . S
H515 Co512 2.400 . S
H515 Co514 2.388 . S
H515 O516 0.760 . S
O516 Co512 2.009 . S
O516 Co513 2.126 . S
O516 Co514 2.053 . S
O516 H515 0.760 . S
H517 Co513 2.388 . S
H517 O518 0.760 . S
H517 Co519 2.400 . S
O518 Co513 2.053 . S
O518 Co514 2.126 . S
O518 H517 0.760 . S
O518 Co519 2.009 . S
Co519 H517 2.400 . S
Co519 O518 2.009 . S
Co519 O520 2.053 . S
Co519 O522 2.094 . S
Co519 O526 2.122 . S
Co519 O540 2.115 . S
Co519 O541 2.315 . S
O520 Co519 2.053 . S
O520 C532 1.259 . S
O521 Co513 2.047 . S
O521 C532 1.257 . S
O522 Co519 2.094 . S
O522 C533 1.253 . S
O523 Co514 2.063 . S
O523 C533 1.268 . S
O524 Co512 2.115 . S
O524 C534 1.281 . S
O525 Co512 2.315 . S
O525 C534 1.252 . S
O526 Co519 2.122 . S
O526 C535 1.272 . S
O527 Co513 2.113 . S
O527 C535 1.245 . S
C528 O536 1.259 . S
C528 O537 1.257 . S
C529 O538 1.268 . S
C529 O539 1.253 . S
C530 O540 1.281 . S
C530 O541 1.252 . S
C531 O542 1.272 . S
C531 O543 1.245 . S
C532 O520 1.259 . S
C532 O521 1.257 . S
C533 O522 1.253 . S
C533 O523 1.268 . S
C534 O524 1.281 . S
C534 O525 1.252 . S
C535 O526 1.272 . S
C535 O527 1.245 . S
O536 Co512 2.053 . S
O536 C528 1.259 . S
O537 Co514 2.047 . S
O537 C528 1.257 . S
O538 Co513 2.063 . S
O538 C529 1.268 . S
O539 Co512 2.094 . S
O539 C529 1.253 . S
O540 Co519 2.115 . S
O540 C530 1.281 . S
O541 Co519 2.315 . S
O541 C530 1.252 . S
O542 Co512 2.122 . S
O542 C531 1.272 . S
O543 Co514 2.113 . S
O543 C531 1.245 . S
Co544 H547 2.400 . S
Co544 O548 2.009 . S
Co544 O556 2.115 . S
Co544 O557 2.315 . S
Co544 O568 2.053 . S
Co544 O571 2.094 . S
Co544 O574 2.122 . S
Co545 O548 2.126 . S
Co545 H549 2.388 . S
Co545 O550 2.053 . S
Co545 O553 2.047 . S
Co545 O559 2.113 . S
Co545 O570 2.063 . S
Co546 H547 2.388 . S
Co546 O548 2.053 . S
Co546 O550 2.126 . S
Co546 O555 2.063 1_565 S
Co546 O569 2.047 . S
Co546 O575 2.113 . S
H547 Co544 2.400 . S
H547 Co546 2.388 . S
H547 O548 0.760 . S
O548 Co544 2.009 . S
O548 Co545 2.126 . S
O548 Co546 2.053 . S
O548 H547 0.760 . S
H549 Co545 2.388 . S
H549 O550 0.760 . S
H549 Co551 2.400 . S
O550 Co545 2.053 . S
O550 Co546 2.126 . S
O550 H549 0.760 . S
O550 Co551 2.009 . S
Co551 H549 2.400 . S
Co551 O550 2.009 . S
Co551 O552 2.053 . S
Co551 O554 2.094 . S
Co551 O558 2.122 . S
Co551 O572 2.115 . S
Co551 O573 2.315 . S
O552 Co551 2.053 . S
O552 C564 1.259 . S
O553 Co545 2.047 . S
O553 C564 1.257 . S
O554 Co551 2.094 . S
O554 C565 1.253 1_565 S
O555 Co546 2.063 1_545 S
O555 C565 1.268 . S
O556 Co544 2.115 . S
O556 C566 1.281 . S
O557 Co544 2.315 . S
O557 C566 1.252 . S
O558 Co551 2.122 . S
O558 C567 1.272 . S
O559 Co545 2.113 . S
O559 C567 1.245 . S
C560 O568 1.259 . S
C560 O569 1.257 . S
C561 O570 1.268 . S
C561 O571 1.253 . S
C562 O572 1.281 . S
C562 O573 1.252 . S
C563 O574 1.272 . S
C563 O575 1.245 . S
C564 O552 1.259 . S
C564 O553 1.257 . S
C565 O554 1.253 1_545 S
C565 O555 1.268 . S
C566 O556 1.281 . S
C566 O557 1.252 . S
C567 O558 1.272 . S
C567 O559 1.245 . S
O568 Co544 2.053 . S
O568 C560 1.259 . S
O569 Co546 2.047 . S
O569 C560 1.257 . S
O570 Co545 2.063 . S
O570 C561 1.268 . S
O571 Co544 2.094 . S
O571 C561 1.253 . S
O572 Co551 2.115 . S
O572 C562 1.281 . S
O573 Co551 2.315 . S
O573 C562 1.252 . S
O574 Co544 2.122 . S
O574 C563 1.272 . S
O575 Co546 2.113 . S
O575 C563 1.245 . S
Co576 H579 2.400 . S
Co576 O580 2.009 . S
Co576 O588 2.115 1_565 S
Co576 O589 2.315 . S
Co576 O600 2.053 1_565 S
Co576 O603 2.094 . S
Co576 O606 2.126 . S
Co577 O580 2.126 . S
Co577 H581 2.388 . S
Co577 O582 2.053 . S
Co577 O585 2.047 . S
Co577 O591 2.113 . S
Co577 O602 2.063 . S
Co578 H579 2.388 . S
Co578 O580 2.053 . S
Co578 O582 2.126 . S
Co578 O587 2.063 . S
Co578 O601 2.047 1_565 S
Co578 O607 2.113 . S
H579 Co576 2.400 . S
H579 Co578 2.388 . S
H579 O580 0.760 . S
O580 Co576 2.009 . S
O580 Co577 2.126 . S
O580 Co578 2.053 . S
O580 H579 0.760 . S
H581 Co577 2.388 . S
H581 O582 0.760 . S
H581 Co583 2.400 . S
O582 Co577 2.053 . S
O582 Co578 2.126 . S
O582 H581 0.760 . S
O582 Co583 2.009 . S
Co583 H581 2.400 . S
Co583 O582 2.009 . S
Co583 O584 2.053 . S
Co583 O586 2.094 . S
Co583 O590 2.122 . S
Co583 O604 2.115 . S
Co583 O605 2.315 . S
O584 Co583 2.053 . S
O584 C596 1.259 . S
O585 Co577 2.047 . S
O585 C596 1.257 . S
O586 Co583 2.094 . S
O586 C597 1.253 . S
O587 Co578 2.063 . S
O587 C597 1.268 . S
O588 Co576 2.115 1_545 S
O588 C598 1.281 . S
O589 Co576 2.315 . S
O589 C598 1.252 1_565 S
O590 Co583 2.122 . S
O590 C599 1.272 . S
O591 Co577 2.113 . S
O591 C599 1.245 . S
C592 O600 1.259 . S
C592 O601 1.257 . S
C593 O602 1.268 . S
C593 O603 1.253 . S
C594 O604 1.281 . S
C594 O605 1.252 . S
C595 O606 1.272 1_545 S
C595 O607 1.245 1_545 S
C596 O584 1.259 . S
C596 O585 1.257 . S
C597 O586 1.253 . S
C597 O587 1.268 . S
C598 O588 1.281 . S
C598 O589 1.252 1_545 S
C599 O590 1.272 . S
C599 O591 1.245 . S
O600 Co576 2.053 1_545 S
O600 C592 1.259 . S
O601 Co578 2.047 1_545 S
O601 C592 1.257 . S
O602 Co577 2.063 . S
O602 C593 1.268 . S
O603 Co576 2.094 . S
O603 C593 1.253 . S
O604 Co583 2.115 . S
O604 C594 1.281 . S
O605 Co583 2.315 . S
O605 C594 1.252 . S
O606 Co576 2.126 . S
O606 C595 1.272 1_565 S
O607 Co578 2.113 . S
O607 C595 1.245 1_565 S
Co608 H611 2.400 . S
Co608 O612 2.009 . S
Co608 O620 2.115 . S
Co608 O621 2.315 . S
Co608 O632 2.053 . S
Co608 O635 2.094 . S
Co608 O638 2.122 . S
Co609 O612 2.126 . S
Co609 H613 2.388 . S
Co609 O614 2.053 . S
Co609 O617 2.047 . S
Co609 O623 2.113 . S
Co609 O634 2.063 . S
Co610 H611 2.388 . S
Co610 O612 2.053 . S
Co610 O614 2.126 . S
Co610 O619 2.063 . S
Co610 O633 2.047 . S
Co610 O639 2.113 . S
H611 Co608 2.400 . S
H611 Co610 2.388 . S
H611 O612 0.760 . S
O612 Co608 2.009 . S
O612 Co609 2.126 . S
O612 Co610 2.053 . S
O612 H611 0.760 . S
H613 Co609 2.388 . S
H613 O614 0.760 . S
H613 Co615 2.400 . S
O614 Co609 2.053 . S
O614 Co610 2.126 . S
O614 H613 0.760 . S
O614 Co615 2.009 . S
Co615 H613 2.400 . S
Co615 O614 2.009 . S
Co615 O616 2.053 . S
Co615 O618 2.094 . S
Co615 O622 2.122 . S
Co615 O636 2.115 . S
Co615 O637 2.315 . S
O616 Co615 2.053 . S
O616 C628 1.259 . S
O617 Co609 2.047 . S
O617 C628 1.257 . S
O618 Co615 2.094 . S
O618 C629 1.253 . S
O619 Co610 2.063 . S
O619 C629 1.268 . S
O620 Co608 2.115 . S
O620 C630 1.281 . S
O621 Co608 2.315 . S
O621 C630 1.252 . S
O622 Co615 2.122 . S
O622 C631 1.272 . S
O623 Co609 2.113 . S
O623 C631 1.245 . S
C624 O632 1.259 . S
C624 O633 1.257 . S
C625 O634 1.268 . S
C625 O635 1.253 . S
C626 O636 1.281 . S
C626 O637 1.252 . S
C627 O638 1.272 . S
C627 O639 1.245 . S
C628 O616 1.259 . S
C628 O617 1.257 . S
C629 O618 1.253 . S
C629 O619 1.268 . S
C630 O620 1.281 . S
C630 O621 1.252 . S
C631 O622 1.272 . S
C631 O623 1.245 . S
O632 Co608 2.053 . S
O632 C624 1.259 . S
O633 Co610 2.047 . S
O633 C624 1.257 . S
O634 Co609 2.063 . S
O634 C625 1.268 . S
O635 Co608 2.094 . S
O635 C625 1.253 . S
O636 Co615 2.115 . S
O636 C626 1.281 . S
O637 Co615 2.315 . S
O637 C626 1.252 . S
O638 Co608 2.122 . S
O638 C627 1.272 . S
O639 Co610 2.113 . S
O639 C627 1.245 . S
Co640 H643 2.400 . S
Co640 O644 2.009 . S
Co640 O652 2.115 . S
Co640 O653 2.315 . S
Co640 O664 2.053 . S
Co640 O667 2.094 . S
Co640 O670 2.122 . S
Co641 O644 2.126 . S
Co641 H645 2.388 . S
Co641 O646 2.053 . S
Co641 O649 2.047 . S
Co641 O655 2.113 . S
Co641 O666 2.063 . S
Co642 H643 2.388 . S
Co642 O644 2.053 . S
Co642 O646 2.126 . S
Co642 O651 2.063 . S
Co642 O665 2.047 . S
Co642 O671 2.113 . S
H643 Co640 2.400 . S
H643 Co642 2.388 . S
H643 O644 0.760 . S
O644 Co640 2.009 . S
O644 Co641 2.126 . S
O644 Co642 2.053 . S
O644 H643 0.760 . S
H645 Co641 2.388 . S
H645 O646 0.760 . S
H645 Co647 2.400 . S
O646 Co641 2.053 . S
O646 Co642 2.126 . S
O646 H645 0.760 . S
O646 Co647 2.009 . S
Co647 H645 2.400 . S
Co647 O646 2.009 . S
Co647 O648 2.053 . S
Co647 O650 2.094 . S
Co647 O654 2.122 . S
Co647 O668 2.115 . S
Co647 O669 2.315 . S
O648 Co647 2.053 . S
O648 C660 1.259 . S
O649 Co641 2.047 . S
O649 C660 1.257 . S
O650 Co647 2.094 . S
O650 C661 1.253 . S
O651 Co642 2.063 . S
O651 C661 1.268 . S
O652 Co640 2.115 . S
O652 C662 1.281 . S
O653 Co640 2.315 . S
O653 C662 1.252 . S
O654 Co647 2.122 . S
O654 C663 1.272 . S
O655 Co641 2.113 . S
O655 C663 1.245 . S
C656 O664 1.259 . S
C656 O665 1.257 . S
C657 O666 1.268 . S
C657 O667 1.253 . S
C658 O668 1.281 . S
C658 O669 1.252 . S
C659 O670 1.272 . S
C659 O671 1.245 . S
C660 O648 1.259 . S
C660 O649 1.257 . S
C661 O650 1.253 . S
C661 O651 1.268 . S
C662 O652 1.281 . S
C662 O653 1.252 . S
C663 O654 1.272 . S
C663 O655 1.245 . S
O664 Co640 2.053 . S
O664 C656 1.259 . S
O665 Co642 2.047 . S
O665 C656 1.257 . S
O666 Co641 2.063 . S
O666 C657 1.268 . S
O667 Co640 2.094 . S
O667 C657 1.253 . S
O668 Co647 2.115 . S
O668 C658 1.281 . S
O669 Co647 2.315 . S
O669 C658 1.252 . S
O670 Co640 2.122 . S
O670 C659 1.272 . S
O671 Co642 2.113 . S
O671 C659 1.245 . S
Co672 H675 2.400 . S
Co672 O676 2.009 . S
Co672 O684 2.115 . S
Co672 O685 2.315 . S
Co672 O696 2.053 . S
Co672 O699 2.094 . S
Co672 O702 2.122 . S
Co673 O676 2.126 . S
Co673 H677 2.388 . S
Co673 O678 2.053 . S
Co673 O681 2.047 . S
Co673 O687 2.113 . S
Co673 O698 2.063 1_545 S
Co674 H675 2.388 . S
Co674 O676 2.053 . S
Co674 O678 2.126 . S
Co674 O683 2.063 . S
Co674 O697 2.047 . S
Co674 O703 2.113 . S
H675 Co672 2.400 . S
H675 Co674 2.388 . S
H675 O676 0.760 . S
O676 Co672 2.009 . S
O676 Co673 2.126 . S
O676 Co674 2.053 . S
O676 H675 0.760 . S
H677 Co673 2.388 . S
H677 O678 0.760 . S
H677 Co679 2.400 . S
O678 Co673 2.053 . S
O678 Co674 2.126 . S
O678 H677 0.760 . S
O678 Co679 2.009 . S
Co679 H677 2.400 . S
Co679 O678 2.009 . S
Co679 O680 2.053 . S
Co679 O682 2.094 . S
Co679 O686 2.122 . S
Co679 O700 2.115 . S
Co679 O701 2.315 . S
O680 Co679 2.053 . S
O680 C692 1.259 . S
O681 Co673 2.047 . S
O681 C692 1.257 . S
O682 Co679 2.094 . S
O682 C693 1.253 . S
O683 Co674 2.063 . S
O683 C693 1.268 . S
O684 Co672 2.115 . S
O684 C694 1.281 . S
O685 Co672 2.315 . S
O685 C694 1.252 . S
O686 Co679 2.122 . S
O686 C695 1.272 . S
O687 Co673 2.113 . S
O687 C695 1.245 . S
C688 O696 1.259 . S
C688 O697 1.257 . S
C689 O698 1.268 . S
C689 O699 1.253 1_565 S
C690 O700 1.281 . S
C690 O701 1.252 . S
C691 O702 1.272 . S
C691 O703 1.245 . S
C692 O680 1.259 . S
C692 O681 1.257 . S
C693 O682 1.253 . S
C693 O683 1.268 . S
C694 O684 1.281 . S
C694 O685 1.252 . S
C695 O686 1.272 . S
C695 O687 1.245 . S
O696 Co672 2.053 . S
O696 C688 1.259 . S
O697 Co674 2.047 . S
O697 C688 1.257 . S
O698 Co673 2.063 1_565 S
O698 C689 1.268 . S
O699 Co672 2.094 . S
O699 C689 1.253 1_545 S
O700 Co679 2.115 . S
O700 C690 1.281 . S
O701 Co679 2.315 . S
O701 C690 1.252 . S
O702 Co672 2.122 . S
O702 C691 1.272 . S
O703 Co674 2.113 . S
O703 C691 1.245 . S
Co704 H707 2.400 . S
Co704 O708 2.009 . S
Co704 O716 2.115 . S
Co704 O717 2.315 . S
Co704 O728 2.053 . S
Co704 O731 2.094 . S
Co704 O734 2.122 . S
Co705 O708 2.126 . S
Co705 H709 2.388 . S
Co705 O710 2.053 . S
Co705 O713 2.047 1_545 S
Co705 O719 2.113 . S
Co705 O730 2.063 . S
Co706 H707 2.388 . S
Co706 O708 2.053 . S
Co706 O710 2.126 . S
Co706 O715 2.063 . S
Co706 O729 2.047 . S
Co706 O735 2.113 . S
H707 Co704 2.400 . S
H707 Co706 2.388 . S
H707 O708 0.760 . S
O708 Co704 2.009 . S
O708 Co705 2.126 . S
O708 Co706 2.053 . S
O708 H707 0.760 . S
H709 Co705 2.388 . S
H709 O710 0.760 . S
H709 Co711 2.400 . S
O710 Co705 2.053 . S
O710 Co706 2.126 . S
O710 H709 0.760 . S
O710 Co711 2.009 . S
Co711 H709 2.400 . S
Co711 O710 2.009 . S
Co711 O712 2.053 1_545 S
Co711 O714 2.094 . S
Co711 O718 2.126 . S
Co711 O732 2.115 1_545 S
Co711 O733 2.315 . S
O712 Co711 2.053 1_565 S
O712 C724 1.259 . S
O713 Co705 2.047 1_565 S
O713 C724 1.257 . S
O714 Co711 2.094 . S
O714 C725 1.253 . S
O715 Co706 2.063 . S
O715 C725 1.268 . S
O716 Co704 2.115 . S
O716 C726 1.281 . S
O717 Co704 2.315 . S
O717 C726 1.252 . S
O718 Co711 2.126 . S
O718 C727 1.272 1_545 S
O719 Co705 2.113 . S
O719 C727 1.245 1_545 S
C720 O728 1.259 . S
C720 O729 1.257 . S
C721 O730 1.268 . S
C721 O731 1.253 . S
C722 O732 1.281 . S
C722 O733 1.252 1_565 S
C723 O734 1.272 . S
C723 O735 1.245 . S
C724 O712 1.259 . S
C724 O713 1.257 . S
C725 O714 1.253 . S
C725 O715 1.268 . S
C726 O716 1.281 . S
C726 O717 1.252 . S
C727 O718 1.272 1_565 S
C727 O719 1.245 1_565 S
O728 Co704 2.053 . S
O728 C720 1.259 . S
O729 Co706 2.047 . S
O729 C720 1.257 . S
O730 Co705 2.063 . S
O730 C721 1.268 . S
O731 Co704 2.094 . S
O731 C721 1.253 . S
O732 Co711 2.115 1_565 S
O732 C722 1.281 . S
O733 Co711 2.315 . S
O733 C722 1.252 1_545 S
O734 Co704 2.122 . S
O734 C723 1.272 . S
O735 Co706 2.113 . S
O735 C723 1.245 . S
Co736 H739 2.400 . S
Co736 O740 2.009 . S
Co736 O748 2.115 . S
Co736 O749 2.315 . S
Co736 O760 2.053 . S
Co736 O763 2.094 . S
Co736 O766 2.122 . S
Co737 O740 2.126 . S
Co737 H741 2.388 . S
Co737 O742 2.053 . S
Co737 O745 2.047 . S
Co737 O751 2.113 . S
Co737 O762 2.063 . S
Co738 H739 2.388 . S
Co738 O740 2.053 . S
Co738 O742 2.126 . S
Co738 O747 2.063 . S
Co738 O761 2.047 . S
Co738 O767 2.113 . S
H739 Co736 2.400 . S
H739 Co738 2.388 . S
H739 O740 0.760 . S
O740 Co736 2.009 . S
O740 Co737 2.126 . S
O740 Co738 2.053 . S
O740 H739 0.760 . S
H741 Co737 2.388 . S
H741 O742 0.760 . S
H741 Co743 2.400 . S
O742 Co737 2.053 . S
O742 Co738 2.126 . S
O742 H741 0.760 . S
O742 Co743 2.009 . S
Co743 H741 2.400 . S
Co743 O742 2.009 . S
Co743 O744 2.053 . S
Co743 O746 2.094 . S
Co743 O750 2.122 . S
Co743 O764 2.115 . S
Co743 O765 2.315 . S
O744 Co743 2.053 . S
O744 C756 1.259 . S
O745 Co737 2.047 . S
O745 C756 1.257 . S
O746 Co743 2.094 . S
O746 C757 1.253 . S
O747 Co738 2.063 . S
O747 C757 1.268 . S
O748 Co736 2.115 . S
O748 C758 1.281 . S
O749 Co736 2.315 . S
O749 C758 1.252 . S
O750 Co743 2.122 . S
O750 C759 1.272 . S
O751 Co737 2.113 . S
O751 C759 1.245 . S
C752 O760 1.259 . S
C752 O761 1.257 . S
C753 O762 1.268 . S
C753 O763 1.253 . S
C754 O764 1.281 . S
C754 O765 1.252 . S
C755 O766 1.272 . S
C755 O767 1.245 . S
C756 O744 1.259 . S
C756 O745 1.257 . S
C757 O746 1.253 . S
C757 O747 1.268 . S
C758 O748 1.281 . S
C758 O749 1.252 . S
C759 O750 1.272 . S
C759 O751 1.245 . S
O760 Co736 2.053 . S
O760 C752 1.259 . S
O761 Co738 2.047 . S
O761 C752 1.257 . S
O762 Co737 2.063 . S
O762 C753 1.268 . S
O763 Co736 2.094 . S
O763 C753 1.253 . S
O764 Co743 2.115 . S
O764 C754 1.281 . S
O765 Co743 2.315 . S
O765 C754 1.252 . S
O766 Co736 2.122 . S
O766 C755 1.272 . S
O767 Co738 2.113 . S
O767 C755 1.245 . S
Co768 H771 2.400 . S
Co768 O772 2.009 . S
Co768 O780 2.115 . S
Co768 O781 2.315 . S
Co768 O792 2.053 . S
Co768 O795 2.094 1_554 S
Co768 O798 2.122 1_554 S
Co769 O772 2.126 . S
Co769 H773 2.377 1_554 S
Co769 O774 2.053 . S
Co769 O777 2.047 1_554 S
Co769 O783 2.113 . S
Co769 O794 2.063 . S
Co770 H771 2.388 . S
Co770 O772 2.053 . S
Co770 O774 2.126 . S
Co770 O779 2.063 . S
Co770 O793 2.047 . S
Co770 O799 2.113 1_554 S
H771 Co768 2.400 . S
H771 Co770 2.388 . S
H771 O772 0.760 . S
O772 Co768 2.009 . S
O772 Co769 2.126 . S
O772 Co770 2.053 . S
O772 H771 0.760 . S
H773 Co769 2.377 1_556 S
H773 O774 0.733 1_556 S
H773 Co775 2.384 1_556 S
O774 Co769 2.053 . S
O774 Co770 2.126 . S
O774 H773 0.733 1_554 S
O774 Co775 2.009 . S
Co775 H773 2.384 1_554 S
Co775 O774 2.009 . S
Co775 O776 2.053 . S
Co775 O778 2.094 . S
Co775 O782 2.122 . S
Co775 O796 2.115 . S
Co775 O797 2.319 . S
O776 Co775 2.053 . S
O776 C788 1.254 1_554 S
O777 Co769 2.047 1_556 S
O777 C788 1.259 . S
O778 Co775 2.094 . S
O778 C789 1.253 . S
O779 Co770 2.063 . S
O779 C789 1.268 . S
O780 Co768 2.115 . S
O780 C790 1.281 . S
O781 Co768 2.315 . S
O781 C790 1.252 . S
O782 Co775 2.122 . S
O782 C791 1.272 . S
O783 Co769 2.113 . S
O783 C791 1.245 . S
C784 O792 1.259 . S
C784 O793 1.257 . S
C785 O794 1.268 . S
C785 O795 1.253 1_554 S
C786 O796 1.281 . S
C786 O797 1.255 . S
C787 O798 1.272 . S
C787 O799 1.245 . S
C788 O776 1.254 1_556 S
C788 O777 1.259 . S
C789 O778 1.253 . S
C789 O779 1.268 . S
C790 O780 1.281 . S
C790 O781 1.252 . S
C791 O782 1.272 . S
C791 O783 1.245 . S
O792 Co768 2.053 . S
O792 C784 1.259 . S
O793 Co770 2.047 . S
O793 C784 1.257 . S
O794 Co769 2.063 . S
O794 C785 1.268 . S
O795 Co768 2.094 1_556 S
O795 C785 1.253 1_556 S
O796 Co775 2.115 . S
O796 C786 1.281 . S
O797 Co775 2.319 . S
O797 C786 1.255 . S
O798 Co768 2.122 1_556 S
O798 C787 1.272 . S
O799 Co770 2.113 1_556 S
O799 C787 1.245 . S
Co800 H803 2.400 . S
Co800 O804 2.009 . S
Co800 O812 2.115 1_554 S
Co800 O813 2.315 . S
Co800 O824 2.053 . S
Co800 O827 2.094 1_554 S
Co800 O830 2.122 1_554 S
Co801 O804 2.126 . S
Co801 H805 2.388 . S
Co801 O806 2.053 . S
Co801 O809 2.047 . S
Co801 O815 2.113 . S
Co801 O826 2.063 . S
Co802 H803 2.388 . S
Co802 O804 2.053 . S
Co802 O806 2.126 . S
Co802 O811 2.063 . S
Co802 O825 2.047 . S
Co802 O831 2.113 . S
H803 Co800 2.400 . S
H803 Co802 2.388 . S
H803 O804 0.760 . S
O804 Co800 2.009 . S
O804 Co801 2.126 . S
O804 Co802 2.053 . S
O804 H803 0.760 . S
H805 Co801 2.388 . S
H805 O806 0.760 . S
H805 Co807 2.400 . S
O806 Co801 2.053 . S
O806 Co802 2.126 . S
O806 H805 0.760 . S
O806 Co807 2.009 . S
Co807 H805 2.400 . S
Co807 O806 2.009 . S
Co807 O808 2.053 . S
Co807 O810 2.094 . S
Co807 O814 2.122 . S
Co807 O828 2.115 . S
Co807 O829 2.315 . S
O808 Co807 2.053 . S
O808 C820 1.259 . S
O809 Co801 2.047 . S
O809 C820 1.257 . S
O810 Co807 2.094 . S
O810 C821 1.253 . S
O811 Co802 2.063 . S
O811 C821 1.268 . S
O812 Co800 2.115 1_556 S
O812 C822 1.281 1_556 S
O813 Co800 2.315 . S
O813 C822 1.252 . S
O814 Co807 2.122 . S
O814 C823 1.272 . S
O815 Co801 2.113 . S
O815 C823 1.245 . S
C816 O824 1.259 . S
C816 O825 1.257 . S
C817 O826 1.268 . S
C817 O827 1.253 1_554 S
C818 O828 1.281 . S
C818 O829 1.252 . S
C819 O830 1.272 . S
C819 O831 1.245 1_556 S
C820 O808 1.259 . S
C820 O809 1.257 . S
C821 O810 1.253 . S
C821 O811 1.268 . S
C822 O812 1.281 1_554 S
C822 O813 1.252 . S
C823 O814 1.272 . S
C823 O815 1.245 . S
O824 Co800 2.053 . S
O824 C816 1.259 . S
O825 Co802 2.047 . S
O825 C816 1.257 . S
O826 Co801 2.063 . S
O826 C817 1.268 . S
O827 Co800 2.094 1_556 S
O827 C817 1.253 1_556 S
O828 Co807 2.115 . S
O828 C818 1.281 . S
O829 Co807 2.315 . S
O829 C818 1.252 . S
O830 Co800 2.122 1_556 S
O830 C819 1.272 . S
O831 Co802 2.113 . S
O831 C819 1.245 1_554 S
Co832 H835 2.400 . S
Co832 O836 2.009 . S
Co832 O844 2.115 . S
Co832 O845 2.315 . S
Co832 O856 2.053 . S
Co832 O859 2.094 . S
Co832 O862 2.122 . S
Co833 O836 2.126 . S
Co833 H837 2.388 . S
Co833 O838 2.053 . S
Co833 O841 2.047 . S
Co833 O847 2.113 . S
Co833 O858 2.063 . S
Co834 H835 2.388 . S
Co834 O836 2.053 . S
Co834 O838 2.126 . S
Co834 O843 2.063 . S
Co834 O857 2.047 . S
Co834 O863 2.113 . S
H835 Co832 2.400 . S
H835 Co834 2.388 . S
H835 O836 0.760 . S
O836 Co832 2.009 . S
O836 Co833 2.126 . S
O836 Co834 2.053 . S
O836 H835 0.760 . S
H837 Co833 2.388 . S
H837 O838 0.760 . S
H837 Co839 2.400 . S
O838 Co833 2.053 . S
O838 Co834 2.126 . S
O838 H837 0.760 . S
O838 Co839 2.009 . S
Co839 H837 2.400 . S
Co839 O838 2.009 . S
Co839 O840 2.053 . S
Co839 O842 2.094 . S
Co839 O846 2.122 . S
Co839 O860 2.115 . S
Co839 O861 2.315 . S
O840 Co839 2.053 . S
O840 C852 1.259 . S
O841 Co833 2.047 . S
O841 C852 1.257 . S
O842 Co839 2.094 . S
O842 C853 1.253 . S
O843 Co834 2.063 . S
O843 C853 1.268 . S
O844 Co832 2.115 . S
O844 C854 1.281 . S
O845 Co832 2.315 . S
O845 C854 1.252 . S
O846 Co839 2.122 . S
O846 C855 1.272 . S
O847 Co833 2.113 . S
O847 C855 1.245 . S
C848 O856 1.259 . S
C848 O857 1.257 . S
C849 O858 1.268 . S
C849 O859 1.253 . S
C850 O860 1.281 . S
C850 O861 1.252 . S
C851 O862 1.272 . S
C851 O863 1.245 . S
C852 O840 1.259 . S
C852 O841 1.257 . S
C853 O842 1.253 . S
C853 O843 1.268 . S
C854 O844 1.281 . S
C854 O845 1.252 . S
C855 O846 1.272 . S
C855 O847 1.245 . S
O856 Co832 2.053 . S
O856 C848 1.259 . S
O857 Co834 2.047 . S
O857 C848 1.257 . S
O858 Co833 2.063 . S
O858 C849 1.268 . S
O859 Co832 2.094 . S
O859 C849 1.253 . S
O860 Co839 2.115 . S
O860 C850 1.281 . S
O861 Co839 2.315 . S
O861 C850 1.252 . S
O862 Co832 2.122 . S
O862 C851 1.272 . S
O863 Co834 2.113 . S
O863 C851 1.245 . S
Co864 H867 2.400 . S
Co864 O868 2.009 . S
Co864 O876 2.115 . S
Co864 O877 2.315 . S
Co864 O888 2.053 . S
Co864 O891 2.094 . S
Co864 O894 2.122 . S
Co865 O868 2.126 . S
Co865 H869 2.388 . S
Co865 O870 2.053 . S
Co865 O873 2.047 . S
Co865 O879 2.113 . S
Co865 O890 2.063 . S
Co866 H867 2.388 . S
Co866 O868 2.053 . S
Co866 O870 2.126 . S
Co866 O875 2.063 . S
Co866 O889 2.047 . S
Co866 O895 2.113 . S
H867 Co864 2.400 . S
H867 Co866 2.388 . S
H867 O868 0.760 . S
O868 Co864 2.009 . S
O868 Co865 2.126 . S
O868 Co866 2.053 . S
O868 H867 0.760 . S
H869 Co865 2.388 . S
H869 O870 0.760 . S
H869 Co871 2.400 . S
O870 Co865 2.053 . S
O870 Co866 2.126 . S
O870 H869 0.760 . S
O870 Co871 2.009 . S
Co871 H869 2.400 . S
Co871 O870 2.009 . S
Co871 O872 2.053 . S
Co871 O874 2.094 . S
Co871 O878 2.122 . S
Co871 O892 2.115 . S
Co871 O893 2.315 . S
O872 Co871 2.053 . S
O872 C884 1.259 . S
O873 Co865 2.047 . S
O873 C884 1.257 . S
O874 Co871 2.094 . S
O874 C885 1.253 . S
O875 Co866 2.063 . S
O875 C885 1.268 . S
O876 Co864 2.115 . S
O876 C886 1.281 . S
O877 Co864 2.315 . S
O877 C886 1.252 . S
O878 Co871 2.122 . S
O878 C887 1.272 . S
O879 Co865 2.113 . S
O879 C887 1.245 . S
C880 O888 1.259 . S
C880 O889 1.257 . S
C881 O890 1.268 . S
C881 O891 1.253 . S
C882 O892 1.281 . S
C882 O893 1.252 . S
C883 O894 1.272 . S
C883 O895 1.245 . S
C884 O872 1.259 . S
C884 O873 1.257 . S
C885 O874 1.253 . S
C885 O875 1.268 . S
C886 O876 1.281 . S
C886 O877 1.252 . S
C887 O878 1.272 . S
C887 O879 1.245 . S
O888 Co864 2.053 . S
O888 C880 1.259 . S
O889 Co866 2.047 . S
O889 C880 1.257 . S
O890 Co865 2.063 . S
O890 C881 1.268 . S
O891 Co864 2.094 . S
O891 C881 1.253 . S
O892 Co871 2.115 . S
O892 C882 1.281 . S
O893 Co871 2.315 . S
O893 C882 1.252 . S
O894 Co864 2.122 . S
O894 C883 1.272 . S
O895 Co866 2.113 . S
O895 C883 1.245 . S
Co896 H899 2.384 1_556 S
Co896 O900 2.009 . S
Co896 O908 2.115 . S
Co896 O909 2.319 . S
Co896 O920 2.053 . S
Co896 O923 2.094 . S
Co896 O926 2.122 . S
Co897 O900 2.126 . S
Co897 H901 2.388 . S
Co897 O902 2.053 . S
Co897 O905 2.047 . S
Co897 O911 2.113 1_556 S
Co897 O922 2.063 . S
Co898 H899 2.377 1_556 S
Co898 O900 2.053 . S
Co898 O902 2.126 . S
Co898 O907 2.063 . S
Co898 O921 2.047 1_556 S
Co898 O927 2.113 . S
H899 Co896 2.384 1_554 S
H899 Co898 2.377 1_554 S
H899 O900 0.733 1_554 S
O900 Co896 2.009 . S
O900 Co897 2.126 . S
O900 Co898 2.053 . S
O900 H899 0.733 1_556 S
H901 Co897 2.388 . S
H901 O902 0.760 . S
H901 Co903 2.400 . S
O902 Co897 2.053 . S
O902 Co898 2.126 . S
O902 H901 0.760 . S
O902 Co903 2.009 . S
Co903 H901 2.400 . S
Co903 O902 2.009 . S
Co903 O904 2.053 . S
Co903 O906 2.094 1_556 S
Co903 O910 2.122 1_556 S
Co903 O924 2.115 . S
Co903 O925 2.315 . S
O904 Co903 2.053 . S
O904 C916 1.259 . S
O905 Co897 2.047 . S
O905 C916 1.257 . S
O906 Co903 2.094 1_554 S
O906 C917 1.253 1_554 S
O907 Co898 2.063 . S
O907 C917 1.268 . S
O908 Co896 2.115 . S
O908 C918 1.281 . S
O909 Co896 2.319 . S
O909 C918 1.255 . S
O910 Co903 2.122 1_554 S
O910 C919 1.272 . S
O911 Co897 2.113 1_554 S
O911 C919 1.245 . S
C912 O920 1.254 1_554 S
C912 O921 1.259 . S
C913 O922 1.268 . S
C913 O923 1.253 . S
C914 O924 1.281 . S
C914 O925 1.252 . S
C915 O926 1.272 . S
C915 O927 1.245 . S
C916 O904 1.259 . S
C916 O905 1.257 . S
C917 O906 1.253 1_556 S
C917 O907 1.268 . S
C918 O908 1.281 . S
C918 O909 1.255 . S
C919 O910 1.272 . S
C919 O911 1.245 . S
O920 Co896 2.053 . S
O920 C912 1.254 1_556 S
O921 Co898 2.047 1_554 S
O921 C912 1.259 . S
O922 Co897 2.063 . S
O922 C913 1.268 . S
O923 Co896 2.094 . S
O923 C913 1.253 . S
O924 Co903 2.115 . S
O924 C914 1.281 . S
O925 Co903 2.315 . S
O925 C914 1.252 . S
O926 Co896 2.122 . S
O926 C915 1.272 . S
O927 Co898 2.113 . S
O927 C915 1.245 . S
Co928 H931 2.400 . S
Co928 O932 2.009 . S
Co928 O940 2.115 . S
Co928 O941 2.315 . S
Co928 O952 2.053 . S
Co928 O955 2.094 . S
Co928 O958 2.122 . S
Co929 O932 2.126 . S
Co929 H933 2.388 . S
Co929 O934 2.053 . S
Co929 O937 2.047 . S
Co929 O943 2.113 . S
Co929 O954 2.063 . S
Co930 H931 2.388 . S
Co930 O932 2.053 . S
Co930 O934 2.126 . S
Co930 O939 2.063 . S
Co930 O953 2.047 . S
Co930 O959 2.113 . S
H931 Co928 2.400 . S
H931 Co930 2.388 . S
H931 O932 0.760 . S
O932 Co928 2.009 . S
O932 Co929 2.126 . S
O932 Co930 2.053 . S
O932 H931 0.760 . S
H933 Co929 2.388 . S
H933 O934 0.760 . S
H933 Co935 2.400 . S
O934 Co929 2.053 . S
O934 Co930 2.126 . S
O934 H933 0.760 . S
O934 Co935 2.009 . S
Co935 H933 2.400 . S
Co935 O934 2.009 . S
Co935 O936 2.053 . S
Co935 O938 2.094 1_556 S
Co935 O942 2.122 1_556 S
Co935 O956 2.115 1_556 S
Co935 O957 2.315 . S
O936 Co935 2.053 . S
O936 C948 1.259 . S
O937 Co929 2.047 . S
O937 C948 1.257 . S
O938 Co935 2.094 1_554 S
O938 C949 1.253 1_554 S
O939 Co930 2.063 . S
O939 C949 1.268 . S
O940 Co928 2.115 . S
O940 C950 1.281 . S
O941 Co928 2.315 . S
O941 C950 1.252 . S
O942 Co935 2.122 1_554 S
O942 C951 1.272 . S
O943 Co929 2.113 . S
O943 C951 1.245 1_556 S
C944 O952 1.259 . S
C944 O953 1.257 . S
C945 O954 1.268 . S
C945 O955 1.253 . S
C946 O956 1.281 1_556 S
C946 O957 1.252 . S
C947 O958 1.272 . S
C947 O959 1.245 . S
C948 O936 1.259 . S
C948 O937 1.257 . S
C949 O938 1.253 1_556 S
C949 O939 1.268 . S
C950 O940 1.281 . S
C950 O941 1.252 . S
C951 O942 1.272 . S
C951 O943 1.245 1_554 S
O952 Co928 2.053 . S
O952 C944 1.259 . S
O953 Co930 2.047 . S
O953 C944 1.257 . S
O954 Co929 2.063 . S
O954 C945 1.268 . S
O955 Co928 2.094 . S
O955 C945 1.253 . S
O956 Co935 2.115 1_554 S
O956 C946 1.281 1_554 S
O957 Co935 2.315 . S
O957 C946 1.252 . S
O958 Co928 2.122 . S
O958 C947 1.272 . S
O959 Co930 2.113 . S
O959 C947 1.245 . S
Co960 H963 2.400 . S
Co960 O964 2.009 . S
Co960 O972 2.115 . S
Co960 O973 2.315 . S
Co960 O984 2.053 . S
Co960 O987 2.094 . S
Co960 O990 2.122 . S
Co961 O964 2.126 . S
Co961 H965 2.388 . S
Co961 O966 2.053 . S
Co961 O969 2.047 . S
Co961 O975 2.113 . S
Co961 O986 2.063 . S
Co962 H963 2.388 . S
Co962 O964 2.053 . S
Co962 O966 2.126 . S
Co962 O971 2.063 . S
Co962 O985 2.047 . S
Co962 O991 2.113 . S
H963 Co960 2.400 . S
H963 Co962 2.388 . S
H963 O964 0.760 . S
O964 Co960 2.009 . S
O964 Co961 2.126 . S
O964 Co962 2.053 . S
O964 H963 0.760 . S
H965 Co961 2.388 . S
H965 O966 0.760 . S
H965 Co967 2.400 . S
O966 Co961 2.053 . S
O966 Co962 2.126 . S
O966 H965 0.760 . S
O966 Co967 2.009 . S
Co967 H965 2.400 . S
Co967 O966 2.009 . S
Co967 O968 2.053 . S
Co967 O970 2.094 . S
Co967 O974 2.122 . S
Co967 O988 2.115 . S
Co967 O989 2.315 . S
O968 Co967 2.053 . S
O968 C980 1.259 . S
O969 Co961 2.047 . S
O969 C980 1.257 . S
O970 Co967 2.094 . S
O970 C981 1.253 . S
O971 Co962 2.063 . S
O971 C981 1.268 . S
O972 Co960 2.115 . S
O972 C982 1.281 . S
O973 Co960 2.315 . S
O973 C982 1.252 . S
O974 Co967 2.122 . S
O974 C983 1.272 . S
O975 Co961 2.113 . S
O975 C983 1.245 . S
C976 O984 1.259 . S
C976 O985 1.257 . S
C977 O986 1.268 . S
C977 O987 1.253 . S
C978 O988 1.281 . S
C978 O989 1.252 . S
C979 O990 1.272 . S
C979 O991 1.245 . S
C980 O968 1.259 . S
C980 O969 1.257 . S
C981 O970 1.253 . S
C981 O971 1.268 . S
C982 O972 1.281 . S
C982 O973 1.252 . S
C983 O974 1.272 . S
C983 O975 1.245 . S
O984 Co960 2.053 . S
O984 C976 1.259 . S
O985 Co962 2.047 . S
O985 C976 1.257 . S
O986 Co961 2.063 . S
O986 C977 1.268 . S
O987 Co960 2.094 . S
O987 C977 1.253 . S
O988 Co967 2.115 . S
O988 C978 1.281 . S
O989 Co967 2.315 . S
O989 C978 1.252 . S
O990 Co960 2.122 . S
O990 C979 1.272 . S
O991 Co962 2.113 . S
O991 C979 1.245 . S
Co992 H995 2.400 . S
Co992 O996 2.009 . S
Co992 O1004 2.115 . S
Co992 O1005 2.315 . S
Co992 O1016 2.053 . S
Co992 O1019 2.094 . S
Co992 O1022 2.122 . S
Co993 O996 2.126 . S
Co993 H997 2.388 . S
Co993 O998 2.053 . S
Co993 O1001 2.047 . S
Co993 O1007 2.113 . S
Co993 O1018 2.063 . S
Co994 H995 2.388 . S
Co994 O996 2.053 . S
Co994 O998 2.126 . S
Co994 O1003 2.063 . S
Co994 O1017 2.047 . S
Co994 O1023 2.113 . S
H995 Co992 2.400 . S
H995 Co994 2.388 . S
H995 O996 0.760 . S
O996 Co992 2.009 . S
O996 Co993 2.126 . S
O996 Co994 2.053 . S
O996 H995 0.760 . S
H997 Co993 2.388 . S
H997 O998 0.760 . S
H997 Co999 2.400 . S
O998 Co993 2.053 . S
O998 Co994 2.126 . S
O998 H997 0.760 . S
O998 Co999 2.009 . S
Co999 H997 2.400 . S
Co999 O998 2.009 . S
Co999 O1000 2.053 . S
Co999 O1002 2.094 . S
Co999 O1006 2.122 . S
Co999 O1020 2.115 . S
Co999 O1021 2.315 . S
O1000 Co999 2.053 . S
O1000 C1012 1.259 . S
O1001 Co993 2.047 . S
O1001 C1012 1.257 . S
O1002 Co999 2.094 . S
O1002 C1013 1.253 . S
O1003 Co994 2.063 . S
O1003 C1013 1.268 . S
O1004 Co992 2.115 . S
O1004 C1014 1.281 . S
O1005 Co992 2.315 . S
O1005 C1014 1.252 . S
O1006 Co999 2.122 . S
O1006 C1015 1.272 . S
O1007 Co993 2.113 . S
O1007 C1015 1.245 . S
C1008 O1016 1.259 . S
C1008 O1017 1.257 . S
C1009 O1018 1.268 . S
C1009 O1019 1.253 . S
C1010 O1020 1.281 . S
C1010 O1021 1.252 . S
C1011 O1022 1.272 . S
C1011 O1023 1.245 . S
C1012 O1000 1.259 . S
C1012 O1001 1.257 . S
C1013 O1002 1.253 . S
C1013 O1003 1.268 . S
C1014 O1004 1.281 . S
C1014 O1005 1.252 . S
C1015 O1006 1.272 . S
C1015 O1007 1.245 . S
O1016 Co992 2.053 . S
O1016 C1008 1.259 . S
O1017 Co994 2.047 . S
O1017 C1008 1.257 . S
O1018 Co993 2.063 . S
O1018 C1009 1.268 . S
O1019 Co992 2.094 . S
O1019 C1009 1.253 . S
O1020 Co999 2.115 . S
O1020 C1010 1.281 . S
O1021 Co999 2.315 . S
O1021 C1010 1.252 . S
O1022 Co992 2.122 . S
O1022 C1011 1.272 . S
O1023 Co994 2.113 . S
O1023 C1011 1.245 . S
H1024 C1030 0.930 . S
H1025 C1033 0.930 . S
H1026 C1034 0.930 . S
H1027 C1035 0.930 . S
H1028 C1038 0.929 . S
H1029 C1039 0.934 . S
C1030 H1024 0.930 . S
C1030 C1031 1.355 . S
C1030 C1032 1.415 . S
C1031 C1030 1.355 . S
C1031 C1033 1.419 . S
C1032 C1030 1.415 . S
C1032 C1037 1.425 . S
C1032 C1039 1.410 1_556 S
C1033 H1025 0.930 . S
C1033 C1031 1.419 . S
C1033 C1034 1.362 . S
C1034 H1026 0.930 . S
C1034 C1033 1.362 . S
C1034 C1037 1.409 . S
C1035 H1027 0.930 . S
C1035 C1036 1.355 . S
C1035 C1037 1.415 . S
C1036 C1035 1.355 . S
C1036 C1038 1.417 1_556 S
C1037 C1032 1.425 . S
C1037 C1034 1.409 . S
C1037 C1035 1.415 . S
C1038 H1028 0.929 . S
C1038 C1036 1.417 1_554 S
C1038 C1039 1.362 . S
C1039 H1029 0.934 . S
C1039 C1032 1.410 1_554 S
C1039 C1038 1.362 . S
H1040 C1046 0.930 . S
H1041 C1049 0.930 . S
H1042 C1050 0.930 . S
H1043 C1051 0.930 . S
H1044 C1054 0.930 . S
H1045 C1055 0.930 . S
C1046 H1040 0.930 . S
C1046 C1047 1.355 1_554 S
C1046 C1048 1.415 . S
C1047 C1046 1.355 1_556 S
C1047 C1049 1.419 . S
C1048 C1046 1.415 . S
C1048 C1053 1.425 1_554 S
C1048 C1055 1.409 . S
C1049 H1041 0.930 . S
C1049 C1047 1.419 . S
C1049 C1050 1.362 . S
C1050 H1042 0.930 . S
C1050 C1049 1.362 . S
C1050 C1053 1.409 . S
C1051 H1043 0.930 . S
C1051 C1052 1.353 . S
C1051 C1053 1.415 . S
C1052 C1051 1.353 . S
C1052 C1054 1.421 1_556 S
C1053 C1048 1.425 1_556 S
C1053 C1050 1.409 . S
C1053 C1051 1.415 . S
C1054 H1044 0.930 . S
C1054 C1052 1.421 1_554 S
C1054 C1055 1.362 . S
C1055 H1045 0.930 . S
C1055 C1048 1.409 . S
C1055 C1054 1.362 . S
H1056 C1062 0.930 . S
H1057 C1065 0.930 . S
H1058 C1066 0.930 . S
H1059 C1067 0.930 . S
H1060 C1070 0.930 . S
H1061 C1071 0.930 . S
C1062 H1056 0.930 . S
C1062 C1063 1.355 . S
C1062 C1064 1.415 . S
C1063 C1062 1.355 . S
C1063 C1065 1.419 . S
C1064 C1062 1.415 . S
C1064 C1069 1.425 . S
C1064 C1071 1.409 . S
C1065 H1057 0.930 . S
C1065 C1063 1.419 . S
C1065 C1066 1.362 . S
C1066 H1058 0.930 . S
C1066 C1065 1.362 . S
C1066 C1069 1.409 . S
C1067 H1059 0.930 . S
C1067 C1068 1.355 . S
C1067 C1069 1.415 . S
C1068 C1067 1.355 . S
C1068 C1070 1.419 . S
C1069 C1064 1.425 . S
C1069 C1066 1.409 . S
C1069 C1067 1.415 . S
C1070 H1060 0.930 . S
C1070 C1068 1.419 . S
C1070 C1071 1.362 . S
C1071 H1061 0.930 . S
C1071 C1064 1.409 . S
C1071 C1070 1.362 . S
H1072 C1078 0.930 . S
H1073 C1081 0.930 . S
H1074 C1082 0.930 . S
H1075 C1083 0.930 . S
H1076 C1086 0.930 . S
H1077 C1087 0.930 . S
C1078 H1072 0.930 . S
C1078 C1079 1.355 . S
C1078 C1080 1.415 . S
C1079 C1078 1.355 . S
C1079 C1081 1.419 . S
C1080 C1078 1.415 . S
C1080 C1085 1.425 . S
C1080 C1087 1.409 . S
C1081 H1073 0.930 . S
C1081 C1079 1.419 . S
C1081 C1082 1.362 . S
C1082 H1074 0.930 . S
C1082 C1081 1.362 . S
C1082 C1085 1.409 . S
C1083 H1075 0.930 . S
C1083 C1084 1.355 . S
C1083 C1085 1.415 . S
C1084 C1083 1.355 . S
C1084 C1086 1.419 . S
C1085 C1080 1.425 . S
C1085 C1082 1.409 . S
C1085 C1083 1.415 . S
C1086 H1076 0.930 . S
C1086 C1084 1.419 . S
C1086 C1087 1.362 . S
C1087 H1077 0.930 . S
C1087 C1080 1.409 . S
C1087 C1086 1.362 . S
H1088 C1094 0.930 . S
H1089 C1097 0.930 . S
H1090 C1098 0.930 . S
H1091 C1099 0.930 . S
H1092 C1102 0.930 . S
H1093 C1103 0.930 . S
C1094 H1088 0.930 . S
C1094 C1095 1.355 1_556 S
C1094 C1096 1.415 . S
C1095 C1094 1.355 1_554 S
C1095 C1097 1.419 . S
C1096 C1094 1.415 . S
C1096 C1101 1.425 1_556 S
C1096 C1103 1.409 . S
C1097 H1089 0.930 . S
C1097 C1095 1.419 . S
C1097 C1098 1.362 . S
C1098 H1090 0.930 . S
C1098 C1097 1.362 . S
C1098 C1101 1.409 . S
C1099 H1091 0.930 . S
C1099 C1100 1.355 . S
C1099 C1101 1.415 . S
C1100 C1099 1.355 . S
C1100 C1102 1.419 1_554 S
C1101 C1096 1.425 1_554 S
C1101 C1098 1.409 . S
C1101 C1099 1.415 . S
C1102 H1092 0.930 . S
C1102 C1100 1.419 1_556 S
C1102 C1103 1.362 . S
C1103 H1093 0.930 . S
C1103 C1096 1.409 . S
C1103 C1102 1.362 . S
H1104 C1110 0.930 . S
H1105 C1113 0.930 . S
H1106 C1114 0.930 . S
H1107 C1115 0.930 . S
H1108 C1118 0.930 . S
H1109 C1119 0.930 . S
C1110 H1104 0.930 . S
C1110 C1111 1.355 . S
C1110 C1112 1.415 . S
C1111 C1110 1.355 . S
C1111 C1113 1.419 1_554 S
C1112 C1110 1.415 . S
C1112 C1117 1.425 1_554 S
C1112 C1119 1.409 . S
C1113 H1105 0.930 . S
C1113 C1111 1.419 1_556 S
C1113 C1114 1.362 . S
C1114 H1106 0.930 . S
C1114 C1113 1.362 . S
C1114 C1117 1.409 . S
C1115 H1107 0.930 . S
C1115 C1116 1.355 1_556 S
C1115 C1117 1.415 . S
C1116 C1115 1.355 1_554 S
C1116 C1118 1.419 . S
C1117 C1112 1.425 1_556 S
C1117 C1114 1.409 . S
C1117 C1115 1.415 . S
C1118 H1108 0.930 . S
C1118 C1116 1.419 . S
C1118 C1119 1.362 . S
C1119 H1109 0.930 . S
C1119 C1112 1.409 . S
C1119 C1118 1.362 . S
H1120 C1126 0.930 . S
H1121 C1129 0.930 . S
H1122 C1130 0.930 . S
H1123 C1131 0.930 . S
H1124 C1134 0.930 . S
H1125 C1135 0.930 . S
C1126 H1120 0.930 . S
C1126 C1127 1.355 . S
C1126 C1128 1.415 . S
C1127 C1126 1.355 . S
C1127 C1129 1.419 . S
C1128 C1126 1.415 . S
C1128 C1133 1.425 . S
C1128 C1135 1.409 . S
C1129 H1121 0.930 . S
C1129 C1127 1.419 . S
C1129 C1130 1.362 . S
C1130 H1122 0.930 . S
C1130 C1129 1.362 . S
C1130 C1133 1.409 . S
C1131 H1123 0.930 . S
C1131 C1132 1.355 . S
C1131 C1133 1.415 . S
C1132 C1131 1.355 . S
C1132 C1134 1.419 . S
C1133 C1128 1.425 . S
C1133 C1130 1.409 . S
C1133 C1131 1.415 . S
C1134 H1124 0.930 . S
C1134 C1132 1.419 . S
C1134 C1135 1.362 . S
C1135 H1125 0.930 . S
C1135 C1128 1.409 . S
C1135 C1134 1.362 . S
H1136 C1142 0.930 . S
H1137 C1145 0.930 . S
H1138 C1146 0.930 . S
H1139 C1147 0.930 . S
H1140 C1150 0.930 . S
H1141 C1151 0.930 . S
C1142 H1136 0.930 . S
C1142 C1143 1.355 . S
C1142 C1144 1.415 . S
C1143 C1142 1.355 . S
C1143 C1145 1.419 . S
C1144 C1142 1.415 . S
C1144 C1149 1.425 . S
C1144 C1151 1.409 . S
C1145 H1137 0.930 . S
C1145 C1143 1.419 . S
C1145 C1146 1.362 . S
C1146 H1138 0.930 . S
C1146 C1145 1.362 . S
C1146 C1149 1.409 . S
C1147 H1139 0.930 . S
C1147 C1148 1.355 . S
C1147 C1149 1.415 . S
C1148 C1147 1.355 . S
C1148 C1150 1.419 . S
C1149 C1144 1.425 . S
C1149 C1146 1.409 . S
C1149 C1147 1.415 . S
C1150 H1140 0.930 . S
C1150 C1148 1.419 . S
C1150 C1151 1.362 . S
C1151 H1141 0.930 . S
C1151 C1144 1.409 . S
C1151 C1150 1.362 . S
H1152 C1158 0.930 . S
H1153 C1161 0.930 . S
H1154 C1162 0.930 . S
H1155 C1163 0.930 . S
H1156 C1166 0.930 . S
H1157 C1167 0.930 . S
C1158 H1152 0.930 . S
C1158 C1159 1.355 . S
C1158 C1160 1.415 . S
C1159 C1158 1.355 . S
C1159 C1161 1.419 . S
C1160 C1158 1.415 . S
C1160 C1165 1.425 . S
C1160 C1167 1.409 . S
C1161 H1153 0.930 . S
C1161 C1159 1.419 . S
C1161 C1162 1.362 . S
C1162 H1154 0.930 . S
C1162 C1161 1.362 . S
C1162 C1165 1.409 . S
C1163 H1155 0.930 . S
C1163 C1164 1.355 . S
C1163 C1165 1.415 . S
C1164 C1163 1.355 . S
C1164 C1166 1.419 . S
C1165 C1160 1.425 . S
C1165 C1162 1.409 . S
C1165 C1163 1.415 . S
C1166 H1156 0.930 . S
C1166 C1164 1.419 . S
C1166 C1167 1.362 . S
C1167 H1157 0.930 . S
C1167 C1160 1.409 . S
C1167 C1166 1.362 . S
H1168 C1174 0.930 . S
H1169 C1177 0.930 . S
H1170 C1178 0.930 . S
H1171 C1179 0.930 . S
H1172 C1182 0.930 . S
H1173 C1183 0.930 . S
C1174 H1168 0.930 . S
C1174 C1175 1.355 . S
C1174 C1176 1.415 . S
C1175 C1174 1.355 . S
C1175 C1177 1.419 . S
C1176 C1174 1.415 . S
C1176 C1181 1.425 . S
C1176 C1183 1.409 . S
C1177 H1169 0.930 . S
C1177 C1175 1.419 . S
C1177 C1178 1.362 . S
C1178 H1170 0.930 . S
C1178 C1177 1.362 . S
C1178 C1181 1.409 . S
C1179 H1171 0.930 . S
C1179 C1180 1.355 . S
C1179 C1181 1.415 . S
C1180 C1179 1.355 . S
C1180 C1182 1.419 . S
C1181 C1176 1.425 . S
C1181 C1178 1.409 . S
C1181 C1179 1.415 . S
C1182 H1172 0.930 . S
C1182 C1180 1.419 . S
C1182 C1183 1.362 . S
C1183 H1173 0.930 . S
C1183 C1176 1.409 . S
C1183 C1182 1.362 . S
H1184 C1190 0.930 . S
H1185 C1193 0.930 . S
H1186 C1194 0.930 . S
H1187 C1195 0.930 . S
H1188 C1198 0.930 . S
H1189 C1199 0.930 . S
C1190 H1184 0.930 . S
C1190 C1191 1.355 . S
C1190 C1192 1.415 . S
C1191 C1190 1.355 . S
C1191 C1193 1.419 . S
C1192 C1190 1.415 . S
C1192 C1197 1.425 . S
C1192 C1199 1.409 . S
C1193 H1185 0.930 . S
C1193 C1191 1.419 . S
C1193 C1194 1.362 . S
C1194 H1186 0.930 . S
C1194 C1193 1.362 . S
C1194 C1197 1.409 . S
C1195 H1187 0.930 . S
C1195 C1196 1.355 . S
C1195 C1197 1.415 . S
C1196 C1195 1.355 . S
C1196 C1198 1.419 . S
C1197 C1192 1.425 . S
C1197 C1194 1.409 . S
C1197 C1195 1.415 . S
C1198 H1188 0.930 . S
C1198 C1196 1.419 . S
C1198 C1199 1.362 . S
C1199 H1189 0.930 . S
C1199 C1192 1.409 . S
C1199 C1198 1.362 . S
H1200 C1206 0.930 . S
H1201 C1209 0.930 . S
H1202 C1210 0.930 . S
H1203 C1211 0.930 . S
H1204 C1214 0.930 . S
H1205 C1215 0.930 . S
C1206 H1200 0.930 . S
C1206 C1207 1.355 . S
C1206 C1208 1.415 . S
C1207 C1206 1.355 . S
C1207 C1209 1.419 . S
C1208 C1206 1.415 . S
C1208 C1213 1.425 . S
C1208 C1215 1.409 . S
C1209 H1201 0.930 . S
C1209 C1207 1.419 . S
C1209 C1210 1.362 . S
C1210 H1202 0.930 . S
C1210 C1209 1.362 . S
C1210 C1213 1.409 . S
C1211 H1203 0.930 . S
C1211 C1212 1.355 . S
C1211 C1213 1.415 . S
C1212 C1211 1.355 . S
C1212 C1214 1.419 . S
C1213 C1208 1.425 . S
C1213 C1210 1.409 . S
C1213 C1211 1.415 . S
C1214 H1204 0.930 . S
C1214 C1212 1.419 . S
C1214 C1215 1.362 . S
C1215 H1205 0.930 . S
C1215 C1208 1.409 . S
C1215 C1214 1.362 . S
H1216 C1222 0.930 . S
H1217 C1225 0.930 . S
H1218 C1226 0.930 . S
H1219 C1227 0.930 . S
H1220 C1230 0.930 . S
H1221 C1231 0.930 . S
C1222 H1216 0.930 . S
C1222 C1223 1.355 . S
C1222 C1224 1.415 . S
C1223 C1222 1.355 . S
C1223 C1225 1.419 . S
C1224 C1222 1.415 . S
C1224 C1229 1.425 . S
C1224 C1231 1.409 . S
C1225 H1217 0.930 . S
C1225 C1223 1.419 . S
C1225 C1226 1.362 . S
C1226 H1218 0.930 . S
C1226 C1225 1.362 . S
C1226 C1229 1.409 . S
C1227 H1219 0.930 . S
C1227 C1228 1.355 . S
C1227 C1229 1.415 . S
C1228 C1227 1.355 . S
C1228 C1230 1.419 . S
C1229 C1224 1.425 . S
C1229 C1226 1.409 . S
C1229 C1227 1.415 . S
C1230 H1220 0.930 . S
C1230 C1228 1.419 . S
C1230 C1231 1.362 . S
C1231 H1221 0.930 . S
C1231 C1224 1.409 . S
C1231 C1230 1.362 . S
H1232 C1238 0.930 . S
H1233 C1241 0.930 . S
H1234 C1242 0.930 . S
H1235 C1243 0.930 . S
H1236 C1246 0.930 . S
H1237 C1247 0.930 . S
C1238 H1232 0.930 . S
C1238 C1239 1.355 . S
C1238 C1240 1.415 . S
C1239 C1238 1.355 . S
C1239 C1241 1.419 . S
C1240 C1238 1.415 . S
C1240 C1245 1.425 . S
C1240 C1247 1.409 . S
C1241 H1233 0.930 . S
C1241 C1239 1.419 . S
C1241 C1242 1.362 . S
C1242 H1234 0.930 . S
C1242 C1241 1.362 . S
C1242 C1245 1.409 . S
C1243 H1235 0.930 . S
C1243 C1244 1.355 . S
C1243 C1245 1.415 . S
C1244 C1243 1.355 . S
C1244 C1246 1.419 . S
C1245 C1240 1.425 . S
C1245 C1242 1.409 . S
C1245 C1243 1.415 . S
C1246 H1236 0.930 . S
C1246 C1244 1.419 . S
C1246 C1247 1.362 . S
C1247 H1237 0.930 . S
C1247 C1240 1.409 . S
C1247 C1246 1.362 . S
H1248 C1254 0.930 . S
H1249 C1257 0.930 . S
H1250 C1258 0.930 . S
H1251 C1259 0.930 . S
H1252 C1262 0.930 . S
H1253 C1263 0.930 . S
C1254 H1248 0.930 . S
C1254 C1255 1.355 . S
C1254 C1256 1.415 . S
C1255 C1254 1.355 . S
C1255 C1257 1.419 . S
C1256 C1254 1.415 . S
C1256 C1261 1.425 . S
C1256 C1263 1.409 . S
C1257 H1249 0.930 . S
C1257 C1255 1.419 . S
C1257 C1258 1.362 . S
C1258 H1250 0.930 . S
C1258 C1257 1.362 . S
C1258 C1261 1.409 . S
C1259 H1251 0.930 . S
C1259 C1260 1.355 . S
C1259 C1261 1.415 . S
C1260 C1259 1.355 . S
C1260 C1262 1.419 . S
C1261 C1256 1.425 . S
C1261 C1258 1.409 . S
C1261 C1259 1.415 . S
C1262 H1252 0.930 . S
C1262 C1260 1.419 . S
C1262 C1263 1.362 . S
C1263 H1253 0.930 . S
C1263 C1256 1.409 . S
C1263 C1262 1.362 . S
H1264 C1270 0.930 . S
H1265 C1273 0.930 . S
H1266 C1274 0.930 . S
H1267 C1275 0.930 . S
H1268 C1278 0.930 . S
H1269 C1279 0.930 . S
C1270 H1264 0.930 . S
C1270 C1271 1.355 . S
C1270 C1272 1.415 . S
C1271 C1270 1.355 . S
C1271 C1273 1.419 . S
C1272 C1270 1.415 . S
C1272 C1277 1.425 . S
C1272 C1279 1.409 . S
C1273 H1265 0.930 . S
C1273 C1271 1.419 . S
C1273 C1274 1.362 . S
C1274 H1266 0.930 . S
C1274 C1273 1.362 . S
C1274 C1277 1.409 . S
C1275 H1267 0.930 . S
C1275 C1276 1.355 . S
C1275 C1277 1.415 . S
C1276 C1275 1.355 . S
C1276 C1278 1.419 . S
C1277 C1272 1.425 . S
C1277 C1274 1.409 . S
C1277 C1275 1.415 . S
C1278 H1268 0.930 . S
C1278 C1276 1.419 . S
C1278 C1279 1.362 . S
C1279 H1269 0.930 . S
C1279 C1272 1.409 . S
C1279 C1278 1.362 . S
H1280 C1286 0.930 . S
H1281 C1289 0.930 . S
H1282 C1290 0.930 . S
H1283 C1291 0.930 . S
H1284 C1294 0.930 . S
H1285 C1295 0.930 . S
C1286 H1280 0.930 . S
C1286 C1287 1.355 . S
C1286 C1288 1.415 . S
C1287 C1286 1.355 . S
C1287 C1289 1.419 . S
C1288 C1286 1.415 . S
C1288 C1293 1.425 . S
C1288 C1295 1.409 1_556 S
C1289 H1281 0.930 . S
C1289 C1287 1.419 . S
C1289 C1290 1.362 . S
C1290 H1282 0.930 . S
C1290 C1289 1.362 . S
C1290 C1293 1.409 . S
C1291 H1283 0.930 . S
C1291 C1292 1.355 1_556 S
C1291 C1293 1.415 . S
C1292 C1291 1.355 1_554 S
C1292 C1294 1.419 . S
C1293 C1288 1.425 . S
C1293 C1290 1.409 . S
C1293 C1291 1.415 . S
C1294 H1284 0.930 . S
C1294 C1292 1.419 . S
C1294 C1295 1.362 . S
C1295 H1285 0.930 . S
C1295 C1288 1.409 1_554 S
C1295 C1294 1.362 . S
H1296 C1302 0.930 . S
H1297 C1305 0.930 . S
H1298 C1306 0.930 1_556 S
H1299 C1307 0.930 . S
H1300 C1310 0.930 . S
H1301 C1311 0.930 . S
C1302 H1296 0.930 . S
C1302 C1303 1.355 . S
C1302 C1304 1.415 . S
C1303 C1302 1.355 . S
C1303 C1305 1.419 . S
C1304 C1302 1.415 . S
C1304 C1309 1.410 1_554 S
C1304 C1311 1.409 . S
C1305 H1297 0.930 . S
C1305 C1303 1.419 . S
C1305 C1306 1.362 . S
C1306 H1298 0.930 1_554 S
C1306 C1305 1.362 . S
C1306 C1309 1.409 1_554 S
C1307 H1299 0.930 . S
C1307 C1308 1.355 . S
C1307 C1309 1.430 . S
C1308 C1307 1.355 . S
C1308 C1310 1.419 . S
C1309 C1304 1.410 1_556 S
C1309 C1306 1.409 1_556 S
C1309 C1307 1.430 . S
C1310 H1300 0.930 . S
C1310 C1308 1.419 . S
C1310 C1311 1.362 1_556 S
C1311 H1301 0.930 . S
C1311 C1304 1.409 . S
C1311 C1310 1.362 1_554 S
H1312 C1318 0.930 . S
H1313 C1321 0.930 . S
H1314 C1322 0.930 . S
H1315 C1323 0.930 . S
H1316 C1326 0.930 . S
H1317 C1327 0.930 . S
C1318 H1312 0.930 . S
C1318 C1319 1.355 . S
C1318 C1320 1.415 . S
C1319 C1318 1.355 . S
C1319 C1321 1.419 . S
C1320 C1318 1.415 . S
C1320 C1325 1.425 . S
C1320 C1327 1.409 . S
C1321 H1313 0.930 . S
C1321 C1319 1.419 . S
C1321 C1322 1.362 . S
C1322 H1314 0.930 . S
C1322 C1321 1.362 . S
C1322 C1325 1.409 . S
C1323 H1315 0.930 . S
C1323 C1324 1.355 . S
C1323 C1325 1.415 . S
C1324 C1323 1.355 . S
C1324 C1326 1.419 . S
C1325 C1320 1.425 . S
C1325 C1322 1.409 . S
C1325 C1323 1.415 . S
C1326 H1316 0.930 . S
C1326 C1324 1.419 . S
C1326 C1327 1.362 . S
C1327 H1317 0.930 . S
C1327 C1320 1.409 . S
C1327 C1326 1.362 . S
H1328 C1334 0.930 . S
H1329 C1337 0.930 . S
H1330 C1338 0.930 . S
H1331 C1339 0.930 . S
H1332 C1342 0.930 . S
H1333 C1343 0.930 . S
C1334 H1328 0.930 . S
C1334 C1335 1.355 . S
C1334 C1336 1.415 . S
C1335 C1334 1.355 . S
C1335 C1337 1.419 . S
C1336 C1334 1.415 . S
C1336 C1341 1.425 . S
C1336 C1343 1.409 . S
C1337 H1329 0.930 . S
C1337 C1335 1.419 . S
C1337 C1338 1.362 . S
C1338 H1330 0.930 . S
C1338 C1337 1.362 . S
C1338 C1341 1.409 . S
C1339 H1331 0.930 . S
C1339 C1340 1.355 . S
C1339 C1341 1.415 . S
C1340 C1339 1.355 . S
C1340 C1342 1.419 . S
C1341 C1336 1.425 . S
C1341 C1338 1.409 . S
C1341 C1339 1.415 . S
C1342 H1332 0.930 . S
C1342 C1340 1.419 . S
C1342 C1343 1.362 . S
C1343 H1333 0.930 . S
C1343 C1336 1.409 . S
C1343 C1342 1.362 . S
H1344 C1350 0.930 . S
H1345 C1353 0.930 . S
H1346 C1354 0.930 . S
H1347 C1355 0.930 . S
H1348 C1358 0.930 . S
H1349 C1359 0.930 . S
C1350 H1344 0.930 . S
C1350 C1351 1.355 . S
C1350 C1352 1.415 . S
C1351 C1350 1.355 . S
C1351 C1353 1.419 . S
C1352 C1350 1.415 . S
C1352 C1357 1.425 . S
C1352 C1359 1.409 . S
C1353 H1345 0.930 . S
C1353 C1351 1.419 . S
C1353 C1354 1.362 . S
C1354 H1346 0.930 . S
C1354 C1353 1.362 . S
C1354 C1357 1.409 . S
C1355 H1347 0.930 . S
C1355 C1356 1.355 . S
C1355 C1357 1.415 1_556 S
C1356 C1355 1.355 . S
C1356 C1358 1.419 1_556 S
C1357 C1352 1.425 . S
C1357 C1354 1.409 . S
C1357 C1355 1.415 1_554 S
C1358 H1348 0.930 . S
C1358 C1356 1.419 1_554 S
C1358 C1359 1.362 . S
C1359 H1349 0.930 . S
C1359 C1352 1.409 . S
C1359 C1358 1.362 . S
H1360 C1366 0.930 . S
H1361 C1369 0.930 1_556 S
H1362 C1370 0.930 . S
H1363 C1371 0.930 . S
H1364 C1374 0.930 . S
H1365 C1375 0.930 . S
C1366 H1360 0.930 . S
C1366 C1367 1.355 . S
C1366 C1368 1.415 . S
C1367 C1366 1.355 . S
C1367 C1369 1.419 . S
C1368 C1366 1.415 . S
C1368 C1373 1.425 1_554 S
C1368 C1375 1.409 . S
C1369 H1361 0.930 1_554 S
C1369 C1367 1.419 . S
C1369 C1370 1.362 1_554 S
C1370 H1362 0.930 . S
C1370 C1369 1.362 1_556 S
C1370 C1373 1.409 . S
C1371 H1363 0.930 . S
C1371 C1372 1.355 . S
C1371 C1373 1.415 . S
C1372 C1371 1.355 . S
C1372 C1374 1.419 . S
C1373 C1368 1.425 1_556 S
C1373 C1370 1.409 . S
C1373 C1371 1.415 . S
C1374 H1364 0.930 . S
C1374 C1372 1.419 . S
C1374 C1375 1.362 1_556 S
C1375 H1365 0.930 . S
C1375 C1368 1.409 . S
C1375 C1374 1.362 1_554 S
H1376 C1382 0.930 . S
H1377 C1385 0.930 . S
H1378 C1386 0.930 . S
H1379 C1387 0.930 . S
H1380 C1390 0.930 . S
H1381 C1391 0.930 . S
C1382 H1376 0.930 . S
C1382 C1383 1.355 . S
C1382 C1384 1.415 . S
C1383 C1382 1.355 . S
C1383 C1385 1.419 . S
C1384 C1382 1.415 . S
C1384 C1389 1.425 . S
C1384 C1391 1.409 . S
C1385 H1377 0.930 . S
C1385 C1383 1.419 . S
C1385 C1386 1.362 . S
C1386 H1378 0.930 . S
C1386 C1385 1.362 . S
C1386 C1389 1.409 . S
C1387 H1379 0.930 . S
C1387 C1388 1.355 . S
C1387 C1389 1.415 . S
C1388 C1387 1.355 . S
C1388 C1390 1.419 . S
C1389 C1384 1.425 . S
C1389 C1386 1.409 . S
C1389 C1387 1.415 . S
C1390 H1380 0.930 . S
C1390 C1388 1.419 . S
C1390 C1391 1.362 . S
C1391 H1381 0.930 . S
C1391 C1384 1.409 . S
C1391 C1390 1.362 . S
H1392 C1398 0.930 . S
H1393 C1401 0.930 . S
H1394 C1402 0.930 . S
H1395 C1403 0.930 . S
H1396 C1406 0.930 . S
H1397 C1407 0.930 . S
C1398 H1392 0.930 . S
C1398 C1399 1.355 . S
C1398 C1400 1.415 . S
C1399 C1398 1.355 . S
C1399 C1401 1.419 . S
C1400 C1398 1.415 . S
C1400 C1405 1.425 . S
C1400 C1407 1.409 . S
C1401 H1393 0.930 . S
C1401 C1399 1.419 . S
C1401 C1402 1.362 . S
C1402 H1394 0.930 . S
C1402 C1401 1.362 . S
C1402 C1405 1.409 . S
C1403 H1395 0.930 . S
C1403 C1404 1.355 . S
C1403 C1405 1.415 . S
C1404 C1403 1.355 . S
C1404 C1406 1.419 . S
C1405 C1400 1.425 . S
C1405 C1402 1.409 . S
C1405 C1403 1.415 . S
C1406 H1396 0.930 . S
C1406 C1404 1.419 . S
C1406 C1407 1.362 . S
C1407 H1397 0.930 . S
C1407 C1400 1.409 . S
C1407 C1406 1.362 . S
H1408 C1414 0.930 1_545 S
H1409 C1417 0.930 . S
H1410 C1418 0.930 . S
H1411 C1419 0.930 . S
H1412 C1422 0.930 . S
H1413 C1423 0.930 . S
C1414 H1408 0.930 1_565 S
C1414 C1415 1.355 . S
C1414 C1416 1.415 . S
C1415 C1414 1.355 . S
C1415 C1417 1.419 . S
C1416 C1414 1.415 . S
C1416 C1421 1.425 . S
C1416 C1423 1.409 . S
C1417 H1409 0.930 . S
C1417 C1415 1.419 . S
C1417 C1418 1.362 . S
C1418 H1410 0.930 . S
C1418 C1417 1.362 . S
C1418 C1421 1.409 . S
C1419 H1411 0.930 . S
C1419 C1420 1.355 . S
C1419 C1421 1.415 . S
C1420 C1419 1.355 . S
C1420 C1422 1.419 . S
C1421 C1416 1.425 . S
C1421 C1418 1.409 . S
C1421 C1419 1.415 . S
C1422 H1412 0.930 . S
C1422 C1420 1.419 . S
C1422 C1423 1.362 . S
C1423 H1413 0.930 . S
C1423 C1416 1.409 . S
C1423 C1422 1.362 . S
H1424 C1430 0.930 . S
H1425 C1433 0.930 . S
H1426 C1434 0.930 . S
H1427 C1435 0.930 . S
H1428 C1438 0.930 . S
H1429 C1439 0.930 . S
C1430 H1424 0.930 . S
C1430 C1431 1.355 . S
C1430 C1432 1.415 . S
C1431 C1430 1.355 . S
C1431 C1433 1.419 . S
C1432 C1430 1.415 . S
C1432 C1437 1.425 . S
C1432 C1439 1.409 . S
C1433 H1425 0.930 . S
C1433 C1431 1.419 . S
C1433 C1434 1.362 . S
C1434 H1426 0.930 . S
C1434 C1433 1.362 . S
C1434 C1437 1.409 . S
C1435 H1427 0.930 . S
C1435 C1436 1.355 . S
C1435 C1437 1.415 . S
C1436 C1435 1.355 . S
C1436 C1438 1.419 . S
C1437 C1432 1.425 . S
C1437 C1434 1.409 . S
C1437 C1435 1.415 . S
C1438 H1428 0.930 . S
C1438 C1436 1.419 . S
C1438 C1439 1.362 . S
C1439 H1429 0.930 . S
C1439 C1432 1.409 . S
C1439 C1438 1.362 . S
H1440 C1446 0.930 . S
H1441 C1449 0.930 . S
H1442 C1450 0.930 . S
H1443 C1451 0.930 . S
H1444 C1454 0.930 . S
H1445 C1455 0.930 . S
C1446 H1440 0.930 . S
C1446 C1447 1.355 . S
C1446 C1448 1.415 . S
C1447 C1446 1.355 . S
C1447 C1449 1.419 . S
C1448 C1446 1.415 . S
C1448 C1453 1.425 . S
C1448 C1455 1.409 . S
C1449 H1441 0.930 . S
C1449 C1447 1.419 . S
C1449 C1450 1.362 . S
C1450 H1442 0.930 . S
C1450 C1449 1.362 . S
C1450 C1453 1.409 . S
C1451 H1443 0.930 . S
C1451 C1452 1.355 . S
C1451 C1453 1.415 . S
C1452 C1451 1.355 . S
C1452 C1454 1.419 . S
C1453 C1448 1.425 . S
C1453 C1450 1.409 . S
C1453 C1451 1.415 . S
C1454 H1444 0.930 . S
C1454 C1452 1.419 . S
C1454 C1455 1.362 . S
C1455 H1445 0.930 . S
C1455 C1448 1.409 . S
C1455 C1454 1.362 . S
H1456 C1462 0.930 . S
H1457 C1465 0.930 1_545 S
H1458 C1466 0.930 . S
H1459 C1467 0.930 . S
H1460 C1470 0.930 . S
H1461 C1471 0.930 . S
C1462 H1456 0.930 . S
C1462 C1463 1.355 . S
C1462 C1464 1.415 . S
C1463 C1462 1.355 . S
C1463 C1465 1.419 . S
C1464 C1462 1.415 . S
C1464 C1469 1.425 . S
C1464 C1471 1.409 . S
C1465 H1457 0.930 1_565 S
C1465 C1463 1.419 . S
C1465 C1466 1.362 . S
C1466 H1458 0.930 . S
C1466 C1465 1.362 . S
C1466 C1469 1.409 . S
C1467 H1459 0.930 . S
C1467 C1468 1.355 . S
C1467 C1469 1.415 . S
C1468 C1467 1.355 . S
C1468 C1470 1.419 . S
C1469 C1464 1.425 . S
C1469 C1466 1.409 . S
C1469 C1467 1.415 . S
C1470 H1460 0.930 . S
C1470 C1468 1.419 . S
C1470 C1471 1.362 . S
C1471 H1461 0.930 . S
C1471 C1464 1.409 . S
C1471 C1470 1.362 . S
H1472 C1478 0.930 . S
H1473 C1481 0.930 1_565 S
H1474 C1482 0.930 . S
H1475 C1483 0.930 . S
H1476 C1486 0.930 . S
H1477 C1487 0.930 . S
C1478 H1472 0.930 . S
C1478 C1479 1.355 . S
C1478 C1480 1.415 . S
C1479 C1478 1.355 . S
C1479 C1481 1.419 . S
C1480 C1478 1.415 . S
C1480 C1485 1.425 . S
C1480 C1487 1.409 . S
C1481 H1473 0.930 1_545 S
C1481 C1479 1.419 . S
C1481 C1482 1.362 . S
C1482 H1474 0.930 . S
C1482 C1481 1.362 . S
C1482 C1485 1.409 . S
C1483 H1475 0.930 . S
C1483 C1484 1.355 . S
C1483 C1485 1.415 . S
C1484 C1483 1.355 . S
C1484 C1486 1.419 . S
C1485 C1480 1.425 . S
C1485 C1482 1.409 . S
C1485 C1483 1.415 . S
C1486 H1476 0.930 . S
C1486 C1484 1.419 . S
C1486 C1487 1.362 . S
C1487 H1477 0.930 . S
C1487 C1480 1.409 . S
C1487 C1486 1.362 . S
H1488 C1494 0.930 . S
H1489 C1497 0.930 . S
H1490 C1498 0.930 . S
H1491 C1499 0.930 . S
H1492 C1502 0.930 . S
H1493 C1503 0.930 . S
C1494 H1488 0.930 . S
C1494 C1495 1.355 . S
C1494 C1496 1.415 . S
C1495 C1494 1.355 . S
C1495 C1497 1.419 . S
C1496 C1494 1.415 . S
C1496 C1501 1.425 . S
C1496 C1503 1.409 . S
C1497 H1489 0.930 . S
C1497 C1495 1.419 . S
C1497 C1498 1.362 . S
C1498 H1490 0.930 . S
C1498 C1497 1.362 . S
C1498 C1501 1.409 . S
C1499 H1491 0.930 . S
C1499 C1500 1.355 . S
C1499 C1501 1.415 . S
C1500 C1499 1.355 . S
C1500 C1502 1.419 . S
C1501 C1496 1.425 . S
C1501 C1498 1.409 . S
C1501 C1499 1.415 . S
C1502 H1492 0.930 . S
C1502 C1500 1.419 . S
C1502 C1503 1.362 . S
C1503 H1493 0.930 . S
C1503 C1496 1.409 . S
C1503 C1502 1.362 . S
H1504 C1510 0.930 . S
H1505 C1513 0.930 . S
H1506 C1514 0.930 . S
H1507 C1515 0.930 . S
H1508 C1518 0.930 . S
H1509 C1519 0.930 . S
C1510 H1504 0.930 . S
C1510 C1511 1.355 . S
C1510 C1512 1.415 . S
C1511 C1510 1.355 . S
C1511 C1513 1.419 . S
C1512 C1510 1.415 . S
C1512 C1517 1.425 . S
C1512 C1519 1.409 . S
C1513 H1505 0.930 . S
C1513 C1511 1.419 . S
C1513 C1514 1.362 . S
C1514 H1506 0.930 . S
C1514 C1513 1.362 . S
C1514 C1517 1.409 . S
C1515 H1507 0.930 . S
C1515 C1516 1.355 . S
C1515 C1517 1.415 . S
C1516 C1515 1.355 . S
C1516 C1518 1.419 . S
C1517 C1512 1.425 . S
C1517 C1514 1.409 . S
C1517 C1515 1.415 . S
C1518 H1508 0.930 . S
C1518 C1516 1.419 . S
C1518 C1519 1.362 . S
C1519 H1509 0.930 . S
C1519 C1512 1.409 . S
C1519 C1518 1.362 . S
H1520 C1526 0.930 . S
H1521 C1529 0.930 . S
H1522 C1530 0.930 . S
H1523 C1531 0.930 . S
H1524 C1534 0.930 . S
H1525 C1535 0.930 . S
C1526 H1520 0.930 . S
C1526 C1527 1.355 . S
C1526 C1528 1.415 . S
C1527 C1526 1.355 . S
C1527 C1529 1.419 . S
C1528 C1526 1.415 . S
C1528 C1533 1.425 . S
C1528 C1535 1.409 . S
C1529 H1521 0.930 . S
C1529 C1527 1.419 . S
C1529 C1530 1.362 . S
C1530 H1522 0.930 . S
C1530 C1529 1.362 . S
C1530 C1533 1.409 . S
C1531 H1523 0.930 . S
C1531 C1532 1.355 . S
C1531 C1533 1.415 . S
C1532 C1531 1.355 . S
C1532 C1534 1.419 . S
C1533 C1528 1.425 . S
C1533 C1530 1.409 . S
C1533 C1531 1.415 . S
C1534 H1524 0.930 . S
C1534 C1532 1.419 . S
C1534 C1535 1.362 . S
C1535 H1525 0.930 . S
C1535 C1528 1.409 . S
C1535 C1534 1.362 . S
H1536 C1542 0.930 . S
H1537 C1545 0.930 . S
H1538 C1546 0.930 . S
H1539 C1547 0.930 . S
H1540 C1550 0.930 . S
H1541 C1551 0.930 . S
C1542 H1536 0.930 . S
C1542 C1543 1.355 . S
C1542 C1544 1.415 . S
C1543 C1542 1.355 . S
C1543 C1545 1.419 . S
C1544 C1542 1.415 . S
C1544 C1549 1.425 . S
C1544 C1551 1.409 . S
C1545 H1537 0.930 . S
C1545 C1543 1.419 . S
C1545 C1546 1.362 . S
C1546 H1538 0.930 . S
C1546 C1545 1.362 . S
C1546 C1549 1.409 . S
C1547 H1539 0.930 . S
C1547 C1548 1.355 . S
C1547 C1549 1.415 . S
C1548 C1547 1.355 . S
C1548 C1550 1.419 . S
C1549 C1544 1.425 . S
C1549 C1546 1.409 . S
C1549 C1547 1.415 . S
C1550 H1540 0.930 . S
C1550 C1548 1.419 . S
C1550 C1551 1.362 . S
C1551 H1541 0.930 . S
C1551 C1544 1.409 . S
C1551 C1550 1.362 . S
H1552 C1558 0.930 . S
H1553 C1561 0.930 . S
H1554 C1562 0.930 . S
H1555 C1563 0.930 . S
H1556 C1566 0.930 . S
H1557 C1567 0.930 . S
C1558 H1552 0.930 . S
C1558 C1559 1.355 . S
C1558 C1560 1.415 . S
C1559 C1558 1.355 . S
C1559 C1561 1.419 . S
C1560 C1558 1.415 . S
C1560 C1565 1.425 . S
C1560 C1567 1.409 . S
C1561 H1553 0.930 . S
C1561 C1559 1.419 . S
C1561 C1562 1.362 . S
C1562 H1554 0.930 . S
C1562 C1561 1.362 . S
C1562 C1565 1.409 . S
C1563 H1555 0.930 . S
C1563 C1564 1.355 . S
C1563 C1565 1.415 . S
C1564 C1563 1.355 . S
C1564 C1566 1.419 . S
C1565 C1560 1.425 . S
C1565 C1562 1.409 . S
C1565 C1563 1.415 . S
C1566 H1556 0.930 . S
C1566 C1564 1.419 . S
C1566 C1567 1.362 . S
C1567 H1557 0.930 . S
C1567 C1560 1.409 . S
C1567 C1566 1.362 . S
H1568 C1574 0.930 . S
H1569 C1577 0.930 . S
H1570 C1578 0.930 . S
H1571 C1579 0.930 . S
H1572 C1582 0.930 . S
H1573 C1583 0.930 . S
C1574 H1568 0.930 . S
C1574 C1575 1.355 . S
C1574 C1576 1.415 . S
C1575 C1574 1.355 . S
C1575 C1577 1.419 . S
C1576 C1574 1.415 . S
C1576 C1581 1.425 . S
C1576 C1583 1.409 . S
C1577 H1569 0.930 . S
C1577 C1575 1.419 . S
C1577 C1578 1.362 . S
C1578 H1570 0.930 . S
C1578 C1577 1.362 . S
C1578 C1581 1.409 . S
C1579 H1571 0.930 . S
C1579 C1580 1.355 . S
C1579 C1581 1.415 . S
C1580 C1579 1.355 . S
C1580 C1582 1.419 . S
C1581 C1576 1.425 . S
C1581 C1578 1.409 . S
C1581 C1579 1.415 . S
C1582 H1572 0.930 . S
C1582 C1580 1.419 . S
C1582 C1583 1.362 . S
C1583 H1573 0.930 . S
C1583 C1576 1.409 . S
C1583 C1582 1.362 . S
H1584 C1590 0.930 . S
H1585 C1593 0.930 . S
H1586 C1594 0.930 . S
H1587 C1595 0.930 . S
H1588 C1598 0.930 . S
H1589 C1599 0.930 . S
C1590 H1584 0.930 . S
C1590 C1591 1.355 . S
C1590 C1592 1.415 . S
C1591 C1590 1.355 . S
C1591 C1593 1.419 . S
C1592 C1590 1.415 . S
C1592 C1597 1.425 . S
C1592 C1599 1.409 . S
C1593 H1585 0.930 . S
C1593 C1591 1.419 . S
C1593 C1594 1.362 . S
C1594 H1586 0.930 . S
C1594 C1593 1.362 . S
C1594 C1597 1.409 . S
C1595 H1587 0.930 . S
C1595 C1596 1.355 . S
C1595 C1597 1.415 . S
C1596 C1595 1.355 . S
C1596 C1598 1.419 . S
C1597 C1592 1.425 . S
C1597 C1594 1.409 . S
C1597 C1595 1.415 . S
C1598 H1588 0.930 . S
C1598 C1596 1.419 . S
C1598 C1599 1.362 . S
C1599 H1589 0.930 . S
C1599 C1592 1.409 . S
C1599 C1598 1.362 . S
H1600 C1606 0.930 . S
H1601 C1609 0.930 . S
H1602 C1610 0.930 . S
H1603 C1611 0.930 . S
H1604 C1614 0.930 . S
H1605 C1615 0.930 . S
C1606 H1600 0.930 . S
C1606 C1607 1.355 . S
C1606 C1608 1.415 . S
C1607 C1606 1.355 . S
C1607 C1609 1.419 . S
C1608 C1606 1.415 . S
C1608 C1613 1.425 . S
C1608 C1615 1.409 . S
C1609 H1601 0.930 . S
C1609 C1607 1.419 . S
C1609 C1610 1.362 . S
C1610 H1602 0.930 . S
C1610 C1609 1.362 . S
C1610 C1613 1.409 . S
C1611 H1603 0.930 . S
C1611 C1612 1.355 . S
C1611 C1613 1.415 . S
C1612 C1611 1.355 . S
C1612 C1614 1.419 . S
C1613 C1608 1.425 . S
C1613 C1610 1.409 . S
C1613 C1611 1.415 . S
C1614 H1604 0.930 . S
C1614 C1612 1.419 . S
C1614 C1615 1.362 . S
C1615 H1605 0.930 . S
C1615 C1608 1.409 . S
C1615 C1614 1.362 . S
H1616 C1622 0.930 . S
H1617 C1625 0.930 . S
H1618 C1626 0.930 . S
H1619 C1627 0.930 . S
H1620 C1630 0.930 . S
H1621 C1631 0.930 . S
C1622 H1616 0.930 . S
C1622 C1623 1.355 . S
C1622 C1624 1.415 . S
C1623 C1622 1.355 . S
C1623 C1625 1.419 . S
C1624 C1622 1.415 . S
C1624 C1629 1.425 . S
C1624 C1631 1.409 . S
C1625 H1617 0.930 . S
C1625 C1623 1.419 . S
C1625 C1626 1.362 . S
C1626 H1618 0.930 . S
C1626 C1625 1.362 . S
C1626 C1629 1.409 . S
C1627 H1619 0.930 . S
C1627 C1628 1.355 . S
C1627 C1629 1.415 . S
C1628 C1627 1.355 . S
C1628 C1630 1.419 . S
C1629 C1624 1.425 . S
C1629 C1626 1.409 . S
C1629 C1627 1.415 . S
C1630 H1620 0.930 . S
C1630 C1628 1.419 . S
C1630 C1631 1.362 . S
C1631 H1621 0.930 . S
C1631 C1624 1.409 . S
C1631 C1630 1.362 . S
H1632 C1638 0.930 . S
H1633 C1641 0.930 . S
H1634 C1642 0.930 . S
H1635 C1643 0.930 . S
H1636 C1646 0.930 . S
H1637 C1647 0.930 . S
C1638 H1632 0.930 . S
C1638 C1639 1.355 . S
C1638 C1640 1.415 . S
C1639 C1638 1.355 . S
C1639 C1641 1.419 . S
C1640 C1638 1.415 . S
C1640 C1645 1.425 . S
C1640 C1647 1.409 . S
C1641 H1633 0.930 . S
C1641 C1639 1.419 . S
C1641 C1642 1.362 . S
C1642 H1634 0.930 . S
C1642 C1641 1.362 . S
C1642 C1645 1.409 . S
C1643 H1635 0.930 . S
C1643 C1644 1.355 . S
C1643 C1645 1.415 . S
C1644 C1643 1.355 . S
C1644 C1646 1.419 . S
C1645 C1640 1.425 . S
C1645 C1642 1.409 . S
C1645 C1643 1.415 . S
C1646 H1636 0.930 . S
C1646 C1644 1.419 . S
C1646 C1647 1.362 . S
C1647 H1637 0.930 . S
C1647 C1640 1.409 . S
C1647 C1646 1.362 . S
H1648 C1654 0.930 . S
H1649 C1657 0.930 . S
H1650 C1658 0.930 . S
H1651 C1659 0.930 . S
H1652 C1662 0.930 . S
H1653 C1663 0.930 . S
C1654 H1648 0.930 . S
C1654 C1655 1.355 . S
C1654 C1656 1.415 . S
C1655 C1654 1.355 . S
C1655 C1657 1.419 . S
C1656 C1654 1.415 . S
C1656 C1661 1.425 . S
C1656 C1663 1.409 . S
C1657 H1649 0.930 . S
C1657 C1655 1.419 . S
C1657 C1658 1.362 . S
C1658 H1650 0.930 . S
C1658 C1657 1.362 . S
C1658 C1661 1.409 . S
C1659 H1651 0.930 . S
C1659 C1660 1.355 . S
C1659 C1661 1.415 . S
C1660 C1659 1.355 . S
C1660 C1662 1.419 . S
C1661 C1656 1.425 . S
C1661 C1658 1.409 . S
C1661 C1659 1.415 . S
C1662 H1652 0.930 . S
C1662 C1660 1.419 . S
C1662 C1663 1.362 . S
C1663 H1653 0.930 . S
C1663 C1656 1.409 . S
C1663 C1662 1.362 . S
H1664 C1670 0.930 . S
H1665 C1673 0.930 1_545 S
H1666 C1674 0.930 . S
H1667 C1675 0.930 . S
H1668 C1678 0.930 . S
H1669 C1679 0.930 . S
C1670 H1664 0.930 . S
C1670 C1671 1.355 . S
C1670 C1672 1.415 . S
C1671 C1670 1.355 . S
C1671 C1673 1.419 . S
C1672 C1670 1.415 . S
C1672 C1677 1.425 . S
C1672 C1679 1.409 1_556 S
C1673 H1665 0.930 1_565 S
C1673 C1671 1.419 . S
C1673 C1674 1.362 . S
C1674 H1666 0.930 . S
C1674 C1673 1.362 . S
C1674 C1677 1.409 . S
C1675 H1667 0.930 . S
C1675 C1676 1.355 1_556 S
C1675 C1677 1.415 . S
C1676 C1675 1.355 1_554 S
C1676 C1678 1.419 . S
C1677 C1672 1.425 . S
C1677 C1674 1.409 . S
C1677 C1675 1.415 . S
C1678 H1668 0.930 . S
C1678 C1676 1.419 . S
C1678 C1679 1.362 . S
C1679 H1669 0.930 . S
C1679 C1672 1.409 1_554 S
C1679 C1678 1.362 . S
H1680 C1686 0.930 . S
H1681 C1689 0.930 . S
H1682 C1690 0.930 . S
H1683 C1691 0.930 . S
H1684 C1694 0.930 . S
H1685 C1695 0.935 . S
C1686 H1680 0.930 . S
C1686 C1687 1.355 . S
C1686 C1688 1.415 . S
C1687 C1686 1.355 . S
C1687 C1689 1.419 . S
C1688 C1686 1.415 . S
C1688 C1693 1.425 1_556 S
C1688 C1695 1.408 . S
C1689 H1681 0.930 . S
C1689 C1687 1.419 . S
C1689 C1690 1.362 1_556 S
C1690 H1682 0.930 . S
C1690 C1689 1.362 1_554 S
C1690 C1693 1.409 . S
C1691 H1683 0.930 . S
C1691 C1692 1.355 . S
C1691 C1693 1.415 . S
C1692 C1691 1.355 . S
C1692 C1694 1.419 . S
C1693 C1688 1.425 1_554 S
C1693 C1690 1.409 . S
C1693 C1691 1.415 . S
C1694 H1684 0.930 . S
C1694 C1692 1.419 . S
C1694 C1695 1.359 1_554 S
C1695 H1685 0.935 . S
C1695 C1688 1.408 . S
C1695 C1694 1.359 1_556 S
H1696 C1702 0.930 . S
H1697 C1705 0.930 . S
H1698 C1706 0.930 . S
H1699 C1707 0.930 . S
H1700 C1710 0.930 . S
H1701 C1711 0.930 . S
C1702 H1696 0.930 . S
C1702 C1703 1.355 . S
C1702 C1704 1.415 . S
C1703 C1702 1.355 . S
C1703 C1705 1.419 . S
C1704 C1702 1.415 . S
C1704 C1709 1.425 . S
C1704 C1711 1.409 . S
C1705 H1697 0.930 . S
C1705 C1703 1.419 . S
C1705 C1706 1.362 . S
C1706 H1698 0.930 . S
C1706 C1705 1.362 . S
C1706 C1709 1.409 . S
C1707 H1699 0.930 . S
C1707 C1708 1.355 . S
C1707 C1709 1.415 . S
C1708 C1707 1.355 . S
C1708 C1710 1.419 . S
C1709 C1704 1.425 . S
C1709 C1706 1.409 . S
C1709 C1707 1.415 . S
C1710 H1700 0.930 . S
C1710 C1708 1.419 . S
C1710 C1711 1.362 . S
C1711 H1701 0.930 . S
C1711 C1704 1.409 . S
C1711 C1710 1.362 . S
H1712 C1718 0.930 . S
H1713 C1721 0.930 . S
H1714 C1722 0.930 . S
H1715 C1723 0.930 . S
H1716 C1726 0.930 . S
H1717 C1727 0.930 . S
C1718 H1712 0.930 . S
C1718 C1719 1.355 . S
C1718 C1720 1.415 . S
C1719 C1718 1.355 . S
C1719 C1721 1.419 . S
C1720 C1718 1.415 . S
C1720 C1725 1.425 . S
C1720 C1727 1.409 . S
C1721 H1713 0.930 . S
C1721 C1719 1.419 . S
C1721 C1722 1.362 . S
C1722 H1714 0.930 . S
C1722 C1721 1.362 . S
C1722 C1725 1.409 . S
C1723 H1715 0.930 . S
C1723 C1724 1.355 . S
C1723 C1725 1.415 . S
C1724 C1723 1.355 . S
C1724 C1726 1.419 . S
C1725 C1720 1.425 . S
C1725 C1722 1.409 . S
C1725 C1723 1.415 . S
C1726 H1716 0.930 . S
C1726 C1724 1.419 . S
C1726 C1727 1.362 . S
C1727 H1717 0.930 . S
C1727 C1720 1.409 . S
C1727 C1726 1.362 . S
H1728 C1734 0.930 . S
H1729 C1737 0.930 . S
H1730 C1738 0.930 . S
H1731 C1739 0.930 . S
H1732 C1742 0.930 . S
H1733 C1743 0.930 1_565 S
C1734 H1728 0.930 . S
C1734 C1735 1.355 . S
C1734 C1736 1.415 1_556 S
C1735 C1734 1.355 . S
C1735 C1737 1.419 1_556 S
C1736 C1734 1.415 1_554 S
C1736 C1741 1.425 . S
C1736 C1743 1.409 . S
C1737 H1729 0.930 . S
C1737 C1735 1.419 1_554 S
C1737 C1738 1.362 . S
C1738 H1730 0.930 . S
C1738 C1737 1.362 . S
C1738 C1741 1.409 . S
C1739 H1731 0.930 . S
C1739 C1740 1.355 . S
C1739 C1741 1.415 . S
C1740 C1739 1.355 . S
C1740 C1742 1.419 1_545 S
C1741 C1736 1.425 . S
C1741 C1738 1.409 . S
C1741 C1739 1.415 . S
C1742 H1732 0.930 . S
C1742 C1740 1.419 1_565 S
C1742 C1743 1.362 1_565 S
C1743 H1733 0.930 1_545 S
C1743 C1736 1.409 . S
C1743 C1742 1.362 1_545 S
H1744 C1750 0.930 . S
H1745 C1753 0.930 . S
H1746 C1754 0.930 . S
H1747 C1755 0.930 . S
H1748 C1758 0.930 . S
H1749 C1759 0.930 . S
C1750 H1744 0.930 . S
C1750 C1751 1.355 . S
C1750 C1752 1.415 . S
C1751 C1750 1.355 . S
C1751 C1753 1.419 . S
C1752 C1750 1.415 . S
C1752 C1757 1.425 . S
C1752 C1759 1.409 1_556 S
C1753 H1745 0.930 . S
C1753 C1751 1.419 . S
C1753 C1754 1.362 . S
C1754 H1746 0.930 . S
C1754 C1753 1.362 . S
C1754 C1757 1.409 . S
C1755 H1747 0.930 . S
C1755 C1756 1.355 . S
C1755 C1757 1.415 1_554 S
C1756 C1755 1.355 . S
C1756 C1758 1.419 . S
C1757 C1752 1.425 . S
C1757 C1754 1.409 . S
C1757 C1755 1.415 1_556 S
C1758 H1748 0.930 . S
C1758 C1756 1.419 . S
C1758 C1759 1.362 . S
C1759 H1749 0.930 . S
C1759 C1752 1.409 1_554 S
C1759 C1758 1.362 . S
H1760 C1766 0.930 . S
H1761 C1769 0.930 . S
H1762 C1770 0.930 . S
H1763 C1771 0.930 . S
H1764 C1774 0.930 . S
H1765 C1775 0.930 . S
C1766 H1760 0.930 . S
C1766 C1767 1.355 . S
C1766 C1768 1.415 . S
C1767 C1766 1.355 . S
C1767 C1769 1.419 . S
C1768 C1766 1.415 . S
C1768 C1773 1.425 . S
C1768 C1775 1.409 . S
C1769 H1761 0.930 . S
C1769 C1767 1.419 . S
C1769 C1770 1.362 . S
C1770 H1762 0.930 . S
C1770 C1769 1.362 . S
C1770 C1773 1.409 . S
C1771 H1763 0.930 . S
C1771 C1772 1.355 . S
C1771 C1773 1.415 . S
C1772 C1771 1.355 . S
C1772 C1774 1.419 . S
C1773 C1768 1.425 . S
C1773 C1770 1.409 . S
C1773 C1771 1.415 . S
C1774 H1764 0.930 . S
C1774 C1772 1.419 . S
C1774 C1775 1.362 . S
C1775 H1765 0.930 . S
C1775 C1768 1.409 . S
C1775 C1774 1.362 . S
H1776 C1782 0.930 . S
H1777 C1785 0.930 . S
H1778 C1786 0.930 . S
H1779 C1787 0.930 . S
H1780 C1790 0.930 . S
H1781 C1791 0.930 . S
C1782 H1776 0.930 . S
C1782 C1783 1.355 . S
C1782 C1784 1.415 . S
C1783 C1782 1.355 . S
C1783 C1785 1.419 . S
C1784 C1782 1.415 . S
C1784 C1789 1.425 . S
C1784 C1791 1.409 . S
C1785 H1777 0.930 . S
C1785 C1783 1.419 . S
C1785 C1786 1.362 . S
C1786 H1778 0.930 . S
C1786 C1785 1.362 . S
C1786 C1789 1.409 . S
C1787 H1779 0.930 . S
C1787 C1788 1.355 . S
C1787 C1789 1.415 . S
C1788 C1787 1.355 . S
C1788 C1790 1.419 . S
C1789 C1784 1.425 . S
C1789 C1786 1.409 . S
C1789 C1787 1.415 . S
C1790 H1780 0.930 . S
C1790 C1788 1.419 . S
C1790 C1791 1.362 . S
C1791 H1781 0.930 . S
C1791 C1784 1.409 . S
C1791 C1790 1.362 . S
H1792 C1798 0.930 . S
H1793 C1801 0.930 . S
H1794 C1802 0.930 . S
H1795 C1803 0.930 . S
H1796 C1806 0.930 . S
H1797 C1807 0.930 . S
C1798 H1792 0.930 . S
C1798 C1799 1.355 . S
C1798 C1800 1.415 . S
C1799 C1798 1.355 . S
C1799 C1801 1.419 1_455 S
C1800 C1798 1.415 . S
C1800 C1805 1.425 1_455 S
C1800 C1807 1.409 . S
C1801 H1793 0.930 . S
C1801 C1799 1.419 1_655 S
C1801 C1802 1.362 . S
C1802 H1794 0.930 . S
C1802 C1801 1.362 . S
C1802 C1805 1.409 . S
C1803 H1795 0.930 . S
C1803 C1804 1.355 1_655 S
C1803 C1805 1.415 . S
C1804 C1803 1.355 1_455 S
C1804 C1806 1.419 . S
C1805 C1800 1.425 1_655 S
C1805 C1802 1.409 . S
C1805 C1803 1.415 . S
C1806 H1796 0.930 . S
C1806 C1804 1.419 . S
C1806 C1807 1.362 . S
C1807 H1797 0.930 . S
C1807 C1800 1.409 . S
C1807 C1806 1.362 . S
H1808 C1814 0.930 1_565 S
H1809 C1817 0.932 1_554 S
H1810 C1818 0.930 . S
H1811 C1819 0.930 . S
H1812 C1822 0.930 . S
H1813 C1823 0.930 . S
C1814 H1808 0.930 1_545 S
C1814 C1815 1.355 . S
C1814 C1816 1.415 . S
C1815 C1814 1.355 . S
C1815 C1817 1.419 . S
C1816 C1814 1.415 . S
C1816 C1821 1.425 . S
C1816 C1823 1.409 . S
C1817 H1809 0.932 1_556 S
C1817 C1815 1.419 . S
C1817 C1818 1.362 . S
C1818 H1810 0.930 . S
C1818 C1817 1.362 . S
C1818 C1821 1.409 . S
C1819 H1811 0.930 . S
C1819 C1820 1.355 . S
C1819 C1821 1.415 . S
C1820 C1819 1.355 . S
C1820 C1822 1.419 . S
C1821 C1816 1.425 . S
C1821 C1818 1.409 . S
C1821 C1819 1.415 . S
C1822 H1812 0.930 . S
C1822 C1820 1.419 . S
C1822 C1823 1.362 . S
C1823 H1813 0.930 . S
C1823 C1816 1.409 . S
C1823 C1822 1.362 . S
H1824 C1830 0.930 . S
H1825 C1833 0.930 . S
H1826 C1834 0.930 . S
H1827 C1835 0.953 1_565 S
H1828 C1838 0.930 . S
H1829 C1839 0.930 . S
C1830 H1824 0.930 . S
C1830 C1831 1.355 1_455 S
C1830 C1832 1.415 . S
C1831 C1830 1.355 1_655 S
C1831 C1833 1.419 . S
C1832 C1830 1.415 . S
C1832 C1837 1.425 1_455 S
C1832 C1839 1.409 . S
C1833 H1825 0.930 . S
C1833 C1831 1.419 . S
C1833 C1834 1.362 . S
C1834 H1826 0.930 . S
C1834 C1833 1.362 . S
C1834 C1837 1.409 . S
C1835 H1827 0.953 1_545 S
C1835 C1836 1.322 1_655 S
C1835 C1837 1.425 . S
C1836 C1835 1.322 1_455 S
C1836 C1838 1.419 . S
C1837 C1832 1.425 1_655 S
C1837 C1834 1.409 . S
C1837 C1835 1.425 . S
C1838 H1828 0.930 . S
C1838 C1836 1.419 . S
C1838 C1839 1.362 . S
C1839 H1829 0.930 . S
C1839 C1832 1.409 . S
C1839 C1838 1.362 . S
H1840 C1846 0.930 . S
H1841 C1849 0.930 . S
H1842 C1850 0.930 . S
H1843 C1851 0.930 . S
H1844 C1854 0.930 . S
H1845 C1855 0.930 . S
C1846 H1840 0.930 . S
C1846 C1847 1.355 . S
C1846 C1848 1.415 . S
C1847 C1846 1.355 . S
C1847 C1849 1.419 . S
C1848 C1846 1.415 . S
C1848 C1853 1.425 . S
C1848 C1855 1.409 . S
C1849 H1841 0.930 . S
C1849 C1847 1.419 . S
C1849 C1850 1.362 . S
C1850 H1842 0.930 . S
C1850 C1849 1.362 . S
C1850 C1853 1.409 . S
C1851 H1843 0.930 . S
C1851 C1852 1.355 . S
C1851 C1853 1.415 . S
C1852 C1851 1.355 . S
C1852 C1854 1.419 . S
C1853 C1848 1.425 . S
C1853 C1850 1.409 . S
C1853 C1851 1.415 . S
C1854 H1844 0.930 . S
C1854 C1852 1.419 . S
C1854 C1855 1.362 . S
C1855 H1845 0.930 . S
C1855 C1848 1.409 . S
C1855 C1854 1.362 . S
H1856 C1862 0.930 . S
H1857 C1865 0.930 . S
H1858 C1866 0.930 . S
H1859 C1867 0.930 . S
H1860 C1870 0.930 . S
H1861 C1871 0.930 . S
C1862 H1856 0.930 . S
C1862 C1863 1.355 . S
C1862 C1864 1.415 . S
C1863 C1862 1.355 . S
C1863 C1865 1.419 1_655 S
C1864 C1862 1.415 . S
C1864 C1869 1.429 . S
C1864 C1871 1.409 . S
C1865 H1857 0.930 . S
C1865 C1863 1.419 1_455 S
C1865 C1866 1.362 . S
C1866 H1858 0.930 . S
C1866 C1865 1.362 . S
C1866 C1869 1.408 1_455 S
C1867 H1859 0.930 . S
C1867 C1868 1.355 1_455 S
C1867 C1869 1.412 1_455 S
C1868 C1867 1.355 1_655 S
C1868 C1870 1.419 . S
C1869 C1864 1.429 . S
C1869 C1866 1.408 1_655 S
C1869 C1867 1.412 1_655 S
C1870 H1860 0.930 . S
C1870 C1868 1.419 . S
C1870 C1871 1.362 . S
C1871 H1861 0.930 . S
C1871 C1864 1.409 . S
C1871 C1870 1.362 . S
H1872 C1878 0.930 . S
H1873 C1881 0.930 1_545 S
H1874 C1882 0.930 . S
H1875 C1883 0.930 . S
H1876 C1886 0.930 . S
H1877 C1887 0.930 . S
C1878 H1872 0.930 . S
C1878 C1879 1.355 . S
C1878 C1880 1.415 . S
C1879 C1878 1.355 . S
C1879 C1881 1.419 . S
C1880 C1878 1.415 . S
C1880 C1885 1.425 . S
C1880 C1887 1.409 . S
C1881 H1873 0.930 1_565 S
C1881 C1879 1.419 . S
C1881 C1882 1.362 . S
C1882 H1874 0.930 . S
C1882 C1881 1.362 . S
C1882 C1885 1.409 . S
C1883 H1875 0.930 . S
C1883 C1884 1.355 . S
C1883 C1885 1.415 . S
C1884 C1883 1.355 . S
C1884 C1886 1.419 . S
C1885 C1880 1.425 . S
C1885 C1882 1.409 . S
C1885 C1883 1.415 . S
C1886 H1876 0.930 . S
C1886 C1884 1.419 . S
C1886 C1887 1.362 . S
C1887 H1877 0.930 . S
C1887 C1880 1.409 . S
C1887 C1886 1.362 . S
H1888 C1894 0.930 . S
H1889 C1897 0.930 . S
H1890 C1898 0.930 . S
H1891 C1899 0.930 1_545 S
H1892 C1902 0.930 . S
H1893 C1903 0.930 . S
C1894 H1888 0.930 . S
C1894 C1895 1.355 . S
C1894 C1896 1.402 1_455 S
C1895 C1894 1.355 . S
C1895 C1897 1.419 1_455 S
C1896 C1894 1.402 1_655 S
C1896 C1901 1.438 . S
C1896 C1903 1.411 1_655 S
C1897 H1889 0.930 . S
C1897 C1895 1.419 1_655 S
C1897 C1898 1.362 . S
C1898 H1890 0.930 . S
C1898 C1897 1.362 . S
C1898 C1901 1.409 . S
C1899 H1891 0.930 1_565 S
C1899 C1900 1.355 . S
C1899 C1901 1.415 . S
C1900 C1899 1.355 . S
C1900 C1902 1.419 . S
C1901 C1896 1.438 . S
C1901 C1898 1.409 . S
C1901 C1899 1.415 . S
C1902 H1892 0.930 . S
C1902 C1900 1.419 . S
C1902 C1903 1.362 1_655 S
C1903 H1893 0.930 . S
C1903 C1896 1.411 1_455 S
C1903 C1902 1.362 1_455 S
H1904 C1910 0.930 . S
H1905 C1913 0.930 . S
H1906 C1914 0.930 . S
H1907 C1915 0.930 . S
H1908 C1918 0.930 . S
H1909 C1919 0.930 . S
C1910 H1904 0.930 . S
C1910 C1911 1.355 . S
C1910 C1912 1.415 . S
C1911 C1910 1.355 . S
C1911 C1913 1.419 . S
C1912 C1910 1.415 . S
C1912 C1917 1.425 . S
C1912 C1919 1.409 . S
C1913 H1905 0.930 . S
C1913 C1911 1.419 . S
C1913 C1914 1.362 . S
C1914 H1906 0.930 . S
C1914 C1913 1.362 . S
C1914 C1917 1.409 . S
C1915 H1907 0.930 . S
C1915 C1916 1.355 . S
C1915 C1917 1.415 . S
C1916 C1915 1.355 . S
C1916 C1918 1.419 . S
C1917 C1912 1.425 . S
C1917 C1914 1.409 . S
C1917 C1915 1.415 . S
C1918 H1908 0.930 . S
C1918 C1916 1.419 . S
C1918 C1919 1.362 . S
C1919 H1909 0.930 . S
C1919 C1912 1.409 . S
C1919 C1918 1.362 . S
H1920 C1926 0.930 . S
H1921 C1929 0.930 . S
H1922 C1930 0.930 . S
H1923 C1931 0.930 . S
H1924 C1934 0.930 . S
H1925 C1935 0.930 . S
C1926 H1920 0.930 . S
C1926 C1927 1.355 . S
C1926 C1928 1.415 . S
C1927 C1926 1.355 . S
C1927 C1929 1.419 1_455 S
C1928 C1926 1.415 . S
C1928 C1933 1.425 1_455 S
C1928 C1935 1.409 . S
C1929 H1921 0.930 . S
C1929 C1927 1.419 1_655 S
C1929 C1930 1.362 . S
C1930 H1922 0.930 . S
C1930 C1929 1.362 . S
C1930 C1933 1.409 . S
C1931 H1923 0.930 . S
C1931 C1932 1.355 1_655 S
C1931 C1933 1.415 . S
C1932 C1931 1.355 1_455 S
C1932 C1934 1.419 . S
C1933 C1928 1.425 1_655 S
C1933 C1930 1.409 . S
C1933 C1931 1.415 . S
C1934 H1924 0.930 . S
C1934 C1932 1.419 . S
C1934 C1935 1.362 . S
C1935 H1925 0.930 . S
C1935 C1928 1.409 . S
C1935 C1934 1.362 . S
H1936 C1942 0.930 . S
H1937 C1945 0.930 . S
H1938 C1946 0.930 . S
H1939 C1947 0.930 . S
H1940 C1950 0.930 . S
H1941 C1951 0.930 . S
C1942 H1936 0.930 . S
C1942 C1943 1.355 . S
C1942 C1944 1.415 . S
C1943 C1942 1.355 . S
C1943 C1945 1.419 . S
C1944 C1942 1.415 . S
C1944 C1949 1.425 . S
C1944 C1951 1.409 . S
C1945 H1937 0.930 . S
C1945 C1943 1.419 . S
C1945 C1946 1.362 . S
C1946 H1938 0.930 . S
C1946 C1945 1.362 . S
C1946 C1949 1.409 . S
C1947 H1939 0.930 . S
C1947 C1948 1.355 . S
C1947 C1949 1.415 . S
C1948 C1947 1.355 . S
C1948 C1950 1.419 . S
C1949 C1944 1.425 . S
C1949 C1946 1.409 . S
C1949 C1947 1.415 . S
C1950 H1940 0.930 . S
C1950 C1948 1.419 . S
C1950 C1951 1.362 . S
C1951 H1941 0.930 . S
C1951 C1944 1.409 . S
C1951 C1950 1.362 . S
H1952 C1958 0.917 1_655 S
H1953 C1961 0.930 . S
H1954 C1962 0.930 . S
H1955 C1963 0.930 . S
H1956 C1966 0.930 . S
H1957 C1967 0.930 . S
C1958 H1952 0.917 1_455 S
C1958 C1959 1.375 . S
C1958 C1960 1.407 1_455 S
C1959 C1958 1.375 . S
C1959 C1961 1.419 . S
C1960 C1958 1.407 1_655 S
C1960 C1965 1.425 1_655 S
C1960 C1967 1.409 . S
C1961 H1953 0.930 . S
C1961 C1959 1.419 . S
C1961 C1962 1.362 . S
C1962 H1954 0.930 . S
C1962 C1961 1.362 . S
C1962 C1965 1.409 . S
C1963 H1955 0.930 . S
C1963 C1964 1.355 1_455 S
C1963 C1965 1.415 . S
C1964 C1963 1.355 1_655 S
C1964 C1966 1.419 . S
C1965 C1960 1.425 1_455 S
C1965 C1962 1.409 . S
C1965 C1963 1.415 . S
C1966 H1956 0.930 . S
C1966 C1964 1.419 . S
C1966 C1967 1.362 . S
C1967 H1957 0.930 . S
C1967 C1960 1.409 . S
C1967 C1966 1.362 . S
H1968 C1974 0.930 . S
H1969 C1977 0.930 . S
H1970 C1978 0.930 . S
H1971 C1979 0.930 . S
H1972 C1982 0.930 . S
H1973 C1983 0.930 . S
C1974 H1968 0.930 . S
C1974 C1975 1.355 . S
C1974 C1976 1.415 . S
C1975 C1974 1.355 . S
C1975 C1977 1.419 . S
C1976 C1974 1.415 . S
C1976 C1981 1.425 . S
C1976 C1983 1.409 . S
C1977 H1969 0.930 . S
C1977 C1975 1.419 . S
C1977 C1978 1.362 . S
C1978 H1970 0.930 . S
C1978 C1977 1.362 . S
C1978 C1981 1.409 . S
C1979 H1971 0.930 . S
C1979 C1980 1.355 . S
C1979 C1981 1.415 . S
C1980 C1979 1.355 . S
C1980 C1982 1.419 . S
C1981 C1976 1.425 . S
C1981 C1978 1.409 . S
C1981 C1979 1.415 . S
C1982 H1972 0.930 . S
C1982 C1980 1.419 . S
C1982 C1983 1.362 . S
C1983 H1973 0.930 . S
C1983 C1976 1.409 . S
C1983 C1982 1.362 . S
H1984 C1990 0.930 . S
H1985 C1993 0.930 . S
H1986 C1994 0.930 . S
H1987 C1995 0.930 . S
H1988 C1998 0.930 . S
H1989 C1999 0.930 . S
C1990 H1984 0.930 . S
C1990 C1991 1.355 1_455 S
C1990 C1992 1.411 1_455 S
C1991 C1990 1.355 1_655 S
C1991 C1993 1.419 . S
C1992 C1990 1.411 1_655 S
C1992 C1997 1.433 . S
C1992 C1999 1.406 1_655 S
C1993 H1985 0.930 . S
C1993 C1991 1.419 . S
C1993 C1994 1.362 . S
C1994 H1986 0.930 . S
C1994 C1993 1.362 . S
C1994 C1997 1.409 . S
C1995 H1987 0.930 . S
C1995 C1996 1.355 . S
C1995 C1997 1.415 . S
C1996 C1995 1.355 . S
C1996 C1998 1.419 1_655 S
C1997 C1992 1.433 . S
C1997 C1994 1.409 . S
C1997 C1995 1.415 . S
C1998 H1988 0.930 . S
C1998 C1996 1.419 1_455 S
C1998 C1999 1.362 . S
C1999 H1989 0.930 . S
C1999 C1992 1.406 1_455 S
C1999 C1998 1.362 . S
H2000 C2006 0.930 . S
H2001 C2009 0.930 . S
H2002 C2010 0.930 . S
H2003 C2011 0.930 . S
H2004 C2014 0.930 . S
H2005 C2015 0.930 . S
C2006 H2000 0.930 . S
C2006 C2007 1.355 . S
C2006 C2008 1.415 . S
C2007 C2006 1.355 . S
C2007 C2009 1.419 . S
C2008 C2006 1.415 . S
C2008 C2013 1.425 . S
C2008 C2015 1.409 . S
C2009 H2001 0.930 . S
C2009 C2007 1.419 . S
C2009 C2010 1.362 . S
C2010 H2002 0.930 . S
C2010 C2009 1.362 . S
C2010 C2013 1.409 . S
C2011 H2003 0.930 . S
C2011 C2012 1.355 . S
C2011 C2013 1.415 . S
C2012 C2011 1.355 . S
C2012 C2014 1.419 . S
C2013 C2008 1.425 . S
C2013 C2010 1.409 . S
C2013 C2011 1.415 . S
C2014 H2004 0.930 . S
C2014 C2012 1.419 . S
C2014 C2015 1.362 . S
C2015 H2005 0.930 . S
C2015 C2008 1.409 . S
C2015 C2014 1.362 . S
H2016 C2022 0.909 1_455 S
H2017 C2025 0.930 . S
H2018 C2026 0.930 . S
H2019 C2027 0.930 . S
H2020 C2030 0.930 . S
H2021 C2031 0.930 . S
C2022 H2016 0.909 1_655 S
C2022 C2023 1.389 . S
C2022 C2024 1.403 1_655 S
C2023 C2022 1.389 . S
C2023 C2025 1.419 . S
C2024 C2022 1.403 1_455 S
C2024 C2029 1.425 1_455 S
C2024 C2031 1.409 . S
C2025 H2017 0.930 . S
C2025 C2023 1.419 . S
C2025 C2026 1.362 . S
C2026 H2018 0.930 . S
C2026 C2025 1.362 . S
C2026 C2029 1.409 . S
C2027 H2019 0.930 . S
C2027 C2028 1.355 1_655 S
C2027 C2029 1.415 . S
C2028 C2027 1.355 1_455 S
C2028 C2030 1.419 . S
C2029 C2024 1.425 1_655 S
C2029 C2026 1.409 . S
C2029 C2027 1.415 . S
C2030 H2020 0.930 . S
C2030 C2028 1.419 . S
C2030 C2031 1.362 . S
C2031 H2021 0.930 . S
C2031 C2024 1.409 . S
C2031 C2030 1.362 . S
H2032 C2038 0.930 . S
H2033 C2041 0.930 . S
H2034 C2042 0.930 . S
H2035 C2043 0.930 . S
H2036 C2046 0.930 . S
H2037 C2047 0.930 . S
C2038 H2032 0.930 . S
C2038 C2039 1.355 . S
C2038 C2040 1.415 . S
C2039 C2038 1.355 . S
C2039 C2041 1.419 . S
C2040 C2038 1.415 . S
C2040 C2045 1.425 . S
C2040 C2047 1.409 . S
C2041 H2033 0.930 . S
C2041 C2039 1.419 . S
C2041 C2042 1.362 . S
C2042 H2034 0.930 . S
C2042 C2041 1.362 . S
C2042 C2045 1.409 . S
C2043 H2035 0.930 . S
C2043 C2044 1.355 . S
C2043 C2045 1.415 . S
C2044 C2043 1.355 . S
C2044 C2046 1.419 . S
C2045 C2040 1.425 . S
C2045 C2042 1.409 . S
C2045 C2043 1.415 . S
C2046 H2036 0.930 . S
C2046 C2044 1.419 . S
C2046 C2047 1.362 . S
C2047 H2037 0.930 . S
C2047 C2040 1.409 . S
C2047 C2046 1.362 . S
H2048 C2054 0.930 . S
H2049 C2057 0.930 . S
H2050 C2058 0.930 . S
H2051 C2059 0.930 . S
H2052 C2062 0.930 . S
H2053 C2063 0.930 . S
C2054 H2048 0.930 . S
C2054 C2055 1.355 . S
C2054 C2056 1.415 . S
C2055 C2054 1.355 . S
C2055 C2057 1.419 . S
C2056 C2054 1.415 . S
C2056 C2061 1.425 . S
C2056 C2063 1.409 . S
C2057 H2049 0.930 . S
C2057 C2055 1.419 . S
C2057 C2058 1.362 . S
C2058 H2050 0.930 . S
C2058 C2057 1.362 . S
C2058 C2061 1.409 . S
C2059 H2051 0.930 . S
C2059 C2060 1.355 . S
C2059 C2061 1.415 . S
C2060 C2059 1.355 . S
C2060 C2062 1.419 . S
C2061 C2056 1.425 . S
C2061 C2058 1.409 . S
C2061 C2059 1.415 . S
C2062 H2052 0.930 . S
C2062 C2060 1.419 . S
C2062 C2063 1.362 . S
C2063 H2053 0.930 . S
C2063 C2056 1.409 . S
C2063 C2062 1.362 . S
H2064 C2070 0.930 1_565 S
H2065 C2073 0.930 . S
H2066 C2074 0.930 . S
H2067 C2075 0.930 . S
H2068 C2078 0.930 . S
H2069 C2079 0.930 . S
C2070 H2064 0.930 1_545 S
C2070 C2071 1.355 . S
C2070 C2072 1.415 . S
C2071 C2070 1.355 . S
C2071 C2073 1.419 . S
C2072 C2070 1.415 . S
C2072 C2077 1.425 . S
C2072 C2079 1.409 . S
C2073 H2065 0.930 . S
C2073 C2071 1.419 . S
C2073 C2074 1.362 . S
C2074 H2066 0.930 . S
C2074 C2073 1.362 . S
C2074 C2077 1.409 . S
C2075 H2067 0.930 . S
C2075 C2076 1.355 . S
C2075 C2077 1.415 . S
C2076 C2075 1.355 . S
C2076 C2078 1.419 . S
C2077 C2072 1.425 . S
C2077 C2074 1.409 . S
C2077 C2075 1.415 . S
C2078 H2068 0.930 . S
C2078 C2076 1.419 . S
C2078 C2079 1.362 . S
C2079 H2069 0.930 . S
C2079 C2072 1.409 . S
C2079 C2078 1.362 . S
H2080 C2086 0.930 . S
H2081 C2089 0.930 . S
H2082 C2090 0.930 . S
H2083 C2091 0.930 1_565 S
H2084 C2094 0.930 . S
H2085 C2095 0.930 . S
C2086 H2080 0.930 . S
C2086 C2087 1.355 . S
C2086 C2088 1.415 . S
C2087 C2086 1.355 . S
C2087 C2089 1.419 . S
C2088 C2086 1.415 . S
C2088 C2093 1.425 . S
C2088 C2095 1.409 . S
C2089 H2081 0.930 . S
C2089 C2087 1.419 . S
C2089 C2090 1.362 . S
C2090 H2082 0.930 . S
C2090 C2089 1.362 . S
C2090 C2093 1.409 . S
C2091 H2083 0.930 1_545 S
C2091 C2092 1.355 . S
C2091 C2093 1.415 . S
C2092 C2091 1.355 . S
C2092 C2094 1.419 . S
C2093 C2088 1.425 . S
C2093 C2090 1.409 . S
C2093 C2091 1.415 . S
C2094 H2084 0.930 . S
C2094 C2092 1.419 . S
C2094 C2095 1.362 . S
C2095 H2085 0.930 . S
C2095 C2088 1.409 . S
C2095 C2094 1.362 . S
H2096 C2102 0.930 . S
H2097 C2105 0.930 . S
H2098 C2106 0.930 . S
H2099 C2107 0.930 . S
H2100 C2110 0.930 . S
H2101 C2111 0.930 . S
C2102 H2096 0.930 . S
C2102 C2103 1.355 . S
C2102 C2104 1.415 . S
C2103 C2102 1.355 . S
C2103 C2105 1.419 . S
C2104 C2102 1.415 . S
C2104 C2109 1.425 . S
C2104 C2111 1.409 . S
C2105 H2097 0.930 . S
C2105 C2103 1.419 . S
C2105 C2106 1.362 . S
C2106 H2098 0.930 . S
C2106 C2105 1.362 . S
C2106 C2109 1.409 . S
C2107 H2099 0.930 . S
C2107 C2108 1.355 . S
C2107 C2109 1.415 . S
C2108 C2107 1.355 . S
C2108 C2110 1.419 . S
C2109 C2104 1.425 . S
C2109 C2106 1.409 . S
C2109 C2107 1.415 . S
C2110 H2100 0.930 . S
C2110 C2108 1.419 . S
C2110 C2111 1.362 . S
C2111 H2101 0.930 . S
C2111 C2104 1.409 . S
C2111 C2110 1.362 . S
H2112 C2118 0.930 . S
H2113 C2121 0.930 . S
H2114 C2122 0.930 . S
H2115 C2123 0.930 . S
H2116 C2126 0.930 . S
H2117 C2127 0.930 . S
C2118 H2112 0.930 . S
C2118 C2119 1.355 . S
C2118 C2120 1.415 . S
C2119 C2118 1.355 . S
C2119 C2121 1.419 . S
C2120 C2118 1.415 . S
C2120 C2125 1.425 . S
C2120 C2127 1.409 . S
C2121 H2113 0.930 . S
C2121 C2119 1.419 . S
C2121 C2122 1.362 . S
C2122 H2114 0.930 . S
C2122 C2121 1.362 . S
C2122 C2125 1.409 . S
C2123 H2115 0.930 . S
C2123 C2124 1.355 . S
C2123 C2125 1.415 . S
C2124 C2123 1.355 . S
C2124 C2126 1.419 . S
C2125 C2120 1.425 . S
C2125 C2122 1.409 . S
C2125 C2123 1.415 . S
C2126 H2116 0.930 . S
C2126 C2124 1.419 . S
C2126 C2127 1.362 . S
C2127 H2117 0.930 . S
C2127 C2120 1.409 . S
C2127 C2126 1.362 . S
H2128 C2134 0.930 1_545 S
H2129 C2137 0.930 . S
H2130 C2138 0.930 . S
H2131 C2139 0.930 . S
H2132 C2142 0.930 . S
H2133 C2143 0.930 . S
C2134 H2128 0.930 1_565 S
C2134 C2135 1.355 . S
C2134 C2136 1.415 . S
C2135 C2134 1.355 . S
C2135 C2137 1.419 . S
C2136 C2134 1.415 . S
C2136 C2141 1.425 . S
C2136 C2143 1.409 . S
C2137 H2129 0.930 . S
C2137 C2135 1.419 . S
C2137 C2138 1.362 . S
C2138 H2130 0.930 . S
C2138 C2137 1.362 . S
C2138 C2141 1.409 . S
C2139 H2131 0.930 . S
C2139 C2140 1.355 . S
C2139 C2141 1.415 . S
C2140 C2139 1.355 . S
C2140 C2142 1.419 . S
C2141 C2136 1.425 . S
C2141 C2138 1.409 . S
C2141 C2139 1.415 . S
C2142 H2132 0.930 . S
C2142 C2140 1.419 . S
C2142 C2143 1.362 . S
C2143 H2133 0.930 . S
C2143 C2136 1.409 . S
C2143 C2142 1.362 . S
H2144 C2150 0.930 . S
H2145 C2153 0.930 . S
H2146 C2154 0.930 . S
H2147 C2155 0.930 . S
H2148 C2158 0.930 1_545 S
H2149 C2159 0.930 . S
C2150 H2144 0.930 . S
C2150 C2151 1.355 . S
C2150 C2152 1.415 . S
C2151 C2150 1.355 . S
C2151 C2153 1.419 . S
C2152 C2150 1.415 . S
C2152 C2157 1.425 . S
C2152 C2159 1.409 . S
C2153 H2145 0.930 . S
C2153 C2151 1.419 . S
C2153 C2154 1.362 . S
C2154 H2146 0.930 . S
C2154 C2153 1.362 . S
C2154 C2157 1.409 . S
C2155 H2147 0.930 . S
C2155 C2156 1.355 . S
C2155 C2157 1.415 . S
C2156 C2155 1.355 . S
C2156 C2158 1.419 . S
C2157 C2152 1.425 . S
C2157 C2154 1.409 . S
C2157 C2155 1.415 . S
C2158 H2148 0.930 1_565 S
C2158 C2156 1.419 . S
C2158 C2159 1.362 . S
C2159 H2149 0.930 . S
C2159 C2152 1.409 . S
C2159 C2158 1.362 . S
H2160 C2166 0.930 . S
H2161 C2169 0.930 . S
H2162 C2170 0.930 . S
H2163 C2171 0.930 . S
H2164 C2174 0.930 . S
H2165 C2175 0.930 . S
C2166 H2160 0.930 . S
C2166 C2167 1.355 . S
C2166 C2168 1.415 . S
C2167 C2166 1.355 . S
C2167 C2169 1.419 . S
C2168 C2166 1.415 . S
C2168 C2173 1.425 . S
C2168 C2175 1.409 . S
C2169 H2161 0.930 . S
C2169 C2167 1.419 . S
C2169 C2170 1.362 . S
C2170 H2162 0.930 . S
C2170 C2169 1.362 . S
C2170 C2173 1.409 . S
C2171 H2163 0.930 . S
C2171 C2172 1.355 . S
C2171 C2173 1.415 . S
C2172 C2171 1.355 . S
C2172 C2174 1.419 . S
C2173 C2168 1.425 . S
C2173 C2170 1.409 . S
C2173 C2171 1.415 . S
C2174 H2164 0.930 . S
C2174 C2172 1.419 . S
C2174 C2175 1.362 . S
C2175 H2165 0.930 . S
C2175 C2168 1.409 . S
C2175 C2174 1.362 . S
H2176 C2182 0.930 . S
H2177 C2185 0.930 . S
H2178 C2186 0.930 . S
H2179 C2187 0.930 . S
H2180 C2190 0.930 . S
H2181 C2191 0.930 . S
C2182 H2176 0.930 . S
C2182 C2183 1.355 . S
C2182 C2184 1.415 . S
C2183 C2182 1.355 . S
C2183 C2185 1.419 . S
C2184 C2182 1.415 . S
C2184 C2189 1.425 . S
C2184 C2191 1.409 . S
C2185 H2177 0.930 . S
C2185 C2183 1.419 . S
C2185 C2186 1.362 . S
C2186 H2178 0.930 . S
C2186 C2185 1.362 . S
C2186 C2189 1.409 . S
C2187 H2179 0.930 . S
C2187 C2188 1.355 . S
C2187 C2189 1.415 . S
C2188 C2187 1.355 . S
C2188 C2190 1.419 . S
C2189 C2184 1.425 . S
C2189 C2186 1.409 . S
C2189 C2187 1.415 . S
C2190 H2180 0.930 . S
C2190 C2188 1.419 . S
C2190 C2191 1.362 . S
C2191 H2181 0.930 . S
C2191 C2184 1.409 . S
C2191 C2190 1.362 . S
H2192 C2198 0.930 . S
H2193 C2201 0.930 . S
H2194 C2202 0.930 . S
H2195 C2203 0.930 . S
H2196 C2206 0.930 . S
H2197 C2207 0.930 . S
C2198 H2192 0.930 . S
C2198 C2199 1.355 . S
C2198 C2200 1.415 . S
C2199 C2198 1.355 . S
C2199 C2201 1.419 . S
C2200 C2198 1.415 . S
C2200 C2205 1.425 . S
C2200 C2207 1.409 . S
C2201 H2193 0.930 . S
C2201 C2199 1.419 . S
C2201 C2202 1.362 . S
C2202 H2194 0.930 . S
C2202 C2201 1.362 . S
C2202 C2205 1.409 . S
C2203 H2195 0.930 . S
C2203 C2204 1.355 . S
C2203 C2205 1.415 . S
C2204 C2203 1.355 . S
C2204 C2206 1.419 . S
C2205 C2200 1.425 . S
C2205 C2202 1.409 . S
C2205 C2203 1.415 . S
C2206 H2196 0.930 . S
C2206 C2204 1.419 . S
C2206 C2207 1.362 . S
C2207 H2197 0.930 . S
C2207 C2200 1.409 . S
C2207 C2206 1.362 . S
H2208 C2214 0.930 . S
H2209 C2217 0.930 . S
H2210 C2218 0.930 . S
H2211 C2219 0.930 . S
H2212 C2222 0.930 . S
H2213 C2223 0.930 . S
C2214 H2208 0.930 . S
C2214 C2215 1.355 . S
C2214 C2216 1.415 . S
C2215 C2214 1.355 . S
C2215 C2217 1.419 . S
C2216 C2214 1.415 . S
C2216 C2221 1.425 . S
C2216 C2223 1.409 . S
C2217 H2209 0.930 . S
C2217 C2215 1.419 . S
C2217 C2218 1.362 . S
C2218 H2210 0.930 . S
C2218 C2217 1.362 . S
C2218 C2221 1.409 . S
C2219 H2211 0.930 . S
C2219 C2220 1.355 . S
C2219 C2221 1.415 . S
C2220 C2219 1.355 . S
C2220 C2222 1.419 . S
C2221 C2216 1.425 . S
C2221 C2218 1.409 . S
C2221 C2219 1.415 . S
C2222 H2212 0.930 . S
C2222 C2220 1.419 . S
C2222 C2223 1.362 . S
C2223 H2213 0.930 . S
C2223 C2216 1.409 . S
C2223 C2222 1.362 . S
H2224 C2230 0.930 . S
H2225 C2233 0.930 . S
H2226 C2234 0.930 . S
H2227 C2235 0.930 . S
H2228 C2238 0.930 . S
H2229 C2239 0.930 . S
C2230 H2224 0.930 . S
C2230 C2231 1.355 . S
C2230 C2232 1.415 . S
C2231 C2230 1.355 . S
C2231 C2233 1.419 . S
C2232 C2230 1.415 . S
C2232 C2237 1.425 . S
C2232 C2239 1.409 . S
C2233 H2225 0.930 . S
C2233 C2231 1.419 . S
C2233 C2234 1.362 . S
C2234 H2226 0.930 . S
C2234 C2233 1.362 . S
C2234 C2237 1.409 . S
C2235 H2227 0.930 . S
C2235 C2236 1.355 . S
C2235 C2237 1.415 . S
C2236 C2235 1.355 . S
C2236 C2238 1.419 . S
C2237 C2232 1.425 . S
C2237 C2234 1.409 . S
C2237 C2235 1.415 . S
C2238 H2228 0.930 . S
C2238 C2236 1.419 . S
C2238 C2239 1.362 . S
C2239 H2229 0.930 . S
C2239 C2232 1.409 . S
C2239 C2238 1.362 . S
H2240 C2246 0.930 . S
H2241 C2249 0.930 . S
H2242 C2250 0.930 . S
H2243 C2251 0.930 . S
H2244 C2254 0.930 . S
H2245 C2255 0.930 . S
C2246 H2240 0.930 . S
C2246 C2247 1.355 . S
C2246 C2248 1.415 . S
C2247 C2246 1.355 . S
C2247 C2249 1.419 . S
C2248 C2246 1.415 . S
C2248 C2253 1.425 . S
C2248 C2255 1.409 . S
C2249 H2241 0.930 . S
C2249 C2247 1.419 . S
C2249 C2250 1.362 . S
C2250 H2242 0.930 . S
C2250 C2249 1.362 . S
C2250 C2253 1.409 . S
C2251 H2243 0.930 . S
C2251 C2252 1.355 . S
C2251 C2253 1.415 . S
C2252 C2251 1.355 . S
C2252 C2254 1.419 . S
C2253 C2248 1.425 . S
C2253 C2250 1.409 . S
C2253 C2251 1.415 . S
C2254 H2244 0.930 . S
C2254 C2252 1.419 . S
C2254 C2255 1.362 . S
C2255 H2245 0.930 . S
C2255 C2248 1.409 . S
C2255 C2254 1.362 . S
H2256 C2262 0.930 . S
H2257 C2265 0.930 . S
H2258 C2266 0.930 . S
H2259 C2267 0.930 . S
H2260 C2270 0.930 . S
H2261 C2271 0.930 . S
C2262 H2256 0.930 . S
C2262 C2263 1.355 . S
C2262 C2264 1.415 . S
C2263 C2262 1.355 . S
C2263 C2265 1.419 . S
C2264 C2262 1.415 . S
C2264 C2269 1.425 . S
C2264 C2271 1.409 . S
C2265 H2257 0.930 . S
C2265 C2263 1.419 . S
C2265 C2266 1.362 . S
C2266 H2258 0.930 . S
C2266 C2265 1.362 . S
C2266 C2269 1.409 . S
C2267 H2259 0.930 . S
C2267 C2268 1.355 . S
C2267 C2269 1.415 . S
C2268 C2267 1.355 . S
C2268 C2270 1.419 . S
C2269 C2264 1.425 . S
C2269 C2266 1.409 . S
C2269 C2267 1.415 . S
C2270 H2260 0.930 . S
C2270 C2268 1.419 . S
C2270 C2271 1.362 . S
C2271 H2261 0.930 . S
C2271 C2264 1.409 . S
C2271 C2270 1.362 . S
H2272 C2278 0.930 . S
H2273 C2281 0.930 . S
H2274 C2282 0.930 . S
H2275 C2283 0.930 . S
H2276 C2286 0.930 . S
H2277 C2287 0.930 . S
C2278 H2272 0.930 . S
C2278 C2279 1.355 . S
C2278 C2280 1.415 . S
C2279 C2278 1.355 . S
C2279 C2281 1.419 . S
C2280 C2278 1.415 . S
C2280 C2285 1.425 . S
C2280 C2287 1.409 . S
C2281 H2273 0.930 . S
C2281 C2279 1.419 . S
C2281 C2282 1.362 . S
C2282 H2274 0.930 . S
C2282 C2281 1.362 . S
C2282 C2285 1.409 . S
C2283 H2275 0.930 . S
C2283 C2284 1.355 . S
C2283 C2285 1.415 . S
C2284 C2283 1.355 . S
C2284 C2286 1.419 . S
C2285 C2280 1.425 . S
C2285 C2282 1.409 . S
C2285 C2283 1.415 . S
C2286 H2276 0.930 . S
C2286 C2284 1.419 . S
C2286 C2287 1.362 . S
C2287 H2277 0.930 . S
C2287 C2280 1.409 . S
C2287 C2286 1.362 . S
H2288 C2294 0.930 . S
H2289 C2297 0.930 . S
H2290 C2298 0.930 . S
H2291 C2299 0.930 . S
H2292 C2302 0.930 . S
H2293 C2303 0.930 . S
C2294 H2288 0.930 . S
C2294 C2295 1.355 . S
C2294 C2296 1.415 . S
C2295 C2294 1.355 . S
C2295 C2297 1.419 . S
C2296 C2294 1.415 . S
C2296 C2301 1.425 . S
C2296 C2303 1.409 . S
C2297 H2289 0.930 . S
C2297 C2295 1.419 . S
C2297 C2298 1.362 . S
C2298 H2290 0.930 . S
C2298 C2297 1.362 . S
C2298 C2301 1.409 . S
C2299 H2291 0.930 . S
C2299 C2300 1.355 . S
C2299 C2301 1.415 . S
C2300 C2299 1.355 . S
C2300 C2302 1.419 . S
C2301 C2296 1.425 . S
C2301 C2298 1.409 . S
C2301 C2299 1.415 . S
C2302 H2292 0.930 . S
C2302 C2300 1.419 . S
C2302 C2303 1.362 . S
C2303 H2293 0.930 . S
C2303 C2296 1.409 . S
C2303 C2302 1.362 . S
H2304 C2310 0.930 . S
H2305 C2313 0.930 . S
H2306 C2314 0.930 . S
H2307 C2315 0.930 . S
H2308 C2318 0.930 . S
H2309 C2319 0.930 . S
C2310 H2304 0.930 . S
C2310 C2311 1.355 . S
C2310 C2312 1.415 . S
C2311 C2310 1.355 . S
C2311 C2313 1.419 . S
C2312 C2310 1.415 . S
C2312 C2317 1.425 . S
C2312 C2319 1.409 . S
C2313 H2305 0.930 . S
C2313 C2311 1.419 . S
C2313 C2314 1.362 . S
C2314 H2306 0.930 . S
C2314 C2313 1.362 . S
C2314 C2317 1.409 . S
C2315 H2307 0.930 . S
C2315 C2316 1.355 . S
C2315 C2317 1.415 . S
C2316 C2315 1.355 . S
C2316 C2318 1.419 . S
C2317 C2312 1.425 . S
C2317 C2314 1.409 . S
C2317 C2315 1.415 . S
C2318 H2308 0.930 . S
C2318 C2316 1.419 . S
C2318 C2319 1.362 . S
C2319 H2309 0.930 . S
C2319 C2312 1.409 . S
C2319 C2318 1.362 . S
H2320 C2326 0.930 . S
H2321 C2329 0.930 . S
H2322 C2330 0.930 . S
H2323 C2331 0.930 . S
H2324 C2334 0.930 . S
H2325 C2335 0.930 . S
C2326 H2320 0.930 . S
C2326 C2327 1.355 . S
C2326 C2328 1.415 . S
C2327 C2326 1.355 . S
C2327 C2329 1.419 . S
C2328 C2326 1.415 . S
C2328 C2333 1.425 . S
C2328 C2335 1.409 . S
C2329 H2321 0.930 . S
C2329 C2327 1.419 . S
C2329 C2330 1.362 . S
C2330 H2322 0.930 . S
C2330 C2329 1.362 . S
C2330 C2333 1.409 . S
C2331 H2323 0.930 . S
C2331 C2332 1.355 . S
C2331 C2333 1.415 . S
C2332 C2331 1.355 . S
C2332 C2334 1.419 . S
C2333 C2328 1.425 . S
C2333 C2330 1.409 . S
C2333 C2331 1.415 . S
C2334 H2324 0.930 . S
C2334 C2332 1.419 . S
C2334 C2335 1.362 . S
C2335 H2325 0.930 . S
C2335 C2328 1.409 . S
C2335 C2334 1.362 . S
H2336 C2342 0.930 . S
H2337 C2345 0.930 . S
H2338 C2346 0.930 . S
H2339 C2347 0.930 . S
H2340 C2350 0.930 . S
H2341 C2351 0.930 . S
C2342 H2336 0.930 . S
C2342 C2343 1.355 . S
C2342 C2344 1.415 . S
C2343 C2342 1.355 . S
C2343 C2345 1.419 . S
C2344 C2342 1.415 . S
C2344 C2349 1.425 . S
C2344 C2351 1.409 . S
C2345 H2337 0.930 . S
C2345 C2343 1.419 . S
C2345 C2346 1.362 . S
C2346 H2338 0.930 . S
C2346 C2345 1.362 . S
C2346 C2349 1.409 . S
C2347 H2339 0.930 . S
C2347 C2348 1.355 . S
C2347 C2349 1.415 . S
C2348 C2347 1.355 . S
C2348 C2350 1.419 . S
C2349 C2344 1.425 . S
C2349 C2346 1.409 . S
C2349 C2347 1.415 . S
C2350 H2340 0.930 . S
C2350 C2348 1.419 . S
C2350 C2351 1.362 . S
C2351 H2341 0.930 . S
C2351 C2344 1.409 . S
C2351 C2350 1.362 . S
H2352 C2358 0.930 . S
H2353 C2361 0.930 . S
H2354 C2362 0.930 1_565 S
H2355 C2363 0.930 . S
H2356 C2366 0.930 . S
H2357 C2367 0.930 . S
C2358 H2352 0.930 . S
C2358 C2359 1.355 . S
C2358 C2360 1.415 . S
C2359 C2358 1.355 . S
C2359 C2361 1.419 . S
C2360 C2358 1.415 . S
C2360 C2365 1.425 . S
C2360 C2367 1.409 . S
C2361 H2353 0.930 . S
C2361 C2359 1.419 . S
C2361 C2362 1.362 . S
C2362 H2354 0.930 1_545 S
C2362 C2361 1.362 . S
C2362 C2365 1.409 . S
C2363 H2355 0.930 . S
C2363 C2364 1.355 . S
C2363 C2365 1.415 . S
C2364 C2363 1.355 . S
C2364 C2366 1.419 . S
C2365 C2360 1.425 . S
C2365 C2362 1.409 . S
C2365 C2363 1.415 . S
C2366 H2356 0.930 . S
C2366 C2364 1.419 . S
C2366 C2367 1.362 . S
C2367 H2357 0.930 . S
C2367 C2360 1.409 . S
C2367 C2366 1.362 . S
H2368 C2374 0.930 . S
H2369 C2377 0.930 . S
H2370 C2378 0.930 . S
H2371 C2379 0.930 . S
H2372 C2382 0.930 . S
H2373 C2383 0.930 . S
C2374 H2368 0.930 . S
C2374 C2375 1.355 . S
C2374 C2376 1.415 . S
C2375 C2374 1.355 . S
C2375 C2377 1.419 . S
C2376 C2374 1.415 . S
C2376 C2381 1.425 . S
C2376 C2383 1.409 . S
C2377 H2369 0.930 . S
C2377 C2375 1.419 . S
C2377 C2378 1.362 . S
C2378 H2370 0.930 . S
C2378 C2377 1.362 . S
C2378 C2381 1.409 . S
C2379 H2371 0.930 . S
C2379 C2380 1.355 . S
C2379 C2381 1.415 . S
C2380 C2379 1.355 . S
C2380 C2382 1.419 . S
C2381 C2376 1.425 . S
C2381 C2378 1.409 . S
C2381 C2379 1.415 . S
C2382 H2372 0.930 . S
C2382 C2380 1.419 . S
C2382 C2383 1.362 . S
C2383 H2373 0.930 . S
C2383 C2376 1.409 . S
C2383 C2382 1.362 . S
H2384 C2390 0.930 . S
H2385 C2393 0.930 . S
H2386 C2394 0.930 . S
H2387 C2395 0.930 . S
H2388 C2398 0.930 . S
H2389 C2399 0.930 . S
C2390 H2384 0.930 . S
C2390 C2391 1.355 . S
C2390 C2392 1.415 . S
C2391 C2390 1.355 . S
C2391 C2393 1.419 . S
C2392 C2390 1.415 . S
C2392 C2397 1.425 . S
C2392 C2399 1.409 . S
C2393 H2385 0.930 . S
C2393 C2391 1.419 . S
C2393 C2394 1.362 . S
C2394 H2386 0.930 . S
C2394 C2393 1.362 . S
C2394 C2397 1.409 . S
C2395 H2387 0.930 . S
C2395 C2396 1.355 . S
C2395 C2397 1.415 . S
C2396 C2395 1.355 . S
C2396 C2398 1.419 . S
C2397 C2392 1.425 . S
C2397 C2394 1.409 . S
C2397 C2395 1.415 . S
C2398 H2388 0.930 . S
C2398 C2396 1.419 . S
C2398 C2399 1.362 . S
C2399 H2389 0.930 . S
C2399 C2392 1.409 . S
C2399 C2398 1.362 . S
H2400 C2406 0.930 . S
H2401 C2409 0.930 . S
H2402 C2410 0.930 . S
H2403 C2411 0.930 . S
H2404 C2414 0.930 . S
H2405 C2415 0.930 . S
C2406 H2400 0.930 . S
C2406 C2407 1.355 . S
C2406 C2408 1.415 . S
C2407 C2406 1.355 . S
C2407 C2409 1.419 . S
C2408 C2406 1.415 . S
C2408 C2413 1.425 . S
C2408 C2415 1.409 . S
C2409 H2401 0.930 . S
C2409 C2407 1.419 . S
C2409 C2410 1.362 . S
C2410 H2402 0.930 . S
C2410 C2409 1.362 . S
C2410 C2413 1.409 . S
C2411 H2403 0.930 . S
C2411 C2412 1.355 . S
C2411 C2413 1.415 . S
C2412 C2411 1.355 . S
C2412 C2414 1.419 . S
C2413 C2408 1.425 . S
C2413 C2410 1.409 . S
C2413 C2411 1.415 . S
C2414 H2404 0.930 . S
C2414 C2412 1.419 . S
C2414 C2415 1.362 . S
C2415 H2405 0.930 . S
C2415 C2408 1.409 . S
C2415 C2414 1.362 . S
H2416 C2422 0.930 . S
H2417 C2425 0.930 . S
H2418 C2426 0.930 . S
H2419 C2427 0.930 . S
H2420 C2430 0.930 . S
H2421 C2431 0.930 . S
C2422 H2416 0.930 . S
C2422 C2423 1.355 . S
C2422 C2424 1.415 . S
C2423 C2422 1.355 . S
C2423 C2425 1.419 . S
C2424 C2422 1.415 . S
C2424 C2429 1.425 . S
C2424 C2431 1.409 . S
C2425 H2417 0.930 . S
C2425 C2423 1.419 . S
C2425 C2426 1.362 . S
C2426 H2418 0.930 . S
C2426 C2425 1.362 . S
C2426 C2429 1.409 . S
C2427 H2419 0.930 . S
C2427 C2428 1.355 . S
C2427 C2429 1.415 . S
C2428 C2427 1.355 . S
C2428 C2430 1.419 . S
C2429 C2424 1.425 . S
C2429 C2426 1.409 . S
C2429 C2427 1.415 . S
C2430 H2420 0.930 . S
C2430 C2428 1.419 . S
C2430 C2431 1.362 . S
C2431 H2421 0.930 . S
C2431 C2424 1.409 . S
C2431 C2430 1.362 . S
H2432 C2438 0.930 . S
H2433 C2441 0.930 . S
H2434 C2442 0.930 . S
H2435 C2443 0.930 . S
H2436 C2446 0.930 . S
H2437 C2447 0.930 . S
C2438 H2432 0.930 . S
C2438 C2439 1.355 . S
C2438 C2440 1.415 . S
C2439 C2438 1.355 . S
C2439 C2441 1.419 . S
C2440 C2438 1.415 . S
C2440 C2445 1.425 . S
C2440 C2447 1.409 . S
C2441 H2433 0.930 . S
C2441 C2439 1.419 . S
C2441 C2442 1.362 . S
C2442 H2434 0.930 . S
C2442 C2441 1.362 . S
C2442 C2445 1.409 . S
C2443 H2435 0.930 . S
C2443 C2444 1.355 . S
C2443 C2445 1.415 . S
C2444 C2443 1.355 . S
C2444 C2446 1.419 . S
C2445 C2440 1.425 . S
C2445 C2442 1.409 . S
C2445 C2443 1.415 . S
C2446 H2436 0.930 . S
C2446 C2444 1.419 . S
C2446 C2447 1.362 . S
C2447 H2437 0.930 . S
C2447 C2440 1.409 . S
C2447 C2446 1.362 . S
H2448 C2454 0.930 . S
H2449 C2457 0.930 . S
H2450 C2458 0.930 . S
H2451 C2459 0.930 . S
H2452 C2462 0.930 . S
H2453 C2463 0.930 . S
C2454 H2448 0.930 . S
C2454 C2455 1.355 . S
C2454 C2456 1.415 . S
C2455 C2454 1.355 . S
C2455 C2457 1.419 . S
C2456 C2454 1.415 . S
C2456 C2461 1.425 . S
C2456 C2463 1.409 . S
C2457 H2449 0.930 . S
C2457 C2455 1.419 . S
C2457 C2458 1.362 . S
C2458 H2450 0.930 . S
C2458 C2457 1.362 . S
C2458 C2461 1.409 . S
C2459 H2451 0.930 . S
C2459 C2460 1.355 . S
C2459 C2461 1.415 . S
C2460 C2459 1.355 . S
C2460 C2462 1.419 . S
C2461 C2456 1.425 . S
C2461 C2458 1.409 . S
C2461 C2459 1.415 . S
C2462 H2452 0.930 . S
C2462 C2460 1.419 . S
C2462 C2463 1.362 . S
C2463 H2453 0.930 . S
C2463 C2456 1.409 . S
C2463 C2462 1.362 . S
H2464 C2470 0.930 . S
H2465 C2473 0.930 . S
H2466 C2474 0.930 . S
H2467 C2475 0.930 . S
H2468 C2478 0.930 . S
H2469 C2479 0.930 . S
C2470 H2464 0.930 . S
C2470 C2471 1.355 . S
C2470 C2472 1.415 . S
C2471 C2470 1.355 . S
C2471 C2473 1.419 . S
C2472 C2470 1.415 . S
C2472 C2477 1.425 . S
C2472 C2479 1.409 . S
C2473 H2465 0.930 . S
C2473 C2471 1.419 . S
C2473 C2474 1.362 . S
C2474 H2466 0.930 . S
C2474 C2473 1.362 . S
C2474 C2477 1.409 . S
C2475 H2467 0.930 . S
C2475 C2476 1.355 . S
C2475 C2477 1.415 . S
C2476 C2475 1.355 . S
C2476 C2478 1.419 . S
C2477 C2472 1.425 . S
C2477 C2474 1.409 . S
C2477 C2475 1.415 . S
C2478 H2468 0.930 . S
C2478 C2476 1.419 . S
C2478 C2479 1.362 . S
C2479 H2469 0.930 . S
C2479 C2472 1.409 . S
C2479 C2478 1.362 . S
H2480 C2486 0.930 . S
H2481 C2489 0.930 . S
H2482 C2490 0.930 . S
H2483 C2491 0.930 . S
H2484 C2494 0.930 1_565 S
H2485 C2495 0.930 1_565 S
C2486 H2480 0.930 . S
C2486 C2487 1.355 . S
C2486 C2488 1.415 . S
C2487 C2486 1.355 . S
C2487 C2489 1.419 . S
C2488 C2486 1.415 . S
C2488 C2493 1.425 . S
C2488 C2495 1.409 . S
C2489 H2481 0.930 . S
C2489 C2487 1.419 . S
C2489 C2490 1.362 . S
C2490 H2482 0.930 . S
C2490 C2489 1.362 . S
C2490 C2493 1.409 . S
C2491 H2483 0.930 . S
C2491 C2492 1.355 . S
C2491 C2493 1.415 . S
C2492 C2491 1.355 . S
C2492 C2494 1.419 . S
C2493 C2488 1.425 . S
C2493 C2490 1.409 . S
C2493 C2491 1.415 . S
C2494 H2484 0.930 1_545 S
C2494 C2492 1.419 . S
C2494 C2495 1.362 . S
C2495 H2485 0.930 1_545 S
C2495 C2488 1.409 . S
C2495 C2494 1.362 . S
H2496 C2502 0.930 . S
H2497 C2505 0.930 . S
H2498 C2506 0.930 . S
H2499 C2507 0.930 . S
H2500 C2510 0.930 . S
H2501 C2511 0.930 . S
C2502 H2496 0.930 . S
C2502 C2503 1.355 . S
C2502 C2504 1.415 . S
C2503 C2502 1.355 . S
C2503 C2505 1.419 . S
C2504 C2502 1.415 . S
C2504 C2509 1.425 . S
C2504 C2511 1.409 . S
C2505 H2497 0.930 . S
C2505 C2503 1.419 . S
C2505 C2506 1.362 . S
C2506 H2498 0.930 . S
C2506 C2505 1.362 . S
C2506 C2509 1.409 . S
C2507 H2499 0.930 . S
C2507 C2508 1.355 . S
C2507 C2509 1.415 . S
C2508 C2507 1.355 . S
C2508 C2510 1.419 . S
C2509 C2504 1.425 . S
C2509 C2506 1.409 . S
C2509 C2507 1.415 . S
C2510 H2500 0.930 . S
C2510 C2508 1.419 . S
C2510 C2511 1.362 . S
C2511 H2501 0.930 . S
C2511 C2504 1.409 . S
C2511 C2510 1.362 . S
H2512 C2518 0.930 . S
H2513 C2521 0.930 . S
H2514 C2522 0.930 . S
H2515 C2523 0.930 . S
H2516 C2526 0.930 . S
H2517 C2527 0.930 . S
C2518 H2512 0.930 . S
C2518 C2519 1.355 . S
C2518 C2520 1.415 . S
C2519 C2518 1.355 . S
C2519 C2521 1.419 . S
C2520 C2518 1.415 . S
C2520 C2525 1.425 . S
C2520 C2527 1.409 . S
C2521 H2513 0.930 . S
C2521 C2519 1.419 . S
C2521 C2522 1.362 . S
C2522 H2514 0.930 . S
C2522 C2521 1.362 . S
C2522 C2525 1.409 . S
C2523 H2515 0.930 . S
C2523 C2524 1.355 . S
C2523 C2525 1.415 . S
C2524 C2523 1.355 . S
C2524 C2526 1.419 . S
C2525 C2520 1.425 . S
C2525 C2522 1.409 . S
C2525 C2523 1.415 . S
C2526 H2516 0.930 . S
C2526 C2524 1.419 . S
C2526 C2527 1.362 . S
C2527 H2517 0.930 . S
C2527 C2520 1.409 . S
C2527 C2526 1.362 . S
H2528 C2534 0.930 . S
H2529 C2537 0.930 . S
H2530 C2538 0.930 . S
H2531 C2539 0.930 . S
H2532 C2542 0.930 . S
H2533 C2543 0.930 . S
C2534 H2528 0.930 . S
C2534 C2535 1.355 . S
C2534 C2536 1.415 . S
C2535 C2534 1.355 . S
C2535 C2537 1.419 . S
C2536 C2534 1.415 . S
C2536 C2541 1.425 . S
C2536 C2543 1.409 . S
C2537 H2529 0.930 . S
C2537 C2535 1.419 . S
C2537 C2538 1.362 . S
C2538 H2530 0.930 . S
C2538 C2537 1.362 . S
C2538 C2541 1.409 . S
C2539 H2531 0.930 . S
C2539 C2540 1.355 . S
C2539 C2541 1.415 . S
C2540 C2539 1.355 . S
C2540 C2542 1.419 . S
C2541 C2536 1.425 . S
C2541 C2538 1.409 . S
C2541 C2539 1.415 . S
C2542 H2532 0.930 . S
C2542 C2540 1.419 . S
C2542 C2543 1.362 . S
C2543 H2533 0.930 . S
C2543 C2536 1.409 . S
C2543 C2542 1.362 . S
H2544 C2550 0.930 . S
H2545 C2553 0.930 . S
H2546 C2554 0.930 . S
H2547 C2555 0.930 . S
H2548 C2558 0.930 . S
H2549 C2559 0.930 . S
C2550 H2544 0.930 . S
C2550 C2551 1.355 . S
C2550 C2552 1.415 . S
C2551 C2550 1.355 . S
C2551 C2553 1.419 . S
C2552 C2550 1.415 . S
C2552 C2557 1.425 . S
C2552 C2559 1.409 . S
C2553 H2545 0.930 . S
C2553 C2551 1.419 . S
C2553 C2554 1.362 . S
C2554 H2546 0.930 . S
C2554 C2553 1.362 . S
C2554 C2557 1.409 . S
C2555 H2547 0.930 . S
C2555 C2556 1.355 . S
C2555 C2557 1.415 . S
C2556 C2555 1.355 . S
C2556 C2558 1.419 . S
C2557 C2552 1.425 . S
C2557 C2554 1.409 . S
C2557 C2555 1.415 . S
C2558 H2548 0.930 . S
C2558 C2556 1.419 . S
C2558 C2559 1.362 . S
C2559 H2549 0.930 . S
C2559 C2552 1.409 . S
C2559 C2558 1.362 . S
H2560 C2566 0.930 . S
H2561 C2569 0.930 . S
H2562 C2570 0.930 . S
H2563 C2571 0.930 . S
H2564 C2574 0.930 . S
H2565 C2575 0.930 . S
C2566 H2560 0.930 . S
C2566 C2567 1.355 . S
C2566 C2568 1.415 . S
C2567 C2566 1.355 . S
C2567 C2569 1.419 1_456 S
C2568 C2566 1.415 . S
C2568 C2573 1.425 1_456 S
C2568 C2575 1.409 . S
C2569 H2561 0.930 . S
C2569 C2567 1.419 1_654 S
C2569 C2570 1.362 . S
C2570 H2562 0.930 . S
C2570 C2569 1.362 . S
C2570 C2573 1.409 . S
C2571 H2563 0.930 . S
C2571 C2572 1.355 . S
C2571 C2573 1.415 . S
C2572 C2571 1.355 . S
C2572 C2574 1.419 1_654 S
C2573 C2568 1.425 1_654 S
C2573 C2570 1.409 . S
C2573 C2571 1.415 . S
C2574 H2564 0.930 . S
C2574 C2572 1.419 1_456 S
C2574 C2575 1.362 . S
C2575 H2565 0.930 . S
C2575 C2568 1.409 . S
C2575 C2574 1.362 . S
H2576 C2582 0.930 . S
H2577 C2585 0.930 . S
H2578 C2586 0.930 . S
H2579 C2587 0.930 . S
H2580 C2590 0.930 . S
H2581 C2591 0.930 . S
C2582 H2576 0.930 . S
C2582 C2583 1.355 1_556 S
C2582 C2584 1.415 . S
C2583 C2582 1.355 1_554 S
C2583 C2585 1.419 . S
C2584 C2582 1.415 . S
C2584 C2589 1.425 1_556 S
C2584 C2591 1.409 . S
C2585 H2577 0.930 . S
C2585 C2583 1.419 . S
C2585 C2586 1.362 . S
C2586 H2578 0.930 . S
C2586 C2585 1.362 . S
C2586 C2589 1.409 . S
C2587 H2579 0.930 . S
C2587 C2588 1.355 1_554 S
C2587 C2589 1.415 . S
C2588 C2587 1.355 1_556 S
C2588 C2590 1.419 . S
C2589 C2584 1.425 1_554 S
C2589 C2586 1.409 . S
C2589 C2587 1.415 . S
C2590 H2580 0.930 . S
C2590 C2588 1.419 . S
C2590 C2591 1.362 . S
C2591 H2581 0.930 . S
C2591 C2584 1.409 . S
C2591 C2590 1.362 . S
H2592 C2598 0.930 . S
H2593 C2601 0.930 . S
H2594 C2602 0.930 . S
H2595 C2603 0.930 . S
H2596 C2606 0.930 . S
H2597 C2607 0.930 . S
C2598 H2592 0.930 . S
C2598 C2599 1.364 . S
C2598 C2600 1.415 . S
C2599 C2598 1.364 . S
C2599 C2601 1.408 1_655 S
C2600 C2598 1.415 . S
C2600 C2605 1.425 1_655 S
C2600 C2607 1.409 . S
C2601 H2593 0.930 . S
C2601 C2599 1.408 1_455 S
C2601 C2602 1.362 . S
C2602 H2594 0.930 . S
C2602 C2601 1.362 . S
C2602 C2605 1.409 . S
C2603 H2595 0.930 . S
C2603 C2604 1.365 . S
C2603 C2605 1.415 . S
C2604 C2603 1.365 . S
C2604 C2606 1.407 1_455 S
C2605 C2600 1.425 1_455 S
C2605 C2602 1.409 . S
C2605 C2603 1.415 . S
C2606 H2596 0.930 . S
C2606 C2604 1.407 1_655 S
C2606 C2607 1.362 . S
C2607 H2597 0.930 . S
C2607 C2600 1.409 . S
C2607 C2606 1.362 . S
H2608 C2614 0.930 . S
H2609 C2617 0.930 . S
H2610 C2618 0.930 . S
H2611 C2619 0.930 . S
H2612 C2622 0.930 . S
H2613 C2623 0.930 . S
C2614 H2608 0.930 . S
C2614 C2615 1.355 . S
C2614 C2616 1.415 . S
C2615 C2614 1.355 . S
C2615 C2617 1.419 . S
C2616 C2614 1.415 . S
C2616 C2621 1.425 . S
C2616 C2623 1.409 . S
C2617 H2609 0.930 . S
C2617 C2615 1.419 . S
C2617 C2618 1.362 . S
C2618 H2610 0.930 . S
C2618 C2617 1.362 . S
C2618 C2621 1.409 . S
C2619 H2611 0.930 . S
C2619 C2620 1.355 . S
C2619 C2621 1.415 . S
C2620 C2619 1.355 . S
C2620 C2622 1.419 . S
C2621 C2616 1.425 . S
C2621 C2618 1.409 . S
C2621 C2619 1.415 . S
C2622 H2612 0.930 . S
C2622 C2620 1.419 . S
C2622 C2623 1.362 . S
C2623 H2613 0.930 . S
C2623 C2616 1.409 . S
C2623 C2622 1.362 . S
H2624 C2630 0.930 . S
H2625 C2633 0.930 . S
H2626 C2634 0.930 . S
H2627 C2635 0.930 . S
H2628 C2638 0.930 . S
H2629 C2639 0.930 . S
C2630 H2624 0.930 . S
C2630 C2631 1.355 . S
C2630 C2632 1.415 . S
C2631 C2630 1.355 . S
C2631 C2633 1.419 1_556 S
C2632 C2630 1.415 . S
C2632 C2637 1.425 1_556 S
C2632 C2639 1.409 . S
C2633 H2625 0.930 . S
C2633 C2631 1.419 1_554 S
C2633 C2634 1.362 . S
C2634 H2626 0.930 . S
C2634 C2633 1.362 . S
C2634 C2637 1.409 . S
C2635 H2627 0.930 . S
C2635 C2636 1.355 . S
C2635 C2637 1.415 . S
C2636 C2635 1.355 . S
C2636 C2638 1.419 1_554 S
C2637 C2632 1.425 1_554 S
C2637 C2634 1.409 . S
C2637 C2635 1.415 . S
C2638 H2628 0.930 . S
C2638 C2636 1.419 1_556 S
C2638 C2639 1.362 . S
C2639 H2629 0.930 . S
C2639 C2632 1.409 . S
C2639 C2638 1.362 . S
H2640 C2646 0.930 . S
H2641 C2649 0.930 . S
H2642 C2650 0.930 . S
H2643 C2651 0.930 . S
H2644 C2654 0.930 . S
H2645 C2655 0.930 . S
C2646 H2640 0.930 . S
C2646 C2647 1.355 1_655 S
C2646 C2648 1.415 . S
C2647 C2646 1.355 1_455 S
C2647 C2649 1.419 . S
C2648 C2646 1.415 . S
C2648 C2653 1.425 1_655 S
C2648 C2655 1.409 . S
C2649 H2641 0.930 . S
C2649 C2647 1.419 . S
C2649 C2650 1.362 . S
C2650 H2642 0.930 . S
C2650 C2649 1.362 . S
C2650 C2653 1.409 . S
C2651 H2643 0.930 . S
C2651 C2652 1.355 1_455 S
C2651 C2653 1.415 . S
C2652 C2651 1.355 1_655 S
C2652 C2654 1.419 . S
C2653 C2648 1.425 1_455 S
C2653 C2650 1.409 . S
C2653 C2651 1.415 . S
C2654 H2644 0.930 . S
C2654 C2652 1.419 . S
C2654 C2655 1.362 . S
C2655 H2645 0.930 . S
C2655 C2648 1.409 . S
C2655 C2654 1.362 . S
H2656 C2662 0.930 . S
H2657 C2665 0.930 . S
H2658 C2666 0.930 . S
H2659 C2667 0.930 . S
H2660 C2670 0.930 . S
H2661 C2671 0.930 . S
C2662 H2656 0.930 . S
C2662 C2663 1.355 . S
C2662 C2664 1.415 . S
C2663 C2662 1.355 . S
C2663 C2665 1.419 . S
C2664 C2662 1.415 . S
C2664 C2669 1.425 . S
C2664 C2671 1.409 . S
C2665 H2657 0.930 . S
C2665 C2663 1.419 . S
C2665 C2666 1.362 . S
C2666 H2658 0.930 . S
C2666 C2665 1.362 . S
C2666 C2669 1.409 . S
C2667 H2659 0.930 . S
C2667 C2668 1.355 . S
C2667 C2669 1.415 . S
C2668 C2667 1.355 . S
C2668 C2670 1.419 . S
C2669 C2664 1.425 . S
C2669 C2666 1.409 . S
C2669 C2667 1.415 . S
C2670 H2660 0.930 . S
C2670 C2668 1.419 . S
C2670 C2671 1.362 . S
C2671 H2661 0.930 . S
C2671 C2664 1.409 . S
C2671 C2670 1.362 . S
H2672 C2678 0.930 . S
H2673 C2681 0.930 . S
H2674 C2682 0.930 . S
H2675 C2683 0.930 . S
H2676 C2686 0.930 . S
H2677 C2687 0.930 . S
C2678 H2672 0.930 . S
C2678 C2679 1.355 1_455 S
C2678 C2680 1.415 . S
C2679 C2678 1.355 1_655 S
C2679 C2681 1.419 . S
C2680 C2678 1.415 . S
C2680 C2685 1.425 1_445 S
C2680 C2687 1.409 1_545 S
C2681 H2673 0.930 . S
C2681 C2679 1.419 . S
C2681 C2682 1.362 . S
C2682 H2674 0.930 . S
C2682 C2681 1.362 . S
C2682 C2685 1.409 1_545 S
C2683 H2675 0.930 . S
C2683 C2684 1.355 1_655 S
C2683 C2685 1.415 . S
C2684 C2683 1.355 1_455 S
C2684 C2686 1.419 . S
C2685 C2680 1.425 1_665 S
C2685 C2682 1.409 1_565 S
C2685 C2683 1.415 . S
C2686 H2676 0.930 . S
C2686 C2684 1.419 . S
C2686 C2687 1.362 . S
C2687 H2677 0.930 . S
C2687 C2680 1.409 1_565 S
C2687 C2686 1.362 . S
H2688 C2694 0.930 . S
H2689 C2697 0.930 . S
H2690 C2698 0.930 . S
H2691 C2699 0.930 . S
H2692 C2702 0.930 . S
H2693 C2703 0.930 . S
C2694 H2688 0.930 . S
C2694 C2695 1.355 . S
C2694 C2696 1.415 . S
C2695 C2694 1.355 . S
C2695 C2697 1.419 . S
C2696 C2694 1.415 . S
C2696 C2701 1.425 . S
C2696 C2703 1.409 . S
C2697 H2689 0.930 . S
C2697 C2695 1.419 . S
C2697 C2698 1.362 . S
C2698 H2690 0.930 . S
C2698 C2697 1.362 . S
C2698 C2701 1.409 . S
C2699 H2691 0.930 . S
C2699 C2700 1.355 . S
C2699 C2701 1.415 . S
C2700 C2699 1.355 . S
C2700 C2702 1.419 . S
C2701 C2696 1.425 . S
C2701 C2698 1.409 . S
C2701 C2699 1.415 . S
C2702 H2692 0.930 . S
C2702 C2700 1.419 . S
C2702 C2703 1.362 . S
C2703 H2693 0.930 . S
C2703 C2696 1.409 . S
C2703 C2702 1.362 . S
H2704 C2710 0.930 . S
H2705 C2713 0.930 . S
H2706 C2714 0.930 . S
H2707 C2715 0.930 . S
H2708 C2718 0.930 . S
H2709 C2719 0.930 . S
C2710 H2704 0.930 . S
C2710 C2711 1.355 . S
C2710 C2712 1.415 . S
C2711 C2710 1.355 . S
C2711 C2713 1.419 . S
C2712 C2710 1.415 . S
C2712 C2717 1.425 1_565 S
C2712 C2719 1.409 1_565 S
C2713 H2705 0.930 . S
C2713 C2711 1.419 . S
C2713 C2714 1.362 . S
C2714 H2706 0.930 . S
C2714 C2713 1.362 . S
C2714 C2717 1.409 1_565 S
C2715 H2707 0.930 . S
C2715 C2716 1.355 . S
C2715 C2717 1.415 . S
C2716 C2715 1.355 . S
C2716 C2718 1.419 . S
C2717 C2712 1.425 1_545 S
C2717 C2714 1.409 1_545 S
C2717 C2715 1.415 . S
C2718 H2708 0.930 . S
C2718 C2716 1.419 . S
C2718 C2719 1.362 . S
C2719 H2709 0.930 . S
C2719 C2712 1.409 1_545 S
C2719 C2718 1.362 . S
H2720 C2726 0.930 . S
H2721 C2729 0.930 . S
H2722 C2730 0.930 . S
H2723 C2731 0.930 . S
H2724 C2734 0.930 . S
H2725 C2735 0.930 . S
C2726 H2720 0.930 . S
C2726 C2727 1.355 . S
C2726 C2728 1.415 . S
C2727 C2726 1.355 . S
C2727 C2729 1.419 . S
C2728 C2726 1.415 . S
C2728 C2733 1.425 . S
C2728 C2735 1.409 . S
C2729 H2721 0.930 . S
C2729 C2727 1.419 . S
C2729 C2730 1.362 . S
C2730 H2722 0.930 . S
C2730 C2729 1.362 . S
C2730 C2733 1.409 . S
C2731 H2723 0.930 . S
C2731 C2732 1.355 . S
C2731 C2733 1.415 . S
C2732 C2731 1.355 . S
C2732 C2734 1.419 . S
C2733 C2728 1.425 . S
C2733 C2730 1.409 . S
C2733 C2731 1.415 . S
C2734 H2724 0.930 . S
C2734 C2732 1.419 . S
C2734 C2735 1.362 . S
C2735 H2725 0.930 . S
C2735 C2728 1.409 . S
C2735 C2734 1.362 . S
H2736 C2742 0.930 . S
H2737 C2745 0.930 . S
H2738 C2746 0.930 . S
H2739 C2747 0.930 . S
H2740 C2750 0.930 . S
H2741 C2751 0.930 . S
C2742 H2736 0.930 . S
C2742 C2743 1.355 . S
C2742 C2744 1.415 . S
C2743 C2742 1.355 . S
C2743 C2745 1.419 . S
C2744 C2742 1.415 . S
C2744 C2749 1.425 1_565 S
C2744 C2751 1.409 1_565 S
C2745 H2737 0.930 . S
C2745 C2743 1.419 . S
C2745 C2746 1.362 . S
C2746 H2738 0.930 . S
C2746 C2745 1.362 . S
C2746 C2749 1.409 1_565 S
C2747 H2739 0.930 . S
C2747 C2748 1.355 . S
C2747 C2749 1.415 . S
C2748 C2747 1.355 . S
C2748 C2750 1.419 . S
C2749 C2744 1.425 1_545 S
C2749 C2746 1.409 1_545 S
C2749 C2747 1.415 . S
C2750 H2740 0.930 . S
C2750 C2748 1.419 . S
C2750 C2751 1.362 . S
C2751 H2741 0.930 . S
C2751 C2744 1.409 1_545 S
C2751 C2750 1.362 . S
H2752 C2758 0.930 . S
H2753 C2761 0.930 . S
H2754 C2762 0.930 . S
H2755 C2763 0.930 . S
H2756 C2766 0.930 . S
H2757 C2767 0.930 . S
C2758 H2752 0.930 . S
C2758 C2759 1.355 . S
C2758 C2760 1.415 . S
C2759 C2758 1.355 . S
C2759 C2761 1.419 . S
C2760 C2758 1.415 . S
C2760 C2765 1.425 . S
C2760 C2767 1.409 . S
C2761 H2753 0.930 . S
C2761 C2759 1.419 . S
C2761 C2762 1.362 . S
C2762 H2754 0.930 . S
C2762 C2761 1.362 . S
C2762 C2765 1.409 . S
C2763 H2755 0.930 . S
C2763 C2764 1.355 . S
C2763 C2765 1.415 . S
C2764 C2763 1.355 . S
C2764 C2766 1.419 . S
C2765 C2760 1.425 . S
C2765 C2762 1.409 . S
C2765 C2763 1.415 . S
C2766 H2756 0.930 . S
C2766 C2764 1.419 . S
C2766 C2767 1.362 . S
C2767 H2757 0.930 . S
C2767 C2760 1.409 . S
C2767 C2766 1.362 . S
H2768 C2774 0.930 . S
H2769 C2777 0.930 . S
H2770 C2778 0.930 . S
H2771 C2779 0.930 . S
H2772 C2782 0.930 . S
H2773 C2783 0.930 . S
C2774 H2768 0.930 . S
C2774 C2775 1.355 . S
C2774 C2776 1.415 . S
C2775 C2774 1.355 . S
C2775 C2777 1.419 . S
C2776 C2774 1.415 . S
C2776 C2781 1.425 . S
C2776 C2783 1.409 . S
C2777 H2769 0.930 . S
C2777 C2775 1.419 . S
C2777 C2778 1.362 . S
C2778 H2770 0.930 . S
C2778 C2777 1.362 . S
C2778 C2781 1.409 . S
C2779 H2771 0.930 . S
C2779 C2780 1.355 . S
C2779 C2781 1.415 . S
C2780 C2779 1.355 . S
C2780 C2782 1.419 . S
C2781 C2776 1.425 . S
C2781 C2778 1.409 . S
C2781 C2779 1.415 . S
C2782 H2772 0.930 . S
C2782 C2780 1.419 . S
C2782 C2783 1.362 . S
C2783 H2773 0.930 . S
C2783 C2776 1.409 . S
C2783 C2782 1.362 . S
H2784 C2790 0.930 . S
H2785 C2793 0.930 . S
H2786 C2794 0.930 . S
H2787 C2795 0.930 . S
H2788 C2798 0.930 . S
H2789 C2799 0.930 . S
C2790 H2784 0.930 . S
C2790 C2791 1.355 . S
C2790 C2792 1.415 . S
C2791 C2790 1.355 . S
C2791 C2793 1.419 . S
C2792 C2790 1.415 . S
C2792 C2797 1.425 . S
C2792 C2799 1.409 . S
C2793 H2785 0.930 . S
C2793 C2791 1.419 . S
C2793 C2794 1.362 . S
C2794 H2786 0.930 . S
C2794 C2793 1.362 . S
C2794 C2797 1.409 . S
C2795 H2787 0.930 . S
C2795 C2796 1.355 . S
C2795 C2797 1.415 . S
C2796 C2795 1.355 . S
C2796 C2798 1.419 . S
C2797 C2792 1.425 . S
C2797 C2794 1.409 . S
C2797 C2795 1.415 . S
C2798 H2788 0.930 . S
C2798 C2796 1.419 . S
C2798 C2799 1.362 . S
C2799 H2789 0.930 . S
C2799 C2792 1.409 . S
C2799 C2798 1.362 . S
H2800 C2806 0.930 . S
H2801 C2809 0.930 . S
H2802 C2810 0.930 . S
H2803 C2811 0.930 . S
H2804 C2814 0.930 . S
H2805 C2815 0.930 . S
C2806 H2800 0.930 . S
C2806 C2807 1.355 1_556 S
C2806 C2808 1.415 . S
C2807 C2806 1.355 1_554 S
C2807 C2809 1.419 . S
C2808 C2806 1.415 . S
C2808 C2813 1.425 1_546 S
C2808 C2815 1.409 1_545 S
C2809 H2801 0.930 . S
C2809 C2807 1.419 . S
C2809 C2810 1.362 . S
C2810 H2802 0.930 . S
C2810 C2809 1.362 . S
C2810 C2813 1.409 1_545 S
C2811 H2803 0.930 . S
C2811 C2812 1.355 1_554 S
C2811 C2813 1.415 . S
C2812 C2811 1.355 1_556 S
C2812 C2814 1.419 . S
C2813 C2808 1.425 1_564 S
C2813 C2810 1.409 1_565 S
C2813 C2811 1.415 . S
C2814 H2804 0.930 . S
C2814 C2812 1.419 . S
C2814 C2815 1.362 . S
C2815 H2805 0.930 . S
C2815 C2808 1.409 1_565 S
C2815 C2814 1.362 . S
H2816 C2822 0.930 . S
H2817 C2825 0.930 . S
H2818 C2826 0.930 . S
H2819 C2827 0.930 . S
H2820 C2830 0.930 . S
H2821 C2831 0.930 . S
C2822 H2816 0.930 . S
C2822 C2823 1.355 . S
C2822 C2824 1.415 . S
C2823 C2822 1.355 . S
C2823 C2825 1.419 1_455 S
C2824 C2822 1.415 . S
C2824 C2829 1.422 1_455 S
C2824 C2831 1.409 . S
C2825 H2817 0.930 . S
C2825 C2823 1.419 1_655 S
C2825 C2826 1.362 . S
C2826 H2818 0.930 . S
C2826 C2825 1.362 . S
C2826 C2829 1.413 . S
C2827 H2819 0.930 . S
C2827 C2828 1.355 1_655 S
C2827 C2829 1.414 . S
C2828 C2827 1.355 1_455 S
C2828 C2830 1.419 . S
C2829 C2824 1.422 1_655 S
C2829 C2826 1.413 . S
C2829 C2827 1.414 . S
C2830 H2820 0.930 . S
C2830 C2828 1.419 . S
C2830 C2831 1.362 . S
C2831 H2821 0.930 . S
C2831 C2824 1.409 . S
C2831 C2830 1.362 . S
H2832 C2838 0.930 . S
H2833 C2841 0.930 . S
H2834 C2842 0.930 . S
H2835 C2843 0.930 . S
H2836 C2846 0.930 . S
H2837 C2847 0.930 . S
C2838 H2832 0.930 . S
C2838 C2839 1.355 . S
C2838 C2840 1.415 . S
C2839 C2838 1.355 . S
C2839 C2841 1.419 . S
C2840 C2838 1.415 . S
C2840 C2845 1.425 . S
C2840 C2847 1.409 . S
C2841 H2833 0.930 . S
C2841 C2839 1.419 . S
C2841 C2842 1.362 . S
C2842 H2834 0.930 . S
C2842 C2841 1.362 . S
C2842 C2845 1.409 . S
C2843 H2835 0.930 . S
C2843 C2844 1.355 . S
C2843 C2845 1.415 . S
C2844 C2843 1.355 . S
C2844 C2846 1.419 . S
C2845 C2840 1.425 . S
C2845 C2842 1.409 . S
C2845 C2843 1.415 . S
C2846 H2836 0.930 . S
C2846 C2844 1.419 . S
C2846 C2847 1.362 . S
C2847 H2837 0.930 . S
C2847 C2840 1.409 . S
C2847 C2846 1.362 . S
H2848 C2854 0.930 . S
H2849 C2857 0.930 . S
H2850 C2858 0.930 . S
H2851 C2859 0.930 . S
H2852 C2862 0.930 . S
H2853 C2863 0.930 . S
C2854 H2848 0.930 . S
C2854 C2855 1.369 . S
C2854 C2856 1.415 . S
C2855 C2854 1.369 . S
C2855 C2857 1.401 1_655 S
C2856 C2854 1.415 . S
C2856 C2861 1.425 1_655 S
C2856 C2863 1.409 . S
C2857 H2849 0.930 . S
C2857 C2855 1.401 1_455 S
C2857 C2858 1.362 . S
C2858 H2850 0.930 . S
C2858 C2857 1.362 . S
C2858 C2861 1.409 . S
C2859 H2851 0.930 . S
C2859 C2860 1.355 1_455 S
C2859 C2861 1.415 . S
C2860 C2859 1.355 1_655 S
C2860 C2862 1.419 . S
C2861 C2856 1.425 1_455 S
C2861 C2858 1.409 . S
C2861 C2859 1.415 . S
C2862 H2852 0.930 . S
C2862 C2860 1.419 . S
C2862 C2863 1.362 . S
C2863 H2853 0.930 . S
C2863 C2856 1.409 . S
C2863 C2862 1.362 . S
H2864 C2870 0.930 . S
H2865 C2873 0.930 . S
H2866 C2874 0.930 . S
H2867 C2875 0.930 . S
H2868 C2878 0.930 . S
H2869 C2879 0.930 . S
C2870 H2864 0.930 . S
C2870 C2871 1.355 . S
C2870 C2872 1.415 . S
C2871 C2870 1.355 . S
C2871 C2873 1.419 . S
C2872 C2870 1.415 . S
C2872 C2877 1.425 . S
C2872 C2879 1.409 . S
C2873 H2865 0.930 . S
C2873 C2871 1.419 . S
C2873 C2874 1.362 . S
C2874 H2866 0.930 . S
C2874 C2873 1.362 . S
C2874 C2877 1.409 . S
C2875 H2867 0.930 . S
C2875 C2876 1.355 . S
C2875 C2877 1.415 . S
C2876 C2875 1.355 . S
C2876 C2878 1.419 . S
C2877 C2872 1.425 . S
C2877 C2874 1.409 . S
C2877 C2875 1.415 . S
C2878 H2868 0.930 . S
C2878 C2876 1.419 . S
C2878 C2879 1.362 . S
C2879 H2869 0.930 . S
C2879 C2872 1.409 . S
C2879 C2878 1.362 . S
H2880 C2886 0.931 . S
H2881 C2889 0.930 . S
H2882 C2890 0.930 . S
H2883 C2891 0.930 . S
H2884 C2894 0.943 . S
H2885 C2895 0.930 . S
C2886 H2880 0.931 . S
C2886 C2887 1.354 1_655 S
C2886 C2888 1.414 1_655 S
C2887 C2886 1.354 1_455 S
C2887 C2889 1.419 . S
C2888 C2886 1.414 1_455 S
C2888 C2893 1.425 . S
C2888 C2895 1.409 1_455 S
C2889 H2881 0.930 . S
C2889 C2887 1.419 . S
C2889 C2890 1.362 . S
C2890 H2882 0.930 . S
C2890 C2889 1.362 . S
C2890 C2893 1.409 . S
C2891 H2883 0.930 . S
C2891 C2892 1.355 . S
C2891 C2893 1.415 . S
C2892 C2891 1.355 . S
C2892 C2894 1.404 1_455 S
C2893 C2888 1.425 . S
C2893 C2890 1.409 . S
C2893 C2891 1.415 . S
C2894 H2884 0.943 . S
C2894 C2892 1.404 1_655 S
C2894 C2895 1.367 . S
C2895 H2885 0.930 . S
C2895 C2888 1.409 1_655 S
C2895 C2894 1.367 . S
H2896 C2902 0.930 . S
H2897 C2905 0.930 . S
H2898 C2906 0.930 . S
H2899 C2907 0.930 . S
H2900 C2910 0.930 . S
H2901 C2911 0.930 . S
C2902 H2896 0.930 . S
C2902 C2903 1.355 . S
C2902 C2904 1.415 . S
C2903 C2902 1.355 . S
C2903 C2905 1.419 . S
C2904 C2902 1.415 . S
C2904 C2909 1.425 . S
C2904 C2911 1.409 . S
C2905 H2897 0.930 . S
C2905 C2903 1.419 . S
C2905 C2906 1.362 . S
C2906 H2898 0.930 . S
C2906 C2905 1.362 . S
C2906 C2909 1.409 . S
C2907 H2899 0.930 . S
C2907 C2908 1.355 . S
C2907 C2909 1.415 . S
C2908 C2907 1.355 . S
C2908 C2910 1.419 . S
C2909 C2904 1.425 . S
C2909 C2906 1.409 . S
C2909 C2907 1.415 . S
C2910 H2900 0.930 . S
C2910 C2908 1.419 . S
C2910 C2911 1.362 . S
C2911 H2901 0.930 . S
C2911 C2904 1.409 . S
C2911 C2910 1.362 . S
H2912 C2918 0.930 . S
H2913 C2921 0.930 . S
H2914 C2922 0.930 . S
H2915 C2923 0.930 . S
H2916 C2926 0.930 . S
H2917 C2927 0.930 . S
C2918 H2912 0.930 . S
C2918 C2919 1.355 1_455 S
C2918 C2920 1.415 . S
C2919 C2918 1.355 1_655 S
C2919 C2921 1.419 . S
C2920 C2918 1.415 . S
C2920 C2925 1.425 1_455 S
C2920 C2927 1.409 . S
C2921 H2913 0.930 . S
C2921 C2919 1.419 . S
C2921 C2922 1.362 . S
C2922 H2914 0.930 . S
C2922 C2921 1.362 . S
C2922 C2925 1.409 . S
C2923 H2915 0.930 . S
C2923 C2924 1.355 . S
C2923 C2925 1.415 . S
C2924 C2923 1.355 . S
C2924 C2926 1.419 1_655 S
C2925 C2920 1.425 1_655 S
C2925 C2922 1.409 . S
C2925 C2923 1.415 . S
C2926 H2916 0.930 . S
C2926 C2924 1.419 1_455 S
C2926 C2927 1.362 . S
C2927 H2917 0.930 . S
C2927 C2920 1.409 . S
C2927 C2926 1.362 . S
H2928 C2934 0.930 . S
H2929 C2937 0.930 . S
H2930 C2938 0.930 . S
H2931 C2939 0.930 . S
H2932 C2942 0.930 . S
H2933 C2943 0.930 . S
C2934 H2928 0.930 . S
C2934 C2935 1.355 . S
C2934 C2936 1.415 . S
C2935 C2934 1.355 . S
C2935 C2937 1.419 . S
C2936 C2934 1.415 . S
C2936 C2941 1.425 . S
C2936 C2943 1.409 . S
C2937 H2929 0.930 . S
C2937 C2935 1.419 . S
C2937 C2938 1.362 . S
C2938 H2930 0.930 . S
C2938 C2937 1.362 . S
C2938 C2941 1.409 . S
C2939 H2931 0.930 . S
C2939 C2940 1.355 . S
C2939 C2941 1.415 . S
C2940 C2939 1.355 . S
C2940 C2942 1.419 . S
C2941 C2936 1.425 . S
C2941 C2938 1.409 . S
C2941 C2939 1.415 . S
C2942 H2932 0.930 . S
C2942 C2940 1.419 . S
C2942 C2943 1.362 . S
C2943 H2933 0.930 . S
C2943 C2936 1.409 . S
C2943 C2942 1.362 . S
H2944 C2950 0.930 . S
H2945 C2953 0.930 . S
H2946 C2954 0.930 . S
H2947 C2955 0.930 . S
H2948 C2958 0.930 . S
H2949 C2959 0.930 . S
C2950 H2944 0.930 . S
C2950 C2951 1.355 . S
C2950 C2952 1.415 . S
C2951 C2950 1.355 . S
C2951 C2953 1.419 . S
C2952 C2950 1.415 . S
C2952 C2957 1.425 . S
C2952 C2959 1.409 . S
C2953 H2945 0.930 . S
C2953 C2951 1.419 . S
C2953 C2954 1.362 . S
C2954 H2946 0.930 . S
C2954 C2953 1.362 . S
C2954 C2957 1.409 . S
C2955 H2947 0.930 . S
C2955 C2956 1.355 . S
C2955 C2957 1.415 . S
C2956 C2955 1.355 . S
C2956 C2958 1.419 . S
C2957 C2952 1.425 . S
C2957 C2954 1.409 . S
C2957 C2955 1.415 . S
C2958 H2948 0.930 . S
C2958 C2956 1.419 . S
C2958 C2959 1.362 . S
C2959 H2949 0.930 . S
C2959 C2952 1.409 . S
C2959 C2958 1.362 . S
H2960 C2966 0.930 . S
H2961 C2969 0.930 . S
H2962 C2970 0.930 . S
H2963 C2971 0.930 . S
H2964 C2974 0.930 . S
H2965 C2975 0.930 . S
C2966 H2960 0.930 . S
C2966 C2967 1.355 . S
C2966 C2968 1.415 . S
C2967 C2966 1.355 . S
C2967 C2969 1.419 . S
C2968 C2966 1.415 . S
C2968 C2973 1.425 . S
C2968 C2975 1.409 . S
C2969 H2961 0.930 . S
C2969 C2967 1.419 . S
C2969 C2970 1.362 . S
C2970 H2962 0.930 . S
C2970 C2969 1.362 . S
C2970 C2973 1.409 . S
C2971 H2963 0.930 . S
C2971 C2972 1.355 . S
C2971 C2973 1.415 . S
C2972 C2971 1.355 . S
C2972 C2974 1.419 . S
C2973 C2968 1.425 . S
C2973 C2970 1.409 . S
C2973 C2971 1.415 . S
C2974 H2964 0.930 . S
C2974 C2972 1.419 . S
C2974 C2975 1.362 . S
C2975 H2965 0.930 . S
C2975 C2968 1.409 . S
C2975 C2974 1.362 . S
H2976 C2982 0.930 . S
H2977 C2985 0.930 . S
H2978 C2986 0.930 . S
H2979 C2987 0.930 . S
H2980 C2990 0.930 . S
H2981 C2991 0.930 . S
C2982 H2976 0.930 . S
C2982 C2983 1.355 . S
C2982 C2984 1.415 . S
C2983 C2982 1.355 . S
C2983 C2985 1.419 . S
C2984 C2982 1.415 . S
C2984 C2989 1.425 . S
C2984 C2991 1.409 . S
C2985 H2977 0.930 . S
C2985 C2983 1.419 . S
C2985 C2986 1.362 . S
C2986 H2978 0.930 . S
C2986 C2985 1.362 . S
C2986 C2989 1.409 . S
C2987 H2979 0.930 . S
C2987 C2988 1.355 . S
C2987 C2989 1.415 . S
C2988 C2987 1.355 . S
C2988 C2990 1.419 . S
C2989 C2984 1.425 . S
C2989 C2986 1.409 . S
C2989 C2987 1.415 . S
C2990 H2980 0.930 . S
C2990 C2988 1.419 . S
C2990 C2991 1.362 . S
C2991 H2981 0.930 . S
C2991 C2984 1.409 . S
C2991 C2990 1.362 . S
H2992 C2998 0.930 . S
H2993 C3001 0.930 . S
H2994 C3002 0.930 . S
H2995 C3003 0.930 . S
H2996 C3006 0.930 . S
H2997 C3007 0.930 . S
C2998 H2992 0.930 . S
C2998 C2999 1.355 . S
C2998 C3000 1.415 . S
C2999 C2998 1.355 . S
C2999 C3001 1.419 . S
C3000 C2998 1.415 . S
C3000 C3005 1.425 . S
C3000 C3007 1.409 . S
C3001 H2993 0.930 . S
C3001 C2999 1.419 . S
C3001 C3002 1.362 . S
C3002 H2994 0.930 . S
C3002 C3001 1.362 . S
C3002 C3005 1.409 . S
C3003 H2995 0.930 . S
C3003 C3004 1.355 . S
C3003 C3005 1.415 . S
C3004 C3003 1.355 . S
C3004 C3006 1.419 . S
C3005 C3000 1.425 . S
C3005 C3002 1.409 . S
C3005 C3003 1.415 . S
C3006 H2996 0.930 . S
C3006 C3004 1.419 . S
C3006 C3007 1.362 . S
C3007 H2997 0.930 . S
C3007 C3000 1.409 . S
C3007 C3006 1.362 . S
H3008 C3014 0.930 . S
H3009 C3017 0.930 . S
H3010 C3018 0.930 . S
H3011 C3019 0.930 . S
H3012 C3022 0.930 . S
H3013 C3023 0.930 . S
C3014 H3008 0.930 . S
C3014 C3015 1.355 . S
C3014 C3016 1.415 . S
C3015 C3014 1.355 . S
C3015 C3017 1.419 . S
C3016 C3014 1.415 . S
C3016 C3021 1.425 . S
C3016 C3023 1.409 . S
C3017 H3009 0.930 . S
C3017 C3015 1.419 . S
C3017 C3018 1.362 . S
C3018 H3010 0.930 . S
C3018 C3017 1.362 . S
C3018 C3021 1.409 . S
C3019 H3011 0.930 . S
C3019 C3020 1.355 . S
C3019 C3021 1.415 . S
C3020 C3019 1.355 . S
C3020 C3022 1.419 . S
C3021 C3016 1.425 . S
C3021 C3018 1.409 . S
C3021 C3019 1.415 . S
C3022 H3012 0.930 . S
C3022 C3020 1.419 . S
C3022 C3023 1.362 . S
C3023 H3013 0.930 . S
C3023 C3016 1.409 . S
C3023 C3022 1.362 . S
H3024 C3030 0.930 . S
H3025 C3033 0.930 . S
H3026 C3034 0.930 . S
H3027 C3035 0.930 . S
H3028 C3038 0.930 . S
H3029 C3039 0.930 . S
C3030 H3024 0.930 . S
C3030 C3031 1.355 . S
C3030 C3032 1.415 . S
C3031 C3030 1.355 . S
C3031 C3033 1.419 . S
C3032 C3030 1.415 . S
C3032 C3037 1.425 . S
C3032 C3039 1.409 . S
C3033 H3025 0.930 . S
C3033 C3031 1.419 . S
C3033 C3034 1.362 . S
C3034 H3026 0.930 . S
C3034 C3033 1.362 . S
C3034 C3037 1.409 . S
C3035 H3027 0.930 . S
C3035 C3036 1.355 . S
C3035 C3037 1.415 . S
C3036 C3035 1.355 . S
C3036 C3038 1.419 . S
C3037 C3032 1.425 . S
C3037 C3034 1.409 . S
C3037 C3035 1.415 . S
C3038 H3028 0.930 . S
C3038 C3036 1.419 . S
C3038 C3039 1.362 . S
C3039 H3029 0.930 . S
C3039 C3032 1.409 . S
C3039 C3038 1.362 . S
H3040 C3046 0.930 . S
H3041 C3049 0.930 . S
H3042 C3050 0.930 . S
H3043 C3051 0.930 . S
H3044 C3054 0.930 . S
H3045 C3055 0.930 . S
C3046 H3040 0.930 . S
C3046 C3047 1.355 . S
C3046 C3048 1.415 . S
C3047 C3046 1.355 . S
C3047 C3049 1.419 . S
C3048 C3046 1.415 . S
C3048 C3053 1.425 . S
C3048 C3055 1.409 . S
C3049 H3041 0.930 . S
C3049 C3047 1.419 . S
C3049 C3050 1.362 . S
C3050 H3042 0.930 . S
C3050 C3049 1.362 . S
C3050 C3053 1.409 . S
C3051 H3043 0.930 . S
C3051 C3052 1.355 . S
C3051 C3053 1.415 . S
C3052 C3051 1.355 . S
C3052 C3054 1.419 . S
C3053 C3048 1.425 . S
C3053 C3050 1.409 . S
C3053 C3051 1.415 . S
C3054 H3044 0.930 . S
C3054 C3052 1.419 . S
C3054 C3055 1.362 . S
C3055 H3045 0.930 . S
C3055 C3048 1.409 . S
C3055 C3054 1.362 . S
H3056 C3062 0.930 . S
H3057 C3065 0.930 . S
H3058 C3066 0.930 . S
H3059 C3067 0.930 . S
H3060 C3070 0.930 . S
H3061 C3071 0.930 . S
C3062 H3056 0.930 . S
C3062 C3063 1.355 . S
C3062 C3064 1.415 . S
C3063 C3062 1.355 . S
C3063 C3065 1.419 . S
C3064 C3062 1.415 . S
C3064 C3069 1.425 . S
C3064 C3071 1.409 . S
C3065 H3057 0.930 . S
C3065 C3063 1.419 . S
C3065 C3066 1.362 . S
C3066 H3058 0.930 . S
C3066 C3065 1.362 . S
C3066 C3069 1.409 . S
C3067 H3059 0.930 . S
C3067 C3068 1.355 . S
C3067 C3069 1.415 . S
C3068 C3067 1.355 . S
C3068 C3070 1.419 . S
C3069 C3064 1.425 . S
C3069 C3066 1.409 . S
C3069 C3067 1.415 . S
C3070 H3060 0.930 . S
C3070 C3068 1.419 . S
C3070 C3071 1.362 . S
C3071 H3061 0.930 . S
C3071 C3064 1.409 . S
C3071 C3070 1.362 . S
C1031 C822 1.673 1_556 S
C1036 C17 1.669 1_556 S
C1047 C54 1.653 1_556 S
C1052 C785 1.670 1_556 S
C1063 C881 1.906 . S
C1068 C81 1.897 . S
C1079 C113 1.888 . S
C1084 C849 1.908 . S
C1095 C946 1.671 1_554 S
C1100 C149 1.671 1_554 S
C1111 C178 1.631 1_554 S
C1116 C917 1.682 1_554 S
C1127 C1013 1.881 . S
C1132 C213 1.905 . S
C1143 C245 1.890 . S
C1148 C981 1.896 . S
C1159 C273 1.669 . S
C1164 C566 1.673 . S
C1175 C310 1.627 . S
C1180 C529 1.690 . S
C1191 C625 1.891 . S
C1196 C337 1.895 . S
C1207 C369 1.892 . S
C1212 C593 1.908 . S
C1223 C405 1.669 . S
C1228 C690 1.673 . S
C1239 C661 1.687 . S
C1244 C434 1.625 . S
C1255 C757 1.881 . S
C1260 C469 1.906 . S
C1271 C725 1.906 . S
C1276 C501 1.897 . S
C1287 C948 2.007 . S
C1292 C18 2.023 . S
C1303 C52 1.623 . S
C1308 C146 1.557 . S
C1319 C82 1.638 . S
C1324 C754 1.615 . S
C1335 C114 1.850 . S
C1340 C466 1.815 . S
C1351 C816 2.002 . S
C1356 C150 2.019 . S
C1367 C22 1.548 . S
C1372 C176 1.616 . S
C1383 C630 1.586 . S
C1388 C214 1.601 . S
C1399 C246 1.840 . S
C1404 C342 1.790 . S
C1415 C692 1.979 1_565 S
C1420 C274 2.010 . S
C1431 C402 1.608 . S
C1436 C308 1.631 . S
C1447 C338 1.596 . S
C1452 C1010 1.577 . S
C1463 C210 1.818 . S
C1468 C370 1.856 . S
C1479 C560 1.977 1_545 S
C1484 C406 2.041 . S
C1495 C432 1.622 . S
C1500 C278 1.610 . S
C1511 C470 1.598 . S
C1516 C886 1.580 . S
C1527 C502 1.849 . S
C1532 C86 1.814 . S
C1543 C530 2.030 . S
C1548 C436 2.011 . S
C1559 C658 1.603 . S
C1564 C564 1.606 . S
C1575 C242 1.568 . S
C1580 C594 1.592 . S
C1591 C978 1.767 . S
C1596 C626 1.822 . S
C1607 C662 2.012 . S
C1612 C304 1.990 . S
C1623 C688 1.635 . S
C1628 C534 1.581 . S
C1639 C726 1.633 . S
C1644 C118 1.605 . S
C1655 C758 1.802 . S
C1660 C854 1.749 . S
C1671 C180 1.996 1_565 S
C1676 C786 2.045 . S
C1687 C914 1.537 . S
C1692 C820 1.602 . S
C1703 C498 1.612 . S
C1708 C850 1.637 . S
C1719 C882 1.802 . S
C1724 C722 1.749 . S
C1735 C918 2.037 . S
C1740 C48 1.971 1_545 S
C1751 C944 1.607 . S
C1756 C790 1.604 . S
C1767 C982 1.606 . S
C1772 C374 1.571 . S
C1783 C1014 1.802 . S
C1788 C598 1.750 . S
C1799 C211 1.055 . S
C1804 C19 1.151 1_455 S
C1815 C51 1.249 1_545 S
C1820 C1011 1.253 . S
C1831 C403 1.195 . S
C1836 C83 1.193 . S
C1847 C691 0.860 . S
C1852 C115 0.796 . S
C1863 C87 1.076 . S
C1868 C151 1.105 1_655 S
C1879 C183 1.304 1_565 S
C1884 C887 1.243 . S
C1895 C279 1.201 . S
C1900 C215 1.102 . S
C1911 C247 0.933 . S
C1916 C567 0.908 . S
C1927 C275 1.145 1_455 S
C1932 C467 1.158 . S
C1943 C755 1.291 . S
C1948 C307 1.252 . S
C1959 C339 1.214 . S
C1964 C147 1.222 . S
C1975 C947 0.860 . S
C1980 C371 0.810 . S
C1991 C407 1.127 1_655 S
C1996 C343 1.054 . S
C2007 C631 1.224 . S
C2012 C439 1.267 . S
C2023 C471 1.185 . S
C2028 C23 1.192 . S
C2039 C823 0.894 . S
C2044 C503 0.933 . S
C2055 C531 1.122 . S
C2060 C723 1.160 . S
C2071 C563 1.275 1_545 S
C2076 C499 1.219 . S
C2087 C915 1.188 . S
C2092 C595 1.164 . S
C2103 C627 0.803 . S
C2108 C179 0.860 . S
C2119 C599 1.077 . S
C2124 C663 1.104 . S
C2135 C695 1.285 1_565 S
C2140 C375 1.216 . S
C2151 C791 1.242 . S
C2156 C727 1.124 . S
C2167 C759 0.931 . S
C2172 C55 0.892 . S
C2183 C979 1.121 . S
C2188 C787 1.095 . S
C2199 C819 1.296 . S
C2204 C243 1.219 . S
C2215 C851 1.132 . S
C2220 C659 1.189 . S
C2231 C883 0.831 . S
C2236 C435 0.905 . S
C2247 C855 1.149 . S
C2252 C919 1.157 . S
C2263 C951 1.273 . S
C2268 C119 1.293 . S
C2279 C535 1.247 . S
C2284 C983 1.157 . S
C2295 C1015 0.781 . S
C2300 C311 0.861 . S
C2311 C117 1.528 . S
C2316 C21 1.517 . S
C2327 C85 1.518 . S
C2332 C50 1.453 . S
C2343 C145 1.552 . S
C2348 C241 1.566 . S
C2359 C209 1.564 . S
C2364 C182 1.461 . S
C2375 C373 1.527 . S
C2380 C277 1.579 . S
C2391 C306 1.504 . S
C2396 C341 1.502 . S
C2407 C497 1.508 . S
C2412 C401 1.565 . S
C2423 C465 1.564 . S
C2428 C438 1.472 . S
C2439 C533 1.570 . S
C2444 C629 1.570 . S
C2455 C597 1.508 . S
C2460 C562 1.471 . S
C2471 C657 1.520 . S
C2476 C753 1.534 . S
C2487 C721 1.553 . S
C2492 C694 1.508 . S
C2503 C885 1.531 . S
C2508 C789 1.580 . S
C2519 C818 1.479 . S
C2524 C853 1.505 . S
C2535 C913 1.581 . S
C2540 C1009 1.563 . S
C2551 C950 1.480 . S
C2556 C977 1.505 . S
C2567 C20 0.870 . S
C2572 C144 0.870 . S
C2583 C949 1.502 1_554 S
C2588 C49 1.502 1_556 S
C2599 C464 0.921 . S
C2604 C84 0.921 . S
C2615 C752 0.899 . S
C2620 C116 0.899 . S
C2631 C817 1.492 1_556 S
C2636 C181 1.492 1_554 S
C2647 C340 0.881 . S
C2652 C208 0.881 . S
C2663 C240 0.909 . S
C2668 C628 0.909 . S
C2679 C400 0.857 . S
C2684 C276 0.857 . S
C2695 C305 1.489 . S
C2700 C693 1.489 . S
C2711 C372 0.967 . S
C2716 C1008 0.967 . S
C2727 C437 1.523 . S
C2732 C561 1.523 . S
C2743 C884 0.965 . S
C2748 C496 0.965 . S
C2759 C656 0.949 . S
C2764 C532 0.949 . S
C2775 C976 0.858 . S
C2780 C596 0.858 . S
C2791 C720 0.909 . S
C2796 C852 0.909 . S
C2807 C912 0.953 . S
C2812 C788 0.953 . S
C2823 C80 1.663 . S
C2828 C16 1.673 . S
C2839 C112 1.752 . S
C2844 C53 1.753 . S
C2855 C148 1.671 . S
C2860 C212 1.698 . S
C2871 C177 1.734 . S
C2876 C244 1.762 . S
C2887 C336 1.664 . S
C2892 C272 1.663 . S
C2903 C368 1.744 . S
C2908 C309 1.757 . S
C2919 C404 1.685 . S
C2924 C468 1.668 . S
C2935 C500 1.761 . S
C2940 C433 1.735 . S
C2951 C592 1.711 . S
C2956 C528 1.691 . S
C2967 C565 1.757 . S
C2972 C624 1.748 . S
C2983 C724 1.705 . S
C2988 C660 1.680 . S
C2999 C689 1.740 . S
C3004 C756 1.756 . S
C3015 C784 1.659 . S
C3020 C848 1.670 . S
C3031 C821 1.744 . S
C3036 C880 1.753 . S
C3047 C980 1.710 . S
C3052 C916 1.709 . S
C3063 C1012 1.756 . S
C3068 C945 1.747 . S
