# Generated by pormake.
# Topology bsn, (6)-cn, num edge types: 1
# Building blocks:
#     Node 0, Type 0, BuildingBlock: FUNLAD_clean_sbu_0, # of connection points: 6
#     Node 1, Type 0, BuildingBlock: FUNLAD_clean_sbu_0, # of connection points: 6
#     Node 2, Type 0, BuildingBlock: FUNLAD_clean_sbu_0, # of connection points: 6
#     Node 3, Type 0, BuildingBlock: FUNLAD_clean_sbu_0, # of connection points: 6
#     Edge 4, Type (0, 0), BuildingBlock: ZUJKAS_clean_linker_0, # of connection points: 2
#     Edge 5, Type (0, 0), BuildingBlock: ZUJKAS_clean_linker_0, # of connection points: 2
#     Edge 6, Type (0, 0), BuildingBlock: ZUJKAS_clean_linker_0, # of connection points: 2
#     Edge 7, Type (0, 0), BuildingBlock: ZUJKAS_clean_linker_0, # of connection points: 2
#     Edge 8, Type (0, 0), BuildingBlock: ZUJKAS_clean_linker_0, # of connection points: 2
#     Edge 9, Type (0, 0), BuildingBlock: ZUJKAS_clean_linker_0, # of connection points: 2
#     Edge 10, Type (0, 0), BuildingBlock: ZUJKAS_clean_linker_0, # of connection points: 2
#     Edge 11, Type (0, 0), BuildingBlock: ZUJKAS_clean_linker_0, # of connection points: 2
#     Edge 12, Type (0, 0), BuildingBlock: ZUJKAS_clean_linker_0, # of connection points: 2
#     Edge 13, Type (0, 0), BuildingBlock: ZUJKAS_clean_linker_0, # of connection points: 2
#     Edge 14, Type (0, 0), BuildingBlock: ZUJKAS_clean_linker_0, # of connection points: 2
#     Edge 15, Type (0, 0), BuildingBlock: ZUJKAS_clean_linker_0, # of connection points: 2
# Relax obj value: 0.397
# Max RMSD: 0.254
# Mean RMSD: 0.254
data_MOF--net-bsn--node1-FUNLAD_clean_sbu_0--edge1-ZUJKAS_clean_linker_0
_symmetry_space_group_name_H-M    P1
_symmetry_Int_Tables_number       1
_symmetry_cell_setting            triclinic
loop_
_symmetry_equiv_pos_as_xyz
'x, y, z'
_cell_length_a     36.48972
_cell_length_b     36.413513
_cell_length_c     25.322807
_cell_angle_alpha  90.970045
_cell_angle_beta   93.535539
_cell_angle_gamma 94.437428
loop_
_atom_site_label
_atom_site_type_symbol
_atom_site_fract_x
_atom_site_fract_y
_atom_site_fract_z
_atom_type_partial_charge
C0 C 0.10599 0.27457 0.34388 0.0
N1 N 1.01247 0.27896 0.24461 0.0
C2 C 0.03038 0.3073 0.22006 0.0
C3 C 1.02315 0.31242 0.16625 0.0
C4 C 0.99719 0.28815 0.1376 0.0
C5 C 0.97845 0.25964 0.1642 0.0
C6 C 0.98663 0.25547 0.21809 0.0
Zn7 Zn 1.02438 0.27249 0.32239 0.0
C8 C 0.02972 0.19276 0.35297 0.0
N9 N 0.05053 0.25958 0.48469 0.0
C10 C 0.07694 0.28288 0.51034 0.0
C11 C 0.02815 0.2359 0.51139 0.0
C12 C 0.02998 0.23702 0.56639 0.0
C13 C 0.05498 0.26287 0.59387 0.0
C14 C 0.07966 0.28502 0.56541 0.0
Zn15 Zn 0.03929 0.26477 0.40648 0.0
O16 O 0.08018 0.27839 0.30918 0.0
C17 C 0.03405 0.34416 0.38369 0.0
O18 O 0.09803 0.26749 0.39121 0.0
H19 H 1.00734 0.21766 0.49002 0.0
H20 H 0.05076 0.32563 0.24209 0.0
H21 H 0.09447 0.30136 0.48808 0.0
O22 O 1.02417 0.33231 0.3369 0.0
O23 O 0.04236 0.32128 0.41852 0.0
H24 H 0.97257 0.23332 0.23869 0.0
O25 O 0.97915 0.26162 0.41817 0.0
O26 O 0.96938 0.26697 0.33252 0.0
O27 O 0.03678 0.20881 0.39735 0.0
O28 O 1.02374 0.21181 0.31184 0.0
C29 C 0.95685 0.26277 0.37742 0.0
H30 H 0.03868 0.33432 0.14698 0.0
H31 H 0.95808 0.24052 0.14344 0.0
H32 H 1.01023 0.2197 0.58689 0.0
H33 H 0.09958 0.30498 0.5854 0.0
C34 C 0.10707 0.77442 0.6486 0.0
N35 N 0.04838 0.77305 0.49993 0.0
C36 C 0.07913 0.79076 0.48171 0.0
C37 C 0.08781 0.78523 0.42951 0.0
C38 C 0.06469 0.76107 0.39629 0.0
C39 C 0.03284 0.74368 0.41591 0.0
C40 C 1.0251 0.75018 0.46814 0.0
Zn41 Zn 0.03881 0.77717 0.57713 0.0
C42 C 1.02277 0.70209 0.61744 0.0
N43 N 1.01852 0.7822 0.73848 0.0
C44 C 0.04128 0.80574 0.76999 0.0
C45 C 0.99389 0.75727 0.75897 0.0
C46 C 0.9934 0.75348 0.81353 0.0
C47 C 1.01853 0.77557 0.84686 0.0
C48 C 0.04174 0.8029 0.82471 0.0
Zn49 Zn 0.02686 0.77949 0.6608 0.0
O50 O 0.0978 0.77296 0.59917 0.0
C51 C 0.0417 0.85445 0.61236 0.0
O52 O 0.08252 0.77823 0.68086 0.0
H53 H 0.97598 0.73897 0.73296 0.0
H54 H 0.09726 0.8087 0.50793 0.0
H55 H 0.06072 0.82519 0.75262 0.0
O56 O 0.04777 0.83354 0.57408 0.0
O57 O 0.03182 0.84027 0.65558 0.0
H58 H 1.00084 0.73642 0.4836 0.0
O59 O 0.97177 0.78033 0.64411 0.0
O60 O 0.97896 0.78136 0.55868 0.0
O61 O 1.02099 0.7187 0.66182 0.0
O62 O 0.02973 0.72068 0.57721 0.0
C63 C 0.95802 0.78161 0.59734 0.0
H64 H 0.11257 0.79916 0.41553 0.0
H65 H 1.01394 0.72548 0.39101 0.0
H66 H 0.97474 0.73246 0.82936 0.0
H67 H 0.06175 0.82024 0.84909 0.0
C68 C 0.61558 0.77554 0.83365 0.0
N69 N 0.51911 0.78349 0.74277 0.0
C70 C 0.53923 0.80921 0.71617 0.0
C71 C 0.53423 0.8111 0.66146 0.0
C72 C 0.50831 0.78621 0.63386 0.0
C73 C 0.48663 0.76108 0.66253 0.0
C74 C 0.49252 0.7602 0.71743 0.0
Zn75 Zn 0.53281 0.77823 0.82062 0.0
C76 C 0.53636 0.69947 0.85346 0.0
N77 N 0.5676 0.76763 0.98113 0.0
C78 C 0.59528 0.78989 0.00598 0.0
C79 C 0.54663 0.74287 0.00819 0.0
C80 C 0.55202 0.74088 0.06284 0.0
C81 C 0.57908 0.7648 0.08994 0.0
C82 C 0.60146 0.789 0.06086 0.0
Zn83 Zn 0.55363 0.77314 0.90337 0.0
O84 O 0.58747 0.77705 0.80216 0.0
C85 C 0.55013 0.85158 0.87833 0.0
O86 O 0.61135 0.77462 0.88327 0.0
H87 H 0.52466 0.7256 0.98762 0.0
H88 H 0.56038 0.82726 0.73717 0.0
H89 H 0.61163 0.80928 0.98348 0.0
O90 O 0.5387 0.83865 0.83257 0.0
O91 O 0.55835 0.8296 0.91444 0.0
H92 H 0.47676 0.74011 0.73959 0.0
O93 O 0.49401 0.77172 0.91994 0.0
O94 O 0.47927 0.77921 0.83568 0.0
O95 O 0.54985 0.7167 0.89467 0.0
O96 O 0.52561 0.71752 0.81339 0.0
C97 C 0.46964 0.77547 0.88231 0.0
H98 H 0.55198 0.83047 0.64082 0.0
H99 H 0.46619 0.74162 0.64259 0.0
H100 H 0.53376 0.72225 0.08386 0.0
H101 H 0.62272 0.80775 0.08047 0.0
C102 C 0.60298 0.27762 0.12589 0.0
N103 N 0.52748 0.25819 -0.00761 0.0
C104 C 0.55325 0.27802 0.96587 0.0
C105 C 0.55059 0.27818 0.91089 0.0
C106 C 0.52113 0.25769 0.8832 0.0
C107 C 0.49636 0.2355 0.91147 0.0
C108 C 0.50007 0.23619 0.96653 0.0
Zn109 Zn 0.52651 0.26708 0.07087 0.0
C110 C 0.52518 0.19807 0.12651 0.0
N111 N 0.52496 0.28946 0.23319 0.0
C112 C 0.54363 0.31997 0.25622 0.0
C113 C 0.5022 0.26668 0.26066 0.0
C114 C 0.49659 0.27483 0.31318 0.0
C115 C 0.51484 0.30653 0.33763 0.0
C116 C 0.53911 0.32898 0.30901 0.0
Zn117 Zn 0.52696 0.2795 0.15508 0.0
O118 O 0.58707 0.26584 0.0818 0.0
C119 C 0.52825 0.34794 0.09143 0.0
O120 O 0.58359 0.28752 0.16246 0.0
H121 H 0.4877 0.24257 0.24145 0.0
H122 H 0.57467 0.29543 0.98741 0.0
H123 H 0.56146 0.33769 0.23334 0.0
O124 O 0.53192 0.32302 0.0573 0.0
O125 O 0.52331 0.33863 0.13896 0.0
H126 H 0.48003 0.22055 -0.01137 0.0
O127 O 0.47037 0.27146 0.15055 0.0
O128 O 0.46584 0.26749 0.06412 0.0
O129 O 0.53058 0.21945 0.16729 0.0
O130 O 0.521 0.21171 0.08131 0.0
C131 C 0.4505 0.26784 0.108 0.0
H132 H 0.57002 0.29597 0.89055 0.0
H133 H 0.47359 0.21897 0.89132 0.0
H134 H 0.47828 0.25646 0.33454 0.0
H135 H 0.55373 0.35355 0.32691 0.0
H136 H 0.07695 0.378 0.46359 0.0
H137 H 0.0719 0.43843 0.50373 0.0
H138 H 0.98731 0.46011 0.38437 0.0
H139 H 0.99203 0.39871 0.34378 0.0
H140 H 0.08012 0.5095 0.46547 0.0
H141 H 0.93761 0.47445 0.52473 0.0
H142 H 0.96639 0.43999 0.50212 0.0
H143 H 0.94451 0.46917 0.4554 0.0
C144 C 0.05753 0.39573 0.44528 0.0
C145 C 0.03472 0.38346 0.40058 0.0
C146 C 0.05468 0.43034 0.46841 0.0
C147 C 0.02875 0.45358 0.44783 0.0
C148 C 1.00706 0.44231 0.40156 0.0
H149 H 0.97218 0.66809 0.54836 0.0
H150 H 0.9722 0.60559 0.51194 0.0
C151 C 1.01009 0.40748 0.37797 0.0
C152 C 1.02428 0.48895 0.47632 0.0
H153 H 0.96428 0.5342 0.54755 0.0
C154 C 0.05478 0.51493 0.48338 0.0
C155 C 0.9913 0.49588 0.5001 0.0
C156 C 0.9581 0.46836 0.49574 0.0
C157 C 0.05308 0.54782 0.51274 0.0
C158 C 1.02021 0.55466 0.53692 0.0
C159 C 0.98962 0.52876 0.52965 0.0
C160 C 1.01621 0.58993 0.56603 0.0
C161 C 0.08624 0.57544 0.51635 0.0
C162 C 0.03952 0.60138 0.6107 0.0
C163 C 0.03925 0.63726 0.63209 0.0
C164 C 1.01554 0.66193 0.60913 0.0
C165 C 0.99038 0.64938 0.56722 0.0
C166 C 0.99055 0.61373 0.54612 0.0
H167 H 0.10603 0.56979 0.48614 0.0
H168 H 0.07783 0.60389 0.5112 0.0
H169 H 0.10077 0.57408 0.55598 0.0
H170 H 0.05912 0.58323 0.62737 0.0
H171 H 0.05938 0.6465 0.66369 0.0
H172 H 0.686 0.79417 0.87937 0.0
H173 H 0.74403 0.79757 0.83366 0.0
H174 H 0.68438 0.75702 0.6895 0.0
H175 H 0.62719 0.75417 0.73381 0.0
H176 H 0.7805 0.74524 0.77912 0.0
H177 H 0.73642 0.85187 0.64126 0.0
H178 H 0.71242 0.84021 0.69965 0.0
H179 H 0.70382 0.81235 0.64009 0.0
C180 C 0.68546 0.78579 0.83808 0.0
C181 C 0.65187 0.77445 0.81015 0.0
C182 C 0.71854 0.78785 0.81192 0.0
C183 C 0.71841 0.77857 0.75761 0.0
C184 C 0.68514 0.7655 0.73079 0.0
H185 H 0.90583 0.72473 0.58271 0.0
H186 H 0.84454 0.72447 0.61749 0.0
C187 C 0.65239 0.7637 0.75649 0.0
C188 C 0.75262 0.78222 0.72812 0.0
H189 H 0.78805 0.81984 0.61732 0.0
C190 C 0.78227 0.76176 0.744 0.0
C191 C 0.75522 0.80416 0.68254 0.0
C192 C 0.72543 0.82869 0.66516 0.0
C193 C 0.81387 0.76177 0.71476 0.0
C194 C 0.81557 0.78211 0.66753 0.0
C195 C 0.78643 0.80352 0.65266 0.0
C196 C 0.84835 0.78309 0.63497 0.0
C197 C 0.84544 0.74045 0.73532 0.0
C198 C 0.86936 0.81651 0.62852 0.0
C199 C 0.90389 0.81675 0.60721 0.0
C200 C 0.91791 0.78366 0.59158 0.0
C201 C 0.89526 0.75075 0.59295 0.0
C202 C 0.86062 0.75049 0.61412 0.0
H203 H 0.84384 0.73449 0.77804 0.0
H204 H 0.84451 0.71375 0.71332 0.0
H205 H 0.87235 0.75583 0.72962 0.0
H206 H 0.86043 0.84206 0.6439 0.0
H207 H 0.92126 0.84232 0.60819 0.0
H208 H 0.49511 0.40753 0.13222 0.0
H209 H 0.48955 0.46769 0.08993 0.0
H210 H 0.5571 0.43465 0.96645 0.0
H211 H 0.56249 0.37536 0.00756 0.0
H212 H 0.54267 0.52389 0.06013 0.0
H213 H 0.46349 0.46167 0.88327 0.0
H214 H 0.47001 0.43704 0.94403 0.0
H215 H 0.50553 0.44028 0.89767 0.0
C216 C 0.50917 0.41346 0.09654 0.0
C217 C 0.5289 0.38651 0.073 0.0
C218 C 0.50577 0.44767 0.07218 0.0
C219 C 0.52198 0.45523 0.02403 0.0
C220 C 0.54337 0.4291 0.00253 0.0
H221 H 0.59004 0.65394 0.87242 0.0
H222 H 0.58251 0.59316 0.91172 0.0
C223 C 0.54664 0.39523 0.02647 0.0
C224 C 0.51711 0.49017 -0.00456 0.0
H225 H 0.49218 0.52276 0.8734 0.0
C226 C 0.53113 0.5237 0.01961 0.0
C227 C 0.50155 0.49013 0.94269 0.0
C228 C 0.48393 0.45539 0.91555 0.0
C229 C 0.53188 0.55677 -0.00846 0.0
C230 C 0.51881 0.55623 0.93758 0.0
C231 C 0.50283 0.5231 0.91436 0.0
C232 C 0.52297 0.58963 0.90458 0.0
C233 C 0.54709 0.59202 0.01981 0.0
C234 C 0.49205 0.60659 0.88364 0.0
C235 C 0.4964 0.64116 0.8599 0.0
C236 C 0.53172 0.65899 0.85659 0.0
C237 C 0.56256 0.64047 0.87353 0.0
C238 C 0.55825 0.60604 0.89688 0.0
H239 H 0.54615 0.58983 0.06342 0.0
H240 H 0.57629 0.59793 0.01068 0.0
H241 H 0.53155 0.61564 0.00666 0.0
H242 H 0.46455 0.59429 0.88881 0.0
H243 H 0.47217 0.65532 0.84862 0.0
H244 H 0.91244 0.20171 0.35253 0.0
H245 H 0.85008 0.2023 0.31115 0.0
H246 H 0.84866 0.31694 0.35575 0.0
H247 H 0.91147 0.31646 0.39621 0.0
H248 H 0.77992 0.22067 0.33372 0.0
H249 H 0.84329 0.31894 0.19425 0.0
H250 H 0.87031 0.29455 0.24209 0.0
H251 H 0.84839 0.33468 0.26206 0.0
C252 C 0.89798 0.22645 0.35614 0.0
C253 C 0.91648 0.25883 0.37857 0.0
C254 C 0.86252 0.22693 0.3317 0.0
C255 C 0.84505 0.25993 0.32892 0.0
C256 C 0.8619 0.29133 0.35637 0.0
H257 H 0.64731 0.33126 0.17692 0.0
H258 H 0.70798 0.32523 0.22101 0.0
C259 C 0.89747 0.29086 0.38065 0.0
C260 C 0.81144 0.26235 0.29282 0.0
H261 H 0.77848 0.30653 0.1836 0.0
C262 C 0.77965 0.23932 0.30079 0.0
C263 C 0.81124 0.28621 0.24911 0.0
C264 C 0.84521 0.30974 0.23588 0.0
C265 C 0.74736 0.24053 0.26754 0.0
C266 C 0.74693 0.26509 0.22475 0.0
C267 C 0.77886 0.28766 0.21628 0.0
C268 C 0.7127 0.26992 0.19123 0.0
C269 C 0.7135 0.21636 0.27931 0.0
C270 C 0.69593 0.24149 0.15752 0.0
C271 C 0.66135 0.2452 0.13124 0.0
C272 C 0.64305 0.27728 0.13876 0.0
C273 C 0.66099 0.3064 0.16995 0.0
C274 C 0.69554 0.30289 0.1955 0.0
H275 H 0.71659 0.20316 0.31841 0.0
H276 H 0.68899 0.23266 0.27863 0.0
H277 H 0.70832 0.19431 0.24837 0.0
H278 H 0.7089 0.21594 0.15319 0.0
H279 H 0.64782 0.22206 0.10834 0.0
H280 H 0.41572 0.21309 0.1591 0.0
H281 H 0.35518 0.21352 0.19522 0.0
H282 H 0.33538 0.31252 0.11057 0.0
H283 H 0.39647 0.31209 0.07416 0.0
H284 H 0.33948 0.27633 0.25955 0.0
H285 H 0.2356 0.24599 0.09125 0.0
H286 H 0.28215 0.23239 0.09027 0.0
H287 H 0.27313 0.27962 0.08076 0.0
C288 C 0.39777 0.23404 0.14632 0.0
C289 C 0.4104 0.26212 0.11296 0.0
C290 C 0.36336 0.23449 0.16748 0.0
C291 C 0.34074 0.26305 0.15577 0.0
C292 C 0.3522 0.28994 0.11966 0.0
H293 H 0.13272 0.31915 0.26889 0.0
H294 H 0.19111 0.31763 0.22744 0.0
C295 C 0.3869 0.28951 0.09838 0.0
C296 C 0.3073 0.26648 0.18583 0.0
H297 H 0.21337 0.26193 0.17339 0.0
C298 C 0.31185 0.27316 0.24078 0.0
C299 C 0.27137 0.26246 0.1613 0.0
C300 C 0.26496 0.25448 0.1027 0.0
C301 C 0.28148 0.27648 0.27175 0.0
C302 C 0.24539 0.27203 0.24738 0.0
C303 C 0.24094 0.2653 0.1923 0.0
C304 C 0.21177 0.27529 0.2775 0.0
C305 C 0.2885 0.28576 0.32997 0.0
C306 C 0.20405 0.25275 0.32083 0.0
C307 C 0.17065 0.25411 0.34553 0.0
C308 C 0.14419 0.27752 0.32656 0.0
C309 C 0.15257 0.30081 0.28446 0.0
C310 C 0.18591 0.29981 0.26044 0.0
H311 H 0.31685 0.29863 0.33912 0.0
H312 H 0.26855 0.3048 0.34369 0.0
H313 H 0.28548 0.26007 0.35278 0.0
H314 H 0.22312 0.23302 0.3342 0.0
H315 H 0.16466 0.23541 0.37723 0.0
H316 H 0.42096 0.71577 0.88782 0.0
H317 H 0.35637 0.71436 0.85399 0.0
H318 H 0.36529 0.83297 0.84802 0.0
H319 H 0.4294 0.83431 0.88283 0.0
H320 H 0.29643 0.80692 0.87088 0.0
H321 H 0.34053 0.73181 0.6963 0.0
H322 H 0.34736 0.70813 0.7573 0.0
H323 H 0.37276 0.75161 0.74783 0.0
C324 C 0.40839 0.74156 0.88234 0.0
C325 C 0.4299 0.77519 0.88907 0.0
C326 C 0.37176 0.74074 0.86166 0.0
C327 C 0.3563 0.77351 0.84671 0.0
C328 C 0.37661 0.80729 0.85874 0.0
H329 H 0.17383 0.79423 0.6056 0.0
H330 H 0.23559 0.79484 0.65166 0.0
C331 C 0.41311 0.80809 0.87955 0.0
C332 C 0.32059 0.77277 0.81448 0.0
H333 H 0.27685 0.74084 0.69716 0.0
C334 C 0.29218 0.79241 0.83297 0.0
C335 C 0.31533 0.75487 0.76404 0.0
C336 C 0.3457 0.73573 0.73981 0.0
C337 C 0.25843 0.79376 0.80333 0.0
C338 C 0.25246 0.77423 0.75422 0.0
C339 C 0.28121 0.75546 0.73497 0.0
C340 C 0.21594 0.77165 0.72391 0.0
C341 C 0.22965 0.81662 0.82471 0.0
C342 C 0.18472 0.75704 0.74817 0.0
C343 C 0.14988 0.7569 0.72232 0.0
C344 C 0.14518 0.77078 0.67098 0.0
C345 C 0.17659 0.78339 0.64509 0.0
C346 C 0.21179 0.78387 0.67148 0.0
H347 H 0.24226 0.83863 0.85255 0.0
H348 H 0.2137 0.82961 0.7923 0.0
H349 H 0.21025 0.79863 0.84676 0.0
H350 H 0.18721 0.74631 0.78776 0.0
H351 H 0.12634 0.74638 0.74315 0.0
H352 H 0.60367 0.89036 0.93867 0.0
H353 H 0.59938 0.94951 0.98414 0.0
H354 H 0.49385 0.96016 0.90197 0.0
H355 H 0.49828 0.90074 0.85557 0.0
H356 H 0.58389 0.02478 0.94421 0.0
H357 H 0.47787 0.95813 0.06805 0.0
H358 H 0.50847 0.93185 0.03189 0.0
H359 H 0.47089 0.952 -0.00268 0.0
C360 C 0.5801 0.9059 0.92893 0.0
C361 C 0.55146 0.89116 0.89319 0.0
C362 C 0.57759 0.93958 0.95522 0.0
C363 C 0.5461 0.95896 0.94707 0.0
C364 C 0.5183 0.94545 0.90909 0.0
H365 H 0.46845 0.14922 0.09694 0.0
H366 H 0.47445 0.0881 0.05892 0.0
C367 C 0.52105 0.91181 0.88207 0.0
C368 C 0.54165 0.99184 0.98111 0.0
H369 H 0.49522 1.02104 0.08531 0.0
C370 C 0.5645 1.02406 0.97504 0.0
C371 C 0.51652 0.99068 0.02154 0.0
C372 C 0.49209 0.95632 0.03065 0.0
C373 C 0.5623 0.0555 0.00747 0.0
C374 C 0.5374 0.05431 0.04844 0.0
C375 C 0.51462 1.02191 0.0545 0.0
C376 C 0.53245 0.08739 0.0822 0.0
C377 C 0.5858 0.0901 -0.00381 0.0
C378 C 0.56231 0.10631 0.11168 0.0
C379 C 0.55875 0.14135 0.13401 0.0
C380 C 0.52515 0.15764 0.12778 0.0
C381 C 0.49444 0.13693 0.10336 0.0
C382 C 0.498 0.10213 0.08095 0.0
H383 H 0.59631 0.08917 0.95596 0.0
H384 H 0.57006 0.11484 -0.00035 0.0
H385 H 0.60991 0.09316 0.02527 0.0
H386 H 0.58897 0.0951 0.11444 0.0
H387 H 0.58307 0.15707 0.15141 0.0
H388 H 0.986 0.89998 0.61913 0.0
H389 H 0.981 0.95753 0.57056 0.0
H390 H 0.09363 0.95469 0.52918 0.0
H391 H 0.09821 0.89692 0.57611 0.0
H392 H 1.01747 0.02761 0.56881 0.0
H393 H 0.03833 0.94945 0.38495 0.0
H394 H 0.03043 0.92717 0.44677 0.0
H395 H 0.07559 0.94727 0.43413 0.0
C396 C 1.01009 0.91256 0.60155 0.0
C397 C 0.04264 0.89428 0.60187 0.0
C398 C 1.00709 0.94516 0.57314 0.0
C399 C 0.03659 0.95985 0.54471 0.0
C400 C 0.07015 0.94339 0.54941 0.0
H401 H 0.0854 0.1479 0.35361 0.0
H402 H 0.08391 0.08759 0.39539 0.0
C403 C 0.07299 0.91073 0.57711 0.0
C404 C 0.03185 0.99076 0.50749 0.0
H405 H 0.03998 1.01482 0.37824 0.0
C406 C 1.02203 0.02469 0.52709 0.0
C407 C 0.03749 0.98696 0.45274 0.0
C408 C 0.04567 0.95065 0.42822 0.0
C409 C 1.01912 0.05519 0.49399 0.0
C410 C 1.02576 0.05159 0.43965 0.0
C411 C 0.03493 1.01755 0.41983 0.0
C412 C 1.02513 0.08358 0.40378 0.0
C413 C 1.0101 0.09145 0.51772 0.0
C414 C 0.99226 0.10016 0.39132 0.0
C415 C 0.99302 0.13424 0.36627 0.0
C416 C 0.02661 0.15223 0.35318 0.0
C417 C 0.059 0.13406 0.36155 0.0
C418 C 0.05823 0.09987 0.38624 0.0
H419 H 1.01195 0.09138 0.56167 0.0
H420 H 0.02901 0.11435 0.50441 0.0
H421 H 0.98161 0.09704 0.50414 0.0
H422 H 0.96637 0.08793 0.40411 0.0
H423 H 0.96786 0.14821 0.362 0.0
H424 H 0.9926 0.23168 0.06537 0.0
H425 H 0.99523 0.23618 0.96977 0.0
H426 H 0.99497 0.35443 0.98275 0.0
H427 H 0.99195 0.35019 0.07894 0.0
H428 H 0.95124 0.27038 0.88797 0.0
H429 H 0.09499 0.33429 0.92102 0.0
H430 H 0.0709 0.31167 0.97308 0.0
H431 H 0.05929 0.3564 0.95219 0.0
C432 C 0.99201 0.25857 0.04784 0.0
C433 C 0.99246 0.29064 0.07955 0.0
C434 C 0.99366 0.26109 -0.00671 0.0
C435 C 0.99586 0.29564 0.96974 0.0
C436 C 0.99384 0.32759 0.00067 0.0
H437 H 0.05551 0.32944 0.64448 0.0
H438 H 0.04046 0.34112 0.73566 0.0
C439 C 0.9922 0.32512 0.05538 0.0
C440 C 1.00383 0.29787 0.9137 0.0
H441 H 0.07402 0.3184 0.83364 0.0
C442 C 0.97785 0.28133 0.87582 0.0
C443 C 0.03864 0.3122 0.89846 0.0
C444 C 0.06777 0.32948 0.93817 0.0
C445 C 0.98624 0.2777 0.82292 0.0
C446 C 1.02168 0.29038 0.80825 0.0
C447 C 0.04702 0.30851 0.84555 0.0
C448 C 0.0335 0.28346 0.75483 0.0
C449 C 0.95739 0.25984 0.78335 0.0
C450 C 0.03603 0.24721 0.73669 0.0
C451 C 0.04498 0.24043 0.68494 0.0
C452 C 0.05168 0.26986 0.65083 0.0
C453 C 0.05096 0.30623 0.67012 0.0
C454 C 0.04202 0.31297 0.7219 0.0
H455 H 0.92922 0.26078 0.79743 0.0
H456 H 0.95842 0.27349 0.74453 0.0
H457 H 0.96265 0.23049 0.77736 0.0
H458 H 0.03035 0.22419 0.76228 0.0
H459 H 0.04578 0.21218 0.67119 0.0
H460 H 1.02156 0.70828 0.89137 0.0
H461 H 0.03664 0.69525 0.98429 0.0
H462 H 0.04385 0.81154 0.02262 0.0
H463 H 0.02833 0.82489 0.92985 0.0
H464 H 0.10725 0.7687 0.05881 0.0
H465 H 0.96924 0.70856 0.11132 0.0
H466 H 0.9879 0.69175 0.05217 0.0
H467 H 0.97472 0.73811 0.05533 0.0
C468 C 1.02552 0.73102 0.91981 0.0
C469 C 1.02358 0.76762 0.90361 0.0
C470 C 0.0344 0.72351 0.97262 0.0
C471 C 0.04131 0.75248 0.00977 0.0
C472 C 0.03873 0.78894 -0.00594 0.0
H473 H 0.08456 0.81293 0.32539 0.0
H474 H 0.08751 0.80398 0.23017 0.0
C475 C 0.02984 0.79649 0.9413 0.0
C476 C 0.05175 0.74509 0.06521 0.0
H477 H 1.01572 0.7163 0.17947 0.0
C478 C 0.08749 0.7568 0.08526 0.0
C479 C 1.02594 0.72903 0.0989 0.0
C480 C 0.98719 0.7162 0.07872 0.0
C481 C 0.09766 0.75436 0.1392 0.0
C482 C 0.07108 0.74057 0.17356 0.0
C483 C 0.03602 0.72684 0.15286 0.0
C484 C 0.07695 0.74463 0.23144 0.0
C485 C 0.13641 0.76731 0.15901 0.0
C486 C 0.07031 0.71418 0.2636 0.0
C487 C 0.06822 0.71932 0.31794 0.0
C488 C 0.07264 0.75497 0.34067 0.0
C489 C 0.08144 0.78515 0.30885 0.0
C490 C 0.08335 0.78003 0.25452 0.0
H491 H 0.15609 0.76399 0.12781 0.0
H492 H 0.13753 0.79705 0.16986 0.0
H493 H 0.14548 0.75201 0.19443 0.0
H494 H 0.06509 0.68671 0.24632 0.0
H495 H 0.06185 0.69559 0.34193 0.0
H496 H 0.58386 0.82696 0.15192 0.0
H497 H 0.57435 0.83098 0.24646 0.0
H498 H 0.56553 0.71237 0.2535 0.0
H499 H 0.57599 0.7081 0.1592 0.0
H500 H 0.5083 0.79976 0.28551 0.0
H501 H 0.63151 0.74496 0.38638 0.0
H502 H 0.63116 0.7615 0.31951 0.0
H503 H 0.61022 0.71655 0.33257 0.0
C504 C 0.58121 0.80177 0.17399 0.0
C505 C 0.58058 0.76719 0.1483 0.0
C506 C 0.57548 0.80412 0.22781 0.0
C507 C 0.56935 0.77199 0.25671 0.0
C508 C 0.57069 0.73746 0.23188 0.0
H509 H 0.50539 0.72421 0.57168 0.0
H510 H 0.51535 0.72062 0.4773 0.0
C511 C 0.5764 0.73507 0.17804 0.0
C512 C 0.55763 0.77444 0.31116 0.0
H513 H 0.58046 0.75222 0.43842 0.0
C514 C 0.52414 0.78962 0.3191 0.0
C515 C 0.57831 0.76086 0.35447 0.0
C516 C 0.61497 0.74532 0.34809 0.0
C517 C 0.51043 0.7911 0.36947 0.0
C518 C 0.5311 0.7775 0.41279 0.0
C519 C 0.56462 0.76238 0.40484 0.0
C520 C 0.51921 0.77964 0.46721 0.0
C521 C 0.47369 0.80652 0.37575 0.0
C522 C 0.51706 0.81401 0.49209 0.0
C523 C 0.51099 0.81615 0.54584 0.0
C524 C 0.50734 0.78394 0.57549 0.0
C525 C 0.5076 0.74947 0.54973 0.0
C526 C 0.51362 0.74737 0.49599 0.0
H527 H 0.4571 0.80661 0.33746 0.0
H528 H 0.45758 0.79043 0.40452 0.0
H529 H 0.47832 0.83538 0.3909 0.0
H530 H 0.52181 0.83922 0.47059 0.0
H531 H 0.51066 0.84305 0.56468 0.0
H532 H 0.44968 0.3075 0.38406 0.0
H533 H 0.44092 0.31086 0.47904 0.0
H534 H 0.55871 0.32652 0.51122 0.0
H535 H 0.5675 0.32372 0.41652 0.0
H536 H 0.46691 0.2592 0.54205 0.0
H537 H 0.52318 0.39627 0.61885 0.0
H538 H 0.51116 0.38705 0.54935 0.0
H539 H 0.55507 0.37577 0.57846 0.0
C540 C 0.47357 0.31254 0.41153 0.0
C541 C 0.50927 0.31503 0.3934 0.0
C542 C 0.46854 0.31465 0.46553 0.0
C543 C 0.49913 0.31928 0.50196 0.0
C544 C 0.5347 0.3239 0.48367 0.0
H545 H 0.57135 0.26095 0.80754 0.0
H546 H 0.56067 0.27728 0.71479 0.0
C547 C 0.53973 0.32207 0.42965 0.0
C548 C 0.49462 0.31303 0.55854 0.0
H549 H 0.52373 0.34647 0.68172 0.0
C550 C 0.47847 0.27863 0.57272 0.0
C551 C 0.50978 0.33845 0.59824 0.0
C552 C 0.52541 0.37659 0.5854 0.0
C553 C 0.47928 0.26802 0.62555 0.0
C554 C 0.49653 0.29255 0.66474 0.0
C555 C 0.51091 0.32768 0.65106 0.0
C556 C 0.50214 0.28129 0.71976 0.0
C557 C 0.46358 0.22999 0.63895 0.0
C558 C 0.47253 0.27773 0.75233 0.0
C559 C 0.47851 0.26848 0.80515 0.0
C560 C 0.51422 0.26277 0.82592 0.0
C561 C 0.54364 0.26546 0.79259 0.0
C562 C 0.53762 0.27478 0.73985 0.0
H563 H 0.4544 0.21296 0.60306 0.0
H564 H 0.48446 0.21553 0.66263 0.0
H565 H 0.4396 0.23234 0.66336 0.0
H566 H 0.44503 0.28294 0.7372 0.0
H567 H 0.45545 0.26727 0.8302 0.0
loop_
_geom_bond_atom_site_label_1
_geom_bond_atom_site_label_2
_geom_bond_distance
_geom_bond_site_symmetry_2
_ccdc_geom_bond_type
C0 O16 1.251 . S
C0 O18 1.254 . S
N1 C2 1.333 . S
N1 C6 1.307 1_455 S
N1 Zn7 2.020 . S
C2 N1 1.333 . S
C2 C3 1.379 . S
C2 H20 0.952 . S
C3 C2 1.379 . S
C3 C4 1.390 . S
C3 H30 0.949 . S
C4 C3 1.390 . S
C4 C5 1.357 1_455 S
C5 C4 1.357 1_655 S
C5 C6 1.370 . S
C5 H31 0.950 . S
C6 N1 1.307 1_655 S
C6 C5 1.370 . S
C6 H24 0.948 . S
Zn7 N1 2.020 . S
Zn7 O16 2.039 . S
Zn7 O22 2.034 . S
Zn7 O26 2.025 1_455 S
Zn7 O28 2.023 . S
C8 O27 1.246 . S
C8 O28 1.251 . S
N9 C10 1.307 . S
N9 C11 1.333 1_455 S
N9 Zn15 2.020 . S
C10 N9 1.307 . S
C10 C14 1.370 . S
C10 H21 0.948 . S
C11 N9 1.333 1_655 S
C11 C12 1.379 . S
C11 H19 0.952 . S
C12 C11 1.379 . S
C12 C13 1.390 1_655 S
C12 H32 0.949 . S
C13 C12 1.390 1_455 S
C13 C14 1.357 . S
C14 C10 1.370 . S
C14 C13 1.357 . S
C14 H33 0.950 . S
Zn15 N9 2.020 . S
Zn15 O18 2.025 . S
Zn15 O23 2.024 . S
Zn15 O25 2.039 1_455 S
Zn15 O27 2.034 . S
O16 C0 1.251 . S
O16 Zn7 2.039 . S
C17 O22 1.246 . S
C17 O23 1.249 . S
O18 C0 1.254 . S
O18 Zn15 2.025 . S
H19 C11 0.952 . S
H20 C2 0.952 . S
H21 C10 0.948 . S
O22 Zn7 2.034 . S
O22 C17 1.246 . S
O23 Zn15 2.024 . S
O23 C17 1.249 . S
H24 C6 0.948 . S
O25 Zn15 2.039 1_655 S
O25 C29 1.251 . S
O26 Zn7 2.025 1_655 S
O26 C29 1.254 . S
O27 C8 1.246 . S
O27 Zn15 2.034 . S
O28 Zn7 2.023 . S
O28 C8 1.251 . S
C29 O25 1.251 . S
C29 O26 1.254 . S
H30 C3 0.949 . S
H31 C5 0.950 . S
H32 C12 0.949 . S
H33 C14 0.950 . S
C34 O50 1.251 . S
C34 O52 1.254 . S
N35 C36 1.333 1_655 S
N35 C40 1.307 . S
N35 Zn41 2.020 . S
C36 N35 1.333 1_455 S
C36 C37 1.379 . S
C36 H54 0.952 . S
C37 C36 1.379 . S
C37 C38 1.390 . S
C37 H64 0.949 . S
C38 C37 1.390 . S
C38 C39 1.357 1_455 S
C39 C38 1.357 1_655 S
C39 C40 1.370 . S
C39 H65 0.950 . S
C40 N35 1.307 . S
C40 C39 1.370 . S
C40 H58 0.948 . S
Zn41 N35 2.020 . S
Zn41 O50 2.032 1_655 S
Zn41 O56 2.034 1_655 S
Zn41 O60 2.032 . S
Zn41 O62 2.024 . S
C42 O61 1.245 . S
C42 O62 1.249 1_455 S
N43 C44 1.307 . S
N43 C45 1.333 1_455 S
N43 Zn49 2.020 . S
C44 N43 1.307 . S
C44 C48 1.370 . S
C44 H55 0.948 . S
C45 N43 1.333 1_655 S
C45 C46 1.379 . S
C45 H53 0.952 . S
C46 C45 1.379 . S
C46 C47 1.390 1_655 S
C46 H66 0.949 . S
C47 C46 1.390 1_455 S
C47 C48 1.357 . S
C48 C44 1.370 . S
C48 C47 1.357 . S
C48 H67 0.950 . S
Zn49 N43 2.020 . S
Zn49 O52 2.025 . S
Zn49 O57 2.024 . S
Zn49 O59 2.039 1_455 S
Zn49 O61 2.034 . S
O50 C34 1.251 . S
O50 Zn41 2.032 1_455 S
C51 O56 1.246 . S
C51 O57 1.249 . S
O52 C34 1.254 . S
O52 Zn49 2.025 . S
H53 C45 0.952 . S
H54 C36 0.952 . S
H55 C44 0.948 . S
O56 Zn41 2.034 1_455 S
O56 C51 1.246 . S
O57 Zn49 2.024 . S
O57 C51 1.249 . S
H58 C40 0.948 . S
O59 Zn49 2.039 1_655 S
O59 C63 1.251 . S
O60 Zn41 2.032 . S
O60 C63 1.254 . S
O61 C42 1.245 . S
O61 Zn49 2.034 . S
O62 Zn41 2.024 . S
O62 C42 1.249 1_655 S
C63 O59 1.251 . S
C63 O60 1.254 . S
H64 C37 0.949 . S
H65 C39 0.950 . S
H66 C46 0.949 . S
H67 C48 0.950 . S
C68 O84 1.251 . S
C68 O86 1.254 . S
N69 C70 1.333 . S
N69 C74 1.307 . S
N69 Zn75 2.020 . S
C70 N69 1.333 . S
C70 C71 1.379 . S
C70 H88 0.952 . S
C71 C70 1.379 . S
C71 C72 1.390 . S
C71 H98 0.949 . S
C72 C71 1.390 . S
C72 C73 1.357 . S
C73 C72 1.357 . S
C73 C74 1.370 . S
C73 H99 0.950 . S
C74 N69 1.307 . S
C74 C73 1.370 . S
C74 H92 0.948 . S
Zn75 N69 2.020 . S
Zn75 O84 2.039 . S
Zn75 O90 2.034 . S
Zn75 O94 2.025 . S
Zn75 O96 2.024 . S
C76 O95 1.246 . S
C76 O96 1.249 . S
N77 C78 1.307 . S
N77 C79 1.333 . S
N77 Zn83 2.020 1_554 S
C78 N77 1.307 . S
C78 C82 1.370 . S
C78 H89 0.948 . S
C79 N77 1.333 . S
C79 C80 1.379 . S
C79 H87 0.952 . S
C80 C79 1.379 . S
C80 C81 1.390 . S
C80 H100 0.949 . S
C81 C80 1.390 . S
C81 C82 1.357 . S
C82 C78 1.370 . S
C82 C81 1.357 . S
C82 H101 0.950 . S
Zn83 N77 2.020 1_556 S
Zn83 O86 2.025 . S
Zn83 O91 2.024 . S
Zn83 O93 2.039 . S
Zn83 O95 2.034 . S
O84 C68 1.251 . S
O84 Zn75 2.039 . S
C85 O90 1.246 . S
C85 O91 1.249 . S
O86 C68 1.254 . S
O86 Zn83 2.025 . S
H87 C79 0.952 . S
H88 C70 0.952 . S
H89 C78 0.948 . S
O90 Zn75 2.034 . S
O90 C85 1.246 . S
O91 Zn83 2.024 . S
O91 C85 1.249 . S
H92 C74 0.948 . S
O93 Zn83 2.039 . S
O93 C97 1.251 . S
O94 Zn75 2.025 . S
O94 C97 1.254 . S
O95 C76 1.246 . S
O95 Zn83 2.034 . S
O96 Zn75 2.024 . S
O96 C76 1.249 . S
C97 O93 1.251 . S
C97 O94 1.254 . S
H98 C71 0.949 . S
H99 C73 0.950 . S
H100 C80 0.949 . S
H101 C82 0.950 . S
C102 O118 1.251 . S
C102 O120 1.254 . S
N103 C104 1.333 . S
N103 C108 1.307 . S
N103 Zn109 2.020 1_556 S
C104 N103 1.333 . S
C104 C105 1.379 . S
C104 H122 0.952 . S
C105 C104 1.379 . S
C105 C106 1.390 . S
C105 H132 0.949 . S
C106 C105 1.390 . S
C106 C107 1.357 . S
C107 C106 1.357 . S
C107 C108 1.370 . S
C107 H133 0.950 . S
C108 N103 1.307 . S
C108 C107 1.370 . S
C108 H126 0.948 . S
Zn109 N103 2.020 1_554 S
Zn109 O118 2.039 . S
Zn109 O124 2.034 . S
Zn109 O128 2.025 . S
Zn109 O130 2.024 . S
C110 O129 1.246 . S
C110 O130 1.249 . S
N111 C112 1.307 . S
N111 C113 1.333 . S
N111 Zn117 2.020 . S
C112 N111 1.307 . S
C112 C116 1.370 . S
C112 H123 0.948 . S
C113 N111 1.333 . S
C113 C114 1.379 . S
C113 H121 0.952 . S
C114 C113 1.379 . S
C114 C115 1.390 . S
C114 H134 0.949 . S
C115 C114 1.390 . S
C115 C116 1.357 . S
C116 C112 1.370 . S
C116 C115 1.357 . S
C116 H135 0.950 . S
Zn117 N111 2.020 . S
Zn117 O120 2.025 . S
Zn117 O125 2.024 . S
Zn117 O127 2.039 . S
Zn117 O129 2.034 . S
O118 C102 1.251 . S
O118 Zn109 2.039 . S
C119 O124 1.246 . S
C119 O125 1.249 . S
O120 C102 1.254 . S
O120 Zn117 2.025 . S
H121 C113 0.952 . S
H122 C104 0.952 . S
H123 C112 0.948 . S
O124 Zn109 2.034 . S
O124 C119 1.246 . S
O125 Zn117 2.024 . S
O125 C119 1.249 . S
H126 C108 0.948 . S
O127 Zn117 2.039 . S
O127 C131 1.251 . S
O128 Zn109 2.025 . S
O128 C131 1.254 . S
O129 C110 1.246 . S
O129 Zn117 2.034 . S
O130 Zn109 2.024 . S
O130 C110 1.249 . S
C131 O127 1.251 . S
C131 O128 1.254 . S
H132 C105 0.949 . S
H133 C107 0.950 . S
H134 C114 0.949 . S
H135 C116 0.950 . S
H136 C144 0.929 . S
H137 C146 0.930 . S
H138 C148 0.930 . S
H139 C151 0.929 . S
H140 C154 0.930 . S
H141 C156 0.960 . S
H142 C156 0.960 . S
H143 C156 0.960 . S
C144 H136 0.929 . S
C144 C145 1.377 . S
C144 C146 1.384 . S
C145 C144 1.377 . S
C145 C151 1.390 1_455 S
C146 H137 0.930 . S
C146 C144 1.384 . S
C146 C147 1.372 . S
C147 C146 1.372 . S
C147 C148 1.400 1_455 S
C147 C152 1.490 . S
C148 H138 0.930 . S
C148 C147 1.400 1_655 S
C148 C151 1.386 . S
H149 C165 0.930 . S
H150 C166 0.931 . S
C151 H139 0.929 . S
C151 C145 1.390 1_655 S
C151 C148 1.386 . S
C152 C147 1.490 . S
C152 C154 1.395 . S
C152 C155 1.403 1_455 S
H153 C159 0.930 . S
C154 H140 0.930 . S
C154 C152 1.395 . S
C154 C157 1.403 . S
C155 C152 1.403 1_655 S
C155 C156 1.524 . S
C155 C159 1.400 . S
C156 H141 0.960 . S
C156 H142 0.960 . S
C156 H143 0.960 . S
C156 C155 1.524 . S
C157 C154 1.403 . S
C157 C158 1.392 . S
C157 C161 1.495 . S
C158 C157 1.392 . S
C158 C159 1.385 1_455 S
C158 C160 1.478 . S
C159 H153 0.930 . S
C159 C155 1.400 . S
C159 C158 1.385 1_655 S
C160 C158 1.478 . S
C160 C162 1.381 . S
C160 C166 1.383 1_455 S
C161 C157 1.495 . S
C161 H167 0.959 . S
C161 H168 0.961 . S
C161 H169 0.960 . S
C162 C160 1.381 . S
C162 C163 1.394 . S
C162 H170 0.930 . S
C163 C162 1.394 . S
C163 C164 1.383 . S
C163 H171 0.929 . S
C164 C163 1.383 . S
C164 C165 1.377 1_455 S
C165 H149 0.930 . S
C165 C164 1.377 1_655 S
C165 C166 1.379 . S
C166 H150 0.931 . S
C166 C160 1.383 1_655 S
C166 C165 1.379 . S
H167 C161 0.959 . S
H168 C161 0.961 . S
H169 C161 0.960 . S
H170 C162 0.930 . S
H171 C163 0.929 . S
H172 C180 0.929 . S
H173 C182 0.930 . S
H174 C184 0.930 . S
H175 C187 0.929 . S
H176 C190 0.930 . S
H177 C192 0.960 . S
H178 C192 0.960 . S
H179 C192 0.960 . S
C180 H172 0.929 . S
C180 C181 1.377 . S
C180 C182 1.384 . S
C181 C180 1.377 . S
C181 C187 1.390 . S
C182 H173 0.930 . S
C182 C180 1.384 . S
C182 C183 1.372 . S
C183 C182 1.372 . S
C183 C184 1.400 . S
C183 C188 1.490 . S
C184 H174 0.930 . S
C184 C183 1.400 . S
C184 C187 1.386 . S
H185 C201 0.930 . S
H186 C202 0.931 . S
C187 H175 0.929 . S
C187 C181 1.390 . S
C187 C184 1.386 . S
C188 C183 1.490 . S
C188 C190 1.395 . S
C188 C191 1.403 . S
H189 C195 0.930 . S
C190 H176 0.930 . S
C190 C188 1.395 . S
C190 C193 1.403 . S
C191 C188 1.403 . S
C191 C192 1.524 . S
C191 C195 1.400 . S
C192 H177 0.960 . S
C192 H178 0.960 . S
C192 H179 0.960 . S
C192 C191 1.524 . S
C193 C190 1.403 . S
C193 C194 1.392 . S
C193 C197 1.495 . S
C194 C193 1.392 . S
C194 C195 1.385 . S
C194 C196 1.478 . S
C195 H189 0.930 . S
C195 C191 1.400 . S
C195 C194 1.385 . S
C196 C194 1.478 . S
C196 C198 1.381 . S
C196 C202 1.383 . S
C197 C193 1.495 . S
C197 H203 0.959 . S
C197 H204 0.961 . S
C197 H205 0.960 . S
C198 C196 1.381 . S
C198 C199 1.394 . S
C198 H206 0.930 . S
C199 C198 1.394 . S
C199 C200 1.383 . S
C199 H207 0.929 . S
C200 C199 1.383 . S
C200 C201 1.377 . S
C201 H185 0.930 . S
C201 C200 1.377 . S
C201 C202 1.379 . S
C202 H186 0.931 . S
C202 C196 1.383 . S
C202 C201 1.379 . S
H203 C197 0.959 . S
H204 C197 0.961 . S
H205 C197 0.960 . S
H206 C198 0.930 . S
H207 C199 0.929 . S
H208 C216 0.929 . S
H209 C218 0.930 . S
H210 C220 0.930 . S
H211 C223 0.929 . S
H212 C226 0.930 . S
H213 C228 0.960 . S
H214 C228 0.960 . S
H215 C228 0.960 . S
C216 H208 0.929 . S
C216 C217 1.377 . S
C216 C218 1.384 . S
C217 C216 1.377 . S
C217 C223 1.390 . S
C218 H209 0.930 . S
C218 C216 1.384 . S
C218 C219 1.372 . S
C219 C218 1.372 . S
C219 C220 1.400 . S
C219 C224 1.490 . S
C220 H210 0.930 . S
C220 C219 1.400 . S
C220 C223 1.386 . S
H221 C237 0.930 . S
H222 C238 0.931 . S
C223 H211 0.929 . S
C223 C217 1.390 . S
C223 C220 1.386 . S
C224 C219 1.490 . S
C224 C226 1.395 . S
C224 C227 1.403 1_554 S
H225 C231 0.930 . S
C226 H212 0.930 . S
C226 C224 1.395 . S
C226 C229 1.403 . S
C227 C224 1.403 1_556 S
C227 C228 1.524 . S
C227 C231 1.400 . S
C228 H213 0.960 . S
C228 H214 0.960 . S
C228 H215 0.960 . S
C228 C227 1.524 . S
C229 C226 1.403 . S
C229 C230 1.392 1_554 S
C229 C233 1.495 . S
C230 C229 1.392 1_556 S
C230 C231 1.385 . S
C230 C232 1.478 . S
C231 H225 0.930 . S
C231 C227 1.400 . S
C231 C230 1.385 . S
C232 C230 1.478 . S
C232 C234 1.381 . S
C232 C238 1.383 . S
C233 C229 1.495 . S
C233 H239 0.959 . S
C233 H240 0.961 . S
C233 H241 0.960 . S
C234 C232 1.381 . S
C234 C235 1.394 . S
C234 H242 0.930 . S
C235 C234 1.394 . S
C235 C236 1.383 . S
C235 H243 0.929 . S
C236 C235 1.383 . S
C236 C237 1.377 . S
C237 H221 0.930 . S
C237 C236 1.377 . S
C237 C238 1.379 . S
C238 H222 0.931 . S
C238 C232 1.383 . S
C238 C237 1.379 . S
H239 C233 0.959 . S
H240 C233 0.961 . S
H241 C233 0.960 . S
H242 C234 0.930 . S
H243 C235 0.929 . S
H244 C252 0.929 . S
H245 C254 0.930 . S
H246 C256 0.930 . S
H247 C259 0.929 . S
H248 C262 0.930 . S
H249 C264 0.960 . S
H250 C264 0.960 . S
H251 C264 0.960 . S
C252 H244 0.929 . S
C252 C253 1.377 . S
C252 C254 1.384 . S
C253 C252 1.377 . S
C253 C259 1.390 . S
C254 H245 0.930 . S
C254 C252 1.384 . S
C254 C255 1.372 . S
C255 C254 1.372 . S
C255 C256 1.400 . S
C255 C260 1.490 . S
C256 H246 0.930 . S
C256 C255 1.400 . S
C256 C259 1.386 . S
H257 C273 0.930 . S
H258 C274 0.931 . S
C259 H247 0.929 . S
C259 C253 1.390 . S
C259 C256 1.386 . S
C260 C255 1.490 . S
C260 C262 1.395 . S
C260 C263 1.403 . S
H261 C267 0.930 . S
C262 H248 0.930 . S
C262 C260 1.395 . S
C262 C265 1.403 . S
C263 C260 1.403 . S
C263 C264 1.524 . S
C263 C267 1.400 . S
C264 H249 0.960 . S
C264 H250 0.960 . S
C264 H251 0.960 . S
C264 C263 1.524 . S
C265 C262 1.403 . S
C265 C266 1.392 . S
C265 C269 1.495 . S
C266 C265 1.392 . S
C266 C267 1.385 . S
C266 C268 1.478 . S
C267 H261 0.930 . S
C267 C263 1.400 . S
C267 C266 1.385 . S
C268 C266 1.478 . S
C268 C270 1.381 . S
C268 C274 1.383 . S
C269 C265 1.495 . S
C269 H275 0.959 . S
C269 H276 0.961 . S
C269 H277 0.960 . S
C270 C268 1.381 . S
C270 C271 1.394 . S
C270 H278 0.930 . S
C271 C270 1.394 . S
C271 C272 1.383 . S
C271 H279 0.929 . S
C272 C271 1.383 . S
C272 C273 1.377 . S
C273 H257 0.930 . S
C273 C272 1.377 . S
C273 C274 1.379 . S
C274 H258 0.931 . S
C274 C268 1.383 . S
C274 C273 1.379 . S
H275 C269 0.959 . S
H276 C269 0.961 . S
H277 C269 0.960 . S
H278 C270 0.930 . S
H279 C271 0.929 . S
H280 C288 0.929 . S
H281 C290 0.930 . S
H282 C292 0.930 . S
H283 C295 0.929 . S
H284 C298 0.930 . S
H285 C300 0.960 . S
H286 C300 0.960 . S
H287 C300 0.960 . S
C288 H280 0.929 . S
C288 C289 1.377 . S
C288 C290 1.384 . S
C289 C288 1.377 . S
C289 C295 1.390 . S
C290 H281 0.930 . S
C290 C288 1.384 . S
C290 C291 1.372 . S
C291 C290 1.372 . S
C291 C292 1.400 . S
C291 C296 1.490 . S
C292 H282 0.930 . S
C292 C291 1.400 . S
C292 C295 1.386 . S
H293 C309 0.930 . S
H294 C310 0.931 . S
C295 H283 0.929 . S
C295 C289 1.390 . S
C295 C292 1.386 . S
C296 C291 1.490 . S
C296 C298 1.395 . S
C296 C299 1.403 . S
H297 C303 0.930 . S
C298 H284 0.930 . S
C298 C296 1.395 . S
C298 C301 1.403 . S
C299 C296 1.403 . S
C299 C300 1.524 . S
C299 C303 1.400 . S
C300 H285 0.960 . S
C300 H286 0.960 . S
C300 H287 0.960 . S
C300 C299 1.524 . S
C301 C298 1.403 . S
C301 C302 1.392 . S
C301 C305 1.495 . S
C302 C301 1.392 . S
C302 C303 1.385 . S
C302 C304 1.478 . S
C303 H297 0.930 . S
C303 C299 1.400 . S
C303 C302 1.385 . S
C304 C302 1.478 . S
C304 C306 1.381 . S
C304 C310 1.383 . S
C305 C301 1.495 . S
C305 H311 0.959 . S
C305 H312 0.961 . S
C305 H313 0.960 . S
C306 C304 1.381 . S
C306 C307 1.394 . S
C306 H314 0.930 . S
C307 C306 1.394 . S
C307 C308 1.383 . S
C307 H315 0.929 . S
C308 C307 1.383 . S
C308 C309 1.377 . S
C309 H293 0.930 . S
C309 C308 1.377 . S
C309 C310 1.379 . S
C310 H294 0.931 . S
C310 C304 1.383 . S
C310 C309 1.379 . S
H311 C305 0.959 . S
H312 C305 0.961 . S
H313 C305 0.960 . S
H314 C306 0.930 . S
H315 C307 0.929 . S
H316 C324 0.929 . S
H317 C326 0.930 . S
H318 C328 0.930 . S
H319 C331 0.929 . S
H320 C334 0.930 . S
H321 C336 0.960 . S
H322 C336 0.960 . S
H323 C336 0.960 . S
C324 H316 0.929 . S
C324 C325 1.377 . S
C324 C326 1.384 . S
C325 C324 1.377 . S
C325 C331 1.390 . S
C326 H317 0.930 . S
C326 C324 1.384 . S
C326 C327 1.372 . S
C327 C326 1.372 . S
C327 C328 1.400 . S
C327 C332 1.490 . S
C328 H318 0.930 . S
C328 C327 1.400 . S
C328 C331 1.386 . S
H329 C345 0.930 . S
H330 C346 0.931 . S
C331 H319 0.929 . S
C331 C325 1.390 . S
C331 C328 1.386 . S
C332 C327 1.490 . S
C332 C334 1.395 . S
C332 C335 1.403 . S
H333 C339 0.930 . S
C334 H320 0.930 . S
C334 C332 1.395 . S
C334 C337 1.403 . S
C335 C332 1.403 . S
C335 C336 1.524 . S
C335 C339 1.400 . S
C336 H321 0.960 . S
C336 H322 0.960 . S
C336 H323 0.960 . S
C336 C335 1.524 . S
C337 C334 1.403 . S
C337 C338 1.392 . S
C337 C341 1.495 . S
C338 C337 1.392 . S
C338 C339 1.385 . S
C338 C340 1.478 . S
C339 H333 0.930 . S
C339 C335 1.400 . S
C339 C338 1.385 . S
C340 C338 1.478 . S
C340 C342 1.381 . S
C340 C346 1.383 . S
C341 C337 1.495 . S
C341 H347 0.959 . S
C341 H348 0.961 . S
C341 H349 0.960 . S
C342 C340 1.381 . S
C342 C343 1.394 . S
C342 H350 0.930 . S
C343 C342 1.394 . S
C343 C344 1.383 . S
C343 H351 0.929 . S
C344 C343 1.383 . S
C344 C345 1.377 . S
C345 H329 0.930 . S
C345 C344 1.377 . S
C345 C346 1.379 . S
C346 H330 0.931 . S
C346 C340 1.383 . S
C346 C345 1.379 . S
H347 C341 0.959 . S
H348 C341 0.961 . S
H349 C341 0.960 . S
H350 C342 0.930 . S
H351 C343 0.929 . S
H352 C360 0.929 . S
H353 C362 0.930 . S
H354 C364 0.930 . S
H355 C367 0.929 . S
H356 C370 0.930 . S
H357 C372 0.960 . S
H358 C372 0.960 . S
H359 C372 0.960 1_556 S
C360 H352 0.929 . S
C360 C361 1.377 . S
C360 C362 1.384 . S
C361 C360 1.377 . S
C361 C367 1.390 . S
C362 H353 0.930 . S
C362 C360 1.384 . S
C362 C363 1.372 . S
C363 C362 1.372 . S
C363 C364 1.400 . S
C363 C368 1.490 . S
C364 H354 0.930 . S
C364 C363 1.400 . S
C364 C367 1.386 . S
H365 C381 0.930 . S
H366 C382 0.931 . S
C367 H355 0.929 . S
C367 C361 1.390 . S
C367 C364 1.386 . S
C368 C363 1.490 . S
C368 C370 1.395 . S
C368 C371 1.403 1_556 S
H369 C375 0.930 . S
C370 H356 0.930 . S
C370 C368 1.395 . S
C370 C373 1.403 1_565 S
C371 C368 1.403 1_554 S
C371 C372 1.524 . S
C371 C375 1.400 1_565 S
C372 H357 0.960 . S
C372 H358 0.960 . S
C372 H359 0.960 1_554 S
C372 C371 1.524 . S
C373 C370 1.403 1_545 S
C373 C374 1.392 1_556 S
C373 C377 1.495 . S
C374 C373 1.392 1_554 S
C374 C375 1.385 . S
C374 C376 1.478 . S
C375 H369 0.930 . S
C375 C371 1.400 1_545 S
C375 C374 1.385 . S
C376 C374 1.478 . S
C376 C378 1.381 . S
C376 C382 1.383 . S
C377 C373 1.495 . S
C377 H383 0.959 . S
C377 H384 0.961 . S
C377 H385 0.960 1_556 S
C378 C376 1.381 . S
C378 C379 1.394 . S
C378 H386 0.930 . S
C379 C378 1.394 . S
C379 C380 1.383 . S
C379 H387 0.929 . S
C380 C379 1.383 . S
C380 C381 1.377 . S
C381 H365 0.930 . S
C381 C380 1.377 . S
C381 C382 1.379 . S
C382 H366 0.931 . S
C382 C376 1.383 . S
C382 C381 1.379 . S
H383 C377 0.959 . S
H384 C377 0.961 . S
H385 C377 0.960 1_554 S
H386 C378 0.930 . S
H387 C379 0.929 . S
H388 C396 0.929 . S
H389 C398 0.930 . S
H390 C400 0.930 . S
H391 C403 0.929 . S
H392 C406 0.930 . S
H393 C408 0.960 . S
H394 C408 0.960 . S
H395 C408 0.960 1_455 S
C396 H388 0.929 . S
C396 C397 1.377 1_655 S
C396 C398 1.384 . S
C397 C396 1.377 1_455 S
C397 C403 1.390 . S
C398 H389 0.930 . S
C398 C396 1.384 . S
C398 C399 1.372 1_655 S
C399 C398 1.372 1_455 S
C399 C400 1.400 . S
C399 C404 1.490 . S
C400 H390 0.930 . S
C400 C399 1.400 . S
C400 C403 1.386 . S
H401 C417 0.930 . S
H402 C418 0.931 . S
C403 H391 0.929 . S
C403 C397 1.390 . S
C403 C400 1.386 . S
C404 C399 1.490 . S
C404 C406 1.395 . S
C404 C407 1.403 1_455 S
H405 C411 0.930 1_655 S
C406 H392 0.930 . S
C406 C404 1.395 . S
C406 C409 1.403 1_565 S
C407 C404 1.403 1_655 S
C407 C408 1.524 . S
C407 C411 1.400 1_665 S
C408 H393 0.960 . S
C408 H394 0.960 . S
C408 H395 0.960 1_655 S
C408 C407 1.524 . S
C409 C406 1.403 1_545 S
C409 C410 1.392 . S
C409 C413 1.495 . S
C410 C409 1.392 . S
C410 C411 1.385 . S
C410 C412 1.478 . S
C411 H405 0.930 1_455 S
C411 C407 1.400 1_445 S
C411 C410 1.385 . S
C412 C410 1.478 . S
C412 C414 1.381 1_455 S
C412 C418 1.383 . S
C413 C409 1.495 . S
C413 H419 0.959 . S
C413 H420 0.961 . S
C413 H421 0.960 1_455 S
C414 C412 1.381 1_655 S
C414 C415 1.394 . S
C414 H422 0.930 . S
C415 C414 1.394 . S
C415 C416 1.383 1_655 S
C415 H423 0.929 . S
C416 C415 1.383 1_455 S
C416 C417 1.377 . S
C417 H401 0.930 . S
C417 C416 1.377 . S
C417 C418 1.379 . S
C418 H402 0.931 . S
C418 C412 1.383 . S
C418 C417 1.379 . S
H419 C413 0.959 . S
H420 C413 0.961 . S
H421 C413 0.960 1_655 S
H422 C414 0.930 . S
H423 C415 0.929 . S
H424 C432 0.929 . S
H425 C434 0.930 1_556 S
H426 C436 0.930 . S
H427 C439 0.929 . S
H428 C442 0.930 . S
H429 C444 0.960 . S
H430 C444 0.960 . S
H431 C444 0.960 . S
C432 H424 0.929 . S
C432 C433 1.377 1_655 S
C432 C434 1.384 . S
C433 C432 1.377 1_455 S
C433 C439 1.390 . S
C434 H425 0.930 1_554 S
C434 C432 1.384 . S
C434 C435 1.372 1_654 S
C435 C434 1.372 1_456 S
C435 C436 1.400 1_556 S
C435 C440 1.490 . S
C436 H426 0.930 . S
C436 C435 1.400 1_554 S
C436 C439 1.386 . S
H437 C453 0.930 . S
H438 C454 0.931 . S
C439 H427 0.929 . S
C439 C433 1.390 . S
C439 C436 1.386 . S
C440 C435 1.490 . S
C440 C442 1.395 1_455 S
C440 C443 1.403 . S
H441 C447 0.930 . S
C442 H428 0.930 . S
C442 C440 1.395 1_655 S
C442 C445 1.403 . S
C443 C440 1.403 . S
C443 C444 1.524 . S
C443 C447 1.400 . S
C444 H429 0.960 . S
C444 H430 0.960 . S
C444 H431 0.960 . S
C444 C443 1.524 . S
C445 C442 1.403 . S
C445 C446 1.392 . S
C445 C449 1.495 . S
C446 C445 1.392 . S
C446 C447 1.385 1_655 S
C446 C448 1.478 . S
C447 H441 0.930 . S
C447 C443 1.400 . S
C447 C446 1.385 1_455 S
C448 C446 1.478 . S
C448 C450 1.381 . S
C448 C454 1.383 1_655 S
C449 C445 1.495 . S
C449 H455 0.959 . S
C449 H456 0.961 . S
C449 H457 0.960 . S
C450 C448 1.381 . S
C450 C451 1.394 . S
C450 H458 0.930 . S
C451 C450 1.394 . S
C451 C452 1.383 1_655 S
C451 H459 0.929 . S
C452 C451 1.383 1_455 S
C452 C453 1.377 . S
C453 H437 0.930 . S
C453 C452 1.377 . S
C453 C454 1.379 . S
C454 H438 0.931 . S
C454 C448 1.383 1_455 S
C454 C453 1.379 . S
H455 C449 0.959 . S
H456 C449 0.961 . S
H457 C449 0.960 . S
H458 C450 0.930 . S
H459 C451 0.929 . S
H460 C468 0.929 . S
H461 C470 0.930 . S
H462 C472 0.936 . S
H463 C475 0.929 . S
H464 C478 0.930 . S
H465 C480 0.960 . S
H466 C480 0.960 . S
H467 C480 0.960 . S
C468 H460 0.929 . S
C468 C469 1.377 . S
C468 C470 1.384 . S
C469 C468 1.377 . S
C469 C475 1.390 1_455 S
C470 H461 0.930 . S
C470 C468 1.384 . S
C470 C471 1.372 1_556 S
C471 C470 1.372 1_554 S
C471 C472 1.400 1_454 S
C471 C476 1.490 . S
C472 H462 0.936 . S
C472 C471 1.400 1_656 S
C472 C475 1.386 . S
H473 C489 0.930 . S
H474 C490 0.925 1_655 S
C475 H463 0.929 . S
C475 C469 1.390 1_655 S
C475 C472 1.386 . S
C476 C471 1.490 . S
C476 C478 1.395 . S
C476 C479 1.403 1_455 S
H477 C483 0.930 . S
C478 H464 0.930 . S
C478 C476 1.395 . S
C478 C481 1.403 . S
C479 C476 1.403 1_655 S
C479 C480 1.524 . S
C479 C483 1.400 . S
C480 H465 0.960 . S
C480 H466 0.960 . S
C480 H467 0.960 . S
C480 C479 1.524 . S
C481 C478 1.403 . S
C481 C482 1.392 . S
C481 C485 1.495 . S
C482 C481 1.392 . S
C482 C483 1.385 1_455 S
C482 C484 1.478 . S
C483 H477 0.930 . S
C483 C479 1.400 . S
C483 C482 1.385 1_655 S
C484 C482 1.478 . S
C484 C486 1.381 . S
C484 C490 1.392 . S
C485 C481 1.495 . S
C485 H491 0.959 . S
C485 H492 0.961 . S
C485 H493 0.960 . S
C486 C484 1.381 . S
C486 C487 1.394 . S
C486 H494 0.930 . S
C487 C486 1.394 . S
C487 C488 1.383 . S
C487 H495 0.929 . S
C488 C487 1.383 . S
C488 C489 1.377 1_455 S
C489 H473 0.930 . S
C489 C488 1.377 1_655 S
C489 C490 1.377 1_655 S
C490 H474 0.925 1_455 S
C490 C484 1.392 . S
C490 C489 1.377 1_455 S
H491 C485 0.959 . S
H492 C485 0.961 . S
H493 C485 0.960 . S
H494 C486 0.930 . S
H495 C487 0.929 . S
H496 C504 0.929 . S
H497 C506 0.930 . S
H498 C508 0.930 . S
H499 C511 0.929 . S
H500 C514 0.930 . S
H501 C516 0.960 . S
H502 C516 0.960 . S
H503 C516 0.960 . S
C504 H496 0.929 . S
C504 C505 1.377 . S
C504 C506 1.384 . S
C505 C504 1.377 . S
C505 C511 1.390 . S
C506 H497 0.930 . S
C506 C504 1.384 . S
C506 C507 1.372 . S
C507 C506 1.372 . S
C507 C508 1.400 . S
C507 C512 1.490 . S
C508 H498 0.930 . S
C508 C507 1.400 . S
C508 C511 1.386 . S
H509 C525 0.930 . S
H510 C526 0.931 . S
C511 H499 0.929 . S
C511 C505 1.390 . S
C511 C508 1.386 . S
C512 C507 1.490 . S
C512 C514 1.395 . S
C512 C515 1.403 . S
H513 C519 0.930 . S
C514 H500 0.930 . S
C514 C512 1.395 . S
C514 C517 1.403 . S
C515 C512 1.403 . S
C515 C516 1.524 . S
C515 C519 1.400 . S
C516 H501 0.960 . S
C516 H502 0.960 . S
C516 H503 0.960 . S
C516 C515 1.524 . S
C517 C514 1.403 . S
C517 C518 1.392 . S
C517 C521 1.495 . S
C518 C517 1.392 . S
C518 C519 1.385 . S
C518 C520 1.478 . S
C519 H513 0.930 . S
C519 C515 1.400 . S
C519 C518 1.385 . S
C520 C518 1.478 . S
C520 C522 1.381 . S
C520 C526 1.383 . S
C521 C517 1.495 . S
C521 H527 0.959 . S
C521 H528 0.961 . S
C521 H529 0.960 . S
C522 C520 1.381 . S
C522 C523 1.394 . S
C522 H530 0.930 . S
C523 C522 1.394 . S
C523 C524 1.383 . S
C523 H531 0.929 . S
C524 C523 1.383 . S
C524 C525 1.377 . S
C525 H509 0.930 . S
C525 C524 1.377 . S
C525 C526 1.379 . S
C526 H510 0.931 . S
C526 C520 1.383 . S
C526 C525 1.379 . S
H527 C521 0.959 . S
H528 C521 0.961 . S
H529 C521 0.960 . S
H530 C522 0.930 . S
H531 C523 0.929 . S
H532 C540 0.929 . S
H533 C542 0.930 . S
H534 C544 0.930 . S
H535 C547 0.929 . S
H536 C550 0.930 . S
H537 C552 0.960 . S
H538 C552 0.960 . S
H539 C552 0.960 . S
C540 H532 0.929 . S
C540 C541 1.377 . S
C540 C542 1.384 . S
C541 C540 1.377 . S
C541 C547 1.390 . S
C542 H533 0.930 . S
C542 C540 1.384 . S
C542 C543 1.372 . S
C543 C542 1.372 . S
C543 C544 1.400 . S
C543 C548 1.490 . S
C544 H534 0.930 . S
C544 C543 1.400 . S
C544 C547 1.386 . S
H545 C561 0.930 . S
H546 C562 0.931 . S
C547 H535 0.929 . S
C547 C541 1.390 . S
C547 C544 1.386 . S
C548 C543 1.490 . S
C548 C550 1.395 . S
C548 C551 1.403 . S
H549 C555 0.930 . S
C550 H536 0.930 . S
C550 C548 1.395 . S
C550 C553 1.403 . S
C551 C548 1.403 . S
C551 C552 1.524 . S
C551 C555 1.400 . S
C552 H537 0.960 . S
C552 H538 0.960 . S
C552 H539 0.960 . S
C552 C551 1.524 . S
C553 C550 1.403 . S
C553 C554 1.392 . S
C553 C557 1.495 . S
C554 C553 1.392 . S
C554 C555 1.385 . S
C554 C556 1.478 . S
C555 H549 0.930 . S
C555 C551 1.400 . S
C555 C554 1.385 . S
C556 C554 1.478 . S
C556 C558 1.381 . S
C556 C562 1.383 . S
C557 C553 1.495 . S
C557 H563 0.959 . S
C557 H564 0.961 . S
C557 H565 0.960 . S
C558 C556 1.381 . S
C558 C559 1.394 . S
C558 H566 0.930 . S
C559 C558 1.394 . S
C559 C560 1.383 . S
C559 H567 0.929 . S
C560 C559 1.383 . S
C560 C561 1.377 . S
C561 H545 0.930 . S
C561 C560 1.377 . S
C561 C562 1.379 . S
C562 H546 0.931 . S
C562 C556 1.383 . S
C562 C561 1.379 . S
H563 C557 0.959 . S
H564 C557 0.961 . S
H565 C557 0.960 . S
H566 C558 0.930 . S
H567 C559 0.929 . S
C145 C17 1.954 . S
C164 C42 1.943 . S
C181 C68 2.123 . S
C200 C63 2.105 . S
C217 C119 2.049 . S
C236 C76 2.032 . S
C253 C29 1.884 . S
C272 C102 1.868 . S
C289 C131 2.126 . S
C308 C0 2.136 . S
C325 C97 1.889 . S
C344 C34 1.872 . S
C361 C85 1.954 . S
C380 C110 1.946 . S
C397 C51 2.049 . S
C416 C8 2.031 . S
C433 C4 0.444 . S
C452 C13 0.465 . S
C469 C47 0.446 . S
C488 C38 0.467 . S
C505 C81 0.440 . S
C524 C72 0.439 . S
C541 C115 0.446 . S
C560 C106 0.439 . S
