# Generated by pormake.
# Topology rkf, (6)-cn, num edge types: 1
# Building blocks:
#     Node 0, Type 0, BuildingBlock: PAMTUU_clean_sbu_0, # of connection points: 6
#     Node 1, Type 0, BuildingBlock: PAMTUU_clean_sbu_0, # of connection points: 6
#     Node 2, Type 0, BuildingBlock: PAMTUU_clean_sbu_0, # of connection points: 6
#     Node 3, Type 0, BuildingBlock: PAMTUU_clean_sbu_0, # of connection points: 6
#     Node 4, Type 0, BuildingBlock: PAMTUU_clean_sbu_0, # of connection points: 6
#     Node 5, Type 0, BuildingBlock: PAMTUU_clean_sbu_0, # of connection points: 6
#     Edge 6, Type (0, 0), BuildingBlock: MIFKUJ_clean_linker_0, # of connection points: 2
#     Edge 7, Type (0, 0), BuildingBlock: MIFKUJ_clean_linker_0, # of connection points: 2
#     Edge 8, Type (0, 0), BuildingBlock: MIFKUJ_clean_linker_0, # of connection points: 2
#     Edge 9, Type (0, 0), BuildingBlock: MIFKUJ_clean_linker_0, # of connection points: 2
#     Edge 10, Type (0, 0), BuildingBlock: MIFKUJ_clean_linker_0, # of connection points: 2
#     Edge 11, Type (0, 0), BuildingBlock: MIFKUJ_clean_linker_0, # of connection points: 2
#     Edge 12, Type (0, 0), BuildingBlock: MIFKUJ_clean_linker_0, # of connection points: 2
#     Edge 13, Type (0, 0), BuildingBlock: MIFKUJ_clean_linker_0, # of connection points: 2
#     Edge 14, Type (0, 0), BuildingBlock: MIFKUJ_clean_linker_0, # of connection points: 2
#     Edge 15, Type (0, 0), BuildingBlock: MIFKUJ_clean_linker_0, # of connection points: 2
#     Edge 16, Type (0, 0), BuildingBlock: MIFKUJ_clean_linker_0, # of connection points: 2
#     Edge 17, Type (0, 0), BuildingBlock: MIFKUJ_clean_linker_0, # of connection points: 2
#     Edge 18, Type (0, 0), BuildingBlock: MIFKUJ_clean_linker_0, # of connection points: 2
#     Edge 19, Type (0, 0), BuildingBlock: MIFKUJ_clean_linker_0, # of connection points: 2
#     Edge 20, Type (0, 0), BuildingBlock: MIFKUJ_clean_linker_0, # of connection points: 2
#     Edge 21, Type (0, 0), BuildingBlock: MIFKUJ_clean_linker_0, # of connection points: 2
#     Edge 22, Type (0, 0), BuildingBlock: MIFKUJ_clean_linker_0, # of connection points: 2
#     Edge 23, Type (0, 0), BuildingBlock: MIFKUJ_clean_linker_0, # of connection points: 2
# Relax obj value: 0.612
# Max RMSD: 0.270
# Mean RMSD: 0.270
data_MOF--net-rkf--node1-PAMTUU_clean_sbu_0--edge1-MIFKUJ_clean_linker_0
_symmetry_space_group_name_H-M    P1
_symmetry_Int_Tables_number       1
_symmetry_cell_setting            triclinic
loop_
_symmetry_equiv_pos_as_xyz
'x, y, z'
_cell_length_a     32.444442
_cell_length_b     32.631471
_cell_length_c     58.659373
_cell_angle_alpha  89.221771
_cell_angle_beta   89.890009
_cell_angle_gamma 119.9968
loop_
_atom_site_label
_atom_site_type_symbol
_atom_site_fract_x
_atom_site_fract_y
_atom_site_fract_z
_atom_type_partial_charge
Tb0 Tb 0.1799 0.96467 0.10072 0.0
Tb1 Tb 0.16278 0.05024 0.08945 0.0
C2 C 0.26137 0.05609 0.08216 0.0
C3 C 0.17749 0.86764 0.1324 0.0
C4 C 0.13314 0.80377 0.16898 0.0
C5 C 0.15956 0.7951 0.15268 0.0
C6 C 0.18133 0.82679 0.1343 0.0
C7 C 0.15301 0.87727 0.14928 0.0
C8 C 0.13088 0.84556 0.16733 0.0
C9 C 0.19387 0.89783 0.11187 0.0
O10 O 0.19734 0.008 0.13301 0.0
O11 O 0.1533 0.04372 0.12663 0.0
O12 O 0.09168 0.98727 0.09427 0.0
O13 O 0.11329 0.94335 0.11652 0.0
O14 O 0.17957 0.11931 0.09738 0.0
O15 O 0.13173 0.08218 1.07004 0.0
O16 O 0.16434 0.02302 1.05528 0.0
O17 O 0.14346 0.94783 1.06665 0.0
O18 O 0.23656 0.01119 1.07809 0.0
O19 O 0.24022 0.07721 0.09146 0.0
C20 C 0.17748 0.03246 0.14088 0.0
O21 O 0.15946 0.89296 0.09869 0.0
O22 O 0.22489 0.94237 0.1151 0.0
C23 C 0.08063 0.95017 0.10758 0.0
C24 C 0.1831 0.16404 1.06536 0.0
C25 C 0.23586 0.24447 1.03728 0.0
C26 C 0.20089 0.24206 1.05235 0.0
C27 C 0.17472 0.2021 1.0663 0.0
C28 C 0.21845 0.16651 1.05068 0.0
C29 C 0.24458 0.20637 1.03671 0.0
C30 C 0.15602 0.12253 1.08021 0.0
C31 C 0.14683 0.97799 1.05023 0.0
H32 H 0.16189 0.76315 0.15374 0.0
H33 H 0.19992 0.8188 0.12131 0.0
H34 H 0.1497 0.90866 0.1481 0.0
H35 H 0.11141 0.85343 0.17992 0.0
H36 H 0.19365 0.271 1.0533 0.0
H37 H 0.14788 0.20085 1.07777 0.0
H38 H 0.22553 0.13741 1.04991 0.0
H39 H 0.27066 0.20676 1.02502 0.0
Tb40 Tb 0.19964 0.276 0.41822 0.0
Tb41 Tb 0.22336 0.19576 0.43409 0.0
C42 C 0.30392 0.30408 0.43106 0.0
C43 C 0.1454 0.35055 0.39805 0.0
C44 C 0.08265 0.37351 0.37579 0.0
C45 C 0.08021 0.36696 0.39953 0.0
C46 C 0.11131 0.35568 0.41053 0.0
C47 C 0.14932 0.35887 0.37444 0.0
C48 C 0.11813 0.37022 0.3634 0.0
C49 C 0.17728 0.33861 0.41055 0.0
O50 O 0.2138 0.25149 0.38479 0.0
O51 O 0.20976 0.18221 0.39707 0.0
O52 O 0.14623 0.1681 0.43702 0.0
O53 O 0.14173 0.21019 0.4073 0.0
O54 O 0.26424 0.16274 0.42991 0.0
O55 O 0.2071 0.13608 0.45456 0.0
O56 O 0.22391 0.22929 0.46693 0.0
O57 O 0.1777 0.25961 0.45494 0.0
O58 O 0.27088 0.31566 0.4308 0.0
O59 O 0.29338 0.25978 0.42948 0.0
C60 C 0.21218 0.21069 0.38013 0.0
O61 O 0.15658 0.30461 0.42567 0.0
O62 O 0.21178 0.33709 0.39973 0.0
C63 C 0.12089 0.17526 0.42177 0.0
C64 C 0.27768 0.13969 0.46605 0.0
C65 C 0.32722 0.15583 0.50712 0.0
C66 C 0.28752 0.11126 0.50281 0.0
C67 C 0.26295 0.10321 0.48236 0.0
C68 C 0.31971 0.18303 0.4696 0.0
C69 C 0.34451 0.19091 0.48998 0.0
C70 C 0.24499 0.13547 0.44775 0.0
C71 C 0.19584 0.24661 0.4719 0.0
H72 H 0.05394 0.37006 0.40962 0.0
H73 H 0.10845 0.35055 0.42888 0.0
H74 H 0.17567 0.35568 0.36446 0.0
H75 H 0.12051 0.37423 0.34501 0.0
H76 H 0.27367 0.08374 0.5159 0.0
H77 H 0.23055 0.06972 0.48 0.0
H78 H 0.33161 0.21198 0.45735 0.0
H79 H 0.37473 0.22564 0.49308 0.0
Tb80 Tb 0.07555 0.29338 0.76789 0.0
Tb81 Tb 0.96784 0.21881 0.75269 0.0
C82 C 0.00093 0.32495 0.7614 0.0
C83 C 0.1885 0.38014 0.79652 0.0
C84 C 0.24501 0.42018 0.83516 0.0
C85 C 0.26582 0.43022 0.81326 0.0
C86 C 0.23771 0.41022 0.79409 0.0
C87 C 0.1671 0.37245 0.8181 0.0
C88 C 0.19513 0.39235 0.83729 0.0
C89 C 0.1611 0.35269 0.77697 0.0
O90 O 0.04084 0.26896 0.80204 0.0
O91 O 0.96832 0.20815 0.79037 0.0
O92 O 0.01002 0.18645 0.74325 0.0
O93 O 0.06413 0.22288 0.7707 0.0
O94 O 0.89792 0.2062 0.75424 0.0
O95 O 0.91299 0.15402 0.74059 0.0
O96 O 0.00136 0.23996 0.71862 0.0
O97 O 0.079 0.28939 0.72947 0.0
O98 O 0.03378 0.3267 0.77481 0.0
O99 O 0.97923 0.29019 0.74709 0.0
C100 C -0.00221 0.2328 0.80696 0.0
O101 O 0.14214 0.30706 0.77936 0.0
O102 O 0.13154 0.36417 0.76788 0.0
C103 C 0.04967 0.19536 0.75317 0.0
C104 C 0.85358 0.16458 0.723 0.0
C105 C 0.80202 0.16808 0.68528 0.0
C106 C 0.85092 0.18392 0.68319 0.0
C107 C 0.8765 0.18234 0.70191 0.0
C108 C 0.80488 0.14873 0.72522 0.0
C109 C 0.77919 0.15033 0.70648 0.0
C110 C 0.88114 0.16687 0.74316 0.0
C111 C 0.04704 0.26643 0.71328 0.0
H112 H 0.30402 0.45188 0.81106 0.0
H113 H 0.25469 0.41644 0.77748 0.0
H114 H 0.1291 0.34907 0.82024 0.0
H115 H 0.17795 0.38328 0.8539 0.0
H116 H 0.86931 0.19684 0.66697 0.0
H117 H 0.91424 0.19527 0.69993 0.0
H118 H 0.78689 0.1357 0.74152 0.0
H119 H 0.74159 0.13806 0.70859 0.0
Tb120 Tb 0.75591 0.01321 0.08794 0.0
Tb121 Tb 0.82171 0.12476 0.10202 0.0
C122 C 0.71011 0.07834 0.09325 0.0
C123 C 0.70906 0.88905 1.0654 0.0
C124 C 0.70254 0.81411 1.03964 0.0
C125 C 0.6612 0.81403 1.04685 0.0
C126 C 0.6645 0.85119 1.05962 0.0
C127 C 0.75059 0.88931 1.05841 0.0
C128 C 0.74732 0.85198 1.0456 0.0
C129 C 0.71052 0.92597 1.07984 0.0
O130 O 0.78283 0.04832 1.05393 0.0
O131 O 0.8368 0.12459 1.06478 0.0
O132 O 0.85617 0.08715 0.11497 0.0
O133 O 0.83141 0.041 0.08476 0.0
O134 O 0.82502 0.18744 0.11208 0.0
O135 O 0.88934 0.18545 0.10481 0.0
O136 O 0.7963 0.08851 0.1362 0.0
O137 O 0.75645 0.01006 0.12588 0.0
O138 O 0.70399 0.03549 0.09331 0.0
O139 O 0.75244 0.11632 0.09376 0.0
C140 C 0.81673 0.09232 1.04866 0.0
O141 O 0.74527 0.94539 0.09436 0.0
O142 O 0.70111 0.95667 1.07024 0.0
C143 C 0.85605 0.05338 0.10339 0.0
C144 C 0.88927 0.2323 0.13508 0.0
C145 C 0.90268 0.26752 0.17942 0.0
C146 C 0.90294 0.29521 0.16081 0.0
C147 C 0.89624 0.27764 0.13875 0.0
C148 C 0.89113 0.20541 0.15347 0.0
C149 C 0.89797 0.22298 0.17549 0.0
C150 C 0.87127 0.21004 0.11314 0.0
C151 C 0.7733 0.04261 0.14191 0.0
H152 H 0.62626 0.78504 1.04273 0.0
H153 H 0.63212 0.85017 1.06519 0.0
H154 H 0.78535 0.91817 1.06285 0.0
H155 H 0.77974 0.85311 1.04006 0.0
H156 H 0.90703 0.32986 0.16339 0.0
H157 H 0.89415 0.29844 0.12471 0.0
H158 H 0.8848 0.16988 0.15097 0.0
H159 H 0.89709 0.20067 0.18956 0.0
Tb160 Tb 0.71814 0.85591 0.43651 0.0
Tb161 Tb 0.8123 0.8517 0.42262 0.0
C162 C 0.70877 0.76029 0.42182 0.0
C163 C 0.63951 0.89534 0.46267 0.0
C164 C 0.6335 0.96006 0.49178 0.0
C165 C 0.62568 0.96119 0.46833 0.0
C166 C 0.62835 0.92887 0.45393 0.0
C167 C 0.64588 0.8932 0.48623 0.0
C168 C 0.64267 0.92518 0.50067 0.0
C169 C 0.64808 0.86598 0.44664 0.0
O170 O 0.7422 0.8384 0.46938 0.0
O171 O 0.82008 0.86474 0.45974 0.0
O172 O 0.82813 0.92504 0.41941 0.0
O173 O 0.77786 0.9208 0.4472 0.0
O174 O 0.85421 0.82008 0.42814 0.0
O175 O 0.87711 0.87886 0.40469 0.0
O176 O 0.78102 0.85035 0.38887 0.0
O177 O 0.73424 0.88093 0.40003 0.0
O178 O 0.68986 0.78746 0.42133 0.0
O179 O 0.75458 0.7777 0.42516 0.0
C180 C 0.78621 0.84992 0.47552 0.0
O181 O 0.67879 0.88972 0.43051 0.0
O182 O 0.6542 0.8321 0.45499 0.0
C183 C 0.8113 0.94579 0.43244 0.0
C184 C 0.89578 0.81927 0.39526 0.0
C185 C 0.91787 0.76882 0.36336 0.0
C186 C 0.91108 0.80635 0.3562 0.0
C187 C 0.90006 0.83122 0.37194 0.0
C188 C 0.90264 0.78188 0.40247 0.0
C189 C 0.9134 0.75679 0.38669 0.0
C190 C 0.88468 0.84552 0.41223 0.0
C191 C 0.75643 0.87154 0.38359 0.0
H192 H 0.61839 0.9876 0.46108 0.0
H193 H 0.62327 0.93111 0.4358 0.0
H194 H 0.65485 0.86795 0.49343 0.0
H195 H 0.64953 0.92397 0.51866 0.0
H196 H 0.91534 0.81733 0.33844 0.0
H197 H 0.8953 0.86003 0.3658 0.0
H198 H 0.89972 0.77205 0.42037 0.0
H199 H 0.91814 0.72794 0.39277 0.0
Tb200 Tb 0.01171 0.85363 0.75445 0.0
Tb201 Tb 0.90228 0.80182 0.77162 0.0
C202 C 0.95709 0.74369 0.76488 0.0
C203 C 0.13218 0.94434 0.73059 0.0
C204 C 0.20033 0.01986 0.70349 0.0
C205 C 0.20954 0.01531 0.72649 0.0
C206 C 0.17572 0.97787 0.73989 0.0
C207 C 0.12172 0.94983 0.70798 0.0
C208 C 0.15556 0.98732 0.69453 0.0
C209 C 0.09916 0.90385 0.74491 0.0
O210 O 0.97316 0.83474 0.72132 0.0
O211 O 0.89851 0.81579 0.73429 0.0
O212 O 0.93687 0.87756 0.77872 0.0
O213 O 0.97964 0.89585 0.74659 0.0
O214 O 0.83272 0.74409 0.76949 0.0
O215 O 0.84771 0.80425 0.7898 0.0
O216 O 0.93965 0.80562 0.80396 0.0
O217 O 0.0139 0.86312 0.79226 0.0
O218 O -0.00234 0.78254 0.76091 0.0
O219 O 0.91706 0.74371 0.76843 0.0
C220 C 0.92868 0.82425 0.71705 0.0
O221 O 0.07769 0.91328 0.76099 0.0
O222 O 0.07079 0.86389 0.73501 0.0
C223 C 0.9627 0.90902 0.76317 0.0
C224 C 0.7922 0.72911 0.80427 0.0
C225 C 0.74655 0.67089 0.84263 0.0
C226 C 0.79653 0.69643 0.84093 0.0
C227 C 0.81906 0.72502 0.8219 0.0
C228 C 0.74244 0.70253 0.80536 0.0
C229 C 0.7197 0.67352 0.82441 0.0
C230 C 0.81639 0.7609 0.78479 0.0
C231 C 0.98372 0.83831 0.80898 0.0
H232 H 0.24358 0.03945 0.73394 0.0
H233 H 0.18408 0.9744 0.75744 0.0
H234 H 0.08782 0.92489 0.70064 0.0
H235 H 0.14672 -0.00936 0.67707 0.0
H236 H 0.81848 0.69623 0.85477 0.0
H237 H 0.85753 0.74489 0.82125 0.0
H238 H 0.72123 0.70482 0.7917 0.0
H239 H 0.68118 0.65401 0.82511 0.0
H240 H 0.85801 0.97892 0.0852 0.0
H241 H 0.85157 0.91076 0.10516 0.0
H242 H 0.85396 0.97391 0.16986 0.0
H243 H 0.86321 0.04399 0.14963 0.0
H244 H 0.90722 0.94289 0.17411 0.0
H245 H 0.75423 0.85982 0.15494 0.0
H246 H 0.67738 0.83075 0.13586 0.0
H247 H 0.72174 0.7714 0.08291 0.0
H248 H 0.79951 0.80148 0.10099 0.0
H249 H 0.04961 0.87122 0.13459 0.0
H250 H 0.97052 0.82286 0.15103 0.0
H251 H 0.92005 0.8994 0.11018 0.0
H252 H -0.00082 0.94854 0.09386 0.0
H253 H 0.8429 0.79552 0.13004 0.0
H254 H -0.00773 0.97312 0.1629 0.0
H255 H 0.06966 0.00205 0.18161 0.0
H256 H 0.02001 0.86511 0.21258 0.0
H257 H 0.94189 0.83548 0.19427 0.0
C258 C 0.85756 0.97847 0.10368 0.0
C259 C 0.86081 0.01659 0.1158 0.0
C260 C 0.85255 0.93882 0.11519 0.0
C261 C 0.8503 0.93606 0.13916 0.0
C262 C 0.85461 0.97467 0.15139 0.0
C263 C 0.8605 0.01493 0.13979 0.0
C264 C 0.85286 0.89683 0.15073 0.0
C265 C 0.89146 0.90952 0.16528 0.0
C266 C 0.82985 0.85106 0.14123 0.0
C267 C 0.78291 0.83232 0.12977 0.0
C268 C 0.74782 0.8406 0.13922 0.0
C269 C 0.70404 0.82411 0.12847 0.0
C270 C 0.6946 0.79902 0.10825 0.0
C271 C 0.72905 0.79064 0.09865 0.0
C272 C 0.77306 0.80734 0.10922 0.0
C273 C 0.02142 0.87717 0.12865 0.0
C274 C 0.031 0.91534 0.11371 0.0
C275 C 0.97594 0.84861 0.1378 0.0
C276 C 0.93963 0.85797 0.13218 0.0
C277 C 0.94765 0.89153 0.1148 0.0
C278 C -0.00683 0.9204 0.10579 0.0
C279 C 0.9017 0.84806 0.14891 0.0
C280 C 0.85528 0.8266 0.14042 0.0
C281 C 0.91501 0.88353 0.1654 0.0
C282 C 0.96097 0.90225 0.1775 0.0
C283 C -0.00249 0.9494 0.17404 0.0
C284 C 0.04164 0.96585 0.18445 0.0
C285 C 0.04974 0.93551 0.19833 0.0
C286 C 0.01363 0.88865 0.20189 0.0
C287 C 0.96939 0.87202 0.19154 0.0
H288 H 0.08403 0.9483 0.20627 0.0
H289 H 0.66064 0.78619 0.09997 0.0
H290 H 0.77225 -0.00563 0.45209 0.0
H291 H 0.78425 0.07154 0.44105 0.0
H292 H 0.87742 0.07881 0.38612 0.0
H293 H 0.86482 0.00239 0.39708 0.0
H294 H 0.86559 0.15003 0.37542 0.0
H295 H 0.7979 0.1732 0.42627 0.0
H296 H 0.75067 0.18408 0.45594 0.0
H297 H 0.83221 0.16448 0.50802 0.0
H298 H 0.87932 0.15235 0.47888 0.0
H299 H 0.08721 0.20794 0.45439 0.0
H300 H 0.01857 0.21811 0.44924 0.0
H301 H 0.973 0.12048 0.39326 0.0
H302 H 0.0452 0.11543 0.39677 0.0
H303 H 0.93734 0.18569 0.45184 0.0
H304 H 0.91335 0.13227 0.35267 0.0
H305 H 0.9662 0.15522 0.31924 0.0
H306 H 0.07389 0.27423 0.35485 0.0
H307 H 0.02113 0.25348 0.38847 0.0
C308 C 0.79565 0.01289 0.43775 0.0
C309 C 0.81962 -0.00668 0.42616 0.0
C310 C 0.80207 0.05708 0.43122 0.0
C311 C 0.83333 0.08329 0.4132 0.0
C312 C 0.85376 0.06124 0.40043 0.0
C313 C 0.84737 0.01726 0.40697 0.0
C314 C 0.85353 0.13591 0.41142 0.0
C315 C 0.88204 0.15799 0.39204 0.0
C316 C 0.8732 0.15932 0.43201 0.0
C317 C 0.84298 0.16269 0.45015 0.0
C318 C 0.80564 0.17075 0.44403 0.0
C319 C 0.77883 0.17718 0.4608 0.0
C320 C 0.78885 0.17553 0.48382 0.0
C321 C 0.8249 0.16628 0.49015 0.0
C322 C 0.85184 0.1598 0.47346 0.0
C323 C 0.06181 0.18775 0.44137 0.0
C324 C 0.07118 0.1607 0.42602 0.0
C325 C 0.02282 0.19418 0.43817 0.0
C326 C -0.00844 0.17213 0.42006 0.0
C327 C -0.00198 0.14042 0.40648 0.0
C328 C 0.03816 0.13574 0.40906 0.0
C329 C 0.94995 0.17865 0.41622 0.0
C330 C 0.92201 0.17656 0.43504 0.0
C331 C 0.93164 0.17706 0.394 0.0
C332 C 0.96272 0.19129 0.37326 0.0
C333 C 0.94772 0.16403 0.35337 0.0
C334 C 0.97782 0.17669 0.33433 0.0
C335 C 0.02318 0.21655 0.33485 0.0
C336 C 0.03852 0.24384 0.35444 0.0
C337 C 0.00849 0.23161 0.3735 0.0
H338 H 0.04658 0.22612 0.32014 0.0
H339 H 0.76883 0.18164 0.49675 0.0
H340 H 0.03223 0.94856 0.79442 0.0
H341 H 0.10894 0.01062 0.78018 0.0
H342 H 0.0372 0.0482 0.72911 0.0
H343 H 0.96131 0.98192 0.74166 0.0
H344 H 0.09835 0.03002 0.70807 0.0
H345 H 0.11839 0.12493 0.78169 0.0
H346 H 0.12927 0.13045 0.82346 0.0
H347 H 0.23677 0.0909 0.81759 0.0
H348 H 0.22627 0.08506 0.7758 0.0
H349 H 0.14538 0.23837 0.7601 0.0
H350 H 0.20312 0.2251 0.74071 0.0
H351 H 0.09188 0.12488 0.69697 0.0
H352 H 0.03503 0.14041 0.71581 0.0
H353 H 0.22623 0.16954 0.74512 0.0
H354 H 0.2327 0.1586 0.67648 0.0
H355 H 0.23828 0.15786 0.63478 0.0
H356 H 0.0915 0.04985 0.63151 0.0
H357 H 0.08475 0.04895 0.67314 0.0
C358 C 0.03281 0.97152 0.78084 0.0
C359 C -0.00858 0.95911 0.76833 0.0
C360 C 0.07698 0.00688 0.7725 0.0
C361 C 0.07922 0.0328 0.75282 0.0
C362 C 0.03661 0.02711 0.74367 0.0
C363 C -0.00713 -0.00964 0.75139 0.0
C364 C 0.12446 0.06374 0.74045 0.0
C365 C 0.12474 0.06164 0.71643 0.0
C366 C 0.16507 0.10077 0.75096 0.0
C367 C 0.17129 0.10416 0.77585 0.0
C368 C 0.14421 0.11731 0.7894 0.0
C369 C 0.15031 0.1205 0.81302 0.0
C370 C 0.1836 0.1109 0.82317 0.0
C371 C 0.21096 0.09823 0.80971 0.0
C372 C 0.20498 0.09501 0.78608 0.0
C373 C 0.13321 0.21349 0.74631 0.0
C374 C 0.08478 0.18773 0.7406 0.0
C375 C 0.16671 0.20634 0.73487 0.0
C376 C 0.15214 0.17054 0.71855 0.0
C377 C 0.1049 0.15051 0.71043 0.0
C378 C 0.07156 0.15862 0.72154 0.0
C379 C 0.17973 0.14474 0.71602 0.0
C380 C 0.19713 0.13912 0.73712 0.0
C381 C 0.1565 0.10238 0.7037 0.0
C382 C 0.15859 0.10323 0.67833 0.0
C383 C 0.20149 0.13451 0.66698 0.0
C384 C 0.20487 0.13446 0.64324 0.0
C385 C 0.16531 0.10397 0.63047 0.0
C386 C 0.12226 0.07329 0.64144 0.0
C387 C 0.1188 0.07272 0.66522 0.0
H388 H 0.16802 0.10414 0.61207 0.0
H389 H 0.18827 0.11336 0.84147 0.0
H390 H 0.19719 0.28804 1.01265 0.0
H391 H 0.23434 0.34529 0.98144 0.0
H392 H 0.36705 0.34853 0.99301 0.0
H393 H 0.33023 0.29124 1.02462 0.0
H394 H 0.34067 0.44407 0.97629 0.0
H395 H 0.36569 0.30768 0.95542 0.0
H396 H 0.33756 0.22208 0.95849 0.0
H397 H 0.19862 0.19051 0.93659 0.0
H398 H 0.22597 0.27597 0.93364 0.0
H399 H 0.32562 0.41483 0.84126 0.0
H400 H 0.3624 0.41497 0.87745 0.0
H401 H 0.26722 0.45019 0.91227 0.0
H402 H 0.2314 0.45178 0.87601 0.0
H403 H 0.309 0.34843 0.9067 0.0
H404 H 0.30606 0.49388 0.96376 0.0
H405 H 0.33309 0.57909 0.96106 0.0
H406 H 0.43439 0.59725 0.90903 0.0
H407 H 0.40844 0.51231 0.91158 0.0
C408 C 0.23469 0.30202 1.00912 0.0
C409 C 0.26065 0.28476 1.02095 0.0
C410 C 0.25587 0.3348 0.9913 0.0
C411 C 0.30329 0.35096 0.98504 0.0
C412 C 0.33039 0.33641 0.99772 0.0
C413 C 0.30917 0.30341 1.01557 0.0
C414 C 0.32055 0.37564 0.96289 0.0
C415 C 0.33487 0.42381 0.96094 0.0
C416 C 0.31399 0.34913 0.94309 0.0
C417 C 0.29777 0.29795 0.94442 0.0
C418 C 0.32913 0.28239 0.95134 0.0
C419 C 0.31334 0.23396 0.95306 0.0
C420 C 0.26631 0.20087 0.94776 0.0
C421 C 0.23502 0.21616 0.94069 0.0
C422 C 0.25065 0.26455 0.93898 0.0
C423 C 0.31392 0.42477 0.85645 0.0
C424 C 0.27499 0.43253 0.85583 0.0
C425 C 0.33495 0.42464 0.87717 0.0
C426 C 0.31746 0.43231 0.8976 0.0
C427 C 0.28176 0.44466 0.89673 0.0
C428 C 0.2608 0.44492 0.87601 0.0
C429 C 0.32828 0.41733 0.91968 0.0
C430 C 0.31787 0.37018 0.92173 0.0
C431 C 0.33949 0.44532 0.93941 0.0
C432 C 0.35514 0.49654 0.93783 0.0
C433 C 0.33431 0.51604 0.95184 0.0
C434 C 0.34938 0.56433 0.9503 0.0
C435 C 0.38538 0.59355 0.93487 0.0
C436 C 0.40639 0.57456 0.92093 0.0
C437 C 0.39141 0.52631 0.92237 0.0
H438 H 0.39702 0.63092 0.93372 0.0
H439 H 0.25414 0.16339 0.94911 0.0
H440 H 0.09423 0.42961 0.33847 0.0
H441 H 0.03213 0.4218 0.31297 0.0
H442 H 0.92506 0.32513 0.36081 0.0
H443 H 0.98726 0.32989 0.38558 0.0
H444 H 0.91364 0.28224 0.3253 0.0
H445 H 0.92175 0.4256 0.33678 0.0
H446 H 0.95289 0.51019 0.34408 0.0
H447 H 0.0265 0.54703 0.2796 0.0
H448 H -0.0032 0.46286 0.27206 0.0
H449 H 0.85356 0.30733 0.19767 0.0
H450 H 0.85342 0.32942 0.23748 0.0
H451 H 0.95545 0.28558 0.25379 0.0
H452 H 0.9557 0.26353 0.21429 0.0
H453 H 0.92295 0.39262 0.26397 0.0
H454 H 0.9333 0.23138 0.30333 0.0
H455 H 0.89949 0.14671 0.29525 0.0
H456 H 0.78309 0.14543 0.26008 0.0
H457 H 0.81541 0.22992 0.26832 0.0
C458 C 0.05746 0.40735 0.34377 0.0
C459 C 0.04576 0.37927 0.36368 0.0
C460 C 0.02174 0.40374 0.32938 0.0
C461 C 0.9736 0.37263 0.33486 0.0
C462 C 0.96189 0.34921 0.35616 0.0
C463 C -0.00235 0.35209 0.37036 0.0
C464 C 0.93843 0.35533 0.31619 0.0
C465 C 0.91479 0.30646 0.31215 0.0
C466 C 0.93769 0.38642 0.29932 0.0
C467 C 0.95672 0.43756 0.30381 0.0
C468 C 0.94486 0.45168 0.3242 0.0
C469 C 0.96228 0.49964 0.32838 0.0
C470 C -0.00841 0.53396 0.3123 0.0
C471 C 0.00368 0.5204 0.29202 0.0
C472 C 0.98644 0.4725 0.28776 0.0
C473 C 0.87623 0.30283 0.20978 0.0
C474 C 0.90456 0.28357 0.20299 0.0
C475 C 0.8758 0.31511 0.23247 0.0
C476 C 0.90347 0.308 0.24861 0.0
C477 C 0.9327 0.28999 0.24169 0.0
C478 C 0.93304 0.27763 0.21913 0.0
C479 C 0.90427 0.3211 0.27265 0.0
C480 C 0.92048 0.36867 0.27758 0.0
C481 C 0.89781 0.28883 0.29049 0.0
C482 C 0.87697 0.23729 0.28639 0.0
C483 C 0.90016 0.21305 0.29412 0.0
C484 C 0.88136 0.1651 0.28945 0.0
C485 C 0.83947 0.14094 0.27703 0.0
C486 C 0.81574 0.16437 0.26958 0.0
C487 C 0.83427 0.2123 0.27425 0.0
H488 H 0.82553 0.1041 0.27314 0.0
H489 H 0.00495 0.57106 0.31555 0.0
H490 H 0.71513 0.09717 0.67227 0.0
H491 H 0.67768 0.08895 0.6354 0.0
H492 H 0.78972 0.22831 0.61512 0.0
H493 H 0.82749 0.23692 0.65222 0.0
H494 H 0.64508 0.13406 0.60651 0.0
H495 H 0.82363 0.2157 0.56059 0.0
H496 H 0.90774 0.24013 0.56781 0.0
H497 H 0.86444 0.13038 0.61889 0.0
H498 H 0.78015 0.10501 0.61177 0.0
H499 H 0.68152 0.05539 0.48365 0.0
H500 H 0.69867 0.11735 0.51127 0.0
H501 H 0.61124 0.01121 0.56145 0.0
H502 H 0.59299 0.94918 0.53385 0.0
H503 H 0.7481 0.11945 0.5484 0.0
H504 H 0.57073 0.05773 0.60079 0.0
H505 H 0.48676 0.03219 0.59296 0.0
H506 H 0.52577 0.0989 0.52673 0.0
H507 H 0.61009 0.12568 0.53427 0.0
C508 C 0.73101 0.12674 0.6603 0.0
C509 C 0.77473 0.16729 0.66494 0.0
C510 C 0.70948 0.12205 0.63922 0.0
C511 C 0.73135 0.15774 0.62244 0.0
C512 C 0.77262 0.20017 0.62779 0.0
C513 C 0.7943 0.20484 0.64888 0.0
C514 C 0.71526 0.14651 0.59863 0.0
C515 C 0.66746 0.13108 0.59365 0.0
C516 C 0.74524 0.14459 0.58163 0.0
C517 C 0.79572 0.15904 0.5859 0.0
C518 C 0.83213 0.19681 0.57334 0.0
C519 C 0.87981 0.21075 0.57739 0.0
C520 C 0.89146 0.18692 0.59384 0.0
C521 C 0.85541 0.14893 0.60621 0.0
C522 C 0.80768 0.13477 0.60218 0.0
C523 C 0.6646 0.04539 0.50032 0.0
C524 C 0.63634 -0.00253 0.50676 0.0
C525 C 0.67464 0.08083 0.51605 0.0
C526 C 0.65644 0.06894 0.53835 0.0
C527 C 0.62522 0.02129 0.54423 0.0
C528 C 0.61528 0.98583 0.52856 0.0
C529 C 0.67692 0.1041 0.55667 0.0
C530 C 0.7258 0.1241 0.56071 0.0
C531 C 0.64781 0.10997 0.57273 0.0
C532 C 0.59691 0.09359 0.56809 0.0
C533 C 0.56153 0.06725 0.5846 0.0
C534 C 0.5138 0.05249 0.5802 0.0
C535 C 0.50093 0.06384 0.55935 0.0
C536 C 0.53577 0.09 0.54285 0.0
C537 C 0.58354 0.10491 0.54717 0.0
H538 H 0.46397 0.05241 0.55599 0.0
H539 H 0.92839 0.19781 0.59695 0.0
H540 H 0.75128 0.76575 1.04317 0.0
H541 H 0.74781 0.70593 1.01715 0.0
H542 H 0.64264 0.71769 0.97705 0.0
H543 H 0.64526 0.77631 1.00309 0.0
H544 H 0.62283 0.62842 0.97823 0.0
H545 H 0.76567 0.78402 0.96116 0.0
H546 H 0.84196 0.85404 0.97146 0.0
H547 H 0.89519 0.76368 0.99416 0.0
H548 H 0.81912 0.69317 0.98392 0.0
H549 H 0.671 0.66984 0.86374 0.0
H550 H 0.64949 0.65301 0.90372 0.0
H551 H 0.74992 0.60401 0.91212 0.0
H552 H 0.77089 0.61963 0.87163 0.0
H553 H 0.77389 0.68202 0.9357 0.0
H554 H 0.63541 0.53299 0.93074 0.0
H555 H 0.55883 0.47041 0.91599 0.0
H556 H 0.49407 0.55391 0.9313 0.0
H557 H 0.5703 0.61735 0.94574 0.0
C558 C 0.72714 0.75511 1.0289 0.0
C559 C 0.69871 0.77579 1.02505 0.0
C560 C 0.72506 0.72088 1.01413 0.0
C561 C 0.69521 0.70759 0.99507 0.0
C562 C 0.66557 0.72698 0.99176 0.0
C563 C 0.66724 0.76067 1.00661 0.0
C564 C 0.69813 0.67792 0.977 0.0
C565 C 0.6558 0.63966 0.96892 0.0
C566 C 0.74149 0.69148 0.96548 0.0
C567 C 0.78678 0.73353 0.97202 0.0
C568 C 0.79361 0.7792 0.96848 0.0
C569 C 0.83678 0.81891 0.97426 0.0
C570 C 0.87333 0.8133 0.98354 0.0
C571 C 0.86676 0.76795 0.98707 0.0
C572 C 0.8237 0.72812 0.98125 0.0
C573 C 0.68686 0.65321 0.87369 0.0
C574 C 0.72355 0.64721 0.86459 0.0
C575 C 0.67435 0.6434 0.89668 0.0
C576 C 0.69831 0.62748 0.91097 0.0
C577 C 0.73106 0.61634 0.90138 0.0
C578 C 0.74334 0.62579 0.8783 0.0
C579 C 0.69793 0.63463 0.93581 0.0
C580 C 0.74099 0.66879 0.94536 0.0
C581 C 0.65496 0.61803 0.94825 0.0
C582 C 0.6088 0.58004 0.93939 0.0
C583 C 0.60495 0.53821 0.93083 0.0
C584 C 0.56153 0.50252 0.92252 0.0
C585 C 0.52157 0.50815 0.92272 0.0
C586 C 0.52498 0.54951 0.93119 0.0
C587 C 0.56831 0.58533 0.93949 0.0
H588 H 0.48797 0.48047 0.9163 0.0
H589 H 0.90681 0.84408 0.98791 0.0
H590 H 0.98291 0.73904 0.36858 0.0
H591 H 0.01467 0.71026 0.33896 0.0
H592 H 0.91822 0.71639 0.29034 0.0
H593 H 0.88458 0.74269 0.32008 0.0
H594 H 0.93525 0.64563 0.28017 0.0
H595 H 0.02799 0.81289 0.2995 0.0
H596 H 0.07222 0.8778 0.32627 0.0
H597 H 0.16787 0.82559 0.3401 0.0
H598 H 0.12345 0.75971 0.31366 0.0
H599 H 0.03998 0.76608 0.1799 0.0
H600 H 0.00064 0.72508 0.21523 0.0
H601 H 0.12781 0.72417 0.23594 0.0
H602 H 0.16766 0.76605 0.20035 0.0
H603 H 0.1032 0.76906 0.2654 0.0
H604 H 0.02101 0.61774 0.23286 0.0
H605 H 0.97513 0.55793 0.20404 0.0
H606 H 0.85901 0.58445 0.21215 0.0
H607 H 0.90434 0.64485 0.2408 0.0
C608 C 0.9673 0.73273 0.35179 0.0
C609 C 0.9319 0.74421 0.34656 0.0
C610 C 0.98566 0.71643 0.33485 0.0
C611 C 0.96947 0.71209 0.31235 0.0
C612 C 0.93142 0.71966 0.30756 0.0
C613 C 0.91274 0.73546 0.32451 0.0
C614 C -0.00351 0.70738 0.29315 0.0
C615 C 0.9721 0.67225 0.27693 0.0
C616 C 0.04501 0.74131 0.28929 0.0
C617 C 0.07208 0.78112 0.30491 0.0
C618 C 0.05829 0.81514 0.30837 0.0
C619 C 0.0834 0.85209 0.32347 0.0
C620 C 0.12279 0.85578 0.33494 0.0
C621 C 0.13725 0.82259 0.33126 0.0
C622 C 0.1121 0.7854 0.31624 0.0
C623 C 0.05904 0.75585 0.1917 0.0
C624 C 0.10693 0.76966 0.18766 0.0
C625 C 0.03636 0.73188 0.21179 0.0
C626 C 0.06114 0.7212 0.22822 0.0
C627 C 0.10795 0.73176 0.22341 0.0
C628 C 0.13065 0.75562 0.20314 0.0
C629 C 0.04138 0.70865 0.25172 0.0
C630 C 0.06709 0.74081 0.26888 0.0
C631 C -0.00606 0.67248 0.25616 0.0
C632 C 0.96619 0.63591 0.23902 0.0
C633 C 0.98578 0.61101 0.22843 0.0
C634 C 0.95984 0.57695 0.21212 0.0
C635 C 0.91418 0.56739 0.20627 0.0
C636 C 0.89434 0.59182 0.21674 0.0
C637 C 0.92011 0.62589 0.23306 0.0
H638 H 0.89418 0.54105 0.19363 0.0
H639 H 0.14216 0.8844 0.34665 0.0
H640 H 0.21934 0.00976 0.65942 0.0
H641 H 0.28209 0.06716 0.6347 0.0
H642 H 0.3327 0.16921 0.68857 0.0
H643 H 0.26792 0.11186 0.71354 0.0
H644 H 0.32967 0.20881 0.64689 0.0
H645 H 0.40587 0.13123 0.67426 0.0
H646 H 0.4174 0.06664 0.689 0.0
H647 H 0.37937 -0.00072 0.624 0.0
H648 H 0.36659 0.06278 0.60895 0.0
H649 H 0.41828 0.1917 0.52343 0.0
H650 H 0.44324 0.20952 0.56358 0.0
H651 H 0.29849 0.16674 0.58282 0.0
H652 H 0.27409 0.14914 0.54348 0.0
H653 H 0.41039 0.14522 0.59892 0.0
H654 H 0.28819 0.22714 0.61498 0.0
H655 H 0.28188 0.29277 0.59765 0.0
H656 H 0.42953 0.36296 0.57862 0.0
H657 H 0.43649 0.29678 0.5951 0.0
C658 C 0.24323 0.04449 0.66607 0.0
C659 C 0.23837 0.05611 0.68848 0.0
C660 C 0.27974 0.0771 0.65201 0.0
C661 C 0.31285 0.12201 0.66001 0.0
C662 C 0.30802 0.13439 0.68224 0.0
C663 C 0.27113 0.10152 0.69646 0.0
C664 C 0.35029 0.1556 0.64407 0.0
C665 C 0.34885 0.19602 0.6368 0.0
C666 C 0.37801 0.14092 0.63166 0.0
C667 C 0.38563 0.10221 0.64041 0.0
C668 C 0.39979 0.10259 0.6631 0.0
C669 C 0.4065 0.06609 0.67153 0.0
C670 C 0.39923 0.02894 0.65743 0.0
C671 C 0.38516 0.02818 0.63488 0.0
C672 C 0.37831 0.06454 0.62637 0.0
C673 C 0.39227 0.18671 0.53638 0.0
C674 C 0.3442 0.16828 0.53065 0.0
C675 C 0.40654 0.1972 0.55914 0.0
C676 C 0.37301 0.1906 0.57609 0.0
C677 C 0.32538 0.17352 0.57 0.0
C678 C 0.31119 0.16255 0.54758 0.0
C679 C 0.38398 0.19377 0.60067 0.0
C680 C 0.39447 0.16025 0.6098 0.0
C681 C 0.36688 0.21624 0.61521 0.0
C682 C 0.363 0.25717 0.60661 0.0
C683 C 0.31951 0.25678 0.60746 0.0
C684 C 0.31572 0.29399 0.59763 0.0
C685 C 0.35535 0.33236 0.58738 0.0
C686 C 0.39886 0.33334 0.58667 0.0
C687 C 0.40266 0.2958 0.59609 0.0
H688 H 0.35225 0.36114 0.57983 0.0
H689 H 0.40445 0.00072 0.66399 0.0
H690 H 0.31009 0.0325 1.05284 0.0
H691 H 0.39219 0.0502 1.05621 0.0
H692 H 0.4142 0.14528 0.11109 0.0
H693 H 0.33092 0.12704 0.10802 0.0
H694 H 0.49734 0.16981 1.07388 0.0
H695 H 0.39401 0.05581 0.13125 0.0
H696 H 0.31941 0.98551 0.14412 0.0
H697 H 0.34298 0.89956 0.09701 0.0
H698 H 0.41734 0.96956 0.08358 0.0
H699 H 0.70159 0.15355 0.10754 0.0
H700 H 0.63039 0.16137 0.10728 0.0
H701 H 0.55136 0.0246 1.07611 0.0
H702 H 0.62166 0.0157 1.07746 0.0
H703 H 0.49823 0.02886 0.10612 0.0
H704 H 0.5964 0.1392 1.04675 0.0
H705 H 0.66886 0.20787 1.03084 0.0
H706 H 0.65444 0.29903 1.07833 0.0
H707 H 0.58217 0.23077 0.09469 0.0
C708 C 0.33267 0.05827 1.06522 0.0
C709 C 0.31386 0.07809 1.08029 0.0
C710 C 0.37964 0.06831 1.06712 0.0
C711 C 0.4091 0.09858 0.08405 0.0
C712 C 0.39197 0.12184 0.09787 0.0
C713 C 0.34449 0.11159 0.09603 0.0
C714 C 0.45497 0.10034 0.0888 0.0
C715 C 0.4979 0.13952 1.08138 0.0
C716 C 0.4554 0.06029 0.09802 0.0
C717 C 0.41104 0.01801 0.1063 0.0
C718 C 0.38308 0.022 0.12351 0.0
C719 C 0.34089 0.98219 0.13093 0.0
C720 C 0.32646 0.9381 0.12138 0.0
C721 C 0.35421 0.93373 0.1044 0.0
C722 C 0.39641 0.97346 0.09689 0.0
C723 C 0.66904 0.12522 0.10057 0.0
C724 C 0.66738 0.08401 0.09249 0.0
C725 C 0.62829 0.12984 0.10031 0.0
C726 C 0.58526 0.09393 0.09135 0.0
C727 C 0.58383 0.05288 0.08319 0.0
C728 C 0.62419 0.04783 0.08391 0.0
C729 C 0.54133 0.09814 0.09079 0.0
C730 C 0.49836 0.05974 0.09895 0.0
C731 C 0.54099 0.13879 0.08202 0.0
C732 C 0.58422 0.17983 1.0721 0.0
C733 C 0.60887 0.17385 1.05389 0.0
C734 C 0.64987 0.2127 1.04478 0.0
C735 C 0.66632 0.25776 1.05361 0.0
C736 C 0.64171 0.26409 1.07153 0.0
C737 C 0.60071 0.22535 1.08072 0.0
H738 H 0.69808 0.28778 1.04654 0.0
H739 H 0.29383 0.90731 0.12717 0.0
H740 H 0.33396 0.39702 0.43786 0.0
H741 H 0.41399 0.46411 0.43476 0.0
H742 H 0.46937 0.37043 0.42341 0.0
H743 H 0.38793 0.30168 0.42615 0.0
H744 H 0.52118 0.46231 0.4576 0.0
H745 H 0.47283 0.41157 0.38021 0.0
H746 H 0.41424 0.38183 0.34919 0.0
H747 H 0.39817 0.50432 0.35389 0.0
H748 H 0.45608 0.53439 0.3852 0.0
H749 H 0.7285 0.6875 0.4278 0.0
H750 H 0.67142 0.60197 0.42747 0.0
H751 H 0.55825 0.63058 0.41186 0.0
H752 H 0.61442 0.71488 0.41166 0.0
H753 H 0.54753 0.55989 0.38759 0.0
H754 H 0.58068 0.60368 0.46714 0.0
H755 H 0.63249 0.63483 0.50068 0.0
H756 H 0.67234 0.52826 0.49413 0.0
H757 H 0.62117 0.49686 0.46036 0.0
C758 C 0.36287 0.39009 0.4349 0.0
C759 C 0.35413 0.34362 0.43197 0.0
C760 C 0.4088 0.42877 0.43322 0.0
C761 C 0.44753 0.42233 0.42873 0.0
C762 C 0.4398 0.37607 0.42691 0.0
C763 C 0.39331 0.33689 0.42845 0.0
C764 C 0.49477 0.46496 0.42431 0.0
C765 C 0.52792 0.48312 0.442 0.0
C766 C 0.50276 0.49258 0.40426 0.0
C767 C 0.46862 0.47509 0.38513 0.0
C768 C 0.45656 0.432 0.37473 0.0
C769 C 0.4235 0.4151 0.35708 0.0
C770 C 0.40245 0.44113 0.34959 0.0
C771 C 0.41451 0.48419 0.3597 0.0
C772 C 0.44751 0.50122 0.37738 0.0
C773 C 0.69149 0.67544 0.42402 0.0
C774 C 0.67615 0.7083 0.41985 0.0
C775 C 0.65886 0.62653 0.42398 0.0
C776 C 0.61027 0.6096 0.41986 0.0
C777 C 0.59542 0.64245 0.41504 0.0
C778 C 0.62776 0.69097 0.41503 0.0
C779 C 0.57387 0.55814 0.4211 0.0
C780 C 0.54223 0.53852 0.40286 0.0
C781 C 0.56708 0.52957 0.44078 0.0
C782 C 0.59768 0.54836 0.46107 0.0
C783 C 0.60081 0.58714 0.47275 0.0
C784 C 0.62998 0.6048 0.49182 0.0
C785 C 0.65584 0.58366 0.49948 0.0
C786 C 0.65241 0.5447 0.48814 0.0
C787 C 0.62333 0.52695 0.46904 0.0
H788 H 0.67842 0.59739 0.51423 0.0
H789 H 0.37684 0.42797 0.33593 0.0
H790 H 0.0147 0.38261 0.79706 0.0
H791 H -0.0004 0.44848 0.79893 0.0
H792 H 0.94851 0.42259 0.72976 0.0
H793 H 0.96145 0.35478 0.72828 0.0
H794 H 0.03748 0.52662 0.77891 0.0
H795 H 0.87494 0.46623 0.71932 0.0
H796 H 0.80327 0.3923 0.70824 0.0
H797 H 0.80556 0.32657 0.77177 0.0
H798 H 0.87684 0.40025 0.78335 0.0
H799 H 0.02404 0.7263 0.74656 0.0
H800 H 0.02504 0.65222 0.74656 0.0
H801 H 0.89158 0.58322 0.78356 0.0
H802 H 0.88947 0.65738 0.78286 0.0
H803 H 0.89085 0.52478 0.75352 0.0
H804 H 0.00047 0.61899 0.81035 0.0
H805 H 0.06795 0.68994 0.82677 0.0
H806 H 0.16338 0.68196 0.77858 0.0
H807 H 0.09634 0.61131 0.76166 0.0
C808 C -0.00018 0.39063 0.78229 0.0
C809 C -0.01064 0.3635 0.76249 0.0
C810 C -0.00872 0.42849 0.78336 0.0
C811 C 0.9727 0.44079 0.76455 0.0
C812 C 0.96193 0.41348 0.74473 0.0
C813 C 0.96958 0.37482 0.74382 0.0
C814 C 0.96699 0.48348 0.7655 0.0
C815 C 0.00528 0.52597 0.77337 0.0
C816 C 0.92474 0.48292 0.75878 0.0
C817 C 0.88152 0.43863 0.75209 0.0
C818 C 0.86003 0.43605 0.73096 0.0
C819 C 0.8195 0.39418 0.72459 0.0
C820 C 0.79997 0.35472 0.73926 0.0
C821 C 0.82082 0.3571 0.76038 0.0
C822 C 0.86132 0.39889 0.76685 0.0
C823 C -0.00516 0.69547 0.75476 0.0
C824 C 0.9569 0.69802 0.76494 0.0
C825 C -0.00447 0.653 0.75479 0.0
C826 C 0.95891 0.61213 0.76548 0.0
C827 C 0.92039 0.61422 0.77527 0.0
C828 C 0.9193 0.6567 0.77493 0.0
C829 C 0.96155 0.56774 0.76664 0.0
C830 C 0.92287 0.52514 0.75912 0.0
C831 C 0.00281 0.56765 0.77446 0.0
C832 C 0.0433 0.61008 0.78462 0.0
C833 C 0.0358 0.63255 0.80316 0.0
C834 C 0.07397 0.67269 0.81257 0.0
C835 C 0.1199 0.6905 0.80369 0.0
C836 C 0.12777 0.66815 0.78542 0.0
C837 C 0.08971 0.62803 0.77593 0.0
H838 H 0.14941 0.72158 0.811 0.0
H839 H 0.76862 0.32232 0.73428 0.0
H840 H 0.15064 0.09331 0.1595 0.0
H841 H 0.15679 0.12159 0.1983 0.0
H842 H 0.22119 0.03987 0.21945 0.0
H843 H 0.21463 0.01081 0.18017 0.0
H844 H 0.16401 0.03539 0.25364 0.0
H845 H 0.28489 0.16927 0.21181 0.0
H846 H 0.31715 0.2292 0.18077 0.0
H847 H 0.22183 0.27858 0.19989 0.0
H848 H 0.18856 0.21854 0.23087 0.0
H849 H 0.23046 0.14163 0.36392 0.0
H850 H 0.22717 0.11326 0.32534 0.0
H851 H 0.18412 0.21058 0.3001 0.0
H852 H 0.19019 0.24106 0.33886 0.0
H853 H 0.23083 0.2064 0.26764 0.0
H854 H 0.10713 0.07244 0.30806 0.0
H855 H 0.07235 0.0123 0.33895 0.0
H856 H 0.16838 0.96229 0.32227 0.0
H857 H 0.2039 0.0223 0.29141 0.0
C858 C 0.16639 0.08108 0.17219 0.0
C859 C 0.18232 0.04941 0.16586 0.0
C860 C 0.17023 0.09789 0.19481 0.0
C861 C 0.19044 0.08436 0.21268 0.0
C862 C 0.20563 0.05191 0.20656 0.0
C863 C 0.20202 0.03516 0.18375 0.0
C864 C 0.19533 0.10389 0.23728 0.0
C865 C 0.17936 0.07297 0.25651 0.0
C866 C 0.21387 0.15288 0.24204 0.0
C867 C 0.23395 0.18913 0.22352 0.0
C868 C 0.2706 0.19272 0.2093 0.0
C869 C 0.28909 0.22673 0.19173 0.0
C870 C 0.27147 0.2576 0.18833 0.0
C871 C 0.2354 0.25461 0.20253 0.0
C872 C 0.21675 0.22062 0.22011 0.0
C873 C 0.22024 0.15734 0.35028 0.0
C874 C 0.21053 0.19411 0.35529 0.0
C875 C 0.21768 0.1403 0.32777 0.0
C876 C 0.20373 0.1578 0.30878 0.0
C877 C 0.19473 0.19521 0.31372 0.0
C878 C 0.19818 0.21296 0.33628 0.0
C879 C 0.19936 0.13794 0.28419 0.0
C880 C 0.21541 0.1688 0.26489 0.0
C881 C 0.18033 0.08879 0.27934 0.0
C882 C 0.15849 0.05217 0.2976 0.0
C883 C 0.12091 0.04869 0.31105 0.0
C884 C 0.10104 0.01461 0.32854 0.0
C885 C 0.11825 0.9836 0.33263 0.0
C886 C 0.1551 0.98635 0.31912 0.0
C887 C 0.17507 0.02034 0.3016 0.0
H888 H 0.10298 0.9574 0.34626 0.0
H889 H 0.28583 0.28391 0.17472 0.0
H890 H 0.14249 0.28524 0.48892 0.0
H891 H 0.11929 0.28956 0.52811 0.0
H892 H 0.19223 0.2177 0.55206 0.0
H893 H 0.21707 0.21502 0.51275 0.0
H894 H 0.2032 0.27122 0.58389 0.0
H895 H 0.03307 0.28231 0.56444 0.0
H896 H 0.96894 0.25358 0.53603 0.0
H897 H -0.00591 0.14031 0.51907 0.0
H898 H 0.058 0.16801 0.54753 0.0
H899 H 0.13439 0.32617 0.69108 0.0
H900 H 0.15883 0.32458 0.6517 0.0
H901 H 0.02162 0.20288 0.63899 0.0
H902 H -0.00365 0.20647 0.67786 0.0
H903 H 0.04125 0.2413 0.60182 0.0
H904 H 0.14474 0.20686 0.64596 0.0
H905 H 0.20257 0.22067 0.67633 0.0
H906 H 0.30129 0.35513 0.64588 0.0
H907 H 0.24338 0.34295 0.61576 0.0
C908 C 0.15389 0.27029 0.5024 0.0
C909 C 0.18206 0.24967 0.4969 0.0
C910 C 0.1399 0.27231 0.52525 0.0
C911 C 0.15238 0.25303 0.54407 0.0
C912 C 0.18121 0.23302 0.53859 0.0
C913 C 0.19557 0.23134 0.5157 0.0
C914 C 0.136 0.25409 0.56903 0.0
C915 C 0.16773 0.26476 0.58751 0.0
C916 C 0.08919 0.24455 0.57507 0.0
C917 C 0.05081 0.22768 0.55791 0.0
C918 C 0.02487 0.25122 0.55467 0.0
C919 C -0.01147 0.2351 0.53858 0.0
C920 C 0.97753 0.19524 0.52572 0.0
C921 C 0.00276 0.17131 0.52898 0.0
C922 C 0.03911 0.18724 0.54506 0.0
C923 C 0.10914 0.29912 0.67997 0.0
C924 C 0.06293 0.2667 0.68834 0.0
C925 C 0.12353 0.29765 0.65709 0.0
C926 C 0.09315 0.2627 0.64142 0.0
C927 C 0.04681 0.23059 0.64987 0.0
C928 C 0.03214 0.23265 0.67255 0.0
C929 C 0.10887 0.25958 0.6166 0.0
C930 C 0.0769 0.2482 0.59817 0.0
C931 C 0.15483 0.26675 0.61071 0.0
C932 C 0.18979 0.27401 0.62863 0.0
C933 C 0.17873 0.23943 0.64579 0.0
C934 C 0.21148 0.24698 0.66296 0.0
C935 C 0.25568 0.28854 0.66295 0.0
C936 C 0.26706 0.32292 0.64587 0.0
C937 C 0.23422 0.31582 0.6288 0.0
H938 H 0.28104 0.29416 0.67621 0.0
H939 H 0.94941 0.18285 0.51326 0.0
H940 H 0.05039 0.25322 0.84748 0.0
H941 H 0.02229 0.22892 0.88684 0.0
H942 H 0.87722 0.15812 0.86369 0.0
H943 H 0.90561 0.17951 0.82432 0.0
H944 H 0.87019 0.10897 0.89559 0.0
H945 H 0.03533 0.24915 0.94348 0.0
H946 H 0.10053 0.33163 0.93832 0.0
H947 H 0.01418 0.35992 0.8926 0.0
H948 H 0.94834 0.27776 0.89767 0.0
H949 H 0.81867 0.03608 1.01357 0.0
H950 H 0.85077 0.05849 0.97478 0.0
H951 H 0.88585 0.20231 0.98695 0.0
H952 H 0.85753 0.18038 1.0264 0.0
H953 H 0.94669 0.21586 0.96032 0.0
H954 H 0.78235 0.10215 0.9488 0.0
H955 H 0.70783 0.0255 0.95273 0.0
H956 H 0.77657 0.95464 0.92383 0.0
H957 H 0.85161 0.03084 0.91993 0.0
C958 C 0.01242 0.23245 0.85065 0.0
C959 C 0.98079 0.21881 0.83202 0.0
C960 C -0.0041 0.21874 0.87363 0.0
C961 C 0.94666 0.19199 0.87947 0.0
C962 C 0.91526 0.17839 0.86069 0.0
C963 C 0.93179 0.19107 0.83773 0.0
C964 C 0.92772 0.17768 0.90454 0.0
C965 C 0.88739 0.13285 0.90955 0.0
C966 C 0.94801 0.20771 0.92373 0.0
C967 C 0.98717 0.2572 0.92076 0.0
C968 C 0.03024 0.27304 0.93239 0.0
C969 C 0.0673 0.3197 0.92946 0.0
C970 C 0.06156 0.35094 0.91508 0.0
C971 C 0.01865 0.33564 0.90367 0.0
C972 C 0.98147 0.28903 0.90655 0.0
C973 C 0.83299 0.07255 1.00806 0.0
C974 C 0.83461 0.10595 1.02373 0.0
C975 C 0.85121 0.08561 0.98532 0.0
C976 C 0.87032 0.13253 0.97648 0.0
C977 C 0.87188 0.16584 0.99232 0.0
C978 C 0.85507 0.15305 1.01527 0.0
C979 C 0.8891 0.14711 0.95139 0.0
C980 C 0.92944 0.19198 0.94637 0.0
C981 C 0.86766 0.11785 0.93204 0.0
C982 C 0.82266 0.07209 0.93429 0.0
C983 C 0.78159 0.07017 0.94338 0.0
C984 C 0.73928 0.02682 0.9456 0.0
C985 C 0.73751 0.98521 0.9386 0.0
C986 C 0.77801 0.98688 0.92929 0.0
C987 C 0.82042 0.03014 0.92705 0.0
H988 H 0.70473 0.95169 0.94034 0.0
H989 H 0.09032 0.38702 0.91281 0.0
H990 H 0.71878 0.9522 0.16092 0.0
H991 H 0.7135 0.92418 0.20008 0.0
H992 H 0.81649 0.06499 0.22046 0.0
H993 H 0.8195 0.09386 0.18119 0.0
H994 H 0.76408 0.03272 0.25449 0.0
H995 H 0.69449 0.85225 0.22368 0.0
H996 H 0.70684 0.79868 0.19881 0.0
H997 H 0.85779 0.8832 0.20799 0.0
H998 H 0.84646 0.93961 0.2308 0.0
H999 H 0.70551 0.91187 0.36459 0.0
H1000 H 0.7063 0.9396 0.32544 0.0
H1001 H 0.80899 0.89906 0.30628 0.0
H1002 H 0.80682 0.86973 0.34522 0.0
H1003 H 0.76021 0.882 0.2719 0.0
H1004 H 0.82795 0.02177 0.31543 0.0
H1005 H 0.8333 0.07624 0.34544 0.0
H1006 H 0.71397 0.08119 0.31715 0.0
H1007 H 0.70643 0.02499 0.28752 0.0
C1008 C 0.74046 0.97765 0.1736 0.0
C1009 C 0.76943 0.02591 0.16712 0.0
C1010 C 0.73824 0.961 0.19643 0.0
C1011 C 0.76589 -0.00883 0.21422 0.0
C1012 C 0.79454 0.03969 0.20779 0.0
C1013 C 0.79625 0.05657 0.18494 0.0
C1014 C 0.76371 0.97294 0.23925 0.0
C1015 C 0.76314 -0.0004 0.25804 0.0
C1016 C 0.76306 0.92994 0.2452 0.0
C1017 C 0.76972 0.90109 0.22807 0.0
C1018 C 0.73036 0.86037 0.2195 0.0
C1019 C 0.73721 0.82967 0.20565 0.0
C1020 C 0.78321 0.83822 0.20123 0.0
C1021 C 0.82237 0.87772 0.21045 0.0
C1022 C 0.8158 0.90954 0.22347 0.0
C1023 C 0.72825 0.90852 0.35212 0.0
C1024 C 0.75595 0.88788 0.35875 0.0
C1025 C 0.72912 0.92515 0.32938 0.0
C1026 C 0.75843 0.92297 0.31199 0.0
C1027 C 0.78573 0.90186 0.31864 0.0
C1028 C 0.78454 0.88485 0.34131 0.0
C1029 C 0.76032 0.94157 0.28715 0.0
C1030 C 0.76089 0.91506 0.26843 0.0
C1031 C 0.76226 0.9853 0.28142 0.0
C1032 C 0.7662 0.01856 0.29941 0.0
C1033 C 0.80244 0.03396 0.31575 0.0
C1034 C 0.80595 0.06526 0.33268 0.0
C1035 C 0.77415 0.08232 0.33317 0.0
C1036 C 0.73853 0.06786 0.31679 0.0
C1037 C 0.73446 0.03608 0.29999 0.0
H1038 H 0.77713 0.10674 0.34623 0.0
H1039 H 0.78848 0.81386 0.19097 0.0
H1040 H 0.87097 0.86209 0.49329 0.0
H1041 H 0.89301 0.85739 0.53267 0.0
H1042 H 0.75413 0.82614 0.5557 0.0
H1043 H 0.73184 0.831 0.51599 0.0
H1044 H 0.81646 0.8829 0.58653 0.0
H1045 H 0.79389 0.74001 0.55359 0.0
H1046 H 0.80548 0.69083 0.52561 0.0
H1047 H 0.95482 0.76176 0.54037 0.0
H1048 H 0.94422 0.81181 0.56824 0.0
H1049 H 0.84272 0.81323 0.70077 0.0
H1050 H 0.81838 0.81695 0.66161 0.0
H1051 H 0.95425 0.84281 0.63659 0.0
H1052 H 0.9786 0.83878 0.67583 0.0
H1053 H 0.89233 0.78813 0.6068 0.0
H1054 H 0.9162 0.93149 0.63915 0.0
H1055 H 0.90617 0.98215 0.66681 0.0
H1056 H 0.75646 0.91225 0.65299 0.0
H1057 H 0.7655 0.8607 0.62544 0.0
C1058 C 0.84466 0.85409 0.50657 0.0
C1059 C 0.79911 0.84683 0.50068 0.0
C1060 C 0.85746 0.85106 0.52949 0.0
C1061 C 0.82554 0.84061 0.54806 0.0
C1062 C 0.78018 0.83411 0.5423 0.0
C1063 C 0.76716 0.83676 0.51924 0.0
C1064 C 0.83959 0.83669 0.57304 0.0
C1065 C 0.83233 0.86142 0.59081 0.0
C1066 C 0.86181 0.80998 0.57954 0.0
C1067 C 0.86834 0.77998 0.56283 0.0
C1068 C 0.82927 0.74536 0.55074 0.0
C1069 C 0.83565 0.71729 0.53493 0.0
C1070 C 0.88088 0.72326 0.53117 0.0
C1071 C 0.91982 0.75723 0.54327 0.0
C1072 C 0.91364 0.78544 0.55909 0.0
C1073 C 0.86775 0.81973 0.68706 0.0
C1074 C 0.9131 0.82566 0.69222 0.0
C1075 C 0.85371 0.82225 0.66428 0.0
C1076 C 0.88417 0.83096 0.64522 0.0
C1077 C 0.92924 0.83614 0.65034 0.0
C1078 C 0.94342 0.83388 0.67316 0.0
C1079 C 0.86921 0.83433 0.62034 0.0
C1080 C 0.87637 0.80954 0.60256 0.0
C1081 C 0.8471 0.86116 0.61383 0.0
C1082 C 0.84144 0.89188 0.63042 0.0
C1083 C 0.88107 0.92666 0.64214 0.0
C1084 C 0.87558 0.95558 0.65778 0.0
C1085 C 0.83068 0.95033 0.6617 0.0
C1086 C 0.7912 0.91621 0.64996 0.0
C1087 C 0.79649 0.88714 0.63433 0.0
H1088 H 0.8265 0.97278 0.6738 0.0
H1089 H 0.88575 0.70149 0.51892 0.0
H1090 H 0.94769 0.78234 0.84878 0.0
H1091 H 0.97422 0.80123 0.88819 0.0
H1092 H 0.08028 0.94221 0.8667 0.0
H1093 H 0.05696 0.92132 0.82715 0.0
H1094 H 0.11941 0.93286 0.89812 0.0
H1095 H 0.95529 0.896 0.90451 0.0
H1096 H 0.86852 0.84641 0.8993 0.0
H1097 H 0.86884 0.7325 0.93664 0.0
H1098 H 0.95538 0.78185 0.94256 0.0
H1099 H 0.16021 0.03204 1.0108 0.0
H1100 H 0.13251 0.00722 0.97189 0.0
H1101 H 0.06558 0.86126 0.99362 0.0
H1102 H 0.09367 0.88612 1.03277 0.0
H1103 H 0.00638 0.87127 0.96342 0.0
H1104 H 0.1732 0.91871 0.96003 0.0
H1105 H 0.25893 0.97396 0.96528 0.0
H1106 H 0.25145 0.07598 0.92107 0.0
H1107 H 0.16556 0.02146 0.91572 0.0
C1108 C 0.97679 0.81744 0.85235 0.0
C1109 C -0.00046 0.84999 0.83407 0.0
C1110 C -0.00821 0.82891 0.87543 0.0
C1111 C 0.029 0.87444 0.88183 0.0
C1112 C 0.05166 0.90677 0.86337 0.0
C1113 C 0.03781 0.89474 0.84025 0.0
C1114 C 0.04524 0.8883 0.90708 0.0
C1115 C 0.09386 0.91963 0.91207 0.0
C1116 C 0.01389 0.87149 0.92653 0.0
C1117 C 0.96174 0.84241 0.92379 0.0
C1118 C 0.93674 0.86043 0.91168 0.0
C1119 C 0.88761 0.83243 0.90868 0.0
C1120 C 0.86317 0.78633 0.91764 0.0
C1121 C 0.88776 0.76828 0.92979 0.0
C1122 C 0.93678 0.79635 0.93313 0.0
C1123 C 0.13985 -0.0055 1.0075 0.0
C1124 C 0.13002 0.96153 1.02561 0.0
C1125 C 0.12385 0.98009 0.98484 0.0
C1126 C 0.09675 0.9318 0.97888 0.0
C1127 C 0.08625 0.89873 0.99703 0.0
C1128 C 0.10278 0.91317 1.01972 0.0
C1129 C 0.07996 0.91625 0.95405 0.0
C1130 C 0.03148 0.88457 0.94926 0.0
C1131 C 0.11119 0.93371 0.93472 0.0
C1132 C 0.16291 0.96615 0.93762 0.0
C1133 C 0.18982 0.953 0.95151 0.0
C1134 C 0.23844 0.98417 0.95448 0.0
C1135 C 0.26061 0.02848 0.94354 0.0
C1136 C 0.23424 0.04165 0.92953 0.0
C1137 C 0.18561 0.0106 0.92649 0.0
H1138 H 0.29823 0.05259 0.9459 0.0
H1139 H 0.82519 0.76463 0.91519 0.0
loop_
_geom_bond_atom_site_label_1
_geom_bond_atom_site_label_2
_geom_bond_distance
_geom_bond_site_symmetry_2
_ccdc_geom_bond_type
Tb0 C9 2.764 . S
Tb0 O10 2.325 1_565 S
Tb0 O13 2.303 . S
Tb0 O17 2.348 . S
Tb0 O18 2.349 . S
Tb0 O21 2.415 . S
Tb0 O22 2.399 . S
Tb1 O11 2.322 . S
Tb1 O12 2.349 . S
Tb1 O14 2.415 1_554 S
Tb1 O15 2.399 1_554 S
Tb1 O16 2.325 1_554 S
Tb1 O19 2.303 . S
Tb1 C30 2.764 1_554 S
C2 O18 1.261 1_545 S
C2 O19 1.257 . S
C3 C6 1.358 . S
C3 C7 1.332 . S
C3 C9 1.504 . S
C4 C5 1.373 . S
C4 C8 1.308 . S
C5 C4 1.373 . S
C5 C6 1.429 . S
C5 H32 0.932 . S
C6 C3 1.358 . S
C6 C5 1.429 . S
C6 H33 0.930 . S
C7 C3 1.332 . S
C7 C8 1.394 . S
C7 H34 0.932 . S
C8 C4 1.308 . S
C8 C7 1.394 . S
C8 H35 0.929 . S
C9 Tb0 2.764 . S
C9 C3 1.504 . S
C9 O21 1.239 . S
C9 O22 1.263 . S
O10 Tb0 2.325 1_545 S
O10 C20 1.236 . S
O11 Tb1 2.322 . S
O11 C20 1.257 . S
O12 Tb1 2.349 . S
O12 C23 1.261 . S
O13 Tb0 2.303 . S
O13 C23 1.257 1_565 S
O14 Tb1 2.415 1_556 S
O14 C30 1.239 . S
O15 Tb1 2.399 1_556 S
O15 C30 1.263 . S
O16 Tb1 2.325 1_556 S
O16 C31 1.236 1_545 S
O17 Tb0 2.348 . S
O17 C31 1.236 1_554 S
O18 Tb0 2.349 . S
O18 C2 1.261 1_565 S
O19 Tb1 2.303 . S
O19 C2 1.257 . S
C20 O10 1.236 . S
C20 O11 1.257 . S
O21 Tb0 2.415 . S
O21 C9 1.239 . S
O22 Tb0 2.399 . S
O22 C9 1.263 . S
C23 O12 1.261 . S
C23 O13 1.257 1_545 S
C24 C27 1.358 . S
C24 C28 1.332 . S
C24 C30 1.504 . S
C25 C26 1.373 . S
C25 C29 1.308 . S
C26 C25 1.373 . S
C26 C27 1.429 . S
C26 H36 0.932 . S
C27 C24 1.358 . S
C27 C26 1.429 . S
C27 H37 0.930 . S
C28 C24 1.332 . S
C28 C29 1.394 . S
C28 H38 0.932 . S
C29 C25 1.308 . S
C29 C28 1.394 . S
C29 H39 0.929 . S
C30 Tb1 2.764 1_556 S
C30 O14 1.239 . S
C30 O15 1.263 . S
C30 C24 1.504 . S
C31 O16 1.236 1_565 S
C31 O17 1.236 1_556 S
H32 C5 0.932 . S
H33 C6 0.930 . S
H34 C7 0.932 . S
H35 C8 0.929 . S
H36 C26 0.932 . S
H37 C27 0.930 . S
H38 C28 0.932 . S
H39 C29 0.929 . S
Tb40 C49 2.764 . S
Tb40 O50 2.325 . S
Tb40 O53 2.303 . S
Tb40 O57 2.322 . S
Tb40 O58 2.349 . S
Tb40 O61 2.415 . S
Tb40 O62 2.399 . S
Tb41 O51 2.322 . S
Tb41 O52 2.349 . S
Tb41 O54 2.415 . S
Tb41 O55 2.399 . S
Tb41 O56 2.325 . S
Tb41 O59 2.303 . S
Tb41 C70 2.764 . S
C42 O58 1.261 . S
C42 O59 1.257 . S
C43 C46 1.358 . S
C43 C47 1.332 . S
C43 C49 1.504 . S
C44 C45 1.373 . S
C44 C48 1.308 . S
C45 C44 1.373 . S
C45 C46 1.429 . S
C45 H72 0.932 . S
C46 C43 1.358 . S
C46 C45 1.429 . S
C46 H73 0.930 . S
C47 C43 1.332 . S
C47 C48 1.394 . S
C47 H74 0.932 . S
C48 C44 1.308 . S
C48 C47 1.394 . S
C48 H75 0.929 . S
C49 Tb40 2.764 . S
C49 C43 1.504 . S
C49 O61 1.239 . S
C49 O62 1.263 . S
O50 Tb40 2.325 . S
O50 C60 1.236 . S
O51 Tb41 2.322 . S
O51 C60 1.257 . S
O52 Tb41 2.349 . S
O52 C63 1.261 . S
O53 Tb40 2.303 . S
O53 C63 1.257 . S
O54 Tb41 2.415 . S
O54 C70 1.239 . S
O55 Tb41 2.399 . S
O55 C70 1.263 . S
O56 Tb41 2.325 . S
O56 C71 1.236 . S
O57 Tb40 2.322 . S
O57 C71 1.257 . S
O58 Tb40 2.349 . S
O58 C42 1.261 . S
O59 Tb41 2.303 . S
O59 C42 1.257 . S
C60 O50 1.236 . S
C60 O51 1.257 . S
O61 Tb40 2.415 . S
O61 C49 1.239 . S
O62 Tb40 2.399 . S
O62 C49 1.263 . S
C63 O52 1.261 . S
C63 O53 1.257 . S
C64 C67 1.358 . S
C64 C68 1.332 . S
C64 C70 1.504 . S
C65 C66 1.373 . S
C65 C69 1.308 . S
C66 C65 1.373 . S
C66 C67 1.429 . S
C66 H76 0.932 . S
C67 C64 1.358 . S
C67 C66 1.429 . S
C67 H77 0.930 . S
C68 C64 1.332 . S
C68 C69 1.394 . S
C68 H78 0.932 . S
C69 C65 1.308 . S
C69 C68 1.394 . S
C69 H79 0.929 . S
C70 Tb41 2.764 . S
C70 O54 1.239 . S
C70 O55 1.263 . S
C70 C64 1.504 . S
C71 O56 1.236 . S
C71 O57 1.257 . S
H72 C45 0.932 . S
H73 C46 0.930 . S
H74 C47 0.932 . S
H75 C48 0.929 . S
H76 C66 0.932 . S
H77 C67 0.930 . S
H78 C68 0.932 . S
H79 C69 0.929 . S
Tb80 C89 2.764 . S
Tb80 O90 2.325 . S
Tb80 O93 2.303 . S
Tb80 O97 2.322 . S
Tb80 O98 2.349 . S
Tb80 O101 2.415 . S
Tb80 O102 2.399 . S
Tb81 O91 2.322 . S
Tb81 O92 2.349 1_655 S
Tb81 O94 2.415 . S
Tb81 O95 2.399 . S
Tb81 O96 2.325 1_655 S
Tb81 O99 2.303 1_655 S
Tb81 C110 2.764 . S
C82 O98 1.261 . S
C82 O99 1.257 . S
C83 C86 1.358 . S
C83 C87 1.332 . S
C83 C89 1.504 . S
C84 C85 1.373 . S
C84 C88 1.308 . S
C85 C84 1.373 . S
C85 C86 1.429 . S
C85 H112 0.932 . S
C86 C83 1.358 . S
C86 C85 1.429 . S
C86 H113 0.930 . S
C87 C83 1.332 . S
C87 C88 1.394 . S
C87 H114 0.932 . S
C88 C84 1.308 . S
C88 C87 1.394 . S
C88 H115 0.929 . S
C89 Tb80 2.764 . S
C89 C83 1.504 . S
C89 O101 1.239 . S
C89 O102 1.263 . S
O90 Tb80 2.325 . S
O90 C100 1.236 . S
O91 Tb81 2.322 . S
O91 C100 1.257 1_655 S
O92 Tb81 2.349 1_455 S
O92 C103 1.261 . S
O93 Tb80 2.303 . S
O93 C103 1.257 . S
O94 Tb81 2.415 . S
O94 C110 1.239 . S
O95 Tb81 2.399 . S
O95 C110 1.263 . S
O96 Tb81 2.325 1_455 S
O96 C111 1.236 . S
O97 Tb80 2.322 . S
O97 C111 1.257 . S
O98 Tb80 2.349 . S
O98 C82 1.261 . S
O99 Tb81 2.303 1_455 S
O99 C82 1.257 . S
C100 O90 1.236 . S
C100 O91 1.257 1_455 S
O101 Tb80 2.415 . S
O101 C89 1.239 . S
O102 Tb80 2.399 . S
O102 C89 1.263 . S
C103 O92 1.261 . S
C103 O93 1.257 . S
C104 C107 1.358 . S
C104 C108 1.332 . S
C104 C110 1.504 . S
C105 C106 1.373 . S
C105 C109 1.308 . S
C106 C105 1.373 . S
C106 C107 1.429 . S
C106 H116 0.932 . S
C107 C104 1.358 . S
C107 C106 1.429 . S
C107 H117 0.930 . S
C108 C104 1.332 . S
C108 C109 1.394 . S
C108 H118 0.932 . S
C109 C105 1.308 . S
C109 C108 1.394 . S
C109 H119 0.929 . S
C110 Tb81 2.764 . S
C110 O94 1.239 . S
C110 O95 1.263 . S
C110 C104 1.504 . S
C111 O96 1.236 . S
C111 O97 1.257 . S
H112 C85 0.932 . S
H113 C86 0.930 . S
H114 C87 0.932 . S
H115 C88 0.929 . S
H116 C106 0.932 . S
H117 C107 0.930 . S
H118 C108 0.932 . S
H119 C109 0.929 . S
Tb120 C129 2.743 1_554 S
Tb120 O130 2.312 1_564 S
Tb120 O133 2.311 . S
Tb120 O137 2.345 . S
Tb120 O138 2.352 . S
Tb120 O141 2.397 1_554 S
Tb120 O142 2.380 1_554 S
Tb121 O131 2.322 1_554 S
Tb121 O132 2.349 . S
Tb121 O134 2.415 . S
Tb121 O135 2.399 . S
Tb121 O136 2.325 . S
Tb121 O139 2.303 . S
Tb121 C150 2.764 . S
C122 O138 1.261 1_545 S
C122 O139 1.257 . S
C123 C126 1.358 . S
C123 C127 1.332 . S
C123 C129 1.504 . S
C124 C125 1.373 . S
C124 C128 1.308 . S
C125 C124 1.373 . S
C125 C126 1.429 . S
C125 H152 0.932 . S
C126 C123 1.358 . S
C126 C125 1.429 . S
C126 H153 0.930 . S
C127 C123 1.332 . S
C127 C128 1.394 . S
C127 H154 0.932 . S
C128 C124 1.308 . S
C128 C127 1.394 . S
C128 H155 0.929 . S
C129 Tb120 2.743 1_556 S
C129 C123 1.504 . S
C129 O141 1.239 . S
C129 O142 1.263 . S
O130 Tb120 2.312 1_546 S
O130 C140 1.236 . S
O131 Tb121 2.322 1_556 S
O131 C140 1.257 . S
O132 Tb121 2.349 . S
O132 C143 1.261 . S
O133 Tb120 2.311 . S
O133 C143 1.257 1_565 S
O134 Tb121 2.415 . S
O134 C150 1.239 . S
O135 Tb121 2.399 . S
O135 C150 1.263 . S
O136 Tb121 2.325 . S
O136 C151 1.236 1_545 S
O137 Tb120 2.345 . S
O137 C151 1.257 . S
O138 Tb120 2.352 . S
O138 C122 1.261 1_565 S
O139 Tb121 2.303 . S
O139 C122 1.257 . S
C140 O130 1.236 . S
C140 O131 1.257 . S
O141 Tb120 2.397 1_556 S
O141 C129 1.239 . S
O142 Tb120 2.380 1_556 S
O142 C129 1.263 . S
C143 O132 1.261 . S
C143 O133 1.257 1_545 S
C144 C147 1.358 . S
C144 C148 1.332 . S
C144 C150 1.504 . S
C145 C146 1.373 . S
C145 C149 1.308 . S
C146 C145 1.373 . S
C146 C147 1.429 . S
C146 H156 0.932 . S
C147 C144 1.358 . S
C147 C146 1.429 . S
C147 H157 0.930 . S
C148 C144 1.332 . S
C148 C149 1.394 . S
C148 H158 0.932 . S
C149 C145 1.308 . S
C149 C148 1.394 . S
C149 H159 0.929 . S
C150 Tb121 2.764 . S
C150 O134 1.239 . S
C150 O135 1.263 . S
C150 C144 1.504 . S
C151 O136 1.236 1_565 S
C151 O137 1.257 . S
H152 C125 0.932 . S
H153 C126 0.930 . S
H154 C127 0.932 . S
H155 C128 0.929 . S
H156 C146 0.932 . S
H157 C147 0.930 . S
H158 C148 0.932 . S
H159 C149 0.929 . S
Tb160 C169 2.764 . S
Tb160 O170 2.325 . S
Tb160 O173 2.303 . S
Tb160 O177 2.322 . S
Tb160 O178 2.349 . S
Tb160 O181 2.415 . S
Tb160 O182 2.399 . S
Tb161 O171 2.322 . S
Tb161 O172 2.349 . S
Tb161 O174 2.415 . S
Tb161 O175 2.399 . S
Tb161 O176 2.325 . S
Tb161 O179 2.303 . S
Tb161 C190 2.764 . S
C162 O178 1.261 . S
C162 O179 1.257 . S
C163 C166 1.358 . S
C163 C167 1.332 . S
C163 C169 1.504 . S
C164 C165 1.373 . S
C164 C168 1.308 . S
C165 C164 1.373 . S
C165 C166 1.429 . S
C165 H192 0.932 . S
C166 C163 1.358 . S
C166 C165 1.429 . S
C166 H193 0.930 . S
C167 C163 1.332 . S
C167 C168 1.394 . S
C167 H194 0.932 . S
C168 C164 1.308 . S
C168 C167 1.394 . S
C168 H195 0.929 . S
C169 Tb160 2.764 . S
C169 C163 1.504 . S
C169 O181 1.239 . S
C169 O182 1.263 . S
O170 Tb160 2.325 . S
O170 C180 1.236 . S
O171 Tb161 2.322 . S
O171 C180 1.257 . S
O172 Tb161 2.349 . S
O172 C183 1.261 . S
O173 Tb160 2.303 . S
O173 C183 1.257 . S
O174 Tb161 2.415 . S
O174 C190 1.239 . S
O175 Tb161 2.399 . S
O175 C190 1.263 . S
O176 Tb161 2.325 . S
O176 C191 1.236 . S
O177 Tb160 2.322 . S
O177 C191 1.257 . S
O178 Tb160 2.349 . S
O178 C162 1.261 . S
O179 Tb161 2.303 . S
O179 C162 1.257 . S
C180 O170 1.236 . S
C180 O171 1.257 . S
O181 Tb160 2.415 . S
O181 C169 1.239 . S
O182 Tb160 2.399 . S
O182 C169 1.263 . S
C183 O172 1.261 . S
C183 O173 1.257 . S
C184 C187 1.358 . S
C184 C188 1.332 . S
C184 C190 1.504 . S
C185 C186 1.373 . S
C185 C189 1.308 . S
C186 C185 1.373 . S
C186 C187 1.429 . S
C186 H196 0.932 . S
C187 C184 1.358 . S
C187 C186 1.429 . S
C187 H197 0.930 . S
C188 C184 1.332 . S
C188 C189 1.394 . S
C188 H198 0.932 . S
C189 C185 1.308 . S
C189 C188 1.394 . S
C189 H199 0.929 . S
C190 Tb161 2.764 . S
C190 O174 1.239 . S
C190 O175 1.263 . S
C190 C184 1.504 . S
C191 O176 1.236 . S
C191 O177 1.257 . S
H192 C165 0.932 . S
H193 C166 0.930 . S
H194 C167 0.932 . S
H195 C168 0.929 . S
H196 C186 0.932 . S
H197 C187 0.930 . S
H198 C188 0.932 . S
H199 C189 0.929 . S
Tb200 C209 2.764 . S
Tb200 O210 2.325 . S
Tb200 O213 2.303 . S
Tb200 O217 2.322 . S
Tb200 O218 2.349 . S
Tb200 O221 2.415 . S
Tb200 O222 2.399 . S
Tb201 O211 2.322 . S
Tb201 O212 2.349 1_655 S
Tb201 O214 2.415 . S
Tb201 O215 2.399 . S
Tb201 O216 2.325 1_655 S
Tb201 O219 2.303 1_655 S
Tb201 C230 2.764 . S
C202 O218 1.261 . S
C202 O219 1.257 . S
C203 C206 1.358 . S
C203 C207 1.332 . S
C203 C209 1.504 . S
C204 C205 1.373 . S
C204 C208 1.308 . S
C205 C204 1.373 . S
C205 C206 1.429 . S
C205 H232 0.932 . S
C206 C203 1.358 . S
C206 C205 1.429 . S
C206 H233 0.930 . S
C207 C203 1.332 . S
C207 C208 1.394 . S
C207 H234 0.932 . S
C208 C204 1.308 . S
C208 C207 1.394 . S
C208 H235 0.929 . S
C209 Tb200 2.764 . S
C209 C203 1.504 . S
C209 O221 1.239 . S
C209 O222 1.263 . S
O210 Tb200 2.325 . S
O210 C220 1.236 . S
O211 Tb201 2.322 . S
O211 C220 1.257 1_655 S
O212 Tb201 2.349 1_455 S
O212 C223 1.261 . S
O213 Tb200 2.303 . S
O213 C223 1.257 . S
O214 Tb201 2.415 . S
O214 C230 1.239 . S
O215 Tb201 2.399 . S
O215 C230 1.263 . S
O216 Tb201 2.325 1_455 S
O216 C231 1.236 . S
O217 Tb200 2.322 . S
O217 C231 1.257 . S
O218 Tb200 2.349 . S
O218 C202 1.261 . S
O219 Tb201 2.303 1_455 S
O219 C202 1.257 . S
C220 O210 1.236 . S
C220 O211 1.257 1_455 S
O221 Tb200 2.415 . S
O221 C209 1.239 . S
O222 Tb200 2.399 . S
O222 C209 1.263 . S
C223 O212 1.261 . S
C223 O213 1.257 . S
C224 C227 1.358 . S
C224 C228 1.332 . S
C224 C230 1.504 . S
C225 C226 1.373 . S
C225 C229 1.308 . S
C226 C225 1.373 . S
C226 C227 1.429 . S
C226 H236 0.932 . S
C227 C224 1.358 . S
C227 C226 1.429 . S
C227 H237 0.930 . S
C228 C224 1.332 . S
C228 C229 1.394 . S
C228 H238 0.932 . S
C229 C225 1.308 . S
C229 C228 1.394 . S
C229 H239 0.929 . S
C230 Tb201 2.764 . S
C230 O214 1.239 . S
C230 O215 1.263 . S
C230 C224 1.504 . S
C231 O216 1.236 . S
C231 O217 1.257 . S
H232 C205 0.932 . S
H233 C206 0.930 . S
H234 C207 0.932 . S
H235 C208 0.929 . S
H236 C226 0.932 . S
H237 C227 0.930 . S
H238 C228 0.932 . S
H239 C229 0.929 . S
H240 C258 0.951 . S
H241 C260 0.951 . S
H242 C262 0.950 . S
H243 C263 0.950 . S
H244 C265 0.950 . S
H245 C268 0.950 . S
H246 C269 0.950 . S
H247 C271 0.950 . S
H248 C272 0.950 . S
H249 C273 0.951 . S
H250 C275 0.951 . S
H251 C277 0.950 1_556 S
H252 C278 0.950 1_556 S
H253 C280 0.950 . S
H254 C283 0.950 1_556 S
H255 C284 0.950 . S
H256 C286 0.950 . S
H257 C287 0.950 . S
C258 H240 0.951 . S
C258 C259 1.366 1_566 S
C258 C260 1.388 . S
C259 C258 1.366 1_544 S
C259 C263 1.385 . S
C260 H241 0.951 . S
C260 C258 1.388 . S
C260 C261 1.366 1_566 S
C261 C260 1.366 1_544 S
C261 C262 1.414 . S
C261 C264 1.499 . S
C262 H242 0.950 . S
C262 C261 1.414 . S
C262 C263 1.374 . S
C263 H243 0.950 . S
C263 C259 1.385 . S
C263 C262 1.374 . S
C264 C261 1.499 . S
C264 C265 1.373 . S
C264 C266 1.389 1_545 S
C265 H244 0.950 . S
C265 C264 1.373 . S
C265 C281 1.377 1_655 S
C266 C264 1.389 1_565 S
C266 C267 1.524 . S
C266 C280 1.377 . S
C267 C266 1.524 . S
C267 C268 1.397 . S
C267 C272 1.363 1_554 S
C268 H245 0.950 . S
C268 C267 1.397 . S
C268 C269 1.334 . S
C269 H246 0.950 . S
C269 C268 1.334 . S
C269 C270 1.287 . S
C270 C269 1.287 . S
C270 C271 1.524 1_554 S
C270 H289 0.913 . S
C271 H247 0.950 . S
C271 C270 1.524 1_556 S
C271 C272 1.415 . S
C272 H248 0.950 . S
C272 C267 1.363 1_556 S
C272 C271 1.415 . S
C273 H249 0.951 . S
C273 C274 1.366 . S
C273 C275 1.388 . S
C274 C273 1.366 . S
C274 C278 1.385 1_545 S
C275 H250 0.951 . S
C275 C273 1.388 . S
C275 C276 1.366 . S
C276 C275 1.366 . S
C276 C277 1.414 1_545 S
C276 C279 1.499 . S
C277 H251 0.950 1_554 S
C277 C276 1.414 1_565 S
C277 C278 1.374 . S
C278 H252 0.950 1_554 S
C278 C274 1.385 1_565 S
C278 C277 1.374 . S
C279 C276 1.499 . S
C279 C280 1.373 1_445 S
C279 C281 1.389 . S
C280 H253 0.950 . S
C280 C266 1.377 . S
C280 C279 1.373 1_665 S
C281 C265 1.377 1_455 S
C281 C279 1.389 . S
C281 C282 1.524 . S
C282 C281 1.524 . S
C282 C283 1.397 . S
C282 C287 1.363 . S
C283 H254 0.950 1_554 S
C283 C282 1.397 . S
C283 C284 1.334 . S
C284 H255 0.950 . S
C284 C283 1.334 . S
C284 C285 1.287 . S
C285 C284 1.287 . S
C285 C286 1.524 . S
C285 H288 0.999 . S
C286 H256 0.950 . S
C286 C285 1.524 . S
C286 C287 1.415 . S
C287 H257 0.950 . S
C287 C282 1.363 . S
C287 C286 1.415 . S
H288 C285 0.999 . S
H289 C270 0.913 . S
H290 C308 0.951 . S
H291 C310 0.951 . S
H292 C312 0.950 . S
H293 C313 0.950 . S
H294 C315 0.950 . S
H295 C318 0.950 . S
H296 C319 0.950 . S
H297 C321 0.950 . S
H298 C322 0.950 . S
H299 C323 0.951 . S
H300 C325 0.951 . S
H301 C327 0.950 . S
H302 C328 0.950 . S
H303 C330 0.950 . S
H304 C333 0.950 . S
H305 C334 0.950 . S
H306 C336 0.950 . S
H307 C337 0.950 . S
C308 H290 0.951 . S
C308 C309 1.366 . S
C308 C310 1.388 . S
C309 C308 1.366 . S
C309 C313 1.385 . S
C310 H291 0.951 . S
C310 C308 1.388 . S
C310 C311 1.371 . S
C311 C310 1.371 . S
C311 C312 1.423 . S
C311 C314 1.487 1_565 S
C312 H292 0.950 . S
C312 C311 1.423 . S
C312 C313 1.374 . S
C313 H293 0.950 . S
C313 C309 1.385 . S
C313 C312 1.374 . S
C314 C311 1.487 1_545 S
C314 C315 1.373 . S
C314 C316 1.389 . S
C315 H294 0.950 . S
C315 C314 1.373 . S
C315 C331 1.377 1_655 S
C316 C314 1.389 . S
C316 C317 1.524 . S
C316 C330 1.377 . S
C317 C316 1.524 . S
C317 C318 1.397 . S
C317 C322 1.363 . S
C318 H295 0.950 . S
C318 C317 1.397 . S
C318 C319 1.334 . S
C319 H296 0.950 . S
C319 C318 1.334 . S
C319 C320 1.287 . S
C320 C319 1.287 . S
C320 C321 1.524 . S
C320 H339 0.913 . S
C321 H297 0.950 . S
C321 C320 1.524 . S
C321 C322 1.415 . S
C322 H298 0.950 . S
C322 C317 1.363 . S
C322 C321 1.415 . S
C323 H299 0.951 . S
C323 C324 1.366 . S
C323 C325 1.388 . S
C324 C323 1.366 . S
C324 C328 1.385 . S
C325 H300 0.951 . S
C325 C323 1.388 . S
C325 C326 1.366 . S
C326 C325 1.366 . S
C326 C327 1.414 . S
C326 C329 1.499 . S
C327 H301 0.950 . S
C327 C326 1.414 . S
C327 C328 1.374 . S
C328 H302 0.950 . S
C328 C324 1.385 . S
C328 C327 1.374 . S
C329 C326 1.499 . S
C329 C330 1.373 1_455 S
C329 C331 1.389 . S
C330 H303 0.950 . S
C330 C316 1.377 . S
C330 C329 1.373 1_655 S
C331 C315 1.377 1_455 S
C331 C329 1.389 . S
C331 C332 1.524 . S
C332 C331 1.524 . S
C332 C333 1.397 . S
C332 C337 1.363 . S
C333 H304 0.950 . S
C333 C332 1.397 . S
C333 C334 1.334 . S
C334 H305 0.950 . S
C334 C333 1.334 . S
C334 C335 1.287 . S
C335 C334 1.287 . S
C335 C336 1.524 . S
C335 H338 0.999 . S
C336 H306 0.950 . S
C336 C335 1.524 . S
C336 C337 1.415 . S
C337 H307 0.950 . S
C337 C332 1.363 . S
C337 C336 1.415 . S
H338 C335 0.999 . S
H339 C320 0.913 . S
H340 C358 0.951 . S
H341 C360 0.951 1_545 S
H342 C362 0.950 . S
H343 C363 0.950 . S
H344 C365 0.950 1_655 S
H345 C368 0.950 . S
H346 C369 0.950 . S
H347 C371 0.950 . S
H348 C372 0.950 . S
H349 C373 0.951 . S
H350 C375 0.951 . S
H351 C377 0.950 . S
H352 C378 0.950 . S
H353 C380 0.950 . S
H354 C383 0.950 . S
H355 C384 0.950 . S
H356 C386 0.950 . S
H357 C387 0.950 . S
C358 H340 0.951 . S
C358 C359 1.366 . S
C358 C360 1.388 . S
C359 C358 1.366 . S
C359 C363 1.385 . S
C360 H341 0.951 1_565 S
C360 C358 1.388 . S
C360 C361 1.373 . S
C361 C360 1.373 . S
C361 C362 1.423 . S
C361 C364 1.482 1_565 S
C362 H342 0.950 . S
C362 C361 1.423 . S
C362 C363 1.374 . S
C363 H343 0.950 . S
C363 C359 1.385 . S
C363 C362 1.374 . S
C364 C361 1.482 1_545 S
C364 C365 1.373 . S
C364 C366 1.389 . S
C365 H344 0.950 1_455 S
C365 C364 1.373 . S
C365 C381 1.377 . S
C366 C364 1.389 . S
C366 C367 1.524 . S
C366 C380 1.377 . S
C367 C366 1.524 . S
C367 C368 1.397 . S
C367 C372 1.363 . S
C368 H345 0.950 . S
C368 C367 1.397 . S
C368 C369 1.334 . S
C369 H346 0.950 . S
C369 C368 1.334 . S
C369 C370 1.287 . S
C370 C369 1.287 . S
C370 C371 1.524 . S
C370 H389 0.913 . S
C371 H347 0.950 . S
C371 C370 1.524 . S
C371 C372 1.415 . S
C372 H348 0.950 . S
C372 C367 1.363 . S
C372 C371 1.415 . S
C373 H349 0.951 . S
C373 C374 1.366 . S
C373 C375 1.388 . S
C374 C373 1.366 . S
C374 C378 1.385 . S
C375 H350 0.951 . S
C375 C373 1.388 . S
C375 C376 1.366 . S
C376 C375 1.366 . S
C376 C377 1.414 . S
C376 C379 1.499 . S
C377 H351 0.950 . S
C377 C376 1.414 . S
C377 C378 1.374 . S
C378 H352 0.950 . S
C378 C374 1.385 . S
C378 C377 1.374 . S
C379 C376 1.499 . S
C379 C380 1.373 . S
C379 C381 1.389 . S
C380 H353 0.950 . S
C380 C366 1.377 . S
C380 C379 1.373 . S
C381 C365 1.377 . S
C381 C379 1.389 . S
C381 C382 1.524 1_455 S
C382 C381 1.524 1_655 S
C382 C383 1.397 . S
C382 C387 1.363 . S
C383 H354 0.950 . S
C383 C382 1.397 . S
C383 C384 1.334 . S
C384 H355 0.950 . S
C384 C383 1.334 . S
C384 C385 1.287 . S
C385 C384 1.287 . S
C385 C386 1.524 . S
C385 H388 0.999 . S
C386 H356 0.950 . S
C386 C385 1.524 . S
C386 C387 1.415 . S
C387 H357 0.950 . S
C387 C382 1.363 . S
C387 C386 1.415 . S
H388 C385 0.999 . S
H389 C370 0.913 . S
H390 C408 0.951 . S
H391 C410 0.951 . S
H392 C412 0.950 . S
H393 C413 0.950 . S
H394 C415 0.950 . S
H395 C418 0.950 . S
H396 C419 0.950 . S
H397 C421 0.950 . S
H398 C422 0.950 . S
H399 C423 0.951 . S
H400 C425 0.951 . S
H401 C427 0.950 . S
H402 C428 0.950 . S
H403 C430 0.950 . S
H404 C433 0.950 . S
H405 C434 0.950 . S
H406 C436 0.950 . S
H407 C437 0.950 . S
C408 H390 0.951 . S
C408 C409 1.366 . S
C408 C410 1.388 . S
C409 C408 1.366 . S
C409 C413 1.385 . S
C410 H391 0.951 . S
C410 C408 1.388 . S
C410 C411 1.366 . S
C411 C410 1.366 . S
C411 C412 1.414 . S
C411 C414 1.499 . S
C412 H392 0.950 . S
C412 C411 1.414 . S
C412 C413 1.374 . S
C413 H393 0.950 . S
C413 C409 1.385 . S
C413 C412 1.374 . S
C414 C411 1.499 . S
C414 C415 1.373 . S
C414 C416 1.389 . S
C415 H394 0.950 . S
C415 C414 1.373 . S
C415 C431 1.377 . S
C416 C414 1.389 . S
C416 C417 1.524 . S
C416 C430 1.377 . S
C417 C416 1.524 . S
C417 C418 1.397 . S
C417 C422 1.363 . S
C418 H395 0.950 . S
C418 C417 1.397 . S
C418 C419 1.334 . S
C419 H396 0.950 . S
C419 C418 1.334 . S
C419 C420 1.287 . S
C420 C419 1.287 . S
C420 C421 1.524 . S
C420 H439 0.913 . S
C421 H397 0.950 . S
C421 C420 1.524 . S
C421 C422 1.415 . S
C422 H398 0.950 . S
C422 C417 1.363 . S
C422 C421 1.415 . S
C423 H399 0.951 . S
C423 C424 1.366 . S
C423 C425 1.388 . S
C424 C423 1.366 . S
C424 C428 1.385 . S
C425 H400 0.951 . S
C425 C423 1.388 . S
C425 C426 1.366 . S
C426 C425 1.366 . S
C426 C427 1.414 . S
C426 C429 1.499 . S
C427 H401 0.950 . S
C427 C426 1.414 . S
C427 C428 1.374 . S
C428 H402 0.950 . S
C428 C424 1.385 . S
C428 C427 1.374 . S
C429 C426 1.499 . S
C429 C430 1.373 . S
C429 C431 1.389 . S
C430 H403 0.950 . S
C430 C416 1.377 . S
C430 C429 1.373 . S
C431 C415 1.377 . S
C431 C429 1.389 . S
C431 C432 1.524 . S
C432 C431 1.524 . S
C432 C433 1.397 . S
C432 C437 1.363 . S
C433 H404 0.950 . S
C433 C432 1.397 . S
C433 C434 1.334 . S
C434 H405 0.950 . S
C434 C433 1.334 . S
C434 C435 1.287 . S
C435 C434 1.287 . S
C435 C436 1.524 . S
C435 H438 0.999 . S
C436 H406 0.950 . S
C436 C435 1.524 . S
C436 C437 1.415 . S
C437 H407 0.950 . S
C437 C432 1.363 . S
C437 C436 1.415 . S
H438 C435 0.999 . S
H439 C420 0.913 . S
H440 C458 0.951 . S
H441 C460 0.951 . S
H442 C462 0.950 . S
H443 C463 0.950 . S
H444 C465 0.950 . S
H445 C468 0.950 . S
H446 C469 0.950 . S
H447 C471 0.950 . S
H448 C472 0.950 . S
H449 C473 0.951 . S
H450 C475 0.951 . S
H451 C477 0.950 . S
H452 C478 0.950 . S
H453 C480 0.950 . S
H454 C483 0.950 . S
H455 C484 0.950 . S
H456 C486 0.950 . S
H457 C487 0.950 . S
C458 H440 0.951 . S
C458 C459 1.366 . S
C458 C460 1.388 . S
C459 C458 1.366 . S
C459 C463 1.385 . S
C460 H441 0.951 . S
C460 C458 1.388 . S
C460 C461 1.366 . S
C461 C460 1.366 . S
C461 C462 1.414 . S
C461 C464 1.499 1_455 S
C462 H442 0.950 . S
C462 C461 1.414 . S
C462 C463 1.374 . S
C463 H443 0.950 . S
C463 C459 1.385 . S
C463 C462 1.374 . S
C464 C461 1.499 1_655 S
C464 C465 1.373 . S
C464 C466 1.389 . S
C465 H444 0.950 . S
C465 C464 1.373 . S
C465 C481 1.377 . S
C466 C464 1.389 . S
C466 C467 1.524 1_655 S
C466 C480 1.377 . S
C467 C466 1.524 1_455 S
C467 C468 1.397 . S
C467 C472 1.363 . S
C468 H445 0.950 . S
C468 C467 1.397 . S
C468 C469 1.334 . S
C469 H446 0.950 . S
C469 C468 1.334 . S
C469 C470 1.287 . S
C470 C469 1.287 . S
C470 C471 1.524 . S
C470 H489 0.913 . S
C471 H447 0.950 . S
C471 C470 1.524 . S
C471 C472 1.415 . S
C472 H448 0.950 . S
C472 C467 1.363 . S
C472 C471 1.415 . S
C473 H449 0.951 . S
C473 C474 1.366 . S
C473 C475 1.388 . S
C474 C473 1.366 . S
C474 C478 1.385 . S
C475 H450 0.951 . S
C475 C473 1.388 . S
C475 C476 1.366 . S
C476 C475 1.366 . S
C476 C477 1.414 . S
C476 C479 1.499 . S
C477 H451 0.950 . S
C477 C476 1.414 . S
C477 C478 1.374 . S
C478 H452 0.950 . S
C478 C474 1.385 . S
C478 C477 1.374 . S
C479 C476 1.499 . S
C479 C480 1.373 . S
C479 C481 1.389 . S
C480 H453 0.950 . S
C480 C466 1.377 . S
C480 C479 1.373 . S
C481 C465 1.377 . S
C481 C479 1.389 . S
C481 C482 1.524 . S
C482 C481 1.524 . S
C482 C483 1.397 . S
C482 C487 1.363 . S
C483 H454 0.950 . S
C483 C482 1.397 . S
C483 C484 1.334 . S
C484 H455 0.950 . S
C484 C483 1.334 . S
C484 C485 1.287 . S
C485 C484 1.287 . S
C485 C486 1.524 . S
C485 H488 0.999 . S
C486 H456 0.950 . S
C486 C485 1.524 . S
C486 C487 1.415 . S
C487 H457 0.950 . S
C487 C482 1.363 . S
C487 C486 1.415 . S
H488 C485 0.999 . S
H489 C470 0.913 . S
H490 C508 0.951 . S
H491 C510 0.951 . S
H492 C512 0.950 . S
H493 C513 0.950 . S
H494 C515 0.950 . S
H495 C518 0.950 . S
H496 C519 0.950 . S
H497 C521 0.950 . S
H498 C522 0.950 . S
H499 C523 0.951 1_545 S
H500 C525 0.951 . S
H501 C527 0.950 . S
H502 C528 0.950 . S
H503 C530 0.950 . S
H504 C533 0.950 . S
H505 C534 0.950 . S
H506 C536 0.950 . S
H507 C537 0.950 . S
C508 H490 0.951 . S
C508 C509 1.366 . S
C508 C510 1.388 . S
C509 C508 1.366 . S
C509 C513 1.385 . S
C510 H491 0.951 . S
C510 C508 1.388 . S
C510 C511 1.366 . S
C511 C510 1.366 . S
C511 C512 1.414 . S
C511 C514 1.499 . S
C512 H492 0.950 . S
C512 C511 1.414 . S
C512 C513 1.374 . S
C513 H493 0.950 . S
C513 C509 1.385 . S
C513 C512 1.374 . S
C514 C511 1.499 . S
C514 C515 1.373 . S
C514 C516 1.389 . S
C515 H494 0.950 . S
C515 C514 1.373 . S
C515 C531 1.377 . S
C516 C514 1.389 . S
C516 C517 1.524 . S
C516 C530 1.377 . S
C517 C516 1.524 . S
C517 C518 1.397 . S
C517 C522 1.363 . S
C518 H495 0.950 . S
C518 C517 1.397 . S
C518 C519 1.334 . S
C519 H496 0.950 . S
C519 C518 1.334 . S
C519 C520 1.287 . S
C520 C519 1.287 . S
C520 C521 1.524 . S
C520 H539 0.913 . S
C521 H497 0.950 . S
C521 C520 1.524 . S
C521 C522 1.415 . S
C522 H498 0.950 . S
C522 C517 1.363 . S
C522 C521 1.415 . S
C523 H499 0.951 1_565 S
C523 C524 1.366 . S
C523 C525 1.388 1_565 S
C524 C523 1.366 . S
C524 C528 1.385 . S
C525 H500 0.951 . S
C525 C523 1.388 1_545 S
C525 C526 1.366 . S
C526 C525 1.366 . S
C526 C527 1.414 1_545 S
C526 C529 1.499 . S
C527 H501 0.950 . S
C527 C526 1.414 1_565 S
C527 C528 1.374 . S
C528 H502 0.950 . S
C528 C524 1.385 . S
C528 C527 1.374 . S
C529 C526 1.499 . S
C529 C530 1.373 . S
C529 C531 1.389 . S
C530 H503 0.950 . S
C530 C516 1.377 . S
C530 C529 1.373 . S
C531 C515 1.377 . S
C531 C529 1.389 . S
C531 C532 1.524 . S
C532 C531 1.524 . S
C532 C533 1.397 . S
C532 C537 1.363 . S
C533 H504 0.950 . S
C533 C532 1.397 . S
C533 C534 1.334 . S
C534 H505 0.950 . S
C534 C533 1.334 . S
C534 C535 1.287 . S
C535 C534 1.287 . S
C535 C536 1.524 . S
C535 H538 0.999 . S
C536 H506 0.950 . S
C536 C535 1.524 . S
C536 C537 1.415 . S
C537 H507 0.950 . S
C537 C532 1.363 . S
C537 C536 1.415 . S
H538 C535 0.999 . S
H539 C520 0.913 . S
H540 C558 0.951 . S
H541 C560 0.951 . S
H542 C562 0.950 . S
H543 C563 0.950 . S
H544 C565 0.950 . S
H545 C568 0.950 . S
H546 C569 0.950 . S
H547 C571 0.950 . S
H548 C572 0.950 . S
H549 C573 0.951 . S
H550 C575 0.951 . S
H551 C577 0.950 . S
H552 C578 0.950 . S
H553 C580 0.950 . S
H554 C583 0.950 . S
H555 C584 0.950 . S
H556 C586 0.950 . S
H557 C587 0.950 . S
C558 H540 0.951 . S
C558 C559 1.366 . S
C558 C560 1.388 . S
C559 C558 1.366 . S
C559 C563 1.385 . S
C560 H541 0.951 . S
C560 C558 1.388 . S
C560 C561 1.366 . S
C561 C560 1.366 . S
C561 C562 1.414 . S
C561 C564 1.499 . S
C562 H542 0.950 . S
C562 C561 1.414 . S
C562 C563 1.374 . S
C563 H543 0.950 . S
C563 C559 1.385 . S
C563 C562 1.374 . S
C564 C561 1.499 . S
C564 C565 1.373 . S
C564 C566 1.389 . S
C565 H544 0.950 . S
C565 C564 1.373 . S
C565 C581 1.377 . S
C566 C564 1.389 . S
C566 C567 1.524 . S
C566 C580 1.377 . S
C567 C566 1.524 . S
C567 C568 1.397 . S
C567 C572 1.363 . S
C568 H545 0.950 . S
C568 C567 1.397 . S
C568 C569 1.334 . S
C569 H546 0.950 . S
C569 C568 1.334 . S
C569 C570 1.287 . S
C570 C569 1.287 . S
C570 C571 1.524 . S
C570 H589 0.913 1_565 S
C571 H547 0.950 . S
C571 C570 1.524 . S
C571 C572 1.415 . S
C572 H548 0.950 . S
C572 C567 1.363 . S
C572 C571 1.415 . S
C573 H549 0.951 . S
C573 C574 1.366 . S
C573 C575 1.388 . S
C574 C573 1.366 . S
C574 C578 1.385 . S
C575 H550 0.951 . S
C575 C573 1.388 . S
C575 C576 1.366 . S
C576 C575 1.366 . S
C576 C577 1.414 . S
C576 C579 1.499 . S
C577 H551 0.950 . S
C577 C576 1.414 . S
C577 C578 1.374 . S
C578 H552 0.950 . S
C578 C574 1.385 . S
C578 C577 1.374 . S
C579 C576 1.499 . S
C579 C580 1.373 . S
C579 C581 1.389 . S
C580 H553 0.950 . S
C580 C566 1.377 . S
C580 C579 1.373 . S
C581 C565 1.377 . S
C581 C579 1.389 . S
C581 C582 1.524 . S
C582 C581 1.524 . S
C582 C583 1.397 . S
C582 C587 1.363 . S
C583 H554 0.950 . S
C583 C582 1.397 . S
C583 C584 1.334 . S
C584 H555 0.950 . S
C584 C583 1.334 . S
C584 C585 1.287 . S
C585 C584 1.287 . S
C585 C586 1.524 . S
C585 H588 0.999 . S
C586 H556 0.950 . S
C586 C585 1.524 . S
C586 C587 1.415 . S
C587 H557 0.950 . S
C587 C582 1.363 . S
C587 C586 1.415 . S
H588 C585 0.999 . S
H589 C570 0.913 1_545 S
H590 C608 0.951 . S
H591 C610 0.951 . S
H592 C612 0.950 . S
H593 C613 0.950 . S
H594 C615 0.950 . S
H595 C618 0.950 . S
H596 C619 0.950 . S
H597 C621 0.950 . S
H598 C622 0.950 . S
H599 C623 0.951 . S
H600 C625 0.951 . S
H601 C627 0.950 . S
H602 C628 0.950 . S
H603 C630 0.950 . S
H604 C633 0.950 . S
H605 C634 0.950 . S
H606 C636 0.950 . S
H607 C637 0.950 . S
C608 H590 0.951 . S
C608 C609 1.366 . S
C608 C610 1.388 . S
C609 C608 1.366 . S
C609 C613 1.385 . S
C610 H591 0.951 . S
C610 C608 1.388 . S
C610 C611 1.366 . S
C611 C610 1.366 . S
C611 C612 1.414 . S
C611 C614 1.499 . S
C612 H592 0.950 . S
C612 C611 1.414 . S
C612 C613 1.374 . S
C613 H593 0.950 . S
C613 C609 1.385 . S
C613 C612 1.374 . S
C614 C611 1.499 . S
C614 C615 1.373 . S
C614 C616 1.389 . S
C615 H594 0.950 . S
C615 C614 1.373 . S
C615 C631 1.377 . S
C616 C614 1.389 . S
C616 C617 1.524 . S
C616 C630 1.377 1_655 S
C617 C616 1.524 . S
C617 C618 1.397 . S
C617 C622 1.363 1_655 S
C618 H595 0.950 . S
C618 C617 1.397 . S
C618 C619 1.334 . S
C619 H596 0.950 . S
C619 C618 1.334 . S
C619 C620 1.287 1_655 S
C620 C619 1.287 1_455 S
C620 C621 1.524 . S
C620 H639 0.913 . S
C621 H597 0.950 . S
C621 C620 1.524 . S
C621 C622 1.415 . S
C622 H598 0.950 . S
C622 C617 1.363 1_455 S
C622 C621 1.415 . S
C623 H599 0.951 . S
C623 C624 1.366 . S
C623 C625 1.388 . S
C624 C623 1.366 . S
C624 C628 1.385 . S
C625 H600 0.951 . S
C625 C623 1.388 . S
C625 C626 1.366 . S
C626 C625 1.366 . S
C626 C627 1.414 . S
C626 C629 1.499 1_455 S
C627 H601 0.950 . S
C627 C626 1.414 . S
C627 C628 1.374 . S
C628 H602 0.950 . S
C628 C624 1.385 . S
C628 C627 1.374 . S
C629 C626 1.499 1_655 S
C629 C630 1.373 1_655 S
C629 C631 1.389 . S
C630 H603 0.950 . S
C630 C616 1.377 1_455 S
C630 C629 1.373 1_455 S
C631 C615 1.377 . S
C631 C629 1.389 . S
C631 C632 1.524 . S
C632 C631 1.524 . S
C632 C633 1.397 . S
C632 C637 1.363 . S
C633 H604 0.950 . S
C633 C632 1.397 . S
C633 C634 1.334 . S
C634 H605 0.950 . S
C634 C633 1.334 . S
C634 C635 1.287 . S
C635 C634 1.287 . S
C635 C636 1.524 . S
C635 H638 0.999 . S
C636 H606 0.950 . S
C636 C635 1.524 . S
C636 C637 1.415 . S
C637 H607 0.950 . S
C637 C632 1.363 . S
C637 C636 1.415 . S
H638 C635 0.999 . S
H639 C620 0.913 . S
H640 C658 0.951 . S
H641 C660 0.951 . S
H642 C662 0.950 . S
H643 C663 0.950 . S
H644 C665 0.950 . S
H645 C668 0.950 . S
H646 C669 0.950 . S
H647 C671 0.950 . S
H648 C672 0.950 . S
H649 C673 0.951 . S
H650 C675 0.951 . S
H651 C677 0.950 . S
H652 C678 0.950 . S
H653 C680 0.950 . S
H654 C683 0.950 . S
H655 C684 0.950 . S
H656 C686 0.950 . S
H657 C687 0.950 . S
C658 H640 0.951 . S
C658 C659 1.366 . S
C658 C660 1.388 1_565 S
C659 C658 1.366 . S
C659 C663 1.385 . S
C660 H641 0.951 . S
C660 C658 1.388 1_545 S
C660 C661 1.366 . S
C661 C660 1.366 . S
C661 C662 1.414 . S
C661 C664 1.499 . S
C662 H642 0.950 . S
C662 C661 1.414 . S
C662 C663 1.374 1_545 S
C663 H643 0.950 . S
C663 C659 1.385 . S
C663 C662 1.374 1_565 S
C664 C661 1.499 . S
C664 C665 1.373 . S
C664 C666 1.389 . S
C665 H644 0.950 . S
C665 C664 1.373 . S
C665 C681 1.377 . S
C666 C664 1.389 . S
C666 C667 1.524 . S
C666 C680 1.377 . S
C667 C666 1.524 . S
C667 C668 1.397 1_545 S
C667 C672 1.363 . S
C668 H645 0.950 . S
C668 C667 1.397 1_565 S
C668 C669 1.334 . S
C669 H646 0.950 . S
C669 C668 1.334 . S
C669 C670 1.287 . S
C670 C669 1.287 . S
C670 C671 1.524 . S
C670 H689 0.913 . S
C671 H647 0.950 . S
C671 C670 1.524 . S
C671 C672 1.415 1_565 S
C672 H648 0.950 . S
C672 C667 1.363 . S
C672 C671 1.415 1_545 S
C673 H649 0.951 . S
C673 C674 1.366 . S
C673 C675 1.388 . S
C674 C673 1.366 . S
C674 C678 1.385 . S
C675 H650 0.951 . S
C675 C673 1.388 . S
C675 C676 1.366 . S
C676 C675 1.366 . S
C676 C677 1.414 . S
C676 C679 1.499 . S
C677 H651 0.950 . S
C677 C676 1.414 . S
C677 C678 1.374 . S
C678 H652 0.950 . S
C678 C674 1.385 . S
C678 C677 1.374 . S
C679 C676 1.499 . S
C679 C680 1.373 . S
C679 C681 1.389 . S
C680 H653 0.950 . S
C680 C666 1.377 . S
C680 C679 1.373 . S
C681 C665 1.377 . S
C681 C679 1.389 . S
C681 C682 1.524 . S
C682 C681 1.524 . S
C682 C683 1.397 . S
C682 C687 1.363 . S
C683 H654 0.950 . S
C683 C682 1.397 . S
C683 C684 1.334 . S
C684 H655 0.950 . S
C684 C683 1.334 . S
C684 C685 1.287 . S
C685 C684 1.287 . S
C685 C686 1.524 . S
C685 H688 0.999 . S
C686 H656 0.950 . S
C686 C685 1.524 . S
C686 C687 1.415 . S
C687 H657 0.950 . S
C687 C682 1.363 . S
C687 C686 1.415 . S
H688 C685 0.999 . S
H689 C670 0.913 . S
H690 C708 0.951 . S
H691 C710 1.002 . S
H692 C712 0.950 . S
H693 C713 0.950 . S
H694 C715 0.950 . S
H695 C718 0.950 1_554 S
H696 C719 0.950 . S
H697 C721 0.950 . S
H698 C722 0.950 . S
H699 C723 0.951 . S
H700 C725 0.951 . S
H701 C727 0.950 1_556 S
H702 C728 0.950 1_556 S
H703 C730 0.950 1_556 S
H704 C733 0.950 . S
H705 C734 0.950 . S
H706 C736 0.950 . S
H707 C737 0.950 . S
C708 H690 0.951 . S
C708 C709 1.366 1_556 S
C708 C710 1.390 . S
C709 C708 1.366 1_554 S
C709 C713 1.385 . S
C710 H691 1.002 . S
C710 C708 1.390 . S
C710 C711 1.315 1_556 S
C711 C710 1.315 1_554 S
C711 C712 1.414 . S
C711 C714 1.499 . S
C712 H692 0.950 . S
C712 C711 1.414 . S
C712 C713 1.374 . S
C713 H693 0.950 . S
C713 C709 1.385 . S
C713 C712 1.374 . S
C714 C711 1.499 . S
C714 C715 1.373 . S
C714 C716 1.389 1_545 S
C715 H694 0.950 . S
C715 C714 1.373 . S
C715 C731 1.377 . S
C716 C714 1.389 1_565 S
C716 C717 1.524 1_554 S
C716 C730 1.377 . S
C717 C716 1.524 1_556 S
C717 C718 1.397 . S
C717 C722 1.363 . S
C718 H695 0.950 1_556 S
C718 C717 1.397 . S
C718 C719 1.334 . S
C719 H696 0.950 . S
C719 C718 1.334 . S
C719 C720 1.287 . S
C720 C719 1.287 . S
C720 C721 1.524 . S
C720 H739 0.913 . S
C721 H697 0.950 . S
C721 C720 1.524 . S
C721 C722 1.415 . S
C722 H698 0.950 . S
C722 C717 1.363 . S
C722 C721 1.415 . S
C723 H699 0.951 . S
C723 C724 1.366 . S
C723 C725 1.388 . S
C724 C723 1.366 . S
C724 C728 1.385 . S
C725 H700 0.951 . S
C725 C723 1.388 . S
C725 C726 1.366 . S
C726 C725 1.366 . S
C726 C727 1.414 . S
C726 C729 1.499 . S
C727 H701 0.950 1_554 S
C727 C726 1.414 . S
C727 C728 1.374 . S
C728 H702 0.950 1_554 S
C728 C724 1.385 . S
C728 C727 1.374 . S
C729 C726 1.499 . S
C729 C730 1.373 1_545 S
C729 C731 1.389 . S
C730 H703 0.950 1_554 S
C730 C716 1.377 . S
C730 C729 1.373 1_565 S
C731 C715 1.377 . S
C731 C729 1.389 . S
C731 C732 1.524 . S
C732 C731 1.524 . S
C732 C733 1.397 . S
C732 C737 1.363 . S
C733 H704 0.950 . S
C733 C732 1.397 . S
C733 C734 1.334 . S
C734 H705 0.950 . S
C734 C733 1.334 . S
C734 C735 1.287 . S
C735 C734 1.287 . S
C735 C736 1.524 . S
C735 H738 0.999 . S
C736 H706 0.950 . S
C736 C735 1.524 . S
C736 C737 1.415 . S
C737 H707 0.950 . S
C737 C732 1.363 . S
C737 C736 1.415 . S
H738 C735 0.999 . S
H739 C720 0.913 . S
H740 C758 0.951 . S
H741 C760 0.951 . S
H742 C762 0.950 . S
H743 C763 0.950 . S
H744 C765 0.950 . S
H745 C768 0.950 . S
H746 C769 0.950 . S
H747 C771 0.950 . S
H748 C772 0.950 . S
H749 C773 0.951 . S
H750 C775 0.951 . S
H751 C777 0.950 . S
H752 C778 0.950 . S
H753 C780 0.950 . S
H754 C783 0.950 . S
H755 C784 0.950 . S
H756 C786 0.950 . S
H757 C787 0.950 . S
C758 H740 0.951 . S
C758 C759 1.366 . S
C758 C760 1.388 . S
C759 C758 1.366 . S
C759 C763 1.385 . S
C760 H741 0.951 . S
C760 C758 1.388 . S
C760 C761 1.366 . S
C761 C760 1.366 . S
C761 C762 1.414 . S
C761 C764 1.499 . S
C762 H742 0.950 . S
C762 C761 1.414 . S
C762 C763 1.374 . S
C763 H743 0.950 . S
C763 C759 1.385 . S
C763 C762 1.374 . S
C764 C761 1.499 . S
C764 C765 1.373 . S
C764 C766 1.389 . S
C765 H744 0.950 . S
C765 C764 1.373 . S
C765 C781 1.377 . S
C766 C764 1.389 . S
C766 C767 1.524 . S
C766 C780 1.377 . S
C767 C766 1.524 . S
C767 C768 1.397 . S
C767 C772 1.363 . S
C768 H745 0.950 . S
C768 C767 1.397 . S
C768 C769 1.334 . S
C769 H746 0.950 . S
C769 C768 1.334 . S
C769 C770 1.287 . S
C770 C769 1.287 . S
C770 C771 1.524 . S
C770 H789 0.913 . S
C771 H747 0.950 . S
C771 C770 1.524 . S
C771 C772 1.415 . S
C772 H748 0.950 . S
C772 C767 1.363 . S
C772 C771 1.415 . S
C773 H749 0.951 . S
C773 C774 1.366 . S
C773 C775 1.388 . S
C774 C773 1.366 . S
C774 C778 1.385 . S
C775 H750 0.951 . S
C775 C773 1.388 . S
C775 C776 1.366 . S
C776 C775 1.366 . S
C776 C777 1.414 . S
C776 C779 1.499 . S
C777 H751 0.950 . S
C777 C776 1.414 . S
C777 C778 1.374 . S
C778 H752 0.950 . S
C778 C774 1.385 . S
C778 C777 1.374 . S
C779 C776 1.499 . S
C779 C780 1.373 . S
C779 C781 1.389 . S
C780 H753 0.950 . S
C780 C766 1.377 . S
C780 C779 1.373 . S
C781 C765 1.377 . S
C781 C779 1.389 . S
C781 C782 1.524 . S
C782 C781 1.524 . S
C782 C783 1.397 . S
C782 C787 1.363 . S
C783 H754 0.950 . S
C783 C782 1.397 . S
C783 C784 1.334 . S
C784 H755 0.950 . S
C784 C783 1.334 . S
C784 C785 1.287 . S
C785 C784 1.287 . S
C785 C786 1.524 . S
C785 H788 0.999 . S
C786 H756 0.950 . S
C786 C785 1.524 . S
C786 C787 1.415 . S
C787 H757 0.950 . S
C787 C782 1.363 . S
C787 C786 1.415 . S
H788 C785 0.999 . S
H789 C770 0.913 . S
H790 C808 0.951 . S
H791 C810 0.951 . S
H792 C812 0.950 . S
H793 C813 0.950 . S
H794 C815 0.950 . S
H795 C818 0.950 . S
H796 C819 0.950 . S
H797 C821 0.950 . S
H798 C822 0.950 . S
H799 C823 0.951 . S
H800 C825 0.951 . S
H801 C827 0.950 . S
H802 C828 0.950 . S
H803 C830 0.950 1_655 S
H804 C833 0.950 . S
H805 C834 0.950 . S
H806 C836 0.950 . S
H807 C837 0.950 . S
C808 H790 0.951 . S
C808 C809 1.366 . S
C808 C810 1.388 . S
C809 C808 1.366 . S
C809 C813 1.385 . S
C810 H791 0.951 . S
C810 C808 1.388 . S
C810 C811 1.366 . S
C811 C810 1.366 . S
C811 C812 1.414 . S
C811 C814 1.499 . S
C812 H792 0.950 . S
C812 C811 1.414 . S
C812 C813 1.374 . S
C813 H793 0.950 . S
C813 C809 1.385 . S
C813 C812 1.374 . S
C814 C811 1.499 . S
C814 C815 1.373 . S
C814 C816 1.389 . S
C815 H794 0.950 . S
C815 C814 1.373 . S
C815 C831 1.377 . S
C816 C814 1.389 . S
C816 C817 1.524 1_455 S
C816 C830 1.377 . S
C817 C816 1.524 1_655 S
C817 C818 1.397 . S
C817 C822 1.363 . S
C818 H795 0.950 . S
C818 C817 1.397 . S
C818 C819 1.334 . S
C819 H796 0.950 . S
C819 C818 1.334 . S
C819 C820 1.287 . S
C820 C819 1.287 . S
C820 C821 1.524 . S
C820 H839 0.913 . S
C821 H797 0.950 . S
C821 C820 1.524 . S
C821 C822 1.415 . S
C822 H798 0.950 . S
C822 C817 1.363 . S
C822 C821 1.415 . S
C823 H799 0.951 . S
C823 C824 1.366 . S
C823 C825 1.388 . S
C824 C823 1.366 . S
C824 C828 1.385 . S
C825 H800 0.951 . S
C825 C823 1.388 . S
C825 C826 1.366 . S
C826 C825 1.366 . S
C826 C827 1.414 . S
C826 C829 1.499 . S
C827 H801 0.950 . S
C827 C826 1.414 . S
C827 C828 1.374 . S
C828 H802 0.950 . S
C828 C824 1.385 . S
C828 C827 1.374 . S
C829 C826 1.499 . S
C829 C830 1.373 . S
C829 C831 1.389 . S
C830 H803 0.950 1_455 S
C830 C816 1.377 . S
C830 C829 1.373 . S
C831 C815 1.377 . S
C831 C829 1.389 . S
C831 C832 1.524 . S
C832 C831 1.524 . S
C832 C833 1.397 . S
C832 C837 1.363 . S
C833 H804 0.950 . S
C833 C832 1.397 . S
C833 C834 1.334 . S
C834 H805 0.950 . S
C834 C833 1.334 . S
C834 C835 1.287 . S
C835 C834 1.287 . S
C835 C836 1.524 . S
C835 H838 0.999 . S
C836 H806 0.950 . S
C836 C835 1.524 . S
C836 C837 1.415 . S
C837 H807 0.950 . S
C837 C832 1.363 . S
C837 C836 1.415 . S
H838 C835 0.999 . S
H839 C820 0.913 . S
H840 C858 0.951 . S
H841 C860 0.951 . S
H842 C862 0.950 . S
H843 C863 0.950 . S
H844 C865 0.950 . S
H845 C868 0.950 . S
H846 C869 0.950 . S
H847 C871 0.950 . S
H848 C872 0.950 . S
H849 C873 0.951 . S
H850 C875 0.951 . S
H851 C877 0.950 . S
H852 C878 0.950 . S
H853 C880 0.950 . S
H854 C883 0.950 . S
H855 C884 0.950 . S
H856 C886 0.950 . S
H857 C887 0.950 . S
C858 H840 0.951 . S
C858 C859 1.366 . S
C858 C860 1.388 . S
C859 C858 1.366 . S
C859 C863 1.385 . S
C860 H841 0.951 . S
C860 C858 1.388 . S
C860 C861 1.366 . S
C861 C860 1.366 . S
C861 C862 1.414 . S
C861 C864 1.499 . S
C862 H842 0.950 . S
C862 C861 1.414 . S
C862 C863 1.374 . S
C863 H843 0.950 . S
C863 C859 1.385 . S
C863 C862 1.374 . S
C864 C861 1.499 . S
C864 C865 1.373 . S
C864 C866 1.389 . S
C865 H844 0.950 . S
C865 C864 1.373 . S
C865 C881 1.377 . S
C866 C864 1.389 . S
C866 C867 1.524 . S
C866 C880 1.377 . S
C867 C866 1.524 . S
C867 C868 1.397 . S
C867 C872 1.363 . S
C868 H845 0.950 . S
C868 C867 1.397 . S
C868 C869 1.334 . S
C869 H846 0.950 . S
C869 C868 1.334 . S
C869 C870 1.287 . S
C870 C869 1.287 . S
C870 C871 1.524 . S
C870 H889 0.913 . S
C871 H847 0.950 . S
C871 C870 1.524 . S
C871 C872 1.415 . S
C872 H848 0.950 . S
C872 C867 1.363 . S
C872 C871 1.415 . S
C873 H849 0.951 . S
C873 C874 1.366 . S
C873 C875 1.388 . S
C874 C873 1.366 . S
C874 C878 1.385 . S
C875 H850 0.951 . S
C875 C873 1.388 . S
C875 C876 1.366 . S
C876 C875 1.366 . S
C876 C877 1.414 . S
C876 C879 1.499 . S
C877 H851 0.950 . S
C877 C876 1.414 . S
C877 C878 1.374 . S
C878 H852 0.950 . S
C878 C874 1.385 . S
C878 C877 1.374 . S
C879 C876 1.499 . S
C879 C880 1.373 . S
C879 C881 1.389 . S
C880 H853 0.950 . S
C880 C866 1.377 . S
C880 C879 1.373 . S
C881 C865 1.377 . S
C881 C879 1.389 . S
C881 C882 1.524 . S
C882 C881 1.524 . S
C882 C883 1.397 . S
C882 C887 1.363 . S
C883 H854 0.950 . S
C883 C882 1.397 . S
C883 C884 1.334 . S
C884 H855 0.950 . S
C884 C883 1.334 . S
C884 C885 1.287 . S
C885 C884 1.287 . S
C885 C886 1.524 . S
C885 H888 0.999 . S
C886 H856 0.950 . S
C886 C885 1.524 . S
C886 C887 1.415 . S
C887 H857 0.950 . S
C887 C882 1.363 . S
C887 C886 1.415 . S
H888 C885 0.999 . S
H889 C870 0.913 . S
H890 C908 0.951 . S
H891 C910 0.951 . S
H892 C912 0.950 . S
H893 C913 0.950 . S
H894 C915 0.950 . S
H895 C918 0.950 . S
H896 C919 0.950 . S
H897 C921 0.950 . S
H898 C922 0.950 . S
H899 C923 0.951 . S
H900 C925 0.951 . S
H901 C927 0.950 . S
H902 C928 0.950 . S
H903 C930 0.950 . S
H904 C933 0.950 . S
H905 C934 0.950 . S
H906 C936 0.950 . S
H907 C937 0.950 . S
C908 H890 0.951 . S
C908 C909 1.366 . S
C908 C910 1.388 . S
C909 C908 1.366 . S
C909 C913 1.385 . S
C910 H891 0.951 . S
C910 C908 1.388 . S
C910 C911 1.366 . S
C911 C910 1.366 . S
C911 C912 1.414 . S
C911 C914 1.499 . S
C912 H892 0.950 . S
C912 C911 1.414 . S
C912 C913 1.374 . S
C913 H893 0.950 . S
C913 C909 1.385 . S
C913 C912 1.374 . S
C914 C911 1.499 . S
C914 C915 1.373 . S
C914 C916 1.389 . S
C915 H894 0.950 . S
C915 C914 1.373 . S
C915 C931 1.377 . S
C916 C914 1.389 . S
C916 C917 1.524 . S
C916 C930 1.377 . S
C917 C916 1.524 . S
C917 C918 1.397 . S
C917 C922 1.363 . S
C918 H895 0.950 . S
C918 C917 1.397 . S
C918 C919 1.334 . S
C919 H896 0.950 . S
C919 C918 1.334 . S
C919 C920 1.287 . S
C920 C919 1.287 . S
C920 C921 1.524 1_455 S
C920 H939 0.913 1_455 S
C921 H897 0.950 . S
C921 C920 1.524 1_655 S
C921 C922 1.415 1_655 S
C922 H898 0.950 . S
C922 C917 1.363 . S
C922 C921 1.415 1_455 S
C923 H899 0.951 . S
C923 C924 1.366 . S
C923 C925 1.388 . S
C924 C923 1.366 . S
C924 C928 1.385 . S
C925 H900 0.951 . S
C925 C923 1.388 . S
C925 C926 1.366 . S
C926 C925 1.366 . S
C926 C927 1.414 . S
C926 C929 1.499 . S
C927 H901 0.950 . S
C927 C926 1.414 . S
C927 C928 1.374 . S
C928 H902 0.950 . S
C928 C924 1.385 . S
C928 C927 1.374 . S
C929 C926 1.499 . S
C929 C930 1.373 . S
C929 C931 1.389 . S
C930 H903 0.950 . S
C930 C916 1.377 . S
C930 C929 1.373 . S
C931 C915 1.377 . S
C931 C929 1.389 . S
C931 C932 1.524 . S
C932 C931 1.524 . S
C932 C933 1.397 . S
C932 C937 1.363 . S
C933 H904 0.950 . S
C933 C932 1.397 . S
C933 C934 1.334 . S
C934 H905 0.950 . S
C934 C933 1.334 . S
C934 C935 1.287 . S
C935 C934 1.287 . S
C935 C936 1.524 . S
C935 H938 0.999 . S
C936 H906 0.950 . S
C936 C935 1.524 . S
C936 C937 1.415 . S
C937 H907 0.950 . S
C937 C932 1.363 . S
C937 C936 1.415 . S
H938 C935 0.999 . S
H939 C920 0.913 1_655 S
H940 C958 0.951 . S
H941 C960 0.951 . S
H942 C962 0.950 . S
H943 C963 0.950 . S
H944 C965 0.950 . S
H945 C968 0.950 . S
H946 C969 0.950 . S
H947 C971 0.950 . S
H948 C972 0.950 . S
H949 C973 0.951 . S
H950 C975 0.951 . S
H951 C977 0.950 . S
H952 C978 0.950 . S
H953 C980 0.950 . S
H954 C983 0.950 . S
H955 C984 0.950 . S
H956 C986 0.950 . S
H957 C987 0.950 . S
C958 H940 0.951 . S
C958 C959 1.366 . S
C958 C960 1.388 . S
C959 C958 1.366 . S
C959 C963 1.385 . S
C960 H941 0.951 . S
C960 C958 1.388 . S
C960 C961 1.366 . S
C961 C960 1.366 . S
C961 C962 1.414 . S
C961 C964 1.499 . S
C962 H942 0.950 . S
C962 C961 1.414 . S
C962 C963 1.374 . S
C963 H943 0.950 . S
C963 C959 1.385 . S
C963 C962 1.374 . S
C964 C961 1.499 . S
C964 C965 1.373 . S
C964 C966 1.389 . S
C965 H944 0.950 . S
C965 C964 1.373 . S
C965 C981 1.377 . S
C966 C964 1.389 . S
C966 C967 1.524 . S
C966 C980 1.377 . S
C967 C966 1.524 . S
C967 C968 1.397 1_655 S
C967 C972 1.363 . S
C968 H945 0.950 . S
C968 C967 1.397 1_455 S
C968 C969 1.334 . S
C969 H946 0.950 . S
C969 C968 1.334 . S
C969 C970 1.287 . S
C970 C969 1.287 . S
C970 C971 1.524 . S
C970 H989 0.913 . S
C971 H947 0.950 . S
C971 C970 1.524 . S
C971 C972 1.415 1_455 S
C972 H948 0.950 . S
C972 C967 1.363 . S
C972 C971 1.415 1_655 S
C973 H949 0.951 . S
C973 C974 1.366 . S
C973 C975 1.388 . S
C974 C973 1.366 . S
C974 C978 1.385 . S
C975 H950 0.951 . S
C975 C973 1.388 . S
C975 C976 1.366 . S
C976 C975 1.366 . S
C976 C977 1.414 . S
C976 C979 1.499 . S
C977 H951 0.950 . S
C977 C976 1.414 . S
C977 C978 1.374 . S
C978 H952 0.950 . S
C978 C974 1.385 . S
C978 C977 1.374 . S
C979 C976 1.499 . S
C979 C980 1.373 . S
C979 C981 1.389 . S
C980 H953 0.950 . S
C980 C966 1.377 . S
C980 C979 1.373 . S
C981 C965 1.377 . S
C981 C979 1.389 . S
C981 C982 1.524 . S
C982 C981 1.524 . S
C982 C983 1.397 . S
C982 C987 1.363 . S
C983 H954 0.950 . S
C983 C982 1.397 . S
C983 C984 1.334 . S
C984 H955 0.950 . S
C984 C983 1.334 . S
C984 C985 1.287 1_545 S
C985 C984 1.287 1_565 S
C985 C986 1.524 . S
C985 H988 0.999 . S
C986 H956 0.950 . S
C986 C985 1.524 . S
C986 C987 1.415 1_565 S
C987 H957 0.950 . S
C987 C982 1.363 . S
C987 C986 1.415 1_545 S
H988 C985 0.999 . S
H989 C970 0.913 . S
H990 C1008 0.951 . S
H991 C1010 0.951 . S
H992 C1012 0.950 . S
H993 C1013 0.950 . S
H994 C1015 0.950 . S
H995 C1018 0.950 . S
H996 C1019 0.950 . S
H997 C1021 0.950 . S
H998 C1022 0.950 . S
H999 C1023 0.951 . S
H1000 C1025 0.951 . S
H1001 C1027 0.950 . S
H1002 C1028 0.950 . S
H1003 C1030 0.950 . S
H1004 C1033 0.950 1_565 S
H1005 C1034 0.950 . S
H1006 C1036 0.950 . S
H1007 C1037 0.950 . S
C1008 H990 0.951 . S
C1008 C1009 1.366 . S
C1008 C1010 1.388 . S
C1009 C1008 1.366 . S
C1009 C1013 1.385 . S
C1010 H991 0.951 . S
C1010 C1008 1.388 . S
C1010 C1011 1.366 . S
C1011 C1010 1.366 . S
C1011 C1012 1.414 . S
C1011 C1014 1.499 . S
C1012 H992 0.950 . S
C1012 C1011 1.414 . S
C1012 C1013 1.374 . S
C1013 H993 0.950 . S
C1013 C1009 1.385 . S
C1013 C1012 1.374 . S
C1014 C1011 1.499 . S
C1014 C1015 1.373 . S
C1014 C1016 1.389 . S
C1015 H994 0.950 . S
C1015 C1014 1.373 . S
C1015 C1031 1.377 . S
C1016 C1014 1.389 . S
C1016 C1017 1.524 . S
C1016 C1030 1.377 . S
C1017 C1016 1.524 . S
C1017 C1018 1.397 . S
C1017 C1022 1.363 . S
C1018 H995 0.950 . S
C1018 C1017 1.397 . S
C1018 C1019 1.334 . S
C1019 H996 0.950 . S
C1019 C1018 1.334 . S
C1019 C1020 1.287 . S
C1020 C1019 1.287 . S
C1020 C1021 1.524 . S
C1020 H1039 0.913 . S
C1021 H997 0.950 . S
C1021 C1020 1.524 . S
C1021 C1022 1.415 . S
C1022 H998 0.950 . S
C1022 C1017 1.363 . S
C1022 C1021 1.415 . S
C1023 H999 0.951 . S
C1023 C1024 1.366 . S
C1023 C1025 1.388 . S
C1024 C1023 1.366 . S
C1024 C1028 1.385 . S
C1025 H1000 0.951 . S
C1025 C1023 1.388 . S
C1025 C1026 1.366 . S
C1026 C1025 1.366 . S
C1026 C1027 1.414 . S
C1026 C1029 1.499 . S
C1027 H1001 0.950 . S
C1027 C1026 1.414 . S
C1027 C1028 1.374 . S
C1028 H1002 0.950 . S
C1028 C1024 1.385 . S
C1028 C1027 1.374 . S
C1029 C1026 1.499 . S
C1029 C1030 1.373 . S
C1029 C1031 1.389 . S
C1030 H1003 0.950 . S
C1030 C1016 1.377 . S
C1030 C1029 1.373 . S
C1031 C1015 1.377 . S
C1031 C1029 1.389 . S
C1031 C1032 1.524 . S
C1032 C1031 1.524 . S
C1032 C1033 1.397 1_565 S
C1032 C1037 1.363 1_565 S
C1033 H1004 0.950 1_545 S
C1033 C1032 1.397 1_545 S
C1033 C1034 1.334 . S
C1034 H1005 0.950 . S
C1034 C1033 1.334 . S
C1034 C1035 1.287 . S
C1035 C1034 1.287 . S
C1035 C1036 1.524 . S
C1035 H1038 0.999 . S
C1036 H1006 0.950 . S
C1036 C1035 1.524 . S
C1036 C1037 1.415 . S
C1037 H1007 0.950 . S
C1037 C1032 1.363 1_545 S
C1037 C1036 1.415 . S
H1038 C1035 0.999 . S
H1039 C1020 0.913 . S
H1040 C1058 0.951 . S
H1041 C1060 0.951 . S
H1042 C1062 0.950 . S
H1043 C1063 0.950 . S
H1044 C1065 0.950 . S
H1045 C1068 0.950 . S
H1046 C1069 0.950 . S
H1047 C1071 0.950 . S
H1048 C1072 0.950 1_455 S
H1049 C1073 0.951 . S
H1050 C1075 0.951 . S
H1051 C1077 0.950 . S
H1052 C1078 0.950 1_455 S
H1053 C1080 0.950 . S
H1054 C1083 0.950 . S
H1055 C1084 0.950 . S
H1056 C1086 0.950 . S
H1057 C1087 0.950 . S
C1058 H1040 0.951 . S
C1058 C1059 1.366 . S
C1058 C1060 1.388 . S
C1059 C1058 1.366 . S
C1059 C1063 1.385 . S
C1060 H1041 0.951 . S
C1060 C1058 1.388 . S
C1060 C1061 1.366 . S
C1061 C1060 1.366 . S
C1061 C1062 1.414 . S
C1061 C1064 1.499 . S
C1062 H1042 0.950 . S
C1062 C1061 1.414 . S
C1062 C1063 1.374 . S
C1063 H1043 0.950 . S
C1063 C1059 1.385 . S
C1063 C1062 1.374 . S
C1064 C1061 1.499 . S
C1064 C1065 1.373 . S
C1064 C1066 1.389 . S
C1065 H1044 0.950 . S
C1065 C1064 1.373 . S
C1065 C1081 1.377 . S
C1066 C1064 1.389 . S
C1066 C1067 1.524 . S
C1066 C1080 1.377 . S
C1067 C1066 1.524 . S
C1067 C1068 1.397 . S
C1067 C1072 1.363 . S
C1068 H1045 0.950 . S
C1068 C1067 1.397 . S
C1068 C1069 1.334 . S
C1069 H1046 0.950 . S
C1069 C1068 1.334 . S
C1069 C1070 1.287 . S
C1070 C1069 1.287 . S
C1070 C1071 1.524 1_655 S
C1070 H1089 0.913 1_655 S
C1071 H1047 0.950 . S
C1071 C1070 1.524 1_455 S
C1071 C1072 1.415 1_455 S
C1072 H1048 0.950 1_655 S
C1072 C1067 1.363 . S
C1072 C1071 1.415 1_655 S
C1073 H1049 0.951 . S
C1073 C1074 1.366 . S
C1073 C1075 1.388 . S
C1074 C1073 1.366 . S
C1074 C1078 1.385 . S
C1075 H1050 0.951 . S
C1075 C1073 1.388 . S
C1075 C1076 1.366 . S
C1076 C1075 1.366 . S
C1076 C1077 1.414 . S
C1076 C1079 1.499 . S
C1077 H1051 0.950 . S
C1077 C1076 1.414 . S
C1077 C1078 1.374 . S
C1078 H1052 0.950 1_655 S
C1078 C1074 1.385 . S
C1078 C1077 1.374 . S
C1079 C1076 1.499 . S
C1079 C1080 1.373 . S
C1079 C1081 1.389 . S
C1080 H1053 0.950 . S
C1080 C1066 1.377 . S
C1080 C1079 1.373 . S
C1081 C1065 1.377 . S
C1081 C1079 1.389 . S
C1081 C1082 1.524 . S
C1082 C1081 1.524 . S
C1082 C1083 1.397 . S
C1082 C1087 1.363 . S
C1083 H1054 0.950 . S
C1083 C1082 1.397 . S
C1083 C1084 1.334 . S
C1084 H1055 0.950 . S
C1084 C1083 1.334 . S
C1084 C1085 1.287 . S
C1085 C1084 1.287 . S
C1085 C1086 1.524 . S
C1085 H1088 0.999 . S
C1086 H1056 0.950 . S
C1086 C1085 1.524 . S
C1086 C1087 1.415 . S
C1087 H1057 0.950 . S
C1087 C1082 1.363 . S
C1087 C1086 1.415 . S
H1088 C1085 0.999 . S
H1089 C1070 0.913 1_455 S
H1090 C1108 0.951 . S
H1091 C1110 0.951 . S
H1092 C1112 0.950 . S
H1093 C1113 0.950 . S
H1094 C1115 0.950 . S
H1095 C1118 0.950 . S
H1096 C1119 0.950 . S
H1097 C1121 0.950 . S
H1098 C1122 0.950 . S
H1099 C1123 0.951 1_545 S
H1100 C1125 0.951 . S
H1101 C1127 0.950 . S
H1102 C1128 0.950 . S
H1103 C1130 0.950 . S
H1104 C1133 0.950 . S
H1105 C1134 0.950 . S
H1106 C1136 0.950 . S
H1107 C1137 0.950 1_545 S
C1108 H1090 0.951 . S
C1108 C1109 1.366 . S
C1108 C1110 1.388 . S
C1109 C1108 1.366 . S
C1109 C1113 1.385 . S
C1110 H1091 0.951 . S
C1110 C1108 1.388 . S
C1110 C1111 1.366 . S
C1111 C1110 1.366 . S
C1111 C1112 1.414 . S
C1111 C1114 1.499 . S
C1112 H1092 0.950 . S
C1112 C1111 1.414 . S
C1112 C1113 1.374 . S
C1113 H1093 0.950 . S
C1113 C1109 1.385 . S
C1113 C1112 1.374 . S
C1114 C1111 1.499 . S
C1114 C1115 1.373 . S
C1114 C1116 1.389 . S
C1115 H1094 0.950 . S
C1115 C1114 1.373 . S
C1115 C1131 1.377 . S
C1116 C1114 1.389 . S
C1116 C1117 1.524 . S
C1116 C1130 1.377 . S
C1117 C1116 1.524 . S
C1117 C1118 1.397 . S
C1117 C1122 1.363 . S
C1118 H1095 0.950 . S
C1118 C1117 1.397 . S
C1118 C1119 1.334 . S
C1119 H1096 0.950 . S
C1119 C1118 1.334 . S
C1119 C1120 1.287 1_455 S
C1120 C1119 1.287 1_655 S
C1120 C1121 1.524 . S
C1120 H1139 0.913 . S
C1121 H1097 0.950 . S
C1121 C1120 1.524 . S
C1121 C1122 1.415 1_655 S
C1122 H1098 0.950 . S
C1122 C1117 1.363 . S
C1122 C1121 1.415 1_455 S
C1123 H1099 0.951 1_565 S
C1123 C1124 1.366 . S
C1123 C1125 1.388 . S
C1124 C1123 1.366 . S
C1124 C1128 1.385 . S
C1125 H1100 0.951 . S
C1125 C1123 1.388 . S
C1125 C1126 1.366 . S
C1126 C1125 1.366 . S
C1126 C1127 1.414 . S
C1126 C1129 1.499 . S
C1127 H1101 0.950 . S
C1127 C1126 1.414 . S
C1127 C1128 1.374 . S
C1128 H1102 0.950 . S
C1128 C1124 1.385 . S
C1128 C1127 1.374 . S
C1129 C1126 1.499 . S
C1129 C1130 1.373 . S
C1129 C1131 1.389 . S
C1130 H1103 0.950 . S
C1130 C1116 1.377 . S
C1130 C1129 1.373 . S
C1131 C1115 1.377 . S
C1131 C1129 1.389 . S
C1131 C1132 1.524 . S
C1132 C1131 1.524 . S
C1132 C1133 1.397 . S
C1132 C1137 1.363 . S
C1133 H1104 0.950 . S
C1133 C1132 1.397 . S
C1133 C1134 1.334 . S
C1134 H1105 0.950 . S
C1134 C1133 1.334 . S
C1134 C1135 1.287 . S
C1135 C1134 1.287 . S
C1135 C1136 1.524 1_565 S
C1135 H1138 0.999 . S
C1136 H1106 0.950 . S
C1136 C1135 1.524 1_545 S
C1136 C1137 1.415 1_545 S
C1137 H1107 0.950 1_565 S
C1137 C1132 1.363 . S
C1137 C1136 1.415 1_565 S
H1138 C1135 0.999 . S
H1139 C1120 0.913 . S
C259 C143 0.930 . S
C274 C23 0.928 . S
C309 C183 0.927 . S
C324 C63 0.932 . S
C359 C223 0.932 . S
C374 C103 0.929 . S
C409 C25 0.501 . S
C424 C84 0.549 . S
C459 C44 0.552 . S
C474 C145 0.500 . S
C509 C105 0.502 . S
C524 C164 0.549 . S
C559 C124 0.555 . S
C574 C225 0.500 . S
C609 C185 0.503 . S
C624 C4 0.551 . S
C659 C204 0.553 . S
C674 C65 0.499 . S
C709 C2 0.492 . S
C724 C122 0.488 . S
C759 C42 0.491 . S
C774 C162 0.493 . S
C809 C82 0.491 . S
C824 C202 0.491 . S
C859 C20 4.016 . S
C874 C60 4.017 . S
C909 C71 3.620 . S
C924 C111 3.621 . S
C959 C100 4.016 1_655 S
C974 C140 4.016 . S
C1009 C151 3.620 . S
C1024 C191 3.621 . S
C1059 C180 4.016 . S
C1074 C220 4.016 1_655 S
C1109 C231 3.619 . S
C1124 C31 3.619 . S
