# Generated by pormake.
# Topology noy, (5)-cn, num edge types: 1
# Building blocks:
#     Node 0, Type 0, BuildingBlock: XOMCOT_clean_sbu_0, # of connection points: 5
#     Node 1, Type 0, BuildingBlock: XOMCOT_clean_sbu_0, # of connection points: 5
#     Node 2, Type 0, BuildingBlock: XOMCOT_clean_sbu_0, # of connection points: 5
#     Node 3, Type 0, BuildingBlock: XOMCOT_clean_sbu_0, # of connection points: 5
#     Node 4, Type 0, BuildingBlock: XOMCOT_clean_sbu_0, # of connection points: 5
#     Node 5, Type 0, BuildingBlock: XOMCOT_clean_sbu_0, # of connection points: 5
#     Node 6, Type 0, BuildingBlock: XOMCOT_clean_sbu_0, # of connection points: 5
#     Node 7, Type 0, BuildingBlock: XOMCOT_clean_sbu_0, # of connection points: 5
#     Edge 8, Type (0, 0), BuildingBlock: KIFKEQ_clean_linker_1, # of connection points: 2
#     Edge 9, Type (0, 0), BuildingBlock: KIFKEQ_clean_linker_1, # of connection points: 2
#     Edge 10, Type (0, 0), BuildingBlock: KIFKEQ_clean_linker_1, # of connection points: 2
#     Edge 11, Type (0, 0), BuildingBlock: KIFKEQ_clean_linker_1, # of connection points: 2
#     Edge 12, Type (0, 0), BuildingBlock: KIFKEQ_clean_linker_1, # of connection points: 2
#     Edge 13, Type (0, 0), BuildingBlock: KIFKEQ_clean_linker_1, # of connection points: 2
#     Edge 14, Type (0, 0), BuildingBlock: KIFKEQ_clean_linker_1, # of connection points: 2
#     Edge 15, Type (0, 0), BuildingBlock: KIFKEQ_clean_linker_1, # of connection points: 2
#     Edge 16, Type (0, 0), BuildingBlock: KIFKEQ_clean_linker_1, # of connection points: 2
#     Edge 17, Type (0, 0), BuildingBlock: KIFKEQ_clean_linker_1, # of connection points: 2
#     Edge 18, Type (0, 0), BuildingBlock: KIFKEQ_clean_linker_1, # of connection points: 2
#     Edge 19, Type (0, 0), BuildingBlock: KIFKEQ_clean_linker_1, # of connection points: 2
#     Edge 20, Type (0, 0), BuildingBlock: KIFKEQ_clean_linker_1, # of connection points: 2
#     Edge 21, Type (0, 0), BuildingBlock: KIFKEQ_clean_linker_1, # of connection points: 2
#     Edge 22, Type (0, 0), BuildingBlock: KIFKEQ_clean_linker_1, # of connection points: 2
#     Edge 23, Type (0, 0), BuildingBlock: KIFKEQ_clean_linker_1, # of connection points: 2
#     Edge 24, Type (0, 0), BuildingBlock: KIFKEQ_clean_linker_1, # of connection points: 2
#     Edge 25, Type (0, 0), BuildingBlock: KIFKEQ_clean_linker_1, # of connection points: 2
#     Edge 26, Type (0, 0), BuildingBlock: KIFKEQ_clean_linker_1, # of connection points: 2
#     Edge 27, Type (0, 0), BuildingBlock: KIFKEQ_clean_linker_1, # of connection points: 2
# Relax obj value: 0.203
# Max RMSD: 0.216
# Mean RMSD: 0.216
data_MOF--net-noy--node1-XOMCOT_clean_sbu_0--edge1-KIFKEQ_clean_linker_1
_symmetry_space_group_name_H-M    P1
_symmetry_Int_Tables_number       1
_symmetry_cell_setting            triclinic
loop_
_symmetry_equiv_pos_as_xyz
'x, y, z'
_cell_length_a     49.521972
_cell_length_b     47.857894
_cell_length_c     20.146773
_cell_angle_alpha  90.004677
_cell_angle_beta   89.807843
_cell_angle_gamma 90.029423
loop_
_atom_site_label
_atom_site_type_symbol
_atom_site_fract_x
_atom_site_fract_y
_atom_site_fract_z
_atom_type_partial_charge
Co0 Co 0.31893 0.38749 0.32606 0.0
C1 C 0.3317 0.42517 0.21178 0.0
C2 C 0.29835 0.39769 0.19223 0.0
C3 C 0.3024 0.41425 0.13754 0.0
N4 N 0.31683 0.40426 0.23861 0.0
N5 N 0.3233 0.43156 0.14965 0.0
H6 H 0.34802 0.43563 0.23731 0.0
H7 H 0.28242 0.38245 0.1981 0.0
C8 C 0.30785 0.32758 0.29028 0.0
O9 O 0.32939 0.32031 0.32404 0.0
N10 N 0.31952 0.37059 0.41471 0.0
C11 C 0.33327 0.37917 0.46892 0.0
C12 C 0.32609 0.36288 0.52247 0.0
C13 C 0.30285 0.35032 0.43791 0.0
N14 N 0.30697 0.34472 0.50283 0.0
C15 C 0.37566 0.38028 0.34417 0.0
C16 C 0.3864 0.35122 0.22872 0.0
C17 C 0.4078 0.35737 0.27195 0.0
C18 C 0.40204 0.37234 0.32992 0.0
C19 C 0.36002 0.35953 0.24527 0.0
N20 N 0.35475 0.37299 0.3039 0.0
H21 H 0.37248 0.39359 0.38621 0.0
H22 H 0.34392 0.35543 0.21054 0.0
H23 H 0.34643 0.39711 0.4714 0.0
H24 H 0.28744 0.34024 0.40861 0.0
O25 O 0.33053 0.42257 0.36199 0.0
O26 O 0.28772 0.40968 0.35407 0.0
O27 O 0.30027 0.35314 0.28909 0.0
C28 C 0.30531 0.42867 0.37142 0.0
H29 H 0.29005 0.41441 0.09331 0.0
H30 H 0.33342 0.36514 0.57274 0.0
H31 H 0.39 0.34029 0.18247 0.0
H32 H 0.41799 0.37901 0.363 0.0
Co33 Co 0.69692 0.64129 0.84682 0.0
C34 C 0.68399 0.60249 0.73483 0.0
C35 C 0.71246 0.63423 0.70682 0.0
C36 C 0.70824 0.61716 0.6532 0.0
N37 N 0.69711 0.62532 0.75803 0.0
N38 N 0.69044 0.59714 0.67067 0.0
H39 H 0.67043 0.58981 0.7644 0.0
H40 H 0.72656 0.65138 0.70829 0.0
C41 C 0.70709 0.70182 0.81277 0.0
O42 O 0.68627 0.70888 0.84974 0.0
N43 N 0.69808 0.65718 0.93655 0.0
C44 C 0.68601 0.64725 0.99207 0.0
C45 C 0.69371 0.66309 0.04571 0.0
C46 C 0.71445 0.67786 0.95886 0.0
N47 N 0.71156 0.68237 0.02473 0.0
C48 C 0.64062 0.64813 0.87475 0.0
C49 C 0.62697 0.67714 0.76135 0.0
C50 C 0.60666 0.67059 0.80763 0.0
C51 C 0.61387 0.6559 0.86481 0.0
C52 C 0.6538 0.66932 0.77396 0.0
N53 N 0.66051 0.65561 0.83122 0.0
H54 H 0.64487 0.6348 0.91609 0.0
H55 H 0.66906 0.67388 0.73708 0.0
H56 H 0.6736 0.62874 0.99503 0.0
H57 H 0.72877 0.68903 0.92824 0.0
O58 O 0.68669 0.60563 0.88248 0.0
O59 O 0.72903 0.61954 0.86856 0.0
O60 O 0.71444 0.67623 0.80923 0.0
C61 C 0.71223 0.60007 0.88763 0.0
H62 H 0.71858 0.61854 0.60588 0.0
H63 H 0.68759 0.65986 0.09678 0.0
H64 H 0.62213 0.68794 0.71568 0.0
H65 H 0.5987 0.64921 0.90028 0.0
Co66 Co 0.31597 0.64225 0.68082 0.0
C67 C 0.32645 0.60128 0.78999 0.0
C68 C 0.28862 0.6229 0.79984 0.0
C69 C 0.29154 0.60539 0.85322 0.0
N70 N 0.3105 0.62054 0.76051 0.0
N71 N 0.31532 0.59185 0.84733 0.0
H72 H 0.34581 0.59465 0.77052 0.0
H73 H 0.27161 0.63646 0.79022 0.0
C74 C 0.30655 0.70131 0.7257 0.0
O75 O 0.32743 0.70906 0.68977 0.0
N76 N 0.31995 0.66478 0.6004 0.0
C77 C 0.34231 0.67309 0.56695 0.0
C78 C 0.33497 0.69143 0.51769 0.0
C79 C 0.29931 0.67797 0.56955 0.0
N80 N 0.308 0.69441 0.5194 0.0
C81 C 0.37346 0.63857 0.67651 0.0
C82 C 0.38493 0.67257 0.78343 0.0
C83 C 0.40623 0.66273 0.74374 0.0
C84 C 0.40021 0.64482 0.69109 0.0
C85 C 0.35817 0.66604 0.76631 0.0
N86 N 0.35268 0.65088 0.71031 0.0
H87 H 0.36956 0.62492 0.63505 0.0
H88 H 0.34204 0.67319 0.79817 0.0
H89 H 0.36283 0.66746 0.57744 0.0
H90 H 0.27847 0.67668 0.58567 0.0
O91 O 0.32416 0.60887 0.63135 0.0
O92 O 0.28297 0.6261 0.64399 0.0
O93 O 0.29966 0.67557 0.72809 0.0
C94 C 0.2986 0.60687 0.619 0.0
H95 H 0.27697 0.60242 0.89275 0.0
H96 H 0.34846 0.70216 0.48378 0.0
H97 H 0.38887 0.68557 0.82633 0.0
H98 H 0.41613 0.63578 0.66095 0.0
Co99 Co 0.70134 0.38818 0.19367 0.0
C100 C 0.691 0.42704 0.31108 0.0
C101 C 0.73012 0.40792 0.30934 0.0
C102 C 0.72855 0.42482 0.36415 0.0
N103 N 0.70654 0.40886 0.27614 0.0
N104 N 0.70395 0.43683 0.3655 0.0
H105 H 0.67086 0.43324 0.29789 0.0
H106 H 0.74749 0.39579 0.29419 0.0
C107 C 0.70885 0.34519 0.29775 0.0
O108 O 0.69057 0.3592 0.33149 0.0
N109 N 0.69783 0.36763 0.11165 0.0
C110 C 0.67936 0.37175 0.06374 0.0
C111 C 0.68528 0.35433 1.01121 0.0
C112 C 0.7147 0.34787 0.08793 0.0
N113 N 0.70749 0.33934 0.02651 0.0
C114 C 0.64512 0.39948 0.21343 0.0
C115 C 0.62796 0.34458 0.21753 0.0
C116 C 0.60854 0.36591 0.21864 0.0
C117 C 0.61757 0.39368 0.2173 0.0
C118 C 0.65545 0.35135 0.2142 0.0
N119 N 0.66387 0.3786 0.21414 0.0
H120 H 0.65119 0.4209 0.20633 0.0
H121 H 0.66982 0.33458 0.20813 0.0
H122 H 0.66303 0.38671 0.06641 0.0
H123 H 0.73241 0.34061 0.11413 0.0
O124 O 0.69458 0.42243 0.14661 0.0
O125 O 0.73522 0.40399 0.16097 0.0
O126 O 0.71559 0.3534 0.23946 0.0
C127 C 0.72038 0.42392 0.13635 0.0
H128 H 0.74464 0.4286 0.39924 0.0
H129 H 0.67411 0.35285 0.96524 0.0
H130 H 0.62201 0.32282 0.21614 0.0
H131 H 0.60346 0.41095 0.21766 0.0
Co132 Co 0.81595 0.88489 0.34581 0.0
C133 C 0.82857 0.92318 0.23248 0.0
C134 C 0.80027 0.89118 0.20555 0.0
C135 C 0.80486 0.90775 0.15103 0.0
N136 N 0.81534 0.90057 0.25663 0.0
N137 N 0.82253 0.92788 0.16796 0.0
H138 H 0.84214 0.93605 0.26138 0.0
H139 H 0.78636 0.87381 0.20744 0.0
C140 C 0.80558 0.82467 0.31119 0.0
O141 O 0.82708 0.8176 0.34531 0.0
N142 N 0.81511 0.86931 0.43598 0.0
C143 C 0.8258 0.88068 0.4915 0.0
C144 C 0.81737 0.86576 0.54611 0.0
C145 C 0.79923 0.8483 0.45892 0.0
N146 N 0.80069 0.84533 0.52556 0.0
C147 C 0.87197 0.87604 0.37288 0.0
C148 C 0.88524 0.84877 0.25651 0.0
C149 C 0.90563 0.85409 0.30314 0.0
C150 C 0.89859 0.86794 0.36182 0.0
C151 C 0.85859 0.85705 0.26998 0.0
N152 N 0.85206 0.86994 0.32854 0.0
H153 H 0.8678 0.8884 0.41608 0.0
H154 H 0.84327 0.85325 0.233 0.0
H155 H 0.83784 0.89949 0.49342 0.0
H156 H 0.78543 0.83648 0.42854 0.0
O157 O 0.82716 0.92039 0.37995 0.0
O158 O 0.7844 0.9074 0.36953 0.0
O159 O 0.7977 0.85013 0.31001 0.0
C160 C 0.80182 0.92648 0.38733 0.0
H161 H 0.7951 0.90583 0.10322 0.0
H162 H 0.82272 0.87004 0.59715 0.0
H163 H 0.88985 0.83848 0.20996 0.0
H164 H 0.9138 0.87363 0.39794 0.0
Co165 Co 0.19854 0.14404 0.82641 0.0
C166 C 0.18634 0.10389 0.71664 0.0
C167 C 0.21167 0.1376 0.6839 0.0
C168 C 0.2068 0.12036 0.63077 0.0
N169 N 0.19862 0.12756 0.73786 0.0
N170 N 0.19101 0.09917 0.65141 0.0
H171 H 0.17434 0.09031 0.74797 0.0
H172 H 0.22419 0.15606 0.68251 0.0
C173 C 0.21087 0.20374 0.79086 0.0
O174 O 0.18977 0.21149 0.82605 0.0
N175 N 0.19966 0.16037 0.9158 0.0
C176 C 0.18694 0.15109 0.9711 0.0
C177 C 0.19462 0.16704 0.02457 0.0
C178 C 0.21635 0.18076 0.93819 0.0
N179 N 0.21308 0.18574 1.00378 0.0
C180 C 0.14246 0.15382 0.85192 0.0
C181 C 0.13068 0.18271 0.73706 0.0
C182 C 0.10996 0.1777 0.78324 0.0
C183 C 0.11619 0.16298 0.84107 0.0
C184 C 0.15701 0.17351 0.75056 0.0
N185 N 0.16286 0.15993 0.80862 0.0
H186 H 0.14589 0.14062 0.89398 0.0
H187 H 0.1726 0.17718 0.714 0.0
H188 H 0.17397 0.13299 0.97404 0.0
H189 H 0.23113 0.19142 0.90788 0.0
O190 O 0.18636 0.10923 0.86279 0.0
O191 O 0.22943 0.12074 0.85085 0.0
O192 O 0.21785 0.178 0.78902 0.0
C193 C 0.2115 0.10238 0.87004 0.0
H194 H 0.21503 0.12264 0.5812 0.0
H195 H 0.18801 0.16429 0.07542 0.0
H196 H 0.12656 0.1935 0.69094 0.0
H197 H 0.10058 0.15744 0.87653 0.0
Co198 Co 0.82051 0.14116 0.7014 0.0
C199 C 0.83184 0.0982 0.80663 0.0
C200 C 0.81777 0.13683 0.84796 0.0
C201 C 0.82256 0.11858 0.89906 0.0
N202 N 0.82382 0.12435 0.78958 0.0
N203 N 0.8313 0.09431 0.87318 0.0
H204 H 0.83789 0.08226 0.77157 0.0
H205 H 0.81026 0.15782 0.8541 0.0
C206 C 0.80595 0.20043 0.73797 0.0
O207 O 0.82491 0.20941 0.6974 0.0
N208 N 0.81617 0.15782 0.61303 0.0
C209 C 0.8285 0.15047 0.55563 0.0
C210 C 0.8188 0.16677 0.50469 0.0
C211 C 0.79788 0.17733 0.59453 0.0
N212 N 0.79972 0.18391 0.52944 0.0
C213 C 0.87594 0.15045 0.66823 0.0
C214 C 0.88967 0.18367 0.77482 0.0
C215 C 0.90967 0.17663 0.72827 0.0
C216 C 0.90242 0.15983 0.67446 0.0
C217 C 0.86314 0.17409 0.76611 0.0
N218 N 0.85629 0.15813 0.71227 0.0
H219 H 0.87176 0.13582 0.62929 0.0
H220 H 0.84837 0.17937 0.80337 0.0
H221 H 0.84288 0.13373 0.54965 0.0
H222 H 0.78279 0.18604 0.6273 0.0
O223 O 0.83225 0.10692 0.66123 0.0
O224 O 0.78948 0.11716 0.68219 0.0
O225 O 0.80124 0.17422 0.74333 0.0
C226 C 0.8071 0.09953 0.65809 0.0
H227 H 0.81905 0.12255 0.95129 0.0
H228 H 0.82545 0.16611 0.45349 0.0
H229 H 0.89452 0.19625 0.81785 0.0
H230 H 0.91741 0.15283 0.63888 0.0
Co231 Co 0.1952 0.88679 0.18365 0.0
C232 C 0.18383 0.92795 0.29219 0.0
C233 C 0.20878 0.89409 0.3253 0.0
C234 C 0.2043 0.9117 0.37796 0.0
N235 N 0.19571 0.90397 0.27143 0.0
N236 N 0.18874 0.93297 0.35713 0.0
H237 H 0.17193 0.94149 0.26078 0.0
H238 H 0.22107 0.87548 0.32694 0.0
C239 C 0.2065 0.82723 0.22243 0.0
O240 O 0.1849 0.81934 0.18969 0.0
N241 N 0.19604 0.86958 0.09525 0.0
C242 C 0.18339 0.87826 0.03952 0.0
C243 C 0.19124 0.86178 0.98693 0.0
C244 C 0.21278 0.849 0.07399 0.0
N245 N 0.20971 0.84337 1.00872 0.0
C246 C 0.13889 0.87806 0.15997 0.0
C247 C 0.12663 0.85025 0.27622 0.0
C248 C 0.10592 0.85544 0.23044 0.0
C249 C 0.11242 0.86966 0.17193 0.0
C250 C 0.15314 0.85881 0.26178 0.0
N251 N 0.15922 0.87177 0.20297 0.0
H252 H 0.14257 0.89085 0.11728 0.0
H253 H 0.16868 0.85508 0.29816 0.0
H254 H 0.17048 0.89634 0.03558 0.0
H255 H 0.22754 0.83872 0.10484 0.0
O256 O 0.18364 0.92149 0.14581 0.0
O257 O 0.2265 0.90929 0.15749 0.0
O258 O 0.21397 0.85283 0.22201 0.0
C259 C 0.2089 0.92782 0.13778 0.0
H260 H 0.21263 0.9096 0.42734 0.0
H261 H 0.18481 0.86404 0.9359 0.0
H262 H 0.1224 0.8398 0.32279 0.0
H263 H 0.09691 0.87539 0.13666 0.0
H264 H 0.44657 0.33797 0.35615 0.0
H265 H 0.4339 0.36157 0.15176 0.0
H266 H 0.49491 0.3359 0.33676 0.0
H267 H 0.48237 0.35793 0.13105 0.0
H268 H 0.56849 0.3933 0.15136 0.0
H269 H 0.52016 0.38581 0.15817 0.0
H270 H 0.53316 0.31506 0.28751 0.0
H271 H 0.58167 0.32374 0.28406 0.0
C272 C 0.45411 0.34218 0.30661 0.0
C273 C 0.4364 0.35048 0.25585 0.0
C274 C 0.48189 0.34067 0.29522 0.0
C275 C 0.49274 0.34713 0.23249 0.0
C276 C 0.47482 0.35342 0.18039 0.0
C277 C 0.44695 0.35512 0.19197 0.0
C278 C 0.56111 0.37627 0.18181 0.0
C279 C 0.57906 0.35951 0.2183 0.0
C280 C 0.53329 0.37162 0.18468 0.0
C281 C 0.52257 0.34985 0.22357 0.0
C282 C 0.5406 0.33229 0.25782 0.0
C283 C 0.56849 0.3371 0.25534 0.0
H284 H 0.56979 0.69301 0.89351 0.0
H285 H 0.57801 0.6609 0.69435 0.0
H286 H 0.52099 0.69638 0.87905 0.0
H287 H 0.52925 0.66343 0.68017 0.0
H288 H 0.44203 0.68365 0.65441 0.0
H289 H 0.49031 0.69129 0.66879 0.0
H290 H 0.48338 0.6657 0.87401 0.0
H291 H 0.43478 0.65911 0.85966 0.0
C292 C 0.56113 0.68691 0.84637 0.0
C293 C 0.5777 0.67663 0.79508 0.0
C294 C 0.53314 0.68864 0.83822 0.0
C295 C 0.52099 0.6799 0.77872 0.0
C296 C 0.53779 0.67073 0.72643 0.0
C297 C 0.56581 0.66925 0.73443 0.0
C298 C 0.45085 0.68004 0.7028 0.0
C299 C 0.43476 0.6706 0.75584 0.0
C300 C 0.47855 0.68422 0.71098 0.0
C301 C 0.49097 0.67874 0.77228 0.0
C302 C 0.47458 0.67044 0.8262 0.0
C303 C 0.44672 0.66657 0.81813 0.0
H304 H 0.07748 0.86299 0.34586 0.0
H305 H 0.06944 0.83193 0.14574 0.0
H306 H 0.02892 0.85773 0.36256 0.0
H307 H 0.02094 0.8263 0.16249 0.0
H308 H 0.93427 0.86198 0.18816 0.0
H309 H 0.98287 0.85732 0.17197 0.0
H310 H 0.99094 0.82647 0.37249 0.0
H311 H 0.94234 0.83144 0.38874 0.0
C312 C 0.06543 0.85437 0.30602 0.0
C313 C 0.07726 0.84811 0.24433 0.0
C314 C 0.03756 0.85135 0.31549 0.0
C315 C 0.0209 0.84186 0.26358 0.0
C316 C 0.03303 0.83422 0.20306 0.0
C317 C 0.06084 0.83734 0.19355 0.0
C318 C 0.94633 0.85361 0.22825 0.0
C319 C 0.93447 0.84729 0.28987 0.0
C320 C 0.97425 0.85094 0.21905 0.0
C321 C 0.99093 0.84175 0.27118 0.0
C322 C 0.97882 0.83414 0.33173 0.0
C323 C 0.95095 0.83689 0.34096 0.0
H324 H 0.08063 0.16884 0.67052 0.0
H325 H 0.07484 0.20355 0.86769 0.0
H326 H 0.03196 0.17404 0.65704 0.0
H327 H 0.02627 0.20953 0.85393 0.0
H328 H 0.93965 0.17329 0.84159 0.0
H329 H 0.98829 0.17913 0.85242 0.0
H330 H 0.99347 0.20358 0.6462 0.0
H331 H 0.9448 0.19708 0.63531 0.0
C332 C 0.06903 0.17834 0.71021 0.0
C333 C 0.08147 0.18558 0.77031 0.0
C334 C 0.04109 0.18136 0.70259 0.0
C335 C 0.02502 0.19192 0.75475 0.0
C336 C 0.03785 0.20073 0.81331 0.0
C337 C 0.0657 0.19749 0.82108 0.0
C338 C 0.9511 0.18052 0.79902 0.0
C339 C 0.93843 0.18454 0.73753 0.0
C340 C 0.97905 0.18391 0.80513 0.0
C341 C 0.99496 0.19161 0.74998 0.0
C342 C 0.98199 0.19706 0.68935 0.0
C343 C 0.95409 0.19348 0.68316 0.0
H344 H 0.34581 0.54626 0.81793 0.0
H345 H 0.30745 0.59008 0.97981 0.0
H346 H 0.35654 0.50754 0.89292 0.0
H347 H 0.31719 0.5514 0.05386 0.0
H348 H 0.34234 0.48254 0.18607 0.0
H349 H 0.34893 0.52293 0.11322 0.0
H350 H 0.32908 0.4718 0.94341 0.0
H351 H 0.3235 0.43158 0.01581 0.0
C352 C 0.34011 0.54783 0.86971 0.0
C353 C 0.32537 0.57098 0.89268 0.0
C354 C 0.34604 0.52558 0.91262 0.0
C355 C 0.33748 0.52614 0.97943 0.0
C356 C 0.32433 0.5502 1.00307 0.0
C357 C 0.31838 0.57228 0.9603 0.0
C358 C 0.34019 0.47983 0.13301 0.0
C359 C 0.33197 0.45401 0.10677 0.0
C360 C 0.34369 0.50301 0.09124 0.0
C361 C 0.33916 0.50078 0.02238 0.0
C362 C 0.33292 0.47439 0.99593 0.0
C363 C 0.32938 0.45134 0.03758 0.0
H364 H 0.71922 0.44096 0.4939 0.0
H365 H 0.66772 0.47881 0.34675 0.0
H366 H 0.70908 0.47866 0.57064 0.0
H367 H 0.65658 0.51619 0.42487 0.0
H368 H 0.68416 0.5965 0.53788 0.0
H369 H 0.68122 0.55556 0.46686 0.0
H370 H 0.67715 0.50264 0.64043 0.0
H371 H 0.68104 0.54392 0.71158 0.0
C372 C 0.70544 0.45719 0.47817 0.0
C373 C 0.69471 0.45711 0.41361 0.0
C374 C 0.69928 0.47865 0.52269 0.0
C375 C 0.68212 0.50066 0.50399 0.0
C376 C 0.67017 0.49978 0.44065 0.0
C377 C 0.67636 0.47822 0.39599 0.0
C378 C 0.68229 0.57614 0.56085 0.0
C379 C 0.68327 0.5734 0.63026 0.0
C380 C 0.6803 0.55262 0.52011 0.0
C381 C 0.67924 0.52567 0.54774 0.0
C382 C 0.67837 0.52305 0.61742 0.0
C383 C 0.6803 0.5467 0.65829 0.0
H384 H 0.75862 0.58677 0.9562 0.0
H385 H 0.68465 0.55167 0.8801 0.0
H386 H 0.76868 0.54203 1.01142 0.0
H387 H 0.69454 0.50757 0.93412 0.0
H388 H 0.72059 0.42574 1.00296 0.0
H389 H 0.72573 0.46745 0.93396 0.0
H390 H 0.74662 0.51556 0.10777 0.0
H391 H 0.7418 0.47347 0.17644 0.0
C392 C 0.74485 0.56938 0.95024 0.0
C393 C 0.72082 0.57268 0.91418 0.0
C394 C 0.7505 0.54388 0.98205 0.0
C395 C 0.73247 0.52119 0.97694 0.0
C396 C 0.70909 0.52438 0.93835 0.0
C397 C 0.70329 0.54978 0.90777 0.0
C398 C 0.72738 0.44501 0.02575 0.0
C399 C 0.73119 0.44648 0.09454 0.0
C400 C 0.73007 0.46894 0.9865 0.0
C401 C 0.73628 0.49491 0.01549 0.0
C402 C 0.74208 0.49586 0.08382 0.0
C403 C 0.73938 0.47181 0.12315 0.0
H404 H 0.25787 0.44505 0.43366 0.0
H405 H 0.33676 0.47458 0.37451 0.0
H406 H 0.24907 0.49033 0.48803 0.0
H407 H 0.32825 0.51889 0.42814 0.0
H408 H 0.30593 0.60279 0.48718 0.0
H409 H 0.3011 0.56083 0.41932 0.0
H410 H 0.26727 0.51689 0.58748 0.0
H411 H 0.27147 0.55952 0.65474 0.0
C412 C 0.27312 0.46125 0.43155 0.0
C413 C 0.29802 0.45622 0.4 0.0
C414 C 0.26817 0.48707 0.46288 0.0
C415 C 0.28786 0.50837 0.46199 0.0
C416 C 0.31238 0.5033 0.42885 0.0
C417 C 0.31738 0.47767 0.39852 0.0
C418 C 0.29652 0.58444 0.50873 0.0
C419 C 0.28883 0.58431 0.57569 0.0
C420 C 0.29398 0.56032 0.47021 0.0
C421 C 0.28424 0.53531 0.49826 0.0
C422 C 0.27468 0.53581 0.5642 0.0
C423 C 0.27703 0.56016 0.60271 0.0
H424 H 0.8568 0.09032 0.9906 0.0
H425 H 0.81658 0.0417 0.84058 0.0
H426 H 0.8602 0.04913 0.06125 0.0
H427 H 0.81855 1.00059 0.91202 0.0
H428 H 0.83518 0.92582 0.03797 0.0
H429 H 0.84273 0.96528 0.96357 0.0
H430 H 0.83308 0.0219 0.12941 0.0
H431 H 0.82696 0.98211 0.20362 0.0
C432 C 0.8488 0.07065 0.97277 0.0
C433 C 0.83636 0.06915 0.91033 0.0
C434 C 0.8505 0.04705 0.01344 0.0
C435 C 0.83931 0.02139 0.99324 0.0
C436 C 0.82778 0.01974 0.92935 0.0
C437 C 0.82654 0.04331 0.88819 0.0
C438 C 0.83515 0.94676 0.05834 0.0
C439 C 0.83045 0.95098 0.12639 0.0
C440 C 0.83922 0.96944 0.0157 0.0
C441 C 0.83818 0.99702 0.03983 0.0
C442 C 0.83446 1.00109 0.10868 0.0
C443 C 0.83088 0.9783 0.15149 0.0
H444 H 0.17193 0.09967 0.52657 0.0
H445 H 0.19413 0.04495 0.68691 0.0
H446 H 0.16497 0.05948 0.4541 0.0
H447 H 0.18904 1.00461 0.61414 0.0
H448 H 0.16938 0.93318 0.48194 0.0
H449 H 0.16359 0.97362 0.55427 0.0
H450 H 0.18928 0.02759 0.39355 0.0
H451 H 0.19319 0.98702 0.32091 0.0
C452 C 0.17516 0.07887 0.54618 0.0
C453 C 0.18354 0.0753 0.6121 0.0
C454 C 0.17148 0.0558 0.50456 0.0
C455 C 0.1768 0.02853 0.52737 0.0
C456 C 0.18427 0.02505 0.59447 0.0
C457 C 0.18731 0.04816 0.63646 0.0
C458 C 0.17318 0.95385 0.46213 0.0
C459 C 0.1817 0.9571 0.39608 0.0
C460 C 0.17019 0.97706 0.50367 0.0
C461 C 0.17637 1.00413 0.48067 0.0
C462 C 0.18389 1.00732 0.41339 0.0
C463 C 0.18624 0.98408 0.37147 0.0
H464 H 0.18082 0.05603 0.86827 0.0
H465 H 0.25671 0.08737 0.94247 0.0
H466 H 0.18583 1.0141 0.93489 0.0
H467 H 0.26172 0.04466 1.01032 0.0
H468 H 0.25513 0.94203 0.0674 0.0
H469 H 0.2615 0.98438 0.99885 0.0
H470 H 0.18477 0.01585 0.06781 0.0
H471 H 0.17843 0.97431 0.13515 0.0
C472 C 0.19886 0.05373 0.89809 0.0
C473 C 0.21819 0.07517 0.90089 0.0
C474 C 0.20171 0.02968 0.93624 0.0
C475 C 0.22393 0.02636 0.97851 0.0
C476 C 0.2444 0.04678 0.97806 0.0
C477 C 0.24154 0.07112 0.93931 0.0
C478 C 0.24002 0.95837 0.06889 0.0
C479 C 0.21609 0.95469 0.10578 0.0
C480 C 0.24366 0.98252 0.02976 0.0
C481 C 0.22339 1.0031 0.02734 0.0
C482 C 0.2005 1.00011 0.06793 0.0
C483 C 0.19689 0.97627 0.10649 0.0
H484 H 0.83983 0.0552 0.64107 0.0
H485 H 0.75858 0.08328 0.60155 0.0
H486 H 0.83243 1.01423 0.57264 0.0
H487 H 0.75113 0.04145 0.53198 0.0
H488 H 0.75916 0.93885 0.47115 0.0
H489 H 0.75486 0.98129 0.5402 0.0
H490 H 0.82427 0.01674 0.4413 0.0
H491 H 0.82861 0.97493 0.37354 0.0
C492 C 0.82019 0.05244 0.61842 0.0
C493 C 0.79992 0.0727 0.62594 0.0
C494 C 0.81599 0.02893 0.57915 0.0
C495 C 0.79139 0.02494 0.54614 0.0
C496 C 0.7703 0.04413 0.55688 0.0
C497 C 0.77456 0.06796 0.59663 0.0
C498 C 0.77287 0.95615 0.46296 0.0
C499 C 0.7944 0.95356 0.41763 0.0
C500 C 0.77046 0.98033 0.50245 0.0
C501 C 0.78952 1.00202 0.49666 0.0
C502 C 0.80955 1.00017 0.4474 0.0
C503 C 0.812 0.97624 0.40857 0.0
H504 H 0.25753 0.33173 0.23504 0.0
H505 H 0.32554 0.27577 0.25319 0.0
H506 H 0.23455 0.29753 0.16479 0.0
H507 H 0.30262 0.24178 0.18248 0.0
H508 H 0.26461 0.20435 0.99086 0.0
H509 H 0.28747 0.23888 0.06084 0.0
H510 H 0.21486 0.24839 0.17776 0.0
H511 H 0.1921 0.21392 0.10795 0.0
C512 C 0.26754 0.31212 0.22424 0.0
C513 C 0.29333 0.30644 0.24998 0.0
C514 C 0.25435 0.29253 0.18414 0.0
C515 C 0.26684 0.26702 0.16797 0.0
C516 C 0.29261 0.26136 0.19361 0.0
C517 C 0.30562 0.28075 0.23456 0.0
C518 C 0.25354 0.21395 0.03126 0.0
C519 C 0.22659 0.20637 0.04404 0.0
C520 C 0.26666 0.23353 0.07161 0.0
C521 C 0.25295 0.24631 0.12484 0.0
C522 C 0.2259 0.23902 0.13694 0.0
C523 C 0.21294 0.21913 0.09732 0.0
H524 H 0.69633 0.75792 0.80518 0.0
H525 H 0.75053 0.69465 0.72964 0.0
H526 H 0.71852 0.79279 0.73537 0.0
H527 H 0.77259 0.7295 0.65988 0.0
H528 H 0.78506 0.79304 0.49099 0.0
H529 H 0.76234 0.75857 0.56122 0.0
H530 H 0.76228 0.81727 0.72398 0.0
H531 H 0.78447 0.85184 0.65348 0.0
C532 C 0.71303 0.75142 0.77399 0.0
C533 C 0.72149 0.72337 0.77289 0.0
C534 C 0.7258 0.77146 0.73405 0.0
C535 C 0.74723 0.76391 0.69169 0.0
C536 C 0.75587 0.73593 0.69111 0.0
C537 C 0.74325 0.71595 0.73141 0.0
C538 C 0.77996 0.79866 0.54155 0.0
C539 C 0.78665 0.8252 0.56656 0.0
C540 C 0.7672 0.77882 0.58202 0.0
C541 C 0.76057 0.78512 0.64834 0.0
C542 C 0.76693 0.81179 0.67305 0.0
C543 C 0.7799 0.83153 0.63278 0.0
H544 H 0.18945 0.81377 0.90623 0.0
H545 H 0.26152 0.82591 0.02247 0.0
H546 H 0.21296 0.77896 0.83845 0.0
H547 H 0.28513 0.79112 0.95444 0.0
H548 H 0.3237 0.75352 0.76154 0.0
H549 H 0.30039 0.78746 0.83202 0.0
H550 H 0.23367 0.73021 0.85516 0.0
H551 H 0.25707 0.69604 0.78535 0.0
C552 C 0.21035 0.80904 0.9171 0.0
C553 C 0.22365 0.82261 0.96957 0.0
C554 C 0.22373 0.78898 0.87867 0.0
C555 C 0.25088 0.78234 0.89112 0.0
C556 C 0.26425 0.79594 0.94348 0.0
C557 C 0.25069 0.81568 0.98269 0.0
C558 C 0.30405 0.74815 0.78156 0.0
C559 C 0.29222 0.72208 0.76766 0.0
C560 C 0.29079 0.76753 0.82229 0.0
C561 C 0.26522 0.76148 0.84911 0.0
C562 C 0.25329 0.73551 0.83484 0.0
C563 C 0.26674 0.71593 0.79504 0.0
H564 H 0.7506 0.31287 0.24986 0.0
H565 H 0.69536 0.3207 0.41526 0.0
H566 H 0.77221 0.27313 0.30467 0.0
H567 H 0.71633 0.28088 0.46879 0.0
H568 H 0.77953 0.23157 0.58235 0.0
H569 H 0.75748 0.26967 0.52413 0.0
H570 H 0.76593 0.22485 0.33906 0.0
H571 H 0.78829 0.18668 0.39761 0.0
C572 C 0.74293 0.306 0.29755 0.0
C573 C 0.72138 0.32014 0.32831 0.0
C574 C 0.75522 0.28313 0.32886 0.0
C575 C 0.74618 0.27388 0.39153 0.0
C576 C 0.72423 0.28771 0.42129 0.0
C577 C 0.71207 0.31052 0.39025 0.0
C578 C 0.77637 0.2296 0.52943 0.0
C579 C 0.78557 0.20591 0.49484 0.0
C580 C 0.76373 0.25152 0.49588 0.0
C581 C 0.7598 0.25037 0.42677 0.0
C582 C 0.76892 0.22664 0.39211 0.0
C583 C 0.78168 0.2047 0.42573 0.0
H584 H 0.69075 0.70962 0.13044 0.0
H585 H 0.7627 0.70193 1.01052 0.0
H586 H 0.71336 0.74415 0.20043 0.0
H587 H 0.78542 0.73649 0.08074 0.0
H588 H 0.82382 0.77317 0.2733 0.0
H589 H 0.8011 0.739 0.20262 0.0
H590 H 0.73223 0.79381 0.18713 0.0
H591 H 0.75502 0.82819 0.25724 0.0
C592 C 0.71144 0.71526 0.11924 0.0
C593 C 0.72497 0.70302 0.06511 0.0
C594 C 0.7243 0.73517 0.15897 0.0
C595 C 0.75116 0.74298 0.14612 0.0
C596 C 0.76476 0.73072 0.09207 0.0
C597 C 0.75172 0.71112 0.0516 0.0
C598 C 0.80377 0.77789 0.25518 0.0
C599 C 0.79119 0.80338 0.27113 0.0
C600 C 0.79087 0.7584 0.21425 0.0
C601 C 0.76493 0.76376 0.18924 0.0
C602 C 0.75216 0.78905 0.20599 0.0
C603 C 0.76524 0.80874 0.24602 0.0
H604 H 0.26067 0.19845 0.73232 0.0
H605 H 0.19443 0.25628 0.75677 0.0
H606 H 0.28412 0.23247 0.66206 0.0
H607 H 0.21777 0.29007 0.6861 0.0
H608 H 0.25487 0.32762 0.49354 0.0
H609 H 0.23187 0.29327 0.56391 0.0
H610 H 0.30532 0.28101 0.67485 0.0
H611 H 0.32827 0.31535 0.60453 0.0
C612 C 0.25115 0.21843 0.72292 0.0
C613 C 0.22572 0.22468 0.75041 0.0
C614 C 0.26461 0.23792 0.68282 0.0
C615 C 0.25274 0.2639 0.6684 0.0
C616 C 0.22732 0.27013 0.69584 0.0
C617 C 0.21406 0.25084 0.73676 0.0
C618 C 0.26612 0.31747 0.53269 0.0
C619 C 0.29337 0.32424 0.54359 0.0
C620 C 0.25291 0.29798 0.57329 0.0
C621 C 0.26679 0.28448 0.62497 0.0
C622 C 0.29414 0.29096 0.63523 0.0
C623 C 0.30721 0.31076 0.59535 0.0
H624 H 0.77076 0.18943 0.84005 0.0
H625 H 0.80584 0.25747 0.72813 0.0
H626 H 0.74677 0.22298 0.90993 0.0
H627 H 0.78165 0.29093 0.79782 0.0
H628 H 0.71069 0.3396 0.89231 0.0
H629 H 0.73378 0.30569 0.82149 0.0
H630 H 0.75875 0.25977 0.9952 0.0
H631 H 0.73542 0.29364 0.06607 0.0
C632 C 0.77335 0.21151 0.83021 0.0
C633 C 0.79039 0.22073 0.77865 0.0
C634 C 0.75968 0.23072 0.8705 0.0
C635 C 0.7624 0.2596 0.85956 0.0
C636 C 0.77902 0.26881 0.80723 0.0
C637 C 0.79296 0.24962 0.76748 0.0
C638 C 0.72094 0.32217 0.91536 0.0
C639 C 0.72119 0.31929 0.98482 0.0
C640 C 0.73437 0.30289 0.87482 0.0
C641 C 0.74808 0.28005 0.90274 0.0
C642 C 0.74818 0.27703 0.97219 0.0
C643 C 0.73504 0.29654 1.01279 0.0
H644 H 0.26019 0.82692 0.2519 0.0
H645 H 0.18613 0.78171 0.28635 0.0
H646 H 0.28439 0.79408 0.32199 0.0
H647 H 0.20962 0.74997 0.36075 0.0
H648 H 0.26291 0.68236 0.45046 0.0
H649 H 0.23854 0.71347 0.37538 0.0
H650 H 0.29299 0.78076 0.42774 0.0
H651 H 0.31815 0.74875 0.49812 0.0
C652 C 0.24907 0.81 0.27505 0.0
C653 C 0.22135 0.80677 0.26344 0.0
C654 C 0.26286 0.79125 0.31604 0.0
C655 C 0.24911 0.76923 0.34827 0.0
C656 C 0.22123 0.76614 0.33626 0.0
C657 C 0.20762 0.78446 0.29375 0.0
C658 C 0.26943 0.70386 0.44552 0.0
C659 C 0.29238 0.71323 0.47938 0.0
C660 C 0.25545 0.72185 0.40282 0.0
C661 C 0.26372 0.74988 0.39444 0.0
C662 C 0.28631 0.75927 0.43063 0.0
C663 C 0.30065 0.74106 0.4717 0.0
loop_
_geom_bond_atom_site_label_1
_geom_bond_atom_site_label_2
_geom_bond_distance
_geom_bond_site_symmetry_2
_ccdc_geom_bond_type
Co0 N4 2.148 . S
Co0 N10 2.128 . S
Co0 N20 2.194 . S
Co0 O25 2.351 . S
Co0 O26 2.155 . S
Co0 O27 2.096 . S
C1 N4 1.301 . S
C1 N5 1.328 . S
C1 H6 0.930 . S
C2 C3 1.333 . S
C2 N4 1.317 . S
C2 H7 0.930 . S
C3 C2 1.333 . S
C3 N5 1.350 . S
C3 H29 0.931 . S
N4 Co0 2.148 . S
N4 C1 1.301 . S
N4 C2 1.317 . S
N5 C1 1.328 . S
N5 C3 1.350 . S
H6 C1 0.930 . S
H7 C2 0.930 . S
C8 O9 1.224 . S
C8 O27 1.247 . S
O9 C8 1.224 . S
N10 Co0 2.128 . S
N10 C11 1.355 . S
N10 C13 1.311 . S
C11 N10 1.355 . S
C11 C12 1.363 . S
C11 H23 0.929 . S
C12 C11 1.363 . S
C12 N14 1.375 . S
C12 H30 0.931 . S
C13 N10 1.311 . S
C13 N14 1.347 . S
C13 H24 0.929 . S
N14 C12 1.375 . S
N14 C13 1.347 . S
C15 C18 1.365 . S
C15 N20 1.328 . S
C15 H21 0.929 . S
C16 C17 1.362 . S
C16 C19 1.378 . S
C16 H31 0.929 . S
C17 C16 1.362 . S
C17 C18 1.366 . S
C18 C15 1.365 . S
C18 C17 1.366 . S
C18 H32 0.930 . S
C19 C16 1.378 . S
C19 N20 1.315 . S
C19 H22 0.930 . S
N20 Co0 2.194 . S
N20 C15 1.328 . S
N20 C19 1.315 . S
H21 C15 0.929 . S
H22 C19 0.930 . S
H23 C11 0.929 . S
H24 C13 0.929 . S
O25 Co0 2.351 . S
O25 C28 1.244 . S
O26 Co0 2.155 . S
O26 C28 1.240 . S
O27 Co0 2.096 . S
O27 C8 1.247 . S
C28 O25 1.244 . S
C28 O26 1.240 . S
H29 C3 0.931 . S
H30 C12 0.931 . S
H31 C16 0.929 . S
H32 C18 0.930 . S
Co33 N37 2.148 . S
Co33 N43 2.128 . S
Co33 N53 2.194 . S
Co33 O58 2.351 . S
Co33 O59 2.155 . S
Co33 O60 2.096 . S
C34 N37 1.301 . S
C34 N38 1.328 . S
C34 H39 0.930 . S
C35 C36 1.333 . S
C35 N37 1.317 . S
C35 H40 0.930 . S
C36 C35 1.333 . S
C36 N38 1.350 . S
C36 H62 0.931 . S
N37 Co33 2.148 . S
N37 C34 1.301 . S
N37 C35 1.317 . S
N38 C34 1.328 . S
N38 C36 1.350 . S
H39 C34 0.930 . S
H40 C35 0.930 . S
C41 O42 1.224 . S
C41 O60 1.247 . S
O42 C41 1.224 . S
N43 Co33 2.128 . S
N43 C44 1.355 . S
N43 C46 1.311 . S
C44 N43 1.355 . S
C44 C45 1.363 . S
C44 H56 0.929 . S
C45 C44 1.363 . S
C45 N47 1.375 . S
C45 H63 0.931 . S
C46 N43 1.311 . S
C46 N47 1.347 . S
C46 H57 0.929 . S
N47 C45 1.375 . S
N47 C46 1.347 . S
C48 C51 1.365 . S
C48 N53 1.328 . S
C48 H54 0.929 . S
C49 C50 1.362 . S
C49 C52 1.378 . S
C49 H64 0.929 . S
C50 C49 1.362 . S
C50 C51 1.366 . S
C51 C48 1.365 . S
C51 C50 1.366 . S
C51 H65 0.930 . S
C52 C49 1.378 . S
C52 N53 1.315 . S
C52 H55 0.930 . S
N53 Co33 2.194 . S
N53 C48 1.328 . S
N53 C52 1.315 . S
H54 C48 0.929 . S
H55 C52 0.930 . S
H56 C44 0.929 . S
H57 C46 0.929 . S
O58 Co33 2.351 . S
O58 C61 1.244 . S
O59 Co33 2.155 . S
O59 C61 1.240 . S
O60 Co33 2.096 . S
O60 C41 1.247 . S
C61 O58 1.244 . S
C61 O59 1.240 . S
H62 C36 0.931 . S
H63 C45 0.931 . S
H64 C49 0.929 . S
H65 C51 0.930 . S
Co66 N70 2.148 . S
Co66 N76 2.128 . S
Co66 N86 2.194 . S
Co66 O91 2.351 . S
Co66 O92 2.155 . S
Co66 O93 2.096 . S
C67 N70 1.301 . S
C67 N71 1.328 . S
C67 H72 0.930 . S
C68 C69 1.333 . S
C68 N70 1.317 . S
C68 H73 0.930 . S
C69 C68 1.333 . S
C69 N71 1.350 . S
C69 H95 0.931 . S
N70 Co66 2.148 . S
N70 C67 1.301 . S
N70 C68 1.317 . S
N71 C67 1.328 . S
N71 C69 1.350 . S
H72 C67 0.930 . S
H73 C68 0.930 . S
C74 O75 1.224 . S
C74 O93 1.247 . S
O75 C74 1.224 . S
N76 Co66 2.128 . S
N76 C77 1.355 . S
N76 C79 1.311 . S
C77 N76 1.355 . S
C77 C78 1.363 . S
C77 H89 0.929 . S
C78 C77 1.363 . S
C78 N80 1.375 . S
C78 H96 0.931 . S
C79 N76 1.311 . S
C79 N80 1.347 . S
C79 H90 0.929 . S
N80 C78 1.375 . S
N80 C79 1.347 . S
C81 C84 1.365 . S
C81 N86 1.328 . S
C81 H87 0.929 . S
C82 C83 1.362 . S
C82 C85 1.378 . S
C82 H97 0.929 . S
C83 C82 1.362 . S
C83 C84 1.366 . S
C84 C81 1.365 . S
C84 C83 1.366 . S
C84 H98 0.930 . S
C85 C82 1.378 . S
C85 N86 1.315 . S
C85 H88 0.930 . S
N86 Co66 2.194 . S
N86 C81 1.328 . S
N86 C85 1.315 . S
H87 C81 0.929 . S
H88 C85 0.930 . S
H89 C77 0.929 . S
H90 C79 0.929 . S
O91 Co66 2.351 . S
O91 C94 1.244 . S
O92 Co66 2.155 . S
O92 C94 1.240 . S
O93 Co66 2.096 . S
O93 C74 1.247 . S
C94 O91 1.244 . S
C94 O92 1.240 . S
H95 C69 0.931 . S
H96 C78 0.931 . S
H97 C82 0.929 . S
H98 C84 0.930 . S
Co99 N103 2.148 . S
Co99 N109 2.128 . S
Co99 N119 2.194 . S
Co99 O124 2.351 . S
Co99 O125 2.155 . S
Co99 O126 2.096 . S
C100 N103 1.301 . S
C100 N104 1.328 . S
C100 H105 0.930 . S
C101 C102 1.333 . S
C101 N103 1.317 . S
C101 H106 0.930 . S
C102 C101 1.333 . S
C102 N104 1.350 . S
C102 H128 0.931 . S
N103 Co99 2.148 . S
N103 C100 1.301 . S
N103 C101 1.317 . S
N104 C100 1.328 . S
N104 C102 1.350 . S
H105 C100 0.930 . S
H106 C101 0.930 . S
C107 O108 1.224 . S
C107 O126 1.247 . S
O108 C107 1.224 . S
N109 Co99 2.128 . S
N109 C110 1.355 . S
N109 C112 1.311 . S
C110 N109 1.355 . S
C110 C111 1.363 . S
C110 H122 0.929 . S
C111 C110 1.363 . S
C111 N113 1.375 . S
C111 H129 0.931 . S
C112 N109 1.311 . S
C112 N113 1.347 . S
C112 H123 0.929 . S
N113 C111 1.375 . S
N113 C112 1.347 . S
C114 C117 1.365 . S
C114 N119 1.328 . S
C114 H120 0.929 . S
C115 C116 1.362 . S
C115 C118 1.378 . S
C115 H130 0.929 . S
C116 C115 1.362 . S
C116 C117 1.366 . S
C117 C114 1.365 . S
C117 C116 1.366 . S
C117 H131 0.930 . S
C118 C115 1.378 . S
C118 N119 1.315 . S
C118 H121 0.930 . S
N119 Co99 2.194 . S
N119 C114 1.328 . S
N119 C118 1.315 . S
H120 C114 0.929 . S
H121 C118 0.930 . S
H122 C110 0.929 . S
H123 C112 0.929 . S
O124 Co99 2.351 . S
O124 C127 1.244 . S
O125 Co99 2.155 . S
O125 C127 1.240 . S
O126 Co99 2.096 . S
O126 C107 1.247 . S
C127 O124 1.244 . S
C127 O125 1.240 . S
H128 C102 0.931 . S
H129 C111 0.931 . S
H130 C115 0.929 . S
H131 C117 0.930 . S
Co132 N136 2.148 . S
Co132 N142 2.128 . S
Co132 N152 2.194 . S
Co132 O157 2.351 . S
Co132 O158 2.155 . S
Co132 O159 2.096 . S
C133 N136 1.301 . S
C133 N137 1.328 . S
C133 H138 0.930 . S
C134 C135 1.333 . S
C134 N136 1.317 . S
C134 H139 0.930 . S
C135 C134 1.333 . S
C135 N137 1.350 . S
C135 H161 0.931 . S
N136 Co132 2.148 . S
N136 C133 1.301 . S
N136 C134 1.317 . S
N137 C133 1.328 . S
N137 C135 1.350 . S
H138 C133 0.930 . S
H139 C134 0.930 . S
C140 O141 1.224 . S
C140 O159 1.247 . S
O141 C140 1.224 . S
N142 Co132 2.128 . S
N142 C143 1.355 . S
N142 C145 1.311 . S
C143 N142 1.355 . S
C143 C144 1.363 . S
C143 H155 0.929 . S
C144 C143 1.363 . S
C144 N146 1.375 . S
C144 H162 0.931 . S
C145 N142 1.311 . S
C145 N146 1.347 . S
C145 H156 0.929 . S
N146 C144 1.375 . S
N146 C145 1.347 . S
C147 C150 1.365 . S
C147 N152 1.328 . S
C147 H153 0.929 . S
C148 C149 1.362 . S
C148 C151 1.378 . S
C148 H163 0.929 . S
C149 C148 1.362 . S
C149 C150 1.366 . S
C150 C147 1.365 . S
C150 C149 1.366 . S
C150 H164 0.930 . S
C151 C148 1.378 . S
C151 N152 1.315 . S
C151 H154 0.930 . S
N152 Co132 2.194 . S
N152 C147 1.328 . S
N152 C151 1.315 . S
H153 C147 0.929 . S
H154 C151 0.930 . S
H155 C143 0.929 . S
H156 C145 0.929 . S
O157 Co132 2.351 . S
O157 C160 1.244 . S
O158 Co132 2.155 . S
O158 C160 1.240 . S
O159 Co132 2.096 . S
O159 C140 1.247 . S
C160 O157 1.244 . S
C160 O158 1.240 . S
H161 C135 0.931 . S
H162 C144 0.931 . S
H163 C148 0.929 . S
H164 C150 0.930 . S
Co165 N169 2.148 . S
Co165 N175 2.128 . S
Co165 N185 2.194 . S
Co165 O190 2.351 . S
Co165 O191 2.155 . S
Co165 O192 2.096 . S
C166 N169 1.301 . S
C166 N170 1.328 . S
C166 H171 0.930 . S
C167 C168 1.333 . S
C167 N169 1.317 . S
C167 H172 0.930 . S
C168 C167 1.333 . S
C168 N170 1.350 . S
C168 H194 0.931 . S
N169 Co165 2.148 . S
N169 C166 1.301 . S
N169 C167 1.317 . S
N170 C166 1.328 . S
N170 C168 1.350 . S
H171 C166 0.930 . S
H172 C167 0.930 . S
C173 O174 1.224 . S
C173 O192 1.247 . S
O174 C173 1.224 . S
N175 Co165 2.128 . S
N175 C176 1.355 . S
N175 C178 1.311 . S
C176 N175 1.355 . S
C176 C177 1.363 . S
C176 H188 0.929 . S
C177 C176 1.363 . S
C177 N179 1.375 . S
C177 H195 0.931 . S
C178 N175 1.311 . S
C178 N179 1.347 . S
C178 H189 0.929 . S
N179 C177 1.375 . S
N179 C178 1.347 . S
C180 C183 1.365 . S
C180 N185 1.328 . S
C180 H186 0.929 . S
C181 C182 1.362 . S
C181 C184 1.378 . S
C181 H196 0.929 . S
C182 C181 1.362 . S
C182 C183 1.366 . S
C183 C180 1.365 . S
C183 C182 1.366 . S
C183 H197 0.930 . S
C184 C181 1.378 . S
C184 N185 1.315 . S
C184 H187 0.930 . S
N185 Co165 2.194 . S
N185 C180 1.328 . S
N185 C184 1.315 . S
H186 C180 0.929 . S
H187 C184 0.930 . S
H188 C176 0.929 . S
H189 C178 0.929 . S
O190 Co165 2.351 . S
O190 C193 1.244 . S
O191 Co165 2.155 . S
O191 C193 1.240 . S
O192 Co165 2.096 . S
O192 C173 1.247 . S
C193 O190 1.244 . S
C193 O191 1.240 . S
H194 C168 0.931 . S
H195 C177 0.931 . S
H196 C181 0.929 . S
H197 C183 0.930 . S
Co198 N202 2.148 . S
Co198 N208 2.128 . S
Co198 N218 2.194 . S
Co198 O223 2.351 . S
Co198 O224 2.155 . S
Co198 O225 2.096 . S
C199 N202 1.301 . S
C199 N203 1.328 . S
C199 H204 0.930 . S
C200 C201 1.333 . S
C200 N202 1.317 . S
C200 H205 0.930 . S
C201 C200 1.333 . S
C201 N203 1.350 . S
C201 H227 0.931 . S
N202 Co198 2.148 . S
N202 C199 1.301 . S
N202 C200 1.317 . S
N203 C199 1.328 . S
N203 C201 1.350 . S
H204 C199 0.930 . S
H205 C200 0.930 . S
C206 O207 1.224 . S
C206 O225 1.247 . S
O207 C206 1.224 . S
N208 Co198 2.128 . S
N208 C209 1.355 . S
N208 C211 1.311 . S
C209 N208 1.355 . S
C209 C210 1.363 . S
C209 H221 0.929 . S
C210 C209 1.363 . S
C210 N212 1.375 . S
C210 H228 0.931 . S
C211 N208 1.311 . S
C211 N212 1.347 . S
C211 H222 0.929 . S
N212 C210 1.375 . S
N212 C211 1.347 . S
C213 C216 1.365 . S
C213 N218 1.328 . S
C213 H219 0.929 . S
C214 C215 1.362 . S
C214 C217 1.378 . S
C214 H229 0.929 . S
C215 C214 1.362 . S
C215 C216 1.366 . S
C216 C213 1.365 . S
C216 C215 1.366 . S
C216 H230 0.930 . S
C217 C214 1.378 . S
C217 N218 1.315 . S
C217 H220 0.930 . S
N218 Co198 2.194 . S
N218 C213 1.328 . S
N218 C217 1.315 . S
H219 C213 0.929 . S
H220 C217 0.930 . S
H221 C209 0.929 . S
H222 C211 0.929 . S
O223 Co198 2.351 . S
O223 C226 1.244 . S
O224 Co198 2.155 . S
O224 C226 1.240 . S
O225 Co198 2.096 . S
O225 C206 1.247 . S
C226 O223 1.244 . S
C226 O224 1.240 . S
H227 C201 0.931 . S
H228 C210 0.931 . S
H229 C214 0.929 . S
H230 C216 0.930 . S
Co231 N235 2.148 . S
Co231 N241 2.128 . S
Co231 N251 2.194 . S
Co231 O256 2.351 . S
Co231 O257 2.155 . S
Co231 O258 2.096 . S
C232 N235 1.301 . S
C232 N236 1.328 . S
C232 H237 0.930 . S
C233 C234 1.333 . S
C233 N235 1.317 . S
C233 H238 0.930 . S
C234 C233 1.333 . S
C234 N236 1.350 . S
C234 H260 0.931 . S
N235 Co231 2.148 . S
N235 C232 1.301 . S
N235 C233 1.317 . S
N236 C232 1.328 . S
N236 C234 1.350 . S
H237 C232 0.930 . S
H238 C233 0.930 . S
C239 O240 1.224 . S
C239 O258 1.247 . S
O240 C239 1.224 . S
N241 Co231 2.128 . S
N241 C242 1.355 . S
N241 C244 1.311 . S
C242 N241 1.355 . S
C242 C243 1.363 . S
C242 H254 0.929 . S
C243 C242 1.363 . S
C243 N245 1.375 . S
C243 H261 0.931 . S
C244 N241 1.311 . S
C244 N245 1.347 . S
C244 H255 0.929 . S
N245 C243 1.375 . S
N245 C244 1.347 . S
C246 C249 1.365 . S
C246 N251 1.328 . S
C246 H252 0.929 . S
C247 C248 1.362 . S
C247 C250 1.378 . S
C247 H262 0.929 . S
C248 C247 1.362 . S
C248 C249 1.366 . S
C249 C246 1.365 . S
C249 C248 1.366 . S
C249 H263 0.930 . S
C250 C247 1.378 . S
C250 N251 1.315 . S
C250 H253 0.930 . S
N251 Co231 2.194 . S
N251 C246 1.328 . S
N251 C250 1.315 . S
H252 C246 0.929 . S
H253 C250 0.930 . S
H254 C242 0.929 . S
H255 C244 0.929 . S
O256 Co231 2.351 . S
O256 C259 1.244 . S
O257 Co231 2.155 . S
O257 C259 1.240 . S
O258 Co231 2.096 . S
O258 C239 1.247 . S
C259 O256 1.244 . S
C259 O257 1.240 . S
H260 C234 0.931 . S
H261 C243 0.931 . S
H262 C247 0.929 . S
H263 C249 0.930 . S
H264 C272 0.950 . S
H265 C277 0.950 . S
H266 C274 0.950 . S
H267 C276 0.950 . S
H268 C278 0.950 . S
H269 C280 0.950 . S
H270 C282 0.950 . S
H271 C283 0.950 . S
C272 H264 0.950 . S
C272 C273 1.386 . S
C272 C274 1.391 . S
C273 C272 1.386 . S
C273 C277 1.393 . S
C274 H266 0.950 . S
C274 C272 1.391 . S
C274 C275 1.400 . S
C275 C274 1.400 . S
C275 C276 1.398 . S
C275 C281 1.491 . S
C276 H267 0.950 . S
C276 C275 1.398 . S
C276 C277 1.391 . S
C277 H265 0.950 . S
C277 C273 1.393 . S
C277 C276 1.391 . S
C278 H268 0.950 . S
C278 C279 1.386 . S
C278 C280 1.391 . S
C279 C278 1.386 . S
C279 C283 1.393 . S
C280 H269 0.950 . S
C280 C278 1.391 . S
C280 C281 1.400 . S
C281 C275 1.491 . S
C281 C280 1.400 . S
C281 C282 1.398 . S
C282 H270 0.950 . S
C282 C281 1.398 . S
C282 C283 1.391 . S
C283 H271 0.950 . S
C283 C279 1.393 . S
C283 C282 1.391 . S
H284 C292 0.950 . S
H285 C297 0.950 . S
H286 C294 0.950 . S
H287 C296 0.950 . S
H288 C298 0.950 . S
H289 C300 0.950 . S
H290 C302 0.950 . S
H291 C303 0.950 . S
C292 H284 0.950 . S
C292 C293 1.386 . S
C292 C294 1.391 . S
C293 C292 1.386 . S
C293 C297 1.393 . S
C294 H286 0.950 . S
C294 C292 1.391 . S
C294 C295 1.400 . S
C295 C294 1.400 . S
C295 C296 1.398 . S
C295 C301 1.491 . S
C296 H287 0.950 . S
C296 C295 1.398 . S
C296 C297 1.391 . S
C297 H285 0.950 . S
C297 C293 1.393 . S
C297 C296 1.391 . S
C298 H288 0.950 . S
C298 C299 1.386 . S
C298 C300 1.391 . S
C299 C298 1.386 . S
C299 C303 1.393 . S
C300 H289 0.950 . S
C300 C298 1.391 . S
C300 C301 1.400 . S
C301 C295 1.491 . S
C301 C300 1.400 . S
C301 C302 1.398 . S
C302 H290 0.950 . S
C302 C301 1.398 . S
C302 C303 1.391 . S
C303 H291 0.950 . S
C303 C299 1.393 . S
C303 C302 1.391 . S
H304 C312 0.950 . S
H305 C317 0.950 . S
H306 C314 0.950 . S
H307 C316 0.950 . S
H308 C318 0.950 . S
H309 C320 0.950 . S
H310 C322 0.950 . S
H311 C323 0.950 . S
C312 H304 0.950 . S
C312 C313 1.386 . S
C312 C314 1.391 . S
C313 C312 1.386 . S
C313 C317 1.393 . S
C314 H306 0.950 . S
C314 C312 1.391 . S
C314 C315 1.400 . S
C315 C314 1.400 . S
C315 C316 1.398 . S
C315 C321 1.491 1_455 S
C316 H307 0.950 . S
C316 C315 1.398 . S
C316 C317 1.391 . S
C317 H305 0.950 . S
C317 C313 1.393 . S
C317 C316 1.391 . S
C318 H308 0.950 . S
C318 C319 1.386 . S
C318 C320 1.391 . S
C319 C318 1.386 . S
C319 C323 1.393 . S
C320 H309 0.950 . S
C320 C318 1.391 . S
C320 C321 1.400 . S
C321 C315 1.491 1_655 S
C321 C320 1.400 . S
C321 C322 1.398 . S
C322 H310 0.950 . S
C322 C321 1.398 . S
C322 C323 1.391 . S
C323 H311 0.950 . S
C323 C319 1.393 . S
C323 C322 1.391 . S
H324 C332 0.950 . S
H325 C337 0.950 . S
H326 C334 0.950 . S
H327 C336 0.950 . S
H328 C338 0.950 . S
H329 C340 0.950 . S
H330 C342 0.950 . S
H331 C343 0.950 . S
C332 H324 0.950 . S
C332 C333 1.386 . S
C332 C334 1.391 . S
C333 C332 1.386 . S
C333 C337 1.393 . S
C334 H326 0.950 . S
C334 C332 1.391 . S
C334 C335 1.400 . S
C335 C334 1.400 . S
C335 C336 1.398 . S
C335 C341 1.491 1_455 S
C336 H327 0.950 . S
C336 C335 1.398 . S
C336 C337 1.391 . S
C337 H325 0.950 . S
C337 C333 1.393 . S
C337 C336 1.391 . S
C338 H328 0.950 . S
C338 C339 1.386 . S
C338 C340 1.391 . S
C339 C338 1.386 . S
C339 C343 1.393 . S
C340 H329 0.950 . S
C340 C338 1.391 . S
C340 C341 1.400 . S
C341 C335 1.491 1_655 S
C341 C340 1.400 . S
C341 C342 1.398 . S
C342 H330 0.950 . S
C342 C341 1.398 . S
C342 C343 1.391 . S
C343 H331 0.950 . S
C343 C339 1.393 . S
C343 C342 1.391 . S
H344 C352 0.950 . S
H345 C357 0.950 . S
H346 C354 0.950 . S
H347 C356 0.950 . S
H348 C358 0.950 . S
H349 C360 0.950 . S
H350 C362 0.950 . S
H351 C363 0.950 . S
C352 H344 0.950 . S
C352 C353 1.386 . S
C352 C354 1.391 . S
C353 C352 1.386 . S
C353 C357 1.393 . S
C354 H346 0.950 . S
C354 C352 1.391 . S
C354 C355 1.400 . S
C355 C354 1.400 . S
C355 C356 1.398 . S
C355 C361 1.491 1_556 S
C356 H347 0.950 . S
C356 C355 1.398 . S
C356 C357 1.391 . S
C357 H345 0.950 . S
C357 C353 1.393 . S
C357 C356 1.391 . S
C358 H348 0.950 . S
C358 C359 1.386 . S
C358 C360 1.391 . S
C359 C358 1.386 . S
C359 C363 1.393 . S
C360 H349 0.950 . S
C360 C358 1.391 . S
C360 C361 1.400 . S
C361 C355 1.491 1_554 S
C361 C360 1.400 . S
C361 C362 1.398 . S
C362 H350 0.950 . S
C362 C361 1.398 . S
C362 C363 1.391 . S
C363 H351 0.950 . S
C363 C359 1.393 . S
C363 C362 1.391 . S
H364 C372 0.950 . S
H365 C377 0.950 . S
H366 C374 0.950 . S
H367 C376 0.950 . S
H368 C378 0.950 . S
H369 C380 0.950 . S
H370 C382 0.950 . S
H371 C383 0.950 . S
C372 H364 0.950 . S
C372 C373 1.386 . S
C372 C374 1.391 . S
C373 C372 1.386 . S
C373 C377 1.393 . S
C374 H366 0.950 . S
C374 C372 1.391 . S
C374 C375 1.400 . S
C375 C374 1.400 . S
C375 C376 1.398 . S
C375 C381 1.491 . S
C376 H367 0.950 . S
C376 C375 1.398 . S
C376 C377 1.391 . S
C377 H365 0.950 . S
C377 C373 1.393 . S
C377 C376 1.391 . S
C378 H368 0.950 . S
C378 C379 1.386 . S
C378 C380 1.391 . S
C379 C378 1.386 . S
C379 C383 1.393 . S
C380 H369 0.950 . S
C380 C378 1.391 . S
C380 C381 1.400 . S
C381 C375 1.491 . S
C381 C380 1.400 . S
C381 C382 1.398 . S
C382 H370 0.950 . S
C382 C381 1.398 . S
C382 C383 1.391 . S
C383 H371 0.950 . S
C383 C379 1.393 . S
C383 C382 1.391 . S
H384 C392 0.950 . S
H385 C397 0.950 . S
H386 C394 0.950 . S
H387 C396 0.950 . S
H388 C398 0.950 . S
H389 C400 0.950 . S
H390 C402 0.950 . S
H391 C403 0.950 . S
C392 H384 0.950 . S
C392 C393 1.386 . S
C392 C394 1.391 . S
C393 C392 1.386 . S
C393 C397 1.393 . S
C394 H386 0.950 . S
C394 C392 1.391 . S
C394 C395 1.400 . S
C395 C394 1.400 . S
C395 C396 1.398 . S
C395 C401 1.491 1_556 S
C396 H387 0.950 . S
C396 C395 1.398 . S
C396 C397 1.391 . S
C397 H385 0.950 . S
C397 C393 1.393 . S
C397 C396 1.391 . S
C398 H388 0.950 . S
C398 C399 1.386 . S
C398 C400 1.391 . S
C399 C398 1.386 . S
C399 C403 1.393 . S
C400 H389 0.950 . S
C400 C398 1.391 . S
C400 C401 1.400 . S
C401 C395 1.491 1_554 S
C401 C400 1.400 . S
C401 C402 1.398 . S
C402 H390 0.950 . S
C402 C401 1.398 . S
C402 C403 1.391 . S
C403 H391 0.950 . S
C403 C399 1.393 . S
C403 C402 1.391 . S
H404 C412 0.950 . S
H405 C417 0.950 . S
H406 C414 0.950 . S
H407 C416 0.950 . S
H408 C418 0.950 . S
H409 C420 0.950 . S
H410 C422 0.950 . S
H411 C423 0.950 . S
C412 H404 0.950 . S
C412 C413 1.386 . S
C412 C414 1.391 . S
C413 C412 1.386 . S
C413 C417 1.393 . S
C414 H406 0.950 . S
C414 C412 1.391 . S
C414 C415 1.400 . S
C415 C414 1.400 . S
C415 C416 1.398 . S
C415 C421 1.491 . S
C416 H407 0.950 . S
C416 C415 1.398 . S
C416 C417 1.391 . S
C417 H405 0.950 . S
C417 C413 1.393 . S
C417 C416 1.391 . S
C418 H408 0.950 . S
C418 C419 1.386 . S
C418 C420 1.391 . S
C419 C418 1.386 . S
C419 C423 1.393 . S
C420 H409 0.950 . S
C420 C418 1.391 . S
C420 C421 1.400 . S
C421 C415 1.491 . S
C421 C420 1.400 . S
C421 C422 1.398 . S
C422 H410 0.950 . S
C422 C421 1.398 . S
C422 C423 1.391 . S
C423 H411 0.950 . S
C423 C419 1.393 . S
C423 C422 1.391 . S
H424 C432 0.950 . S
H425 C437 0.950 . S
H426 C434 0.950 1_554 S
H427 C436 0.950 1_565 S
H428 C438 0.950 . S
H429 C440 0.950 1_556 S
H430 C442 0.950 1_545 S
H431 C443 0.950 . S
C432 H424 0.950 . S
C432 C433 1.386 . S
C432 C434 1.391 . S
C433 C432 1.386 . S
C433 C437 1.393 . S
C434 H426 0.950 1_556 S
C434 C432 1.391 . S
C434 C435 1.400 . S
C435 C434 1.400 . S
C435 C436 1.398 . S
C435 C441 1.491 1_546 S
C436 H427 0.950 1_545 S
C436 C435 1.398 . S
C436 C437 1.391 . S
C437 H425 0.950 . S
C437 C433 1.393 . S
C437 C436 1.391 . S
C438 H428 0.950 . S
C438 C439 1.386 . S
C438 C440 1.391 . S
C439 C438 1.386 . S
C439 C443 1.393 . S
C440 H429 0.950 1_554 S
C440 C438 1.391 . S
C440 C441 1.400 . S
C441 C435 1.491 1_564 S
C441 C440 1.400 . S
C441 C442 1.398 . S
C442 H430 0.950 1_565 S
C442 C441 1.398 . S
C442 C443 1.391 . S
C443 H431 0.950 . S
C443 C439 1.393 . S
C443 C442 1.391 . S
H444 C452 0.950 . S
H445 C457 0.950 . S
H446 C454 0.950 . S
H447 C456 0.950 1_565 S
H448 C458 0.950 . S
H449 C460 0.950 . S
H450 C462 0.950 1_545 S
H451 C463 0.950 . S
C452 H444 0.950 . S
C452 C453 1.386 . S
C452 C454 1.391 . S
C453 C452 1.386 . S
C453 C457 1.393 . S
C454 H446 0.950 . S
C454 C452 1.391 . S
C454 C455 1.400 . S
C455 C454 1.400 . S
C455 C456 1.398 . S
C455 C461 1.491 1_545 S
C456 H447 0.950 1_545 S
C456 C455 1.398 . S
C456 C457 1.391 . S
C457 H445 0.950 . S
C457 C453 1.393 . S
C457 C456 1.391 . S
C458 H448 0.950 . S
C458 C459 1.386 . S
C458 C460 1.391 . S
C459 C458 1.386 . S
C459 C463 1.393 . S
C460 H449 0.950 . S
C460 C458 1.391 . S
C460 C461 1.400 . S
C461 C455 1.491 1_565 S
C461 C460 1.400 . S
C461 C462 1.398 . S
C462 H450 0.950 1_565 S
C462 C461 1.398 . S
C462 C463 1.391 . S
C463 H451 0.950 . S
C463 C459 1.393 . S
C463 C462 1.391 . S
H464 C472 0.950 . S
H465 C477 0.950 . S
H466 C474 0.942 1_554 S
H467 C476 0.960 . S
H468 C478 0.950 . S
H469 C480 0.942 1_556 S
H470 C482 0.960 . S
H471 C483 0.950 . S
C472 H464 0.950 . S
C472 C473 1.386 . S
C472 C474 1.396 . S
C473 C472 1.386 . S
C473 C477 1.393 . S
C474 H466 0.942 1_556 S
C474 C472 1.396 . S
C474 C475 1.403 . S
C475 C474 1.403 . S
C475 C476 1.398 . S
C475 C481 1.491 1_546 S
C476 H467 0.960 . S
C476 C475 1.398 . S
C476 C477 1.391 . S
C477 H465 0.950 . S
C477 C473 1.393 . S
C477 C476 1.391 . S
C478 H468 0.950 . S
C478 C479 1.386 . S
C478 C480 1.396 . S
C479 C478 1.386 . S
C479 C483 1.393 . S
C480 H469 0.942 1_554 S
C480 C478 1.396 . S
C480 C481 1.403 . S
C481 C475 1.491 1_564 S
C481 C480 1.403 . S
C481 C482 1.398 . S
C482 H470 0.960 . S
C482 C481 1.398 . S
C482 C483 1.391 . S
C483 H471 0.950 . S
C483 C479 1.393 . S
C483 C482 1.391 . S
H484 C492 0.950 . S
H485 C497 0.950 . S
H486 C494 0.950 . S
H487 C496 0.921 1_565 S
H488 C498 0.950 . S
H489 C500 0.950 . S
H490 C502 0.921 1_545 S
H491 C503 0.950 . S
C492 H484 0.950 . S
C492 C493 1.386 . S
C492 C494 1.391 . S
C493 C492 1.386 . S
C493 C497 1.393 . S
C494 H486 0.950 . S
C494 C492 1.391 . S
C494 C495 1.400 . S
C495 C494 1.400 . S
C495 C496 1.398 . S
C495 C501 1.491 1_545 S
C496 H487 0.921 1_545 S
C496 C495 1.398 . S
C496 C497 1.391 . S
C497 H485 0.950 . S
C497 C493 1.393 . S
C497 C496 1.391 . S
C498 H488 0.950 . S
C498 C499 1.386 . S
C498 C500 1.391 . S
C499 C498 1.386 . S
C499 C503 1.393 . S
C500 H489 0.950 . S
C500 C498 1.391 . S
C500 C501 1.400 . S
C501 C495 1.491 1_565 S
C501 C500 1.400 . S
C501 C502 1.398 . S
C502 H490 0.921 1_565 S
C502 C501 1.398 . S
C502 C503 1.391 . S
C503 H491 0.950 . S
C503 C499 1.393 . S
C503 C502 1.391 . S
H504 C512 0.950 . S
H505 C517 0.950 . S
H506 C514 0.950 . S
H507 C516 0.950 . S
H508 C518 0.950 . S
H509 C520 0.950 . S
H510 C522 0.950 . S
H511 C523 0.950 . S
C512 H504 0.950 . S
C512 C513 1.386 . S
C512 C514 1.391 . S
C513 C512 1.386 . S
C513 C517 1.393 . S
C514 H506 0.950 . S
C514 C512 1.391 . S
C514 C515 1.400 . S
C515 C514 1.400 . S
C515 C516 1.398 . S
C515 C521 1.491 . S
C516 H507 0.950 . S
C516 C515 1.398 . S
C516 C517 1.391 . S
C517 H505 0.950 . S
C517 C513 1.393 . S
C517 C516 1.391 . S
C518 H508 0.950 . S
C518 C519 1.386 . S
C518 C520 1.391 . S
C519 C518 1.386 . S
C519 C523 1.393 1_556 S
C520 H509 0.950 . S
C520 C518 1.391 . S
C520 C521 1.400 1_556 S
C521 C515 1.491 . S
C521 C520 1.400 1_554 S
C521 C522 1.398 . S
C522 H510 0.950 . S
C522 C521 1.398 . S
C522 C523 1.391 . S
C523 H511 0.950 . S
C523 C519 1.393 1_554 S
C523 C522 1.391 . S
H524 C532 0.950 . S
H525 C537 0.950 . S
H526 C534 0.950 . S
H527 C536 0.950 . S
H528 C538 0.950 . S
H529 C540 0.950 . S
H530 C542 0.950 . S
H531 C543 0.950 . S
C532 H524 0.950 . S
C532 C533 1.386 . S
C532 C534 1.391 . S
C533 C532 1.386 . S
C533 C537 1.393 . S
C534 H526 0.950 . S
C534 C532 1.391 . S
C534 C535 1.400 . S
C535 C534 1.400 . S
C535 C536 1.398 . S
C535 C541 1.491 . S
C536 H527 0.950 . S
C536 C535 1.398 . S
C536 C537 1.391 . S
C537 H525 0.950 . S
C537 C533 1.393 . S
C537 C536 1.391 . S
C538 H528 0.950 . S
C538 C539 1.386 . S
C538 C540 1.391 . S
C539 C538 1.386 . S
C539 C543 1.393 . S
C540 H529 0.950 . S
C540 C538 1.391 . S
C540 C541 1.400 . S
C541 C535 1.491 . S
C541 C540 1.400 . S
C541 C542 1.398 . S
C542 H530 0.950 . S
C542 C541 1.398 . S
C542 C543 1.391 . S
C543 H531 0.950 . S
C543 C539 1.393 . S
C543 C542 1.391 . S
H544 C552 0.950 . S
H545 C557 0.950 . S
H546 C554 0.950 . S
H547 C556 0.950 . S
H548 C558 0.950 . S
H549 C560 0.950 . S
H550 C562 0.950 . S
H551 C563 0.950 . S
C552 H544 0.950 . S
C552 C553 1.386 1_556 S
C552 C554 1.391 . S
C553 C552 1.386 1_554 S
C553 C557 1.393 . S
C554 H546 0.950 . S
C554 C552 1.391 . S
C554 C555 1.400 . S
C555 C554 1.400 . S
C555 C556 1.398 1_556 S
C555 C561 1.491 . S
C556 H547 0.950 . S
C556 C555 1.398 1_554 S
C556 C557 1.391 . S
C557 H545 0.950 . S
C557 C553 1.393 . S
C557 C556 1.391 . S
C558 H548 0.950 . S
C558 C559 1.386 . S
C558 C560 1.391 . S
C559 C558 1.386 . S
C559 C563 1.393 . S
C560 H549 0.950 . S
C560 C558 1.391 . S
C560 C561 1.400 . S
C561 C555 1.491 . S
C561 C560 1.400 . S
C561 C562 1.398 . S
C562 H550 0.950 . S
C562 C561 1.398 . S
C562 C563 1.391 . S
C563 H551 0.950 . S
C563 C559 1.393 . S
C563 C562 1.391 . S
H564 C572 0.950 . S
H565 C577 0.950 . S
H566 C574 0.950 . S
H567 C576 0.950 . S
H568 C578 0.950 . S
H569 C580 0.950 . S
H570 C582 0.950 . S
H571 C583 0.950 . S
C572 H564 0.950 . S
C572 C573 1.386 . S
C572 C574 1.391 . S
C573 C572 1.386 . S
C573 C577 1.393 . S
C574 H566 0.950 . S
C574 C572 1.391 . S
C574 C575 1.400 . S
C575 C574 1.400 . S
C575 C576 1.398 . S
C575 C581 1.491 . S
C576 H567 0.950 . S
C576 C575 1.398 . S
C576 C577 1.391 . S
C577 H565 0.950 . S
C577 C573 1.393 . S
C577 C576 1.391 . S
C578 H568 0.950 . S
C578 C579 1.386 . S
C578 C580 1.391 . S
C579 C578 1.386 . S
C579 C583 1.393 . S
C580 H569 0.950 . S
C580 C578 1.391 . S
C580 C581 1.400 . S
C581 C575 1.491 . S
C581 C580 1.400 . S
C581 C582 1.398 . S
C582 H570 0.950 . S
C582 C581 1.398 . S
C582 C583 1.391 . S
C583 H571 0.950 . S
C583 C579 1.393 . S
C583 C582 1.391 . S
H584 C592 0.950 1_556 S
H585 C597 0.950 . S
H586 C594 0.950 . S
H587 C596 0.950 . S
H588 C598 0.950 . S
H589 C600 0.950 . S
H590 C602 0.950 . S
H591 C603 0.950 . S
C592 H584 0.950 1_554 S
C592 C593 1.386 1_554 S
C592 C594 1.391 . S
C593 C592 1.386 1_556 S
C593 C597 1.393 . S
C594 H586 0.950 . S
C594 C592 1.391 . S
C594 C595 1.400 . S
C595 C594 1.400 . S
C595 C596 1.398 . S
C595 C601 1.491 . S
C596 H587 0.950 . S
C596 C595 1.398 . S
C596 C597 1.391 1_554 S
C597 H585 0.950 . S
C597 C593 1.393 . S
C597 C596 1.391 1_556 S
C598 H588 0.950 . S
C598 C599 1.386 . S
C598 C600 1.391 . S
C599 C598 1.386 . S
C599 C603 1.393 . S
C600 H589 0.950 . S
C600 C598 1.391 . S
C600 C601 1.400 . S
C601 C595 1.491 . S
C601 C600 1.400 . S
C601 C602 1.398 . S
C602 H590 0.950 . S
C602 C601 1.398 . S
C602 C603 1.391 . S
C603 H591 0.950 . S
C603 C599 1.393 . S
C603 C602 1.391 . S
H604 C612 0.950 . S
H605 C617 0.950 . S
H606 C614 0.950 . S
H607 C616 0.950 . S
H608 C618 0.950 . S
H609 C620 0.950 . S
H610 C622 0.950 . S
H611 C623 0.950 . S
C612 H604 0.950 . S
C612 C613 1.386 . S
C612 C614 1.391 . S
C613 C612 1.386 . S
C613 C617 1.393 . S
C614 H606 0.950 . S
C614 C612 1.391 . S
C614 C615 1.400 . S
C615 C614 1.400 . S
C615 C616 1.398 . S
C615 C621 1.491 . S
C616 H607 0.950 . S
C616 C615 1.398 . S
C616 C617 1.391 . S
C617 H605 0.950 . S
C617 C613 1.393 . S
C617 C616 1.391 . S
C618 H608 0.950 . S
C618 C619 1.386 . S
C618 C620 1.391 . S
C619 C618 1.386 . S
C619 C623 1.393 . S
C620 H609 0.950 . S
C620 C618 1.391 . S
C620 C621 1.400 . S
C621 C615 1.491 . S
C621 C620 1.400 . S
C621 C622 1.398 . S
C622 H610 0.950 . S
C622 C621 1.398 . S
C622 C623 1.391 . S
C623 H611 0.950 . S
C623 C619 1.393 . S
C623 C622 1.391 . S
H624 C632 0.950 . S
H625 C637 0.950 . S
H626 C634 0.950 . S
H627 C636 0.950 . S
H628 C638 0.950 . S
H629 C640 0.950 . S
H630 C642 0.951 . S
H631 C643 0.950 . S
C632 H624 0.950 . S
C632 C633 1.386 . S
C632 C634 1.391 . S
C633 C632 1.386 . S
C633 C637 1.393 . S
C634 H626 0.950 . S
C634 C632 1.391 . S
C634 C635 1.400 . S
C635 C634 1.400 . S
C635 C636 1.398 . S
C635 C641 1.491 . S
C636 H627 0.950 . S
C636 C635 1.398 . S
C636 C637 1.391 . S
C637 H625 0.950 . S
C637 C633 1.393 . S
C637 C636 1.391 . S
C638 H628 0.950 . S
C638 C639 1.386 1_556 S
C638 C640 1.391 . S
C639 C638 1.386 1_554 S
C639 C643 1.393 . S
C640 H629 0.950 . S
C640 C638 1.391 . S
C640 C641 1.400 . S
C641 C635 1.491 . S
C641 C640 1.400 . S
C641 C642 1.396 1_556 S
C642 H630 0.951 . S
C642 C641 1.396 1_554 S
C642 C643 1.392 . S
C643 H631 0.950 . S
C643 C639 1.393 . S
C643 C642 1.392 . S
H644 C652 0.950 . S
H645 C657 0.950 . S
H646 C654 0.950 . S
H647 C656 0.950 . S
H648 C658 0.950 . S
H649 C660 0.950 . S
H650 C662 0.950 . S
H651 C663 0.950 . S
C652 H644 0.950 . S
C652 C653 1.386 . S
C652 C654 1.391 . S
C653 C652 1.386 . S
C653 C657 1.393 . S
C654 H646 0.950 . S
C654 C652 1.391 . S
C654 C655 1.400 . S
C655 C654 1.400 . S
C655 C656 1.398 . S
C655 C661 1.491 . S
C656 H647 0.950 . S
C656 C655 1.398 . S
C656 C657 1.391 . S
C657 H645 0.950 . S
C657 C653 1.393 . S
C657 C656 1.391 . S
C658 H648 0.950 . S
C658 C659 1.386 . S
C658 C660 1.391 . S
C659 C658 1.386 . S
C659 C663 1.393 . S
C660 H649 0.950 . S
C660 C658 1.391 . S
C660 C661 1.400 . S
C661 C655 1.491 . S
C661 C660 1.400 . S
C661 C662 1.398 . S
C662 H650 0.950 . S
C662 C661 1.398 . S
C662 C663 1.391 . S
C663 H651 0.950 . S
C663 C659 1.393 . S
C663 C662 1.391 . S
C273 C17 1.496 . S
C279 C116 1.484 . S
C293 C50 1.494 . S
C299 C83 1.484 . S
C313 C248 1.490 . S
C319 C149 1.500 . S
C333 C182 1.490 . S
C339 C215 1.500 . S
C353 N71 1.107 . S
C359 N5 1.106 . S
C373 N104 1.128 . S
C379 N38 1.133 . S
C393 C61 1.562 . S
C399 C127 1.567 . S
C413 C28 1.568 . S
C419 C94 1.561 . S
C433 N203 1.117 . S
C439 N137 1.135 . S
C453 N170 1.106 . S
C459 N236 1.128 . S
C473 C193 1.559 . S
C479 C259 1.568 . S
C493 C226 1.559 . S
C499 C160 1.569 . S
C513 C8 1.352 . S
C519 N179 1.339 . S
C533 C41 1.345 . S
C539 N146 1.354 . S
C553 N245 1.340 . S
C559 C74 1.353 . S
C573 C107 1.355 . S
C579 N212 1.348 . S
C593 N47 1.335 . S
C599 C140 1.346 . S
C613 C173 1.336 . S
C619 N14 1.343 . S
C633 C206 1.343 . S
C639 N113 1.353 . S
C653 C239 1.344 . S
C659 N80 1.335 . S
