# Generated by pormake.
# Topology smm, (6)-cn, num edge types: 1
# Building blocks:
#     Node 0, Type 0, BuildingBlock: VOLQOD_clean_sbu_1, # of connection points: 6
#     Node 1, Type 0, BuildingBlock: VOLQOD_clean_sbu_1, # of connection points: 6
#     Node 2, Type 0, BuildingBlock: VOLQOD_clean_sbu_1, # of connection points: 6
#     Node 3, Type 0, BuildingBlock: VOLQOD_clean_sbu_1, # of connection points: 6
#     Node 4, Type 0, BuildingBlock: VOLQOD_clean_sbu_1, # of connection points: 6
#     Node 5, Type 0, BuildingBlock: VOLQOD_clean_sbu_1, # of connection points: 6
#     Node 6, Type 0, BuildingBlock: VOLQOD_clean_sbu_1, # of connection points: 6
#     Node 7, Type 0, BuildingBlock: VOLQOD_clean_sbu_1, # of connection points: 6
#     Node 8, Type 0, BuildingBlock: VOLQOD_clean_sbu_1, # of connection points: 6
#     Edge 9, Type (0, 0), BuildingBlock: OJICUG_clean_linker_0, # of connection points: 2
#     Edge 10, Type (0, 0), BuildingBlock: OJICUG_clean_linker_0, # of connection points: 2
#     Edge 11, Type (0, 0), BuildingBlock: OJICUG_clean_linker_0, # of connection points: 2
#     Edge 12, Type (0, 0), BuildingBlock: OJICUG_clean_linker_0, # of connection points: 2
#     Edge 13, Type (0, 0), BuildingBlock: OJICUG_clean_linker_0, # of connection points: 2
#     Edge 14, Type (0, 0), BuildingBlock: OJICUG_clean_linker_0, # of connection points: 2
#     Edge 15, Type (0, 0), BuildingBlock: OJICUG_clean_linker_0, # of connection points: 2
#     Edge 16, Type (0, 0), BuildingBlock: OJICUG_clean_linker_0, # of connection points: 2
#     Edge 17, Type (0, 0), BuildingBlock: OJICUG_clean_linker_0, # of connection points: 2
#     Edge 18, Type (0, 0), BuildingBlock: OJICUG_clean_linker_0, # of connection points: 2
#     Edge 19, Type (0, 0), BuildingBlock: OJICUG_clean_linker_0, # of connection points: 2
#     Edge 20, Type (0, 0), BuildingBlock: OJICUG_clean_linker_0, # of connection points: 2
#     Edge 21, Type (0, 0), BuildingBlock: OJICUG_clean_linker_0, # of connection points: 2
#     Edge 22, Type (0, 0), BuildingBlock: OJICUG_clean_linker_0, # of connection points: 2
#     Edge 23, Type (0, 0), BuildingBlock: OJICUG_clean_linker_0, # of connection points: 2
#     Edge 24, Type (0, 0), BuildingBlock: OJICUG_clean_linker_0, # of connection points: 2
#     Edge 25, Type (0, 0), BuildingBlock: OJICUG_clean_linker_0, # of connection points: 2
#     Edge 26, Type (0, 0), BuildingBlock: OJICUG_clean_linker_0, # of connection points: 2
#     Edge 27, Type (0, 0), BuildingBlock: OJICUG_clean_linker_0, # of connection points: 2
#     Edge 28, Type (0, 0), BuildingBlock: OJICUG_clean_linker_0, # of connection points: 2
#     Edge 29, Type (0, 0), BuildingBlock: OJICUG_clean_linker_0, # of connection points: 2
#     Edge 30, Type (0, 0), BuildingBlock: OJICUG_clean_linker_0, # of connection points: 2
#     Edge 31, Type (0, 0), BuildingBlock: OJICUG_clean_linker_0, # of connection points: 2
#     Edge 32, Type (0, 0), BuildingBlock: OJICUG_clean_linker_0, # of connection points: 2
#     Edge 33, Type (0, 0), BuildingBlock: OJICUG_clean_linker_0, # of connection points: 2
#     Edge 34, Type (0, 0), BuildingBlock: OJICUG_clean_linker_0, # of connection points: 2
#     Edge 35, Type (0, 0), BuildingBlock: OJICUG_clean_linker_0, # of connection points: 2
# Relax obj value: 0.260
# Max RMSD: 0.218
# Mean RMSD: 0.217
data_MOF--net-smm--node1-VOLQOD_clean_sbu_1--edge1-OJICUG_clean_linker_0
_symmetry_space_group_name_H-M    P1
_symmetry_Int_Tables_number       1
_symmetry_cell_setting            triclinic
loop_
_symmetry_equiv_pos_as_xyz
'x, y, z'
_cell_length_a     41.101542
_cell_length_b     41.120241
_cell_length_c     12.935275
_cell_angle_alpha  89.886616
_cell_angle_beta   89.847296
_cell_angle_gamma 120.23881
loop_
_atom_site_label
_atom_site_type_symbol
_atom_site_fract_x
_atom_site_fract_y
_atom_site_fract_z
_atom_type_partial_charge
O0 O -0.01065 0.18477 0.82271 0.0
Zn1 Zn 0.97851 0.17614 0.97676 0.0
O2 O 0.02624 0.19206 0.0471 0.0
Zn3 Zn 0.04355 0.23736 0.12675 0.0
Zn4 Zn 0.06489 0.19923 0.95061 0.0
Zn5 Zn 0.01993 0.15428 0.1415 0.0
O6 O 0.04768 0.22912 0.27988 0.0
O7 O 0.01177 0.16677 0.28293 0.0
O8 O 0.95569 0.20697 0.0285 0.0
O9 O 0.00383 0.25101 0.11889 0.0
O10 O 0.08938 0.28142 0.06202 0.0
O11 O 0.10092 0.25342 0.93236 0.0
O12 O 0.09239 0.17244 -0.00956 0.0
O13 O 0.94192 0.12006 -0.00209 0.0
O14 O 0.06424 0.14681 0.13951 0.0
O15 O 0.97584 0.10605 0.10291 0.0
C16 C 0.01595 0.18572 0.76909 0.0
C17 C 0.02779 0.19826 0.32888 0.0
C18 C 0.1074 0.28299 0.98002 0.0
C19 C 0.97083 0.23705 0.08212 0.0
C20 C 0.08962 0.15393 0.07214 0.0
C21 C 0.94669 0.09616 0.04848 0.0
O22 O 0.04401 0.18573 0.81019 0.0
O23 O 0.77802 0.856 0.24434 0.0
Zn24 Zn 0.78115 0.86297 0.08682 0.0
O25 O 0.80293 0.83417 0.0248 0.0
Zn26 Zn 0.76841 0.79424 0.93685 0.0
Zn27 Zn 0.8189 0.81217 0.12977 0.0
Zn28 Zn 0.84506 0.86586 0.93845 0.0
O29 O 0.78191 0.8023 0.78609 0.0
O30 O 0.83098 0.86017 0.78893 0.0
O31 O 0.72936 0.84608 0.02471 0.0
O32 O 0.72238 0.79629 0.93737 0.0
O33 O 0.75423 0.74287 -0.01124 0.0
O34 O 0.78808 0.75616 0.13171 0.0
O35 O 0.87281 0.8279 0.1154 0.0
O36 O 0.81578 0.91902 0.06067 0.0
O37 O 0.88851 0.85767 0.96389 0.0
O38 O 0.86246 0.91868 0.97411 0.0
C39 C 0.79392 0.84305 0.30262 0.0
C40 C 0.80544 0.83239 0.73945 0.0
C41 C 0.7635 0.73238 0.07064 0.0
C42 C 0.71008 0.81733 0.96803 0.0
C43 C 0.89633 0.84427 0.04262 0.0
C44 C 0.84825 0.93624 0.01834 0.0
O45 O 0.81173 0.82778 0.26691 0.0
O46 O 0.18857 0.00578 0.85663 0.0
Zn47 Zn 0.19079 0.01811 0.01079 0.0
O48 O 0.15659 0.97244 0.08732 0.0
Zn49 Zn 0.18314 0.95348 0.16629 0.0
Zn50 Zn 0.12719 0.93676 0.98509 0.0
Zn51 Zn 0.12224 0.97755 0.174 0.0
O52 O 0.16977 0.94813 0.31978 0.0
O53 O 0.13406 0.97464 0.32003 0.0
O54 O 0.24426 0.03954 0.06304 0.0
O55 O 0.23649 -0.00762 0.16458 0.0
O56 O 0.18416 0.91092 0.09089 0.0
O57 O 0.15091 0.90718 0.95169 0.0
O58 O 0.07406 0.90386 0.02243 0.0
O59 O 0.17429 0.05654 0.03227 0.0
O60 O 0.06847 0.93708 0.14886 0.0
O61 O 0.12839 0.02784 0.14923 0.0
C62 C 0.1585 0.98429 0.80694 0.0
C63 C 0.15189 0.96147 0.36784 0.0
C64 C 0.17278 0.89904 -0.00055 0.0
C65 C 0.25728 0.02442 0.1237 0.0
C66 C 0.05411 0.90908 0.08767 0.0
C67 C 0.14943 0.05614 0.09248 0.0
O68 O 0.12824 0.96178 0.85399 0.0
O69 O 0.64143 0.51129 0.49649 0.0
Zn70 Zn 0.65543 0.5137 0.34373 0.0
O71 O 0.61015 0.4811 0.2646 0.0
Zn72 Zn 0.59283 0.50994 0.18799 0.0
Zn73 Zn 0.57258 0.4482 0.36148 0.0
Zn74 Zn 0.61824 0.45055 0.1718 0.0
O75 O 0.58317 0.49526 0.03579 0.0
O76 O 0.61177 0.46159 0.02839 0.0
O77 O 0.67925 0.56677 0.28828 0.0
O78 O 0.63565 0.56233 0.17876 0.0
O79 O 0.55104 0.51115 0.26934 0.0
O80 O 0.53816 0.4673 0.38928 0.0
O81 O 0.54521 0.39389 0.32338 0.0
O82 O 0.69477 0.49797 0.3215 0.0
O83 O 0.58256 0.39619 0.1963 0.0
O84 O 0.66982 0.45993 0.18673 0.0
C85 C 0.61788 0.48168 0.54561 0.0
C86 C 0.59638 0.47798 0.98437 0.0
C87 C 0.53338 0.49295 0.35046 0.0
C88 C 0.66794 0.58116 0.22 0.0
C89 C 0.55458 0.37761 0.25622 0.0
C90 C 0.69681 0.47792 0.2493 0.0
O91 O 0.59511 0.45171 0.49842 0.0
O92 O 0.48132 0.13557 0.51679 0.0
Zn93 Zn 0.47827 0.14582 0.36552 0.0
O94 O 0.51092 0.13334 0.28739 0.0
Zn95 Zn 0.48334 0.08751 0.20949 0.0
Zn96 Zn 0.54502 0.12863 0.3792 0.0
Zn97 Zn 0.53824 0.17166 0.18946 0.0
O98 O 0.49851 0.09315 0.0583 0.0
O99 O 0.51983 0.15456 0.04883 0.0
O100 O 0.42554 0.11549 0.31136 0.0
O101 O 0.43004 0.07524 0.20571 0.0
O102 O 0.48438 0.04515 0.2833 0.0
O103 O 0.53023 0.07512 0.39751 0.0
O104 O 0.59886 0.15987 0.3349 0.0
O105 O 0.49267 0.20023 0.34606 0.0
O106 O 0.5926 0.1881 0.19599 0.0
O107 O 0.53208 0.21534 0.2135 0.0
C108 C 0.5086 0.13682 0.56702 0.0
C109 C 0.50751 0.12283 0.00604 0.0
C110 C 0.50434 0.0449 0.35815 0.0
C111 C 0.41107 0.08852 0.24687 0.0
C112 C 0.61295 0.18187 0.2576 0.0
C113 C 0.51365 0.22345 0.27686 0.0
O114 O 0.53791 0.14062 0.52228 0.0
O115 O 0.8594 0.35223 0.46157 0.0
Zn116 Zn 0.84687 0.3364 0.31134 0.0
O117 O 0.85687 0.37986 0.22798 0.0
Zn118 Zn 0.90198 0.39606 0.14887 0.0
Zn119 Zn 0.86303 0.41863 0.32161 0.0
Zn120 Zn 0.81678 0.37025 0.13904 0.0
O121 O 0.89643 0.40689 -0.00104 0.0
O122 O 0.83373 0.37671 -0.00637 0.0
O123 O 0.87591 0.31216 0.25826 0.0
O124 O 0.91212 0.35392 0.13954 0.0
O125 O 0.94522 0.43466 0.2324 0.0
O126 O 0.91722 0.45216 0.34893 0.0
O127 O 0.83619 0.44596 0.28242 0.0
O128 O 0.79222 0.29697 0.29811 0.0
O129 O 0.79789 0.40587 0.16484 0.0
O130 O 0.77499 0.31809 0.16232 0.0
C131 C 0.85205 0.37499 0.50892 0.0
C132 C 0.86562 0.39313 0.94864 0.0
C133 C 0.94634 0.45251 0.31418 0.0
C134 C 0.90058 0.3229 0.18677 0.0
C135 C 0.80872 0.43502 0.22049 0.0
C136 C 0.76818 0.29281 0.2297 0.0
O137 O 0.84378 0.39667 0.46013 0.0
O138 O 0.27471 0.83082 0.41561 0.0
Zn139 Zn 0.26753 0.81857 0.57112 0.0
O140 O 0.31456 0.83101 0.63766 0.0
Zn141 Zn 0.33706 0.87816 0.71389 0.0
Zn142 Zn 0.34769 0.83263 0.53344 0.0
Zn143 Zn 0.30766 0.79304 0.7336 0.0
O144 O 0.34134 0.8711 0.86845 0.0
O145 O 0.30542 0.80902 0.87622 0.0
O146 O 0.24778 0.84629 0.65165 0.0
O147 O 0.29915 0.8948 0.71914 0.0
O148 O 0.38694 0.91744 0.6485 0.0
O149 O 0.39403 0.88142 0.53373 0.0
O150 O 0.36337 0.79518 0.5517 0.0
O151 O 0.22895 0.76364 0.59435 0.0
O152 O 0.34932 0.78103 0.71759 0.0
O153 O 0.25772 0.74818 0.71393 0.0
C154 C 0.30113 0.83333 0.35769 0.0
C155 C 0.3214 0.84089 0.91997 0.0
C156 C 0.40598 0.9129 0.57755 0.0
C157 C 0.26355 0.87581 0.70715 0.0
C158 C 0.36685 0.78132 0.63575 0.0
C159 C 0.2291 0.7403 0.65907 0.0
O160 O 0.32856 0.83112 0.39391 0.0
O161 O 0.10053 0.49243 0.92984 0.0
Zn162 Zn 0.10413 0.5097 0.77961 0.0
O163 O 0.13674 0.49839 0.70006 0.0
Zn164 Zn 0.10847 0.45025 0.63197 0.0
Zn165 Zn 0.17217 0.49943 0.79417 0.0
Zn166 Zn 0.16147 0.53703 0.59965 0.0
O167 O 0.11752 0.45442 0.47608 0.0
O168 O 0.14947 0.51672 0.45986 0.0
O169 O 0.05656 0.48673 0.6994 0.0
O170 O 0.05398 0.43488 0.63925 0.0
O171 O 0.11989 0.41253 0.7008 0.0
O172 O 0.1686 0.44983 0.80095 0.0
O173 O 0.22399 0.53908 0.76166 0.0
O174 O 0.12392 0.56578 0.77289 0.0
O175 O 0.21757 0.56379 0.61569 0.0
O176 O 0.14561 0.57484 0.61186 0.0
C177 C 0.12943 0.49791 0.98086 0.0
C178 C 0.13286 0.48413 0.42047 0.0
C179 C 0.14558 0.41754 0.76518 0.0
C180 C 0.04068 0.45695 0.64516 0.0
C181 C 0.23795 0.56219 0.68701 0.0
C182 C 0.13536 0.58574 0.69079 0.0
O183 O 0.16026 0.50668 0.93589 0.0
O184 O 0.53112 0.69647 0.42952 0.0
Zn185 Zn 0.52509 0.71027 0.57572 0.0
O186 O 0.49626 0.66644 0.65876 0.0
Zn187 Zn 0.52544 0.65009 0.72975 0.0
Zn188 Zn 0.46134 0.62911 0.57045 0.0
Zn189 Zn 0.47439 0.68274 0.76017 0.0
O190 O 0.51044 0.63758 0.88109 0.0
O191 O 0.48923 0.67731 0.9014 0.0
O192 O 0.57222 0.74175 0.65654 0.0
O193 O 0.57607 0.69649 0.74265 0.0
O194 O 0.52144 0.6058 0.65013 0.0
O195 O 0.46333 0.58225 0.58711 0.0
O196 O 0.41044 0.6218 0.59705 0.0
O197 O 0.49445 0.73572 0.57065 0.0
O198 O 0.41855 0.65441 0.74197 0.0
O199 O 0.49148 0.73662 0.73995 0.0
C200 C 0.50629 0.6681 0.37934 0.0
C201 C 0.50122 0.65677 0.93884 0.0
C202 C 0.4927 0.58 0.6028 0.0
C203 C 0.58832 0.73117 0.72165 0.0
C204 C 0.39763 0.63295 0.67012 0.0
C205 C 0.48525 0.74626 0.65253 0.0
O206 O 0.47663 0.64247 0.42317 0.0
C207 C 0.1425 0.35318 0.976 0.0
C208 C 0.1275 0.31891 0.92336 0.0
H209 H 0.16103 0.41179 0.96538 0.0
C210 C 0.12433 0.3186 0.8148 0.0
H211 H 0.14504 0.35413 0.05944 0.0
C212 C 0.13208 0.35123 0.76131 0.0
C213 C 0.1445 0.38489 0.8151 0.0
H214 H 0.11256 0.2925 0.77204 0.0
H215 H 0.12669 0.34976 0.67902 0.0
C216 C 0.15152 0.38607 0.92196 0.0
C217 C 0.67248 0.81914 0.82522 0.0
C218 C 0.67339 0.80759 0.92708 0.0
H219 H 0.64485 0.80325 0.67771 0.0
C220 C 0.64299 0.77403 0.96442 0.0
H221 H 0.69621 0.84459 0.79429 0.0
C222 C 0.61498 0.74976 0.89705 0.0
C223 C 0.61646 0.75914 0.7919 0.0
H224 H 0.64348 0.76428 0.04203 0.0
H225 H 0.59311 0.72277 0.92632 0.0
C226 C 0.64387 0.79505 0.7578 0.0
C227 C 0.23207 0.90065 0.95342 0.0
C228 C 0.1936 0.88622 0.93494 0.0
H229 H 0.28463 0.91034 0.89377 0.0
C230 C 0.17816 0.86817 0.84048 0.0
H231 H 0.24497 0.91541 0.02445 0.0
C232 C 0.20104 0.86581 0.76451 0.0
C233 C 0.23987 0.88192 0.7811 0.0
H234 H 0.14864 0.85726 0.8237 0.0
H235 H 0.18844 0.85174 0.69249 0.0
C236 C 0.25501 0.89882 0.87699 0.0
C237 C 0.35475 0.09525 0.21396 0.0
C238 C 0.37179 0.07293 0.21473 0.0
H239 H 0.3047 0.0975 0.18027 0.0
C240 C 0.35159 0.03574 0.17926 0.0
H241 H 0.37007 0.12421 0.2397 0.0
C242 C 0.31467 0.02069 0.14632 0.0
C243 C 0.29749 0.04275 0.14621 0.0
H244 H 0.36412 0.01801 0.17862 0.0
H245 H 0.2993 -0.00846 0.12186 0.0
C246 C 0.3178 0.0803 0.17868 0.0
C247 C 0.89681 0.26041 0.16551 0.0
C248 C 0.91735 0.29991 0.15834 0.0
H249 H 0.89751 0.20893 0.14297 0.0
C250 C 0.95449 0.31792 0.12101 0.0
H251 H 0.86799 0.24595 0.19331 0.0
C252 C 0.97124 0.29704 0.09393 0.0
C253 C 0.95095 0.25767 0.10128 0.0
H254 H 0.97098 0.34833 0.11481 0.0
H255 H 0.00029 0.31174 0.0678 0.0
C256 C 0.91342 0.23931 0.13573 0.0
C257 C 0.70863 0.66763 0.04999 0.0
C258 C 0.74163 0.69257 0.10306 0.0
H259 H 0.65934 0.61331 0.04622 0.0
C260 C 0.751 0.68019 0.19373 0.0
H261 H 0.70048 0.67624 0.98021 0.0
C262 C 0.72724 0.64391 0.2321 0.0
C263 C 0.69353 0.61954 0.18089 0.0
H264 H 0.77625 0.6988 0.23655 0.0
H265 H 0.73491 0.63524 0.30262 0.0
C266 C 0.68479 0.63163 0.08873 0.0
C267 C -0.00293 0.47627 0.56861 0.0
C268 C 0.01543 0.45533 0.56211 0.0
H269 H 0.96188 0.49337 0.49267 0.0
C270 C 0.01514 0.43832 0.46771 0.0
H271 H -0.0023 0.49057 0.63948 0.0
C272 C -0.00375 0.44139 0.38248 0.0
C273 C 0.9762 0.46066 0.39017 0.0
H274 H 0.03005 0.42302 0.45878 0.0
H275 H -0.00443 0.42663 0.31248 0.0
C276 C 0.97744 0.47871 0.4837 0.0
C277 C 0.48588 0.54596 0.43919 0.0
C278 C 0.49649 0.55166 0.54397 0.0
H279 H 0.49 0.5232 0.29366 0.0
C280 C 0.51482 0.53397 0.58636 0.0
H281 H 0.47195 0.55973 0.40487 0.0
C282 C 0.52368 0.51192 0.52386 0.0
C283 C 0.51565 0.50853 0.4172 0.0
H284 H 0.5234 0.53822 0.66666 0.0
H285 H 0.53934 0.49984 0.55766 0.0
C286 C 0.49611 0.52515 0.37558 0.0
C287 C 0.4841 0.0122 0.5266 0.0
C288 C 0.48948 0.01034 0.41964 0.0
H289 H 0.45242 0.98252 0.66136 0.0
C290 C 0.47234 0.9754 0.37062 0.0
H291 H 0.49672 0.03908 0.56581 0.0
C292 C 0.44775 0.94308 0.42578 0.0
C293 C 0.43891 0.94544 0.52998 0.0
H294 H 0.47588 0.97343 0.28824 0.0
H295 H 0.43323 0.91677 0.38388 0.0
C296 C 0.45848 0.97999 0.58119 0.0
C297 C 0.12531 0.09316 0.18077 0.0
C298 C 0.14242 0.08782 0.0935 0.0
H299 H 0.09596 0.11909 0.24316 0.0
C300 C 0.148 0.10962 0.0045 0.0
H301 H 0.12136 0.07723 0.25117 0.0
C302 C 0.1332 0.13366 -0.00038 0.0
C303 C 0.11285 0.13616 0.08389 0.0
H304 H 0.1613 0.1061 0.9364 0.0
H305 H 0.13554 0.14823 0.9277 0.0
C306 C 0.11078 0.11718 0.17616 0.0
C307 C 0.91105 -0.00732 0.03438 0.0
C308 C 0.87201 0.97732 0.02652 0.0
H309 H 0.96481 0.04209 0.04767 0.0
C310 C 0.85702 0.00141 0.0247 0.0
H311 H 0.92336 0.97477 0.03655 0.0
C312 C 0.88115 0.04057 0.02914 0.0
C313 C 0.92021 0.05559 0.03845 0.0
H314 H 0.82693 -0.00994 0.0182 0.0
H315 H 0.86938 0.05893 0.02737 0.0
C316 C 0.93478 0.03125 0.04115 0.0
C317 C 0.95771 0.85662 0.97198 0.0
C318 C 0.93525 0.85329 0.0574 0.0
H319 H 0.01343 0.87607 0.91593 0.0
C320 C 0.95152 0.86372 0.15596 0.0
H321 H 0.94561 0.84866 0.89545 0.0
C322 C -0.00963 0.88035 0.16742 0.0
C323 C 0.0131 0.88562 0.08093 0.0
H324 H 0.93462 0.86157 0.22289 0.0
H325 H 0.00274 0.89043 0.24284 0.0
C326 C -0.00362 0.87217 0.98396 0.0
C327 C 0.75606 0.48219 0.31783 0.0
C328 C 0.73015 0.47363 0.23736 0.0
H329 H 0.8021 0.47689 0.37513 0.0
C330 C 0.73444 0.45779 0.14572 0.0
H331 H 0.75361 0.49469 0.38891 0.0
C332 C 0.76189 0.44767 0.13787 0.0
C333 C 0.78587 0.45337 0.22116 0.0
H334 H 0.71551 0.45164 0.08111 0.0
H335 H 0.76317 0.43378 0.06815 0.0
C336 C 0.78386 0.47215 0.30968 0.0
C337 C 0.54113 0.31865 0.16942 0.0
C338 C 0.53621 0.33639 0.25545 0.0
H339 H 0.53744 0.26886 0.10891 0.0
C340 C 0.51872 0.31516 0.34497 0.0
H341 H 0.55397 0.33418 0.09888 0.0
C342 C 0.50937 0.27747 0.35114 0.0
C343 C 0.51746 0.26084 0.26783 0.0
H344 H 0.51459 0.32826 0.41243 0.0
H345 H 0.49787 0.26212 0.4227 0.0
C346 C 0.53186 0.28127 0.17553 0.0
C347 C 0.6782 0.20951 0.32735 0.0
C348 C 0.65402 0.20407 0.2443 0.0
H349 H 0.73396 0.24232 0.38796 0.0
C350 C 0.66905 0.22395 0.15171 0.0
H351 H 0.66735 0.19436 0.39948 0.0
C352 C 0.70688 0.25128 0.1453 0.0
C353 C 0.73042 0.25922 0.23131 0.0
H354 H 0.6512 0.2198 0.08569 0.0
H355 H 0.71724 0.26738 0.07432 0.0
C356 C 0.71627 0.23699 0.32086 0.0
C357 C 0.44313 0.7617 0.55202 0.0
C358 C 0.45752 0.75879 0.64754 0.0
H359 H 0.40225 0.76993 0.47351 0.0
C360 C 0.44124 0.76253 0.73934 0.0
H361 H 0.45475 0.75851 0.48005 0.0
C362 C 0.41068 0.76827 0.73571 0.0
C363 C 0.3961 0.77085 0.64025 0.0
H364 H 0.4515 0.76014 0.81439 0.0
H365 H 0.39893 0.77131 0.80766 0.0
C366 C 0.4127 0.7677 0.54842 0.0
C367 C 0.14938 0.64403 0.59748 0.0
C368 C 0.14627 0.62558 0.69195 0.0
H369 H 0.17863 0.69587 0.51263 0.0
C370 C 0.16376 0.6469 0.78009 0.0
H371 H 0.13576 0.62801 0.52861 0.0
C372 C 0.18873 0.68539 0.77032 0.0
C373 C 0.19579 0.70294 0.67288 0.0
H374 H 0.16176 0.63337 0.85371 0.0
H375 H 0.20466 0.70087 0.83751 0.0
C376 C 0.17399 0.68271 0.58804 0.0
C377 C 0.33629 0.60941 0.58136 0.0
C378 C 0.35725 0.6195 0.67319 0.0
H379 H 0.2814 0.58398 0.51387 0.0
C380 C 0.33899 0.61468 0.76842 0.0
H381 H 0.34998 0.61342 0.50692 0.0
C382 C 0.29996 0.59742 0.77237 0.0
C383 C 0.27887 0.58564 0.68099 0.0
H384 H 0.35466 0.62245 0.84014 0.0
H385 H 0.28617 0.59224 0.84705 0.0
C386 C 0.29726 0.59294 0.58518 0.0
C387 C 0.05116 0.21811 0.61046 0.0
C388 C 0.01718 0.19112 0.65702 0.0
H389 H 0.08083 0.24235 0.46887 0.0
C390 C -0.01419 0.16873 0.59553 0.0
H391 H 0.07563 0.23587 0.6571 0.0
C392 C -0.01088 0.17181 0.48802 0.0
C393 C 0.02346 0.19812 0.44138 0.0
H394 H 0.95942 0.14785 0.63026 0.0
H395 H 0.96502 0.15325 0.44118 0.0
C396 C 0.05413 0.222 0.50329 0.0
C397 C 0.76979 0.80812 0.57393 0.0
C398 C 0.80092 0.8364 0.62755 0.0
H399 H 0.74252 0.78897 0.42732 0.0
C400 C 0.8267 0.86934 0.57418 0.0
H401 H 0.74913 0.78261 0.61285 0.0
C402 C 0.82234 0.87314 0.4686 0.0
C403 C 0.79193 0.84434 0.41506 0.0
H404 H 0.8508 0.89182 0.61325 0.0
H405 H 0.84375 0.89769 0.42766 0.0
C406 C 0.76547 0.81202 0.4684 0.0
C407 C 0.12546 0.97139 0.63931 0.0
C408 C 0.1586 0.9812 0.69374 0.0
H409 H 0.09733 0.95686 0.49383 0.0
C410 C 0.18933 0.98276 0.64116 0.0
H411 H 0.10121 0.96953 0.67839 0.0
C412 C 0.1867 0.97435 0.53546 0.0
C413 C 0.15355 0.96496 0.48116 0.0
H414 H 0.21488 -0.01056 0.68221 0.0
H415 H 0.2108 0.97615 0.49578 0.0
C416 C 0.12309 0.96371 0.53408 0.0
C417 C 0.61863 0.51423 0.71025 0.0
C418 C 0.61342 0.48192 0.65846 0.0
H419 H 0.61558 0.53792 0.8556 0.0
C420 C 0.59946 0.448 0.71346 0.0
H421 H 0.62855 0.5405 0.66883 0.0
C422 C 0.59182 0.44649 0.81863 0.0
C423 C 0.59731 0.47869 0.87096 0.0
H424 H 0.59475 0.42256 0.67522 0.0
H425 H 0.58231 0.42021 0.8598 0.0
C426 C 0.61033 0.51254 0.81604 0.0
C427 C 0.48718 0.14455 0.74063 0.0
C428 C 0.50543 0.13062 0.67904 0.0
H429 H 0.47395 0.15297 0.89478 0.0
C430 C 0.52113 0.11063 0.72521 0.0
H431 H 0.47472 0.15979 0.70647 0.0
C432 C 0.51964 0.10567 0.83214 0.0
C433 C 0.5033 0.12152 0.89388 0.0
H434 H 0.53489 0.09915 0.67863 0.0
H435 H 0.53286 0.09123 0.86675 0.0
C436 C 0.48665 0.14052 0.84768 0.0
C437 C 0.88435 0.37652 0.67398 0.0
C438 C 0.85583 0.37913 0.62167 0.0
H439 H 0.91095 0.3806 0.81995 0.0
C440 C 0.83287 0.38935 0.67648 0.0
H441 H 0.90294 0.3695 0.63259 0.0
C442 C 0.83741 0.39563 0.78242 0.0
C443 C 0.86558 0.39268 0.83525 0.0
H444 H 0.81098 0.39198 0.63755 0.0
H445 H 0.81847 0.40225 0.82354 0.0
C446 C 0.88945 0.38363 0.78023 0.0
C447 C 0.33485 0.86943 0.20125 0.0
C448 C 0.30193 0.83984 0.24597 0.0
H449 H 0.36678 0.89339 0.06217 0.0
C450 C 0.27417 0.81267 0.18228 0.0
H451 H 0.35685 0.89044 0.2497 0.0
C452 C 0.28039 0.81369 0.07575 0.0
C453 C 0.3142 0.84223 0.0313 0.0
H454 H 0.24894 0.78932 0.21543 0.0
H455 H 0.25909 0.79153 0.02837 0.0
C456 C 0.34072 0.87095 0.09444 0.0
C457 C 0.16277 0.51258 0.14763 0.0
C458 C 0.12857 0.49324 0.09387 0.0
H459 H 0.19075 0.52366 0.29277 0.0
C460 C 0.09567 0.46777 0.14774 0.0
H461 H 0.18867 0.53229 0.10835 0.0
C462 C 0.09718 0.4622 0.25438 0.0
C463 C 0.13146 0.48244 0.30746 0.0
H464 H 0.0691 0.45208 0.1076 0.0
H465 H 0.07149 0.44344 0.29578 0.0
C466 C 0.16414 0.50735 0.253 0.0
C467 C 0.52844 0.69744 0.20542 0.0
C468 C 0.51033 0.66501 0.26712 0.0
H469 H 0.53911 0.7198 0.05158 0.0
C470 C 0.49277 0.62937 0.2196 0.0
H471 H 0.54208 0.72517 0.23994 0.0
C472 C 0.49181 0.62627 0.11189 0.0
C473 C 0.50756 0.65879 0.05069 0.0
H474 H 0.47876 0.6039 0.26566 0.0
H475 H 0.47695 0.59866 0.0767 0.0
C476 C 0.5266 0.69433 0.09798 0.0
loop_
_geom_bond_atom_site_label_1
_geom_bond_atom_site_label_2
_geom_bond_distance
_geom_bond_site_symmetry_2
_ccdc_geom_bond_type
O0 Zn1 1.953 . S
O0 C16 1.225 . S
Zn1 O0 1.953 . S
Zn1 O2 1.949 1_656 S
Zn1 O8 1.919 . S
Zn1 O13 1.924 . S
O2 Zn1 1.949 1_454 S
O2 Zn3 1.923 . S
O2 Zn4 1.950 1_554 S
O2 Zn5 1.945 . S
Zn3 O2 1.923 . S
Zn3 O6 1.933 . S
Zn3 O9 1.941 1_455 S
Zn3 O10 1.965 . S
Zn4 O2 1.950 1_556 S
Zn4 O11 1.938 . S
Zn4 O12 1.906 . S
Zn4 O22 1.953 . S
Zn5 O2 1.945 . S
Zn5 O7 1.932 . S
Zn5 O14 1.977 . S
Zn5 O15 1.910 1_455 S
O6 Zn3 1.933 . S
O6 C17 1.226 . S
O7 Zn5 1.932 . S
O7 C17 1.307 . S
O8 Zn1 1.919 . S
O8 C19 1.253 1_556 S
O9 Zn3 1.941 1_655 S
O9 C19 1.283 . S
O10 Zn3 1.965 . S
O10 C18 1.303 1_554 S
O11 Zn4 1.938 . S
O11 C18 1.247 . S
O12 Zn4 1.906 . S
O12 C20 1.304 1_556 S
O13 Zn1 1.924 . S
O13 C21 1.311 1_556 S
O14 Zn5 1.977 . S
O14 C20 1.272 . S
O15 Zn5 1.910 1_655 S
O15 C21 1.231 . S
C16 O0 1.225 . S
C16 O22 1.298 1_655 S
C17 O6 1.226 . S
C17 O7 1.307 . S
C18 O10 1.303 1_556 S
C18 O11 1.247 . S
C19 O8 1.253 1_554 S
C19 O9 1.283 . S
C20 O12 1.304 1_554 S
C20 O14 1.272 . S
C21 O13 1.311 1_554 S
C21 O15 1.231 . S
O22 Zn4 1.953 . S
O22 C16 1.298 1_455 S
O23 Zn24 1.953 . S
O23 C39 1.225 . S
Zn24 O23 1.953 . S
Zn24 O25 1.949 . S
Zn24 O31 1.919 . S
Zn24 O36 1.924 . S
O25 Zn24 1.949 . S
O25 Zn26 1.923 1_554 S
O25 Zn27 1.950 . S
O25 Zn28 1.945 1_554 S
Zn26 O25 1.923 1_556 S
Zn26 O29 1.933 . S
Zn26 O32 1.941 . S
Zn26 O33 1.965 . S
Zn27 O25 1.950 . S
Zn27 O34 1.938 . S
Zn27 O35 1.906 . S
Zn27 O45 1.953 . S
Zn28 O25 1.945 1_556 S
Zn28 O30 1.932 . S
Zn28 O37 1.977 . S
Zn28 O38 1.910 . S
O29 Zn26 1.933 . S
O29 C40 1.226 . S
O30 Zn28 1.932 . S
O30 C40 1.307 . S
O31 Zn24 1.919 . S
O31 C42 1.253 1_554 S
O32 Zn26 1.941 . S
O32 C42 1.283 . S
O33 Zn26 1.965 . S
O33 C41 1.303 1_556 S
O34 Zn27 1.938 . S
O34 C41 1.247 . S
O35 Zn27 1.906 . S
O35 C43 1.304 1_554 S
O36 Zn24 1.924 . S
O36 C44 1.311 . S
O37 Zn28 1.977 . S
O37 C43 1.272 . S
O38 Zn28 1.910 . S
O38 C44 1.231 1_556 S
C39 O23 1.225 . S
C39 O45 1.298 . S
C40 O29 1.226 . S
C40 O30 1.307 . S
C41 O33 1.303 1_554 S
C41 O34 1.247 . S
C42 O31 1.253 1_556 S
C42 O32 1.283 . S
C43 O35 1.304 1_556 S
C43 O37 1.272 . S
C44 O36 1.311 . S
C44 O38 1.231 1_554 S
O45 Zn27 1.953 . S
O45 C39 1.298 . S
O46 Zn47 1.953 . S
O46 C62 1.225 . S
Zn47 O46 1.953 . S
Zn47 O48 1.949 1_556 S
Zn47 O54 1.919 . S
Zn47 O59 1.924 . S
O48 Zn47 1.949 1_554 S
O48 Zn49 1.906 1_545 S
O48 Zn50 1.950 1_544 S
O48 Zn51 1.945 . S
Zn49 O48 1.906 1_565 S
Zn49 O52 1.933 . S
Zn49 O55 1.933 1_565 S
Zn49 O56 1.991 . S
Zn50 O48 1.950 1_566 S
Zn50 O57 1.938 . S
Zn50 O58 1.906 . S
Zn50 O68 1.953 . S
Zn51 O48 1.945 . S
Zn51 O53 1.932 . S
Zn51 O60 1.977 1_545 S
Zn51 O61 1.910 . S
O52 Zn49 1.933 . S
O52 C63 1.238 . S
O53 Zn51 1.932 . S
O53 C63 1.294 1_545 S
O54 Zn47 1.919 . S
O54 C65 1.253 1_556 S
O55 Zn49 1.933 1_545 S
O55 C65 1.283 . S
O56 Zn49 1.991 . S
O56 C64 1.303 1_554 S
O57 Zn50 1.938 . S
O57 C64 1.247 . S
O58 Zn50 1.906 . S
O58 C66 1.304 1_556 S
O59 Zn47 1.924 . S
O59 C67 1.311 1_556 S
O60 Zn51 1.977 1_565 S
O60 C66 1.272 . S
O61 Zn51 1.910 . S
O61 C67 1.231 . S
C62 O46 1.225 . S
C62 O68 1.298 1_545 S
C63 O52 1.238 . S
C63 O53 1.294 1_565 S
C64 O56 1.303 1_556 S
C64 O57 1.247 . S
C65 O54 1.253 1_554 S
C65 O55 1.283 . S
C66 O58 1.304 1_554 S
C66 O60 1.272 . S
C67 O59 1.311 1_554 S
C67 O61 1.231 . S
O68 Zn50 1.953 . S
O68 C62 1.298 1_565 S
O69 Zn70 1.953 . S
O69 C85 1.225 . S
Zn70 O69 1.953 . S
Zn70 O71 1.949 . S
Zn70 O77 1.919 . S
Zn70 O82 1.924 . S
O71 Zn70 1.949 . S
O71 Zn72 1.923 . S
O71 Zn73 1.950 . S
O71 Zn74 1.945 . S
Zn72 O71 1.923 . S
Zn72 O75 1.933 . S
Zn72 O78 1.941 . S
Zn72 O79 1.965 . S
Zn73 O71 1.950 . S
Zn73 O80 1.938 . S
Zn73 O81 1.906 . S
Zn73 O91 1.953 . S
Zn74 O71 1.945 . S
Zn74 O76 1.932 . S
Zn74 O83 1.977 . S
Zn74 O84 1.910 . S
O75 Zn72 1.933 . S
O75 C86 1.226 . S
O76 Zn74 1.932 . S
O76 C86 1.307 . S
O77 Zn70 1.919 . S
O77 C88 1.253 . S
O78 Zn72 1.941 . S
O78 C88 1.283 . S
O79 Zn72 1.965 . S
O79 C87 1.303 . S
O80 Zn73 1.938 . S
O80 C87 1.247 . S
O81 Zn73 1.906 . S
O81 C89 1.304 . S
O82 Zn70 1.924 . S
O82 C90 1.311 . S
O83 Zn74 1.977 . S
O83 C89 1.272 . S
O84 Zn74 1.910 . S
O84 C90 1.231 . S
C85 O69 1.225 . S
C85 O91 1.298 . S
C86 O75 1.226 . S
C86 O76 1.307 . S
C87 O79 1.303 . S
C87 O80 1.247 . S
C88 O77 1.253 . S
C88 O78 1.283 . S
C89 O81 1.304 . S
C89 O83 1.272 . S
C90 O82 1.311 . S
C90 O84 1.231 . S
O91 Zn73 1.953 . S
O91 C85 1.298 . S
O92 Zn93 1.953 . S
O92 C108 1.225 . S
Zn93 O92 1.953 . S
Zn93 O94 1.949 . S
Zn93 O100 1.919 . S
Zn93 O105 1.924 . S
O94 Zn93 1.949 . S
O94 Zn95 1.923 . S
O94 Zn96 1.950 . S
O94 Zn97 1.945 . S
Zn95 O94 1.923 . S
Zn95 O98 1.933 . S
Zn95 O101 1.941 . S
Zn95 O102 1.965 . S
Zn96 O94 1.950 . S
Zn96 O103 1.938 . S
Zn96 O104 1.906 . S
Zn96 O114 1.953 . S
Zn97 O94 1.945 . S
Zn97 O99 1.932 . S
Zn97 O106 1.977 . S
Zn97 O107 1.910 . S
O98 Zn95 1.933 . S
O98 C109 1.226 . S
O99 Zn97 1.932 . S
O99 C109 1.307 . S
O100 Zn93 1.919 . S
O100 C111 1.253 . S
O101 Zn95 1.941 . S
O101 C111 1.283 . S
O102 Zn95 1.965 . S
O102 C110 1.303 . S
O103 Zn96 1.938 . S
O103 C110 1.247 . S
O104 Zn96 1.906 . S
O104 C112 1.304 . S
O105 Zn93 1.924 . S
O105 C113 1.311 . S
O106 Zn97 1.977 . S
O106 C112 1.272 . S
O107 Zn97 1.910 . S
O107 C113 1.231 . S
C108 O92 1.225 . S
C108 O114 1.298 . S
C109 O98 1.226 . S
C109 O99 1.307 . S
C110 O102 1.303 . S
C110 O103 1.247 . S
C111 O100 1.253 . S
C111 O101 1.283 . S
C112 O104 1.304 . S
C112 O106 1.272 . S
C113 O105 1.311 . S
C113 O107 1.231 . S
O114 Zn96 1.953 . S
O114 C108 1.298 . S
O115 Zn116 1.953 . S
O115 C131 1.225 . S
Zn116 O115 1.953 . S
Zn116 O117 1.949 . S
Zn116 O123 1.919 . S
Zn116 O128 1.924 . S
O117 Zn116 1.949 . S
O117 Zn118 1.923 . S
O117 Zn119 1.950 . S
O117 Zn120 1.945 . S
Zn118 O117 1.923 . S
Zn118 O121 1.933 . S
Zn118 O124 1.941 . S
Zn118 O125 1.965 . S
Zn119 O117 1.950 . S
Zn119 O126 1.938 . S
Zn119 O127 1.906 . S
Zn119 O137 1.953 . S
Zn120 O117 1.945 . S
Zn120 O122 1.932 . S
Zn120 O129 1.977 . S
Zn120 O130 1.910 . S
O121 Zn118 1.933 . S
O121 C132 1.226 . S
O122 Zn120 1.932 . S
O122 C132 1.307 . S
O123 Zn116 1.919 . S
O123 C134 1.253 . S
O124 Zn118 1.941 . S
O124 C134 1.283 . S
O125 Zn118 1.965 . S
O125 C133 1.303 . S
O126 Zn119 1.938 . S
O126 C133 1.247 . S
O127 Zn119 1.906 . S
O127 C135 1.304 . S
O128 Zn116 1.924 . S
O128 C136 1.311 . S
O129 Zn120 1.977 . S
O129 C135 1.272 . S
O130 Zn120 1.910 . S
O130 C136 1.231 . S
C131 O115 1.225 . S
C131 O137 1.298 . S
C132 O121 1.226 . S
C132 O122 1.307 . S
C133 O125 1.303 . S
C133 O126 1.247 . S
C134 O123 1.253 . S
C134 O124 1.283 . S
C135 O127 1.304 . S
C135 O129 1.272 . S
C136 O128 1.311 . S
C136 O130 1.231 . S
O137 Zn119 1.953 . S
O137 C131 1.298 . S
O138 Zn139 1.953 . S
O138 C154 1.225 . S
Zn139 O138 1.953 . S
Zn139 O140 1.949 . S
Zn139 O146 1.919 . S
Zn139 O151 1.924 . S
O140 Zn139 1.949 . S
O140 Zn141 1.923 . S
O140 Zn142 1.950 . S
O140 Zn143 1.945 . S
Zn141 O140 1.923 . S
Zn141 O144 1.933 . S
Zn141 O147 1.941 . S
Zn141 O148 1.965 . S
Zn142 O140 1.950 . S
Zn142 O149 1.938 . S
Zn142 O150 1.906 . S
Zn142 O160 1.953 . S
Zn143 O140 1.945 . S
Zn143 O145 1.932 . S
Zn143 O152 1.977 . S
Zn143 O153 1.910 . S
O144 Zn141 1.933 . S
O144 C155 1.226 . S
O145 Zn143 1.932 . S
O145 C155 1.307 . S
O146 Zn139 1.919 . S
O146 C157 1.253 . S
O147 Zn141 1.941 . S
O147 C157 1.283 . S
O148 Zn141 1.965 . S
O148 C156 1.303 . S
O149 Zn142 1.938 . S
O149 C156 1.247 . S
O150 Zn142 1.906 . S
O150 C158 1.304 . S
O151 Zn139 1.924 . S
O151 C159 1.311 . S
O152 Zn143 1.977 . S
O152 C158 1.272 . S
O153 Zn143 1.910 . S
O153 C159 1.231 . S
C154 O138 1.225 . S
C154 O160 1.298 . S
C155 O144 1.226 . S
C155 O145 1.307 . S
C156 O148 1.303 . S
C156 O149 1.247 . S
C157 O146 1.253 . S
C157 O147 1.283 . S
C158 O150 1.304 . S
C158 O152 1.272 . S
C159 O151 1.311 . S
C159 O153 1.231 . S
O160 Zn142 1.953 . S
O160 C154 1.298 . S
O161 Zn162 1.953 . S
O161 C177 1.225 . S
Zn162 O161 1.953 . S
Zn162 O163 1.949 . S
Zn162 O169 1.919 . S
Zn162 O174 1.924 . S
O163 Zn162 1.949 . S
O163 Zn164 1.923 . S
O163 Zn165 1.950 . S
O163 Zn166 1.945 . S
Zn164 O163 1.923 . S
Zn164 O167 1.933 . S
Zn164 O170 1.941 . S
Zn164 O171 1.965 . S
Zn165 O163 1.950 . S
Zn165 O172 1.938 . S
Zn165 O173 1.906 . S
Zn165 O183 1.953 . S
Zn166 O163 1.945 . S
Zn166 O168 1.932 . S
Zn166 O175 1.977 . S
Zn166 O176 1.910 . S
O167 Zn164 1.933 . S
O167 C178 1.226 . S
O168 Zn166 1.932 . S
O168 C178 1.307 . S
O169 Zn162 1.919 . S
O169 C180 1.253 . S
O170 Zn164 1.941 . S
O170 C180 1.283 . S
O171 Zn164 1.965 . S
O171 C179 1.303 . S
O172 Zn165 1.938 . S
O172 C179 1.247 . S
O173 Zn165 1.906 . S
O173 C181 1.304 . S
O174 Zn162 1.924 . S
O174 C182 1.311 . S
O175 Zn166 1.977 . S
O175 C181 1.272 . S
O176 Zn166 1.910 . S
O176 C182 1.231 . S
C177 O161 1.225 . S
C177 O183 1.298 . S
C178 O167 1.226 . S
C178 O168 1.307 . S
C179 O171 1.303 . S
C179 O172 1.247 . S
C180 O169 1.253 . S
C180 O170 1.283 . S
C181 O173 1.304 . S
C181 O175 1.272 . S
C182 O174 1.311 . S
C182 O176 1.231 . S
O183 Zn165 1.953 . S
O183 C177 1.298 . S
O184 Zn185 1.953 . S
O184 C200 1.225 . S
Zn185 O184 1.953 . S
Zn185 O186 1.949 . S
Zn185 O192 1.919 . S
Zn185 O197 1.924 . S
O186 Zn185 1.949 . S
O186 Zn187 1.923 . S
O186 Zn188 1.950 . S
O186 Zn189 1.945 . S
Zn187 O186 1.923 . S
Zn187 O190 1.933 . S
Zn187 O193 1.941 . S
Zn187 O194 1.965 . S
Zn188 O186 1.950 . S
Zn188 O195 1.938 . S
Zn188 O196 1.906 . S
Zn188 O206 1.953 . S
Zn189 O186 1.945 . S
Zn189 O191 1.932 . S
Zn189 O198 1.977 . S
Zn189 O199 1.910 . S
O190 Zn187 1.933 . S
O190 C201 1.226 . S
O191 Zn189 1.932 . S
O191 C201 1.307 . S
O192 Zn185 1.919 . S
O192 C203 1.253 . S
O193 Zn187 1.941 . S
O193 C203 1.283 . S
O194 Zn187 1.965 . S
O194 C202 1.303 . S
O195 Zn188 1.938 . S
O195 C202 1.247 . S
O196 Zn188 1.906 . S
O196 C204 1.304 . S
O197 Zn185 1.924 . S
O197 C205 1.311 . S
O198 Zn189 1.977 . S
O198 C204 1.272 . S
O199 Zn189 1.910 . S
O199 C205 1.231 . S
C200 O184 1.225 . S
C200 O206 1.298 . S
C201 O190 1.226 . S
C201 O191 1.307 . S
C202 O194 1.303 . S
C202 O195 1.247 . S
C203 O192 1.253 . S
C203 O193 1.283 . S
C204 O196 1.304 . S
C204 O198 1.272 . S
C205 O197 1.311 . S
C205 O199 1.231 . S
O206 Zn188 1.953 . S
O206 C200 1.298 . S
C207 C208 1.387 . S
C207 H211 0.950 . S
C207 C216 1.390 . S
C208 C207 1.387 . S
C208 C210 1.387 . S
H209 C216 0.950 . S
C210 C208 1.387 . S
C210 C212 1.390 . S
C210 H214 0.950 . S
H211 C207 0.950 . S
C212 C210 1.390 . S
C212 C213 1.387 . S
C212 H215 0.950 . S
C213 C212 1.387 . S
C213 C216 1.387 . S
H214 C210 0.950 . S
H215 C212 0.950 . S
C216 C207 1.390 . S
C216 H209 0.950 . S
C216 C213 1.387 . S
C217 C218 1.387 . S
C217 H221 0.950 . S
C217 C226 1.390 . S
C218 C217 1.387 . S
C218 C220 1.387 . S
H219 C226 0.950 . S
C220 C218 1.387 . S
C220 C222 1.390 . S
C220 H224 0.950 . S
H221 C217 0.950 . S
C222 C220 1.390 . S
C222 C223 1.387 . S
C222 H225 0.950 . S
C223 C222 1.387 . S
C223 C226 1.387 . S
H224 C220 0.950 . S
H225 C222 0.950 . S
C226 C217 1.390 . S
C226 H219 0.950 . S
C226 C223 1.387 . S
C227 C228 1.387 . S
C227 H231 0.950 1_556 S
C227 C236 1.390 . S
C228 C227 1.387 . S
C228 C230 1.387 . S
H229 C236 0.950 . S
C230 C228 1.387 . S
C230 C232 1.390 . S
C230 H234 0.950 . S
H231 C227 0.950 1_554 S
C232 C230 1.390 . S
C232 C233 1.387 . S
C232 H235 0.950 . S
C233 C232 1.387 . S
C233 C236 1.387 . S
H234 C230 0.950 . S
H235 C232 0.950 . S
C236 C227 1.390 . S
C236 H229 0.950 . S
C236 C233 1.387 . S
C237 C238 1.387 . S
C237 H241 0.950 . S
C237 C246 1.390 . S
C238 C237 1.387 . S
C238 C240 1.387 . S
H239 C246 0.950 . S
C240 C238 1.387 . S
C240 C242 1.390 . S
C240 H244 0.950 . S
H241 C237 0.950 . S
C242 C240 1.390 . S
C242 C243 1.387 . S
C242 H245 0.950 . S
C243 C242 1.387 . S
C243 C246 1.387 . S
H244 C240 0.950 . S
H245 C242 0.950 . S
C246 C237 1.390 . S
C246 H239 0.950 . S
C246 C243 1.387 . S
C247 C248 1.387 . S
C247 H251 0.950 . S
C247 C256 1.390 . S
C248 C247 1.387 . S
C248 C250 1.387 . S
H249 C256 0.950 . S
C250 C248 1.387 . S
C250 C252 1.390 . S
C250 H254 0.950 . S
H251 C247 0.950 . S
C252 C250 1.390 . S
C252 C253 1.387 . S
C252 H255 0.950 . S
C253 C252 1.387 . S
C253 C256 1.387 . S
H254 C250 0.950 . S
H255 C252 0.950 . S
C256 C247 1.390 . S
C256 H249 0.950 . S
C256 C253 1.387 . S
C257 C258 1.387 . S
C257 H261 0.950 . S
C257 C266 1.390 . S
C258 C257 1.387 . S
C258 C260 1.387 . S
H259 C266 0.950 . S
C260 C258 1.387 . S
C260 C262 1.390 . S
C260 H264 0.950 . S
H261 C257 0.950 . S
C262 C260 1.390 . S
C262 C263 1.387 . S
C262 H265 0.950 . S
C263 C262 1.387 . S
C263 C266 1.387 . S
H264 C260 0.950 . S
H265 C262 0.950 . S
C266 C257 1.390 . S
C266 H259 0.950 . S
C266 C263 1.387 . S
C267 C268 1.387 . S
C267 H271 0.950 . S
C267 C276 1.390 1_455 S
C268 C267 1.387 . S
C268 C270 1.387 . S
H269 C276 0.950 . S
C270 C268 1.387 . S
C270 C272 1.390 1_455 S
C270 H274 0.950 . S
H271 C267 0.950 . S
C272 C270 1.390 1_655 S
C272 C273 1.387 . S
C272 H275 0.950 . S
C273 C272 1.387 . S
C273 C276 1.387 . S
H274 C270 0.950 . S
H275 C272 0.950 . S
C276 C267 1.390 1_655 S
C276 H269 0.950 . S
C276 C273 1.387 . S
C277 C278 1.387 . S
C277 H281 0.950 . S
C277 C286 1.390 . S
C278 C277 1.387 . S
C278 C280 1.387 . S
H279 C286 0.950 . S
C280 C278 1.387 . S
C280 C282 1.390 . S
C280 H284 0.950 . S
H281 C277 0.950 . S
C282 C280 1.390 . S
C282 C283 1.387 . S
C282 H285 0.950 . S
C283 C282 1.387 . S
C283 C286 1.387 . S
H284 C280 0.950 . S
H285 C282 0.950 . S
C286 C277 1.390 . S
C286 H279 0.950 . S
C286 C283 1.387 . S
C287 C288 1.387 . S
C287 H291 0.950 . S
C287 C296 1.390 . S
C288 C287 1.387 . S
C288 C290 1.387 . S
H289 C296 0.950 . S
C290 C288 1.387 . S
C290 C292 1.390 1_545 S
C290 H294 0.950 . S
H291 C287 0.950 . S
C292 C290 1.390 1_565 S
C292 C293 1.387 . S
C292 H295 0.950 . S
C293 C292 1.387 . S
C293 C296 1.387 1_565 S
H294 C290 0.950 . S
H295 C292 0.950 . S
C296 C287 1.390 . S
C296 H289 0.950 . S
C296 C293 1.387 1_545 S
C297 C298 1.387 1_554 S
C297 H301 0.950 . S
C297 C306 1.390 . S
C298 C297 1.387 1_556 S
C298 C300 1.387 . S
H299 C306 0.950 . S
C300 C298 1.387 . S
C300 C302 1.390 . S
C300 H304 0.950 . S
H301 C297 0.950 . S
C302 C300 1.390 . S
C302 C303 1.387 1_556 S
C302 H305 0.950 . S
C303 C302 1.387 1_554 S
C303 C306 1.387 . S
H304 C300 0.950 . S
H305 C302 0.950 . S
C306 C297 1.390 . S
C306 H299 0.950 . S
C306 C303 1.387 . S
C307 C308 1.387 . S
C307 H311 0.950 1_554 S
C307 C316 1.390 1_564 S
C308 C307 1.387 . S
C308 C310 1.387 . S
H309 C316 0.950 . S
C310 C308 1.387 . S
C310 C312 1.390 1_565 S
C310 H314 0.950 . S
H311 C307 0.950 1_556 S
C312 C310 1.390 1_545 S
C312 C313 1.387 1_554 S
C312 H315 0.950 . S
C313 C312 1.387 1_556 S
C313 C316 1.387 . S
H314 C310 0.950 . S
H315 C312 0.950 . S
C316 C307 1.390 1_546 S
C316 H309 0.950 . S
C316 C313 1.387 . S
C317 C318 1.387 . S
C317 H321 0.950 . S
C317 C326 1.390 1_655 S
C318 C317 1.387 . S
C318 C320 1.387 1_556 S
H319 C326 0.950 . S
C320 C318 1.387 1_554 S
C320 C322 1.390 1_655 S
C320 H324 0.950 . S
H321 C317 0.950 . S
C322 C320 1.390 1_455 S
C322 C323 1.387 . S
C322 H325 0.950 . S
C323 C322 1.387 . S
C323 C326 1.387 1_554 S
H324 C320 0.950 . S
H325 C322 0.950 . S
C326 C317 1.390 1_455 S
C326 H319 0.950 . S
C326 C323 1.387 1_556 S
C327 C328 1.387 . S
C327 H331 0.950 . S
C327 C336 1.390 . S
C328 C327 1.387 . S
C328 C330 1.387 . S
H329 C336 0.950 . S
C330 C328 1.387 . S
C330 C332 1.390 . S
C330 H334 0.950 . S
H331 C327 0.950 . S
C332 C330 1.390 . S
C332 C333 1.387 . S
C332 H335 0.950 . S
C333 C332 1.387 . S
C333 C336 1.387 . S
H334 C330 0.950 . S
H335 C332 0.950 . S
C336 C327 1.390 . S
C336 H329 0.950 . S
C336 C333 1.387 . S
C337 C338 1.387 . S
C337 H341 0.950 . S
C337 C346 1.390 . S
C338 C337 1.387 . S
C338 C340 1.387 . S
H339 C346 0.950 . S
C340 C338 1.387 . S
C340 C342 1.390 . S
C340 H344 0.950 . S
H341 C337 0.950 . S
C342 C340 1.390 . S
C342 C343 1.387 . S
C342 H345 0.950 . S
C343 C342 1.387 . S
C343 C346 1.387 . S
H344 C340 0.950 . S
H345 C342 0.950 . S
C346 C337 1.390 . S
C346 H339 0.950 . S
C346 C343 1.387 . S
C347 C348 1.387 . S
C347 H351 0.950 . S
C347 C356 1.390 . S
C348 C347 1.387 . S
C348 C350 1.387 . S
H349 C356 0.950 . S
C350 C348 1.387 . S
C350 C352 1.390 . S
C350 H354 0.950 . S
H351 C347 0.950 . S
C352 C350 1.390 . S
C352 C353 1.387 . S
C352 H355 0.950 . S
C353 C352 1.387 . S
C353 C356 1.387 . S
H354 C350 0.950 . S
H355 C352 0.950 . S
C356 C347 1.390 . S
C356 H349 0.950 . S
C356 C353 1.387 . S
C357 C358 1.387 . S
C357 H361 0.950 . S
C357 C366 1.390 . S
C358 C357 1.387 . S
C358 C360 1.387 . S
H359 C366 0.950 . S
C360 C358 1.387 . S
C360 C362 1.390 . S
C360 H364 0.950 . S
H361 C357 0.950 . S
C362 C360 1.390 . S
C362 C363 1.387 . S
C362 H365 0.950 . S
C363 C362 1.387 . S
C363 C366 1.387 . S
H364 C360 0.950 . S
H365 C362 0.950 . S
C366 C357 1.390 . S
C366 H359 0.950 . S
C366 C363 1.387 . S
C367 C368 1.387 . S
C367 H371 0.950 . S
C367 C376 1.390 . S
C368 C367 1.387 . S
C368 C370 1.387 . S
H369 C376 0.950 . S
C370 C368 1.387 . S
C370 C372 1.390 . S
C370 H374 0.950 . S
H371 C367 0.950 . S
C372 C370 1.390 . S
C372 C373 1.387 . S
C372 H375 0.950 . S
C373 C372 1.387 . S
C373 C376 1.387 . S
H374 C370 0.950 . S
H375 C372 0.950 . S
C376 C367 1.390 . S
C376 H369 0.950 . S
C376 C373 1.387 . S
C377 C378 1.387 . S
C377 H381 0.950 . S
C377 C386 1.390 . S
C378 C377 1.387 . S
C378 C380 1.387 . S
H379 C386 0.950 . S
C380 C378 1.387 . S
C380 C382 1.390 . S
C380 H384 0.950 . S
H381 C377 0.950 . S
C382 C380 1.390 . S
C382 C383 1.387 . S
C382 H385 0.950 . S
C383 C382 1.387 . S
C383 C386 1.387 . S
H384 C380 0.950 . S
H385 C382 0.950 . S
C386 C377 1.390 . S
C386 H379 0.950 . S
C386 C383 1.387 . S
C387 C388 1.387 1_455 S
C387 H391 0.950 . S
C387 C396 1.390 . S
C388 C387 1.387 1_655 S
C388 C390 1.387 . S
H389 C396 0.950 . S
C390 C388 1.387 . S
C390 C392 1.390 . S
C390 H394 0.950 . S
H391 C387 0.950 . S
C392 C390 1.390 . S
C392 C393 1.387 1_655 S
C392 H395 0.950 . S
C393 C392 1.387 1_455 S
C393 C396 1.387 . S
H394 C390 0.950 . S
H395 C392 0.950 . S
C396 C387 1.390 . S
C396 H389 0.950 . S
C396 C393 1.387 . S
C397 C398 1.387 . S
C397 H401 0.950 . S
C397 C406 1.390 . S
C398 C397 1.387 . S
C398 C400 1.387 . S
H399 C406 0.950 . S
C400 C398 1.387 . S
C400 C402 1.390 . S
C400 H404 0.950 . S
H401 C397 0.950 . S
C402 C400 1.390 . S
C402 C403 1.387 . S
C402 H405 0.950 . S
C403 C402 1.387 . S
C403 C406 1.387 . S
H404 C400 0.950 . S
H405 C402 0.950 . S
C406 C397 1.390 . S
C406 H399 0.950 . S
C406 C403 1.387 . S
C407 C408 1.387 . S
C407 H411 0.950 . S
C407 C416 1.390 . S
C408 C407 1.387 . S
C408 C410 1.387 . S
H409 C416 0.950 1_565 S
C410 C408 1.387 . S
C410 C412 1.390 . S
C410 H414 0.950 . S
H411 C407 0.950 . S
C412 C410 1.390 . S
C412 C413 1.387 . S
C412 H415 0.950 . S
C413 C412 1.387 . S
C413 C416 1.387 . S
H414 C410 0.950 . S
H415 C412 0.950 . S
C416 C407 1.390 . S
C416 H409 0.950 1_545 S
C416 C413 1.387 . S
C417 C418 1.387 . S
C417 H421 0.950 . S
C417 C426 1.390 . S
C418 C417 1.387 . S
C418 C420 1.387 . S
H419 C426 0.950 . S
C420 C418 1.387 . S
C420 C422 1.390 . S
C420 H424 0.950 . S
H421 C417 0.950 . S
C422 C420 1.390 . S
C422 C423 1.387 . S
C422 H425 0.950 . S
C423 C422 1.387 . S
C423 C426 1.387 . S
H424 C420 0.950 . S
H425 C422 0.950 . S
C426 C417 1.390 . S
C426 H419 0.950 . S
C426 C423 1.387 . S
C427 C428 1.387 . S
C427 H431 0.950 . S
C427 C436 1.390 . S
C428 C427 1.387 . S
C428 C430 1.387 . S
H429 C436 0.950 . S
C430 C428 1.387 . S
C430 C432 1.390 . S
C430 H434 0.950 . S
H431 C427 0.950 . S
C432 C430 1.390 . S
C432 C433 1.387 . S
C432 H435 0.950 . S
C433 C432 1.387 . S
C433 C436 1.387 . S
H434 C430 0.950 . S
H435 C432 0.950 . S
C436 C427 1.390 . S
C436 H429 0.950 . S
C436 C433 1.387 . S
C437 C438 1.387 . S
C437 H441 0.950 . S
C437 C446 1.390 . S
C438 C437 1.387 . S
C438 C440 1.387 . S
H439 C446 0.950 . S
C440 C438 1.387 . S
C440 C442 1.390 . S
C440 H444 0.950 . S
H441 C437 0.950 . S
C442 C440 1.390 . S
C442 C443 1.387 . S
C442 H445 0.950 . S
C443 C442 1.387 . S
C443 C446 1.387 . S
H444 C440 0.950 . S
H445 C442 0.950 . S
C446 C437 1.390 . S
C446 H439 0.950 . S
C446 C443 1.387 . S
C447 C448 1.387 . S
C447 H451 0.950 . S
C447 C456 1.390 . S
C448 C447 1.387 . S
C448 C450 1.387 . S
H449 C456 0.950 . S
C450 C448 1.387 . S
C450 C452 1.390 . S
C450 H454 0.950 . S
H451 C447 0.950 . S
C452 C450 1.390 . S
C452 C453 1.387 . S
C452 H455 0.950 . S
C453 C452 1.387 . S
C453 C456 1.387 . S
H454 C450 0.950 . S
H455 C452 0.950 . S
C456 C447 1.390 . S
C456 H449 0.950 . S
C456 C453 1.387 . S
C457 C458 1.387 . S
C457 H461 0.950 . S
C457 C466 1.390 . S
C458 C457 1.387 . S
C458 C460 1.387 . S
H459 C466 0.950 . S
C460 C458 1.387 . S
C460 C462 1.390 . S
C460 H464 0.950 . S
H461 C457 0.950 . S
C462 C460 1.390 . S
C462 C463 1.387 . S
C462 H465 0.950 . S
C463 C462 1.387 . S
C463 C466 1.387 . S
H464 C460 0.950 . S
H465 C462 0.950 . S
C466 C457 1.390 . S
C466 H459 0.950 . S
C466 C463 1.387 . S
C467 C468 1.387 . S
C467 H471 0.950 . S
C467 C476 1.390 . S
C468 C467 1.387 . S
C468 C470 1.387 . S
H469 C476 0.950 . S
C470 C468 1.387 . S
C470 C472 1.390 . S
C470 H474 0.950 . S
H471 C467 0.950 . S
C472 C470 1.390 . S
C472 C473 1.387 . S
C472 H475 0.950 . S
C473 C472 1.387 . S
C473 C476 1.387 . S
H474 C470 0.950 . S
H475 C472 0.950 . S
C476 C467 1.390 . S
C476 H469 0.950 . S
C476 C473 1.387 . S
C208 C18 1.313 . S
C213 C179 1.313 . S
C218 C42 1.282 . S
C223 C203 1.283 . S
C228 C64 1.305 . S
C233 C157 1.294 . S
C238 C111 1.270 . S
C243 C65 1.267 . S
C248 C134 1.274 . S
C253 C19 1.277 . S
C258 C41 1.298 . S
C263 C88 1.288 . S
C268 C180 1.298 . S
C273 C133 1.310 . S
C278 C202 1.320 . S
C283 C87 1.320 . S
C288 C110 1.327 . S
C293 C156 1.327 . S
C298 C67 1.177 1_556 S
C303 C20 1.162 . S
C308 C44 1.180 . S
C313 C21 1.181 1_556 S
C318 C43 1.164 . S
C323 C66 1.160 . S
C328 C90 1.184 . S
C333 C135 1.164 . S
C338 C89 1.169 . S
C343 C113 1.188 . S
C348 C112 1.159 . S
C353 C136 1.180 . S
C358 C205 1.190 . S
C363 C158 1.171 . S
C368 C182 1.185 . S
C373 C159 1.185 . S
C378 C204 1.165 . S
C383 C181 1.172 . S
C388 C16 1.444 . S
C393 C17 1.449 . S
C398 C40 1.446 . S
C403 C39 1.442 . S
C408 C62 1.440 . S
C413 C63 1.442 1_545 S
C418 C85 1.446 . S
C423 C86 1.450 1_556 S
C428 C108 1.442 . S
C433 C109 1.446 1_556 S
C438 C131 1.442 . S
C443 C132 1.446 1_556 S
C448 C154 1.446 . S
C453 C155 1.450 1_554 S
C458 C177 1.445 1_554 S
C463 C178 1.449 . S
C468 C200 1.444 . S
C473 C201 1.448 1_554 S
