# Generated by pormake.
# Topology wiu, (6)-cn, num edge types: 1
# Building blocks:
#     Node 0, Type 0, BuildingBlock: HISSIN_clean_sbu_0, # of connection points: 6
#     Node 1, Type 0, BuildingBlock: HISSIN_clean_sbu_0, # of connection points: 6
#     Node 2, Type 0, BuildingBlock: HISSIN_clean_sbu_0, # of connection points: 6
#     Node 3, Type 0, BuildingBlock: HISSIN_clean_sbu_0, # of connection points: 6
#     Node 4, Type 0, BuildingBlock: HISSIN_clean_sbu_0, # of connection points: 6
#     Node 5, Type 0, BuildingBlock: HISSIN_clean_sbu_0, # of connection points: 6
#     Node 6, Type 0, BuildingBlock: HISSIN_clean_sbu_0, # of connection points: 6
#     Node 7, Type 0, BuildingBlock: HISSIN_clean_sbu_0, # of connection points: 6
#     Node 8, Type 0, BuildingBlock: HISSIN_clean_sbu_0, # of connection points: 6
#     Node 9, Type 0, BuildingBlock: HISSIN_clean_sbu_0, # of connection points: 6
#     Node 10, Type 0, BuildingBlock: HISSIN_clean_sbu_0, # of connection points: 6
#     Node 11, Type 0, BuildingBlock: HISSIN_clean_sbu_0, # of connection points: 6
#     Node 12, Type 0, BuildingBlock: HISSIN_clean_sbu_0, # of connection points: 6
#     Node 13, Type 0, BuildingBlock: HISSIN_clean_sbu_0, # of connection points: 6
#     Node 14, Type 0, BuildingBlock: HISSIN_clean_sbu_0, # of connection points: 6
#     Node 15, Type 0, BuildingBlock: HISSIN_clean_sbu_0, # of connection points: 6
#     Edge 16, Type (0, 0), BuildingBlock: OJICUG_clean_linker_0, # of connection points: 2
#     Edge 17, Type (0, 0), BuildingBlock: OJICUG_clean_linker_0, # of connection points: 2
#     Edge 18, Type (0, 0), BuildingBlock: OJICUG_clean_linker_0, # of connection points: 2
#     Edge 19, Type (0, 0), BuildingBlock: OJICUG_clean_linker_0, # of connection points: 2
#     Edge 20, Type (0, 0), BuildingBlock: OJICUG_clean_linker_0, # of connection points: 2
#     Edge 21, Type (0, 0), BuildingBlock: OJICUG_clean_linker_0, # of connection points: 2
#     Edge 22, Type (0, 0), BuildingBlock: OJICUG_clean_linker_0, # of connection points: 2
#     Edge 23, Type (0, 0), BuildingBlock: OJICUG_clean_linker_0, # of connection points: 2
#     Edge 24, Type (0, 0), BuildingBlock: OJICUG_clean_linker_0, # of connection points: 2
#     Edge 25, Type (0, 0), BuildingBlock: OJICUG_clean_linker_0, # of connection points: 2
#     Edge 26, Type (0, 0), BuildingBlock: OJICUG_clean_linker_0, # of connection points: 2
#     Edge 27, Type (0, 0), BuildingBlock: OJICUG_clean_linker_0, # of connection points: 2
#     Edge 28, Type (0, 0), BuildingBlock: OJICUG_clean_linker_0, # of connection points: 2
#     Edge 29, Type (0, 0), BuildingBlock: OJICUG_clean_linker_0, # of connection points: 2
#     Edge 30, Type (0, 0), BuildingBlock: OJICUG_clean_linker_0, # of connection points: 2
#     Edge 31, Type (0, 0), BuildingBlock: OJICUG_clean_linker_0, # of connection points: 2
#     Edge 32, Type (0, 0), BuildingBlock: OJICUG_clean_linker_0, # of connection points: 2
#     Edge 33, Type (0, 0), BuildingBlock: OJICUG_clean_linker_0, # of connection points: 2
#     Edge 34, Type (0, 0), BuildingBlock: OJICUG_clean_linker_0, # of connection points: 2
#     Edge 35, Type (0, 0), BuildingBlock: OJICUG_clean_linker_0, # of connection points: 2
#     Edge 36, Type (0, 0), BuildingBlock: OJICUG_clean_linker_0, # of connection points: 2
#     Edge 37, Type (0, 0), BuildingBlock: OJICUG_clean_linker_0, # of connection points: 2
#     Edge 38, Type (0, 0), BuildingBlock: OJICUG_clean_linker_0, # of connection points: 2
#     Edge 39, Type (0, 0), BuildingBlock: OJICUG_clean_linker_0, # of connection points: 2
#     Edge 40, Type (0, 0), BuildingBlock: OJICUG_clean_linker_0, # of connection points: 2
#     Edge 41, Type (0, 0), BuildingBlock: OJICUG_clean_linker_0, # of connection points: 2
#     Edge 42, Type (0, 0), BuildingBlock: OJICUG_clean_linker_0, # of connection points: 2
#     Edge 43, Type (0, 0), BuildingBlock: OJICUG_clean_linker_0, # of connection points: 2
#     Edge 44, Type (0, 0), BuildingBlock: OJICUG_clean_linker_0, # of connection points: 2
#     Edge 45, Type (0, 0), BuildingBlock: OJICUG_clean_linker_0, # of connection points: 2
#     Edge 46, Type (0, 0), BuildingBlock: OJICUG_clean_linker_0, # of connection points: 2
#     Edge 47, Type (0, 0), BuildingBlock: OJICUG_clean_linker_0, # of connection points: 2
#     Edge 48, Type (0, 0), BuildingBlock: OJICUG_clean_linker_0, # of connection points: 2
#     Edge 49, Type (0, 0), BuildingBlock: OJICUG_clean_linker_0, # of connection points: 2
#     Edge 50, Type (0, 0), BuildingBlock: OJICUG_clean_linker_0, # of connection points: 2
#     Edge 51, Type (0, 0), BuildingBlock: OJICUG_clean_linker_0, # of connection points: 2
#     Edge 52, Type (0, 0), BuildingBlock: OJICUG_clean_linker_0, # of connection points: 2
#     Edge 53, Type (0, 0), BuildingBlock: OJICUG_clean_linker_0, # of connection points: 2
#     Edge 54, Type (0, 0), BuildingBlock: OJICUG_clean_linker_0, # of connection points: 2
#     Edge 55, Type (0, 0), BuildingBlock: OJICUG_clean_linker_0, # of connection points: 2
#     Edge 56, Type (0, 0), BuildingBlock: OJICUG_clean_linker_0, # of connection points: 2
#     Edge 57, Type (0, 0), BuildingBlock: OJICUG_clean_linker_0, # of connection points: 2
#     Edge 58, Type (0, 0), BuildingBlock: OJICUG_clean_linker_0, # of connection points: 2
#     Edge 59, Type (0, 0), BuildingBlock: OJICUG_clean_linker_0, # of connection points: 2
#     Edge 60, Type (0, 0), BuildingBlock: OJICUG_clean_linker_0, # of connection points: 2
#     Edge 61, Type (0, 0), BuildingBlock: OJICUG_clean_linker_0, # of connection points: 2
#     Edge 62, Type (0, 0), BuildingBlock: OJICUG_clean_linker_0, # of connection points: 2
#     Edge 63, Type (0, 0), BuildingBlock: OJICUG_clean_linker_0, # of connection points: 2
# Relax obj value: 0.682
# Max RMSD: 0.330
# Mean RMSD: 0.330
data_MOF--net-wiu--node1-HISSIN_clean_sbu_0--edge1-OJICUG_clean_linker_0
_symmetry_space_group_name_H-M    P1
_symmetry_Int_Tables_number       1
_symmetry_cell_setting            triclinic
loop_
_symmetry_equiv_pos_as_xyz
'x, y, z'
_cell_length_a     29.021642
_cell_length_b     28.925848
_cell_length_c     38.488846
_cell_angle_alpha  90.086877
_cell_angle_beta   89.988462
_cell_angle_gamma 90.14935
loop_
_atom_site_label
_atom_site_type_symbol
_atom_site_fract_x
_atom_site_fract_y
_atom_site_fract_z
_atom_type_partial_charge
Eu0 Eu 0.38267 0.21226 0.38986 0.0
Eu1 Eu 0.44386 0.13725 0.3486 0.0
C2 C 0.33583 0.11797 0.36596 0.0
C3 C 0.32965 0.32899 0.40432 0.0
C4 C 0.28379 0.34083 0.39686 0.0
C5 C 0.35464 0.4018 0.37847 0.0
C6 C 0.27353 0.38208 0.37963 0.0
C7 C 0.36499 0.36023 0.39533 0.0
C8 C 0.30888 0.4127 0.36989 0.0
C9 C 0.34012 0.28231 0.41809 0.0
O10 O 0.40404 0.17365 0.3053 0.0
O11 O 0.34761 0.21006 0.33658 0.0
C12 C 0.36338 0.1939 0.30684 0.0
O13 O 0.44359 0.25045 0.36528 0.0
O14 O 0.46277 0.06548 0.33842 0.0
O15 O 0.495 0.12065 0.30904 0.0
O16 O 0.49553 0.19226 0.36625 0.0
C17 C 0.48679 0.23683 0.36567 0.0
O18 O 0.41076 0.1663 0.43409 0.0
O19 O 0.44235 0.10666 0.40248 0.0
O20 O 0.37077 0.11174 0.34487 0.0
O21 O 0.31893 0.24831 0.40261 0.0
O22 O 0.38323 0.27249 0.42437 0.0
O23 O 0.33712 0.14915 0.3908 0.0
C24 C 0.46318 1.05771 0.27765 0.0
C25 C 0.45558 0.0868 0.24909 0.0
C26 C 0.41901 0.99726 0.24841 0.0
C27 C 0.43033 0.07147 0.22067 0.0
C28 C 0.44443 1.0128 0.27713 0.0
C29 C 0.41181 1.02642 0.21969 0.0
C30 C 0.48388 0.07678 0.30973 0.0
C31 C 0.42918 0.12441 0.4323 0.0
H32 H 0.25588 0.31752 0.40354 0.0
H33 H 0.38253 0.42487 0.37131 0.0
H34 H 0.23787 0.39008 0.37393 0.0
H35 H 0.40074 0.35215 0.40051 0.0
H36 H 0.46877 0.12186 0.24862 0.0
H37 H 0.40567 0.96227 0.24843 0.0
H38 H 0.42718 0.09474 1.19879 0.0
H39 H 0.44893 0.98993 0.29913 0.0
Eu40 Eu 0.6601 0.63379 0.6374 0.0
Eu41 Eu 0.7341 0.69928 0.60093 0.0
C42 C 0.75726 0.5909 0.61309 0.0
C43 C 0.54376 0.58214 0.6463 0.0
C44 C 0.53637 0.59523 0.61157 0.0
C45 C 0.46491 0.55423 0.64921 0.0
C46 C 0.49364 0.58752 0.59569 0.0
C47 C 0.50768 0.56184 0.66495 0.0
C48 C 0.45743 0.56683 0.61434 0.0
C49 C 0.58913 0.58969 0.66261 0.0
O50 O 0.70716 0.65673 0.55466 0.0
O51 O 0.66414 0.60183 0.58332 0.0
C52 C 0.68414 0.61711 0.5548 0.0
O53 O 0.62052 0.69237 0.61141 0.0
O54 O 0.75264 0.74651 0.55925 0.0
O55 O 0.79873 0.73794 0.60304 0.0
O56 O 0.6757 0.74529 0.62032 0.0
C57 C 0.63213 0.73583 0.6152 0.0
O58 O 0.70253 0.66291 0.68363 0.0
O59 O 0.7661 0.6867 0.65333 0.0
O60 O 0.76538 0.62859 0.59492 0.0
O61 O 0.62356 0.56913 0.64739 0.0
O62 O 0.5989 0.63247 0.67057 0.0
O63 O 0.72379 0.58877 0.63624 0.0
C64 C 0.7902 0.81259 0.58009 0.0
C65 C 0.75425 0.83552 0.59737 0.0
C66 C 0.81966 0.88608 0.56037 0.0
C67 C 0.74906 0.88332 0.59394 0.0
C68 C 0.82434 0.83831 0.5634 0.0
C69 C 0.78005 0.90861 0.57332 0.0
C70 C 0.78882 0.76229 0.57563 0.0
C71 C 0.74608 0.67696 0.68294 0.0
H72 H 0.56379 0.61123 0.5967 0.0
H73 H 0.43795 0.53757 0.66416 0.0
H74 H 0.48883 0.59795 0.56891 0.0
H75 H 0.5126 0.55155 0.69156 0.0
H76 H 0.72824 0.81607 0.61117 0.0
H77 H 0.84426 0.90416 0.54412 0.0
H78 H 0.7184 0.89961 0.60428 0.0
H79 H 0.85263 0.82117 0.55032 0.0
Eu80 Eu 0.23991 0.90722 0.88942 0.0
Eu81 Eu 0.1791 0.98171 0.84858 0.0
C82 C 0.2876 1.00105 0.86552 0.0
C83 C 0.29056 0.79115 0.90007 0.0
C84 C 0.2895 0.78777 0.86366 0.0
C85 C 0.31049 0.70979 0.90321 0.0
C86 C 0.29937 0.74598 0.84712 0.0
C87 C 0.30051 0.75176 0.91975 0.0
C88 C 0.31026 0.70652 0.86665 0.0
C89 C 0.2805 0.83577 0.91688 0.0
O90 O 0.21892 0.94528 0.80521 0.0
O91 O 0.27581 0.9099 0.83647 0.0
C92 C 0.25986 0.92564 0.80672 0.0
O93 O 0.18032 0.86903 0.86301 0.0
O94 O 0.1602 1.05328 0.83767 0.0
O95 O 0.1274 0.99746 0.80928 0.0
O96 O 0.12776 0.92616 0.86614 0.0
C97 C 0.13693 0.88171 0.86431 0.0
O98 O 0.2116 0.95302 0.93389 0.0
O99 O 0.18048 1.01281 0.90237 0.0
O100 O 0.2522 1.00777 0.84493 0.0
O101 O 0.30275 0.87106 0.90414 0.0
O102 O 0.23695 0.8449 0.92158 0.0
O103 O 0.28668 0.96942 0.88999 0.0
C104 C 0.15932 0.05917 0.77675 0.0
C105 C 0.16558 1.0293 0.74838 0.0
C106 C 0.20494 0.11761 0.74657 0.0
C107 C 0.19103 1.0432 0.71966 0.0
C108 C 0.1794 0.10349 0.77563 0.0
C109 C 0.21103 0.08757 0.71817 0.0
C110 C 0.13878 1.04126 0.80925 0.0
C111 C 0.19351 0.99508 0.9322 0.0
H112 H 0.28102 0.81758 0.84794 0.0
H113 H 0.31909 0.68011 0.91904 0.0
H114 H 0.2981 0.74449 0.81901 0.0
H115 H 0.30056 0.7534 0.94779 0.0
H116 H 0.15127 0.99468 0.74832 0.0
H117 H 0.21936 0.15217 0.74612 0.0
H118 H 0.19329 1.0194 0.69799 0.0
H119 H 0.1759 0.12696 0.79742 0.0
Eu120 Eu 0.96243 0.48736 1.13711 0.0
Eu121 Eu 0.88902 0.42262 1.09937 0.0
C122 C 0.86681 0.53112 1.11074 0.0
C123 C 0.07786 0.54256 1.14975 0.0
C124 C 0.09022 0.58832 1.14185 0.0
C125 C 0.14997 0.51632 1.12409 0.0
C126 C 0.13158 0.59794 1.12464 0.0
C127 C 0.1084 0.50664 1.141 0.0
C128 C 0.16164 0.56199 1.1153 0.0
C129 C 1.03146 0.53262 1.16391 0.0
O130 O 0.91776 0.46455 1.05346 0.0
O131 O 0.96091 0.51877 1.08288 0.0
C132 C 0.94161 0.50368 1.05401 0.0
O133 O 1.00307 0.42893 1.11194 0.0
O134 O 0.87087 0.37543 1.05744 0.0
O135 O 0.82441 0.38389 1.10103 0.0
O136 O 0.9471 0.3763 1.11913 0.0
C137 C 0.99094 0.38552 1.11488 0.0
O138 O 0.91851 0.45839 1.18245 0.0
O139 O 0.85523 0.43649 1.1511 0.0
O140 O 0.85871 0.49368 1.09219 0.0
O141 O 0.99736 0.5527 1.14797 0.0
O142 O 1.02197 0.48973 1.17184 0.0
O143 O 0.89896 0.53219 1.13492 0.0
C144 C 0.83356 0.3092 1.07816 0.0
C145 C 0.86907 0.28672 1.09623 0.0
C146 C 0.80531 0.23524 1.05824 0.0
C147 C 0.87473 0.23892 1.09311 0.0
C148 C 0.80022 0.28302 1.0609 0.0
C149 C 0.84457 0.21314 1.07212 0.0
C150 C 0.83465 0.3595 1.07366 0.0
C151 C 0.87461 0.44569 1.18107 0.0
H152 H 0.06735 0.61661 1.14831 0.0
H153 H 0.17256 0.48797 1.11721 0.0
H154 H 0.14017 0.63355 1.11875 0.0
H155 H 0.09983 0.47095 1.14651 0.0
H156 H 0.89442 0.30649 1.11047 0.0
H157 H 0.78139 0.21675 1.04164 0.0
H158 H 0.90515 0.22297 1.10411 0.0
H159 H 0.77227 0.2998 1.0472 0.0
Eu160 Eu 0.67426 0.97726 1.07118 0.0
Eu161 Eu 0.73992 0.90524 1.03306 0.0
C162 C 0.63871 0.87456 1.05541 0.0
C163 C 0.56081 1.03101 1.09352 0.0
C164 C 0.53817 0.99467 1.07627 0.0
C165 C 0.48734 0.06015 1.11294 0.0
C166 C 0.49051 0.98912 1.07954 0.0
C167 C 0.53498 0.06514 1.1101 0.0
C168 C 0.46506 1.02025 1.0999 0.0
C169 C 0.61097 1.03029 1.09776 0.0
O170 O 0.71029 0.94921 0.98805 0.0
O171 O 0.68649 1.0118 1.01953 0.0
C172 C 0.69633 0.99277 0.98954 0.0
O173 O 0.74433 1.00953 1.0776 0.0
O174 O 0.80473 0.86962 1.02258 0.0
O175 O 0.74254 0.84771 0.99624 0.0
O176 O 0.78377 0.97002 1.03502 0.0
C177 C 0.78166 1.00273 1.05888 0.0
O178 O 0.71709 0.94936 1.1168 0.0
O179 O 0.77221 0.90803 1.08715 0.0
O180 O 0.68218 0.86309 1.05821 0.0
O181 O 0.62722 0.99378 1.11341 0.0
O182 O 0.63493 1.04146 1.07043 0.0
O183 O 0.62907 0.91835 1.05101 0.0
C184 C 0.79371 0.78935 1.01628 0.0
C185 C 0.83927 0.77445 1.02091 0.0
C186 C 0.76651 0.71708 1.04161 0.0
C187 C 0.84841 0.73188 1.03662 0.0
C188 C 0.75736 0.75991 1.02627 0.0
C189 C 0.81213 0.70314 1.04769 0.0
C190 C 0.78489 0.83715 1.00442 0.0
C191 C 0.75682 0.9269 1.11613 0.0
H192 H 0.55773 0.96871 1.06256 0.0
H193 H 0.46909 0.08478 1.12904 0.0
H194 H 0.47441 0.95819 1.06921 0.0
H195 H 0.5519 0.09375 1.12314 0.0
H196 H 0.86786 0.79643 1.01338 0.0
H197 H 0.73792 0.69562 1.04991 0.0
H198 H 0.88392 0.7216 1.04047 0.0
H199 H 0.72182 0.77048 1.02322 0.0
Eu200 Eu 0.39297 0.42537 0.82354 0.0
Eu201 Eu 0.46637 0.48866 0.78341 0.0
C202 C 0.49298 0.38485 0.80699 0.0
C203 C 0.31603 0.40333 0.89509 0.0
C204 C 0.34392 0.40404 0.92487 0.0
C205 C 0.2621 0.45502 0.92439 0.0
C206 C 0.33165 0.43036 0.95361 0.0
C207 C 0.27472 0.42885 0.89523 0.0
C208 C 0.29081 0.45651 0.95375 0.0
C209 C 0.3342 0.38318 0.86249 0.0
O210 O 0.42064 0.46119 0.73859 0.0
O211 O 0.36188 0.42729 0.76966 0.0
C212 C 0.37916 0.44178 0.74001 0.0
O213 O 0.36646 0.49801 0.82849 0.0
O214 O 0.50282 0.55311 0.77253 0.0
O215 O 0.52563 0.48958 0.74834 0.0
O216 O 0.40307 0.53368 0.78314 0.0
C217 C 0.37204 0.53379 0.80801 0.0
O218 O 0.4285 0.46538 0.86751 0.0
O219 O 0.46391 0.52313 0.83683 0.0
O220 O 0.5056 0.42849 0.80799 0.0
O221 O 0.32199 0.40437 0.83404 0.0
O222 O 0.37806 0.37282 0.8625 0.0
O223 O 0.44876 0.37512 0.80551 0.0
C224 C 0.58286 0.54187 0.76922 0.0
C225 C 0.59826 0.58776 0.77199 0.0
C226 C 0.65226 0.51638 0.79907 0.0
C227 C 0.63972 0.59799 0.78888 0.0
C228 C 0.61056 0.50619 0.7825 0.0
C229 C 0.66677 0.56246 0.80307 0.0
C230 C 0.536 0.5324 0.75594 0.0
C231 C 0.44829 0.50651 0.86641 0.0
H232 H 0.376 0.38504 0.92586 0.0
H233 H 0.22991 0.47388 0.92407 0.0
H234 H 0.35377 0.42892 0.97625 0.0
H235 H 0.25266 0.42938 0.87254 0.0
H236 H 0.5775 0.61583 0.76198 0.0
H237 H 0.67241 0.48833 0.80977 0.0
H238 H 0.65052 0.63376 0.79104 0.0
H239 H 0.59946 0.47049 0.78097 0.0
Eu240 Eu 0.95069 0.13823 0.57203 0.0
Eu241 Eu 0.88647 0.21299 0.53534 0.0
C242 C 0.98887 0.23971 0.55695 0.0
C243 C 0.06291 0.08103 0.59255 0.0
C244 C 0.08598 0.11641 0.57455 0.0
C245 C 0.13611 1.05127 0.61194 0.0
C246 C 0.13376 0.12125 0.57746 0.0
C247 C 0.08836 1.04698 0.60946 0.0
C248 C 0.1589 0.09042 0.59822 0.0
C249 C 1.01287 0.08309 0.59749 0.0
O250 O 0.91502 0.16999 0.48923 0.0
O251 O 0.93778 0.10603 0.51958 0.0
C252 C 0.92841 0.12618 0.48993 0.0
O253 O 0.87983 0.10763 0.57809 0.0
O254 O 0.82235 0.24978 0.52509 0.0
O255 O 0.88578 0.27433 0.50218 0.0
O256 O 0.84097 0.14934 0.53645 0.0
C257 C 0.84249 0.11595 0.55973 0.0
O258 O 0.9089 0.16633 0.61831 0.0
O259 O 0.85466 0.20958 0.58944 0.0
O260 O 0.94584 0.25204 0.56101 0.0
O261 O 0.99809 0.11999 0.61356 0.0
O262 O 0.98788 0.07275 0.57047 0.0
O263 O 0.99734 0.19584 0.55192 0.0
C264 C 0.83543 0.32989 0.52569 0.0
C265 C 0.81373 0.36514 0.50707 0.0
C266 C 0.84132 0.38127 0.57573 0.0
C267 C 0.80577 0.40817 0.52256 0.0
C268 C 0.84945 0.33832 0.5601 0.0
C269 C 0.81929 0.41667 0.55713 0.0
C270 C 0.84309 0.28415 0.50977 0.0
C271 C 0.86971 0.18978 0.61807 0.0
H272 H 0.06674 0.14233 0.56059 0.0
H273 H 0.15411 1.02686 0.62835 0.0
H274 H 0.15026 0.15159 0.56658 0.0
H275 H 0.07111 1.01913 0.62311 0.0
H276 H 0.80254 0.35928 0.48071 0.0
H277 H 0.85246 0.38687 0.60227 0.0
H278 H 0.7881 0.4345 0.50769 0.0
H279 H 0.86642 0.31152 0.57494 0.0
Eu280 Eu 0.23073 0.69396 0.32354 0.0
Eu281 Eu 0.15602 0.63208 0.28342 0.0
C282 C 0.13109 0.7356 0.30807 0.0
C283 C 0.30877 0.71445 0.39478 0.0
C284 C 0.27991 0.71011 0.42387 0.0
C285 C 0.36584 0.66652 0.42412 0.0
C286 C 0.29353 0.68428 0.45244 0.0
C287 C 0.35195 0.69235 0.39517 0.0
C288 C 0.33664 0.66207 0.45309 0.0
C289 C 0.29049 0.73499 0.36241 0.0
O290 O 0.20195 0.6593 0.23859 0.0
O291 O 0.26126 0.69236 0.26962 0.0
C292 C 0.24358 0.67841 0.23997 0.0
O293 O 0.25655 0.62089 0.32787 0.0
O294 O 0.1175 0.56955 0.27047 0.0
O295 O 0.095 0.63523 0.25009 0.0
O296 O 0.21715 0.584 0.28421 0.0
C297 C 0.24914 0.58427 0.30845 0.0
O298 O 0.19501 0.65414 0.36731 0.0
O299 O 0.15842 0.59701 0.33662 0.0
O300 O 0.11846 0.69204 0.30978 0.0
O301 O 0.30214 0.71364 0.33385 0.0
O302 O 0.2468 0.74609 0.36268 0.0
O303 O 0.17534 0.74499 0.30596 0.0
C304 C 1.03827 0.58502 0.27225 0.0
C305 C 1.03265 0.59218 0.30811 0.0
C306 C 0.9577 0.5627 0.26824 0.0
C307 C 0.99008 0.58411 0.324 0.0
C308 C 1.00036 0.57095 0.25239 0.0
C309 C 0.95215 0.56884 0.30432 0.0
C310 C 0.0838 0.59229 0.25615 0.0
C311 C 0.17489 0.6132 0.36613 0.0
H312 H 0.24623 0.72613 0.42456 0.0
H313 H 0.39953 0.65051 0.42402 0.0
H314 H 0.2706 0.68332 0.47464 0.0
H315 H 0.37465 0.69442 0.37288 0.0
H316 H 0.06137 0.60373 0.32389 0.0
H317 H 0.92937 0.55052 0.25233 0.0
H318 H 0.98687 0.58988 0.3517 0.0
H319 H 1.00373 0.56605 0.22473 0.0
Eu320 Eu 0.88558 0.71441 0.88928 0.0
Eu321 Eu 0.9462 0.63996 0.84816 0.0
C322 C 0.83775 0.62064 0.86519 0.0
C323 C 0.83518 0.83041 0.90001 0.0
C324 C 0.83346 0.8327 0.86358 0.0
C325 C 0.8185 0.91254 0.90277 0.0
C326 C 0.82382 0.87433 0.84686 0.0
C327 C 0.82838 0.87074 0.91948 0.0
C328 C 0.81589 0.91472 0.86622 0.0
C329 C 0.84544 0.78601 0.91699 0.0
O330 O 0.90622 0.67646 0.80501 0.0
O331 O 0.84939 0.71173 0.83648 0.0
C332 C 0.86526 0.69604 0.80665 0.0
O333 O 0.9451 0.75244 0.86273 0.0
O334 O 0.96537 0.56848 0.83701 0.0
O335 O 0.99761 0.62445 0.80855 0.0
O336 O 0.9976 0.69535 0.86602 0.0
C337 C 0.98848 0.73979 0.86415 0.0
O338 O 0.91376 0.6685 0.93354 0.0
O339 O 0.94438 0.60854 0.90179 0.0
O340 O 0.87313 0.61385 0.84456 0.0
O341 O 0.82297 0.75055 0.90468 0.0
O342 O 0.88907 0.77695 0.92134 0.0
O343 O 0.83865 0.65235 0.88967 0.0
C344 C 0.96581 0.56253 0.77603 0.0
C345 C 0.96068 0.59193 0.74732 0.0
C346 C 0.91913 0.5046 0.74608 0.0
C347 C 0.93523 0.57806 0.71856 0.0
C348 C 0.94465 0.51869 0.77517 0.0
C349 C 0.91412 0.53419 0.71736 0.0
C350 C 0.98646 0.58059 0.8085 0.0
C351 C 0.93141 0.62628 0.93167 0.0
H352 H 0.83964 0.80221 0.84794 0.0
H353 H 0.81226 0.94297 0.91849 0.0
H354 H 0.82297 0.87493 0.81874 0.0
H355 H 0.8308 0.87 0.94749 0.0
H356 H 0.9759 0.62615 0.74702 0.0
H357 H 0.90386 0.4704 0.74586 0.0
H358 H 0.93381 0.60144 0.69664 0.0
H359 H 0.94731 0.49557 0.79719 0.0
Eu360 Eu 0.15729 0.13434 1.13763 0.0
Eu361 Eu 0.23176 0.19874 1.10087 0.0
C362 C 0.25348 0.08994 1.11236 0.0
C363 C 1.04058 0.08372 1.14711 0.0
C364 C 1.03407 0.09388 1.11175 0.0
C365 C 0.96098 1.05819 1.15063 0.0
C366 C 0.99142 0.08584 1.09585 0.0
C367 C 1.00361 0.06639 1.16645 0.0
C368 C 0.95443 0.06758 1.11507 0.0
C369 C 0.08593 0.09148 1.16341 0.0
O370 O 0.20372 0.15668 1.05468 0.0
O371 O 0.16036 0.10223 1.08356 0.0
C372 C 0.18017 0.11736 1.05492 0.0
O373 O 0.11837 0.19301 1.1113 0.0
O374 O 0.25011 0.24637 1.0594 0.0
O375 O 0.29721 0.23604 1.10238 0.0
O376 O 0.17391 0.24545 1.1204 0.0
C377 C 0.13025 0.23637 1.1152 0.0
O378 O 0.2003 0.16301 1.18372 0.0
O379 O 0.26398 0.18601 1.15324 0.0
O380 O 0.26217 0.12767 1.09438 0.0
O381 O 0.12031 0.07023 1.14865 0.0
O382 O 0.09591 0.13443 1.17063 0.0
O383 O 0.22012 0.08825 1.13564 0.0
C384 C 0.29006 0.31122 1.08011 0.0
C385 C 0.25421 0.33541 1.09651 0.0
C386 C 0.32379 0.38369 1.06217 0.0
C387 C 0.25139 0.38348 1.09354 0.0
C388 C 0.32621 0.33571 1.06484 0.0
C389 C 0.28449 0.40775 1.07408 0.0
C390 C 0.2871 0.26103 1.07534 0.0
C391 C 0.244 0.17653 1.18293 0.0
H392 H 0.06209 0.10787 1.09638 0.0
H393 H 0.93343 1.04355 1.16614 0.0
H394 H 0.98737 0.09402 1.06857 0.0
H395 H 1.00769 0.05892 1.19369 0.0
H396 H 0.2266 0.31689 1.10924 0.0
H397 H 0.3501 0.40086 1.04694 0.0
H398 H 0.22099 0.40094 1.10324 0.0
H399 H 0.3545 0.31756 1.05256 0.0
Eu400 Eu 0.73855 0.4076 0.38723 0.0
Eu401 Eu 0.67188 0.47997 0.35054 0.0
C402 C 0.77947 0.50549 0.3618 0.0
C403 C 0.79521 0.29265 0.40055 0.0
C404 C 0.84098 0.27789 0.39697 0.0
C405 C 0.76946 0.22198 0.37196 0.0
C406 C 0.851 0.23604 0.38038 0.0
C407 C 0.75947 0.26405 0.38823 0.0
C408 C 0.81536 0.20796 0.36728 0.0
C409 C 0.78561 0.33965 0.4138 0.0
O410 O 0.71418 0.45326 0.30421 0.0
O411 O 0.76939 0.4109 0.33279 0.0
C412 C 0.7538 0.43058 0.30426 0.0
O413 O 0.68 0.36534 0.36313 0.0
O414 O 0.62449 0.49743 0.30879 0.0
O415 O 0.63182 0.54367 0.3528 0.0
O416 O 0.62697 0.4207 0.37061 0.0
C417 C 0.63658 0.37685 0.36631 0.0
O418 O 0.71055 0.45145 0.43303 0.0
O419 O 0.68582 0.51414 0.40214 0.0
O420 O 0.74184 0.51254 0.34348 0.0
O421 O 0.80439 0.37326 0.39627 0.0
O422 O 0.74318 0.3489 0.42271 0.0
O423 O 0.78182 0.47263 0.38542 0.0
C424 C 0.55775 0.5334 0.32949 0.0
C425 C 0.53548 0.49666 0.34647 0.0
C426 C 0.48403 0.5617 0.31001 0.0
C427 C 0.48792 0.49054 0.34301 0.0
C428 C 0.53158 0.56731 0.31306 0.0
C429 C 0.4622 0.5214 0.32269 0.0
C430 C 0.60793 0.53324 0.32524 0.0
C431 C 0.69676 0.49511 0.43188 0.0
H432 H 0.86909 0.29937 0.4062 0.0
H433 H 0.74132 0.2011 0.36207 0.0
H434 H 0.88667 0.22568 0.37766 0.0
H435 H 0.72382 0.27466 0.39031 0.0
H436 H 0.55529 0.47083 0.36005 0.0
H437 H 0.46557 0.58619 0.29397 0.0
H438 H 0.47214 0.45934 0.35313 0.0
H439 H 0.54821 0.59621 0.30023 0.0
Eu440 Eu 0.46564 0.98663 0.6377 0.0
Eu441 Eu 0.39097 0.92236 0.60092 0.0
C442 C 0.36989 1.03149 0.6121 0.0
C443 C 0.58222 1.03766 0.64722 0.0
C444 C 0.58901 1.02695 0.61195 0.0
C445 C 0.66161 0.06382 0.6508 0.0
C446 C 0.63172 1.03499 0.59614 0.0
C447 C 0.61891 1.05571 0.66652 0.0
C448 C 0.66849 1.05373 0.61537 0.0
C449 C 0.5369 1.02972 0.6635 0.0
O450 O 0.41939 0.96374 0.55469 0.0
O451 O 0.46284 1.01824 0.58355 0.0
C452 C 0.4431 1.00293 0.55491 0.0
O453 O 0.50454 0.92799 0.61125 0.0
O454 O 0.3719 0.87528 0.55916 0.0
O455 O 0.32599 0.88425 0.60304 0.0
O456 O 0.4489 0.87568 0.6203 0.0
C457 C 0.49257 0.88467 0.61507 0.0
O458 O 0.42278 0.95753 0.68365 0.0
O459 O 0.35866 0.93606 0.65311 0.0
O460 O 0.36094 0.99367 0.59415 0.0
O461 O 0.50243 1.05085 0.64882 0.0
O462 O 0.52708 0.98672 0.6706 0.0
O463 O 0.40297 1.03289 0.63561 0.0
C464 C 0.33381 0.80949 0.57992 0.0
C465 C 0.36979 0.78616 0.59681 0.0
C466 C 0.30297 0.73627 0.56063 0.0
C467 C 0.37421 0.73825 0.59343 0.0
C468 C 0.29903 0.78414 0.56362 0.0
C469 C 0.34243 0.71323 0.57326 0.0
C470 C 0.33564 0.8598 0.57557 0.0
C471 C 0.37888 0.9447 0.68286 0.0
H472 H 0.56118 1.01249 0.59661 0.0
H473 H 0.689 0.07887 0.66628 0.0
H474 H 0.63603 1.02633 0.56894 0.0
H475 H 0.61456 0.06377 0.69365 0.0
H476 H 0.39633 0.80532 0.61028 0.0
H477 H 0.27779 0.71842 0.54471 0.0
H478 H 0.40479 0.72158 0.60352 0.0
H479 H 0.27072 0.80159 0.55085 0.0
Eu480 Eu 0.17607 0.48014 0.5716 0.0
Eu481 Eu 0.24138 0.40704 0.53337 0.0
C482 C 0.13944 0.378 0.5556 0.0
C483 C 0.06349 0.53616 0.59316 0.0
C484 C 1.04032 0.50062 0.57536 0.0
C485 C 0.99034 0.56708 0.61169 0.0
C486 C 0.99245 0.49634 0.57793 0.0
C487 C 1.03816 0.57081 0.60956 0.0
C488 C 0.9673 0.52793 0.59811 0.0
C489 C 0.11351 0.53405 0.59813 0.0
O490 O 0.21114 0.45028 0.48817 0.0
O491 O 0.1873 0.51325 0.51932 0.0
C492 C 0.19672 0.49372 0.48942 0.0
O493 O 0.24654 0.51152 0.57771 0.0
O494 O 0.30631 0.37169 0.52268 0.0
O495 O 0.24384 0.34807 0.49777 0.0
O496 O 0.28522 0.47189 0.53478 0.0
C497 C 0.2836 0.50452 0.55873 0.0
O498 O 0.21857 0.45178 0.61723 0.0
O499 O 0.27336 0.40993 0.58761 0.0
O500 O 0.18278 0.36593 0.55832 0.0
O501 O 0.12841 0.49669 0.61342 0.0
O502 O 0.13853 0.54543 0.57137 0.0
O503 O 0.13018 0.4219 0.55153 0.0
C504 C 0.29585 0.29079 0.51879 0.0
C505 C 0.34094 0.27858 0.52828 0.0
C506 C 0.26889 0.21628 0.54067 0.0
C507 C 0.34977 0.23628 0.54454 0.0
C508 C 0.25995 0.25886 0.52475 0.0
C509 C 0.31377 0.20494 0.55132 0.0
C510 C 0.28643 0.33813 0.5057 0.0
C511 C 0.2581 0.42897 0.61658 0.0
H512 H 0.05951 0.47426 0.56176 0.0
H513 H 0.97238 0.59208 0.62767 0.0
H514 H 0.97578 0.46596 0.56717 0.0
H515 H 1.05551 0.59882 0.62301 0.0
H516 H 0.36928 0.30232 0.52391 0.0
H517 H 0.2405 0.19278 0.54557 0.0
H518 H 0.38484 0.22807 0.55188 0.0
H519 H 0.22473 0.26712 0.5179 0.0
Eu520 Eu 0.89034 0.92634 0.32318 0.0
Eu521 Eu 0.96512 0.98785 0.28286 0.0
C522 C 0.99029 0.88423 0.30758 0.0
C523 C 0.81201 0.90643 0.39439 0.0
C524 C 0.84161 0.91316 0.4228 0.0
C525 C 0.7535 0.95204 0.42427 0.0
C526 C 0.82756 0.93886 0.45137 0.0
C527 C 0.76778 0.92624 0.39536 0.0
C528 C 0.78331 0.95868 0.45268 0.0
C529 C 0.83015 0.88585 0.36197 0.0
O530 O 0.91938 0.96018 0.23808 0.0
O531 O 0.86006 0.92729 0.26914 0.0
C532 C 0.87772 0.94113 0.23947 0.0
O533 O 0.86499 0.99976 0.32716 0.0
O534 O 1.00242 1.05158 0.2714 0.0
O535 O 1.02465 0.98729 0.24803 0.0
O536 O 0.9027 1.03377 0.28159 0.0
C537 C 0.87157 1.03506 0.30634 0.0
O538 O 0.92624 0.96617 0.36693 0.0
O539 O 0.96244 1.02323 0.33606 0.0
O540 O 1.00336 0.92774 0.30827 0.0
O541 O 0.81873 0.90748 0.33355 0.0
O542 O 0.87373 0.87433 0.36219 0.0
O543 O 0.94592 0.87496 0.30614 0.0
C544 C 0.08225 1.03931 0.26868 0.0
C545 C 0.09818 0.08506 0.27094 0.0
C546 C 0.15054 1.01373 0.29986 0.0
C547 C 0.13934 0.09521 0.28824 0.0
C548 C 0.10914 1.00363 0.28286 0.0
C549 C 0.16553 0.05972 0.30337 0.0
C550 C 1.03547 1.03014 0.2552 0.0
C551 C 0.94631 1.00713 0.36568 0.0
H552 H 0.87615 0.89907 0.42298 0.0
H553 H 0.71904 0.96629 0.42459 0.0
H554 H 0.85116 0.94152 0.47307 0.0
H555 H 0.74453 0.92237 0.37352 0.0
H556 H 0.07801 0.11312 0.26024 0.0
H557 H 0.17006 0.98572 0.31126 0.0
H558 H 0.15056 0.13089 0.29001 0.0
H559 H 0.09758 0.96806 0.28174 0.0
Eu560 Eu 0.44406 0.63677 1.07463 0.0
Eu561 Eu 0.3844 0.71309 1.03405 0.0
C562 C 0.48848 0.73549 1.05836 0.0
C563 C 0.46139 0.55618 1.14484 0.0
C564 C 0.45297 0.58563 1.17313 0.0
C565 C 0.4171 0.49583 1.17396 0.0
C566 C 0.42738 0.5705 1.2014 0.0
C567 C 0.44286 0.51118 1.14537 0.0
C568 C 0.40929 0.52528 1.20249 0.0
C569 C 0.48265 0.57497 1.11293 0.0
O570 O 0.41241 0.66765 0.98929 0.0
O571 O 0.44253 0.60694 1.02039 0.0
C572 C 0.43028 0.62548 0.99065 0.0
O573 O 0.37057 0.61271 1.07822 0.0
O574 O 0.3219 0.7511 1.02119 0.0
O575 O 0.38734 0.77441 1.00083 0.0
O576 O 0.3371 0.65112 1.03282 0.0
C577 C 0.33548 0.6197 1.05745 0.0
O578 O 0.40495 0.67366 1.11833 0.0
O579 O 0.34908 0.71097 1.08718 0.0
O580 O 0.44548 0.74948 1.05973 0.0
O581 O 0.46122 0.56445 1.08418 0.0
O582 O 0.49493 0.61853 1.11392 0.0
O583 O 0.49664 0.69086 1.0571 0.0
C584 C 0.33431 0.83185 1.02057 0.0
C585 C 0.28894 0.84331 1.02991 0.0
C586 C 0.35993 0.90655 1.04305 0.0
C587 C 0.27931 0.88529 1.04638 0.0
C588 C 0.3697 0.86421 1.02693 0.0
C589 C 0.31474 0.91712 1.05346 0.0
C590 C 0.34431 0.78503 1.00666 0.0
C591 C 0.36459 0.69456 1.11687 0.0
H592 H 0.46584 0.62081 1.17353 0.0
H593 H 0.40402 0.46073 1.174 0.0
H594 H 0.4237 0.59405 0.22311 0.0
H595 H 0.44786 0.48809 1.12351 0.0
H596 H 0.26093 0.81929 1.02512 0.0
H597 H 0.38784 0.93058 1.04814 0.0
H598 H 0.24404 0.89297 1.05352 0.0
H599 H 0.40507 0.85657 1.0201 0.0
Eu600 Eu 0.73364 0.19544 0.82426 0.0
Eu601 Eu 0.65967 0.13257 0.78394 0.0
C602 C 0.63382 0.23651 0.8077 0.0
C603 C 0.81202 0.21647 0.89512 0.0
C604 C 0.78299 0.20944 0.92382 0.0
C605 C 0.87112 0.17054 0.92396 0.0
C606 C 0.79756 0.18333 0.95196 0.0
C607 C 0.8563 0.19671 0.89545 0.0
C608 C 0.8418 0.16344 0.95258 0.0
C609 C 0.79312 0.2371 0.86301 0.0
O610 O 0.70579 0.15957 0.73924 0.0
O611 O 0.76475 0.19303 0.77046 0.0
C612 C 0.74748 0.17851 0.7408 0.0
O613 O 0.76003 0.12271 0.82846 0.0
O614 O 0.6228 0.0684 0.77283 0.0
O615 O 0.60013 0.13219 0.7491 0.0
O616 O 0.72276 0.08736 0.78316 0.0
C617 C 0.75413 0.0871 0.80778 0.0
O618 O 0.69858 0.15484 0.86804 0.0
O619 O 0.66239 0.09768 0.8371 0.0
O620 O 0.621 0.19295 0.8088 0.0
O621 O 0.80483 0.2162 0.83429 0.0
O622 O 0.74926 0.24751 0.86358 0.0
O623 O 0.67811 0.24602 0.80631 0.0
C624 C 0.54275 0.07992 0.76984 0.0
C625 C 0.52747 1.03401 0.77277 0.0
C626 C 0.47316 0.10546 0.79954 0.0
C627 C 0.486 1.0238 0.78964 0.0
C628 C 0.51489 0.11564 0.78297 0.0
C629 C 0.45878 0.05937 0.80368 0.0
C630 C 0.5896 0.08937 0.75649 0.0
C631 C 0.67858 0.11382 0.8667 0.0
H632 H 0.74846 0.22353 0.92451 0.0
H633 H 0.9056 0.15633 0.9238 0.0
H634 H 0.77434 0.18034 0.97388 0.0
H635 H 0.87915 0.20085 0.87341 0.0
H636 H 0.54833 1.0059 0.76286 0.0
H637 H 0.45287 0.13355 0.8101 0.0
H638 H 0.47532 0.98801 0.7919 0.0
H639 H 0.52586 0.15136 0.78131 0.0
C640 C 0.57234 0.2594 0.36325 0.0
C641 C 0.5255 0.27235 0.36524 0.0
H642 H 0.64344 0.28118 0.36174 0.0
C643 C 0.51597 0.32013 0.36731 0.0
H644 H 0.58153 0.2232 0.36161 0.0
C645 C 0.55163 0.35349 0.36764 0.0
C646 C 0.59848 0.34066 0.36566 0.0
H647 H 0.48068 0.332 0.36895 0.0
H648 H 0.54226 0.38956 0.36953 0.0
C649 C 0.6081 0.29288 0.36334 0.0
C650 C 0.54868 0.76376 0.61433 0.0
C651 C 0.59629 0.77388 0.61444 0.0
H652 H 0.47927 0.78974 0.61469 0.0
C653 C 0.60917 0.82099 0.6143 0.0
H654 H 0.53701 0.72816 0.61449 0.0
C655 C 0.57583 0.85654 0.61408 0.0
C656 C 0.52822 0.84644 0.61438 0.0
H657 H 0.64521 0.83062 0.61434 0.0
H658 H 0.58754 0.89213 0.61405 0.0
C659 C 0.51532 0.79933 0.61449 0.0
C660 C 0.10895 0.79766 0.86342 0.0
C661 C 0.09877 0.84547 0.86351 0.0
H662 H 0.08342 0.72758 0.86358 0.0
C663 C 1.05174 0.85779 0.86341 0.0
H664 H 0.14447 0.78626 0.86359 0.0
C665 C 1.01646 0.82383 0.86331 0.0
C666 C 1.02665 0.77602 0.86344 0.0
H667 H 1.042 0.89391 0.86351 0.0
H668 H 0.98095 0.83523 0.86339 0.0
C669 C 0.07368 0.76369 0.86345 0.0
C670 C 0.10754 0.32167 1.1148 0.0
C671 C 0.09458 0.27459 1.11446 0.0
H672 H 0.08603 0.39283 1.11481 0.0
C673 C 1.04694 0.26457 1.11385 0.0
H674 H 0.14361 0.33122 1.11524 0.0
C675 C 1.01365 0.30019 1.11396 0.0
C676 C 1.02662 0.34728 1.11433 0.0
H677 H 1.03519 0.229 1.11363 0.0
H678 H 0.97759 0.29065 1.11374 0.0
C679 C 0.07426 0.35728 1.11454 0.0
C680 C 0.61011 0.79072 1.05875 0.0
C681 C 0.6006 0.83853 1.05668 0.0
H682 H 0.58323 0.72117 1.06079 0.0
C683 C 0.5538 0.85161 1.05559 0.0
H684 H 0.64544 0.77887 1.05965 0.0
C685 C 0.51802 0.81846 1.05652 0.0
C686 C 0.52741 0.77066 1.05833 0.0
H687 H 0.54453 0.88772 1.05393 0.0
H688 H 0.48275 0.83052 1.05551 0.0
C689 C 0.57421 0.75742 1.05943 0.0
C690 C 0.55023 0.26432 0.80838 0.0
C691 C 0.59787 0.27466 0.80824 0.0
H692 H 0.48052 0.28974 0.808 0.0
C693 C 0.61036 0.32185 0.80816 0.0
H694 H 0.53874 0.2287 0.80853 0.0
C695 C 0.57666 0.35715 0.80807 0.0
C696 C 0.52902 0.34679 0.80786 0.0
H697 H 0.64639 0.33169 0.80809 0.0
H698 H 0.58813 0.39278 0.80799 0.0
C699 C 0.51654 0.2996 0.8081 0.0
C700 C 1.05427 0.35589 0.55745 0.0
C701 C 0.10101 0.34241 0.55655 0.0
H702 H 0.98301 0.33507 0.55858 0.0
C703 C 0.11029 0.29455 0.55623 0.0
H704 H 1.04527 0.39214 0.55776 0.0
C705 C 0.07425 0.26155 0.55642 0.0
C706 C 1.02752 0.27506 0.55728 0.0
H707 H 0.14555 0.28242 0.55552 0.0
H708 H 0.08319 0.22527 0.55588 0.0
C709 C 1.01827 0.32291 0.55797 0.0
C710 C 1.04739 0.7634 0.30847 0.0
C711 C 0.09507 0.77373 0.30876 0.0
H712 H 0.97765 0.78894 0.30782 0.0
C713 C 0.10754 0.82091 0.30914 0.0
H714 H 1.03591 0.72775 0.3081 0.0
C715 C 0.07385 0.85621 0.30913 0.0
C716 C 1.02618 0.84595 0.30852 0.0
H717 H 0.14357 0.83074 0.30939 0.0
H718 H 0.08538 0.89181 0.30944 0.0
C719 C 1.01368 0.79875 0.30829 0.0
C720 C 0.37498 1.03956 1.162 0.0
C721 C 0.39407 1.00833 1.18603 0.0
H722 H 0.38442 0.0685 1.11149 0.0
C723 C 0.4132 0.96719 1.17308 0.0
H724 H 0.35695 0.07009 1.17099 0.0
C725 C 0.4265 0.96502 1.13827 0.0
C726 C 0.42234 1.00479 1.11753 0.0
H727 H 0.42603 0.94082 1.19048 0.0
H728 H 0.44901 0.937 1.13056 0.0
C729 C 0.39006 1.03833 1.12756 0.0
C730 C 0.79815 0.98299 0.54436 0.0
C731 C 0.7646 0.95113 0.55533 0.0
H732 H 0.82928 1.01432 0.49994 0.0
C733 C 0.72433 0.94676 0.53523 0.0
H734 H 0.82853 0.98915 0.56007 0.0
C735 C 0.72573 0.95909 0.5002 0.0
C736 C 0.76664 0.97747 0.48637 0.0
H737 H 0.69628 0.92471 0.5437 0.0
H738 H 0.69878 0.946 0.48337 0.0
C739 C 0.79879 0.99689 0.50963 0.0
C740 C 0.21096 0.14517 0.67062 0.0
C741 C 0.22932 0.10417 0.68431 0.0
H742 H 0.17603 0.17455 0.62746 0.0
C743 C 0.24812 0.07184 0.6609 0.0
H744 H 0.19836 0.17225 0.68756 0.0
C745 C 0.23361 0.07234 0.6263 0.0
C746 C 0.20181 0.10597 0.61561 0.0
H747 H 0.2655 1.0413 0.67048 0.0
H748 H 0.23924 1.04175 0.6106 0.0
C749 C 0.19808 0.14645 0.63571 0.0
C750 C 0.82769 0.13796 1.04386 0.0
C751 C 0.86079 0.17035 1.05481 0.0
H752 H 0.79681 0.10644 0.99936 0.0
C753 C 0.9011 0.17497 1.03478 0.0
H754 H 0.79733 0.13158 1.05953 0.0
C755 C 0.8998 0.16268 0.99971 0.0
C756 C 0.859 0.14403 0.98586 0.0
H757 H 0.92889 0.19734 1.0433 0.0
H758 H 0.92657 0.17612 0.98289 0.0
C759 C 0.82718 0.12408 1.00909 0.0
C760 C 0.23339 0.46173 1.00088 0.0
C761 C 0.27541 0.4772 0.98704 0.0
H762 H 0.20176 0.42939 1.04433 0.0
C763 C 0.30891 0.49438 1.01018 0.0
H764 H 0.20572 0.45046 0.98396 0.0
C765 C 0.30725 0.48089 1.04498 0.0
C766 C 0.27175 0.45119 1.05599 0.0
H767 H 0.34061 0.50927 1.00032 0.0
H768 H 0.33791 0.4853 1.06071 0.0
C769 C 0.23123 0.44952 1.03591 0.0
C770 C 0.39687 0.67332 0.53501 0.0
C771 C 0.35676 0.67009 0.55544 0.0
H772 H 0.4218 0.67281 0.48296 0.0
C773 C 0.32243 0.63877 0.54487 0.0
H774 H 0.4255 0.69485 0.54318 0.0
C775 C 0.32094 0.62466 0.51016 0.0
C776 C 0.3533 0.64301 0.48662 0.0
H777 H 0.2922 0.63332 0.56088 0.0
H778 H 0.28988 0.608 0.50072 0.0
C779 C 0.3948 0.66054 0.50007 0.0
C780 C 0.89243 0.54788 0.62518 0.0
C781 C 0.92369 0.51343 0.61502 0.0
H782 H 0.86119 0.58078 0.66894 0.0
C783 C 0.92628 0.47326 0.63549 0.0
H784 H 0.88743 0.57812 0.60905 0.0
C785 C 0.91318 0.4756 0.67034 0.0
C786 C 0.89576 0.51734 0.68356 0.0
H787 H 0.94769 0.44449 0.62755 0.0
H788 H 0.92501 0.44856 0.68757 0.0
C789 C 0.87791 0.5496 0.65976 0.0
C790 C 0.42459 0.46536 0.28419 0.0
C791 C 0.41991 0.50537 0.3047 0.0
H792 H 0.42427 0.44024 0.2322 0.0
C793 C 0.3873 0.53842 0.29442 0.0
H794 H 0.44742 0.43773 0.2921 0.0
C795 C 0.37206 0.53882 0.26001 0.0
C796 C 0.39151 0.50744 0.23618 0.0
H797 H 0.38129 0.56876 0.31031 0.0
H798 H 0.35366 0.56899 0.25085 0.0
C799 C 0.41112 0.46675 0.24941 0.0
C800 C 0.26818 0.45598 0.3224 0.0
C801 C 0.29773 0.45623 0.35136 0.0
H802 H 0.23073 0.49618 0.28519 0.0
C803 C 0.31493 0.49859 0.36354 0.0
H804 H 0.25478 0.42366 0.3123 0.0
C805 C 0.30096 0.54003 0.34828 0.0
C806 C 0.27015 0.54011 0.31997 0.0
H807 H 0.33765 0.49982 0.38585 0.0
H808 H 0.31341 0.57212 0.35943 0.0
C809 C 0.25477 0.49749 0.30669 0.0
C810 C 0.37114 0.56496 0.6156 0.0
C811 C 0.41235 0.55697 0.5975 0.0
H812 H 0.29827 0.55568 0.61728 0.0
C813 C 0.41019 0.53668 0.56429 0.0
H814 H 0.37157 0.58128 0.64095 0.0
C815 C 0.36794 0.5219 0.55052 0.0
C816 C 0.32699 0.52763 0.56955 0.0
H817 H 0.4414 0.53005 0.5497 0.0
H818 H 0.36764 0.5044 0.52563 0.0
C819 C 0.32901 0.55059 0.6018 0.0
C820 C 0.30574 0.62006 0.86207 0.0
C821 C 0.32198 0.66233 0.84896 0.0
H822 H 0.30753 0.54644 0.85873 0.0
C823 C 0.35063 0.66197 0.81943 0.0
H824 H 0.28291 0.61915 0.88433 0.0
C825 C 0.36456 0.62015 0.80444 0.0
C826 C 0.3501 0.57782 0.81866 0.0
H827 H 0.36395 0.69396 0.80879 0.0
H828 H 0.38842 0.62107 0.78282 0.0
C829 C 0.3195 0.57835 0.84707 0.0
C830 C 0.20695 0.60265 1.06877 0.0
C831 C 0.20565 0.57241 1.09734 0.0
H832 H 0.24906 0.6403 1.03278 0.0
C833 C 0.24703 0.55387 1.10983 0.0
H834 H 0.17539 0.61703 1.05841 0.0
C835 C 0.28905 0.56731 1.09539 0.0
C836 C 0.29072 0.59899 1.06765 0.0
H837 H 0.24708 0.53058 1.13185 0.0
H838 H 0.32039 0.55393 1.10684 0.0
C839 C 0.24908 0.61557 1.05388 0.0
C840 C 0.81302 0.57618 1.07258 0.0
C841 C 0.84649 0.57548 1.09905 0.0
H842 H 0.77597 0.61714 1.03552 0.0
C843 C 0.86578 0.61765 1.11016 0.0
H844 H 0.79764 0.54436 1.06323 0.0
C845 C 0.85395 0.65907 1.09384 0.0
C846 C 0.82207 0.65945 1.0664 0.0
H847 H 0.89187 0.61854 1.13027 0.0
H848 H 0.87037 0.69082 1.10232 0.0
C849 C 0.80072 0.6178 1.05658 0.0
C850 C 0.71037 0.6091 0.84722 0.0
C851 C 0.70978 0.57361 0.82223 0.0
H852 H 0.75115 0.65084 0.88142 0.0
C853 C 0.75079 0.54985 0.81495 0.0
H854 H 0.67908 0.62756 0.85368 0.0
C855 C 0.79208 0.56309 0.83086 0.0
C856 C 0.79312 0.6 0.85471 0.0
H857 H 0.75135 0.5224 0.79577 0.0
H858 H 0.82356 0.54565 0.82335 0.0
C859 C 0.75155 0.62195 0.86349 0.0
C860 C 0.81612 0.50322 0.55542 0.0
C861 C 0.80907 0.46192 0.5738 0.0
H862 H 0.80635 0.57623 0.55371 0.0
C863 C 0.78962 0.46409 0.60726 0.0
H864 H 0.83167 0.50277 0.52984 0.0
C865 C 0.77491 0.50641 0.62109 0.0
C866 C 0.78001 0.54746 0.60194 0.0
H867 H 0.78369 0.43281 0.62204 0.0
H868 H 0.75813 0.50672 0.64623 0.0
C869 C 0.80195 0.54544 0.56935 0.0
C870 C 0.86454 0.5194 0.36768 0.0
C871 C 0.82268 0.52875 0.35074 0.0
H872 H 0.93811 0.52422 0.36619 0.0
C873 C 0.82362 0.55492 0.31994 0.0
H874 H 0.86521 0.49916 0.39133 0.0
C875 C 0.86549 0.56912 0.30544 0.0
C876 C 0.90746 0.55777 0.32146 0.0
H877 H 0.79215 0.56267 0.30603 0.0
H878 H 0.865 0.58822 0.28126 0.0
C879 C 0.90643 0.5338 0.35324 0.0
C880 C 0.82226 1.00092 0.86026 0.0
C881 C 0.80418 0.95871 0.84837 0.0
H882 H 0.8218 0.0745 0.85603 0.0
C883 C 0.7737 0.95897 0.81991 0.0
H884 H 0.84653 1.0019 0.88163 0.0
C885 C 0.75984 1.00067 0.80486 0.0
C886 C 0.77608 1.043 0.81801 0.0
H887 H 0.7589 0.92705 0.81022 0.0
H888 H 0.73456 0.99973 0.78417 0.0
C889 C 0.80845 1.04254 0.84525 0.0
C890 C 0.82614 1.05041 1.10158 0.0
C891 C 0.82478 1.02625 1.06981 0.0
H892 H 0.86783 0.08295 1.1404 0.0
C893 C 0.86613 1.01973 1.05144 0.0
H894 H 0.79506 1.05613 1.11654 0.0
C895 C 0.90809 1.035 1.06538 0.0
C896 C 0.9096 1.05675 1.09809 0.0
H897 H 0.86637 1.00124 1.02696 0.0
H898 H 0.93955 1.02766 1.0513 0.0
C899 C 0.86798 0.06545 1.11551 0.0
C900 C 0.87311 0.12162 0.30714 0.0
C901 C 0.8515 0.08002 0.31678 0.0
H902 H 0.87889 0.19462 0.31588 0.0
C903 C 0.81551 0.08145 0.34126 0.0
H904 H 0.90129 0.12174 0.28869 0.0
C905 C 0.80279 0.1232 0.35686 0.0
C906 C 0.82615 0.16433 0.34863 0.0
H907 H 0.79837 1.04998 0.34946 0.0
H908 H 0.77604 0.12295 0.37649 0.0
C909 C 0.86076 0.16328 0.32308 0.0
C910 C 0.79699 0.06948 0.60242 0.0
C911 C 0.7989 0.09334 0.57061 0.0
H912 H 0.75461 1.03778 0.64116 0.0
C913 C 0.75777 0.10029 0.55207 0.0
H914 H 0.82787 0.0635 0.61754 0.0
C915 C 0.71552 0.0856 0.56584 0.0
C916 C 0.71352 0.06408 0.59858 0.0
H917 H 0.75797 0.11858 0.52754 0.0
H918 H 0.68424 0.09313 0.55162 0.0
C919 C 0.75487 1.05507 0.61622 0.0
C920 C 0.30704 0.11855 0.5559 0.0
C921 C 0.32335 0.16061 0.56943 0.0
H922 H 0.30861 1.04475 0.55884 0.0
C923 C 0.35064 0.15993 0.5996 0.0
H924 H 0.28596 0.11801 0.53268 0.0
C925 C 0.36306 0.11799 0.61503 0.0
C926 C 0.34894 0.07568 0.6004 0.0
H927 H 0.36316 0.19191 0.61088 0.0
H928 H 0.38545 0.1188 0.63753 0.0
C929 C 0.32 0.07656 0.57101 0.0
C930 C 0.24907 1.04644 0.31638 0.0
C931 C 0.20821 0.07082 0.3229 0.0
H932 H 0.32165 1.04183 0.32548 0.0
C933 C 0.20871 0.10694 0.34738 0.0
H934 H 0.24967 1.01849 0.29761 0.0
C935 C 0.24974 0.11983 0.36383 0.0
C936 C 0.2912 0.09728 0.35571 0.0
H937 H 0.1775 0.12589 0.35323 0.0
H938 H 0.24939 0.14925 0.38128 0.0
C939 C 0.29021 0.05972 0.33245 0.0
C940 C 0.30421 1.04547 1.07151 0.0
C941 C 0.27552 1.04612 1.10105 0.0
H942 H 0.33947 1.00422 1.03361 0.0
C943 C 0.26303 1.00379 1.11636 0.0
H944 H 0.31436 0.07729 1.05882 0.0
C945 C 0.27694 0.96191 1.10147 0.0
C946 C 0.30405 0.96142 1.07122 0.0
H947 H 0.24087 1.00285 1.13899 0.0
H948 H 0.26565 0.9298 1.11321 0.0
C949 C 0.31864 1.00359 1.05696 0.0
C950 C 0.41507 1.01288 0.8478 0.0
C951 C 0.4157 1.04823 0.82277 0.0
H952 H 0.37425 0.9712 0.88195 0.0
C953 C 0.37463 0.07179 0.81536 0.0
H954 H 0.44639 0.99457 0.85437 0.0
C955 C 0.33329 1.0585 0.83117 0.0
C956 C 0.33224 1.02173 0.85507 0.0
H957 H 0.37407 0.09912 0.79615 0.0
H958 H 0.3018 0.07579 0.82356 0.0
C959 C 0.37384 0.99998 0.86398 0.0
C960 C 0.35069 0.18491 0.24185 0.0
C961 C 0.33228 0.19231 0.27523 0.0
H962 H 0.33806 0.17443 1.18756 0.0
C963 C 0.28366 0.19349 0.27825 0.0
H964 H 0.38764 0.18289 0.23824 0.0
C965 C 0.25465 0.18743 0.2489 0.0
C966 C 0.27332 0.18087 0.21542 0.0
H967 H 0.26787 0.19797 0.30352 0.0
H968 H 0.21764 0.18839 0.2524 0.0
C969 C 0.32191 0.17983 1.2126 0.0
C970 C 0.69513 0.5741 0.46059 0.0
C971 C 0.69403 0.52539 0.46398 0.0
H972 H 0.69346 0.64066 0.48572 0.0
C973 C 0.68919 0.50735 0.49776 0.0
H974 H 0.69916 0.58972 0.43521 0.0
C975 C 0.6846 0.53704 0.52687 0.0
C976 C 0.68583 0.58576 0.52333 0.0
H977 H 0.6883 0.4703 0.50171 0.0
H978 H 0.68111 0.5217 0.55239 0.0
C979 C 0.69176 0.60363 0.48968 0.0
C980 C 0.27241 0.93531 0.74184 0.0
C981 C 0.29092 0.92763 0.77512 0.0
H982 H 0.28484 0.94647 0.68764 0.0
C983 C 0.33955 0.92662 0.77808 0.0
H984 H 0.23544 0.93718 0.73828 0.0
C985 C 0.36847 0.9331 0.74874 0.0
C986 C 0.34968 0.93999 0.71535 0.0
H987 H 0.3554 0.92192 0.80329 0.0
H988 H 0.40549 0.93224 0.75218 0.0
C989 C 0.30109 0.94087 0.71261 0.0
C990 C 0.93602 0.547 0.95967 0.0
C991 C 0.93516 0.59567 0.96346 0.0
H992 H 0.93797 0.48027 0.98447 0.0
C993 C 0.93732 0.61352 0.9975 0.0
H994 H 0.93392 0.53154 0.93407 0.0
C995 C 0.94104 0.58374 1.02652 0.0
C996 C 0.94136 0.53506 1.02263 0.0
H997 H 0.93648 0.65053 1.00175 0.0
H998 H 0.94241 0.59895 1.05223 0.0
C999 C 0.93834 0.5173 0.98868 0.0
C1000 C 0.86578 0.93567 1.17336 0.0
C1001 C 0.84767 0.93654 1.20735 0.0
H1002 H 0.85187 0.93069 1.11844 0.0
C1003 C 0.7992 0.93333 1.21078 0.0
H1004 H 0.90262 0.93834 1.16935 0.0
C1005 C 0.76997 0.92994 1.18155 0.0
C1006 C 0.78801 0.92816 1.14766 0.0
H1007 H 0.78348 0.93434 0.23628 0.0
H1008 H 0.73306 0.9285 1.18556 0.0
C1009 C 0.8365 0.93091 1.14408 0.0
C1010 C 0.43732 0.54724 0.96119 0.0
C1011 C 0.43573 0.59597 0.95833 0.0
H1012 H 0.44198 0.4814 0.93533 0.0
C1013 C 0.43948 0.61488 0.9247 0.0
H1014 H 0.434 0.53094 0.98639 0.0
C1015 C 0.44541 0.58608 0.89522 0.0
C1016 C 0.44669 0.53732 0.89822 0.0
H1017 H 0.43817 0.65199 0.92115 0.0
H1018 H 0.44768 0.60207 0.86985 0.0
C1019 C 0.44205 0.51854 0.93175 0.0
C1020 C 0.76027 0.18319 0.67484 0.0
C1021 C 0.77802 0.18212 0.7089 0.0
H1022 H 0.77477 0.18771 0.62002 0.0
C1023 C 0.82653 0.18417 0.71259 0.0
H1024 H 0.72342 0.18139 0.67063 0.0
C1025 C 0.85613 0.18671 0.68351 0.0
C1026 C 0.83842 0.1888 0.64955 0.0
H1027 H 0.84193 0.18295 0.7382 0.0
H1028 H 0.89303 0.18736 0.68769 0.0
C1029 C 0.78992 0.18715 0.64573 0.0
C1030 C 0.18452 0.50434 0.4237 0.0
C1031 C 0.19117 0.52317 0.45715 0.0
H1032 H 0.17289 0.51742 0.36924 0.0
C1033 C 0.19117 0.57192 0.46011 0.0
H1034 H 0.18438 0.4672 0.42009 0.0
C1035 C 0.18502 0.60071 0.431 0.0
C1036 C 0.17748 0.5821 0.39767 0.0
H1037 H 0.19659 0.58818 0.48516 0.0
H1038 H 0.18631 0.63783 0.43466 0.0
C1039 C 0.17735 0.53332 0.39452 0.0
C1040 C 0.82385 0.68102 0.71259 0.0
C1041 C 0.77527 0.68162 0.71543 0.0
H1042 H 0.88955 0.68492 0.73815 0.0
C1043 C 0.75652 0.68821 0.74888 0.0
H1044 H 0.84005 0.67562 0.68756 0.0
C1045 C 0.78549 0.69474 0.77819 0.0
C1046 C 0.83412 0.69402 0.77513 0.0
H1047 H 0.7195 0.68885 0.75238 0.0
H1048 H 0.76969 0.69924 0.80346 0.0
C1049 C 0.85258 0.68659 0.74179 0.0
C1050 C 0.18762 0.07421 0.96051 0.0
C1051 C 0.18916 1.02554 0.96412 0.0
H1052 H 0.18434 0.14085 0.98549 0.0
C1053 C 0.18688 1.00761 0.9981 0.0
H1054 H 0.18976 0.08975 0.93497 0.0
C1055 C 0.18238 1.0373 1.02721 0.0
C1056 C 0.18131 0.08597 1.02346 0.0
H1057 H 0.18822 0.97062 1.00224 0.0
H1058 H 0.181 1.02205 1.05288 0.0
C1059 C 0.18449 0.10382 0.98959 0.0
C1060 C 0.86279 0.43661 0.24689 0.0
C1061 C 0.84459 0.44208 0.21321 0.0
H1062 H 0.84889 0.42758 0.30147 0.0
C1063 C 0.79602 0.44307 1.20999 0.0
H1064 H 0.89975 0.43577 0.25071 0.0
C1065 C 0.76679 0.43904 0.23914 0.0
C1066 C 0.78482 0.43259 0.27268 0.0
H1067 H 0.78026 0.44754 1.18472 0.0
H1068 H 0.72986 0.44073 0.23531 0.0
C1069 C 0.83341 0.43143 0.27605 0.0
C1070 C 0.44077 0.08278 0.52722 0.0
C1071 C 0.44198 1.03411 0.52347 0.0
H1072 H 0.43459 0.14929 0.50223 0.0
C1073 C 0.43877 1.01605 0.48964 0.0
H1074 H 0.44217 0.09816 0.55288 0.0
C1075 C 0.43544 1.04547 0.46056 0.0
C1076 C 0.43372 0.09413 0.46418 0.0
H1077 H 0.43902 0.97899 0.48557 0.0
H1078 H 0.43328 1.0298 0.43503 0.0
C1079 C 0.43606 0.11228 0.49812 0.0
C1080 C 0.36705 0.43698 0.67391 0.0
C1081 C 0.34898 0.4375 0.70792 0.0
H1082 H 0.35312 0.4326 0.61896 0.0
C1083 C 0.30051 0.43431 0.71134 0.0
H1084 H 0.40389 0.43965 0.66989 0.0
C1085 C 0.27125 0.43131 0.68208 0.0
C1086 C 0.28926 0.42989 0.64816 0.0
H1087 H 0.28483 0.43505 0.73687 0.0
H1088 H 0.23433 0.42989 0.68609 0.0
C1089 C 0.33775 0.43258 0.6446 0.0
C1090 C 0.93944 0.11587 0.42399 0.0
C1091 C 0.9328 0.09693 0.45737 0.0
H1092 H 0.95017 0.10293 0.36936 0.0
C1093 C 0.93175 1.04817 0.46 0.0
H1094 H 0.9404 0.15302 0.42063 0.0
C1095 C 0.93695 1.01946 0.43066 0.0
C1096 C 0.94448 1.03814 0.39739 0.0
H1097 H 0.92628 1.03182 0.48497 0.0
H1098 H 0.93498 0.98236 0.43412 0.0
C1099 C 0.94561 0.08694 0.39455 0.0
C1100 C 0.32208 0.68491 1.21126 0.0
C1101 C 0.27356 0.68329 1.20787 0.0
H1102 H 0.38822 0.68915 1.18611 0.0
C1103 C 0.25537 0.68656 1.17399 0.0
H1104 H 0.33784 0.68193 0.23666 0.0
C1105 C 0.28468 0.69211 1.14479 0.0
C1106 C 0.33323 0.69342 1.14833 0.0
H1107 H 0.21845 0.68521 1.17003 0.0
H1108 H 0.26924 0.69405 1.11922 0.0
C1109 C 0.35128 0.6892 1.18211 0.0
C1110 C 0.68564 1.0044 0.92385 0.0
C1111 C 0.6919 1.02277 0.95746 0.0
H1112 H 0.67531 1.01817 0.86937 0.0
C1113 C 0.69276 0.07149 0.96072 0.0
H1114 H 0.68488 0.96731 0.92003 0.0
C1115 C 0.68776 0.1007 0.93167 0.0
C1116 C 0.68055 0.08252 0.89816 0.0
H1117 H 0.69797 0.08737 0.98592 0.0
H1118 H 0.6896 0.13776 0.93554 0.0
C1119 C 0.67961 1.03378 0.89476 0.0
loop_
_geom_bond_atom_site_label_1
_geom_bond_atom_site_label_2
_geom_bond_distance
_geom_bond_site_symmetry_2
_ccdc_geom_bond_type
Eu0 C9 2.828 . S
Eu0 O11 2.392 . S
Eu0 O13 2.418 . S
Eu0 O18 2.373 . S
Eu0 O21 2.488 . S
Eu0 O22 2.471 . S
Eu0 O23 2.349 . S
Eu1 O10 2.373 . S
Eu1 O14 2.488 . S
Eu1 O15 2.471 . S
Eu1 O16 2.349 . S
Eu1 O19 2.392 . S
Eu1 O20 2.418 . S
Eu1 C30 2.828 . S
C2 O20 1.244 . S
C2 O23 1.265 . S
C3 C4 1.379 . S
C3 C7 1.373 . S
C3 C9 1.505 . S
C4 C3 1.379 . S
C4 C6 1.369 . S
C4 H32 0.930 . S
C5 C7 1.383 . S
C5 C8 1.382 . S
C5 H33 0.930 . S
C6 C4 1.369 . S
C6 C8 1.392 . S
C6 H34 0.930 . S
C7 C3 1.373 . S
C7 C5 1.383 . S
C7 H35 0.931 . S
C8 C5 1.382 . S
C8 C6 1.392 . S
C9 Eu0 2.828 . S
C9 C3 1.505 . S
C9 O21 1.249 . S
C9 O22 1.244 . S
O10 Eu1 2.373 . S
O10 C12 1.258 . S
O11 Eu0 2.392 . S
O11 C12 1.242 . S
C12 O10 1.258 . S
C12 O11 1.242 . S
O13 Eu0 2.418 . S
O13 C17 1.244 . S
O14 Eu1 2.488 . S
O14 C30 1.249 . S
O15 Eu1 2.471 . S
O15 C30 1.244 . S
O16 Eu1 2.349 . S
O16 C17 1.265 . S
C17 O13 1.244 . S
C17 O16 1.265 . S
O18 Eu0 2.373 . S
O18 C31 1.258 . S
O19 Eu1 2.392 . S
O19 C31 1.242 . S
O20 Eu1 2.418 . S
O20 C2 1.244 . S
O21 Eu0 2.488 . S
O21 C9 1.249 . S
O22 Eu0 2.471 . S
O22 C9 1.244 . S
O23 Eu0 2.349 . S
O23 C2 1.265 . S
C24 C25 1.379 . S
C24 C28 1.373 1_545 S
C24 C30 1.505 . S
C25 C24 1.379 . S
C25 C27 1.369 . S
C25 H36 0.930 . S
C26 C28 1.383 . S
C26 C29 1.382 . S
C26 H37 0.930 . S
C27 C25 1.369 . S
C27 C29 1.392 1_545 S
C27 H38 0.916 1_554 S
C28 C24 1.373 1_565 S
C28 C26 1.383 . S
C28 H39 0.931 . S
C29 C26 1.382 . S
C29 C27 1.392 1_565 S
C30 Eu1 2.828 . S
C30 O14 1.249 . S
C30 O15 1.244 . S
C30 C24 1.505 . S
C31 O18 1.258 . S
C31 O19 1.242 . S
H32 C4 0.930 . S
H33 C5 0.930 . S
H34 C6 0.930 . S
H35 C7 0.931 . S
H36 C25 0.930 . S
H37 C26 0.930 . S
H38 C27 0.916 1_556 S
H39 C28 0.931 . S
Eu40 C49 2.828 . S
Eu40 O51 2.392 . S
Eu40 O53 2.418 . S
Eu40 O58 2.373 . S
Eu40 O61 2.488 . S
Eu40 O62 2.471 . S
Eu40 O63 2.349 . S
Eu41 O50 2.373 . S
Eu41 O54 2.488 . S
Eu41 O55 2.471 . S
Eu41 O56 2.349 . S
Eu41 O59 2.392 . S
Eu41 O60 2.418 . S
Eu41 C70 2.828 . S
C42 O60 1.244 . S
C42 O63 1.265 . S
C43 C44 1.379 . S
C43 C47 1.373 . S
C43 C49 1.505 . S
C44 C43 1.379 . S
C44 C46 1.369 . S
C44 H72 0.930 . S
C45 C47 1.383 . S
C45 C48 1.382 . S
C45 H73 0.930 . S
C46 C44 1.369 . S
C46 C48 1.392 . S
C46 H74 0.930 . S
C47 C43 1.373 . S
C47 C45 1.383 . S
C47 H75 0.931 . S
C48 C45 1.382 . S
C48 C46 1.392 . S
C49 Eu40 2.828 . S
C49 C43 1.505 . S
C49 O61 1.249 . S
C49 O62 1.244 . S
O50 Eu41 2.373 . S
O50 C52 1.258 . S
O51 Eu40 2.392 . S
O51 C52 1.242 . S
C52 O50 1.258 . S
C52 O51 1.242 . S
O53 Eu40 2.418 . S
O53 C57 1.244 . S
O54 Eu41 2.488 . S
O54 C70 1.249 . S
O55 Eu41 2.471 . S
O55 C70 1.244 . S
O56 Eu41 2.349 . S
O56 C57 1.265 . S
C57 O53 1.244 . S
C57 O56 1.265 . S
O58 Eu40 2.373 . S
O58 C71 1.258 . S
O59 Eu41 2.392 . S
O59 C71 1.242 . S
O60 Eu41 2.418 . S
O60 C42 1.244 . S
O61 Eu40 2.488 . S
O61 C49 1.249 . S
O62 Eu40 2.471 . S
O62 C49 1.244 . S
O63 Eu40 2.349 . S
O63 C42 1.265 . S
C64 C65 1.379 . S
C64 C68 1.373 . S
C64 C70 1.505 . S
C65 C64 1.379 . S
C65 C67 1.369 . S
C65 H76 0.930 . S
C66 C68 1.383 . S
C66 C69 1.382 . S
C66 H77 0.930 . S
C67 C65 1.369 . S
C67 C69 1.392 . S
C67 H78 0.930 . S
C68 C64 1.373 . S
C68 C66 1.383 . S
C68 H79 0.931 . S
C69 C66 1.382 . S
C69 C67 1.392 . S
C70 Eu41 2.828 . S
C70 O54 1.249 . S
C70 O55 1.244 . S
C70 C64 1.505 . S
C71 O58 1.258 . S
C71 O59 1.242 . S
H72 C44 0.930 . S
H73 C45 0.930 . S
H74 C46 0.930 . S
H75 C47 0.931 . S
H76 C65 0.930 . S
H77 C66 0.930 . S
H78 C67 0.930 . S
H79 C68 0.931 . S
Eu80 C89 2.828 . S
Eu80 O91 2.392 . S
Eu80 O93 2.418 . S
Eu80 O98 2.373 . S
Eu80 O101 2.488 . S
Eu80 O102 2.471 . S
Eu80 O103 2.349 . S
Eu81 O90 2.373 . S
Eu81 O94 2.488 . S
Eu81 O95 2.471 . S
Eu81 O96 2.349 . S
Eu81 O99 2.392 . S
Eu81 O100 2.418 . S
Eu81 C110 2.828 . S
C82 O100 1.244 . S
C82 O103 1.265 . S
C83 C84 1.379 . S
C83 C87 1.373 . S
C83 C89 1.505 . S
C84 C83 1.379 . S
C84 C86 1.369 . S
C84 H112 0.930 . S
C85 C87 1.383 . S
C85 C88 1.382 . S
C85 H113 0.930 . S
C86 C84 1.369 . S
C86 C88 1.392 . S
C86 H114 0.930 . S
C87 C83 1.373 . S
C87 C85 1.383 . S
C87 H115 0.931 . S
C88 C85 1.382 . S
C88 C86 1.392 . S
C89 Eu80 2.828 . S
C89 C83 1.505 . S
C89 O101 1.249 . S
C89 O102 1.244 . S
O90 Eu81 2.373 . S
O90 C92 1.258 . S
O91 Eu80 2.392 . S
O91 C92 1.242 . S
C92 O90 1.258 . S
C92 O91 1.242 . S
O93 Eu80 2.418 . S
O93 C97 1.244 . S
O94 Eu81 2.488 . S
O94 C110 1.249 . S
O95 Eu81 2.471 . S
O95 C110 1.244 . S
O96 Eu81 2.349 . S
O96 C97 1.265 . S
C97 O93 1.244 . S
C97 O96 1.265 . S
O98 Eu80 2.373 . S
O98 C111 1.258 . S
O99 Eu81 2.392 . S
O99 C111 1.242 . S
O100 Eu81 2.418 . S
O100 C82 1.244 . S
O101 Eu80 2.488 . S
O101 C89 1.249 . S
O102 Eu80 2.471 . S
O102 C89 1.244 . S
O103 Eu80 2.349 . S
O103 C82 1.265 . S
C104 C105 1.379 . S
C104 C108 1.373 1_565 S
C104 C110 1.505 . S
C105 C104 1.379 . S
C105 C107 1.369 . S
C105 H116 0.930 . S
C106 C108 1.383 . S
C106 C109 1.382 . S
C106 H117 0.930 . S
C107 C105 1.369 . S
C107 C109 1.392 1_565 S
C107 H118 0.930 . S
C108 C104 1.373 1_545 S
C108 C106 1.383 . S
C108 H119 0.931 . S
C109 C106 1.382 . S
C109 C107 1.392 1_545 S
C110 Eu81 2.828 . S
C110 O94 1.249 . S
C110 O95 1.244 . S
C110 C104 1.505 . S
C111 O98 1.258 . S
C111 O99 1.242 . S
H112 C84 0.930 . S
H113 C85 0.930 . S
H114 C86 0.930 . S
H115 C87 0.931 . S
H116 C105 0.930 . S
H117 C106 0.930 . S
H118 C107 0.930 . S
H119 C108 0.931 . S
Eu120 C129 2.828 1_655 S
Eu120 O131 2.392 . S
Eu120 O133 2.418 . S
Eu120 O138 2.373 . S
Eu120 O141 2.488 1_655 S
Eu120 O142 2.471 . S
Eu120 O143 2.349 . S
Eu121 O130 2.373 . S
Eu121 O134 2.488 . S
Eu121 O135 2.471 . S
Eu121 O136 2.349 . S
Eu121 O139 2.392 . S
Eu121 O140 2.418 . S
Eu121 C150 2.828 . S
C122 O140 1.244 . S
C122 O143 1.265 . S
C123 C124 1.379 . S
C123 C127 1.373 . S
C123 C129 1.505 . S
C124 C123 1.379 . S
C124 C126 1.369 . S
C124 H152 0.930 1_455 S
C125 C127 1.383 . S
C125 C128 1.382 . S
C125 H153 0.930 . S
C126 C124 1.369 . S
C126 C128 1.392 . S
C126 H154 0.930 . S
C127 C123 1.373 . S
C127 C125 1.383 . S
C127 H155 0.931 . S
C128 C125 1.382 . S
C128 C126 1.392 . S
C129 Eu120 2.828 1_455 S
C129 C123 1.505 . S
C129 O141 1.249 . S
C129 O142 1.244 1_455 S
O130 Eu121 2.373 . S
O130 C132 1.258 . S
O131 Eu120 2.392 . S
O131 C132 1.242 . S
C132 O130 1.258 . S
C132 O131 1.242 . S
O133 Eu120 2.418 . S
O133 C137 1.244 . S
O134 Eu121 2.488 . S
O134 C150 1.249 . S
O135 Eu121 2.471 . S
O135 C150 1.244 . S
O136 Eu121 2.349 . S
O136 C137 1.265 . S
C137 O133 1.244 . S
C137 O136 1.265 . S
O138 Eu120 2.373 . S
O138 C151 1.258 . S
O139 Eu121 2.392 . S
O139 C151 1.242 . S
O140 Eu121 2.418 . S
O140 C122 1.244 . S
O141 Eu120 2.488 1_455 S
O141 C129 1.249 . S
O142 Eu120 2.471 . S
O142 C129 1.244 1_655 S
O143 Eu120 2.349 . S
O143 C122 1.265 . S
C144 C145 1.379 . S
C144 C148 1.373 . S
C144 C150 1.505 . S
C145 C144 1.379 . S
C145 C147 1.369 . S
C145 H156 0.930 . S
C146 C148 1.383 . S
C146 C149 1.382 . S
C146 H157 0.930 . S
C147 C145 1.369 . S
C147 C149 1.392 . S
C147 H158 0.930 . S
C148 C144 1.373 . S
C148 C146 1.383 . S
C148 H159 0.931 . S
C149 C146 1.382 . S
C149 C147 1.392 . S
C150 Eu121 2.828 . S
C150 O134 1.249 . S
C150 O135 1.244 . S
C150 C144 1.505 . S
C151 O138 1.258 . S
C151 O139 1.242 . S
H152 C124 0.930 1_655 S
H153 C125 0.930 . S
H154 C126 0.930 . S
H155 C127 0.931 . S
H156 C145 0.930 . S
H157 C146 0.930 . S
H158 C147 0.930 . S
H159 C148 0.931 . S
Eu160 C169 2.828 . S
Eu160 O171 2.392 . S
Eu160 O173 2.418 . S
Eu160 O178 2.373 . S
Eu160 O181 2.488 . S
Eu160 O182 2.471 . S
Eu160 O183 2.349 . S
Eu161 O170 2.373 . S
Eu161 O174 2.488 . S
Eu161 O175 2.471 . S
Eu161 O176 2.349 . S
Eu161 O179 2.392 . S
Eu161 O180 2.418 . S
Eu161 C190 2.828 . S
C162 O180 1.244 . S
C162 O183 1.265 . S
C163 C164 1.379 . S
C163 C167 1.373 1_565 S
C163 C169 1.505 . S
C164 C163 1.379 . S
C164 C166 1.369 . S
C164 H192 0.930 . S
C165 C167 1.383 . S
C165 C168 1.382 . S
C165 H193 0.930 . S
C166 C164 1.369 . S
C166 C168 1.392 1_565 S
C166 H194 0.916 1_556 S
C167 C163 1.373 1_545 S
C167 C165 1.383 . S
C167 H195 0.931 . S
C168 C165 1.382 . S
C168 C166 1.392 1_545 S
C169 Eu160 2.828 . S
C169 C163 1.505 . S
C169 O181 1.249 . S
C169 O182 1.244 . S
O170 Eu161 2.373 . S
O170 C172 1.258 . S
O171 Eu160 2.392 . S
O171 C172 1.242 . S
C172 O170 1.258 . S
C172 O171 1.242 . S
O173 Eu160 2.418 . S
O173 C177 1.244 . S
O174 Eu161 2.488 . S
O174 C190 1.249 . S
O175 Eu161 2.471 . S
O175 C190 1.244 . S
O176 Eu161 2.349 . S
O176 C177 1.265 . S
C177 O173 1.244 . S
C177 O176 1.265 . S
O178 Eu160 2.373 . S
O178 C191 1.258 . S
O179 Eu161 2.392 . S
O179 C191 1.242 . S
O180 Eu161 2.418 . S
O180 C162 1.244 . S
O181 Eu160 2.488 . S
O181 C169 1.249 . S
O182 Eu160 2.471 . S
O182 C169 1.244 . S
O183 Eu160 2.349 . S
O183 C162 1.265 . S
C184 C185 1.379 . S
C184 C188 1.373 . S
C184 C190 1.505 . S
C185 C184 1.379 . S
C185 C187 1.369 . S
C185 H196 0.930 . S
C186 C188 1.383 . S
C186 C189 1.382 . S
C186 H197 0.930 . S
C187 C185 1.369 . S
C187 C189 1.392 . S
C187 H198 0.930 . S
C188 C184 1.373 . S
C188 C186 1.383 . S
C188 H199 0.931 . S
C189 C186 1.382 . S
C189 C187 1.392 . S
C190 Eu161 2.828 . S
C190 O174 1.249 . S
C190 O175 1.244 . S
C190 C184 1.505 . S
C191 O178 1.258 . S
C191 O179 1.242 . S
H192 C164 0.930 . S
H193 C165 0.930 . S
H194 C166 0.916 1_554 S
H195 C167 0.931 . S
H196 C185 0.930 . S
H197 C186 0.930 . S
H198 C187 0.930 . S
H199 C188 0.931 . S
Eu200 C209 2.828 . S
Eu200 O211 2.392 . S
Eu200 O213 2.418 . S
Eu200 O218 2.373 . S
Eu200 O221 2.488 . S
Eu200 O222 2.471 . S
Eu200 O223 2.349 . S
Eu201 O210 2.373 . S
Eu201 O214 2.488 . S
Eu201 O215 2.471 . S
Eu201 O216 2.349 . S
Eu201 O219 2.392 . S
Eu201 O220 2.418 . S
Eu201 C230 2.828 . S
C202 O220 1.244 . S
C202 O223 1.265 . S
C203 C204 1.379 . S
C203 C207 1.373 . S
C203 C209 1.505 . S
C204 C203 1.379 . S
C204 C206 1.369 . S
C204 H232 0.930 . S
C205 C207 1.383 . S
C205 C208 1.382 . S
C205 H233 0.930 . S
C206 C204 1.369 . S
C206 C208 1.392 . S
C206 H234 0.930 . S
C207 C203 1.373 . S
C207 C205 1.383 . S
C207 H235 0.931 . S
C208 C205 1.382 . S
C208 C206 1.392 . S
C209 Eu200 2.828 . S
C209 C203 1.505 . S
C209 O221 1.249 . S
C209 O222 1.244 . S
O210 Eu201 2.373 . S
O210 C212 1.258 . S
O211 Eu200 2.392 . S
O211 C212 1.242 . S
C212 O210 1.258 . S
C212 O211 1.242 . S
O213 Eu200 2.418 . S
O213 C217 1.244 . S
O214 Eu201 2.488 . S
O214 C230 1.249 . S
O215 Eu201 2.471 . S
O215 C230 1.244 . S
O216 Eu201 2.349 . S
O216 C217 1.265 . S
C217 O213 1.244 . S
C217 O216 1.265 . S
O218 Eu200 2.373 . S
O218 C231 1.258 . S
O219 Eu201 2.392 . S
O219 C231 1.242 . S
O220 Eu201 2.418 . S
O220 C202 1.244 . S
O221 Eu200 2.488 . S
O221 C209 1.249 . S
O222 Eu200 2.471 . S
O222 C209 1.244 . S
O223 Eu200 2.349 . S
O223 C202 1.265 . S
C224 C225 1.379 . S
C224 C228 1.373 . S
C224 C230 1.505 . S
C225 C224 1.379 . S
C225 C227 1.369 . S
C225 H236 0.930 . S
C226 C228 1.383 . S
C226 C229 1.382 . S
C226 H237 0.930 . S
C227 C225 1.369 . S
C227 C229 1.392 . S
C227 H238 0.930 . S
C228 C224 1.373 . S
C228 C226 1.383 . S
C228 H239 0.931 . S
C229 C226 1.382 . S
C229 C227 1.392 . S
C230 Eu201 2.828 . S
C230 O214 1.249 . S
C230 O215 1.244 . S
C230 C224 1.505 . S
C231 O218 1.258 . S
C231 O219 1.242 . S
H232 C204 0.930 . S
H233 C205 0.930 . S
H234 C206 0.930 . S
H235 C207 0.931 . S
H236 C225 0.930 . S
H237 C226 0.930 . S
H238 C227 0.930 . S
H239 C228 0.931 . S
Eu240 C249 2.828 . S
Eu240 O251 2.392 . S
Eu240 O253 2.418 . S
Eu240 O258 2.373 . S
Eu240 O261 2.488 . S
Eu240 O262 2.471 . S
Eu240 O263 2.349 . S
Eu241 O250 2.373 . S
Eu241 O254 2.488 . S
Eu241 O255 2.471 . S
Eu241 O256 2.349 . S
Eu241 O259 2.392 . S
Eu241 O260 2.418 . S
Eu241 C270 2.828 . S
C242 O260 1.244 . S
C242 O263 1.265 . S
C243 C244 1.379 . S
C243 C247 1.373 1_545 S
C243 C249 1.505 . S
C244 C243 1.379 . S
C244 C246 1.369 . S
C244 H272 0.930 . S
C245 C247 1.383 . S
C245 C248 1.382 . S
C245 H273 0.930 . S
C246 C244 1.369 . S
C246 C248 1.392 1_545 S
C246 H274 0.930 . S
C247 C243 1.373 1_565 S
C247 C245 1.383 . S
C247 H275 0.931 . S
C248 C245 1.382 . S
C248 C246 1.392 1_565 S
C249 Eu240 2.828 . S
C249 C243 1.505 . S
C249 O261 1.249 . S
C249 O262 1.244 . S
O250 Eu241 2.373 . S
O250 C252 1.258 . S
O251 Eu240 2.392 . S
O251 C252 1.242 . S
C252 O250 1.258 . S
C252 O251 1.242 . S
O253 Eu240 2.418 . S
O253 C257 1.244 . S
O254 Eu241 2.488 . S
O254 C270 1.249 . S
O255 Eu241 2.471 . S
O255 C270 1.244 . S
O256 Eu241 2.349 . S
O256 C257 1.265 . S
C257 O253 1.244 . S
C257 O256 1.265 . S
O258 Eu240 2.373 . S
O258 C271 1.258 . S
O259 Eu241 2.392 . S
O259 C271 1.242 . S
O260 Eu241 2.418 . S
O260 C242 1.244 . S
O261 Eu240 2.488 . S
O261 C249 1.249 . S
O262 Eu240 2.471 . S
O262 C249 1.244 . S
O263 Eu240 2.349 . S
O263 C242 1.265 . S
C264 C265 1.379 . S
C264 C268 1.373 . S
C264 C270 1.505 . S
C265 C264 1.379 . S
C265 C267 1.369 . S
C265 H276 0.930 . S
C266 C268 1.383 . S
C266 C269 1.382 . S
C266 H277 0.930 . S
C267 C265 1.369 . S
C267 C269 1.392 . S
C267 H278 0.930 . S
C268 C264 1.373 . S
C268 C266 1.383 . S
C268 H279 0.931 . S
C269 C266 1.382 . S
C269 C267 1.392 . S
C270 Eu241 2.828 . S
C270 O254 1.249 . S
C270 O255 1.244 . S
C270 C264 1.505 . S
C271 O258 1.258 . S
C271 O259 1.242 . S
H272 C244 0.930 . S
H273 C245 0.930 . S
H274 C246 0.930 . S
H275 C247 0.931 . S
H276 C265 0.930 . S
H277 C266 0.930 . S
H278 C267 0.930 . S
H279 C268 0.931 . S
Eu280 C289 2.828 . S
Eu280 O291 2.392 . S
Eu280 O293 2.418 . S
Eu280 O298 2.373 . S
Eu280 O301 2.488 . S
Eu280 O302 2.471 . S
Eu280 O303 2.349 . S
Eu281 O290 2.373 . S
Eu281 O294 2.488 1_455 S
Eu281 O295 2.471 . S
Eu281 O296 2.349 . S
Eu281 O299 2.392 . S
Eu281 O300 2.418 . S
Eu281 C310 2.828 1_455 S
C282 O300 1.244 . S
C282 O303 1.265 . S
C283 C284 1.379 . S
C283 C287 1.373 . S
C283 C289 1.505 . S
C284 C283 1.379 . S
C284 C286 1.369 . S
C284 H312 0.930 . S
C285 C287 1.383 . S
C285 C288 1.382 . S
C285 H313 0.930 . S
C286 C284 1.369 . S
C286 C288 1.392 . S
C286 H314 0.930 . S
C287 C283 1.373 . S
C287 C285 1.383 . S
C287 H315 0.931 . S
C288 C285 1.382 . S
C288 C286 1.392 . S
C289 Eu280 2.828 . S
C289 C283 1.505 . S
C289 O301 1.249 . S
C289 O302 1.244 . S
O290 Eu281 2.373 . S
O290 C292 1.258 . S
O291 Eu280 2.392 . S
O291 C292 1.242 . S
C292 O290 1.258 . S
C292 O291 1.242 . S
O293 Eu280 2.418 . S
O293 C297 1.244 . S
O294 Eu281 2.488 1_655 S
O294 C310 1.249 . S
O295 Eu281 2.471 . S
O295 C310 1.244 1_455 S
O296 Eu281 2.349 . S
O296 C297 1.265 . S
C297 O293 1.244 . S
C297 O296 1.265 . S
O298 Eu280 2.373 . S
O298 C311 1.258 . S
O299 Eu281 2.392 . S
O299 C311 1.242 . S
O300 Eu281 2.418 . S
O300 C282 1.244 . S
O301 Eu280 2.488 . S
O301 C289 1.249 . S
O302 Eu280 2.471 . S
O302 C289 1.244 . S
O303 Eu280 2.349 . S
O303 C282 1.265 . S
C304 C305 1.379 . S
C304 C308 1.373 . S
C304 C310 1.505 . S
C305 C304 1.379 . S
C305 C307 1.369 . S
C305 H316 0.930 1_655 S
C306 C308 1.383 . S
C306 C309 1.382 . S
C306 H317 0.930 . S
C307 C305 1.369 . S
C307 C309 1.392 . S
C307 H318 0.930 . S
C308 C304 1.373 . S
C308 C306 1.383 . S
C308 H319 0.931 . S
C309 C306 1.382 . S
C309 C307 1.392 . S
C310 Eu281 2.828 1_655 S
C310 O294 1.249 . S
C310 O295 1.244 1_655 S
C310 C304 1.505 . S
C311 O298 1.258 . S
C311 O299 1.242 . S
H312 C284 0.930 . S
H313 C285 0.930 . S
H314 C286 0.930 . S
H315 C287 0.931 . S
H316 C305 0.930 1_455 S
H317 C306 0.930 . S
H318 C307 0.930 . S
H319 C308 0.931 . S
Eu320 C329 2.828 . S
Eu320 O331 2.392 . S
Eu320 O333 2.418 . S
Eu320 O338 2.373 . S
Eu320 O341 2.488 . S
Eu320 O342 2.471 . S
Eu320 O343 2.349 . S
Eu321 O330 2.373 . S
Eu321 O334 2.488 . S
Eu321 O335 2.471 . S
Eu321 O336 2.349 . S
Eu321 O339 2.392 . S
Eu321 O340 2.418 . S
Eu321 C350 2.828 . S
C322 O340 1.244 . S
C322 O343 1.265 . S
C323 C324 1.379 . S
C323 C327 1.373 . S
C323 C329 1.505 . S
C324 C323 1.379 . S
C324 C326 1.369 . S
C324 H352 0.930 . S
C325 C327 1.383 . S
C325 C328 1.382 . S
C325 H353 0.930 . S
C326 C324 1.369 . S
C326 C328 1.392 . S
C326 H354 0.930 . S
C327 C323 1.373 . S
C327 C325 1.383 . S
C327 H355 0.931 . S
C328 C325 1.382 . S
C328 C326 1.392 . S
C329 Eu320 2.828 . S
C329 C323 1.505 . S
C329 O341 1.249 . S
C329 O342 1.244 . S
O330 Eu321 2.373 . S
O330 C332 1.258 . S
O331 Eu320 2.392 . S
O331 C332 1.242 . S
C332 O330 1.258 . S
C332 O331 1.242 . S
O333 Eu320 2.418 . S
O333 C337 1.244 . S
O334 Eu321 2.488 . S
O334 C350 1.249 . S
O335 Eu321 2.471 . S
O335 C350 1.244 . S
O336 Eu321 2.349 . S
O336 C337 1.265 . S
C337 O333 1.244 . S
C337 O336 1.265 . S
O338 Eu320 2.373 . S
O338 C351 1.258 . S
O339 Eu321 2.392 . S
O339 C351 1.242 . S
O340 Eu321 2.418 . S
O340 C322 1.244 . S
O341 Eu320 2.488 . S
O341 C329 1.249 . S
O342 Eu320 2.471 . S
O342 C329 1.244 . S
O343 Eu320 2.349 . S
O343 C322 1.265 . S
C344 C345 1.379 . S
C344 C348 1.373 . S
C344 C350 1.505 . S
C345 C344 1.379 . S
C345 C347 1.369 . S
C345 H356 0.930 . S
C346 C348 1.383 . S
C346 C349 1.382 . S
C346 H357 0.930 . S
C347 C345 1.369 . S
C347 C349 1.392 . S
C347 H358 0.930 . S
C348 C344 1.373 . S
C348 C346 1.383 . S
C348 H359 0.931 . S
C349 C346 1.382 . S
C349 C347 1.392 . S
C350 Eu321 2.828 . S
C350 O334 1.249 . S
C350 O335 1.244 . S
C350 C344 1.505 . S
C351 O338 1.258 . S
C351 O339 1.242 . S
H352 C324 0.930 . S
H353 C325 0.930 . S
H354 C326 0.930 . S
H355 C327 0.931 . S
H356 C345 0.930 . S
H357 C346 0.930 . S
H358 C347 0.930 . S
H359 C348 0.931 . S
Eu360 C369 2.828 1_445 S
Eu360 O371 2.392 . S
Eu360 O373 2.418 . S
Eu360 O378 2.373 . S
Eu360 O381 2.488 1_455 S
Eu360 O382 2.471 1_545 S
Eu360 O383 2.349 . S
Eu361 O370 2.373 . S
Eu361 O374 2.488 . S
Eu361 O375 2.471 . S
Eu361 O376 2.349 . S
Eu361 O379 2.392 . S
Eu361 O380 2.418 . S
Eu361 C390 2.828 . S
C362 O380 1.244 1_565 S
C362 O383 1.265 1_565 S
C363 C364 1.379 . S
C363 C367 1.373 . S
C363 C369 1.505 . S
C364 C363 1.379 . S
C364 C366 1.369 . S
C364 H392 0.930 1_655 S
C365 C367 1.383 . S
C365 C368 1.382 . S
C365 H393 0.930 . S
C366 C364 1.369 . S
C366 C368 1.392 . S
C366 H394 0.930 . S
C367 C363 1.373 . S
C367 C365 1.383 . S
C367 H395 0.931 1_565 S
C368 C365 1.382 . S
C368 C366 1.392 . S
C369 Eu360 2.828 1_665 S
C369 C363 1.505 . S
C369 O381 1.249 1_565 S
C369 O382 1.244 1_655 S
O370 Eu361 2.373 . S
O370 C372 1.258 . S
O371 Eu360 2.392 . S
O371 C372 1.242 . S
C372 O370 1.258 . S
C372 O371 1.242 . S
O373 Eu360 2.418 . S
O373 C377 1.244 . S
O374 Eu361 2.488 . S
O374 C390 1.249 . S
O375 Eu361 2.471 . S
O375 C390 1.244 . S
O376 Eu361 2.349 . S
O376 C377 1.265 . S
C377 O373 1.244 . S
C377 O376 1.265 . S
O378 Eu360 2.373 . S
O378 C391 1.258 . S
O379 Eu361 2.392 . S
O379 C391 1.242 . S
O380 Eu361 2.418 . S
O380 C362 1.244 1_545 S
O381 Eu360 2.488 1_655 S
O381 C369 1.249 1_545 S
O382 Eu360 2.471 1_565 S
O382 C369 1.244 1_455 S
O383 Eu360 2.349 . S
O383 C362 1.265 1_545 S
C384 C385 1.379 . S
C384 C388 1.373 . S
C384 C390 1.505 . S
C385 C384 1.379 . S
C385 C387 1.369 . S
C385 H396 0.930 . S
C386 C388 1.383 . S
C386 C389 1.382 . S
C386 H397 0.930 . S
C387 C385 1.369 . S
C387 C389 1.392 . S
C387 H398 0.930 . S
C388 C384 1.373 . S
C388 C386 1.383 . S
C388 H399 0.931 . S
C389 C386 1.382 . S
C389 C387 1.392 . S
C390 Eu361 2.828 . S
C390 O374 1.249 . S
C390 O375 1.244 . S
C390 C384 1.505 . S
C391 O378 1.258 . S
C391 O379 1.242 . S
H392 C364 0.930 1_455 S
H393 C365 0.930 . S
H394 C366 0.930 . S
H395 C367 0.931 1_545 S
H396 C385 0.930 . S
H397 C386 0.930 . S
H398 C387 0.930 . S
H399 C388 0.931 . S
Eu400 C409 2.828 . S
Eu400 O411 2.392 . S
Eu400 O413 2.418 . S
Eu400 O418 2.373 . S
Eu400 O421 2.488 . S
Eu400 O422 2.471 . S
Eu400 O423 2.349 . S
Eu401 O410 2.373 . S
Eu401 O414 2.488 . S
Eu401 O415 2.471 . S
Eu401 O416 2.349 . S
Eu401 O419 2.392 . S
Eu401 O420 2.418 . S
Eu401 C430 2.828 . S
C402 O420 1.244 . S
C402 O423 1.265 . S
C403 C404 1.379 . S
C403 C407 1.373 . S
C403 C409 1.505 . S
C404 C403 1.379 . S
C404 C406 1.369 . S
C404 H432 0.930 . S
C405 C407 1.383 . S
C405 C408 1.382 . S
C405 H433 0.930 . S
C406 C404 1.369 . S
C406 C408 1.392 . S
C406 H434 0.930 . S
C407 C403 1.373 . S
C407 C405 1.383 . S
C407 H435 0.931 . S
C408 C405 1.382 . S
C408 C406 1.392 . S
C409 Eu400 2.828 . S
C409 C403 1.505 . S
C409 O421 1.249 . S
C409 O422 1.244 . S
O410 Eu401 2.373 . S
O410 C412 1.258 . S
O411 Eu400 2.392 . S
O411 C412 1.242 . S
C412 O410 1.258 . S
C412 O411 1.242 . S
O413 Eu400 2.418 . S
O413 C417 1.244 . S
O414 Eu401 2.488 . S
O414 C430 1.249 . S
O415 Eu401 2.471 . S
O415 C430 1.244 . S
O416 Eu401 2.349 . S
O416 C417 1.265 . S
C417 O413 1.244 . S
C417 O416 1.265 . S
O418 Eu400 2.373 . S
O418 C431 1.258 . S
O419 Eu401 2.392 . S
O419 C431 1.242 . S
O420 Eu401 2.418 . S
O420 C402 1.244 . S
O421 Eu400 2.488 . S
O421 C409 1.249 . S
O422 Eu400 2.471 . S
O422 C409 1.244 . S
O423 Eu400 2.349 . S
O423 C402 1.265 . S
C424 C425 1.379 . S
C424 C428 1.373 . S
C424 C430 1.505 . S
C425 C424 1.379 . S
C425 C427 1.369 . S
C425 H436 0.930 . S
C426 C428 1.383 . S
C426 C429 1.382 . S
C426 H437 0.930 . S
C427 C425 1.369 . S
C427 C429 1.392 . S
C427 H438 0.916 1_554 S
C428 C424 1.373 . S
C428 C426 1.383 . S
C428 H439 0.931 . S
C429 C426 1.382 . S
C429 C427 1.392 . S
C430 Eu401 2.828 . S
C430 O414 1.249 . S
C430 O415 1.244 . S
C430 C424 1.505 . S
C431 O418 1.258 . S
C431 O419 1.242 . S
H432 C404 0.930 . S
H433 C405 0.930 . S
H434 C406 0.930 . S
H435 C407 0.931 . S
H436 C425 0.930 . S
H437 C426 0.930 . S
H438 C427 0.916 1_556 S
H439 C428 0.931 . S
Eu440 C449 2.828 1_565 S
Eu440 O451 2.392 . S
Eu440 O453 2.418 . S
Eu440 O458 2.373 . S
Eu440 O461 2.488 . S
Eu440 O462 2.471 1_565 S
Eu440 O463 2.349 . S
Eu441 O450 2.373 . S
Eu441 O454 2.488 . S
Eu441 O455 2.471 . S
Eu441 O456 2.349 . S
Eu441 O459 2.392 . S
Eu441 O460 2.418 . S
Eu441 C470 2.828 . S
C442 O460 1.244 1_545 S
C442 O463 1.265 1_545 S
C443 C444 1.379 . S
C443 C447 1.373 . S
C443 C449 1.505 . S
C444 C443 1.379 . S
C444 C446 1.369 . S
C444 H472 0.930 . S
C445 C447 1.383 . S
C445 C448 1.382 . S
C445 H473 0.930 . S
C446 C444 1.369 . S
C446 C448 1.392 . S
C446 H474 0.930 . S
C447 C443 1.373 . S
C447 C445 1.383 . S
C447 H475 0.931 1_545 S
C448 C445 1.382 . S
C448 C446 1.392 . S
C449 Eu440 2.828 1_545 S
C449 C443 1.505 . S
C449 O461 1.249 1_545 S
C449 O462 1.244 . S
O450 Eu441 2.373 . S
O450 C452 1.258 . S
O451 Eu440 2.392 . S
O451 C452 1.242 . S
C452 O450 1.258 . S
C452 O451 1.242 . S
O453 Eu440 2.418 . S
O453 C457 1.244 . S
O454 Eu441 2.488 . S
O454 C470 1.249 . S
O455 Eu441 2.471 . S
O455 C470 1.244 . S
O456 Eu441 2.349 . S
O456 C457 1.265 . S
C457 O453 1.244 . S
C457 O456 1.265 . S
O458 Eu440 2.373 . S
O458 C471 1.258 . S
O459 Eu441 2.392 . S
O459 C471 1.242 . S
O460 Eu441 2.418 . S
O460 C442 1.244 1_565 S
O461 Eu440 2.488 . S
O461 C449 1.249 1_565 S
O462 Eu440 2.471 1_545 S
O462 C449 1.244 . S
O463 Eu440 2.349 . S
O463 C442 1.265 1_565 S
C464 C465 1.379 . S
C464 C468 1.373 . S
C464 C470 1.505 . S
C465 C464 1.379 . S
C465 C467 1.369 . S
C465 H476 0.930 . S
C466 C468 1.383 . S
C466 C469 1.382 . S
C466 H477 0.930 . S
C467 C465 1.369 . S
C467 C469 1.392 . S
C467 H478 0.930 . S
C468 C464 1.373 . S
C468 C466 1.383 . S
C468 H479 0.931 . S
C469 C466 1.382 . S
C469 C467 1.392 . S
C470 Eu441 2.828 . S
C470 O454 1.249 . S
C470 O455 1.244 . S
C470 C464 1.505 . S
C471 O458 1.258 . S
C471 O459 1.242 . S
H472 C444 0.930 . S
H473 C445 0.930 . S
H474 C446 0.930 . S
H475 C447 0.931 1_565 S
H476 C465 0.930 . S
H477 C466 0.930 . S
H478 C467 0.930 . S
H479 C468 0.931 . S
Eu480 C489 2.828 . S
Eu480 O491 2.392 . S
Eu480 O493 2.418 . S
Eu480 O498 2.373 . S
Eu480 O501 2.488 . S
Eu480 O502 2.471 . S
Eu480 O503 2.349 . S
Eu481 O490 2.373 . S
Eu481 O494 2.488 . S
Eu481 O495 2.471 . S
Eu481 O496 2.349 . S
Eu481 O499 2.392 . S
Eu481 O500 2.418 . S
Eu481 C510 2.828 . S
C482 O500 1.244 . S
C482 O503 1.265 . S
C483 C484 1.379 . S
C483 C487 1.373 . S
C483 C489 1.505 . S
C484 C483 1.379 . S
C484 C486 1.369 . S
C484 H512 0.930 . S
C485 C487 1.383 . S
C485 C488 1.382 . S
C485 H513 0.930 . S
C486 C484 1.369 . S
C486 C488 1.392 . S
C486 H514 0.930 . S
C487 C483 1.373 . S
C487 C485 1.383 . S
C487 H515 0.931 . S
C488 C485 1.382 . S
C488 C486 1.392 . S
C489 Eu480 2.828 . S
C489 C483 1.505 . S
C489 O501 1.249 . S
C489 O502 1.244 . S
O490 Eu481 2.373 . S
O490 C492 1.258 . S
O491 Eu480 2.392 . S
O491 C492 1.242 . S
C492 O490 1.258 . S
C492 O491 1.242 . S
O493 Eu480 2.418 . S
O493 C497 1.244 . S
O494 Eu481 2.488 . S
O494 C510 1.249 . S
O495 Eu481 2.471 . S
O495 C510 1.244 . S
O496 Eu481 2.349 . S
O496 C497 1.265 . S
C497 O493 1.244 . S
C497 O496 1.265 . S
O498 Eu480 2.373 . S
O498 C511 1.258 . S
O499 Eu481 2.392 . S
O499 C511 1.242 . S
O500 Eu481 2.418 . S
O500 C482 1.244 . S
O501 Eu480 2.488 . S
O501 C489 1.249 . S
O502 Eu480 2.471 . S
O502 C489 1.244 . S
O503 Eu480 2.349 . S
O503 C482 1.265 . S
C504 C505 1.379 . S
C504 C508 1.373 . S
C504 C510 1.505 . S
C505 C504 1.379 . S
C505 C507 1.369 . S
C505 H516 0.930 . S
C506 C508 1.383 . S
C506 C509 1.382 . S
C506 H517 0.930 . S
C507 C505 1.369 . S
C507 C509 1.392 . S
C507 H518 0.930 . S
C508 C504 1.373 . S
C508 C506 1.383 . S
C508 H519 0.931 . S
C509 C506 1.382 . S
C509 C507 1.392 . S
C510 Eu481 2.828 . S
C510 O494 1.249 . S
C510 O495 1.244 . S
C510 C504 1.505 . S
C511 O498 1.258 . S
C511 O499 1.242 . S
H512 C484 0.930 . S
H513 C485 0.930 . S
H514 C486 0.930 . S
H515 C487 0.931 . S
H516 C505 0.930 . S
H517 C506 0.930 . S
H518 C507 0.930 . S
H519 C508 0.931 . S
Eu520 C529 2.828 . S
Eu520 O531 2.392 . S
Eu520 O533 2.418 . S
Eu520 O538 2.373 . S
Eu520 O541 2.488 . S
Eu520 O542 2.471 . S
Eu520 O543 2.349 . S
Eu521 O530 2.373 . S
Eu521 O534 2.488 1_655 S
Eu521 O535 2.471 1_565 S
Eu521 O536 2.349 . S
Eu521 O539 2.392 . S
Eu521 O540 2.418 . S
Eu521 C550 2.828 1_665 S
C522 O540 1.244 . S
C522 O543 1.265 . S
C523 C524 1.379 . S
C523 C527 1.373 . S
C523 C529 1.505 . S
C524 C523 1.379 . S
C524 C526 1.369 . S
C524 H552 0.930 . S
C525 C527 1.383 . S
C525 C528 1.382 . S
C525 H553 0.930 . S
C526 C524 1.369 . S
C526 C528 1.392 . S
C526 H554 0.930 . S
C527 C523 1.373 . S
C527 C525 1.383 . S
C527 H555 0.931 . S
C528 C525 1.382 . S
C528 C526 1.392 . S
C529 Eu520 2.828 . S
C529 C523 1.505 . S
C529 O541 1.249 . S
C529 O542 1.244 . S
O530 Eu521 2.373 . S
O530 C532 1.258 . S
O531 Eu520 2.392 . S
O531 C532 1.242 . S
C532 O530 1.258 . S
C532 O531 1.242 . S
O533 Eu520 2.418 . S
O533 C537 1.244 1_565 S
O534 Eu521 2.488 1_455 S
O534 C550 1.249 1_565 S
O535 Eu521 2.471 1_545 S
O535 C550 1.244 1_655 S
O536 Eu521 2.349 . S
O536 C537 1.265 1_565 S
C537 O533 1.244 1_545 S
C537 O536 1.265 1_545 S
O538 Eu520 2.373 . S
O538 C551 1.258 . S
O539 Eu521 2.392 . S
O539 C551 1.242 . S
O540 Eu521 2.418 . S
O540 C522 1.244 . S
O541 Eu520 2.488 . S
O541 C529 1.249 . S
O542 Eu520 2.471 . S
O542 C529 1.244 . S
O543 Eu520 2.349 . S
O543 C522 1.265 . S
C544 C545 1.379 . S
C544 C548 1.373 . S
C544 C550 1.505 . S
C545 C544 1.379 . S
C545 C547 1.369 . S
C545 H556 0.930 1_455 S
C546 C548 1.383 . S
C546 C549 1.382 . S
C546 H557 0.930 . S
C547 C545 1.369 . S
C547 C549 1.392 . S
C547 H558 0.930 . S
C548 C544 1.373 . S
C548 C546 1.383 . S
C548 H559 0.931 1_545 S
C549 C546 1.382 . S
C549 C547 1.392 . S
C550 Eu521 2.828 1_445 S
C550 O534 1.249 1_545 S
C550 O535 1.244 1_455 S
C550 C544 1.505 . S
C551 O538 1.258 . S
C551 O539 1.242 . S
H552 C524 0.930 . S
H553 C525 0.930 . S
H554 C526 0.930 . S
H555 C527 0.931 . S
H556 C545 0.930 1_655 S
H557 C546 0.930 . S
H558 C547 0.930 . S
H559 C548 0.931 1_565 S
Eu560 C569 2.828 . S
Eu560 O571 2.392 . S
Eu560 O573 2.418 . S
Eu560 O578 2.373 . S
Eu560 O581 2.488 . S
Eu560 O582 2.471 . S
Eu560 O583 2.349 . S
Eu561 O570 2.373 . S
Eu561 O574 2.488 . S
Eu561 O575 2.471 . S
Eu561 O576 2.349 . S
Eu561 O579 2.392 . S
Eu561 O580 2.418 . S
Eu561 C590 2.828 . S
C562 O580 1.244 . S
C562 O583 1.265 . S
C563 C564 1.379 . S
C563 C567 1.373 . S
C563 C569 1.505 . S
C564 C563 1.379 . S
C564 C566 1.369 . S
C564 H592 0.930 . S
C565 C567 1.383 . S
C565 C568 1.382 . S
C565 H593 0.930 . S
C566 C564 1.369 . S
C566 C568 1.392 . S
C566 H594 0.916 1_556 S
C567 C563 1.373 . S
C567 C565 1.383 . S
C567 H595 0.931 . S
C568 C565 1.382 . S
C568 C566 1.392 . S
C569 Eu560 2.828 . S
C569 C563 1.505 . S
C569 O581 1.249 . S
C569 O582 1.244 . S
O570 Eu561 2.373 . S
O570 C572 1.258 . S
O571 Eu560 2.392 . S
O571 C572 1.242 . S
C572 O570 1.258 . S
C572 O571 1.242 . S
O573 Eu560 2.418 . S
O573 C577 1.244 . S
O574 Eu561 2.488 . S
O574 C590 1.249 . S
O575 Eu561 2.471 . S
O575 C590 1.244 . S
O576 Eu561 2.349 . S
O576 C577 1.265 . S
C577 O573 1.244 . S
C577 O576 1.265 . S
O578 Eu560 2.373 . S
O578 C591 1.258 . S
O579 Eu561 2.392 . S
O579 C591 1.242 . S
O580 Eu561 2.418 . S
O580 C562 1.244 . S
O581 Eu560 2.488 . S
O581 C569 1.249 . S
O582 Eu560 2.471 . S
O582 C569 1.244 . S
O583 Eu560 2.349 . S
O583 C562 1.265 . S
C584 C585 1.379 . S
C584 C588 1.373 . S
C584 C590 1.505 . S
C585 C584 1.379 . S
C585 C587 1.369 . S
C585 H596 0.930 . S
C586 C588 1.383 . S
C586 C589 1.382 . S
C586 H597 0.930 . S
C587 C585 1.369 . S
C587 C589 1.392 . S
C587 H598 0.930 . S
C588 C584 1.373 . S
C588 C586 1.383 . S
C588 H599 0.931 . S
C589 C586 1.382 . S
C589 C587 1.392 . S
C590 Eu561 2.828 . S
C590 O574 1.249 . S
C590 O575 1.244 . S
C590 C584 1.505 . S
C591 O578 1.258 . S
C591 O579 1.242 . S
H592 C564 0.930 . S
H593 C565 0.930 . S
H594 C566 0.916 1_554 S
H595 C567 0.931 . S
H596 C585 0.930 . S
H597 C586 0.930 . S
H598 C587 0.930 . S
H599 C588 0.931 . S
Eu600 C609 2.828 . S
Eu600 O611 2.392 . S
Eu600 O613 2.418 . S
Eu600 O618 2.373 . S
Eu600 O621 2.488 . S
Eu600 O622 2.471 . S
Eu600 O623 2.349 . S
Eu601 O610 2.373 . S
Eu601 O614 2.488 . S
Eu601 O615 2.471 1_545 S
Eu601 O616 2.349 . S
Eu601 O619 2.392 . S
Eu601 O620 2.418 . S
Eu601 C630 2.828 1_545 S
C602 O620 1.244 . S
C602 O623 1.265 . S
C603 C604 1.379 . S
C603 C607 1.373 . S
C603 C609 1.505 . S
C604 C603 1.379 . S
C604 C606 1.369 . S
C604 H632 0.930 . S
C605 C607 1.383 . S
C605 C608 1.382 . S
C605 H633 0.930 . S
C606 C604 1.369 . S
C606 C608 1.392 . S
C606 H634 0.930 . S
C607 C603 1.373 . S
C607 C605 1.383 . S
C607 H635 0.931 . S
C608 C605 1.382 . S
C608 C606 1.392 . S
C609 Eu600 2.828 . S
C609 C603 1.505 . S
C609 O621 1.249 . S
C609 O622 1.244 . S
O610 Eu601 2.373 . S
O610 C612 1.258 . S
O611 Eu600 2.392 . S
O611 C612 1.242 . S
C612 O610 1.258 . S
C612 O611 1.242 . S
O613 Eu600 2.418 . S
O613 C617 1.244 1_545 S
O614 Eu601 2.488 . S
O614 C630 1.249 1_545 S
O615 Eu601 2.471 1_565 S
O615 C630 1.244 . S
O616 Eu601 2.349 . S
O616 C617 1.265 1_545 S
C617 O613 1.244 1_565 S
C617 O616 1.265 1_565 S
O618 Eu600 2.373 . S
O618 C631 1.258 . S
O619 Eu601 2.392 . S
O619 C631 1.242 . S
O620 Eu601 2.418 . S
O620 C602 1.244 . S
O621 Eu600 2.488 . S
O621 C609 1.249 . S
O622 Eu600 2.471 . S
O622 C609 1.244 . S
O623 Eu600 2.349 . S
O623 C602 1.265 . S
C624 C625 1.379 . S
C624 C628 1.373 . S
C624 C630 1.505 . S
C625 C624 1.379 . S
C625 C627 1.369 . S
C625 H636 0.930 . S
C626 C628 1.383 . S
C626 C629 1.382 . S
C626 H637 0.930 . S
C627 C625 1.369 . S
C627 C629 1.392 . S
C627 H638 0.930 . S
C628 C624 1.373 . S
C628 C626 1.383 . S
C628 H639 0.931 1_565 S
C629 C626 1.382 . S
C629 C627 1.392 . S
C630 Eu601 2.828 1_565 S
C630 O614 1.249 1_565 S
C630 O615 1.244 . S
C630 C624 1.505 . S
C631 O618 1.258 . S
C631 O619 1.242 . S
H632 C604 0.930 . S
H633 C605 0.930 . S
H634 C606 0.930 . S
H635 C607 0.931 . S
H636 C625 0.930 . S
H637 C626 0.930 . S
H638 C627 0.930 . S
H639 C628 0.931 1_545 S
C640 C641 1.387 . S
C640 H644 0.950 . S
C640 C649 1.390 . S
C641 C640 1.387 . S
C641 C643 1.387 . S
H642 C649 0.950 . S
C643 C641 1.387 . S
C643 C645 1.390 . S
C643 H647 0.950 . S
H644 C640 0.950 . S
C645 C643 1.390 . S
C645 C646 1.387 . S
C645 H648 0.950 . S
C646 C645 1.387 . S
C646 C649 1.387 . S
H647 C643 0.950 . S
H648 C645 0.950 . S
C649 C640 1.390 . S
C649 H642 0.950 . S
C649 C646 1.387 . S
C650 C651 1.387 . S
C650 H654 0.950 . S
C650 C659 1.390 . S
C651 C650 1.387 . S
C651 C653 1.387 . S
H652 C659 0.950 . S
C653 C651 1.387 . S
C653 C655 1.390 . S
C653 H657 0.950 . S
H654 C650 0.950 . S
C655 C653 1.390 . S
C655 C656 1.387 . S
C655 H658 0.950 . S
C656 C655 1.387 . S
C656 C659 1.387 . S
H657 C653 0.950 . S
H658 C655 0.950 . S
C659 C650 1.390 . S
C659 H652 0.950 . S
C659 C656 1.387 . S
C660 C661 1.387 . S
C660 H664 0.950 . S
C660 C669 1.390 1_455 S
C661 C660 1.387 . S
C661 C663 1.387 . S
H662 C669 0.950 . S
C663 C661 1.387 . S
C663 C665 1.390 1_455 S
C663 H667 0.950 . S
H664 C660 0.950 . S
C665 C663 1.390 1_655 S
C665 C666 1.387 . S
C665 H668 0.950 . S
C666 C665 1.387 . S
C666 C669 1.387 . S
H667 C663 0.950 . S
H668 C665 0.950 . S
C669 C660 1.390 1_655 S
C669 H662 0.950 . S
C669 C666 1.387 . S
C670 C671 1.387 . S
C670 H674 0.950 . S
C670 C679 1.390 1_455 S
C671 C670 1.387 . S
C671 C673 1.387 . S
H672 C679 0.950 . S
C673 C671 1.387 . S
C673 C675 1.390 1_455 S
C673 H677 0.950 . S
H674 C670 0.950 . S
C675 C673 1.390 1_655 S
C675 C676 1.387 . S
C675 H678 0.950 . S
C676 C675 1.387 . S
C676 C679 1.387 . S
H677 C673 0.950 . S
H678 C675 0.950 . S
C679 C670 1.390 1_655 S
C679 H672 0.950 . S
C679 C676 1.387 . S
C680 C681 1.387 . S
C680 H684 0.950 . S
C680 C689 1.390 . S
C681 C680 1.387 . S
C681 C683 1.387 . S
H682 C689 0.950 . S
C683 C681 1.387 . S
C683 C685 1.390 . S
C683 H687 0.950 . S
H684 C680 0.950 . S
C685 C683 1.390 . S
C685 C686 1.387 . S
C685 H688 0.950 . S
C686 C685 1.387 . S
C686 C689 1.387 . S
H687 C683 0.950 . S
H688 C685 0.950 . S
C689 C680 1.390 . S
C689 H682 0.950 . S
C689 C686 1.387 . S
C690 C691 1.387 . S
C690 H694 0.950 . S
C690 C699 1.390 . S
C691 C690 1.387 . S
C691 C693 1.387 . S
H692 C699 0.950 . S
C693 C691 1.387 . S
C693 C695 1.390 . S
C693 H697 0.950 . S
H694 C690 0.950 . S
C695 C693 1.390 . S
C695 C696 1.387 . S
C695 H698 0.950 . S
C696 C695 1.387 . S
C696 C699 1.387 . S
H697 C693 0.950 . S
H698 C695 0.950 . S
C699 C690 1.390 . S
C699 H692 0.950 . S
C699 C696 1.387 . S
C700 C701 1.387 . S
C700 H704 0.950 . S
C700 C709 1.390 1_455 S
C701 C700 1.387 . S
C701 C703 1.387 . S
H702 C709 0.950 . S
C703 C701 1.387 . S
C703 C705 1.390 1_455 S
C703 H707 0.950 . S
H704 C700 0.950 . S
C705 C703 1.390 1_655 S
C705 C706 1.387 . S
C705 H708 0.950 . S
C706 C705 1.387 . S
C706 C709 1.387 . S
H707 C703 0.950 . S
H708 C705 0.950 . S
C709 C700 1.390 1_655 S
C709 H702 0.950 . S
C709 C706 1.387 . S
C710 C711 1.387 . S
C710 H714 0.950 . S
C710 C719 1.390 1_455 S
C711 C710 1.387 . S
C711 C713 1.387 . S
H712 C719 0.950 . S
C713 C711 1.387 . S
C713 C715 1.390 1_455 S
C713 H717 0.950 . S
H714 C710 0.950 . S
C715 C713 1.390 1_655 S
C715 C716 1.387 . S
C715 H718 0.950 . S
C716 C715 1.387 . S
C716 C719 1.387 . S
H717 C713 0.950 . S
H718 C715 0.950 . S
C719 C710 1.390 1_655 S
C719 H712 0.950 . S
C719 C716 1.387 . S
C720 C721 1.387 . S
C720 H724 0.950 . S
C720 C729 1.390 1_565 S
C721 C720 1.387 . S
C721 C723 1.387 1_556 S
H722 C729 0.950 . S
C723 C721 1.387 1_554 S
C723 C725 1.390 1_565 S
C723 H727 0.950 . S
H724 C720 0.950 . S
C725 C723 1.390 1_545 S
C725 C726 1.387 . S
C725 H728 0.950 . S
C726 C725 1.387 . S
C726 C729 1.387 1_554 S
H727 C723 0.950 . S
H728 C725 0.950 . S
C729 C720 1.390 1_545 S
C729 H722 0.950 . S
C729 C726 1.387 1_556 S
C730 C731 1.387 . S
C730 H734 0.950 . S
C730 C739 1.390 . S
C731 C730 1.387 . S
C731 C733 1.387 . S
H732 C739 0.950 . S
C733 C731 1.387 . S
C733 C735 1.390 . S
C733 H737 0.950 . S
H734 C730 0.950 . S
C735 C733 1.390 . S
C735 C736 1.387 . S
C735 H738 0.950 . S
C736 C735 1.387 . S
C736 C739 1.387 . S
H737 C733 0.950 . S
H738 C735 0.950 . S
C739 C730 1.390 . S
C739 H732 0.950 . S
C739 C736 1.387 . S
C740 C741 1.387 . S
C740 H744 0.950 . S
C740 C749 1.390 1_445 S
C741 C740 1.387 . S
C741 C743 1.387 . S
H742 C749 0.950 . S
C743 C741 1.387 . S
C743 C745 1.390 1_445 S
C743 H747 0.950 . S
H744 C740 0.950 . S
C745 C743 1.390 1_665 S
C745 C746 1.387 . S
C745 H748 0.950 . S
C746 C745 1.387 . S
C746 C749 1.387 . S
H747 C743 0.950 . S
H748 C745 0.950 . S
C749 C740 1.390 1_665 S
C749 H742 0.950 . S
C749 C746 1.387 . S
C750 C751 1.387 . S
C750 H754 0.950 . S
C750 C759 1.390 . S
C751 C750 1.387 . S
C751 C753 1.387 . S
H752 C759 0.950 . S
C753 C751 1.387 . S
C753 C755 1.390 . S
C753 H757 0.950 . S
H754 C750 0.950 . S
C755 C753 1.390 . S
C755 C756 1.387 . S
C755 H758 0.950 . S
C756 C755 1.387 . S
C756 C759 1.387 . S
H757 C753 0.950 . S
H758 C755 0.950 . S
C759 C750 1.390 . S
C759 H752 0.950 . S
C759 C756 1.387 . S
C760 C761 1.387 . S
C760 H764 0.950 . S
C760 C769 1.390 . S
C761 C760 1.387 . S
C761 C763 1.387 . S
H762 C769 0.950 . S
C763 C761 1.387 . S
C763 C765 1.390 . S
C763 H767 0.950 . S
H764 C760 0.950 . S
C765 C763 1.390 . S
C765 C766 1.387 . S
C765 H768 0.950 . S
C766 C765 1.387 . S
C766 C769 1.387 . S
H767 C763 0.950 . S
H768 C765 0.950 . S
C769 C760 1.390 . S
C769 H762 0.950 . S
C769 C766 1.387 . S
C770 C771 1.387 . S
C770 H774 0.950 . S
C770 C779 1.390 . S
C771 C770 1.387 . S
C771 C773 1.387 . S
H772 C779 0.950 . S
C773 C771 1.387 . S
C773 C775 1.390 . S
C773 H777 0.950 . S
H774 C770 0.950 . S
C775 C773 1.390 . S
C775 C776 1.387 . S
C775 H778 0.950 . S
C776 C775 1.387 . S
C776 C779 1.387 . S
H777 C773 0.950 . S
H778 C775 0.950 . S
C779 C770 1.390 . S
C779 H772 0.950 . S
C779 C776 1.387 . S
C780 C781 1.387 . S
C780 H784 0.950 . S
C780 C789 1.390 1_455 S
C781 C780 1.387 . S
C781 C783 1.387 . S
H782 C789 0.950 . S
C783 C781 1.387 . S
C783 C785 1.390 1_455 S
C783 H787 0.950 . S
H784 C780 0.950 . S
C785 C783 1.390 1_655 S
C785 C786 1.387 . S
C785 H788 0.950 . S
C786 C785 1.387 . S
C786 C789 1.387 . S
H787 C783 0.950 . S
H788 C785 0.950 . S
C789 C780 1.390 1_655 S
C789 H782 0.950 . S
C789 C786 1.387 . S
C790 C791 1.387 . S
C790 H794 0.950 . S
C790 C799 1.390 . S
C791 C790 1.387 . S
C791 C793 1.387 1_556 S
H792 C799 0.950 . S
C793 C791 1.387 1_554 S
C793 C795 1.390 . S
C793 H797 0.950 . S
H794 C790 0.950 . S
C795 C793 1.390 . S
C795 C796 1.387 . S
C795 H798 0.950 . S
C796 C795 1.387 . S
C796 C799 1.387 1_554 S
H797 C793 0.950 . S
H798 C795 0.950 . S
C799 C790 1.390 . S
C799 H792 0.950 . S
C799 C796 1.387 1_556 S
C800 C801 1.387 . S
C800 H804 0.950 . S
C800 C809 1.390 . S
C801 C800 1.387 . S
C801 C803 1.387 . S
H802 C809 0.950 . S
C803 C801 1.387 . S
C803 C805 1.390 . S
C803 H807 0.950 . S
H804 C800 0.950 . S
C805 C803 1.390 . S
C805 C806 1.387 . S
C805 H808 0.950 . S
C806 C805 1.387 . S
C806 C809 1.387 . S
H807 C803 0.950 . S
H808 C805 0.950 . S
C809 C800 1.390 . S
C809 H802 0.950 . S
C809 C806 1.387 . S
C810 C811 1.387 . S
C810 H814 0.950 . S
C810 C819 1.390 . S
C811 C810 1.387 . S
C811 C813 1.387 . S
H812 C819 0.950 . S
C813 C811 1.387 . S
C813 C815 1.390 . S
C813 H817 0.950 . S
H814 C810 0.950 . S
C815 C813 1.390 . S
C815 C816 1.387 . S
C815 H818 0.950 . S
C816 C815 1.387 . S
C816 C819 1.387 . S
H817 C813 0.950 . S
H818 C815 0.950 . S
C819 C810 1.390 . S
C819 H812 0.950 . S
C819 C816 1.387 . S
C820 C821 1.387 . S
C820 H824 0.950 . S
C820 C829 1.390 . S
C821 C820 1.387 . S
C821 C823 1.387 . S
H822 C829 0.950 . S
C823 C821 1.387 . S
C823 C825 1.390 . S
C823 H827 0.950 . S
H824 C820 0.950 . S
C825 C823 1.390 . S
C825 C826 1.387 . S
C825 H828 0.950 . S
C826 C825 1.387 . S
C826 C829 1.387 . S
H827 C823 0.950 . S
H828 C825 0.950 . S
C829 C820 1.390 . S
C829 H822 0.950 . S
C829 C826 1.387 . S
C830 C831 1.387 . S
C830 H834 0.950 . S
C830 C839 1.390 . S
C831 C830 1.387 . S
C831 C833 1.387 . S
H832 C839 0.950 . S
C833 C831 1.387 . S
C833 C835 1.390 . S
C833 H837 0.950 . S
H834 C830 0.950 . S
C835 C833 1.390 . S
C835 C836 1.387 . S
C835 H838 0.950 . S
C836 C835 1.387 . S
C836 C839 1.387 . S
H837 C833 0.950 . S
H838 C835 0.950 . S
C839 C830 1.390 . S
C839 H832 0.950 . S
C839 C836 1.387 . S
C840 C841 1.387 . S
C840 H844 0.950 . S
C840 C849 1.390 . S
C841 C840 1.387 . S
C841 C843 1.387 . S
H842 C849 0.950 . S
C843 C841 1.387 . S
C843 C845 1.390 . S
C843 H847 0.950 . S
H844 C840 0.950 . S
C845 C843 1.390 . S
C845 C846 1.387 . S
C845 H848 0.950 . S
C846 C845 1.387 . S
C846 C849 1.387 . S
H847 C843 0.950 . S
H848 C845 0.950 . S
C849 C840 1.390 . S
C849 H842 0.950 . S
C849 C846 1.387 . S
C850 C851 1.387 . S
C850 H854 0.950 . S
C850 C859 1.390 . S
C851 C850 1.387 . S
C851 C853 1.387 . S
H852 C859 0.950 . S
C853 C851 1.387 . S
C853 C855 1.390 . S
C853 H857 0.950 . S
H854 C850 0.950 . S
C855 C853 1.390 . S
C855 C856 1.387 . S
C855 H858 0.950 . S
C856 C855 1.387 . S
C856 C859 1.387 . S
H857 C853 0.950 . S
H858 C855 0.950 . S
C859 C850 1.390 . S
C859 H852 0.950 . S
C859 C856 1.387 . S
C860 C861 1.387 . S
C860 H864 0.950 . S
C860 C869 1.390 . S
C861 C860 1.387 . S
C861 C863 1.387 . S
H862 C869 0.950 . S
C863 C861 1.387 . S
C863 C865 1.390 . S
C863 H867 0.950 . S
H864 C860 0.950 . S
C865 C863 1.390 . S
C865 C866 1.387 . S
C865 H868 0.950 . S
C866 C865 1.387 . S
C866 C869 1.387 . S
H867 C863 0.950 . S
H868 C865 0.950 . S
C869 C860 1.390 . S
C869 H862 0.950 . S
C869 C866 1.387 . S
C870 C871 1.387 . S
C870 H874 0.950 . S
C870 C879 1.390 . S
C871 C870 1.387 . S
C871 C873 1.387 . S
H872 C879 0.950 . S
C873 C871 1.387 . S
C873 C875 1.390 . S
C873 H877 0.950 . S
H874 C870 0.950 . S
C875 C873 1.390 . S
C875 C876 1.387 . S
C875 H878 0.950 . S
C876 C875 1.387 . S
C876 C879 1.387 . S
H877 C873 0.950 . S
H878 C875 0.950 . S
C879 C870 1.390 . S
C879 H872 0.950 . S
C879 C876 1.387 . S
C880 C881 1.387 . S
C880 H884 0.950 . S
C880 C889 1.390 . S
C881 C880 1.387 . S
C881 C883 1.387 . S
H882 C889 0.950 . S
C883 C881 1.387 . S
C883 C885 1.390 . S
C883 H887 0.950 . S
H884 C880 0.950 . S
C885 C883 1.390 . S
C885 C886 1.387 . S
C885 H888 0.950 . S
C886 C885 1.387 . S
C886 C889 1.387 . S
H887 C883 0.950 . S
H888 C885 0.950 . S
C889 C880 1.390 . S
C889 H882 0.950 . S
C889 C886 1.387 . S
C890 C891 1.387 . S
C890 H894 0.950 . S
C890 C899 1.390 . S
C891 C890 1.387 . S
C891 C893 1.387 . S
H892 C899 0.950 . S
C893 C891 1.387 . S
C893 C895 1.390 . S
C893 H897 0.950 . S
H894 C890 0.950 . S
C895 C893 1.390 . S
C895 C896 1.387 . S
C895 H898 0.950 . S
C896 C895 1.387 . S
C896 C899 1.387 . S
H897 C893 0.950 . S
H898 C895 0.950 . S
C899 C890 1.390 . S
C899 H892 0.950 . S
C899 C896 1.387 . S
C900 C901 1.387 . S
C900 H904 0.950 . S
C900 C909 1.390 . S
C901 C900 1.387 . S
C901 C903 1.387 . S
H902 C909 0.950 . S
C903 C901 1.387 . S
C903 C905 1.390 . S
C903 H907 0.950 . S
H904 C900 0.950 . S
C905 C903 1.390 . S
C905 C906 1.387 . S
C905 H908 0.950 . S
C906 C905 1.387 . S
C906 C909 1.387 . S
H907 C903 0.950 . S
H908 C905 0.950 . S
C909 C900 1.390 . S
C909 H902 0.950 . S
C909 C906 1.387 . S
C910 C911 1.387 . S
C910 H914 0.950 . S
C910 C919 1.390 . S
C911 C910 1.387 . S
C911 C913 1.387 . S
H912 C919 0.950 . S
C913 C911 1.387 . S
C913 C915 1.390 . S
C913 H917 0.950 . S
H914 C910 0.950 . S
C915 C913 1.390 . S
C915 C916 1.387 . S
C915 H918 0.950 . S
C916 C915 1.387 . S
C916 C919 1.387 . S
H917 C913 0.950 . S
H918 C915 0.950 . S
C919 C910 1.390 . S
C919 H912 0.950 . S
C919 C916 1.387 . S
C920 C921 1.387 . S
C920 H924 0.950 . S
C920 C929 1.390 . S
C921 C920 1.387 . S
C921 C923 1.387 . S
H922 C929 0.950 . S
C923 C921 1.387 . S
C923 C925 1.390 . S
C923 H927 0.950 . S
H924 C920 0.950 . S
C925 C923 1.390 . S
C925 C926 1.387 . S
C925 H928 0.950 . S
C926 C925 1.387 . S
C926 C929 1.387 . S
H927 C923 0.950 . S
H928 C925 0.950 . S
C929 C920 1.390 . S
C929 H922 0.950 . S
C929 C926 1.387 . S
C930 C931 1.387 . S
C930 H934 0.950 . S
C930 C939 1.390 . S
C931 C930 1.387 . S
C931 C933 1.387 . S
H932 C939 0.950 . S
C933 C931 1.387 . S
C933 C935 1.390 . S
C933 H937 0.950 . S
H934 C930 0.950 . S
C935 C933 1.390 . S
C935 C936 1.387 . S
C935 H938 0.950 . S
C936 C935 1.387 . S
C936 C939 1.387 . S
H937 C933 0.950 . S
H938 C935 0.950 . S
C939 C930 1.390 . S
C939 H932 0.950 . S
C939 C936 1.387 . S
C940 C941 1.387 . S
C940 H944 0.950 . S
C940 C949 1.390 . S
C941 C940 1.387 . S
C941 C943 1.387 . S
H942 C949 0.950 . S
C943 C941 1.387 . S
C943 C945 1.390 . S
C943 H947 0.950 . S
H944 C940 0.950 . S
C945 C943 1.390 . S
C945 C946 1.387 . S
C945 H948 0.950 . S
C946 C945 1.387 . S
C946 C949 1.387 . S
H947 C943 0.950 . S
H948 C945 0.950 . S
C949 C940 1.390 . S
C949 H942 0.950 . S
C949 C946 1.387 . S
C950 C951 1.387 . S
C950 H954 0.950 . S
C950 C959 1.390 . S
C951 C950 1.387 . S
C951 C953 1.387 . S
H952 C959 0.950 . S
C953 C951 1.387 . S
C953 C955 1.390 . S
C953 H957 0.950 . S
H954 C950 0.950 . S
C955 C953 1.390 . S
C955 C956 1.387 . S
C955 H958 0.950 . S
C956 C955 1.387 . S
C956 C959 1.387 . S
H957 C953 0.950 . S
H958 C955 0.950 . S
C959 C950 1.390 . S
C959 H952 0.950 . S
C959 C956 1.387 . S
C960 C961 1.387 . S
C960 H964 0.950 1_556 S
C960 C969 1.390 . S
C961 C960 1.387 . S
C961 C963 1.387 . S
H962 C969 0.950 . S
C963 C961 1.387 . S
C963 C965 1.390 . S
C963 H967 0.950 . S
H964 C960 0.950 1_554 S
C965 C963 1.390 . S
C965 C966 1.387 . S
C965 H968 0.950 . S
C966 C965 1.387 . S
C966 C969 1.387 . S
H967 C963 0.950 . S
H968 C965 0.950 . S
C969 C960 1.390 . S
C969 H962 0.950 . S
C969 C966 1.387 . S
C970 C971 1.387 . S
C970 H974 0.950 . S
C970 C979 1.390 . S
C971 C970 1.387 . S
C971 C973 1.387 . S
H972 C979 0.950 . S
C973 C971 1.387 . S
C973 C975 1.390 . S
C973 H977 0.950 . S
H974 C970 0.950 . S
C975 C973 1.390 . S
C975 C976 1.387 . S
C975 H978 0.950 . S
C976 C975 1.387 . S
C976 C979 1.387 . S
H977 C973 0.950 . S
H978 C975 0.950 . S
C979 C970 1.390 . S
C979 H972 0.950 . S
C979 C976 1.387 . S
C980 C981 1.387 . S
C980 H984 0.950 . S
C980 C989 1.390 . S
C981 C980 1.387 . S
C981 C983 1.387 . S
H982 C989 0.950 . S
C983 C981 1.387 . S
C983 C985 1.390 . S
C983 H987 0.950 . S
H984 C980 0.950 . S
C985 C983 1.390 . S
C985 C986 1.387 . S
C985 H988 0.950 . S
C986 C985 1.387 . S
C986 C989 1.387 . S
H987 C983 0.950 . S
H988 C985 0.950 . S
C989 C980 1.390 . S
C989 H982 0.950 . S
C989 C986 1.387 . S
C990 C991 1.387 . S
C990 H994 0.950 . S
C990 C999 1.390 . S
C991 C990 1.387 . S
C991 C993 1.387 . S
H992 C999 0.950 . S
C993 C991 1.387 . S
C993 C995 1.390 . S
C993 H997 0.950 . S
H994 C990 0.950 . S
C995 C993 1.390 . S
C995 C996 1.387 . S
C995 H998 0.950 . S
C996 C995 1.387 . S
C996 C999 1.387 . S
H997 C993 0.950 . S
H998 C995 0.950 . S
C999 C990 1.390 . S
C999 H992 0.950 . S
C999 C996 1.387 . S
C1000 C1001 1.387 . S
C1000 H1004 0.950 . S
C1000 C1009 1.390 . S
C1001 C1000 1.387 . S
C1001 C1003 1.387 . S
H1002 C1009 0.950 . S
C1003 C1001 1.387 . S
C1003 C1005 1.390 . S
C1003 H1007 0.950 . S
H1004 C1000 0.950 . S
C1005 C1003 1.390 . S
C1005 C1006 1.387 . S
C1005 H1008 0.950 1_554 S
C1006 C1005 1.387 . S
C1006 C1009 1.387 . S
H1007 C1003 0.950 . S
H1008 C1005 0.950 1_556 S
C1009 C1000 1.390 . S
C1009 H1002 0.950 . S
C1009 C1006 1.387 . S
C1010 C1011 1.387 . S
C1010 H1014 0.950 . S
C1010 C1019 1.390 . S
C1011 C1010 1.387 . S
C1011 C1013 1.387 . S
H1012 C1019 0.950 . S
C1013 C1011 1.387 . S
C1013 C1015 1.390 . S
C1013 H1017 0.950 . S
H1014 C1010 0.950 . S
C1015 C1013 1.390 . S
C1015 C1016 1.387 . S
C1015 H1018 0.950 . S
C1016 C1015 1.387 . S
C1016 C1019 1.387 . S
H1017 C1013 0.950 . S
H1018 C1015 0.950 . S
C1019 C1010 1.390 . S
C1019 H1012 0.950 . S
C1019 C1016 1.387 . S
C1020 C1021 1.387 . S
C1020 H1024 0.950 . S
C1020 C1029 1.390 . S
C1021 C1020 1.387 . S
C1021 C1023 1.387 . S
H1022 C1029 0.950 . S
C1023 C1021 1.387 . S
C1023 C1025 1.390 . S
C1023 H1027 0.950 . S
H1024 C1020 0.950 . S
C1025 C1023 1.390 . S
C1025 C1026 1.387 . S
C1025 H1028 0.950 . S
C1026 C1025 1.387 . S
C1026 C1029 1.387 . S
H1027 C1023 0.950 . S
H1028 C1025 0.950 . S
C1029 C1020 1.390 . S
C1029 H1022 0.950 . S
C1029 C1026 1.387 . S
C1030 C1031 1.387 . S
C1030 H1034 0.950 . S
C1030 C1039 1.390 . S
C1031 C1030 1.387 . S
C1031 C1033 1.387 . S
H1032 C1039 0.950 . S
C1033 C1031 1.387 . S
C1033 C1035 1.390 . S
C1033 H1037 0.950 . S
H1034 C1030 0.950 . S
C1035 C1033 1.390 . S
C1035 C1036 1.387 . S
C1035 H1038 0.950 . S
C1036 C1035 1.387 . S
C1036 C1039 1.387 . S
H1037 C1033 0.950 . S
H1038 C1035 0.950 . S
C1039 C1030 1.390 . S
C1039 H1032 0.950 . S
C1039 C1036 1.387 . S
C1040 C1041 1.387 . S
C1040 H1044 0.950 . S
C1040 C1049 1.390 . S
C1041 C1040 1.387 . S
C1041 C1043 1.387 . S
H1042 C1049 0.950 . S
C1043 C1041 1.387 . S
C1043 C1045 1.390 . S
C1043 H1047 0.950 . S
H1044 C1040 0.950 . S
C1045 C1043 1.390 . S
C1045 C1046 1.387 . S
C1045 H1048 0.950 . S
C1046 C1045 1.387 . S
C1046 C1049 1.387 . S
H1047 C1043 0.950 . S
H1048 C1045 0.950 . S
C1049 C1040 1.390 . S
C1049 H1042 0.950 . S
C1049 C1046 1.387 . S
C1050 C1051 1.387 . S
C1050 H1054 0.950 . S
C1050 C1059 1.390 . S
C1051 C1050 1.387 . S
C1051 C1053 1.387 . S
H1052 C1059 0.950 1_545 S
C1053 C1051 1.387 . S
C1053 C1055 1.390 . S
C1053 H1057 0.950 . S
H1054 C1050 0.950 . S
C1055 C1053 1.390 . S
C1055 C1056 1.387 . S
C1055 H1058 0.950 . S
C1056 C1055 1.387 . S
C1056 C1059 1.387 . S
H1057 C1053 0.950 . S
H1058 C1055 0.950 . S
C1059 C1050 1.390 . S
C1059 H1052 0.950 1_565 S
C1059 C1056 1.387 . S
C1060 C1061 1.387 . S
C1060 H1064 0.950 . S
C1060 C1069 1.390 . S
C1061 C1060 1.387 . S
C1061 C1063 1.387 . S
H1062 C1069 0.950 . S
C1063 C1061 1.387 . S
C1063 C1065 1.390 . S
C1063 H1067 0.950 . S
H1064 C1060 0.950 . S
C1065 C1063 1.390 . S
C1065 C1066 1.387 . S
C1065 H1068 0.950 1_556 S
C1066 C1065 1.387 . S
C1066 C1069 1.387 . S
H1067 C1063 0.950 . S
H1068 C1065 0.950 1_554 S
C1069 C1060 1.390 . S
C1069 H1062 0.950 . S
C1069 C1066 1.387 . S
C1070 C1071 1.387 . S
C1070 H1074 0.950 . S
C1070 C1079 1.390 . S
C1071 C1070 1.387 . S
C1071 C1073 1.387 . S
H1072 C1079 0.950 . S
C1073 C1071 1.387 . S
C1073 C1075 1.390 . S
C1073 H1077 0.950 1_545 S
H1074 C1070 0.950 . S
C1075 C1073 1.390 . S
C1075 C1076 1.387 . S
C1075 H1078 0.950 . S
C1076 C1075 1.387 . S
C1076 C1079 1.387 . S
H1077 C1073 0.950 1_565 S
H1078 C1075 0.950 . S
C1079 C1070 1.390 . S
C1079 H1072 0.950 . S
C1079 C1076 1.387 . S
C1080 C1081 1.387 . S
C1080 H1084 0.950 . S
C1080 C1089 1.390 . S
C1081 C1080 1.387 . S
C1081 C1083 1.387 . S
H1082 C1089 0.950 . S
C1083 C1081 1.387 . S
C1083 C1085 1.390 . S
C1083 H1087 0.950 . S
H1084 C1080 0.950 . S
C1085 C1083 1.390 . S
C1085 C1086 1.387 . S
C1085 H1088 0.950 . S
C1086 C1085 1.387 . S
C1086 C1089 1.387 . S
H1087 C1083 0.950 . S
H1088 C1085 0.950 . S
C1089 C1080 1.390 . S
C1089 H1082 0.950 . S
C1089 C1086 1.387 . S
C1090 C1091 1.387 . S
C1090 H1094 0.950 . S
C1090 C1099 1.390 . S
C1091 C1090 1.387 . S
C1091 C1093 1.387 . S
H1092 C1099 0.950 . S
C1093 C1091 1.387 . S
C1093 C1095 1.390 . S
C1093 H1097 0.950 . S
H1094 C1090 0.950 . S
C1095 C1093 1.390 . S
C1095 C1096 1.387 . S
C1095 H1098 0.950 . S
C1096 C1095 1.387 . S
C1096 C1099 1.387 . S
H1097 C1093 0.950 . S
H1098 C1095 0.950 . S
C1099 C1090 1.390 . S
C1099 H1092 0.950 . S
C1099 C1096 1.387 . S
C1100 C1101 1.387 . S
C1100 H1104 0.950 . S
C1100 C1109 1.390 . S
C1101 C1100 1.387 . S
C1101 C1103 1.387 . S
H1102 C1109 0.950 1_556 S
C1103 C1101 1.387 . S
C1103 C1105 1.390 . S
C1103 H1107 0.950 . S
H1104 C1100 0.950 . S
C1105 C1103 1.390 . S
C1105 C1106 1.387 . S
C1105 H1108 0.950 . S
C1106 C1105 1.387 . S
C1106 C1109 1.387 . S
H1107 C1103 0.950 . S
H1108 C1105 0.950 . S
C1109 C1100 1.390 . S
C1109 H1102 0.950 1_554 S
C1109 C1106 1.387 . S
C1110 C1111 1.387 . S
C1110 H1114 0.950 . S
C1110 C1119 1.390 . S
C1111 C1110 1.387 . S
C1111 C1113 1.387 . S
H1112 C1119 0.950 . S
C1113 C1111 1.387 . S
C1113 C1115 1.390 . S
C1113 H1117 0.950 . S
H1114 C1110 0.950 . S
C1115 C1113 1.390 . S
C1115 C1116 1.387 . S
C1115 H1118 0.950 . S
C1116 C1115 1.387 . S
C1116 C1119 1.387 . S
H1117 C1113 0.950 . S
H1118 C1115 0.950 . S
C1119 C1110 1.390 . S
C1119 H1112 0.950 . S
C1119 C1116 1.387 . S
C641 C17 3.064 . S
C646 C417 3.064 . S
C651 C57 3.064 . S
C656 C457 3.064 . S
C661 C97 3.064 . S
C666 C337 3.064 . S
C671 C377 3.063 . S
C676 C137 3.063 . S
C681 C162 3.063 . S
C686 C562 3.063 . S
C691 C602 3.064 . S
C696 C202 3.064 . S
C701 C482 3.063 . S
C706 C242 3.063 . S
C711 C282 3.063 . S
C716 C522 3.063 . S
C721 C29 1.338 1_556 S
C726 C168 1.338 1_554 S
C731 C69 1.334 . S
C736 C528 1.334 . S
C741 C109 1.333 . S
C746 C248 1.333 . S
C751 C149 1.334 . S
C756 C608 1.334 . S
C761 C208 1.338 . S
C766 C389 1.338 . S
C771 C469 1.337 . S
C776 C288 1.337 . S
C781 C488 1.338 . S
C786 C349 1.338 . S
C791 C429 1.339 1_556 S
C796 C568 1.339 1_554 S
C801 C8 1.509 . S
C806 C297 1.895 . S
C811 C48 1.513 . S
C816 C497 1.897 . S
C821 C88 1.512 . S
C826 C217 1.896 . S
C831 C128 1.507 . S
C836 C577 1.893 . S
C841 C122 1.894 . S
C846 C189 1.508 . S
C851 C229 1.513 . S
C856 C322 1.896 . S
C861 C269 1.513 . S
C866 C42 1.896 . S
C871 C402 1.896 . S
C876 C309 1.512 . S
C881 C328 1.513 . S
C886 C617 1.896 . S
C891 C177 1.896 . S
C896 C368 1.513 . S
C901 C537 1.895 . S
C906 C408 1.509 . S
C911 C257 1.896 . S
C916 C448 1.512 . S
C921 C509 1.508 . S
C926 C442 1.894 . S
C931 C549 1.508 . S
C936 C2 1.893 . S
C941 C362 1.893 . S
C946 C589 1.508 . S
C951 C629 1.513 . S
C956 C82 1.897 . S
C961 C12 4.074 1_556 S
C966 C391 4.001 . S
C971 C431 4.001 . S
C976 C52 4.074 . S
C981 C92 4.074 . S
C986 C471 4.002 . S
C991 C351 4.001 . S
C996 C132 4.074 . S
C1001 C532 4.001 . S
C1006 C191 4.074 1_554 S
C1011 C572 4.000 . S
C1016 C231 4.073 . S
C1021 C612 4.001 . S
C1026 C271 4.074 . S
C1031 C492 4.001 . S
C1036 C311 4.074 . S
C1041 C71 4.001 . S
C1046 C332 4.074 . S
C1051 C111 4.001 . S
C1056 C372 4.074 1_565 S
C1061 C151 4.000 . S
C1066 C412 4.073 1_556 S
C1071 C452 4.073 1_545 S
C1076 C31 4.001 . S
C1081 C212 4.000 . S
C1086 C511 4.073 . S
C1091 C252 4.002 . S
C1096 C551 4.074 1_545 S
C1101 C292 4.000 . S
C1106 C591 4.073 1_554 S
C1111 C172 4.002 . S
C1116 C631 4.074 1_565 S
