# Generated by pormake.
# Topology fnr, (5)-cn, num edge types: 1
# Building blocks:
#     Node 0, Type 0, BuildingBlock: XOMCOT_clean_sbu_1, # of connection points: 5
#     Node 1, Type 0, BuildingBlock: XOMCOT_clean_sbu_1, # of connection points: 5
#     Node 2, Type 0, BuildingBlock: XOMCOT_clean_sbu_1, # of connection points: 5
#     Node 3, Type 0, BuildingBlock: XOMCOT_clean_sbu_1, # of connection points: 5
#     Node 4, Type 0, BuildingBlock: XOMCOT_clean_sbu_1, # of connection points: 5
#     Node 5, Type 0, BuildingBlock: XOMCOT_clean_sbu_1, # of connection points: 5
#     Node 6, Type 0, BuildingBlock: XOMCOT_clean_sbu_1, # of connection points: 5
#     Node 7, Type 0, BuildingBlock: XOMCOT_clean_sbu_1, # of connection points: 5
#     Node 8, Type 0, BuildingBlock: XOMCOT_clean_sbu_1, # of connection points: 5
#     Node 9, Type 0, BuildingBlock: XOMCOT_clean_sbu_1, # of connection points: 5
#     Node 10, Type 0, BuildingBlock: XOMCOT_clean_sbu_1, # of connection points: 5
#     Node 11, Type 0, BuildingBlock: XOMCOT_clean_sbu_1, # of connection points: 5
#     Edge 12, Type (0, 0), BuildingBlock: TEMPAE_clean_linker_10, # of connection points: 2
#     Edge 13, Type (0, 0), BuildingBlock: TEMPAE_clean_linker_10, # of connection points: 2
#     Edge 14, Type (0, 0), BuildingBlock: TEMPAE_clean_linker_10, # of connection points: 2
#     Edge 15, Type (0, 0), BuildingBlock: TEMPAE_clean_linker_10, # of connection points: 2
#     Edge 16, Type (0, 0), BuildingBlock: TEMPAE_clean_linker_10, # of connection points: 2
#     Edge 17, Type (0, 0), BuildingBlock: TEMPAE_clean_linker_10, # of connection points: 2
#     Edge 18, Type (0, 0), BuildingBlock: TEMPAE_clean_linker_10, # of connection points: 2
#     Edge 19, Type (0, 0), BuildingBlock: TEMPAE_clean_linker_10, # of connection points: 2
#     Edge 20, Type (0, 0), BuildingBlock: TEMPAE_clean_linker_10, # of connection points: 2
#     Edge 21, Type (0, 0), BuildingBlock: TEMPAE_clean_linker_10, # of connection points: 2
#     Edge 22, Type (0, 0), BuildingBlock: TEMPAE_clean_linker_10, # of connection points: 2
#     Edge 23, Type (0, 0), BuildingBlock: TEMPAE_clean_linker_10, # of connection points: 2
#     Edge 24, Type (0, 0), BuildingBlock: TEMPAE_clean_linker_10, # of connection points: 2
#     Edge 25, Type (0, 0), BuildingBlock: TEMPAE_clean_linker_10, # of connection points: 2
#     Edge 26, Type (0, 0), BuildingBlock: TEMPAE_clean_linker_10, # of connection points: 2
#     Edge 27, Type (0, 0), BuildingBlock: TEMPAE_clean_linker_10, # of connection points: 2
#     Edge 28, Type (0, 0), BuildingBlock: TEMPAE_clean_linker_10, # of connection points: 2
#     Edge 29, Type (0, 0), BuildingBlock: TEMPAE_clean_linker_10, # of connection points: 2
#     Edge 30, Type (0, 0), BuildingBlock: TEMPAE_clean_linker_10, # of connection points: 2
#     Edge 31, Type (0, 0), BuildingBlock: TEMPAE_clean_linker_10, # of connection points: 2
#     Edge 32, Type (0, 0), BuildingBlock: TEMPAE_clean_linker_10, # of connection points: 2
#     Edge 33, Type (0, 0), BuildingBlock: TEMPAE_clean_linker_10, # of connection points: 2
#     Edge 34, Type (0, 0), BuildingBlock: TEMPAE_clean_linker_10, # of connection points: 2
#     Edge 35, Type (0, 0), BuildingBlock: TEMPAE_clean_linker_10, # of connection points: 2
#     Edge 36, Type (0, 0), BuildingBlock: TEMPAE_clean_linker_10, # of connection points: 2
#     Edge 37, Type (0, 0), BuildingBlock: TEMPAE_clean_linker_10, # of connection points: 2
#     Edge 38, Type (0, 0), BuildingBlock: TEMPAE_clean_linker_10, # of connection points: 2
#     Edge 39, Type (0, 0), BuildingBlock: TEMPAE_clean_linker_10, # of connection points: 2
#     Edge 40, Type (0, 0), BuildingBlock: TEMPAE_clean_linker_10, # of connection points: 2
#     Edge 41, Type (0, 0), BuildingBlock: TEMPAE_clean_linker_10, # of connection points: 2
# Relax obj value: 0.273
# Max RMSD: 0.193
# Mean RMSD: 0.190
data_MOF--net-fnr--node1-XOMCOT_clean_sbu_1--edge1-TEMPAE_clean_linker_10
_symmetry_space_group_name_H-M    P1
_symmetry_Int_Tables_number       1
_symmetry_cell_setting            triclinic
loop_
_symmetry_equiv_pos_as_xyz
'x, y, z'
_cell_length_a     41.195174
_cell_length_b     41.091161
_cell_length_c     51.515361
_cell_angle_alpha  89.980032
_cell_angle_beta   90.095817
_cell_angle_gamma 119.80405
loop_
_atom_site_label
_atom_site_type_symbol
_atom_site_fract_x
_atom_site_fract_y
_atom_site_fract_z
_atom_type_partial_charge
C0 C 0.41576 0.24273 0.09548 0.0
C1 C 0.39434 0.25922 0.09061 0.0
N2 N 0.37801 0.2476 0.06716 0.0
N3 N 0.41264 0.22037 0.07534 0.0
C4 C 0.38937 0.22384 0.05846 0.0
H5 H 0.43412 0.24835 0.11195 0.0
Co6 Co 0.44277 0.19889 0.0687 0.0
C7 C 0.38481 0.1191 0.06268 0.0
O8 O 0.4015 0.1114 0.0815 0.0
N9 N 0.47436 0.17888 0.06036 0.0
C10 C 0.49947 0.1525 0.03566 0.0
C11 C 0.4669 0.15069 0.04349 0.0
C12 C 0.51231 0.19807 0.06167 0.0
N13 N 0.52809 0.18259 0.04682 0.0
O14 O 0.4556 0.22311 0.03558 0.0
H15 H 0.4403 0.13227 0.03461 0.0
H16 H 0.52824 0.22499 0.07117 0.0
O17 O 0.39852 0.15311 0.05483 0.0
C18 C 0.48171 0.25572 0.04208 0.0
O19 O 0.48996 0.26308 0.06681 0.0
N20 N 0.43449 0.17992 0.10321 0.0
C21 C 0.43034 0.17435 0.15743 0.0
C22 C 0.39771 0.1609 0.1424 0.0
C23 C 0.40041 0.16434 0.11531 0.0
C24 C 0.46617 0.1917 0.11765 0.0
C25 C 0.46469 0.18866 0.14461 0.0
H26 H 0.37537 0.15688 0.10419 0.0
H27 H 0.49325 0.20637 0.10868 0.0
H28 H 0.38346 0.2116 0.03923 0.0
H29 H 0.39232 0.27946 0.10294 0.0
H30 H 0.50197 0.13436 0.02154 0.0
H31 H 0.37065 0.15026 0.15153 0.0
H32 H 0.49059 0.19937 0.15542 0.0
C33 C 0.1612 0.36258 0.60682 0.0
C34 C 0.12759 0.33665 0.59638 0.0
N35 N 0.13075 0.3381 0.57039 0.0
N36 N 0.18631 0.3803 0.58766 0.0
C37 C 0.16663 0.36482 0.56554 0.0
H38 H 0.16594 0.36919 0.62722 0.0
Co39 Co 0.23488 0.42281 0.59211 0.0
C40 C 0.28831 0.3974 0.57775 0.0
O41 O 0.30776 0.41578 0.59823 0.0
N42 N 0.2836 0.46679 0.59623 0.0
C43 C 0.33719 0.5136 0.61176 0.0
C44 C 0.30614 0.47992 0.61736 0.0
C45 C 0.30275 0.49334 0.57787 0.0
N46 N 0.33496 0.52251 0.58695 0.0
O47 O 0.2277 0.4452 0.56133 0.0
H48 H 0.30166 0.46589 0.63576 0.0
H49 H 0.29321 0.49154 0.55812 0.0
O50 O 0.25759 0.39705 0.57255 0.0
C51 C 0.20665 0.45838 0.56812 0.0
O52 O 0.19213 0.45076 0.59153 0.0
N53 N 0.23866 0.40333 0.62436 0.0
C54 C 0.22823 0.3776 0.6755 0.0
C55 C 0.23247 0.35682 0.65545 0.0
C56 C 0.23759 0.3702 0.62977 0.0
C57 C 0.23297 0.4227 0.64361 0.0
C58 C 0.22875 0.41096 0.66927 0.0
H59 H 0.23846 0.35296 0.61427 0.0
H60 H 0.23108 0.44734 0.63879 0.0
H61 H 0.17793 0.37401 0.54627 0.0
H62 H 0.10202 0.3197 0.60711 0.0
H63 H 0.36002 0.52985 0.62501 0.0
H64 H 0.23104 0.33028 0.65951 0.0
H65 H 0.22427 0.4271 0.68404 0.0
C66 C 0.87172 0.18982 0.07373 0.0
C67 C 0.86519 0.15555 0.06466 0.0
N68 N 0.83124 0.13822 0.05336 0.0
N69 N 0.84185 0.19401 0.06841 0.0
C70 C 0.81774 0.16198 0.05593 0.0
H71 H 0.89681 0.21048 0.08352 0.0
Co72 Co 0.83666 0.23605 0.07646 0.0
C73 C 0.90937 0.30092 0.05465 0.0
O74 O 0.9048 0.32814 0.06389 0.0
N75 N 0.83053 0.2774 0.08418 0.0
C76 C 0.81067 0.31273 0.10335 0.0
C77 C 0.81899 0.28448 0.10687 0.0
C78 C 0.82821 0.3012 0.06709 0.0
N79 N 0.81644 0.32332 0.0782 0.0
O80 O 0.80853 0.22932 0.04532 0.0
H81 H 0.81497 0.26885 0.1246 0.0
H82 H 0.83458 0.30172 0.04669 0.0
O83 O 0.88474 0.26671 0.05885 0.0
C84 C 0.77475 0.20975 0.05304 0.0
O85 O 0.7688 0.19591 0.07669 0.0
N86 N 0.85968 0.2406 0.10867 0.0
C87 C 0.87546 0.24437 0.16167 0.0
C88 C 0.89977 0.27305 0.14476 0.0
C89 C 0.89129 0.2707 0.11821 0.0
C90 C 0.83677 0.21185 0.12459 0.0
C91 C 0.84412 0.21308 0.15104 0.0
H92 H 0.90895 0.29399 0.10588 0.0
H93 H 0.81128 0.18872 0.1169 0.0
H94 H 0.79054 0.1557 0.04891 0.0
H95 H 0.88421 0.14458 0.06582 0.0
H96 H 0.79967 0.32337 0.11806 0.0
H97 H 0.92437 0.29765 0.15209 0.0
H98 H 0.82401 0.19064 0.16322 0.0
C99 C 0.67263 0.84938 0.55819 0.0
C100 C 0.69962 0.8436 0.54703 0.0
N101 N 0.68424 0.80696 0.54084 0.0
N102 N 0.63997 0.81672 0.55892 0.0
C103 C 0.64805 0.79139 0.54841 0.0
H104 H 0.67671 0.87587 0.56541 0.0
Co105 Co 0.59448 0.81006 0.57235 0.0
C106 C 0.59953 0.88597 0.56181 0.0
O107 O 0.57317 0.88064 0.57841 0.0
N108 N 0.54877 0.80287 0.58528 0.0
C109 C 0.4965 0.78253 0.6081 0.0
C110 C 0.53264 0.78881 0.60841 0.0
C111 C 0.52173 0.80428 0.57118 0.0
N112 N 0.4896 0.79227 0.58456 0.0
O113 O 0.5683 0.78492 0.54106 0.0
H114 H 0.54569 0.78202 0.62412 0.0
H115 H 0.52572 0.81382 0.55127 0.0
O116 O 0.60833 0.8604 0.55846 0.0
C117 C 0.55552 0.75031 0.5466 0.0
O118 O 0.5666 0.74227 0.56841 0.0
N119 N 0.61807 0.82898 0.60452 0.0
C120 C 0.64181 0.83765 0.65621 0.0
C121 C 0.63654 0.86522 0.64387 0.0
C122 C 0.62476 0.86044 0.61786 0.0
C123 C 0.62437 0.80275 0.616 0.0
C124 C 0.63637 0.80656 0.64166 0.0
H125 H 0.61994 0.88139 0.60914 0.0
H126 H 0.61844 0.77766 0.60543 0.0
H127 H 0.62789 0.76197 0.54661 0.0
H128 H 0.72822 0.86513 0.5435 0.0
H129 H 0.4765 0.77034 0.62374 0.0
H130 H 0.64068 0.88982 0.65438 0.0
H131 H 0.63942 0.78424 0.65038 0.0
C132 C 0.83458 0.66891 0.04724 0.0
C133 C 0.86824 0.69458 0.03633 0.0
N134 N 0.88589 0.6762 0.02836 0.0
N135 N 0.83094 0.6344 0.0462 0.0
C136 C 0.8628 0.63996 0.03473 0.0
H137 H 0.81378 0.67492 0.0551 0.0
Co138 Co 0.78979 0.58879 0.05746 0.0
C139 C 0.75669 0.61262 0.01663 0.0
O140 O 0.78152 0.61268 1.00062 0.0
N141 N 0.74948 0.54354 0.06804 0.0
C142 C 0.71698 0.48805 0.08697 0.0
C143 C 0.74801 0.52323 0.08897 0.0
C144 C 0.7193 0.52042 0.05363 0.0
N145 N 0.69909 0.48622 0.06457 0.0
O146 O 0.79338 0.56257 0.02779 0.0
H147 H 0.76934 0.53265 0.10386 0.0
H148 H 0.71355 0.52795 0.03475 0.0
O149 O 0.75595 0.60246 0.04016 0.0
C150 C 0.81324 0.54854 0.03554 0.0
O151 O 0.83018 0.55948 0.05813 0.0
N152 N 0.78746 0.61128 0.08845 0.0
C153 C 0.7833 0.62249 0.14141 0.0
C154 C 0.75219 0.61215 0.12523 0.0
C155 C 0.75495 0.60704 0.09858 0.0
C156 C 0.81843 0.62328 0.10367 0.0
C157 C 0.81713 0.62965 0.13012 0.0
H158 H 0.73012 0.59624 0.08663 0.0
H159 H 0.84351 0.62502 0.0957 0.0
H160 H 0.86929 0.61799 0.0311 0.0
H161 H 0.87841 0.72427 0.03389 0.0
H162 H 0.70956 0.46497 0.10022 0.0
H163 H 0.72553 0.60614 0.13333 0.0
H164 H 0.84155 0.63701 0.142 0.0
C165 C 0.2439 0.85925 0.59429 0.0
C166 C 0.258 0.89484 0.58476 0.0
N167 N 0.24134 0.89279 0.56188 0.0
N168 N 0.21824 0.83442 0.57762 0.0
C169 C 0.21718 0.85579 0.55789 0.0
H170 H 0.25286 0.85178 0.61194 0.0
Co171 Co 0.1971 0.78244 0.58299 0.0
C172 C 0.11713 0.75103 0.57004 0.0
O173 O 0.10977 0.7373 0.59364 0.0
N174 N 0.17676 0.7292 0.58842 0.0
C175 C 0.15183 0.67171 0.60552 0.0
C176 C 0.15624 0.70692 0.60833 0.0
C177 C 0.18314 0.70576 0.57338 0.0
N178 N 0.1692 0.6711 0.58362 0.0
O179 O 0.22337 0.78002 0.55283 0.0
H180 H 0.14532 0.71537 0.6244 0.0
H181 H 0.19867 0.71392 0.5555 0.0
O182 O 0.15132 0.77108 0.5627 0.0
C183 C 0.25505 0.78799 0.56265 0.0
O184 O 0.26031 0.79491 0.58765 0.0
N185 N 0.17821 0.78832 0.61479 0.0
C186 C 0.18037 0.81857 0.66367 0.0
C187 C 0.15944 0.82224 0.6435 0.0
C188 C 0.15928 0.8074 0.61886 0.0
C189 C 0.1977 0.78388 0.63456 0.0
C190 C 0.19849 0.79799 0.65914 0.0
H191 H 0.1467 0.81391 0.6027 0.0
H192 H 0.21499 0.77145 0.63075 0.0
H193 H 0.20068 0.84441 0.54044 0.0
H194 H 0.27972 0.92034 0.5936 0.0
H195 H 0.13742 0.64853 0.61886 0.0
H196 H 0.14572 0.83864 0.64623 0.0
H197 H 0.21503 0.79465 0.67418 0.0
C198 C 0.88096 0.57711 0.41573 0.0
C199 C 0.88255 0.54489 0.42009 0.0
N200 N 0.84844 0.51792 0.42761 0.0
N201 N 0.84608 0.57054 0.42072 0.0
C202 C 0.82678 0.53401 0.42786 0.0
H203 H 0.90415 0.60412 0.41032 0.0
Co204 Co 0.83439 0.60886 0.42178 0.0
C205 C 0.75252 0.57271 0.43638 0.0
O206 O 0.74976 0.59953 0.42454 0.0
N207 N 0.8244 0.64909 0.42326 0.0
C208 C 0.8199 0.69945 0.41371 0.0
C209 C 0.83002 0.67437 0.40458 0.0
C210 C 0.81231 0.66051 0.44394 0.0
N211 N 0.80812 0.69047 0.43844 0.0
O212 O 0.85806 0.62299 0.45561 0.0
H213 H 0.84103 0.67507 0.38549 0.0
H214 H 0.805 0.64577 0.46228 0.0
O215 O 0.78402 0.57326 0.43665 0.0
C216 C 0.8904 0.65218 0.45315 0.0
O217 O 0.9001 0.66824 0.43024 0.0
N218 N 0.81645 0.59754 0.38722 0.0
C219 C 0.8025 0.59503 0.33394 0.0
C220 C 0.77346 0.57353 0.3513 0.0
C221 C 0.78118 0.57437 0.37788 0.0
C222 C 0.84529 0.61652 0.37031 0.0
C223 C 0.83898 0.61578 0.34363 0.0
H224 H 0.75861 0.55627 0.39044 0.0
H225 H 0.87333 0.63377 0.3778 0.0
H226 H 0.79817 0.5199 0.43444 0.0
H227 H 0.90697 0.54162 0.41838 0.0
H228 H 0.82134 0.72259 0.40277 0.0
H229 H 0.74508 0.55611 0.34436 0.0
H230 H 0.86224 0.63242 0.33079 0.0
C231 C 0.17215 0.79809 0.90205 0.0
C232 C 0.1345 0.78187 0.90719 0.0
N233 N 0.12982 0.77973 0.93313 0.0
N234 N 0.19136 0.80714 0.92463 0.0
C235 C 0.16462 0.79451 0.94317 0.0
H236 H 0.18459 0.80218 0.883 0.0
Co237 Co 0.24323 0.82642 0.92942 0.0
C238 C 0.22955 0.88148 0.96175 0.0
O239 O 0.19562 0.87055 0.9532 0.0
N240 N 0.29463 0.84472 0.93476 0.0
C241 C 0.35419 0.88264 0.94562 0.0
C242 C 0.32131 0.88095 0.93805 0.0
C243 C 0.31229 0.825 0.93968 0.0
N244 N 0.34828 0.84743 0.94661 0.0
O245 O 0.23226 0.78998 0.95631 0.0
H246 H 0.31682 0.9046 0.9359 0.0
H247 H 0.29884 0.79474 0.93928 0.0
O248 O 0.24741 0.86528 0.9538 0.0
C249 C 0.2233 0.76051 0.9429 0.0
O250 O 0.22477 0.76335 0.91744 0.0
N251 N 0.25363 0.85814 0.90051 0.0
C252 C 0.24568 0.87328 0.84889 0.0
C253 C 0.2334 0.88754 0.86904 0.0
C254 C 0.23797 0.87989 0.89494 0.0
C255 C 0.2696 0.84809 0.88129 0.0
C256 C 0.26659 0.856 0.85545 0.0
H257 H 0.22482 0.8875 0.90988 0.0
H258 H 0.28131 0.83028 0.88566 0.0
H259 H 0.17077 0.79665 0.96374 0.0
H260 H 0.11227 0.77153 0.89292 0.0
H261 H 0.38028 0.90766 0.95035 0.0
H262 H 0.21731 0.90124 0.86489 0.0
H263 H 0.27768 0.84559 0.84059 0.0
C264 C 0.43965 0.30879 0.41395 0.0
C265 C 0.46912 0.34515 0.41302 0.0
N266 N 0.49513 0.34873 0.4305 0.0
N267 N 0.44715 0.28945 0.4318 0.0
C268 C 0.48081 0.3147 0.4418 0.0
H269 H 0.41504 0.29681 0.4017 0.0
Co270 Co 0.42005 0.23782 0.43851 0.0
C271 C 0.47709 0.22756 0.46743 0.0
O272 O 0.45421 0.21111 0.48696 0.0
N273 N 0.39407 0.1854 0.44526 0.0
C274 C 0.38279 0.12661 0.44267 0.0
C275 C 0.40596 0.1628 0.43515 0.0
C276 C 0.36347 0.16183 0.45945 0.0
N277 N 0.3559 0.12569 0.4579 0.0
O278 O 0.41022 0.24902 0.47313 0.0
H279 H 0.43062 0.17209 0.42327 0.0
H280 H 0.34717 0.17086 0.47065 0.0
O281 O 0.46635 0.23936 0.4482 0.0
C282 C 0.38252 0.2547 0.47035 0.0
O283 O 0.36592 0.24757 0.44758 0.0
N284 N 0.42612 0.22833 0.40377 0.0
C285 C 0.42635 0.2129 0.35104 0.0
C286 C 0.45993 0.23067 0.36526 0.0
C287 C 0.45927 0.23856 0.39164 0.0
C288 C 0.39339 0.21156 0.39021 0.0
C289 C 0.39281 0.20338 0.36389 0.0
H290 H 0.48534 0.25332 0.40211 0.0
H291 H 0.36748 0.20443 0.4 0.0
H292 H 0.49552 0.30783 0.45625 0.0
H293 H 0.47152 0.36697 0.40006 0.0
H294 H 0.38626 0.10283 0.43798 0.0
H295 H 0.48652 0.23921 0.35594 0.0
H296 H 0.36627 0.18954 0.35374 0.0
C297 C 0.25389 0.38897 0.91946 0.0
C298 C 0.26995 0.36851 0.92799 0.0
N299 N 0.26401 0.36288 0.95374 0.0
N300 N 0.23757 0.39607 0.93967 0.0
C301 C 0.24418 0.37981 0.9603 0.0
H302 H 0.25479 0.39884 0.89986 0.0
Co303 Co 0.21556 0.42652 0.93886 0.0
C304 C 0.16951 0.39473 0.98607 0.0
O305 O 0.19519 0.42182 1.00032 0.0
N306 N 0.19342 0.45683 0.9387 0.0
C307 C 0.15212 0.47571 0.94564 0.0
C308 C 0.15658 0.44528 0.94074 0.0
C309 C 0.21062 0.49448 0.94126 0.0
N310 N 0.18622 0.50658 0.94623 0.0
O311 O 0.2485 0.45712 0.96632 0.0
H312 H 0.13443 0.41638 0.93994 0.0
H313 H 0.24056 0.51252 0.94063 0.0
O314 O 0.17584 0.39237 0.96209 0.0
C315 C 0.28088 0.47719 0.95638 0.0
O316 O 0.28573 0.47188 0.93187 0.0
N317 N 0.18737 0.40029 0.90983 0.0
C318 C 0.16857 0.36898 0.86033 0.0
C319 C 0.15869 0.34584 0.88239 0.0
C320 C 0.16795 0.36216 0.90721 0.0
C321 C 0.19554 0.42291 0.88868 0.0
C322 C 0.18586 0.40786 0.86385 0.0
H323 H 0.16265 0.34443 0.92401 0.0
H324 H 0.21228 0.453 0.89087 0.0
H325 H 0.23608 0.38187 0.97994 0.0
H326 H 0.28521 0.35891 0.91614 0.0
H327 H 0.1259 0.4751 0.94908 0.0
H328 H 0.14561 0.31568 0.88038 0.0
H329 H 0.19469 0.42675 0.84738 0.0
C330 C 0.72634 0.16717 0.40564 0.0
C331 C 0.69394 0.16917 0.40549 0.0
N332 N 0.69337 0.1877 0.42697 0.0
N333 N 0.74639 0.18467 0.42698 0.0
C334 C 0.72553 0.19666 0.43965 0.0
H335 H 0.73477 0.15376 0.39119 0.0
Co336 Co 0.79178 0.18881 0.43774 0.0
C337 C 0.83498 0.27076 0.44622 0.0
O338 O 0.86238 0.27117 0.43288 0.0
N339 N 0.83688 0.19138 0.4497 0.0
C340 C 0.87758 0.17155 0.4572 0.0
C341 C 0.8437 0.16273 0.44634 0.0
C342 C 0.86611 0.21618 0.46451 0.0
N343 N 0.89195 0.20546 0.46848 0.0
O344 O 0.76777 0.16279 0.46946 0.0
H345 H 0.82501 0.13674 0.43656 0.0
H346 H 0.86843 0.24136 0.47275 0.0
O347 O 0.80621 0.23918 0.45193 0.0
C348 C 0.74924 0.12804 0.46324 0.0
O349 O 0.75099 0.11877 0.43908 0.0
N350 N 0.81327 0.21003 0.40471 0.0
C351 C 0.83896 0.2334 0.35405 0.0
C352 C 0.82019 0.2487 0.36754 0.0
C353 C 0.80735 0.23648 0.39277 0.0
C354 C 0.83016 0.19394 0.3912 0.0
C355 C 0.84399 0.20581 0.36622 0.0
H356 H 0.79193 0.24782 0.40253 0.0
H357 H 0.83163 0.17051 0.39903 0.0
H358 H 0.7334 0.21078 0.45823 0.0
H359 H 0.67262 0.15796 0.39057 0.0
H360 H 0.89027 0.15396 0.45721 0.0
H361 H 0.81499 0.26952 0.35854 0.0
H362 H 0.85688 0.19211 0.356 0.0
C363 C 0.68524 0.8357 0.94392 0.0
C364 C 0.71398 0.86763 0.95488 0.0
N365 N 0.69957 0.88813 0.96462 0.0
N366 N 0.65284 0.83615 0.94653 0.0
C367 C 0.66262 0.86851 0.95928 0.0
H368 H 0.68784 0.81355 0.93455 0.0
Co369 Co 0.6055 0.79923 0.93446 0.0
C370 C 0.60425 0.726 0.94795 0.0
O371 O 0.57616 0.70508 0.93244 0.0
N372 N 0.55795 0.76264 0.923 0.0
C373 C 0.50368 0.73237 0.90208 0.0
C374 C 0.54068 0.76013 0.90024 0.0
C375 C 0.53083 0.73682 0.9384 0.0
N376 N 0.49749 0.7177 0.92623 0.0
O377 O 0.58204 0.80288 0.96571 0.0
H378 H 0.55371 0.77818 0.8837 0.0
H379 H 0.53582 0.7322 0.95831 0.0
O380 O 0.61631 0.76131 0.94957 0.0
C381 C 0.57125 0.82597 0.95898 0.0
O382 O 0.58343 0.84367 0.93676 0.0
N383 N 0.62659 0.79934 0.90208 0.0
C384 C 0.64745 0.80875 0.84979 0.0
C385 C 0.63919 0.77557 0.86304 0.0
C386 C 0.62887 0.77141 0.88933 0.0
C387 C 0.63574 0.83208 0.88967 0.0
C388 C 0.64639 0.83746 0.86371 0.0
H389 H 0.62146 0.74534 0.89879 0.0
H390 H 0.63316 0.85373 0.89977 0.0
H391 H 0.64333 0.87808 0.96432 0.0
H392 H 0.74308 0.87495 0.95591 0.0
H393 H 0.48288 0.72445 0.88693 0.0
H394 H 0.63982 0.75272 0.85303 0.0
H395 H 0.65177 0.86325 0.8543 0.0
C396 C 0.74395 0.24004 0.02928 0.0
C397 C 0.74254 0.20756 0.03905 0.0
C398 C 0.71086 0.24155 0.0255 0.0
C399 C 0.67591 0.20962 0.03144 0.0
C400 C 0.67447 0.17559 0.03845 0.0
C401 C 0.70784 0.17506 0.0422 0.0
C402 C 0.7139 0.27827 0.01748 0.0
C403 C 0.63787 0.14058 0.04446 0.0
C404 C 0.59364 0.21232 0.06153 0.0
C405 C 0.56717 0.1967 0.04159 0.0
C406 C 0.63054 0.21995 0.05775 0.0
C407 C 0.64108 0.21198 0.0334 0.0
C408 C 0.61548 0.19993 0.01249 0.0
C409 C 0.57873 0.1922 0.01687 0.0
C410 C 0.65739 0.23374 0.08039 0.0
C411 C 0.62612 0.1927 0.98598 0.0
H412 H 0.77077 0.26516 0.0268 0.0
H413 H 0.70683 0.14989 0.04969 0.0
H414 H 0.6884 0.27418 0.00728 0.0
H415 H 0.71799 0.29554 0.03504 0.0
H416 H 0.73845 0.2943 0.00464 0.0
H417 H 0.64142 0.11576 0.04751 0.0
H418 H 0.6256 0.1451 0.06233 0.0
H419 H 0.61754 0.13424 0.02846 0.0
H420 H 0.58484 0.21624 0.08053 0.0
H421 H 0.55861 0.18138 1.00114 0.0
H422 H 0.68461 0.25787 0.07441 0.0
H423 H 0.6627 0.21107 0.08696 0.0
H424 H 0.64634 0.24243 0.09705 0.0
H425 H 0.65415 0.21585 0.98033 0.0
H426 H 0.60548 0.18967 0.9709 0.0
H427 H 0.62763 0.16649 0.98646 0.0
C428 C 0.36389 0.55836 0.54635 0.0
C429 C 0.36144 0.55657 0.5736 0.0
C430 C 0.39155 0.59074 0.53364 0.0
C431 C 0.41784 0.62172 0.54851 0.0
C432 C 0.41411 0.62081 0.57587 0.0
C433 C 0.38589 0.58858 0.58795 0.0
C434 C 0.39336 0.59121 0.5044 0.0
C435 C 0.44102 0.65337 0.59264 0.0
C436 C 0.51986 0.68388 0.53415 0.0
C437 C 0.52239 0.71917 0.53402 0.0
C438 C 0.48508 0.65089 0.53551 0.0
C439 C 0.45199 0.65333 0.53648 0.0
C440 C 0.45427 0.68849 0.53197 0.0
C441 C 0.48967 0.72119 0.53079 0.0
C442 C 0.48433 0.61419 0.53988 0.0
C443 C 0.4198 0.69246 0.53155 0.0
H444 H 0.34503 0.53417 0.5349 0.0
H445 H 0.38346 0.58838 0.60886 0.0
H446 H 0.40063 0.61925 0.49669 0.0
H447 H 0.41542 0.58499 0.49807 0.0
H448 H 0.3664 0.56985 0.4957 0.0
H449 H 0.43391 0.64843 0.6136 0.0
H450 H 0.46989 0.65838 0.59001 0.0
H451 H 0.44098 0.67931 0.58675 0.0
H452 H 0.54521 0.68227 0.53641 0.0
H453 H 0.49147 0.74834 0.53032 0.0
H454 H 0.46167 0.59136 0.52843 0.0
H455 H 0.47876 0.60644 0.56071 0.0
H456 H 0.51133 0.61602 0.53461 0.0
H457 H 0.3946 0.66612 0.5254 0.0
H458 H 0.42374 0.71542 0.51826 0.0
H459 H 0.4148 0.69981 0.5513 0.0
C460 C 0.80753 0.35288 0.03865 0.0
C461 C 0.81062 0.3517 0.06582 0.0
C462 C 0.80362 0.38141 0.02649 0.0
C463 C 0.80307 0.40969 0.04177 0.0
C464 C 0.80474 0.40795 0.06917 0.0
C465 C 0.80861 0.37918 0.08079 0.0
C466 C 0.80082 0.38175 0.99729 0.0
C467 C 0.80387 0.43737 0.08629 0.0
C468 C 0.8424 0.51101 0.02401 0.0
C469 C 0.81008 0.51409 0.0245 0.0
C470 C 0.84022 0.476 0.02634 0.0
C471 C 0.8048 0.44345 0.02959 0.0
C472 C 0.7719 0.44595 0.0264 0.0
C473 C 0.77499 0.48146 0.02368 0.0
C474 C 0.87607 0.4747 0.02895 0.0
C475 C 0.73342 0.41211 0.02919 0.0
H476 H 0.80841 0.33173 0.02671 0.0
H477 H 0.81124 0.37907 0.10167 0.0
H478 H 0.77514 0.38235 0.9916 0.0
H479 H 0.825 0.40748 0.98936 0.0
H480 H 0.80017 0.35693 0.98819 0.0
H481 H 0.8032 0.43079 0.10727 0.0
H482 H 0.82901 0.46505 0.08258 0.0
H483 H 0.77895 0.43999 0.0817 0.0
H484 H 0.86955 0.53632 0.02468 0.0
H485 H 0.74993 0.48376 0.02408 0.0
H486 H 0.87415 0.45032 0.01834 0.0
H487 H 0.88106 0.47153 0.04975 0.0
H488 H 0.90054 0.5007 0.02152 0.0
H489 H 0.73292 0.3858 0.02361 0.0
H490 H 0.71271 0.41522 0.01716 0.0
H491 H 0.72444 0.40962 0.04975 0.0
C492 C 0.44736 0.7886 0.54868 0.0
C493 C 0.45503 0.78958 0.5754 0.0
C494 C 0.41402 0.78628 0.53964 0.0
C495 C 0.38782 0.78552 0.55768 0.0
C496 C 0.39522 0.7863 0.58463 0.0
C497 C 0.42856 0.78824 0.59311 0.0
C498 C 0.40694 0.78491 0.5108 0.0
C499 C 0.36816 0.78575 0.60463 0.0
C500 C 0.31947 0.82016 0.54663 0.0
C501 C 0.28531 0.78664 0.54846 0.0
C502 C 0.35353 0.8201 0.54674 0.0
C503 C 0.35328 0.78559 0.54886 0.0
C504 C 0.31878 0.75151 0.54733 0.0
C505 C 0.28511 0.75247 0.54722 0.0
C506 C 0.38956 0.85715 0.548 0.0
C507 C 0.31705 0.71401 0.54906 0.0
H508 H 0.46722 0.78939 0.53468 0.0
H509 H 0.4342 0.78956 0.61372 0.0
H510 H 0.37983 0.75973 0.50594 0.0
H511 H 0.40494 0.80979 0.50483 0.0
H512 H 0.42937 0.7842 0.49931 0.0
H513 H 0.37768 0.78579 0.62482 0.0
H514 H 0.36464 0.81065 0.60207 0.0
H515 H 0.34027 0.76048 0.60194 0.0
H516 H 0.31971 0.84662 0.54813 0.0
H517 H 0.25893 0.72643 0.54919 0.0
H518 H 0.41147 0.85657 0.53586 0.0
H519 H 0.3999 0.86262 0.56832 0.0
H520 H 0.38562 0.88076 0.54151 0.0
H521 H 0.34007 0.71405 0.53789 0.0
H522 H 0.28988 0.69093 0.54181 0.0
H523 H 0.32021 0.70808 0.56964 0.0
C524 C 0.66216 0.44925 0.02648 0.0
C525 C 0.6675 0.45343 0.05352 0.0
C526 C 0.63177 0.41706 0.01565 0.0
C527 C 0.60619 0.38829 0.03222 0.0
C528 C 0.61153 0.39233 0.05949 0.0
C529 C 0.64197 0.42478 0.06973 0.0
C530 C 0.62738 0.41365 0.98653 0.0
C531 C 0.58489 0.36241 0.078 0.0
C532 C 0.50515 0.31711 0.02217 0.0
C533 C 0.50711 0.28414 0.02373 0.0
C534 C 0.53792 0.35222 0.02107 0.0
C535 C 0.57314 0.35397 0.02174 0.0
C536 C 0.57481 0.32055 0.01877 0.0
C537 C 0.5415 0.28584 0.01955 0.0
C538 C 0.53473 0.38712 0.02339 0.0
C539 C 0.61164 0.32095 0.01894 0.0
H540 H 0.68209 0.47081 0.01369 0.0
H541 H 0.64556 0.42791 0.09058 0.0
H542 H 0.63334 0.39161 0.97957 0.0
H543 H 0.59823 0.40504 0.98081 0.0
H544 H 0.64668 0.44034 0.97653 0.0
H545 H 0.59334 0.36966 0.09862 0.0
H546 H 0.5563 0.35822 0.07555 0.0
H547 H 0.58351 0.3353 0.07364 0.0
H548 H 0.47854 0.31579 0.0256 0.0
H549 H 0.54304 0.26029 0.02092 0.0
H550 H 0.55664 0.41041 0.01179 0.0
H551 H 0.53867 0.39621 0.044 0.0
H552 H 0.50682 0.382 0.01694 0.0
H553 H 0.63324 0.34521 0.00789 0.0
H554 H 0.60876 0.29467 0.01067 0.0
H555 H 0.62164 0.32355 0.03927 0.0
C556 C 0.23563 0.52395 0.55247 0.0
C557 C 0.20412 0.48802 0.5537 0.0
C558 C 0.2317 0.55603 0.551 0.0
C559 C 0.19539 0.55182 0.55053 0.0
C560 C 0.16386 0.51543 0.54811 0.0
C561 C 0.16861 0.48396 0.55002 0.0
C562 C 0.26621 0.59419 0.55341 0.0
C563 C 0.12467 0.50948 0.54693 0.0
C564 C 0.1782 0.61724 0.59302 0.0
C565 C 0.1758 0.64143 0.5749 0.0
C566 C 0.18523 0.58863 0.58524 0.0
C567 C 0.18983 0.58367 0.55853 0.0
C568 C 0.18788 0.6082 0.54006 0.0
C569 C 0.181 0.63687 0.54847 0.0
C570 C 0.18758 0.56355 0.60575 0.0
C571 C 0.19241 0.60375 0.51145 0.0
H572 H 0.26311 0.5274 0.55576 0.0
H573 H 0.14417 0.45619 0.55125 0.0
H574 H 0.26406 0.61503 0.54093 0.0
H575 H 0.26905 0.60399 0.5738 0.0
H576 H 0.29196 0.59339 0.54816 0.0
H577 H 0.10432 0.48095 0.5398 0.0
H578 H 0.11599 0.51286 0.56667 0.0
H579 H 0.12341 0.53053 0.53412 0.0
H580 H 0.17518 0.62106 0.61349 0.0
H581 H 0.1791 0.65535 0.53432 0.0
H582 H 0.21483 0.5643 0.6044 0.0
H583 H 0.16524 0.53411 0.60252 0.0
H584 H 0.18458 0.5719 0.62571 0.0
H585 H 0.21853 0.6029 0.50788 0.0
H586 H 0.19311 0.62682 0.49978 0.0
H587 H 0.16883 0.57673 0.50453 0.0
C588 C 0.85638 0.47506 0.45671 0.0
C589 C 0.83852 0.48057 0.43542 0.0
C590 C 0.85093 0.43929 0.46256 0.0
C591 C 0.82823 0.40863 0.44609 0.0
C592 C 0.80862 0.41385 0.42531 0.0
C593 C 0.81369 0.44979 0.42043 0.0
C594 C 0.87121 0.43476 0.48548 0.0
C595 C 0.78464 0.38221 0.40701 0.0
C596 C 0.86157 0.33856 0.43596 0.0
C597 C 0.83434 0.3065 0.44892 0.0
C598 C 0.8596 0.37158 0.43494 0.0
C599 C 0.83023 0.37336 0.44787 0.0
C600 C 0.80333 0.34164 0.4619 0.0
C601 C 0.80538 0.30835 0.46193 0.0
C602 C 0.88851 0.4043 0.41928 0.0
C603 C 0.77194 0.34246 0.47637 0.0
H604 H 0.87536 0.49905 0.46834 0.0
H605 H 0.80009 0.45439 0.40394 0.0
H606 H 0.85219 0.40917 0.49664 0.0
H607 H 0.89486 0.43142 0.47851 0.0
H608 H 0.88252 0.45937 0.49869 0.0
H609 H 0.76859 0.38986 0.39337 0.0
H610 H 0.8027 0.37463 0.39552 0.0
H611 H 0.76472 0.35693 0.41804 0.0
H612 H 0.88399 0.33759 0.42566 0.0
H613 H 0.78406 0.28371 0.47186 0.0
H614 H 0.90432 0.42903 0.43203 0.0
H615 H 0.8745 0.41224 0.40416 0.0
H616 H 0.90878 0.3979 0.40961 0.0
H617 H 0.78215 0.36954 0.48668 0.0
H618 H 0.75871 0.31924 0.49068 0.0
H619 H 0.75012 0.33944 0.46238 0.0
C620 C 0.38826 0.82042 0.93688 0.0
C621 C 0.37467 0.8363 0.95473 0.0
C622 C 0.41795 0.81435 0.94348 0.0
C623 C 0.43362 0.82353 0.96881 0.0
C624 C 0.41759 0.83652 0.98754 0.0
C625 C 0.38879 0.84355 0.9801 0.0
C626 C 0.43425 0.80067 0.92281 0.0
C627 C 0.43205 0.84468 0.01506 0.0
C628 C 0.50748 0.7947 0.9791 0.0
C629 C 0.53959 0.82749 0.97112 0.0
C630 C 0.47271 0.79349 0.98069 0.0
C631 C 0.47035 0.82576 0.97395 0.0
C632 C 0.50357 0.85987 0.96866 0.0
C633 C 0.53774 0.86034 0.96765 0.0
C634 C 0.43836 0.7568 0.98738 0.0
C635 C 0.5027 0.89502 0.9612 0.0
H636 H 0.37702 0.81481 0.91733 0.0
H637 H 0.37767 0.85536 0.99392 0.0
H638 H 0.46326 0.82297 0.91835 0.0
H639 H 0.43567 0.77591 0.92987 0.0
H640 H 0.41763 0.7929 0.90457 0.0
H641 H 0.41236 0.84761 0.02826 0.0
H642 H 0.43683 0.82201 0.02243 0.0
H643 H 0.45926 0.87118 0.01563 0.0
H644 H 0.50877 0.76926 0.9819 0.0
H645 H 0.56266 0.8858 0.96165 0.0
H646 H 0.42613 0.7405 0.96932 0.0
H647 H 0.41677 0.76125 0.99697 0.0
H648 H 0.44554 0.73963 1.0003 0.0
H649 H 0.48781 0.89046 0.94241 0.0
H650 H 0.5312 0.91969 0.95917 0.0
H651 H 0.48726 0.9017 0.9759 0.0
C652 C 0.71218 0.50253 0.43835 0.0
C653 C 0.71698 0.53826 0.44308 0.0
C654 C 0.67639 0.47036 0.43898 0.0
C655 C 0.64465 0.47401 0.44457 0.0
C656 C 0.64972 0.50975 0.45103 0.0
C657 C 0.68572 0.54138 0.45006 0.0
C658 C 0.67234 0.43286 0.43193 0.0
C659 C 0.61686 0.51499 0.45742 0.0
C660 C 0.55119 0.405 0.4137 0.0
C661 C 0.5322 0.38057 0.43432 0.0
C662 C 0.5878 0.43515 0.41677 0.0
C663 C 0.606 0.44141 0.44114 0.0
C664 C 0.58695 0.41701 0.4621 0.0
C665 C 0.55039 0.38686 0.45841 0.0
C666 C 0.60711 0.46025 0.39382 0.0
C667 C 0.60513 0.42287 0.48844 0.0
H668 H 0.73587 0.49986 0.43236 0.0
H669 H 0.68921 0.56893 0.45372 0.0
H670 H 0.65418 0.41112 0.44613 0.0
H671 H 0.65871 0.424 0.41262 0.0
H672 H 0.69978 0.43389 0.43113 0.0
H673 H 0.62582 0.54359 0.46492 0.0
H674 H 0.59972 0.51034 0.43971 0.0
H675 H 0.59864 0.49415 0.4721 0.0
H676 H 0.53771 0.40005 0.39492 0.0
H677 H 0.53584 0.36836 0.47451 0.0
H678 H 0.63357 0.46036 0.38958 0.0
H679 H 0.61452 0.48952 0.39843 0.0
H680 H 0.58941 0.45125 0.37607 0.0
H681 H 0.63161 0.42214 0.48678 0.0
H682 H 0.58673 0.40128 0.50269 0.0
H683 H 0.61239 0.45094 0.49606 0.0
C684 C 0.18564 0.69198 0.94088 0.0
C685 C 0.21294 0.72362 0.95402 0.0
C686 C 0.1821 0.65669 0.94465 0.0
C687 C 0.20618 0.65275 0.9624 0.0
C688 C 0.2315 0.68398 0.97761 0.0
C689 C 0.23482 0.71938 0.97309 0.0
C690 C 0.15468 0.62436 0.92795 0.0
C691 C 0.25682 0.6807 0.99732 0.0
C692 C 0.1735 0.54978 0.97173 0.0
C693 C 0.19481 0.54403 0.95299 0.0
C694 C 0.17949 0.58587 0.97702 0.0
C695 C 0.20671 0.61676 0.96268 0.0
C696 C 0.22996 0.61138 0.94496 0.0
C697 C 0.22395 0.57506 0.94054 0.0
C698 C 0.1553 0.59062 0.9969 0.0
C699 C 0.25932 0.6435 0.92922 0.0
H700 H 0.16866 0.69537 0.92617 0.0
H701 H 0.25625 0.74397 0.98305 0.0
H702 H 0.17016 0.61538 0.91487 0.0
H703 H 0.13605 0.59998 0.94021 0.0
H704 H 0.137 0.63186 0.91585 0.0
H705 H 0.26727 0.70379 0.01178 0.0
H706 H 0.24219 0.65344 0.00767 0.0
H707 H 0.28135 0.68224 0.98728 0.0
H708 H 0.15174 0.5259 0.98202 0.0
H709 H 0.24069 0.57066 0.92627 0.0
H710 H 0.13375 0.59474 0.98689 0.0
H711 H 0.17232 0.61581 0.00905 0.0
H712 H 0.14085 0.56573 0.00975 0.0
H713 H 0.24547 0.65337 0.9153 0.0
H714 H 0.27727 0.63532 0.91812 0.0
H715 H 0.27742 0.66743 0.94203 0.0
C716 C 0.52093 0.2051 0.48207 0.0
C717 C 0.51306 0.22742 0.46549 0.0
C718 C 0.55246 0.20091 0.47801 0.0
C719 C 0.5766 0.21931 0.45681 0.0
C720 C 0.56986 0.24342 0.44087 0.0
C721 C 0.53839 0.24735 0.44551 0.0
C722 C 0.55897 0.17543 0.49572 0.0
C723 C 0.5948 0.26363 0.41807 0.0
C724 C 0.67194 0.22533 0.45181 0.0
C725 C 0.66416 0.19545 0.43492 0.0
C726 C 0.64372 0.23317 0.45946 0.0
C727 C 0.60685 0.21083 0.44984 0.0
C728 C 0.59881 0.18061 0.43289 0.0
C729 C 0.62742 0.17322 0.42576 0.0
C730 C 0.6535 0.26563 0.47758 0.0
C731 C 0.55995 0.15617 0.42205 0.0
H732 H 0.50171 0.18974 0.49765 0.0
H733 H 0.5331 0.26534 0.43294 0.0
H734 H 0.55414 0.15011 0.48483 0.0
H735 H 0.58839 0.18977 0.50261 0.0
H736 H 0.54012 0.16635 0.51284 0.0
H737 H 0.5875 0.2836 0.40883 0.0
H738 H 0.62451 0.27927 0.42427 0.0
H739 H 0.59225 0.24286 0.40327 0.0
H740 H 0.70023 0.24306 0.45876 0.0
H741 H 0.62081 0.14972 0.4131 0.0
H742 H 0.63414 0.25623 0.49439 0.0
H743 H 0.65017 0.28755 0.46734 0.0
H744 H 0.68268 0.27844 0.48492 0.0
H745 H 0.53967 0.1429 0.43813 0.0
H746 H 0.55825 0.13372 0.40913 0.0
H747 H 0.55116 0.17358 0.41085 0.0
C748 C 0.30483 0.54112 0.97443 0.0
C749 C 0.31082 0.51115 0.96881 0.0
C750 C 0.33446 0.57837 0.97287 0.0
C751 C 0.3709 0.58527 0.96675 0.0
C752 C 0.37775 0.55478 0.96538 0.0
C753 C 0.34749 0.51805 0.96605 0.0
C754 C 0.32574 0.60989 0.97461 0.0
C755 C 0.41632 0.56073 0.95989 0.0
C756 C 0.43479 0.66187 0.92024 0.0
C757 C 0.46326 0.68718 0.93679 0.0
C758 C 0.4033 0.62991 0.93005 0.0
C759 C 0.40016 0.6227 0.9571 0.0
C760 C 0.4275 0.64918 0.97409 0.0
C761 C 0.45861 0.68108 0.96376 0.0
C762 C 0.37434 0.60274 0.91122 0.0
C763 C 0.42508 0.64288 1.00305 0.0
H764 H 0.27654 0.53584 0.97708 0.0
H765 H 0.35212 0.49482 0.96179 0.0
H766 H 0.34892 0.63507 0.98393 0.0
H767 H 0.32198 0.6179 0.95471 0.0
H768 H 0.2995 0.6013 0.98558 0.0
H769 H 0.41803 0.535 0.96367 0.0
H770 H 0.42341 0.56863 0.93921 0.0
H771 H 0.43764 0.5839 0.97194 0.0
H772 H 0.43774 0.66601 0.89946 0.0
H773 H 0.47962 0.70073 0.97696 0.0
H774 H 0.34583 0.59552 0.91764 0.0
H775 H 0.37555 0.57636 0.91071 0.0
H776 H 0.37874 0.61424 0.89121 0.0
H777 H 0.39608 0.63223 0.01006 0.0
H778 H 0.4441 0.66896 0.01382 0.0
H779 H 0.43301 0.62139 0.00771 0.0
C780 C 0.44759 0.18994 0.31303 0.0
C781 C 0.42616 0.20507 0.32282 0.0
C782 C 0.44749 0.18245 0.28639 0.0
C783 C 0.4257 0.19061 0.2691 0.0
C784 C 0.40385 0.20567 0.27892 0.0
C785 C 0.40429 0.21264 0.30562 0.0
C786 C 0.471 0.1662 0.27669 0.0
C787 C 0.38059 0.21521 0.26112 0.0
C788 C 0.4553 0.21089 0.19852 0.0
C789 C 0.42937 0.17748 0.18617 0.0
C790 C 0.45463 0.21527 0.22546 0.0
C791 C 0.42736 0.18549 0.24058 0.0
C792 C 0.40119 0.15155 0.22832 0.0
C793 C 0.40237 0.14801 0.20121 0.0
C794 C 0.48275 0.25208 0.23768 0.0
C795 C 0.37184 0.11912 0.24383 0.0
H796 H 0.4642 0.18363 0.32627 0.0
H797 H 0.38802 0.22477 0.31301 0.0
H798 H 0.45336 0.14011 0.26555 0.0
H799 H 0.49282 0.1863 0.26329 0.0
H800 H 0.48492 0.15974 0.29276 0.0
H801 H 0.36407 0.22542 0.27193 0.0
H802 H 0.39907 0.23724 0.24718 0.0
H803 H 0.36108 0.19023 0.24961 0.0
H804 H 0.47575 0.2341 0.18698 0.0
H805 H 0.38236 0.12211 0.19178 0.0
H806 H 0.49897 0.24721 0.25288 0.0
H807 H 0.46799 0.26518 0.24729 0.0
H808 H 0.50264 0.27217 0.22326 0.0
H809 H 0.38536 0.11098 0.25918 0.0
H810 H 0.35434 0.09422 0.23152 0.0
H811 H 0.35331 0.12766 0.25368 0.0
C812 C 0.24219 0.38876 0.72269 0.0
C813 C 0.22061 0.36435 0.70276 0.0
C814 C 0.23075 0.38118 0.74866 0.0
C815 C 0.19667 0.34842 0.75489 0.0
C816 C 0.17617 0.32225 0.73505 0.0
C817 C 0.18843 0.33053 0.70913 0.0
C818 C 0.25381 0.40971 0.76915 0.0
C819 C 0.13993 0.28689 0.74087 0.0
C820 C 0.1838 0.33344 0.82774 0.0
C821 C 0.16623 0.3543 0.83364 0.0
C822 C 0.19125 0.32839 0.80185 0.0
C823 C 0.18083 0.34457 0.7815 0.0
C824 C 0.15991 0.36252 0.78732 0.0
C825 C 0.15296 0.36723 0.81331 0.0
C826 C 0.21318 0.30868 0.79652 0.0
C827 C 0.14777 0.37978 0.76627 0.0
H828 H 0.26712 0.41488 0.71774 0.0
H829 H 0.17153 0.31179 0.69369 0.0
H830 H 0.23829 0.42347 0.77648 0.0
H831 H 0.25887 0.39581 0.78588 0.0
H832 H 0.28124 0.43175 0.76155 0.0
H833 H 0.13121 0.26643 0.72464 0.0
H834 H 0.14239 0.27338 0.75884 0.0
H835 H 0.11756 0.29401 0.74408 0.0
H836 H 0.19437 0.32362 0.8434 0.0
H837 H 0.13917 0.38316 0.81784 0.0
H838 H 0.24275 0.32987 0.79251 0.0
H839 H 0.2021 0.29039 0.77916 0.0
H840 H 0.21259 0.29144 0.81332 0.0
H841 H 0.17266 0.40492 0.75838 0.0
H842 H 0.12783 0.38844 0.77359 0.0
H843 H 0.1344 0.35976 0.75002 0.0
C844 C 0.82408 0.24075 0.30816 0.0
C845 C 0.85027 0.24323 0.32657 0.0
C846 C 0.83261 0.24481 0.28157 0.0
C847 C 0.86842 0.25219 0.27327 0.0
C848 C 0.89566 0.25679 0.29193 0.0
C849 C 0.8861 0.25181 0.31837 0.0
C850 C 0.80259 0.23921 0.2623 0.0
C851 C 0.93441 0.26557 0.28392 0.0
C852 C 0.87021 0.2163 0.20579 0.0
C853 C 0.88009 0.24808 0.19041 0.0
C854 C 0.86764 0.21764 0.23287 0.0
C855 C 0.87599 0.25183 0.24503 0.0
C856 C 0.88866 0.28466 0.22986 0.0
C857 C 0.89027 0.28236 0.20271 0.0
C858 C 0.85393 0.18191 0.24829 0.0
C859 C 0.89866 0.32183 0.24217 0.0
H860 H 0.79625 0.23373 0.31446 0.0
H861 H 0.90645 0.25398 0.33265 0.0
H862 H 0.81309 0.26351 0.24893 0.0
H863 H 0.79505 0.21399 0.25032 0.0
H864 H 0.77688 0.23557 0.27194 0.0
H865 H 0.95361 0.27283 0.3008 0.0
H866 H 0.93289 0.24092 0.27396 0.0
H867 H 0.9465 0.28926 0.26996 0.0
H868 H 0.86312 0.18989 0.19654 0.0
H869 H 0.8977 0.30706 0.19108 0.0
H870 H 0.82659 0.17419 0.25732 0.0
H871 H 0.87376 0.18609 0.26424 0.0
H872 H 0.85042 0.15809 0.23608 0.0
H873 H 0.87285 0.32114 0.2491 0.0
H874 H 0.913 0.34551 0.22832 0.0
H875 H 0.91705 0.32721 0.25928 0.0
C876 C 0.63042 0.78345 0.80445 0.0
C877 C 0.65381 0.81274 0.82121 0.0
C878 C 0.6321 0.78878 0.77743 0.0
C879 C 0.65779 0.82425 0.76686 0.0
C880 C 0.68278 0.85333 0.78357 0.0
C881 C 0.68051 0.84722 0.81051 0.0
C882 C 0.6051 0.75695 0.76028 0.0
C883 C 0.71083 0.89143 0.77311 0.0
C884 C 0.67468 0.8279 0.69403 0.0
C885 C 0.64974 0.83909 0.68455 0.0
C886 C 0.6785 0.82405 0.7208 0.0
C887 C 0.65681 0.83148 0.73856 0.0
C888 C 0.63276 0.84429 0.72917 0.0
C889 C 0.62956 0.84799 0.70231 0.0
C890 C 0.70474 0.81072 0.72999 0.0
C891 C 0.60922 0.85264 0.74747 0.0
H892 H 0.60946 0.75686 0.81252 0.0
H893 H 0.69905 0.86984 0.8233 0.0
H894 H 0.58528 0.76441 0.7511 0.0
H895 H 0.6204 0.7521 0.74442 0.0
H896 H 0.58876 0.73039 0.77125 0.0
H897 H 0.73043 0.90992 0.78835 0.0
H898 H 0.72729 0.88856 0.75716 0.0
H899 H 0.69588 0.90529 0.76489 0.0
H900 H 0.6907 0.82139 0.68043 0.0
H901 H 0.6099 0.8562 0.69517 0.0
H902 H 0.68839 0.78257 0.73895 0.0
H903 H 0.7239 0.82987 0.74512 0.0
H904 H 0.72173 0.80894 0.71391 0.0
H905 H 0.58893 0.82655 0.75761 0.0
H906 H 0.59346 0.86425 0.73722 0.0
H907 H 0.62715 0.87298 0.76252 0.0
C908 C 0.80621 0.65012 0.18556 0.0
C909 C 0.77979 0.62075 0.17014 0.0
C910 C 0.80686 0.64627 0.21264 0.0
C911 C 0.78105 0.61188 0.22451 0.0
C912 C 0.75344 0.58263 0.20909 0.0
C913 C 0.75295 0.58755 0.18211 0.0
C914 C 0.83622 0.67846 0.2284 0.0
C915 C 0.72581 0.54533 0.22085 0.0
C916 C 0.81463 0.58896 0.28712 0.0
C917 C 0.79498 0.59678 0.30595 0.0
C918 C 0.8095 0.59274 0.26055 0.0
C919 C 0.78483 0.6056 0.25264 0.0
C920 C 0.7647 0.61329 0.27164 0.0
C921 C 0.76971 0.60836 0.29808 0.0
C922 C 0.83085 0.5834 0.24094 0.0
C923 C 0.73878 0.62779 0.26408 0.0
H924 H 0.82699 0.67579 0.17631 0.0
H925 H 0.73288 0.56457 0.17018 0.0
H926 H 0.82317 0.68426 0.24529 0.0
H927 H 0.85675 0.67089 0.23611 0.0
H928 H 0.85152 0.70451 0.21673 0.0
H929 H 0.70432 0.52658 0.20663 0.0
H930 H 0.74094 0.53109 0.2281 0.0
H931 H 0.71151 0.54943 0.2377 0.0
H932 H 0.83406 0.57988 0.29323 0.0
H933 H 0.75483 0.6148 0.31269 0.0
H934 H 0.85041 0.60901 0.23004 0.0
H935 H 0.81123 0.56278 0.22664 0.0
H936 H 0.84719 0.57166 0.25019 0.0
H937 H 0.7549 0.65519 0.25408 0.0
H938 H 0.72444 0.63149 0.28113 0.0
H939 H 0.71729 0.60825 0.25021 0.0
C940 C 0.23047 0.9007 0.80974 0.0
C941 C 0.2324 0.87096 0.82165 0.0
C942 C 0.21857 0.89794 0.78374 0.0
C943 C 0.20872 0.86486 0.76939 0.0
C944 C 0.20928 0.83435 0.7817 0.0
C945 C 0.22068 0.83766 0.80761 0.0
C946 C 0.21763 0.93078 0.77144 0.0
C947 C 0.19907 0.79848 0.76726 0.0
C948 C 0.15726 0.83192 0.70525 0.0
C949 C 0.18693 0.83846 0.68882 0.0
C950 C 0.16407 0.84397 0.7313 0.0
C951 C 0.2013 0.86259 0.74092 0.0
C952 C 0.23137 0.87241 0.72358 0.0
C953 C 0.22379 0.86036 0.69774 0.0
C954 C 0.1313 0.83389 0.749 0.0
C955 C 0.27149 0.89216 0.73283 0.0
H956 H 0.23906 0.92636 0.82052 0.0
H957 H 0.22057 0.81393 0.8169 0.0
H958 H 0.24149 0.9452 0.75785 0.0
H959 H 0.19157 0.92111 0.76001 0.0
H960 H 0.21958 0.95144 0.78615 0.0
H961 H 0.19993 0.77702 0.77992 0.0
H962 H 0.17057 0.78641 0.75891 0.0
H963 H 0.21877 0.8045 0.7509 0.0
H964 H 0.12875 0.81524 0.69831 0.0
H965 H 0.24679 0.86605 0.68483 0.0
H966 H 0.13758 0.85707 0.76276 0.0
H967 H 0.12553 0.80884 0.76061 0.0
H968 H 0.10563 0.82732 0.73786 0.0
H969 H 0.27726 0.91638 0.74537 0.0
H970 H 0.29162 0.9023 0.71643 0.0
H971 H 0.2765 0.87247 0.74462 0.0
C972 C 0.23113 0.93648 0.98431 0.0
C973 C 0.24914 0.91621 0.97769 0.0
C974 C 0.25006 0.97067 0.99787 0.0
C975 C 0.28804 0.98519 0.00486 0.0
C976 C 0.30629 0.96475 0.99843 0.0
C977 C 0.28657 0.93045 0.98516 0.0
C978 C 0.22943 0.99127 0.0047 0.0
C979 C 0.34678 0.97918 0.0055 0.0
C980 C 0.35216 0.08857 0.021 0.0
C981 C 0.35514 0.08711 0.04803 0.0
C982 C 0.32926 0.05579 0.00666 0.0
C983 C 0.30852 0.02101 0.01975 0.0
C984 C 0.30961 0.02004 0.04718 0.0
C985 C 0.33309 0.053 0.06093 0.0
C986 C 0.32901 0.05798 0.97743 0.0
C987 C 0.28747 0.98382 0.06199 0.0
H988 H 0.20221 0.92581 0.97872 0.0
H989 H 0.30071 0.91497 0.98043 0.0
H990 H 0.22964 0.99496 0.02605 0.0
H991 H 0.24377 0.01969 0.99596 0.0
H992 H 0.19993 0.97625 0.99789 0.0
H993 H 0.3573 0.96068 0.99823 0.0
H994 H 0.36447 1.00769 0.99736 0.0
H995 H 0.35017 0.98147 0.0269 0.0
H996 H 0.36942 0.11481 0.01094 0.0
H997 H 0.33517 0.05182 0.08186 0.0
H998 H 0.29988 0.0438 0.96999 0.0
H999 H 0.34291 0.04314 0.96912 0.0
H1000 H 0.34376 0.08741 0.97034 0.0
H1001 H 0.25785 0.96907 0.05554 0.0
H1002 H 0.28833 0.98847 0.08328 0.0
H1003 H 0.29897 0.96499 0.05799 0.0
C1004 C 0.33891 0.3833 0.56579 0.0
C1005 C 0.302 0.37594 0.56221 0.0
C1006 C 0.35291 0.36311 0.55236 0.0
C1007 C 0.32948 0.33436 0.53489 0.0
C1008 C 0.29206 0.32652 0.53124 0.0
C1009 C 0.27882 0.34752 0.54481 0.0
C1010 C 0.3931 0.37305 0.55659 0.0
C1011 C 0.26605 0.29599 0.5129 0.0
C1012 C 0.37532 0.30975 0.47991 0.0
C1013 C 0.37396 0.2769 0.48894 0.0
C1014 C 0.36145 0.32881 0.49477 0.0
C1015 C 0.34505 0.31439 0.51927 0.0
C1016 C 0.34429 0.28153 0.5288 0.0
C1017 C 0.35892 0.2632 0.51354 0.0
C1018 C 0.3637 0.36404 0.48394 0.0
C1019 C 0.32696 0.26511 0.55474 0.0
H1020 H 0.35727 0.40526 0.57907 0.0
H1021 H 0.25023 0.34136 0.54203 0.0
H1022 H 0.39442 0.3479 0.56285 0.0
H1023 H 0.40879 0.38282 0.53809 0.0
H1024 H 0.40739 0.39538 0.57142 0.0
H1025 H 0.23731 0.29196 0.51317 0.0
H1026 H 0.27705 0.30299 0.49281 0.0
H1027 H 0.26459 0.26909 0.51811 0.0
H1028 H 0.38664 0.32018 0.46075 0.0
H1029 H 0.35709 0.23736 0.5203 0.0
H1030 H 0.37864 0.38762 0.49777 0.0
H1031 H 0.33512 0.35982 0.48136 0.0
H1032 H 0.37836 0.37222 0.46496 0.0
H1033 H 0.34072 0.28635 0.57027 0.0
H1034 H 0.32917 0.23996 0.55966 0.0
H1035 H 0.29696 0.25714 0.55456 0.0
C1036 C 0.96942 0.34638 0.03297 0.0
C1037 C 0.94559 0.31013 0.04241 0.0
C1038 C 1.00495 0.35647 0.02303 0.0
C1039 C 0.01736 0.3299 0.02294 0.0
C1040 C 0.99319 0.29304 0.03204 0.0
C1041 C 0.95747 0.2835 0.04143 0.0
C1042 C 0.0295 0.39586 0.01304 0.0
C1043 C 1.00549 0.26404 0.03265 0.0
C1044 C 0.10047 0.35294 0.97916 0.0
C1045 C 0.13072 0.37248 0.99624 0.0
C1046 C 0.06332 0.33773 0.98773 0.0
C1047 C 0.05614 0.34138 0.01414 0.0
C1048 C 0.08646 0.35873 0.0318 0.0
C1049 C 0.12334 0.37432 0.02262 0.0
C1050 C 0.03191 0.31978 0.96819 0.0
C1051 C 0.08006 0.36246 0.06023 0.0
H1052 H 0.96039 0.36705 0.03348 0.0
H1053 H 0.93935 0.25547 0.04877 0.0
H1054 H 0.05489 0.41061 0.02534 0.0
H1055 H 0.03891 0.39507 0.993 0.0
H1056 H 1.01489 0.41245 0.01297 0.0
H1057 H 0.98283 0.23619 0.03921 0.0
H1058 H 1.01489 0.26092 0.01311 0.0
H1059 H 0.02971 0.2734 0.04598 0.0
H1060 H 0.10575 0.35115 0.95876 0.0
H1061 H 0.14645 0.38903 0.03603 0.0
H1062 H 0.01891 0.33763 0.96567 0.0
H1063 H 1.00978 0.29204 0.97524 0.0
H1064 H 0.04178 0.31605 0.94896 0.0
H1065 H 0.06929 0.38225 0.06259 0.0
H1066 H 0.1061 0.37296 0.07186 0.0
H1067 H 0.05865 0.33501 0.06821 0.0
C1068 C 0.65276 0.93164 0.53359 0.0
C1069 C 0.62167 0.9234 0.54917 0.0
C1070 C 0.67421 0.96721 0.5221 0.0
C1071 C 0.66429 0.99532 0.52603 0.0
C1072 C 0.6332 0.98732 0.54195 0.0
C1073 C 0.61238 0.95161 0.55331 0.0
C1074 C 0.70712 0.97445 0.50529 0.0
C1075 C 0.62136 0.01622 0.54648 0.0
C1076 C 0.73623 0.09615 0.50696 0.0
C1077 C 0.72515 0.09756 0.48145 0.0
C1078 C 0.7162 0.06337 0.52211 0.0
C1079 C 0.68424 0.03167 0.51152 0.0
C1080 C 0.672 0.03401 0.48627 0.0
C1081 C 0.69266 0.0667 0.47159 0.0
C1082 C 0.73021 0.06202 0.54892 0.0
C1083 C 0.63785 1.00137 0.47425 0.0
H1084 H 0.66036 0.91025 0.53027 0.0
H1085 H 0.58853 0.94576 0.56535 0.0
H1086 H 0.70155 0.979 0.48492 0.0
H1087 H 0.73256 1.00032 0.51177 0.0
H1088 H 0.71292 0.95078 0.50571 0.0
H1089 H 0.59815 1.00658 0.56071 0.0
H1090 H 0.64538 0.04277 0.55363 0.0
H1091 H 0.61207 0.02262 0.52789 0.0
H1092 H 0.76156 0.11975 0.51454 0.0
H1093 H 0.68386 0.06774 0.4519 0.0
H1094 H 0.74039 0.04158 0.54918 0.0
H1095 H 0.70713 0.05225 0.56323 0.0
H1096 H 0.75338 0.08979 0.5552 0.0
H1097 H 0.64288 0.97745 0.47154 0.0
H1098 H 0.63064 1.00857 0.45512 0.0
H1099 H 0.61341 0.99178 0.48733 0.0
C1100 C 0.73542 0.64148 0.98251 0.0
C1101 C 0.73231 0.62778 0.00789 0.0
C1102 C 0.71402 0.65754 0.97412 0.0
C1103 C 0.68865 0.65996 0.99145 0.0
C1104 C 0.68511 0.64594 0.01705 0.0
C1105 C 0.70697 0.63006 0.02498 0.0
C1106 C 0.71871 0.67206 0.94665 0.0
C1107 C 0.65829 0.64781 0.0361 0.0
C1108 C 0.65857 0.73145 0.97403 0.0
C1109 C 0.62448 0.70902 0.96116 0.0
C1110 C 0.67924 0.71575 0.98465 0.0
C1111 C 0.66552 0.67665 0.98246 0.0
C1112 C 0.63056 0.65374 0.97026 0.0
C1113 C 0.61056 0.67015 0.95977 0.0
C1114 C 0.71637 0.74121 0.99751 0.0
C1115 C 0.61476 0.61195 0.96755 0.0
H1116 H 0.75491 0.64 0.96913 0.0
H1117 H 0.70437 0.61966 0.04464 0.0
H1118 H 0.69161 0.6572 0.93617 0.0
H1119 H 0.7274 0.70231 0.94685 0.0
H1120 H 0.73983 0.66838 0.93563 0.0
H1121 H 0.6588 0.63573 0.05529 0.0
H1122 H 0.66537 0.67739 0.03891 0.0
H1123 H 0.62938 0.6324 0.02828 0.0
H1124 H 0.66962 0.76147 0.97528 0.0
H1125 H 0.58418 0.65244 0.95003 0.0
H1126 H 0.73921 0.74113 0.98618 0.0
H1127 H 0.71708 0.73078 0.01725 0.0
H1128 H 0.72209 0.77057 0.99906 0.0
H1129 H 0.63327 0.60638 0.95493 0.0
H1130 H 0.58618 0.59771 0.95905 0.0
H1131 H 0.61374 0.59928 0.98677 0.0
C1132 C 0.94308 0.70578 0.47589 0.0
C1133 C 0.91894 0.66691 0.47407 0.0
C1134 C 0.97501 0.72099 0.49184 0.0
C1135 C 0.98376 0.69674 0.50591 0.0
C1136 C 0.95892 0.65739 0.50468 0.0
C1137 C 0.92656 0.64295 0.48895 0.0
C1138 C 0.99991 0.76304 0.49306 0.0
C1139 C 0.96734 0.63049 0.51912 0.0
C1140 C 0.08599 0.73455 0.52603 0.0
C1141 C 0.08482 0.74145 0.55256 0.0
C1142 C 0.05332 0.71987 0.51061 0.0
C1143 C 0.01889 0.71266 0.52186 0.0
C1144 C 0.01809 0.72107 0.5484 0.0
C1145 C 0.05083 0.73492 0.56341 0.0
C1146 C 0.05538 0.711 0.48245 0.0
C1147 C 0.98246 0.71494 0.56111 0.0
H1148 H 0.93738 0.72438 0.46425 0.0
H1149 H 0.90845 0.61287 0.48714 0.0
H1150 H 1.00447 0.77265 0.51355 0.0
H1151 H 0.0277 0.77108 0.48471 0.0
H1152 H 0.98795 0.77808 0.48229 0.0
H1153 H 0.94503 0.60082 0.51653 0.0
H1154 H 0.9942 0.63357 0.51214 0.0
H1155 H 0.97065 0.63717 0.54015 0.0
H1156 H 0.11201 0.73905 0.51762 0.0
H1157 H 0.04973 0.74031 0.5839 0.0
H1158 H 0.04604 0.72671 0.46987 0.0
H1159 H 0.03619 0.68068 0.47884 0.0
H1160 H 0.0841 0.7181 0.4766 0.0
H1161 H 0.97092 0.7303 0.55031 0.0
H1162 H 0.98686 0.72438 0.58166 0.0
H1163 H 0.96109 0.68473 0.5605 0.0
C1164 C 0.818 0.0728 0.05001 0.0
C1165 C 0.81323 0.10219 0.04066 0.0
C1166 C 0.79995 0.03734 0.03808 0.0
C1167 C 0.77707 0.03136 0.01602 0.0
C1168 C 0.77257 0.06112 0.0063 0.0
C1169 C 0.79049 0.09607 0.01884 0.0
C1170 C 0.80499 1.00617 0.04926 0.0
C1171 C 0.74887 0.05607 0.98261 0.0
C1172 C 0.7561 0.94994 0.97086 0.0
C1173 C 0.71935 0.92366 0.97787 0.0
C1174 C 0.7753 0.98506 0.98316 0.0
C1175 C 0.75747 0.9939 1.00321 0.0
C1176 C 0.72057 0.9672 0.01067 0.0
C1177 C 0.70189 0.93253 0.99779 0.0
C1178 C 0.81441 0.01296 0.97439 0.0
C1179 C 0.70077 0.97532 0.0322 0.0
H1180 H 0.83525 0.07736 0.06702 0.0
H1181 H 0.78718 0.11889 0.01134 0.0
H1182 H 0.77741 0.9823 0.05495 0.0
H1183 H 0.81692 0.99562 0.03438 0.0
H1184 H 0.82366 0.01536 0.06653 0.0
H1185 H 0.74892 0.08227 0.97718 0.0
H1186 H 0.75928 0.04687 0.96589 0.0
H1187 H 0.71958 0.03382 0.98621 0.0
H1188 H 0.76953 0.94333 0.95529 0.0
H1189 H 0.67369 0.91208 1.00352 0.0
H1190 H 0.83412 0.02118 0.99099 0.0
H1191 H 0.81517 0.0388 0.96722 0.0
H1192 H 0.82445 1.00162 0.9587 0.0
H1193 H 0.71765 0.98261 0.05028 0.0
H1194 H 0.67257 0.95111 0.03623 0.0
H1195 H 0.69771 0.99985 0.02698 0.0
C1196 C 0.77808 0.72955 0.44336 0.0
C1197 C 0.79149 0.70725 0.45455 0.0
C1198 C 0.76105 0.74532 0.45844 0.0
C1199 C 0.75663 0.73831 0.48545 0.0
C1200 C 0.76989 0.71582 0.49698 0.0
C1201 C 0.78735 0.70079 0.48146 0.0
C1202 C 0.74759 0.76939 0.44537 0.0
C1203 C 0.76539 0.70742 0.52569 0.0
C1204 C 0.74168 0.80692 0.52622 0.0
C1205 C 0.70246 0.7887 0.52824 0.0
C1206 C 0.75966 0.79057 0.51282 0.0
C1207 C 0.73812 0.7547 0.50146 0.0
C1208 C 0.69872 0.73548 0.50412 0.0
C1209 C 0.68138 0.75278 0.51723 0.0
C1210 C 0.80174 0.81219 0.5102 0.0
C1211 C 0.67473 0.69696 0.49256 0.0
H1212 H 0.78024 0.73437 0.42265 0.0
H1213 H 0.7978 0.68405 0.49052 0.0
H1214 H 0.7169 0.75661 0.44784 0.0
H1215 H 0.76081 0.79752 0.45459 0.0
H1216 H 0.75402 0.77299 0.42428 0.0
H1217 H 0.77675 0.68905 0.53166 0.0
H1218 H 0.7799 0.73392 0.53693 0.0
H1219 H 0.73534 0.6935 0.531 0.0
H1220 H 0.75862 0.83421 0.53494 0.0
H1221 H 0.65119 0.73822 0.51828 0.0
H1222 H 0.80945 0.81816 0.48941 0.0
H1223 H 0.81394 0.79519 0.5175 0.0
H1224 H 0.81462 0.8392 0.52095 0.0
H1225 H 0.67666 0.69869 0.47107 0.0
H1226 H 0.64486 0.68445 0.49814 0.0
H1227 H 0.68499 0.67784 0.49889 0.0
C1228 C 0.92861 0.66886 0.99835 0.0
C1229 C 0.92132 0.6915 0.01502 0.0
C1230 C 0.96286 0.68318 0.98525 0.0
C1231 C 0.9906 0.72118 0.98876 0.0
C1232 C 0.9835 0.74426 0.00551 0.0
C1233 C 0.94897 0.72915 0.01843 0.0
C1234 C 0.96925 0.65766 0.9675 0.0
C1235 C 1.01241 0.78492 0.00978 0.0
C1236 C 0.09118 0.74952 0.97197 0.0
C1237 C 0.09501 0.7651 0.94715 0.0
C1238 C 0.05747 0.73534 0.98581 0.0
C1239 C 0.02682 0.73683 0.9746 0.0
C1240 C 0.03054 0.75265 0.94961 0.0
C1241 C 0.06453 0.76654 0.9362 0.0
C1242 C 0.05454 0.71845 0.01233 0.0
C1243 C 0.99858 0.7549 0.93701 0.0
H1244 H 0.90727 0.63996 0.99516 0.0
H1245 H 0.9438 0.74674 0.03146 0.0
H1246 H 0.97418 0.66877 0.94739 0.0
H1247 H 0.99462 0.65677 0.97366 0.0
H1248 H 0.94516 0.62857 0.96731 0.0
H1249 H 1.00261 0.79909 0.02347 0.0
H1250 H 0.03853 0.78708 0.01758 0.0
H1251 H 0.0195 0.80017 0.99102 0.0
H1252 H 0.11438 0.74784 0.98044 0.0
H1253 H 0.06741 0.77903 0.91723 0.0
H1254 H 0.03215 0.6886 0.01227 0.0
H1255 H 0.04669 0.73316 0.02693 0.0
H1256 H 0.08114 0.72005 0.01853 0.0
H1257 H 0.97408 0.72634 0.93484 0.0
H1258 H 1.00611 0.76836 0.91758 0.0
H1259 H 0.98982 0.77111 0.94954 0.0
C1260 C 0.28977 0.94951 0.54039 0.0
C1261 C 0.25179 0.92401 0.54456 0.0
C1262 C 0.30131 0.98215 0.52568 0.0
C1263 C 0.27421 0.99006 0.51511 0.0
C1264 C 0.23565 0.96422 0.51906 0.0
C1265 C 0.22486 0.93122 0.53357 0.0
C1266 C 0.34267 1.00821 0.52151 0.0
C1267 C 0.20593 0.97184 0.50844 0.0
C1268 C 0.31863 0.09336 0.49695 0.0
C1269 C 0.32779 0.09238 0.47089 0.0
C1270 C 0.2982 0.05987 0.51123 0.0
C1271 C 0.28694 0.02476 0.49915 0.0
C1272 C 0.2934 0.02373 0.47228 0.0
C1273 C 0.31348 0.05744 0.45853 0.0
C1274 C 0.29121 0.06225 0.53971 0.0
C1275 C 0.28217 0.9872 0.45848 0.0
H1276 H 0.31054 0.94377 0.5488 0.0
H1277 H 0.19553 0.91172 0.53711 0.0
H1278 H 0.34895 0.01176 0.50042 0.0
H1279 H 0.35104 0.03632 0.52959 0.0
H1280 H 0.36008 0.99771 0.53078 0.0
H1281 H 0.17723 0.94872 0.51278 0.0
H1282 H 0.20942 0.9982 0.51694 0.0
H1283 H 0.20898 0.97587 0.48712 0.0
H1284 H 0.32958 0.12022 0.50661 0.0
H1285 H 0.31988 0.05655 0.43823 0.0
H1286 H 0.31066 0.05675 0.55136 0.0
H1287 H 0.26229 0.04066 0.545 0.0
H1288 H 0.29561 0.09034 0.54509 0.0
H1289 H 0.30054 0.97616 0.46499 0.0
H1290 H 0.28459 0.99068 0.43706 0.0
H1291 H 0.253 0.96586 0.46335 0.0
C1292 C 0.31173 0.34537 0.96474 0.0
C1293 C 0.27831 0.34496 0.97078 0.0
C1294 C 0.32625 0.32831 0.98105 0.0
C1295 C 0.30689 0.31019 0.00403 0.0
C1296 C 0.27305 0.30949 0.01024 0.0
C1297 C 0.25924 0.327 0.9936 0.0
C1298 C 0.36262 0.33009 0.97381 0.0
C1299 C 0.2515 0.29031 0.0345 0.0
C1300 C 0.33217 0.24051 0.03334 0.0
C1301 C 0.35803 0.26224 0.05261 0.0
C1302 C 0.31437 0.25532 0.01794 0.0
C1303 C 0.32277 0.29286 0.02175 0.0
C1304 C 0.34819 0.31465 0.04156 0.0
C1305 C 0.36544 0.2991 0.05673 0.0
C1306 C 0.28724 0.23107 0.99715 0.0
C1307 C 0.3582 0.35488 0.04616 0.0
H1308 H 0.32702 0.35971 0.94743 0.0
H1309 H 0.23325 0.32624 0.99827 0.0
H1310 H 0.38379 0.34487 0.98922 0.0
H1311 H 0.35848 0.30134 0.97228 0.0
H1312 H 0.37397 0.34482 0.9551 0.0
H1313 H 0.22529 0.29159 0.03631 0.0
H1314 H 0.24431 0.26046 0.03448 0.0
H1315 H 0.2691 0.30363 0.05188 0.0
H1316 H 0.32599 0.21193 0.03024 0.0
H1317 H 0.38576 0.31637 0.07124 0.0
H1318 H 0.29851 0.24303 0.97774 0.0
H1319 H 0.26023 0.2306 0.99935 0.0
H1320 H 0.2819 0.20178 0.99773 0.0
H1321 H 0.37261 0.372 0.02882 0.0
H1322 H 0.37677 0.36735 0.06328 0.0
H1323 H 0.33249 0.35672 0.04912 0.0
C1324 C 0.0706 0.28264 0.5589 0.0
C1325 C 0.09994 0.31848 0.5525 0.0
C1326 C 0.03782 0.26484 0.54392 0.0
C1327 C 0.03409 0.28319 0.52181 0.0
C1328 C 0.06419 0.3188 0.51461 0.0
C1329 C 0.09681 0.33602 0.53003 0.0
C1330 C 1.00669 0.22678 0.55225 0.0
C1331 C 0.06142 0.33925 0.49112 0.0
C1332 C 0.95775 0.22072 0.47394 0.0
C1333 C 0.92792 0.22611 0.48129 0.0
C1334 C 0.99274 0.23995 0.48637 0.0
C1335 C 0.99823 0.26524 0.50678 0.0
C1336 C 0.96851 0.27142 0.51398 0.0
C1337 C 0.9338 0.25188 0.50113 0.0
C1338 C 0.02365 0.23266 0.47795 0.0
C1339 C 0.97308 0.29798 0.53573 0.0
H1340 H 0.07307 0.26877 0.57606 0.0
H1341 H 0.11917 0.36386 0.52514 0.0
H1342 H 0.98137 0.22856 0.55706 0.0
H1343 H 0.99911 0.20637 0.53612 0.0
H1344 H 1.01446 0.21578 0.56944 0.0
H1345 H 0.08805 0.36553 0.48716 0.0
H1346 H 0.05366 0.32095 0.47373 0.0
H1347 H 0.03902 0.34637 0.49416 0.0
H1348 H 0.95383 0.20153 0.45828 0.0
H1349 H 0.91099 0.25612 0.50709 0.0
H1350 H 0.03097 0.21962 0.49412 0.0
H1351 H 0.04919 0.25948 0.47315 0.0
H1352 H 1.01563 0.21382 0.4608 0.0
H1353 H 0.97803 0.28738 0.55428 0.0
H1354 H 0.94809 0.30134 0.53802 0.0
H1355 H 0.99784 0.32596 0.53215 0.0
loop_
_geom_bond_atom_site_label_1
_geom_bond_atom_site_label_2
_geom_bond_distance
_geom_bond_site_symmetry_2
_ccdc_geom_bond_type
C0 C1 1.351 . S
C0 N3 1.368 . S
C0 H5 0.931 . S
C1 C0 1.351 . S
C1 N2 1.373 . S
C1 H29 0.930 . S
N2 C1 1.373 . S
N2 C4 1.340 . S
N3 C0 1.368 . S
N3 C4 1.321 . S
N3 Co6 2.135 . S
C4 N2 1.340 . S
C4 N3 1.321 . S
C4 H28 0.930 . S
H5 C0 0.931 . S
Co6 N3 2.135 . S
Co6 N9 2.121 . S
Co6 O14 2.055 . S
Co6 O17 2.039 . S
Co6 N20 2.140 . S
C7 O8 1.227 . S
C7 O17 1.265 . S
O8 C7 1.227 . S
N9 Co6 2.121 . S
N9 C11 1.375 . S
N9 C12 1.313 . S
C10 C11 1.338 . S
C10 N13 1.377 . S
C10 H30 0.930 . S
C11 N9 1.375 . S
C11 C10 1.338 . S
C11 H15 0.931 . S
C12 N9 1.313 . S
C12 N13 1.344 . S
C12 H16 0.930 . S
N13 C10 1.377 . S
N13 C12 1.344 . S
O14 Co6 2.055 . S
O14 C18 1.253 . S
H15 C11 0.931 . S
H16 C12 0.930 . S
O17 Co6 2.039 . S
O17 C7 1.265 . S
C18 O14 1.253 . S
C18 O19 1.227 . S
O19 C18 1.227 . S
N20 Co6 2.140 . S
N20 C23 1.346 . S
N20 C24 1.345 . S
C21 C22 1.387 . S
C21 C25 1.391 . S
C22 C21 1.387 . S
C22 C23 1.369 . S
C22 H31 0.929 . S
C23 N20 1.346 . S
C23 C22 1.369 . S
C23 H26 0.928 . S
C24 N20 1.345 . S
C24 C25 1.371 . S
C24 H27 0.931 . S
C25 C21 1.391 . S
C25 C24 1.371 . S
C25 H32 0.930 . S
H26 C23 0.928 . S
H27 C24 0.931 . S
H28 C4 0.930 . S
H29 C1 0.930 . S
H30 C10 0.930 . S
H31 C22 0.929 . S
H32 C25 0.930 . S
C33 C34 1.351 . S
C33 N36 1.368 . S
C33 H38 0.931 . S
C34 C33 1.351 . S
C34 N35 1.373 . S
C34 H62 0.930 . S
N35 C34 1.373 . S
N35 C37 1.340 . S
N36 C33 1.368 . S
N36 C37 1.321 . S
N36 Co39 2.135 . S
C37 N35 1.340 . S
C37 N36 1.321 . S
C37 H61 0.930 . S
H38 C33 0.931 . S
Co39 N36 2.135 . S
Co39 N42 2.121 . S
Co39 O47 2.055 . S
Co39 O50 2.039 . S
Co39 N53 2.140 . S
C40 O41 1.227 . S
C40 O50 1.265 . S
O41 C40 1.227 . S
N42 Co39 2.121 . S
N42 C44 1.375 . S
N42 C45 1.313 . S
C43 C44 1.338 . S
C43 N46 1.377 . S
C43 H63 0.930 . S
C44 N42 1.375 . S
C44 C43 1.338 . S
C44 H48 0.931 . S
C45 N42 1.313 . S
C45 N46 1.344 . S
C45 H49 0.930 . S
N46 C43 1.377 . S
N46 C45 1.344 . S
O47 Co39 2.055 . S
O47 C51 1.253 . S
H48 C44 0.931 . S
H49 C45 0.930 . S
O50 Co39 2.039 . S
O50 C40 1.265 . S
C51 O47 1.253 . S
C51 O52 1.227 . S
O52 C51 1.227 . S
N53 Co39 2.140 . S
N53 C56 1.346 . S
N53 C57 1.345 . S
C54 C55 1.387 . S
C54 C58 1.391 . S
C55 C54 1.387 . S
C55 C56 1.369 . S
C55 H64 0.929 . S
C56 N53 1.346 . S
C56 C55 1.369 . S
C56 H59 0.928 . S
C57 N53 1.345 . S
C57 C58 1.371 . S
C57 H60 0.931 . S
C58 C54 1.391 . S
C58 C57 1.371 . S
C58 H65 0.930 . S
H59 C56 0.928 . S
H60 C57 0.931 . S
H61 C37 0.930 . S
H62 C34 0.930 . S
H63 C43 0.930 . S
H64 C55 0.929 . S
H65 C58 0.930 . S
C66 C67 1.351 . S
C66 N69 1.368 . S
C66 H71 0.931 . S
C67 C66 1.351 . S
C67 N68 1.373 . S
C67 H95 0.930 . S
N68 C67 1.373 . S
N68 C70 1.340 . S
N69 C66 1.368 . S
N69 C70 1.321 . S
N69 Co72 2.135 . S
C70 N68 1.340 . S
C70 N69 1.321 . S
C70 H94 0.930 . S
H71 C66 0.931 . S
Co72 N69 2.135 . S
Co72 N75 2.121 . S
Co72 O80 2.055 . S
Co72 O83 2.039 . S
Co72 N86 2.140 . S
C73 O74 1.227 . S
C73 O83 1.265 . S
O74 C73 1.227 . S
N75 Co72 2.121 . S
N75 C77 1.375 . S
N75 C78 1.313 . S
C76 C77 1.338 . S
C76 N79 1.377 . S
C76 H96 0.930 . S
C77 N75 1.375 . S
C77 C76 1.338 . S
C77 H81 0.931 . S
C78 N75 1.313 . S
C78 N79 1.344 . S
C78 H82 0.930 . S
N79 C76 1.377 . S
N79 C78 1.344 . S
O80 Co72 2.055 . S
O80 C84 1.253 . S
H81 C77 0.931 . S
H82 C78 0.930 . S
O83 Co72 2.039 . S
O83 C73 1.265 . S
C84 O80 1.253 . S
C84 O85 1.227 . S
O85 C84 1.227 . S
N86 Co72 2.140 . S
N86 C89 1.346 . S
N86 C90 1.345 . S
C87 C88 1.387 . S
C87 C91 1.391 . S
C88 C87 1.387 . S
C88 C89 1.369 . S
C88 H97 0.929 . S
C89 N86 1.346 . S
C89 C88 1.369 . S
C89 H92 0.928 . S
C90 N86 1.345 . S
C90 C91 1.371 . S
C90 H93 0.931 . S
C91 C87 1.391 . S
C91 C90 1.371 . S
C91 H98 0.930 . S
H92 C89 0.928 . S
H93 C90 0.931 . S
H94 C70 0.930 . S
H95 C67 0.930 . S
H96 C76 0.930 . S
H97 C88 0.929 . S
H98 C91 0.930 . S
C99 C100 1.351 . S
C99 N102 1.368 . S
C99 H104 0.931 . S
C100 C99 1.351 . S
C100 N101 1.373 . S
C100 H128 0.930 . S
N101 C100 1.373 . S
N101 C103 1.340 . S
N102 C99 1.368 . S
N102 C103 1.321 . S
N102 Co105 2.135 . S
C103 N101 1.340 . S
C103 N102 1.321 . S
C103 H127 0.930 . S
H104 C99 0.931 . S
Co105 N102 2.135 . S
Co105 N108 2.121 . S
Co105 O113 2.055 . S
Co105 O116 2.039 . S
Co105 N119 2.140 . S
C106 O107 1.227 . S
C106 O116 1.265 . S
O107 C106 1.227 . S
N108 Co105 2.121 . S
N108 C110 1.375 . S
N108 C111 1.313 . S
C109 C110 1.338 . S
C109 N112 1.377 . S
C109 H129 0.930 . S
C110 N108 1.375 . S
C110 C109 1.338 . S
C110 H114 0.931 . S
C111 N108 1.313 . S
C111 N112 1.344 . S
C111 H115 0.930 . S
N112 C109 1.377 . S
N112 C111 1.344 . S
O113 Co105 2.055 . S
O113 C117 1.253 . S
H114 C110 0.931 . S
H115 C111 0.930 . S
O116 Co105 2.039 . S
O116 C106 1.265 . S
C117 O113 1.253 . S
C117 O118 1.227 . S
O118 C117 1.227 . S
N119 Co105 2.140 . S
N119 C122 1.346 . S
N119 C123 1.345 . S
C120 C121 1.387 . S
C120 C124 1.391 . S
C121 C120 1.387 . S
C121 C122 1.369 . S
C121 H130 0.929 . S
C122 N119 1.346 . S
C122 C121 1.369 . S
C122 H125 0.928 . S
C123 N119 1.345 . S
C123 C124 1.371 . S
C123 H126 0.931 . S
C124 C120 1.391 . S
C124 C123 1.371 . S
C124 H131 0.930 . S
H125 C122 0.928 . S
H126 C123 0.931 . S
H127 C103 0.930 . S
H128 C100 0.930 . S
H129 C109 0.930 . S
H130 C121 0.929 . S
H131 C124 0.930 . S
C132 C133 1.351 . S
C132 N135 1.368 . S
C132 H137 0.931 . S
C133 C132 1.351 . S
C133 N134 1.373 . S
C133 H161 0.930 . S
N134 C133 1.373 . S
N134 C136 1.340 . S
N135 C132 1.368 . S
N135 C136 1.321 . S
N135 Co138 2.135 . S
C136 N134 1.340 . S
C136 N135 1.321 . S
C136 H160 0.930 . S
H137 C132 0.931 . S
Co138 N135 2.135 . S
Co138 N141 2.121 . S
Co138 O146 2.055 . S
Co138 O149 2.039 . S
Co138 N152 2.140 . S
C139 O140 1.227 . S
C139 O149 1.265 . S
O140 C139 1.227 . S
N141 Co138 2.121 . S
N141 C143 1.375 . S
N141 C144 1.313 . S
C142 C143 1.338 . S
C142 N145 1.377 . S
C142 H162 0.930 . S
C143 N141 1.375 . S
C143 C142 1.338 . S
C143 H147 0.931 . S
C144 N141 1.313 . S
C144 N145 1.344 . S
C144 H148 0.930 . S
N145 C142 1.377 . S
N145 C144 1.344 . S
O146 Co138 2.055 . S
O146 C150 1.253 . S
H147 C143 0.931 . S
H148 C144 0.930 . S
O149 Co138 2.039 . S
O149 C139 1.265 . S
C150 O146 1.253 . S
C150 O151 1.227 . S
O151 C150 1.227 . S
N152 Co138 2.140 . S
N152 C155 1.346 . S
N152 C156 1.345 . S
C153 C154 1.387 . S
C153 C157 1.391 . S
C154 C153 1.387 . S
C154 C155 1.369 . S
C154 H163 0.929 . S
C155 N152 1.346 . S
C155 C154 1.369 . S
C155 H158 0.928 . S
C156 N152 1.345 . S
C156 C157 1.371 . S
C156 H159 0.931 . S
C157 C153 1.391 . S
C157 C156 1.371 . S
C157 H164 0.930 . S
H158 C155 0.928 . S
H159 C156 0.931 . S
H160 C136 0.930 . S
H161 C133 0.930 . S
H162 C142 0.930 . S
H163 C154 0.929 . S
H164 C157 0.930 . S
C165 C166 1.351 . S
C165 N168 1.368 . S
C165 H170 0.931 . S
C166 C165 1.351 . S
C166 N167 1.373 . S
C166 H194 0.930 . S
N167 C166 1.373 . S
N167 C169 1.340 . S
N168 C165 1.368 . S
N168 C169 1.321 . S
N168 Co171 2.135 . S
C169 N167 1.340 . S
C169 N168 1.321 . S
C169 H193 0.930 . S
H170 C165 0.931 . S
Co171 N168 2.135 . S
Co171 N174 2.121 . S
Co171 O179 2.055 . S
Co171 O182 2.039 . S
Co171 N185 2.140 . S
C172 O173 1.227 . S
C172 O182 1.265 . S
O173 C172 1.227 . S
N174 Co171 2.121 . S
N174 C176 1.375 . S
N174 C177 1.313 . S
C175 C176 1.338 . S
C175 N178 1.377 . S
C175 H195 0.930 . S
C176 N174 1.375 . S
C176 C175 1.338 . S
C176 H180 0.931 . S
C177 N174 1.313 . S
C177 N178 1.344 . S
C177 H181 0.930 . S
N178 C175 1.377 . S
N178 C177 1.344 . S
O179 Co171 2.055 . S
O179 C183 1.253 . S
H180 C176 0.931 . S
H181 C177 0.930 . S
O182 Co171 2.039 . S
O182 C172 1.265 . S
C183 O179 1.253 . S
C183 O184 1.227 . S
O184 C183 1.227 . S
N185 Co171 2.140 . S
N185 C188 1.346 . S
N185 C189 1.345 . S
C186 C187 1.387 . S
C186 C190 1.391 . S
C187 C186 1.387 . S
C187 C188 1.369 . S
C187 H196 0.929 . S
C188 N185 1.346 . S
C188 C187 1.369 . S
C188 H191 0.928 . S
C189 N185 1.345 . S
C189 C190 1.371 . S
C189 H192 0.931 . S
C190 C186 1.391 . S
C190 C189 1.371 . S
C190 H197 0.930 . S
H191 C188 0.928 . S
H192 C189 0.931 . S
H193 C169 0.930 . S
H194 C166 0.930 . S
H195 C175 0.930 . S
H196 C187 0.929 . S
H197 C190 0.930 . S
C198 C199 1.351 . S
C198 N201 1.368 . S
C198 H203 0.931 . S
C199 C198 1.351 . S
C199 N200 1.373 . S
C199 H227 0.930 . S
N200 C199 1.373 . S
N200 C202 1.340 . S
N201 C198 1.368 . S
N201 C202 1.321 . S
N201 Co204 2.135 . S
C202 N200 1.340 . S
C202 N201 1.321 . S
C202 H226 0.930 . S
H203 C198 0.931 . S
Co204 N201 2.135 . S
Co204 N207 2.121 . S
Co204 O212 2.055 . S
Co204 O215 2.039 . S
Co204 N218 2.140 . S
C205 O206 1.227 . S
C205 O215 1.265 . S
O206 C205 1.227 . S
N207 Co204 2.121 . S
N207 C209 1.375 . S
N207 C210 1.313 . S
C208 C209 1.338 . S
C208 N211 1.377 . S
C208 H228 0.930 . S
C209 N207 1.375 . S
C209 C208 1.338 . S
C209 H213 0.931 . S
C210 N207 1.313 . S
C210 N211 1.344 . S
C210 H214 0.930 . S
N211 C208 1.377 . S
N211 C210 1.344 . S
O212 Co204 2.055 . S
O212 C216 1.253 . S
H213 C209 0.931 . S
H214 C210 0.930 . S
O215 Co204 2.039 . S
O215 C205 1.265 . S
C216 O212 1.253 . S
C216 O217 1.227 . S
O217 C216 1.227 . S
N218 Co204 2.140 . S
N218 C221 1.346 . S
N218 C222 1.345 . S
C219 C220 1.387 . S
C219 C223 1.391 . S
C220 C219 1.387 . S
C220 C221 1.369 . S
C220 H229 0.929 . S
C221 N218 1.346 . S
C221 C220 1.369 . S
C221 H224 0.928 . S
C222 N218 1.345 . S
C222 C223 1.371 . S
C222 H225 0.931 . S
C223 C219 1.391 . S
C223 C222 1.371 . S
C223 H230 0.930 . S
H224 C221 0.928 . S
H225 C222 0.931 . S
H226 C202 0.930 . S
H227 C199 0.930 . S
H228 C208 0.930 . S
H229 C220 0.929 . S
H230 C223 0.930 . S
C231 C232 1.351 . S
C231 N234 1.368 . S
C231 H236 0.931 . S
C232 C231 1.351 . S
C232 N233 1.373 . S
C232 H260 0.930 . S
N233 C232 1.373 . S
N233 C235 1.340 . S
N234 C231 1.368 . S
N234 C235 1.321 . S
N234 Co237 2.135 . S
C235 N233 1.340 . S
C235 N234 1.321 . S
C235 H259 0.930 . S
H236 C231 0.931 . S
Co237 N234 2.135 . S
Co237 N240 2.121 . S
Co237 O245 2.055 . S
Co237 O248 2.039 . S
Co237 N251 2.140 . S
C238 O239 1.227 . S
C238 O248 1.265 . S
O239 C238 1.227 . S
N240 Co237 2.121 . S
N240 C242 1.375 . S
N240 C243 1.313 . S
C241 C242 1.338 . S
C241 N244 1.377 . S
C241 H261 0.930 . S
C242 N240 1.375 . S
C242 C241 1.338 . S
C242 H246 0.931 . S
C243 N240 1.313 . S
C243 N244 1.344 . S
C243 H247 0.930 . S
N244 C241 1.377 . S
N244 C243 1.344 . S
O245 Co237 2.055 . S
O245 C249 1.253 . S
H246 C242 0.931 . S
H247 C243 0.930 . S
O248 Co237 2.039 . S
O248 C238 1.265 . S
C249 O245 1.253 . S
C249 O250 1.227 . S
O250 C249 1.227 . S
N251 Co237 2.140 . S
N251 C254 1.346 . S
N251 C255 1.345 . S
C252 C253 1.387 . S
C252 C256 1.391 . S
C253 C252 1.387 . S
C253 C254 1.369 . S
C253 H262 0.929 . S
C254 N251 1.346 . S
C254 C253 1.369 . S
C254 H257 0.928 . S
C255 N251 1.345 . S
C255 C256 1.371 . S
C255 H258 0.931 . S
C256 C252 1.391 . S
C256 C255 1.371 . S
C256 H263 0.930 . S
H257 C254 0.928 . S
H258 C255 0.931 . S
H259 C235 0.930 . S
H260 C232 0.930 . S
H261 C241 0.930 . S
H262 C253 0.929 . S
H263 C256 0.930 . S
C264 C265 1.351 . S
C264 N267 1.368 . S
C264 H269 0.931 . S
C265 C264 1.351 . S
C265 N266 1.373 . S
C265 H293 0.930 . S
N266 C265 1.373 . S
N266 C268 1.340 . S
N267 C264 1.368 . S
N267 C268 1.321 . S
N267 Co270 2.135 . S
C268 N266 1.340 . S
C268 N267 1.321 . S
C268 H292 0.930 . S
H269 C264 0.931 . S
Co270 N267 2.135 . S
Co270 N273 2.121 . S
Co270 O278 2.055 . S
Co270 O281 2.039 . S
Co270 N284 2.140 . S
C271 O272 1.227 . S
C271 O281 1.265 . S
O272 C271 1.227 . S
N273 Co270 2.121 . S
N273 C275 1.375 . S
N273 C276 1.313 . S
C274 C275 1.338 . S
C274 N277 1.377 . S
C274 H294 0.930 . S
C275 N273 1.375 . S
C275 C274 1.338 . S
C275 H279 0.931 . S
C276 N273 1.313 . S
C276 N277 1.344 . S
C276 H280 0.930 . S
N277 C274 1.377 . S
N277 C276 1.344 . S
O278 Co270 2.055 . S
O278 C282 1.253 . S
H279 C275 0.931 . S
H280 C276 0.930 . S
O281 Co270 2.039 . S
O281 C271 1.265 . S
C282 O278 1.253 . S
C282 O283 1.227 . S
O283 C282 1.227 . S
N284 Co270 2.140 . S
N284 C287 1.346 . S
N284 C288 1.345 . S
C285 C286 1.387 . S
C285 C289 1.391 . S
C286 C285 1.387 . S
C286 C287 1.369 . S
C286 H295 0.929 . S
C287 N284 1.346 . S
C287 C286 1.369 . S
C287 H290 0.928 . S
C288 N284 1.345 . S
C288 C289 1.371 . S
C288 H291 0.931 . S
C289 C285 1.391 . S
C289 C288 1.371 . S
C289 H296 0.930 . S
H290 C287 0.928 . S
H291 C288 0.931 . S
H292 C268 0.930 . S
H293 C265 0.930 . S
H294 C274 0.930 . S
H295 C286 0.929 . S
H296 C289 0.930 . S
C297 C298 1.351 . S
C297 N300 1.368 . S
C297 H302 0.931 . S
C298 C297 1.351 . S
C298 N299 1.373 . S
C298 H326 0.930 . S
N299 C298 1.373 . S
N299 C301 1.340 . S
N300 C297 1.368 . S
N300 C301 1.321 . S
N300 Co303 2.135 . S
C301 N299 1.340 . S
C301 N300 1.321 . S
C301 H325 0.930 . S
H302 C297 0.931 . S
Co303 N300 2.135 . S
Co303 N306 2.121 . S
Co303 O311 2.055 . S
Co303 O314 2.039 . S
Co303 N317 2.140 . S
C304 O305 1.227 . S
C304 O314 1.265 . S
O305 C304 1.227 . S
N306 Co303 2.121 . S
N306 C308 1.375 . S
N306 C309 1.313 . S
C307 C308 1.338 . S
C307 N310 1.377 . S
C307 H327 0.930 . S
C308 N306 1.375 . S
C308 C307 1.338 . S
C308 H312 0.931 . S
C309 N306 1.313 . S
C309 N310 1.344 . S
C309 H313 0.930 . S
N310 C307 1.377 . S
N310 C309 1.344 . S
O311 Co303 2.055 . S
O311 C315 1.253 . S
H312 C308 0.931 . S
H313 C309 0.930 . S
O314 Co303 2.039 . S
O314 C304 1.265 . S
C315 O311 1.253 . S
C315 O316 1.227 . S
O316 C315 1.227 . S
N317 Co303 2.140 . S
N317 C320 1.346 . S
N317 C321 1.345 . S
C318 C319 1.387 . S
C318 C322 1.391 . S
C319 C318 1.387 . S
C319 C320 1.369 . S
C319 H328 0.929 . S
C320 N317 1.346 . S
C320 C319 1.369 . S
C320 H323 0.928 . S
C321 N317 1.345 . S
C321 C322 1.371 . S
C321 H324 0.931 . S
C322 C318 1.391 . S
C322 C321 1.371 . S
C322 H329 0.930 . S
H323 C320 0.928 . S
H324 C321 0.931 . S
H325 C301 0.930 . S
H326 C298 0.930 . S
H327 C307 0.930 . S
H328 C319 0.929 . S
H329 C322 0.930 . S
C330 C331 1.351 . S
C330 N333 1.368 . S
C330 H335 0.931 . S
C331 C330 1.351 . S
C331 N332 1.373 . S
C331 H359 0.930 . S
N332 C331 1.373 . S
N332 C334 1.340 . S
N333 C330 1.368 . S
N333 C334 1.321 . S
N333 Co336 2.135 . S
C334 N332 1.340 . S
C334 N333 1.321 . S
C334 H358 0.930 . S
H335 C330 0.931 . S
Co336 N333 2.135 . S
Co336 N339 2.121 . S
Co336 O344 2.055 . S
Co336 O347 2.039 . S
Co336 N350 2.140 . S
C337 O338 1.227 . S
C337 O347 1.265 . S
O338 C337 1.227 . S
N339 Co336 2.121 . S
N339 C341 1.375 . S
N339 C342 1.313 . S
C340 C341 1.338 . S
C340 N343 1.377 . S
C340 H360 0.930 . S
C341 N339 1.375 . S
C341 C340 1.338 . S
C341 H345 0.931 . S
C342 N339 1.313 . S
C342 N343 1.344 . S
C342 H346 0.930 . S
N343 C340 1.377 . S
N343 C342 1.344 . S
O344 Co336 2.055 . S
O344 C348 1.253 . S
H345 C341 0.931 . S
H346 C342 0.930 . S
O347 Co336 2.039 . S
O347 C337 1.265 . S
C348 O344 1.253 . S
C348 O349 1.227 . S
O349 C348 1.227 . S
N350 Co336 2.140 . S
N350 C353 1.346 . S
N350 C354 1.345 . S
C351 C352 1.387 . S
C351 C355 1.391 . S
C352 C351 1.387 . S
C352 C353 1.369 . S
C352 H361 0.929 . S
C353 N350 1.346 . S
C353 C352 1.369 . S
C353 H356 0.928 . S
C354 N350 1.345 . S
C354 C355 1.371 . S
C354 H357 0.931 . S
C355 C351 1.391 . S
C355 C354 1.371 . S
C355 H362 0.930 . S
H356 C353 0.928 . S
H357 C354 0.931 . S
H358 C334 0.930 . S
H359 C331 0.930 . S
H360 C340 0.930 . S
H361 C352 0.929 . S
H362 C355 0.930 . S
C363 C364 1.351 . S
C363 N366 1.368 . S
C363 H368 0.931 . S
C364 C363 1.351 . S
C364 N365 1.373 . S
C364 H392 0.930 . S
N365 C364 1.373 . S
N365 C367 1.340 . S
N366 C363 1.368 . S
N366 C367 1.321 . S
N366 Co369 2.135 . S
C367 N365 1.340 . S
C367 N366 1.321 . S
C367 H391 0.930 . S
H368 C363 0.931 . S
Co369 N366 2.135 . S
Co369 N372 2.121 . S
Co369 O377 2.055 . S
Co369 O380 2.039 . S
Co369 N383 2.140 . S
C370 O371 1.227 . S
C370 O380 1.265 . S
O371 C370 1.227 . S
N372 Co369 2.121 . S
N372 C374 1.375 . S
N372 C375 1.313 . S
C373 C374 1.338 . S
C373 N376 1.377 . S
C373 H393 0.930 . S
C374 N372 1.375 . S
C374 C373 1.338 . S
C374 H378 0.931 . S
C375 N372 1.313 . S
C375 N376 1.344 . S
C375 H379 0.930 . S
N376 C373 1.377 . S
N376 C375 1.344 . S
O377 Co369 2.055 . S
O377 C381 1.253 . S
H378 C374 0.931 . S
H379 C375 0.930 . S
O380 Co369 2.039 . S
O380 C370 1.265 . S
C381 O377 1.253 . S
C381 O382 1.227 . S
O382 C381 1.227 . S
N383 Co369 2.140 . S
N383 C386 1.346 . S
N383 C387 1.345 . S
C384 C385 1.387 . S
C384 C388 1.391 . S
C385 C384 1.387 . S
C385 C386 1.369 . S
C385 H394 0.929 . S
C386 N383 1.346 . S
C386 C385 1.369 . S
C386 H389 0.928 . S
C387 N383 1.345 . S
C387 C388 1.371 . S
C387 H390 0.931 . S
C388 C384 1.391 . S
C388 C387 1.371 . S
C388 H395 0.930 . S
H389 C386 0.928 . S
H390 C387 0.931 . S
H391 C367 0.930 . S
H392 C364 0.930 . S
H393 C373 0.930 . S
H394 C385 0.929 . S
H395 C388 0.930 . S
C396 C397 1.391 . S
C396 C398 1.394 . S
C396 H412 0.931 . S
C397 C396 1.391 . S
C397 C401 1.376 . S
C398 C396 1.394 . S
C398 C399 1.369 . S
C398 C402 1.531 . S
C399 C398 1.369 . S
C399 C400 1.410 . S
C399 C407 1.503 . S
C400 C399 1.410 . S
C400 C401 1.392 . S
C400 C403 1.511 . S
C401 C397 1.376 . S
C401 C400 1.392 . S
C401 H413 0.929 . S
C402 C398 1.531 . S
C402 H414 0.960 . S
C402 H415 0.962 . S
C402 H416 0.960 . S
C403 C400 1.511 . S
C403 H417 0.961 . S
C403 H418 0.961 . S
C403 H419 0.961 . S
C404 C405 1.370 . S
C404 C406 1.363 . S
C404 H420 0.931 . S
C405 C404 1.370 . S
C405 C409 1.408 . S
C406 C404 1.363 . S
C406 C407 1.370 . S
C406 C410 1.524 . S
C407 C399 1.503 . S
C407 C406 1.370 . S
C407 C408 1.403 . S
C408 C407 1.403 . S
C408 C409 1.404 . S
C408 C411 1.539 . S
C409 C405 1.408 . S
C409 C408 1.404 . S
C409 H421 0.930 . S
C410 C406 1.524 . S
C410 H422 0.956 . S
C410 H423 0.961 . S
C410 H424 0.961 . S
C411 C408 1.539 . S
C411 H425 0.958 . S
C411 H426 0.961 . S
C411 H427 0.960 . S
H412 C396 0.931 . S
H413 C401 0.929 . S
H414 C402 0.960 . S
H415 C402 0.962 . S
H416 C402 0.960 . S
H417 C403 0.961 . S
H418 C403 0.961 . S
H419 C403 0.961 . S
H420 C404 0.931 . S
H421 C409 0.930 . S
H422 C410 0.956 . S
H423 C410 0.961 . S
H424 C410 0.961 . S
H425 C411 0.958 . S
H426 C411 0.961 . S
H427 C411 0.960 . S
C428 C429 1.391 . S
C428 C430 1.394 . S
C428 H444 0.931 . S
C429 C428 1.391 . S
C429 C433 1.376 . S
C430 C428 1.394 . S
C430 C431 1.369 . S
C430 C434 1.531 . S
C431 C430 1.369 . S
C431 C432 1.410 . S
C431 C439 1.503 . S
C432 C431 1.410 . S
C432 C433 1.392 . S
C432 C435 1.511 . S
C433 C429 1.376 . S
C433 C432 1.392 . S
C433 H445 0.929 . S
C434 C430 1.531 . S
C434 H446 0.960 . S
C434 H447 0.962 . S
C434 H448 0.960 . S
C435 C432 1.511 . S
C435 H449 0.961 . S
C435 H450 0.961 . S
C435 H451 0.961 . S
C436 C437 1.370 . S
C436 C438 1.363 . S
C436 H452 0.931 . S
C437 C436 1.370 . S
C437 C441 1.408 . S
C438 C436 1.363 . S
C438 C439 1.370 . S
C438 C442 1.524 . S
C439 C431 1.503 . S
C439 C438 1.370 . S
C439 C440 1.403 . S
C440 C439 1.403 . S
C440 C441 1.404 . S
C440 C443 1.539 . S
C441 C437 1.408 . S
C441 C440 1.404 . S
C441 H453 0.930 . S
C442 C438 1.524 . S
C442 H454 0.956 . S
C442 H455 0.961 . S
C442 H456 0.961 . S
C443 C440 1.539 . S
C443 H457 0.958 . S
C443 H458 0.961 . S
C443 H459 0.960 . S
H444 C428 0.931 . S
H445 C433 0.929 . S
H446 C434 0.960 . S
H447 C434 0.962 . S
H448 C434 0.960 . S
H449 C435 0.961 . S
H450 C435 0.961 . S
H451 C435 0.961 . S
H452 C436 0.931 . S
H453 C441 0.930 . S
H454 C442 0.956 . S
H455 C442 0.961 . S
H456 C442 0.961 . S
H457 C443 0.958 . S
H458 C443 0.961 . S
H459 C443 0.960 . S
C460 C461 1.391 . S
C460 C462 1.394 . S
C460 H476 0.931 . S
C461 C460 1.391 . S
C461 C465 1.376 . S
C462 C460 1.394 . S
C462 C463 1.369 . S
C462 C466 1.531 . S
C463 C462 1.369 . S
C463 C464 1.410 . S
C463 C471 1.503 . S
C464 C463 1.410 . S
C464 C465 1.392 . S
C464 C467 1.511 . S
C465 C461 1.376 . S
C465 C464 1.392 . S
C465 H477 0.929 . S
C466 C462 1.531 . S
C466 H478 0.960 . S
C466 H479 0.962 . S
C466 H480 0.960 . S
C467 C464 1.511 . S
C467 H481 0.961 . S
C467 H482 0.961 . S
C467 H483 0.961 . S
C468 C469 1.370 . S
C468 C470 1.363 . S
C468 H484 0.931 . S
C469 C468 1.370 . S
C469 C473 1.408 . S
C470 C468 1.363 . S
C470 C471 1.370 . S
C470 C474 1.524 . S
C471 C463 1.503 . S
C471 C470 1.370 . S
C471 C472 1.403 . S
C472 C471 1.403 . S
C472 C473 1.404 . S
C472 C475 1.539 . S
C473 C469 1.408 . S
C473 C472 1.404 . S
C473 H485 0.930 . S
C474 C470 1.524 . S
C474 H486 0.956 . S
C474 H487 0.961 . S
C474 H488 0.961 . S
C475 C472 1.539 . S
C475 H489 0.958 . S
C475 H490 0.961 . S
C475 H491 0.960 . S
H476 C460 0.931 . S
H477 C465 0.929 . S
H478 C466 0.960 . S
H479 C466 0.962 . S
H480 C466 0.960 . S
H481 C467 0.961 . S
H482 C467 0.961 . S
H483 C467 0.961 . S
H484 C468 0.931 . S
H485 C473 0.930 . S
H486 C474 0.956 . S
H487 C474 0.961 . S
H488 C474 0.961 . S
H489 C475 0.958 . S
H490 C475 0.961 . S
H491 C475 0.960 . S
C492 C493 1.391 . S
C492 C494 1.394 . S
C492 H508 0.931 . S
C493 C492 1.391 . S
C493 C497 1.376 . S
C494 C492 1.394 . S
C494 C495 1.369 . S
C494 C498 1.531 . S
C495 C494 1.369 . S
C495 C496 1.410 . S
C495 C503 1.503 . S
C496 C495 1.410 . S
C496 C497 1.392 . S
C496 C499 1.511 . S
C497 C493 1.376 . S
C497 C496 1.392 . S
C497 H509 0.929 . S
C498 C494 1.531 . S
C498 H510 0.960 . S
C498 H511 0.962 . S
C498 H512 0.960 . S
C499 C496 1.511 . S
C499 H513 0.961 . S
C499 H514 0.961 . S
C499 H515 0.961 . S
C500 C501 1.370 . S
C500 C502 1.363 . S
C500 H516 0.931 . S
C501 C500 1.370 . S
C501 C505 1.408 . S
C502 C500 1.363 . S
C502 C503 1.370 . S
C502 C506 1.524 . S
C503 C495 1.503 . S
C503 C502 1.370 . S
C503 C504 1.403 . S
C504 C503 1.403 . S
C504 C505 1.404 . S
C504 C507 1.539 . S
C505 C501 1.408 . S
C505 C504 1.404 . S
C505 H517 0.930 . S
C506 C502 1.524 . S
C506 H518 0.956 . S
C506 H519 0.961 . S
C506 H520 0.961 . S
C507 C504 1.539 . S
C507 H521 0.958 . S
C507 H522 0.961 . S
C507 H523 0.960 . S
H508 C492 0.931 . S
H509 C497 0.929 . S
H510 C498 0.960 . S
H511 C498 0.962 . S
H512 C498 0.960 . S
H513 C499 0.961 . S
H514 C499 0.961 . S
H515 C499 0.961 . S
H516 C500 0.931 . S
H517 C505 0.930 . S
H518 C506 0.956 . S
H519 C506 0.961 . S
H520 C506 0.961 . S
H521 C507 0.958 . S
H522 C507 0.961 . S
H523 C507 0.960 . S
C524 C525 1.391 . S
C524 C526 1.394 . S
C524 H540 0.931 . S
C525 C524 1.391 . S
C525 C529 1.376 . S
C526 C524 1.394 . S
C526 C527 1.369 . S
C526 C530 1.531 . S
C527 C526 1.369 . S
C527 C528 1.410 . S
C527 C535 1.503 . S
C528 C527 1.410 . S
C528 C529 1.392 . S
C528 C531 1.511 . S
C529 C525 1.376 . S
C529 C528 1.392 . S
C529 H541 0.929 . S
C530 C526 1.531 . S
C530 H542 0.960 . S
C530 H543 0.962 . S
C530 H544 0.960 . S
C531 C528 1.511 . S
C531 H545 0.961 . S
C531 H546 0.961 . S
C531 H547 0.961 . S
C532 C533 1.370 . S
C532 C534 1.363 . S
C532 H548 0.931 . S
C533 C532 1.370 . S
C533 C537 1.408 . S
C534 C532 1.363 . S
C534 C535 1.370 . S
C534 C538 1.524 . S
C535 C527 1.503 . S
C535 C534 1.370 . S
C535 C536 1.403 . S
C536 C535 1.403 . S
C536 C537 1.404 . S
C536 C539 1.539 . S
C537 C533 1.408 . S
C537 C536 1.404 . S
C537 H549 0.930 . S
C538 C534 1.524 . S
C538 H550 0.956 . S
C538 H551 0.961 . S
C538 H552 0.961 . S
C539 C536 1.539 . S
C539 H553 0.958 . S
C539 H554 0.961 . S
C539 H555 0.960 . S
H540 C524 0.931 . S
H541 C529 0.929 . S
H542 C530 0.960 . S
H543 C530 0.962 . S
H544 C530 0.960 . S
H545 C531 0.961 . S
H546 C531 0.961 . S
H547 C531 0.961 . S
H548 C532 0.931 . S
H549 C537 0.930 . S
H550 C538 0.956 . S
H551 C538 0.961 . S
H552 C538 0.961 . S
H553 C539 0.958 . S
H554 C539 0.961 . S
H555 C539 0.960 . S
C556 C557 1.391 . S
C556 C558 1.394 . S
C556 H572 0.931 . S
C557 C556 1.391 . S
C557 C561 1.376 . S
C558 C556 1.394 . S
C558 C559 1.369 . S
C558 C562 1.531 . S
C559 C558 1.369 . S
C559 C560 1.410 . S
C559 C567 1.503 . S
C560 C559 1.410 . S
C560 C561 1.392 . S
C560 C563 1.511 . S
C561 C557 1.376 . S
C561 C560 1.392 . S
C561 H573 0.929 . S
C562 C558 1.531 . S
C562 H574 0.960 . S
C562 H575 0.962 . S
C562 H576 0.960 . S
C563 C560 1.511 . S
C563 H577 0.961 . S
C563 H578 0.961 . S
C563 H579 0.961 . S
C564 C565 1.370 . S
C564 C566 1.363 . S
C564 H580 0.931 . S
C565 C564 1.370 . S
C565 C569 1.408 . S
C566 C564 1.363 . S
C566 C567 1.370 . S
C566 C570 1.524 . S
C567 C559 1.503 . S
C567 C566 1.370 . S
C567 C568 1.403 . S
C568 C567 1.403 . S
C568 C569 1.404 . S
C568 C571 1.539 . S
C569 C565 1.408 . S
C569 C568 1.404 . S
C569 H581 0.930 . S
C570 C566 1.524 . S
C570 H582 0.956 . S
C570 H583 0.961 . S
C570 H584 0.961 . S
C571 C568 1.539 . S
C571 H585 0.958 . S
C571 H586 0.961 . S
C571 H587 0.960 . S
H572 C556 0.931 . S
H573 C561 0.929 . S
H574 C562 0.960 . S
H575 C562 0.962 . S
H576 C562 0.960 . S
H577 C563 0.961 . S
H578 C563 0.961 . S
H579 C563 0.961 . S
H580 C564 0.931 . S
H581 C569 0.930 . S
H582 C570 0.956 . S
H583 C570 0.961 . S
H584 C570 0.961 . S
H585 C571 0.958 . S
H586 C571 0.961 . S
H587 C571 0.960 . S
C588 C589 1.391 . S
C588 C590 1.394 . S
C588 H604 0.931 . S
C589 C588 1.391 . S
C589 C593 1.376 . S
C590 C588 1.394 . S
C590 C591 1.369 . S
C590 C594 1.531 . S
C591 C590 1.369 . S
C591 C592 1.410 . S
C591 C599 1.503 . S
C592 C591 1.410 . S
C592 C593 1.392 . S
C592 C595 1.511 . S
C593 C589 1.376 . S
C593 C592 1.392 . S
C593 H605 0.929 . S
C594 C590 1.531 . S
C594 H606 0.960 . S
C594 H607 0.962 . S
C594 H608 0.960 . S
C595 C592 1.511 . S
C595 H609 0.961 . S
C595 H610 0.961 . S
C595 H611 0.961 . S
C596 C597 1.370 . S
C596 C598 1.363 . S
C596 H612 0.931 . S
C597 C596 1.370 . S
C597 C601 1.408 . S
C598 C596 1.363 . S
C598 C599 1.370 . S
C598 C602 1.524 . S
C599 C591 1.503 . S
C599 C598 1.370 . S
C599 C600 1.403 . S
C600 C599 1.403 . S
C600 C601 1.404 . S
C600 C603 1.539 . S
C601 C597 1.408 . S
C601 C600 1.404 . S
C601 H613 0.930 . S
C602 C598 1.524 . S
C602 H614 0.956 . S
C602 H615 0.961 . S
C602 H616 0.961 . S
C603 C600 1.539 . S
C603 H617 0.958 . S
C603 H618 0.961 . S
C603 H619 0.960 . S
H604 C588 0.931 . S
H605 C593 0.929 . S
H606 C594 0.960 . S
H607 C594 0.962 . S
H608 C594 0.960 . S
H609 C595 0.961 . S
H610 C595 0.961 . S
H611 C595 0.961 . S
H612 C596 0.931 . S
H613 C601 0.930 . S
H614 C602 0.956 . S
H615 C602 0.961 . S
H616 C602 0.961 . S
H617 C603 0.958 . S
H618 C603 0.961 . S
H619 C603 0.960 . S
C620 C621 1.391 . S
C620 C622 1.394 . S
C620 H636 0.931 . S
C621 C620 1.391 . S
C621 C625 1.376 . S
C622 C620 1.394 . S
C622 C623 1.369 . S
C622 C626 1.531 . S
C623 C622 1.369 . S
C623 C624 1.410 . S
C623 C631 1.503 . S
C624 C623 1.410 . S
C624 C625 1.392 . S
C624 C627 1.511 . S
C625 C621 1.376 . S
C625 C624 1.392 . S
C625 H637 0.929 . S
C626 C622 1.531 . S
C626 H638 0.960 . S
C626 H639 0.962 . S
C626 H640 0.960 . S
C627 C624 1.511 . S
C627 H641 0.961 . S
C627 H642 0.961 . S
C627 H643 0.961 . S
C628 C629 1.370 . S
C628 C630 1.363 . S
C628 H644 0.931 . S
C629 C628 1.370 . S
C629 C633 1.408 . S
C630 C628 1.363 . S
C630 C631 1.370 . S
C630 C634 1.524 . S
C631 C623 1.503 . S
C631 C630 1.370 . S
C631 C632 1.403 . S
C632 C631 1.403 . S
C632 C633 1.404 . S
C632 C635 1.539 . S
C633 C629 1.408 . S
C633 C632 1.404 . S
C633 H645 0.930 . S
C634 C630 1.524 . S
C634 H646 0.956 . S
C634 H647 0.961 . S
C634 H648 0.961 . S
C635 C632 1.539 . S
C635 H649 0.958 . S
C635 H650 0.961 . S
C635 H651 0.960 . S
H636 C620 0.931 . S
H637 C625 0.929 . S
H638 C626 0.960 . S
H639 C626 0.962 . S
H640 C626 0.960 . S
H641 C627 0.961 . S
H642 C627 0.961 . S
H643 C627 0.961 . S
H644 C628 0.931 . S
H645 C633 0.930 . S
H646 C634 0.956 . S
H647 C634 0.961 . S
H648 C634 0.961 . S
H649 C635 0.958 . S
H650 C635 0.961 . S
H651 C635 0.960 . S
C652 C653 1.391 . S
C652 C654 1.394 . S
C652 H668 0.931 . S
C653 C652 1.391 . S
C653 C657 1.376 . S
C654 C652 1.394 . S
C654 C655 1.369 . S
C654 C658 1.531 . S
C655 C654 1.369 . S
C655 C656 1.410 . S
C655 C663 1.503 . S
C656 C655 1.410 . S
C656 C657 1.392 . S
C656 C659 1.511 . S
C657 C653 1.376 . S
C657 C656 1.392 . S
C657 H669 0.929 . S
C658 C654 1.531 . S
C658 H670 0.960 . S
C658 H671 0.962 . S
C658 H672 0.960 . S
C659 C656 1.511 . S
C659 H673 0.961 . S
C659 H674 0.961 . S
C659 H675 0.961 . S
C660 C661 1.370 . S
C660 C662 1.363 . S
C660 H676 0.931 . S
C661 C660 1.370 . S
C661 C665 1.408 . S
C662 C660 1.363 . S
C662 C663 1.370 . S
C662 C666 1.524 . S
C663 C655 1.503 . S
C663 C662 1.370 . S
C663 C664 1.403 . S
C664 C663 1.403 . S
C664 C665 1.404 . S
C664 C667 1.539 . S
C665 C661 1.408 . S
C665 C664 1.404 . S
C665 H677 0.930 . S
C666 C662 1.524 . S
C666 H678 0.956 . S
C666 H679 0.961 . S
C666 H680 0.961 . S
C667 C664 1.539 . S
C667 H681 0.958 . S
C667 H682 0.961 . S
C667 H683 0.960 . S
H668 C652 0.931 . S
H669 C657 0.929 . S
H670 C658 0.960 . S
H671 C658 0.962 . S
H672 C658 0.960 . S
H673 C659 0.961 . S
H674 C659 0.961 . S
H675 C659 0.961 . S
H676 C660 0.931 . S
H677 C665 0.930 . S
H678 C666 0.956 . S
H679 C666 0.961 . S
H680 C666 0.961 . S
H681 C667 0.958 . S
H682 C667 0.961 . S
H683 C667 0.960 . S
C684 C685 1.391 . S
C684 C686 1.394 . S
C684 H700 0.931 . S
C685 C684 1.391 . S
C685 C689 1.376 . S
C686 C684 1.394 . S
C686 C687 1.369 . S
C686 C690 1.531 . S
C687 C686 1.369 . S
C687 C688 1.410 . S
C687 C695 1.503 . S
C688 C687 1.410 . S
C688 C689 1.392 . S
C688 C691 1.511 . S
C689 C685 1.376 . S
C689 C688 1.392 . S
C689 H701 0.929 . S
C690 C686 1.531 . S
C690 H702 0.960 . S
C690 H703 0.962 . S
C690 H704 0.960 . S
C691 C688 1.511 . S
C691 H705 0.961 . S
C691 H706 0.961 . S
C691 H707 0.961 . S
C692 C693 1.370 . S
C692 C694 1.363 . S
C692 H708 0.931 . S
C693 C692 1.370 . S
C693 C697 1.408 . S
C694 C692 1.363 . S
C694 C695 1.370 . S
C694 C698 1.524 . S
C695 C687 1.503 . S
C695 C694 1.370 . S
C695 C696 1.403 . S
C696 C695 1.403 . S
C696 C697 1.404 . S
C696 C699 1.539 . S
C697 C693 1.408 . S
C697 C696 1.404 . S
C697 H709 0.930 . S
C698 C694 1.524 . S
C698 H710 0.956 . S
C698 H711 0.961 . S
C698 H712 0.961 . S
C699 C696 1.539 . S
C699 H713 0.958 . S
C699 H714 0.961 . S
C699 H715 0.960 . S
H700 C684 0.931 . S
H701 C689 0.929 . S
H702 C690 0.960 . S
H703 C690 0.962 . S
H704 C690 0.960 . S
H705 C691 0.961 . S
H706 C691 0.961 . S
H707 C691 0.961 . S
H708 C692 0.931 . S
H709 C697 0.930 . S
H710 C698 0.956 . S
H711 C698 0.961 . S
H712 C698 0.961 . S
H713 C699 0.958 . S
H714 C699 0.961 . S
H715 C699 0.960 . S
C716 C717 1.391 . S
C716 C718 1.394 . S
C716 H732 0.931 . S
C717 C716 1.391 . S
C717 C721 1.376 . S
C718 C716 1.394 . S
C718 C719 1.369 . S
C718 C722 1.531 . S
C719 C718 1.369 . S
C719 C720 1.410 . S
C719 C727 1.503 . S
C720 C719 1.410 . S
C720 C721 1.392 . S
C720 C723 1.511 . S
C721 C717 1.376 . S
C721 C720 1.392 . S
C721 H733 0.929 . S
C722 C718 1.531 . S
C722 H734 0.960 . S
C722 H735 0.962 . S
C722 H736 0.960 . S
C723 C720 1.511 . S
C723 H737 0.961 . S
C723 H738 0.961 . S
C723 H739 0.961 . S
C724 C725 1.370 . S
C724 C726 1.363 . S
C724 H740 0.931 . S
C725 C724 1.370 . S
C725 C729 1.408 . S
C726 C724 1.363 . S
C726 C727 1.370 . S
C726 C730 1.524 . S
C727 C719 1.503 . S
C727 C726 1.370 . S
C727 C728 1.403 . S
C728 C727 1.403 . S
C728 C729 1.404 . S
C728 C731 1.539 . S
C729 C725 1.408 . S
C729 C728 1.404 . S
C729 H741 0.930 . S
C730 C726 1.524 . S
C730 H742 0.956 . S
C730 H743 0.961 . S
C730 H744 0.961 . S
C731 C728 1.539 . S
C731 H745 0.958 . S
C731 H746 0.961 . S
C731 H747 0.960 . S
H732 C716 0.931 . S
H733 C721 0.929 . S
H734 C722 0.960 . S
H735 C722 0.962 . S
H736 C722 0.960 . S
H737 C723 0.961 . S
H738 C723 0.961 . S
H739 C723 0.961 . S
H740 C724 0.931 . S
H741 C729 0.930 . S
H742 C730 0.956 . S
H743 C730 0.961 . S
H744 C730 0.961 . S
H745 C731 0.958 . S
H746 C731 0.961 . S
H747 C731 0.960 . S
C748 C749 1.391 . S
C748 C750 1.394 . S
C748 H764 0.931 . S
C749 C748 1.391 . S
C749 C753 1.376 . S
C750 C748 1.394 . S
C750 C751 1.369 . S
C750 C754 1.531 . S
C751 C750 1.369 . S
C751 C752 1.410 . S
C751 C759 1.503 . S
C752 C751 1.410 . S
C752 C753 1.392 . S
C752 C755 1.511 . S
C753 C749 1.376 . S
C753 C752 1.392 . S
C753 H765 0.929 . S
C754 C750 1.531 . S
C754 H766 0.960 . S
C754 H767 0.962 . S
C754 H768 0.960 . S
C755 C752 1.511 . S
C755 H769 0.961 . S
C755 H770 0.961 . S
C755 H771 0.961 . S
C756 C757 1.370 . S
C756 C758 1.363 . S
C756 H772 0.931 . S
C757 C756 1.370 . S
C757 C761 1.408 . S
C758 C756 1.363 . S
C758 C759 1.370 . S
C758 C762 1.524 . S
C759 C751 1.503 . S
C759 C758 1.370 . S
C759 C760 1.403 . S
C760 C759 1.403 . S
C760 C761 1.404 . S
C760 C763 1.539 . S
C761 C757 1.408 . S
C761 C760 1.404 . S
C761 H773 0.930 . S
C762 C758 1.524 . S
C762 H774 0.956 . S
C762 H775 0.961 . S
C762 H776 0.961 . S
C763 C760 1.539 . S
C763 H777 0.958 . S
C763 H778 0.961 . S
C763 H779 0.960 . S
H764 C748 0.931 . S
H765 C753 0.929 . S
H766 C754 0.960 . S
H767 C754 0.962 . S
H768 C754 0.960 . S
H769 C755 0.961 . S
H770 C755 0.961 . S
H771 C755 0.961 . S
H772 C756 0.931 . S
H773 C761 0.930 . S
H774 C762 0.956 . S
H775 C762 0.961 . S
H776 C762 0.961 . S
H777 C763 0.958 . S
H778 C763 0.961 . S
H779 C763 0.960 . S
C780 C781 1.391 . S
C780 C782 1.394 . S
C780 H796 0.931 . S
C781 C780 1.391 . S
C781 C785 1.376 . S
C782 C780 1.394 . S
C782 C783 1.369 . S
C782 C786 1.531 . S
C783 C782 1.369 . S
C783 C784 1.410 . S
C783 C791 1.503 . S
C784 C783 1.410 . S
C784 C785 1.392 . S
C784 C787 1.511 . S
C785 C781 1.376 . S
C785 C784 1.392 . S
C785 H797 0.929 . S
C786 C782 1.531 . S
C786 H798 0.960 . S
C786 H799 0.962 . S
C786 H800 0.960 . S
C787 C784 1.511 . S
C787 H801 0.961 . S
C787 H802 0.961 . S
C787 H803 0.961 . S
C788 C789 1.370 . S
C788 C790 1.363 . S
C788 H804 0.931 . S
C789 C788 1.370 . S
C789 C793 1.408 . S
C790 C788 1.363 . S
C790 C791 1.370 . S
C790 C794 1.524 . S
C791 C783 1.503 . S
C791 C790 1.370 . S
C791 C792 1.403 . S
C792 C791 1.403 . S
C792 C793 1.404 . S
C792 C795 1.539 . S
C793 C789 1.408 . S
C793 C792 1.404 . S
C793 H805 0.930 . S
C794 C790 1.524 . S
C794 H806 0.956 . S
C794 H807 0.961 . S
C794 H808 0.961 . S
C795 C792 1.539 . S
C795 H809 0.958 . S
C795 H810 0.961 . S
C795 H811 0.960 . S
H796 C780 0.931 . S
H797 C785 0.929 . S
H798 C786 0.960 . S
H799 C786 0.962 . S
H800 C786 0.960 . S
H801 C787 0.961 . S
H802 C787 0.961 . S
H803 C787 0.961 . S
H804 C788 0.931 . S
H805 C793 0.930 . S
H806 C794 0.956 . S
H807 C794 0.961 . S
H808 C794 0.961 . S
H809 C795 0.958 . S
H810 C795 0.961 . S
H811 C795 0.960 . S
C812 C813 1.391 . S
C812 C814 1.394 . S
C812 H828 0.931 . S
C813 C812 1.391 . S
C813 C817 1.376 . S
C814 C812 1.394 . S
C814 C815 1.369 . S
C814 C818 1.531 . S
C815 C814 1.369 . S
C815 C816 1.410 . S
C815 C823 1.503 . S
C816 C815 1.410 . S
C816 C817 1.392 . S
C816 C819 1.511 . S
C817 C813 1.376 . S
C817 C816 1.392 . S
C817 H829 0.929 . S
C818 C814 1.531 . S
C818 H830 0.960 . S
C818 H831 0.962 . S
C818 H832 0.960 . S
C819 C816 1.511 . S
C819 H833 0.961 . S
C819 H834 0.961 . S
C819 H835 0.961 . S
C820 C821 1.370 . S
C820 C822 1.363 . S
C820 H836 0.931 . S
C821 C820 1.370 . S
C821 C825 1.408 . S
C822 C820 1.363 . S
C822 C823 1.370 . S
C822 C826 1.524 . S
C823 C815 1.503 . S
C823 C822 1.370 . S
C823 C824 1.403 . S
C824 C823 1.403 . S
C824 C825 1.404 . S
C824 C827 1.539 . S
C825 C821 1.408 . S
C825 C824 1.404 . S
C825 H837 0.930 . S
C826 C822 1.524 . S
C826 H838 0.956 . S
C826 H839 0.961 . S
C826 H840 0.961 . S
C827 C824 1.539 . S
C827 H841 0.958 . S
C827 H842 0.961 . S
C827 H843 0.960 . S
H828 C812 0.931 . S
H829 C817 0.929 . S
H830 C818 0.960 . S
H831 C818 0.962 . S
H832 C818 0.960 . S
H833 C819 0.961 . S
H834 C819 0.961 . S
H835 C819 0.961 . S
H836 C820 0.931 . S
H837 C825 0.930 . S
H838 C826 0.956 . S
H839 C826 0.961 . S
H840 C826 0.961 . S
H841 C827 0.958 . S
H842 C827 0.961 . S
H843 C827 0.960 . S
C844 C845 1.391 . S
C844 C846 1.394 . S
C844 H860 0.931 . S
C845 C844 1.391 . S
C845 C849 1.376 . S
C846 C844 1.394 . S
C846 C847 1.369 . S
C846 C850 1.531 . S
C847 C846 1.369 . S
C847 C848 1.410 . S
C847 C855 1.503 . S
C848 C847 1.410 . S
C848 C849 1.392 . S
C848 C851 1.511 . S
C849 C845 1.376 . S
C849 C848 1.392 . S
C849 H861 0.929 . S
C850 C846 1.531 . S
C850 H862 0.960 . S
C850 H863 0.962 . S
C850 H864 0.960 . S
C851 C848 1.511 . S
C851 H865 0.961 . S
C851 H866 0.961 . S
C851 H867 0.961 . S
C852 C853 1.370 . S
C852 C854 1.363 . S
C852 H868 0.931 . S
C853 C852 1.370 . S
C853 C857 1.408 . S
C854 C852 1.363 . S
C854 C855 1.370 . S
C854 C858 1.524 . S
C855 C847 1.503 . S
C855 C854 1.370 . S
C855 C856 1.403 . S
C856 C855 1.403 . S
C856 C857 1.404 . S
C856 C859 1.539 . S
C857 C853 1.408 . S
C857 C856 1.404 . S
C857 H869 0.930 . S
C858 C854 1.524 . S
C858 H870 0.956 . S
C858 H871 0.961 . S
C858 H872 0.961 . S
C859 C856 1.539 . S
C859 H873 0.958 . S
C859 H874 0.961 . S
C859 H875 0.960 . S
H860 C844 0.931 . S
H861 C849 0.929 . S
H862 C850 0.960 . S
H863 C850 0.962 . S
H864 C850 0.960 . S
H865 C851 0.961 . S
H866 C851 0.961 . S
H867 C851 0.961 . S
H868 C852 0.931 . S
H869 C857 0.930 . S
H870 C858 0.956 . S
H871 C858 0.961 . S
H872 C858 0.961 . S
H873 C859 0.958 . S
H874 C859 0.961 . S
H875 C859 0.960 . S
C876 C877 1.391 . S
C876 C878 1.394 . S
C876 H892 0.931 . S
C877 C876 1.391 . S
C877 C881 1.376 . S
C878 C876 1.394 . S
C878 C879 1.369 . S
C878 C882 1.531 . S
C879 C878 1.369 . S
C879 C880 1.410 . S
C879 C887 1.503 . S
C880 C879 1.410 . S
C880 C881 1.392 . S
C880 C883 1.511 . S
C881 C877 1.376 . S
C881 C880 1.392 . S
C881 H893 0.929 . S
C882 C878 1.531 . S
C882 H894 0.960 . S
C882 H895 0.962 . S
C882 H896 0.960 . S
C883 C880 1.511 . S
C883 H897 0.961 . S
C883 H898 0.961 . S
C883 H899 0.961 . S
C884 C885 1.370 . S
C884 C886 1.363 . S
C884 H900 0.931 . S
C885 C884 1.370 . S
C885 C889 1.408 . S
C886 C884 1.363 . S
C886 C887 1.370 . S
C886 C890 1.524 . S
C887 C879 1.503 . S
C887 C886 1.370 . S
C887 C888 1.403 . S
C888 C887 1.403 . S
C888 C889 1.404 . S
C888 C891 1.539 . S
C889 C885 1.408 . S
C889 C888 1.404 . S
C889 H901 0.930 . S
C890 C886 1.524 . S
C890 H902 0.956 . S
C890 H903 0.961 . S
C890 H904 0.961 . S
C891 C888 1.539 . S
C891 H905 0.958 . S
C891 H906 0.961 . S
C891 H907 0.960 . S
H892 C876 0.931 . S
H893 C881 0.929 . S
H894 C882 0.960 . S
H895 C882 0.962 . S
H896 C882 0.960 . S
H897 C883 0.961 . S
H898 C883 0.961 . S
H899 C883 0.961 . S
H900 C884 0.931 . S
H901 C889 0.930 . S
H902 C890 0.956 . S
H903 C890 0.961 . S
H904 C890 0.961 . S
H905 C891 0.958 . S
H906 C891 0.961 . S
H907 C891 0.960 . S
C908 C909 1.391 . S
C908 C910 1.394 . S
C908 H924 0.931 . S
C909 C908 1.391 . S
C909 C913 1.376 . S
C910 C908 1.394 . S
C910 C911 1.369 . S
C910 C914 1.531 . S
C911 C910 1.369 . S
C911 C912 1.410 . S
C911 C919 1.503 . S
C912 C911 1.410 . S
C912 C913 1.392 . S
C912 C915 1.511 . S
C913 C909 1.376 . S
C913 C912 1.392 . S
C913 H925 0.929 . S
C914 C910 1.531 . S
C914 H926 0.960 . S
C914 H927 0.962 . S
C914 H928 0.960 . S
C915 C912 1.511 . S
C915 H929 0.961 . S
C915 H930 0.961 . S
C915 H931 0.961 . S
C916 C917 1.370 . S
C916 C918 1.363 . S
C916 H932 0.931 . S
C917 C916 1.370 . S
C917 C921 1.408 . S
C918 C916 1.363 . S
C918 C919 1.370 . S
C918 C922 1.524 . S
C919 C911 1.503 . S
C919 C918 1.370 . S
C919 C920 1.403 . S
C920 C919 1.403 . S
C920 C921 1.404 . S
C920 C923 1.539 . S
C921 C917 1.408 . S
C921 C920 1.404 . S
C921 H933 0.930 . S
C922 C918 1.524 . S
C922 H934 0.956 . S
C922 H935 0.961 . S
C922 H936 0.961 . S
C923 C920 1.539 . S
C923 H937 0.958 . S
C923 H938 0.961 . S
C923 H939 0.960 . S
H924 C908 0.931 . S
H925 C913 0.929 . S
H926 C914 0.960 . S
H927 C914 0.962 . S
H928 C914 0.960 . S
H929 C915 0.961 . S
H930 C915 0.961 . S
H931 C915 0.961 . S
H932 C916 0.931 . S
H933 C921 0.930 . S
H934 C922 0.956 . S
H935 C922 0.961 . S
H936 C922 0.961 . S
H937 C923 0.958 . S
H938 C923 0.961 . S
H939 C923 0.960 . S
C940 C941 1.391 . S
C940 C942 1.394 . S
C940 H956 0.931 . S
C941 C940 1.391 . S
C941 C945 1.376 . S
C942 C940 1.394 . S
C942 C943 1.369 . S
C942 C946 1.531 . S
C943 C942 1.369 . S
C943 C944 1.410 . S
C943 C951 1.503 . S
C944 C943 1.410 . S
C944 C945 1.392 . S
C944 C947 1.511 . S
C945 C941 1.376 . S
C945 C944 1.392 . S
C945 H957 0.929 . S
C946 C942 1.531 . S
C946 H958 0.960 . S
C946 H959 0.962 . S
C946 H960 0.960 . S
C947 C944 1.511 . S
C947 H961 0.961 . S
C947 H962 0.961 . S
C947 H963 0.961 . S
C948 C949 1.370 . S
C948 C950 1.363 . S
C948 H964 0.931 . S
C949 C948 1.370 . S
C949 C953 1.408 . S
C950 C948 1.363 . S
C950 C951 1.370 . S
C950 C954 1.524 . S
C951 C943 1.503 . S
C951 C950 1.370 . S
C951 C952 1.403 . S
C952 C951 1.403 . S
C952 C953 1.404 . S
C952 C955 1.539 . S
C953 C949 1.408 . S
C953 C952 1.404 . S
C953 H965 0.930 . S
C954 C950 1.524 . S
C954 H966 0.956 . S
C954 H967 0.961 . S
C954 H968 0.961 . S
C955 C952 1.539 . S
C955 H969 0.958 . S
C955 H970 0.961 . S
C955 H971 0.960 . S
H956 C940 0.931 . S
H957 C945 0.929 . S
H958 C946 0.960 . S
H959 C946 0.962 . S
H960 C946 0.960 . S
H961 C947 0.961 . S
H962 C947 0.961 . S
H963 C947 0.961 . S
H964 C948 0.931 . S
H965 C953 0.930 . S
H966 C954 0.956 . S
H967 C954 0.961 . S
H968 C954 0.961 . S
H969 C955 0.958 . S
H970 C955 0.961 . S
H971 C955 0.960 . S
C972 C973 1.391 . S
C972 C974 1.394 . S
C972 H988 0.931 . S
C973 C972 1.391 . S
C973 C977 1.376 . S
C974 C972 1.394 . S
C974 C975 1.369 . S
C974 C978 1.531 1_565 S
C975 C974 1.369 . S
C975 C976 1.410 1_556 S
C975 C983 1.503 1_566 S
C976 C975 1.410 1_554 S
C976 C977 1.392 1_554 S
C976 C979 1.511 . S
C977 C973 1.376 . S
C977 C976 1.392 1_556 S
C977 H989 0.929 1_556 S
C978 C974 1.531 1_545 S
C978 H990 0.960 . S
C978 H991 0.962 . S
C978 H992 0.960 . S
C979 C976 1.511 . S
C979 H993 0.961 . S
C979 H994 0.961 . S
C979 H995 0.961 . S
C980 C981 1.370 . S
C980 C982 1.363 . S
C980 H996 0.931 . S
C981 C980 1.370 . S
C981 C985 1.408 . S
C982 C980 1.363 . S
C982 C983 1.370 . S
C982 C986 1.524 1_554 S
C983 C975 1.503 1_544 S
C983 C982 1.370 . S
C983 C984 1.403 . S
C984 C983 1.403 . S
C984 C985 1.404 . S
C984 C987 1.539 . S
C985 C981 1.408 . S
C985 C984 1.404 . S
C985 H997 0.930 . S
C986 C982 1.524 1_556 S
C986 H998 0.956 . S
C986 H999 0.961 1_546 S
C986 H1000 0.961 1_556 S
C987 C984 1.539 . S
C987 H1001 0.962 . S
C987 H1002 0.961 . S
C987 H1003 0.960 1_545 S
H988 C972 0.931 . S
H989 C977 0.929 1_554 S
H990 C978 0.960 . S
H991 C978 0.962 . S
H992 C978 0.960 . S
H993 C979 0.961 . S
H994 C979 0.961 . S
H995 C979 0.961 . S
H996 C980 0.931 . S
H997 C985 0.930 . S
H998 C986 0.956 . S
H999 C986 0.961 1_564 S
H1000 C986 0.961 1_554 S
H1001 C987 0.962 . S
H1002 C987 0.961 . S
H1003 C987 0.960 1_565 S
C1004 C1005 1.391 . S
C1004 C1006 1.394 . S
C1004 H1020 0.931 . S
C1005 C1004 1.391 . S
C1005 C1009 1.376 . S
C1006 C1004 1.394 . S
C1006 C1007 1.369 . S
C1006 C1010 1.531 . S
C1007 C1006 1.369 . S
C1007 C1008 1.410 . S
C1007 C1015 1.503 . S
C1008 C1007 1.410 . S
C1008 C1009 1.392 . S
C1008 C1011 1.511 . S
C1009 C1005 1.376 . S
C1009 C1008 1.392 . S
C1009 H1021 0.929 . S
C1010 C1006 1.531 . S
C1010 H1022 0.960 . S
C1010 H1023 0.962 . S
C1010 H1024 0.960 . S
C1011 C1008 1.511 . S
C1011 H1025 0.961 . S
C1011 H1026 0.961 . S
C1011 H1027 0.961 . S
C1012 C1013 1.370 . S
C1012 C1014 1.363 . S
C1012 H1028 0.931 . S
C1013 C1012 1.370 . S
C1013 C1017 1.408 . S
C1014 C1012 1.363 . S
C1014 C1015 1.370 . S
C1014 C1018 1.524 . S
C1015 C1007 1.503 . S
C1015 C1014 1.370 . S
C1015 C1016 1.403 . S
C1016 C1015 1.403 . S
C1016 C1017 1.404 . S
C1016 C1019 1.539 . S
C1017 C1013 1.408 . S
C1017 C1016 1.404 . S
C1017 H1029 0.930 . S
C1018 C1014 1.524 . S
C1018 H1030 0.956 . S
C1018 H1031 0.961 . S
C1018 H1032 0.961 . S
C1019 C1016 1.539 . S
C1019 H1033 0.958 . S
C1019 H1034 0.961 . S
C1019 H1035 0.960 . S
H1020 C1004 0.931 . S
H1021 C1009 0.929 . S
H1022 C1010 0.960 . S
H1023 C1010 0.962 . S
H1024 C1010 0.960 . S
H1025 C1011 0.961 . S
H1026 C1011 0.961 . S
H1027 C1011 0.961 . S
H1028 C1012 0.931 . S
H1029 C1017 0.930 . S
H1030 C1018 0.956 . S
H1031 C1018 0.961 . S
H1032 C1018 0.961 . S
H1033 C1019 0.958 . S
H1034 C1019 0.961 . S
H1035 C1019 0.960 . S
C1036 C1037 1.391 . S
C1036 C1038 1.394 . S
C1036 H1052 0.931 . S
C1037 C1036 1.391 . S
C1037 C1041 1.376 . S
C1038 C1036 1.394 . S
C1038 C1039 1.369 . S
C1038 C1042 1.531 . S
C1039 C1038 1.369 . S
C1039 C1040 1.410 . S
C1039 C1047 1.503 1_654 S
C1040 C1039 1.410 . S
C1040 C1041 1.392 . S
C1040 C1043 1.511 . S
C1041 C1037 1.376 . S
C1041 C1040 1.392 . S
C1041 H1053 0.929 . S
C1042 C1038 1.531 . S
C1042 H1054 0.960 1_655 S
C1042 H1055 0.962 . S
C1042 H1056 0.960 . S
C1043 C1040 1.511 . S
C1043 H1057 0.961 1_554 S
C1043 H1058 0.961 1_554 S
C1043 H1059 0.961 . S
C1044 C1045 1.370 . S
C1044 C1046 1.363 . S
C1044 H1060 0.931 . S
C1045 C1044 1.370 . S
C1045 C1049 1.408 . S
C1046 C1044 1.363 . S
C1046 C1047 1.370 . S
C1046 C1050 1.524 1_455 S
C1047 C1039 1.503 1_456 S
C1047 C1046 1.370 . S
C1047 C1048 1.403 1_556 S
C1048 C1047 1.403 1_554 S
C1048 C1049 1.404 1_554 S
C1048 C1051 1.539 . S
C1049 C1045 1.408 . S
C1049 C1048 1.404 1_556 S
C1049 H1061 0.930 1_556 S
C1050 C1046 1.524 1_655 S
C1050 H1062 0.956 . S
C1050 H1063 0.961 . S
C1050 H1064 0.961 . S
C1051 C1048 1.539 . S
C1051 H1065 0.958 . S
C1051 H1066 0.961 . S
C1051 H1067 0.960 . S
H1052 C1036 0.931 . S
H1053 C1041 0.929 . S
H1054 C1042 0.960 1_455 S
H1055 C1042 0.962 . S
H1056 C1042 0.960 . S
H1057 C1043 0.961 1_556 S
H1058 C1043 0.961 1_556 S
H1059 C1043 0.961 . S
H1060 C1044 0.931 . S
H1061 C1049 0.930 1_554 S
H1062 C1050 0.956 . S
H1063 C1050 0.961 . S
H1064 C1050 0.961 . S
H1065 C1051 0.958 . S
H1066 C1051 0.961 . S
H1067 C1051 0.960 . S
C1068 C1069 1.391 . S
C1068 C1070 1.394 . S
C1068 H1084 0.931 . S
C1069 C1068 1.391 . S
C1069 C1073 1.376 . S
C1070 C1068 1.394 . S
C1070 C1071 1.369 . S
C1070 C1074 1.531 . S
C1071 C1070 1.369 . S
C1071 C1072 1.410 . S
C1071 C1079 1.503 1_565 S
C1072 C1071 1.410 . S
C1072 C1073 1.392 . S
C1072 C1075 1.504 1_565 S
C1073 C1069 1.376 . S
C1073 C1072 1.392 . S
C1073 H1085 0.929 . S
C1074 C1070 1.531 . S
C1074 H1086 0.960 . S
C1074 H1087 0.962 . S
C1074 H1088 0.960 . S
C1075 C1072 1.504 1_545 S
C1075 H1089 0.961 1_545 S
C1075 H1090 0.966 . S
C1075 H1091 0.963 1_545 S
C1076 C1077 1.370 . S
C1076 C1078 1.363 . S
C1076 H1092 0.931 . S
C1077 C1076 1.370 . S
C1077 C1081 1.408 . S
C1078 C1076 1.363 . S
C1078 C1079 1.370 . S
C1078 C1082 1.524 . S
C1079 C1071 1.503 1_545 S
C1079 C1078 1.370 . S
C1079 C1080 1.403 . S
C1080 C1079 1.403 . S
C1080 C1081 1.404 . S
C1080 C1083 1.539 1_545 S
C1081 C1077 1.408 . S
C1081 C1080 1.404 . S
C1081 H1093 0.930 . S
C1082 C1078 1.524 . S
C1082 H1094 0.956 . S
C1082 H1095 0.961 . S
C1082 H1096 0.961 . S
C1083 C1080 1.539 1_565 S
C1083 H1097 0.958 . S
C1083 H1098 0.961 1_565 S
C1083 H1099 0.960 . S
H1084 C1068 0.931 . S
H1085 C1073 0.929 . S
H1086 C1074 0.960 . S
H1087 C1074 0.962 . S
H1088 C1074 0.960 . S
H1089 C1075 0.961 1_565 S
H1090 C1075 0.966 . S
H1091 C1075 0.963 1_565 S
H1092 C1076 0.931 . S
H1093 C1081 0.930 . S
H1094 C1082 0.956 . S
H1095 C1082 0.961 . S
H1096 C1082 0.961 . S
H1097 C1083 0.958 . S
H1098 C1083 0.961 1_545 S
H1099 C1083 0.960 . S
C1100 C1101 1.391 . S
C1100 C1102 1.394 1_554 S
C1100 H1116 0.931 1_554 S
C1101 C1100 1.391 . S
C1101 C1105 1.376 . S
C1102 C1100 1.394 1_556 S
C1102 C1103 1.369 1_556 S
C1102 C1106 1.531 . S
C1103 C1102 1.369 1_554 S
C1103 C1104 1.410 . S
C1103 C1111 1.503 1_554 S
C1104 C1103 1.410 . S
C1104 C1105 1.392 . S
C1104 C1107 1.511 . S
C1105 C1101 1.376 . S
C1105 C1104 1.392 . S
C1105 H1117 0.929 . S
C1106 C1102 1.531 . S
C1106 H1118 0.960 . S
C1106 H1119 0.962 . S
C1106 H1120 0.960 . S
C1107 C1104 1.511 . S
C1107 H1121 0.961 . S
C1107 H1122 0.961 . S
C1107 H1123 0.961 . S
C1108 C1109 1.370 . S
C1108 C1110 1.363 . S
C1108 H1124 0.931 . S
C1109 C1108 1.370 . S
C1109 C1113 1.408 . S
C1110 C1108 1.363 . S
C1110 C1111 1.370 . S
C1110 C1114 1.524 1_556 S
C1111 C1103 1.503 1_556 S
C1111 C1110 1.370 . S
C1111 C1112 1.403 . S
C1112 C1111 1.403 . S
C1112 C1113 1.404 . S
C1112 C1115 1.539 . S
C1113 C1109 1.408 . S
C1113 C1112 1.404 . S
C1113 H1125 0.930 . S
C1114 C1110 1.524 1_554 S
C1114 H1126 0.956 1_554 S
C1114 H1127 0.961 . S
C1114 H1128 0.961 . S
C1115 C1112 1.539 . S
C1115 H1129 0.958 . S
C1115 H1130 0.961 . S
C1115 H1131 0.960 . S
H1116 C1100 0.931 1_556 S
H1117 C1105 0.929 . S
H1118 C1106 0.960 . S
H1119 C1106 0.962 . S
H1120 C1106 0.960 . S
H1121 C1107 0.961 . S
H1122 C1107 0.961 . S
H1123 C1107 0.961 . S
H1124 C1108 0.931 . S
H1125 C1113 0.930 . S
H1126 C1114 0.956 1_556 S
H1127 C1114 0.961 . S
H1128 C1114 0.961 . S
H1129 C1115 0.958 . S
H1130 C1115 0.961 . S
H1131 C1115 0.960 . S
C1132 C1133 1.391 . S
C1132 C1134 1.394 . S
C1132 H1148 0.931 . S
C1133 C1132 1.391 . S
C1133 C1137 1.376 . S
C1134 C1132 1.394 . S
C1134 C1135 1.369 . S
C1134 C1138 1.531 1_655 S
C1135 C1134 1.369 . S
C1135 C1136 1.410 . S
C1135 C1143 1.503 1_655 S
C1136 C1135 1.410 . S
C1136 C1137 1.392 . S
C1136 C1139 1.511 . S
C1137 C1133 1.376 . S
C1137 C1136 1.392 . S
C1137 H1149 0.929 . S
C1138 C1134 1.531 1_455 S
C1138 H1150 0.960 . S
C1138 H1151 0.962 . S
C1138 H1152 0.960 1_455 S
C1139 C1136 1.511 . S
C1139 H1153 0.961 . S
C1139 H1154 0.961 . S
C1139 H1155 0.961 . S
C1140 C1141 1.370 . S
C1140 C1142 1.363 . S
C1140 H1156 0.931 . S
C1141 C1140 1.370 . S
C1141 C1145 1.408 . S
C1142 C1140 1.363 . S
C1142 C1143 1.370 . S
C1142 C1146 1.524 . S
C1143 C1135 1.503 1_455 S
C1143 C1142 1.370 . S
C1143 C1144 1.403 . S
C1144 C1143 1.403 . S
C1144 C1145 1.404 . S
C1144 C1147 1.556 . S
C1145 C1141 1.408 . S
C1145 C1144 1.404 . S
C1145 H1157 0.930 . S
C1146 C1142 1.524 . S
C1146 H1158 0.956 . S
C1146 H1159 0.961 . S
C1146 H1160 0.961 . S
C1147 C1144 1.556 . S
C1147 H1161 0.953 . S
C1147 H1162 0.962 . S
C1147 H1163 0.947 1_455 S
H1148 C1132 0.931 . S
H1149 C1137 0.929 . S
H1150 C1138 0.960 . S
H1151 C1138 0.962 . S
H1152 C1138 0.960 1_655 S
H1153 C1139 0.961 . S
H1154 C1139 0.961 . S
H1155 C1139 0.961 . S
H1156 C1140 0.931 . S
H1157 C1145 0.930 . S
H1158 C1146 0.956 . S
H1159 C1146 0.961 . S
H1160 C1146 0.961 . S
H1161 C1147 0.953 . S
H1162 C1147 0.962 . S
H1163 C1147 0.947 1_655 S
C1164 C1165 1.391 . S
C1164 C1166 1.394 . S
C1164 H1180 0.931 . S
C1165 C1164 1.391 . S
C1165 C1169 1.376 . S
C1166 C1164 1.394 . S
C1166 C1167 1.369 . S
C1166 C1170 1.531 1_545 S
C1167 C1166 1.369 . S
C1167 C1168 1.410 . S
C1167 C1175 1.503 1_544 S
C1168 C1167 1.410 . S
C1168 C1169 1.392 . S
C1168 C1171 1.511 1_554 S
C1169 C1165 1.376 . S
C1169 C1168 1.392 . S
C1169 H1181 0.929 . S
C1170 C1166 1.531 1_565 S
C1170 H1182 0.960 . S
C1170 H1183 0.962 . S
C1170 H1184 0.960 . S
C1171 C1168 1.511 1_556 S
C1171 H1185 0.961 . S
C1171 H1186 0.961 . S
C1171 H1187 0.961 . S
C1172 C1173 1.370 . S
C1172 C1174 1.363 . S
C1172 H1188 0.931 . S
C1173 C1172 1.370 . S
C1173 C1177 1.408 . S
C1174 C1172 1.363 . S
C1174 C1175 1.370 . S
C1174 C1178 1.524 1_565 S
C1175 C1167 1.503 1_566 S
C1175 C1174 1.370 . S
C1175 C1176 1.395 1_556 S
C1176 C1175 1.395 1_554 S
C1176 C1177 1.386 1_554 S
C1176 C1179 1.564 . S
C1177 C1173 1.408 . S
C1177 C1176 1.386 1_556 S
C1177 H1189 0.930 . S
C1178 C1174 1.524 1_545 S
C1178 H1190 0.956 . S
C1178 H1191 0.961 . S
C1178 H1192 0.961 . S
C1179 C1176 1.564 . S
C1179 H1193 0.958 . S
C1179 H1194 0.961 . S
C1179 H1195 0.960 . S
H1180 C1164 0.931 . S
H1181 C1169 0.929 . S
H1182 C1170 0.960 . S
H1183 C1170 0.962 . S
H1184 C1170 0.960 . S
H1185 C1171 0.961 . S
H1186 C1171 0.961 . S
H1187 C1171 0.961 . S
H1188 C1172 0.931 . S
H1189 C1177 0.930 . S
H1190 C1178 0.956 . S
H1191 C1178 0.961 . S
H1192 C1178 0.961 . S
H1193 C1179 0.958 . S
H1194 C1179 0.961 . S
H1195 C1179 0.960 . S
C1196 C1197 1.391 . S
C1196 C1198 1.394 . S
C1196 H1212 0.931 . S
C1197 C1196 1.391 . S
C1197 C1201 1.376 . S
C1198 C1196 1.394 . S
C1198 C1199 1.369 . S
C1198 C1202 1.531 . S
C1199 C1198 1.369 . S
C1199 C1200 1.410 . S
C1199 C1207 1.503 . S
C1200 C1199 1.410 . S
C1200 C1201 1.392 . S
C1200 C1203 1.511 . S
C1201 C1197 1.376 . S
C1201 C1200 1.392 . S
C1201 H1213 0.929 . S
C1202 C1198 1.531 . S
C1202 H1214 0.960 . S
C1202 H1215 0.962 . S
C1202 H1216 0.960 . S
C1203 C1200 1.511 . S
C1203 H1217 0.961 . S
C1203 H1218 0.961 . S
C1203 H1219 0.961 . S
C1204 C1205 1.370 . S
C1204 C1206 1.363 . S
C1204 H1220 0.931 . S
C1205 C1204 1.370 . S
C1205 C1209 1.408 . S
C1206 C1204 1.363 . S
C1206 C1207 1.370 . S
C1206 C1210 1.524 . S
C1207 C1199 1.503 . S
C1207 C1206 1.370 . S
C1207 C1208 1.403 . S
C1208 C1207 1.403 . S
C1208 C1209 1.404 . S
C1208 C1211 1.539 . S
C1209 C1205 1.408 . S
C1209 C1208 1.404 . S
C1209 H1221 0.930 . S
C1210 C1206 1.524 . S
C1210 H1222 0.956 . S
C1210 H1223 0.961 . S
C1210 H1224 0.961 . S
C1211 C1208 1.539 . S
C1211 H1225 0.958 . S
C1211 H1226 0.961 . S
C1211 H1227 0.960 . S
H1212 C1196 0.931 . S
H1213 C1201 0.929 . S
H1214 C1202 0.960 . S
H1215 C1202 0.962 . S
H1216 C1202 0.960 . S
H1217 C1203 0.961 . S
H1218 C1203 0.961 . S
H1219 C1203 0.961 . S
H1220 C1204 0.931 . S
H1221 C1209 0.930 . S
H1222 C1210 0.956 . S
H1223 C1210 0.961 . S
H1224 C1210 0.961 . S
H1225 C1211 0.958 . S
H1226 C1211 0.961 . S
H1227 C1211 0.960 . S
C1228 C1229 1.391 . S
C1228 C1230 1.394 . S
C1228 H1244 0.931 . S
C1229 C1228 1.391 . S
C1229 C1233 1.376 . S
C1230 C1228 1.394 . S
C1230 C1231 1.369 . S
C1230 C1234 1.531 . S
C1231 C1230 1.369 . S
C1231 C1232 1.410 . S
C1231 C1239 1.503 1_654 S
C1232 C1231 1.410 . S
C1232 C1233 1.392 . S
C1232 C1235 1.511 1_554 S
C1233 C1229 1.376 . S
C1233 C1232 1.392 . S
C1233 H1245 0.929 . S
C1234 C1230 1.531 . S
C1234 H1246 0.960 1_554 S
C1234 H1247 0.962 1_655 S
C1234 H1248 0.960 . S
C1235 C1232 1.511 1_556 S
C1235 H1249 0.961 1_556 S
C1235 H1250 0.961 . S
C1235 H1251 0.961 . S
C1236 C1237 1.370 . S
C1236 C1238 1.359 1_556 S
C1236 H1252 0.931 . S
C1237 C1236 1.370 . S
C1237 C1241 1.408 . S
C1238 C1236 1.359 1_554 S
C1238 C1239 1.366 1_554 S
C1238 C1242 1.533 . S
C1239 C1231 1.503 1_456 S
C1239 C1238 1.366 1_556 S
C1239 C1240 1.403 . S
C1240 C1239 1.403 . S
C1240 C1241 1.404 . S
C1240 C1243 1.539 1_455 S
C1241 C1237 1.408 . S
C1241 C1240 1.404 . S
C1241 H1253 0.930 . S
C1242 C1238 1.533 . S
C1242 H1254 0.956 . S
C1242 H1255 0.961 . S
C1242 H1256 0.961 . S
C1243 C1240 1.539 1_655 S
C1243 H1257 0.958 . S
C1243 H1258 0.961 . S
C1243 H1259 0.960 . S
H1244 C1228 0.931 . S
H1245 C1233 0.929 . S
H1246 C1234 0.960 1_556 S
H1247 C1234 0.962 1_455 S
H1248 C1234 0.960 . S
H1249 C1235 0.961 1_554 S
H1250 C1235 0.961 . S
H1251 C1235 0.961 . S
H1252 C1236 0.931 . S
H1253 C1241 0.930 . S
H1254 C1242 0.956 . S
H1255 C1242 0.961 . S
H1256 C1242 0.961 . S
H1257 C1243 0.958 . S
H1258 C1243 0.961 . S
H1259 C1243 0.960 . S
C1260 C1261 1.391 . S
C1260 C1262 1.394 . S
C1260 H1276 0.931 . S
C1261 C1260 1.391 . S
C1261 C1265 1.376 . S
C1262 C1260 1.394 . S
C1262 C1263 1.369 . S
C1262 C1266 1.531 . S
C1263 C1262 1.369 . S
C1263 C1264 1.410 . S
C1263 C1271 1.503 1_565 S
C1264 C1263 1.410 . S
C1264 C1265 1.392 . S
C1264 C1267 1.511 . S
C1265 C1261 1.376 . S
C1265 C1264 1.392 . S
C1265 H1277 0.929 . S
C1266 C1262 1.531 . S
C1266 H1278 0.960 . S
C1266 H1279 0.962 1_565 S
C1266 H1280 0.960 . S
C1267 C1264 1.511 . S
C1267 H1281 0.961 . S
C1267 H1282 0.961 1_565 S
C1267 H1283 0.961 . S
C1268 C1269 1.370 . S
C1268 C1270 1.363 . S
C1268 H1284 0.931 . S
C1269 C1268 1.370 . S
C1269 C1273 1.408 . S
C1270 C1268 1.363 . S
C1270 C1271 1.370 . S
C1270 C1274 1.524 . S
C1271 C1263 1.503 1_545 S
C1271 C1270 1.370 . S
C1271 C1272 1.403 . S
C1272 C1271 1.403 . S
C1272 C1273 1.404 . S
C1272 C1275 1.539 1_545 S
C1273 C1269 1.408 . S
C1273 C1272 1.404 . S
C1273 H1285 0.930 . S
C1274 C1270 1.524 . S
C1274 H1286 0.956 . S
C1274 H1287 0.961 . S
C1274 H1288 0.961 . S
C1275 C1272 1.539 1_565 S
C1275 H1289 0.958 . S
C1275 H1290 0.961 . S
C1275 H1291 0.960 . S
H1276 C1260 0.931 . S
H1277 C1265 0.929 . S
H1278 C1266 0.960 . S
H1279 C1266 0.962 1_545 S
H1280 C1266 0.960 . S
H1281 C1267 0.961 . S
H1282 C1267 0.961 1_545 S
H1283 C1267 0.961 . S
H1284 C1268 0.931 . S
H1285 C1273 0.930 . S
H1286 C1274 0.956 . S
H1287 C1274 0.961 . S
H1288 C1274 0.961 . S
H1289 C1275 0.958 . S
H1290 C1275 0.961 . S
H1291 C1275 0.960 . S
C1292 C1293 1.391 . S
C1292 C1294 1.394 . S
C1292 H1308 0.931 . S
C1293 C1292 1.391 . S
C1293 C1297 1.376 . S
C1294 C1292 1.394 . S
C1294 C1295 1.369 . S
C1294 C1298 1.531 . S
C1295 C1294 1.369 . S
C1295 C1296 1.410 . S
C1295 C1303 1.503 1_556 S
C1296 C1295 1.410 . S
C1296 C1297 1.392 . S
C1296 C1299 1.511 1_556 S
C1297 C1293 1.376 . S
C1297 C1296 1.392 . S
C1297 H1309 0.929 . S
C1298 C1294 1.531 . S
C1298 H1310 0.960 . S
C1298 H1311 0.962 . S
C1298 H1312 0.960 . S
C1299 C1296 1.511 1_554 S
C1299 H1313 0.961 . S
C1299 H1314 0.961 . S
C1299 H1315 0.961 . S
C1300 C1301 1.370 . S
C1300 C1302 1.365 1_554 S
C1300 H1316 0.931 . S
C1301 C1300 1.370 . S
C1301 C1305 1.408 . S
C1302 C1300 1.365 1_556 S
C1302 C1303 1.372 1_556 S
C1302 C1306 1.521 . S
C1303 C1295 1.503 1_554 S
C1303 C1302 1.372 1_554 S
C1303 C1304 1.403 . S
C1304 C1303 1.403 . S
C1304 C1305 1.404 . S
C1304 C1307 1.539 . S
C1305 C1301 1.408 . S
C1305 C1304 1.404 . S
C1305 H1317 0.930 . S
C1306 C1302 1.521 . S
C1306 H1318 0.956 . S
C1306 H1319 0.961 . S
C1306 H1320 0.961 . S
C1307 C1304 1.539 . S
C1307 H1321 0.958 . S
C1307 H1322 0.961 . S
C1307 H1323 0.960 . S
H1308 C1292 0.931 . S
H1309 C1297 0.929 . S
H1310 C1298 0.960 . S
H1311 C1298 0.962 . S
H1312 C1298 0.960 . S
H1313 C1299 0.961 . S
H1314 C1299 0.961 . S
H1315 C1299 0.961 . S
H1316 C1300 0.931 . S
H1317 C1305 0.930 . S
H1318 C1306 0.956 . S
H1319 C1306 0.961 . S
H1320 C1306 0.961 . S
H1321 C1307 0.958 . S
H1322 C1307 0.961 . S
H1323 C1307 0.960 . S
C1324 C1325 1.391 . S
C1324 C1326 1.394 . S
C1324 H1340 0.931 . S
C1325 C1324 1.391 . S
C1325 C1329 1.376 . S
C1326 C1324 1.394 . S
C1326 C1327 1.369 . S
C1326 C1330 1.531 1_455 S
C1327 C1326 1.369 . S
C1327 C1328 1.410 . S
C1327 C1335 1.503 1_455 S
C1328 C1327 1.410 . S
C1328 C1329 1.392 . S
C1328 C1331 1.511 . S
C1329 C1325 1.376 . S
C1329 C1328 1.392 . S
C1329 H1341 0.929 . S
C1330 C1326 1.531 1_655 S
C1330 H1342 0.960 . S
C1330 H1343 0.962 . S
C1330 H1344 0.960 . S
C1331 C1328 1.511 . S
C1331 H1345 0.961 . S
C1331 H1346 0.961 . S
C1331 H1347 0.961 . S
C1332 C1333 1.370 . S
C1332 C1334 1.363 . S
C1332 H1348 0.931 . S
C1333 C1332 1.370 . S
C1333 C1337 1.408 . S
C1334 C1332 1.363 . S
C1334 C1335 1.370 . S
C1334 C1338 1.524 . S
C1335 C1327 1.503 1_655 S
C1335 C1334 1.370 . S
C1335 C1336 1.403 . S
C1336 C1335 1.403 . S
C1336 C1337 1.404 . S
C1336 C1339 1.539 . S
C1337 C1333 1.408 . S
C1337 C1336 1.404 . S
C1337 H1349 0.930 . S
C1338 C1334 1.524 . S
C1338 H1350 0.956 . S
C1338 H1351 0.961 1_655 S
C1338 H1352 0.961 . S
C1339 C1336 1.539 . S
C1339 H1353 0.958 . S
C1339 H1354 0.961 . S
C1339 H1355 0.960 1_655 S
H1340 C1324 0.931 . S
H1341 C1329 0.929 . S
H1342 C1330 0.960 . S
H1343 C1330 0.962 . S
H1344 C1330 0.960 . S
H1345 C1331 0.961 . S
H1346 C1331 0.961 . S
H1347 C1331 0.961 . S
H1348 C1332 0.931 . S
H1349 C1337 0.930 . S
H1350 C1338 0.956 . S
H1351 C1338 0.961 1_455 S
H1352 C1338 0.961 . S
H1353 C1339 0.958 . S
H1354 C1339 0.961 . S
H1355 C1339 0.960 1_455 S
C397 C84 1.477 . S
C405 N13 1.465 . S
C429 N46 1.559 . S
C437 C117 1.579 . S
C461 N79 1.493 . S
C469 C150 1.443 . S
C493 N112 1.600 . S
C501 C183 1.559 . S
C525 N145 1.481 . S
C533 C18 1.451 . S
C557 C51 1.582 . S
C565 N178 1.577 . S
C589 N200 1.546 . S
C597 C337 1.566 . S
C621 N244 1.548 . S
C629 C381 1.532 . S
C653 C205 1.588 . S
C661 N266 1.552 . S
C685 C249 1.520 . S
C693 N310 1.555 . S
C717 C271 1.541 . S
C725 N332 1.572 . S
C749 C315 1.537 . S
C757 N376 1.550 . S
C781 C285 1.380 . S
C789 C21 1.376 . S
C813 C54 1.315 . S
C821 C318 1.341 . S
C845 C351 1.370 . S
C853 C87 1.375 . S
C877 C384 1.328 . S
C885 C120 1.347 . S
C909 C153 1.387 . S
C917 C219 1.380 . S
C941 C252 1.349 . S
C949 C186 1.334 . S
C973 C238 1.362 . S
C981 C7 1.361 . S
C1005 C40 1.448 . S
C1013 C282 1.471 . S
C1037 C73 1.343 . S
C1045 C304 1.370 . S
C1069 C106 1.475 . S
C1077 C348 1.459 . S
C1101 C139 1.368 . S
C1109 C370 1.364 . S
C1133 C216 1.474 . S
C1141 C172 1.461 . S
C1165 N68 1.313 . S
C1173 N365 1.310 . S
C1197 N211 1.410 . S
C1205 N101 1.417 . S
C1229 N134 1.310 . S
C1237 N233 1.336 . S
C1261 N167 1.409 . S
C1269 N277 1.458 . S
C1293 N299 1.292 . S
C1301 N2 1.333 . S
C1325 N35 1.380 . S
C1333 N343 1.438 . S
