# Generated by pormake.
# Topology cdl, (4)-cn, num edge types: 1
# Building blocks:
#     Node 0, Type 0, BuildingBlock: KOZSID_clean_sbu_0, # of connection points: 4
#     Node 1, Type 0, BuildingBlock: KOZSID_clean_sbu_0, # of connection points: 4
#     Node 2, Type 0, BuildingBlock: KOZSID_clean_sbu_0, # of connection points: 4
#     Node 3, Type 0, BuildingBlock: KOZSID_clean_sbu_0, # of connection points: 4
#     Edge 4, Type (0, 0), BuildingBlock: MIFKUJ_clean_linker_0, # of connection points: 2
#     Edge 5, Type (0, 0), BuildingBlock: MIFKUJ_clean_linker_0, # of connection points: 2
#     Edge 6, Type (0, 0), BuildingBlock: MIFKUJ_clean_linker_0, # of connection points: 2
#     Edge 7, Type (0, 0), BuildingBlock: MIFKUJ_clean_linker_0, # of connection points: 2
#     Edge 8, Type (0, 0), BuildingBlock: MIFKUJ_clean_linker_0, # of connection points: 2
#     Edge 9, Type (0, 0), BuildingBlock: MIFKUJ_clean_linker_0, # of connection points: 2
#     Edge 10, Type (0, 0), BuildingBlock: MIFKUJ_clean_linker_0, # of connection points: 2
#     Edge 11, Type (0, 0), BuildingBlock: MIFKUJ_clean_linker_0, # of connection points: 2
# Relax obj value: 0.000
# Max RMSD: 0.021
# Mean RMSD: 0.020
data_MOF--net-cdl--node1-KOZSID_clean_sbu_0--edge1-MIFKUJ_clean_linker_0
_symmetry_space_group_name_H-M    P1
_symmetry_Int_Tables_number       1
_symmetry_cell_setting            triclinic
loop_
_symmetry_equiv_pos_as_xyz
'x, y, z'
_cell_length_a     21.200238
_cell_length_b     24.158715
_cell_length_c     90.605584
_cell_angle_alpha  107.45079
_cell_angle_beta   106.10746
_cell_angle_gamma 83.905898
loop_
_atom_site_label
_atom_site_type_symbol
_atom_site_fract_x
_atom_site_fract_y
_atom_site_fract_z
_atom_type_partial_charge
C0 C 0.1536 0.15332 0.15719 0.0
C1 C 0.21519 0.15735 0.16794 0.0
C2 C 0.26003 0.14855 0.15914 0.0
C3 C 0.22346 0.13959 0.14359 0.0
N4 N 0.15785 0.14288 0.14192 0.0
Co5 Co 0.0867 0.13005 0.12138 0.0
N6 N 0.15281 0.11279 0.10835 0.0
C7 C 0.219 0.11113 0.11386 0.0
C8 C 0.25144 0.09956 0.10208 0.0
C9 C 0.20317 0.09434 0.08822 0.0
C10 C 0.14389 0.10327 0.0924 0.0
N11 N 0.01555 0.11726 0.10084 0.0
C12 C 0.01978 0.10721 0.08558 0.0
C13 C 0.95812 0.10345 0.07485 0.0
C14 C 0.91333 0.11186 0.08365 0.0
C15 C 0.94994 0.12043 0.09917 0.0
N16 N 0.02059 0.14735 0.1344 0.0
C17 C 0.9544 0.14881 0.12889 0.0
C18 C 0.92195 0.1605 0.14067 0.0
C19 C 0.97023 0.16607 0.15455 0.0
C20 C 0.02952 0.15724 0.15037 0.0
N21 N 0.0871 0.21396 0.12261 0.0
C22 C 0.08747 0.33152 0.12287 0.0
C23 C 0.02878 0.30407 0.12014 0.0
C24 C 0.02968 0.24586 0.12001 0.0
C25 C 0.14603 0.29918 0.1257 0.0
C26 C 0.14477 0.24123 0.12561 0.0
N27 N 0.08631 0.04611 0.12014 0.0
C28 C 0.02742 0.96084 0.11704 0.0
C29 C 0.08599 0.92852 0.11988 0.0
C30 C 0.14467 0.956 0.12262 0.0
C31 C 0.14374 0.01423 0.12276 0.0
C32 C 0.02866 0.0188 0.11713 0.0
H33 H 0.19025 0.03262 0.12518 0.0
H34 H 0.98227 0.04071 0.11482 0.0
H35 H 0.98317 0.22746 0.11759 0.0
H36 H 0.19115 0.21929 0.12792 0.0
C37 C 0.24923 0.12433 0.13026 0.0
C38 C 0.09273 0.15648 0.16193 0.0
C39 C 0.08068 0.10443 0.08085 0.0
C40 C 0.92418 0.1356 0.1125 0.0
H41 H 0.22658 0.16445 0.18076 0.0
H42 H 0.31299 0.14709 0.1635 0.0
H43 H 0.30396 0.09685 0.10347 0.0
H44 H 0.21069 0.08611 0.0764 0.0
H45 H 0.94655 0.09692 0.06205 0.0
H46 H 0.86037 0.11348 0.0793 0.0
H47 H 0.86943 0.16315 0.13929 0.0
H48 H 0.96271 0.1745 0.16637 0.0
H49 H 0.98199 0.32698 0.11775 0.0
H50 H 0.19294 0.31861 0.12812 0.0
H51 H 0.98052 0.94138 0.11461 0.0
H52 H 0.19147 0.93312 0.12502 0.0
C53 C 0.19165 0.15541 0.64324 0.0
C54 C 0.22348 0.20797 0.64979 0.0
C55 C 0.17598 0.25018 0.65184 0.0
C56 C 0.11816 0.22113 0.64646 0.0
N57 N 0.12589 0.16279 0.64124 0.0
Co58 Co 0.05505 0.10388 0.63219 0.0
N59 N 0.98477 0.16636 0.63356 0.0
C60 C 0.99302 0.22443 0.63837 0.0
C61 C 0.93543 0.25629 0.63812 0.0
C62 C 0.88754 0.21623 0.633 0.0
C63 C 0.91896 0.1621 0.63048 0.0
N64 N 0.98428 0.04492 0.62357 0.0
C65 C 0.91863 0.0524 0.62179 0.0
C66 C 0.88706 0.99976 0.61617 0.0
C67 C 0.93461 0.95738 0.6145 0.0
C68 C 0.99219 0.98644 0.61922 0.0
N69 N 0.12527 0.04144 0.63037 0.0
C70 C 0.11692 0.98338 0.62487 0.0
C71 C 0.17421 0.95163 0.62436 0.0
C72 C 0.22201 0.99181 0.62957 0.0
C73 C 0.19084 0.04588 0.63298 0.0
N74 N 0.05947 0.10191 0.65426 0.0
C75 C 0.06077 0.09877 0.68529 0.0
C76 C 0.06888 0.04801 0.67342 0.0
C77 C 0.0677 0.0505 0.65814 0.0
C78 C 0.05276 0.15121 0.68133 0.0
C79 C 0.05278 0.15183 0.66596 0.0
N80 N 0.05063 0.10585 0.61015 0.0
C81 C 0.04461 0.05587 0.58233 0.0
C82 C 0.04987 0.10804 0.57913 0.0
C83 C 0.05464 0.15918 0.59169 0.0
C84 C 0.05496 0.15711 0.60696 0.0
C85 C 0.04491 0.05578 0.59776 0.0
H86 H 0.0595 0.19753 0.61603 0.0
H87 H 0.04087 0.01459 0.59939 0.0
H88 H 0.07329 0.01014 0.64967 0.0
H89 H 0.04666 0.19326 0.66381 0.0
C90 C 0.05572 0.24759 0.64457 0.0
C91 C 0.22535 0.1001 0.63814 0.0
C92 C 0.88458 0.10816 0.62601 0.0
C93 C 0.05445 0.9601 0.61998 0.0
H94 H 0.27543 0.2152 0.65236 0.0
H95 H 0.18257 0.29664 0.65614 0.0
H96 H 0.92924 0.30306 0.64178 0.0
H97 H 0.83553 0.22569 0.63168 0.0
H98 H 0.83517 0.99272 0.61381 0.0
H99 H 0.92814 0.91092 0.61061 0.0
H100 H 0.18033 0.90491 0.62038 0.0
H101 H 0.27385 0.9825 0.63053 0.0
H102 H 0.0766 1.00626 0.67588 0.0
H103 H 0.04537 0.19184 0.68994 0.0
H104 H 0.03978 0.01514 0.57294 0.0
H105 H 0.05949 0.20068 0.58987 0.0
C106 C 0.11184 0.13191 0.91885 0.0
C107 C 0.17203 0.1364 0.93019 0.0
C108 C 0.21917 0.12871 0.92208 0.0
C109 C 0.18534 0.11981 0.90634 0.0
N110 N 0.11928 0.12205 0.90388 0.0
Co111 Co 0.05157 0.10854 0.88274 0.0
N112 N 0.12117 0.09244 0.87073 0.0
C113 C 0.18699 0.0916 0.877 0.0
C114 C 0.22234 0.08008 0.8658 0.0
C115 C 0.17644 0.07396 0.85152 0.0
C116 C 0.11552 0.08244 0.85489 0.0
N117 N 0.98385 0.09515 0.8616 0.0
C118 C 0.9913 0.08527 0.84662 0.0
C119 C 0.93108 0.08135 0.83531 0.0
C120 C 0.88395 0.08925 0.84343 0.0
C121 C 0.9178 0.09779 0.85916 0.0
N122 N 0.98197 0.12448 0.89476 0.0
C123 C 0.91615 0.12512 0.8885 0.0
C124 C 0.88084 0.13587 0.89969 0.0
C125 C 0.92678 0.14164 0.91395 0.0
C126 C 0.98766 0.13385 0.91058 0.0
N127 N 0.05164 0.19261 0.88411 0.0
C128 C 0.0519 0.31043 0.88452 0.0
C129 C 0.99309 0.28179 0.8808 0.0
C130 C 0.99407 0.22359 0.88068 0.0
C131 C 0.11058 0.27906 0.88827 0.0
C132 C 0.10934 0.22092 0.88803 0.0
N133 N 0.05148 0.02448 0.88138 0.0
C134 C 0.99245 0.93792 0.87704 0.0
C135 C 0.05108 0.90674 0.88101 0.0
C136 C 0.10994 0.93552 0.88491 0.0
C137 C 0.10903 0.9937 0.88502 0.0
C138 C 0.99376 0.99601 0.87726 0.0
H139 H 0.15558 0.01299 0.88827 0.0
H140 H 0.94734 0.01709 0.87414 0.0
H141 H 0.94752 0.20445 0.87759 0.0
H142 H 0.1558 0.1997 0.89098 0.0
C143 C 0.21415 0.10508 0.89352 0.0
C144 C 0.04923 0.13388 0.92277 0.0
C145 C 0.054 0.08255 0.84268 0.0
C146 C 0.889 0.11212 0.87198 0.0
H147 H 0.18113 0.14293 0.94294 0.0
H148 H 0.27186 0.12776 0.92702 0.0
H149 H 0.2752 0.0778 0.86782 0.0
H150 H 0.18663 0.06534 0.83996 0.0
H151 H 0.92193 0.07498 0.82257 0.0
H152 H 0.83126 0.09048 0.83851 0.0
H153 H 0.82798 0.1378 0.89767 0.0
H154 H 0.91669 0.14959 0.92549 0.0
H155 H 0.94617 0.30372 0.87764 0.0
H156 H 0.15759 0.29929 0.89152 0.0
H157 H 0.94545 0.91754 0.87365 0.0
H158 H 0.1568 0.91372 0.88823 0.0
C159 C 0.21703 0.18706 0.3828 0.0
C160 C 0.24651 0.24071 0.38922 0.0
C161 C 0.19717 0.28142 0.3907 0.0
C162 C 0.14071 0.2504 0.38517 0.0
N163 N 0.15101 0.19223 0.38054 0.0
Co164 Co 0.0827 0.13102 0.37103 0.0
N165 N 0.00965 0.1911 0.3721 0.0
C166 C 0.01572 0.24939 0.37786 0.0
C167 C 0.95719 0.27928 0.37804 0.0
C168 C 0.91089 0.23765 0.37229 0.0
C169 C 0.94401 0.1845 0.36881 0.0
N170 N 0.01439 0.06987 0.36117 0.0
C171 C 0.94822 0.07498 0.35853 0.0
C172 C 0.91866 0.0215 0.3514 0.0
C173 C 0.96808 0.98091 0.34981 0.0
C174 C 0.02467 0.01185 0.35595 0.0
N175 N 0.15573 0.07089 0.37029 0.0
C176 C 0.1497 0.01253 0.36519 0.0
C177 C 0.20838 0.98249 0.36553 0.0
C178 C 0.2547 0.02404 0.37098 0.0
C179 C 0.22145 0.07735 0.37373 0.0
N180 N 0.08356 0.12759 0.39274 0.0
C181 C 0.07844 0.12301 0.42316 0.0
C182 C 0.07789 0.07232 0.41062 0.0
C183 C 0.08052 0.07557 0.39566 0.0
C184 C 0.08257 0.17596 0.42026 0.0
C185 C 0.08517 0.17723 0.40512 0.0
N186 N 0.08187 0.13445 0.34931 0.0
C187 C 0.09364 0.08681 0.32258 0.0
C188 C 0.08716 0.13978 0.319 0.0
C189 C 0.07705 0.18998 0.33077 0.0
C190 C 0.07488 0.1864 0.34573 0.0
C191 C 0.09043 0.0851 0.33762 0.0
H192 H 0.06818 0.22634 0.35426 0.0
H193 H 0.09539 0.04331 0.33952 0.0
H194 H 0.07928 0.03539 0.3866 0.0
H195 H 0.08806 0.21898 0.40374 0.0
C196 C 0.07731 0.27463 0.38369 0.0
C197 C 0.25365 0.13274 0.37845 0.0
C198 C 0.91159 0.12891 0.36331 0.0
C199 C 0.08809 0.98744 0.35838 0.0
H200 H 0.29826 0.24948 0.39221 0.0
H201 H 0.20177 0.3281 0.39496 0.0
H202 H 0.94932 0.32572 0.38229 0.0
H203 H 0.85886 0.24568 0.3712 0.0
H204 H 0.86682 0.01268 0.34809 0.0
H205 H 0.96345 0.93427 0.34525 0.0
H206 H 0.21629 0.93597 0.36155 0.0
H207 H 0.30677 0.01575 0.3722 0.0
H208 H 0.07414 0.0302 0.4122 0.0
H209 H 0.08432 0.21644 0.42965 0.0
H210 H 0.10051 0.04661 0.31374 0.0
H211 H 0.07213 0.23211 0.32857 0.0
H212 H 0.16085 0.37829 0.10917 0.0
H213 H 0.16058 0.4789 0.10864 0.0
H214 H 0.01445 0.52507 0.13554 0.0
H215 H 0.01386 0.42422 0.1359 0.0
H216 H 0.98377 0.57557 0.11252 0.0
H217 H 0.18152 0.55886 0.15281 0.0
H218 H 0.28874 0.51596 0.1637 0.0
H219 H 0.36575 0.54943 0.12817 0.0
H220 H 0.2587 0.59185 0.11694 0.0
H221 H 0.01259 0.88164 0.13355 0.0
H222 H 0.01295 0.78101 0.13407 0.0
H223 H 0.15923 0.73501 0.10722 0.0
H224 H 0.15974 0.83587 0.10687 0.0
H225 H 0.18987 0.6844 0.1302 0.0
H226 H 0.99218 0.70107 0.08991 0.0
H227 H 0.88494 0.74385 0.07898 0.0
H228 H 0.8078 0.71034 0.11448 0.0
H229 H 0.91487 0.66804 0.12576 0.0
C230 C 0.12905 0.40995 0.1151 0.0
C231 C 0.08761 0.39311 0.12265 0.0
C232 C 0.12896 0.46761 0.1148 0.0
C233 C 0.08821 0.51014 0.12227 0.0
C234 C 0.04638 0.49329 0.12969 0.0
C235 C 0.04602 0.43551 0.12987 0.0
C236 C 0.08859 0.57193 0.12219 0.0
C237 C 0.0288 0.59955 0.11661 0.0
C238 C 0.14738 0.60317 0.12713 0.0
C239 C 0.21192 0.57805 0.13395 0.0
C240 C 0.2212 0.55672 0.14726 0.0
C241 C 0.28195 0.53254 0.1535 0.0
C242 C 0.33397 0.52984 0.14661 0.0
C243 C 0.32539 0.55149 0.13349 0.0
C244 C 0.26471 0.57565 0.12719 0.0
C245 C 0.04444 0.85002 0.12763 0.0
C246 C 0.0859 0.86691 0.12009 0.0
C247 C 0.04458 0.79235 0.12793 0.0
C248 C 0.0854 0.74986 0.12047 0.0
C249 C 0.12725 0.76675 0.11306 0.0
C250 C 0.12756 0.82455 0.11288 0.0
C251 C 0.08504 0.68805 0.12054 0.0
C252 C 0.14484 0.66042 0.12612 0.0
C253 C 0.02626 0.65679 0.11559 0.0
C254 C 0.96172 0.68188 0.10877 0.0
C255 C 0.95248 0.70318 0.09545 0.0
C256 C 0.8917 0.72729 0.08919 0.0
C257 C 0.83964 0.72994 0.09606 0.0
C258 C 0.84819 0.70833 0.10918 0.0
C259 C 0.90889 0.68423 0.11551 0.0
H260 H 0.79263 0.74863 0.09119 0.0
H261 H 0.38096 0.51109 0.15146 0.0
H262 H 0.33787 0.10893 0.66203 0.0
H263 H 0.45084 0.10977 0.65991 0.0
H264 H 0.37729 0.09069 0.60922 0.0
H265 H 0.26454 0.089 0.61138 0.0
H266 H 0.48425 0.0214 0.61541 0.0
H267 H 0.42229 0.22136 0.63532 0.0
H268 H 0.38041 0.30474 0.65383 0.0
H269 H 0.54073 0.28296 0.69293 0.0
H270 H 0.58291 0.19869 0.67471 0.0
H271 H 0.77228 0.09995 0.60209 0.0
H272 H 0.65912 0.09996 0.60418 0.0
H273 H 0.73211 0.11958 0.65491 0.0
H274 H 0.84503 0.12051 0.65278 0.0
H275 H 0.62534 0.18878 0.64866 0.0
H276 H 0.68716 0.9888 0.62885 0.0
H277 H 0.72916 0.90527 0.61041 0.0
H278 H 0.56924 0.92689 0.57121 0.0
H279 H 0.52693 0.0113 0.58937 0.0
C280 C 0.34634 0.10477 0.65049 0.0
C281 C 0.29346 0.09929 0.63687 0.0
C282 C 0.41048 0.1054 0.64927 0.0
C283 C 0.42229 0.10101 0.63443 0.0
C284 C 0.3692 0.09422 0.62077 0.0
C285 C 0.30512 0.09345 0.62199 0.0
C286 C 0.4899 0.10442 0.6332 0.0
C287 C 0.51484 0.05831 0.62253 0.0
C288 C 0.53014 0.15211 0.64274 0.0
C289 C 0.50543 0.20337 0.65367 0.0
C290 C 0.44838 0.23409 0.64789 0.0
C291 C 0.42459 0.28153 0.65832 0.0
C292 C 0.45782 0.29907 0.67455 0.0
C293 C 0.515 0.26928 0.68036 0.0
C294 C 0.53888 0.22168 0.66998 0.0
C295 C 0.76363 0.1045 0.61364 0.0
C296 C 0.81638 0.10993 0.62727 0.0
C297 C 0.69939 0.10434 0.61484 0.0
C298 C 0.68736 0.10906 0.62967 0.0
C299 C 0.74035 0.11584 0.64336 0.0
C300 C 0.80453 0.11617 0.64216 0.0
C301 C 0.61968 0.10576 0.63087 0.0
C302 C 0.59473 0.15189 0.64154 0.0
C303 C 0.57945 0.05807 0.62134 0.0
C304 C 0.60421 1.00672 0.61045 0.0
C305 C 0.66119 0.976 0.61628 0.0
C306 C 0.68504 0.92847 0.60588 0.0
C307 C 0.65196 0.91085 0.58964 0.0
C308 C 0.59485 0.94063 0.58379 0.0
C309 C 0.5709 0.98832 0.59413 0.0
H310 H 0.6705 0.87404 0.58161 0.0
H311 H 0.43933 0.33582 0.68261 0.0
H312 H 0.13452 0.36016 0.87377 0.0
H313 H 0.1345 0.46085 0.87338 0.0
H314 H 0.9693 0.50153 0.89416 0.0
H315 H 0.96921 0.40089 0.89468 0.0
H316 H 0.95142 0.5495 0.87022 0.0
H317 H 0.12577 0.54259 0.91655 0.0
H318 H 0.22827 0.50507 0.93159 0.0
H319 H 0.33413 0.54137 0.90158 0.0
H320 H 0.23203 0.57839 0.88621 0.0
H321 H 0.96791 0.85712 0.89161 0.0
H322 H 0.96782 0.7565 0.89206 0.0
H323 H 0.13381 0.71573 0.87157 0.0
H324 H 0.13411 0.81634 0.87103 0.0
H325 H 0.1512 0.6678 0.89539 0.0
H326 H 0.97688 0.67461 0.84903 0.0
H327 H 0.87439 0.71211 0.83398 0.0
H328 H 0.76849 0.67595 0.86401 0.0
H329 H 0.87058 0.63896 0.87939 0.0
C330 C 0.09861 0.39058 0.87844 0.0
C331 C 0.05205 0.37217 0.88433 0.0
C332 C 0.09857 0.44828 0.87818 0.0
C333 C 0.05235 0.4892 0.8839 0.0
C334 C 0.00544 0.47089 0.88965 0.0
C335 C 0.00536 0.41316 0.8899 0.0
C336 C 0.05256 0.5509 0.88378 0.0
C337 C 0.99488 0.57558 0.87592 0.0
C338 C 0.10961 0.58478 0.89088 0.0
C339 C 0.17112 0.56273 0.90013 0.0
C340 C 0.17081 0.54216 0.91308 0.0
C341 C 0.22885 0.52105 0.92168 0.0
C342 C 0.28764 0.5207 0.91752 0.0
C343 C 0.28854 0.5416 0.90477 0.0
C344 C 0.23061 0.56269 0.89612 0.0
C345 C 0.00399 0.82668 0.88702 0.0
C346 C 0.05083 0.84505 0.88121 0.0
C347 C 0.00394 0.76903 0.88731 0.0
C348 C 0.05034 0.72808 0.88167 0.0
C349 C 0.09753 0.74637 0.87601 0.0
C350 C 0.09772 0.80407 0.87575 0.0
C351 C 0.05007 0.66641 0.88182 0.0
C352 C 0.10773 0.64173 0.88968 0.0
C353 C 0.99301 0.63253 0.87473 0.0
C354 C 0.93151 0.65454 0.86546 0.0
C355 C 0.93183 0.67507 0.8525 0.0
C356 C 0.8738 0.69616 0.8439 0.0
C357 C 0.815 0.69655 0.84806 0.0
C358 C 0.81409 0.6757 0.86081 0.0
C359 C 0.87201 0.65462 0.86947 0.0
H360 H 0.77012 0.7129 0.84138 0.0
H361 H 0.33253 0.50434 0.92419 0.0
H362 H 0.29296 0.16955 0.35702 0.0
H363 H 0.40508 0.17045 0.35453 0.0
H364 H 0.47893 0.09918 0.39463 0.0
H365 H 0.36678 0.10047 0.39746 0.0
H366 H 0.55721 0.18096 0.39649 0.0
H367 H 0.4567 0.01376 0.35535 0.0
H368 H 0.37045 0.96288 0.33209 0.0
H369 H 0.40788 0.06552 0.30422 0.0
H370 H 0.49375 0.11765 0.3274 0.0
H371 H 0.8707 0.08936 0.38402 0.0
H372 H 0.75806 0.08837 0.3862 0.0
H373 H 0.68662 0.16327 0.34674 0.0
H374 H 0.79937 0.16256 0.34431 0.0
H375 H 0.6071 0.08002 0.34443 0.0
H376 H 0.70798 0.24679 0.38554 0.0
H377 H 0.79431 0.29759 0.40879 0.0
H378 H 0.75613 0.19558 0.43673 0.0
H379 H 0.67022 0.1435 0.41356 0.0
C380 C 0.33342 0.1544 0.36531 0.0
C381 C 0.32182 0.13419 0.37728 0.0
C382 C 0.39723 0.1546 0.36385 0.0
C383 C 0.45029 0.13376 0.37419 0.0
C384 C 0.43873 0.11511 0.38646 0.0
C385 C 0.37492 0.11552 0.38803 0.0
C386 C 0.51769 0.13072 0.37209 0.0
C387 C 0.56827 0.15824 0.38517 0.0
C388 C 0.53188 0.10214 0.35721 0.0
C389 C 0.4813 0.06992 0.34315 0.0
C390 C 0.44633 0.02567 0.34428 0.0
C391 C 0.39751 0.99661 0.33111 0.0
C392 C 0.3836 0.01104 0.3167 0.0
C393 C 0.41867 0.05442 0.3154 0.0
C394 C 0.46747 0.0837 0.32854 0.0
C395 C 0.83066 0.10522 0.37579 0.0
C396 C 0.84308 0.1267 0.36414 0.0
C397 C 0.76657 0.10493 0.37707 0.0
C398 C 0.71408 0.12676 0.36682 0.0
C399 C 0.72641 0.14652 0.35482 0.0
C400 C 0.79054 0.1464 0.35347 0.0
C401 C 0.64657 0.1301 0.36884 0.0
C402 C 0.596 0.10269 0.35575 0.0
C403 C 0.63237 0.15876 0.38371 0.0
C404 C 0.68302 0.19092 0.39777 0.0
C405 C 0.71822 0.23498 0.39662 0.0
C406 C 0.76707 0.26401 0.40978 0.0
C407 C 0.78079 0.24974 0.42422 0.0
C408 C 0.74549 0.20656 0.42554 0.0
C409 C 0.69667 0.1773 0.41239 0.0
H410 H 0.81869 0.27221 0.43439 0.0
H411 H 0.34571 0.98855 0.30652 0.0
H412 H 0.07636 0.22135 0.95061 0.0
H413 H 0.07947 0.21679 0.97754 0.0
H414 H 0.02294 0.03764 0.9579 0.0
H415 H 0.01939 0.04258 0.93097 0.0
H416 H 0.95794 0.09728 0.9802 0.0
H417 H 0.18031 0.07107 0.97591 0.0
H418 H 0.27925 0.09686 0.97042 0.0
H419 H 0.2914 0.25575 0.0084 0.0
H420 H 0.19169 0.23143 0.01392 0.0
H421 H 0.0488 0.01799 0.05286 0.0
H422 H 0.04295 0.02304 0.02582 0.0
H423 H 0.10207 0.20152 0.04545 0.0
H424 H 0.10849 0.19603 0.07247 0.0
H425 H 0.16543 0.1422 0.02311 0.0
H426 H 0.94319 0.16834 0.02746 0.0
H427 H 0.84407 0.14268 0.0329 0.0
H428 H 0.83159 0.98403 0.99483 0.0
H429 H 0.93144 1.00823 0.98935 0.0
C430 C 0.06438 0.18126 0.95214 0.0
C431 C 0.04823 0.13214 0.93892 0.0
C432 C 0.06627 0.17856 0.96745 0.0
C433 C 0.05225 0.12662 0.96974 0.0
C434 C 0.03405 0.07806 0.9564 0.0
C435 C 0.0322 0.08079 0.94109 0.0
C436 C 0.05837 0.12244 0.9861 0.0
C437 C 0.0035 0.10641 0.98954 0.0
C438 C 0.11753 0.13541 0.99834 0.0
C439 C 0.17814 0.14968 0.99523 0.0
C440 C 0.20379 0.11171 0.98302 0.0
C441 C 0.26003 0.12605 0.97991 0.0
C442 C 0.29151 0.17796 0.98904 0.0
C443 C 0.2669 0.21558 1.00133 0.0
C444 C 0.21053 0.20154 0.00445 0.0
C445 C 0.06054 0.05809 0.0513 0.0
C446 C 0.0785 0.1068 0.06455 0.0
C447 C 0.05708 0.06107 0.03592 0.0
C448 C 0.07128 0.11292 0.0336 0.0
C449 C 0.09079 0.16117 0.04696 0.0
C450 C 0.09426 0.15814 0.06233 0.0
C451 C 0.06496 0.11712 0.01723 0.0
C452 C 0.11983 0.13311 0.01378 0.0
C453 C 0.0058 0.10411 0.00498 0.0
C454 C 0.94518 0.08985 0.0081 0.0
C455 C 0.9196 0.12778 0.02032 0.0
C456 C 0.86326 0.11351 0.02341 0.0
C457 C 0.83163 0.0617 0.01424 0.0
C458 C 0.8562 0.02411 0.00193 0.0
C459 C 0.91266 0.03809 0.99883 0.0
H460 H 0.78801 0.05073 0.01664 0.0
H461 H 0.33506 0.18899 0.98661 0.0
H462 H 0.00799 0.19548 0.44277 0.0
H463 H 0.00249 0.19252 0.46911 0.0
H464 H 0.13305 0.04226 0.46593 0.0
H465 H 0.13929 0.0452 0.43962 0.0
H466 H 0.03055 0.02909 0.47693 0.0
H467 H 0.18933 0.17468 0.48901 0.0
H468 H 0.23072 0.26377 0.48742 0.0
H469 H 0.07731 0.3646 0.50658 0.0
H470 H 0.03441 0.27593 0.50807 0.0
H471 H 0.11474 0.03259 0.55871 0.0
H472 H 0.11739 0.03458 0.53208 0.0
H473 H 0.99124 0.18776 0.53616 0.0
H474 H 0.98833 0.18602 0.56282 0.0
H475 H 0.09053 0.19951 0.5246 0.0
H476 H 0.93203 0.05441 0.51275 0.0
H477 H 0.89005 0.96545 0.51426 0.0
H478 H 0.04188 0.86385 0.4946 0.0
H479 H 0.08535 0.95236 0.49318 0.0
C480 C 0.03609 0.16213 0.44774 0.0
C481 C 0.07443 0.12079 0.43912 0.0
C482 C 0.03273 0.1604 0.46278 0.0
C483 C 0.06793 0.11754 0.46957 0.0
C484 C 0.10544 0.07568 0.46091 0.0
C485 C 0.10881 0.07735 0.44586 0.0
C486 C 0.0657 0.11642 0.48572 0.0
C487 C 0.04448 0.06607 0.48739 0.0
C488 C 0.08238 0.16516 0.49931 0.0
C489 C 0.10828 0.21858 0.4985 0.0
C490 C 0.16411 0.21579 0.49277 0.0
C491 C 0.1879 0.26622 0.4919 0.0
C492 C 0.15657 0.31979 0.49686 0.0
C493 C 0.10147 0.32306 0.50272 0.0
C494 C 0.07743 0.27274 0.50359 0.0
C495 C 0.08695 0.06635 0.55387 0.0
C496 C 0.05108 0.10901 0.56287 0.0
C497 C 0.08859 0.06748 0.53865 0.0
C498 C 0.0539 0.11095 0.53203 0.0
C499 C 0.01843 0.15384 0.54102 0.0
C500 C 0.01694 0.15285 0.55628 0.0
C501 C 0.05537 0.11215 0.51582 0.0
C502 C 0.07649 0.16253 0.51414 0.0
C503 C 0.03851 0.06344 0.50222 0.0
C504 C 0.01232 0.01011 0.503 0.0
C505 C 0.95678 0.01316 0.50886 0.0
C506 C 0.93266 0.9628 0.50968 0.0
C507 C 0.96338 0.90905 0.50457 0.0
C508 C 0.01819 0.90552 0.49858 0.0
C509 C 0.04255 0.95577 0.49775 0.0
H510 H 0.94463 0.87011 0.50521 0.0
H511 H 0.17506 0.35879 0.49618 0.0
H512 H 0.00667 0.20124 0.2999 0.0
H513 H 0.01109 0.20355 0.27337 0.0
H514 H 0.17973 0.0866 0.27561 0.0
H515 H 0.17595 0.08451 0.30222 0.0
H516 H 0.19415 0.17658 0.26392 0.0
H517 H 0.03624 0.03354 0.25418 0.0
H518 H 0.93807 0.99535 0.25693 0.0
H519 H 0.81663 0.12338 0.23726 0.0
H520 H 0.9143 0.16291 0.23462 0.0
H521 H 0.07107 0.06371 0.17065 0.0
H522 H 0.07361 0.05972 0.19758 0.0
H523 H 0.11938 0.24155 0.21652 0.0
H524 H 0.11785 0.24498 0.18958 0.0
H525 H 0.00129 0.11391 0.21754 0.0
H526 H 0.21805 0.26596 0.25474 0.0
H527 H 0.31921 0.297 0.25142 0.0
H528 H 0.32953 0.1367 0.21513 0.0
H529 H 0.22914 0.10429 0.21843 0.0
C530 C 0.04503 0.17644 0.2948 0.0
C531 C 0.09076 0.14246 0.3031 0.0
C532 C 0.04728 0.17755 0.27961 0.0
C533 C 0.09544 0.1449 0.27248 0.0
C534 C 0.14212 0.11202 0.2809 0.0
C535 C 0.13957 0.11051 0.29602 0.0
C536 C 0.09611 0.14401 0.25608 0.0
C537 C 0.15199 0.16301 0.25377 0.0
C538 C 0.04153 0.12528 0.24282 0.0
C539 C 0.98267 0.10155 0.24435 0.0
C540 C 0.98868 0.05387 0.25057 0.0
C541 C 0.93311 0.03193 0.25209 0.0
C542 C 0.87117 0.05703 0.24731 0.0
C543 C 0.86466 0.10404 0.24098 0.0
C544 C 0.92009 0.12621 0.23945 0.0
C545 C 0.08189 0.10257 0.18064 0.0
C546 C 0.09478 0.1545 0.17825 0.0
C547 C 0.0831 0.10041 0.19596 0.0
C548 C 0.09729 0.15019 0.2091 0.0
C549 C 0.10938 0.20239 0.20662 0.0
C550 C 0.10835 0.20446 0.19129 0.0
C551 C 0.09895 0.14744 0.22536 0.0
C552 C 0.04344 0.12772 0.22767 0.0
C553 C 0.15435 0.16456 0.23855 0.0
C554 C 0.21568 0.18299 0.23673 0.0
C555 C 0.24212 0.23721 0.24612 0.0
C556 C 0.2993 0.25505 0.24423 0.0
C557 C 0.33067 0.21891 0.23303 0.0
C558 C 0.30509 0.16472 0.22376 0.0
C559 C 0.24802 0.14662 0.22563 0.0
H560 H 0.37485 0.23286 0.23157 0.0
H561 H 0.8282 0.03996 0.24849 0.0
H562 H 0.10911 0.17898 0.71426 0.0
H563 H 0.1065 0.17659 0.74076 0.0
H564 H 0.01287 0.01082 0.72012 0.0
H565 H 0.01092 0.01478 0.69342 0.0
H566 H 0.95776 0.07376 0.7419 0.0
H567 H 0.18183 0.02651 0.74025 0.0
H568 H 0.28903 0.04043 0.73635 0.0
H569 H 0.31038 0.20116 0.77386 0.0
H570 H 0.20286 0.18857 0.77785 0.0
H571 H 0.02138 0.99597 0.8147 0.0
H572 H 0.02321 0.99834 0.78788 0.0
H573 H 0.09302 0.17355 0.80772 0.0
H574 H 0.09111 0.171 0.8345 0.0
H575 H 0.16047 0.10536 0.78655 0.0
H576 H 0.9355 0.14974 0.78824 0.0
H577 H 0.83011 0.13218 0.79239 0.0
H578 H 0.81228 0.97214 0.75467 0.0
H579 H 0.91825 0.98822 0.75049 0.0
C580 C 0.08705 0.14232 0.71527 0.0
C581 C 0.06043 0.09696 0.70159 0.0
C582 C 0.08649 0.14062 0.73052 0.0
C583 C 0.06064 0.09297 0.73252 0.0
C584 C 0.03348 0.04791 0.71892 0.0
C585 C 0.03317 0.04994 0.70364 0.0
C586 C 0.06136 0.09028 0.74877 0.0
C587 C 0.00236 0.07986 0.75158 0.0
C588 C 0.11919 0.09934 0.76156 0.0
C589 C 0.18402 0.10684 0.75924 0.0
C590 C 0.20919 0.06501 0.7476 0.0
C591 C 0.27004 0.07263 0.74538 0.0
C592 C 0.30642 0.12171 0.75483 0.0
C593 C 0.28211 0.16319 0.76654 0.0
C594 C 0.22125 0.15581 0.7688 0.0
C595 C 0.03689 0.03486 0.81323 0.0
C596 C 0.0555 0.08351 0.82647 0.0
C597 C 0.0379 0.03628 0.79798 0.0
C598 C 0.05763 0.08637 0.7958 0.0
C599 C 0.07755 0.13455 0.80914 0.0
C600 C 0.07628 0.13319 0.82436 0.0
C601 C 0.05708 0.08873 0.77959 0.0
C602 C 0.11604 0.09916 0.77682 0.0
C603 C 0.99939 0.07919 0.76682 0.0
C604 C 0.93514 0.06993 0.76915 0.0
C605 C 0.90936 0.11059 0.7809 0.0
C606 C 0.84949 0.10092 0.78326 0.0
C607 C 0.81459 0.05102 0.77383 0.0
C608 C 0.83941 0.01075 0.76199 0.0
C609 C 0.89936 0.02013 0.75961 0.0
H610 H 0.76824 0.0436 0.77567 0.0
H611 H 0.35351 0.12754 0.75309 0.0
loop_
_geom_bond_atom_site_label_1
_geom_bond_atom_site_label_2
_geom_bond_distance
_geom_bond_site_symmetry_2
_ccdc_geom_bond_type
C0 C1 1.443 . S
C0 N4 1.376 . S
C0 C38 1.389 . S
C1 C0 1.443 . S
C1 C2 1.340 . S
C1 H41 0.951 . S
C2 C1 1.340 . S
C2 C3 1.439 . S
C2 H42 0.950 . S
C3 C2 1.439 . S
C3 N4 1.374 . S
C3 C37 1.395 . S
N4 C0 1.376 . S
N4 C3 1.374 . S
N4 Co5 2.008 . S
Co5 N4 2.008 . S
Co5 N6 1.995 . S
Co5 N11 2.008 . S
Co5 N16 1.995 . S
Co5 N21 2.282 . S
Co5 N27 2.282 . S
N6 Co5 1.995 . S
N6 C7 1.376 . S
N6 C10 1.383 . S
C7 N6 1.376 . S
C7 C8 1.446 . S
C7 C37 1.391 . S
C8 C7 1.446 . S
C8 C9 1.339 . S
C8 H43 0.949 . S
C9 C8 1.339 . S
C9 C10 1.439 . S
C9 H44 0.950 . S
C10 N6 1.383 . S
C10 C9 1.439 . S
C10 C39 1.392 . S
N11 Co5 2.008 . S
N11 C12 1.376 . S
N11 C15 1.374 1_455 S
C12 N11 1.376 . S
C12 C13 1.443 1_455 S
C12 C39 1.389 . S
C13 C12 1.443 1_655 S
C13 C14 1.340 . S
C13 H45 0.951 . S
C14 C13 1.340 . S
C14 C15 1.439 . S
C14 H46 0.950 . S
C15 N11 1.374 1_655 S
C15 C14 1.439 . S
C15 C40 1.395 . S
N16 Co5 1.995 . S
N16 C17 1.376 1_455 S
N16 C20 1.383 . S
C17 N16 1.376 1_655 S
C17 C18 1.446 . S
C17 C40 1.391 . S
C18 C17 1.446 . S
C18 C19 1.339 . S
C18 H47 0.949 . S
C19 C18 1.339 . S
C19 C20 1.439 1_655 S
C19 H48 0.950 . S
C20 N16 1.383 . S
C20 C19 1.439 1_455 S
C20 C38 1.392 . S
N21 Co5 2.282 . S
N21 C24 1.332 . S
N21 C26 1.332 . S
C22 C23 1.386 . S
C22 C25 1.388 . S
C23 C22 1.386 . S
C23 C24 1.382 . S
C23 H49 0.950 . S
C24 N21 1.332 . S
C24 C23 1.382 . S
C24 H35 0.952 . S
C25 C22 1.388 . S
C25 C26 1.382 . S
C25 H50 0.950 . S
C26 N21 1.332 . S
C26 C25 1.382 . S
C26 H36 0.948 . S
N27 Co5 2.282 . S
N27 C31 1.332 1_545 S
N27 C32 1.332 1_545 S
C28 C29 1.388 . S
C28 C32 1.382 . S
C28 H51 0.950 . S
C29 C28 1.388 . S
C29 C30 1.386 . S
C30 C29 1.386 . S
C30 C31 1.382 . S
C30 H52 0.950 . S
C31 N27 1.332 1_565 S
C31 C30 1.382 . S
C31 H33 0.952 1_565 S
C32 N27 1.332 1_565 S
C32 C28 1.382 . S
C32 H34 0.948 1_565 S
H33 C31 0.952 1_545 S
H34 C32 0.948 1_545 S
H35 C24 0.952 . S
H36 C26 0.948 . S
C37 C3 1.395 . S
C37 C7 1.391 . S
C38 C0 1.389 . S
C38 C20 1.392 . S
C39 C10 1.392 . S
C39 C12 1.389 . S
C40 C15 1.395 . S
C40 C17 1.391 . S
H41 C1 0.951 . S
H42 C2 0.950 . S
H43 C8 0.949 . S
H44 C9 0.950 . S
H45 C13 0.951 . S
H46 C14 0.950 . S
H47 C18 0.949 . S
H48 C19 0.950 . S
H49 C23 0.950 . S
H50 C25 0.950 . S
H51 C28 0.950 . S
H52 C30 0.950 . S
C53 C54 1.443 . S
C53 N57 1.376 . S
C53 C91 1.389 . S
C54 C53 1.443 . S
C54 C55 1.340 . S
C54 H94 0.951 . S
C55 C54 1.340 . S
C55 C56 1.439 . S
C55 H95 0.950 . S
C56 C55 1.439 . S
C56 N57 1.374 . S
C56 C90 1.395 . S
N57 C53 1.376 . S
N57 C56 1.374 . S
N57 Co58 2.008 . S
Co58 N57 2.008 . S
Co58 N59 1.995 1_455 S
Co58 N64 2.008 1_455 S
Co58 N69 1.995 . S
Co58 N74 2.282 . S
Co58 N80 2.282 . S
N59 Co58 1.995 1_655 S
N59 C60 1.376 . S
N59 C63 1.383 . S
C60 N59 1.376 . S
C60 C61 1.446 . S
C60 C90 1.391 1_655 S
C61 C60 1.446 . S
C61 C62 1.339 . S
C61 H96 0.949 . S
C62 C61 1.339 . S
C62 C63 1.439 . S
C62 H97 0.950 . S
C63 N59 1.383 . S
C63 C62 1.439 . S
C63 C92 1.392 . S
N64 Co58 2.008 1_655 S
N64 C65 1.376 . S
N64 C68 1.374 1_645 S
C65 N64 1.376 . S
C65 C66 1.443 1_545 S
C65 C92 1.389 . S
C66 C65 1.443 1_565 S
C66 C67 1.340 . S
C66 H98 0.951 . S
C67 C66 1.340 . S
C67 C68 1.439 1_655 S
C67 H99 0.950 . S
C68 N64 1.374 1_465 S
C68 C67 1.439 1_455 S
C68 C93 1.395 . S
N69 Co58 1.995 . S
N69 C70 1.376 1_545 S
N69 C73 1.383 . S
C70 N69 1.376 1_565 S
C70 C71 1.446 . S
C70 C93 1.391 . S
C71 C70 1.446 . S
C71 C72 1.339 . S
C71 H100 0.949 . S
C72 C71 1.339 . S
C72 C73 1.439 1_565 S
C72 H101 0.950 . S
C73 N69 1.383 . S
C73 C72 1.439 1_545 S
C73 C91 1.392 . S
N74 Co58 2.282 . S
N74 C77 1.332 . S
N74 C79 1.332 . S
C75 C76 1.386 . S
C75 C78 1.388 . S
C76 C75 1.386 . S
C76 C77 1.382 . S
C76 H102 0.950 . S
C77 N74 1.332 . S
C77 C76 1.382 . S
C77 H88 0.952 . S
C78 C75 1.388 . S
C78 C79 1.382 . S
C78 H103 0.950 . S
C79 N74 1.332 . S
C79 C78 1.382 . S
C79 H89 0.948 . S
N80 Co58 2.282 . S
N80 C84 1.332 . S
N80 C85 1.332 . S
C81 C82 1.388 . S
C81 C85 1.382 . S
C81 H104 0.950 . S
C82 C81 1.388 . S
C82 C83 1.386 . S
C83 C82 1.386 . S
C83 C84 1.382 . S
C83 H105 0.950 . S
C84 N80 1.332 . S
C84 C83 1.382 . S
C84 H86 0.952 . S
C85 N80 1.332 . S
C85 C81 1.382 . S
C85 H87 0.948 . S
H86 C84 0.952 . S
H87 C85 0.948 . S
H88 C77 0.952 . S
H89 C79 0.948 . S
C90 C56 1.395 . S
C90 C60 1.391 1_455 S
C91 C53 1.389 . S
C91 C73 1.392 . S
C92 C63 1.392 . S
C92 C65 1.389 . S
C93 C68 1.395 . S
C93 C70 1.391 . S
H94 C54 0.951 . S
H95 C55 0.950 . S
H96 C61 0.949 . S
H97 C62 0.950 . S
H98 C66 0.951 . S
H99 C67 0.950 . S
H100 C71 0.949 . S
H101 C72 0.950 . S
H102 C76 0.950 . S
H103 C78 0.950 . S
H104 C81 0.950 . S
H105 C83 0.950 . S
C106 C107 1.443 . S
C106 N110 1.376 . S
C106 C144 1.389 . S
C107 C106 1.443 . S
C107 C108 1.340 . S
C107 H147 0.951 . S
C108 C107 1.340 . S
C108 C109 1.439 . S
C108 H148 0.950 . S
C109 C108 1.439 . S
C109 N110 1.374 . S
C109 C143 1.395 . S
N110 C106 1.376 . S
N110 C109 1.374 . S
N110 Co111 2.008 . S
Co111 N110 2.008 . S
Co111 N112 1.995 . S
Co111 N117 2.008 1_455 S
Co111 N122 1.995 1_455 S
Co111 N127 2.282 . S
Co111 N133 2.282 . S
N112 Co111 1.995 . S
N112 C113 1.376 . S
N112 C116 1.383 . S
C113 N112 1.376 . S
C113 C114 1.446 . S
C113 C143 1.391 . S
C114 C113 1.446 . S
C114 C115 1.339 . S
C114 H149 0.949 . S
C115 C114 1.339 . S
C115 C116 1.439 . S
C115 H150 0.950 . S
C116 N112 1.383 . S
C116 C115 1.439 . S
C116 C145 1.392 . S
N117 Co111 2.008 1_655 S
N117 C118 1.376 . S
N117 C121 1.374 . S
C118 N117 1.376 . S
C118 C119 1.443 . S
C118 C145 1.389 1_655 S
C119 C118 1.443 . S
C119 C120 1.340 . S
C119 H151 0.951 . S
C120 C119 1.340 . S
C120 C121 1.439 . S
C120 H152 0.950 . S
C121 N117 1.374 . S
C121 C120 1.439 . S
C121 C146 1.395 . S
N122 Co111 1.995 1_655 S
N122 C123 1.376 . S
N122 C126 1.383 . S
C123 N122 1.376 . S
C123 C124 1.446 . S
C123 C146 1.391 . S
C124 C123 1.446 . S
C124 C125 1.339 . S
C124 H153 0.949 . S
C125 C124 1.339 . S
C125 C126 1.439 . S
C125 H154 0.950 . S
C126 N122 1.383 . S
C126 C125 1.439 . S
C126 C144 1.392 1_655 S
N127 Co111 2.282 . S
N127 C130 1.332 1_455 S
N127 C132 1.332 . S
C128 C129 1.386 1_455 S
C128 C131 1.388 . S
C129 C128 1.386 1_655 S
C129 C130 1.382 . S
C129 H155 0.950 . S
C130 N127 1.332 1_655 S
C130 C129 1.382 . S
C130 H141 0.952 . S
C131 C128 1.388 . S
C131 C132 1.382 . S
C131 H156 0.950 . S
C132 N127 1.332 . S
C132 C131 1.382 . S
C132 H142 0.948 . S
N133 Co111 2.282 . S
N133 C137 1.332 1_545 S
N133 C138 1.332 1_445 S
C134 C135 1.388 1_655 S
C134 C138 1.382 . S
C134 H157 0.950 . S
C135 C134 1.388 1_455 S
C135 C136 1.386 . S
C136 C135 1.386 . S
C136 C137 1.382 . S
C136 H158 0.950 . S
C137 N133 1.332 1_565 S
C137 C136 1.382 . S
C137 H139 0.952 . S
C138 N133 1.332 1_665 S
C138 C134 1.382 . S
C138 H140 0.948 1_565 S
H139 C137 0.952 . S
H140 C138 0.948 1_545 S
H141 C130 0.952 . S
H142 C132 0.948 . S
C143 C109 1.395 . S
C143 C113 1.391 . S
C144 C106 1.389 . S
C144 C126 1.392 1_455 S
C145 C116 1.392 . S
C145 C118 1.389 1_455 S
C146 C121 1.395 . S
C146 C123 1.391 . S
H147 C107 0.951 . S
H148 C108 0.950 . S
H149 C114 0.949 . S
H150 C115 0.950 . S
H151 C119 0.951 . S
H152 C120 0.950 . S
H153 C124 0.949 . S
H154 C125 0.950 . S
H155 C129 0.950 . S
H156 C131 0.950 . S
H157 C134 0.950 . S
H158 C136 0.950 . S
C159 C160 1.443 . S
C159 N163 1.376 . S
C159 C197 1.389 . S
C160 C159 1.443 . S
C160 C161 1.340 . S
C160 H200 0.951 . S
C161 C160 1.340 . S
C161 C162 1.439 . S
C161 H201 0.950 . S
C162 C161 1.439 . S
C162 N163 1.374 . S
C162 C196 1.395 . S
N163 C159 1.376 . S
N163 C162 1.374 . S
N163 Co164 2.008 . S
Co164 N163 2.008 . S
Co164 N165 1.995 . S
Co164 N170 2.008 . S
Co164 N175 1.995 . S
Co164 N180 2.282 . S
Co164 N186 2.282 . S
N165 Co164 1.995 . S
N165 C166 1.376 . S
N165 C169 1.383 1_455 S
C166 N165 1.376 . S
C166 C167 1.446 1_455 S
C166 C196 1.391 . S
C167 C166 1.446 1_655 S
C167 C168 1.339 . S
C167 H202 0.949 . S
C168 C167 1.339 . S
C168 C169 1.439 . S
C168 H203 0.950 . S
C169 N165 1.383 1_655 S
C169 C168 1.439 . S
C169 C198 1.392 . S
N170 Co164 2.008 . S
N170 C171 1.376 1_455 S
N170 C174 1.374 . S
C171 N170 1.376 1_655 S
C171 C172 1.443 . S
C171 C198 1.389 . S
C172 C171 1.443 . S
C172 C173 1.340 1_545 S
C172 H204 0.951 . S
C173 C172 1.340 1_565 S
C173 C174 1.439 1_665 S
C173 H205 0.950 . S
C174 N170 1.374 . S
C174 C173 1.439 1_445 S
C174 C199 1.395 1_545 S
N175 Co164 1.995 . S
N175 C176 1.376 . S
N175 C179 1.383 . S
C176 N175 1.376 . S
C176 C177 1.446 1_545 S
C176 C199 1.391 1_545 S
C177 C176 1.446 1_565 S
C177 C178 1.339 1_565 S
C177 H206 0.949 . S
C178 C177 1.339 1_545 S
C178 C179 1.439 . S
C178 H207 0.950 . S
C179 N175 1.383 . S
C179 C178 1.439 . S
C179 C197 1.392 . S
N180 Co164 2.282 . S
N180 C183 1.332 . S
N180 C185 1.332 . S
C181 C182 1.386 . S
C181 C184 1.388 . S
C182 C181 1.386 . S
C182 C183 1.382 . S
C182 H208 0.950 . S
C183 N180 1.332 . S
C183 C182 1.382 . S
C183 H194 0.952 . S
C184 C181 1.388 . S
C184 C185 1.382 . S
C184 H209 0.950 . S
C185 N180 1.332 . S
C185 C184 1.382 . S
C185 H195 0.948 . S
N186 Co164 2.282 . S
N186 C190 1.332 . S
N186 C191 1.332 . S
C187 C188 1.388 . S
C187 C191 1.382 . S
C187 H210 0.950 . S
C188 C187 1.388 . S
C188 C189 1.386 . S
C189 C188 1.386 . S
C189 C190 1.382 . S
C189 H211 0.950 . S
C190 N186 1.332 . S
C190 C189 1.382 . S
C190 H192 0.952 . S
C191 N186 1.332 . S
C191 C187 1.382 . S
C191 H193 0.948 . S
H192 C190 0.952 . S
H193 C191 0.948 . S
H194 C183 0.952 . S
H195 C185 0.948 . S
C196 C162 1.395 . S
C196 C166 1.391 . S
C197 C159 1.389 . S
C197 C179 1.392 . S
C198 C169 1.392 . S
C198 C171 1.389 . S
C199 C174 1.395 1_565 S
C199 C176 1.391 1_565 S
H200 C160 0.951 . S
H201 C161 0.950 . S
H202 C167 0.949 . S
H203 C168 0.950 . S
H204 C172 0.951 . S
H205 C173 0.950 . S
H206 C177 0.949 . S
H207 C178 0.950 . S
H208 C182 0.950 . S
H209 C184 0.950 . S
H210 C187 0.950 . S
H211 C189 0.950 . S
H212 C230 0.951 . S
H213 C232 0.951 . S
H214 C234 0.950 . S
H215 C235 0.950 . S
H216 C237 0.950 . S
H217 C240 0.950 . S
H218 C241 0.950 . S
H219 C243 0.950 . S
H220 C244 0.950 . S
H221 C245 0.951 . S
H222 C247 0.951 . S
H223 C249 0.950 . S
H224 C250 0.950 . S
H225 C252 0.950 . S
H226 C255 0.950 . S
H227 C256 0.950 . S
H228 C258 0.950 . S
H229 C259 0.950 1_455 S
C230 H212 0.951 . S
C230 C231 1.366 . S
C230 C232 1.388 . S
C231 C230 1.366 . S
C231 C235 1.385 . S
C232 H213 0.951 . S
C232 C230 1.388 . S
C232 C233 1.366 . S
C233 C232 1.366 . S
C233 C234 1.414 . S
C233 C236 1.499 . S
C234 H214 0.950 . S
C234 C233 1.414 . S
C234 C235 1.374 . S
C235 H215 0.950 . S
C235 C231 1.385 . S
C235 C234 1.374 . S
C236 C233 1.499 . S
C236 C237 1.373 . S
C236 C238 1.389 . S
C237 H216 0.950 . S
C237 C236 1.373 . S
C237 C253 1.377 . S
C238 C236 1.389 . S
C238 C239 1.524 . S
C238 C252 1.377 . S
C239 C238 1.524 . S
C239 C240 1.397 . S
C239 C244 1.363 . S
C240 H217 0.950 . S
C240 C239 1.397 . S
C240 C241 1.334 . S
C241 H218 0.950 . S
C241 C240 1.334 . S
C241 C242 1.287 . S
C242 C241 1.287 . S
C242 C243 1.524 . S
C242 H261 0.913 . S
C243 H219 0.950 . S
C243 C242 1.524 . S
C243 C244 1.415 . S
C244 H220 0.950 . S
C244 C239 1.363 . S
C244 C243 1.415 . S
C245 H221 0.951 . S
C245 C246 1.366 . S
C245 C247 1.388 . S
C246 C245 1.366 . S
C246 C250 1.385 . S
C247 H222 0.951 . S
C247 C245 1.388 . S
C247 C248 1.366 . S
C248 C247 1.366 . S
C248 C249 1.414 . S
C248 C251 1.499 . S
C249 H223 0.950 . S
C249 C248 1.414 . S
C249 C250 1.374 . S
C250 H224 0.950 . S
C250 C246 1.385 . S
C250 C249 1.374 . S
C251 C248 1.499 . S
C251 C252 1.373 . S
C251 C253 1.389 . S
C252 H225 0.950 . S
C252 C238 1.377 . S
C252 C251 1.373 . S
C253 C237 1.377 . S
C253 C251 1.389 . S
C253 C254 1.524 1_455 S
C254 C253 1.524 1_655 S
C254 C255 1.397 . S
C254 C259 1.363 . S
C255 H226 0.950 . S
C255 C254 1.397 . S
C255 C256 1.334 . S
C256 H227 0.950 . S
C256 C255 1.334 . S
C256 C257 1.287 . S
C257 C256 1.287 . S
C257 C258 1.524 . S
C257 H260 0.999 . S
C258 H228 0.950 . S
C258 C257 1.524 . S
C258 C259 1.415 . S
C259 H229 0.950 1_655 S
C259 C254 1.363 . S
C259 C258 1.415 . S
H260 C257 0.999 . S
H261 C242 0.913 . S
H262 C280 0.951 . S
H263 C282 0.951 . S
H264 C284 0.950 . S
H265 C285 0.950 . S
H266 C287 0.950 . S
H267 C290 0.950 . S
H268 C291 0.950 . S
H269 C293 0.950 . S
H270 C294 0.950 . S
H271 C295 0.951 . S
H272 C297 0.951 . S
H273 C299 0.950 . S
H274 C300 0.950 . S
H275 C302 0.950 . S
H276 C305 0.950 . S
H277 C306 0.950 . S
H278 C308 0.950 . S
H279 C309 0.950 1_545 S
C280 H262 0.951 . S
C280 C281 1.366 . S
C280 C282 1.388 . S
C281 C280 1.366 . S
C281 C285 1.385 . S
C282 H263 0.951 . S
C282 C280 1.388 . S
C282 C283 1.366 . S
C283 C282 1.366 . S
C283 C284 1.414 . S
C283 C286 1.499 . S
C284 H264 0.950 . S
C284 C283 1.414 . S
C284 C285 1.374 . S
C285 H265 0.950 . S
C285 C281 1.385 . S
C285 C284 1.374 . S
C286 C283 1.499 . S
C286 C287 1.373 . S
C286 C288 1.389 . S
C287 H266 0.950 . S
C287 C286 1.373 . S
C287 C303 1.377 . S
C288 C286 1.389 . S
C288 C289 1.524 . S
C288 C302 1.377 . S
C289 C288 1.524 . S
C289 C290 1.397 . S
C289 C294 1.363 . S
C290 H267 0.950 . S
C290 C289 1.397 . S
C290 C291 1.334 . S
C291 H268 0.950 . S
C291 C290 1.334 . S
C291 C292 1.287 . S
C292 C291 1.287 . S
C292 C293 1.524 . S
C292 H311 0.913 . S
C293 H269 0.950 . S
C293 C292 1.524 . S
C293 C294 1.415 . S
C294 H270 0.950 . S
C294 C289 1.363 . S
C294 C293 1.415 . S
C295 H271 0.951 . S
C295 C296 1.366 . S
C295 C297 1.388 . S
C296 C295 1.366 . S
C296 C300 1.385 . S
C297 H272 0.951 . S
C297 C295 1.388 . S
C297 C298 1.366 . S
C298 C297 1.366 . S
C298 C299 1.414 . S
C298 C301 1.499 . S
C299 H273 0.950 . S
C299 C298 1.414 . S
C299 C300 1.374 . S
C300 H274 0.950 . S
C300 C296 1.385 . S
C300 C299 1.374 . S
C301 C298 1.499 . S
C301 C302 1.373 . S
C301 C303 1.389 . S
C302 H275 0.950 . S
C302 C288 1.377 . S
C302 C301 1.373 . S
C303 C287 1.377 . S
C303 C301 1.389 . S
C303 C304 1.524 . S
C304 C303 1.524 . S
C304 C305 1.397 1_545 S
C304 C309 1.363 1_545 S
C305 H276 0.950 . S
C305 C304 1.397 1_565 S
C305 C306 1.334 . S
C306 H277 0.950 . S
C306 C305 1.334 . S
C306 C307 1.287 . S
C307 C306 1.287 . S
C307 C308 1.524 . S
C307 H310 0.999 . S
C308 H278 0.950 . S
C308 C307 1.524 . S
C308 C309 1.415 . S
C309 H279 0.950 1_565 S
C309 C304 1.363 1_565 S
C309 C308 1.415 . S
H310 C307 0.999 . S
H311 C292 0.913 . S
H312 C330 0.951 . S
H313 C332 0.951 . S
H314 C334 0.950 . S
H315 C335 0.950 . S
H316 C337 0.950 . S
H317 C340 0.950 . S
H318 C341 0.950 . S
H319 C343 0.950 . S
H320 C344 0.950 . S
H321 C345 0.951 . S
H322 C347 0.951 . S
H323 C349 0.950 . S
H324 C350 0.950 . S
H325 C352 0.950 . S
H326 C355 0.950 . S
H327 C356 0.950 . S
H328 C358 0.950 . S
H329 C359 0.950 . S
C330 H312 0.951 . S
C330 C331 1.366 . S
C330 C332 1.388 . S
C331 C330 1.366 . S
C331 C335 1.385 1_455 S
C332 H313 0.951 . S
C332 C330 1.388 . S
C332 C333 1.366 . S
C333 C332 1.366 . S
C333 C334 1.414 1_455 S
C333 C336 1.499 . S
C334 H314 0.950 . S
C334 C333 1.414 1_655 S
C334 C335 1.374 . S
C335 H315 0.950 . S
C335 C331 1.385 1_655 S
C335 C334 1.374 . S
C336 C333 1.499 . S
C336 C337 1.373 1_455 S
C336 C338 1.389 . S
C337 H316 0.950 . S
C337 C336 1.373 1_655 S
C337 C353 1.377 . S
C338 C336 1.389 . S
C338 C339 1.524 . S
C338 C352 1.377 . S
C339 C338 1.524 . S
C339 C340 1.397 . S
C339 C344 1.363 . S
C340 H317 0.950 . S
C340 C339 1.397 . S
C340 C341 1.334 . S
C341 H318 0.950 . S
C341 C340 1.334 . S
C341 C342 1.287 . S
C342 C341 1.287 . S
C342 C343 1.524 . S
C342 H361 0.913 . S
C343 H319 0.950 . S
C343 C342 1.524 . S
C343 C344 1.415 . S
C344 H320 0.950 . S
C344 C339 1.363 . S
C344 C343 1.415 . S
C345 H321 0.951 . S
C345 C346 1.366 1_655 S
C345 C347 1.388 . S
C346 C345 1.366 1_455 S
C346 C350 1.385 . S
C347 H322 0.951 . S
C347 C345 1.388 . S
C347 C348 1.366 1_655 S
C348 C347 1.366 1_455 S
C348 C349 1.414 . S
C348 C351 1.499 . S
C349 H323 0.950 . S
C349 C348 1.414 . S
C349 C350 1.374 . S
C350 H324 0.950 . S
C350 C346 1.385 . S
C350 C349 1.374 . S
C351 C348 1.499 . S
C351 C352 1.373 . S
C351 C353 1.389 1_455 S
C352 H325 0.950 . S
C352 C338 1.377 . S
C352 C351 1.373 . S
C353 C337 1.377 . S
C353 C351 1.389 1_655 S
C353 C354 1.524 . S
C354 C353 1.524 . S
C354 C355 1.397 . S
C354 C359 1.363 . S
C355 H326 0.950 . S
C355 C354 1.397 . S
C355 C356 1.334 . S
C356 H327 0.950 . S
C356 C355 1.334 . S
C356 C357 1.287 . S
C357 C356 1.287 . S
C357 C358 1.524 . S
C357 H360 0.999 . S
C358 H328 0.950 . S
C358 C357 1.524 . S
C358 C359 1.415 . S
C359 H329 0.950 . S
C359 C354 1.363 . S
C359 C358 1.415 . S
H360 C357 0.999 . S
H361 C342 0.913 . S
H362 C380 0.951 . S
H363 C382 0.951 . S
H364 C384 0.950 . S
H365 C385 0.950 . S
H366 C387 0.950 . S
H367 C390 0.950 . S
H368 C391 0.950 . S
H369 C393 0.950 . S
H370 C394 0.950 . S
H371 C395 0.951 . S
H372 C397 0.951 . S
H373 C399 0.950 . S
H374 C400 0.950 . S
H375 C402 0.950 . S
H376 C405 0.950 . S
H377 C406 0.950 . S
H378 C408 0.950 1_565 S
H379 C409 0.950 . S
C380 H362 0.951 . S
C380 C381 1.366 . S
C380 C382 1.388 . S
C381 C380 1.366 . S
C381 C385 1.385 . S
C382 H363 0.951 . S
C382 C380 1.388 . S
C382 C383 1.366 . S
C383 C382 1.366 . S
C383 C384 1.414 . S
C383 C386 1.499 . S
C384 H364 0.950 . S
C384 C383 1.414 . S
C384 C385 1.374 . S
C385 H365 0.950 . S
C385 C381 1.385 . S
C385 C384 1.374 . S
C386 C383 1.499 . S
C386 C387 1.373 . S
C386 C388 1.389 . S
C387 H366 0.950 . S
C387 C386 1.373 . S
C387 C403 1.377 . S
C388 C386 1.389 . S
C388 C389 1.524 . S
C388 C402 1.377 . S
C389 C388 1.524 . S
C389 C390 1.397 . S
C389 C394 1.363 . S
C390 H367 0.950 . S
C390 C389 1.397 . S
C390 C391 1.334 . S
C391 H368 0.950 . S
C391 C390 1.334 . S
C391 C392 1.287 . S
C392 C391 1.287 . S
C392 C393 1.524 . S
C392 H411 0.913 . S
C393 H369 0.950 . S
C393 C392 1.524 . S
C393 C394 1.415 . S
C394 H370 0.950 . S
C394 C389 1.363 . S
C394 C393 1.415 . S
C395 H371 0.951 . S
C395 C396 1.366 . S
C395 C397 1.388 . S
C396 C395 1.366 . S
C396 C400 1.385 . S
C397 H372 0.951 . S
C397 C395 1.388 . S
C397 C398 1.366 . S
C398 C397 1.366 . S
C398 C399 1.414 . S
C398 C401 1.499 . S
C399 H373 0.950 . S
C399 C398 1.414 . S
C399 C400 1.374 . S
C400 H374 0.950 . S
C400 C396 1.385 . S
C400 C399 1.374 . S
C401 C398 1.499 . S
C401 C402 1.373 . S
C401 C403 1.389 . S
C402 H375 0.950 . S
C402 C388 1.377 . S
C402 C401 1.373 . S
C403 C387 1.377 . S
C403 C401 1.389 . S
C403 C404 1.524 . S
C404 C403 1.524 . S
C404 C405 1.397 . S
C404 C409 1.363 . S
C405 H376 0.950 . S
C405 C404 1.397 . S
C405 C406 1.334 . S
C406 H377 0.950 . S
C406 C405 1.334 . S
C406 C407 1.287 . S
C407 C406 1.287 . S
C407 C408 1.524 . S
C407 H410 0.999 . S
C408 H378 0.950 1_545 S
C408 C407 1.524 . S
C408 C409 1.415 . S
C409 H379 0.950 . S
C409 C404 1.363 . S
C409 C408 1.415 . S
H410 C407 0.999 . S
H411 C392 0.913 . S
H412 C430 0.951 . S
H413 C432 0.951 . S
H414 C434 0.950 . S
H415 C435 0.950 . S
H416 C437 0.950 1_655 S
H417 C440 0.950 . S
H418 C441 0.950 . S
H419 C443 0.950 . S
H420 C444 0.950 . S
H421 C445 0.951 . S
H422 C447 0.951 . S
H423 C449 0.950 . S
H424 C450 0.950 . S
H425 C452 0.950 . S
H426 C455 0.950 . S
H427 C456 0.950 . S
H428 C458 0.950 . S
H429 C459 0.950 1_565 S
C430 H412 0.951 . S
C430 C431 1.366 . S
C430 C432 1.388 . S
C431 C430 1.366 . S
C431 C435 1.385 . S
C432 H413 0.951 . S
C432 C430 1.388 . S
C432 C433 1.366 . S
C433 C432 1.366 . S
C433 C434 1.414 . S
C433 C436 1.499 . S
C434 H414 0.950 . S
C434 C433 1.414 . S
C434 C435 1.374 . S
C435 H415 0.950 . S
C435 C431 1.385 . S
C435 C434 1.374 . S
C436 C433 1.499 . S
C436 C437 1.373 . S
C436 C438 1.389 . S
C437 H416 0.950 1_455 S
C437 C436 1.373 . S
C437 C453 1.377 1_556 S
C438 C436 1.389 . S
C438 C439 1.524 . S
C438 C452 1.377 1_556 S
C439 C438 1.524 . S
C439 C440 1.397 . S
C439 C444 1.363 1_556 S
C440 H417 0.950 . S
C440 C439 1.397 . S
C440 C441 1.334 . S
C441 H418 0.950 . S
C441 C440 1.334 . S
C441 C442 1.287 . S
C442 C441 1.287 . S
C442 C443 1.524 1_556 S
C442 H461 0.913 . S
C443 H419 0.950 . S
C443 C442 1.524 1_554 S
C443 C444 1.415 . S
C444 H420 0.950 . S
C444 C439 1.363 1_554 S
C444 C443 1.415 . S
C445 H421 0.951 . S
C445 C446 1.366 . S
C445 C447 1.388 . S
C446 C445 1.366 . S
C446 C450 1.385 . S
C447 H422 0.951 . S
C447 C445 1.388 . S
C447 C448 1.366 . S
C448 C447 1.366 . S
C448 C449 1.414 . S
C448 C451 1.499 . S
C449 H423 0.950 . S
C449 C448 1.414 . S
C449 C450 1.374 . S
C450 H424 0.950 . S
C450 C446 1.385 . S
C450 C449 1.374 . S
C451 C448 1.499 . S
C451 C452 1.373 . S
C451 C453 1.389 . S
C452 H425 0.950 . S
C452 C438 1.377 1_554 S
C452 C451 1.373 . S
C453 C437 1.377 1_554 S
C453 C451 1.389 . S
C453 C454 1.524 1_455 S
C454 C453 1.524 1_655 S
C454 C455 1.397 . S
C454 C459 1.363 1_554 S
C455 H426 0.950 . S
C455 C454 1.397 . S
C455 C456 1.334 . S
C456 H427 0.950 . S
C456 C455 1.334 . S
C456 C457 1.287 . S
C457 C456 1.287 . S
C457 C458 1.524 1_544 S
C457 H460 0.999 . S
C458 H428 0.950 . S
C458 C457 1.524 1_566 S
C458 C459 1.415 1_565 S
C459 H429 0.950 1_545 S
C459 C454 1.363 1_556 S
C459 C458 1.415 1_545 S
H460 C457 0.999 . S
H461 C442 0.913 . S
H462 C480 0.951 . S
H463 C482 0.951 . S
H464 C484 0.950 . S
H465 C485 0.950 . S
H466 C487 0.950 . S
H467 C490 0.950 . S
H468 C491 0.950 . S
H469 C493 0.950 . S
H470 C494 0.950 . S
H471 C495 0.951 . S
H472 C497 0.951 . S
H473 C499 0.950 . S
H474 C500 0.950 . S
H475 C502 0.950 . S
H476 C505 0.950 . S
H477 C506 0.950 . S
H478 C508 0.950 . S
H479 C509 0.950 . S
C480 H462 0.951 . S
C480 C481 1.366 . S
C480 C482 1.388 . S
C481 C480 1.366 . S
C481 C485 1.385 . S
C482 H463 0.951 . S
C482 C480 1.388 . S
C482 C483 1.366 . S
C483 C482 1.366 . S
C483 C484 1.414 . S
C483 C486 1.499 . S
C484 H464 0.950 . S
C484 C483 1.414 . S
C484 C485 1.374 . S
C485 H465 0.950 . S
C485 C481 1.385 . S
C485 C484 1.374 . S
C486 C483 1.499 . S
C486 C487 1.373 . S
C486 C488 1.389 . S
C487 H466 0.950 . S
C487 C486 1.373 . S
C487 C503 1.377 . S
C488 C486 1.389 . S
C488 C489 1.524 . S
C488 C502 1.377 . S
C489 C488 1.524 . S
C489 C490 1.397 . S
C489 C494 1.363 . S
C490 H467 0.950 . S
C490 C489 1.397 . S
C490 C491 1.334 . S
C491 H468 0.950 . S
C491 C490 1.334 . S
C491 C492 1.287 . S
C492 C491 1.287 . S
C492 C493 1.524 . S
C492 H511 0.913 . S
C493 H469 0.950 . S
C493 C492 1.524 . S
C493 C494 1.415 . S
C494 H470 0.950 . S
C494 C489 1.363 . S
C494 C493 1.415 . S
C495 H471 0.951 . S
C495 C496 1.366 . S
C495 C497 1.388 . S
C496 C495 1.366 . S
C496 C500 1.385 . S
C497 H472 0.951 . S
C497 C495 1.388 . S
C497 C498 1.366 . S
C498 C497 1.366 . S
C498 C499 1.414 . S
C498 C501 1.499 . S
C499 H473 0.950 . S
C499 C498 1.414 . S
C499 C500 1.374 . S
C500 H474 0.950 . S
C500 C496 1.385 . S
C500 C499 1.374 . S
C501 C498 1.499 . S
C501 C502 1.373 . S
C501 C503 1.389 . S
C502 H475 0.950 . S
C502 C488 1.377 . S
C502 C501 1.373 . S
C503 C487 1.377 . S
C503 C501 1.389 . S
C503 C504 1.524 . S
C504 C503 1.524 . S
C504 C505 1.397 1_455 S
C504 C509 1.363 1_545 S
C505 H476 0.950 . S
C505 C504 1.397 1_655 S
C505 C506 1.334 1_545 S
C506 H477 0.950 . S
C506 C505 1.334 1_565 S
C506 C507 1.287 . S
C507 C506 1.287 . S
C507 C508 1.524 1_655 S
C507 H510 0.999 . S
C508 H478 0.950 . S
C508 C507 1.524 1_455 S
C508 C509 1.415 . S
C509 H479 0.950 . S
C509 C504 1.363 1_565 S
C509 C508 1.415 . S
H510 C507 0.999 . S
H511 C492 0.913 . S
H512 C530 0.951 1_655 S
H513 C532 0.951 1_655 S
H514 C534 0.950 . S
H515 C535 0.950 . S
H516 C537 0.950 . S
H517 C540 0.950 . S
H518 C541 0.950 . S
H519 C543 0.950 . S
H520 C544 0.950 . S
H521 C545 0.951 . S
H522 C547 0.951 . S
H523 C549 0.957 . S
H524 C550 0.950 . S
H525 C552 0.950 . S
H526 C555 0.950 . S
H527 C556 0.950 . S
H528 C558 0.950 . S
H529 C559 0.950 . S
C530 H512 0.951 1_455 S
C530 C531 1.366 . S
C530 C532 1.388 . S
C531 C530 1.366 . S
C531 C535 1.385 . S
C532 H513 0.951 1_455 S
C532 C530 1.388 . S
C532 C533 1.366 . S
C533 C532 1.366 . S
C533 C534 1.414 . S
C533 C536 1.499 . S
C534 H514 0.950 . S
C534 C533 1.414 . S
C534 C535 1.374 . S
C535 H515 0.950 . S
C535 C531 1.385 . S
C535 C534 1.374 . S
C536 C533 1.499 . S
C536 C537 1.373 . S
C536 C538 1.389 . S
C537 H516 0.950 . S
C537 C536 1.373 . S
C537 C553 1.377 . S
C538 C536 1.389 . S
C538 C539 1.524 1_455 S
C538 C552 1.377 . S
C539 C538 1.524 1_655 S
C539 C540 1.397 1_655 S
C539 C544 1.363 . S
C540 H517 0.950 . S
C540 C539 1.397 1_455 S
C540 C541 1.334 1_445 S
C541 H518 0.950 . S
C541 C540 1.334 1_665 S
C541 C542 1.287 . S
C542 C541 1.287 . S
C542 C543 1.524 1_565 S
C542 H561 0.913 . S
C543 H519 0.950 . S
C543 C542 1.524 1_545 S
C543 C544 1.415 . S
C544 H520 0.950 . S
C544 C539 1.363 . S
C544 C543 1.415 . S
C545 H521 0.951 . S
C545 C546 1.366 . S
C545 C547 1.388 . S
C546 C545 1.366 . S
C546 C550 1.385 . S
C547 H522 0.951 . S
C547 C545 1.388 . S
C547 C548 1.366 . S
C548 C547 1.366 . S
C548 C549 1.414 . S
C548 C551 1.499 . S
C549 H523 0.957 . S
C549 C548 1.414 . S
C549 C550 1.374 . S
C550 H524 0.950 . S
C550 C546 1.385 . S
C550 C549 1.374 . S
C551 C548 1.499 . S
C551 C552 1.373 . S
C551 C553 1.389 . S
C552 H525 0.950 . S
C552 C538 1.377 . S
C552 C551 1.373 . S
C553 C537 1.377 . S
C553 C551 1.389 . S
C553 C554 1.524 . S
C554 C553 1.524 . S
C554 C555 1.397 . S
C554 C559 1.363 . S
C555 H526 0.950 . S
C555 C554 1.397 . S
C555 C556 1.334 . S
C556 H527 0.950 . S
C556 C555 1.334 . S
C556 C557 1.287 . S
C557 C556 1.287 . S
C557 C558 1.524 . S
C557 H560 0.999 . S
C558 H528 0.950 . S
C558 C557 1.524 . S
C558 C559 1.415 . S
C559 H529 0.950 . S
C559 C554 1.363 . S
C559 C558 1.415 . S
H560 C557 0.999 . S
H561 C542 0.913 . S
H562 C580 0.951 . S
H563 C582 0.951 . S
H564 C584 0.950 . S
H565 C585 0.950 . S
H566 C587 0.950 1_655 S
H567 C590 0.950 . S
H568 C591 0.950 . S
H569 C593 0.950 . S
H570 C594 0.950 . S
H571 C595 0.951 . S
H572 C597 0.951 . S
H573 C599 0.950 . S
H574 C600 0.950 . S
H575 C602 0.950 . S
H576 C605 0.950 . S
H577 C606 0.950 . S
H578 C608 0.950 . S
H579 C609 0.950 . S
C580 H562 0.951 . S
C580 C581 1.366 . S
C580 C582 1.388 . S
C581 C580 1.366 . S
C581 C585 1.385 . S
C582 H563 0.951 . S
C582 C580 1.388 . S
C582 C583 1.366 . S
C583 C582 1.366 . S
C583 C584 1.414 . S
C583 C586 1.499 . S
C584 H564 0.950 . S
C584 C583 1.414 . S
C584 C585 1.374 . S
C585 H565 0.950 . S
C585 C581 1.385 . S
C585 C584 1.374 . S
C586 C583 1.499 . S
C586 C587 1.373 . S
C586 C588 1.389 . S
C587 H566 0.950 1_455 S
C587 C586 1.373 . S
C587 C603 1.373 1_455 S
C588 C586 1.389 . S
C588 C589 1.524 . S
C588 C602 1.377 . S
C589 C588 1.524 . S
C589 C590 1.397 . S
C589 C594 1.363 . S
C590 H567 0.950 . S
C590 C589 1.397 . S
C590 C591 1.334 . S
C591 H568 0.950 . S
C591 C590 1.334 . S
C591 C592 1.287 . S
C592 C591 1.287 . S
C592 C593 1.524 . S
C592 H611 0.913 . S
C593 H569 0.950 . S
C593 C592 1.524 . S
C593 C594 1.415 . S
C594 H570 0.950 . S
C594 C589 1.363 . S
C594 C593 1.415 . S
C595 H571 0.951 . S
C595 C596 1.366 . S
C595 C597 1.388 . S
C596 C595 1.366 . S
C596 C600 1.385 . S
C597 H572 0.951 . S
C597 C595 1.388 . S
C597 C598 1.366 . S
C598 C597 1.366 . S
C598 C599 1.414 . S
C598 C601 1.499 . S
C599 H573 0.950 . S
C599 C598 1.414 . S
C599 C600 1.374 . S
C600 H574 0.950 . S
C600 C596 1.385 . S
C600 C599 1.374 . S
C601 C598 1.499 . S
C601 C602 1.373 . S
C601 C603 1.385 1_455 S
C602 H575 0.950 . S
C602 C588 1.377 . S
C602 C601 1.373 . S
C603 C587 1.373 1_655 S
C603 C601 1.385 1_655 S
C603 C604 1.533 . S
C604 C603 1.533 . S
C604 C605 1.397 . S
C604 C609 1.363 1_545 S
C605 H576 0.950 . S
C605 C604 1.397 . S
C605 C606 1.334 . S
C606 H577 0.950 . S
C606 C605 1.334 . S
C606 C607 1.287 1_545 S
C607 C606 1.287 1_565 S
C607 C608 1.524 . S
C607 H610 0.999 . S
C608 H578 0.950 . S
C608 C607 1.524 . S
C608 C609 1.415 . S
C609 H579 0.950 . S
C609 C604 1.363 1_565 S
C609 C608 1.415 . S
H610 C607 0.999 . S
H611 C592 0.913 . S
C231 C22 1.500 . S
C246 C29 1.500 . S
C281 C91 1.499 . S
C296 C92 1.499 . S
C331 C128 1.500 . S
C346 C135 1.500 . S
C381 C197 1.499 . S
C396 C198 1.499 . S
C431 C144 1.509 . S
C446 C39 1.509 . S
C481 C181 1.504 . S
C496 C82 1.504 . S
C531 C188 1.506 . S
C546 C38 1.506 . S
C581 C75 1.506 . S
C596 C145 1.506 . S
