# Generated by pormake.
# Topology uov, (4)-cn, num edge types: 1
# Building blocks:
#     Node 0, Type 0, BuildingBlock: GALJAG_clean_sbu_0, # of connection points: 4
#     Node 1, Type 0, BuildingBlock: GALJAG_clean_sbu_0, # of connection points: 4
#     Node 2, Type 0, BuildingBlock: GALJAG_clean_sbu_0, # of connection points: 4
#     Node 3, Type 0, BuildingBlock: GALJAG_clean_sbu_0, # of connection points: 4
#     Node 4, Type 0, BuildingBlock: GALJAG_clean_sbu_0, # of connection points: 4
#     Node 5, Type 0, BuildingBlock: GALJAG_clean_sbu_0, # of connection points: 4
#     Node 6, Type 0, BuildingBlock: GALJAG_clean_sbu_0, # of connection points: 4
#     Node 7, Type 0, BuildingBlock: GALJAG_clean_sbu_0, # of connection points: 4
#     Edge 8, Type (0, 0), BuildingBlock: TEMPAE_clean_linker_10, # of connection points: 2
#     Edge 9, Type (0, 0), BuildingBlock: TEMPAE_clean_linker_10, # of connection points: 2
#     Edge 10, Type (0, 0), BuildingBlock: TEMPAE_clean_linker_10, # of connection points: 2
#     Edge 11, Type (0, 0), BuildingBlock: TEMPAE_clean_linker_10, # of connection points: 2
#     Edge 12, Type (0, 0), BuildingBlock: TEMPAE_clean_linker_10, # of connection points: 2
#     Edge 13, Type (0, 0), BuildingBlock: TEMPAE_clean_linker_10, # of connection points: 2
#     Edge 14, Type (0, 0), BuildingBlock: TEMPAE_clean_linker_10, # of connection points: 2
#     Edge 15, Type (0, 0), BuildingBlock: TEMPAE_clean_linker_10, # of connection points: 2
#     Edge 16, Type (0, 0), BuildingBlock: TEMPAE_clean_linker_10, # of connection points: 2
#     Edge 17, Type (0, 0), BuildingBlock: TEMPAE_clean_linker_10, # of connection points: 2
#     Edge 18, Type (0, 0), BuildingBlock: TEMPAE_clean_linker_10, # of connection points: 2
#     Edge 19, Type (0, 0), BuildingBlock: TEMPAE_clean_linker_10, # of connection points: 2
#     Edge 20, Type (0, 0), BuildingBlock: TEMPAE_clean_linker_10, # of connection points: 2
#     Edge 21, Type (0, 0), BuildingBlock: TEMPAE_clean_linker_10, # of connection points: 2
#     Edge 22, Type (0, 0), BuildingBlock: TEMPAE_clean_linker_10, # of connection points: 2
#     Edge 23, Type (0, 0), BuildingBlock: TEMPAE_clean_linker_10, # of connection points: 2
# Relax obj value: 0.177
# Max RMSD: 0.147
# Mean RMSD: 0.147
data_MOF--net-uov--node1-GALJAG_clean_sbu_0--edge1-TEMPAE_clean_linker_10
_symmetry_space_group_name_H-M    P1
_symmetry_Int_Tables_number       1
_symmetry_cell_setting            triclinic
loop_
_symmetry_equiv_pos_as_xyz
'x, y, z'
_cell_length_a     29.089499
_cell_length_b     29.076549
_cell_length_c     47.178372
_cell_angle_alpha  90.016123
_cell_angle_beta   90.033259
_cell_angle_gamma 90.044294
loop_
_atom_site_label
_atom_site_type_symbol
_atom_site_fract_x
_atom_site_fract_y
_atom_site_fract_z
_atom_type_partial_charge
In0 In 0.00944 0.23204 0.61414 0.0
O1 O 0.04031 0.30363 0.61209 0.0
O2 O 0.97883 0.29521 0.63588 0.0
C3 C 0.05799 0.21173 0.56714 0.0
C4 C 0.04562 0.19627 0.66182 0.0
C5 C 0.9304 0.19494 0.59452 0.0
O6 O 0.03415 0.2478 0.56917 0.0
O7 O 0.05814 0.18677 0.589 0.0
O8 O 0.93838 0.23753 0.5939 0.0
O9 O 0.96103 0.17151 0.60666 0.0
C10 C 0.00957 0.32229 0.627 0.0
O11 O 0.06965 0.20841 0.64089 0.0
O12 O 0.00294 0.20278 0.65897 0.0
In13 In 0.23658 0.97924 0.38271 0.0
O14 O 0.30883 0.95039 0.38568 0.0
O15 O 0.29917 0.01023 0.36049 0.0
C16 C 0.21628 0.9303 0.4296 0.0
C17 C 0.20153 0.94297 0.33481 0.0
C18 C 0.19837 0.05795 0.40195 0.0
O19 O 0.25175 0.95513 0.42788 0.0
O20 O 0.19195 0.92932 0.40747 0.0
O21 O 0.1753 0.02622 0.3906 0.0
O22 O 0.24116 0.05115 0.40209 0.0
C23 C 0.32686 0.98066 0.3701 0.0
O24 O 0.20513 0.98584 0.33851 0.0
O25 O 0.21626 0.91873 0.35502 0.0
In26 In 0.98069 0.75561 0.61325 0.0
O27 O 0.95147 0.68347 0.61001 0.0
O28 O 0.01094 0.69285 0.63561 0.0
C29 C 0.93321 0.77694 0.56592 0.0
C30 C 0.94331 0.79027 0.66093 0.0
C31 C 0.06055 0.79219 0.59462 0.0
O32 O 0.95609 0.74029 0.56819 0.0
O33 O 0.93335 0.80201 0.58774 0.0
O34 O 0.05257 0.74959 0.59416 0.0
O35 O 0.0294 0.81589 0.60602 0.0
C36 C 0.98142 0.66528 0.62575 0.0
O37 O 0.91954 0.77578 0.64042 0.0
O38 O 0.98623 0.78676 0.65759 0.0
In39 In 0.76012 0.00901 0.37952 0.0
O40 O 0.68858 0.03949 0.38209 0.0
O41 O 0.69678 0.97831 0.35791 0.0
C42 C 0.78085 0.05656 0.4269 0.0
C43 C 0.79499 0.04611 0.3318 0.0
C44 C 0.79664 0.9295 0.39875 0.0
O45 O 0.74413 0.03383 0.42438 0.0
O46 O 0.80634 0.05622 0.40528 0.0
O47 O 0.82038 0.96041 0.38707 0.0
O48 O 0.75406 0.93743 0.39904 0.0
C49 C 0.66978 0.00885 0.36712 0.0
O50 O 0.79049 0.0032 0.33493 0.0
O51 O 0.78144 0.0699 0.35251 0.0
In52 In 0.96155 0.24115 0.1122 0.0
O53 O 0.97094 0.20176 0.15367 0.0
O54 O 0.90295 0.21865 0.14084 0.0
C55 C 0.04248 0.22398 0.0864 0.0
C56 C 0.96447 0.32957 0.12885 0.0
C57 C 0.90977 0.20992 0.06889 0.0
O58 O 0.02586 0.1975 0.10495 0.0
O59 O 0.01933 0.25986 0.08197 0.0
O60 O 0.91287 0.25221 0.07468 0.0
O61 O 0.93166 0.18376 0.08538 0.0
C62 C 0.92845 0.19942 0.15892 0.0
O63 O 0.93437 0.31428 0.11202 0.0
O64 O 0.99266 0.29993 0.13778 0.0
In65 In 0.24002 0.0327 0.88228 0.0
O66 O 0.31372 0.05814 0.88172 0.0
O67 O 0.29782 -0.00121 0.85722 0.0
C68 C 0.20901 0.08762 0.92408 0.0
C69 C 0.19855 0.06433 0.83512 0.0
C70 C 0.22194 0.95367 0.91005 0.0
O71 O 0.2513 0.08365 0.91861 0.0
O72 O 0.18276 0.065 0.908 0.0
O73 O 0.19672 0.96827 0.89021 0.0
O74 O 0.25708 0.97781 0.91481 0.0
C75 C 0.32816 0.02683 0.86549 0.0
O76 O 0.19829 0.02227 0.84178 0.0
O77 O 0.22029 0.09004 0.852 0.0
In78 In 0.02764 0.75625 0.11451 0.0
O79 O 0.05223 0.68235 0.11249 0.0
O80 O 0.99599 0.69739 0.13978 0.0
C81 C 0.08054 0.78841 0.07208 0.0
C82 C 0.06191 0.79573 0.16168 0.0
C83 C 0.94736 0.77503 0.08833 0.0
O84 O 0.07877 0.74617 0.07821 0.0
O85 O 0.05665 0.81409 0.08778 0.0
O86 O 0.96386 0.80081 0.10733 0.0
O87 O 0.97023 0.73904 0.0837 0.0
C88 C 0.02267 0.66729 0.12973 0.0
O89 O 0.01929 0.79417 0.15664 0.0
O90 O 0.08683 0.7769 0.14317 0.0
In91 In 0.75371 0.96274 0.88062 0.0
O92 O 0.79165 0.97078 0.83852 0.0
O93 O 0.77511 0.9032 0.85238 0.0
C94 C 0.77299 0.04375 0.90593 0.0
C95 C 0.66498 0.96641 0.86477 0.0
C96 C 0.78431 0.911 0.92405 0.0
O97 O 0.79911 0.02608 0.88757 0.0
O98 O 0.7364 0.02169 0.91032 0.0
O99 O 0.7421 0.9144 0.91818 0.0
O100 O 0.81075 0.93254 0.90755 0.0
C101 C 0.79366 0.9281 0.83373 0.0
O102 O 0.68017 0.93692 0.88201 0.0
O103 O 0.69484 0.99369 0.85503 0.0
C104 C 0.01361 0.59649 0.65064 0.0
C105 C 0.98335 0.61518 0.63059 0.0
C106 C 0.01792 0.54865 0.65378 0.0
C107 C 0.99193 0.51909 0.6361 0.0
C108 C 0.96042 0.53788 0.61638 0.0
C109 C 0.95626 0.58571 0.61403 0.0
C110 C 0.0512 0.52978 0.6754 0.0
C111 C 0.93247 0.50751 0.5969 0.0
C112 C 0.03742 0.4014 0.61647 0.0
C113 C 0.00805 0.37242 0.63181 0.0
C114 C 0.03353 0.44931 0.61845 0.0
C115 C -0.00013 0.46865 0.63653 0.0
C116 C 0.97162 0.43957 0.65314 0.0
C117 C 0.97579 0.39167 0.6504 0.0
C118 C 0.064 0.47915 0.60017 0.0
C119 C 0.93595 0.45903 0.67302 0.0
H120 H 0.03438 0.61923 0.66361 0.0
H121 H 0.93284 0.60003 0.59849 0.0
H122 H 0.03411 0.50339 0.68871 0.0
H123 H 0.08028 0.51274 0.66442 0.0
H124 H 0.06525 0.55711 0.68941 0.0
H125 H 0.90816 0.52751 0.58358 0.0
H126 H 0.95581 0.48795 0.58274 0.0
H127 H 0.9126 0.48206 0.60942 0.0
H128 H 0.06243 0.38666 0.60208 0.0
H129 H 0.95324 0.36931 0.66244 0.0
H130 H 0.08209 0.50503 0.61337 0.0
H131 H 0.04262 0.4982 0.58462 0.0
H132 H 0.09003 0.45879 0.58838 0.0
H133 H 0.95143 0.48589 0.68675 0.0
H134 H 0.92038 0.4321 0.68669 0.0
H135 H 0.90816 0.47563 0.66059 0.0
C136 C 0.59089 0.03643 0.37827 0.0
C137 C 0.61959 0.00725 0.36262 0.0
C138 C 0.54298 0.03254 0.37656 0.0
C139 C 0.52331 -0.00091 0.35843 0.0
C140 C 0.55207 0.971 0.34153 0.0
C141 C 0.60002 0.97515 0.344 0.0
C142 C 0.51349 0.06282 0.39517 0.0
C143 C 0.53225 0.93554 0.32159 0.0
C144 C 0.4065 0.95539 0.38135 0.0
C145 C 0.37688 0.98272 0.36508 0.0
C146 C 0.45428 0.9595 0.37876 0.0
C147 C 0.47288 0.99121 0.3591 0.0
C148 C 0.44315 0.01748 0.34171 0.0
C149 C 0.39537 0.01322 0.3451 0.0
C150 C 0.48484 0.93126 0.39793 0.0
C151 C 0.4618 0.051 0.32016 0.0
H152 H 0.60588 0.06132 0.39269 0.0
H153 H 0.62214 0.95275 0.33172 0.0
H154 H 0.48749 0.08113 0.38221 0.0
H155 H 0.49461 0.04125 0.41069 0.0
H156 H 0.53407 0.08868 0.407 0.0
H157 H 0.55894 0.92006 0.30772 0.0
H158 H 0.51573 0.90765 0.33398 0.0
H159 H 0.50527 0.95122 0.30806 0.0
H160 H 0.39234 0.93178 0.39684 0.0
H161 H 0.37251 0.03417 0.33235 0.0
H162 H 0.50467 0.95441 0.41211 0.0
H163 H 0.51002 0.91148 0.38519 0.0
H164 H 0.46496 0.90681 0.41125 0.0
H165 H 0.47916 0.0799 0.33119 0.0
H166 H 0.43432 0.06532 0.30639 0.0
H167 H 0.48788 0.03399 0.30659 0.0
C168 C 0.00189 0.39449 0.15484 0.0
C169 C 0.96905 0.37902 0.13526 0.0
C170 C 0.01035 0.44167 0.15844 0.0
C171 C 0.98584 0.47382 0.14176 0.0
C172 C 0.95113 0.4584 0.12297 0.0
C173 C 0.94295 0.41115 0.12009 0.0
C174 C 0.04697 0.45693 0.17909 0.0
C175 C 0.92441 0.49162 0.10468 0.0
C176 C 0.98507 0.60234 0.1556 0.0
C177 C 0.01715 0.61775 0.13557 0.0
C178 C 0.97612 0.5552 0.159 0.0
C179 C -0.00066 0.52305 0.14163 0.0
C180 C 0.03312 0.5384 0.12222 0.0
C181 C 0.04182 0.58557 0.11956 0.0
C182 C 0.94053 0.53999 0.1803 0.0
C183 C 0.05846 0.50518 0.10319 0.0
H184 H 0.0219 0.36971 0.16677 0.0
H185 H 0.91745 0.39934 0.10499 0.0
H186 H 0.07728 0.46981 0.16723 0.0
H187 H 0.03421 0.48565 0.19242 0.0
H188 H 0.05833 0.42846 0.19314 0.0
H189 H 0.8965 0.47434 0.09261 0.0
H190 H 0.90906 0.51915 0.11789 0.0
H191 H 0.94803 0.50838 0.08936 0.0
H192 H 0.96614 0.62715 0.16816 0.0
H193 H 0.06672 0.59733 0.10408 0.0
H194 H 0.95395 0.51127 0.19338 0.0
H195 H 0.90963 0.5271 0.16901 0.0
H196 H 0.9299 0.56847 0.19456 0.0
H197 H 0.07481 0.47769 0.11597 0.0
H198 H 0.08544 0.52244 0.09036 0.0
H199 H 0.03375 0.48835 0.08855 0.0
C200 C 0.41016 0.04749 0.8734 0.0
C201 C 0.3774 0.02102 0.85896 0.0
C202 C 0.4572 0.03855 0.87042 0.0
C203 C 0.47179 0.00267 0.85225 0.0
C204 C 0.43901 0.97767 0.83628 0.0
C205 C 0.39204 0.98691 0.84 0.0
C206 C 0.49109 0.06581 0.88797 0.0
C207 C 0.4534 0.93982 0.81626 0.0
C208 C 0.60006 0.00233 0.83802 0.0
C209 C 0.61549 0.9713 0.85868 0.0
C210 C 0.55294 0.011 0.83445 0.0
C211 C 0.52085 0.9887 0.85231 0.0
C212 C 0.5362 0.95584 0.87232 0.0
C213 C 0.58336 0.94729 0.8751 0.0
C214 C 0.53771 0.04547 0.81245 0.0
C215 C 0.50307 0.93157 0.89193 0.0
H216 H 0.39899 0.07398 0.88803 0.0
H217 H 0.36677 0.96662 0.82863 0.0
H218 H 0.50804 0.04275 0.90352 0.0
H219 H 0.51839 0.0804 0.87425 0.0
H220 H 0.47438 0.09439 0.89971 0.0
H221 H 0.42454 0.92815 0.8026 0.0
H222 H 0.48207 0.95154 0.80254 0.0
H223 H 0.46602 0.90993 0.82862 0.0
H224 H 0.62485 0.02068 0.82512 0.0
H225 H 0.59514 0.92321 0.89107 0.0
H226 H 0.52551 0.07719 0.82313 0.0
H227 H 0.50854 0.03163 0.79991 0.0
H228 H 0.566 0.0549 0.79775 0.0
H229 H 0.48673 0.95705 0.90625 0.0
H230 H 0.52028 0.90501 0.90511 0.0
H231 H 0.47523 0.91489 0.87958 0.0
C232 C 0.12912 0.0935 0.42382 0.0
C233 C 0.1766 0.09477 0.41881 0.0
C234 C 0.10937 0.12009 0.4454 0.0
C235 C 0.13783 0.14891 0.46207 0.0
C236 C 0.18489 0.15391 0.45511 0.0
C237 C 0.20383 0.12654 0.43359 0.0
C238 C 0.05897 0.11387 0.45207 0.0
C239 C 0.21612 0.18505 0.47201 0.0
C240 C 0.0789 0.2255 0.51635 0.0
C241 C 0.08141 0.19796 0.54071 0.0
C242 C 0.09824 0.21073 0.49062 0.0
C243 C 0.12016 0.16734 0.48933 0.0
C244 C 0.12368 0.13998 0.51407 0.0
C245 C 0.1044 0.15571 0.53946 0.0
C246 C 0.09414 0.2409 0.46472 0.0
C247 C 0.14669 0.09338 0.51359 0.0
H248 H 0.10781 0.06922 0.41232 0.0
H249 H 0.24051 0.12799 0.42959 0.0
H250 H 0.05537 0.09338 0.47179 0.0
H251 H 0.04219 0.14756 0.45579 0.0
H252 H 0.0404 0.09573 0.43478 0.0
H253 H 0.24915 0.19152 0.46088 0.0
H254 H 0.19919 0.21849 0.47634 0.0
H255 H 0.22383 0.16877 0.49274 0.0
H256 H 0.06113 0.25822 0.51725 0.0
H257 H 0.10645 0.13432 0.55823 0.0
H258 H 0.07089 0.22441 0.44908 0.0
H259 H 0.12814 0.245 0.45437 0.0
H260 H 0.08034 0.27551 0.4699 0.0
H261 H 0.12821 0.07021 0.49875 0.0
H262 H 0.14743 0.07691 0.53483 0.0
H263 H 0.18252 0.09671 0.50582 0.0
C264 C 0.15961 0.88478 0.45736 0.0
C265 C 0.20234 0.90688 0.45599 0.0
C266 C 0.1437 0.86574 0.48277 0.0
C267 C 0.17143 0.86845 0.50741 0.0
C268 C 0.21531 0.88936 0.50599 0.0
C269 C 0.2302 0.90862 0.48026 0.0
C270 C 0.09652 0.8439 0.48341 0.0
C271 C 0.24595 0.89244 0.53175 0.0
C272 C 0.09807 0.8608 0.57314 0.0
C273 C 0.098 0.81322 0.57793 0.0
C274 C 0.12506 0.88008 0.55158 0.0
C275 C 0.15289 0.85103 0.5347 0.0
C276 C 0.15665 0.80376 0.54148 0.0
C277 C 0.12892 0.78532 0.563 0.0
C278 C 0.12021 0.93072 0.54513 0.0
C279 C 0.18672 0.77188 0.52438 0.0
H280 H 0.13794 0.88338 0.43867 0.0
H281 H 0.26331 0.92566 0.47927 0.0
H282 H 0.099 0.80789 0.49102 0.0
H283 H 0.07409 0.86281 0.49844 0.0
H284 H 0.07973 0.8438 0.46226 0.0
H285 H 0.28082 0.90542 0.52644 0.0
H286 H 0.23033 0.91595 0.54756 0.0
H287 H 0.24928 0.85823 0.54196 0.0
H288 H 0.07447 0.88261 0.58477 0.0
H289 H 0.12936 0.74856 0.56683 0.0
H290 H 0.09956 0.93508 0.52552 0.0
H291 H 0.1543 0.94663 0.54131 0.0
H292 H 0.10285 0.9496 0.56258 0.0
H293 H 0.16995 0.76467 0.50372 0.0
H294 H 0.1925 0.73863 0.53542 0.0
H295 H 0.22051 0.78803 0.51991 0.0
C296 C 0.78959 0.86274 0.43166 0.0
C297 C 0.81759 0.89266 0.416 0.0
C298 C 0.80801 0.83594 0.45362 0.0
C299 C 0.8554 0.83949 0.46008 0.0
C300 C 0.88449 0.86625 0.44256 0.0
C301 C 0.86521 0.89243 0.42061 0.0
C302 C 0.77601 0.80713 0.47148 0.0
C303 C 0.93528 0.87076 0.44863 0.0
C304 C 0.88991 0.83444 0.53741 0.0
C305 C 0.9106 0.79107 0.53928 0.0
C306 C 0.87129 0.85015 0.51181 0.0
C307 C 0.87307 0.82161 0.48749 0.0
C308 C 0.89284 0.77726 0.48938 0.0
C309 C 0.91159 0.76254 0.5153 0.0
C310 C 0.85065 0.89781 0.51067 0.0
C311 C 0.89506 0.74585 0.46395 0.0
H312 H 0.75278 0.86246 0.42801 0.0
H313 H 0.88709 0.91526 0.40845 0.0
H314 H 0.79159 0.77321 0.47628 0.0
H315 H 0.76976 0.82481 0.49197 0.0
H316 H 0.74235 0.80157 0.46088 0.0
H317 H 0.95408 0.88701 0.43075 0.0
H318 H 0.94027 0.89231 0.46781 0.0
H319 H 0.95076 0.83665 0.453 0.0
H320 H 0.88913 0.85664 0.55587 0.0
H321 H 0.9276 0.72896 0.51666 0.0
H322 H 0.81449 0.89592 0.50327 0.0
H323 H 0.86985 0.9193 0.49525 0.0
H324 H 0.8513 0.91532 0.5316 0.0
H325 H 0.86047 0.74208 0.4543 0.0
H326 H 0.90833 0.71117 0.46946 0.0
H327 H 0.91783 0.76111 0.4476 0.0
C328 C 0.83775 0.10025 0.45568 0.0
C329 C 0.79453 0.07927 0.45359 0.0
C330 C 0.853 0.11905 0.48134 0.0
C331 C 0.82414 0.11712 0.50549 0.0
C332 C 0.77996 0.09701 0.50338 0.0
C333 C 0.7657 0.07812 0.47741 0.0
C334 C 0.90049 0.14008 0.48273 0.0
C335 C 0.74826 0.09459 0.52865 0.0
C336 C 0.89401 0.12592 0.5727 0.0
C337 C 0.89389 0.17359 0.57718 0.0
C338 C 0.86823 0.10628 0.55068 0.0
C339 C 0.8415 0.13507 0.53296 0.0
C340 C 0.83755 0.18249 0.53928 0.0
C341 C 0.86397 0.20126 0.56132 0.0
C342 C 0.87317 0.05547 0.54475 0.0
C343 C 0.80873 0.21415 0.52121 0.0
H344 H 0.86018 0.10116 0.43734 0.0
H345 H 0.73224 0.06187 0.47587 0.0
H346 H 0.89827 0.17628 0.49004 0.0
H347 H 0.92187 0.12111 0.4983 0.0
H348 H 0.91829 0.13948 0.4619 0.0
H349 H 0.71375 0.081 0.52297 0.0
H350 H 0.76345 0.07198 0.5451 0.0
H351 H 0.74412 0.12919 0.53824 0.0
H352 H 0.91686 0.10429 0.58502 0.0
H353 H 0.86341 0.2381 0.56488 0.0
H354 H 0.89504 0.05056 0.52572 0.0
H355 H 0.83925 0.03968 0.54018 0.0
H356 H 0.88926 0.03688 0.56277 0.0
H357 H 0.8266 0.22044 0.5008 0.0
H358 H 0.80281 0.24783 0.53171 0.0
H359 H 0.77499 0.19824 0.51627 0.0
C360 C 0.75846 0.0967 0.94644 0.0
C361 C 0.78752 0.08193 0.92455 0.0
C362 C 0.7751 0.12464 0.96839 0.0
C363 C 0.82185 0.1381 0.96834 0.0
C364 C 0.85017 0.12681 0.94494 0.0
C365 C 0.83262 0.09878 0.92326 0.0
C366 C 0.74369 0.13623 0.99283 0.0
C367 C 0.9001 0.14094 0.94397 0.0
C368 C 0.86608 0.22233 0.02376 0.0
C369 C 0.88487 0.19221 0.04389 0.0
C370 C 0.84504 0.20539 -0.00096 0.0
C371 C 0.84277 0.15732 0.99452 0.0
C372 C 0.86098 0.12684 0.01506 0.0
C373 C 0.88184 0.14467 0.03945 0.0
C374 C 0.82601 0.23882 0.97757 0.0
C375 C 0.859 0.07527 0.01113 0.0
H376 H 0.72341 0.08409 0.94741 0.0
H377 H 0.85515 0.0877 0.90629 0.0
H378 H 0.75298 0.11477 0.01141 0.0
H379 H 0.74771 0.17276 -0.00085 0.0
H380 H 0.707 0.12978 0.98759 0.0
H381 H 0.9153 0.1358 0.92261 0.0
H382 H 0.90412 0.17757 0.95007 0.0
H383 H 0.91993 0.12008 0.95942 0.0
H384 H 0.86851 0.25914 0.02709 0.0
H385 H 0.89629 0.12125 0.05495 0.0
H386 H 0.78935 0.23099 0.97322 0.0
H387 H 0.84482 0.23518 0.95725 0.0
H388 H 0.82881 0.27508 0.98479 0.0
H389 H 0.82282 0.064 0.00841 0.0
H390 H 0.87407 0.05636 0.02936 0.0
H391 H 0.87793 0.06538 0.99165 0.0
C392 C 0.22149 0.13339 0.96842 0.0
C393 C 0.19136 0.11393 0.94852 0.0
C394 C 0.20458 0.1551 0.9929 0.0
C395 C 0.15654 0.15727 -0.00258 0.0
C396 C 0.12604 0.13872 0.97698 0.0
C397 C 0.14385 0.11728 0.95281 0.0
C398 C 0.23802 0.17464 0.01421 0.0
C399 C 0.0745 0.14059 0.98092 0.0
C400 C 0.09846 0.16567 0.0688 0.0
C401 C 0.08084 0.21046 0.06769 0.0
C402 C 0.12664 0.14886 0.04701 0.0
C403 C 0.13737 0.17767 0.02374 0.0
C404 C 0.12324 0.22422 0.02392 0.0
C405 C 0.09505 0.24008 0.04594 0.0
C406 C 0.1414 0.0991 0.04771 0.0
C407 C 0.13438 0.25618 -0.00034 0.0
H408 H 0.25829 0.13076 0.96518 0.0
H409 H 0.12042 0.10239 0.93746 0.0
H410 H 0.22924 0.2109 0.01909 0.0
H411 H 0.23559 0.15506 0.03433 0.0
H412 H 0.27411 0.17318 0.00657 0.0
H413 H 0.05557 0.12561 0.96265 0.0
H414 H 0.06467 0.12147 0.00034 0.0
H415 H 0.0632 0.17674 0.98374 0.0
H416 H 0.08781 0.14273 0.08568 0.0
H417 H 0.08187 0.27493 0.04514 0.0
H418 H 0.17808 0.09572 0.04166 0.0
H419 H 0.12087 0.07922 0.0321 0.0
H420 H 0.13639 0.08346 0.06896 0.0
H421 H 0.17081 0.25247 0.99313 0.0
H422 H 0.12786 0.29273 0.00521 0.0
H423 H 0.11269 0.24715 0.98111 0.0
C424 C 0.10671 0.85392 0.0423 0.0
C425 C 0.10636 0.80652 0.04757 0.0
C426 C 0.12859 0.87194 0.01833 0.0
C427 C 0.15066 0.84177 -0.0009 0.0
C428 C 0.15109 0.79389 0.00449 0.0
C429 C 0.12888 0.77677 0.02875 0.0
C430 C 0.12755 0.9233 0.01342 0.0
C431 C 0.17435 0.76081 0.98445 0.0
C432 C 0.1639 0.89668 0.92696 0.0
C433 C 0.20772 0.91635 0.92938 0.0
C434 C 0.14603 0.86905 0.9487 0.0
C435 C 0.17271 0.86105 0.97333 0.0
C436 C 0.21843 0.87754 0.97473 0.0
C437 C 0.23541 0.90502 0.95268 0.0
C438 C 0.09725 0.85167 0.94632 0.0
C439 C 0.24808 0.86953 0.00053 0.0
H440 H 0.08937 0.87707 0.05679 0.0
H441 H 0.12856 0.74005 0.03273 0.0
H442 H 0.16311 0.93687 0.01179 0.0
H443 H 0.10995 0.93093 0.99309 0.0
H444 H 0.10952 0.94202 0.03067 0.0
H445 H 0.17307 0.72478 0.99224 0.0
H446 H 0.15749 0.76233 0.96337 0.0
H447 H 0.21082 0.77079 0.9814 0.0
H448 H 0.14245 0.90513 0.90889 0.0
H449 H 0.26949 0.91985 0.95455 0.0
H450 H 0.07478 0.87189 0.96066 0.0
H451 H 0.09503 0.81516 0.95298 0.0
H452 H 0.0837 0.85481 0.92438 0.0
H453 H 0.23551 0.89124 0.01825 0.0
H454 H 0.28469 0.87828 0.99652 0.0
H455 H 0.24594 0.83317 0.00751 0.0
C456 C 0.84905 0.88338 0.95397 0.0
C457 C 0.80161 0.88623 0.94919 0.0
C458 C 0.86645 0.86268 0.97851 0.0
C459 C 0.83563 0.84442 -0.00116 0.0
C460 C 0.78766 0.84651 0.99397 0.0
C461 C 0.77116 0.86742 0.96911 0.0
C462 C 0.91792 0.86091 0.98284 0.0
C463 C 0.75388 0.8274 0.0152 0.0
C464 C 0.8954 0.76034 0.04737 0.0
C465 C 0.90959 0.78945 0.0694 0.0
C466 C 0.8679 0.77687 0.0252 0.0
C467 C 0.85436 0.82359 0.02516 0.0
C468 C 0.86507 0.85197 0.04866 0.0
C469 C 0.89262 0.8345 0.07058 0.0
C470 C 0.85688 0.74539 0.00066 0.0
C471 C 0.85087 0.90188 0.04952 0.0
H472 H 0.87272 0.89785 0.93864 0.0
H473 H 0.73443 0.86972 0.96552 0.0
H474 H 0.92737 0.87988 0.0024 0.0
H475 H 0.92922 0.82476 0.98562 0.0
H476 H 0.93714 0.87606 0.96476 0.0
H477 H 0.71776 0.83009 0.00771 0.0
H478 H 0.76168 0.79075 0.0196 0.0
H479 H 0.75711 0.84625 0.03555 0.0
H480 H 0.90809 0.72531 0.04649 0.0
H481 H 0.90328 0.85707 0.08766 0.0
H482 H 0.87866 0.75477 0.98224 0.0
H483 H 0.82049 0.74927 0.99406 0.0
H484 H 0.86332 0.70872 0.00593 0.0
H485 H 0.87201 0.92176 0.03424 0.0
H486 H 0.85557 0.91714 0.07092 0.0
H487 H 0.81438 0.9058 0.04314 0.0
C488 C 0.04016 0.16939 0.71207 0.0
C489 C 0.06618 0.1754 0.68736 0.0
C490 C 0.05993 0.15021 0.73652 0.0
C491 C 0.10657 0.13629 0.73601 0.0
C492 C 0.13268 0.14153 0.71092 0.0
C493 C 0.11224 0.16129 0.68695 0.0
C494 C 0.0312 0.14552 0.763 0.0
C495 C 0.18237 0.12663 0.70946 0.0
C496 C 0.1744 0.12987 0.80451 0.0
C497 C 0.17456 0.08247 0.8099 0.0
C498 C 0.15168 0.14788 0.78078 0.0
C499 C 0.12875 0.11771 0.76194 0.0
C500 C 0.12849 0.06982 0.76737 0.0
C501 C 0.15139 0.05274 0.79136 0.0
C502 C 0.15259 0.19917 0.77573 0.0
C503 C 0.10452 0.03662 0.74766 0.0
H504 H 0.00453 0.18028 0.71243 0.0
H505 H 0.13237 0.16554 0.6678 0.0
H506 H 0.03086 0.1092 0.77018 0.0
H507 H 0.04656 0.16628 0.78033 0.0
H508 H 0.99517 0.15698 0.7597 0.0
H509 H 0.19732 0.13143 0.688 0.0
H510 H 0.20311 0.14668 0.72487 0.0
H511 H 0.18545 0.08984 0.71539 0.0
H512 H 0.1921 0.15302 0.81886 0.0
H513 H 0.15133 0.01607 0.7955 0.0
H514 H 0.117 0.21258 0.77399 0.0
H515 H 0.17017 0.2067 0.75539 0.0
H516 H 0.17059 0.21806 0.79295 0.0
H517 H 0.06781 0.04621 0.74537 0.0
H518 H 0.10652 0.00053 0.75529 0.0
H519 H 0.12024 0.03849 0.72627 0.0
C520 C 0.12919 0.82371 0.18951 0.0
C521 C 0.08145 0.81845 0.18696 0.0
C522 C 0.14855 0.84531 0.21324 0.0
C523 C 0.11947 0.86169 0.23505 0.0
C524 C 0.07121 0.85663 0.23257 0.0
C525 C 0.05273 0.83518 0.20844 0.0
C526 C 0.20015 0.85038 0.21506 0.0
C527 C 0.03919 0.8734 0.25552 0.0
C528 C 0.17279 0.87498 0.30793 0.0
C529 C 0.18062 0.92251 0.30922 0.0
C530 C 0.15235 0.85485 0.28405 0.0
C531 C 0.13978 0.88292 0.26081 0.0
C532 C 0.14759 0.93096 0.26196 0.0
C533 C 0.1678 0.95024 0.28625 0.0
C534 C 0.1443 0.80352 0.28366 0.0
C535 C 0.13493 0.96189 0.23747 0.0
H536 H 0.15153 0.81104 0.17287 0.0
H537 H 0.01581 0.83119 0.20653 0.0
H538 H 0.20947 0.88711 0.21785 0.0
H539 H 0.21331 0.83154 0.23383 0.0
H540 H 0.21783 0.83705 0.19588 0.0
H541 H 0.00247 0.86747 0.25015 0.0
H542 H 0.04697 0.8555 0.27573 0.0
H543 H 0.04448 0.91071 0.2592 0.0
H544 H 0.18244 0.85342 0.32571 0.0
H545 H 0.17378 0.98702 0.28719 0.0
H546 H 0.16371 0.7877 0.26593 0.0
H547 H 0.10734 0.79616 0.28001 0.0
H548 H 0.15502 0.78675 0.30375 0.0
H549 H 0.15383 0.95112 0.21816 0.0
H550 H 0.1429 -0.00141 0.24183 0.0
H551 H 0.0977 0.95871 0.23276 0.0
C552 C 0.87474 0.81823 0.68749 0.0
C553 C 0.9223 0.81067 0.68649 0.0
C554 C 0.85413 0.83816 0.71136 0.0
C555 C 0.88174 0.85049 0.73488 0.0
C556 C 0.92979 0.84288 0.73403 0.0
C557 C 0.94956 0.82317 0.70976 0.0
C558 C 0.80281 0.84601 0.71142 0.0
C559 C 0.96024 0.85531 0.75881 0.0
C560 C 0.83344 0.93733 0.78711 0.0
C561 C 0.81649 0.90853 0.80851 0.0
C562 C 0.85507 0.91893 0.76305 0.0
C563 C 0.86007 0.87066 0.76053 0.0
C564 C 0.84339 0.84149 0.78222 0.0
C565 C 0.82164 0.86078 0.80591 0.0
C566 C 0.87218 0.95107 0.74024 0.0
C567 C 0.84835 0.78987 0.78034 0.0
H568 H 0.85354 0.80879 0.66949 0.0
H569 H 0.98635 0.81738 0.70906 0.0
H570 H 0.78675 0.8265 0.72903 0.0
H571 H 0.79532 0.88295 0.71505 0.0
H572 H 0.78638 0.83528 0.69121 0.0
H573 H -0.00301 0.8473 0.75474 0.0
H574 H 0.9571 0.89253 0.76358 0.0
H575 H 0.94902 0.8363 0.77799 0.0
H576 H 0.82954 0.97427 0.78905 0.0
H577 H 0.80877 0.83839 0.82247 0.0
H578 H 0.85468 0.94326 0.71989 0.0
H579 H 0.90955 0.9459 0.73683 0.0
H580 H 0.8661 0.98777 0.74558 0.0
H581 H 0.82987 0.77683 0.76139 0.0
H582 H 0.83459 0.7721 0.79938 0.0
H583 H 0.88509 0.78053 0.77783 0.0
C584 C 0.82351 0.11465 0.30541 0.0
C585 C 0.81525 0.06716 0.30619 0.0
C586 C 0.84298 0.13542 0.28146 0.0
C587 C 0.85413 0.10808 0.25762 0.0
C588 C 0.84595 0.06007 0.25827 0.0
C589 C 0.8267 0.04012 0.28264 0.0
C590 C 0.85145 0.18669 0.28162 0.0
C591 C 0.85717 0.02991 0.23316 0.0
C592 C 0.8621 0.17024 0.18714 0.0
C593 C 0.90973 0.17548 0.184 0.0
C594 C 0.8436 0.1476 0.21076 0.0
C595 C 0.87348 0.13009 0.23183 0.0
C596 C 0.92164 0.13501 0.2287 0.0
C597 C 0.93923 0.15757 0.20474 0.0
C598 C 0.79206 0.14277 0.21329 0.0
C599 C 0.95452 0.11699 0.25084 0.0
H600 H 0.8149 0.13568 0.32363 0.0
H601 H 0.82038 0.00338 0.28318 0.0
H602 H 0.88829 0.19388 0.27744 0.0
H603 H 0.83137 0.20328 0.26444 0.0
H604 H 0.84181 0.20286 0.30211 0.0
H605 H 0.84913 0.99313 0.23717 0.0
H606 H 0.83742 0.04148 0.21434 0.0
H607 H 0.89418 0.03299 0.22781 0.0
H608 H 0.83916 0.18383 0.17108 0.0
H609 H 0.97609 0.1615 0.20236 0.0
H610 H 0.77983 0.16104 0.2325 0.0
H611 H 0.78262 0.10601 0.21573 0.0
H612 H 0.77369 0.15688 0.19457 0.0
H613 H 0.94792 0.13423 0.27142 0.0
H614 H 0.99105 0.12268 0.24492 0.0
H615 H 0.94894 0.07962 0.25408 0.0
loop_
_geom_bond_atom_site_label_1
_geom_bond_atom_site_label_2
_geom_bond_distance
_geom_bond_site_symmetry_2
_ccdc_geom_bond_type
In0 O1 2.294 . S
In0 O2 2.326 . S
In0 O6 2.266 . S
In0 O7 2.326 . S
In0 O8 2.266 . S
In0 O9 2.326 . S
In0 O11 2.294 . S
In0 O12 2.326 . S
O1 In0 2.294 . S
O1 C10 1.240 . S
O2 In0 2.326 . S
O2 C10 1.252 . S
C3 O6 1.252 . S
C3 O7 1.260 . S
C4 O11 1.240 . S
C4 O12 1.252 . S
C5 O8 1.252 . S
C5 O9 1.260 . S
O6 In0 2.266 . S
O6 C3 1.252 . S
O7 In0 2.326 . S
O7 C3 1.260 . S
O8 In0 2.266 . S
O8 C5 1.252 . S
O9 In0 2.326 . S
O9 C5 1.260 . S
C10 O1 1.240 . S
C10 O2 1.252 . S
O11 In0 2.294 . S
O11 C4 1.240 . S
O12 In0 2.326 . S
O12 C4 1.252 . S
In13 O14 2.294 . S
In13 O15 2.326 . S
In13 O19 2.266 . S
In13 O20 2.326 . S
In13 O21 2.266 . S
In13 O22 2.326 . S
In13 O24 2.294 . S
In13 O25 2.326 . S
O14 In13 2.294 . S
O14 C23 1.240 . S
O15 In13 2.326 . S
O15 C23 1.252 . S
C16 O19 1.252 . S
C16 O20 1.260 . S
C17 O24 1.240 . S
C17 O25 1.252 . S
C18 O21 1.252 . S
C18 O22 1.260 . S
O19 In13 2.266 . S
O19 C16 1.252 . S
O20 In13 2.326 . S
O20 C16 1.260 . S
O21 In13 2.266 . S
O21 C18 1.252 . S
O22 In13 2.326 . S
O22 C18 1.260 . S
C23 O14 1.240 . S
C23 O15 1.252 . S
O24 In13 2.294 . S
O24 C17 1.240 . S
O25 In13 2.326 . S
O25 C17 1.252 . S
In26 O27 2.294 . S
In26 O28 2.326 . S
In26 O32 2.266 . S
In26 O33 2.326 . S
In26 O34 2.266 . S
In26 O35 2.326 . S
In26 O37 2.294 . S
In26 O38 2.326 . S
O27 In26 2.294 . S
O27 C36 1.240 . S
O28 In26 2.326 . S
O28 C36 1.252 . S
C29 O32 1.252 . S
C29 O33 1.260 . S
C30 O37 1.240 . S
C30 O38 1.252 . S
C31 O34 1.252 . S
C31 O35 1.260 . S
O32 In26 2.266 . S
O32 C29 1.252 . S
O33 In26 2.326 . S
O33 C29 1.260 . S
O34 In26 2.266 . S
O34 C31 1.252 . S
O35 In26 2.326 . S
O35 C31 1.260 . S
C36 O27 1.240 . S
C36 O28 1.252 . S
O37 In26 2.294 . S
O37 C30 1.240 . S
O38 In26 2.326 . S
O38 C30 1.252 . S
In39 O40 2.294 . S
In39 O41 2.326 . S
In39 O45 2.266 . S
In39 O46 2.326 . S
In39 O47 2.266 . S
In39 O48 2.326 . S
In39 O50 2.294 . S
In39 O51 2.326 . S
O40 In39 2.294 . S
O40 C49 1.240 . S
O41 In39 2.326 . S
O41 C49 1.252 . S
C42 O45 1.252 . S
C42 O46 1.260 . S
C43 O50 1.240 . S
C43 O51 1.252 . S
C44 O47 1.252 . S
C44 O48 1.260 . S
O45 In39 2.266 . S
O45 C42 1.252 . S
O46 In39 2.326 . S
O46 C42 1.260 . S
O47 In39 2.266 . S
O47 C44 1.252 . S
O48 In39 2.326 . S
O48 C44 1.260 . S
C49 O40 1.240 . S
C49 O41 1.252 . S
O50 In39 2.294 . S
O50 C43 1.240 . S
O51 In39 2.326 . S
O51 C43 1.252 . S
In52 O53 2.294 . S
In52 O54 2.326 . S
In52 O58 2.266 . S
In52 O59 2.326 . S
In52 O60 2.266 . S
In52 O61 2.326 . S
In52 O63 2.294 . S
In52 O64 2.326 . S
O53 In52 2.294 . S
O53 C62 1.240 . S
O54 In52 2.326 . S
O54 C62 1.252 . S
C55 O58 1.252 . S
C55 O59 1.260 . S
C56 O63 1.240 . S
C56 O64 1.252 . S
C57 O60 1.252 . S
C57 O61 1.260 . S
O58 In52 2.266 . S
O58 C55 1.252 . S
O59 In52 2.326 . S
O59 C55 1.260 . S
O60 In52 2.266 . S
O60 C57 1.252 . S
O61 In52 2.326 . S
O61 C57 1.260 . S
C62 O53 1.240 . S
C62 O54 1.252 . S
O63 In52 2.294 . S
O63 C56 1.240 . S
O64 In52 2.326 . S
O64 C56 1.252 . S
In65 O66 2.294 . S
In65 O67 2.326 . S
In65 O71 2.266 . S
In65 O72 2.326 . S
In65 O73 2.266 . S
In65 O74 2.326 . S
In65 O76 2.294 . S
In65 O77 2.326 . S
O66 In65 2.294 . S
O66 C75 1.240 . S
O67 In65 2.326 . S
O67 C75 1.252 . S
C68 O71 1.252 . S
C68 O72 1.260 . S
C69 O76 1.240 . S
C69 O77 1.252 . S
C70 O73 1.252 . S
C70 O74 1.260 . S
O71 In65 2.266 . S
O71 C68 1.252 . S
O72 In65 2.326 . S
O72 C68 1.260 . S
O73 In65 2.266 . S
O73 C70 1.252 . S
O74 In65 2.326 . S
O74 C70 1.260 . S
C75 O66 1.240 . S
C75 O67 1.252 . S
O76 In65 2.294 . S
O76 C69 1.240 . S
O77 In65 2.326 . S
O77 C69 1.252 . S
In78 O79 2.294 . S
In78 O80 2.326 . S
In78 O84 2.266 . S
In78 O85 2.326 . S
In78 O86 2.266 . S
In78 O87 2.326 . S
In78 O89 2.294 . S
In78 O90 2.326 . S
O79 In78 2.294 . S
O79 C88 1.240 . S
O80 In78 2.326 . S
O80 C88 1.252 . S
C81 O84 1.252 . S
C81 O85 1.260 . S
C82 O89 1.240 . S
C82 O90 1.252 . S
C83 O86 1.252 . S
C83 O87 1.260 . S
O84 In78 2.266 . S
O84 C81 1.252 . S
O85 In78 2.326 . S
O85 C81 1.260 . S
O86 In78 2.266 . S
O86 C83 1.252 . S
O87 In78 2.326 . S
O87 C83 1.260 . S
C88 O79 1.240 . S
C88 O80 1.252 . S
O89 In78 2.294 . S
O89 C82 1.240 . S
O90 In78 2.326 . S
O90 C82 1.252 . S
In91 O92 2.294 . S
In91 O93 2.326 . S
In91 O97 2.266 . S
In91 O98 2.326 . S
In91 O99 2.266 . S
In91 O100 2.326 . S
In91 O102 2.294 . S
In91 O103 2.326 . S
O92 In91 2.294 . S
O92 C101 1.240 . S
O93 In91 2.326 . S
O93 C101 1.252 . S
C94 O97 1.252 . S
C94 O98 1.260 . S
C95 O102 1.240 . S
C95 O103 1.252 . S
C96 O99 1.252 . S
C96 O100 1.260 . S
O97 In91 2.266 . S
O97 C94 1.252 . S
O98 In91 2.326 . S
O98 C94 1.260 . S
O99 In91 2.266 . S
O99 C96 1.252 . S
O100 In91 2.326 . S
O100 C96 1.260 . S
C101 O92 1.240 . S
C101 O93 1.252 . S
O102 In91 2.294 . S
O102 C95 1.240 . S
O103 In91 2.326 . S
O103 C95 1.252 . S
C104 C105 1.391 . S
C104 C106 1.394 . S
C104 H120 0.931 . S
C105 C104 1.391 . S
C105 C109 1.376 . S
C106 C104 1.394 . S
C106 C107 1.369 . S
C106 C110 1.531 1_655 S
C107 C106 1.369 . S
C107 C108 1.410 . S
C107 C115 1.503 1_655 S
C108 C107 1.410 . S
C108 C109 1.392 . S
C108 C111 1.511 . S
C109 C105 1.376 . S
C109 C108 1.392 . S
C109 H121 0.929 . S
C110 C106 1.531 1_455 S
C110 H122 0.960 . S
C110 H123 0.962 . S
C110 H124 0.960 . S
C111 C108 1.511 . S
C111 H125 0.961 . S
C111 H126 0.961 . S
C111 H127 0.961 . S
C112 C113 1.370 . S
C112 C114 1.363 . S
C112 H128 0.931 . S
C113 C112 1.370 . S
C113 C117 1.408 . S
C114 C112 1.363 . S
C114 C115 1.370 . S
C114 C118 1.524 . S
C115 C107 1.503 1_455 S
C115 C114 1.370 . S
C115 C116 1.401 1_455 S
C116 C115 1.401 1_655 S
C116 C117 1.400 1_655 S
C116 C119 1.545 . S
C117 C113 1.408 . S
C117 C116 1.400 1_455 S
C117 H129 0.930 . S
C118 C114 1.524 . S
C118 H130 0.956 . S
C118 H131 0.961 . S
C118 H132 0.961 . S
C119 C116 1.545 . S
C119 H133 0.958 . S
C119 H134 0.961 . S
C119 H135 0.960 . S
H120 C104 0.931 . S
H121 C109 0.929 . S
H122 C110 0.960 . S
H123 C110 0.962 . S
H124 C110 0.960 . S
H125 C111 0.961 . S
H126 C111 0.961 . S
H127 C111 0.961 . S
H128 C112 0.931 . S
H129 C117 0.930 . S
H130 C118 0.956 . S
H131 C118 0.961 . S
H132 C118 0.961 . S
H133 C119 0.958 . S
H134 C119 0.961 . S
H135 C119 0.960 . S
C136 C137 1.391 . S
C136 C138 1.394 . S
C136 H152 0.931 . S
C137 C136 1.391 . S
C137 C141 1.376 . S
C138 C136 1.394 . S
C138 C139 1.369 . S
C138 C142 1.531 . S
C139 C138 1.369 . S
C139 C140 1.410 . S
C139 C147 1.503 1_545 S
C140 C139 1.410 . S
C140 C141 1.392 . S
C140 C143 1.511 1_545 S
C141 C137 1.376 . S
C141 C140 1.392 . S
C141 H153 0.929 . S
C142 C138 1.531 . S
C142 H154 0.960 . S
C142 H155 0.962 . S
C142 H156 0.960 . S
C143 C140 1.511 1_565 S
C143 H157 0.961 . S
C143 H158 0.961 . S
C143 H159 0.961 . S
C144 C145 1.370 . S
C144 C146 1.363 . S
C144 H160 0.931 . S
C145 C144 1.370 . S
C145 C149 1.408 . S
C146 C144 1.363 . S
C146 C147 1.370 . S
C146 C150 1.524 . S
C147 C139 1.503 1_565 S
C147 C146 1.370 . S
C147 C148 1.401 1_565 S
C148 C147 1.401 1_545 S
C148 C149 1.399 1_545 S
C148 C151 1.546 . S
C149 C145 1.408 . S
C149 C148 1.399 1_565 S
C149 H161 0.930 . S
C150 C146 1.524 . S
C150 H162 0.956 . S
C150 H163 0.961 . S
C150 H164 0.961 . S
C151 C148 1.546 . S
C151 H165 0.958 . S
C151 H166 0.961 . S
C151 H167 0.960 . S
H152 C136 0.931 . S
H153 C141 0.929 . S
H154 C142 0.960 . S
H155 C142 0.962 . S
H156 C142 0.960 . S
H157 C143 0.961 . S
H158 C143 0.961 . S
H159 C143 0.961 . S
H160 C144 0.931 . S
H161 C149 0.930 . S
H162 C150 0.956 . S
H163 C150 0.961 . S
H164 C150 0.961 . S
H165 C151 0.958 . S
H166 C151 0.961 . S
H167 C151 0.960 . S
C168 C169 1.391 . S
C168 C170 1.394 . S
C168 H184 0.931 . S
C169 C168 1.391 . S
C169 C173 1.376 . S
C170 C168 1.394 . S
C170 C171 1.369 . S
C170 C174 1.531 . S
C171 C170 1.369 . S
C171 C172 1.410 . S
C171 C179 1.503 1_655 S
C172 C171 1.410 . S
C172 C173 1.392 . S
C172 C175 1.511 1_655 S
C173 C169 1.376 . S
C173 C172 1.392 . S
C173 H185 0.929 . S
C174 C170 1.531 . S
C174 H186 0.960 1_655 S
C174 H187 0.962 . S
C174 H188 0.960 . S
C175 C172 1.511 1_455 S
C175 H189 0.961 1_455 S
C175 H190 0.961 . S
C175 H191 0.961 . S
C176 C177 1.370 . S
C176 C178 1.363 1_455 S
C176 H192 0.931 1_455 S
C177 C176 1.370 . S
C177 C181 1.408 . S
C178 C176 1.363 1_655 S
C178 C179 1.370 1_655 S
C178 C182 1.524 . S
C179 C171 1.503 1_455 S
C179 C178 1.370 1_455 S
C179 C180 1.403 . S
C180 C179 1.403 . S
C180 C181 1.404 . S
C180 C183 1.539 . S
C181 C177 1.408 . S
C181 C180 1.404 . S
C181 H193 0.930 . S
C182 C178 1.524 . S
C182 H194 0.956 . S
C182 H195 0.961 . S
C182 H196 0.961 . S
C183 C180 1.539 . S
C183 H197 0.958 . S
C183 H198 0.961 . S
C183 H199 0.960 . S
H184 C168 0.931 . S
H185 C173 0.929 . S
H186 C174 0.960 1_455 S
H187 C174 0.962 . S
H188 C174 0.960 . S
H189 C175 0.961 1_655 S
H190 C175 0.961 . S
H191 C175 0.961 . S
H192 C176 0.931 1_655 S
H193 C181 0.930 . S
H194 C182 0.956 . S
H195 C182 0.961 . S
H196 C182 0.961 . S
H197 C183 0.958 . S
H198 C183 0.961 . S
H199 C183 0.960 . S
C200 C201 1.391 . S
C200 C202 1.394 . S
C200 H216 0.931 . S
C201 C200 1.391 . S
C201 C205 1.376 . S
C202 C200 1.394 . S
C202 C203 1.369 . S
C202 C206 1.531 . S
C203 C202 1.369 . S
C203 C204 1.410 1_545 S
C203 C211 1.503 1_545 S
C204 C203 1.410 1_565 S
C204 C205 1.392 1_565 S
C204 C207 1.511 . S
C205 C201 1.376 . S
C205 C204 1.392 1_545 S
C205 H217 0.929 1_545 S
C206 C202 1.531 . S
C206 H218 0.960 . S
C206 H219 0.962 . S
C206 H220 0.960 . S
C207 C204 1.511 . S
C207 H221 0.961 . S
C207 H222 0.961 . S
C207 H223 0.961 . S
C208 C209 1.370 . S
C208 C210 1.363 . S
C208 H224 0.931 . S
C209 C208 1.370 . S
C209 C213 1.408 . S
C210 C208 1.363 . S
C210 C211 1.370 . S
C210 C214 1.524 1_565 S
C211 C203 1.503 1_565 S
C211 C210 1.370 . S
C211 C212 1.403 . S
C212 C211 1.403 . S
C212 C213 1.404 . S
C212 C215 1.539 . S
C213 C209 1.408 . S
C213 C212 1.404 . S
C213 H225 0.930 . S
C214 C210 1.524 1_545 S
C214 H226 0.956 . S
C214 H227 0.961 1_545 S
C214 H228 0.961 . S
C215 C212 1.539 . S
C215 H229 0.958 . S
C215 H230 0.961 . S
C215 H231 0.960 . S
H216 C200 0.931 . S
H217 C205 0.929 1_565 S
H218 C206 0.960 . S
H219 C206 0.962 . S
H220 C206 0.960 . S
H221 C207 0.961 . S
H222 C207 0.961 . S
H223 C207 0.961 . S
H224 C208 0.931 . S
H225 C213 0.930 . S
H226 C214 0.956 . S
H227 C214 0.961 1_565 S
H228 C214 0.961 . S
H229 C215 0.958 . S
H230 C215 0.961 . S
H231 C215 0.960 . S
C232 C233 1.391 . S
C232 C234 1.394 . S
C232 H248 0.931 1_545 S
C233 C232 1.391 . S
C233 C237 1.376 . S
C234 C232 1.394 . S
C234 C235 1.369 . S
C234 C238 1.531 . S
C235 C234 1.369 . S
C235 C236 1.410 . S
C235 C243 1.503 . S
C236 C235 1.410 . S
C236 C237 1.392 . S
C236 C239 1.511 . S
C237 C233 1.376 . S
C237 C236 1.392 . S
C237 H249 0.929 . S
C238 C234 1.531 . S
C238 H250 0.960 . S
C238 H251 0.962 . S
C238 H252 0.960 1_545 S
C239 C236 1.511 . S
C239 H253 0.961 . S
C239 H254 0.961 . S
C239 H255 0.961 . S
C240 C241 1.370 . S
C240 C242 1.363 . S
C240 H256 0.931 . S
C241 C240 1.370 . S
C241 C245 1.408 . S
C242 C240 1.363 . S
C242 C243 1.370 . S
C242 C246 1.524 . S
C243 C235 1.503 . S
C243 C242 1.370 . S
C243 C244 1.403 . S
C244 C243 1.403 . S
C244 C245 1.404 . S
C244 C247 1.539 . S
C245 C241 1.408 . S
C245 C244 1.404 . S
C245 H257 0.930 . S
C246 C242 1.524 . S
C246 H258 0.956 . S
C246 H259 0.961 . S
C246 H260 0.961 . S
C247 C244 1.539 . S
C247 H261 0.958 . S
C247 H262 0.961 . S
C247 H263 0.960 . S
H248 C232 0.931 1_565 S
H249 C237 0.929 . S
H250 C238 0.960 . S
H251 C238 0.962 . S
H252 C238 0.960 1_565 S
H253 C239 0.961 . S
H254 C239 0.961 . S
H255 C239 0.961 . S
H256 C240 0.931 . S
H257 C245 0.930 . S
H258 C246 0.956 . S
H259 C246 0.961 . S
H260 C246 0.961 . S
H261 C247 0.958 . S
H262 C247 0.961 . S
H263 C247 0.960 . S
C264 C265 1.391 . S
C264 C266 1.394 . S
C264 H280 0.931 . S
C265 C264 1.391 . S
C265 C269 1.376 . S
C266 C264 1.394 . S
C266 C267 1.369 . S
C266 C270 1.531 . S
C267 C266 1.369 . S
C267 C268 1.410 . S
C267 C275 1.503 . S
C268 C267 1.410 . S
C268 C269 1.392 . S
C268 C271 1.511 . S
C269 C265 1.376 . S
C269 C268 1.392 . S
C269 H281 0.929 . S
C270 C266 1.531 . S
C270 H282 0.960 . S
C270 H283 0.962 . S
C270 H284 0.960 . S
C271 C268 1.511 . S
C271 H285 0.961 . S
C271 H286 0.961 . S
C271 H287 0.961 . S
C272 C273 1.370 . S
C272 C274 1.363 . S
C272 H288 0.931 1_455 S
C273 C272 1.370 . S
C273 C277 1.408 . S
C274 C272 1.363 . S
C274 C275 1.370 . S
C274 C278 1.524 . S
C275 C267 1.503 . S
C275 C274 1.370 . S
C275 C276 1.403 . S
C276 C275 1.403 . S
C276 C277 1.404 . S
C276 C279 1.539 . S
C277 C273 1.408 . S
C277 C276 1.404 . S
C277 H289 0.930 . S
C278 C274 1.524 . S
C278 H290 0.956 . S
C278 H291 0.961 . S
C278 H292 0.961 1_455 S
C279 C276 1.539 . S
C279 H293 0.958 . S
C279 H294 0.961 . S
C279 H295 0.960 . S
H280 C264 0.931 . S
H281 C269 0.929 . S
H282 C270 0.960 . S
H283 C270 0.962 . S
H284 C270 0.960 . S
H285 C271 0.961 . S
H286 C271 0.961 . S
H287 C271 0.961 . S
H288 C272 0.931 1_655 S
H289 C277 0.930 . S
H290 C278 0.956 . S
H291 C278 0.961 . S
H292 C278 0.961 1_655 S
H293 C279 0.958 . S
H294 C279 0.961 . S
H295 C279 0.960 . S
C296 C297 1.391 . S
C296 C298 1.394 . S
C296 H312 0.931 . S
C297 C296 1.391 . S
C297 C301 1.376 . S
C298 C296 1.394 . S
C298 C299 1.369 . S
C298 C302 1.531 . S
C299 C298 1.369 . S
C299 C300 1.410 . S
C299 C307 1.503 . S
C300 C299 1.410 . S
C300 C301 1.392 . S
C300 C303 1.511 . S
C301 C297 1.376 . S
C301 C300 1.392 . S
C301 H313 0.929 1_565 S
C302 C298 1.531 . S
C302 H314 0.960 . S
C302 H315 0.962 . S
C302 H316 0.960 . S
C303 C300 1.511 . S
C303 H317 0.961 . S
C303 H318 0.961 . S
C303 H319 0.961 . S
C304 C305 1.370 . S
C304 C306 1.363 . S
C304 H320 0.931 . S
C305 C304 1.370 . S
C305 C309 1.408 . S
C306 C304 1.363 . S
C306 C307 1.370 . S
C306 C310 1.524 . S
C307 C299 1.503 . S
C307 C306 1.370 . S
C307 C308 1.403 . S
C308 C307 1.403 . S
C308 C309 1.404 . S
C308 C311 1.539 . S
C309 C305 1.408 . S
C309 C308 1.404 . S
C309 H321 0.930 . S
C310 C306 1.524 . S
C310 H322 0.956 . S
C310 H323 0.961 . S
C310 H324 0.961 . S
C311 C308 1.539 . S
C311 H325 0.958 . S
C311 H326 0.961 . S
C311 H327 0.960 . S
H312 C296 0.931 . S
H313 C301 0.929 1_545 S
H314 C302 0.960 . S
H315 C302 0.962 . S
H316 C302 0.960 . S
H317 C303 0.961 . S
H318 C303 0.961 . S
H319 C303 0.961 . S
H320 C304 0.931 . S
H321 C309 0.930 . S
H322 C310 0.956 . S
H323 C310 0.961 . S
H324 C310 0.961 . S
H325 C311 0.958 . S
H326 C311 0.961 . S
H327 C311 0.960 . S
C328 C329 1.391 . S
C328 C330 1.394 . S
C328 H344 0.931 . S
C329 C328 1.391 . S
C329 C333 1.376 . S
C330 C328 1.394 . S
C330 C331 1.369 . S
C330 C334 1.531 . S
C331 C330 1.369 . S
C331 C332 1.410 . S
C331 C339 1.503 . S
C332 C331 1.410 . S
C332 C333 1.392 . S
C332 C335 1.511 . S
C333 C329 1.376 . S
C333 C332 1.392 . S
C333 H345 0.929 . S
C334 C330 1.531 . S
C334 H346 0.960 . S
C334 H347 0.962 . S
C334 H348 0.960 . S
C335 C332 1.511 . S
C335 H349 0.961 . S
C335 H350 0.961 . S
C335 H351 0.961 . S
C336 C337 1.370 . S
C336 C338 1.363 . S
C336 H352 0.931 1_655 S
C337 C336 1.370 . S
C337 C341 1.408 . S
C338 C336 1.363 . S
C338 C339 1.370 . S
C338 C342 1.524 . S
C339 C331 1.503 . S
C339 C338 1.370 . S
C339 C340 1.403 . S
C340 C339 1.403 . S
C340 C341 1.404 . S
C340 C343 1.539 . S
C341 C337 1.408 . S
C341 C340 1.404 . S
C341 H353 0.930 . S
C342 C338 1.524 . S
C342 H354 0.956 . S
C342 H355 0.961 . S
C342 H356 0.961 1_655 S
C343 C340 1.539 . S
C343 H357 0.958 . S
C343 H358 0.961 . S
C343 H359 0.960 . S
H344 C328 0.931 . S
H345 C333 0.929 . S
H346 C334 0.960 . S
H347 C334 0.962 . S
H348 C334 0.960 . S
H349 C335 0.961 . S
H350 C335 0.961 . S
H351 C335 0.961 . S
H352 C336 0.931 1_455 S
H353 C341 0.930 . S
H354 C342 0.956 . S
H355 C342 0.961 . S
H356 C342 0.961 1_455 S
H357 C343 0.958 . S
H358 C343 0.961 . S
H359 C343 0.960 . S
C360 C361 1.391 1_565 S
C360 C362 1.394 1_565 S
C360 H376 0.931 . S
C361 C360 1.391 1_545 S
C361 C365 1.376 . S
C362 C360 1.394 1_545 S
C362 C363 1.369 . S
C362 C366 1.531 1_556 S
C363 C362 1.369 . S
C363 C364 1.410 . S
C363 C371 1.503 1_556 S
C364 C363 1.410 . S
C364 C365 1.392 . S
C364 C367 1.511 . S
C365 C361 1.376 . S
C365 C364 1.392 . S
C365 H377 0.929 . S
C366 C362 1.531 1_554 S
C366 H378 0.960 . S
C366 H379 0.962 . S
C366 H380 0.960 1_545 S
C367 C364 1.511 . S
C367 H381 0.961 . S
C367 H382 0.961 . S
C367 H383 0.961 . S
C368 C369 1.370 . S
C368 C370 1.363 . S
C368 H384 0.931 . S
C369 C368 1.370 . S
C369 C373 1.408 . S
C370 C368 1.363 . S
C370 C371 1.370 . S
C370 C374 1.524 . S
C371 C363 1.503 1_554 S
C371 C370 1.370 . S
C371 C372 1.403 . S
C372 C371 1.403 . S
C372 C373 1.404 . S
C372 C375 1.539 . S
C373 C369 1.408 . S
C373 C372 1.404 . S
C373 H385 0.930 . S
C374 C370 1.524 . S
C374 H386 0.956 . S
C374 H387 0.961 1_554 S
C374 H388 0.961 . S
C375 C372 1.539 . S
C375 H389 0.958 . S
C375 H390 0.961 . S
C375 H391 0.960 1_554 S
H376 C360 0.931 . S
H377 C365 0.929 . S
H378 C366 0.960 . S
H379 C366 0.962 . S
H380 C366 0.960 1_565 S
H381 C367 0.961 . S
H382 C367 0.961 . S
H383 C367 0.961 . S
H384 C368 0.931 . S
H385 C373 0.930 . S
H386 C374 0.956 . S
H387 C374 0.961 1_556 S
H388 C374 0.961 . S
H389 C375 0.958 . S
H390 C375 0.961 . S
H391 C375 0.960 1_556 S
C392 C393 1.391 . S
C392 C394 1.394 . S
C392 H408 0.931 . S
C393 C392 1.391 . S
C393 C397 1.376 . S
C394 C392 1.394 . S
C394 C395 1.369 . S
C394 C398 1.531 1_556 S
C395 C394 1.369 . S
C395 C396 1.410 . S
C395 C403 1.503 1_556 S
C396 C395 1.410 . S
C396 C397 1.392 . S
C396 C399 1.511 . S
C397 C393 1.376 . S
C397 C396 1.392 . S
C397 H409 0.929 . S
C398 C394 1.531 1_554 S
C398 H410 0.960 . S
C398 H411 0.962 . S
C398 H412 0.960 . S
C399 C396 1.511 . S
C399 H413 0.961 . S
C399 H414 0.961 . S
C399 H415 0.961 . S
C400 C401 1.370 . S
C400 C402 1.363 . S
C400 H416 0.931 . S
C401 C400 1.370 . S
C401 C405 1.408 . S
C402 C400 1.363 . S
C402 C403 1.370 . S
C402 C406 1.524 . S
C403 C395 1.503 1_554 S
C403 C402 1.370 . S
C403 C404 1.403 . S
C404 C403 1.403 . S
C404 C405 1.404 . S
C404 C407 1.539 1_554 S
C405 C401 1.408 . S
C405 C404 1.404 . S
C405 H417 0.930 . S
C406 C402 1.524 . S
C406 H418 0.956 . S
C406 H419 0.961 . S
C406 H420 0.961 . S
C407 C404 1.539 1_556 S
C407 H421 0.958 . S
C407 H422 0.961 . S
C407 H423 0.960 . S
H408 C392 0.931 . S
H409 C397 0.929 . S
H410 C398 0.960 . S
H411 C398 0.962 . S
H412 C398 0.960 . S
H413 C399 0.961 . S
H414 C399 0.961 . S
H415 C399 0.961 . S
H416 C400 0.931 . S
H417 C405 0.930 . S
H418 C406 0.956 . S
H419 C406 0.961 . S
H420 C406 0.961 . S
H421 C407 0.958 . S
H422 C407 0.961 . S
H423 C407 0.960 . S
C424 C425 1.391 . S
C424 C426 1.394 . S
C424 H440 0.931 . S
C425 C424 1.391 . S
C425 C429 1.376 . S
C426 C424 1.394 . S
C426 C427 1.369 . S
C426 C430 1.531 . S
C427 C426 1.369 . S
C427 C428 1.410 . S
C427 C435 1.503 1_554 S
C428 C427 1.410 . S
C428 C429 1.392 . S
C428 C431 1.511 1_554 S
C429 C425 1.376 . S
C429 C428 1.392 . S
C429 H441 0.929 . S
C430 C426 1.531 . S
C430 H442 0.960 . S
C430 H443 0.962 . S
C430 H444 0.960 . S
C431 C428 1.511 1_556 S
C431 H445 0.961 . S
C431 H446 0.961 . S
C431 H447 0.961 . S
C432 C433 1.370 . S
C432 C434 1.363 . S
C432 H448 0.931 1_565 S
C433 C432 1.370 . S
C433 C437 1.408 . S
C434 C432 1.363 . S
C434 C435 1.370 . S
C434 C438 1.524 . S
C435 C427 1.503 1_556 S
C435 C434 1.370 . S
C435 C436 1.403 . S
C436 C435 1.403 . S
C436 C437 1.404 . S
C436 C439 1.539 . S
C437 C433 1.408 . S
C437 C436 1.404 . S
C437 H449 0.930 . S
C438 C434 1.524 . S
C438 H450 0.956 1_556 S
C438 H451 0.961 . S
C438 H452 0.961 . S
C439 C436 1.539 . S
C439 H453 0.958 . S
C439 H454 0.961 . S
C439 H455 0.960 . S
H440 C424 0.931 . S
H441 C429 0.929 . S
H442 C430 0.960 . S
H443 C430 0.962 . S
H444 C430 0.960 . S
H445 C431 0.961 . S
H446 C431 0.961 . S
H447 C431 0.961 . S
H448 C432 0.931 1_545 S
H449 C437 0.930 . S
H450 C438 0.956 1_554 S
H451 C438 0.961 . S
H452 C438 0.961 . S
H453 C439 0.958 . S
H454 C439 0.961 . S
H455 C439 0.960 . S
C456 C457 1.391 . S
C456 C458 1.394 . S
C456 H472 0.931 . S
C457 C456 1.391 . S
C457 C461 1.376 . S
C458 C456 1.394 . S
C458 C459 1.369 . S
C458 C462 1.531 1_556 S
C459 C458 1.369 . S
C459 C460 1.410 . S
C459 C467 1.503 1_556 S
C460 C459 1.410 . S
C460 C461 1.392 . S
C460 C463 1.511 . S
C461 C457 1.376 . S
C461 C460 1.392 . S
C461 H473 0.929 . S
C462 C458 1.531 1_554 S
C462 H474 0.960 . S
C462 H475 0.962 . S
C462 H476 0.960 . S
C463 C460 1.511 . S
C463 H477 0.961 . S
C463 H478 0.961 . S
C463 H479 0.961 . S
C464 C465 1.370 . S
C464 C466 1.363 . S
C464 H480 0.931 1_655 S
C465 C464 1.370 . S
C465 C469 1.408 . S
C466 C464 1.363 . S
C466 C467 1.370 . S
C466 C470 1.524 1_554 S
C467 C459 1.503 1_554 S
C467 C466 1.370 . S
C467 C468 1.403 . S
C468 C467 1.403 . S
C468 C469 1.404 . S
C468 C471 1.539 . S
C469 C465 1.408 . S
C469 C468 1.404 . S
C469 H481 0.930 . S
C470 C466 1.524 1_556 S
C470 H482 0.956 . S
C470 H483 0.961 . S
C470 H484 0.961 1_655 S
C471 C468 1.539 . S
C471 H485 0.958 . S
C471 H486 0.961 . S
C471 H487 0.960 . S
H472 C456 0.931 . S
H473 C461 0.929 . S
H474 C462 0.960 . S
H475 C462 0.962 . S
H476 C462 0.960 . S
H477 C463 0.961 . S
H478 C463 0.961 . S
H479 C463 0.961 . S
H480 C464 0.931 1_455 S
H481 C469 0.930 . S
H482 C470 0.956 . S
H483 C470 0.961 . S
H484 C470 0.961 1_455 S
H485 C471 0.958 . S
H486 C471 0.961 . S
H487 C471 0.960 . S
C488 C489 1.391 . S
C488 C490 1.394 . S
C488 H504 0.931 . S
C489 C488 1.391 . S
C489 C493 1.376 . S
C490 C488 1.394 . S
C490 C491 1.369 . S
C490 C494 1.531 . S
C491 C490 1.369 . S
C491 C492 1.410 . S
C491 C499 1.503 . S
C492 C491 1.410 . S
C492 C493 1.392 . S
C492 C495 1.511 . S
C493 C489 1.376 . S
C493 C492 1.392 . S
C493 H505 0.929 . S
C494 C490 1.531 . S
C494 H506 0.960 . S
C494 H507 0.962 . S
C494 H508 0.960 . S
C495 C492 1.511 . S
C495 H509 0.961 . S
C495 H510 0.961 . S
C495 H511 0.961 . S
C496 C497 1.370 . S
C496 C498 1.363 . S
C496 H512 0.931 . S
C497 C496 1.370 . S
C497 C501 1.408 . S
C498 C496 1.363 . S
C498 C499 1.370 . S
C498 C502 1.524 . S
C499 C491 1.503 . S
C499 C498 1.370 . S
C499 C500 1.403 . S
C500 C499 1.403 . S
C500 C501 1.404 . S
C500 C503 1.539 . S
C501 C497 1.408 . S
C501 C500 1.404 . S
C501 H513 0.930 . S
C502 C498 1.524 . S
C502 H514 0.956 . S
C502 H515 0.961 . S
C502 H516 0.961 . S
C503 C500 1.539 . S
C503 H517 0.958 . S
C503 H518 0.961 . S
C503 H519 0.960 . S
H504 C488 0.931 . S
H505 C493 0.929 . S
H506 C494 0.960 . S
H507 C494 0.962 . S
H508 C494 0.960 . S
H509 C495 0.961 . S
H510 C495 0.961 . S
H511 C495 0.961 . S
H512 C496 0.931 . S
H513 C501 0.930 . S
H514 C502 0.956 . S
H515 C502 0.961 . S
H516 C502 0.961 . S
H517 C503 0.958 . S
H518 C503 0.961 . S
H519 C503 0.960 . S
C520 C521 1.391 . S
C520 C522 1.394 . S
C520 H536 0.931 . S
C521 C520 1.391 . S
C521 C525 1.376 . S
C522 C520 1.394 . S
C522 C523 1.369 . S
C522 C526 1.531 . S
C523 C522 1.369 . S
C523 C524 1.410 . S
C523 C531 1.503 . S
C524 C523 1.410 . S
C524 C525 1.392 . S
C524 C527 1.511 . S
C525 C521 1.376 . S
C525 C524 1.392 . S
C525 H537 0.929 . S
C526 C522 1.531 . S
C526 H538 0.960 . S
C526 H539 0.962 . S
C526 H540 0.960 . S
C527 C524 1.511 . S
C527 H541 0.961 . S
C527 H542 0.961 . S
C527 H543 0.961 . S
C528 C529 1.370 . S
C528 C530 1.363 . S
C528 H544 0.931 . S
C529 C528 1.370 . S
C529 C533 1.408 . S
C530 C528 1.363 . S
C530 C531 1.370 . S
C530 C534 1.524 . S
C531 C523 1.503 . S
C531 C530 1.370 . S
C531 C532 1.403 . S
C532 C531 1.403 . S
C532 C533 1.404 . S
C532 C535 1.539 . S
C533 C529 1.408 . S
C533 C532 1.404 . S
C533 H545 0.930 . S
C534 C530 1.524 . S
C534 H546 0.956 . S
C534 H547 0.961 . S
C534 H548 0.961 . S
C535 C532 1.539 . S
C535 H549 0.958 . S
C535 H550 0.961 . S
C535 H551 0.960 . S
H536 C520 0.931 . S
H537 C525 0.929 . S
H538 C526 0.960 . S
H539 C526 0.962 . S
H540 C526 0.960 . S
H541 C527 0.961 . S
H542 C527 0.961 . S
H543 C527 0.961 . S
H544 C528 0.931 . S
H545 C533 0.930 . S
H546 C534 0.956 . S
H547 C534 0.961 . S
H548 C534 0.961 . S
H549 C535 0.958 . S
H550 C535 0.961 . S
H551 C535 0.960 . S
C552 C553 1.391 . S
C552 C554 1.394 . S
C552 H568 0.931 . S
C553 C552 1.391 . S
C553 C557 1.376 . S
C554 C552 1.394 . S
C554 C555 1.369 . S
C554 C558 1.531 . S
C555 C554 1.369 . S
C555 C556 1.410 . S
C555 C563 1.503 . S
C556 C555 1.410 . S
C556 C557 1.392 . S
C556 C559 1.511 . S
C557 C553 1.376 . S
C557 C556 1.392 . S
C557 H569 0.929 . S
C558 C554 1.531 . S
C558 H570 0.960 . S
C558 H571 0.962 . S
C558 H572 0.960 . S
C559 C556 1.511 . S
C559 H573 0.961 . S
C559 H574 0.961 . S
C559 H575 0.961 . S
C560 C561 1.370 . S
C560 C562 1.363 . S
C560 H576 0.931 . S
C561 C560 1.370 . S
C561 C565 1.408 . S
C562 C560 1.363 . S
C562 C563 1.370 . S
C562 C566 1.524 . S
C563 C555 1.503 . S
C563 C562 1.370 . S
C563 C564 1.403 . S
C564 C563 1.403 . S
C564 C565 1.404 . S
C564 C567 1.539 . S
C565 C561 1.408 . S
C565 C564 1.404 . S
C565 H577 0.930 . S
C566 C562 1.524 . S
C566 H578 0.956 . S
C566 H579 0.961 . S
C566 H580 0.961 . S
C567 C564 1.539 . S
C567 H581 0.958 . S
C567 H582 0.961 . S
C567 H583 0.960 . S
H568 C552 0.931 . S
H569 C557 0.929 . S
H570 C558 0.960 . S
H571 C558 0.962 . S
H572 C558 0.960 . S
H573 C559 0.961 . S
H574 C559 0.961 . S
H575 C559 0.961 . S
H576 C560 0.931 . S
H577 C565 0.930 . S
H578 C566 0.956 . S
H579 C566 0.961 . S
H580 C566 0.961 . S
H581 C567 0.958 . S
H582 C567 0.961 . S
H583 C567 0.960 . S
C584 C585 1.391 . S
C584 C586 1.394 . S
C584 H600 0.931 . S
C585 C584 1.391 . S
C585 C589 1.376 . S
C586 C584 1.394 . S
C586 C587 1.369 . S
C586 C590 1.531 . S
C587 C586 1.369 . S
C587 C588 1.410 . S
C587 C595 1.503 . S
C588 C587 1.410 . S
C588 C589 1.392 . S
C588 C591 1.511 . S
C589 C585 1.376 . S
C589 C588 1.392 . S
C589 H601 0.929 . S
C590 C586 1.531 . S
C590 H602 0.960 . S
C590 H603 0.962 . S
C590 H604 0.960 . S
C591 C588 1.511 . S
C591 H605 0.961 . S
C591 H606 0.961 . S
C591 H607 0.961 . S
C592 C593 1.370 . S
C592 C594 1.363 . S
C592 H608 0.931 . S
C593 C592 1.370 . S
C593 C597 1.408 . S
C594 C592 1.363 . S
C594 C595 1.370 . S
C594 C598 1.524 . S
C595 C587 1.503 . S
C595 C594 1.370 . S
C595 C596 1.403 . S
C596 C595 1.403 . S
C596 C597 1.404 . S
C596 C599 1.539 . S
C597 C593 1.408 . S
C597 C596 1.404 . S
C597 H609 0.930 . S
C598 C594 1.524 . S
C598 H610 0.956 . S
C598 H611 0.961 . S
C598 H612 0.961 . S
C599 C596 1.539 . S
C599 H613 0.958 . S
C599 H614 0.961 . S
C599 H615 0.960 . S
H600 C584 0.931 . S
H601 C589 0.929 . S
H602 C590 0.960 . S
H603 C590 0.962 . S
H604 C590 0.960 . S
H605 C591 0.961 . S
H606 C591 0.961 . S
H607 C591 0.961 . S
H608 C592 0.931 . S
H609 C597 0.930 . S
H610 C598 0.956 . S
H611 C598 0.961 . S
H612 C598 0.961 . S
H613 C599 0.958 . S
H614 C599 0.961 . S
H615 C599 0.960 . S
C105 C36 1.607 . S
C113 C10 1.587 . S
C137 C49 1.606 . S
C145 C23 1.591 . S
C169 C56 1.569 . S
C177 C88 1.601 . S
C201 C75 1.575 . S
C209 C95 1.593 . S
C233 C18 1.098 1_545 S
C241 C3 1.112 . S
C265 C16 1.121 . S
C273 C31 1.124 1_455 S
C297 C44 1.135 1_565 S
C305 C29 1.094 . S
C329 C42 1.112 . S
C337 C5 1.126 1_655 S
C361 C94 1.124 1_545 S
C369 C57 1.089 . S
C393 C68 1.131 . S
C401 C55 1.113 1_455 S
C425 C81 1.132 . S
C433 C70 1.120 1_565 S
C457 C96 1.111 . S
C465 C83 1.125 1_655 S
C489 C4 1.721 . S
C497 C69 1.713 . S
C521 C82 1.703 . S
C529 C17 1.718 . S
C553 C30 1.714 . S
C561 C101 1.720 . S
C585 C43 1.703 . S
C593 C62 1.722 . S
