# Generated by pormake.
# Topology lta, (4)-cn, num edge types: 1
# Building blocks:
#     Node 0, Type 0, BuildingBlock: CEKHIL_clean_sbu_0, # of connection points: 4
#     Node 1, Type 0, BuildingBlock: CEKHIL_clean_sbu_0, # of connection points: 4
#     Node 2, Type 0, BuildingBlock: CEKHIL_clean_sbu_0, # of connection points: 4
#     Node 3, Type 0, BuildingBlock: CEKHIL_clean_sbu_0, # of connection points: 4
#     Node 4, Type 0, BuildingBlock: CEKHIL_clean_sbu_0, # of connection points: 4
#     Node 5, Type 0, BuildingBlock: CEKHIL_clean_sbu_0, # of connection points: 4
#     Node 6, Type 0, BuildingBlock: CEKHIL_clean_sbu_0, # of connection points: 4
#     Node 7, Type 0, BuildingBlock: CEKHIL_clean_sbu_0, # of connection points: 4
#     Node 8, Type 0, BuildingBlock: CEKHIL_clean_sbu_0, # of connection points: 4
#     Node 9, Type 0, BuildingBlock: CEKHIL_clean_sbu_0, # of connection points: 4
#     Node 10, Type 0, BuildingBlock: CEKHIL_clean_sbu_0, # of connection points: 4
#     Node 11, Type 0, BuildingBlock: CEKHIL_clean_sbu_0, # of connection points: 4
#     Node 12, Type 0, BuildingBlock: CEKHIL_clean_sbu_0, # of connection points: 4
#     Node 13, Type 0, BuildingBlock: CEKHIL_clean_sbu_0, # of connection points: 4
#     Node 14, Type 0, BuildingBlock: CEKHIL_clean_sbu_0, # of connection points: 4
#     Node 15, Type 0, BuildingBlock: CEKHIL_clean_sbu_0, # of connection points: 4
#     Node 16, Type 0, BuildingBlock: CEKHIL_clean_sbu_0, # of connection points: 4
#     Node 17, Type 0, BuildingBlock: CEKHIL_clean_sbu_0, # of connection points: 4
#     Node 18, Type 0, BuildingBlock: CEKHIL_clean_sbu_0, # of connection points: 4
#     Node 19, Type 0, BuildingBlock: CEKHIL_clean_sbu_0, # of connection points: 4
#     Node 20, Type 0, BuildingBlock: CEKHIL_clean_sbu_0, # of connection points: 4
#     Node 21, Type 0, BuildingBlock: CEKHIL_clean_sbu_0, # of connection points: 4
#     Node 22, Type 0, BuildingBlock: CEKHIL_clean_sbu_0, # of connection points: 4
#     Node 23, Type 0, BuildingBlock: CEKHIL_clean_sbu_0, # of connection points: 4
#     Edge 24, Type (0, 0), BuildingBlock: XIVTED_clean_linker_0, # of connection points: 2
#     Edge 25, Type (0, 0), BuildingBlock: XIVTED_clean_linker_0, # of connection points: 2
#     Edge 26, Type (0, 0), BuildingBlock: XIVTED_clean_linker_0, # of connection points: 2
#     Edge 27, Type (0, 0), BuildingBlock: XIVTED_clean_linker_0, # of connection points: 2
#     Edge 28, Type (0, 0), BuildingBlock: XIVTED_clean_linker_0, # of connection points: 2
#     Edge 29, Type (0, 0), BuildingBlock: XIVTED_clean_linker_0, # of connection points: 2
#     Edge 30, Type (0, 0), BuildingBlock: XIVTED_clean_linker_0, # of connection points: 2
#     Edge 31, Type (0, 0), BuildingBlock: XIVTED_clean_linker_0, # of connection points: 2
#     Edge 32, Type (0, 0), BuildingBlock: XIVTED_clean_linker_0, # of connection points: 2
#     Edge 33, Type (0, 0), BuildingBlock: XIVTED_clean_linker_0, # of connection points: 2
#     Edge 34, Type (0, 0), BuildingBlock: XIVTED_clean_linker_0, # of connection points: 2
#     Edge 35, Type (0, 0), BuildingBlock: XIVTED_clean_linker_0, # of connection points: 2
#     Edge 36, Type (0, 0), BuildingBlock: XIVTED_clean_linker_0, # of connection points: 2
#     Edge 37, Type (0, 0), BuildingBlock: XIVTED_clean_linker_0, # of connection points: 2
#     Edge 38, Type (0, 0), BuildingBlock: XIVTED_clean_linker_0, # of connection points: 2
#     Edge 39, Type (0, 0), BuildingBlock: XIVTED_clean_linker_0, # of connection points: 2
#     Edge 40, Type (0, 0), BuildingBlock: XIVTED_clean_linker_0, # of connection points: 2
#     Edge 41, Type (0, 0), BuildingBlock: XIVTED_clean_linker_0, # of connection points: 2
#     Edge 42, Type (0, 0), BuildingBlock: XIVTED_clean_linker_0, # of connection points: 2
#     Edge 43, Type (0, 0), BuildingBlock: XIVTED_clean_linker_0, # of connection points: 2
#     Edge 44, Type (0, 0), BuildingBlock: XIVTED_clean_linker_0, # of connection points: 2
#     Edge 45, Type (0, 0), BuildingBlock: XIVTED_clean_linker_0, # of connection points: 2
#     Edge 46, Type (0, 0), BuildingBlock: XIVTED_clean_linker_0, # of connection points: 2
#     Edge 47, Type (0, 0), BuildingBlock: XIVTED_clean_linker_0, # of connection points: 2
#     Edge 48, Type (0, 0), BuildingBlock: XIVTED_clean_linker_0, # of connection points: 2
#     Edge 49, Type (0, 0), BuildingBlock: XIVTED_clean_linker_0, # of connection points: 2
#     Edge 50, Type (0, 0), BuildingBlock: XIVTED_clean_linker_0, # of connection points: 2
#     Edge 51, Type (0, 0), BuildingBlock: XIVTED_clean_linker_0, # of connection points: 2
#     Edge 52, Type (0, 0), BuildingBlock: XIVTED_clean_linker_0, # of connection points: 2
#     Edge 53, Type (0, 0), BuildingBlock: XIVTED_clean_linker_0, # of connection points: 2
#     Edge 54, Type (0, 0), BuildingBlock: XIVTED_clean_linker_0, # of connection points: 2
#     Edge 55, Type (0, 0), BuildingBlock: XIVTED_clean_linker_0, # of connection points: 2
#     Edge 56, Type (0, 0), BuildingBlock: XIVTED_clean_linker_0, # of connection points: 2
#     Edge 57, Type (0, 0), BuildingBlock: XIVTED_clean_linker_0, # of connection points: 2
#     Edge 58, Type (0, 0), BuildingBlock: XIVTED_clean_linker_0, # of connection points: 2
#     Edge 59, Type (0, 0), BuildingBlock: XIVTED_clean_linker_0, # of connection points: 2
#     Edge 60, Type (0, 0), BuildingBlock: XIVTED_clean_linker_0, # of connection points: 2
#     Edge 61, Type (0, 0), BuildingBlock: XIVTED_clean_linker_0, # of connection points: 2
#     Edge 62, Type (0, 0), BuildingBlock: XIVTED_clean_linker_0, # of connection points: 2
#     Edge 63, Type (0, 0), BuildingBlock: XIVTED_clean_linker_0, # of connection points: 2
#     Edge 64, Type (0, 0), BuildingBlock: XIVTED_clean_linker_0, # of connection points: 2
#     Edge 65, Type (0, 0), BuildingBlock: XIVTED_clean_linker_0, # of connection points: 2
#     Edge 66, Type (0, 0), BuildingBlock: XIVTED_clean_linker_0, # of connection points: 2
#     Edge 67, Type (0, 0), BuildingBlock: XIVTED_clean_linker_0, # of connection points: 2
#     Edge 68, Type (0, 0), BuildingBlock: XIVTED_clean_linker_0, # of connection points: 2
#     Edge 69, Type (0, 0), BuildingBlock: XIVTED_clean_linker_0, # of connection points: 2
#     Edge 70, Type (0, 0), BuildingBlock: XIVTED_clean_linker_0, # of connection points: 2
#     Edge 71, Type (0, 0), BuildingBlock: XIVTED_clean_linker_0, # of connection points: 2
# Relax obj value: 0.292
# Max RMSD: 0.167
# Mean RMSD: 0.167
data_MOF--net-lta--node1-CEKHIL_clean_sbu_0--edge1-XIVTED_clean_linker_0
_symmetry_space_group_name_H-M    P1
_symmetry_Int_Tables_number       1
_symmetry_cell_setting            triclinic
loop_
_symmetry_equiv_pos_as_xyz
'x, y, z'
_cell_length_a     56.181806
_cell_length_b     56.213222
_cell_length_c     56.214717
_cell_angle_alpha  89.997273
_cell_angle_beta   89.988684
_cell_angle_gamma 90.001231
loop_
_atom_site_label
_atom_site_type_symbol
_atom_site_fract_x
_atom_site_fract_y
_atom_site_fract_z
_atom_type_partial_charge
Co0 Co 0.13403 0.31322 0.48452 0.0
O1 O 0.16655 0.30412 0.48875 0.0
O2 O 0.13608 0.27936 0.49173 0.0
C3 C 0.14164 0.33435 0.45113 0.0
O4 O 0.09793 0.3164 0.48091 0.0
Co5 Co 0.11936 0.36657 0.48399 0.0
O6 O 0.08909 0.35413 0.47112 0.0
C7 C 0.12888 0.34198 0.52978 0.0
C8 C 0.15902 0.28267 0.49248 0.0
C9 C 0.08301 0.33254 0.47434 0.0
O10 O 0.13168 0.32172 0.51943 0.0
O11 O 0.12531 0.36157 0.51875 0.0
O12 O 0.13788 0.31159 0.44971 0.0
O13 O 0.14145 0.3432 0.47224 0.0
Co14 Co 0.67997 0.13947 0.48038 0.0
O15 O 0.68705 0.17282 0.48382 0.0
O16 O 0.71204 0.14348 0.49205 0.0
C17 C 0.66365 0.14336 0.44395 0.0
O18 O 0.68006 0.10332 0.47886 0.0
Co19 Co 0.62953 0.1189 0.47287 0.0
O20 O 0.64595 0.08905 0.46396 0.0
C21 C 0.6463 0.13112 0.52165 0.0
C22 C 0.70813 0.16622 0.49062 0.0
C23 C 0.66721 0.08607 0.47112 0.0
O24 O 0.66672 0.13805 0.51382 0.0
O25 O 0.62941 0.12374 0.50825 0.0
O26 O 0.68658 0.14156 0.4462 0.0
O27 O 0.65146 0.14363 0.46338 0.0
Co28 Co 0.86165 0.68471 0.47626 0.0
O29 O 0.82909 0.69461 0.47492 0.0
O30 O 0.85777 0.71462 0.49311 0.0
C31 C 0.86422 0.67549 0.43732 0.0
O32 O 0.89739 0.67976 0.48079 0.0
Co33 Co 0.87403 0.63211 0.46343 0.0
O34 O 0.90725 0.64303 0.46808 0.0
C35 C 0.85087 0.64346 0.50915 0.0
C36 C 0.83542 0.7131 0.48712 0.0
C37 C 0.91281 0.66325 0.47677 0.0
O38 O 0.85492 0.66582 0.5062 0.0
O39 O 0.85457 0.62782 0.49301 0.0
O40 O 0.86737 0.69736 0.44406 0.0
O41 O 0.85807 0.66075 0.45368 0.0
Co42 Co 0.31882 0.86318 0.48666 0.0
O43 O 0.30663 0.83149 0.48758 0.0
O44 O 0.28651 0.86319 0.49944 0.0
C45 C 0.33324 0.85985 0.44924 0.0
O46 O 0.32614 0.89881 0.48767 0.0
Co47 Co 0.37338 0.87037 0.4797 0.0
O48 O 0.3643 0.90429 0.47672 0.0
C49 C 0.3545 0.85331 0.52565 0.0
C50 C 0.28717 0.84023 0.49626 0.0
C51 C 0.34392 0.91241 0.48261 0.0
O52 O 0.33308 0.85875 0.51952 0.0
O53 O 0.37227 0.85413 0.51142 0.0
O54 O 0.31112 0.8657 0.45252 0.0
O55 O 0.34511 0.85497 0.46817 0.0
Co56 Co 0.13424 0.68618 0.51823 0.0
O57 O 0.16665 0.69636 0.51687 0.0
O58 O 0.13587 0.72008 0.51079 0.0
C59 C 0.13952 0.66571 0.55243 0.0
O60 O 0.0981 0.68156 0.51879 0.0
Co61 Co 0.12234 0.63208 0.51784 0.0
O62 O 0.09022 0.64319 0.52698 0.0
C63 C 0.13625 0.65664 0.4733 0.0
C64 C 0.15888 0.71755 0.51234 0.0
C65 C 0.08345 0.66458 0.52367 0.0
O66 O 0.13536 0.67723 0.48334 0.0
O67 O 0.13355 0.63694 0.48438 0.0
O68 O 0.13488 0.68833 0.55323 0.0
O69 O 0.14171 0.65671 0.53153 0.0
Co70 Co 0.32064 0.1373 0.51274 0.0
O71 O 0.30881 0.16913 0.51212 0.0
O72 O 0.28694 0.13741 0.50425 0.0
C73 C 0.33986 0.14229 0.54779 0.0
O74 O 0.32724 0.10152 0.51227 0.0
Co75 Co 0.3755 0.12912 0.51308 0.0
O76 O 0.36637 0.09552 0.51844 0.0
C77 C 0.35116 0.14434 0.46905 0.0
C78 C 0.28821 0.16044 0.50659 0.0
C79 C 0.34527 0.08767 0.51545 0.0
O80 O 0.33055 0.14003 0.47817 0.0
O81 O 0.37062 0.14356 0.48086 0.0
O82 O 0.31747 0.13653 0.54769 0.0
O83 O 0.34922 0.14582 0.52722 0.0
Co84 Co 0.86186 0.3177 0.52368 0.0
O85 O 0.82891 0.30911 0.52559 0.0
O86 O 0.85659 0.28764 0.50754 0.0
C87 C 0.86529 0.32765 0.56239 0.0
O88 O 0.8977 0.32103 0.51856 0.0
Co89 Co 0.87665 0.37002 0.53527 0.0
O90 O 0.90922 0.3579 0.52939 0.0
C91 C 0.85247 0.35869 0.49008 0.0
C92 C 0.83441 0.29006 0.51384 0.0
C93 C 0.91376 0.33717 0.52134 0.0
O94 O 0.85565 0.33623 0.4934 0.0
O95 O 0.85691 0.37445 0.50592 0.0
O96 O 0.86721 0.3055 0.55612 0.0
O97 O 0.85964 0.34228 0.54578 0.0
Co98 Co 0.68279 0.8657 0.51961 0.0
O99 O 0.69063 0.8324 0.52117 0.0
O100 O 0.71402 0.86044 0.50629 0.0
C101 C 0.66909 0.86824 0.5573 0.0
O102 O 0.68152 0.90159 0.51528 0.0
Co103 Co 0.63099 0.8844 0.52692 0.0
O104 O 0.6462 0.91625 0.52717 0.0
C105 C 0.64483 0.86044 0.48197 0.0
C106 C 0.7109 0.83816 0.51167 0.0
C107 C 0.66742 0.91904 0.5197 0.0
O108 O 0.66707 0.86114 0.48753 0.0
O109 O 0.62804 0.86648 0.49616 0.0
O110 O 0.69182 0.8694 0.55325 0.0
O111 O 0.65584 0.86413 0.53908 0.0
Co112 Co 0.48441 0.13874 0.31306 0.0
O113 O 0.48551 0.17031 0.30048 0.0
O114 O 0.49463 0.13804 0.27986 0.0
C115 C 0.44847 0.14349 0.33056 0.0
O116 O 0.48492 0.10317 0.32066 0.0
Co117 Co 0.48187 0.13235 0.3681 0.0
O118 O 0.47781 0.09832 0.35978 0.0
C119 C 0.52664 0.14741 0.34523 0.0
C120 C 0.49249 0.16111 0.28056 0.0
C121 C 0.48154 0.08986 0.33905 0.0
O122 O 0.51847 0.142 0.32451 0.0
O123 O 0.51396 0.14741 0.36415 0.0
O124 O 0.44962 0.13744 0.30828 0.0
O125 O 0.4685 0.14778 0.34069 0.0
Co126 Co 0.86837 0.4925 0.32477 0.0
O127 O 0.8359 0.49626 0.3152 0.0
O128 O 0.86636 0.49531 0.2903 0.0
C129 C 0.86014 0.46232 0.35013 0.0
O130 O 0.90442 0.4884 0.32845 0.0
Co131 Co 0.88306 0.49874 0.37781 0.0
O132 O 0.91276 0.48318 0.36721 0.0
C133 C 0.87568 0.54107 0.347 0.0
C134 C 0.84344 0.49691 0.29345 0.0
C135 C 0.91903 0.48343 0.34543 0.0
O136 O 0.87174 0.52814 0.3285 0.0
O137 O 0.87928 0.53273 0.36788 0.0
O138 O 0.86364 0.45791 0.32771 0.0
O139 O 0.86083 0.48441 0.3561 0.0
Co140 Co 0.51025 0.86424 0.31917 0.0
O141 O 0.50931 0.83193 0.30865 0.0
O142 O 0.50469 0.86287 0.28486 0.0
C143 C 0.54321 0.85871 0.34174 0.0
O144 O 0.51062 0.90035 0.32419 0.0
Co145 Co 0.50658 0.87536 0.37346 0.0
O146 O 0.51552 0.90781 0.36321 0.0
C147 C 0.46356 0.86216 0.34598 0.0
C148 C 0.50577 0.83984 0.28732 0.0
C149 C 0.51382 0.91483 0.34171 0.0
O150 O 0.47484 0.86323 0.32604 0.0
O151 O 0.47343 0.86448 0.36635 0.0
O152 O 0.54542 0.86348 0.31923 0.0
O153 O 0.52173 0.85654 0.3493 0.0
Co154 Co 0.14286 0.51614 0.32356 0.0
O155 O 0.17471 0.51806 0.31178 0.0
O156 O 0.14395 0.50582 0.29048 0.0
C157 C 0.14382 0.55244 0.3409 0.0
O158 O 0.1073 0.51231 0.33022 0.0
Co159 Co 0.13498 0.51811 0.37838 0.0
O160 O 0.10087 0.51731 0.36946 0.0
C161 C 0.15427 0.47479 0.35601 0.0
C162 C 0.16668 0.51031 0.29165 0.0
C163 C 0.09335 0.51334 0.34842 0.0
O164 O 0.14884 0.48255 0.33515 0.0
O165 O 0.15279 0.48742 0.3749 0.0
O166 O 0.13842 0.55057 0.31851 0.0
O167 O 0.1497 0.53295 0.35132 0.0
Co168 Co 0.4898 0.86232 0.6858 0.0
O169 O 0.49345 0.83002 0.69592 0.0
O170 O 0.49645 0.86109 0.71985 0.0
C171 C 0.45648 0.85502 0.66432 0.0
O172 O 0.48658 0.89832 0.68136 0.0
Co173 Co 0.49078 0.87459 0.6317 0.0
O174 O 0.47843 0.90564 0.64286 0.0
C175 C 0.53581 0.86533 0.65764 0.0
C176 C 0.49689 0.83806 0.71723 0.0
C177 C 0.48075 0.91255 0.66433 0.0
O178 O 0.52496 0.86414 0.67781 0.0
O179 O 0.52524 0.86775 0.63762 0.0
O180 O 0.45486 0.85915 0.687 0.0
O181 O 0.47776 0.85425 0.6559 0.0
Co182 Co 0.13458 0.48203 0.67841 0.0
O183 O 0.16676 0.48041 0.6892 0.0
O184 O 0.13673 0.49323 0.7112 0.0
C185 C 0.13492 0.44528 0.66213 0.0
O186 O 0.09883 0.48572 0.6725 0.0
Co187 Co 0.12573 0.4787 0.62379 0.0
O188 O 0.09183 0.47936 0.63353 0.0
C189 C 0.14509 0.52268 0.6447 0.0
C190 C 0.15944 0.48877 0.70933 0.0
C191 C 0.08461 0.48401 0.65455 0.0
O192 O 0.14024 0.51527 0.66582 0.0
O193 O 0.14325 0.50968 0.62609 0.0
O194 O 0.13021 0.4478 0.68461 0.0
O195 O 0.14069 0.46441 0.651 0.0
Co196 Co 0.51572 0.13705 0.68297 0.0
O197 O 0.51891 0.16922 0.69352 0.0
O198 O 0.50647 0.13974 0.71636 0.0
C199 C 0.55146 0.13627 0.66447 0.0
O200 O 0.51083 0.10136 0.67777 0.0
Co201 Co 0.516 0.12697 0.62833 0.0
O202 O 0.51498 0.0933 0.6387 0.0
C203 C 0.47366 0.14797 0.65121 0.0
C204 C 0.5117 0.16223 0.71424 0.0
C205 C 0.5113 0.08671 0.66011 0.0
O206 O 0.48194 0.14351 0.67211 0.0
O207 O 0.48563 0.14523 0.63203 0.0
O208 O 0.5502 0.13187 0.68711 0.0
O209 O 0.53184 0.14233 0.65442 0.0
Co210 Co 0.86 0.51079 0.67605 0.0
O211 O 0.82763 0.5084 0.6864 0.0
O212 O 0.85871 0.50801 0.71055 0.0
C213 C 0.85282 0.54137 0.6508 0.0
O214 O 0.89603 0.51334 0.67134 0.0
Co215 Co 0.87223 0.50332 0.62238 0.0
O216 O 0.90361 0.51608 0.63212 0.0
C217 C 0.86236 0.4619 0.65349 0.0
C218 C 0.83567 0.50732 0.70796 0.0
C219 C 0.91042 0.51653 0.65375 0.0
O220 O 0.86184 0.47503 0.67226 0.0
O221 O 0.86438 0.47001 0.63231 0.0
O222 O 0.85678 0.5456 0.67318 0.0
O223 O 0.85211 0.51926 0.64497 0.0
Co224 Co 0.31529 0.47995 0.13456 0.0
O225 O 0.30878 0.48172 0.16808 0.0
O226 O 0.28368 0.49266 0.13974 0.0
C227 C 0.33017 0.44272 0.1361 0.0
O228 O 0.31505 0.48044 0.09831 0.0
Co229 Co 0.3657 0.47204 0.11378 0.0
O230 O 0.34883 0.46498 0.08369 0.0
C231 C 0.35099 0.52016 0.13008 0.0
C232 C 0.28793 0.48983 0.1623 0.0
C233 C 0.32782 0.47292 0.08087 0.0
O234 O 0.32987 0.51284 0.13515 0.0
O235 O 0.36766 0.50664 0.12246 0.0
O236 O 0.30733 0.44598 0.13481 0.0
O237 O 0.34309 0.46161 0.1375 0.0
Co238 Co 0.31432 0.51915 0.85999 0.0
O239 O 0.30621 0.51985 0.82677 0.0
O240 O 0.28432 0.50303 0.85489 0.0
C241 C 0.32435 0.55797 0.86184 0.0
O242 O 0.31608 0.51526 0.89592 0.0
Co243 Co 0.36479 0.53186 0.87888 0.0
O244 O 0.34923 0.53216 0.91058 0.0
C245 C 0.35591 0.48563 0.85478 0.0
C246 C 0.28681 0.50875 0.83262 0.0
C247 C 0.32915 0.52205 0.91342 0.0
O248 O 0.33317 0.48874 0.8554 0.0
O249 O 0.37098 0.50156 0.86104 0.0
O250 O 0.30215 0.55179 0.86362 0.0
O251 O 0.33927 0.54108 0.85791 0.0
Co252 Co 0.4963 0.32446 0.85993 0.0
O253 O 0.49929 0.31329 0.82794 0.0
O254 O 0.50036 0.28998 0.85961 0.0
C255 C 0.46479 0.34846 0.85212 0.0
O256 O 0.49333 0.33018 0.89575 0.0
Co257 Co 0.50217 0.37877 0.87018 0.0
O258 O 0.49 0.36962 0.90199 0.0
C259 C 0.5444 0.3489 0.86043 0.0
C260 C 0.50125 0.29201 0.83653 0.0
C261 C 0.4898 0.3482 0.90951 0.0
O262 O 0.53197 0.32967 0.86173 0.0
O263 O 0.53548 0.36984 0.86112 0.0
O264 O 0.46134 0.32604 0.8566 0.0
O265 O 0.48671 0.35496 0.85113 0.0
Co266 Co 0.68782 0.48133 0.86618 0.0
O267 O 0.69448 0.48101 0.83265 0.0
O268 O 0.71748 0.49777 0.85989 0.0
C269 C 0.67812 0.44241 0.86816 0.0
O270 O 0.6873 0.4848 0.90225 0.0
Co271 Co 0.63783 0.4682 0.88635 0.0
O272 O 0.65455 0.46744 0.91741 0.0
C273 C 0.64588 0.51455 0.86232 0.0
C274 C 0.71398 0.49232 0.83768 0.0
C275 C 0.67468 0.47756 0.91993 0.0
O276 O 0.66864 0.51162 0.86257 0.0
O277 O 0.63101 0.49849 0.86869 0.0
O278 O 0.70034 0.44871 0.86894 0.0
O279 O 0.66299 0.45926 0.86488 0.0
Co280 Co 0.50606 0.67684 0.86463 0.0
O281 O 0.50521 0.68758 0.83238 0.0
O282 O 0.50229 0.71137 0.86353 0.0
C283 C 0.53783 0.65258 0.85895 0.0
O284 O 0.50692 0.6715 0.90066 0.0
Co285 Co 0.49927 0.62261 0.87497 0.0
O286 O 0.50981 0.63209 0.90724 0.0
C287 C 0.45785 0.65264 0.86263 0.0
C288 C 0.50312 0.70903 0.84047 0.0
C289 C 0.5097 0.65353 0.91467 0.0
O290 O 0.47029 0.67183 0.86433 0.0
O291 O 0.46658 0.63167 0.8641 0.0
O292 O 0.54115 0.67503 0.86337 0.0
O293 O 0.51596 0.64621 0.85678 0.0
Co294 Co 0.689 0.51884 0.14078 0.0
O295 O 0.69673 0.51697 0.17399 0.0
O296 O 0.72116 0.50695 0.14476 0.0
C297 C 0.67303 0.55561 0.14354 0.0
O298 O 0.68779 0.51874 0.10458 0.0
Co299 Co 0.63731 0.52577 0.12257 0.0
O300 O 0.65254 0.53223 0.09141 0.0
C301 C 0.65332 0.4788 0.14078 0.0
C302 C 0.71758 0.50947 0.16749 0.0
C303 C 0.67384 0.52544 0.08772 0.0
O304 O 0.6752 0.48561 0.14165 0.0
O305 O 0.63591 0.49261 0.13574 0.0
O306 O 0.69589 0.55317 0.14102 0.0
O307 O 0.66093 0.53624 0.14514 0.0
Co308 Co 0.48948 0.67816 0.1408 0.0
O309 O 0.4882 0.68995 0.17261 0.0
O310 O 0.49695 0.71218 0.14141 0.0
C311 C 0.45487 0.65773 0.14357 0.0
O312 O 0.49174 0.67133 0.1051 0.0
Co313 Co 0.49179 0.6231 0.13378 0.0
O314 O 0.48707 0.63186 0.09995 0.0
C315 C 0.53428 0.64943 0.14972 0.0
C316 C 0.49368 0.7107 0.16433 0.0
C317 C 0.48954 0.65285 0.09165 0.0
O318 O 0.52426 0.66952 0.14504 0.0
O319 O 0.52346 0.62942 0.14885 0.0
O320 O 0.45453 0.68018 0.13811 0.0
O321 O 0.47545 0.64915 0.14865 0.0
Co322 Co 0.51236 0.32147 0.13503 0.0
O323 O 0.51443 0.30896 0.16654 0.0
O324 O 0.50642 0.28718 0.13481 0.0
C325 C 0.54606 0.34335 0.13859 0.0
O326 O 0.50951 0.32887 0.09952 0.0
Co327 Co 0.5078 0.37646 0.12886 0.0
O328 O 0.51079 0.36863 0.09461 0.0
C329 C 0.46669 0.34816 0.14506 0.0
C330 C 0.51011 0.28817 0.15768 0.0
C331 C 0.50959 0.34757 0.08621 0.0
O332 O 0.47727 0.32858 0.13953 0.0
O333 O 0.47692 0.3685 0.14481 0.0
O334 O 0.54743 0.32112 0.13239 0.0
O335 O 0.52503 0.35087 0.1435 0.0
H336 H 0.19171 0.45648 0.37997 0.0
H337 H 0.12269 0.33519 0.40576 0.0
H338 H 0.12847 0.43613 0.34174 0.0
H339 H 0.17564 0.36783 0.45061 0.0
H340 H 0.13116 0.36536 0.3749 0.0
H341 H 0.19372 0.41672 0.39721 0.0
C342 C 0.17869 0.4433 0.37464 0.0
C343 C 0.15986 0.44949 0.35959 0.0
C344 C 0.1412 0.36554 0.39134 0.0
C345 C 0.16126 0.40434 0.38012 0.0
C346 C 0.13641 0.34836 0.40884 0.0
C347 C 0.14828 0.34937 0.43076 0.0
C348 C 0.15824 0.38335 0.39584 0.0
C349 C 0.16584 0.36672 0.43405 0.0
C350 C 0.17966 0.42067 0.38464 0.0
C351 C 0.14331 0.43189 0.35327 0.0
N352 N 0.17019 0.38304 0.41689 0.0
N353 N 0.14402 0.41018 0.36406 0.0
H354 H 0.64454 0.18445 0.42879 0.0
H355 H 0.56371 0.11846 0.33303 0.0
H356 H 0.65456 0.11128 0.40848 0.0
H357 H 0.54711 0.18522 0.36677 0.0
H358 H 0.60388 0.1202 0.35038 0.0
H359 H 0.61639 0.18944 0.39603 0.0
C360 C 0.64123 0.16962 0.41691 0.0
C361 C 0.65177 0.14749 0.42111 0.0
C362 C 0.59168 0.1348 0.35337 0.0
C363 C 0.61901 0.1527 0.38419 0.0
C364 C 0.56889 0.13394 0.34328 0.0
C365 C 0.55223 0.15172 0.3486 0.0
C366 C 0.59765 0.15367 0.36868 0.0
C367 C 0.55952 0.17117 0.36233 0.0
C368 C 0.62509 0.1724 0.39832 0.0
C369 C 0.64682 0.12868 0.40555 0.0
N370 N 0.58159 0.1715 0.37211 0.0
N371 N 0.63041 0.13158 0.38793 0.0
H372 H 0.82964 0.6655 0.40561 0.0
H373 H 0.91406 0.5696 0.35119 0.0
H374 H 0.90566 0.66464 0.41494 0.0
H375 H 0.83821 0.57104 0.34053 0.0
H376 H 0.91295 0.61139 0.36305 0.0
H377 H 0.8338 0.63906 0.37132 0.0
C378 C 0.84731 0.66045 0.39974 0.0
C379 C 0.86737 0.66719 0.41286 0.0
C380 C 0.8966 0.60291 0.35739 0.0
C381 C 0.87228 0.63614 0.37449 0.0
C382 C 0.8973 0.57911 0.35043 0.0
C383 C 0.87618 0.56706 0.34497 0.0
C384 C 0.87451 0.61441 0.35963 0.0
C385 C 0.85485 0.57988 0.34455 0.0
C386 C 0.8497 0.64522 0.38029 0.0
C387 C 0.88983 0.6599 0.40503 0.0
N388 N 0.85445 0.60277 0.35239 0.0
N389 N 0.89167 0.64432 0.38661 0.0
H390 H 0.33238 0.89124 0.41171 0.0
H391 H 0.43973 0.8208 0.3516 0.0
H392 H 0.36007 0.82333 0.43399 0.0
H393 H 0.42958 0.89634 0.3443 0.0
H394 H 0.40011 0.81756 0.36939 0.0
H395 H 0.35819 0.88944 0.37619 0.0
C396 C 0.34337 0.87569 0.40872 0.0
C397 C 0.34444 0.85751 0.42573 0.0
C398 C 0.40616 0.83476 0.36314 0.0
C399 C 0.3735 0.85518 0.3855 0.0
C400 C 0.42861 0.83652 0.3527 0.0
C401 C 0.4377 0.85882 0.34642 0.0
C402 C 0.39302 0.85554 0.36775 0.0
C403 C 0.42296 0.87881 0.34876 0.0
C404 C 0.35808 0.87468 0.38858 0.0
C405 C 0.35902 0.83781 0.42132 0.0
N406 N 0.40146 0.87681 0.35974 0.0
N407 N 0.37308 0.83723 0.40174 0.0
H408 H 0.12161 0.56169 0.66191 0.0
H409 H 0.17894 0.63969 0.55869 0.0
H410 H 0.18023 0.54068 0.61717 0.0
H411 H 0.113 0.65838 0.59304 0.0
H412 H 0.1858 0.60929 0.58876 0.0
H413 H 0.12426 0.60222 0.64553 0.0
C414 C 0.13559 0.56588 0.6493 0.0
C415 C 0.15066 0.54793 0.64068 0.0
C416 C 0.16997 0.6202 0.59007 0.0
C417 C 0.15363 0.59381 0.62183 0.0
C418 C 0.1661 0.63759 0.57294 0.0
C419 C 0.14531 0.65127 0.5734 0.0
C420 C 0.15256 0.61595 0.60748 0.0
C421 C 0.12925 0.64807 0.5922 0.0
C422 C 0.13694 0.58889 0.63982 0.0
C423 C 0.16821 0.55404 0.62412 0.0
N424 N 0.13296 0.6303 0.60832 0.0
N425 N 0.16905 0.57637 0.61507 0.0
H426 H 0.33825 0.11926 0.59123 0.0
H427 H 0.45572 0.18795 0.63153 0.0
H428 H 0.3729 0.17636 0.5535 0.0
H429 H 0.43509 0.12048 0.66136 0.0
H430 H 0.41688 0.19097 0.61233 0.0
H431 H 0.36599 0.1255 0.62479 0.0
C432 C 0.35137 0.13335 0.59024 0.0
C433 C 0.35368 0.14707 0.56953 0.0
C434 C 0.42051 0.17576 0.62359 0.0
C435 C 0.38482 0.15457 0.60759 0.0
C436 C 0.44256 0.17423 0.63478 0.0
C437 C 0.44845 0.15398 0.64798 0.0
C438 C 0.40454 0.15655 0.62503 0.0
C439 C 0.431 0.13646 0.65141 0.0
C440 C 0.36714 0.1369 0.6093 0.0
C441 C 0.37085 0.16511 0.56901 0.0
N442 N 0.40994 0.13783 0.63947 0.0
N443 N 0.38578 0.16825 0.58765 0.0
H444 H 0.90089 0.4338 0.659 0.0
H445 H 0.82982 0.33061 0.59463 0.0
H446 H 0.82482 0.43168 0.65021 0.0
H447 H 0.9042 0.34585 0.5844 0.0
H448 H 0.82937 0.35746 0.629 0.0
H449 H 0.90319 0.39211 0.64641 0.0
C450 C 0.88457 0.42413 0.65553 0.0
C451 C 0.86263 0.43595 0.65569 0.0
C452 C 0.84601 0.35427 0.6198 0.0
C453 C 0.86512 0.38878 0.64058 0.0
C454 C 0.84631 0.33881 0.60036 0.0
C455 C 0.86713 0.33604 0.58697 0.0
C456 C 0.86662 0.36718 0.62554 0.0
C457 C 0.8879 0.34745 0.59456 0.0
C458 C 0.8859 0.40047 0.6481 0.0
C459 C 0.84202 0.42299 0.65046 0.0
N460 N 0.88706 0.36286 0.61317 0.0
N461 N 0.84379 0.40015 0.64269 0.0
H462 H 0.56639 0.8278 0.65557 0.0
H463 H 0.67298 0.83848 0.59539 0.0
H464 H 0.56345 0.90429 0.65465 0.0
H465 H 0.63973 0.90341 0.57204 0.0
H466 H 0.64625 0.83782 0.63009 0.0
H467 H 0.60653 0.8295 0.63866 0.0
C468 C 0.57477 0.84496 0.65295 0.0
C469 C 0.56189 0.86595 0.65671 0.0
C470 C 0.64508 0.85241 0.61759 0.0
C471 C 0.60736 0.86818 0.63678 0.0
C472 C 0.66053 0.85296 0.59803 0.0
C473 C 0.65837 0.871 0.58096 0.0
C474 C 0.6275 0.87009 0.61987 0.0
C475 C 0.64183 0.88918 0.58482 0.0
C476 C 0.59768 0.84598 0.64321 0.0
C477 C 0.57305 0.88776 0.65224 0.0
N478 N 0.62692 0.88819 0.60378 0.0
N479 N 0.59493 0.88831 0.64198 0.0
H480 H 0.34045 0.11455 0.43224 0.0
H481 H 0.43629 0.18278 0.35471 0.0
H482 H 0.36945 0.18359 0.44836 0.0
H483 H 0.41076 0.11282 0.33676 0.0
H484 H 0.40391 0.18711 0.38315 0.0
H485 H 0.3576 0.11722 0.39205 0.0
C486 C 0.34955 0.13069 0.42691 0.0
C487 C 0.3536 0.14892 0.44345 0.0
C488 C 0.40499 0.17091 0.3728 0.0
C489 C 0.37367 0.15187 0.39807 0.0
C490 C 0.42346 0.16849 0.35651 0.0
C491 C 0.42613 0.1474 0.34359 0.0
C492 C 0.38944 0.15175 0.37681 0.0
C493 C 0.40914 0.12938 0.34645 0.0
C494 C 0.35955 0.13211 0.40411 0.0
C495 C 0.36594 0.16921 0.43602 0.0
N496 N 0.39172 0.13174 0.3632 0.0
N497 N 0.37579 0.17001 0.41401 0.0
H498 H 0.86736 0.34276 0.44631 0.0
H499 H 0.83649 0.46883 0.39129 0.0
H500 H 0.82367 0.39595 0.48015 0.0
H501 H 0.87053 0.41418 0.34954 0.0
H502 H 0.82854 0.43998 0.42228 0.0
H503 H 0.86497 0.36536 0.40888 0.0
C504 C 0.85662 0.35875 0.44564 0.0
C505 C 0.84591 0.36772 0.46634 0.0
C506 C 0.83761 0.43406 0.40635 0.0
C507 C 0.84348 0.39371 0.42402 0.0
C508 C 0.84229 0.45063 0.38865 0.0
C509 C 0.85445 0.44393 0.36797 0.0
C510 C 0.84555 0.41052 0.40372 0.0
C511 C 0.8612 0.42003 0.36534 0.0
C512 C 0.85544 0.37174 0.42436 0.0
C513 C 0.83244 0.3886 0.46465 0.0
N514 N 0.85699 0.40417 0.38325 0.0
N515 N 0.83187 0.40101 0.44399 0.0
H516 H 0.54429 0.82626 0.3767 0.0
H517 H 0.66008 0.87873 0.43936 0.0
H518 H 0.58745 0.88041 0.34373 0.0
H519 H 0.61189 0.82767 0.47012 0.0
H520 H 0.63947 0.87425 0.40089 0.0
H521 H 0.57436 0.82107 0.4072 0.0
C522 C 0.5603 0.83698 0.37584 0.0
C523 C 0.56329 0.85402 0.35793 0.0
C524 C 0.63383 0.8636 0.41592 0.0
C525 C 0.59782 0.84858 0.39329 0.0
C526 C 0.6457 0.86598 0.43775 0.0
C527 C 0.63753 0.85355 0.4578 0.0
C528 C 0.61384 0.84861 0.41435 0.0
C529 C 0.61863 0.8376 0.45504 0.0
C530 C 0.57754 0.834 0.39328 0.0
C531 C 0.58452 0.86716 0.35739 0.0
N532 N 0.60734 0.83576 0.43383 0.0
N533 N 0.60088 0.8645 0.37517 0.0
H534 H 0.10307 0.65858 0.43827 0.0
H535 H 0.18013 0.56663 0.36851 0.0
H536 H 0.17777 0.6474 0.451 0.0
H537 H 0.11175 0.58945 0.34243 0.0
H538 H 0.18142 0.60103 0.39474 0.0
H539 H 0.10724 0.63956 0.3992 0.0
C540 C 0.12057 0.65313 0.43228 0.0
C541 C 0.14018 0.65464 0.44761 0.0
C542 C 0.16625 0.59891 0.38306 0.0
C543 C 0.14492 0.63204 0.40367 0.0
C544 C 0.1655 0.5792 0.36814 0.0
C545 C 0.14572 0.57522 0.35356 0.0
C546 C 0.14667 0.61441 0.38404 0.0
C547 C 0.12729 0.59201 0.35353 0.0
C548 C 0.12292 0.64205 0.41012 0.0
C549 C 0.16233 0.64673 0.43949 0.0
N550 N 0.12793 0.61068 0.36901 0.0
N551 N 0.16403 0.63536 0.41825 0.0
H552 H 0.37893 0.81507 0.54119 0.0
H553 H 0.4115 0.87495 0.66605 0.0
H554 H 0.34418 0.87871 0.56602 0.0
H555 H 0.45498 0.8254 0.62682 0.0
H556 H 0.37985 0.87012 0.63586 0.0
H557 H 0.39864 0.81115 0.57963 0.0
C558 C 0.37495 0.82784 0.55508 0.0
C559 C 0.36007 0.84727 0.55051 0.0
C560 C 0.39621 0.86007 0.63418 0.0
C561 C 0.38333 0.84356 0.59421 0.0
C562 C 0.41416 0.86276 0.65136 0.0
C563 C 0.43589 0.85074 0.64866 0.0
C564 C 0.40002 0.84487 0.61465 0.0
C565 C 0.4386 0.83523 0.62936 0.0
C566 C 0.38635 0.82575 0.57694 0.0
C567 C 0.35551 0.86342 0.569 0.0
N568 N 0.42096 0.83281 0.61313 0.0
N569 N 0.36755 0.86152 0.58999 0.0
H570 H 0.17168 0.42821 0.63675 0.0
H571 H 0.0921 0.34673 0.56048 0.0
H572 H 0.10068 0.41054 0.65962 0.0
H573 H 0.16858 0.34383 0.55705 0.0
H574 H 0.09484 0.36478 0.60005 0.0
H575 H 0.17179 0.39344 0.61083 0.0
C576 C 0.15625 0.41663 0.63656 0.0
C577 C 0.1361 0.42215 0.6501 0.0
C578 C 0.11103 0.35939 0.59109 0.0
C579 C 0.13573 0.3827 0.62002 0.0
C580 C 0.10944 0.34894 0.56861 0.0
C581 C 0.13016 0.34372 0.55575 0.0
C582 C 0.13351 0.36531 0.60028 0.0
C583 C 0.15224 0.34742 0.56662 0.0
C584 C 0.15633 0.39673 0.62186 0.0
C585 C 0.11654 0.40672 0.64938 0.0
N586 N 0.15337 0.35852 0.58807 0.0
N587 N 0.1166 0.38791 0.63407 0.0
H588 H 0.57958 0.09779 0.65489 0.0
H589 H 0.65117 0.16785 0.55334 0.0
H590 H 0.57228 0.17289 0.64159 0.0
H591 H 0.62976 0.09443 0.54795 0.0
H592 H 0.63472 0.16905 0.59398 0.0
H593 H 0.61056 0.09586 0.6239 0.0
C594 C 0.58514 0.11397 0.646 0.0
C595 C 0.5736 0.13553 0.65065 0.0
C596 C 0.63419 0.15255 0.58405 0.0
C597 C 0.60857 0.13353 0.61546 0.0
C598 C 0.64365 0.15184 0.56101 0.0
C599 C 0.64154 0.13109 0.5474 0.0
C600 C 0.623 0.13223 0.59347 0.0
C601 C 0.63147 0.11083 0.55793 0.0
C602 C 0.60261 0.11286 0.62827 0.0
C603 C 0.58093 0.15597 0.63841 0.0
N604 N 0.62242 0.11193 0.58029 0.0
N605 N 0.59788 0.15447 0.62125 0.0
H606 H 0.86458 0.58916 0.65241 0.0
H607 H 0.82019 0.60755 0.5184 0.0
H608 H 0.8314 0.5359 0.60822 0.0
H609 H 0.86637 0.65793 0.55321 0.0
H610 H 0.81618 0.58589 0.55566 0.0
H611 H 0.85893 0.61847 0.62017 0.0
C612 C 0.85594 0.58373 0.63607 0.0
C613 C 0.84871 0.56005 0.63281 0.0
C614 C 0.82696 0.60185 0.55536 0.0
C615 C 0.84188 0.59326 0.59635 0.0
C616 C 0.82911 0.6143 0.5341 0.0
C617 C 0.84382 0.63436 0.53272 0.0
C618 C 0.84001 0.60919 0.57538 0.0
C619 C 0.85485 0.64249 0.55361 0.0
C620 C 0.85272 0.6004 0.61775 0.0
C621 C 0.83756 0.55388 0.61139 0.0
N622 N 0.85311 0.62958 0.57408 0.0
N623 N 0.83455 0.57031 0.59405 0.0
H624 H 0.34195 0.42241 0.17783 0.0
H625 H 0.43249 0.33432 0.11384 0.0
H626 H 0.34459 0.41119 0.10212 0.0
H627 H 0.44262 0.36538 0.18313 0.0
H628 H 0.39156 0.34972 0.1134 0.0
H629 H 0.36962 0.38919 0.18342 0.0
C630 C 0.34778 0.41233 0.16246 0.0
C631 C 0.34105 0.41927 0.13953 0.0
C632 C 0.40247 0.35241 0.12905 0.0
C633 C 0.37306 0.38184 0.14563 0.0
C634 C 0.42568 0.34337 0.12944 0.0
C635 C 0.44079 0.34864 0.14857 0.0
C636 C 0.39448 0.36662 0.14801 0.0
C637 C 0.43141 0.36094 0.1681 0.0
C638 C 0.36364 0.39351 0.16562 0.0
C639 C 0.34932 0.4061 0.12008 0.0
N640 N 0.40894 0.36979 0.1672 0.0
N641 N 0.36523 0.38815 0.12353 0.0
H642 H 0.42672 0.65947 0.89869 0.0
H643 H 0.33077 0.58733 0.82445 0.0
H644 H 0.43056 0.6457 0.82346 0.0
H645 H 0.33914 0.58311 0.90044 0.0
H646 H 0.3574 0.62185 0.82374 0.0
H647 H 0.38544 0.64521 0.89883 0.0
C648 C 0.41841 0.65456 0.88199 0.0
C649 C 0.43182 0.65386 0.86099 0.0
C650 C 0.35279 0.61391 0.84069 0.0
C651 C 0.38514 0.63688 0.86111 0.0
C652 C 0.33744 0.59439 0.8411 0.0
C653 C 0.33272 0.58265 0.86256 0.0
C654 C 0.36374 0.62142 0.86186 0.0
C655 C 0.34222 0.59195 0.88361 0.0
C656 C 0.395 0.64615 0.88213 0.0
C657 C 0.42062 0.6467 0.83994 0.0
N658 N 0.35763 0.61061 0.88271 0.0
N659 N 0.39801 0.63812 0.84058 0.0
H660 H 0.46824 0.38996 0.8284 0.0
H661 H 0.34203 0.44064 0.86842 0.0
H662 H 0.41765 0.34665 0.86653 0.0
H663 H 0.39355 0.47834 0.82594 0.0
H664 H 0.36593 0.4041 0.86396 0.0
H665 H 0.43823 0.42052 0.82367 0.0
C666 C 0.45069 0.38687 0.83576 0.0
C667 C 0.44551 0.36587 0.84812 0.0
C668 C 0.37168 0.42026 0.8552 0.0
C669 C 0.41076 0.40118 0.84301 0.0
C670 C 0.35795 0.44101 0.85756 0.0
C671 C 0.366 0.46248 0.84765 0.0
C672 C 0.39343 0.4212 0.8428 0.0
C673 C 0.38686 0.46218 0.83403 0.0
C674 C 0.43344 0.40435 0.83298 0.0
C675 C 0.42234 0.36269 0.85697 0.0
N676 N 0.39991 0.442 0.83222 0.0
N677 N 0.40584 0.38037 0.85455 0.0
H678 H 0.67563 0.41191 0.83113 0.0
H679 H 0.57322 0.34123 0.89819 0.0
H680 H 0.65978 0.41828 0.90578 0.0
H681 H 0.57412 0.35664 0.82319 0.0
H682 H 0.6146 0.35493 0.90111 0.0
H683 H 0.64876 0.37759 0.82873 0.0
C684 C 0.66732 0.40533 0.84724 0.0
C685 C 0.66991 0.41767 0.86871 0.0
C686 C 0.60605 0.35446 0.88385 0.0
C687 C 0.63878 0.3791 0.86602 0.0
C688 C 0.58258 0.3464 0.88214 0.0
C689 C 0.57048 0.34774 0.86039 0.0
C690 C 0.61731 0.36395 0.86365 0.0
C691 C 0.58303 0.35519 0.84021 0.0
C692 C 0.65183 0.38594 0.84583 0.0
C693 C 0.6583 0.409 0.88896 0.0
N694 N 0.60569 0.36336 0.84237 0.0
N695 N 0.64293 0.39041 0.88707 0.0
H696 H 0.60928 0.52146 0.83218 0.0
H697 H 0.58504 0.6558 0.87288 0.0
H698 H 0.65828 0.55952 0.87721 0.0
H699 H 0.5346 0.60939 0.83832 0.0
H700 H 0.61553 0.62436 0.86916 0.0
H701 H 0.58597 0.5576 0.82735 0.0
C702 C 0.61535 0.53767 0.84068 0.0
C703 C 0.63558 0.53757 0.85519 0.0
C704 C 0.59781 0.62126 0.86225 0.0
C705 C 0.60849 0.57896 0.85053 0.0
C706 C 0.58047 0.63913 0.86437 0.0
C707 C 0.55722 0.63505 0.85614 0.0
C708 C 0.5918 0.59944 0.85153 0.0
C709 C 0.55219 0.61323 0.8452 0.0
C710 C 0.60196 0.55829 0.83808 0.0
C711 C 0.64277 0.55901 0.86579 0.0
N712 N 0.56925 0.59633 0.84328 0.0
N713 N 0.62896 0.57886 0.86362 0.0
H714 H 0.6664 0.59251 0.11229 0.0
H715 H 0.55655 0.63404 0.18948 0.0
H716 H 0.65161 0.56951 0.18383 0.0
H717 H 0.56987 0.65996 0.11866 0.0
H718 H 0.59728 0.61909 0.19137 0.0
H719 H 0.63737 0.62499 0.11727 0.0
C720 C 0.65765 0.59489 0.1293 0.0
C721 C 0.66124 0.57851 0.14772 0.0
C722 C 0.59164 0.62859 0.17558 0.0
C723 C 0.62791 0.61495 0.15344 0.0
C724 C 0.56844 0.63732 0.17466 0.0
C725 C 0.56004 0.64825 0.15396 0.0
C726 C 0.60625 0.63005 0.1553 0.0
C727 C 0.5759 0.65177 0.13502 0.0
C728 C 0.64099 0.61326 0.13212 0.0
C729 C 0.64923 0.58188 0.16925 0.0
N730 N 0.59814 0.64215 0.13589 0.0
N731 N 0.63292 0.59953 0.17144 0.0
H732 H 0.35941 0.55258 0.09545 0.0
H733 H 0.44452 0.62422 0.17625 0.0
H734 H 0.358 0.54399 0.17155 0.0
H735 H 0.41746 0.65627 0.11209 0.0
H736 H 0.41231 0.59506 0.17496 0.0
H737 H 0.37917 0.59121 0.10049 0.0
C738 C 0.36264 0.55927 0.11324 0.0
C739 C 0.35702 0.54537 0.13316 0.0
C740 C 0.41309 0.60871 0.16139 0.0
C741 C 0.38029 0.58882 0.13903 0.0
C742 C 0.43151 0.62525 0.16205 0.0
C743 C 0.43357 0.64252 0.14421 0.0
C744 C 0.39703 0.60893 0.14228 0.0
C745 C 0.41633 0.64321 0.1262 0.0
C746 C 0.37392 0.58122 0.11611 0.0
C747 C 0.3619 0.55441 0.15583 0.0
N748 N 0.399 0.62625 0.12537 0.0
N749 N 0.37374 0.57539 0.15816 0.0
H750 H 0.66139 0.44005 0.11262 0.0
H751 H 0.55018 0.37783 0.17142 0.0
H752 H 0.62923 0.46198 0.17859 0.0
H753 H 0.58901 0.34419 0.11447 0.0
H754 H 0.58227 0.40625 0.1763 0.0
H755 H 0.63944 0.4022 0.11501 0.0
C756 C 0.65046 0.43641 0.12808 0.0
C757 C 0.6471 0.45391 0.14554 0.0
C758 C 0.58407 0.39259 0.16284 0.0
C759 C 0.62154 0.41137 0.14805 0.0
C760 C 0.56563 0.37641 0.15996 0.0
C761 C 0.56686 0.35888 0.14232 0.0
C762 C 0.60382 0.39175 0.14755 0.0
C763 C 0.58742 0.35759 0.12821 0.0
C764 C 0.63778 0.41497 0.12934 0.0
C765 C 0.63233 0.4488 0.16488 0.0
N766 N 0.605 0.37416 0.13082 0.0
N767 N 0.61988 0.42814 0.16547 0.0
H768 H 0.04781 0.35808 0.45297 0.0
H769 H 0.93822 0.29455 0.51725 0.0
H770 H 0.05912 0.29566 0.49628 0.0
H771 H 0.9447 0.37001 0.50454 0.0
H772 H 0.97888 0.28911 0.50128 0.0
H773 H 0.0054 0.35586 0.46157 0.0
C774 C 0.04133 0.34359 0.46391 0.0
C775 C 0.05715 0.32732 0.47432 0.0
C776 C 0.9712 0.30677 0.50202 0.0
C777 C 0.00851 0.32487 0.48441 0.0
C778 C 0.94813 0.30989 0.51112 0.0
C779 C 0.9382 0.3328 0.51251 0.0
C780 C 0.98391 0.32661 0.49366 0.0
C781 C 0.95172 0.35207 0.5042 0.0
C782 C 0.01712 0.34242 0.4689 0.0
C783 C 0.04758 0.30869 0.48804 0.0
N784 N 0.97373 0.34851 0.49505 0.0
N785 N 0.02383 0.30817 0.49305 0.0
H786 H 0.69394 0.0702 0.50809 0.0
H787 H 0.68809 0.93275 0.47827 0.0
H788 H 0.65802 0.04614 0.44465 0.0
H789 H 0.66256 0.95996 0.5453 0.0
H790 H 0.69401 0.97387 0.46436 0.0
H791 H 0.6998 0.02865 0.51998 0.0
C792 C 0.688 0.05618 0.49628 0.0
C793 C 0.6754 0.06153 0.47538 0.0
C794 C 0.68762 0.97069 0.48227 0.0
C795 C 0.68236 0.01432 0.48877 0.0
C796 C 0.68439 0.94739 0.49025 0.0
C797 C 0.67485 0.94317 0.51293 0.0
C798 C 0.68197 0.98965 0.4974 0.0
C799 C 0.66993 0.96262 0.52769 0.0
C800 C 0.69121 0.03259 0.50319 0.0
C801 C 0.66773 0.04269 0.46092 0.0
N802 N 0.67361 0.98513 0.51968 0.0
N803 N 0.67129 0.01981 0.46792 0.0
H804 H 0.93763 0.70514 0.48465 0.0
H805 H 0.04812 0.63569 0.53997 0.0
H806 H 0.94476 0.6287 0.48744 0.0
H807 H 0.05923 0.70269 0.50404 0.0
H808 H 0.00599 0.638 0.53047 0.0
H809 H 0.97887 0.70879 0.49953 0.0
C810 C 0.94781 0.68919 0.48833 0.0
C811 C 0.93778 0.66658 0.48461 0.0
C812 C 0.01759 0.65234 0.52487 0.0
C813 C 0.98426 0.67067 0.50215 0.0
C814 C 0.04168 0.65111 0.53038 0.0
C815 C 0.05741 0.6688 0.52239 0.0
C816 C 0.00894 0.67142 0.51135 0.0
C817 C 0.04779 0.68856 0.51038 0.0
C818 C 0.97123 0.69131 0.49679 0.0
C819 C 0.95173 0.64651 0.48973 0.0
N820 N 0.02412 0.68923 0.50494 0.0
N821 N 0.97409 0.64905 0.49837 0.0
H822 H 0.30418 0.06158 0.50705 0.0
H823 H 0.37833 0.94581 0.47528 0.0
H824 H 0.37989 0.0538 0.51821 0.0
H825 H 0.30484 0.93901 0.49696 0.0
H826 H 0.37672 0.98792 0.48423 0.0
H827 H 0.30178 0.01862 0.49855 0.0
C828 C 0.32021 0.05091 0.50798 0.0
C829 C 0.34232 0.06149 0.51318 0.0
C830 C 0.3609 0.97726 0.48703 0.0
C831 C 0.33967 0.01272 0.50302 0.0
C832 C 0.36173 0.95313 0.48178 0.0
C833 C 0.34175 0.93861 0.4856 0.0
C834 C 0.33991 0.9873 0.49601 0.0
C835 C 0.32072 0.94946 0.49388 0.0
C836 C 0.31879 0.02646 0.50308 0.0
C837 C 0.36246 0.0467 0.51413 0.0
N838 N 0.32034 0.97323 0.49887 0.0
N839 N 0.36066 0.02326 0.50884 0.0
H840 H 0.50164 0.93961 0.30078 0.0
H841 H 0.4779 0.05703 0.37456 0.0
H842 H 0.52277 0.94989 0.37395 0.0
H843 H 0.49199 0.06261 0.29918 0.0
H844 H 0.48734 0.01503 0.37286 0.0
H845 H 0.49338 0.98261 0.2979 0.0
C846 C 0.50491 0.95085 0.31608 0.0
C847 C 0.51263 0.94096 0.33775 0.0
C848 C 0.48835 0.0254 0.35665 0.0
C849 C 0.5027 0.98973 0.33465 0.0
C850 C 0.48278 0.04946 0.35753 0.0
C851 C 0.48436 0.06363 0.33701 0.0
C852 C 0.49537 0.01506 0.33507 0.0
C853 C 0.49065 0.05245 0.31548 0.0
C854 C 0.50009 0.97531 0.31441 0.0
C855 C 0.51652 0.95646 0.35696 0.0
N856 N 0.49598 0.02875 0.31504 0.0
N857 N 0.51122 0.97988 0.35504 0.0
H858 H 0.94438 0.50079 0.30707 0.0
H859 H 0.06237 0.50043 0.3832 0.0
H860 H 0.95282 0.46277 0.37325 0.0
H861 H 0.06587 0.5125 0.3074 0.0
H862 H 0.02099 0.48914 0.37923 0.0
H863 H 0.98783 0.50605 0.30525 0.0
C864 C 0.95536 0.493 0.32086 0.0
C865 C 0.9449 0.48164 0.34055 0.0
C866 C 0.03073 0.49416 0.36338 0.0
C867 C 0.99429 0.48805 0.3388 0.0
C868 C 0.05441 0.50089 0.36566 0.0
C869 C 0.06771 0.50759 0.34561 0.0
C870 C 0.01986 0.49438 0.34093 0.0
C871 C 0.05628 0.50749 0.32334 0.0
C872 C 0.98011 0.49616 0.31987 0.0
C873 C 0.96 0.47201 0.35794 0.0
N874 N 0.03288 0.50118 0.32159 0.0
N875 N 0.98381 0.47576 0.35683 0.0
H876 H 0.45829 0.94581 0.6373 0.0
H877 H 0.5134 0.06014 0.70168 0.0
H878 H 0.50096 0.93868 0.70074 0.0
H879 H 0.49493 0.05536 0.62727 0.0
H880 H 0.50233 0.01788 0.70638 0.0
H881 H 0.46333 0.98873 0.63916 0.0
C882 C 0.46846 0.9533 0.65186 0.0
C883 C 0.47955 0.93855 0.66866 0.0
C884 C 0.50073 0.02625 0.68911 0.0
C885 C 0.48569 0.9879 0.6707 0.0
C886 C 0.50704 0.05029 0.6864 0.0
C887 C 0.50534 0.06128 0.66399 0.0
C888 C 0.49217 0.01346 0.66939 0.0
C889 C 0.49688 0.04768 0.64482 0.0
C890 C 0.47143 0.97784 0.65284 0.0
C891 C 0.4922 0.94938 0.68735 0.0
N892 N 0.49057 0.02465 0.648 0.0
N893 N 0.49523 0.97347 0.68771 0.0
H894 H 0.94425 0.53431 0.62406 0.0
H895 H 0.05772 0.48739 0.69591 0.0
H896 H 0.93603 0.5009 0.69271 0.0
H897 H 0.05299 0.49454 0.61954 0.0
H898 H 0.01543 0.49904 0.69884 0.0
H899 H 0.98704 0.52854 0.62676 0.0
C900 C 0.95148 0.52606 0.63991 0.0
C901 C 0.93644 0.51773 0.65801 0.0
C902 C 0.02382 0.49799 0.68153 0.0
C903 C 0.98566 0.51074 0.66105 0.0
C904 C 0.04787 0.49132 0.67982 0.0
C905 C 0.05896 0.48979 0.65743 0.0
C906 C 0.0111 0.50365 0.66076 0.0
C907 C 0.04533 0.4952 0.6372 0.0
C908 C 0.97595 0.52265 0.64137 0.0
C909 C 0.94697 0.5075 0.67829 0.0
N910 N 0.0223 0.50196 0.63939 0.0
N911 N 0.97099 0.50397 0.67916 0.0
H912 H 0.30921 0.48031 0.92763 0.0
H913 H 0.30384 0.51182 0.06512 0.0
H914 H 0.3338 0.54794 0.95428 0.0
H915 H 0.3351 0.44602 0.04096 0.0
H916 H 0.29876 0.52414 0.02353 0.0
H917 H 0.30304 0.46686 0.9688 0.0
C918 C 0.31274 0.4925 0.94214 0.0
C919 C 0.32208 0.51523 0.9377 0.0
C920 C 0.30619 0.50679 0.02745 0.0
C921 C 0.31464 0.50016 0.98436 0.0
C922 C 0.30891 0.49965 0.05106 0.0
C923 C 0.31994 0.47789 0.05638 0.0
C924 C 0.31395 0.49176 0.00915 0.0
C925 C 0.32658 0.46295 0.03752 0.0
C926 C 0.30934 0.48477 0.96549 0.0
C927 C 0.32667 0.53026 0.95706 0.0
N928 N 0.3235 0.47018 0.01465 0.0
N929 N 0.32285 0.52247 0.97963 0.0
H930 H 0.47172 0.37917 0.94201 0.0
H931 H 0.51089 0.3069 0.05822 0.0
H932 H 0.50389 0.30964 0.93662 0.0
H933 H 0.5001 0.38291 0.05448 0.0
H934 H 0.50309 0.30443 0.01512 0.0
H935 H 0.47499 0.37699 0.98502 0.0
C936 C 0.47926 0.36328 0.94988 0.0
C937 C 0.48786 0.34471 0.93559 0.0
C938 C 0.5025 0.32157 0.02388 0.0
C939 C 0.49197 0.34223 0.98517 0.0
C940 C 0.50698 0.32302 0.04842 0.0
C941 C 0.50628 0.34516 0.06008 0.0
C942 C 0.4969 0.34234 0.01113 0.0
C943 C 0.50103 0.36544 0.04644 0.0
C944 C 0.48123 0.36209 0.97451 0.0
C945 C 0.49711 0.32441 0.94695 0.0
N946 N 0.49647 0.36348 0.02286 0.0
N947 N 0.49919 0.32379 0.97113 0.0
H948 H 0.67309 0.44982 0.95967 0.0
H949 H 0.66324 0.55232 0.04856 0.0
H950 H 0.69183 0.52009 0.9353 0.0
H951 H 0.7003 0.48879 0.07047 0.0
H952 H 0.66992 0.54115 0.00681 0.0
H953 H 0.67939 0.46297 0.00088 0.0
C954 C 0.67894 0.46787 0.96304 0.0
C955 C 0.68208 0.48391 0.94422 0.0
C956 C 0.677 0.52998 0.02082 0.0
C957 C 0.68844 0.49916 0.99097 0.0
C958 C 0.67317 0.53629 0.04455 0.0
C959 C 0.68129 0.52146 0.06288 0.0
C960 C 0.68823 0.50832 0.01554 0.0
C961 C 0.69393 0.50079 0.05681 0.0
C962 C 0.68256 0.47533 0.98644 0.0
C963 C 0.68947 0.50718 0.9494 0.0
N964 N 0.69652 0.4945 0.03361 0.0
N965 N 0.69187 0.51433 0.97239 0.0
H966 H 0.4984 0.6937 0.94107 0.0
H967 H 0.48845 0.61717 0.05892 0.0
H968 H 0.5225 0.62109 0.94822 0.0
H969 H 0.49579 0.69353 0.06414 0.0
H970 H 0.49531 0.6197 0.01657 0.0
H971 H 0.49384 0.69572 0.98468 0.0
C972 C 0.50309 0.67835 0.95174 0.0
C973 C 0.51051 0.65706 0.94086 0.0
C974 C 0.49548 0.63596 0.0269 0.0
C975 C 0.50491 0.65918 0.99037 0.0
C976 C 0.49139 0.63459 0.05121 0.0
C977 C 0.49171 0.65517 0.06537 0.0
C978 C 0.49976 0.65809 0.01625 0.0
C979 C 0.49549 0.67718 0.05398 0.0
C980 C 0.50039 0.67952 0.97656 0.0
C981 C 0.51633 0.63776 0.95561 0.0
N982 N 0.49936 0.67809 0.03 0.0
N983 N 0.51313 0.63922 0.97944 0.0
H984 H 0.20526 0.28777 0.50434 0.0
H985 H 0.24045 0.14967 0.49918 0.0
H986 H 0.15257 0.23377 0.49008 0.0
H987 H 0.2891 0.20843 0.50826 0.0
H988 H 0.20726 0.17846 0.49695 0.0
H989 H 0.2353 0.25727 0.50802 0.0
C990 C 0.19997 0.26938 0.50204 0.0
C991 C 0.17638 0.26335 0.49672 0.0
C992 C 0.22526 0.18489 0.49941 0.0
C993 C 0.2111 0.22788 0.50071 0.0
C994 C 0.24416 0.16852 0.5006 0.0
C995 C 0.26759 0.17664 0.50395 0.0
C996 C 0.23 0.20937 0.50164 0.0
C997 C 0.27141 0.20122 0.50575 0.0
C998 C 0.21722 0.25186 0.50411 0.0
C999 C 0.1706 0.23915 0.4942 0.0
N1000 N 0.25291 0.21656 0.50461 0.0
N1001 N 0.18794 0.2222 0.49606 0.0
H1002 H 0.75593 0.15822 0.49657 0.0
H1003 H 0.78649 0.29545 0.51663 0.0
H1004 H 0.70364 0.21441 0.49414 0.0
H1005 H 0.84049 0.24339 0.50019 0.0
H1006 H 0.75602 0.26515 0.51126 0.0
H1007 H 0.78728 0.18824 0.50123 0.0
C1008 C 0.75103 0.17684 0.4972 0.0
C1009 C 0.72714 0.18385 0.495 0.0
C1010 C 0.7745 0.26031 0.50869 0.0
C1011 C 0.76283 0.21817 0.50022 0.0
C1012 C 0.79194 0.27762 0.51177 0.0
C1013 C 0.81607 0.27192 0.50885 0.0
C1014 C 0.78116 0.23697 0.5029 0.0
C1015 C 0.82206 0.24853 0.5025 0.0
C1016 C 0.76893 0.19395 0.49969 0.0
C1017 C 0.72181 0.2082 0.49576 0.0
N1018 N 0.8047 0.23181 0.49989 0.0
N1019 N 0.73949 0.22446 0.49836 0.0
H1020 H 0.78756 0.70773 0.48875 0.0
H1021 H 0.75797 0.84565 0.50098 0.0
H1022 H 0.84275 0.76016 0.49872 0.0
H1023 H 0.70694 0.78995 0.5148 0.0
H1024 H 0.78917 0.81536 0.49679 0.0
H1025 H 0.75763 0.73833 0.49536 0.0
C1026 C 0.79338 0.72573 0.49247 0.0
C1027 C 0.81766 0.73146 0.49316 0.0
C1028 C 0.77114 0.80984 0.50079 0.0
C1029 C 0.78339 0.76673 0.50047 0.0
C1030 C 0.75331 0.82706 0.50301 0.0
C1031 C 0.72982 0.82027 0.50816 0.0
C1032 C 0.76531 0.7857 0.50343 0.0
C1033 C 0.7248 0.79598 0.5108 0.0
C1034 C 0.77627 0.74319 0.49628 0.0
C1035 C 0.82418 0.75503 0.49814 0.0
N1036 N 0.74236 0.77959 0.50829 0.0
N1037 N 0.8071 0.77193 0.50139 0.0
H1038 H 0.15036 0.76604 0.50706 0.0
H1039 H 0.29034 0.79353 0.50603 0.0
H1040 H 0.2068 0.71421 0.51255 0.0
H1041 H 0.23873 0.84987 0.49872 0.0
H1042 H 0.25844 0.76512 0.51067 0.0
H1043 H 0.18076 0.79778 0.50509 0.0
C1044 C 0.16904 0.76133 0.50776 0.0
C1045 C 0.17603 0.73742 0.50997 0.0
C1046 C 0.25384 0.78365 0.50814 0.0
C1047 C 0.2106 0.77336 0.50797 0.0
C1048 C 0.27216 0.79995 0.50552 0.0
C1049 C 0.26719 0.82407 0.50181 0.0
C1050 C 0.23007 0.79127 0.50683 0.0
C1051 C 0.24326 0.83137 0.50159 0.0
C1052 C 0.18632 0.77941 0.50673 0.0
C1053 C 0.20044 0.73231 0.51089 0.0
N1054 N 0.22546 0.81494 0.50384 0.0
N1055 N 0.21667 0.75003 0.50991 0.0
H1056 H 0.4913 0.15173 0.23203 0.0
H1057 H 0.52714 0.28633 0.20245 0.0
H1058 H 0.50621 0.20684 0.28331 0.0
H1059 H 0.49379 0.24211 0.14926 0.0
H1060 H 0.52577 0.25365 0.23026 0.0
H1061 H 0.49759 0.18105 0.19975 0.0
C1062 C 0.49615 0.16984 0.23646 0.0
C1063 C 0.49811 0.17695 0.26034 0.0
C1064 C 0.51868 0.25091 0.21255 0.0
C1065 C 0.50539 0.21018 0.2239 0.0
C1066 C 0.51944 0.26967 0.19657 0.0
C1067 C 0.5102 0.26713 0.17355 0.0
C1068 C 0.50842 0.2292 0.20578 0.0
C1069 C 0.50092 0.24485 0.16693 0.0
C1070 C 0.49958 0.18653 0.21811 0.0
C1071 C 0.50428 0.2006 0.26519 0.0
N1072 N 0.50005 0.22669 0.1831 0.0
N1073 N 0.50768 0.21623 0.24722 0.0
H1074 H 0.85164 0.49534 0.24488 0.0
H1075 H 0.71263 0.50881 0.2155 0.0
H1076 H 0.79567 0.5023 0.29704 0.0
H1077 H 0.76547 0.50125 0.16029 0.0
H1078 H 0.74368 0.50532 0.24527 0.0
H1079 H 0.82136 0.497 0.21321 0.0
C1080 C 0.83307 0.4973 0.24966 0.0
C1081 C 0.82619 0.49869 0.27364 0.0
C1082 C 0.74862 0.50433 0.22668 0.0
C1083 C 0.79164 0.50044 0.23773 0.0
C1084 C 0.73081 0.50628 0.20962 0.0
C1085 C 0.73646 0.50539 0.18536 0.0
C1086 C 0.77244 0.50156 0.21957 0.0
C1087 C 0.76037 0.502 0.17884 0.0
C1088 C 0.81582 0.49816 0.23162 0.0
C1089 C 0.80189 0.50113 0.27885 0.0
N1090 N 0.77757 0.50032 0.19588 0.0
N1091 N 0.7856 0.50191 0.26111 0.0
H1092 H 0.49089 0.70885 0.21218 0.0
H1093 H 0.50413 0.84827 0.2385 0.0
H1094 H 0.50105 0.75888 0.15478 0.0
H1095 H 0.50187 0.79215 0.29086 0.0
H1096 H 0.50134 0.81781 0.20683 0.0
H1097 H 0.49317 0.74093 0.2404 0.0
C1098 C 0.49366 0.72669 0.20542 0.0
C1099 C 0.4958 0.73108 0.18097 0.0
C1100 C 0.50146 0.81234 0.2253 0.0
C1101 C 0.4985 0.76856 0.21375 0.0
C1102 C 0.50296 0.82966 0.24333 0.0
C1103 C 0.50327 0.82277 0.26738 0.0
C1104 C 0.50012 0.78812 0.23155 0.0
C1105 C 0.50179 0.79844 0.27266 0.0
C1106 C 0.49498 0.74515 0.22169 0.0
C1107 C 0.49938 0.75471 0.1735 0.0
N1108 N 0.50029 0.78218 0.255 0.0
N1109 N 0.5006 0.77267 0.18988 0.0
H1110 H 0.15657 0.50104 0.24431 0.0
H1111 H 0.29459 0.4922 0.21009 0.0
H1112 H 0.21477 0.51226 0.29318 0.0
H1113 H 0.23983 0.49726 0.1565 0.0
H1114 H 0.26451 0.49706 0.24078 0.0
H1115 H 0.18571 0.4969 0.21174 0.0
C1116 C 0.1754 0.50255 0.24819 0.0
C1117 C 0.18325 0.507 0.27147 0.0
C1118 C 0.25897 0.49724 0.22233 0.0
C1119 C 0.21644 0.50231 0.23459 0.0
C1120 C 0.2762 0.49446 0.20477 0.0
C1121 C 0.26972 0.49437 0.18071 0.0
C1122 C 0.23494 0.49975 0.21591 0.0
C1123 C 0.24557 0.49736 0.17488 0.0
C1124 C 0.19197 0.50031 0.22963 0.0
C1125 C 0.20782 0.5089 0.27553 0.0
N1126 N 0.22897 0.4998 0.1924 0.0
N1127 N 0.22344 0.50649 0.25735 0.0
H1128 H 0.50585 0.70663 0.79255 0.0
H1129 H 0.4945 0.84612 0.76593 0.0
H1130 H 0.49926 0.75755 0.84966 0.0
H1131 H 0.50677 0.79118 0.71374 0.0
H1132 H 0.49665 0.81562 0.79752 0.0
H1133 H 0.50598 0.73874 0.76413 0.0
C1134 C 0.50437 0.72466 0.79919 0.0
C1135 C 0.50252 0.72932 0.82362 0.0
C1136 C 0.49901 0.8104 0.77913 0.0
C1137 C 0.50271 0.76676 0.79068 0.0
C1138 C 0.49788 0.82777 0.76115 0.0
C1139 C 0.50028 0.82115 0.73715 0.0
C1140 C 0.5026 0.78641 0.77291 0.0
C1141 C 0.50456 0.79715 0.73192 0.0
C1142 C 0.50452 0.74313 0.78283 0.0
C1143 C 0.50069 0.75317 0.83096 0.0
N1144 N 0.50548 0.78079 0.74955 0.0
N1145 N 0.50079 0.77109 0.81452 0.0
H1146 H 0.2903 0.51265 0.78457 0.0
H1147 H 0.15155 0.4945 0.75767 0.0
H1148 H 0.24017 0.49587 0.84027 0.0
H1149 H 0.20714 0.49213 0.70473 0.0
H1150 H 0.18234 0.49881 0.78872 0.0
H1151 H 0.25861 0.50864 0.75536 0.0
C1152 C 0.27261 0.50796 0.79065 0.0
C1153 C 0.26789 0.50449 0.81487 0.0
C1154 C 0.18765 0.49735 0.77026 0.0
C1155 C 0.23128 0.50011 0.78144 0.0
C1156 C 0.17014 0.49505 0.75259 0.0
C1157 C 0.17682 0.49288 0.72863 0.0
C1158 C 0.21184 0.49779 0.76372 0.0
C1159 C 0.20113 0.49359 0.72297 0.0
C1160 C 0.25448 0.50569 0.77395 0.0
C1161 C 0.24458 0.49852 0.82171 0.0
N1162 N 0.21766 0.49601 0.74032 0.0
N1163 N 0.22704 0.49663 0.80506 0.0
H1164 H 0.49879 0.1551 0.76151 0.0
H1165 H 0.51302 0.29404 0.79004 0.0
H1166 H 0.5212 0.20929 0.7119 0.0
H1167 H 0.49613 0.24363 0.84543 0.0
H1168 H 0.51579 0.26183 0.76179 0.0
H1169 H 0.4971 0.18572 0.79303 0.0
C1170 C 0.50331 0.17333 0.75725 0.0
C1171 C 0.51008 0.17962 0.734 0.0
C1172 C 0.51153 0.25756 0.78009 0.0
C1173 C 0.50827 0.21446 0.76972 0.0
C1174 C 0.50992 0.27608 0.79632 0.0
C1175 C 0.50423 0.27158 0.82016 0.0
C1176 C 0.50728 0.23408 0.78748 0.0
C1177 C 0.5006 0.24784 0.82718 0.0
C1178 C 0.50241 0.19074 0.77521 0.0
C1179 C 0.51583 0.20347 0.72946 0.0
N1180 N 0.50204 0.22989 0.81084 0.0
N1181 N 0.51476 0.21985 0.74705 0.0
H1182 H 0.70785 0.48912 0.78987 0.0
H1183 H 0.84499 0.50908 0.75629 0.0
H1184 H 0.7608 0.50596 0.84285 0.0
H1185 H 0.78778 0.50214 0.7055 0.0
H1186 H 0.8155 0.50719 0.78869 0.0
H1187 H 0.73783 0.49349 0.75901 0.0
C1188 C 0.72581 0.49391 0.79501 0.0
C1189 C 0.73183 0.49716 0.81897 0.0
C1190 C 0.80951 0.50614 0.77042 0.0
C1191 C 0.76655 0.50197 0.78358 0.0
C1192 C 0.82631 0.50711 0.75196 0.0
C1193 C 0.81885 0.50573 0.72816 0.0
C1194 C 0.7852 0.50364 0.76491 0.0
C1195 C 0.79443 0.50328 0.72354 0.0
C1196 C 0.74298 0.49639 0.77734 0.0
C1197 C 0.75541 0.50339 0.82455 0.0
N1198 N 0.77859 0.50228 0.74168 0.0
N1199 N 0.772 0.50544 0.80697 0.0
loop_
_geom_bond_atom_site_label_1
_geom_bond_atom_site_label_2
_geom_bond_distance
_geom_bond_site_symmetry_2
_ccdc_geom_bond_type
Co0 O1 2.216 . S
Co0 O2 2.091 . S
Co0 O4 2.004 . S
Co0 O10 2.021 . S
Co0 O12 2.137 . S
Co0 O13 2.244 . S
O1 Co0 2.216 . S
O1 C8 1.247 . S
O2 Co0 2.091 . S
O2 C8 1.261 . S
C3 O12 1.247 . S
C3 O13 1.272 . S
O4 Co0 2.004 . S
O4 C9 1.259 . S
Co5 O6 2.061 . S
Co5 O11 2.052 . S
Co5 O13 2.135 . S
O6 Co5 2.061 . S
O6 C9 1.235 . S
C7 O10 1.238 . S
C7 O11 1.241 . S
C8 O1 1.247 . S
C8 O2 1.261 . S
C9 O4 1.259 . S
C9 O6 1.235 . S
O10 Co0 2.021 . S
O10 C7 1.238 . S
O11 Co5 2.052 . S
O11 C7 1.241 . S
O12 Co0 2.137 . S
O12 C3 1.247 . S
O13 Co0 2.244 . S
O13 C3 1.272 . S
O13 Co5 2.135 . S
Co14 O15 2.216 . S
Co14 O16 2.091 . S
Co14 O18 2.004 . S
Co14 O24 2.021 . S
Co14 O26 2.137 . S
Co14 O27 2.244 . S
O15 Co14 2.216 . S
O15 C22 1.247 . S
O16 Co14 2.091 . S
O16 C22 1.261 . S
C17 O26 1.247 . S
C17 O27 1.272 . S
O18 Co14 2.004 . S
O18 C23 1.259 . S
Co19 O20 2.061 . S
Co19 O25 2.052 . S
Co19 O27 2.135 . S
O20 Co19 2.061 . S
O20 C23 1.235 . S
C21 O24 1.238 . S
C21 O25 1.241 . S
C22 O15 1.247 . S
C22 O16 1.261 . S
C23 O18 1.259 . S
C23 O20 1.235 . S
O24 Co14 2.021 . S
O24 C21 1.238 . S
O25 Co19 2.052 . S
O25 C21 1.241 . S
O26 Co14 2.137 . S
O26 C17 1.247 . S
O27 Co14 2.244 . S
O27 C17 1.272 . S
O27 Co19 2.135 . S
Co28 O29 2.216 . S
Co28 O30 2.091 . S
Co28 O32 2.004 . S
Co28 O38 2.021 . S
Co28 O40 2.137 . S
Co28 O41 2.244 . S
O29 Co28 2.216 . S
O29 C36 1.247 . S
O30 Co28 2.091 . S
O30 C36 1.261 . S
C31 O40 1.247 . S
C31 O41 1.272 . S
O32 Co28 2.004 . S
O32 C37 1.259 . S
Co33 O34 2.061 . S
Co33 O39 2.052 . S
Co33 O41 2.135 . S
O34 Co33 2.061 . S
O34 C37 1.235 . S
C35 O38 1.238 . S
C35 O39 1.241 . S
C36 O29 1.247 . S
C36 O30 1.261 . S
C37 O32 1.259 . S
C37 O34 1.235 . S
O38 Co28 2.021 . S
O38 C35 1.238 . S
O39 Co33 2.052 . S
O39 C35 1.241 . S
O40 Co28 2.137 . S
O40 C31 1.247 . S
O41 Co28 2.244 . S
O41 C31 1.272 . S
O41 Co33 2.135 . S
Co42 O43 2.216 . S
Co42 O44 2.091 . S
Co42 O46 2.004 . S
Co42 O52 2.021 . S
Co42 O54 2.137 . S
Co42 O55 2.244 . S
O43 Co42 2.216 . S
O43 C50 1.247 . S
O44 Co42 2.091 . S
O44 C50 1.261 . S
C45 O54 1.247 . S
C45 O55 1.272 . S
O46 Co42 2.004 . S
O46 C51 1.259 . S
Co47 O48 2.061 . S
Co47 O53 2.052 . S
Co47 O55 2.135 . S
O48 Co47 2.061 . S
O48 C51 1.235 . S
C49 O52 1.238 . S
C49 O53 1.241 . S
C50 O43 1.247 . S
C50 O44 1.261 . S
C51 O46 1.259 . S
C51 O48 1.235 . S
O52 Co42 2.021 . S
O52 C49 1.238 . S
O53 Co47 2.052 . S
O53 C49 1.241 . S
O54 Co42 2.137 . S
O54 C45 1.247 . S
O55 Co42 2.244 . S
O55 C45 1.272 . S
O55 Co47 2.135 . S
Co56 O57 2.216 . S
Co56 O58 2.091 . S
Co56 O60 2.004 . S
Co56 O66 2.021 . S
Co56 O68 2.137 . S
Co56 O69 2.244 . S
O57 Co56 2.216 . S
O57 C64 1.247 . S
O58 Co56 2.091 . S
O58 C64 1.261 . S
C59 O68 1.247 . S
C59 O69 1.272 . S
O60 Co56 2.004 . S
O60 C65 1.259 . S
Co61 O62 2.061 . S
Co61 O67 2.052 . S
Co61 O69 2.135 . S
O62 Co61 2.061 . S
O62 C65 1.235 . S
C63 O66 1.238 . S
C63 O67 1.241 . S
C64 O57 1.247 . S
C64 O58 1.261 . S
C65 O60 1.259 . S
C65 O62 1.235 . S
O66 Co56 2.021 . S
O66 C63 1.238 . S
O67 Co61 2.052 . S
O67 C63 1.241 . S
O68 Co56 2.137 . S
O68 C59 1.247 . S
O69 Co56 2.244 . S
O69 C59 1.272 . S
O69 Co61 2.135 . S
Co70 O71 2.216 . S
Co70 O72 2.091 . S
Co70 O74 2.004 . S
Co70 O80 2.021 . S
Co70 O82 2.137 . S
Co70 O83 2.244 . S
O71 Co70 2.216 . S
O71 C78 1.247 . S
O72 Co70 2.091 . S
O72 C78 1.261 . S
C73 O82 1.247 . S
C73 O83 1.272 . S
O74 Co70 2.004 . S
O74 C79 1.259 . S
Co75 O76 2.061 . S
Co75 O81 2.052 . S
Co75 O83 2.135 . S
O76 Co75 2.061 . S
O76 C79 1.235 . S
C77 O80 1.238 . S
C77 O81 1.241 . S
C78 O71 1.247 . S
C78 O72 1.261 . S
C79 O74 1.259 . S
C79 O76 1.235 . S
O80 Co70 2.021 . S
O80 C77 1.238 . S
O81 Co75 2.052 . S
O81 C77 1.241 . S
O82 Co70 2.137 . S
O82 C73 1.247 . S
O83 Co70 2.244 . S
O83 C73 1.272 . S
O83 Co75 2.135 . S
Co84 O85 2.216 . S
Co84 O86 2.091 . S
Co84 O88 2.004 . S
Co84 O94 2.021 . S
Co84 O96 2.137 . S
Co84 O97 2.244 . S
O85 Co84 2.216 . S
O85 C92 1.247 . S
O86 Co84 2.091 . S
O86 C92 1.261 . S
C87 O96 1.247 . S
C87 O97 1.272 . S
O88 Co84 2.004 . S
O88 C93 1.259 . S
Co89 O90 2.061 . S
Co89 O95 2.052 . S
Co89 O97 2.135 . S
O90 Co89 2.061 . S
O90 C93 1.235 . S
C91 O94 1.238 . S
C91 O95 1.241 . S
C92 O85 1.247 . S
C92 O86 1.261 . S
C93 O88 1.259 . S
C93 O90 1.235 . S
O94 Co84 2.021 . S
O94 C91 1.238 . S
O95 Co89 2.052 . S
O95 C91 1.241 . S
O96 Co84 2.137 . S
O96 C87 1.247 . S
O97 Co84 2.244 . S
O97 C87 1.272 . S
O97 Co89 2.135 . S
Co98 O99 2.216 . S
Co98 O100 2.091 . S
Co98 O102 2.004 . S
Co98 O108 2.021 . S
Co98 O110 2.137 . S
Co98 O111 2.244 . S
O99 Co98 2.216 . S
O99 C106 1.247 . S
O100 Co98 2.091 . S
O100 C106 1.261 . S
C101 O110 1.247 . S
C101 O111 1.272 . S
O102 Co98 2.004 . S
O102 C107 1.259 . S
Co103 O104 2.061 . S
Co103 O109 2.052 . S
Co103 O111 2.135 . S
O104 Co103 2.061 . S
O104 C107 1.235 . S
C105 O108 1.238 . S
C105 O109 1.241 . S
C106 O99 1.247 . S
C106 O100 1.261 . S
C107 O102 1.259 . S
C107 O104 1.235 . S
O108 Co98 2.021 . S
O108 C105 1.238 . S
O109 Co103 2.052 . S
O109 C105 1.241 . S
O110 Co98 2.137 . S
O110 C101 1.247 . S
O111 Co98 2.244 . S
O111 C101 1.272 . S
O111 Co103 2.135 . S
Co112 O113 2.216 . S
Co112 O114 2.091 . S
Co112 O116 2.004 . S
Co112 O122 2.021 . S
Co112 O124 2.137 . S
Co112 O125 2.244 . S
O113 Co112 2.216 . S
O113 C120 1.247 . S
O114 Co112 2.091 . S
O114 C120 1.261 . S
C115 O124 1.247 . S
C115 O125 1.272 . S
O116 Co112 2.004 . S
O116 C121 1.259 . S
Co117 O118 2.061 . S
Co117 O123 2.052 . S
Co117 O125 2.135 . S
O118 Co117 2.061 . S
O118 C121 1.235 . S
C119 O122 1.238 . S
C119 O123 1.241 . S
C120 O113 1.247 . S
C120 O114 1.261 . S
C121 O116 1.259 . S
C121 O118 1.235 . S
O122 Co112 2.021 . S
O122 C119 1.238 . S
O123 Co117 2.052 . S
O123 C119 1.241 . S
O124 Co112 2.137 . S
O124 C115 1.247 . S
O125 Co112 2.244 . S
O125 C115 1.272 . S
O125 Co117 2.135 . S
Co126 O127 2.216 . S
Co126 O128 2.091 . S
Co126 O130 2.004 . S
Co126 O136 2.021 . S
Co126 O138 2.137 . S
Co126 O139 2.244 . S
O127 Co126 2.216 . S
O127 C134 1.247 . S
O128 Co126 2.091 . S
O128 C134 1.261 . S
C129 O138 1.247 . S
C129 O139 1.272 . S
O130 Co126 2.004 . S
O130 C135 1.259 . S
Co131 O132 2.061 . S
Co131 O137 2.052 . S
Co131 O139 2.135 . S
O132 Co131 2.061 . S
O132 C135 1.235 . S
C133 O136 1.238 . S
C133 O137 1.241 . S
C134 O127 1.247 . S
C134 O128 1.261 . S
C135 O130 1.259 . S
C135 O132 1.235 . S
O136 Co126 2.021 . S
O136 C133 1.238 . S
O137 Co131 2.052 . S
O137 C133 1.241 . S
O138 Co126 2.137 . S
O138 C129 1.247 . S
O139 Co126 2.244 . S
O139 C129 1.272 . S
O139 Co131 2.135 . S
Co140 O141 2.216 . S
Co140 O142 2.091 . S
Co140 O144 2.004 . S
Co140 O150 2.021 . S
Co140 O152 2.137 . S
Co140 O153 2.244 . S
O141 Co140 2.216 . S
O141 C148 1.247 . S
O142 Co140 2.091 . S
O142 C148 1.261 . S
C143 O152 1.247 . S
C143 O153 1.272 . S
O144 Co140 2.004 . S
O144 C149 1.259 . S
Co145 O146 2.061 . S
Co145 O151 2.052 . S
Co145 O153 2.135 . S
O146 Co145 2.061 . S
O146 C149 1.235 . S
C147 O150 1.238 . S
C147 O151 1.241 . S
C148 O141 1.247 . S
C148 O142 1.261 . S
C149 O144 1.259 . S
C149 O146 1.235 . S
O150 Co140 2.021 . S
O150 C147 1.238 . S
O151 Co145 2.052 . S
O151 C147 1.241 . S
O152 Co140 2.137 . S
O152 C143 1.247 . S
O153 Co140 2.244 . S
O153 C143 1.272 . S
O153 Co145 2.135 . S
Co154 O155 2.216 . S
Co154 O156 2.091 . S
Co154 O158 2.004 . S
Co154 O164 2.021 . S
Co154 O166 2.137 . S
Co154 O167 2.244 . S
O155 Co154 2.216 . S
O155 C162 1.247 . S
O156 Co154 2.091 . S
O156 C162 1.261 . S
C157 O166 1.247 . S
C157 O167 1.272 . S
O158 Co154 2.004 . S
O158 C163 1.259 . S
Co159 O160 2.061 . S
Co159 O165 2.052 . S
Co159 O167 2.135 . S
O160 Co159 2.061 . S
O160 C163 1.235 . S
C161 O164 1.238 . S
C161 O165 1.241 . S
C162 O155 1.247 . S
C162 O156 1.261 . S
C163 O158 1.259 . S
C163 O160 1.235 . S
O164 Co154 2.021 . S
O164 C161 1.238 . S
O165 Co159 2.052 . S
O165 C161 1.241 . S
O166 Co154 2.137 . S
O166 C157 1.247 . S
O167 Co154 2.244 . S
O167 C157 1.272 . S
O167 Co159 2.135 . S
Co168 O169 2.216 . S
Co168 O170 2.091 . S
Co168 O172 2.004 . S
Co168 O178 2.021 . S
Co168 O180 2.137 . S
Co168 O181 2.244 . S
O169 Co168 2.216 . S
O169 C176 1.247 . S
O170 Co168 2.091 . S
O170 C176 1.261 . S
C171 O180 1.247 . S
C171 O181 1.272 . S
O172 Co168 2.004 . S
O172 C177 1.259 . S
Co173 O174 2.061 . S
Co173 O179 2.052 . S
Co173 O181 2.135 . S
O174 Co173 2.061 . S
O174 C177 1.235 . S
C175 O178 1.238 . S
C175 O179 1.241 . S
C176 O169 1.247 . S
C176 O170 1.261 . S
C177 O172 1.259 . S
C177 O174 1.235 . S
O178 Co168 2.021 . S
O178 C175 1.238 . S
O179 Co173 2.052 . S
O179 C175 1.241 . S
O180 Co168 2.137 . S
O180 C171 1.247 . S
O181 Co168 2.244 . S
O181 C171 1.272 . S
O181 Co173 2.135 . S
Co182 O183 2.216 . S
Co182 O184 2.091 . S
Co182 O186 2.004 . S
Co182 O192 2.021 . S
Co182 O194 2.137 . S
Co182 O195 2.244 . S
O183 Co182 2.216 . S
O183 C190 1.247 . S
O184 Co182 2.091 . S
O184 C190 1.261 . S
C185 O194 1.247 . S
C185 O195 1.272 . S
O186 Co182 2.004 . S
O186 C191 1.259 . S
Co187 O188 2.061 . S
Co187 O193 2.052 . S
Co187 O195 2.135 . S
O188 Co187 2.061 . S
O188 C191 1.235 . S
C189 O192 1.238 . S
C189 O193 1.241 . S
C190 O183 1.247 . S
C190 O184 1.261 . S
C191 O186 1.259 . S
C191 O188 1.235 . S
O192 Co182 2.021 . S
O192 C189 1.238 . S
O193 Co187 2.052 . S
O193 C189 1.241 . S
O194 Co182 2.137 . S
O194 C185 1.247 . S
O195 Co182 2.244 . S
O195 C185 1.272 . S
O195 Co187 2.135 . S
Co196 O197 2.216 . S
Co196 O198 2.091 . S
Co196 O200 2.004 . S
Co196 O206 2.021 . S
Co196 O208 2.137 . S
Co196 O209 2.244 . S
O197 Co196 2.216 . S
O197 C204 1.247 . S
O198 Co196 2.091 . S
O198 C204 1.261 . S
C199 O208 1.247 . S
C199 O209 1.272 . S
O200 Co196 2.004 . S
O200 C205 1.259 . S
Co201 O202 2.061 . S
Co201 O207 2.052 . S
Co201 O209 2.135 . S
O202 Co201 2.061 . S
O202 C205 1.235 . S
C203 O206 1.238 . S
C203 O207 1.241 . S
C204 O197 1.247 . S
C204 O198 1.261 . S
C205 O200 1.259 . S
C205 O202 1.235 . S
O206 Co196 2.021 . S
O206 C203 1.238 . S
O207 Co201 2.052 . S
O207 C203 1.241 . S
O208 Co196 2.137 . S
O208 C199 1.247 . S
O209 Co196 2.244 . S
O209 C199 1.272 . S
O209 Co201 2.135 . S
Co210 O211 2.216 . S
Co210 O212 2.091 . S
Co210 O214 2.004 . S
Co210 O220 2.021 . S
Co210 O222 2.137 . S
Co210 O223 2.244 . S
O211 Co210 2.216 . S
O211 C218 1.247 . S
O212 Co210 2.091 . S
O212 C218 1.261 . S
C213 O222 1.247 . S
C213 O223 1.272 . S
O214 Co210 2.004 . S
O214 C219 1.259 . S
Co215 O216 2.061 . S
Co215 O221 2.052 . S
Co215 O223 2.135 . S
O216 Co215 2.061 . S
O216 C219 1.235 . S
C217 O220 1.238 . S
C217 O221 1.241 . S
C218 O211 1.247 . S
C218 O212 1.261 . S
C219 O214 1.259 . S
C219 O216 1.235 . S
O220 Co210 2.021 . S
O220 C217 1.238 . S
O221 Co215 2.052 . S
O221 C217 1.241 . S
O222 Co210 2.137 . S
O222 C213 1.247 . S
O223 Co210 2.244 . S
O223 C213 1.272 . S
O223 Co215 2.135 . S
Co224 O225 2.216 . S
Co224 O226 2.091 . S
Co224 O228 2.004 . S
Co224 O234 2.021 . S
Co224 O236 2.137 . S
Co224 O237 2.244 . S
O225 Co224 2.216 . S
O225 C232 1.247 . S
O226 Co224 2.091 . S
O226 C232 1.261 . S
C227 O236 1.247 . S
C227 O237 1.272 . S
O228 Co224 2.004 . S
O228 C233 1.259 . S
Co229 O230 2.061 . S
Co229 O235 2.052 . S
Co229 O237 2.135 . S
O230 Co229 2.061 . S
O230 C233 1.235 . S
C231 O234 1.238 . S
C231 O235 1.241 . S
C232 O225 1.247 . S
C232 O226 1.261 . S
C233 O228 1.259 . S
C233 O230 1.235 . S
O234 Co224 2.021 . S
O234 C231 1.238 . S
O235 Co229 2.052 . S
O235 C231 1.241 . S
O236 Co224 2.137 . S
O236 C227 1.247 . S
O237 Co224 2.244 . S
O237 C227 1.272 . S
O237 Co229 2.135 . S
Co238 O239 2.216 . S
Co238 O240 2.091 . S
Co238 O242 2.004 . S
Co238 O248 2.021 . S
Co238 O250 2.137 . S
Co238 O251 2.244 . S
O239 Co238 2.216 . S
O239 C246 1.247 . S
O240 Co238 2.091 . S
O240 C246 1.261 . S
C241 O250 1.247 . S
C241 O251 1.272 . S
O242 Co238 2.004 . S
O242 C247 1.259 . S
Co243 O244 2.061 . S
Co243 O249 2.052 . S
Co243 O251 2.135 . S
O244 Co243 2.061 . S
O244 C247 1.235 . S
C245 O248 1.238 . S
C245 O249 1.241 . S
C246 O239 1.247 . S
C246 O240 1.261 . S
C247 O242 1.259 . S
C247 O244 1.235 . S
O248 Co238 2.021 . S
O248 C245 1.238 . S
O249 Co243 2.052 . S
O249 C245 1.241 . S
O250 Co238 2.137 . S
O250 C241 1.247 . S
O251 Co238 2.244 . S
O251 C241 1.272 . S
O251 Co243 2.135 . S
Co252 O253 2.216 . S
Co252 O254 2.091 . S
Co252 O256 2.004 . S
Co252 O262 2.021 . S
Co252 O264 2.137 . S
Co252 O265 2.244 . S
O253 Co252 2.216 . S
O253 C260 1.247 . S
O254 Co252 2.091 . S
O254 C260 1.261 . S
C255 O264 1.247 . S
C255 O265 1.272 . S
O256 Co252 2.004 . S
O256 C261 1.259 . S
Co257 O258 2.061 . S
Co257 O263 2.052 . S
Co257 O265 2.135 . S
O258 Co257 2.061 . S
O258 C261 1.235 . S
C259 O262 1.238 . S
C259 O263 1.241 . S
C260 O253 1.247 . S
C260 O254 1.261 . S
C261 O256 1.259 . S
C261 O258 1.235 . S
O262 Co252 2.021 . S
O262 C259 1.238 . S
O263 Co257 2.052 . S
O263 C259 1.241 . S
O264 Co252 2.137 . S
O264 C255 1.247 . S
O265 Co252 2.244 . S
O265 C255 1.272 . S
O265 Co257 2.135 . S
Co266 O267 2.216 . S
Co266 O268 2.091 . S
Co266 O270 2.004 . S
Co266 O276 2.021 . S
Co266 O278 2.137 . S
Co266 O279 2.244 . S
O267 Co266 2.216 . S
O267 C274 1.247 . S
O268 Co266 2.091 . S
O268 C274 1.261 . S
C269 O278 1.247 . S
C269 O279 1.272 . S
O270 Co266 2.004 . S
O270 C275 1.259 . S
Co271 O272 2.061 . S
Co271 O277 2.052 . S
Co271 O279 2.135 . S
O272 Co271 2.061 . S
O272 C275 1.235 . S
C273 O276 1.238 . S
C273 O277 1.241 . S
C274 O267 1.247 . S
C274 O268 1.261 . S
C275 O270 1.259 . S
C275 O272 1.235 . S
O276 Co266 2.021 . S
O276 C273 1.238 . S
O277 Co271 2.052 . S
O277 C273 1.241 . S
O278 Co266 2.137 . S
O278 C269 1.247 . S
O279 Co266 2.244 . S
O279 C269 1.272 . S
O279 Co271 2.135 . S
Co280 O281 2.216 . S
Co280 O282 2.091 . S
Co280 O284 2.004 . S
Co280 O290 2.021 . S
Co280 O292 2.137 . S
Co280 O293 2.244 . S
O281 Co280 2.216 . S
O281 C288 1.247 . S
O282 Co280 2.091 . S
O282 C288 1.261 . S
C283 O292 1.247 . S
C283 O293 1.272 . S
O284 Co280 2.004 . S
O284 C289 1.259 . S
Co285 O286 2.061 . S
Co285 O291 2.052 . S
Co285 O293 2.135 . S
O286 Co285 2.061 . S
O286 C289 1.235 . S
C287 O290 1.238 . S
C287 O291 1.241 . S
C288 O281 1.247 . S
C288 O282 1.261 . S
C289 O284 1.259 . S
C289 O286 1.235 . S
O290 Co280 2.021 . S
O290 C287 1.238 . S
O291 Co285 2.052 . S
O291 C287 1.241 . S
O292 Co280 2.137 . S
O292 C283 1.247 . S
O293 Co280 2.244 . S
O293 C283 1.272 . S
O293 Co285 2.135 . S
Co294 O295 2.216 . S
Co294 O296 2.091 . S
Co294 O298 2.004 . S
Co294 O304 2.021 . S
Co294 O306 2.137 . S
Co294 O307 2.244 . S
O295 Co294 2.216 . S
O295 C302 1.247 . S
O296 Co294 2.091 . S
O296 C302 1.261 . S
C297 O306 1.247 . S
C297 O307 1.272 . S
O298 Co294 2.004 . S
O298 C303 1.259 . S
Co299 O300 2.061 . S
Co299 O305 2.052 . S
Co299 O307 2.135 . S
O300 Co299 2.061 . S
O300 C303 1.235 . S
C301 O304 1.238 . S
C301 O305 1.241 . S
C302 O295 1.247 . S
C302 O296 1.261 . S
C303 O298 1.259 . S
C303 O300 1.235 . S
O304 Co294 2.021 . S
O304 C301 1.238 . S
O305 Co299 2.052 . S
O305 C301 1.241 . S
O306 Co294 2.137 . S
O306 C297 1.247 . S
O307 Co294 2.244 . S
O307 C297 1.272 . S
O307 Co299 2.135 . S
Co308 O309 2.216 . S
Co308 O310 2.091 . S
Co308 O312 2.004 . S
Co308 O318 2.021 . S
Co308 O320 2.137 . S
Co308 O321 2.244 . S
O309 Co308 2.216 . S
O309 C316 1.247 . S
O310 Co308 2.091 . S
O310 C316 1.261 . S
C311 O320 1.247 . S
C311 O321 1.272 . S
O312 Co308 2.004 . S
O312 C317 1.259 . S
Co313 O314 2.061 . S
Co313 O319 2.052 . S
Co313 O321 2.135 . S
O314 Co313 2.061 . S
O314 C317 1.235 . S
C315 O318 1.238 . S
C315 O319 1.241 . S
C316 O309 1.247 . S
C316 O310 1.261 . S
C317 O312 1.259 . S
C317 O314 1.235 . S
O318 Co308 2.021 . S
O318 C315 1.238 . S
O319 Co313 2.052 . S
O319 C315 1.241 . S
O320 Co308 2.137 . S
O320 C311 1.247 . S
O321 Co308 2.244 . S
O321 C311 1.272 . S
O321 Co313 2.135 . S
Co322 O323 2.216 . S
Co322 O324 2.091 . S
Co322 O326 2.004 . S
Co322 O332 2.021 . S
Co322 O334 2.137 . S
Co322 O335 2.244 . S
O323 Co322 2.216 . S
O323 C330 1.247 . S
O324 Co322 2.091 . S
O324 C330 1.261 . S
C325 O334 1.247 . S
C325 O335 1.272 . S
O326 Co322 2.004 . S
O326 C331 1.259 . S
Co327 O328 2.061 . S
Co327 O333 2.052 . S
Co327 O335 2.135 . S
O328 Co327 2.061 . S
O328 C331 1.235 . S
C329 O332 1.238 . S
C329 O333 1.241 . S
C330 O323 1.247 . S
C330 O324 1.261 . S
C331 O326 1.259 . S
C331 O328 1.235 . S
O332 Co322 2.021 . S
O332 C329 1.238 . S
O333 Co327 2.052 . S
O333 C329 1.241 . S
O334 Co322 2.137 . S
O334 C325 1.247 . S
O335 Co322 2.244 . S
O335 C325 1.272 . S
O335 Co327 2.135 . S
H336 C342 0.930 . S
H337 C346 0.930 . S
H338 C351 0.929 . S
H339 C349 0.929 . S
H340 C344 0.929 . S
H341 C350 0.929 . S
C342 H336 0.930 . S
C342 C343 1.367 . S
C342 C350 1.378 . S
C343 C342 1.367 . S
C343 C351 1.433 . S
C344 H340 0.929 . S
C344 C346 1.378 . S
C344 C348 1.350 . S
C345 C348 1.463 . S
C345 C350 1.350 . S
C345 N353 1.427 . S
C346 H337 0.930 . S
C346 C344 1.378 . S
C346 C347 1.367 . S
C347 C346 1.367 . S
C347 C349 1.433 . S
C348 C344 1.350 . S
C348 C345 1.463 . S
C348 N352 1.427 . S
C349 H339 0.929 . S
C349 C347 1.433 . S
C349 N352 1.384 . S
C350 H341 0.929 . S
C350 C342 1.378 . S
C350 C345 1.350 . S
C351 H338 0.929 . S
C351 C343 1.433 . S
C351 N353 1.384 . S
N352 C348 1.427 . S
N352 C349 1.384 . S
N353 C345 1.427 . S
N353 C351 1.384 . S
H354 C360 0.930 . S
H355 C364 0.930 . S
H356 C369 0.929 . S
H357 C367 0.929 . S
H358 C362 0.929 . S
H359 C368 0.929 . S
C360 H354 0.930 . S
C360 C361 1.367 . S
C360 C368 1.378 . S
C361 C360 1.367 . S
C361 C369 1.433 . S
C362 H358 0.929 . S
C362 C364 1.378 . S
C362 C366 1.350 . S
C363 C366 1.463 . S
C363 C368 1.350 . S
C363 N371 1.427 . S
C364 H355 0.930 . S
C364 C362 1.378 . S
C364 C365 1.367 . S
C365 C364 1.367 . S
C365 C367 1.433 . S
C366 C362 1.350 . S
C366 C363 1.463 . S
C366 N370 1.427 . S
C367 H357 0.929 . S
C367 C365 1.433 . S
C367 N370 1.384 . S
C368 H359 0.929 . S
C368 C360 1.378 . S
C368 C363 1.350 . S
C369 H356 0.929 . S
C369 C361 1.433 . S
C369 N371 1.384 . S
N370 C366 1.427 . S
N370 C367 1.384 . S
N371 C363 1.427 . S
N371 C369 1.384 . S
H372 C378 0.930 . S
H373 C382 0.930 . S
H374 C387 0.929 . S
H375 C385 0.929 . S
H376 C380 0.929 . S
H377 C386 0.929 . S
C378 H372 0.930 . S
C378 C379 1.367 . S
C378 C386 1.378 . S
C379 C378 1.367 . S
C379 C387 1.433 . S
C380 H376 0.929 . S
C380 C382 1.378 . S
C380 C384 1.350 . S
C381 C384 1.463 . S
C381 C386 1.350 . S
C381 N389 1.427 . S
C382 H373 0.930 . S
C382 C380 1.378 . S
C382 C383 1.367 . S
C383 C382 1.367 . S
C383 C385 1.433 . S
C384 C380 1.350 . S
C384 C381 1.463 . S
C384 N388 1.427 . S
C385 H375 0.929 . S
C385 C383 1.433 . S
C385 N388 1.384 . S
C386 H377 0.929 . S
C386 C378 1.378 . S
C386 C381 1.350 . S
C387 H374 0.929 . S
C387 C379 1.433 . S
C387 N389 1.384 . S
N388 C384 1.427 . S
N388 C385 1.384 . S
N389 C381 1.427 . S
N389 C387 1.384 . S
H390 C396 0.930 . S
H391 C400 0.930 . S
H392 C405 0.929 . S
H393 C403 0.929 . S
H394 C398 0.929 . S
H395 C404 0.929 . S
C396 H390 0.930 . S
C396 C397 1.367 . S
C396 C404 1.378 . S
C397 C396 1.367 . S
C397 C405 1.433 . S
C398 H394 0.929 . S
C398 C400 1.378 . S
C398 C402 1.350 . S
C399 C402 1.463 . S
C399 C404 1.350 . S
C399 N407 1.427 . S
C400 H391 0.930 . S
C400 C398 1.378 . S
C400 C401 1.367 . S
C401 C400 1.367 . S
C401 C403 1.433 . S
C402 C398 1.350 . S
C402 C399 1.463 . S
C402 N406 1.427 . S
C403 H393 0.929 . S
C403 C401 1.433 . S
C403 N406 1.384 . S
C404 H395 0.929 . S
C404 C396 1.378 . S
C404 C399 1.350 . S
C405 H392 0.929 . S
C405 C397 1.433 . S
C405 N407 1.384 . S
N406 C402 1.427 . S
N406 C403 1.384 . S
N407 C399 1.427 . S
N407 C405 1.384 . S
H408 C414 0.930 . S
H409 C418 0.930 . S
H410 C423 0.929 . S
H411 C421 0.929 . S
H412 C416 0.929 . S
H413 C422 0.929 . S
C414 H408 0.930 . S
C414 C415 1.367 . S
C414 C422 1.378 . S
C415 C414 1.367 . S
C415 C423 1.433 . S
C416 H412 0.929 . S
C416 C418 1.378 . S
C416 C420 1.350 . S
C417 C420 1.463 . S
C417 C422 1.350 . S
C417 N425 1.427 . S
C418 H409 0.930 . S
C418 C416 1.378 . S
C418 C419 1.367 . S
C419 C418 1.367 . S
C419 C421 1.433 . S
C420 C416 1.350 . S
C420 C417 1.463 . S
C420 N424 1.427 . S
C421 H411 0.929 . S
C421 C419 1.433 . S
C421 N424 1.384 . S
C422 H413 0.929 . S
C422 C414 1.378 . S
C422 C417 1.350 . S
C423 H410 0.929 . S
C423 C415 1.433 . S
C423 N425 1.384 . S
N424 C420 1.427 . S
N424 C421 1.384 . S
N425 C417 1.427 . S
N425 C423 1.384 . S
H426 C432 0.930 . S
H427 C436 0.930 . S
H428 C441 0.929 . S
H429 C439 0.929 . S
H430 C434 0.929 . S
H431 C440 0.929 . S
C432 H426 0.930 . S
C432 C433 1.367 . S
C432 C440 1.378 . S
C433 C432 1.367 . S
C433 C441 1.433 . S
C434 H430 0.929 . S
C434 C436 1.378 . S
C434 C438 1.350 . S
C435 C438 1.463 . S
C435 C440 1.350 . S
C435 N443 1.427 . S
C436 H427 0.930 . S
C436 C434 1.378 . S
C436 C437 1.367 . S
C437 C436 1.367 . S
C437 C439 1.433 . S
C438 C434 1.350 . S
C438 C435 1.463 . S
C438 N442 1.427 . S
C439 H429 0.929 . S
C439 C437 1.433 . S
C439 N442 1.384 . S
C440 H431 0.929 . S
C440 C432 1.378 . S
C440 C435 1.350 . S
C441 H428 0.929 . S
C441 C433 1.433 . S
C441 N443 1.384 . S
N442 C438 1.427 . S
N442 C439 1.384 . S
N443 C435 1.427 . S
N443 C441 1.384 . S
H444 C450 0.930 . S
H445 C454 0.930 . S
H446 C459 0.929 . S
H447 C457 0.929 . S
H448 C452 0.929 . S
H449 C458 0.929 . S
C450 H444 0.930 . S
C450 C451 1.367 . S
C450 C458 1.378 . S
C451 C450 1.367 . S
C451 C459 1.433 . S
C452 H448 0.929 . S
C452 C454 1.378 . S
C452 C456 1.350 . S
C453 C456 1.463 . S
C453 C458 1.350 . S
C453 N461 1.427 . S
C454 H445 0.930 . S
C454 C452 1.378 . S
C454 C455 1.367 . S
C455 C454 1.367 . S
C455 C457 1.433 . S
C456 C452 1.350 . S
C456 C453 1.463 . S
C456 N460 1.427 . S
C457 H447 0.929 . S
C457 C455 1.433 . S
C457 N460 1.384 . S
C458 H449 0.929 . S
C458 C450 1.378 . S
C458 C453 1.350 . S
C459 H446 0.929 . S
C459 C451 1.433 . S
C459 N461 1.384 . S
N460 C456 1.427 . S
N460 C457 1.384 . S
N461 C453 1.427 . S
N461 C459 1.384 . S
H462 C468 0.930 . S
H463 C472 0.930 . S
H464 C477 0.929 . S
H465 C475 0.929 . S
H466 C470 0.929 . S
H467 C476 0.929 . S
C468 H462 0.930 . S
C468 C469 1.367 . S
C468 C476 1.378 . S
C469 C468 1.367 . S
C469 C477 1.433 . S
C470 H466 0.929 . S
C470 C472 1.378 . S
C470 C474 1.350 . S
C471 C474 1.463 . S
C471 C476 1.350 . S
C471 N479 1.427 . S
C472 H463 0.930 . S
C472 C470 1.378 . S
C472 C473 1.367 . S
C473 C472 1.367 . S
C473 C475 1.433 . S
C474 C470 1.350 . S
C474 C471 1.463 . S
C474 N478 1.427 . S
C475 H465 0.929 . S
C475 C473 1.433 . S
C475 N478 1.384 . S
C476 H467 0.929 . S
C476 C468 1.378 . S
C476 C471 1.350 . S
C477 H464 0.929 . S
C477 C469 1.433 . S
C477 N479 1.384 . S
N478 C474 1.427 . S
N478 C475 1.384 . S
N479 C471 1.427 . S
N479 C477 1.384 . S
H480 C486 0.930 . S
H481 C490 0.930 . S
H482 C495 0.929 . S
H483 C493 0.929 . S
H484 C488 0.929 . S
H485 C494 0.929 . S
C486 H480 0.930 . S
C486 C487 1.367 . S
C486 C494 1.378 . S
C487 C486 1.367 . S
C487 C495 1.433 . S
C488 H484 0.929 . S
C488 C490 1.378 . S
C488 C492 1.350 . S
C489 C492 1.463 . S
C489 C494 1.350 . S
C489 N497 1.427 . S
C490 H481 0.930 . S
C490 C488 1.378 . S
C490 C491 1.367 . S
C491 C490 1.367 . S
C491 C493 1.433 . S
C492 C488 1.350 . S
C492 C489 1.463 . S
C492 N496 1.427 . S
C493 H483 0.929 . S
C493 C491 1.433 . S
C493 N496 1.384 . S
C494 H485 0.929 . S
C494 C486 1.378 . S
C494 C489 1.350 . S
C495 H482 0.929 . S
C495 C487 1.433 . S
C495 N497 1.384 . S
N496 C492 1.427 . S
N496 C493 1.384 . S
N497 C489 1.427 . S
N497 C495 1.384 . S
H498 C504 0.930 . S
H499 C508 0.930 . S
H500 C513 0.929 . S
H501 C511 0.929 . S
H502 C506 0.929 . S
H503 C512 0.929 . S
C504 H498 0.930 . S
C504 C505 1.367 . S
C504 C512 1.378 . S
C505 C504 1.367 . S
C505 C513 1.433 . S
C506 H502 0.929 . S
C506 C508 1.378 . S
C506 C510 1.350 . S
C507 C510 1.463 . S
C507 C512 1.350 . S
C507 N515 1.427 . S
C508 H499 0.930 . S
C508 C506 1.378 . S
C508 C509 1.367 . S
C509 C508 1.367 . S
C509 C511 1.433 . S
C510 C506 1.350 . S
C510 C507 1.463 . S
C510 N514 1.427 . S
C511 H501 0.929 . S
C511 C509 1.433 . S
C511 N514 1.384 . S
C512 H503 0.929 . S
C512 C504 1.378 . S
C512 C507 1.350 . S
C513 H500 0.929 . S
C513 C505 1.433 . S
C513 N515 1.384 . S
N514 C510 1.427 . S
N514 C511 1.384 . S
N515 C507 1.427 . S
N515 C513 1.384 . S
H516 C522 0.930 . S
H517 C526 0.930 . S
H518 C531 0.929 . S
H519 C529 0.929 . S
H520 C524 0.929 . S
H521 C530 0.929 . S
C522 H516 0.930 . S
C522 C523 1.367 . S
C522 C530 1.378 . S
C523 C522 1.367 . S
C523 C531 1.433 . S
C524 H520 0.929 . S
C524 C526 1.378 . S
C524 C528 1.350 . S
C525 C528 1.463 . S
C525 C530 1.350 . S
C525 N533 1.427 . S
C526 H517 0.930 . S
C526 C524 1.378 . S
C526 C527 1.367 . S
C527 C526 1.367 . S
C527 C529 1.433 . S
C528 C524 1.350 . S
C528 C525 1.463 . S
C528 N532 1.427 . S
C529 H519 0.929 . S
C529 C527 1.433 . S
C529 N532 1.384 . S
C530 H521 0.929 . S
C530 C522 1.378 . S
C530 C525 1.350 . S
C531 H518 0.929 . S
C531 C523 1.433 . S
C531 N533 1.384 . S
N532 C528 1.427 . S
N532 C529 1.384 . S
N533 C525 1.427 . S
N533 C531 1.384 . S
H534 C540 0.930 . S
H535 C544 0.930 . S
H536 C549 0.929 . S
H537 C547 0.929 . S
H538 C542 0.929 . S
H539 C548 0.929 . S
C540 H534 0.930 . S
C540 C541 1.367 . S
C540 C548 1.378 . S
C541 C540 1.367 . S
C541 C549 1.433 . S
C542 H538 0.929 . S
C542 C544 1.378 . S
C542 C546 1.350 . S
C543 C546 1.463 . S
C543 C548 1.350 . S
C543 N551 1.427 . S
C544 H535 0.930 . S
C544 C542 1.378 . S
C544 C545 1.367 . S
C545 C544 1.367 . S
C545 C547 1.433 . S
C546 C542 1.350 . S
C546 C543 1.463 . S
C546 N550 1.427 . S
C547 H537 0.929 . S
C547 C545 1.433 . S
C547 N550 1.384 . S
C548 H539 0.929 . S
C548 C540 1.378 . S
C548 C543 1.350 . S
C549 H536 0.929 . S
C549 C541 1.433 . S
C549 N551 1.384 . S
N550 C546 1.427 . S
N550 C547 1.384 . S
N551 C543 1.427 . S
N551 C549 1.384 . S
H552 C558 0.930 . S
H553 C562 0.930 . S
H554 C567 0.929 . S
H555 C565 0.929 . S
H556 C560 0.929 . S
H557 C566 0.929 . S
C558 H552 0.930 . S
C558 C559 1.367 . S
C558 C566 1.378 . S
C559 C558 1.367 . S
C559 C567 1.433 . S
C560 H556 0.929 . S
C560 C562 1.378 . S
C560 C564 1.350 . S
C561 C564 1.463 . S
C561 C566 1.350 . S
C561 N569 1.427 . S
C562 H553 0.930 . S
C562 C560 1.378 . S
C562 C563 1.367 . S
C563 C562 1.367 . S
C563 C565 1.433 . S
C564 C560 1.350 . S
C564 C561 1.463 . S
C564 N568 1.427 . S
C565 H555 0.929 . S
C565 C563 1.433 . S
C565 N568 1.384 . S
C566 H557 0.929 . S
C566 C558 1.378 . S
C566 C561 1.350 . S
C567 H554 0.929 . S
C567 C559 1.433 . S
C567 N569 1.384 . S
N568 C564 1.427 . S
N568 C565 1.384 . S
N569 C561 1.427 . S
N569 C567 1.384 . S
H570 C576 0.930 . S
H571 C580 0.930 . S
H572 C585 0.929 . S
H573 C583 0.929 . S
H574 C578 0.929 . S
H575 C584 0.929 . S
C576 H570 0.930 . S
C576 C577 1.367 . S
C576 C584 1.378 . S
C577 C576 1.367 . S
C577 C585 1.433 . S
C578 H574 0.929 . S
C578 C580 1.378 . S
C578 C582 1.350 . S
C579 C582 1.463 . S
C579 C584 1.350 . S
C579 N587 1.427 . S
C580 H571 0.930 . S
C580 C578 1.378 . S
C580 C581 1.367 . S
C581 C580 1.367 . S
C581 C583 1.433 . S
C582 C578 1.350 . S
C582 C579 1.463 . S
C582 N586 1.427 . S
C583 H573 0.929 . S
C583 C581 1.433 . S
C583 N586 1.384 . S
C584 H575 0.929 . S
C584 C576 1.378 . S
C584 C579 1.350 . S
C585 H572 0.929 . S
C585 C577 1.433 . S
C585 N587 1.384 . S
N586 C582 1.427 . S
N586 C583 1.384 . S
N587 C579 1.427 . S
N587 C585 1.384 . S
H588 C594 0.930 . S
H589 C598 0.930 . S
H590 C603 0.929 . S
H591 C601 0.929 . S
H592 C596 0.929 . S
H593 C602 0.929 . S
C594 H588 0.930 . S
C594 C595 1.367 . S
C594 C602 1.378 . S
C595 C594 1.367 . S
C595 C603 1.433 . S
C596 H592 0.929 . S
C596 C598 1.378 . S
C596 C600 1.350 . S
C597 C600 1.463 . S
C597 C602 1.350 . S
C597 N605 1.427 . S
C598 H589 0.930 . S
C598 C596 1.378 . S
C598 C599 1.367 . S
C599 C598 1.367 . S
C599 C601 1.433 . S
C600 C596 1.350 . S
C600 C597 1.463 . S
C600 N604 1.427 . S
C601 H591 0.929 . S
C601 C599 1.433 . S
C601 N604 1.384 . S
C602 H593 0.929 . S
C602 C594 1.378 . S
C602 C597 1.350 . S
C603 H590 0.929 . S
C603 C595 1.433 . S
C603 N605 1.384 . S
N604 C600 1.427 . S
N604 C601 1.384 . S
N605 C597 1.427 . S
N605 C603 1.384 . S
H606 C612 0.930 . S
H607 C616 0.930 . S
H608 C621 0.929 . S
H609 C619 0.929 . S
H610 C614 0.929 . S
H611 C620 0.929 . S
C612 H606 0.930 . S
C612 C613 1.367 . S
C612 C620 1.378 . S
C613 C612 1.367 . S
C613 C621 1.433 . S
C614 H610 0.929 . S
C614 C616 1.378 . S
C614 C618 1.350 . S
C615 C618 1.463 . S
C615 C620 1.350 . S
C615 N623 1.427 . S
C616 H607 0.930 . S
C616 C614 1.378 . S
C616 C617 1.367 . S
C617 C616 1.367 . S
C617 C619 1.433 . S
C618 C614 1.350 . S
C618 C615 1.463 . S
C618 N622 1.427 . S
C619 H609 0.929 . S
C619 C617 1.433 . S
C619 N622 1.384 . S
C620 H611 0.929 . S
C620 C612 1.378 . S
C620 C615 1.350 . S
C621 H608 0.929 . S
C621 C613 1.433 . S
C621 N623 1.384 . S
N622 C618 1.427 . S
N622 C619 1.384 . S
N623 C615 1.427 . S
N623 C621 1.384 . S
H624 C630 0.930 . S
H625 C634 0.930 . S
H626 C639 0.929 . S
H627 C637 0.929 . S
H628 C632 0.929 . S
H629 C638 0.929 . S
C630 H624 0.930 . S
C630 C631 1.367 . S
C630 C638 1.378 . S
C631 C630 1.367 . S
C631 C639 1.433 . S
C632 H628 0.929 . S
C632 C634 1.378 . S
C632 C636 1.350 . S
C633 C636 1.463 . S
C633 C638 1.350 . S
C633 N641 1.427 . S
C634 H625 0.930 . S
C634 C632 1.378 . S
C634 C635 1.367 . S
C635 C634 1.367 . S
C635 C637 1.433 . S
C636 C632 1.350 . S
C636 C633 1.463 . S
C636 N640 1.427 . S
C637 H627 0.929 . S
C637 C635 1.433 . S
C637 N640 1.384 . S
C638 H629 0.929 . S
C638 C630 1.378 . S
C638 C633 1.350 . S
C639 H626 0.929 . S
C639 C631 1.433 . S
C639 N641 1.384 . S
N640 C636 1.427 . S
N640 C637 1.384 . S
N641 C633 1.427 . S
N641 C639 1.384 . S
H642 C648 0.930 . S
H643 C652 0.930 . S
H644 C657 0.929 . S
H645 C655 0.929 . S
H646 C650 0.929 . S
H647 C656 0.929 . S
C648 H642 0.930 . S
C648 C649 1.367 . S
C648 C656 1.378 . S
C649 C648 1.367 . S
C649 C657 1.433 . S
C650 H646 0.929 . S
C650 C652 1.378 . S
C650 C654 1.350 . S
C651 C654 1.463 . S
C651 C656 1.350 . S
C651 N659 1.427 . S
C652 H643 0.930 . S
C652 C650 1.378 . S
C652 C653 1.367 . S
C653 C652 1.367 . S
C653 C655 1.433 . S
C654 C650 1.350 . S
C654 C651 1.463 . S
C654 N658 1.427 . S
C655 H645 0.929 . S
C655 C653 1.433 . S
C655 N658 1.384 . S
C656 H647 0.929 . S
C656 C648 1.378 . S
C656 C651 1.350 . S
C657 H644 0.929 . S
C657 C649 1.433 . S
C657 N659 1.384 . S
N658 C654 1.427 . S
N658 C655 1.384 . S
N659 C651 1.427 . S
N659 C657 1.384 . S
H660 C666 0.930 . S
H661 C670 0.930 . S
H662 C675 0.929 . S
H663 C673 0.929 . S
H664 C668 0.929 . S
H665 C674 0.929 . S
C666 H660 0.930 . S
C666 C667 1.367 . S
C666 C674 1.378 . S
C667 C666 1.367 . S
C667 C675 1.433 . S
C668 H664 0.929 . S
C668 C670 1.378 . S
C668 C672 1.350 . S
C669 C672 1.463 . S
C669 C674 1.350 . S
C669 N677 1.427 . S
C670 H661 0.930 . S
C670 C668 1.378 . S
C670 C671 1.367 . S
C671 C670 1.367 . S
C671 C673 1.433 . S
C672 C668 1.350 . S
C672 C669 1.463 . S
C672 N676 1.427 . S
C673 H663 0.929 . S
C673 C671 1.433 . S
C673 N676 1.384 . S
C674 H665 0.929 . S
C674 C666 1.378 . S
C674 C669 1.350 . S
C675 H662 0.929 . S
C675 C667 1.433 . S
C675 N677 1.384 . S
N676 C672 1.427 . S
N676 C673 1.384 . S
N677 C669 1.427 . S
N677 C675 1.384 . S
H678 C684 0.930 . S
H679 C688 0.930 . S
H680 C693 0.929 . S
H681 C691 0.929 . S
H682 C686 0.929 . S
H683 C692 0.929 . S
C684 H678 0.930 . S
C684 C685 1.367 . S
C684 C692 1.378 . S
C685 C684 1.367 . S
C685 C693 1.433 . S
C686 H682 0.929 . S
C686 C688 1.378 . S
C686 C690 1.350 . S
C687 C690 1.463 . S
C687 C692 1.350 . S
C687 N695 1.427 . S
C688 H679 0.930 . S
C688 C686 1.378 . S
C688 C689 1.367 . S
C689 C688 1.367 . S
C689 C691 1.433 . S
C690 C686 1.350 . S
C690 C687 1.463 . S
C690 N694 1.427 . S
C691 H681 0.929 . S
C691 C689 1.433 . S
C691 N694 1.384 . S
C692 H683 0.929 . S
C692 C684 1.378 . S
C692 C687 1.350 . S
C693 H680 0.929 . S
C693 C685 1.433 . S
C693 N695 1.384 . S
N694 C690 1.427 . S
N694 C691 1.384 . S
N695 C687 1.427 . S
N695 C693 1.384 . S
H696 C702 0.930 . S
H697 C706 0.930 . S
H698 C711 0.929 . S
H699 C709 0.929 . S
H700 C704 0.929 . S
H701 C710 0.929 . S
C702 H696 0.930 . S
C702 C703 1.367 . S
C702 C710 1.378 . S
C703 C702 1.367 . S
C703 C711 1.433 . S
C704 H700 0.929 . S
C704 C706 1.378 . S
C704 C708 1.350 . S
C705 C708 1.463 . S
C705 C710 1.350 . S
C705 N713 1.427 . S
C706 H697 0.930 . S
C706 C704 1.378 . S
C706 C707 1.367 . S
C707 C706 1.367 . S
C707 C709 1.433 . S
C708 C704 1.350 . S
C708 C705 1.463 . S
C708 N712 1.427 . S
C709 H699 0.929 . S
C709 C707 1.433 . S
C709 N712 1.384 . S
C710 H701 0.929 . S
C710 C702 1.378 . S
C710 C705 1.350 . S
C711 H698 0.929 . S
C711 C703 1.433 . S
C711 N713 1.384 . S
N712 C708 1.427 . S
N712 C709 1.384 . S
N713 C705 1.427 . S
N713 C711 1.384 . S
H714 C720 0.930 . S
H715 C724 0.930 . S
H716 C729 0.929 . S
H717 C727 0.929 . S
H718 C722 0.929 . S
H719 C728 0.929 . S
C720 H714 0.930 . S
C720 C721 1.367 . S
C720 C728 1.378 . S
C721 C720 1.367 . S
C721 C729 1.433 . S
C722 H718 0.929 . S
C722 C724 1.378 . S
C722 C726 1.350 . S
C723 C726 1.463 . S
C723 C728 1.350 . S
C723 N731 1.427 . S
C724 H715 0.930 . S
C724 C722 1.378 . S
C724 C725 1.367 . S
C725 C724 1.367 . S
C725 C727 1.433 . S
C726 C722 1.350 . S
C726 C723 1.463 . S
C726 N730 1.427 . S
C727 H717 0.929 . S
C727 C725 1.433 . S
C727 N730 1.384 . S
C728 H719 0.929 . S
C728 C720 1.378 . S
C728 C723 1.350 . S
C729 H716 0.929 . S
C729 C721 1.433 . S
C729 N731 1.384 . S
N730 C726 1.427 . S
N730 C727 1.384 . S
N731 C723 1.427 . S
N731 C729 1.384 . S
H732 C738 0.930 . S
H733 C742 0.930 . S
H734 C747 0.929 . S
H735 C745 0.929 . S
H736 C740 0.929 . S
H737 C746 0.929 . S
C738 H732 0.930 . S
C738 C739 1.367 . S
C738 C746 1.378 . S
C739 C738 1.367 . S
C739 C747 1.433 . S
C740 H736 0.929 . S
C740 C742 1.378 . S
C740 C744 1.350 . S
C741 C744 1.463 . S
C741 C746 1.350 . S
C741 N749 1.427 . S
C742 H733 0.930 . S
C742 C740 1.378 . S
C742 C743 1.367 . S
C743 C742 1.367 . S
C743 C745 1.433 . S
C744 C740 1.350 . S
C744 C741 1.463 . S
C744 N748 1.427 . S
C745 H735 0.929 . S
C745 C743 1.433 . S
C745 N748 1.384 . S
C746 H737 0.929 . S
C746 C738 1.378 . S
C746 C741 1.350 . S
C747 H734 0.929 . S
C747 C739 1.433 . S
C747 N749 1.384 . S
N748 C744 1.427 . S
N748 C745 1.384 . S
N749 C741 1.427 . S
N749 C747 1.384 . S
H750 C756 0.930 . S
H751 C760 0.930 . S
H752 C765 0.929 . S
H753 C763 0.929 . S
H754 C758 0.929 . S
H755 C764 0.929 . S
C756 H750 0.930 . S
C756 C757 1.367 . S
C756 C764 1.378 . S
C757 C756 1.367 . S
C757 C765 1.433 . S
C758 H754 0.929 . S
C758 C760 1.378 . S
C758 C762 1.350 . S
C759 C762 1.463 . S
C759 C764 1.350 . S
C759 N767 1.427 . S
C760 H751 0.930 . S
C760 C758 1.378 . S
C760 C761 1.367 . S
C761 C760 1.367 . S
C761 C763 1.433 . S
C762 C758 1.350 . S
C762 C759 1.463 . S
C762 N766 1.427 . S
C763 H753 0.929 . S
C763 C761 1.433 . S
C763 N766 1.384 . S
C764 H755 0.929 . S
C764 C756 1.378 . S
C764 C759 1.350 . S
C765 H752 0.929 . S
C765 C757 1.433 . S
C765 N767 1.384 . S
N766 C762 1.427 . S
N766 C763 1.384 . S
N767 C759 1.427 . S
N767 C765 1.384 . S
H768 C774 0.930 . S
H769 C778 0.930 . S
H770 C783 0.929 . S
H771 C781 0.929 . S
H772 C776 0.929 . S
H773 C782 0.929 . S
C774 H768 0.930 . S
C774 C775 1.367 . S
C774 C782 1.378 . S
C775 C774 1.367 . S
C775 C783 1.433 . S
C776 H772 0.929 . S
C776 C778 1.378 . S
C776 C780 1.350 . S
C777 C780 1.463 1_455 S
C777 C782 1.350 . S
C777 N785 1.427 . S
C778 H769 0.930 . S
C778 C776 1.378 . S
C778 C779 1.367 . S
C779 C778 1.367 . S
C779 C781 1.433 . S
C780 C776 1.350 . S
C780 C777 1.463 1_655 S
C780 N784 1.427 . S
C781 H771 0.929 . S
C781 C779 1.433 . S
C781 N784 1.384 . S
C782 H773 0.929 . S
C782 C774 1.378 . S
C782 C777 1.350 . S
C783 H770 0.929 . S
C783 C775 1.433 . S
C783 N785 1.384 . S
N784 C780 1.427 . S
N784 C781 1.384 . S
N785 C777 1.427 . S
N785 C783 1.384 . S
H786 C792 0.930 . S
H787 C796 0.930 . S
H788 C801 0.929 . S
H789 C799 0.929 . S
H790 C794 0.929 . S
H791 C800 0.929 . S
C792 H786 0.930 . S
C792 C793 1.367 . S
C792 C800 1.378 . S
C793 C792 1.367 . S
C793 C801 1.433 . S
C794 H790 0.929 . S
C794 C796 1.378 . S
C794 C798 1.350 . S
C795 C798 1.463 1_545 S
C795 C800 1.350 . S
C795 N803 1.427 . S
C796 H787 0.930 . S
C796 C794 1.378 . S
C796 C797 1.367 . S
C797 C796 1.367 . S
C797 C799 1.433 . S
C798 C794 1.350 . S
C798 C795 1.463 1_565 S
C798 N802 1.427 . S
C799 H789 0.929 . S
C799 C797 1.433 . S
C799 N802 1.384 . S
C800 H791 0.929 . S
C800 C792 1.378 . S
C800 C795 1.350 . S
C801 H788 0.929 . S
C801 C793 1.433 . S
C801 N803 1.384 . S
N802 C798 1.427 . S
N802 C799 1.384 . S
N803 C795 1.427 . S
N803 C801 1.384 . S
H804 C810 0.930 . S
H805 C814 0.930 . S
H806 C819 0.929 . S
H807 C817 0.929 . S
H808 C812 0.929 . S
H809 C818 0.929 . S
C810 H804 0.930 . S
C810 C811 1.367 . S
C810 C818 1.378 . S
C811 C810 1.367 . S
C811 C819 1.433 . S
C812 H808 0.929 . S
C812 C814 1.378 . S
C812 C816 1.350 . S
C813 C816 1.463 1_655 S
C813 C818 1.350 . S
C813 N821 1.427 . S
C814 H805 0.930 . S
C814 C812 1.378 . S
C814 C815 1.367 . S
C815 C814 1.367 . S
C815 C817 1.433 . S
C816 C812 1.350 . S
C816 C813 1.463 1_455 S
C816 N820 1.427 . S
C817 H807 0.929 . S
C817 C815 1.433 . S
C817 N820 1.384 . S
C818 H809 0.929 . S
C818 C810 1.378 . S
C818 C813 1.350 . S
C819 H806 0.929 . S
C819 C811 1.433 . S
C819 N821 1.384 . S
N820 C816 1.427 . S
N820 C817 1.384 . S
N821 C813 1.427 . S
N821 C819 1.384 . S
H822 C828 0.930 . S
H823 C832 0.930 . S
H824 C837 0.929 . S
H825 C835 0.929 . S
H826 C830 0.929 . S
H827 C836 0.929 . S
C828 H822 0.930 . S
C828 C829 1.367 . S
C828 C836 1.378 . S
C829 C828 1.367 . S
C829 C837 1.433 . S
C830 H826 0.929 . S
C830 C832 1.378 . S
C830 C834 1.350 . S
C831 C834 1.463 1_545 S
C831 C836 1.350 . S
C831 N839 1.427 . S
C832 H823 0.930 . S
C832 C830 1.378 . S
C832 C833 1.367 . S
C833 C832 1.367 . S
C833 C835 1.433 . S
C834 C830 1.350 . S
C834 C831 1.463 1_565 S
C834 N838 1.427 . S
C835 H825 0.929 . S
C835 C833 1.433 . S
C835 N838 1.384 . S
C836 H827 0.929 . S
C836 C828 1.378 . S
C836 C831 1.350 . S
C837 H824 0.929 . S
C837 C829 1.433 . S
C837 N839 1.384 . S
N838 C834 1.427 . S
N838 C835 1.384 . S
N839 C831 1.427 . S
N839 C837 1.384 . S
H840 C846 0.930 . S
H841 C850 0.930 . S
H842 C855 0.929 . S
H843 C853 0.929 . S
H844 C848 0.929 . S
H845 C854 0.929 . S
C846 H840 0.930 . S
C846 C847 1.367 . S
C846 C854 1.378 . S
C847 C846 1.367 . S
C847 C855 1.433 . S
C848 H844 0.929 . S
C848 C850 1.378 . S
C848 C852 1.350 . S
C849 C852 1.463 1_565 S
C849 C854 1.350 . S
C849 N857 1.427 . S
C850 H841 0.930 . S
C850 C848 1.378 . S
C850 C851 1.367 . S
C851 C850 1.367 . S
C851 C853 1.433 . S
C852 C848 1.350 . S
C852 C849 1.463 1_545 S
C852 N856 1.427 . S
C853 H843 0.929 . S
C853 C851 1.433 . S
C853 N856 1.384 . S
C854 H845 0.929 . S
C854 C846 1.378 . S
C854 C849 1.350 . S
C855 H842 0.929 . S
C855 C847 1.433 . S
C855 N857 1.384 . S
N856 C852 1.427 . S
N856 C853 1.384 . S
N857 C849 1.427 . S
N857 C855 1.384 . S
H858 C864 0.930 . S
H859 C868 0.930 . S
H860 C873 0.929 . S
H861 C871 0.929 . S
H862 C866 0.929 . S
H863 C872 0.929 . S
C864 H858 0.930 . S
C864 C865 1.367 . S
C864 C872 1.378 . S
C865 C864 1.367 . S
C865 C873 1.433 . S
C866 H862 0.929 . S
C866 C868 1.378 . S
C866 C870 1.350 . S
C867 C870 1.463 1_655 S
C867 C872 1.350 . S
C867 N875 1.427 . S
C868 H859 0.930 . S
C868 C866 1.378 . S
C868 C869 1.367 . S
C869 C868 1.367 . S
C869 C871 1.433 . S
C870 C866 1.350 . S
C870 C867 1.463 1_455 S
C870 N874 1.427 . S
C871 H861 0.929 . S
C871 C869 1.433 . S
C871 N874 1.384 . S
C872 H863 0.929 . S
C872 C864 1.378 . S
C872 C867 1.350 . S
C873 H860 0.929 . S
C873 C865 1.433 . S
C873 N875 1.384 . S
N874 C870 1.427 . S
N874 C871 1.384 . S
N875 C867 1.427 . S
N875 C873 1.384 . S
H876 C882 0.930 . S
H877 C886 0.930 . S
H878 C891 0.929 . S
H879 C889 0.929 . S
H880 C884 0.929 . S
H881 C890 0.929 . S
C882 H876 0.930 . S
C882 C883 1.367 . S
C882 C890 1.378 . S
C883 C882 1.367 . S
C883 C891 1.433 . S
C884 H880 0.929 . S
C884 C886 1.378 . S
C884 C888 1.350 . S
C885 C888 1.463 1_565 S
C885 C890 1.350 . S
C885 N893 1.427 . S
C886 H877 0.930 . S
C886 C884 1.378 . S
C886 C887 1.367 . S
C887 C886 1.367 . S
C887 C889 1.433 . S
C888 C884 1.350 . S
C888 C885 1.463 1_545 S
C888 N892 1.427 . S
C889 H879 0.929 . S
C889 C887 1.433 . S
C889 N892 1.384 . S
C890 H881 0.929 . S
C890 C882 1.378 . S
C890 C885 1.350 . S
C891 H878 0.929 . S
C891 C883 1.433 . S
C891 N893 1.384 . S
N892 C888 1.427 . S
N892 C889 1.384 . S
N893 C885 1.427 . S
N893 C891 1.384 . S
H894 C900 0.930 . S
H895 C904 0.930 . S
H896 C909 0.929 . S
H897 C907 0.929 . S
H898 C902 0.929 . S
H899 C908 0.929 . S
C900 H894 0.930 . S
C900 C901 1.367 . S
C900 C908 1.378 . S
C901 C900 1.367 . S
C901 C909 1.433 . S
C902 H898 0.929 . S
C902 C904 1.378 . S
C902 C906 1.350 . S
C903 C906 1.463 1_655 S
C903 C908 1.350 . S
C903 N911 1.427 . S
C904 H895 0.930 . S
C904 C902 1.378 . S
C904 C905 1.367 . S
C905 C904 1.367 . S
C905 C907 1.433 . S
C906 C902 1.350 . S
C906 C903 1.463 1_455 S
C906 N910 1.427 . S
C907 H897 0.929 . S
C907 C905 1.433 . S
C907 N910 1.384 . S
C908 H899 0.929 . S
C908 C900 1.378 . S
C908 C903 1.350 . S
C909 H896 0.929 . S
C909 C901 1.433 . S
C909 N911 1.384 . S
N910 C906 1.427 . S
N910 C907 1.384 . S
N911 C903 1.427 . S
N911 C909 1.384 . S
H912 C918 0.930 . S
H913 C922 0.930 . S
H914 C927 0.929 . S
H915 C925 0.929 . S
H916 C920 0.929 . S
H917 C926 0.929 . S
C918 H912 0.930 . S
C918 C919 1.367 . S
C918 C926 1.378 . S
C919 C918 1.367 . S
C919 C927 1.433 . S
C920 H916 0.929 . S
C920 C922 1.378 . S
C920 C924 1.350 . S
C921 C924 1.463 1_556 S
C921 C926 1.350 . S
C921 N929 1.427 . S
C922 H913 0.930 . S
C922 C920 1.378 . S
C922 C923 1.367 . S
C923 C922 1.367 . S
C923 C925 1.433 . S
C924 C920 1.350 . S
C924 C921 1.463 1_554 S
C924 N928 1.427 . S
C925 H915 0.929 . S
C925 C923 1.433 . S
C925 N928 1.384 . S
C926 H917 0.929 . S
C926 C918 1.378 . S
C926 C921 1.350 . S
C927 H914 0.929 . S
C927 C919 1.433 . S
C927 N929 1.384 . S
N928 C924 1.427 . S
N928 C925 1.384 . S
N929 C921 1.427 . S
N929 C927 1.384 . S
H930 C936 0.930 . S
H931 C940 0.930 . S
H932 C945 0.929 . S
H933 C943 0.929 . S
H934 C938 0.929 . S
H935 C944 0.929 . S
C936 H930 0.930 . S
C936 C937 1.367 . S
C936 C944 1.378 . S
C937 C936 1.367 . S
C937 C945 1.433 . S
C938 H934 0.929 . S
C938 C940 1.378 . S
C938 C942 1.350 . S
C939 C942 1.463 1_556 S
C939 C944 1.350 . S
C939 N947 1.427 . S
C940 H931 0.930 . S
C940 C938 1.378 . S
C940 C941 1.367 . S
C941 C940 1.367 . S
C941 C943 1.433 . S
C942 C938 1.350 . S
C942 C939 1.463 1_554 S
C942 N946 1.427 . S
C943 H933 0.929 . S
C943 C941 1.433 . S
C943 N946 1.384 . S
C944 H935 0.929 . S
C944 C936 1.378 . S
C944 C939 1.350 . S
C945 H932 0.929 . S
C945 C937 1.433 . S
C945 N947 1.384 . S
N946 C942 1.427 . S
N946 C943 1.384 . S
N947 C939 1.427 . S
N947 C945 1.384 . S
H948 C954 0.930 . S
H949 C958 0.930 . S
H950 C963 0.929 . S
H951 C961 0.929 . S
H952 C956 0.929 . S
H953 C962 0.929 . S
C954 H948 0.930 . S
C954 C955 1.367 . S
C954 C962 1.378 . S
C955 C954 1.367 . S
C955 C963 1.433 . S
C956 H952 0.929 . S
C956 C958 1.378 . S
C956 C960 1.350 . S
C957 C960 1.463 1_556 S
C957 C962 1.350 . S
C957 N965 1.427 . S
C958 H949 0.930 . S
C958 C956 1.378 . S
C958 C959 1.367 . S
C959 C958 1.367 . S
C959 C961 1.433 . S
C960 C956 1.350 . S
C960 C957 1.463 1_554 S
C960 N964 1.427 . S
C961 H951 0.929 . S
C961 C959 1.433 . S
C961 N964 1.384 . S
C962 H953 0.929 . S
C962 C954 1.378 . S
C962 C957 1.350 . S
C963 H950 0.929 . S
C963 C955 1.433 . S
C963 N965 1.384 . S
N964 C960 1.427 . S
N964 C961 1.384 . S
N965 C957 1.427 . S
N965 C963 1.384 . S
H966 C972 0.930 . S
H967 C976 0.930 . S
H968 C981 0.929 . S
H969 C979 0.929 . S
H970 C974 0.929 . S
H971 C980 0.929 . S
C972 H966 0.930 . S
C972 C973 1.367 . S
C972 C980 1.378 . S
C973 C972 1.367 . S
C973 C981 1.433 . S
C974 H970 0.929 . S
C974 C976 1.378 . S
C974 C978 1.350 . S
C975 C978 1.463 1_556 S
C975 C980 1.350 . S
C975 N983 1.427 . S
C976 H967 0.930 . S
C976 C974 1.378 . S
C976 C977 1.367 . S
C977 C976 1.367 . S
C977 C979 1.433 . S
C978 C974 1.350 . S
C978 C975 1.463 1_554 S
C978 N982 1.427 . S
C979 H969 0.929 . S
C979 C977 1.433 . S
C979 N982 1.384 . S
C980 H971 0.929 . S
C980 C972 1.378 . S
C980 C975 1.350 . S
C981 H968 0.929 . S
C981 C973 1.433 . S
C981 N983 1.384 . S
N982 C978 1.427 . S
N982 C979 1.384 . S
N983 C975 1.427 . S
N983 C981 1.384 . S
H984 C990 0.930 . S
H985 C994 0.930 . S
H986 C999 0.929 . S
H987 C997 0.929 . S
H988 C992 0.929 . S
H989 C998 0.929 . S
C990 H984 0.930 . S
C990 C991 1.367 . S
C990 C998 1.378 . S
C991 C990 1.367 . S
C991 C999 1.433 . S
C992 H988 0.929 . S
C992 C994 1.378 . S
C992 C996 1.350 . S
C993 C996 1.463 . S
C993 C998 1.350 . S
C993 N1001 1.427 . S
C994 H985 0.930 . S
C994 C992 1.378 . S
C994 C995 1.367 . S
C995 C994 1.367 . S
C995 C997 1.433 . S
C996 C992 1.350 . S
C996 C993 1.463 . S
C996 N1000 1.427 . S
C997 H987 0.929 . S
C997 C995 1.433 . S
C997 N1000 1.384 . S
C998 H989 0.929 . S
C998 C990 1.378 . S
C998 C993 1.350 . S
C999 H986 0.929 . S
C999 C991 1.433 . S
C999 N1001 1.384 . S
N1000 C996 1.427 . S
N1000 C997 1.384 . S
N1001 C993 1.427 . S
N1001 C999 1.384 . S
H1002 C1008 0.930 . S
H1003 C1012 0.930 . S
H1004 C1017 0.929 . S
H1005 C1015 0.929 . S
H1006 C1010 0.929 . S
H1007 C1016 0.929 . S
C1008 H1002 0.930 . S
C1008 C1009 1.367 . S
C1008 C1016 1.378 . S
C1009 C1008 1.367 . S
C1009 C1017 1.433 . S
C1010 H1006 0.929 . S
C1010 C1012 1.378 . S
C1010 C1014 1.350 . S
C1011 C1014 1.463 . S
C1011 C1016 1.350 . S
C1011 N1019 1.427 . S
C1012 H1003 0.930 . S
C1012 C1010 1.378 . S
C1012 C1013 1.367 . S
C1013 C1012 1.367 . S
C1013 C1015 1.433 . S
C1014 C1010 1.350 . S
C1014 C1011 1.463 . S
C1014 N1018 1.427 . S
C1015 H1005 0.929 . S
C1015 C1013 1.433 . S
C1015 N1018 1.384 . S
C1016 H1007 0.929 . S
C1016 C1008 1.378 . S
C1016 C1011 1.350 . S
C1017 H1004 0.929 . S
C1017 C1009 1.433 . S
C1017 N1019 1.384 . S
N1018 C1014 1.427 . S
N1018 C1015 1.384 . S
N1019 C1011 1.427 . S
N1019 C1017 1.384 . S
H1020 C1026 0.930 . S
H1021 C1030 0.930 . S
H1022 C1035 0.929 . S
H1023 C1033 0.929 . S
H1024 C1028 0.929 . S
H1025 C1034 0.929 . S
C1026 H1020 0.930 . S
C1026 C1027 1.367 . S
C1026 C1034 1.378 . S
C1027 C1026 1.367 . S
C1027 C1035 1.433 . S
C1028 H1024 0.929 . S
C1028 C1030 1.378 . S
C1028 C1032 1.350 . S
C1029 C1032 1.463 . S
C1029 C1034 1.350 . S
C1029 N1037 1.427 . S
C1030 H1021 0.930 . S
C1030 C1028 1.378 . S
C1030 C1031 1.367 . S
C1031 C1030 1.367 . S
C1031 C1033 1.433 . S
C1032 C1028 1.350 . S
C1032 C1029 1.463 . S
C1032 N1036 1.427 . S
C1033 H1023 0.929 . S
C1033 C1031 1.433 . S
C1033 N1036 1.384 . S
C1034 H1025 0.929 . S
C1034 C1026 1.378 . S
C1034 C1029 1.350 . S
C1035 H1022 0.929 . S
C1035 C1027 1.433 . S
C1035 N1037 1.384 . S
N1036 C1032 1.427 . S
N1036 C1033 1.384 . S
N1037 C1029 1.427 . S
N1037 C1035 1.384 . S
H1038 C1044 0.930 . S
H1039 C1048 0.930 . S
H1040 C1053 0.929 . S
H1041 C1051 0.929 . S
H1042 C1046 0.929 . S
H1043 C1052 0.929 . S
C1044 H1038 0.930 . S
C1044 C1045 1.367 . S
C1044 C1052 1.378 . S
C1045 C1044 1.367 . S
C1045 C1053 1.433 . S
C1046 H1042 0.929 . S
C1046 C1048 1.378 . S
C1046 C1050 1.350 . S
C1047 C1050 1.463 . S
C1047 C1052 1.350 . S
C1047 N1055 1.427 . S
C1048 H1039 0.930 . S
C1048 C1046 1.378 . S
C1048 C1049 1.367 . S
C1049 C1048 1.367 . S
C1049 C1051 1.433 . S
C1050 C1046 1.350 . S
C1050 C1047 1.463 . S
C1050 N1054 1.427 . S
C1051 H1041 0.929 . S
C1051 C1049 1.433 . S
C1051 N1054 1.384 . S
C1052 H1043 0.929 . S
C1052 C1044 1.378 . S
C1052 C1047 1.350 . S
C1053 H1040 0.929 . S
C1053 C1045 1.433 . S
C1053 N1055 1.384 . S
N1054 C1050 1.427 . S
N1054 C1051 1.384 . S
N1055 C1047 1.427 . S
N1055 C1053 1.384 . S
H1056 C1062 0.930 . S
H1057 C1066 0.930 . S
H1058 C1071 0.929 . S
H1059 C1069 0.929 . S
H1060 C1064 0.929 . S
H1061 C1070 0.929 . S
C1062 H1056 0.930 . S
C1062 C1063 1.367 . S
C1062 C1070 1.378 . S
C1063 C1062 1.367 . S
C1063 C1071 1.433 . S
C1064 H1060 0.929 . S
C1064 C1066 1.378 . S
C1064 C1068 1.350 . S
C1065 C1068 1.463 . S
C1065 C1070 1.350 . S
C1065 N1073 1.427 . S
C1066 H1057 0.930 . S
C1066 C1064 1.378 . S
C1066 C1067 1.367 . S
C1067 C1066 1.367 . S
C1067 C1069 1.433 . S
C1068 C1064 1.350 . S
C1068 C1065 1.463 . S
C1068 N1072 1.427 . S
C1069 H1059 0.929 . S
C1069 C1067 1.433 . S
C1069 N1072 1.384 . S
C1070 H1061 0.929 . S
C1070 C1062 1.378 . S
C1070 C1065 1.350 . S
C1071 H1058 0.929 . S
C1071 C1063 1.433 . S
C1071 N1073 1.384 . S
N1072 C1068 1.427 . S
N1072 C1069 1.384 . S
N1073 C1065 1.427 . S
N1073 C1071 1.384 . S
H1074 C1080 0.930 . S
H1075 C1084 0.930 . S
H1076 C1089 0.929 . S
H1077 C1087 0.929 . S
H1078 C1082 0.929 . S
H1079 C1088 0.929 . S
C1080 H1074 0.930 . S
C1080 C1081 1.367 . S
C1080 C1088 1.378 . S
C1081 C1080 1.367 . S
C1081 C1089 1.433 . S
C1082 H1078 0.929 . S
C1082 C1084 1.378 . S
C1082 C1086 1.350 . S
C1083 C1086 1.463 . S
C1083 C1088 1.350 . S
C1083 N1091 1.427 . S
C1084 H1075 0.930 . S
C1084 C1082 1.378 . S
C1084 C1085 1.367 . S
C1085 C1084 1.367 . S
C1085 C1087 1.433 . S
C1086 C1082 1.350 . S
C1086 C1083 1.463 . S
C1086 N1090 1.427 . S
C1087 H1077 0.929 . S
C1087 C1085 1.433 . S
C1087 N1090 1.384 . S
C1088 H1079 0.929 . S
C1088 C1080 1.378 . S
C1088 C1083 1.350 . S
C1089 H1076 0.929 . S
C1089 C1081 1.433 . S
C1089 N1091 1.384 . S
N1090 C1086 1.427 . S
N1090 C1087 1.384 . S
N1091 C1083 1.427 . S
N1091 C1089 1.384 . S
H1092 C1098 0.930 . S
H1093 C1102 0.930 . S
H1094 C1107 0.929 . S
H1095 C1105 0.929 . S
H1096 C1100 0.929 . S
H1097 C1106 0.929 . S
C1098 H1092 0.930 . S
C1098 C1099 1.367 . S
C1098 C1106 1.378 . S
C1099 C1098 1.367 . S
C1099 C1107 1.433 . S
C1100 H1096 0.929 . S
C1100 C1102 1.378 . S
C1100 C1104 1.350 . S
C1101 C1104 1.463 . S
C1101 C1106 1.350 . S
C1101 N1109 1.427 . S
C1102 H1093 0.930 . S
C1102 C1100 1.378 . S
C1102 C1103 1.367 . S
C1103 C1102 1.367 . S
C1103 C1105 1.433 . S
C1104 C1100 1.350 . S
C1104 C1101 1.463 . S
C1104 N1108 1.427 . S
C1105 H1095 0.929 . S
C1105 C1103 1.433 . S
C1105 N1108 1.384 . S
C1106 H1097 0.929 . S
C1106 C1098 1.378 . S
C1106 C1101 1.350 . S
C1107 H1094 0.929 . S
C1107 C1099 1.433 . S
C1107 N1109 1.384 . S
N1108 C1104 1.427 . S
N1108 C1105 1.384 . S
N1109 C1101 1.427 . S
N1109 C1107 1.384 . S
H1110 C1116 0.930 . S
H1111 C1120 0.930 . S
H1112 C1125 0.929 . S
H1113 C1123 0.929 . S
H1114 C1118 0.929 . S
H1115 C1124 0.929 . S
C1116 H1110 0.930 . S
C1116 C1117 1.367 . S
C1116 C1124 1.378 . S
C1117 C1116 1.367 . S
C1117 C1125 1.433 . S
C1118 H1114 0.929 . S
C1118 C1120 1.378 . S
C1118 C1122 1.350 . S
C1119 C1122 1.463 . S
C1119 C1124 1.350 . S
C1119 N1127 1.427 . S
C1120 H1111 0.930 . S
C1120 C1118 1.378 . S
C1120 C1121 1.367 . S
C1121 C1120 1.367 . S
C1121 C1123 1.433 . S
C1122 C1118 1.350 . S
C1122 C1119 1.463 . S
C1122 N1126 1.427 . S
C1123 H1113 0.929 . S
C1123 C1121 1.433 . S
C1123 N1126 1.384 . S
C1124 H1115 0.929 . S
C1124 C1116 1.378 . S
C1124 C1119 1.350 . S
C1125 H1112 0.929 . S
C1125 C1117 1.433 . S
C1125 N1127 1.384 . S
N1126 C1122 1.427 . S
N1126 C1123 1.384 . S
N1127 C1119 1.427 . S
N1127 C1125 1.384 . S
H1128 C1134 0.930 . S
H1129 C1138 0.930 . S
H1130 C1143 0.929 . S
H1131 C1141 0.929 . S
H1132 C1136 0.929 . S
H1133 C1142 0.929 . S
C1134 H1128 0.930 . S
C1134 C1135 1.367 . S
C1134 C1142 1.378 . S
C1135 C1134 1.367 . S
C1135 C1143 1.433 . S
C1136 H1132 0.929 . S
C1136 C1138 1.378 . S
C1136 C1140 1.350 . S
C1137 C1140 1.463 . S
C1137 C1142 1.350 . S
C1137 N1145 1.427 . S
C1138 H1129 0.930 . S
C1138 C1136 1.378 . S
C1138 C1139 1.367 . S
C1139 C1138 1.367 . S
C1139 C1141 1.433 . S
C1140 C1136 1.350 . S
C1140 C1137 1.463 . S
C1140 N1144 1.427 . S
C1141 H1131 0.929 . S
C1141 C1139 1.433 . S
C1141 N1144 1.384 . S
C1142 H1133 0.929 . S
C1142 C1134 1.378 . S
C1142 C1137 1.350 . S
C1143 H1130 0.929 . S
C1143 C1135 1.433 . S
C1143 N1145 1.384 . S
N1144 C1140 1.427 . S
N1144 C1141 1.384 . S
N1145 C1137 1.427 . S
N1145 C1143 1.384 . S
H1146 C1152 0.930 . S
H1147 C1156 0.930 . S
H1148 C1161 0.929 . S
H1149 C1159 0.929 . S
H1150 C1154 0.929 . S
H1151 C1160 0.929 . S
C1152 H1146 0.930 . S
C1152 C1153 1.367 . S
C1152 C1160 1.378 . S
C1153 C1152 1.367 . S
C1153 C1161 1.433 . S
C1154 H1150 0.929 . S
C1154 C1156 1.378 . S
C1154 C1158 1.350 . S
C1155 C1158 1.463 . S
C1155 C1160 1.350 . S
C1155 N1163 1.427 . S
C1156 H1147 0.930 . S
C1156 C1154 1.378 . S
C1156 C1157 1.367 . S
C1157 C1156 1.367 . S
C1157 C1159 1.433 . S
C1158 C1154 1.350 . S
C1158 C1155 1.463 . S
C1158 N1162 1.427 . S
C1159 H1149 0.929 . S
C1159 C1157 1.433 . S
C1159 N1162 1.384 . S
C1160 H1151 0.929 . S
C1160 C1152 1.378 . S
C1160 C1155 1.350 . S
C1161 H1148 0.929 . S
C1161 C1153 1.433 . S
C1161 N1163 1.384 . S
N1162 C1158 1.427 . S
N1162 C1159 1.384 . S
N1163 C1155 1.427 . S
N1163 C1161 1.384 . S
H1164 C1170 0.930 . S
H1165 C1174 0.930 . S
H1166 C1179 0.929 . S
H1167 C1177 0.929 . S
H1168 C1172 0.929 . S
H1169 C1178 0.929 . S
C1170 H1164 0.930 . S
C1170 C1171 1.367 . S
C1170 C1178 1.378 . S
C1171 C1170 1.367 . S
C1171 C1179 1.433 . S
C1172 H1168 0.929 . S
C1172 C1174 1.378 . S
C1172 C1176 1.350 . S
C1173 C1176 1.463 . S
C1173 C1178 1.350 . S
C1173 N1181 1.427 . S
C1174 H1165 0.930 . S
C1174 C1172 1.378 . S
C1174 C1175 1.367 . S
C1175 C1174 1.367 . S
C1175 C1177 1.433 . S
C1176 C1172 1.350 . S
C1176 C1173 1.463 . S
C1176 N1180 1.427 . S
C1177 H1167 0.929 . S
C1177 C1175 1.433 . S
C1177 N1180 1.384 . S
C1178 H1169 0.929 . S
C1178 C1170 1.378 . S
C1178 C1173 1.350 . S
C1179 H1166 0.929 . S
C1179 C1171 1.433 . S
C1179 N1181 1.384 . S
N1180 C1176 1.427 . S
N1180 C1177 1.384 . S
N1181 C1173 1.427 . S
N1181 C1179 1.384 . S
H1182 C1188 0.930 . S
H1183 C1192 0.930 . S
H1184 C1197 0.929 . S
H1185 C1195 0.929 . S
H1186 C1190 0.929 . S
H1187 C1196 0.929 . S
C1188 H1182 0.930 . S
C1188 C1189 1.367 . S
C1188 C1196 1.378 . S
C1189 C1188 1.367 . S
C1189 C1197 1.433 . S
C1190 H1186 0.929 . S
C1190 C1192 1.378 . S
C1190 C1194 1.350 . S
C1191 C1194 1.463 . S
C1191 C1196 1.350 . S
C1191 N1199 1.427 . S
C1192 H1183 0.930 . S
C1192 C1190 1.378 . S
C1192 C1193 1.367 . S
C1193 C1192 1.367 . S
C1193 C1195 1.433 . S
C1194 C1190 1.350 . S
C1194 C1191 1.463 . S
C1194 N1198 1.427 . S
C1195 H1185 0.929 . S
C1195 C1193 1.433 . S
C1195 N1198 1.384 . S
C1196 H1187 0.929 . S
C1196 C1188 1.378 . S
C1196 C1191 1.350 . S
C1197 H1184 0.929 . S
C1197 C1189 1.433 . S
C1197 N1199 1.384 . S
N1198 C1194 1.427 . S
N1198 C1195 1.384 . S
N1199 C1191 1.427 . S
N1199 C1197 1.384 . S
C343 C161 1.361 . S
C347 C3 1.435 . S
C361 C17 1.442 . S
C365 C119 1.340 . S
C379 C31 1.440 . S
C383 C133 1.345 . S
C397 C45 1.435 . S
C401 C147 1.360 . S
C415 C189 1.344 . S
C419 C59 1.440 . S
C433 C73 1.435 . S
C437 C203 1.359 . S
C451 C217 1.339 . S
C455 C87 1.442 . S
C469 C175 1.340 . S
C473 C101 1.442 . S
C487 C77 1.346 . S
C491 C115 1.439 . S
C505 C91 1.358 . S
C509 C129 1.435 . S
C523 C143 1.441 . S
C527 C105 1.341 . S
C541 C63 1.339 . S
C545 C157 1.442 . S
C559 C49 1.344 . S
C563 C171 1.441 . S
C577 C185 1.440 . S
C581 C7 1.343 . S
C595 C199 1.435 . S
C599 C21 1.360 . S
C613 C213 1.441 . S
C617 C35 1.344 . S
C631 C227 1.441 . S
C635 C329 1.342 . S
C649 C287 1.344 . S
C653 C241 1.440 . S
C667 C255 1.435 . S
C671 C245 1.358 . S
C685 C269 1.442 . S
C689 C259 1.339 . S
C703 C273 1.357 . S
C707 C283 1.436 . S
C721 C297 1.436 . S
C725 C315 1.357 . S
C739 C231 1.341 . S
C743 C311 1.441 . S
C757 C301 1.348 . S
C761 C325 1.438 . S
C775 C9 1.511 . S
C779 C93 1.522 . S
C793 C23 1.517 . S
C797 C107 1.517 . S
C811 C37 1.521 . S
C815 C65 1.512 . S
C829 C79 1.520 . S
C833 C51 1.512 . S
C847 C149 1.520 . S
C851 C121 1.514 . S
C865 C135 1.521 . S
C869 C163 1.512 . S
C883 C177 1.513 . S
C887 C205 1.520 . S
C901 C219 1.513 . S
C905 C191 1.520 . S
C919 C247 1.514 . S
C923 C233 1.519 . S
C937 C261 1.512 . S
C941 C331 1.521 . S
C955 C275 1.519 . S
C959 C303 1.514 . S
C973 C289 1.522 . S
C977 C317 1.511 . S
C991 C8 1.033 . S
C995 C78 1.032 . S
C1009 C22 1.032 . S
C1013 C92 1.037 . S
C1027 C36 1.037 . S
C1031 C106 1.031 . S
C1045 C64 1.034 . S
C1049 C50 1.036 . S
C1063 C120 1.032 . S
C1067 C330 1.034 . S
C1081 C134 1.033 . S
C1085 C302 1.037 . S
C1099 C316 1.033 . S
C1103 C148 1.032 . S
C1117 C162 1.032 . S
C1121 C232 1.033 . S
C1135 C288 1.034 . S
C1139 C176 1.031 . S
C1153 C246 1.033 . S
C1157 C190 1.032 . S
C1171 C204 1.031 . S
C1175 C260 1.036 . S
C1189 C274 1.035 . S
C1193 C218 1.031 . S
