# Generated by pormake.
# Topology lvt, (4)-cn, num edge types: 1
# Building blocks:
#     Node 0, Type 0, BuildingBlock: NAWXER_clean_sbu_0, # of connection points: 4
#     Node 1, Type 0, BuildingBlock: NAWXER_clean_sbu_0, # of connection points: 4
#     Node 2, Type 0, BuildingBlock: NAWXER_clean_sbu_0, # of connection points: 4
#     Node 3, Type 0, BuildingBlock: NAWXER_clean_sbu_0, # of connection points: 4
#     Node 4, Type 0, BuildingBlock: NAWXER_clean_sbu_0, # of connection points: 4
#     Node 5, Type 0, BuildingBlock: NAWXER_clean_sbu_0, # of connection points: 4
#     Node 6, Type 0, BuildingBlock: NAWXER_clean_sbu_0, # of connection points: 4
#     Node 7, Type 0, BuildingBlock: NAWXER_clean_sbu_0, # of connection points: 4
#     Edge 8, Type (0, 0), BuildingBlock: AJUNOK_clean_linker_0, # of connection points: 2
#     Edge 9, Type (0, 0), BuildingBlock: AJUNOK_clean_linker_0, # of connection points: 2
#     Edge 10, Type (0, 0), BuildingBlock: AJUNOK_clean_linker_0, # of connection points: 2
#     Edge 11, Type (0, 0), BuildingBlock: AJUNOK_clean_linker_0, # of connection points: 2
#     Edge 12, Type (0, 0), BuildingBlock: AJUNOK_clean_linker_0, # of connection points: 2
#     Edge 13, Type (0, 0), BuildingBlock: AJUNOK_clean_linker_0, # of connection points: 2
#     Edge 14, Type (0, 0), BuildingBlock: AJUNOK_clean_linker_0, # of connection points: 2
#     Edge 15, Type (0, 0), BuildingBlock: AJUNOK_clean_linker_0, # of connection points: 2
#     Edge 16, Type (0, 0), BuildingBlock: AJUNOK_clean_linker_0, # of connection points: 2
#     Edge 17, Type (0, 0), BuildingBlock: AJUNOK_clean_linker_0, # of connection points: 2
#     Edge 18, Type (0, 0), BuildingBlock: AJUNOK_clean_linker_0, # of connection points: 2
#     Edge 19, Type (0, 0), BuildingBlock: AJUNOK_clean_linker_0, # of connection points: 2
#     Edge 20, Type (0, 0), BuildingBlock: AJUNOK_clean_linker_0, # of connection points: 2
#     Edge 21, Type (0, 0), BuildingBlock: AJUNOK_clean_linker_0, # of connection points: 2
#     Edge 22, Type (0, 0), BuildingBlock: AJUNOK_clean_linker_0, # of connection points: 2
#     Edge 23, Type (0, 0), BuildingBlock: AJUNOK_clean_linker_0, # of connection points: 2
# Relax obj value: 0.000
# Max RMSD: 0.000
# Mean RMSD: 0.000
data_MOF--net-lvt--node1-NAWXER_clean_sbu_0--edge1-AJUNOK_clean_linker_0
_symmetry_space_group_name_H-M    P1
_symmetry_Int_Tables_number       1
_symmetry_cell_setting            triclinic
loop_
_symmetry_equiv_pos_as_xyz
'x, y, z'
_cell_length_a     27.624667
_cell_length_b     27.877031
_cell_length_c     15.755458
_cell_angle_alpha  89.384082
_cell_angle_beta   90.764643
_cell_angle_gamma 90.464858
loop_
_atom_site_label
_atom_site_type_symbol
_atom_site_fract_x
_atom_site_fract_y
_atom_site_fract_z
_atom_type_partial_charge
C0 C 0.98856 0.96601 0.6405 0.0
C1 C 0.11033 0.08529 0.55977 0.0
O2 O 0.99663 0.96518 0.56042 0.0
Zn3 Zn 0.04095 1.00509 0.47128 0.0
O4 O 1.00999 0.99744 0.68521 0.0
Zn5 Zn 0.04619 0.02931 0.59614 0.0
O6 O 0.99224 0.06696 0.51843 0.0
O7 O 0.99629 0.03444 0.39233 0.0
O8 O 0.08995 0.08033 0.63117 0.0
O9 O 0.09494 0.06082 0.49607 0.0
O10 O 0.08189 0.95617 0.42543 0.0
O11 O 0.09924 0.97567 0.55804 0.0
C12 C 0.97752 0.06494 0.44076 0.0
C13 C 0.1089 0.95189 0.49087 0.0
C14 C 0.26197 0.82342 0.55483 0.0
C15 C 0.35642 0.70539 0.72494 0.0
O16 O 0.29904 0.80234 0.52561 0.0
Zn17 Zn 0.31124 0.76315 0.62945 0.0
O18 O 0.24706 0.81363 0.62935 0.0
Zn19 Zn 0.262 0.77034 0.73674 0.0
O20 O 0.27547 0.82199 0.81791 0.0
O21 O 0.32817 0.81982 0.7138 0.0
O22 O 0.31964 0.72289 0.76167 0.0
O23 O 0.36488 0.71751 0.64828 0.0
O24 O 0.24877 0.71953 0.62239 0.0
O25 O 0.20338 0.72945 0.73464 0.0
C26 C 0.31245 0.83967 0.78078 0.0
C27 C 0.20992 0.71022 0.66262 0.0
C28 C 0.43748 0.99463 0.89289 0.0
C29 C 0.5854 0.08907 0.95861 0.0
O30 O 0.45651 0.02601 0.84378 0.0
Zn31 Zn 0.50872 0.04679 0.92065 0.0
O32 O 0.45606 0.98715 0.96657 0.0
Zn33 Zn 0.51441 1.01129 0.04409 0.0
O34 O 0.48113 0.04055 0.13872 0.0
O35 O 0.46945 0.08017 0.01842 0.0
O36 O 0.5707 0.06044 0.01692 0.0
O37 O 0.55976 0.09433 0.8913 0.0
O38 O 0.54988 0.983 0.92448 0.0
O39 O 0.55242 0.95251 0.05448 0.0
C40 C 0.46132 0.07499 0.09785 0.0
C41 C 0.56406 0.95038 0.97652 0.0
C42 C 0.32972 0.21259 0.24652 0.0
C43 C 0.2036 0.32031 0.34583 0.0
O44 O 0.29206 0.22577 0.20536 0.0
Zn45 Zn 0.2665 0.26909 0.28834 0.0
O46 O 0.33913 0.23085 0.31935 0.0
Zn47 Zn 0.30799 0.28139 0.40441 0.0
O48 O 0.29441 0.24079 0.50481 0.0
O49 O 0.25138 0.22201 0.39019 0.0
O50 O 0.23999 0.31618 0.39632 0.0
O51 O 0.20388 0.29967 0.27406 0.0
O52 O 0.31397 0.32809 0.28204 0.0
O53 O 0.35358 0.33667 0.40278 0.0
C54 C 0.26268 0.21444 0.46802 0.0
C55 C 0.34482 0.35115 0.32714 0.0
C56 C 0.70657 0.306 0.19232 0.0
C57 C 0.83377 0.19609 0.29273 0.0
O58 O 0.74024 0.2989 0.139 0.0
Zn59 Zn 0.80592 0.25992 0.12708 0.0
O60 O 0.70826 0.28546 0.26498 0.0
Zn61 Zn 0.76839 0.25125 0.24553 0.0
O62 O 0.81635 0.31074 0.23941 0.0
O63 O 0.85192 0.31402 0.11521 0.0
O64 O 0.7968 0.20999 0.33252 0.0
O65 O 0.84053 0.21151 0.21658 0.0
O66 O 0.78603 0.22033 0.03038 0.0
O67 O 0.74505 0.20433 0.14708 0.0
C68 C 0.84506 0.33203 0.18799 0.0
C69 C 0.75293 0.1968 0.06843 0.0
C70 C 0.81094 0.69672 0.73015 0.0
C71 C 0.70831 0.82237 0.84185 0.0
O72 O 0.77451 0.71571 0.69315 0.0
Zn73 Zn 0.76181 0.76311 0.77817 0.0
O74 O 0.82654 0.71362 0.80097 0.0
Zn75 Zn 0.808 0.76944 0.8882 0.0
O76 O 0.79433 0.73182 0.99131 0.0
O77 O 0.7437 0.71842 0.88381 0.0
O78 O 0.74541 0.81371 0.88894 0.0
O79 O 0.70441 0.80236 0.76988 0.0
O80 O 0.82027 0.81196 0.76149 0.0
O81 O 0.8626 0.81509 0.88045 0.0
C82 C 0.7576 0.7099 0.96021 0.0
C83 C 0.85639 0.82869 0.80374 0.0
C84 C 0.47557 0.57595 0.9341 0.0
C85 C 0.57466 0.45409 0.07657 0.0
O86 O 0.48339 0.58611 0.01264 0.0
Zn87 Zn 0.52362 0.55484 0.11925 0.0
O88 O 0.49311 0.53773 0.90489 0.0
Zn89 Zn 0.52596 0.51481 1.00619 0.0
O90 O 0.47041 0.49346 0.09325 0.0
O91 O 0.47588 0.53984 0.20567 0.0
O92 O 0.56023 0.45537 0.99954 0.0
O93 O 0.5643 0.48872 0.1259 0.0
O94 O 0.57408 0.60226 0.14391 0.0
O95 O 0.58499 0.56411 0.02408 0.0
C96 C 0.45609 0.50466 0.16751 0.0
C97 C 0.59957 0.59491 0.07883 0.0
C98 C 0.94347 0.49349 0.33903 0.0
C99 C 0.06206 0.59209 0.49622 0.0
O100 O 0.96509 0.53027 0.30869 0.0
Zn101 Zn 1.00146 0.54546 0.41287 0.0
O102 O 0.95074 0.48092 0.41655 0.0
Zn103 Zn 0.99388 0.50035 0.52405 0.0
O104 O 0.94609 0.51598 0.6076 0.0
O105 O 0.94707 0.56725 0.49975 0.0
O106 O 0.04428 0.55744 0.5399 0.0
O107 O 0.04837 0.59796 0.41933 0.0
O108 O 0.04642 0.48436 0.41696 0.0
O109 O 0.03448 0.44368 0.53591 0.0
C110 C 0.92984 0.55369 0.57138 0.0
C111 C 0.05532 0.44803 0.46459 0.0
C112 C 0.18815 0.1033 0.48847 0.0
C113 C 0.15417 0.11574 0.55001 0.0
C114 C 0.22745 0.1333 0.47 0.0
C115 C 0.23444 0.17702 0.51211 0.0
H116 H 0.18342 0.07086 0.45187 0.0
H117 H 0.25067 0.12385 0.41789 0.0
S118 S 0.15868 0.22437 0.68384 0.0
N119 N 0.1325 0.17284 0.65856 0.0
N120 N 0.2063 0.22997 0.62199 0.0
C121 C 0.20292 0.18844 0.57797 0.0
C122 C 0.16274 0.15759 0.59734 0.0
C123 C 0.19377 0.93619 0.53778 0.0
C124 C 0.1531 0.92217 0.48922 0.0
C125 C 0.23396 0.90622 0.54706 0.0
C126 C 0.23486 0.86088 0.50893 0.0
H127 H 0.19368 0.96965 0.57218 0.0
H128 H 0.26248 0.91656 0.59132 0.0
S129 S 0.14005 0.80952 0.36778 0.0
N130 N 0.11841 0.86222 0.39485 0.0
N131 N 0.19365 0.80517 0.41496 0.0
C132 C 0.19628 0.84812 0.45465 0.0
C133 C 0.15539 0.87894 0.44422 0.0
C134 C 0.39482 0.94925 0.77789 0.0
C135 C 0.39817 0.96195 0.86367 0.0
C136 C 0.36538 0.9108 0.75187 0.0
C137 C 0.3377 0.88378 0.81035 0.0
H138 H 0.41722 0.96719 0.73118 0.0
H139 H 0.36552 0.9013 0.68537 0.0
S140 S 0.32836 0.90716 0.04053 0.0
N141 N 0.36738 0.94788 1.00602 0.0
N142 N 0.31178 0.87583 0.95648 0.0
C143 C 0.33795 0.89836 0.89526 0.0
C144 C 0.36831 0.93732 0.92204 0.0
C145 C 0.36431 0.16954 0.12298 0.0
C146 C 0.36282 0.1764 0.21107 0.0
C147 C 0.39627 0.13671 0.08765 0.0
C148 C 0.42765 0.10874 0.1389 0.0
H149 H 0.34118 0.19027 0.08064 0.0
H150 H 0.39613 0.1332 0.01923 0.0
S151 S 0.43613 0.11124 0.374 0.0
N152 N 0.39448 0.1514 0.34944 0.0
N153 N 0.45408 0.08925 0.28286 0.0
C154 C 0.42584 0.11448 0.22733 0.0
C155 C 0.39363 0.14844 0.26338 0.0
C156 C 0.95235 0.92642 0.77003 0.0
C157 C 0.9549 0.93049 0.6808 0.0
C158 C 0.92106 0.89314 0.80953 0.0
C159 C 0.89051 0.86291 0.76148 0.0
H160 H 0.97487 0.94904 0.81007 0.0
H161 H 0.92038 0.8916 0.87819 0.0
S162 S 0.88386 0.8581 0.52577 0.0
N163 N 0.92446 0.90034 0.5458 0.0
N164 N 0.86583 0.83841 0.61935 0.0
C165 C 0.8929 0.8664 0.67221 0.0
C166 C 0.92498 0.89994 0.63209 0.0
C167 C 0.93532 0.1051 0.31752 0.0
C168 C 0.94004 0.09842 0.40605 0.0
C169 C 0.90105 0.13663 0.28201 0.0
C170 C 0.86926 0.16248 0.33317 0.0
H171 H 0.95875 0.08621 0.27485 0.0
H172 H 0.89934 0.14048 0.21354 0.0
S173 S 0.8659 0.15769 0.5688 0.0
N174 N 0.90961 0.12043 0.54428 0.0
N175 N 0.84469 0.17907 0.47761 0.0
C176 C 0.87315 0.15588 0.42188 0.0
C177 C 0.90864 0.12414 0.45822 0.0
C178 C 0.70538 0.12153 0.06284 0.0
C179 C 0.71864 0.16482 0.02319 0.0
C180 C 0.66372 0.09643 0.03768 0.0
C181 C 0.6328 0.11386 0.97251 0.0
H182 H 0.72604 0.10822 0.11701 0.0
H183 H 0.6547 0.06393 0.07255 0.0
S184 S 0.65362 0.22418 0.84399 0.0
N185 N 0.69983 0.22285 0.91169 0.0
N186 N 0.62082 0.17563 0.86424 0.0
C187 C 0.64729 0.15567 0.92849 0.0
C188 C 0.69034 0.18118 0.95396 0.0
C189 C 0.63383 0.89448 0.996 0.0
C190 C 0.59661 0.91307 0.94428 0.0
C191 C 0.66963 0.86519 0.96204 0.0
C192 C 0.66933 0.85301 0.87521 0.0
H193 H 0.63649 0.90417 0.06232 0.0
H194 H 0.69802 0.85236 1.00436 0.0
S195 S 0.57641 0.88881 0.71504 0.0
N196 N 0.5593 0.91458 0.80344 0.0
N197 N 0.62638 0.85946 0.73987 0.0
C198 C 0.631 0.86975 0.82374 0.0
C199 C 0.59474 0.89977 0.85821 0.0
C200 C 0.67736 0.6042 1.00174 0.0
C201 C 0.64563 0.6214 0.06353 0.0
C202 C 0.71732 0.63129 0.97521 0.0
C203 C 0.72763 0.67639 1.01002 0.0
H204 H 0.67009 0.57046 0.97037 0.0
H205 H 0.73854 0.61821 0.92301 0.0
S206 S 0.65924 0.73627 0.17883 0.0
N207 N 0.62983 0.68514 0.16371 0.0
N208 N 0.70532 0.73606 0.11303 0.0
C209 C 0.69858 0.69269 0.07602 0.0
C210 C 0.65749 0.66514 0.10309 0.0
C211 C 0.65794 0.34697 0.07993 0.0
C212 C 0.66763 0.33948 0.16707 0.0
C213 C 0.62667 0.38305 0.05154 0.0
C214 C 0.60408 0.41349 0.10907 0.0
H215 H 0.67563 0.32545 0.03279 0.0
H216 H 0.62151 0.38805 0.98373 0.0
S217 S 0.61357 0.40583 0.34443 0.0
N218 N 0.64944 0.36305 0.31105 0.0
N219 N 0.5904 0.43122 0.25801 0.0
C220 C 0.61162 0.405 0.19674 0.0
C221 C 0.64333 0.36782 0.22566 0.0
C222 C 0.85013 0.3996 0.2896 0.0
C223 C 0.86749 0.37817 0.21538 0.0
C224 C 0.87257 0.43995 0.32448 0.0
C225 C 0.91315 0.46124 0.28654 0.0
H226 H 0.81977 0.38416 0.32343 0.0
H227 H 0.85948 0.45318 0.38436 0.0
S228 S 0.96966 0.42367 0.08603 0.0
N229 N 0.9252 0.38449 0.10035 0.0
N230 N 0.96759 0.461 0.16669 0.0
C231 C 0.92899 0.44275 0.20904 0.0
C232 C 0.90612 0.40106 0.1733 0.0
C233 C 0.83837 0.65246 0.60251 0.0
C234 C 0.83658 0.65624 0.69124 0.0
C235 C 0.8671 0.61773 0.56438 0.0
C236 C 0.89439 0.58487 0.6135 0.0
H237 H 0.81916 0.67783 0.56214 0.0
H238 H 0.86888 0.61744 0.49574 0.0
S239 S 0.8976 0.57639 0.84872 0.0
N240 N 0.86141 0.62194 0.82745 0.0
N241 N 0.9148 0.55621 0.75579 0.0
C242 C 0.89066 0.58653 0.70233 0.0
C243 C 0.86199 0.62239 0.74118 0.0
C244 C 0.42841 0.46019 0.29801 0.0
C245 C 0.42192 0.47177 0.21134 0.0
C246 C 0.40288 0.42175 0.33594 0.0
C247 C 0.36968 0.39378 0.28867 0.0
H248 H 0.45523 0.47928 0.33572 0.0
H249 H 0.41014 0.41322 0.40209 0.0
S250 S 0.33631 0.41331 0.06094 0.0
N251 N 0.37762 0.45482 0.0811 0.0
N252 N 0.32938 0.38348 0.15098 0.0
C253 C 0.36129 0.40689 0.20274 0.0
C254 C 0.38744 0.44561 0.1645 0.0
C255 C 0.38784 0.6739 0.86434 0.0
C256 C 0.38867 0.67257 0.77486 0.0
C257 C 0.41627 0.64301 0.91475 0.0
C258 C 0.44643 0.60871 0.87824 0.0
H259 H 0.36505 0.69929 0.89623 0.0
H260 H 0.41402 0.64572 0.98313 0.0
S261 S 0.46257 0.59051 0.64685 0.0
N262 N 0.42302 0.63448 0.6518 0.0
N263 N 0.476 0.57579 0.74619 0.0
C264 C 0.44787 0.60699 0.78869 0.0
C265 C 0.41926 0.63907 0.73721 0.0
C266 C 0.13526 0.65769 0.66633 0.0
C267 C 0.17183 0.68078 0.6197 0.0
C268 C 0.09971 0.62943 0.62564 0.0
C269 C 0.09869 0.62406 0.53662 0.0
H270 H 0.13452 0.66079 0.73476 0.0
H271 H 0.07268 0.61171 0.66438 0.0
S272 S 0.1851 0.67833 0.38479 0.0
N273 N 0.20409 0.69694 0.47866 0.0
N274 N 0.13682 0.64479 0.40325 0.0
C275 C 0.1343 0.64779 0.48914 0.0
C276 C 0.17097 0.67582 0.5304 0.0
C277 C 0.15521 0.35594 0.4615 0.0
C278 C 0.16208 0.34899 0.37386 0.0
C279 C 0.11917 0.38641 0.49099 0.0
C280 C 0.08922 0.41161 0.43383 0.0
H281 H 0.17841 0.33825 0.50794 0.0
H282 H 0.11604 0.39168 0.55872 0.0
S283 S 0.08921 0.40261 0.19864 0.0
N284 N 0.1335 0.3671 0.23077 0.0
N285 N 0.06596 0.42478 0.28574 0.0
C286 C 0.09431 0.40346 0.34618 0.0
C287 C 0.13063 0.37197 0.31627 0.0
loop_
_geom_bond_atom_site_label_1
_geom_bond_atom_site_label_2
_geom_bond_distance
_geom_bond_site_symmetry_2
_ccdc_geom_bond_type
C0 O2 1.247 . S
C0 O4 1.258 . S
C1 O8 1.247 . S
C1 O9 1.258 . S
O2 C0 1.247 . S
O2 Zn3 2.026 . S
Zn3 O2 2.026 . S
Zn3 O7 2.033 1_565 S
Zn3 O9 2.037 1_665 S
Zn3 O10 2.030 1_655 S
O4 C0 1.258 . S
O4 Zn5 2.033 1_665 S
Zn5 O4 2.033 1_445 S
Zn5 O6 2.026 1_455 S
Zn5 O8 2.030 . S
Zn5 O11 2.037 1_545 S
O6 Zn5 2.026 1_655 S
O6 C12 1.247 . S
O7 Zn3 2.033 1_545 S
O7 C12 1.258 . S
O8 C1 1.247 . S
O8 Zn5 2.030 . S
O9 C1 1.258 . S
O9 Zn3 2.037 1_445 S
O10 Zn3 2.030 1_455 S
O10 C13 1.247 . S
O11 Zn5 2.037 1_565 S
O11 C13 1.258 . S
C12 O6 1.247 . S
C12 O7 1.258 . S
C13 O10 1.247 . S
C13 O11 1.258 . S
C14 O16 1.247 . S
C14 O18 1.258 . S
C15 O22 1.247 . S
C15 O23 1.258 . S
O16 C14 1.247 . S
O16 Zn17 2.028 . S
Zn17 O16 2.028 . S
Zn17 O21 2.035 . S
Zn17 O23 2.035 . S
Zn17 O24 2.028 . S
O18 C14 1.258 . S
O18 Zn19 2.035 . S
Zn19 O18 2.035 . S
Zn19 O20 2.028 . S
Zn19 O22 2.028 . S
Zn19 O25 2.035 . S
O20 Zn19 2.028 . S
O20 C26 1.247 . S
O21 Zn17 2.035 . S
O21 C26 1.258 . S
O22 C15 1.247 . S
O22 Zn19 2.028 . S
O23 C15 1.258 . S
O23 Zn17 2.035 . S
O24 Zn17 2.028 . S
O24 C27 1.247 . S
O25 Zn19 2.035 . S
O25 C27 1.258 . S
C26 O20 1.247 . S
C26 O21 1.258 . S
C27 O24 1.247 . S
C27 O25 1.258 . S
C28 O30 1.247 . S
C28 O32 1.258 1_556 S
C29 O36 1.247 . S
C29 O37 1.258 1_554 S
O30 C28 1.247 . S
O30 Zn31 2.028 1_565 S
Zn31 O30 2.028 1_545 S
Zn31 O35 2.035 . S
Zn31 O37 2.035 . S
Zn31 O38 2.028 1_545 S
O32 C28 1.258 1_554 S
O32 Zn33 2.035 . S
Zn33 O32 2.035 . S
Zn33 O34 2.028 1_565 S
Zn33 O36 2.028 1_565 S
Zn33 O39 2.035 . S
O34 Zn33 2.028 1_545 S
O34 C40 1.247 . S
O35 Zn31 2.035 . S
O35 C40 1.258 1_556 S
O36 C29 1.247 . S
O36 Zn33 2.028 1_545 S
O37 C29 1.258 1_556 S
O37 Zn31 2.035 . S
O38 Zn31 2.028 1_565 S
O38 C41 1.247 . S
O39 Zn33 2.035 . S
O39 C41 1.258 1_554 S
C40 O34 1.247 . S
C40 O35 1.258 1_554 S
C41 O38 1.247 . S
C41 O39 1.258 1_556 S
C42 O44 1.247 . S
C42 O46 1.258 . S
C43 O50 1.247 . S
C43 O51 1.258 . S
O44 C42 1.247 . S
O44 Zn45 2.028 . S
Zn45 O44 2.028 . S
Zn45 O49 2.035 . S
Zn45 O51 2.035 . S
Zn45 O52 2.028 . S
O46 C42 1.258 . S
O46 Zn47 2.035 . S
Zn47 O46 2.035 . S
Zn47 O48 2.028 . S
Zn47 O50 2.028 . S
Zn47 O53 2.035 . S
O48 Zn47 2.028 . S
O48 C54 1.247 . S
O49 Zn45 2.035 . S
O49 C54 1.258 . S
O50 C43 1.247 . S
O50 Zn47 2.028 . S
O51 C43 1.258 . S
O51 Zn45 2.035 . S
O52 Zn45 2.028 . S
O52 C55 1.247 . S
O53 Zn47 2.035 . S
O53 C55 1.258 . S
C54 O48 1.247 . S
C54 O49 1.258 . S
C55 O52 1.247 . S
C55 O53 1.258 . S
C56 O58 1.247 . S
C56 O60 1.258 . S
C57 O64 1.247 . S
C57 O65 1.258 . S
O58 C56 1.247 . S
O58 Zn59 2.028 . S
Zn59 O58 2.028 . S
Zn59 O63 2.035 . S
Zn59 O65 2.035 . S
Zn59 O66 2.028 . S
O60 C56 1.258 . S
O60 Zn61 2.035 . S
Zn61 O60 2.035 . S
Zn61 O62 2.028 . S
Zn61 O64 2.028 . S
Zn61 O67 2.035 . S
O62 Zn61 2.028 . S
O62 C68 1.247 . S
O63 Zn59 2.035 . S
O63 C68 1.258 . S
O64 C57 1.247 . S
O64 Zn61 2.028 . S
O65 C57 1.258 . S
O65 Zn59 2.035 . S
O66 Zn59 2.028 . S
O66 C69 1.247 . S
O67 Zn61 2.035 . S
O67 C69 1.258 . S
C68 O62 1.247 . S
C68 O63 1.258 . S
C69 O66 1.247 . S
C69 O67 1.258 . S
C70 O72 1.247 . S
C70 O74 1.258 . S
C71 O78 1.247 . S
C71 O79 1.258 . S
O72 C70 1.247 . S
O72 Zn73 2.028 . S
Zn73 O72 2.028 . S
Zn73 O77 2.035 . S
Zn73 O79 2.035 . S
Zn73 O80 2.028 . S
O74 C70 1.258 . S
O74 Zn75 2.035 . S
Zn75 O74 2.035 . S
Zn75 O76 2.028 . S
Zn75 O78 2.028 . S
Zn75 O81 2.035 . S
O76 Zn75 2.028 . S
O76 C82 1.247 . S
O77 Zn73 2.035 . S
O77 C82 1.258 . S
O78 C71 1.247 . S
O78 Zn75 2.028 . S
O79 C71 1.258 . S
O79 Zn73 2.035 . S
O80 Zn73 2.028 . S
O80 C83 1.247 . S
O81 Zn75 2.035 . S
O81 C83 1.258 . S
C82 O76 1.247 . S
C82 O77 1.258 . S
C83 O80 1.247 . S
C83 O81 1.258 . S
C84 O86 1.247 1_556 S
C84 O88 1.258 . S
C85 O92 1.247 1_554 S
C85 O93 1.258 . S
O86 C84 1.247 1_554 S
O86 Zn87 2.028 . S
Zn87 O86 2.028 . S
Zn87 O91 2.035 . S
Zn87 O93 2.035 . S
Zn87 O94 2.028 . S
O88 C84 1.258 . S
O88 Zn89 2.035 . S
Zn89 O88 2.035 . S
Zn89 O90 2.028 . S
Zn89 O92 2.028 . S
Zn89 O95 2.035 . S
O90 Zn89 2.028 . S
O90 C96 1.247 1_556 S
O91 Zn87 2.035 . S
O91 C96 1.258 . S
O92 C85 1.247 1_556 S
O92 Zn89 2.028 . S
O93 C85 1.258 . S
O93 Zn87 2.035 . S
O94 Zn87 2.028 . S
O94 C97 1.247 1_554 S
O95 Zn89 2.035 . S
O95 C97 1.258 . S
C96 O90 1.247 1_554 S
C96 O91 1.258 . S
C97 O94 1.247 1_556 S
C97 O95 1.258 . S
C98 O100 1.247 . S
C98 O102 1.258 . S
C99 O106 1.247 . S
C99 O107 1.258 . S
O100 C98 1.247 . S
O100 Zn101 2.026 . S
Zn101 O100 2.026 . S
Zn101 O105 2.034 . S
Zn101 O107 2.037 1_655 S
Zn101 O108 2.030 1_655 S
O102 C98 1.258 . S
O102 Zn103 2.033 1_655 S
Zn103 O102 2.033 1_455 S
Zn103 O104 2.026 1_455 S
Zn103 O106 2.030 . S
Zn103 O109 2.037 . S
O104 Zn103 2.026 1_655 S
O104 C110 1.247 . S
O105 Zn101 2.034 . S
O105 C110 1.258 . S
O106 C99 1.247 . S
O106 Zn103 2.030 . S
O107 C99 1.258 . S
O107 Zn101 2.037 1_455 S
O108 Zn101 2.030 1_455 S
O108 C111 1.247 . S
O109 Zn103 2.037 . S
O109 C111 1.258 . S
C110 O104 1.247 . S
C110 O105 1.258 . S
C111 O108 1.247 . S
C111 O109 1.258 . S
C112 C113 1.369 . S
C112 C114 1.419 . S
C112 H116 0.930 . S
C113 C112 1.369 . S
C113 C122 1.429 . S
C114 C112 1.419 . S
C114 C115 1.363 . S
C114 H117 0.929 . S
C115 C114 1.363 . S
C115 C121 1.428 . S
H116 C112 0.930 . S
H117 C114 0.929 . S
S118 N119 1.613 . S
S118 N120 1.610 . S
N119 S118 1.613 . S
N119 C122 1.350 . S
N120 S118 1.610 . S
N120 C121 1.351 . S
C121 C115 1.428 . S
C121 N120 1.351 . S
C121 C122 1.434 . S
C122 C113 1.429 . S
C122 N119 1.350 . S
C122 C121 1.434 . S
C123 C124 1.369 . S
C123 C125 1.419 . S
C123 H127 0.930 . S
C124 C123 1.369 . S
C124 C133 1.429 . S
C125 C123 1.419 . S
C125 C126 1.363 . S
C125 H128 0.929 . S
C126 C125 1.363 . S
C126 C132 1.428 . S
H127 C123 0.930 . S
H128 C125 0.929 . S
S129 N130 1.613 . S
S129 N131 1.610 . S
N130 S129 1.613 . S
N130 C133 1.350 . S
N131 S129 1.610 . S
N131 C132 1.351 . S
C132 C126 1.428 . S
C132 N131 1.351 . S
C132 C133 1.434 . S
C133 C124 1.429 . S
C133 N130 1.350 . S
C133 C132 1.434 . S
C134 C135 1.369 . S
C134 C136 1.419 . S
C134 H138 0.930 . S
C135 C134 1.369 . S
C135 C144 1.429 . S
C136 C134 1.419 . S
C136 C137 1.363 . S
C136 H139 0.929 . S
C137 C136 1.363 . S
C137 C143 1.428 . S
H138 C134 0.930 . S
H139 C136 0.929 . S
S140 N141 1.613 . S
S140 N142 1.610 . S
N141 S140 1.613 . S
N141 C144 1.350 . S
N142 S140 1.610 . S
N142 C143 1.351 . S
C143 C137 1.428 . S
C143 N142 1.351 . S
C143 C144 1.434 . S
C144 C135 1.429 . S
C144 N141 1.350 . S
C144 C143 1.434 . S
C145 C146 1.369 . S
C145 C147 1.419 . S
C145 H149 0.930 . S
C146 C145 1.369 . S
C146 C155 1.429 . S
C147 C145 1.419 . S
C147 C148 1.363 . S
C147 H150 0.929 . S
C148 C147 1.363 . S
C148 C154 1.428 . S
H149 C145 0.930 . S
H150 C147 0.929 . S
S151 N152 1.613 . S
S151 N153 1.610 . S
N152 S151 1.613 . S
N152 C155 1.350 . S
N153 S151 1.610 . S
N153 C154 1.351 . S
C154 C148 1.428 . S
C154 N153 1.351 . S
C154 C155 1.434 . S
C155 C146 1.429 . S
C155 N152 1.350 . S
C155 C154 1.434 . S
C156 C157 1.369 . S
C156 C158 1.419 . S
C156 H160 0.930 . S
C157 C156 1.369 . S
C157 C166 1.429 . S
C158 C156 1.419 . S
C158 C159 1.363 . S
C158 H161 0.929 . S
C159 C158 1.363 . S
C159 C165 1.428 . S
H160 C156 0.930 . S
H161 C158 0.929 . S
S162 N163 1.613 . S
S162 N164 1.610 . S
N163 S162 1.613 . S
N163 C166 1.350 . S
N164 S162 1.610 . S
N164 C165 1.351 . S
C165 C159 1.428 . S
C165 N164 1.351 . S
C165 C166 1.434 . S
C166 C157 1.429 . S
C166 N163 1.350 . S
C166 C165 1.434 . S
C167 C168 1.369 . S
C167 C169 1.419 . S
C167 H171 0.930 . S
C168 C167 1.369 . S
C168 C177 1.429 . S
C169 C167 1.419 . S
C169 C170 1.363 . S
C169 H172 0.929 . S
C170 C169 1.363 . S
C170 C176 1.428 . S
H171 C167 0.930 . S
H172 C169 0.929 . S
S173 N174 1.613 . S
S173 N175 1.610 . S
N174 S173 1.613 . S
N174 C177 1.350 . S
N175 S173 1.610 . S
N175 C176 1.351 . S
C176 C170 1.428 . S
C176 N175 1.351 . S
C176 C177 1.434 . S
C177 C168 1.429 . S
C177 N174 1.350 . S
C177 C176 1.434 . S
C178 C179 1.369 . S
C178 C180 1.419 . S
C178 H182 0.930 . S
C179 C178 1.369 . S
C179 C188 1.429 . S
C180 C178 1.419 . S
C180 C181 1.363 . S
C180 H183 0.929 . S
C181 C180 1.363 . S
C181 C187 1.428 . S
H182 C178 0.930 . S
H183 C180 0.929 . S
S184 N185 1.613 1_556 S
S184 N186 1.610 . S
N185 S184 1.613 1_554 S
N185 C188 1.350 . S
N186 S184 1.610 . S
N186 C187 1.351 1_556 S
C187 C181 1.428 . S
C187 N186 1.351 1_554 S
C187 C188 1.434 . S
C188 C179 1.429 . S
C188 N185 1.350 . S
C188 C187 1.434 . S
C189 C190 1.369 . S
C189 C191 1.419 . S
C189 H193 0.930 . S
C190 C189 1.369 . S
C190 C199 1.429 . S
C191 C189 1.419 . S
C191 C192 1.363 . S
C191 H194 0.929 . S
C192 C191 1.363 . S
C192 C198 1.428 . S
H193 C189 0.930 . S
H194 C191 0.929 . S
S195 N196 1.613 . S
S195 N197 1.610 . S
N196 S195 1.613 . S
N196 C199 1.350 . S
N197 S195 1.610 . S
N197 C198 1.351 . S
C198 C192 1.428 . S
C198 N197 1.351 . S
C198 C199 1.434 . S
C199 C190 1.429 . S
C199 N196 1.350 . S
C199 C198 1.434 . S
C200 C201 1.369 . S
C200 C202 1.419 . S
C200 H204 0.930 . S
C201 C200 1.369 . S
C201 C210 1.429 . S
C202 C200 1.419 . S
C202 C203 1.363 . S
C202 H205 0.929 . S
C203 C202 1.363 . S
C203 C209 1.428 . S
H204 C200 0.930 . S
H205 C202 0.929 . S
S206 N207 1.613 . S
S206 N208 1.610 1_554 S
N207 S206 1.613 . S
N207 C210 1.350 1_554 S
N208 S206 1.610 1_556 S
N208 C209 1.351 . S
C209 C203 1.428 . S
C209 N208 1.351 . S
C209 C210 1.434 . S
C210 C201 1.429 . S
C210 N207 1.350 1_556 S
C210 C209 1.434 . S
C211 C212 1.369 . S
C211 C213 1.419 . S
C211 H215 0.930 . S
C212 C211 1.369 . S
C212 C221 1.429 . S
C213 C211 1.419 . S
C213 C214 1.363 . S
C213 H216 0.929 . S
C214 C213 1.363 . S
C214 C220 1.428 . S
H215 C211 0.930 . S
H216 C213 0.929 . S
S217 N218 1.613 . S
S217 N219 1.610 . S
N218 S217 1.613 . S
N218 C221 1.350 . S
N219 S217 1.610 . S
N219 C220 1.351 . S
C220 C214 1.428 . S
C220 N219 1.351 . S
C220 C221 1.434 . S
C221 C212 1.429 . S
C221 N218 1.350 . S
C221 C220 1.434 . S
C222 C223 1.369 . S
C222 C224 1.419 . S
C222 H226 0.930 . S
C223 C222 1.369 . S
C223 C232 1.429 . S
C224 C222 1.419 . S
C224 C225 1.363 . S
C224 H227 0.929 . S
C225 C224 1.363 . S
C225 C231 1.428 . S
H226 C222 0.930 . S
H227 C224 0.929 . S
S228 N229 1.613 . S
S228 N230 1.610 . S
N229 S228 1.613 . S
N229 C232 1.350 . S
N230 S228 1.610 . S
N230 C231 1.351 . S
C231 C225 1.428 . S
C231 N230 1.351 . S
C231 C232 1.434 . S
C232 C223 1.429 . S
C232 N229 1.350 . S
C232 C231 1.434 . S
C233 C234 1.369 . S
C233 C235 1.419 . S
C233 H237 0.930 . S
C234 C233 1.369 . S
C234 C243 1.429 . S
C235 C233 1.419 . S
C235 C236 1.363 . S
C235 H238 0.929 . S
C236 C235 1.363 . S
C236 C242 1.428 . S
H237 C233 0.930 . S
H238 C235 0.929 . S
S239 N240 1.613 . S
S239 N241 1.610 . S
N240 S239 1.613 . S
N240 C243 1.350 . S
N241 S239 1.610 . S
N241 C242 1.351 . S
C242 C236 1.428 . S
C242 N241 1.351 . S
C242 C243 1.434 . S
C243 C234 1.429 . S
C243 N240 1.350 . S
C243 C242 1.434 . S
C244 C245 1.369 . S
C244 C246 1.419 . S
C244 H248 0.930 . S
C245 C244 1.369 . S
C245 C254 1.429 . S
C246 C244 1.419 . S
C246 C247 1.363 . S
C246 H249 0.929 . S
C247 C246 1.363 . S
C247 C253 1.428 . S
H248 C244 0.930 . S
H249 C246 0.929 . S
S250 N251 1.613 . S
S250 N252 1.610 . S
N251 S250 1.613 . S
N251 C254 1.350 . S
N252 S250 1.610 . S
N252 C253 1.351 . S
C253 C247 1.428 . S
C253 N252 1.351 . S
C253 C254 1.434 . S
C254 C245 1.429 . S
C254 N251 1.350 . S
C254 C253 1.434 . S
C255 C256 1.369 . S
C255 C257 1.419 . S
C255 H259 0.930 . S
C256 C255 1.369 . S
C256 C265 1.429 . S
C257 C255 1.419 . S
C257 C258 1.363 . S
C257 H260 0.929 . S
C258 C257 1.363 . S
C258 C264 1.428 . S
H259 C255 0.930 . S
H260 C257 0.929 . S
S261 N262 1.613 . S
S261 N263 1.610 . S
N262 S261 1.613 . S
N262 C265 1.350 . S
N263 S261 1.610 . S
N263 C264 1.351 . S
C264 C258 1.428 . S
C264 N263 1.351 . S
C264 C265 1.434 . S
C265 C256 1.429 . S
C265 N262 1.350 . S
C265 C264 1.434 . S
C266 C267 1.369 . S
C266 C268 1.419 . S
C266 H270 0.930 . S
C267 C266 1.369 . S
C267 C276 1.429 . S
C268 C266 1.419 . S
C268 C269 1.363 . S
C268 H271 0.929 . S
C269 C268 1.363 . S
C269 C275 1.428 . S
H270 C266 0.930 . S
H271 C268 0.929 . S
S272 N273 1.613 . S
S272 N274 1.610 . S
N273 S272 1.613 . S
N273 C276 1.350 . S
N274 S272 1.610 . S
N274 C275 1.351 . S
C275 C269 1.428 . S
C275 N274 1.351 . S
C275 C276 1.434 . S
C276 C267 1.429 . S
C276 N273 1.350 . S
C276 C275 1.434 . S
C277 C278 1.369 . S
C277 C279 1.419 . S
C277 H281 0.930 . S
C278 C277 1.369 . S
C278 C287 1.429 . S
C279 C277 1.419 . S
C279 C280 1.363 . S
C279 H282 0.929 . S
C280 C279 1.363 . S
C280 C286 1.428 . S
H281 C277 0.930 . S
H282 C279 0.929 . S
S283 N284 1.613 . S
S283 N285 1.610 . S
N284 S283 1.613 . S
N284 C287 1.350 . S
N285 S283 1.610 . S
N285 C286 1.351 . S
C286 C280 1.428 . S
C286 N285 1.351 . S
C286 C287 1.434 . S
C287 C278 1.429 . S
C287 N284 1.350 . S
C287 C286 1.434 . S
C113 C1 1.498 . S
C115 C54 1.495 . S
C124 C13 1.498 . S
C126 C14 1.498 . S
C135 C28 1.498 . S
C137 C26 1.501 . S
C146 C42 1.499 . S
C148 C40 1.496 . S
C157 C0 1.498 . S
C159 C83 1.502 . S
C168 C12 1.498 . S
C170 C57 1.498 . S
C179 C69 1.498 . S
C181 C29 1.496 . S
C190 C41 1.498 . S
C192 C71 1.500 . S
C201 C97 1.498 . S
C203 C82 1.499 . S
C212 C56 1.497 . S
C214 C85 1.497 . S
C223 C68 1.498 . S
C225 C98 1.500 . S
C234 C70 1.498 . S
C236 C110 1.500 . S
C245 C96 1.499 . S
C247 C55 1.499 . S
C256 C15 1.498 . S
C258 C84 1.499 . S
C267 C27 1.498 . S
C269 C99 1.496 . S
C278 C43 1.499 . S
C280 C111 1.497 . S
