# Generated by pormake.
# Topology und, (4)-cn, num edge types: 1
# Building blocks:
#     Node 0, Type 0, BuildingBlock: TATPOV_clean_sbu_0, # of connection points: 4
#     Node 1, Type 0, BuildingBlock: TATPOV_clean_sbu_0, # of connection points: 4
#     Node 2, Type 0, BuildingBlock: TATPOV_clean_sbu_0, # of connection points: 4
#     Node 3, Type 0, BuildingBlock: TATPOV_clean_sbu_0, # of connection points: 4
#     Node 4, Type 0, BuildingBlock: TATPOV_clean_sbu_0, # of connection points: 4
#     Node 5, Type 0, BuildingBlock: TATPOV_clean_sbu_0, # of connection points: 4
#     Node 6, Type 0, BuildingBlock: TATPOV_clean_sbu_0, # of connection points: 4
#     Node 7, Type 0, BuildingBlock: TATPOV_clean_sbu_0, # of connection points: 4
#     Node 8, Type 0, BuildingBlock: TATPOV_clean_sbu_0, # of connection points: 4
#     Node 9, Type 0, BuildingBlock: TATPOV_clean_sbu_0, # of connection points: 4
#     Node 10, Type 0, BuildingBlock: TATPOV_clean_sbu_0, # of connection points: 4
#     Node 11, Type 0, BuildingBlock: TATPOV_clean_sbu_0, # of connection points: 4
#     Node 12, Type 0, BuildingBlock: TATPOV_clean_sbu_0, # of connection points: 4
#     Node 13, Type 0, BuildingBlock: TATPOV_clean_sbu_0, # of connection points: 4
#     Node 14, Type 0, BuildingBlock: TATPOV_clean_sbu_0, # of connection points: 4
#     Node 15, Type 0, BuildingBlock: TATPOV_clean_sbu_0, # of connection points: 4
#     Edge 16, Type (0, 0), BuildingBlock: OJICUG_clean_linker_0, # of connection points: 2
#     Edge 17, Type (0, 0), BuildingBlock: OJICUG_clean_linker_0, # of connection points: 2
#     Edge 18, Type (0, 0), BuildingBlock: OJICUG_clean_linker_0, # of connection points: 2
#     Edge 19, Type (0, 0), BuildingBlock: OJICUG_clean_linker_0, # of connection points: 2
#     Edge 20, Type (0, 0), BuildingBlock: OJICUG_clean_linker_0, # of connection points: 2
#     Edge 21, Type (0, 0), BuildingBlock: OJICUG_clean_linker_0, # of connection points: 2
#     Edge 22, Type (0, 0), BuildingBlock: OJICUG_clean_linker_0, # of connection points: 2
#     Edge 23, Type (0, 0), BuildingBlock: OJICUG_clean_linker_0, # of connection points: 2
#     Edge 24, Type (0, 0), BuildingBlock: OJICUG_clean_linker_0, # of connection points: 2
#     Edge 25, Type (0, 0), BuildingBlock: OJICUG_clean_linker_0, # of connection points: 2
#     Edge 26, Type (0, 0), BuildingBlock: OJICUG_clean_linker_0, # of connection points: 2
#     Edge 27, Type (0, 0), BuildingBlock: OJICUG_clean_linker_0, # of connection points: 2
#     Edge 28, Type (0, 0), BuildingBlock: OJICUG_clean_linker_0, # of connection points: 2
#     Edge 29, Type (0, 0), BuildingBlock: OJICUG_clean_linker_0, # of connection points: 2
#     Edge 30, Type (0, 0), BuildingBlock: OJICUG_clean_linker_0, # of connection points: 2
#     Edge 31, Type (0, 0), BuildingBlock: OJICUG_clean_linker_0, # of connection points: 2
#     Edge 32, Type (0, 0), BuildingBlock: OJICUG_clean_linker_0, # of connection points: 2
#     Edge 33, Type (0, 0), BuildingBlock: OJICUG_clean_linker_0, # of connection points: 2
#     Edge 34, Type (0, 0), BuildingBlock: OJICUG_clean_linker_0, # of connection points: 2
#     Edge 35, Type (0, 0), BuildingBlock: OJICUG_clean_linker_0, # of connection points: 2
#     Edge 36, Type (0, 0), BuildingBlock: OJICUG_clean_linker_0, # of connection points: 2
#     Edge 37, Type (0, 0), BuildingBlock: OJICUG_clean_linker_0, # of connection points: 2
#     Edge 38, Type (0, 0), BuildingBlock: OJICUG_clean_linker_0, # of connection points: 2
#     Edge 39, Type (0, 0), BuildingBlock: OJICUG_clean_linker_0, # of connection points: 2
#     Edge 40, Type (0, 0), BuildingBlock: OJICUG_clean_linker_0, # of connection points: 2
#     Edge 41, Type (0, 0), BuildingBlock: OJICUG_clean_linker_0, # of connection points: 2
#     Edge 42, Type (0, 0), BuildingBlock: OJICUG_clean_linker_0, # of connection points: 2
#     Edge 43, Type (0, 0), BuildingBlock: OJICUG_clean_linker_0, # of connection points: 2
#     Edge 44, Type (0, 0), BuildingBlock: OJICUG_clean_linker_0, # of connection points: 2
#     Edge 45, Type (0, 0), BuildingBlock: OJICUG_clean_linker_0, # of connection points: 2
#     Edge 46, Type (0, 0), BuildingBlock: OJICUG_clean_linker_0, # of connection points: 2
#     Edge 47, Type (0, 0), BuildingBlock: OJICUG_clean_linker_0, # of connection points: 2
# Relax obj value: 0.104
# Max RMSD: 0.158
# Mean RMSD: 0.158
data_MOF--net-und--node1-TATPOV_clean_sbu_0--edge1-OJICUG_clean_linker_0
_symmetry_space_group_name_H-M    P1
_symmetry_Int_Tables_number       1
_symmetry_cell_setting            triclinic
loop_
_symmetry_equiv_pos_as_xyz
'x, y, z'
_cell_length_a     43.703018
_cell_length_b     43.90762
_cell_length_c     16.128021
_cell_angle_alpha  89.101987
_cell_angle_beta   89.332414
_cell_angle_gamma 91.574864
loop_
_atom_site_label
_atom_site_type_symbol
_atom_site_fract_x
_atom_site_fract_y
_atom_site_fract_z
_atom_type_partial_charge
Zn0 Zn 0.29964 0.31292 -0.03322 0.0
Zn1 Zn 0.24998 0.34266 -0.0364 0.0
O2 O 0.24199 0.30454 0.03792 0.0
O3 O 0.28387 0.27801 0.03567 0.0
O4 O 0.21385 0.36865 -0.00709 0.0
O5 O 0.32596 0.34629 0.01192 0.0
O6 O 0.28635 0.37291 -0.02318 0.0
C7 C 0.25629 0.28067 0.05799 0.0
C8 C 0.2709 0.31696 0.80484 0.0
O9 O 0.24904 0.32972 0.84301 0.0
O10 O 0.29485 0.30978 0.84328 0.0
C11 C 0.21303 0.37492 0.06978 0.0
O12 O 0.23428 0.36397 0.11796 0.0
C13 C 0.3143 0.37185 -0.0023 0.0
Zn14 Zn 0.95673 0.94539 0.22453 0.0
Zn15 Zn 0.93289 1.00078 0.21786 0.0
O16 O 0.94268 0.98503 0.10285 0.0
O17 O 0.95509 0.93697 0.10296 0.0
O18 O 0.91124 0.04016 0.19027 0.0
O19 O 0.92458 0.93258 0.30778 0.0
O20 O 0.90264 0.97703 0.2955 0.0
C21 C 0.95046 0.9615 0.06361 0.0
C22 C 0.99568 0.99334 0.29044 0.0
O23 O 0.97291 0.01046 0.27827 0.0
O24 O 0.99457 0.96577 0.26846 0.0
C25 C 0.91824 0.05642 0.12627 0.0
O26 O 0.9423 0.0495 0.08154 0.0
C27 C 0.90383 0.95058 0.32867 0.0
Zn28 Zn 0.19456 0.68474 0.55326 0.0
Zn29 Zn 0.25367 0.67027 0.54563 0.0
O30 O 0.2427 0.68336 0.66274 0.0
O31 O 0.19397 0.69368 0.6744 0.0
O32 O 0.29445 0.65012 0.561 0.0
O33 O 0.18089 0.64459 0.5058 0.0
O34 O 0.22979 0.63828 0.47969 0.0
C35 C 0.22028 0.69255 0.7058 0.0
C36 C 0.2363 0.72575 0.45299 0.0
O37 O 0.25801 0.70869 0.47528 0.0
O38 O 0.20886 0.7195 0.47544 0.0
C39 C 0.31387 0.65756 0.61583 0.0
O40 O 0.3096 0.68212 0.65948 0.0
C41 C 0.20195 0.62993 0.47158 0.0
Zn42 Zn 0.57757 0.07866 0.71006 0.0
Zn43 Zn 0.59374 0.01976 0.73013 0.0
O44 O 0.5608 0.02149 0.64202 0.0
O45 O 0.54913 0.06908 0.61642 0.0
O46 O 0.61114 0.97801 0.71539 0.0
O47 O 0.62191 0.09248 0.69426 0.0
O48 O 0.63295 0.04546 0.72799 0.0
C49 C 0.5449 0.04092 0.6038 0.0
C50 C 0.55956 0.04729 0.86856 0.0
O51 O 0.57276 0.02386 0.84109 0.0
O52 O 0.5593 0.07189 0.82613 0.0
C53 C 0.62041 0.97381 0.64134 0.0
O54 O 0.61574 0.9951 0.58508 0.0
C55 C 0.64149 0.07278 0.71213 0.0
Zn56 Zn 0.69334 0.7199 -0.02474 0.0
Zn57 Zn 0.74577 0.6909 -0.031 0.0
O58 O 0.73127 0.70288 0.85421 0.0
O59 O 0.68425 0.71903 0.85385 0.0
O60 O 0.78255 0.66625 0.93846 0.0
O61 O 0.67744 0.68928 0.05912 0.0
O62 O 0.71932 0.66283 0.04598 0.0
C63 C 0.70842 0.71271 0.81475 0.0
C64 C 0.74556 0.75358 0.04011 0.0
O65 O 0.76001 0.72903 0.02966 0.0
O66 O 0.71801 0.75543 0.01746 0.0
C67 C 0.8083 0.67769 0.91462 0.0
O68 O 0.81306 0.70734 0.91709 0.0
C69 C 0.6932 0.66667 0.07951 0.0
Zn70 Zn 0.06349 0.04939 0.72529 0.0
Zn71 Zn 0.09414 1.0015 0.72517 0.0
O72 O 0.05575 0.99319 0.79908 0.0
O73 O 0.02744 0.03361 0.78958 0.0
O74 O 0.12149 0.96683 0.7585 0.0
O75 O 0.09519 0.07706 0.77331 0.0
O76 O 0.12313 0.03913 0.7342 0.0
C77 C 0.03094 0.00663 0.81517 0.0
C78 C 0.06943 0.02099 0.5642 0.0
O79 O 0.08157 0.99913 0.60408 0.0
O80 O 0.06216 0.04497 0.60149 0.0
C81 C 0.11119 0.94053 0.78086 0.0
O82 O 0.08188 0.93393 0.77287 0.0
C83 C 0.12115 0.06684 0.75539 0.0
Zn84 Zn 0.82551 0.34633 0.37603 0.0
Zn85 Zn 0.76495 0.35527 0.38811 0.0
O86 O 0.77552 0.33173 0.28419 0.0
O87 O 0.82494 0.32703 0.26426 0.0
O88 O 0.72217 0.37128 0.36966 0.0
O89 O 0.83629 0.39063 0.39464 0.0
O90 O 0.78758 0.39337 0.42782 0.0
C91 C 0.79771 0.32155 0.24212 0.0
C92 C 0.78947 0.31121 0.50702 0.0
O93 O 0.76555 0.32421 0.48105 0.0
O94 O 0.81557 0.31768 0.47482 0.0
C95 C 0.70945 0.371 0.29894 0.0
O96 O 0.72262 0.35687 0.23757 0.0
C97 C 0.8144 0.40521 0.42507 0.0
Zn98 Zn 0.44597 0.97491 0.24009 0.0
Zn99 Zn 0.41655 0.02268 0.22741 0.0
O100 O 0.43821 0.01904 0.33983 0.0
O101 O 0.45205 0.97202 0.36156 0.0
O102 O 0.38735 0.05676 0.25007 0.0
O103 O 0.41731 0.94837 0.17989 0.0
O104 O 0.38842 0.98861 0.177 0.0
C105 C 0.45045 0.99911 0.38613 0.0
C106 C 0.47488 0.02197 0.13465 0.0
O107 O 0.44993 0.03616 0.14322 0.0
O108 O 0.47851 0.99695 0.17286 0.0
C109 C 0.39509 0.0842 0.26581 0.0
O110 O 0.42407 0.09283 0.26022 0.0
C111 C 0.39293 0.96093 0.15852 0.0
Zn112 Zn 0.80259 0.82189 0.47721 0.0
Zn113 Zn 0.75297 0.85227 0.46708 0.0
O114 O 0.74318 0.81499 0.54273 0.0
O115 O 0.78454 0.78769 0.54528 0.0
O116 O 0.71593 0.87819 0.48394 0.0
O117 O 0.82758 0.85593 0.52488 0.0
O118 O 0.78876 0.88269 0.4844 0.0
C119 C 0.75678 0.79097 0.56492 0.0
C120 C 0.77723 0.82562 0.31199 0.0
O121 O 0.75496 0.8386 0.34755 0.0
O122 O 0.80044 0.81812 0.35316 0.0
C123 C 0.7071 0.88191 0.55858 0.0
O124 O 0.72186 0.86839 0.6187 0.0
C125 C 0.81637 0.88153 0.50826 0.0
Zn126 Zn 0.45392 0.45415 0.73485 0.0
Zn127 Zn 0.42366 0.50558 0.73262 0.0
O128 O 0.43775 0.49417 0.61674 0.0
O129 O 0.45486 0.44771 0.61241 0.0
O130 O 0.39754 0.54187 0.70642 0.0
O131 O 0.42295 0.43542 0.81305 0.0
O132 O 0.39561 0.47673 0.80342 0.0
C133 C 0.4488 0.47243 0.57571 0.0
C134 C 0.48588 0.50545 0.80878 0.0
O135 O 0.46107 0.51957 0.79781 0.0
O136 O 0.48847 0.47844 0.78372 0.0
C137 C 0.40185 0.56964 0.72557 0.0
O138 O 0.42531 0.57743 0.77161 0.0
C139 C 0.39964 0.45015 0.83345 0.0
Zn140 Zn 0.74252 0.19255 0.90799 0.0
Zn141 Zn 0.79531 0.17702 0.89292 0.0
O142 O 0.79048 0.20745 -0.01005 0.0
O143 O 0.74182 0.21641 0.00932 0.0
O144 O 0.83311 0.15377 0.92571 0.0
O145 O 0.71957 0.15359 0.9021 0.0
O146 O 0.76488 0.14286 0.85259 0.0
C147 C 0.76941 0.22124 0.02838 0.0
C148 C 0.77882 0.21921 0.76542 0.0
O149 O 0.80172 0.20485 0.79278 0.0
O150 O 0.75293 0.21623 0.8016 0.0
C151 C 0.83012 0.14076 -0.00329 0.0
O152 O 0.80441 0.14405 0.0383 0.0
C153 C 0.73662 0.13585 0.86349 0.0
Zn154 Zn 0.07953 0.57255 0.17278 0.0
Zn155 Zn 0.09142 0.51504 0.18659 0.0
O156 O 0.06568 0.52325 0.08408 0.0
O157 O 0.05868 0.57207 0.06347 0.0
O158 O 0.10974 0.47437 0.16075 0.0
O159 O 0.12256 0.58823 0.18888 0.0
O160 O 0.12796 0.54064 0.22799 0.0
C161 C 0.05387 0.54475 0.04262 0.0
C162 C 0.04738 0.53577 0.30773 0.0
O163 O 0.06108 0.51246 0.28137 0.0
O164 O 0.05245 0.56181 0.27405 0.0
C165 C 0.13056 0.4629 0.20477 0.0
O166 O 0.13804 0.47604 0.27459 0.0
C167 C 0.13816 0.56802 0.2239 0.0
Zn168 Zn 0.1907 0.20628 0.465 0.0
Zn169 Zn 0.24462 0.17965 0.4642 0.0
O170 O 0.23175 0.19099 0.34732 0.0
O171 O 0.18417 0.20549 0.34233 0.0
O172 O 0.28255 0.15549 0.44037 0.0
O173 O 0.17436 0.17497 0.54621 0.0
O174 O 0.21796 0.15103 0.53917 0.0
C175 C 0.20914 0.20016 0.30568 0.0
C176 C 0.24036 0.24221 0.53575 0.0
O177 O 0.25636 0.21862 0.52535 0.0
O178 O 0.2129 0.24259 0.51157 0.0
C179 C 0.30448 0.16576 0.39437 0.0
O180 O 0.3042 0.19417 0.36765 0.0
C181 C 0.19106 0.15339 0.56917 0.0
Zn182 Zn 0.55971 0.56768 0.2378 0.0
Zn183 Zn 0.59026 0.51834 0.23026 0.0
O184 O 0.55392 0.50911 0.30985 0.0
O185 O 0.52661 0.55039 0.31097 0.0
O186 O 0.61704 0.48226 0.25035 0.0
O187 O 0.59419 0.5938 0.27859 0.0
O188 O 0.62066 0.55453 0.24135 0.0
C189 C 0.53006 0.52294 0.33257 0.0
C190 C 0.56085 0.53989 0.07571 0.0
O191 O 0.57478 0.5184 0.11214 0.0
O192 O 0.55384 0.56354 0.11492 0.0
C193 C 0.61723 0.45724 0.2118 0.0
O194 O 0.59892 0.45319 0.14864 0.0
C195 C 0.61972 0.58237 0.26182 0.0
Zn196 Zn 0.29802 0.81419 0.03846 0.0
Zn197 Zn 0.2477 0.84104 0.03147 0.0
O198 O 0.24499 0.80445 0.95198 0.0
O199 O 0.28804 0.78017 -0.03622 0.0
O200 O 0.21251 0.86719 -0.00502 0.0
O201 O 0.32531 0.84894 0.0039 0.0
O202 O 0.28333 0.87326 0.03103 0.0
C203 C 0.26146 0.78182 0.93458 0.0
C204 C 0.26191 0.8114 0.19143 0.0
O205 O 0.24109 0.82405 0.14919 0.0
O206 O 0.28805 0.80732 0.15927 0.0
C207 C 0.18847 0.85723 -0.04055 0.0
O208 O 0.18356 0.82769 0.95399 0.0
C209 C 0.31207 0.87367 0.01666 0.0
Zn210 Zn 0.92596 0.48645 0.70623 0.0
Zn211 Zn 0.91211 0.54088 0.68911 0.0
O212 O 0.9399 0.53498 0.7905 0.0
O213 O 0.94808 0.48647 0.81235 0.0
O214 O 0.88781 0.57796 0.71718 0.0
O215 O 0.88491 0.4661 0.69418 0.0
O216 O 0.87899 0.51181 0.64162 0.0
C217 C 0.95275 0.51396 0.83153 0.0
C218 C 0.95614 0.52405 0.56827 0.0
O219 O 0.94195 0.54707 0.59457 0.0
O220 O 0.95181 0.49802 0.6028 0.0
C221 C 0.89706 0.60024 0.76065 0.0
O222 O 0.92595 0.60228 0.78195 0.0
C223 C 0.86972 0.48424 0.6506 0.0
C224 C 0.25656 0.22957 0.12765 0.0
C225 C 0.24091 0.25617 0.10765 0.0
H226 H 0.25773 0.18955 0.20429 0.0
C227 C 0.21098 0.25951 0.13817 0.0
H228 H 0.27931 0.22585 0.1031 0.0
C229 C 0.19836 0.23836 0.19528 0.0
C230 C 0.21569 0.21379 0.2232 0.0
H231 H 0.19802 0.27939 0.12206 0.0
H232 H 0.1764 0.24302 0.22346 0.0
C233 C 0.244 0.20849 0.1847 0.0
C234 C 0.04211 0.98203 0.37251 0.0
C235 C 0.0213 1.00348 0.34282 0.0
H236 H 0.07413 0.97082 0.46674 0.0
C237 C 0.02229 0.03301 0.37449 0.0
H238 H 0.04241 0.95919 0.34816 0.0
C239 C 0.0409 0.03976 0.44168 0.0
C240 C 0.05843 0.01693 0.47892 0.0
H241 H 1.00703 0.05019 0.35174 0.0
H242 H 0.03943 0.06211 0.4687 0.0
C243 C 0.06042 0.98866 0.44047 0.0
C244 C 0.25639 0.70847 0.8158 0.0
C245 C 0.22724 0.71014 0.7806 0.0
H246 H 0.29027 0.73011 0.8906 0.0
C247 C 0.20808 0.73385 0.80384 0.0
H248 H 0.27159 0.69037 0.7995 0.0
C249 C 0.21898 0.75698 0.85504 0.0
C250 C 0.24909 0.75662 0.88446 0.0
H251 H 0.18552 0.73587 0.77753 0.0
H252 H 0.20418 0.77565 0.86899 0.0
C253 C 0.26723 0.7315 0.86709 0.0
C254 C 0.52551 0.01504 0.06675 0.0
C255 C 0.49905 0.03238 0.07539 0.0
H256 H 0.56549 0.00626 -0.00551 0.0
C257 C 0.49509 0.05749 0.0222 0.0
H258 H 0.52961 0.99579 0.10758 0.0
C259 C 0.51612 0.06374 0.9578 0.0
C260 C 0.54115 0.04472 0.94536 0.0
H261 H 0.47509 0.07139 0.02779 0.0
H262 H 0.51173 0.08228 0.91487 0.0
C263 C 0.5462 0.021 0.00203 0.0
C264 C 0.22455 0.78861 0.2948 0.0
C265 C 0.2549 0.79609 0.27164 0.0
H266 H 0.19482 0.76022 0.3707 0.0
C267 C 0.27891 0.78364 0.3174 0.0
H268 H 0.2056 0.79786 0.26082 0.0
C269 C 0.27282 0.76174 0.3792 0.0
C270 C 0.24259 0.75214 0.39713 0.0
H271 H 0.3026 0.7893 0.30181 0.0
H272 H 0.29187 0.75139 0.41023 0.0
C273 C 0.21844 0.76682 0.35725 0.0
C274 C 0.47489 0.04063 0.46818 0.0
C275 C 0.47025 0.0093 0.45433 0.0
H276 H 0.50262 0.07528 0.5244 0.0
C277 C 0.48929 0.98847 0.49393 0.0
H278 H 0.46069 0.05733 0.43842 0.0
C279 C 0.51362 0.99881 0.54202 0.0
C280 C 0.51933 0.0302 0.55194 0.0
H281 H 0.48642 0.9642 0.48445 0.0
H282 H 0.52828 0.98215 0.57013 0.0
C283 C 0.49925 0.05098 0.51632 0.0
C284 C 0.23122 0.28968 0.61397 0.0
C285 C 0.25162 0.26742 0.58745 0.0
H286 H 0.22145 0.32332 0.70422 0.0
C287 C 0.28105 0.26697 0.62086 0.0
H288 H 0.20852 0.29108 0.58815 0.0
C289 C 0.28858 0.28586 0.6866 0.0
C290 C 0.26661 0.30513 0.72063 0.0
H291 H 0.29747 0.25054 0.6005 0.0
H292 H 0.31072 0.28338 0.71509 0.0
C293 C 0.23861 0.30829 0.68044 0.0
C294 C 0.9787 0.00564 0.87924 0.0
C295 C 1.00637 0.99102 0.86425 0.0
H296 H 0.93768 0.00641 0.95237 0.0
C297 C 0.01072 0.96204 0.89958 0.0
H298 H 0.97419 0.02755 0.85078 0.0
C299 C 0.98948 0.94969 0.95693 0.0
C300 C 0.96385 0.96637 -0.01977 0.0
H301 H 0.03146 0.94983 0.88738 0.0
H302 H 0.99494 0.92876 -0.0107 0.0
C303 C 0.95752 0.99332 0.93648 0.0
C304 C 0.74163 0.71894 0.68997 0.0
C305 C 0.71431 0.72584 0.73142 0.0
H306 H 0.77682 0.73453 0.60557 0.0
C307 C 0.69806 0.75142 0.70541 0.0
H308 H 0.75445 0.69917 0.70797 0.0
C309 C 0.71113 0.77199 0.64744 0.0
C310 C 0.74042 0.76705 0.61438 0.0
H311 H 0.67686 0.75728 0.73589 0.0
H312 H 0.69922 0.79269 0.63304 0.0
C313 C 0.75467 0.73947 0.63225 0.0
C314 C 0.81471 0.28095 0.14564 0.0
C315 C 0.7911 0.29805 0.17997 0.0
H316 H 0.82641 0.24263 0.07225 0.0
C317 C 0.76054 0.28933 0.16466 0.0
H318 H 0.8385 0.28685 0.15714 0.0
C319 C 0.75367 0.26376 0.11795 0.0
C320 C 0.77716 0.24636 0.08463 0.0
H321 H 0.74173 0.30169 0.19079 0.0
H322 H 0.72981 0.25779 0.10766 0.0
C323 C 0.80779 0.25532 0.09829 0.0
C324 C 0.75568 0.25538 0.66533 0.0
C325 C 0.78192 0.24122 0.69561 0.0
H326 H 0.73749 0.28866 0.58307 0.0
C327 C 0.81071 0.24998 0.66255 0.0
H328 H 0.73307 0.24914 0.6893 0.0
C329 C 0.8132 0.27287 0.60146 0.0
C330 C 0.78694 0.28737 0.57243 0.0
H331 H 0.83132 0.2396 0.68487 0.0
H332 H 0.83575 0.27929 0.57741 0.0
C333 C 0.75817 0.2782 0.6046 0.0
C334 C 0.78681 0.77468 0.12991 0.0
C335 C 0.75849 0.77809 0.09143 0.0
H336 H 0.81546 0.78794 0.22988 0.0
C337 C 0.74007 0.80252 0.11387 0.0
H338 H 0.80176 0.75647 0.11282 0.0
C339 C 0.74769 0.82034 0.18164 0.0
C340 C 0.77399 0.8142 0.22713 0.0
H341 H 0.7184 0.80625 0.08394 0.0
H342 H 0.73174 0.8372 0.20218 0.0
C343 C 0.7946 0.79276 0.19711 0.0
C344 C 0.55353 0.50856 0.94976 0.0
C345 C 0.54792 0.53533 -0.00714 0.0
H346 H 0.5385 0.47837 0.85554 0.0
C347 C 0.52583 0.55534 -0.03715 0.0
H348 H 0.57077 0.49299 -0.0295 0.0
C349 C 0.50698 0.54681 0.89763 0.0
C350 C 0.51025 0.51834 0.86099 0.0
H351 H 0.52132 0.57648 -0.00609 0.0
H352 H 0.48855 0.56153 0.8801 0.0
C353 C 0.53493 0.50021 0.88395 0.0
C354 C 0.01681 0.50419 0.41079 0.0
C355 C 0.02438 0.53278 0.37522 0.0
H356 H 0.98911 0.479 0.49892 0.0
C357 C 0.00895 0.55856 0.40273 0.0
H358 H 0.02814 0.48389 0.39073 0.0
C359 C 0.98643 0.5558 0.46463 0.0
C360 C 0.97892 0.5272 0.50027 0.0
H361 H 0.01419 0.58097 0.37636 0.0
H362 H 0.97511 0.57607 0.48484 0.0
C363 C 0.99431 0.50142 0.47261 0.0
C364 C 0.02148 0.50656 -0.03127 0.0
C365 C 0.02964 0.53721 -0.01716 0.0
H366 H 0.99022 0.47515 0.91255 0.0
C367 C 0.01155 0.56019 0.94915 0.0
H368 H 0.0347 0.48826 -0.00545 0.0
C369 C 0.98571 0.55262 0.90293 0.0
C370 C 0.97746 0.52194 0.88941 0.0
H371 H 0.01696 0.58402 -0.04015 0.0
H372 H 0.97243 0.57085 0.87703 0.0
C373 C 0.99564 0.49901 0.92283 0.0
C374 C 0.45746 0.50814 0.45675 0.0
C375 C 0.4634 0.48001 0.49502 0.0
H376 H 0.47424 0.54406 0.37654 0.0
C377 C 0.48899 0.4638 0.46884 0.0
H378 H 0.43775 0.52102 0.47497 0.0
C379 C 0.51023 0.47724 0.41321 0.0
C380 C 0.50602 0.50693 0.38261 0.0
H381 H 0.49417 0.442 0.49695 0.0
H382 H 0.53072 0.46506 0.398 0.0
C383 C 0.47865 0.52155 0.40133 0.0
C384 C 0.14679 0.42891 0.08885 0.0
C385 C 0.14921 0.43792 0.17203 0.0
H386 H 0.16512 0.40207 -0.00915 0.0
C387 C 0.17145 0.42458 0.22192 0.0
H388 H 0.12992 0.43879 0.0486 0.0
C389 C 0.19149 0.40356 0.18891 0.0
C390 C 0.18995 0.39544 0.10496 0.0
H391 H 0.1739 0.43089 0.28622 0.0
H392 H 0.20871 0.39424 0.22906 0.0
C393 C 0.16703 0.40795 0.05558 0.0
C394 C 0.86905 0.90397 0.5036 0.0
C395 C 0.83771 0.90741 0.48901 0.0
H396 H 0.91468 0.91488 0.46217 0.0
C397 C 0.82862 0.93095 0.43496 0.0
H398 H 0.87685 0.88653 0.54602 0.0
C399 C 0.85047 0.94731 0.38679 0.0
C400 C 0.88145 0.94019 0.39243 0.0
H401 H 0.80463 0.93447 0.42304 0.0
H402 H 0.84291 0.96332 0.34004 0.0
C403 C 0.89072 0.91995 0.45488 0.0
C404 C 0.35988 0.64387 0.69955 0.0
C405 C 0.33828 0.63623 0.63873 0.0
H406 H 0.39699 0.62893 0.7746 0.0
C407 C 0.33869 0.60697 0.60461 0.0
H408 H 0.36019 0.66619 0.72722 0.0
C409 C 0.35946 0.58556 0.63249 0.0
C410 C 0.38059 0.59292 0.69464 0.0
H411 H 0.32238 0.60023 0.55779 0.0
H412 H 0.35875 0.5631 0.60563 0.0
C413 C 0.38093 0.62249 0.7269 0.0
C414 C 0.71044 0.12426 0.73423 0.0
C415 C 0.72146 0.11361 0.81048 0.0
H416 H 0.67574 0.11941 0.64227 0.0
C417 C 0.71028 0.08585 0.84382 0.0
H418 H 0.71857 0.146 0.70847 0.0
C419 C 0.68633 0.07022 0.80479 0.0
C420 C 0.67265 0.08295 0.73408 0.0
H421 H 0.71815 0.07768 0.90339 0.0
H422 H 0.67639 0.05005 0.83518 0.0
C423 C 0.68588 0.10921 0.69666 0.0
C424 C 0.16209 0.56597 0.36204 0.0
C425 C 0.1625 0.57782 0.28041 0.0
H426 H 0.17405 0.574 0.48877 0.0
C427 C 0.18099 0.60358 0.26083 0.0
H428 H 0.14763 0.54635 0.37892 0.0
C429 C 0.19684 0.61869 0.32332 0.0
C430 C 0.19357 0.60873 0.40615 0.0
H431 H 0.18138 0.61325 0.19859 0.0
H432 H 0.20929 0.63977 0.30806 0.0
C433 C 0.17703 0.58175 0.425 0.0
C434 C 0.65139 0.92871 0.68178 0.0
C435 C 0.6395 0.94766 0.6198 0.0
H436 H 0.68206 0.89303 0.71099 0.0
C437 C 0.64813 0.94306 0.53669 0.0
H438 H 0.64519 0.93164 0.74633 0.0
C439 C 0.66924 0.92095 0.51633 0.0
C440 C 0.6823 0.90302 0.57868 0.0
H441 H 0.63923 0.95714 0.48728 0.0
H442 H 0.67602 0.91862 0.45198 0.0
C443 C 0.67262 0.90666 0.66144 0.0
C444 C 0.38756 0.41386 0.94918 0.0
C445 C 0.37748 0.43585 0.89237 0.0
H446 H 0.37505 0.37712 0.03178 0.0
C447 C 0.34615 0.4417 0.88803 0.0
H448 H 0.41173 0.40962 0.95566 0.0
C449 C 0.32497 0.42298 0.93188 0.0
C450 C 0.33503 0.39835 -0.01948 0.0
H451 H 0.33791 0.45896 0.84574 0.0
H452 H 0.30081 0.42601 0.92121 0.0
C453 C 0.36653 0.39547 -0.00646 0.0
C454 C 0.88103 0.11519 -0.01304 0.0
C455 C 0.8541 0.1211 0.03167 0.0
H456 H 0.92256 0.09038 -0.018 0.0
C457 C 0.84958 0.10711 0.11019 0.0
H458 H 0.88529 0.12564 0.9265 0.0
C459 C 0.87088 0.08697 0.14206 0.0
C460 C 0.89734 0.08027 0.09637 0.0
H461 H 0.82921 0.11124 0.14674 0.0
H462 H 0.86621 0.07613 0.20183 0.0
C463 C 0.90242 0.09502 0.019 0.0
C464 C 0.82218 0.62996 0.84238 0.0
C465 C 0.83133 0.65806 0.87598 0.0
H466 H 0.83553 0.59019 0.77794 0.0
C467 C 0.86227 0.66754 0.8692 0.0
H468 H 0.79847 0.62214 0.84575 0.0
C469 C 0.88371 0.64896 0.83098 0.0
C470 C 0.87446 0.62092 0.79706 0.0
H471 H 0.86997 0.68913 0.89427 0.0
H472 H 0.90749 0.65657 0.82788 0.0
C473 C 0.84341 0.61178 0.80269 0.0
C474 C 0.15716 0.14126 0.69012 0.0
C475 C 0.17896 0.1316 0.63235 0.0
H476 H 0.1228 0.12812 0.7795 0.0
C477 C 0.18705 0.10093 0.63231 0.0
H478 H 0.15126 0.16503 0.6933 0.0
C479 C 0.17062 0.07959 0.68186 0.0
C480 C 0.14607 0.08885 0.73208 0.0
H481 H 0.20427 0.09308 0.58938 0.0
H482 H 0.17526 0.05566 0.67471 0.0
C483 C 0.14112 0.12013 0.74034 0.0
C484 C 0.66737 0.38812 0.20625 0.0
C485 C 0.68309 0.39056 0.28163 0.0
H486 H 0.63407 0.40708 0.12525 0.0
C487 C 0.67539 0.41385 0.33618 0.0
H488 H 0.67272 0.37037 0.16293 0.0
C489 C 0.65357 0.43512 0.31402 0.0
C490 C 0.63867 0.43335 0.23731 0.0
H491 H 0.68709 0.41644 0.39458 0.0
H492 H 0.64879 0.45329 0.35653 0.0
C493 C 0.64524 0.40917 0.18456 0.0
C494 C 0.3824 0.92142 0.05453 0.0
C495 C 0.37105 0.94332 0.10847 0.0
H496 H 0.37233 0.88296 -0.02031 0.0
C497 C 0.33932 0.94611 0.11792 0.0
H498 H 0.40682 0.91937 0.04441 0.0
C499 C 0.31935 0.92499 0.08079 0.0
C500 C 0.33105 0.90114 0.03346 0.0
H501 H 0.3301 0.96311 0.1585 0.0
H502 H 0.29508 0.92596 0.09446 0.0
C503 C 0.36262 0.90071 0.01688 0.0
C504 C 0.84285 0.45404 0.44928 0.0
C505 C 0.82146 0.43164 0.47648 0.0
H506 H 0.87387 0.4899 0.48485 0.0
C507 C 0.8115 0.43102 0.55972 0.0
H508 H 0.85097 0.45466 0.38553 0.0
C509 C 0.82537 0.45029 0.61704 0.0
C510 C 0.84833 0.47123 0.59082 0.0
H511 H 0.79527 0.41359 0.58212 0.0
H512 H 0.81971 0.44743 0.68233 0.0
C513 C 0.85576 0.47419 0.50599 0.0
C514 C 0.35571 0.15667 0.328 0.0
C515 C 0.32823 0.14503 0.36389 0.0
H516 H 0.39854 0.1466 0.26941 0.0
C517 C 0.32294 0.1133 0.3666 0.0
H518 H 0.36043 0.18101 0.32475 0.0
C519 C 0.34439 0.0937 0.33327 0.0
C520 C 0.37195 0.10529 0.29781 0.0
H521 H 0.30192 0.10358 0.39318 0.0
H522 H 0.33952 0.06938 0.33629 0.0
C523 C 0.3775 0.13698 0.29612 0.0
C524 C 0.64258 0.63464 0.25073 0.0
C525 C 0.64578 0.60321 0.24011 0.0
H526 H 0.65501 0.67941 0.20654 0.0
C527 C 0.6697 0.59311 0.18898 0.0
H528 H 0.62481 0.64322 0.29076 0.0
C529 C 0.6871 0.614 0.14046 0.0
C530 C 0.68064 0.64509 0.14263 0.0
H531 H 0.67299 0.56901 0.18006 0.0
H532 H 0.70366 0.60562 0.09647 0.0
C533 C 0.65964 0.65538 0.20173 0.0
C534 C 0.13979 0.86864 0.88499 0.0
C535 C 0.16823 0.87868 0.91583 0.0
H536 H 0.0995 0.88023 0.81817 0.0
C537 C 0.17796 0.90907 0.90044 0.0
H538 H 0.13167 0.84536 0.89543 0.0
C539 C 0.1598 0.92888 0.85486 0.0
C540 C 0.13126 0.91892 0.82449 0.0
H541 H 0.19985 0.91751 0.9226 0.0
H542 H 0.16799 0.95215 0.84445 0.0
C543 C 0.12141 0.8886 0.84037 0.0
loop_
_geom_bond_atom_site_label_1
_geom_bond_atom_site_label_2
_geom_bond_distance
_geom_bond_site_symmetry_2
_ccdc_geom_bond_type
Zn0 O3 2.031 1_556 S
Zn0 O5 2.049 . S
Zn0 O10 2.067 . S
Zn1 O2 1.962 . S
Zn1 O4 1.986 . S
Zn1 O6 1.996 . S
Zn1 O9 1.943 1_554 S
O2 Zn1 1.962 . S
O2 C7 1.254 . S
O3 Zn0 2.031 1_554 S
O3 C7 1.269 . S
O4 Zn1 1.986 . S
O4 C11 1.262 . S
O5 Zn0 2.049 . S
O5 C13 1.260 . S
O6 Zn1 1.996 . S
O6 C13 1.257 1_554 S
C7 O2 1.254 . S
C7 O3 1.269 . S
C8 O9 1.249 . S
C8 O10 1.270 . S
O9 Zn1 1.943 1_556 S
O9 C8 1.249 . S
O10 Zn0 2.067 . S
O10 C8 1.270 . S
C11 O4 1.262 . S
C11 O12 1.232 . S
O12 C11 1.232 . S
C13 O5 1.260 . S
C13 O6 1.257 1_556 S
Zn14 O17 2.031 . S
Zn14 O19 2.049 . S
Zn14 O24 2.067 . S
Zn15 O16 1.962 . S
Zn15 O18 1.986 . S
Zn15 O20 1.996 1_545 S
Zn15 O23 1.943 . S
O16 Zn15 1.962 . S
O16 C21 1.265 . S
O17 Zn14 2.031 . S
O17 C21 1.259 1_565 S
O18 Zn15 1.986 . S
O18 C25 1.262 . S
O19 Zn14 2.049 . S
O19 C27 1.260 . S
O20 Zn15 1.996 1_565 S
O20 C27 1.257 . S
C21 O16 1.265 . S
C21 O17 1.259 1_545 S
C22 O23 1.249 . S
C22 O24 1.270 1_545 S
O23 Zn15 1.943 . S
O23 C22 1.249 . S
O24 Zn14 2.067 . S
O24 C22 1.270 1_565 S
C25 O18 1.262 . S
C25 O26 1.232 . S
O26 C25 1.232 . S
C27 O19 1.260 . S
C27 O20 1.257 . S
Zn28 O31 2.031 . S
Zn28 O33 2.049 . S
Zn28 O38 2.067 . S
Zn29 O30 1.962 . S
Zn29 O32 1.986 . S
Zn29 O34 1.996 . S
Zn29 O37 1.943 . S
O30 Zn29 1.962 . S
O30 C35 1.254 . S
O31 Zn28 2.031 . S
O31 C35 1.269 . S
O32 Zn29 1.986 . S
O32 C39 1.262 . S
O33 Zn28 2.049 . S
O33 C41 1.260 . S
O34 Zn29 1.996 . S
O34 C41 1.257 . S
C35 O30 1.254 . S
C35 O31 1.269 . S
C36 O37 1.249 . S
C36 O38 1.270 . S
O37 Zn29 1.943 . S
O37 C36 1.249 . S
O38 Zn28 2.067 . S
O38 C36 1.270 . S
C39 O32 1.262 . S
C39 O40 1.232 . S
O40 C39 1.232 . S
C41 O33 1.260 . S
C41 O34 1.257 . S
Zn42 O45 2.031 . S
Zn42 O47 2.049 . S
Zn42 O52 2.067 . S
Zn43 O44 1.962 . S
Zn43 O46 1.986 1_545 S
Zn43 O48 1.996 . S
Zn43 O51 1.943 1_545 S
O44 Zn43 1.962 . S
O44 C49 1.254 . S
O45 Zn42 2.031 . S
O45 C49 1.269 . S
O46 Zn43 1.986 1_565 S
O46 C53 1.262 . S
O47 Zn42 2.049 . S
O47 C55 1.260 . S
O48 Zn43 1.996 . S
O48 C55 1.257 . S
C49 O44 1.254 . S
C49 O45 1.269 . S
C50 O51 1.249 1_545 S
C50 O52 1.270 . S
O51 Zn43 1.943 1_565 S
O51 C50 1.249 1_565 S
O52 Zn42 2.067 . S
O52 C50 1.270 . S
C53 O46 1.262 . S
C53 O54 1.232 . S
O54 C53 1.232 . S
C55 O47 1.260 . S
C55 O48 1.257 . S
Zn56 O59 2.031 1_554 S
Zn56 O61 2.049 . S
Zn56 O66 2.067 . S
Zn57 O58 1.962 . S
Zn57 O60 1.986 . S
Zn57 O62 1.996 1_556 S
Zn57 O65 1.943 1_556 S
O58 Zn57 1.962 . S
O58 C63 1.254 . S
O59 Zn56 2.031 1_556 S
O59 C63 1.269 . S
O60 Zn57 1.986 . S
O60 C67 1.262 . S
O61 Zn56 2.049 . S
O61 C69 1.260 . S
O62 Zn57 1.996 1_554 S
O62 C69 1.257 . S
C63 O58 1.254 . S
C63 O59 1.269 . S
C64 O65 1.249 . S
C64 O66 1.270 . S
O65 Zn57 1.943 1_554 S
O65 C64 1.249 . S
O66 Zn56 2.067 . S
O66 C64 1.270 . S
C67 O60 1.262 . S
C67 O68 1.232 . S
O68 C67 1.232 . S
C69 O61 1.260 . S
C69 O62 1.257 . S
Zn70 O73 2.031 . S
Zn70 O75 2.049 . S
Zn70 O80 2.067 . S
Zn71 O72 1.962 . S
Zn71 O74 1.986 1_545 S
Zn71 O76 1.996 . S
Zn71 O79 1.943 1_545 S
O72 Zn71 1.962 . S
O72 C77 1.254 . S
O73 Zn70 2.031 . S
O73 C77 1.269 . S
O74 Zn71 1.986 1_565 S
O74 C81 1.262 . S
O75 Zn70 2.049 . S
O75 C83 1.260 . S
O76 Zn71 1.996 . S
O76 C83 1.257 . S
C77 O72 1.254 . S
C77 O73 1.269 . S
C78 O79 1.249 1_545 S
C78 O80 1.270 . S
O79 Zn71 1.943 1_565 S
O79 C78 1.249 1_565 S
O80 Zn70 2.067 . S
O80 C78 1.270 . S
C81 O74 1.262 . S
C81 O82 1.232 . S
O82 C81 1.232 . S
C83 O75 1.260 . S
C83 O76 1.257 . S
Zn84 O87 2.031 . S
Zn84 O89 2.049 . S
Zn84 O94 2.067 . S
Zn85 O86 1.962 . S
Zn85 O88 1.986 . S
Zn85 O90 1.996 . S
Zn85 O93 1.943 . S
O86 Zn85 1.962 . S
O86 C91 1.254 . S
O87 Zn84 2.031 . S
O87 C91 1.269 . S
O88 Zn85 1.986 . S
O88 C95 1.262 . S
O89 Zn84 2.049 . S
O89 C97 1.260 . S
O90 Zn85 1.996 . S
O90 C97 1.257 . S
C91 O86 1.254 . S
C91 O87 1.269 . S
C92 O93 1.249 . S
C92 O94 1.270 . S
O93 Zn85 1.943 . S
O93 C92 1.249 . S
O94 Zn84 2.067 . S
O94 C92 1.270 . S
C95 O88 1.262 . S
C95 O96 1.232 . S
O96 C95 1.232 . S
C97 O89 1.260 . S
C97 O90 1.257 . S
Zn98 O101 2.031 . S
Zn98 O103 2.049 . S
Zn98 O108 2.067 . S
Zn99 O100 1.962 . S
Zn99 O102 1.986 . S
Zn99 O104 1.996 1_545 S
Zn99 O107 1.943 . S
O100 Zn99 1.962 . S
O100 C105 1.265 . S
O101 Zn98 2.031 . S
O101 C105 1.259 1_565 S
O102 Zn99 1.986 . S
O102 C109 1.262 . S
O103 Zn98 2.049 . S
O103 C111 1.260 . S
O104 Zn99 1.996 1_565 S
O104 C111 1.257 . S
C105 O100 1.265 . S
C105 O101 1.259 1_545 S
C106 O107 1.249 . S
C106 O108 1.270 1_545 S
O107 Zn99 1.943 . S
O107 C106 1.249 . S
O108 Zn98 2.067 . S
O108 C106 1.270 1_565 S
C109 O102 1.262 . S
C109 O110 1.232 . S
O110 C109 1.232 . S
C111 O103 1.260 . S
C111 O104 1.257 . S
Zn112 O115 2.031 . S
Zn112 O117 2.049 . S
Zn112 O122 2.067 . S
Zn113 O114 1.962 . S
Zn113 O116 1.986 . S
Zn113 O118 1.996 . S
Zn113 O121 1.943 . S
O114 Zn113 1.962 . S
O114 C119 1.254 . S
O115 Zn112 2.031 . S
O115 C119 1.269 . S
O116 Zn113 1.986 . S
O116 C123 1.262 . S
O117 Zn112 2.049 . S
O117 C125 1.260 . S
O118 Zn113 1.996 . S
O118 C125 1.257 . S
C119 O114 1.254 . S
C119 O115 1.269 . S
C120 O121 1.249 . S
C120 O122 1.270 . S
O121 Zn113 1.943 . S
O121 C120 1.249 . S
O122 Zn112 2.067 . S
O122 C120 1.270 . S
C123 O116 1.262 . S
C123 O124 1.232 . S
O124 C123 1.232 . S
C125 O117 1.260 . S
C125 O118 1.257 . S
Zn126 O129 2.031 . S
Zn126 O131 2.049 . S
Zn126 O136 2.067 . S
Zn127 O128 1.962 . S
Zn127 O130 1.986 . S
Zn127 O132 1.996 . S
Zn127 O135 1.943 . S
O128 Zn127 1.962 . S
O128 C133 1.254 . S
O129 Zn126 2.031 . S
O129 C133 1.269 . S
O130 Zn127 1.986 . S
O130 C137 1.262 . S
O131 Zn126 2.049 . S
O131 C139 1.260 . S
O132 Zn127 1.996 . S
O132 C139 1.257 . S
C133 O128 1.254 . S
C133 O129 1.269 . S
C134 O135 1.249 . S
C134 O136 1.270 . S
O135 Zn127 1.943 . S
O135 C134 1.249 . S
O136 Zn126 2.067 . S
O136 C134 1.270 . S
C137 O130 1.262 . S
C137 O138 1.232 . S
O138 C137 1.232 . S
C139 O131 1.260 . S
C139 O132 1.257 . S
Zn140 O143 2.031 1_556 S
Zn140 O145 2.049 . S
Zn140 O150 2.067 . S
Zn141 O142 1.962 . S
Zn141 O144 1.986 . S
Zn141 O146 1.996 . S
Zn141 O149 1.943 1_554 S
O142 Zn141 1.962 . S
O142 C147 1.254 . S
O143 Zn140 2.031 1_554 S
O143 C147 1.269 . S
O144 Zn141 1.986 . S
O144 C151 1.262 . S
O145 Zn140 2.049 . S
O145 C153 1.260 . S
O146 Zn141 1.996 . S
O146 C153 1.257 1_554 S
C147 O142 1.254 . S
C147 O143 1.269 . S
C148 O149 1.249 . S
C148 O150 1.270 . S
O149 Zn141 1.943 1_556 S
O149 C148 1.249 . S
O150 Zn140 2.067 . S
O150 C148 1.270 . S
C151 O144 1.262 . S
C151 O152 1.232 . S
O152 C151 1.232 . S
C153 O145 1.260 . S
C153 O146 1.257 1_556 S
Zn154 O157 2.031 . S
Zn154 O159 2.049 . S
Zn154 O164 2.067 . S
Zn155 O156 1.962 . S
Zn155 O158 1.986 . S
Zn155 O160 1.996 . S
Zn155 O163 1.943 . S
O156 Zn155 1.962 . S
O156 C161 1.254 . S
O157 Zn154 2.031 . S
O157 C161 1.269 . S
O158 Zn155 1.986 . S
O158 C165 1.262 . S
O159 Zn154 2.049 . S
O159 C167 1.260 . S
O160 Zn155 1.996 . S
O160 C167 1.257 . S
C161 O156 1.254 . S
C161 O157 1.269 . S
C162 O163 1.249 . S
C162 O164 1.270 . S
O163 Zn155 1.943 . S
O163 C162 1.249 . S
O164 Zn154 2.067 . S
O164 C162 1.270 . S
C165 O158 1.262 . S
C165 O166 1.232 . S
O166 C165 1.232 . S
C167 O159 1.260 . S
C167 O160 1.257 . S
Zn168 O171 2.031 . S
Zn168 O173 2.049 . S
Zn168 O178 2.067 . S
Zn169 O170 1.962 . S
Zn169 O172 1.986 . S
Zn169 O174 1.996 . S
Zn169 O177 1.943 . S
O170 Zn169 1.962 . S
O170 C175 1.254 . S
O171 Zn168 2.031 . S
O171 C175 1.269 . S
O172 Zn169 1.986 . S
O172 C179 1.262 . S
O173 Zn168 2.049 . S
O173 C181 1.260 . S
O174 Zn169 1.996 . S
O174 C181 1.257 . S
C175 O170 1.254 . S
C175 O171 1.269 . S
C176 O177 1.249 . S
C176 O178 1.270 . S
O177 Zn169 1.943 . S
O177 C176 1.249 . S
O178 Zn168 2.067 . S
O178 C176 1.270 . S
C179 O172 1.262 . S
C179 O180 1.232 . S
O180 C179 1.232 . S
C181 O173 1.260 . S
C181 O174 1.257 . S
Zn182 O185 2.031 . S
Zn182 O187 2.049 . S
Zn182 O192 2.067 . S
Zn183 O184 1.962 . S
Zn183 O186 1.986 . S
Zn183 O188 1.996 . S
Zn183 O191 1.943 . S
O184 Zn183 1.962 . S
O184 C189 1.254 . S
O185 Zn182 2.031 . S
O185 C189 1.269 . S
O186 Zn183 1.986 . S
O186 C193 1.262 . S
O187 Zn182 2.049 . S
O187 C195 1.260 . S
O188 Zn183 1.996 . S
O188 C195 1.257 . S
C189 O184 1.254 . S
C189 O185 1.269 . S
C190 O191 1.249 . S
C190 O192 1.270 . S
O191 Zn183 1.943 . S
O191 C190 1.249 . S
O192 Zn182 2.067 . S
O192 C190 1.270 . S
C193 O186 1.262 . S
C193 O194 1.232 . S
O194 C193 1.232 . S
C195 O187 1.260 . S
C195 O188 1.257 . S
Zn196 O199 2.031 1_554 S
Zn196 O201 2.049 . S
Zn196 O206 2.067 . S
Zn197 O198 1.962 . S
Zn197 O200 1.986 . S
Zn197 O202 1.996 1_556 S
Zn197 O205 1.943 1_556 S
O198 Zn197 1.962 . S
O198 C203 1.254 . S
O199 Zn196 2.031 1_556 S
O199 C203 1.269 . S
O200 Zn197 1.986 . S
O200 C207 1.262 . S
O201 Zn196 2.049 . S
O201 C209 1.260 . S
O202 Zn197 1.996 1_554 S
O202 C209 1.257 . S
C203 O198 1.254 . S
C203 O199 1.269 . S
C204 O205 1.249 . S
C204 O206 1.270 . S
O205 Zn197 1.943 1_554 S
O205 C204 1.249 . S
O206 Zn196 2.067 . S
O206 C204 1.270 . S
C207 O200 1.262 . S
C207 O208 1.232 . S
O208 C207 1.232 . S
C209 O201 1.260 . S
C209 O202 1.257 . S
Zn210 O213 2.031 . S
Zn210 O215 2.049 . S
Zn210 O220 2.067 . S
Zn211 O212 1.962 . S
Zn211 O214 1.986 . S
Zn211 O216 1.996 . S
Zn211 O219 1.943 . S
O212 Zn211 1.962 . S
O212 C217 1.254 . S
O213 Zn210 2.031 . S
O213 C217 1.269 . S
O214 Zn211 1.986 . S
O214 C221 1.262 . S
O215 Zn210 2.049 . S
O215 C223 1.260 . S
O216 Zn211 1.996 . S
O216 C223 1.257 . S
C217 O212 1.254 . S
C217 O213 1.269 . S
C218 O219 1.249 . S
C218 O220 1.270 . S
O219 Zn211 1.943 . S
O219 C218 1.249 . S
O220 Zn210 2.067 . S
O220 C218 1.270 . S
C221 O214 1.262 . S
C221 O222 1.232 . S
O222 C221 1.232 . S
C223 O215 1.260 . S
C223 O216 1.257 . S
C224 C225 1.387 . S
C224 H228 0.950 . S
C224 C233 1.390 . S
C225 C224 1.387 . S
C225 C227 1.387 . S
H226 C233 0.950 . S
C227 C225 1.387 . S
C227 C229 1.390 . S
C227 H231 0.950 . S
H228 C224 0.950 . S
C229 C227 1.390 . S
C229 C230 1.387 . S
C229 H232 0.950 . S
C230 C229 1.387 . S
C230 C233 1.387 . S
H231 C227 0.950 . S
H232 C229 0.950 . S
C233 C224 1.390 . S
C233 H226 0.950 . S
C233 C230 1.387 . S
C234 C235 1.387 1_565 S
C234 H238 0.950 . S
C234 C243 1.390 1_655 S
C235 C234 1.387 1_545 S
C235 C237 1.387 . S
H236 C243 0.950 . S
C237 C235 1.387 . S
C237 C239 1.390 1_655 S
C237 H241 0.950 . S
H238 C234 0.950 . S
C239 C237 1.390 1_455 S
C239 C240 1.387 . S
C239 H242 0.950 . S
C240 C239 1.387 . S
C240 C243 1.387 1_545 S
H241 C237 0.950 . S
H242 C239 0.950 . S
C243 C234 1.390 1_455 S
C243 H236 0.950 . S
C243 C240 1.387 1_565 S
C244 C245 1.387 . S
C244 H248 0.950 . S
C244 C253 1.390 . S
C245 C244 1.387 . S
C245 C247 1.387 . S
H246 C253 0.950 . S
C247 C245 1.387 . S
C247 C249 1.390 . S
C247 H251 0.950 . S
H248 C244 0.950 . S
C249 C247 1.390 . S
C249 C250 1.387 . S
C249 H252 0.950 . S
C250 C249 1.387 . S
C250 C253 1.387 . S
H251 C247 0.950 . S
H252 C249 0.950 . S
C253 C244 1.390 . S
C253 H246 0.950 . S
C253 C250 1.387 . S
C254 C255 1.387 1_565 S
C254 H258 0.950 . S
C254 C263 1.390 . S
C255 C254 1.387 1_545 S
C255 C257 1.387 1_554 S
H256 C263 0.950 . S
C257 C255 1.387 1_556 S
C257 C259 1.390 . S
C257 H261 0.950 . S
H258 C254 0.950 . S
C259 C257 1.390 . S
C259 C260 1.387 . S
C259 H262 0.950 . S
C260 C259 1.387 . S
C260 C263 1.387 1_546 S
H261 C257 0.950 . S
H262 C259 0.950 . S
C263 C254 1.390 . S
C263 H256 0.950 . S
C263 C260 1.387 1_564 S
C264 C265 1.387 . S
C264 H268 0.950 . S
C264 C273 1.390 . S
C265 C264 1.387 . S
C265 C267 1.387 . S
H266 C273 0.950 . S
C267 C265 1.387 . S
C267 C269 1.390 . S
C267 H271 0.950 . S
H268 C264 0.950 . S
C269 C267 1.390 . S
C269 C270 1.387 . S
C269 H272 0.950 . S
C270 C269 1.387 . S
C270 C273 1.387 . S
H271 C267 0.950 . S
H272 C269 0.950 . S
C273 C264 1.390 . S
C273 H266 0.950 . S
C273 C270 1.387 . S
C274 C275 1.387 . S
C274 H278 0.950 . S
C274 C283 1.390 . S
C275 C274 1.387 . S
C275 C277 1.387 . S
H276 C283 0.950 . S
C277 C275 1.387 . S
C277 C279 1.390 . S
C277 H281 0.950 1_545 S
H278 C274 0.950 . S
C279 C277 1.390 . S
C279 C280 1.387 . S
C279 H282 0.950 . S
C280 C279 1.387 . S
C280 C283 1.387 . S
H281 C277 0.950 1_565 S
H282 C279 0.950 . S
C283 C274 1.390 . S
C283 H276 0.950 . S
C283 C280 1.387 . S
C284 C285 1.387 . S
C284 H288 0.950 . S
C284 C293 1.390 . S
C285 C284 1.387 . S
C285 C287 1.387 . S
H286 C293 0.950 . S
C287 C285 1.387 . S
C287 C289 1.390 . S
C287 H291 0.950 . S
H288 C284 0.950 . S
C289 C287 1.390 . S
C289 C290 1.387 . S
C289 H292 0.950 . S
C290 C289 1.387 . S
C290 C293 1.387 . S
H291 C287 0.950 . S
H292 C289 0.950 . S
C293 C284 1.390 . S
C293 H286 0.950 . S
C293 C290 1.387 . S
C294 C295 1.387 1_655 S
C294 H298 0.950 . S
C294 C303 1.390 . S
C295 C294 1.387 1_455 S
C295 C297 1.387 1_556 S
H296 C303 0.950 1_565 S
C297 C295 1.387 1_554 S
C297 C299 1.390 . S
C297 H301 0.950 . S
H298 C294 0.950 . S
C299 C297 1.390 . S
C299 C300 1.387 1_455 S
C299 H302 0.950 . S
C300 C299 1.387 1_655 S
C300 C303 1.387 1_554 S
H301 C297 0.950 . S
H302 C299 0.950 . S
C303 C294 1.390 . S
C303 H296 0.950 1_545 S
C303 C300 1.387 1_556 S
C304 C305 1.387 . S
C304 H308 0.950 . S
C304 C313 1.390 . S
C305 C304 1.387 . S
C305 C307 1.387 . S
H306 C313 0.950 . S
C307 C305 1.387 . S
C307 C309 1.390 . S
C307 H311 0.950 . S
H308 C304 0.950 . S
C309 C307 1.390 . S
C309 C310 1.387 . S
C309 H312 0.950 . S
C310 C309 1.387 . S
C310 C313 1.387 . S
H311 C307 0.950 . S
H312 C309 0.950 . S
C313 C304 1.390 . S
C313 H306 0.950 . S
C313 C310 1.387 . S
C314 C315 1.387 . S
C314 H318 0.950 . S
C314 C323 1.390 . S
C315 C314 1.387 . S
C315 C317 1.387 . S
H316 C323 0.950 . S
C317 C315 1.387 . S
C317 C319 1.390 . S
C317 H321 0.950 . S
H318 C314 0.950 . S
C319 C317 1.390 . S
C319 C320 1.387 . S
C319 H322 0.950 . S
C320 C319 1.387 . S
C320 C323 1.387 . S
H321 C317 0.950 . S
H322 C319 0.950 . S
C323 C314 1.390 . S
C323 H316 0.950 . S
C323 C320 1.387 . S
C324 C325 1.387 . S
C324 H328 0.950 . S
C324 C333 1.390 . S
C325 C324 1.387 . S
C325 C327 1.387 . S
H326 C333 0.950 . S
C327 C325 1.387 . S
C327 C329 1.390 . S
C327 H331 0.950 . S
H328 C324 0.950 . S
C329 C327 1.390 . S
C329 C330 1.387 . S
C329 H332 0.950 . S
C330 C329 1.387 . S
C330 C333 1.387 . S
H331 C327 0.950 . S
H332 C329 0.950 . S
C333 C324 1.390 . S
C333 H326 0.950 . S
C333 C330 1.387 . S
C334 C335 1.387 . S
C334 H338 0.950 . S
C334 C343 1.390 . S
C335 C334 1.387 . S
C335 C337 1.387 . S
H336 C343 0.950 . S
C337 C335 1.387 . S
C337 C339 1.390 . S
C337 H341 0.950 . S
H338 C334 0.950 . S
C339 C337 1.390 . S
C339 C340 1.387 . S
C339 H342 0.950 . S
C340 C339 1.387 . S
C340 C343 1.387 . S
H341 C337 0.950 . S
H342 C339 0.950 . S
C343 C334 1.390 . S
C343 H336 0.950 . S
C343 C340 1.387 . S
C344 C345 1.387 . S
C344 H348 0.950 . S
C344 C353 1.390 1_554 S
C345 C344 1.387 . S
C345 C347 1.387 . S
H346 C353 0.950 . S
C347 C345 1.387 . S
C347 C349 1.390 . S
C347 H351 0.950 . S
H348 C344 0.950 . S
C349 C347 1.390 . S
C349 C350 1.387 1_554 S
C349 H352 0.950 . S
C350 C349 1.387 1_556 S
C350 C353 1.387 . S
H351 C347 0.950 . S
H352 C349 0.950 . S
C353 C344 1.390 1_556 S
C353 H346 0.950 . S
C353 C350 1.387 . S
C354 C355 1.387 . S
C354 H358 0.950 . S
C354 C363 1.390 1_455 S
C355 C354 1.387 . S
C355 C357 1.387 . S
H356 C363 0.950 . S
C357 C355 1.387 . S
C357 C359 1.390 1_455 S
C357 H361 0.950 . S
H358 C354 0.950 . S
C359 C357 1.390 1_655 S
C359 C360 1.387 . S
C359 H362 0.950 . S
C360 C359 1.387 . S
C360 C363 1.387 . S
H361 C357 0.950 . S
H362 C359 0.950 . S
C363 C354 1.390 1_655 S
C363 H356 0.950 . S
C363 C360 1.387 . S
C364 C365 1.387 . S
C364 H368 0.950 . S
C364 C373 1.390 1_454 S
C365 C364 1.387 . S
C365 C367 1.387 . S
H366 C373 0.950 . S
C367 C365 1.387 . S
C367 C369 1.390 1_454 S
C367 H371 0.950 . S
H368 C364 0.950 . S
C369 C367 1.390 1_656 S
C369 C370 1.387 . S
C369 H372 0.950 . S
C370 C369 1.387 . S
C370 C373 1.387 . S
H371 C367 0.950 . S
H372 C369 0.950 . S
C373 C364 1.390 1_656 S
C373 H366 0.950 . S
C373 C370 1.387 . S
C374 C375 1.387 . S
C374 H378 0.950 . S
C374 C383 1.390 . S
C375 C374 1.387 . S
C375 C377 1.387 . S
H376 C383 0.950 . S
C377 C375 1.387 . S
C377 C379 1.390 . S
C377 H381 0.950 . S
H378 C374 0.950 . S
C379 C377 1.390 . S
C379 C380 1.387 . S
C379 H382 0.950 . S
C380 C379 1.387 . S
C380 C383 1.387 . S
H381 C377 0.950 . S
H382 C379 0.950 . S
C383 C374 1.390 . S
C383 H376 0.950 . S
C383 C380 1.387 . S
C384 C385 1.387 . S
C384 H388 0.950 . S
C384 C393 1.390 . S
C385 C384 1.387 . S
C385 C387 1.387 . S
H386 C393 0.950 . S
C387 C385 1.387 . S
C387 C389 1.390 . S
C387 H391 0.950 . S
H388 C384 0.950 . S
C389 C387 1.390 . S
C389 C390 1.387 . S
C389 H392 0.950 . S
C390 C389 1.387 . S
C390 C393 1.387 . S
H391 C387 0.950 . S
H392 C389 0.950 . S
C393 C384 1.390 . S
C393 H386 0.950 . S
C393 C390 1.387 . S
C394 C395 1.387 . S
C394 H398 0.950 . S
C394 C403 1.390 . S
C395 C394 1.387 . S
C395 C397 1.387 . S
H396 C403 0.950 . S
C397 C395 1.387 . S
C397 C399 1.390 . S
C397 H401 0.950 . S
H398 C394 0.950 . S
C399 C397 1.390 . S
C399 C400 1.387 . S
C399 H402 0.950 . S
C400 C399 1.387 . S
C400 C403 1.387 . S
H401 C397 0.950 . S
H402 C399 0.950 . S
C403 C394 1.390 . S
C403 H396 0.950 . S
C403 C400 1.387 . S
C404 C405 1.387 . S
C404 H408 0.950 . S
C404 C413 1.390 . S
C405 C404 1.387 . S
C405 C407 1.387 . S
H406 C413 0.950 . S
C407 C405 1.387 . S
C407 C409 1.390 . S
C407 H411 0.950 . S
H408 C404 0.950 . S
C409 C407 1.390 . S
C409 C410 1.387 . S
C409 H412 0.950 . S
C410 C409 1.387 . S
C410 C413 1.387 . S
H411 C407 0.950 . S
H412 C409 0.950 . S
C413 C404 1.390 . S
C413 H406 0.950 . S
C413 C410 1.387 . S
C414 C415 1.387 . S
C414 H418 0.950 . S
C414 C423 1.390 . S
C415 C414 1.387 . S
C415 C417 1.387 . S
H416 C423 0.950 . S
C417 C415 1.387 . S
C417 C419 1.390 . S
C417 H421 0.950 . S
H418 C414 0.950 . S
C419 C417 1.390 . S
C419 C420 1.387 . S
C419 H422 0.950 . S
C420 C419 1.387 . S
C420 C423 1.387 . S
H421 C417 0.950 . S
H422 C419 0.950 . S
C423 C414 1.390 . S
C423 H416 0.950 . S
C423 C420 1.387 . S
C424 C425 1.387 . S
C424 H428 0.950 . S
C424 C433 1.390 . S
C425 C424 1.387 . S
C425 C427 1.387 . S
H426 C433 0.950 . S
C427 C425 1.387 . S
C427 C429 1.390 . S
C427 H431 0.950 . S
H428 C424 0.950 . S
C429 C427 1.390 . S
C429 C430 1.387 . S
C429 H432 0.950 . S
C430 C429 1.387 . S
C430 C433 1.387 . S
H431 C427 0.950 . S
H432 C429 0.950 . S
C433 C424 1.390 . S
C433 H426 0.950 . S
C433 C430 1.387 . S
C434 C435 1.387 . S
C434 H438 0.950 . S
C434 C443 1.390 . S
C435 C434 1.387 . S
C435 C437 1.387 . S
H436 C443 0.950 . S
C437 C435 1.387 . S
C437 C439 1.390 . S
C437 H441 0.950 . S
H438 C434 0.950 . S
C439 C437 1.390 . S
C439 C440 1.387 . S
C439 H442 0.950 . S
C440 C439 1.387 . S
C440 C443 1.387 . S
H441 C437 0.950 . S
H442 C439 0.950 . S
C443 C434 1.390 . S
C443 H436 0.950 . S
C443 C440 1.387 . S
C444 C445 1.387 . S
C444 H448 0.950 . S
C444 C453 1.390 . S
C445 C444 1.387 . S
C445 C447 1.387 . S
H446 C453 0.950 1_554 S
C447 C445 1.387 . S
C447 C449 1.390 . S
C447 H451 0.950 . S
H448 C444 0.950 . S
C449 C447 1.390 . S
C449 C450 1.387 . S
C449 H452 0.950 . S
C450 C449 1.387 . S
C450 C453 1.387 . S
H451 C447 0.950 . S
H452 C449 0.950 . S
C453 C444 1.390 . S
C453 H446 0.950 1_556 S
C453 C450 1.387 . S
C454 C455 1.387 . S
C454 H458 0.950 1_554 S
C454 C463 1.390 . S
C455 C454 1.387 . S
C455 C457 1.387 . S
H456 C463 0.950 . S
C457 C455 1.387 . S
C457 C459 1.390 . S
C457 H461 0.950 . S
H458 C454 0.950 1_556 S
C459 C457 1.390 . S
C459 C460 1.387 . S
C459 H462 0.950 . S
C460 C459 1.387 . S
C460 C463 1.387 . S
H461 C457 0.950 . S
H462 C459 0.950 . S
C463 C454 1.390 . S
C463 H456 0.950 . S
C463 C460 1.387 . S
C464 C465 1.387 . S
C464 H468 0.950 . S
C464 C473 1.390 . S
C465 C464 1.387 . S
C465 C467 1.387 . S
H466 C473 0.950 . S
C467 C465 1.387 . S
C467 C469 1.390 . S
C467 H471 0.950 1_556 S
H468 C464 0.950 . S
C469 C467 1.390 . S
C469 C470 1.387 . S
C469 H472 0.950 . S
C470 C469 1.387 . S
C470 C473 1.387 . S
H471 C467 0.950 1_554 S
H472 C469 0.950 . S
C473 C464 1.390 . S
C473 H466 0.950 . S
C473 C470 1.387 . S
C474 C475 1.387 . S
C474 H478 0.950 . S
C474 C483 1.390 . S
C475 C474 1.387 . S
C475 C477 1.387 . S
H476 C483 0.950 . S
C477 C475 1.387 . S
C477 C479 1.390 . S
C477 H481 0.950 . S
H478 C474 0.950 . S
C479 C477 1.390 . S
C479 C480 1.387 . S
C479 H482 0.950 . S
C480 C479 1.387 . S
C480 C483 1.387 . S
H481 C477 0.950 . S
H482 C479 0.950 . S
C483 C474 1.390 . S
C483 H476 0.950 . S
C483 C480 1.387 . S
C484 C485 1.387 . S
C484 H488 0.950 . S
C484 C493 1.390 . S
C485 C484 1.387 . S
C485 C487 1.387 . S
H486 C493 0.950 . S
C487 C485 1.387 . S
C487 C489 1.390 . S
C487 H491 0.950 . S
H488 C484 0.950 . S
C489 C487 1.390 . S
C489 C490 1.387 . S
C489 H492 0.950 . S
C490 C489 1.387 . S
C490 C493 1.387 . S
H491 C487 0.950 . S
H492 C489 0.950 . S
C493 C484 1.390 . S
C493 H486 0.950 . S
C493 C490 1.387 . S
C494 C495 1.387 . S
C494 H498 0.950 . S
C494 C503 1.390 . S
C495 C494 1.387 . S
C495 C497 1.387 . S
H496 C503 0.950 . S
C497 C495 1.387 . S
C497 C499 1.390 . S
C497 H501 0.950 . S
H498 C494 0.950 . S
C499 C497 1.390 . S
C499 C500 1.387 . S
C499 H502 0.950 . S
C500 C499 1.387 . S
C500 C503 1.387 . S
H501 C497 0.950 . S
H502 C499 0.950 . S
C503 C494 1.390 . S
C503 H496 0.950 . S
C503 C500 1.387 . S
C504 C505 1.387 . S
C504 H508 0.950 . S
C504 C513 1.390 . S
C505 C504 1.387 . S
C505 C507 1.387 . S
H506 C513 0.950 . S
C507 C505 1.387 . S
C507 C509 1.390 . S
C507 H511 0.950 . S
H508 C504 0.950 . S
C509 C507 1.390 . S
C509 C510 1.387 . S
C509 H512 0.950 . S
C510 C509 1.387 . S
C510 C513 1.387 . S
H511 C507 0.950 . S
H512 C509 0.950 . S
C513 C504 1.390 . S
C513 H506 0.950 . S
C513 C510 1.387 . S
C514 C515 1.387 . S
C514 H518 0.950 . S
C514 C523 1.390 . S
C515 C514 1.387 . S
C515 C517 1.387 . S
H516 C523 0.950 . S
C517 C515 1.387 . S
C517 C519 1.390 . S
C517 H521 0.950 . S
H518 C514 0.950 . S
C519 C517 1.390 . S
C519 C520 1.387 . S
C519 H522 0.950 . S
C520 C519 1.387 . S
C520 C523 1.387 . S
H521 C517 0.950 . S
H522 C519 0.950 . S
C523 C514 1.390 . S
C523 H516 0.950 . S
C523 C520 1.387 . S
C524 C525 1.387 . S
C524 H528 0.950 . S
C524 C533 1.390 . S
C525 C524 1.387 . S
C525 C527 1.387 . S
H526 C533 0.950 . S
C527 C525 1.387 . S
C527 C529 1.390 . S
C527 H531 0.950 . S
H528 C524 0.950 . S
C529 C527 1.390 . S
C529 C530 1.387 . S
C529 H532 0.950 1_554 S
C530 C529 1.387 . S
C530 C533 1.387 . S
H531 C527 0.950 . S
H532 C529 0.950 1_556 S
C533 C524 1.390 . S
C533 H526 0.950 . S
C533 C530 1.387 . S
C534 C535 1.387 . S
C534 H538 0.950 . S
C534 C543 1.390 . S
C535 C534 1.387 . S
C535 C537 1.387 . S
H536 C543 0.950 . S
C537 C535 1.387 . S
C537 C539 1.390 . S
C537 H541 0.950 1_556 S
H538 C534 0.950 . S
C539 C537 1.390 . S
C539 C540 1.387 . S
C539 H542 0.950 . S
C540 C539 1.387 . S
C540 C543 1.387 . S
H541 C537 0.950 1_554 S
H542 C539 0.950 . S
C543 C534 1.390 . S
C543 H536 0.950 . S
C543 C540 1.387 . S
C225 C7 1.188 . S
C230 C175 1.188 . S
C235 C22 1.336 . S
C240 C78 1.336 . S
C245 C35 1.188 . S
C250 C203 1.188 . S
C255 C106 1.339 . S
C260 C50 1.339 . S
C265 C204 1.339 . S
C270 C36 1.339 . S
C275 C105 1.189 . S
C280 C49 1.187 . S
C285 C176 1.335 . S
C290 C8 1.335 . S
C295 C77 1.188 . S
C300 C21 1.190 . S
C305 C63 1.187 . S
C310 C119 1.187 . S
C315 C91 1.188 . S
C320 C147 1.188 . S
C325 C148 1.338 . S
C330 C92 1.338 . S
C335 C64 1.339 . S
C340 C120 1.339 . S
C345 C190 1.337 . S
C350 C134 1.337 . S
C355 C162 1.339 . S
C360 C218 1.339 . S
C365 C161 1.188 . S
C370 C217 1.188 . S
C375 C133 1.188 . S
C380 C189 1.188 . S
C385 C165 1.514 . S
C390 C11 1.514 . S
C395 C125 1.428 . S
C400 C27 1.425 . S
C405 C39 1.516 . S
C410 C137 1.515 . S
C415 C153 1.426 . S
C420 C55 1.428 . S
C425 C167 1.425 . S
C430 C41 1.428 . S
C435 C53 1.516 . S
C440 C123 1.516 . S
C445 C139 1.425 . S
C450 C13 1.428 . S
C455 C151 1.515 . S
C460 C25 1.515 . S
C465 C67 1.516 . S
C470 C221 1.516 . S
C475 C181 1.426 . S
C480 C83 1.426 . S
C485 C95 1.514 . S
C490 C193 1.514 . S
C495 C111 1.427 . S
C500 C209 1.425 . S
C505 C97 1.425 . S
C510 C223 1.428 . S
C515 C179 1.515 . S
C520 C109 1.515 . S
C525 C195 1.425 . S
C530 C69 1.428 . S
C535 C207 1.514 . S
C540 C81 1.515 . S
