# Generated by pormake.
# Topology wip, (6)-cn, num edge types: 1
# Building blocks:
#     Node 0, Type 0, BuildingBlock: CUKXOW_clean_sbu_0, # of connection points: 6
#     Node 1, Type 0, BuildingBlock: CUKXOW_clean_sbu_0, # of connection points: 6
#     Node 2, Type 0, BuildingBlock: CUKXOW_clean_sbu_0, # of connection points: 6
#     Node 3, Type 0, BuildingBlock: CUKXOW_clean_sbu_0, # of connection points: 6
#     Node 4, Type 0, BuildingBlock: CUKXOW_clean_sbu_0, # of connection points: 6
#     Node 5, Type 0, BuildingBlock: CUKXOW_clean_sbu_0, # of connection points: 6
#     Node 6, Type 0, BuildingBlock: CUKXOW_clean_sbu_0, # of connection points: 6
#     Node 7, Type 0, BuildingBlock: CUKXOW_clean_sbu_0, # of connection points: 6
#     Node 8, Type 0, BuildingBlock: CUKXOW_clean_sbu_0, # of connection points: 6
#     Node 9, Type 0, BuildingBlock: CUKXOW_clean_sbu_0, # of connection points: 6
#     Node 10, Type 0, BuildingBlock: CUKXOW_clean_sbu_0, # of connection points: 6
#     Node 11, Type 0, BuildingBlock: CUKXOW_clean_sbu_0, # of connection points: 6
#     Node 12, Type 0, BuildingBlock: CUKXOW_clean_sbu_0, # of connection points: 6
#     Node 13, Type 0, BuildingBlock: CUKXOW_clean_sbu_0, # of connection points: 6
#     Node 14, Type 0, BuildingBlock: CUKXOW_clean_sbu_0, # of connection points: 6
#     Node 15, Type 0, BuildingBlock: CUKXOW_clean_sbu_0, # of connection points: 6
#     Node 16, Type 0, BuildingBlock: CUKXOW_clean_sbu_0, # of connection points: 6
#     Node 17, Type 0, BuildingBlock: CUKXOW_clean_sbu_0, # of connection points: 6
#     Node 18, Type 0, BuildingBlock: CUKXOW_clean_sbu_0, # of connection points: 6
#     Node 19, Type 0, BuildingBlock: CUKXOW_clean_sbu_0, # of connection points: 6
#     Node 20, Type 0, BuildingBlock: CUKXOW_clean_sbu_0, # of connection points: 6
#     Node 21, Type 0, BuildingBlock: CUKXOW_clean_sbu_0, # of connection points: 6
#     Node 22, Type 0, BuildingBlock: CUKXOW_clean_sbu_0, # of connection points: 6
#     Node 23, Type 0, BuildingBlock: CUKXOW_clean_sbu_0, # of connection points: 6
#     Node 24, Type 0, BuildingBlock: CUKXOW_clean_sbu_0, # of connection points: 6
#     Node 25, Type 0, BuildingBlock: CUKXOW_clean_sbu_0, # of connection points: 6
#     Node 26, Type 0, BuildingBlock: CUKXOW_clean_sbu_0, # of connection points: 6
#     Node 27, Type 0, BuildingBlock: CUKXOW_clean_sbu_0, # of connection points: 6
#     Node 28, Type 0, BuildingBlock: CUKXOW_clean_sbu_0, # of connection points: 6
#     Node 29, Type 0, BuildingBlock: CUKXOW_clean_sbu_0, # of connection points: 6
#     Node 30, Type 0, BuildingBlock: CUKXOW_clean_sbu_0, # of connection points: 6
#     Node 31, Type 0, BuildingBlock: CUKXOW_clean_sbu_0, # of connection points: 6
#     Edge 32, Type (0, 0), BuildingBlock: OJICUG_clean_linker_0, # of connection points: 2
#     Edge 33, Type (0, 0), BuildingBlock: OJICUG_clean_linker_0, # of connection points: 2
#     Edge 34, Type (0, 0), BuildingBlock: OJICUG_clean_linker_0, # of connection points: 2
#     Edge 35, Type (0, 0), BuildingBlock: OJICUG_clean_linker_0, # of connection points: 2
#     Edge 36, Type (0, 0), BuildingBlock: OJICUG_clean_linker_0, # of connection points: 2
#     Edge 37, Type (0, 0), BuildingBlock: OJICUG_clean_linker_0, # of connection points: 2
#     Edge 38, Type (0, 0), BuildingBlock: OJICUG_clean_linker_0, # of connection points: 2
#     Edge 39, Type (0, 0), BuildingBlock: OJICUG_clean_linker_0, # of connection points: 2
#     Edge 40, Type (0, 0), BuildingBlock: OJICUG_clean_linker_0, # of connection points: 2
#     Edge 41, Type (0, 0), BuildingBlock: OJICUG_clean_linker_0, # of connection points: 2
#     Edge 42, Type (0, 0), BuildingBlock: OJICUG_clean_linker_0, # of connection points: 2
#     Edge 43, Type (0, 0), BuildingBlock: OJICUG_clean_linker_0, # of connection points: 2
#     Edge 44, Type (0, 0), BuildingBlock: OJICUG_clean_linker_0, # of connection points: 2
#     Edge 45, Type (0, 0), BuildingBlock: OJICUG_clean_linker_0, # of connection points: 2
#     Edge 46, Type (0, 0), BuildingBlock: OJICUG_clean_linker_0, # of connection points: 2
#     Edge 47, Type (0, 0), BuildingBlock: OJICUG_clean_linker_0, # of connection points: 2
#     Edge 48, Type (0, 0), BuildingBlock: OJICUG_clean_linker_0, # of connection points: 2
#     Edge 49, Type (0, 0), BuildingBlock: OJICUG_clean_linker_0, # of connection points: 2
#     Edge 50, Type (0, 0), BuildingBlock: OJICUG_clean_linker_0, # of connection points: 2
#     Edge 51, Type (0, 0), BuildingBlock: OJICUG_clean_linker_0, # of connection points: 2
#     Edge 52, Type (0, 0), BuildingBlock: OJICUG_clean_linker_0, # of connection points: 2
#     Edge 53, Type (0, 0), BuildingBlock: OJICUG_clean_linker_0, # of connection points: 2
#     Edge 54, Type (0, 0), BuildingBlock: OJICUG_clean_linker_0, # of connection points: 2
#     Edge 55, Type (0, 0), BuildingBlock: OJICUG_clean_linker_0, # of connection points: 2
#     Edge 56, Type (0, 0), BuildingBlock: OJICUG_clean_linker_0, # of connection points: 2
#     Edge 57, Type (0, 0), BuildingBlock: OJICUG_clean_linker_0, # of connection points: 2
#     Edge 58, Type (0, 0), BuildingBlock: OJICUG_clean_linker_0, # of connection points: 2
#     Edge 59, Type (0, 0), BuildingBlock: OJICUG_clean_linker_0, # of connection points: 2
#     Edge 60, Type (0, 0), BuildingBlock: OJICUG_clean_linker_0, # of connection points: 2
#     Edge 61, Type (0, 0), BuildingBlock: OJICUG_clean_linker_0, # of connection points: 2
#     Edge 62, Type (0, 0), BuildingBlock: OJICUG_clean_linker_0, # of connection points: 2
#     Edge 63, Type (0, 0), BuildingBlock: OJICUG_clean_linker_0, # of connection points: 2
#     Edge 64, Type (0, 0), BuildingBlock: OJICUG_clean_linker_0, # of connection points: 2
#     Edge 65, Type (0, 0), BuildingBlock: OJICUG_clean_linker_0, # of connection points: 2
#     Edge 66, Type (0, 0), BuildingBlock: OJICUG_clean_linker_0, # of connection points: 2
#     Edge 67, Type (0, 0), BuildingBlock: OJICUG_clean_linker_0, # of connection points: 2
#     Edge 68, Type (0, 0), BuildingBlock: OJICUG_clean_linker_0, # of connection points: 2
#     Edge 69, Type (0, 0), BuildingBlock: OJICUG_clean_linker_0, # of connection points: 2
#     Edge 70, Type (0, 0), BuildingBlock: OJICUG_clean_linker_0, # of connection points: 2
#     Edge 71, Type (0, 0), BuildingBlock: OJICUG_clean_linker_0, # of connection points: 2
#     Edge 72, Type (0, 0), BuildingBlock: OJICUG_clean_linker_0, # of connection points: 2
#     Edge 73, Type (0, 0), BuildingBlock: OJICUG_clean_linker_0, # of connection points: 2
#     Edge 74, Type (0, 0), BuildingBlock: OJICUG_clean_linker_0, # of connection points: 2
#     Edge 75, Type (0, 0), BuildingBlock: OJICUG_clean_linker_0, # of connection points: 2
#     Edge 76, Type (0, 0), BuildingBlock: OJICUG_clean_linker_0, # of connection points: 2
#     Edge 77, Type (0, 0), BuildingBlock: OJICUG_clean_linker_0, # of connection points: 2
#     Edge 78, Type (0, 0), BuildingBlock: OJICUG_clean_linker_0, # of connection points: 2
#     Edge 79, Type (0, 0), BuildingBlock: OJICUG_clean_linker_0, # of connection points: 2
#     Edge 80, Type (0, 0), BuildingBlock: OJICUG_clean_linker_0, # of connection points: 2
#     Edge 81, Type (0, 0), BuildingBlock: OJICUG_clean_linker_0, # of connection points: 2
#     Edge 82, Type (0, 0), BuildingBlock: OJICUG_clean_linker_0, # of connection points: 2
#     Edge 83, Type (0, 0), BuildingBlock: OJICUG_clean_linker_0, # of connection points: 2
#     Edge 84, Type (0, 0), BuildingBlock: OJICUG_clean_linker_0, # of connection points: 2
#     Edge 85, Type (0, 0), BuildingBlock: OJICUG_clean_linker_0, # of connection points: 2
#     Edge 86, Type (0, 0), BuildingBlock: OJICUG_clean_linker_0, # of connection points: 2
#     Edge 87, Type (0, 0), BuildingBlock: OJICUG_clean_linker_0, # of connection points: 2
#     Edge 88, Type (0, 0), BuildingBlock: OJICUG_clean_linker_0, # of connection points: 2
#     Edge 89, Type (0, 0), BuildingBlock: OJICUG_clean_linker_0, # of connection points: 2
#     Edge 90, Type (0, 0), BuildingBlock: OJICUG_clean_linker_0, # of connection points: 2
#     Edge 91, Type (0, 0), BuildingBlock: OJICUG_clean_linker_0, # of connection points: 2
#     Edge 92, Type (0, 0), BuildingBlock: OJICUG_clean_linker_0, # of connection points: 2
#     Edge 93, Type (0, 0), BuildingBlock: OJICUG_clean_linker_0, # of connection points: 2
#     Edge 94, Type (0, 0), BuildingBlock: OJICUG_clean_linker_0, # of connection points: 2
#     Edge 95, Type (0, 0), BuildingBlock: OJICUG_clean_linker_0, # of connection points: 2
#     Edge 96, Type (0, 0), BuildingBlock: OJICUG_clean_linker_0, # of connection points: 2
#     Edge 97, Type (0, 0), BuildingBlock: OJICUG_clean_linker_0, # of connection points: 2
#     Edge 98, Type (0, 0), BuildingBlock: OJICUG_clean_linker_0, # of connection points: 2
#     Edge 99, Type (0, 0), BuildingBlock: OJICUG_clean_linker_0, # of connection points: 2
#     Edge 100, Type (0, 0), BuildingBlock: OJICUG_clean_linker_0, # of connection points: 2
#     Edge 101, Type (0, 0), BuildingBlock: OJICUG_clean_linker_0, # of connection points: 2
#     Edge 102, Type (0, 0), BuildingBlock: OJICUG_clean_linker_0, # of connection points: 2
#     Edge 103, Type (0, 0), BuildingBlock: OJICUG_clean_linker_0, # of connection points: 2
#     Edge 104, Type (0, 0), BuildingBlock: OJICUG_clean_linker_0, # of connection points: 2
#     Edge 105, Type (0, 0), BuildingBlock: OJICUG_clean_linker_0, # of connection points: 2
#     Edge 106, Type (0, 0), BuildingBlock: OJICUG_clean_linker_0, # of connection points: 2
#     Edge 107, Type (0, 0), BuildingBlock: OJICUG_clean_linker_0, # of connection points: 2
#     Edge 108, Type (0, 0), BuildingBlock: OJICUG_clean_linker_0, # of connection points: 2
#     Edge 109, Type (0, 0), BuildingBlock: OJICUG_clean_linker_0, # of connection points: 2
#     Edge 110, Type (0, 0), BuildingBlock: OJICUG_clean_linker_0, # of connection points: 2
#     Edge 111, Type (0, 0), BuildingBlock: OJICUG_clean_linker_0, # of connection points: 2
#     Edge 112, Type (0, 0), BuildingBlock: OJICUG_clean_linker_0, # of connection points: 2
#     Edge 113, Type (0, 0), BuildingBlock: OJICUG_clean_linker_0, # of connection points: 2
#     Edge 114, Type (0, 0), BuildingBlock: OJICUG_clean_linker_0, # of connection points: 2
#     Edge 115, Type (0, 0), BuildingBlock: OJICUG_clean_linker_0, # of connection points: 2
#     Edge 116, Type (0, 0), BuildingBlock: OJICUG_clean_linker_0, # of connection points: 2
#     Edge 117, Type (0, 0), BuildingBlock: OJICUG_clean_linker_0, # of connection points: 2
#     Edge 118, Type (0, 0), BuildingBlock: OJICUG_clean_linker_0, # of connection points: 2
#     Edge 119, Type (0, 0), BuildingBlock: OJICUG_clean_linker_0, # of connection points: 2
#     Edge 120, Type (0, 0), BuildingBlock: OJICUG_clean_linker_0, # of connection points: 2
#     Edge 121, Type (0, 0), BuildingBlock: OJICUG_clean_linker_0, # of connection points: 2
#     Edge 122, Type (0, 0), BuildingBlock: OJICUG_clean_linker_0, # of connection points: 2
#     Edge 123, Type (0, 0), BuildingBlock: OJICUG_clean_linker_0, # of connection points: 2
#     Edge 124, Type (0, 0), BuildingBlock: OJICUG_clean_linker_0, # of connection points: 2
#     Edge 125, Type (0, 0), BuildingBlock: OJICUG_clean_linker_0, # of connection points: 2
#     Edge 126, Type (0, 0), BuildingBlock: OJICUG_clean_linker_0, # of connection points: 2
#     Edge 127, Type (0, 0), BuildingBlock: OJICUG_clean_linker_0, # of connection points: 2
# Relax obj value: 0.217
# Max RMSD: 0.188
# Mean RMSD: 0.180
data_MOF--net-wip--node1-CUKXOW_clean_sbu_0--edge1-OJICUG_clean_linker_0
_symmetry_space_group_name_H-M    P1
_symmetry_Int_Tables_number       1
_symmetry_cell_setting            triclinic
loop_
_symmetry_equiv_pos_as_xyz
'x, y, z'
_cell_length_a     41.849495
_cell_length_b     56.04711
_cell_length_c     20.177012
_cell_angle_alpha  86.976589
_cell_angle_beta   90.043471
_cell_angle_gamma 90.027182
loop_
_atom_site_label
_atom_site_type_symbol
_atom_site_fract_x
_atom_site_fract_y
_atom_site_fract_z
_atom_type_partial_charge
Tb0 Tb 0.07758 0.46416 0.17176 0.0
C1 C 0.03193 0.49616 0.08985 0.0
Tb2 Tb 0.03468 0.44166 0.06148 0.0
O3 O 0.11279 0.47925 0.10237 0.0
O4 O 0.08307 0.45173 0.07538 0.0
O5 O 0.05667 0.49696 0.12992 0.0
C6 C 0.00577 0.43493 0.94425 0.0
O7 O 0.03295 0.48068 0.04244 0.0
C8 C 0.01032 0.43788 0.18233 0.0
C9 C 0.07094 0.40762 0.16714 0.0
O10 O -0.00734 0.44344 0.99622 0.0
O11 O 0.03528 0.42922 0.95904 0.0
O12 O 0.00075 0.42529 0.13367 0.0
O13 O 0.02901 0.4539 0.15813 0.0
O14 O 0.05789 0.40909 0.10614 0.0
O15 O 0.07918 0.42652 0.20031 0.0
C16 C 0.09012 0.48185 0.28755 0.0
O17 O 0.1095 0.4677 0.25759 0.0
O18 O 0.06477 0.4858 0.25197 0.0
C19 C 0.10173 0.468 0.05236 0.0
Tb20 Tb 0.81236 0.79704 0.3964 0.0
C21 C 0.84313 0.82875 0.50212 0.0
Tb22 Tb 0.85317 0.77192 0.51866 0.0
O23 O 0.77456 0.80886 0.4644 0.0
O24 O 0.80499 0.78166 0.49458 0.0
O25 O 0.83376 0.82817 0.43868 0.0
C26 C 0.8697 0.75084 0.63829 0.0
O27 O 0.84973 0.80943 0.54135 0.0
C28 C 0.8828 0.77464 0.40075 0.0
C29 C 0.81353 0.74329 0.4232 0.0
O30 O 0.88311 0.76981 0.61002 0.0
O31 O 0.84706 0.74422 0.59939 0.0
O32 O 0.89107 0.76054 0.4513 0.0
O33 O 0.86113 0.7882 0.42179 0.0
O34 O 0.82459 0.74265 0.48457 0.0
O35 O 0.82409 0.76 0.38106 0.0
C36 C 0.78094 0.80491 0.277 0.0
O37 O 0.77134 0.79219 0.32889 0.0
O38 O 0.80857 0.81398 0.29301 0.0
C39 C 0.784 0.79563 0.5155 0.0
Tb40 Tb 0.41484 0.54676 0.6326 0.0
C41 C 0.40941 0.59341 0.71281 0.0
Tb42 Tb 0.46406 0.55591 0.74786 0.0
O43 O 0.37481 0.54114 0.70047 0.0
O44 O 0.42185 0.53538 0.73286 0.0
O45 O 0.40147 0.58308 0.65676 0.0
C46 C 0.49424 0.56155 0.86492 0.0
O47 O 0.43236 0.5859 0.754 0.0
C48 C 0.48587 0.56674 0.62574 0.0
C49 C 0.463 0.50792 0.68384 0.0
O50 O 0.46407 0.56534 0.85276 0.0
O51 O 0.50736 0.55449 0.81103 0.0
O52 O 0.50348 0.56305 0.67816 0.0
O53 O 0.45709 0.56754 0.64549 0.0
O54 O 0.46456 0.51738 0.74241 0.0
O55 O 0.43691 0.51166 0.64798 0.0
C56 C 0.40031 0.53477 0.50824 0.0
O57 O 0.42851 0.53692 0.53355 0.0
O58 O 0.37942 0.54021 0.55298 0.0
C59 C 0.39329 0.5375 0.75219 0.0
Tb60 Tb 0.68079 0.16701 0.96555 0.0
C61 C 0.61911 0.16204 0.05487 0.0
Tb62 Tb 0.66997 0.20256 0.08112 0.0
O63 O 0.69104 0.13639 1.03505 0.0
O64 O 0.69609 0.17144 0.06206 0.0
O65 O 0.63174 0.15802 0.99538 0.0
C66 C 0.66448 0.22414 0.19729 0.0
O67 O 0.62989 0.17849 0.09436 0.0
C68 C 0.65657 0.2205 0.95977 0.0
C69 C 0.73499 0.20106 1.0108 0.0
O70 O 0.65823 0.20182 0.18793 0.0
O71 O 0.67372 0.23422 0.14114 0.0
O72 O 0.66227 0.23303 1.01064 0.0
O73 O 0.65412 0.19883 0.98091 0.0
O74 O 0.72167 0.20146 0.07033 0.0
O75 O 0.728 0.18326 0.97288 0.0
C76 C 0.69803 0.1606 0.8395 0.0
O77 O 0.69744 0.18048 0.86911 0.0
O78 O 0.68759 0.14358 0.88082 0.0
C79 C 0.69518 0.15017 0.08467 0.0
Tb80 Tb 0.07193 0.52235 0.67564 0.0
C81 C 0.0262 0.48962 0.75375 0.0
Tb82 Tb 0.02742 0.54371 0.78581 0.0
O83 O 0.10683 0.50714 0.74519 0.0
O84 O 0.07619 0.53411 0.77312 0.0
O85 O 0.05195 0.48909 0.7166 0.0
C86 C -0.00247 0.54968 0.90303 0.0
O87 O 0.02619 0.50459 0.80246 0.0
C88 C 0.00436 0.54812 0.6628 0.0
C89 C 0.06521 0.57859 0.68529 0.0
O90 O 0.98479 0.54177 0.84976 0.0
O91 O 0.02728 0.55514 0.88961 0.0
O92 O -0.00612 0.56008 0.712 0.0
O93 O 0.02318 0.53232 0.68765 0.0
O94 O 0.05117 0.57662 0.7452 0.0
O95 O 0.07394 0.56014 0.65097 0.0
C96 C 0.08633 0.50644 0.55863 0.0
O97 O 0.10566 0.51936 0.59272 0.0
O98 O 0.05992 0.50274 0.59077 0.0
C99 C 0.09537 0.51802 0.79542 0.0
Tb100 Tb 0.69157 0.79536 0.89301 0.0
C101 C 0.63929 0.8172 0.79401 0.0
Tb102 Tb 0.66311 0.76272 0.77733 0.0
O103 O 0.73257 0.80792 0.82754 0.0
O104 O 0.69394 0.79182 0.78935 0.0
O105 O 0.65326 0.81874 0.85389 0.0
C106 C 0.64563 0.74043 0.6674 0.0
O107 O 0.64165 0.79818 0.75639 0.0
C108 C 0.64357 0.75147 0.9008 0.0
C109 C 0.72597 0.75231 0.85015 0.0
O110 O 0.67208 0.73716 0.70033 0.0
O111 O 0.62919 0.75688 0.6954 0.0
O112 O 0.64357 0.737 0.85278 0.0
O113 O 0.65177 0.77185 0.87672 0.0
O114 O 0.71278 0.75129 0.79079 0.0
O115 O 0.70785 0.7588 0.89864 0.0
C116 C 0.71388 0.80588 1.01708 0.0
O117 O 0.6919 0.79049 1.00334 0.0
O118 O 0.722 0.81646 0.96044 0.0
C119 C 0.72071 0.80021 0.77286 0.0
Tb120 Tb 0.38931 0.48321 0.12046 0.0
C121 C 0.38611 0.43009 0.06897 0.0
Tb122 Tb 0.43319 0.46713 0.99721 0.0
O123 O 0.35379 0.50091 0.05417 0.0
O124 O 0.38511 0.47543 1.02061 0.0
O125 O 0.38009 0.44431 0.11913 0.0
C126 C 0.46129 0.45947 0.87907 0.0
O127 O 0.40301 0.43631 1.01493 0.0
C128 C 0.45529 0.45679 0.11987 0.0
C129 C 0.43082 0.51922 1.03724 0.0
O130 O 0.43156 0.45526 0.89439 0.0
O131 O 0.47519 0.46799 0.9305 0.0
O132 O 0.46572 0.44706 0.06694 0.0
O133 O 0.43731 0.4737 0.09975 0.0
O134 O 0.42914 0.50598 0.98506 0.0
O135 O 0.40696 0.51782 0.08027 0.0
C136 C 0.38611 0.49804 0.24498 0.0
O137 O 0.41054 0.49899 0.2057 0.0
O138 O 0.36234 0.48804 0.21432 0.0
C139 C 0.3645 0.49074 1.00155 0.0
Tb140 Tb 0.77094 0.16464 0.44825 0.0
C141 C 0.83576 0.15621 0.36948 0.0
Tb142 Tb 0.7933 0.20031 0.31852 0.0
O143 O 0.74781 0.13745 0.3893 0.0
O144 O 0.77057 0.16742 0.34594 0.0
O145 O 0.81902 0.15173 0.42569 0.0
C146 C 0.80539 0.22116 0.19755 0.0
O147 O 0.8302 0.17363 0.32357 0.0
C148 C 0.81052 0.21554 0.43811 0.0
C149 C 0.7265 0.2016 0.378 0.0
O150 O 0.81042 0.19881 0.21553 0.0
O151 O 0.79313 0.23168 0.24754 0.0
O152 O 0.81588 0.22705 0.38158 0.0
O153 O 0.79627 0.19677 0.42333 0.0
O154 O 0.74127 0.20043 0.32032 0.0
O155 O 0.72619 0.1822 0.41821 0.0
C156 C 0.75345 0.15941 0.57592 0.0
O157 O 0.75521 0.17921 0.54003 0.0
O158 O 0.76271 0.14188 0.54017 0.0
C159 C 0.75551 0.14873 0.33301 0.0
Tb160 Tb 0.9127 0.539 0.286 0.0
C161 C 0.86759 0.57132 0.19126 0.0
Tb162 Tb 0.87102 0.51526 0.17565 0.0
O163 O 0.94336 0.55846 0.21234 0.0
O164 O 0.9184 0.52852 0.18711 0.0
O165 O 0.88377 0.56989 0.24891 0.0
C166 C 0.85976 0.49917 0.05763 0.0
O167 O 0.86154 0.5527 0.15526 0.0
C168 C 0.84896 0.50814 0.29568 0.0
C169 C 0.92074 0.48544 0.252 0.0
O170 O 0.83801 0.50916 0.09325 0.0
O171 O 0.88679 0.49842 0.08875 0.0
O172 O 0.83921 0.49646 0.24531 0.0
O173 O 0.86552 0.52584 0.27369 0.0
O174 O 0.89533 0.48339 0.21434 0.0
O175 O 0.91893 0.50013 0.30124 0.0
C176 C 0.94195 0.5468 0.40294 0.0
O177 O 0.95546 0.53959 0.34966 0.0
O178 O 0.91172 0.55042 0.38973 0.0
C179 C 0.93462 0.54597 0.16278 0.0
Tb180 Tb 0.19154 0.20131 0.80543 0.0
C181 C 0.26438 0.19954 0.8447 0.0
Tb182 Tb 0.21703 0.16569 0.92263 0.0
O183 O 0.1641 0.22136 0.8776 0.0
O184 O 0.20431 0.20265 0.90799 0.0
O185 O 0.2433 0.2027 0.79561 0.0
C186 C 0.23302 0.15339 0.04969 0.0
O187 O 0.25666 0.1892 0.90311 0.0
C188 C 0.23106 0.15369 0.80097 0.0
C189 C 0.15122 0.15473 0.85066 0.0
O190 O 0.24805 0.14697 0.99702 0.0
O191 O 0.2077 0.16537 1.03028 0.0
O192 O 0.24537 0.14434 0.8539 0.0
O193 O 0.20844 0.1662 0.82081 0.0
O194 O 0.16962 0.15037 0.90434 0.0
O195 O 0.15664 0.1724 0.80527 0.0
C196 C 0.18073 0.22607 0.68775 0.0
O197 O 0.16268 0.20937 0.71483 0.0
O198 O 0.20464 0.22907 0.72772 0.0
C199 C 0.18095 0.21424 0.92905 0.0
Tb200 Tb 0.54705 0.45486 0.49809 0.0
C201 C 0.57703 0.50193 0.53702 0.0
Tb202 Tb 0.59637 0.45678 0.62234 0.0
O203 O 0.50724 0.44471 0.56629 0.0
O204 O 0.54678 0.46156 0.60154 0.0
O205 O 0.57125 0.48932 0.48485 0.0
C206 C 0.60856 0.46953 0.74648 0.0
O207 O 0.59876 0.49361 0.57994 0.0
C208 C 0.62301 0.45622 0.50461 0.0
C209 C 0.57248 0.40696 0.5681 0.0
O210 O 0.58649 0.47785 0.70677 0.0
O211 O 0.62439 0.45302 0.71657 0.0
O212 O 0.63848 0.4621 0.55782 0.0
O213 O 0.59575 0.4488 0.52277 0.0
O214 O 0.58473 0.41831 0.61962 0.0
O215 O 0.55934 0.41795 0.51484 0.0
C216 C 0.5173 0.45421 0.37915 0.0
O217 O 0.54312 0.44261 0.39632 0.0
O218 O 0.50822 0.46637 0.42907 0.0
C219 C 0.52176 0.45048 0.62013 0.0
Tb220 Tb 0.3146 0.78087 0.28477 0.0
C221 C 0.24609 0.79569 0.32737 0.0
Tb222 Tb 0.30495 0.81795 0.3979 0.0
O223 O 0.33428 0.75502 0.36184 0.0
O224 O 0.30186 0.78065 0.38656 0.0
O225 O 0.26454 0.79009 0.2771 0.0
C226 C 0.29635 0.8288 0.52528 0.0
O227 O 0.25791 0.80336 0.38356 0.0
C228 C 0.29274 0.835 0.27753 0.0
C229 C 0.37183 0.81553 0.31836 0.0
O230 O 0.28625 0.84145 0.47338 0.0
O231 O 0.31336 0.8112 0.50467 0.0
O232 O 0.2824 0.84508 0.33049 0.0
O233 O 0.31148 0.81826 0.29576 0.0
O234 O 0.35607 0.82308 0.37158 0.0
O235 O 0.36084 0.79843 0.28093 0.0
C236 C 0.31157 0.75628 0.17227 0.0
O237 O 0.3268 0.77619 0.17971 0.0
O238 O 0.29833 0.75001 0.22884 0.0
C239 C 0.31935 0.76429 0.411 0.0
Tb240 Tb 0.92177 0.43939 0.56119 0.0
C241 C 0.8925 0.40285 0.66895 0.0
Tb242 Tb 0.87557 0.45808 0.6716 0.0
O243 O 0.95815 0.42621 0.63258 0.0
O244 O 0.92556 0.45206 0.65819 0.0
O245 O 0.9046 0.40514 0.60734 0.0
C246 C 0.8596 0.47474 0.78669 0.0
O247 O 0.88087 0.42088 0.70152 0.0
C248 C 0.85059 0.45853 0.55289 0.0
C249 C 0.9157 0.49369 0.58833 0.0
O250 O 0.84339 0.45831 0.75783 0.0
O251 O 0.88377 0.48144 0.75042 0.0
O252 O 0.83767 0.46886 0.6026 0.0
O253 O 0.87216 0.44462 0.57632 0.0
O254 O 0.89075 0.49244 0.62795 0.0
O255 O 0.91706 0.4782 0.54102 0.0
C256 C 0.95102 0.43393 0.44398 0.0
O257 O 0.96318 0.44374 0.49507 0.0
O258 O 0.92235 0.42634 0.45953 0.0
C259 C 0.94677 0.43773 0.68169 0.0
Tb260 Tb 0.3392 0.21149 0.53349 0.0
C261 C 0.29277 0.23034 0.42821 0.0
Tb262 Tb 0.3144 0.17679 0.42565 0.0
O263 O 0.36611 0.23447 0.46071 0.0
O264 O 0.35374 0.20062 0.43732 0.0
O265 O 0.29842 0.23012 0.4925 0.0
C266 C 0.28862 0.1607 0.31325 0.0
O267 O 0.29832 0.21181 0.39242 0.0
C268 C 0.28951 0.17009 0.54421 0.0
C269 C 0.3621 0.15707 0.53583 0.0
O270 O 0.27336 0.17001 0.36155 0.0
O271 O 0.31888 0.15948 0.32942 0.0
O272 O 0.29104 0.15364 0.50147 0.0
O273 O 0.29802 0.18989 0.51688 0.0
O274 O 0.35238 0.15502 0.47305 0.0
O275 O 0.35713 0.17656 0.56935 0.0
C276 C 0.34572 0.2365 0.64549 0.0
O277 O 0.36549 0.22047 0.62509 0.0
O278 O 0.32248 0.23817 0.60293 0.0
C279 C 0.36395 0.22044 0.41146 0.0
Tb280 Tb 0.56796 0.54128 0.24929 0.0
C281 C 0.54549 0.49791 0.17775 0.0
Tb282 Tb 0.61004 0.52233 0.13308 0.0
O283 O 0.53346 0.55816 0.18003 0.0
O284 O 0.57944 0.55209 0.14816 0.0
O285 O 0.54855 0.50602 0.23785 0.0
C286 C 0.61705 0.50778 1.0086 0.0
O287 O 0.57074 0.49687 0.1388 0.0
C288 C 0.62506 0.50596 0.25262 0.0
C289 C 0.63509 0.56486 0.21306 0.0
O290 O 0.59173 0.51675 1.03424 0.0
O291 O 0.63976 0.5076 0.05308 0.0
O292 O 0.64479 0.5059 0.2026 0.0
O293 O 0.59763 0.5115 0.2313 0.0
O294 O 0.63593 0.55514 0.15396 0.0
O295 O 0.61233 0.56054 0.25786 0.0
C296 C 0.54186 0.55411 0.36551 0.0
O297 O 0.57185 0.54938 0.35525 0.0
O298 O 0.52661 0.55129 0.31043 0.0
C299 C 0.55171 0.55819 0.12823 0.0
Tb300 Tb 0.18008 0.78407 1.03264 0.0
C301 C 0.2478 0.77695 0.98431 0.0
Tb302 Tb 0.21208 0.81827 0.90942 0.0
O303 O 0.15647 0.75974 0.96335 0.0
O304 O 0.18061 0.78878 0.92713 0.0
O305 O 0.23161 0.77958 0.03969 0.0
C306 C 0.23441 0.82492 0.78436 0.0
O307 O 0.25248 0.79615 0.94442 0.0
C308 C 0.22809 0.83119 1.02825 0.0
C309 C 0.14832 0.83343 0.98256 0.0
O310 O 0.2311 0.80474 0.81799 0.0
O311 O 0.22373 0.84189 0.82055 0.0
O312 O 0.23905 0.84164 0.97325 0.0
O313 O 0.20922 0.81479 1.01245 0.0
O314 O 0.16689 0.83655 0.92845 0.0
O315 O 0.14962 0.81504 1.02704 0.0
C316 C 0.15894 0.76327 0.14935 0.0
O317 O 0.15452 0.78547 0.12859 0.0
O318 O 0.17596 0.75306 0.10489 0.0
C319 C 0.16503 0.77111 0.90838 0.0
Tb320 Tb 0.59874 0.96305 0.67639 0.0
C321 C 0.55022 -0.00637 0.59793 0.0
Tb322 Tb 0.55706 0.93983 0.56523 0.0
O323 O 0.63182 0.98086 0.60725 0.0
O324 O 0.6046 0.95202 0.57873 0.0
O325 O 0.57544 -0.00481 0.63641 0.0
C326 C 0.52855 0.93214 0.44804 0.0
O327 O 0.55172 0.97874 0.5491 0.0
C328 C 0.5342 0.93364 0.68754 0.0
C329 C 0.59893 0.90663 0.66311 0.0
O330 O 0.51468 0.93937 0.50087 0.0
O331 O 0.55869 0.92843 0.4618 0.0
O332 O 0.52533 0.9211 0.63819 0.0
O333 O 0.55113 0.9507 0.66335 0.0
O334 O 0.58437 0.90836 0.60373 0.0
O335 O 0.60537 0.92527 0.69894 0.0
C336 C 0.60925 0.98003 0.79382 0.0
O337 O 0.63071 0.96851 0.76112 0.0
O338 O 0.58296 0.98173 0.76019 0.0
C339 C 0.6218 0.96936 0.55677 0.0
Tb340 Tb 0.27981 0.31868 0.90735 0.0
C341 C 0.33485 0.34175 0.99216 0.0
Tb342 Tb 0.31815 0.28706 1.02766 0.0
O343 O 0.2459 0.33597 0.97244 0.0
O344 O 0.28001 0.31199 1.01054 0.0
O345 O 0.3191 0.34215 0.93411 0.0
C346 C 0.33694 0.26492 0.14559 0.0
O347 O 0.33649 0.32304 1.03576 0.0
C348 C 0.33973 0.28025 0.90261 0.0
C349 C 0.25829 0.26929 0.96061 0.0
O350 O 0.34192 0.28723 0.1264 0.0
O351 O 0.32112 0.25528 0.09825 0.0
O352 O 0.35041 0.26939 0.95688 0.0
O353 O 0.31921 0.29471 0.92272 0.0
O354 O 0.2706 0.27198 1.02011 0.0
O355 O 0.24784 0.28854 0.92706 0.0
C356 C 0.25681 0.32895 0.78351 0.0
O357 O 0.2619 0.30802 0.81153 0.0
O358 O 0.26601 0.34478 0.8248 0.0
C359 C 0.25745 0.3255 1.02665 0.0
Tb360 Tb 0.8826 0.02922 0.19192 0.0
C361 C 0.89518 0.08131 0.24444 0.0
Tb362 Tb 0.93129 0.03748 0.31454 0.0
O363 O 0.84256 0.01852 0.25715 0.0
O364 O 0.88167 0.03729 0.29163 0.0
O365 O 0.88411 0.06848 0.19486 0.0
C366 C 0.96095 0.04148 0.43265 0.0
O367 O 0.91163 0.07253 0.29655 0.0
C368 C 0.95491 0.04467 0.1917 0.0
C369 C 0.91233 0.98736 0.27608 0.0
O370 O 0.93304 0.05009 0.41628 0.0
O371 O 0.97218 0.03048 0.38238 0.0
O372 O 0.9684 0.05196 0.24506 0.0
O373 O 0.93255 0.03092 0.21141 0.0
O374 O 0.91497 0.00053 0.32816 0.0
O375 O 0.88887 0.99261 0.23382 0.0
C376 C 0.87321 0.01574 0.06784 0.0
O377 O 0.89736 0.01067 0.10596 0.0
O378 O 0.85345 0.0293 0.09934 0.0
C379 C 0.85649 0.02637 0.30995 0.0
Tb380 Tb 0.16426 0.6693 0.42167 0.0
C381 C 0.11085 0.65978 0.53031 0.0
Tb382 Tb 0.15315 0.7073 0.53119 0.0
O383 O 0.18086 0.6431 0.49816 0.0
O384 O 0.18636 0.67982 0.51026 0.0
O385 O 0.12104 0.65458 0.46975 0.0
C386 C 0.15434 0.72933 0.6485 0.0
O387 O 0.12046 0.67873 0.56186 0.0
C388 C 0.12805 0.72013 0.41251 0.0
C389 C 0.20327 0.71678 0.42688 0.0
O390 O 0.14762 0.70701 0.64038 0.0
O391 O 0.16012 0.73933 0.59011 0.0
O392 O 0.13067 0.73402 0.46197 0.0
O393 O 0.13368 0.69911 0.43703 0.0
O394 O 0.1999 0.71534 0.49205 0.0
O395 O 0.1907 0.70069 0.38932 0.0
C396 C 0.18199 0.65015 0.30695 0.0
O397 O 0.20038 0.65388 0.35718 0.0
O398 O 0.15292 0.65607 0.32289 0.0
C399 C 0.189 0.65934 0.53861 0.0
Tb400 Tb 0.5916 0.02177 0.18079 0.0
C401 C 0.55046 0.98613 0.26139 0.0
Tb402 Tb 0.54583 0.04 0.29312 0.0
O403 O 0.62865 0.00893 0.24912 0.0
O404 O 0.59533 0.03386 0.27783 0.0
O405 O 0.57576 0.98733 0.22272 0.0
C406 C 0.51653 0.04515 0.41061 0.0
O407 O 0.54929 0.00101 0.31022 0.0
C408 C 0.52154 0.04357 0.17144 0.0
C409 C 0.5784 0.07728 0.19208 0.0
O410 O 0.50404 0.03615 0.35858 0.0
O411 O 0.54562 0.05199 0.39595 0.0
O412 O 0.51026 0.05473 0.22135 0.0
O413 O 0.54202 0.02869 0.19481 0.0
O414 O 0.56563 0.07417 0.25286 0.0
O415 O 0.58877 0.05961 0.15644 0.0
C416 C 0.60628 0.00633 0.06346 0.0
O417 O 0.62438 0.02078 0.09558 0.0
O418 O 0.58092 0.00093 0.09764 0.0
C419 C 0.61634 0.01913 0.29969 0.0
Tb420 Tb 0.18304 0.32472 0.39996 0.0
C421 C 0.11739 0.32576 0.31686 0.0
Tb422 Tb 0.17085 0.28587 0.29298 0.0
O423 O 0.20727 0.34964 0.32742 0.0
O424 O 0.1766 0.32308 0.29805 0.0
O425 O 0.13257 0.33238 0.37187 0.0
C426 C 0.17249 0.25994 0.18286 0.0
O427 O 0.12859 0.30865 0.2795 0.0
C428 C 0.16481 0.2713 0.42091 0.0
C429 C 0.24079 0.30128 0.3307 0.0
O430 O 0.14852 0.27254 0.20247 0.0
O431 O 0.19524 0.26158 0.2262 0.0
O432 O 0.15024 0.26145 0.37224 0.0
O433 O 0.18324 0.28683 0.39497 0.0
O434 O 0.22169 0.29282 0.28476 0.0
O435 O 0.22998 0.31016 0.38609 0.0
C436 C 0.19241 0.33632 0.5268 0.0
O437 O 0.20321 0.34825 0.47421 0.0
O438 O 0.17429 0.31919 0.50694 0.0
C439 C 0.19613 0.3387 0.2764 0.0
Tb440 Tb 0.88182 0.96404 0.68153 0.0
C441 C 0.8675 0.9181 0.60515 0.0
Tb442 Tb 0.92725 0.95008 0.56417 0.0
O443 O 0.84348 0.97539 0.61307 0.0
O444 O 0.89114 0.97559 0.58258 0.0
O445 O 0.86474 0.92791 0.66383 0.0
C446 C 0.95455 0.93979 0.4474 0.0
O447 O 0.88803 0.92539 0.55837 0.0
C448 C 0.94694 0.93545 0.6851 0.0
C449 C 0.93941 -0.00383 0.63283 0.0
O450 O 0.92403 0.94097 0.45916 0.0
O451 O 0.96961 0.94482 0.5012 0.0
O452 O 0.96498 0.93737 0.63295 0.0
O453 O 0.91844 0.93853 0.66546 0.0
O454 O 0.93793 0.98752 0.57315 0.0
O455 O 0.91394 -0.00529 0.67153 0.0
C456 C 0.87252 0.97778 0.80564 0.0
O457 O 0.8995 0.97308 0.77807 0.0
O458 O 0.84962 0.97406 0.76336 0.0
C459 C 0.86278 0.97756 0.5623 0.0
Tb460 Tb 0.25796 0.65978 0.91691 0.0
C461 C 0.32605 0.65348 0.84806 0.0
Tb462 Tb 0.28298 0.69726 0.79463 0.0
O463 O 0.23471 0.6354 0.84772 0.0
O464 O 0.26532 0.66244 0.81547 0.0
O465 O 0.30758 0.64797 0.90131 0.0
C466 C 0.29619 0.71848 0.67389 0.0
O467 O 0.31971 0.67026 0.80069 0.0
C468 C 0.29465 0.71256 0.91709 0.0
C469 C 0.21367 0.69588 0.84274 0.0
O470 O 0.31405 0.70275 0.70615 0.0
O471 O 0.27103 0.72213 0.70978 0.0
O472 O 0.30214 0.72405 0.86149 0.0
O473 O 0.28052 0.69391 0.90015 0.0
O474 O 0.23098 0.69493 0.78825 0.0
O475 O 0.21328 0.6768 0.88403 0.0
C476 C 0.23659 0.65142 0.04207 0.0
O477 O 0.2321 0.67049 1.00424 0.0
O478 O 0.25433 0.63661 1.00991 0.0
C479 C 0.24698 0.64669 0.79501 0.0
Tb480 Tb 0.43243 0.0366 0.79276 0.0
C481 C 0.39253 0.06949 0.68973 0.0
Tb482 Tb 0.39078 0.01273 0.68227 0.0
O483 O 0.46491 0.05449 0.72001 0.0
O484 O 0.43847 0.025 0.69544 0.0
O485 O 0.40671 0.06835 0.74967 0.0
C486 C 0.38002 -0.00479 0.56533 0.0
O487 O 0.38513 0.05038 0.6566 0.0
C488 C 0.36768 0.00703 0.80232 0.0
C489 C 0.4394 0.98252 0.76176 0.0
O490 O 0.35884 0.00722 0.59745 0.0
O491 O 0.40616 0.99326 0.59939 0.0
O492 O 0.35741 -0.00448 0.75206 0.0
O493 O 0.38497 0.02421 0.7795 0.0
O494 O 0.41431 0.9808 0.72295 0.0
O495 O 0.43784 -0.0023 0.8099 0.0
C496 C 0.46093 0.04426 0.91013 0.0
O497 O 0.47471 0.03684 0.85743 0.0
O498 O 0.43086 0.04828 0.89607 0.0
C499 C 0.45591 0.04176 0.67113 0.0
Tb500 Tb 0.65312 0.70368 0.29984 0.0
C501 C 0.68314 0.73878 0.39157 0.0
Tb502 Tb 0.69973 0.68547 0.41829 0.0
O503 O 0.61287 0.70818 0.36902 0.0
O504 O 0.64972 0.68555 0.39572 0.0
O505 O 0.67257 0.737 0.33048 0.0
C506 C 0.72666 0.68051 0.54167 0.0
O507 O 0.67905 0.72052 0.43429 0.0
C508 C 0.72868 0.69413 0.30138 0.0
C509 C 0.67789 0.65002 0.31244 0.0
O510 O 0.72315 0.69998 0.50508 0.0
O511 O 0.71472 0.66319 0.50859 0.0
O512 O 0.74231 0.68333 0.35263 0.0
O513 O 0.70278 0.70232 0.32248 0.0
O514 O 0.68606 0.65183 0.37608 0.0
O515 O 0.66813 0.66839 0.27325 0.0
C516 C 0.63447 0.71969 0.17782 0.0
O517 O 0.63236 0.69766 0.20155 0.0
O518 O 0.64585 0.73257 0.22376 0.0
C519 C 0.62548 0.69577 0.41904 0.0
Tb520 Tb 0.03182 0.9459 0.06486 0.0
C521 C 0.02794 0.99334 0.13068 0.0
Tb522 Tb 0.07994 0.95692 0.18129 0.0
O523 O -0.00693 0.93594 0.13403 0.0
O524 O 0.03976 0.93421 0.16669 0.0
O525 O 0.02779 0.98423 0.07155 0.0
C526 C 0.09192 0.96995 0.30559 0.0
O527 O 0.05395 0.99065 0.16744 0.0
C528 C 0.10031 0.96782 0.06132 0.0
C529 C 0.0876 0.90996 0.1038 0.0
O530 O 0.06426 0.9667 0.27888 0.0
O531 O 0.11385 0.96506 0.26233 0.0
O532 O 0.11934 0.96482 0.11244 0.0
O533 O 0.07188 0.96821 0.08182 0.0
O534 O 0.09433 0.92044 0.16026 0.0
O535 O 0.06601 0.91755 0.05969 0.0
C536 C 0.00345 0.93802 0.94758 0.0
O537 O 0.03389 0.93644 0.96023 0.0
O538 O 0.98905 0.94436 1.0009 0.0
C539 C 0.011 0.93304 0.18627 0.0
Tb540 Tb 0.80903 0.28259 0.8063 0.0
C541 C 0.74315 0.29023 0.8665 0.0
Tb542 Tb 0.79935 0.31996 0.92303 0.0
O543 O 0.81165 0.25227 0.87907 0.0
O544 O 0.82201 0.28614 0.90866 0.0
O545 O 0.75809 0.28924 0.80896 0.0
C546 C 0.7828 0.32446 0.05013 0.0
O547 O 0.75114 0.30673 0.90792 0.0
C548 C 0.78159 0.33707 0.80539 0.0
C549 C 0.86184 0.32194 0.83212 0.0
O550 O 0.79687 0.34125 1.01288 0.0
O551 O 0.77965 0.30564 1.01606 0.0
O552 O 0.77864 0.34931 0.85856 0.0
O553 O 0.79297 0.31705 0.82332 0.0
O554 O 0.84787 0.32899 0.88804 0.0
O555 O 0.85265 0.30321 0.79873 0.0
C556 C 0.81521 0.26003 0.69189 0.0
O557 O 0.82412 0.28183 0.70157 0.0
O558 O 0.80285 0.25104 0.74667 0.0
C559 C 0.81715 0.26476 0.93012 0.0
Tb560 Tb 0.44367 0.93466 0.06583 0.0
C561 C 0.41186 0.89771 0.16975 0.0
Tb562 Tb 0.39789 0.9534 0.17784 0.0
O563 O 0.47948 0.92041 0.13756 0.0
O564 O 0.44745 0.9464 0.16371 0.0
O565 O 0.42462 0.90045 0.10876 0.0
C566 C 0.38308 0.9692 0.29497 0.0
O567 O 0.40094 0.91563 0.20383 0.0
C568 C 0.37342 0.95611 0.0584 0.0
C569 C 0.43952 0.98872 0.09705 0.0
O570 O 0.36504 0.95465 0.26299 0.0
O571 O 0.40843 0.97454 0.26069 0.0
O572 O 0.36097 0.96623 0.10896 0.0
O573 O 0.39426 0.9413 0.08077 0.0
O574 O 0.41426 0.98768 0.1359 0.0
O575 O 0.44066 0.9737 0.04853 0.0
C576 C 0.47301 0.92961 0.9481 0.0
O577 O 0.48543 0.93859 1.00023 0.0
O578 O 0.44395 0.92267 0.96284 0.0
C579 C 0.46812 0.93169 0.18716 0.0
Tb580 Tb 0.85828 0.71659 1.02736 0.0
C581 C 0.83276 0.74761 0.90894 0.0
Tb582 Tb 0.81393 0.69198 0.92337 0.0
O583 O 0.89651 0.72437 0.9542 0.0
O584 O 0.86358 0.69807 0.93804 0.0
O585 O 0.84285 0.74806 0.97092 0.0
C586 C 0.78279 0.68284 0.80853 0.0
O587 O 0.82356 0.7277 0.88147 0.0
C588 C 0.78659 0.69945 0.03875 0.0
C589 C 0.84583 0.6605 0.03991 0.0
O590 O 0.77737 0.70023 0.84704 0.0
O591 O 0.80562 0.6698 0.83592 0.0
O592 O 0.77603 0.68443 0.997 0.0
O593 O 0.80846 0.71177 1.01 0.0
O594 O 0.83339 0.66041 0.97869 0.0
O595 O 0.8542 0.68026 0.06892 0.0
C596 C 0.87486 0.73792 0.13881 0.0
O597 O 0.89029 0.72033 0.11351 0.0
O598 O 0.85043 0.74327 0.10131 0.0
C599 C 0.88535 0.71065 0.90921 0.0
Tb600 Tb 0.04554 0.03514 0.81442 0.0
C601 C 0.05595 0.98372 0.77419 0.0
Tb602 Tb 0.09251 0.02291 0.69194 0.0
O603 O 0.01064 0.0525 0.74454 0.0
O604 O 0.0432 0.02865 0.71141 0.0
O605 O 0.05554 -0.00309 0.82658 0.0
C606 C 0.09867 0.00867 0.56739 0.0
O607 O 0.07983 0.98701 0.73173 0.0
C608 C 0.11757 0.01705 0.81089 0.0
C609 C 0.08822 0.0758 0.74556 0.0
O610 O 0.07399 0.00622 0.60562 0.0
O611 O 0.12093 0.02001 0.59905 0.0
O612 O 0.13013 0.00809 0.75815 0.0
O613 O 0.09466 0.03043 0.79197 0.0
O614 O 0.09739 0.06212 0.69613 0.0
O615 O 0.07063 0.06839 0.79754 0.0
C616 C 0.01623 0.0405 0.9324 0.0
O617 O 0.04515 0.04721 0.91692 0.0
O618 O 0.0038 0.03072 0.88124 0.0
C619 C 0.0229 0.04405 0.69143 0.0
Tb620 Tb 0.68687 0.2837 0.57237 0.0
C621 C 0.75429 0.2852 0.51609 0.0
Tb622 Tb 0.70723 0.31931 0.44059 0.0
O623 O 0.66591 0.25593 0.50986 0.0
O624 O 0.68573 0.28595 0.46745 0.0
O625 O 0.73882 0.28599 0.57309 0.0
C626 C 0.72625 0.32445 0.31357 0.0
O627 O 0.75311 0.30427 0.4746 0.0
C628 C 0.71975 0.33664 0.55607 0.0
C629 C 0.63983 0.32387 0.51383 0.0
O630 O 0.72521 0.30475 0.35015 0.0
O631 O 0.71532 0.34181 0.34812 0.0
O632 O 0.7278 0.34762 0.49958 0.0
O633 O 0.70523 0.31781 0.54295 0.0
O634 O 0.65676 0.32831 0.45769 0.0
O635 O 0.64763 0.30832 0.56335 0.0
C636 C 0.67362 0.26358 0.6935 0.0
O637 O 0.66908 0.28592 0.67459 0.0
O638 O 0.68636 0.25272 0.64456 0.0
C639 C 0.67157 0.26715 0.45304 0.0
C640 C 0.12017 0.4907 0.39203 0.0
C641 C 0.09149 0.48832 0.35671 0.0
H642 H 0.14133 0.49927 0.48549 0.0
C643 C 0.06224 0.49207 0.38807 0.0
H644 H 0.14296 0.48787 0.36832 0.0
C645 C 0.0613 0.49757 0.45377 0.0
C646 C 0.08961 0.50042 0.48941 0.0
H647 H 0.03972 0.49034 0.36218 0.0
H648 H 0.03811 0.49981 0.47645 0.0
C649 C 0.11924 0.49721 0.45837 0.0
C650 C 0.77015 0.80315 0.70052 0.0
C651 C 0.73714 0.79871 0.70721 0.0
H652 H 0.8113 0.80375 0.63693 0.0
C653 C 0.71995 0.79299 0.65029 0.0
H654 H 0.78399 0.80825 0.74286 0.0
C655 C 0.73531 0.79197 0.58845 0.0
C656 C 0.76859 0.79513 0.58246 0.0
H657 H 0.69441 0.78993 0.65316 0.0
H658 H 0.72105 0.78883 0.54506 0.0
C659 C 0.78586 0.80058 0.63956 0.0
C660 C 0.37008 0.53887 0.86524 0.0
C661 C 0.38151 0.52557 0.81343 0.0
H662 H 0.3549 0.53791 0.96681 0.0
C663 C 0.38218 0.50058 0.8206 0.0
H664 H 0.36913 0.55819 0.85993 0.0
C665 C 0.37326 0.489 0.8806 0.0
C666 C 0.36439 0.5023 0.93448 0.0
H667 H 0.39038 0.49007 0.78035 0.0
H668 H 0.37462 0.46971 0.88602 0.0
C669 C 0.36156 0.52726 0.92574 0.0
C670 C 0.75959 0.15088 0.2109 0.0
C671 C 0.74276 0.14348 0.26809 0.0
H672 H 0.7574 0.15792 0.10592 0.0
C673 C 0.71196 0.13375 0.26278 0.0
H674 H 0.78363 0.1578 0.21423 0.0
C675 C 0.6969 0.13375 0.20094 0.0
C676 C 0.71291 0.14309 0.14453 0.0
H677 H 0.69866 0.12795 0.30677 0.0
H678 H 0.67215 0.12821 0.19794 0.0
C679 C 0.74476 0.15065 0.1493 0.0
C680 C 0.88578 0.49327 0.952 0.0
C681 C 0.85734 0.49307 0.9884 0.0
H682 H 0.90819 0.4884 0.85986 0.0
C683 C 0.82849 0.4868 0.95819 0.0
H684 H 0.90842 0.49784 0.97411 0.0
C685 C 0.82854 0.48033 0.89182 0.0
C686 C 0.85725 0.48103 0.85575 0.0
H687 H 0.80635 0.48646 0.98597 0.0
H688 H 0.80642 0.47513 0.8687 0.0
C689 C 0.88564 0.48778 0.88631 0.0
C690 C 0.23046 0.17127 0.68464 0.0
C691 C 0.2451 0.1562 0.73362 0.0
H692 H 0.23406 0.1887 0.58754 0.0
C693 C 0.27439 0.14545 0.71922 0.0
H694 H 0.20754 0.17925 0.69385 0.0
C695 C 0.28894 0.15011 0.65736 0.0
C696 C 0.27507 0.16629 0.61022 0.0
H697 H 0.28615 0.13365 0.75581 0.0
H698 H 0.31121 0.14131 0.64664 0.0
C699 C 0.24565 0.17676 0.62409 0.0
C700 C 0.64728 0.5001 0.36649 0.0
C701 C 0.6298 0.49132 0.31383 0.0
H702 H 0.65914 0.49537 0.46973 0.0
C703 C 0.61444 0.46913 0.32169 0.0
H704 H 0.65924 0.51724 0.36092 0.0
C705 C 0.615 0.45643 0.38297 0.0
C706 C 0.63006 0.46612 0.43738 0.0
H707 H 0.60116 0.46201 0.28103 0.0
H708 H 0.60256 0.43953 0.38872 0.0
C709 C 0.64739 0.48753 0.42825 0.0
C710 C 0.29322 0.83043 0.15608 0.0
C711 C 0.27657 0.8366 0.21283 0.0
H712 H 0.29044 0.82413 0.0525 0.0
C713 C 0.24359 0.8413 0.20869 0.0
H714 H 0.31858 0.82657 0.15846 0.0
C715 C 0.22727 0.83899 0.14879 0.0
C716 C 0.24407 0.83278 0.09229 0.0
H717 H 0.23022 0.8457 0.25235 0.0
H718 H 0.20175 0.84221 0.14642 0.0
C719 C 0.27715 0.82889 0.09595 0.0
C720 C 0.63876 -0.00141 0.96144 0.0
C721 C 0.60931 7e-05 0.99439 0.0
H722 H 0.66224 0.99016 0.87033 0.0
C723 C 0.58096 -0.00498 0.96107 0.0
H724 H 0.66087 0.00238 0.98675 0.0
C725 C 0.58166 0.98889 0.89587 0.0
C726 C 0.6108 0.98686 0.86263 0.0
H727 H 0.5579 -0.00399 0.98519 0.0
H728 H 0.5591 0.98543 0.87178 0.0
C729 C 0.63954 0.99157 0.89556 0.0
C730 C 0.21009 0.32416 0.09908 0.0
C731 C 0.2431 0.32778 0.09227 0.0
H732 H 0.1694 0.32494 0.16315 0.0
C733 C 0.26055 0.33664 0.145 0.0
H734 H 0.19616 0.31769 0.05842 0.0
C735 C 0.24493 0.34185 0.20407 0.0
C736 C 0.21193 0.33761 0.21133 0.0
H737 H 0.28594 0.34006 0.13993 0.0
H738 H 0.2588 0.34831 0.24478 0.0
C739 C 0.19474 0.32866 0.1584 0.0
C740 C 0.83752 0.99322 0.38707 0.0
C741 C 0.85119 0.01606 0.37736 0.0
H742 H 0.83057 0.96283 0.45509 0.0
C743 C 0.86415 0.02734 0.43146 0.0
H744 H 0.82739 0.98418 0.34581 0.0
C745 C 0.86645 0.01504 0.49309 0.0
C746 C 0.85496 0.99158 0.50153 0.0
H747 H 0.87369 0.04525 0.42523 0.0
H748 H 0.87832 0.02349 0.53349 0.0
C749 C 0.83941 0.98099 0.44914 0.0
C750 C 0.23284 0.66667 0.61702 0.0
C751 C 0.20483 0.65437 0.6025 0.0
H752 H 0.26943 0.67212 0.68817 0.0
C753 C 0.1923 0.63741 0.64919 0.0
H754 H 0.24319 0.67949 0.58109 0.0
C755 C 0.20671 0.6339 0.71168 0.0
C756 C 0.23424 0.64685 0.72692 0.0
H757 H 0.17072 0.62765 0.63834 0.0
H758 H 0.1958 0.62174 0.74854 0.0
C759 C 0.24782 0.66245 0.67809 0.0
C760 C 0.40768 0.98635 0.46314 0.0
C761 C 0.37853 0.98842 0.49635 0.0
H762 H 0.43146 0.9794 0.37362 0.0
C763 C 0.3498 0.9839 0.46312 0.0
H764 H 0.43023 0.98968 0.48743 0.0
C765 C 0.3506 0.977 0.3971 0.0
C766 C 0.38005 0.97547 0.36416 0.0
H767 H 0.32708 0.98536 0.48824 0.0
H768 H 0.32848 0.97332 0.37167 0.0
C769 C 0.40839 0.98039 0.39771 0.0
C770 C 0.79126 0.70066 0.1635 0.0
C771 C 0.77235 0.70214 0.10587 0.0
H772 H 0.79222 0.69623 0.27006 0.0
C773 C 0.73886 0.70248 0.11332 0.0
H774 H 0.81703 0.69998 0.15974 0.0
C775 C 0.72461 0.7011 0.17663 0.0
C776 C 0.74344 0.69831 0.23415 0.0
H777 H 0.72358 0.70333 0.06988 0.0
H778 H 0.69885 0.70104 0.18037 0.0
C779 C 0.77696 0.69831 0.22675 0.0
C780 C 0.12377 0.96923 0.94811 0.0
C781 C 0.11004 0.98105 1.00042 0.0
H782 H 0.13742 0.97178 0.84561 0.0
C783 C 0.10347 0.00556 0.99286 0.0
H784 H 0.12899 0.95029 0.9535 0.0
C785 C 0.10893 0.01791 0.93215 0.0
C786 C 0.12013 0.00574 0.87799 0.0
H787 H 0.09322 0.01498 1.03331 0.0
H788 H 0.10321 0.03672 0.92661 0.0
C789 C 0.12879 0.98154 0.88691 0.0
C790 C 0.71667 0.33708 0.67858 0.0
C791 C 0.73424 0.34101 0.62006 0.0
H792 H 0.7183 0.33396 0.78481 0.0
C793 C 0.76691 0.34654 0.62315 0.0
H794 H 0.69146 0.33277 0.67677 0.0
C795 C 0.78237 0.3465 0.68442 0.0
C796 C 0.76495 0.34187 0.74279 0.0
H797 H 0.78087 0.3493 0.57818 0.0
H798 H 0.80801 0.34917 0.68616 0.0
C799 C 0.7319 0.3379 0.73989 0.0
C800 C 0.08653 0.36406 0.31307 0.0
C801 C 0.09564 0.34338 0.28203 0.0
H802 H 0.07102 0.40022 0.30103 0.0
C803 C 0.09068 0.34257 0.21264 0.0
H804 H 0.08955 0.36536 0.36609 0.0
C805 C 0.0807 0.36293 0.17452 0.0
C806 C 0.07522 0.38437 0.20518 0.0
H807 H 0.09715 0.32687 0.1866 0.0
H808 H 0.07947 0.36231 0.12102 0.0
C809 C 0.07634 0.38422 0.27522 0.0
C810 C 0.85715 0.87526 0.62842 0.0
C811 C 0.85067 0.89625 0.59037 0.0
H812 H 0.86055 0.83727 0.62966 0.0
C813 C 0.83785 0.8949 0.52631 0.0
H814 H 0.86769 0.87598 0.67734 0.0
C815 C 0.83461 0.87291 0.49798 0.0
C816 C 0.84405 0.85192 0.53349 0.0
H817 H 0.83309 0.91105 0.49594 0.0
H818 H 0.82613 0.87255 0.44732 0.0
C819 C 0.85384 0.85319 0.60016 0.0
C820 C 0.3378 0.61532 0.8006 0.0
C821 C 0.3495 0.6363 0.82678 0.0
H822 H 0.34727 0.58615 0.73911 0.0
C823 C 0.38048 0.64414 0.81044 0.0
H824 H 0.31342 0.60956 0.81021 0.0
C825 C 0.3997 0.6309 0.76933 0.0
C826 C 0.38757 0.61034 0.74144 0.0
H827 H 0.38939 0.66085 0.82784 0.0
H828 H 0.42403 0.63664 0.75938 0.0
C829 C 0.35657 0.60256 0.75771 0.0
C830 C 0.5934 0.14312 0.15661 0.0
C831 C 0.59791 0.14369 0.08698 0.0
H832 H 0.58416 0.12134 0.24548 0.0
C833 C 0.58906 0.12369 0.05261 0.0
H834 H 0.59952 0.15835 0.18498 0.0
C835 C 0.58011 0.10266 0.08758 0.0
C836 C 0.58005 0.10114 0.1576 0.0
H837 H 0.59166 0.12355 0.99922 0.0
H838 H 0.57526 0.08708 0.05958 0.0
C839 C 0.58471 0.12191 0.19175 0.0
C840 C 0.06698 0.60279 0.57897 0.0
C841 C 0.06976 0.60194 0.6488 0.0
H842 H 0.07753 0.62167 0.48661 0.0
C843 C 0.08097 0.62212 0.67946 0.0
H844 H 0.05768 0.58763 0.55385 0.0
C845 C 0.09197 0.64192 0.64043 0.0
C846 C 0.09207 0.64173 0.57024 0.0
H847 H 0.08334 0.62196 0.73294 0.0
H848 H 0.10251 0.65662 0.66553 0.0
C849 C 0.07821 0.62234 0.54016 0.0
C850 C 0.61425 0.88162 0.76424 0.0
C851 C 0.60683 0.88297 0.69586 0.0
H852 H 0.62946 0.86008 0.84882 0.0
C853 C 0.6069 0.86184 0.66164 0.0
H854 H 0.61371 0.89735 0.79317 0.0
C855 C 0.61582 0.84012 0.69444 0.0
C856 C 0.62469 0.83911 0.76217 0.0
H857 H 0.60093 0.86216 0.60937 0.0
H858 H 0.61682 0.8243 0.66592 0.0
C859 C 0.62304 0.86008 0.7968 0.0
C860 C 0.38318 0.3861 0.08603 0.0
C861 C 0.3689 0.40766 0.06397 0.0
H862 H 0.38377 0.34803 0.07968 0.0
C863 C 0.34348 0.40745 1.01869 0.0
H864 H 0.4037 0.38605 0.11883 0.0
C865 C 0.33302 0.38605 0.99406 0.0
C866 C 0.34769 0.36442 1.0147 0.0
H867 H 0.33293 0.42407 0.99939 0.0
H868 H 0.31344 0.38647 0.95885 0.0
C869 C 0.37231 0.36453 0.06229 0.0
C870 C 0.8842 0.1399 0.31756 0.0
C871 C 0.85315 0.13658 0.3424 0.0
H872 H 0.92247 0.12449 0.26335 0.0
C873 C 0.83484 0.11723 0.32282 0.0
H874 H 0.89803 0.15544 0.32955 0.0
C875 C 0.84756 0.10104 0.2803 0.0
C876 C 0.87924 0.10338 0.25877 0.0
H877 H 0.81025 0.11503 0.3388 0.0
H878 H 0.83345 0.08555 0.26876 0.0
C879 C 0.89755 0.12295 0.27741 0.0
C880 C 0.87248 0.61612 0.17836 0.0
C881 C 0.85866 0.59482 0.15892 0.0
H882 H 0.87968 0.6534 0.15566 0.0
C883 C 0.83944 0.59554 0.10118 0.0
H884 H 0.88762 0.61624 0.22189 0.0
C885 C 0.83538 0.61669 0.06227 0.0
C886 C 0.85007 0.63781 0.0804 0.0
H887 H 0.82815 0.57952 0.08456 0.0
H888 H 0.82083 0.61644 1.01789 0.0
C889 C 0.86816 0.63738 0.13966 0.0
C890 C 0.08749 0.11858 0.77028 0.0
C891 C 0.10501 0.09807 0.75609 0.0
H892 H 0.08854 0.15308 0.81234 0.0
C893 C 0.13718 0.09636 0.77472 0.0
H894 H 0.06228 0.1198 0.7583 0.0
C895 C 0.15129 0.11437 0.80966 0.0
C896 C 0.13369 0.13463 0.82516 0.0
H897 H 0.15078 0.08033 0.76648 0.0
H898 H 0.17622 0.11262 0.82376 0.0
C899 C 0.10205 0.13711 0.80307 0.0
C900 C 0.59686 0.35271 0.48084 0.0
C901 C 0.6148 0.34076 0.5304 0.0
H902 H 0.56727 0.38245 0.45517 0.0
C903 C 0.61258 0.34776 0.59641 0.0
H904 H 0.59792 0.34742 0.42999 0.0
C905 C 0.59595 0.36832 0.61097 0.0
C906 C 0.58073 0.38178 0.55997 0.0
H907 H 0.62621 0.33874 0.63594 0.0
H908 H 0.59715 0.37461 0.66077 0.0
C909 C 0.57931 0.37278 0.49582 0.0
C910 C 0.40366 0.85323 0.31512 0.0
C911 C 0.39437 0.83258 0.28403 0.0
H912 H 0.41706 0.88986 0.30274 0.0
C913 C 0.39847 0.832 0.21435 0.0
H914 H 0.40142 0.8543 0.36837 0.0
C915 C 0.40658 0.85275 0.17606 0.0
C916 C 0.41127 0.87421 0.20703 0.0
H917 H 0.39204 0.8163 0.18825 0.0
H918 H 0.40651 0.85242 0.12244 0.0
C919 C 0.41211 0.87376 0.27706 0.0
C920 C 0.89658 0.38111 0.77896 0.0
C921 C 0.89438 0.38011 0.7093 0.0
H922 H 0.88895 0.36307 0.87361 0.0
C923 C 0.8907 0.35791 0.68194 0.0
H924 H 0.90087 0.3979 0.80171 0.0
C925 C 0.88484 0.33762 0.72379 0.0
C926 C 0.88197 0.33945 0.7934 0.0
H927 H 0.88965 0.35653 0.62864 0.0
H928 H 0.87916 0.32114 0.70065 0.0
C929 C 0.89026 0.36104 0.82058 0.0
C930 C 0.37628 0.11361 0.5444 0.0
C931 C 0.37433 0.13552 0.57431 0.0
H932 H 0.38356 0.07616 0.55668 0.0
C933 C 0.38044 0.13595 0.64328 0.0
H934 H 0.37193 0.11244 0.49175 0.0
C935 C 0.38687 0.11478 0.68162 0.0
C936 C 0.38717 0.09273 0.65182 0.0
H937 H 0.37911 0.15255 0.6683 0.0
H938 H 0.3907 0.11561 0.73453 0.0
C939 C 0.38261 0.09263 0.58239 0.0
C940 C 0.66243 0.6035 0.18819 0.0
C941 C 0.65788 0.58332 0.23079 0.0
H942 H 0.67291 0.64081 0.18113 0.0
C943 C 0.66722 0.58397 0.29772 0.0
H944 H 0.65528 0.60341 0.13658 0.0
C945 C 0.6767 0.60541 0.32385 0.0
C946 C 0.67695 0.62643 0.28319 0.0
H947 H 0.66404 0.56842 0.33136 0.0
H948 H 0.68097 0.60584 0.37673 0.0
C949 C 0.67197 0.62497 0.21427 0.0
C950 C 0.10311 0.84947 0.04524 0.0
C951 C 0.13044 0.85376 1.00593 0.0
H952 H 0.06877 0.8641 0.11055 0.0
C953 C 0.14516 0.87627 1.00507 0.0
H954 H 0.09176 0.83206 0.04775 0.0
C955 C 0.13288 0.89411 0.04348 0.0
C956 C 0.10581 0.88965 0.08311 0.0
H957 H 0.16684 0.87978 0.9769 0.0
H958 H 0.14381 0.91168 0.04042 0.0
C959 C 0.0907 0.86738 0.08297 0.0
C960 C 0.97673 0.49953 0.23443 0.0
C961 C 0.95054 0.48637 0.21296 0.0
H962 H 0.02114 0.516 0.20897 0.0
C963 C 0.95024 0.47883 0.14746 0.0
H964 H 0.97785 0.50559 0.28433 0.0
C965 C 0.97469 0.48528 0.10367 0.0
C966 C 0.00138 0.49767 0.12582 0.0
H967 H 0.93063 0.4684 0.12926 0.0
H968 H 0.97348 0.47934 0.05367 0.0
C969 C 0.00133 0.50578 0.19073 0.0
C970 C 0.76675 0.7418 0.35227 0.0
C971 C 0.77935 0.74013 0.41657 0.0
H972 H 0.72587 0.74763 0.29206 0.0
C973 C 0.75945 0.74385 0.47103 0.0
H974 H 0.78197 0.74006 0.30933 0.0
C975 C 0.72754 0.74945 0.46095 0.0
C976 C 0.71461 0.74926 0.39699 0.0
H977 H 0.76855 0.7431 0.52138 0.0
H978 H 0.71209 0.75037 0.50385 0.0
C979 C 0.73498 0.74755 0.34232 0.0
C980 C 0.5492 0.51538 0.63678 0.0
C981 C 0.54814 0.51042 0.56935 0.0
H982 H 0.5235 0.5158 0.72775 0.0
C983 C 0.51846 0.50764 0.53841 0.0
H984 H 0.57161 0.51916 0.66094 0.0
C985 C 0.49099 0.50574 0.57629 0.0
C986 C 0.49246 0.50808 0.64518 0.0
H987 H 0.51669 0.50521 0.48573 0.0
H988 H 0.46876 0.50197 0.55147 0.0
C989 C 0.52175 0.51324 0.67504 0.0
C990 C 0.74294 0.22471 0.90516 0.0
C991 C 0.73845 0.22398 0.97425 0.0
H992 H 0.74498 0.24624 0.81538 0.0
C993 C 0.73222 0.24508 1.00606 0.0
H994 H 0.74795 0.2087 0.87924 0.0
C995 C 0.72988 0.26647 0.96926 0.0
C996 C 0.73563 0.26736 0.90053 0.0
H997 H 0.72836 0.24507 0.05914 0.0
H998 H 0.72495 0.28247 0.99532 0.0
C999 C 0.74084 0.24616 0.86837 0.0
C1000 C 0.94422 0.50525 0.69007 0.0
C1001 C 0.94568 0.49733 0.62502 0.0
H1002 H 0.96677 0.5062 0.7846 0.0
C1003 C 0.97387 0.48671 0.6036 0.0
H1004 H 0.92322 0.51424 0.70763 0.0
C1005 C -0.00165 0.48142 0.64837 0.0
C1006 C -0.00336 0.48876 0.71398 0.0
H1007 H 0.97619 0.48098 0.55356 0.0
H1008 H 0.01899 0.47197 0.63094 0.0
C1009 C 0.96897 0.50032 0.73466 0.0
C1010 C 0.81228 0.76666 0.80891 0.0
C1011 C 0.82248 0.76997 0.87425 0.0
H1012 H 0.77328 0.75251 0.75356 0.0
C1013 C 0.80048 0.78085 0.91455 0.0
H1014 H 0.8295 0.76333 0.77066 0.0
C1015 C 0.7691 0.77296 0.90983 0.0
C1016 C 0.75926 0.76048 0.85399 0.0
H1017 H 0.80812 0.78828 0.9605 0.0
H1018 H 0.75322 0.77595 0.95065 0.0
C1019 C 0.78058 0.75935 0.80034 0.0
C1020 C 0.48838 0.50921 1.03692 0.0
C1021 C 0.46234 0.5192 0.06914 0.0
H1022 H 0.53361 0.49241 0.04709 0.0
C1023 C 0.46486 0.52374 0.13675 0.0
H1024 H 0.48794 0.50673 0.98414 0.0
C1025 C 0.49088 0.51522 0.17347 0.0
C1026 C 0.51577 0.50345 0.14212 0.0
H1027 H 0.44592 0.53275 0.16206 0.0
H1028 H 0.49169 0.51829 0.226 0.0
C1029 C 0.51444 0.50082 0.07329 0.0
C1030 C 0.7465 0.24326 0.3792 0.0
C1031 C 0.73222 0.22348 0.41256 0.0
H1032 H 0.76898 0.27694 0.38782 0.0
C1033 C 0.72658 0.22381 0.48106 0.0
H1034 H 0.75037 0.24384 0.32623 0.0
C1035 C 0.73686 0.24289 0.51627 0.0
C1036 C 0.75069 0.26282 0.48271 0.0
H1037 H 0.71412 0.20935 0.50762 0.0
H1038 H 0.73266 0.24242 0.56917 0.0
C1039 C 0.75682 0.26233 0.41444 0.0
C1040 C 0.27007 0.25389 0.84954 0.0
C1041 C 0.27429 0.25219 0.91904 0.0
H1042 H 0.27829 0.23784 0.75816 0.0
C1043 C 0.29494 0.23443 0.94651 0.0
H1044 H 0.25425 0.26675 0.82548 0.0
C1045 C 0.30678 0.21703 0.90574 0.0
C1046 C 0.29231 0.21548 0.84325 0.0
H1047 H 0.30032 0.23309 0.99894 0.0
H1048 H 0.31888 0.20167 0.92885 0.0
C1049 C 0.28421 0.23714 0.81057 0.0
C1050 C 0.21113 0.74215 0.32482 0.0
C1051 C 0.2068 0.74026 0.3939 0.0
H1052 H 0.21877 0.76558 0.24021 0.0
C1053 C 0.19924 0.76082 0.42766 0.0
H1054 H 0.21429 0.72648 0.29626 0.0
C1055 C 0.20097 0.78309 0.39425 0.0
C1056 C 0.21462 0.7845 0.33076 0.0
H1057 H 0.1928 0.75981 0.47968 0.0
H1058 H 0.19907 0.79886 0.42288 0.0
C1059 C 0.21219 0.76451 0.29225 0.0
C1060 C 0.29607 0.27458 0.42299 0.0
C1061 C 0.28982 0.25322 0.39176 0.0
H1062 H 0.29098 0.31242 0.41504 0.0
C1063 C 0.28482 0.25403 0.32268 0.0
H1064 H 0.30327 0.2746 0.47457 0.0
C1065 C 0.28077 0.27597 0.28869 0.0
C1066 C 0.27479 0.29551 0.32707 0.0
H1067 H 0.28264 0.23794 0.29557 0.0
H1068 H 0.27327 0.27615 0.23722 0.0
C1069 C 0.29078 0.29623 0.38795 0.0
C1070 C 0.21014 0.71874 0.94458 0.0
C1071 C 0.21678 0.71821 0.8765 0.0
H1072 H 0.2181 0.73644 1.03374 0.0
C1073 C 0.23203 0.73771 0.84402 0.0
H1074 H 0.19677 0.70458 0.97034 0.0
C1075 C 0.24454 0.75569 0.88027 0.0
C1076 C 0.23902 0.75591 0.9487 0.0
H1077 H 0.23601 0.7385 0.79119 0.0
H1078 H 0.25916 0.7691 0.85461 0.0
C1079 C 0.22208 0.73708 0.98081 0.0
C1080 C 0.49582 -0.00442 0.74496 0.0
C1081 C 0.46964 0.98228 0.72419 0.0
H1082 H 0.5397 0.01258 0.71806 0.0
C1083 C 0.46965 0.97388 0.65961 0.0
H1084 H 0.49684 0.00214 0.79433 0.0
C1085 C 0.494 0.98017 0.61535 0.0
C1086 C 0.52013 -0.00647 0.63604 0.0
H1087 H 0.45014 0.96315 0.64223 0.0
H1088 H 0.49296 0.97364 0.56595 0.0
C1089 C 0.52019 0.00185 0.70071 0.0
C1090 C 0.97011 0.98381 0.13754 0.0
C1091 C -0.00181 0.99123 0.16833 0.0
H1092 H 0.92184 0.97255 0.15053 0.0
C1093 C -0.00133 0.99351 0.2373 0.0
H1094 H 0.96914 0.9814 0.08468 0.0
C1095 C 0.97146 0.98878 0.27458 0.0
C1096 C 0.94281 0.983 0.24307 0.0
H1097 H 0.01996 -0.00087 0.2627 0.0
H1098 H 0.97241 0.99097 0.32747 0.0
C1099 C 0.94309 0.97861 0.17524 0.0
C1100 C 0.46766 -0.00105 0.20038 0.0
C1101 C 0.46935 0.99147 0.13491 0.0
H1102 H 0.4901 -0.00022 0.2949 0.0
C1103 C 0.49757 0.9809 0.11339 0.0
H1104 H 0.44658 0.00777 0.21822 0.0
C1105 C 0.5224 0.97609 0.15778 0.0
C1106 C 0.52069 0.98354 0.22327 0.0
H1107 H 0.4999 0.97518 0.0633 0.0
H1108 H 0.54348 0.96727 0.13997 0.0
C1109 C 0.49246 -0.00588 0.24478 0.0
C1110 C -0.00361 0.98386 0.63703 0.0
C1111 C 0.96961 0.99308 0.66867 0.0
H1112 H 0.04356 0.97003 0.64833 0.0
C1113 C 0.97028 -0.00438 0.73755 0.0
H1114 H -0.00365 0.9811 0.58431 0.0
C1115 C -0.00271 0.98932 0.7739 0.0
C1116 C 0.02479 0.98166 0.74161 0.0
H1117 H 0.9499 0.00235 0.76377 0.0
H1118 H -0.00288 0.99154 0.8268 0.0
C1119 C 0.02332 0.97733 0.67375 0.0
C1120 C 0.00682 0.42682 0.82231 0.0
C1121 C 0.99023 0.43462 0.87763 0.0
H1122 H 0.00603 0.42173 0.71763 0.0
C1123 C 0.95878 0.44318 0.86822 0.0
H1124 H 0.03108 0.42027 0.82759 0.0
C1125 C 0.94446 0.44413 0.80504 0.0
C1126 C 0.96118 0.43668 0.74959 0.0
H1127 H 0.94522 0.44929 0.90977 0.0
H1128 H 0.92017 0.45028 0.79988 0.0
C1129 C -0.00759 0.4277 0.75926 0.0
C1130 C 0.89826 0.73629 0.25398 0.0
C1131 C 0.88167 0.74893 0.20283 0.0
H1132 H 0.91166 0.73454 0.3568 0.0
C1133 C 0.86944 0.77167 0.21506 0.0
H1134 H 0.90802 0.71877 0.24605 0.0
C1135 C 0.87249 0.78107 0.27793 0.0
C1136 C 0.88652 0.76756 0.33074 0.0
H1137 H 0.85695 0.78204 0.17631 0.0
H1138 H 0.86288 0.79852 0.28605 0.0
C1139 C 0.90044 0.74541 0.3174 0.0
C1140 C 0.54651 0.56198 0.48671 0.0
C1141 C 0.52736 0.56071 0.42993 0.0
H1142 H 0.54841 0.56539 0.5917 0.0
C1143 C 0.49439 0.56542 0.43612 0.0
H1144 H 0.57207 0.55918 0.48376 0.0
C1145 C 0.48072 0.56946 0.49863 0.0
C1146 C 0.49944 0.56776 0.5566 0.0
H1147 H 0.47906 0.56563 0.39282 0.0
H1148 H 0.45556 0.57356 0.50152 0.0
C1149 C 0.53279 0.56556 0.54887 0.0
C1150 C 0.66103 0.25597 0.87969 0.0
C1151 C 0.65626 0.23115 0.89005 0.0
H1152 H 0.67025 0.28552 0.81025 0.0
C1153 C 0.65299 0.21757 0.83384 0.0
H1154 H 0.66241 0.26732 0.92143 0.0
C1155 C 0.6589 0.22794 0.76976 0.0
C1156 C 0.66596 0.25248 0.76036 0.0
H1157 H 0.64652 0.19889 0.83934 0.0
H1158 H 0.65778 0.2168 0.72755 0.0
C1159 C 0.66558 0.26651 0.81582 0.0
C1160 C 0.98213 0.55562 0.08875 0.0
C1161 C 0.95027 0.54764 0.09582 0.0
H1162 H 0.02221 0.5622 1.02329 0.0
C1163 C 0.93382 0.54167 0.03834 0.0
H1164 H -0.00447 0.56058 0.13187 0.0
C1165 C 0.94905 0.54272 0.97602 0.0
C1166 C 0.9812 0.54997 0.96919 0.0
H1167 H 0.90891 0.53675 0.04119 0.0
H1168 H 0.93558 0.53778 0.93297 0.0
C1169 C -0.00252 0.55657 1.02645 0.0
C1170 C 0.63178 0.75241 0.08797 0.0
C1171 C 0.6324 0.72786 0.10681 0.0
H1172 H 0.6331 0.77922 1.0076 0.0
C1173 C 0.63472 0.71135 0.05717 0.0
H1174 H 0.62993 0.76556 0.12524 0.0
C1175 C 0.63787 0.71922 0.99043 0.0
C1176 C 0.63845 0.74377 0.97165 0.0
H1177 H 0.63554 0.69235 0.07012 0.0
H1178 H 0.64066 0.706 0.9536 0.0
C1179 C 0.63418 0.76027 1.02086 0.0
C1180 C 0.46812 0.4583 0.30715 0.0
C1181 C 0.50096 0.45348 0.31349 0.0
H1182 H 0.42732 0.45978 0.24266 0.0
C1183 C 0.51793 0.44747 0.25653 0.0
H1184 H 0.45404 0.46201 0.35045 0.0
C1185 C 0.50284 0.44779 0.19408 0.0
C1186 C 0.47033 0.45387 0.18718 0.0
H1187 H 0.54316 0.44329 0.25984 0.0
H1188 H 0.51695 0.44414 0.15079 0.0
C1189 C 0.45289 0.45777 0.24507 0.0
C1190 C 0.81114 0.22319 0.62541 0.0
C1191 C 0.81719 0.24785 0.62808 0.0
H1192 H 0.80781 0.19305 0.56413 0.0
C1193 C 0.82454 0.26089 0.56875 0.0
H1194 H 0.80642 0.21244 0.67053 0.0
C1195 C 0.82373 0.24993 0.50781 0.0
C1196 C 0.81554 0.22564 0.50447 0.0
H1197 H 0.82975 0.27982 0.56904 0.0
H1198 H 0.82816 0.26084 0.46284 0.0
C1199 C 0.8111 0.21213 0.56435 0.0
C1200 C 0.95677 0.55557 0.58749 0.0
C1201 C 0.98899 0.54861 0.59552 0.0
H1202 H 0.91649 0.56007 0.52145 0.0
C1203 C 0.00587 0.54238 0.53887 0.0
H1204 H 0.94301 0.56068 0.62991 0.0
C1205 C 0.99071 0.54217 0.47651 0.0
C1206 C 0.9582 0.54834 0.4689 0.0
H1207 H 0.03097 0.53816 0.5424 0.0
H1208 H 0.0045 0.53706 0.43413 0.0
C1209 C 0.9415 0.55521 0.52525 0.0
C1210 C 0.1489 0.24846 0.07378 0.0
C1211 C 0.17434 0.2472 0.11944 0.0
H1212 H 0.13104 0.23907 0.97871 0.0
C1213 C 0.20187 0.23432 0.1027 0.0
H1214 H 0.12742 0.25827 0.08474 0.0
C1215 C 0.20392 0.22318 0.04174 0.0
C1216 C 0.17852 0.22469 0.9958 0.0
H1217 H 0.22202 0.23308 0.13642 0.0
H1218 H 0.22567 0.21383 1.03002 0.0
C1219 C 0.151 0.23743 1.01287 0.0
C1220 C 0.51008 0.45398 0.8078 0.0
C1221 C 0.47667 0.45558 0.81352 0.0
H1222 H 0.5499 0.44791 0.74423 0.0
C1223 C 0.45817 0.45333 0.75587 0.0
H1224 H 0.52506 0.45472 0.85146 0.0
C1225 C 0.47282 0.45098 0.69364 0.0
C1226 C 0.50636 0.45062 0.6874 0.0
H1227 H 0.43235 0.45418 0.75847 0.0
H1228 H 0.45784 0.45032 0.64998 0.0
C1229 C 0.52456 0.45087 0.74589 0.0
C1230 C 0.33529 0.73501 0.5058 0.0
C1231 C 0.31435 0.75261 0.47874 0.0
H1232 H 0.34627 0.71057 0.58879 0.0
C1233 C 0.28747 0.75862 0.51644 0.0
H1234 H 0.35607 0.72982 0.47803 0.0
C1235 C 0.28172 0.7475 0.5793 0.0
C1236 C 0.30275 0.73011 0.60679 0.0
H1237 H 0.27053 0.77183 0.49708 0.0
H1238 H 0.26071 0.75262 0.6065 0.0
C1239 C 0.32965 0.72399 0.56926 0.0
C1240 C 0.01218 0.44404 0.30546 0.0
C1241 C -0.00431 0.43645 0.24984 0.0
H1242 H 0.01115 0.44912 0.41016 0.0
C1243 C 0.96476 0.42691 0.25914 0.0
H1244 H 0.03643 0.45033 0.30066 0.0
C1245 C 0.9503 0.42574 0.32211 0.0
C1246 C 0.96659 0.43385 0.37751 0.0
H1247 H 0.9514 0.42076 0.21731 0.0
H1248 H 0.92622 0.41879 0.32722 0.0
C1249 C -0.00221 0.44289 0.36844 0.0
C1250 C 0.35978 0.26589 0.26219 0.0
C1251 C 0.34675 0.2527 0.2112 0.0
H1252 H 0.37533 0.26619 0.36356 0.0
C1253 C 0.34244 0.2279 0.22468 0.0
H1254 H 0.36365 0.28493 0.25412 0.0
C1255 C 0.34973 0.21692 0.28786 0.0
C1256 C 0.36098 0.23042 0.34011 0.0
H1257 H 0.33277 0.21699 0.18672 0.0
H1258 H 0.34552 0.19804 0.2964 0.0
C1259 C 0.36663 0.255 0.3253 0.0
C1260 C 0.50631 0.5672 0.05014 0.0
C1261 C 0.53914 0.56242 0.05892 0.0
H1262 H 0.46656 0.57046 0.9831 0.0
C1263 C 0.55802 0.56082 1.00169 0.0
H1264 H 0.49107 0.56964 0.0926 0.0
C1265 C 0.54368 0.56081 0.93825 0.0
C1266 C 0.51035 0.56355 0.93058 0.0
H1267 H 0.58368 0.55915 1.00591 0.0
H1268 H 0.55864 0.5584 0.89534 0.0
C1269 C 0.49213 0.56773 0.9871 0.0
C1270 C 0.16875 0.77506 0.78132 0.0
C1271 C 0.16068 0.76185 0.84023 0.0
H1272 H 0.17341 0.77529 0.67473 0.0
C1273 C 0.14867 0.73854 0.83438 0.0
H1274 H 0.1765 0.79338 0.78327 0.0
C1275 C 0.14661 0.72823 0.77252 0.0
C1276 C 0.15582 0.74101 0.71384 0.0
H1277 H 0.14176 0.72782 0.87828 0.0
H1278 H 0.13804 0.71003 0.77082 0.0
C1279 C 0.16653 0.76474 0.71893 0.0
C1280 C 0.46552 0.93666 0.31107 0.0
C1281 C 0.48298 0.93105 0.25465 0.0
H1282 H 0.46604 0.94129 0.4161 0.0
C1283 C 0.51531 0.9245 0.26302 0.0
H1284 H 0.44036 0.94054 0.30708 0.0
C1285 C 0.53011 0.92457 0.32566 0.0
C1286 C 0.5128 0.9308 0.38183 0.0
H1287 H 0.52948 0.9199 0.22065 0.0
H1288 H 0.5552 0.92002 0.32992 0.0
C1289 C 0.48022 0.93664 0.37379 0.0
C1290 C 0.36463 0.24001 0.764 0.0
C1291 C 0.34773 0.24964 0.70861 0.0
H1292 H 0.37519 0.24201 0.86775 0.0
C1293 C 0.33125 0.27136 0.71552 0.0
H1294 H 0.37772 0.22345 0.76072 0.0
C1295 C 0.33048 0.28245 0.77691 0.0
C1296 C 0.34512 0.27169 0.83377 0.0
H1297 H 0.31837 0.27956 0.6737 0.0
H1298 H 0.31759 0.299 0.78033 0.0
C1299 C 0.36321 0.25078 0.82557 0.0
C1300 C 0.95201 0.04416 0.066 0.0
C1301 C 0.97012 0.04585 0.12423 0.0
H1302 H 0.95209 0.04022 0.96045 0.0
C1303 C 0.0035 0.04823 0.1176 0.0
H1304 H 0.92636 0.04507 0.06802 0.0
C1305 C 0.01839 0.04701 0.05526 0.0
C1306 C 0.00031 0.04321 0.99792 0.0
H1307 H 0.0183 0.05013 0.16106 0.0
H1308 H 0.04419 0.04822 0.05237 0.0
C1309 C 0.96686 0.04217 1.00395 0.0
C1310 C 0.1355 0.76544 0.26458 0.0
C1311 C 0.14721 0.75162 0.21372 0.0
H1312 H 0.12055 0.76637 0.36612 0.0
C1313 C 0.14875 0.72665 0.22628 0.0
H1314 H 0.13375 0.78467 0.25689 0.0
C1315 C 0.14026 0.71602 0.28889 0.0
C1316 C 0.13095 0.72998 0.34147 0.0
H1317 H 0.15724 0.71534 0.18814 0.0
H1318 H 0.14243 0.69703 0.29689 0.0
C1319 C 0.12781 0.75484 0.32745 0.0
C1320 C 0.51708 0.05294 0.53286 0.0
C1321 C 0.50069 0.04542 0.47684 0.0
H1322 H 0.51571 0.05768 0.63784 0.0
C1323 C 0.469 0.0373 0.48498 0.0
H1324 H 0.5415 0.05924 0.52847 0.0
C1325 C 0.45427 0.03638 0.54764 0.0
C1326 C 0.47089 0.04326 0.60392 0.0
H1327 H 0.45551 0.03163 0.44275 0.0
H1328 H 0.42964 0.03084 0.55166 0.0
C1329 C 0.50227 0.05203 0.59552 0.0
C1330 C 0.14588 0.24355 0.51622 0.0
C1331 C 0.16817 0.26036 0.49018 0.0
H1332 H 0.13212 0.21979 0.59861 0.0
C1333 C 0.19455 0.26587 0.53016 0.0
H1334 H 0.12545 0.2387 0.48681 0.0
C1335 C 0.19846 0.25496 0.59421 0.0
C1336 C 0.17609 0.23823 0.62034 0.0
H1337 H 0.21253 0.27842 0.5116 0.0
H1338 H 0.21917 0.25955 0.62315 0.0
C1339 C 0.14972 0.2327 0.58042 0.0
C1340 C 0.95458 0.93416 0.87451 0.0
C1341 C 0.98806 0.93422 0.88222 0.0
H1342 H 0.91487 0.93206 0.80689 0.0
C1343 C 0.00703 0.93101 0.82611 0.0
H1344 H 0.93919 0.93563 0.91724 0.0
C1345 C -0.00689 0.92999 0.76312 0.0
C1346 C 0.95984 0.93221 0.75422 0.0
H1347 H 0.03282 0.93034 0.83032 0.0
H1348 H 0.00874 0.92853 0.72077 0.0
C1349 C 0.9406 0.93255 0.81122 0.0
C1350 C 0.29327 0.72145 0.10527 0.0
C1351 C 0.30848 0.74384 0.10852 0.0
H1352 H 0.27817 0.69335 0.04349 0.0
C1353 C 0.32037 0.75474 0.0493 0.0
H1354 H 0.28399 0.71243 0.14998 0.0
C1355 C 0.31647 0.74401 0.98849 0.0
C1356 C 0.30062 0.72192 0.98451 0.0
H1357 H 0.33218 0.77194 0.0496 0.0
H1358 H 0.3253 0.75344 0.94397 0.0
C1359 C 0.28972 0.71051 0.04408 0.0
C1360 C 0.45946 0.05137 1.033 0.0
C1361 C 0.47669 0.04532 0.97654 0.0
H1362 H 0.46016 0.05558 0.13826 0.0
C1363 C 0.50923 0.03929 0.98447 0.0
H1364 H 0.43439 0.05602 1.02891 0.0
C1365 C 0.52397 0.03897 0.04723 0.0
C1366 C 0.50659 0.04442 0.10391 0.0
H1367 H 0.52337 0.03474 0.94201 0.0
H1368 H 0.54911 0.03498 0.05105 0.0
C1369 C 0.47428 0.0511 0.09571 0.0
C1370 C 0.60807 0.72532 0.50226 0.0
C1371 C 0.62371 0.70382 0.48876 0.0
H1372 H 0.60271 0.75378 0.56909 0.0
C1373 C 0.64333 0.69312 0.53854 0.0
H1374 H 0.59284 0.73416 0.46516 0.0
C1375 C 0.64985 0.70481 0.59701 0.0
C1376 C 0.63606 0.72713 0.60829 0.0
H1377 H 0.65534 0.67647 0.53022 0.0
H1378 H 0.66632 0.69661 0.63279 0.0
C1379 C 0.61402 0.73675 0.56155 0.0
C1380 C 0.0169 0.92993 0.31268 0.0
C1381 C -0.00222 0.93032 0.25534 0.0
H1382 H 0.01843 0.93362 0.41846 0.0
C1383 C 0.96437 0.92959 0.26383 0.0
H1384 H 0.0425 0.92799 0.30895 0.0
C1385 C 0.95047 0.93174 0.32646 0.0
C1386 C 0.96959 0.93453 0.38264 0.0
H1387 H 0.9487 0.92863 0.22132 0.0
H1388 H 0.92466 0.93235 0.33022 0.0
C1389 C 0.003 0.93265 0.37557 0.0
C1390 C 0.81236 0.2293 1.01019 0.0
C1391 C 0.81789 0.25403 0.99979 0.0
H1392 H 0.80413 0.1997 0.08 0.0
C1393 C 0.823 0.26741 0.05588 0.0
H1394 H 0.80949 0.21811 0.96844 0.0
C1395 C 0.8187 0.25689 0.12039 0.0
C1396 C 0.81126 0.23243 0.13009 0.0
H1397 H 0.82989 0.28599 0.0501 0.0
H1398 H 0.82142 0.26785 0.16268 0.0
C1399 C 0.80929 0.21864 0.07429 0.0
C1400 C 0.53555 0.93856 0.8114 0.0
C1401 C 0.51901 0.93196 0.7547 0.0
H1402 H 0.53417 0.94296 0.91646 0.0
C1403 C 0.48752 0.92334 0.76268 0.0
H1404 H 0.56025 0.94395 0.80778 0.0
C1405 C 0.47258 0.92226 0.82531 0.0
C1406 C 0.48893 0.9295 0.88175 0.0
H1407 H 0.4741 0.91791 0.72009 0.0
H1408 H 0.44811 0.91607 0.82934 0.0
C1409 C 0.52069 0.9375 0.87398 0.0
C1410 C 0.86379 0.71669 0.72459 0.0
C1411 C 0.87754 0.73892 0.70472 0.0
H1412 H 0.85718 0.68957 0.80291 0.0
C1413 C 0.89737 0.74997 0.7503 0.0
H1414 H 0.84864 0.70748 0.69067 0.0
C1415 C 0.90163 0.73986 0.81518 0.0
C1416 C 0.88641 0.71827 0.83635 0.0
H1417 H 0.90846 0.767 0.73684 0.0
H1418 H 0.91562 0.74964 0.84984 0.0
C1419 C 0.86859 0.70636 0.78907 0.0
C1420 C 0.02553 0.0434 0.56601 0.0
C1421 C 0.00762 0.0458 0.62414 0.0
H1422 H 0.02503 0.03913 0.46062 0.0
C1423 C 0.97441 0.04924 0.61753 0.0
H1424 H 0.05125 0.04346 0.5681 0.0
C1425 C 0.95937 0.04834 0.55524 0.0
C1426 C 0.97711 0.04376 0.49807 0.0
H1427 H 0.95983 0.0517 0.66096 0.0
H1428 H 0.93366 0.05038 0.55226 0.0
C1429 C 0.01048 0.04168 0.50406 0.0
C1430 C 0.66859 0.26055 0.26546 0.0
C1431 C 0.66311 0.23585 0.26193 0.0
H1432 H 0.6724 0.29028 0.32805 0.0
C1433 C 0.65696 0.22233 0.32114 0.0
H1434 H 0.67245 0.27164 0.22058 0.0
C1435 C 0.6583 0.23293 0.38262 0.0
C1436 C 0.66597 0.25728 0.3866 0.0
H1437 H 0.65222 0.20335 0.32025 0.0
H1438 H 0.65476 0.22171 0.42739 0.0
C1439 C 0.66937 0.27119 0.32709 0.0
C1440 C 0.09589 0.51825 0.91957 0.0
C1441 C 0.09442 0.50564 0.86177 0.0
H1442 H 0.10032 0.51602 1.02533 0.0
C1443 C 0.09425 0.48042 0.86691 0.0
H1444 H 0.09614 0.5376 0.91685 0.0
C1445 C 0.09589 0.468 0.92878 0.0
C1446 C 0.09873 0.48058 0.98643 0.0
H1447 H 0.09298 0.47022 0.82285 0.0
H1448 H 0.09588 0.44865 0.93139 0.0
C1449 C 0.09856 0.50582 0.98135 0.0
C1450 C 0.71726 0.79618 0.14173 0.0
C1451 C 0.73042 0.80754 0.08399 0.0
H1452 H 0.72184 0.78728 0.24622 0.0
C1453 C 0.76035 0.81891 0.09088 0.0
H1454 H 0.69444 0.78714 0.13914 0.0
C1455 C 0.77667 0.8185 0.15291 0.0
C1456 C 0.76351 0.80687 0.21048 0.0
H1457 H 0.77162 0.82766 0.04783 0.0
H1458 H 0.79984 0.827 0.1555 0.0
C1459 C 0.73327 0.79606 0.20354 0.0
C1460 C 0.36417 0.51966 0.41707 0.0
C1461 C 0.39464 0.52579 0.44091 0.0
H1462 H 0.33712 0.50564 0.33625 0.0
C1463 C 0.42128 0.52224 0.4004 0.0
H1464 H 0.34319 0.52198 0.44743 0.0
C1465 C 0.41785 0.51313 0.33784 0.0
C1466 C 0.38766 0.50691 0.31338 0.0
H1467 H 0.44513 0.52644 0.41711 0.0
H1468 H 0.43922 0.51089 0.30854 0.0
C1469 C 0.36071 0.51017 0.35374 0.0
C1470 C 0.7314 0.13668 0.67878 0.0
C1471 C 0.7404 0.15821 0.64452 0.0
H1472 H 0.71031 0.12029 0.76782 0.0
C1473 C 0.73499 0.17981 0.67481 0.0
H1474 H 0.73507 0.11977 0.65638 0.0
C1475 C 0.72095 0.18011 0.73727 0.0
C1476 C 0.71157 0.15883 0.77179 0.0
H1477 H 0.74152 0.19674 0.65001 0.0
H1478 H 0.71754 0.19726 0.75862 0.0
C1479 C 0.717 0.137 0.74212 0.0
C1480 C 0.84805 0.49617 0.48144 0.0
C1481 C 0.85148 0.47108 0.48683 0.0
H1482 H 0.84575 0.52781 0.41648 0.0
C1483 C 0.85572 0.45861 0.42937 0.0
H1484 H 0.84508 0.50629 0.52529 0.0
C1485 C 0.85526 0.47093 0.36732 0.0
C1486 C 0.85157 0.49598 0.36194 0.0
H1487 H 0.85848 0.43937 0.43232 0.0
H1488 H 0.85776 0.4608 0.32335 0.0
C1489 C 0.84865 0.50858 0.4195 0.0
C1490 C 0.27816 0.14525 0.13162 0.0
C1491 C 0.24628 0.15226 0.11878 0.0
H1492 H 0.31672 0.14245 0.20261 0.0
C1493 C 0.22823 0.16057 0.17155 0.0
H1494 H 0.29291 0.139 0.09199 0.0
C1495 C 0.24178 0.16234 0.23487 0.0
C1496 C 0.27395 0.15612 0.24732 0.0
H1497 H 0.20376 0.16634 0.1635 0.0
H1498 H 0.22723 0.16934 0.27373 0.0
C1499 C 0.29188 0.14727 0.19501 0.0
C1500 C 0.58772 0.49204 0.83948 0.0
C1501 C 0.61247 0.47811 0.81472 0.0
H1502 H 0.56999 0.51194 0.91853 0.0
C1503 C 0.63987 0.474 0.85437 0.0
H1504 H 0.56619 0.49559 0.81077 0.0
C1505 C 0.64228 0.48394 0.91733 0.0
C1506 C 0.61721 0.49789 0.94143 0.0
H1507 H 0.65941 0.46343 0.83653 0.0
H1508 H 0.66345 0.48053 0.94722 0.0
C1509 C 0.58997 0.50162 0.90159 0.0
C1510 C 0.24828 0.84773 0.67551 0.0
C1511 C 0.25128 0.8274 0.71909 0.0
H1512 H 0.25997 0.86417 0.57945 0.0
C1513 C 0.27098 0.80862 0.69994 0.0
H1514 H 0.23335 0.86251 0.68881 0.0
C1515 C 0.28695 0.80989 0.63885 0.0
C1516 C 0.2831 0.8297 0.59392 0.0
H1517 H 0.27409 0.79275 0.73234 0.0
H1518 H 0.30155 0.79489 0.62592 0.0
C1519 C 0.26368 0.84872 0.61311 0.0
C1520 C 0.6196 0.96909 0.4329 0.0
C1521 C 0.61888 0.98172 0.49072 0.0
H1522 H 0.62013 0.9713 0.3268 0.0
C1523 C 0.61605 0.00684 0.48563 0.0
H1524 H 0.62171 0.9498 0.43562 0.0
C1525 C 0.61418 0.01915 0.42364 0.0
C1526 C 0.6162 0.0066 0.36581 0.0
H1527 H 0.61514 0.01702 0.52976 0.0
H1528 H 0.61209 0.03845 0.42092 0.0
C1529 C 0.61882 0.98146 0.37091 0.0
C1530 C 0.22764 0.35477 0.61379 0.0
C1531 C 0.20604 0.33692 0.59542 0.0
H1532 H 0.26027 0.36675 0.68833 0.0
C1533 C 0.20025 0.31762 0.64118 0.0
H1534 H 0.23284 0.36981 0.57961 0.0
C1535 C 0.21674 0.31544 0.70167 0.0
C1536 C 0.23879 0.33291 0.71979 0.0
H1537 H 0.18376 0.3036 0.62923 0.0
H1538 H 0.21227 0.29984 0.7344 0.0
C1539 C 0.24348 0.35298 0.67589 0.0
C1540 C 0.84268 0.00706 0.96192 0.0
C1541 C 0.87103 0.00703 0.99964 0.0
H1542 H 0.82038 -0.00268 0.87039 0.0
C1543 C 0.89876 -0.00281 0.97301 0.0
H1544 H 0.8209 0.01441 0.98137 0.0
C1545 C 0.8985 0.98768 0.91077 0.0
C1546 C 0.8704 0.98732 0.87287 0.0
H1547 H 0.92107 -0.00317 1.00037 0.0
H1548 H 0.92067 0.9806 0.89227 0.0
C1549 C 0.84233 -0.00288 0.89887 0.0
C1550 C 0.2239 0.63607 0.2273 0.0
C1551 C 0.194 0.6468 0.2383 0.0
H1552 H 0.26058 0.62827 0.15631 0.0
C1553 C 0.17758 0.65723 0.1834 0.0
H1554 H 0.23734 0.62813 0.26872 0.0
C1555 C 0.19135 0.65802 0.1199 0.0
C1556 C 0.22145 0.64771 0.10885 0.0
H1557 H 0.15481 0.66597 0.19007 0.0
H1558 H 0.17859 0.66718 0.07931 0.0
C1559 C 0.23725 0.63614 0.163 0.0
C1560 C 0.37154 -0.00588 0.98816 0.0
C1561 C 0.37401 0.96895 0.99251 0.0
H1562 H 0.36856 0.02608 0.92448 0.0
C1563 C 0.37593 0.95669 0.93415 0.0
H1564 H 0.37028 0.00409 1.03263 0.0
C1565 C 0.37398 0.96929 0.87252 0.0
C1566 C 0.37117 -0.00556 0.86816 0.0
H1567 H 0.37787 0.9374 0.93618 0.0
H1568 H 0.37469 0.95929 0.82806 0.0
C1569 C 0.37067 0.00679 0.92651 0.0
C1570 C 0.75093 0.70047 0.71229 0.0
C1571 C 0.76768 0.68079 0.74115 0.0
H1572 H 0.72607 0.71598 0.6276 0.0
C1573 C 0.77004 0.66017 0.70413 0.0
H1574 H 0.74818 0.71651 0.73906 0.0
C1575 C 0.75592 0.65945 0.64021 0.0
C1576 C 0.74008 0.67961 0.61099 0.0
H1577 H 0.7827 0.64462 0.72456 0.0
H1578 H 0.75818 0.6434 0.61299 0.0
C1579 C 0.73802 0.7001 0.64811 0.0
C1580 C 0.12527 0.98737 0.39781 0.0
C1581 C 0.09584 0.97948 0.37274 0.0
H1582 H 0.14966 0.00329 0.47926 0.0
C1583 C 0.06833 0.98184 0.41158 0.0
H1584 H 0.14686 0.986 0.36872 0.0
C1585 C 0.06992 0.99151 0.47367 0.0
C1586 C 0.09903 -0.00051 0.49934 0.0
H1587 H 0.04519 0.97625 0.3939 0.0
H1588 H 0.04795 0.99274 0.50169 0.0
C1589 C 0.12684 -0.00258 0.46071 0.0
C1590 C 0.74445 0.30445 0.21335 0.0
C1591 C 0.73987 0.32585 0.24528 0.0
H1592 H 0.7612 0.28749 0.12791 0.0
C1593 C 0.75028 0.34738 0.21298 0.0
H1594 H 0.73688 0.28753 0.23668 0.0
C1595 C 0.76519 0.34731 0.15007 0.0
C1596 C 0.76951 0.32573 0.1184 0.0
H1597 H 0.74735 0.36413 0.23666 0.0
H1598 H 0.77289 0.36405 0.12597 0.0
C1599 C 0.75873 0.30442 0.15091 0.0
loop_
_geom_bond_atom_site_label_1
_geom_bond_atom_site_label_2
_geom_bond_distance
_geom_bond_site_symmetry_2
_ccdc_geom_bond_type
Tb0 O3 2.453 . S
Tb0 O4 2.596 . S
Tb0 O5 2.374 . S
Tb0 O13 2.343 . S
Tb0 O15 2.353 . S
Tb0 O17 2.427 . S
Tb0 O18 2.513 . S
C1 O5 1.251 . S
C1 O7 1.263 . S
Tb2 O4 2.343 . S
Tb2 O7 2.353 . S
Tb2 O10 2.427 1_554 S
Tb2 O11 2.513 1_554 S
Tb2 O12 2.453 . S
Tb2 O13 2.596 . S
Tb2 O14 2.374 . S
O3 Tb0 2.453 . S
O3 C19 1.245 . S
O4 Tb0 2.596 . S
O4 Tb2 2.343 . S
O4 C19 1.259 . S
O5 Tb0 2.374 . S
O5 C1 1.251 . S
C6 O10 1.275 . S
C6 O11 1.246 . S
O7 C1 1.263 . S
O7 Tb2 2.353 . S
C8 O12 1.245 . S
C8 O13 1.259 . S
C9 O14 1.250 . S
C9 O15 1.263 . S
O10 Tb2 2.427 1_556 S
O10 C6 1.275 . S
O11 Tb2 2.513 1_556 S
O11 C6 1.246 . S
O12 Tb2 2.453 . S
O12 C8 1.245 . S
O13 Tb0 2.343 . S
O13 Tb2 2.596 . S
O13 C8 1.259 . S
O14 Tb2 2.374 . S
O14 C9 1.250 . S
O15 Tb0 2.353 . S
O15 C9 1.263 . S
C16 O17 1.275 . S
C16 O18 1.246 . S
O17 Tb0 2.427 . S
O17 C16 1.275 . S
O18 Tb0 2.513 . S
O18 C16 1.246 . S
C19 O3 1.245 . S
C19 O4 1.259 . S
Tb20 O23 2.453 . S
Tb20 O24 2.596 . S
Tb20 O25 2.374 . S
Tb20 O33 2.343 . S
Tb20 O35 2.353 . S
Tb20 O37 2.427 . S
Tb20 O38 2.513 . S
C21 O25 1.251 . S
C21 O27 1.263 . S
Tb22 O24 2.343 . S
Tb22 O27 2.353 . S
Tb22 O30 2.427 . S
Tb22 O31 2.513 . S
Tb22 O32 2.453 . S
Tb22 O33 2.596 . S
Tb22 O34 2.374 . S
O23 Tb20 2.453 . S
O23 C39 1.245 . S
O24 Tb20 2.596 . S
O24 Tb22 2.343 . S
O24 C39 1.259 . S
O25 Tb20 2.374 . S
O25 C21 1.251 . S
C26 O30 1.275 . S
C26 O31 1.246 . S
O27 C21 1.263 . S
O27 Tb22 2.353 . S
C28 O32 1.245 . S
C28 O33 1.259 . S
C29 O34 1.250 . S
C29 O35 1.263 . S
O30 Tb22 2.427 . S
O30 C26 1.275 . S
O31 Tb22 2.513 . S
O31 C26 1.246 . S
O32 Tb22 2.453 . S
O32 C28 1.245 . S
O33 Tb20 2.343 . S
O33 Tb22 2.596 . S
O33 C28 1.259 . S
O34 Tb22 2.374 . S
O34 C29 1.250 . S
O35 Tb20 2.353 . S
O35 C29 1.263 . S
C36 O37 1.275 . S
C36 O38 1.246 . S
O37 Tb20 2.427 . S
O37 C36 1.275 . S
O38 Tb20 2.513 . S
O38 C36 1.246 . S
C39 O23 1.245 . S
C39 O24 1.259 . S
Tb40 O43 2.453 . S
Tb40 O44 2.596 . S
Tb40 O45 2.374 . S
Tb40 O53 2.343 . S
Tb40 O55 2.353 . S
Tb40 O57 2.427 . S
Tb40 O58 2.513 . S
C41 O45 1.251 . S
C41 O47 1.263 . S
Tb42 O44 2.343 . S
Tb42 O47 2.353 . S
Tb42 O50 2.427 . S
Tb42 O51 2.513 . S
Tb42 O52 2.453 . S
Tb42 O53 2.596 . S
Tb42 O54 2.374 . S
O43 Tb40 2.453 . S
O43 C59 1.245 . S
O44 Tb40 2.596 . S
O44 Tb42 2.343 . S
O44 C59 1.259 . S
O45 Tb40 2.374 . S
O45 C41 1.251 . S
C46 O50 1.275 . S
C46 O51 1.246 . S
O47 C41 1.263 . S
O47 Tb42 2.353 . S
C48 O52 1.245 . S
C48 O53 1.259 . S
C49 O54 1.250 . S
C49 O55 1.263 . S
O50 Tb42 2.427 . S
O50 C46 1.275 . S
O51 Tb42 2.513 . S
O51 C46 1.246 . S
O52 Tb42 2.453 . S
O52 C48 1.245 . S
O53 Tb40 2.343 . S
O53 Tb42 2.596 . S
O53 C48 1.259 . S
O54 Tb42 2.374 . S
O54 C49 1.250 . S
O55 Tb40 2.353 . S
O55 C49 1.263 . S
C56 O57 1.275 . S
C56 O58 1.246 . S
O57 Tb40 2.427 . S
O57 C56 1.275 . S
O58 Tb40 2.513 . S
O58 C56 1.246 . S
C59 O43 1.245 . S
C59 O44 1.259 . S
Tb60 O63 2.453 1_556 S
Tb60 O64 2.596 1_556 S
Tb60 O65 2.374 . S
Tb60 O73 2.343 . S
Tb60 O75 2.353 . S
Tb60 O77 2.427 . S
Tb60 O78 2.513 . S
C61 O65 1.251 . S
C61 O67 1.263 . S
Tb62 O64 2.343 1_556 S
Tb62 O67 2.353 . S
Tb62 O70 2.427 1_556 S
Tb62 O71 2.513 1_556 S
Tb62 O72 2.453 . S
Tb62 O73 2.596 . S
Tb62 O74 2.374 . S
O63 Tb60 2.453 1_554 S
O63 C79 1.245 . S
O64 Tb60 2.596 1_554 S
O64 Tb62 2.343 1_554 S
O64 C79 1.259 . S
O65 Tb60 2.374 . S
O65 C61 1.251 . S
C66 O70 1.275 . S
C66 O71 1.246 . S
O67 C61 1.263 . S
O67 Tb62 2.353 . S
C68 O72 1.245 . S
C68 O73 1.259 . S
C69 O74 1.250 . S
C69 O75 1.263 . S
O70 Tb62 2.427 1_554 S
O70 C66 1.275 . S
O71 Tb62 2.513 1_554 S
O71 C66 1.246 . S
O72 Tb62 2.453 . S
O72 C68 1.245 . S
O73 Tb60 2.343 . S
O73 Tb62 2.596 . S
O73 C68 1.259 . S
O74 Tb62 2.374 . S
O74 C69 1.250 . S
O75 Tb60 2.353 . S
O75 C69 1.263 . S
C76 O77 1.275 . S
C76 O78 1.246 . S
O77 Tb60 2.427 . S
O77 C76 1.275 . S
O78 Tb60 2.513 . S
O78 C76 1.246 . S
C79 O63 1.245 . S
C79 O64 1.259 . S
Tb80 O83 2.453 . S
Tb80 O84 2.596 . S
Tb80 O85 2.374 . S
Tb80 O93 2.343 . S
Tb80 O95 2.353 . S
Tb80 O97 2.427 . S
Tb80 O98 2.513 . S
C81 O85 1.251 . S
C81 O87 1.263 . S
Tb82 O84 2.343 . S
Tb82 O87 2.353 . S
Tb82 O90 2.427 . S
Tb82 O91 2.513 . S
Tb82 O92 2.453 . S
Tb82 O93 2.596 . S
Tb82 O94 2.374 . S
O83 Tb80 2.453 . S
O83 C99 1.245 . S
O84 Tb80 2.596 . S
O84 Tb82 2.343 . S
O84 C99 1.259 . S
O85 Tb80 2.374 . S
O85 C81 1.251 . S
C86 O90 1.275 . S
C86 O91 1.246 . S
O87 C81 1.263 . S
O87 Tb82 2.353 . S
C88 O92 1.245 . S
C88 O93 1.259 . S
C89 O94 1.250 . S
C89 O95 1.263 . S
O90 Tb82 2.427 . S
O90 C86 1.275 . S
O91 Tb82 2.513 . S
O91 C86 1.246 . S
O92 Tb82 2.453 . S
O92 C88 1.245 . S
O93 Tb80 2.343 . S
O93 Tb82 2.596 . S
O93 C88 1.259 . S
O94 Tb82 2.374 . S
O94 C89 1.250 . S
O95 Tb80 2.353 . S
O95 C89 1.263 . S
C96 O97 1.275 . S
C96 O98 1.246 . S
O97 Tb80 2.427 . S
O97 C96 1.275 . S
O98 Tb80 2.513 . S
O98 C96 1.246 . S
C99 O83 1.245 . S
C99 O84 1.259 . S
Tb100 O103 2.453 . S
Tb100 O104 2.596 . S
Tb100 O105 2.374 . S
Tb100 O113 2.343 . S
Tb100 O115 2.353 . S
Tb100 O117 2.427 . S
Tb100 O118 2.513 . S
C101 O105 1.251 . S
C101 O107 1.263 . S
Tb102 O104 2.343 . S
Tb102 O107 2.353 . S
Tb102 O110 2.427 . S
Tb102 O111 2.513 . S
Tb102 O112 2.453 . S
Tb102 O113 2.596 . S
Tb102 O114 2.374 . S
O103 Tb100 2.453 . S
O103 C119 1.245 . S
O104 Tb100 2.596 . S
O104 Tb102 2.343 . S
O104 C119 1.259 . S
O105 Tb100 2.374 . S
O105 C101 1.251 . S
C106 O110 1.275 . S
C106 O111 1.246 . S
O107 C101 1.263 . S
O107 Tb102 2.353 . S
C108 O112 1.245 . S
C108 O113 1.259 . S
C109 O114 1.250 . S
C109 O115 1.263 . S
O110 Tb102 2.427 . S
O110 C106 1.275 . S
O111 Tb102 2.513 . S
O111 C106 1.246 . S
O112 Tb102 2.453 . S
O112 C108 1.245 . S
O113 Tb100 2.343 . S
O113 Tb102 2.596 . S
O113 C108 1.259 . S
O114 Tb102 2.374 . S
O114 C109 1.250 . S
O115 Tb100 2.353 . S
O115 C109 1.263 . S
C116 O117 1.275 . S
C116 O118 1.246 . S
O117 Tb100 2.427 . S
O117 C116 1.275 . S
O118 Tb100 2.513 . S
O118 C116 1.246 . S
C119 O103 1.245 . S
C119 O104 1.259 . S
Tb120 O123 2.453 . S
Tb120 O124 2.596 . S
Tb120 O125 2.374 . S
Tb120 O133 2.343 . S
Tb120 O135 2.353 . S
Tb120 O137 2.427 . S
Tb120 O138 2.513 . S
C121 O125 1.251 . S
C121 O127 1.263 . S
Tb122 O124 2.343 . S
Tb122 O127 2.353 . S
Tb122 O130 2.427 1_554 S
Tb122 O131 2.513 1_554 S
Tb122 O132 2.453 . S
Tb122 O133 2.596 . S
Tb122 O134 2.374 . S
O123 Tb120 2.453 . S
O123 C139 1.245 1_554 S
O124 Tb120 2.596 . S
O124 Tb122 2.343 . S
O124 C139 1.259 1_554 S
O125 Tb120 2.374 . S
O125 C121 1.251 . S
C126 O130 1.275 . S
C126 O131 1.246 . S
O127 C121 1.263 . S
O127 Tb122 2.353 . S
C128 O132 1.245 . S
C128 O133 1.259 . S
C129 O134 1.250 . S
C129 O135 1.263 . S
O130 Tb122 2.427 1_556 S
O130 C126 1.275 . S
O131 Tb122 2.513 1_556 S
O131 C126 1.246 . S
O132 Tb122 2.453 . S
O132 C128 1.245 . S
O133 Tb120 2.343 . S
O133 Tb122 2.596 . S
O133 C128 1.259 . S
O134 Tb122 2.374 . S
O134 C129 1.250 . S
O135 Tb120 2.353 . S
O135 C129 1.263 . S
C136 O137 1.275 . S
C136 O138 1.246 . S
O137 Tb120 2.427 . S
O137 C136 1.275 . S
O138 Tb120 2.513 . S
O138 C136 1.246 . S
C139 O123 1.245 1_556 S
C139 O124 1.259 1_556 S
Tb140 O143 2.453 . S
Tb140 O144 2.596 . S
Tb140 O145 2.374 . S
Tb140 O153 2.343 . S
Tb140 O155 2.353 . S
Tb140 O157 2.427 . S
Tb140 O158 2.513 . S
C141 O145 1.251 . S
C141 O147 1.263 . S
Tb142 O144 2.343 . S
Tb142 O147 2.353 . S
Tb142 O150 2.427 . S
Tb142 O151 2.513 . S
Tb142 O152 2.453 . S
Tb142 O153 2.596 . S
Tb142 O154 2.374 . S
O143 Tb140 2.453 . S
O143 C159 1.245 . S
O144 Tb140 2.596 . S
O144 Tb142 2.343 . S
O144 C159 1.259 . S
O145 Tb140 2.374 . S
O145 C141 1.251 . S
C146 O150 1.275 . S
C146 O151 1.246 . S
O147 C141 1.263 . S
O147 Tb142 2.353 . S
C148 O152 1.245 . S
C148 O153 1.259 . S
C149 O154 1.250 . S
C149 O155 1.263 . S
O150 Tb142 2.427 . S
O150 C146 1.275 . S
O151 Tb142 2.513 . S
O151 C146 1.246 . S
O152 Tb142 2.453 . S
O152 C148 1.245 . S
O153 Tb140 2.343 . S
O153 Tb142 2.596 . S
O153 C148 1.259 . S
O154 Tb142 2.374 . S
O154 C149 1.250 . S
O155 Tb140 2.353 . S
O155 C149 1.263 . S
C156 O157 1.275 . S
C156 O158 1.246 . S
O157 Tb140 2.427 . S
O157 C156 1.275 . S
O158 Tb140 2.513 . S
O158 C156 1.246 . S
C159 O143 1.245 . S
C159 O144 1.259 . S
Tb160 O163 2.453 . S
Tb160 O164 2.596 . S
Tb160 O165 2.374 . S
Tb160 O173 2.343 . S
Tb160 O175 2.353 . S
Tb160 O177 2.427 . S
Tb160 O178 2.513 . S
C161 O165 1.251 . S
C161 O167 1.263 . S
Tb162 O164 2.343 . S
Tb162 O167 2.353 . S
Tb162 O170 2.427 1_554 S
Tb162 O171 2.513 . S
Tb162 O172 2.453 . S
Tb162 O173 2.596 . S
Tb162 O174 2.374 . S
O163 Tb160 2.453 . S
O163 C179 1.245 . S
O164 Tb160 2.596 . S
O164 Tb162 2.343 . S
O164 C179 1.259 . S
O165 Tb160 2.374 . S
O165 C161 1.251 . S
C166 O170 1.275 . S
C166 O171 1.246 1_556 S
O167 C161 1.263 . S
O167 Tb162 2.353 . S
C168 O172 1.245 . S
C168 O173 1.259 . S
C169 O174 1.250 . S
C169 O175 1.263 . S
O170 Tb162 2.427 1_556 S
O170 C166 1.275 . S
O171 Tb162 2.513 . S
O171 C166 1.246 1_554 S
O172 Tb162 2.453 . S
O172 C168 1.245 . S
O173 Tb160 2.343 . S
O173 Tb162 2.596 . S
O173 C168 1.259 . S
O174 Tb162 2.374 . S
O174 C169 1.250 . S
O175 Tb160 2.353 . S
O175 C169 1.263 . S
C176 O177 1.275 . S
C176 O178 1.246 . S
O177 Tb160 2.427 . S
O177 C176 1.275 . S
O178 Tb160 2.513 . S
O178 C176 1.246 . S
C179 O163 1.245 . S
C179 O164 1.259 . S
Tb180 O183 2.453 . S
Tb180 O184 2.596 . S
Tb180 O185 2.374 . S
Tb180 O193 2.343 . S
Tb180 O195 2.353 . S
Tb180 O197 2.427 . S
Tb180 O198 2.513 . S
C181 O185 1.251 . S
C181 O187 1.263 . S
Tb182 O184 2.343 . S
Tb182 O187 2.353 . S
Tb182 O190 2.427 . S
Tb182 O191 2.513 . S
Tb182 O192 2.453 . S
Tb182 O193 2.596 . S
Tb182 O194 2.374 . S
O183 Tb180 2.453 . S
O183 C199 1.245 . S
O184 Tb180 2.596 . S
O184 Tb182 2.343 . S
O184 C199 1.259 . S
O185 Tb180 2.374 . S
O185 C181 1.251 . S
C186 O190 1.275 1_554 S
C186 O191 1.246 1_554 S
O187 C181 1.263 . S
O187 Tb182 2.353 . S
C188 O192 1.245 . S
C188 O193 1.259 . S
C189 O194 1.250 . S
C189 O195 1.263 . S
O190 Tb182 2.427 . S
O190 C186 1.275 1_556 S
O191 Tb182 2.513 . S
O191 C186 1.246 1_556 S
O192 Tb182 2.453 . S
O192 C188 1.245 . S
O193 Tb180 2.343 . S
O193 Tb182 2.596 . S
O193 C188 1.259 . S
O194 Tb182 2.374 . S
O194 C189 1.250 . S
O195 Tb180 2.353 . S
O195 C189 1.263 . S
C196 O197 1.275 . S
C196 O198 1.246 . S
O197 Tb180 2.427 . S
O197 C196 1.275 . S
O198 Tb180 2.513 . S
O198 C196 1.246 . S
C199 O183 1.245 . S
C199 O184 1.259 . S
Tb200 O203 2.453 . S
Tb200 O204 2.596 . S
Tb200 O205 2.374 . S
Tb200 O213 2.343 . S
Tb200 O215 2.353 . S
Tb200 O217 2.427 . S
Tb200 O218 2.513 . S
C201 O205 1.251 . S
C201 O207 1.263 . S
Tb202 O204 2.343 . S
Tb202 O207 2.353 . S
Tb202 O210 2.427 . S
Tb202 O211 2.513 . S
Tb202 O212 2.453 . S
Tb202 O213 2.596 . S
Tb202 O214 2.374 . S
O203 Tb200 2.453 . S
O203 C219 1.245 . S
O204 Tb200 2.596 . S
O204 Tb202 2.343 . S
O204 C219 1.259 . S
O205 Tb200 2.374 . S
O205 C201 1.251 . S
C206 O210 1.275 . S
C206 O211 1.246 . S
O207 C201 1.263 . S
O207 Tb202 2.353 . S
C208 O212 1.245 . S
C208 O213 1.259 . S
C209 O214 1.250 . S
C209 O215 1.263 . S
O210 Tb202 2.427 . S
O210 C206 1.275 . S
O211 Tb202 2.513 . S
O211 C206 1.246 . S
O212 Tb202 2.453 . S
O212 C208 1.245 . S
O213 Tb200 2.343 . S
O213 Tb202 2.596 . S
O213 C208 1.259 . S
O214 Tb202 2.374 . S
O214 C209 1.250 . S
O215 Tb200 2.353 . S
O215 C209 1.263 . S
C216 O217 1.275 . S
C216 O218 1.246 . S
O217 Tb200 2.427 . S
O217 C216 1.275 . S
O218 Tb200 2.513 . S
O218 C216 1.246 . S
C219 O203 1.245 . S
C219 O204 1.259 . S
Tb220 O223 2.453 . S
Tb220 O224 2.596 . S
Tb220 O225 2.374 . S
Tb220 O233 2.343 . S
Tb220 O235 2.353 . S
Tb220 O237 2.427 . S
Tb220 O238 2.513 . S
C221 O225 1.251 . S
C221 O227 1.263 . S
Tb222 O224 2.343 . S
Tb222 O227 2.353 . S
Tb222 O230 2.427 . S
Tb222 O231 2.513 . S
Tb222 O232 2.453 . S
Tb222 O233 2.596 . S
Tb222 O234 2.374 . S
O223 Tb220 2.453 . S
O223 C239 1.245 . S
O224 Tb220 2.596 . S
O224 Tb222 2.343 . S
O224 C239 1.259 . S
O225 Tb220 2.374 . S
O225 C221 1.251 . S
C226 O230 1.275 . S
C226 O231 1.246 . S
O227 C221 1.263 . S
O227 Tb222 2.353 . S
C228 O232 1.245 . S
C228 O233 1.259 . S
C229 O234 1.250 . S
C229 O235 1.263 . S
O230 Tb222 2.427 . S
O230 C226 1.275 . S
O231 Tb222 2.513 . S
O231 C226 1.246 . S
O232 Tb222 2.453 . S
O232 C228 1.245 . S
O233 Tb220 2.343 . S
O233 Tb222 2.596 . S
O233 C228 1.259 . S
O234 Tb222 2.374 . S
O234 C229 1.250 . S
O235 Tb220 2.353 . S
O235 C229 1.263 . S
C236 O237 1.275 . S
C236 O238 1.246 . S
O237 Tb220 2.427 . S
O237 C236 1.275 . S
O238 Tb220 2.513 . S
O238 C236 1.246 . S
C239 O223 1.245 . S
C239 O224 1.259 . S
Tb240 O243 2.453 . S
Tb240 O244 2.596 . S
Tb240 O245 2.374 . S
Tb240 O253 2.343 . S
Tb240 O255 2.353 . S
Tb240 O257 2.427 . S
Tb240 O258 2.513 . S
C241 O245 1.251 . S
C241 O247 1.263 . S
Tb242 O244 2.343 . S
Tb242 O247 2.353 . S
Tb242 O250 2.427 . S
Tb242 O251 2.513 . S
Tb242 O252 2.453 . S
Tb242 O253 2.596 . S
Tb242 O254 2.374 . S
O243 Tb240 2.453 . S
O243 C259 1.245 . S
O244 Tb240 2.596 . S
O244 Tb242 2.343 . S
O244 C259 1.259 . S
O245 Tb240 2.374 . S
O245 C241 1.251 . S
C246 O250 1.275 . S
C246 O251 1.246 . S
O247 C241 1.263 . S
O247 Tb242 2.353 . S
C248 O252 1.245 . S
C248 O253 1.259 . S
C249 O254 1.250 . S
C249 O255 1.263 . S
O250 Tb242 2.427 . S
O250 C246 1.275 . S
O251 Tb242 2.513 . S
O251 C246 1.246 . S
O252 Tb242 2.453 . S
O252 C248 1.245 . S
O253 Tb240 2.343 . S
O253 Tb242 2.596 . S
O253 C248 1.259 . S
O254 Tb242 2.374 . S
O254 C249 1.250 . S
O255 Tb240 2.353 . S
O255 C249 1.263 . S
C256 O257 1.275 . S
C256 O258 1.246 . S
O257 Tb240 2.427 . S
O257 C256 1.275 . S
O258 Tb240 2.513 . S
O258 C256 1.246 . S
C259 O243 1.245 . S
C259 O244 1.259 . S
Tb260 O263 2.453 . S
Tb260 O264 2.596 . S
Tb260 O265 2.374 . S
Tb260 O273 2.343 . S
Tb260 O275 2.353 . S
Tb260 O277 2.427 . S
Tb260 O278 2.513 . S
C261 O265 1.251 . S
C261 O267 1.263 . S
Tb262 O264 2.343 . S
Tb262 O267 2.353 . S
Tb262 O270 2.427 . S
Tb262 O271 2.513 . S
Tb262 O272 2.453 . S
Tb262 O273 2.596 . S
Tb262 O274 2.374 . S
O263 Tb260 2.453 . S
O263 C279 1.245 . S
O264 Tb260 2.596 . S
O264 Tb262 2.343 . S
O264 C279 1.259 . S
O265 Tb260 2.374 . S
O265 C261 1.251 . S
C266 O270 1.275 . S
C266 O271 1.246 . S
O267 C261 1.263 . S
O267 Tb262 2.353 . S
C268 O272 1.245 . S
C268 O273 1.259 . S
C269 O274 1.250 . S
C269 O275 1.263 . S
O270 Tb262 2.427 . S
O270 C266 1.275 . S
O271 Tb262 2.513 . S
O271 C266 1.246 . S
O272 Tb262 2.453 . S
O272 C268 1.245 . S
O273 Tb260 2.343 . S
O273 Tb262 2.596 . S
O273 C268 1.259 . S
O274 Tb262 2.374 . S
O274 C269 1.250 . S
O275 Tb260 2.353 . S
O275 C269 1.263 . S
C276 O277 1.275 . S
C276 O278 1.246 . S
O277 Tb260 2.427 . S
O277 C276 1.275 . S
O278 Tb260 2.513 . S
O278 C276 1.246 . S
C279 O263 1.245 . S
C279 O264 1.259 . S
Tb280 O283 2.453 . S
Tb280 O284 2.596 . S
Tb280 O285 2.374 . S
Tb280 O293 2.343 . S
Tb280 O295 2.353 . S
Tb280 O297 2.427 . S
Tb280 O298 2.513 . S
C281 O285 1.251 . S
C281 O287 1.263 . S
Tb282 O284 2.343 . S
Tb282 O287 2.353 . S
Tb282 O290 2.427 . S
Tb282 O291 2.513 . S
Tb282 O292 2.453 . S
Tb282 O293 2.596 . S
Tb282 O294 2.374 . S
O283 Tb280 2.453 . S
O283 C299 1.245 . S
O284 Tb280 2.596 . S
O284 Tb282 2.343 . S
O284 C299 1.259 . S
O285 Tb280 2.374 . S
O285 C281 1.251 . S
C286 O290 1.275 . S
C286 O291 1.246 . S
O287 C281 1.263 . S
O287 Tb282 2.353 . S
C288 O292 1.245 . S
C288 O293 1.259 . S
C289 O294 1.250 . S
C289 O295 1.263 . S
O290 Tb282 2.427 . S
O290 C286 1.275 . S
O291 Tb282 2.513 . S
O291 C286 1.246 . S
O292 Tb282 2.453 . S
O292 C288 1.245 . S
O293 Tb280 2.343 . S
O293 Tb282 2.596 . S
O293 C288 1.259 . S
O294 Tb282 2.374 . S
O294 C289 1.250 . S
O295 Tb280 2.353 . S
O295 C289 1.263 . S
C296 O297 1.275 . S
C296 O298 1.246 . S
O297 Tb280 2.427 . S
O297 C296 1.275 . S
O298 Tb280 2.513 . S
O298 C296 1.246 . S
C299 O283 1.245 . S
C299 O284 1.259 . S
Tb300 O303 2.453 . S
Tb300 O304 2.596 . S
Tb300 O305 2.374 . S
Tb300 O313 2.343 . S
Tb300 O315 2.353 . S
Tb300 O317 2.427 1_556 S
Tb300 O318 2.513 1_556 S
C301 O305 1.251 . S
C301 O307 1.263 . S
Tb302 O304 2.343 . S
Tb302 O307 2.353 . S
Tb302 O310 2.427 . S
Tb302 O311 2.513 . S
Tb302 O312 2.453 . S
Tb302 O313 2.596 . S
Tb302 O314 2.374 . S
O303 Tb300 2.453 . S
O303 C319 1.245 . S
O304 Tb300 2.596 . S
O304 Tb302 2.343 . S
O304 C319 1.259 . S
O305 Tb300 2.374 . S
O305 C301 1.251 . S
C306 O310 1.275 . S
C306 O311 1.246 . S
O307 C301 1.263 . S
O307 Tb302 2.353 . S
C308 O312 1.245 1_554 S
C308 O313 1.259 1_554 S
C309 O314 1.250 . S
C309 O315 1.263 . S
O310 Tb302 2.427 . S
O310 C306 1.275 . S
O311 Tb302 2.513 . S
O311 C306 1.246 . S
O312 Tb302 2.453 . S
O312 C308 1.245 1_556 S
O313 Tb300 2.343 . S
O313 Tb302 2.596 . S
O313 C308 1.259 1_556 S
O314 Tb302 2.374 . S
O314 C309 1.250 . S
O315 Tb300 2.353 . S
O315 C309 1.263 . S
C316 O317 1.275 . S
C316 O318 1.246 . S
O317 Tb300 2.427 1_554 S
O317 C316 1.275 . S
O318 Tb300 2.513 1_554 S
O318 C316 1.246 . S
C319 O303 1.245 . S
C319 O304 1.259 . S
Tb320 O323 2.453 . S
Tb320 O324 2.596 . S
Tb320 O325 2.374 . S
Tb320 O333 2.343 . S
Tb320 O335 2.353 . S
Tb320 O337 2.427 . S
Tb320 O338 2.513 . S
C321 O325 1.251 . S
C321 O327 1.263 . S
Tb322 O324 2.343 . S
Tb322 O327 2.353 . S
Tb322 O330 2.427 . S
Tb322 O331 2.513 . S
Tb322 O332 2.453 . S
Tb322 O333 2.596 . S
Tb322 O334 2.374 . S
O323 Tb320 2.453 . S
O323 C339 1.245 . S
O324 Tb320 2.596 . S
O324 Tb322 2.343 . S
O324 C339 1.259 . S
O325 Tb320 2.374 . S
O325 C321 1.251 . S
C326 O330 1.275 . S
C326 O331 1.246 . S
O327 C321 1.263 . S
O327 Tb322 2.353 . S
C328 O332 1.245 . S
C328 O333 1.259 . S
C329 O334 1.250 . S
C329 O335 1.263 . S
O330 Tb322 2.427 . S
O330 C326 1.275 . S
O331 Tb322 2.513 . S
O331 C326 1.246 . S
O332 Tb322 2.453 . S
O332 C328 1.245 . S
O333 Tb320 2.343 . S
O333 Tb322 2.596 . S
O333 C328 1.259 . S
O334 Tb322 2.374 . S
O334 C329 1.250 . S
O335 Tb320 2.353 . S
O335 C329 1.263 . S
C336 O337 1.275 . S
C336 O338 1.246 . S
O337 Tb320 2.427 . S
O337 C336 1.275 . S
O338 Tb320 2.513 . S
O338 C336 1.246 . S
C339 O323 1.245 . S
C339 O324 1.259 . S
Tb340 O343 2.453 . S
Tb340 O344 2.596 . S
Tb340 O345 2.374 . S
Tb340 O353 2.343 . S
Tb340 O355 2.353 . S
Tb340 O357 2.427 . S
Tb340 O358 2.513 . S
C341 O345 1.251 . S
C341 O347 1.263 . S
Tb342 O344 2.343 . S
Tb342 O347 2.353 . S
Tb342 O350 2.427 1_556 S
Tb342 O351 2.513 1_556 S
Tb342 O352 2.453 . S
Tb342 O353 2.596 . S
Tb342 O354 2.374 . S
O343 Tb340 2.453 . S
O343 C359 1.245 1_556 S
O344 Tb340 2.596 . S
O344 Tb342 2.343 . S
O344 C359 1.259 1_556 S
O345 Tb340 2.374 . S
O345 C341 1.251 . S
C346 O350 1.275 . S
C346 O351 1.246 . S
O347 C341 1.263 . S
O347 Tb342 2.353 . S
C348 O352 1.245 . S
C348 O353 1.259 . S
C349 O354 1.250 . S
C349 O355 1.263 . S
O350 Tb342 2.427 1_554 S
O350 C346 1.275 . S
O351 Tb342 2.513 1_554 S
O351 C346 1.246 . S
O352 Tb342 2.453 . S
O352 C348 1.245 . S
O353 Tb340 2.343 . S
O353 Tb342 2.596 . S
O353 C348 1.259 . S
O354 Tb342 2.374 . S
O354 C349 1.250 . S
O355 Tb340 2.353 . S
O355 C349 1.263 . S
C356 O357 1.275 . S
C356 O358 1.246 . S
O357 Tb340 2.427 . S
O357 C356 1.275 . S
O358 Tb340 2.513 . S
O358 C356 1.246 . S
C359 O343 1.245 1_554 S
C359 O344 1.259 1_554 S
Tb360 O363 2.453 . S
Tb360 O364 2.596 . S
Tb360 O365 2.374 . S
Tb360 O373 2.343 . S
Tb360 O375 2.353 1_545 S
Tb360 O377 2.427 . S
Tb360 O378 2.513 . S
C361 O365 1.251 . S
C361 O367 1.263 . S
Tb362 O364 2.343 . S
Tb362 O367 2.353 . S
Tb362 O370 2.427 . S
Tb362 O371 2.513 . S
Tb362 O372 2.453 . S
Tb362 O373 2.596 . S
Tb362 O374 2.374 . S
O363 Tb360 2.453 . S
O363 C379 1.245 . S
O364 Tb360 2.596 . S
O364 Tb362 2.343 . S
O364 C379 1.259 . S
O365 Tb360 2.374 . S
O365 C361 1.251 . S
C366 O370 1.275 . S
C366 O371 1.246 . S
O367 C361 1.263 . S
O367 Tb362 2.353 . S
C368 O372 1.245 . S
C368 O373 1.259 . S
C369 O374 1.250 . S
C369 O375 1.263 1_545 S
O370 Tb362 2.427 . S
O370 C366 1.275 . S
O371 Tb362 2.513 . S
O371 C366 1.246 . S
O372 Tb362 2.453 . S
O372 C368 1.245 . S
O373 Tb360 2.343 . S
O373 Tb362 2.596 . S
O373 C368 1.259 . S
O374 Tb362 2.374 . S
O374 C369 1.250 . S
O375 Tb360 2.353 1_565 S
O375 C369 1.263 1_565 S
C376 O377 1.275 . S
C376 O378 1.246 . S
O377 Tb360 2.427 . S
O377 C376 1.275 . S
O378 Tb360 2.513 . S
O378 C376 1.246 . S
C379 O363 1.245 . S
C379 O364 1.259 . S
Tb380 O383 2.453 . S
Tb380 O384 2.596 . S
Tb380 O385 2.374 . S
Tb380 O393 2.343 . S
Tb380 O395 2.353 . S
Tb380 O397 2.427 . S
Tb380 O398 2.513 . S
C381 O385 1.251 . S
C381 O387 1.263 . S
Tb382 O384 2.343 . S
Tb382 O387 2.353 . S
Tb382 O390 2.427 . S
Tb382 O391 2.513 . S
Tb382 O392 2.453 . S
Tb382 O393 2.596 . S
Tb382 O394 2.374 . S
O383 Tb380 2.453 . S
O383 C399 1.245 . S
O384 Tb380 2.596 . S
O384 Tb382 2.343 . S
O384 C399 1.259 . S
O385 Tb380 2.374 . S
O385 C381 1.251 . S
C386 O390 1.275 . S
C386 O391 1.246 . S
O387 C381 1.263 . S
O387 Tb382 2.353 . S
C388 O392 1.245 . S
C388 O393 1.259 . S
C389 O394 1.250 . S
C389 O395 1.263 . S
O390 Tb382 2.427 . S
O390 C386 1.275 . S
O391 Tb382 2.513 . S
O391 C386 1.246 . S
O392 Tb382 2.453 . S
O392 C388 1.245 . S
O393 Tb380 2.343 . S
O393 Tb382 2.596 . S
O393 C388 1.259 . S
O394 Tb382 2.374 . S
O394 C389 1.250 . S
O395 Tb380 2.353 . S
O395 C389 1.263 . S
C396 O397 1.275 . S
C396 O398 1.246 . S
O397 Tb380 2.427 . S
O397 C396 1.275 . S
O398 Tb380 2.513 . S
O398 C396 1.246 . S
C399 O383 1.245 . S
C399 O384 1.259 . S
Tb400 O403 2.453 . S
Tb400 O404 2.596 . S
Tb400 O405 2.374 . S
Tb400 O413 2.343 . S
Tb400 O415 2.353 . S
Tb400 O417 2.427 1_554 S
Tb400 O418 2.513 . S
C401 O405 1.251 . S
C401 O407 1.263 . S
Tb402 O404 2.343 . S
Tb402 O407 2.353 . S
Tb402 O410 2.427 . S
Tb402 O411 2.513 . S
Tb402 O412 2.453 . S
Tb402 O413 2.596 . S
Tb402 O414 2.374 . S
O403 Tb400 2.453 . S
O403 C419 1.245 . S
O404 Tb400 2.596 . S
O404 Tb402 2.343 . S
O404 C419 1.259 . S
O405 Tb400 2.374 . S
O405 C401 1.251 . S
C406 O410 1.275 . S
C406 O411 1.246 . S
O407 C401 1.263 . S
O407 Tb402 2.353 . S
C408 O412 1.245 . S
C408 O413 1.259 . S
C409 O414 1.250 . S
C409 O415 1.263 . S
O410 Tb402 2.427 . S
O410 C406 1.275 . S
O411 Tb402 2.513 . S
O411 C406 1.246 . S
O412 Tb402 2.453 . S
O412 C408 1.245 . S
O413 Tb400 2.343 . S
O413 Tb402 2.596 . S
O413 C408 1.259 . S
O414 Tb402 2.374 . S
O414 C409 1.250 . S
O415 Tb400 2.353 . S
O415 C409 1.263 . S
C416 O417 1.275 . S
C416 O418 1.246 1_556 S
O417 Tb400 2.427 1_556 S
O417 C416 1.275 . S
O418 Tb400 2.513 . S
O418 C416 1.246 1_554 S
C419 O403 1.245 . S
C419 O404 1.259 . S
Tb420 O423 2.453 . S
Tb420 O424 2.596 . S
Tb420 O425 2.374 . S
Tb420 O433 2.343 . S
Tb420 O435 2.353 . S
Tb420 O437 2.427 . S
Tb420 O438 2.513 . S
C421 O425 1.251 . S
C421 O427 1.263 . S
Tb422 O424 2.343 . S
Tb422 O427 2.353 . S
Tb422 O430 2.427 . S
Tb422 O431 2.513 . S
Tb422 O432 2.453 . S
Tb422 O433 2.596 . S
Tb422 O434 2.374 . S
O423 Tb420 2.453 . S
O423 C439 1.245 . S
O424 Tb420 2.596 . S
O424 Tb422 2.343 . S
O424 C439 1.259 . S
O425 Tb420 2.374 . S
O425 C421 1.251 . S
C426 O430 1.275 . S
C426 O431 1.246 . S
O427 C421 1.263 . S
O427 Tb422 2.353 . S
C428 O432 1.245 . S
C428 O433 1.259 . S
C429 O434 1.250 . S
C429 O435 1.263 . S
O430 Tb422 2.427 . S
O430 C426 1.275 . S
O431 Tb422 2.513 . S
O431 C426 1.246 . S
O432 Tb422 2.453 . S
O432 C428 1.245 . S
O433 Tb420 2.343 . S
O433 Tb422 2.596 . S
O433 C428 1.259 . S
O434 Tb422 2.374 . S
O434 C429 1.250 . S
O435 Tb420 2.353 . S
O435 C429 1.263 . S
C436 O437 1.275 . S
C436 O438 1.246 . S
O437 Tb420 2.427 . S
O437 C436 1.275 . S
O438 Tb420 2.513 . S
O438 C436 1.246 . S
C439 O423 1.245 . S
C439 O424 1.259 . S
Tb440 O443 2.453 . S
Tb440 O444 2.596 . S
Tb440 O445 2.374 . S
Tb440 O453 2.343 . S
Tb440 O455 2.353 1_565 S
Tb440 O457 2.427 . S
Tb440 O458 2.513 . S
C441 O445 1.251 . S
C441 O447 1.263 . S
Tb442 O444 2.343 . S
Tb442 O447 2.353 . S
Tb442 O450 2.427 . S
Tb442 O451 2.513 . S
Tb442 O452 2.453 . S
Tb442 O453 2.596 . S
Tb442 O454 2.374 . S
O443 Tb440 2.453 . S
O443 C459 1.245 . S
O444 Tb440 2.596 . S
O444 Tb442 2.343 . S
O444 C459 1.259 . S
O445 Tb440 2.374 . S
O445 C441 1.251 . S
C446 O450 1.275 . S
C446 O451 1.246 . S
O447 C441 1.263 . S
O447 Tb442 2.353 . S
C448 O452 1.245 . S
C448 O453 1.259 . S
C449 O454 1.249 . S
C449 O455 1.263 1_565 S
O450 Tb442 2.427 . S
O450 C446 1.275 . S
O451 Tb442 2.513 . S
O451 C446 1.246 . S
O452 Tb442 2.453 . S
O452 C448 1.245 . S
O453 Tb440 2.343 . S
O453 Tb442 2.596 . S
O453 C448 1.259 . S
O454 Tb442 2.374 . S
O454 C449 1.249 . S
O455 Tb440 2.353 1_545 S
O455 C449 1.263 1_545 S
C456 O457 1.275 . S
C456 O458 1.246 . S
O457 Tb440 2.427 . S
O457 C456 1.275 . S
O458 Tb440 2.513 . S
O458 C456 1.246 . S
C459 O443 1.245 . S
C459 O444 1.259 . S
Tb460 O463 2.453 . S
Tb460 O464 2.596 . S
Tb460 O465 2.374 . S
Tb460 O473 2.343 . S
Tb460 O475 2.353 . S
Tb460 O477 2.427 . S
Tb460 O478 2.513 . S
C461 O465 1.251 . S
C461 O467 1.263 . S
Tb462 O464 2.343 . S
Tb462 O467 2.353 . S
Tb462 O470 2.427 . S
Tb462 O471 2.513 . S
Tb462 O472 2.453 . S
Tb462 O473 2.596 . S
Tb462 O474 2.374 . S
O463 Tb460 2.453 . S
O463 C479 1.245 . S
O464 Tb460 2.596 . S
O464 Tb462 2.343 . S
O464 C479 1.259 . S
O465 Tb460 2.374 . S
O465 C461 1.251 . S
C466 O470 1.275 . S
C466 O471 1.246 . S
O467 C461 1.263 . S
O467 Tb462 2.353 . S
C468 O472 1.245 . S
C468 O473 1.259 . S
C469 O474 1.250 . S
C469 O475 1.263 . S
O470 Tb462 2.427 . S
O470 C466 1.275 . S
O471 Tb462 2.513 . S
O471 C466 1.246 . S
O472 Tb462 2.453 . S
O472 C468 1.245 . S
O473 Tb460 2.343 . S
O473 Tb462 2.596 . S
O473 C468 1.259 . S
O474 Tb462 2.374 . S
O474 C469 1.250 . S
O475 Tb460 2.353 . S
O475 C469 1.263 . S
C476 O477 1.275 1_554 S
C476 O478 1.246 1_554 S
O477 Tb460 2.427 . S
O477 C476 1.275 1_556 S
O478 Tb460 2.513 . S
O478 C476 1.246 1_556 S
C479 O463 1.245 . S
C479 O464 1.259 . S
Tb480 O483 2.453 . S
Tb480 O484 2.596 . S
Tb480 O485 2.374 . S
Tb480 O493 2.343 . S
Tb480 O495 2.353 . S
Tb480 O497 2.427 . S
Tb480 O498 2.513 . S
C481 O485 1.251 . S
C481 O487 1.263 . S
Tb482 O484 2.343 . S
Tb482 O487 2.353 . S
Tb482 O490 2.427 . S
Tb482 O491 2.513 . S
Tb482 O492 2.453 . S
Tb482 O493 2.596 . S
Tb482 O494 2.374 . S
O483 Tb480 2.453 . S
O483 C499 1.245 . S
O484 Tb480 2.596 . S
O484 Tb482 2.343 . S
O484 C499 1.259 . S
O485 Tb480 2.374 . S
O485 C481 1.251 . S
C486 O490 1.275 . S
C486 O491 1.246 . S
O487 C481 1.263 . S
O487 Tb482 2.353 . S
C488 O492 1.245 . S
C488 O493 1.259 . S
C489 O494 1.250 . S
C489 O495 1.263 . S
O490 Tb482 2.427 . S
O490 C486 1.275 . S
O491 Tb482 2.513 . S
O491 C486 1.246 . S
O492 Tb482 2.453 . S
O492 C488 1.245 . S
O493 Tb480 2.343 . S
O493 Tb482 2.596 . S
O493 C488 1.259 . S
O494 Tb482 2.374 . S
O494 C489 1.250 . S
O495 Tb480 2.353 . S
O495 C489 1.263 . S
C496 O497 1.275 . S
C496 O498 1.246 . S
O497 Tb480 2.427 . S
O497 C496 1.275 . S
O498 Tb480 2.513 . S
O498 C496 1.246 . S
C499 O483 1.245 . S
C499 O484 1.259 . S
Tb500 O503 2.453 . S
Tb500 O504 2.596 . S
Tb500 O505 2.374 . S
Tb500 O513 2.343 . S
Tb500 O515 2.353 . S
Tb500 O517 2.427 . S
Tb500 O518 2.513 . S
C501 O505 1.251 . S
C501 O507 1.263 . S
Tb502 O504 2.343 . S
Tb502 O507 2.353 . S
Tb502 O510 2.427 . S
Tb502 O511 2.513 . S
Tb502 O512 2.453 . S
Tb502 O513 2.596 . S
Tb502 O514 2.374 . S
O503 Tb500 2.453 . S
O503 C519 1.245 . S
O504 Tb500 2.596 . S
O504 Tb502 2.343 . S
O504 C519 1.259 . S
O505 Tb500 2.374 . S
O505 C501 1.251 . S
C506 O510 1.275 . S
C506 O511 1.246 . S
O507 C501 1.263 . S
O507 Tb502 2.353 . S
C508 O512 1.245 . S
C508 O513 1.259 . S
C509 O514 1.250 . S
C509 O515 1.263 . S
O510 Tb502 2.427 . S
O510 C506 1.275 . S
O511 Tb502 2.513 . S
O511 C506 1.246 . S
O512 Tb502 2.453 . S
O512 C508 1.245 . S
O513 Tb500 2.343 . S
O513 Tb502 2.596 . S
O513 C508 1.259 . S
O514 Tb502 2.374 . S
O514 C509 1.250 . S
O515 Tb500 2.353 . S
O515 C509 1.263 . S
C516 O517 1.275 . S
C516 O518 1.246 . S
O517 Tb500 2.427 . S
O517 C516 1.275 . S
O518 Tb500 2.513 . S
O518 C516 1.246 . S
C519 O503 1.245 . S
C519 O504 1.259 . S
Tb520 O523 2.453 . S
Tb520 O524 2.596 . S
Tb520 O525 2.374 . S
Tb520 O533 2.343 . S
Tb520 O535 2.353 . S
Tb520 O537 2.427 1_554 S
Tb520 O538 2.513 1_554 S
C521 O525 1.249 . S
C521 O527 1.263 1_565 S
Tb522 O524 2.343 . S
Tb522 O527 2.353 1_565 S
Tb522 O530 2.427 . S
Tb522 O531 2.513 . S
Tb522 O532 2.453 . S
Tb522 O533 2.596 . S
Tb522 O534 2.374 . S
O523 Tb520 2.453 . S
O523 C539 1.245 . S
O524 Tb520 2.596 . S
O524 Tb522 2.343 . S
O524 C539 1.259 . S
O525 Tb520 2.374 . S
O525 C521 1.249 . S
C526 O530 1.275 . S
C526 O531 1.246 . S
O527 C521 1.263 1_545 S
O527 Tb522 2.353 1_545 S
C528 O532 1.245 1_556 S
C528 O533 1.259 1_556 S
C529 O534 1.250 . S
C529 O535 1.263 . S
O530 Tb522 2.427 . S
O530 C526 1.275 . S
O531 Tb522 2.513 . S
O531 C526 1.246 . S
O532 Tb522 2.453 . S
O532 C528 1.245 1_554 S
O533 Tb520 2.343 . S
O533 Tb522 2.596 . S
O533 C528 1.259 1_554 S
O534 Tb522 2.374 . S
O534 C529 1.250 . S
O535 Tb520 2.353 . S
O535 C529 1.263 . S
C536 O537 1.275 . S
C536 O538 1.246 . S
O537 Tb520 2.427 1_556 S
O537 C536 1.275 . S
O538 Tb520 2.513 1_556 S
O538 C536 1.246 . S
C539 O523 1.245 . S
C539 O524 1.259 . S
Tb540 O543 2.453 . S
Tb540 O544 2.596 . S
Tb540 O545 2.374 . S
Tb540 O553 2.343 . S
Tb540 O555 2.353 . S
Tb540 O557 2.427 . S
Tb540 O558 2.513 . S
C541 O545 1.251 . S
C541 O547 1.263 . S
Tb542 O544 2.343 . S
Tb542 O547 2.353 . S
Tb542 O550 2.427 . S
Tb542 O551 2.513 . S
Tb542 O552 2.453 . S
Tb542 O553 2.596 . S
Tb542 O554 2.374 . S
O543 Tb540 2.453 . S
O543 C559 1.245 . S
O544 Tb540 2.596 . S
O544 Tb542 2.343 . S
O544 C559 1.259 . S
O545 Tb540 2.374 . S
O545 C541 1.251 . S
C546 O550 1.275 . S
C546 O551 1.246 . S
O547 C541 1.263 . S
O547 Tb542 2.353 . S
C548 O552 1.245 . S
C548 O553 1.259 . S
C549 O554 1.250 . S
C549 O555 1.263 . S
O550 Tb542 2.427 . S
O550 C546 1.275 . S
O551 Tb542 2.513 . S
O551 C546 1.246 . S
O552 Tb542 2.453 . S
O552 C548 1.245 . S
O553 Tb540 2.343 . S
O553 Tb542 2.596 . S
O553 C548 1.259 . S
O554 Tb542 2.374 . S
O554 C549 1.250 . S
O555 Tb540 2.353 . S
O555 C549 1.263 . S
C556 O557 1.275 . S
C556 O558 1.246 . S
O557 Tb540 2.427 . S
O557 C556 1.275 . S
O558 Tb540 2.513 . S
O558 C556 1.246 . S
C559 O543 1.245 . S
C559 O544 1.259 . S
Tb560 O563 2.453 . S
Tb560 O564 2.596 . S
Tb560 O565 2.374 . S
Tb560 O573 2.343 . S
Tb560 O575 2.353 . S
Tb560 O577 2.427 1_554 S
Tb560 O578 2.513 1_554 S
C561 O565 1.251 . S
C561 O567 1.263 . S
Tb562 O564 2.343 . S
Tb562 O567 2.353 . S
Tb562 O570 2.427 . S
Tb562 O571 2.513 . S
Tb562 O572 2.453 . S
Tb562 O573 2.596 . S
Tb562 O574 2.374 . S
O563 Tb560 2.453 . S
O563 C579 1.245 . S
O564 Tb560 2.596 . S
O564 Tb562 2.343 . S
O564 C579 1.259 . S
O565 Tb560 2.374 . S
O565 C561 1.251 . S
C566 O570 1.275 . S
C566 O571 1.246 . S
O567 C561 1.263 . S
O567 Tb562 2.353 . S
C568 O572 1.245 . S
C568 O573 1.259 . S
C569 O574 1.250 . S
C569 O575 1.263 . S
O570 Tb562 2.427 . S
O570 C566 1.275 . S
O571 Tb562 2.513 . S
O571 C566 1.246 . S
O572 Tb562 2.453 . S
O572 C568 1.245 . S
O573 Tb560 2.343 . S
O573 Tb562 2.596 . S
O573 C568 1.259 . S
O574 Tb562 2.374 . S
O574 C569 1.250 . S
O575 Tb560 2.353 . S
O575 C569 1.263 . S
C576 O577 1.275 . S
C576 O578 1.246 . S
O577 Tb560 2.427 1_556 S
O577 C576 1.275 . S
O578 Tb560 2.513 1_556 S
O578 C576 1.246 . S
C579 O563 1.245 . S
C579 O564 1.259 . S
Tb580 O583 2.453 . S
Tb580 O584 2.596 . S
Tb580 O585 2.374 . S
Tb580 O593 2.343 1_556 S
Tb580 O595 2.353 . S
Tb580 O597 2.427 1_556 S
Tb580 O598 2.513 1_556 S
C581 O585 1.251 . S
C581 O587 1.263 . S
Tb582 O584 2.343 . S
Tb582 O587 2.353 . S
Tb582 O590 2.427 . S
Tb582 O591 2.513 . S
Tb582 O592 2.453 1_556 S
Tb582 O593 2.596 1_556 S
Tb582 O594 2.374 . S
O583 Tb580 2.453 . S
O583 C599 1.245 . S
O584 Tb580 2.596 . S
O584 Tb582 2.343 . S
O584 C599 1.259 . S
O585 Tb580 2.374 . S
O585 C581 1.251 . S
C586 O590 1.275 . S
C586 O591 1.246 . S
O587 C581 1.263 . S
O587 Tb582 2.353 . S
C588 O592 1.245 . S
C588 O593 1.259 . S
C589 O594 1.250 . S
C589 O595 1.263 . S
O590 Tb582 2.427 . S
O590 C586 1.275 . S
O591 Tb582 2.513 . S
O591 C586 1.246 . S
O592 Tb582 2.453 1_554 S
O592 C588 1.245 . S
O593 Tb580 2.343 1_554 S
O593 Tb582 2.596 1_554 S
O593 C588 1.259 . S
O594 Tb582 2.374 . S
O594 C589 1.250 . S
O595 Tb580 2.353 . S
O595 C589 1.263 . S
C596 O597 1.275 . S
C596 O598 1.246 . S
O597 Tb580 2.427 1_554 S
O597 C596 1.275 . S
O598 Tb580 2.513 1_554 S
O598 C596 1.246 . S
C599 O583 1.245 . S
C599 O584 1.259 . S
Tb600 O603 2.453 . S
Tb600 O604 2.596 . S
Tb600 O605 2.374 . S
Tb600 O613 2.343 . S
Tb600 O615 2.353 . S
Tb600 O617 2.427 . S
Tb600 O618 2.513 . S
C601 O605 1.250 . S
C601 O607 1.263 1_545 S
Tb602 O604 2.343 . S
Tb602 O607 2.353 1_545 S
Tb602 O610 2.427 . S
Tb602 O611 2.513 . S
Tb602 O612 2.453 . S
Tb602 O613 2.596 . S
Tb602 O614 2.374 . S
O603 Tb600 2.453 . S
O603 C619 1.245 . S
O604 Tb600 2.596 . S
O604 Tb602 2.343 . S
O604 C619 1.259 . S
O605 Tb600 2.374 . S
O605 C601 1.250 . S
C606 O610 1.275 . S
C606 O611 1.246 . S
O607 C601 1.263 1_565 S
O607 Tb602 2.353 1_565 S
C608 O612 1.245 . S
C608 O613 1.259 . S
C609 O614 1.250 . S
C609 O615 1.263 . S
O610 Tb602 2.427 . S
O610 C606 1.275 . S
O611 Tb602 2.513 . S
O611 C606 1.246 . S
O612 Tb602 2.453 . S
O612 C608 1.245 . S
O613 Tb600 2.343 . S
O613 Tb602 2.596 . S
O613 C608 1.259 . S
O614 Tb602 2.374 . S
O614 C609 1.250 . S
O615 Tb600 2.353 . S
O615 C609 1.263 . S
C616 O617 1.275 . S
C616 O618 1.246 . S
O617 Tb600 2.427 . S
O617 C616 1.275 . S
O618 Tb600 2.513 . S
O618 C616 1.246 . S
C619 O603 1.245 . S
C619 O604 1.259 . S
Tb620 O623 2.453 . S
Tb620 O624 2.596 . S
Tb620 O625 2.374 . S
Tb620 O633 2.343 . S
Tb620 O635 2.353 . S
Tb620 O637 2.427 . S
Tb620 O638 2.513 . S
C621 O625 1.251 . S
C621 O627 1.263 . S
Tb622 O624 2.343 . S
Tb622 O627 2.353 . S
Tb622 O630 2.427 . S
Tb622 O631 2.513 . S
Tb622 O632 2.453 . S
Tb622 O633 2.596 . S
Tb622 O634 2.374 . S
O623 Tb620 2.453 . S
O623 C639 1.245 . S
O624 Tb620 2.596 . S
O624 Tb622 2.343 . S
O624 C639 1.259 . S
O625 Tb620 2.374 . S
O625 C621 1.251 . S
C626 O630 1.275 . S
C626 O631 1.246 . S
O627 C621 1.263 . S
O627 Tb622 2.353 . S
C628 O632 1.245 . S
C628 O633 1.259 . S
C629 O634 1.250 . S
C629 O635 1.263 . S
O630 Tb622 2.427 . S
O630 C626 1.275 . S
O631 Tb622 2.513 . S
O631 C626 1.246 . S
O632 Tb622 2.453 . S
O632 C628 1.245 . S
O633 Tb620 2.343 . S
O633 Tb622 2.596 . S
O633 C628 1.259 . S
O634 Tb622 2.374 . S
O634 C629 1.250 . S
O635 Tb620 2.353 . S
O635 C629 1.263 . S
C636 O637 1.275 . S
C636 O638 1.246 . S
O637 Tb620 2.427 . S
O637 C636 1.275 . S
O638 Tb620 2.513 . S
O638 C636 1.246 . S
C639 O623 1.245 . S
C639 O624 1.259 . S
C640 C641 1.387 . S
C640 H644 0.950 . S
C640 C649 1.390 . S
C641 C640 1.387 . S
C641 C643 1.387 . S
H642 C649 0.950 . S
C643 C641 1.387 . S
C643 C645 1.390 . S
C643 H647 0.950 . S
H644 C640 0.950 . S
C645 C643 1.390 . S
C645 C646 1.387 . S
C645 H648 0.950 . S
C646 C645 1.387 . S
C646 C649 1.387 . S
H647 C643 0.950 . S
H648 C645 0.950 . S
C649 C640 1.390 . S
C649 H642 0.950 . S
C649 C646 1.387 . S
C650 C651 1.387 . S
C650 H654 0.950 . S
C650 C659 1.390 . S
C651 C650 1.387 . S
C651 C653 1.387 . S
H652 C659 0.950 . S
C653 C651 1.387 . S
C653 C655 1.390 . S
C653 H657 0.950 . S
H654 C650 0.950 . S
C655 C653 1.390 . S
C655 C656 1.387 . S
C655 H658 0.950 . S
C656 C655 1.387 . S
C656 C659 1.387 . S
H657 C653 0.950 . S
H658 C655 0.950 . S
C659 C650 1.390 . S
C659 H652 0.950 . S
C659 C656 1.387 . S
C660 C661 1.387 . S
C660 H664 0.950 . S
C660 C669 1.390 . S
C661 C660 1.387 . S
C661 C663 1.387 . S
H662 C669 0.950 . S
C663 C661 1.387 . S
C663 C665 1.390 . S
C663 H667 0.950 . S
H664 C660 0.950 . S
C665 C663 1.390 . S
C665 C666 1.387 . S
C665 H668 0.950 . S
C666 C665 1.387 . S
C666 C669 1.387 . S
H667 C663 0.950 . S
H668 C665 0.950 . S
C669 C660 1.390 . S
C669 H662 0.950 . S
C669 C666 1.387 . S
C670 C671 1.387 . S
C670 H674 0.950 . S
C670 C679 1.390 . S
C671 C670 1.387 . S
C671 C673 1.387 . S
H672 C679 0.950 . S
C673 C671 1.387 . S
C673 C675 1.390 . S
C673 H677 0.950 . S
H674 C670 0.950 . S
C675 C673 1.390 . S
C675 C676 1.387 . S
C675 H678 0.950 . S
C676 C675 1.387 . S
C676 C679 1.387 . S
H677 C673 0.950 . S
H678 C675 0.950 . S
C679 C670 1.390 . S
C679 H672 0.950 . S
C679 C676 1.387 . S
C680 C681 1.387 . S
C680 H684 0.950 . S
C680 C689 1.390 . S
C681 C680 1.387 . S
C681 C683 1.387 . S
H682 C689 0.950 . S
C683 C681 1.387 . S
C683 C685 1.390 . S
C683 H687 0.950 . S
H684 C680 0.950 . S
C685 C683 1.390 . S
C685 C686 1.387 . S
C685 H688 0.950 . S
C686 C685 1.387 . S
C686 C689 1.387 . S
H687 C683 0.950 . S
H688 C685 0.950 . S
C689 C680 1.390 . S
C689 H682 0.950 . S
C689 C686 1.387 . S
C690 C691 1.387 . S
C690 H694 0.950 . S
C690 C699 1.390 . S
C691 C690 1.387 . S
C691 C693 1.387 . S
H692 C699 0.950 . S
C693 C691 1.387 . S
C693 C695 1.390 . S
C693 H697 0.950 . S
H694 C690 0.950 . S
C695 C693 1.390 . S
C695 C696 1.387 . S
C695 H698 0.950 . S
C696 C695 1.387 . S
C696 C699 1.387 . S
H697 C693 0.950 . S
H698 C695 0.950 . S
C699 C690 1.390 . S
C699 H692 0.950 . S
C699 C696 1.387 . S
C700 C701 1.387 . S
C700 H704 0.950 . S
C700 C709 1.390 . S
C701 C700 1.387 . S
C701 C703 1.387 . S
H702 C709 0.950 . S
C703 C701 1.387 . S
C703 C705 1.390 . S
C703 H707 0.950 . S
H704 C700 0.950 . S
C705 C703 1.390 . S
C705 C706 1.387 . S
C705 H708 0.950 . S
C706 C705 1.387 . S
C706 C709 1.387 . S
H707 C703 0.950 . S
H708 C705 0.950 . S
C709 C700 1.390 . S
C709 H702 0.950 . S
C709 C706 1.387 . S
C710 C711 1.387 . S
C710 H714 0.950 . S
C710 C719 1.390 . S
C711 C710 1.387 . S
C711 C713 1.387 . S
H712 C719 0.950 . S
C713 C711 1.387 . S
C713 C715 1.390 . S
C713 H717 0.950 . S
H714 C710 0.950 . S
C715 C713 1.390 . S
C715 C716 1.387 . S
C715 H718 0.950 . S
C716 C715 1.387 . S
C716 C719 1.387 . S
H717 C713 0.950 . S
H718 C715 0.950 . S
C719 C710 1.390 . S
C719 H712 0.950 . S
C719 C716 1.387 . S
C720 C721 1.387 . S
C720 H724 0.950 . S
C720 C729 1.390 1_545 S
C721 C720 1.387 . S
C721 C723 1.387 . S
H722 C729 0.950 . S
C723 C721 1.387 . S
C723 C725 1.390 1_545 S
C723 H727 0.950 . S
H724 C720 0.950 . S
C725 C723 1.390 1_565 S
C725 C726 1.387 . S
C725 H728 0.950 . S
C726 C725 1.387 . S
C726 C729 1.387 . S
H727 C723 0.950 . S
H728 C725 0.950 . S
C729 C720 1.390 1_565 S
C729 H722 0.950 . S
C729 C726 1.387 . S
C730 C731 1.387 . S
C730 H734 0.950 . S
C730 C739 1.390 . S
C731 C730 1.387 . S
C731 C733 1.387 . S
H732 C739 0.950 . S
C733 C731 1.387 . S
C733 C735 1.390 . S
C733 H737 0.950 . S
H734 C730 0.950 . S
C735 C733 1.390 . S
C735 C736 1.387 . S
C735 H738 0.950 . S
C736 C735 1.387 . S
C736 C739 1.387 . S
H737 C733 0.950 . S
H738 C735 0.950 . S
C739 C730 1.390 . S
C739 H732 0.950 . S
C739 C736 1.387 . S
C740 C741 1.387 . S
C740 H744 0.950 . S
C740 C749 1.390 1_545 S
C741 C740 1.387 . S
C741 C743 1.387 . S
H742 C749 0.950 . S
C743 C741 1.387 . S
C743 C745 1.390 1_545 S
C743 H747 0.950 . S
H744 C740 0.950 . S
C745 C743 1.390 1_565 S
C745 C746 1.387 . S
C745 H748 0.950 . S
C746 C745 1.387 . S
C746 C749 1.387 . S
H747 C743 0.950 . S
H748 C745 0.950 . S
C749 C740 1.390 1_565 S
C749 H742 0.950 . S
C749 C746 1.387 . S
C750 C751 1.387 . S
C750 H754 0.950 . S
C750 C759 1.390 . S
C751 C750 1.387 . S
C751 C753 1.387 . S
H752 C759 0.950 . S
C753 C751 1.387 . S
C753 C755 1.390 . S
C753 H757 0.950 . S
H754 C750 0.950 . S
C755 C753 1.390 . S
C755 C756 1.387 . S
C755 H758 0.950 . S
C756 C755 1.387 . S
C756 C759 1.387 . S
H757 C753 0.950 . S
H758 C755 0.950 . S
C759 C750 1.390 . S
C759 H752 0.950 . S
C759 C756 1.387 . S
C760 C761 1.387 . S
C760 H764 0.950 . S
C760 C769 1.390 1_545 S
C761 C760 1.387 . S
C761 C763 1.387 . S
H762 C769 0.950 . S
C763 C761 1.387 . S
C763 C765 1.390 1_545 S
C763 H767 0.950 . S
H764 C760 0.950 . S
C765 C763 1.390 1_565 S
C765 C766 1.387 . S
C765 H768 0.950 . S
C766 C765 1.387 . S
C766 C769 1.387 . S
H767 C763 0.950 . S
H768 C765 0.950 . S
C769 C760 1.390 1_565 S
C769 H762 0.950 . S
C769 C766 1.387 . S
C770 C771 1.387 . S
C770 H774 0.950 . S
C770 C779 1.390 . S
C771 C770 1.387 . S
C771 C773 1.387 . S
H772 C779 0.950 . S
C773 C771 1.387 . S
C773 C775 1.390 . S
C773 H777 0.950 . S
H774 C770 0.950 . S
C775 C773 1.390 . S
C775 C776 1.387 . S
C775 H778 0.950 . S
C776 C775 1.387 . S
C776 C779 1.387 . S
H777 C773 0.950 . S
H778 C775 0.950 . S
C779 C770 1.390 . S
C779 H772 0.950 . S
C779 C776 1.387 . S
C780 C781 1.387 . S
C780 H784 0.950 . S
C780 C789 1.390 1_565 S
C781 C780 1.387 . S
C781 C783 1.387 . S
H782 C789 0.950 . S
C783 C781 1.387 . S
C783 C785 1.390 1_565 S
C783 H787 0.950 . S
H784 C780 0.950 . S
C785 C783 1.390 1_545 S
C785 C786 1.387 . S
C785 H788 0.950 . S
C786 C785 1.387 . S
C786 C789 1.387 . S
H787 C783 0.950 . S
H788 C785 0.950 . S
C789 C780 1.390 1_545 S
C789 H782 0.950 . S
C789 C786 1.387 . S
C790 C791 1.387 . S
C790 H794 0.950 . S
C790 C799 1.390 . S
C791 C790 1.387 . S
C791 C793 1.387 . S
H792 C799 0.950 . S
C793 C791 1.387 . S
C793 C795 1.390 . S
C793 H797 0.950 . S
H794 C790 0.950 . S
C795 C793 1.390 . S
C795 C796 1.387 . S
C795 H798 0.950 . S
C796 C795 1.387 . S
C796 C799 1.387 . S
H797 C793 0.950 . S
H798 C795 0.950 . S
C799 C790 1.390 . S
C799 H792 0.950 . S
C799 C796 1.387 . S
C800 C801 1.387 . S
C800 H804 0.950 . S
C800 C809 1.390 . S
C801 C800 1.387 . S
C801 C803 1.387 . S
H802 C809 0.950 . S
C803 C801 1.387 . S
C803 C805 1.390 . S
C803 H807 0.950 . S
H804 C800 0.950 . S
C805 C803 1.390 . S
C805 C806 1.387 . S
C805 H808 0.950 . S
C806 C805 1.387 . S
C806 C809 1.387 . S
H807 C803 0.950 . S
H808 C805 0.950 . S
C809 C800 1.390 . S
C809 H802 0.950 . S
C809 C806 1.387 . S
C810 C811 1.387 . S
C810 H814 0.950 . S
C810 C819 1.390 . S
C811 C810 1.387 . S
C811 C813 1.387 . S
H812 C819 0.950 . S
C813 C811 1.387 . S
C813 C815 1.390 . S
C813 H817 0.950 . S
H814 C810 0.950 . S
C815 C813 1.390 . S
C815 C816 1.387 . S
C815 H818 0.950 . S
C816 C815 1.387 . S
C816 C819 1.387 . S
H817 C813 0.950 . S
H818 C815 0.950 . S
C819 C810 1.390 . S
C819 H812 0.950 . S
C819 C816 1.387 . S
C820 C821 1.387 . S
C820 H824 0.950 . S
C820 C829 1.390 . S
C821 C820 1.387 . S
C821 C823 1.387 . S
H822 C829 0.950 . S
C823 C821 1.387 . S
C823 C825 1.390 . S
C823 H827 0.950 . S
H824 C820 0.950 . S
C825 C823 1.390 . S
C825 C826 1.387 . S
C825 H828 0.950 . S
C826 C825 1.387 . S
C826 C829 1.387 . S
H827 C823 0.950 . S
H828 C825 0.950 . S
C829 C820 1.390 . S
C829 H822 0.950 . S
C829 C826 1.387 . S
C830 C831 1.390 . S
C830 H834 0.950 . S
C830 C839 1.390 . S
C831 C830 1.390 . S
C831 C833 1.389 . S
H832 C839 0.950 . S
C833 C831 1.389 . S
C833 C835 1.390 . S
C833 H837 0.950 . S
H834 C830 0.950 . S
C835 C833 1.390 . S
C835 C836 1.387 . S
C835 H838 0.950 . S
C836 C835 1.387 . S
C836 C839 1.387 . S
H837 C833 0.950 . S
H838 C835 0.950 . S
C839 C830 1.390 . S
C839 H832 0.950 . S
C839 C836 1.387 . S
C840 C841 1.387 . S
C840 H844 0.950 . S
C840 C849 1.390 . S
C841 C840 1.387 . S
C841 C843 1.387 . S
H842 C849 0.950 . S
C843 C841 1.387 . S
C843 C845 1.390 . S
C843 H847 0.950 . S
H844 C840 0.950 . S
C845 C843 1.390 . S
C845 C846 1.387 . S
C845 H848 0.950 . S
C846 C845 1.387 . S
C846 C849 1.387 . S
H847 C843 0.950 . S
H848 C845 0.950 . S
C849 C840 1.390 . S
C849 H842 0.950 . S
C849 C846 1.387 . S
C850 C851 1.387 . S
C850 H854 0.950 . S
C850 C859 1.390 . S
C851 C850 1.387 . S
C851 C853 1.387 . S
H852 C859 0.950 . S
C853 C851 1.387 . S
C853 C855 1.390 . S
C853 H857 0.950 . S
H854 C850 0.950 . S
C855 C853 1.390 . S
C855 C856 1.387 . S
C855 H858 0.950 . S
C856 C855 1.387 . S
C856 C859 1.387 . S
H857 C853 0.950 . S
H858 C855 0.950 . S
C859 C850 1.390 . S
C859 H852 0.950 . S
C859 C856 1.387 . S
C860 C861 1.387 . S
C860 H864 0.950 . S
C860 C869 1.390 . S
C861 C860 1.387 . S
C861 C863 1.387 1_554 S
H862 C869 0.950 . S
C863 C861 1.387 1_556 S
C863 C865 1.390 . S
C863 H867 0.950 . S
H864 C860 0.950 . S
C865 C863 1.390 . S
C865 C866 1.387 . S
C865 H868 0.950 . S
C866 C865 1.387 . S
C866 C869 1.387 1_556 S
H867 C863 0.950 . S
H868 C865 0.950 . S
C869 C860 1.390 . S
C869 H862 0.950 . S
C869 C866 1.387 1_554 S
C870 C871 1.387 . S
C870 H874 0.950 . S
C870 C879 1.390 . S
C871 C870 1.387 . S
C871 C873 1.387 . S
H872 C879 0.950 . S
C873 C871 1.387 . S
C873 C875 1.390 . S
C873 H877 0.950 . S
H874 C870 0.950 . S
C875 C873 1.390 . S
C875 C876 1.387 . S
C875 H878 0.950 . S
C876 C875 1.387 . S
C876 C879 1.387 . S
H877 C873 0.950 . S
H878 C875 0.950 . S
C879 C870 1.390 . S
C879 H872 0.950 . S
C879 C876 1.387 . S
C880 C881 1.387 . S
C880 H884 0.950 . S
C880 C889 1.390 . S
C881 C880 1.387 . S
C881 C883 1.387 . S
H882 C889 0.950 1_556 S
C883 C881 1.387 . S
C883 C885 1.390 . S
C883 H887 0.950 . S
H884 C880 0.950 . S
C885 C883 1.390 . S
C885 C886 1.388 1_554 S
C885 H888 0.950 . S
C886 C885 1.388 1_556 S
C886 C889 1.388 1_556 S
H887 C883 0.950 . S
H888 C885 0.950 . S
C889 C880 1.390 . S
C889 H882 0.950 1_554 S
C889 C886 1.388 1_554 S
C890 C891 1.387 . S
C890 H894 0.950 . S
C890 C899 1.390 . S
C891 C890 1.387 . S
C891 C893 1.387 . S
H892 C899 0.950 . S
C893 C891 1.387 . S
C893 C895 1.390 . S
C893 H897 0.950 . S
H894 C890 0.950 . S
C895 C893 1.390 . S
C895 C896 1.387 . S
C895 H898 0.950 . S
C896 C895 1.387 . S
C896 C899 1.387 . S
H897 C893 0.950 . S
H898 C895 0.950 . S
C899 C890 1.390 . S
C899 H892 0.950 . S
C899 C896 1.387 . S
C900 C901 1.387 . S
C900 H904 0.950 . S
C900 C909 1.390 . S
C901 C900 1.387 . S
C901 C903 1.387 . S
H902 C909 0.950 . S
C903 C901 1.387 . S
C903 C905 1.390 . S
C903 H907 0.950 . S
H904 C900 0.950 . S
C905 C903 1.390 . S
C905 C906 1.387 . S
C905 H908 0.950 . S
C906 C905 1.387 . S
C906 C909 1.387 . S
H907 C903 0.950 . S
H908 C905 0.950 . S
C909 C900 1.390 . S
C909 H902 0.950 . S
C909 C906 1.387 . S
C910 C911 1.387 . S
C910 H914 0.950 . S
C910 C919 1.390 . S
C911 C910 1.387 . S
C911 C913 1.387 . S
H912 C919 0.950 . S
C913 C911 1.387 . S
C913 C915 1.390 . S
C913 H917 0.950 . S
H914 C910 0.950 . S
C915 C913 1.390 . S
C915 C916 1.387 . S
C915 H918 0.950 . S
C916 C915 1.387 . S
C916 C919 1.387 . S
H917 C913 0.950 . S
H918 C915 0.950 . S
C919 C910 1.390 . S
C919 H912 0.950 . S
C919 C916 1.387 . S
C920 C921 1.387 . S
C920 H924 0.950 . S
C920 C929 1.390 . S
C921 C920 1.387 . S
C921 C923 1.387 . S
H922 C929 0.950 . S
C923 C921 1.387 . S
C923 C925 1.390 . S
C923 H927 0.950 . S
H924 C920 0.950 . S
C925 C923 1.390 . S
C925 C926 1.387 . S
C925 H928 0.950 . S
C926 C925 1.387 . S
C926 C929 1.387 . S
H927 C923 0.950 . S
H928 C925 0.950 . S
C929 C920 1.390 . S
C929 H922 0.950 . S
C929 C926 1.387 . S
C930 C931 1.387 . S
C930 H934 0.950 . S
C930 C939 1.390 . S
C931 C930 1.387 . S
C931 C933 1.387 . S
H932 C939 0.950 . S
C933 C931 1.387 . S
C933 C935 1.390 . S
C933 H937 0.950 . S
H934 C930 0.950 . S
C935 C933 1.390 . S
C935 C936 1.387 . S
C935 H938 0.950 . S
C936 C935 1.387 . S
C936 C939 1.387 . S
H937 C933 0.950 . S
H938 C935 0.950 . S
C939 C930 1.390 . S
C939 H932 0.950 . S
C939 C936 1.387 . S
C940 C941 1.387 . S
C940 H944 0.950 . S
C940 C949 1.390 . S
C941 C940 1.387 . S
C941 C943 1.387 . S
H942 C949 0.950 . S
C943 C941 1.387 . S
C943 C945 1.390 . S
C943 H947 0.950 . S
H944 C940 0.950 . S
C945 C943 1.390 . S
C945 C946 1.387 . S
C945 H948 0.950 . S
C946 C945 1.387 . S
C946 C949 1.387 . S
H947 C943 0.950 . S
H948 C945 0.950 . S
C949 C940 1.390 . S
C949 H942 0.950 . S
C949 C946 1.387 . S
C950 C951 1.387 1_554 S
C950 H954 0.950 . S
C950 C959 1.390 . S
C951 C950 1.387 1_556 S
C951 C953 1.387 . S
H952 C959 0.950 . S
C953 C951 1.387 . S
C953 C955 1.390 . S
C953 H957 0.950 . S
H954 C950 0.950 . S
C955 C953 1.390 . S
C955 C956 1.387 1_556 S
C955 H958 0.950 . S
C956 C955 1.387 1_554 S
C956 C959 1.387 . S
H957 C953 0.950 . S
H958 C955 0.950 . S
C959 C950 1.390 . S
C959 H952 0.950 . S
C959 C956 1.387 . S
C960 C961 1.387 1_455 S
C960 H964 0.950 . S
C960 C969 1.390 . S
C961 C960 1.387 1_655 S
C961 C963 1.387 . S
H962 C969 0.950 . S
C963 C961 1.387 . S
C963 C965 1.390 . S
C963 H967 0.950 . S
H964 C960 0.950 . S
C965 C963 1.390 . S
C965 C966 1.387 1_655 S
C965 H968 0.950 . S
C966 C965 1.387 1_455 S
C966 C969 1.387 . S
H967 C963 0.950 . S
H968 C965 0.950 . S
C969 C960 1.390 . S
C969 H962 0.950 . S
C969 C966 1.387 . S
C970 C971 1.387 . S
C970 H974 0.950 . S
C970 C979 1.390 . S
C971 C970 1.387 . S
C971 C973 1.387 . S
H972 C979 0.950 . S
C973 C971 1.387 . S
C973 C975 1.390 . S
C973 H977 0.950 . S
H974 C970 0.950 . S
C975 C973 1.390 . S
C975 C976 1.387 . S
C975 H978 0.950 . S
C976 C975 1.387 . S
C976 C979 1.387 . S
H977 C973 0.950 . S
H978 C975 0.950 . S
C979 C970 1.390 . S
C979 H972 0.950 . S
C979 C976 1.387 . S
C980 C981 1.387 . S
C980 H984 0.950 . S
C980 C989 1.390 . S
C981 C980 1.387 . S
C981 C983 1.387 . S
H982 C989 0.950 . S
C983 C981 1.387 . S
C983 C985 1.390 . S
C983 H987 0.950 . S
H984 C980 0.950 . S
C985 C983 1.390 . S
C985 C986 1.387 . S
C985 H988 0.950 . S
C986 C985 1.387 . S
C986 C989 1.387 . S
H987 C983 0.950 . S
H988 C985 0.950 . S
C989 C980 1.390 . S
C989 H982 0.950 . S
C989 C986 1.387 . S
C990 C991 1.387 . S
C990 H994 0.950 . S
C990 C999 1.390 . S
C991 C990 1.387 . S
C991 C993 1.387 . S
H992 C999 0.950 . S
C993 C991 1.387 . S
C993 C995 1.390 . S
C993 H997 0.950 . S
H994 C990 0.950 . S
C995 C993 1.390 . S
C995 C996 1.387 . S
C995 H998 0.950 . S
C996 C995 1.387 . S
C996 C999 1.387 . S
H997 C993 0.950 . S
H998 C995 0.950 . S
C999 C990 1.390 . S
C999 H992 0.950 . S
C999 C996 1.387 . S
C1000 C1001 1.387 . S
C1000 H1004 0.950 . S
C1000 C1009 1.390 1_655 S
C1001 C1000 1.387 . S
C1001 C1003 1.387 . S
H1002 C1009 0.950 . S
C1003 C1001 1.387 . S
C1003 C1005 1.390 1_655 S
C1003 H1007 0.950 . S
H1004 C1000 0.950 . S
C1005 C1003 1.390 1_455 S
C1005 C1006 1.387 . S
C1005 H1008 0.950 . S
C1006 C1005 1.387 . S
C1006 C1009 1.387 . S
H1007 C1003 0.950 . S
H1008 C1005 0.950 . S
C1009 C1000 1.390 1_455 S
C1009 H1002 0.950 . S
C1009 C1006 1.387 . S
C1010 C1011 1.387 . S
C1010 H1014 0.950 . S
C1010 C1019 1.390 . S
C1011 C1010 1.387 . S
C1011 C1013 1.387 . S
H1012 C1019 0.950 . S
C1013 C1011 1.387 . S
C1013 C1015 1.390 . S
C1013 H1017 0.950 . S
H1014 C1010 0.950 . S
C1015 C1013 1.390 . S
C1015 C1016 1.387 . S
C1015 H1018 0.950 . S
C1016 C1015 1.387 . S
C1016 C1019 1.387 . S
H1017 C1013 0.950 . S
H1018 C1015 0.950 . S
C1019 C1010 1.390 . S
C1019 H1012 0.950 . S
C1019 C1016 1.387 . S
C1020 C1021 1.387 . S
C1020 H1024 0.950 . S
C1020 C1029 1.390 . S
C1021 C1020 1.387 . S
C1021 C1023 1.387 . S
H1022 C1029 0.950 . S
C1023 C1021 1.387 . S
C1023 C1025 1.390 . S
C1023 H1027 0.950 . S
H1024 C1020 0.950 . S
C1025 C1023 1.390 . S
C1025 C1026 1.387 . S
C1025 H1028 0.950 . S
C1026 C1025 1.387 . S
C1026 C1029 1.387 . S
H1027 C1023 0.950 . S
H1028 C1025 0.950 . S
C1029 C1020 1.390 . S
C1029 H1022 0.950 . S
C1029 C1026 1.387 . S
C1030 C1031 1.387 . S
C1030 H1034 0.950 . S
C1030 C1039 1.390 . S
C1031 C1030 1.387 . S
C1031 C1033 1.387 . S
H1032 C1039 0.950 . S
C1033 C1031 1.387 . S
C1033 C1035 1.390 . S
C1033 H1037 0.950 . S
H1034 C1030 0.950 . S
C1035 C1033 1.390 . S
C1035 C1036 1.387 . S
C1035 H1038 0.950 . S
C1036 C1035 1.387 . S
C1036 C1039 1.387 . S
H1037 C1033 0.950 . S
H1038 C1035 0.950 . S
C1039 C1030 1.390 . S
C1039 H1032 0.950 . S
C1039 C1036 1.387 . S
C1040 C1041 1.387 . S
C1040 H1044 0.950 . S
C1040 C1049 1.390 . S
C1041 C1040 1.387 . S
C1041 C1043 1.387 . S
H1042 C1049 0.950 . S
C1043 C1041 1.387 . S
C1043 C1045 1.390 . S
C1043 H1047 0.950 . S
H1044 C1040 0.950 . S
C1045 C1043 1.390 . S
C1045 C1046 1.387 . S
C1045 H1048 0.950 . S
C1046 C1045 1.387 . S
C1046 C1049 1.387 . S
H1047 C1043 0.950 . S
H1048 C1045 0.950 . S
C1049 C1040 1.390 . S
C1049 H1042 0.950 . S
C1049 C1046 1.387 . S
C1050 C1051 1.387 . S
C1050 H1054 0.950 . S
C1050 C1059 1.390 . S
C1051 C1050 1.387 . S
C1051 C1053 1.387 . S
H1052 C1059 0.950 . S
C1053 C1051 1.387 . S
C1053 C1055 1.390 . S
C1053 H1057 0.950 . S
H1054 C1050 0.950 . S
C1055 C1053 1.390 . S
C1055 C1056 1.387 . S
C1055 H1058 0.950 . S
C1056 C1055 1.387 . S
C1056 C1059 1.387 . S
H1057 C1053 0.950 . S
H1058 C1055 0.950 . S
C1059 C1050 1.390 . S
C1059 H1052 0.950 . S
C1059 C1056 1.387 . S
C1060 C1061 1.387 . S
C1060 H1064 0.950 . S
C1060 C1069 1.390 . S
C1061 C1060 1.387 . S
C1061 C1063 1.387 . S
H1062 C1069 0.950 . S
C1063 C1061 1.387 . S
C1063 C1065 1.390 . S
C1063 H1067 0.950 . S
H1064 C1060 0.950 . S
C1065 C1063 1.390 . S
C1065 C1066 1.387 . S
C1065 H1068 0.950 . S
C1066 C1065 1.387 . S
C1066 C1069 1.387 . S
H1067 C1063 0.950 . S
H1068 C1065 0.950 . S
C1069 C1060 1.390 . S
C1069 H1062 0.950 . S
C1069 C1066 1.387 . S
C1070 C1071 1.387 . S
C1070 H1074 0.950 . S
C1070 C1079 1.390 . S
C1071 C1070 1.387 . S
C1071 C1073 1.387 . S
H1072 C1079 0.950 . S
C1073 C1071 1.387 . S
C1073 C1075 1.390 . S
C1073 H1077 0.950 . S
H1074 C1070 0.950 . S
C1075 C1073 1.390 . S
C1075 C1076 1.387 . S
C1075 H1078 0.950 . S
C1076 C1075 1.387 . S
C1076 C1079 1.387 . S
H1077 C1073 0.950 . S
H1078 C1075 0.950 . S
C1079 C1070 1.390 . S
C1079 H1072 0.950 . S
C1079 C1076 1.387 . S
C1080 C1081 1.387 . S
C1080 H1084 0.950 . S
C1080 C1089 1.390 . S
C1081 C1080 1.387 . S
C1081 C1083 1.387 1_545 S
H1082 C1089 0.950 . S
C1083 C1081 1.387 1_565 S
C1083 C1085 1.390 . S
C1083 H1087 0.950 . S
H1084 C1080 0.950 . S
C1085 C1083 1.390 . S
C1085 C1086 1.387 . S
C1085 H1088 0.950 . S
C1086 C1085 1.387 . S
C1086 C1089 1.387 1_565 S
H1087 C1083 0.950 . S
H1088 C1085 0.950 . S
C1089 C1080 1.390 . S
C1089 H1082 0.950 . S
C1089 C1086 1.387 1_545 S
C1090 C1091 1.369 1_655 S
C1090 H1094 0.950 . S
C1090 C1099 1.408 . S
C1091 C1090 1.369 1_455 S
C1091 C1093 1.387 1_545 S
H1092 C1099 0.950 . S
C1093 C1091 1.387 1_565 S
C1093 C1095 1.408 . S
C1093 H1097 0.950 . S
H1094 C1090 0.950 . S
C1095 C1093 1.408 . S
C1095 C1096 1.370 1_455 S
C1095 H1098 0.950 . S
C1096 C1095 1.370 1_655 S
C1096 C1099 1.387 1_565 S
H1097 C1093 0.950 . S
H1098 C1095 0.950 . S
C1099 C1090 1.408 . S
C1099 H1092 0.950 . S
C1099 C1096 1.387 1_545 S
C1100 C1101 1.387 1_545 S
C1100 H1104 0.950 . S
C1100 C1109 1.390 . S
C1101 C1100 1.387 1_565 S
C1101 C1103 1.387 . S
H1102 C1109 0.950 . S
C1103 C1101 1.387 . S
C1103 C1105 1.390 . S
C1103 H1107 0.950 . S
H1104 C1100 0.950 . S
C1105 C1103 1.390 . S
C1105 C1106 1.387 1_565 S
C1105 H1108 0.950 . S
C1106 C1105 1.387 1_545 S
C1106 C1109 1.387 . S
H1107 C1103 0.950 . S
H1108 C1105 0.950 . S
C1109 C1100 1.390 . S
C1109 H1102 0.950 . S
C1109 C1106 1.387 . S
C1110 C1111 1.387 1_565 S
C1110 H1114 0.950 . S
C1110 C1119 1.390 1_655 S
C1111 C1110 1.387 1_545 S
C1111 C1113 1.387 . S
H1112 C1119 0.950 . S
C1113 C1111 1.387 . S
C1113 C1115 1.390 1_655 S
C1113 H1117 0.950 . S
H1114 C1110 0.950 . S
C1115 C1113 1.390 1_455 S
C1115 C1116 1.387 1_545 S
C1115 H1118 0.950 . S
C1116 C1115 1.387 1_565 S
C1116 C1119 1.387 . S
H1117 C1113 0.950 . S
H1118 C1115 0.950 . S
C1119 C1110 1.390 1_455 S
C1119 H1112 0.950 . S
C1119 C1116 1.387 . S
C1120 C1121 1.387 1_655 S
C1120 H1124 0.954 . S
C1120 C1129 1.390 . S
C1121 C1120 1.387 1_455 S
C1121 C1123 1.387 . S
H1122 C1129 0.950 . S
C1123 C1121 1.387 . S
C1123 C1125 1.390 1_455 S
C1123 H1127 0.950 . S
H1124 C1120 0.954 . S
C1125 C1123 1.390 1_655 S
C1125 C1126 1.387 . S
C1125 H1128 0.950 . S
C1126 C1125 1.387 . S
C1126 C1129 1.387 . S
H1127 C1123 0.950 . S
H1128 C1125 0.950 . S
C1129 C1120 1.390 . S
C1129 H1122 0.950 . S
C1129 C1126 1.387 . S
C1130 C1131 1.387 . S
C1130 H1134 0.950 . S
C1130 C1139 1.390 . S
C1131 C1130 1.387 . S
C1131 C1133 1.387 . S
H1132 C1139 0.950 . S
C1133 C1131 1.387 . S
C1133 C1135 1.390 . S
C1133 H1137 0.950 . S
H1134 C1130 0.950 . S
C1135 C1133 1.390 . S
C1135 C1136 1.387 . S
C1135 H1138 0.950 . S
C1136 C1135 1.387 . S
C1136 C1139 1.387 . S
H1137 C1133 0.950 . S
H1138 C1135 0.950 . S
C1139 C1130 1.390 . S
C1139 H1132 0.950 . S
C1139 C1136 1.387 . S
C1140 C1141 1.387 . S
C1140 H1144 0.950 . S
C1140 C1149 1.390 . S
C1141 C1140 1.387 . S
C1141 C1143 1.387 . S
H1142 C1149 0.950 . S
C1143 C1141 1.387 . S
C1143 C1145 1.390 . S
C1143 H1147 0.950 . S
H1144 C1140 0.950 . S
C1145 C1143 1.390 . S
C1145 C1146 1.387 . S
C1145 H1148 0.950 . S
C1146 C1145 1.387 . S
C1146 C1149 1.387 . S
H1147 C1143 0.950 . S
H1148 C1145 0.950 . S
C1149 C1140 1.390 . S
C1149 H1142 0.950 . S
C1149 C1146 1.387 . S
C1150 C1151 1.387 . S
C1150 H1154 0.950 . S
C1150 C1159 1.390 . S
C1151 C1150 1.387 . S
C1151 C1153 1.387 . S
H1152 C1159 0.950 . S
C1153 C1151 1.387 . S
C1153 C1155 1.390 . S
C1153 H1157 0.950 . S
H1154 C1150 0.950 . S
C1155 C1153 1.390 . S
C1155 C1156 1.387 . S
C1155 H1158 0.950 . S
C1156 C1155 1.387 . S
C1156 C1159 1.387 . S
H1157 C1153 0.950 . S
H1158 C1155 0.950 . S
C1159 C1150 1.390 . S
C1159 H1152 0.950 . S
C1159 C1156 1.387 . S
C1160 C1161 1.387 . S
C1160 H1164 0.950 . S
C1160 C1169 1.390 1_655 S
C1161 C1160 1.387 . S
C1161 C1163 1.387 . S
H1162 C1169 0.950 . S
C1163 C1161 1.387 . S
C1163 C1165 1.390 1_655 S
C1163 H1167 0.950 . S
H1164 C1160 0.950 . S
C1165 C1163 1.390 1_455 S
C1165 C1166 1.387 . S
C1165 H1168 0.950 . S
C1166 C1165 1.387 . S
C1166 C1169 1.387 . S
H1167 C1163 0.950 . S
H1168 C1165 0.950 . S
C1169 C1160 1.390 1_455 S
C1169 H1162 0.950 . S
C1169 C1166 1.387 . S
C1170 C1171 1.387 . S
C1170 H1174 0.950 . S
C1170 C1179 1.390 . S
C1171 C1170 1.387 . S
C1171 C1173 1.387 . S
H1172 C1179 0.950 1_556 S
C1173 C1171 1.387 . S
C1173 C1175 1.390 . S
C1173 H1177 0.950 . S
H1174 C1170 0.950 . S
C1175 C1173 1.390 . S
C1175 C1176 1.387 1_554 S
C1175 H1178 0.950 . S
C1176 C1175 1.387 1_556 S
C1176 C1179 1.387 1_556 S
H1177 C1173 0.950 . S
H1178 C1175 0.950 . S
C1179 C1170 1.390 . S
C1179 H1172 0.950 1_554 S
C1179 C1176 1.387 1_554 S
C1180 C1181 1.387 . S
C1180 H1184 0.950 . S
C1180 C1189 1.390 . S
C1181 C1180 1.387 . S
C1181 C1183 1.387 . S
H1182 C1189 0.950 . S
C1183 C1181 1.387 . S
C1183 C1185 1.390 . S
C1183 H1187 0.950 . S
H1184 C1180 0.950 . S
C1185 C1183 1.390 . S
C1185 C1186 1.387 . S
C1185 H1188 0.950 . S
C1186 C1185 1.387 . S
C1186 C1189 1.387 . S
H1187 C1183 0.950 . S
H1188 C1185 0.950 . S
C1189 C1180 1.390 . S
C1189 H1182 0.950 . S
C1189 C1186 1.387 . S
C1190 C1191 1.387 . S
C1190 H1194 0.950 . S
C1190 C1199 1.390 . S
C1191 C1190 1.387 . S
C1191 C1193 1.387 . S
H1192 C1199 0.950 . S
C1193 C1191 1.387 . S
C1193 C1195 1.390 . S
C1193 H1197 0.950 . S
H1194 C1190 0.950 . S
C1195 C1193 1.390 . S
C1195 C1196 1.387 . S
C1195 H1198 0.950 . S
C1196 C1195 1.387 . S
C1196 C1199 1.387 . S
H1197 C1193 0.950 . S
H1198 C1195 0.950 . S
C1199 C1190 1.390 . S
C1199 H1192 0.950 . S
C1199 C1196 1.387 . S
C1200 C1201 1.387 . S
C1200 H1204 0.950 . S
C1200 C1209 1.390 1_455 S
C1201 C1200 1.387 . S
C1201 C1203 1.387 . S
H1202 C1209 0.950 . S
C1203 C1201 1.387 . S
C1203 C1205 1.390 1_455 S
C1203 H1207 0.950 . S
H1204 C1200 0.950 . S
C1205 C1203 1.390 1_655 S
C1205 C1206 1.387 . S
C1205 H1208 0.950 . S
C1206 C1205 1.387 . S
C1206 C1209 1.387 . S
H1207 C1203 0.950 . S
H1208 C1205 0.950 . S
C1209 C1200 1.390 1_655 S
C1209 H1202 0.950 . S
C1209 C1206 1.387 . S
C1210 C1211 1.387 . S
C1210 H1214 0.950 . S
C1210 C1219 1.390 1_554 S
C1211 C1210 1.387 . S
C1211 C1213 1.387 . S
H1212 C1219 0.950 . S
C1213 C1211 1.387 . S
C1213 C1215 1.390 . S
C1213 H1217 0.950 . S
H1214 C1210 0.950 . S
C1215 C1213 1.390 . S
C1215 C1216 1.387 1_554 S
C1215 H1218 0.950 . S
C1216 C1215 1.387 1_556 S
C1216 C1219 1.387 . S
H1217 C1213 0.950 . S
H1218 C1215 0.950 . S
C1219 C1210 1.390 1_556 S
C1219 H1212 0.950 . S
C1219 C1216 1.387 . S
C1220 C1221 1.387 . S
C1220 H1224 0.950 . S
C1220 C1229 1.390 . S
C1221 C1220 1.387 . S
C1221 C1223 1.387 . S
H1222 C1229 0.950 . S
C1223 C1221 1.387 . S
C1223 C1225 1.390 . S
C1223 H1227 0.950 . S
H1224 C1220 0.950 . S
C1225 C1223 1.390 . S
C1225 C1226 1.387 . S
C1225 H1228 0.950 . S
C1226 C1225 1.387 . S
C1226 C1229 1.387 . S
H1227 C1223 0.950 . S
H1228 C1225 0.950 . S
C1229 C1220 1.390 . S
C1229 H1222 0.950 . S
C1229 C1226 1.387 . S
C1230 C1231 1.387 . S
C1230 H1234 0.950 . S
C1230 C1239 1.390 . S
C1231 C1230 1.387 . S
C1231 C1233 1.387 . S
H1232 C1239 0.950 . S
C1233 C1231 1.387 . S
C1233 C1235 1.390 . S
C1233 H1237 0.950 . S
H1234 C1230 0.950 . S
C1235 C1233 1.390 . S
C1235 C1236 1.387 . S
C1235 H1238 0.950 . S
C1236 C1235 1.387 . S
C1236 C1239 1.387 . S
H1237 C1233 0.950 . S
H1238 C1235 0.950 . S
C1239 C1230 1.390 . S
C1239 H1232 0.950 . S
C1239 C1236 1.387 . S
C1240 C1241 1.387 . S
C1240 H1244 0.950 . S
C1240 C1249 1.390 1_455 S
C1241 C1240 1.387 . S
C1241 C1243 1.387 . S
H1242 C1249 0.950 . S
C1243 C1241 1.387 . S
C1243 C1245 1.390 1_455 S
C1243 H1247 0.950 . S
H1244 C1240 0.950 . S
C1245 C1243 1.390 1_655 S
C1245 C1246 1.387 . S
C1245 H1248 0.950 . S
C1246 C1245 1.387 . S
C1246 C1249 1.387 . S
H1247 C1243 0.950 . S
H1248 C1245 0.950 . S
C1249 C1240 1.390 1_655 S
C1249 H1242 0.950 . S
C1249 C1246 1.387 . S
C1250 C1251 1.387 . S
C1250 H1254 0.950 . S
C1250 C1259 1.390 . S
C1251 C1250 1.387 . S
C1251 C1253 1.387 . S
H1252 C1259 0.950 . S
C1253 C1251 1.387 . S
C1253 C1255 1.390 . S
C1253 H1257 0.950 . S
H1254 C1250 0.950 . S
C1255 C1253 1.390 . S
C1255 C1256 1.387 . S
C1255 H1258 0.950 . S
C1256 C1255 1.387 . S
C1256 C1259 1.387 . S
H1257 C1253 0.950 . S
H1258 C1255 0.950 . S
C1259 C1250 1.390 . S
C1259 H1252 0.950 . S
C1259 C1256 1.387 . S
C1260 C1261 1.387 1_556 S
C1260 H1264 0.950 1_556 S
C1260 C1269 1.390 . S
C1261 C1260 1.387 1_554 S
C1261 C1263 1.387 1_554 S
H1262 C1269 0.950 . S
C1263 C1261 1.387 1_556 S
C1263 C1265 1.390 . S
C1263 H1267 0.950 1_556 S
H1264 C1260 0.950 1_554 S
C1265 C1263 1.390 . S
C1265 C1266 1.387 . S
C1265 H1268 0.950 . S
C1266 C1265 1.387 . S
C1266 C1269 1.387 . S
H1267 C1263 0.950 1_554 S
H1268 C1265 0.950 . S
C1269 C1260 1.390 . S
C1269 H1262 0.950 . S
C1269 C1266 1.387 . S
C1270 C1271 1.387 . S
C1270 H1274 0.950 . S
C1270 C1279 1.390 . S
C1271 C1270 1.387 . S
C1271 C1273 1.387 . S
H1272 C1279 0.950 . S
C1273 C1271 1.387 . S
C1273 C1275 1.390 . S
C1273 H1277 0.950 . S
H1274 C1270 0.950 . S
C1275 C1273 1.390 . S
C1275 C1276 1.387 . S
C1275 H1278 0.950 . S
C1276 C1275 1.387 . S
C1276 C1279 1.387 . S
H1277 C1273 0.950 . S
H1278 C1275 0.950 . S
C1279 C1270 1.390 . S
C1279 H1272 0.950 . S
C1279 C1276 1.387 . S
C1280 C1281 1.387 . S
C1280 H1284 0.950 . S
C1280 C1289 1.390 . S
C1281 C1280 1.387 . S
C1281 C1283 1.387 . S
H1282 C1289 0.950 . S
C1283 C1281 1.387 . S
C1283 C1285 1.390 . S
C1283 H1287 0.950 . S
H1284 C1280 0.950 . S
C1285 C1283 1.390 . S
C1285 C1286 1.387 . S
C1285 H1288 0.950 . S
C1286 C1285 1.387 . S
C1286 C1289 1.387 . S
H1287 C1283 0.950 . S
H1288 C1285 0.950 . S
C1289 C1280 1.390 . S
C1289 H1282 0.950 . S
C1289 C1286 1.387 . S
C1290 C1291 1.387 . S
C1290 H1294 0.950 . S
C1290 C1299 1.390 . S
C1291 C1290 1.387 . S
C1291 C1293 1.387 . S
H1292 C1299 0.950 . S
C1293 C1291 1.387 . S
C1293 C1295 1.390 . S
C1293 H1297 0.950 . S
H1294 C1290 0.950 . S
C1295 C1293 1.390 . S
C1295 C1296 1.387 . S
C1295 H1298 0.950 . S
C1296 C1295 1.387 . S
C1296 C1299 1.387 . S
H1297 C1293 0.950 . S
H1298 C1295 0.950 . S
C1299 C1290 1.390 . S
C1299 H1292 0.950 . S
C1299 C1296 1.387 . S
C1300 C1301 1.387 . S
C1300 H1304 0.950 . S
C1300 C1309 1.390 1_654 S
C1301 C1300 1.387 . S
C1301 C1303 1.387 1_554 S
H1302 C1309 0.950 . S
C1303 C1301 1.387 1_556 S
C1303 C1305 1.390 . S
C1303 H1307 0.950 . S
H1304 C1300 0.950 . S
C1305 C1303 1.390 . S
C1305 C1306 1.387 1_655 S
C1305 H1308 0.950 . S
C1306 C1305 1.387 1_455 S
C1306 C1309 1.387 . S
H1307 C1303 0.950 . S
H1308 C1305 0.950 . S
C1309 C1300 1.390 1_456 S
C1309 H1302 0.950 . S
C1309 C1306 1.387 . S
C1310 C1311 1.387 . S
C1310 H1314 0.950 . S
C1310 C1319 1.390 . S
C1311 C1310 1.387 . S
C1311 C1313 1.387 . S
H1312 C1319 0.950 . S
C1313 C1311 1.387 . S
C1313 C1315 1.390 . S
C1313 H1317 0.950 . S
H1314 C1310 0.950 . S
C1315 C1313 1.390 . S
C1315 C1316 1.387 . S
C1315 H1318 0.950 . S
C1316 C1315 1.387 . S
C1316 C1319 1.387 . S
H1317 C1313 0.950 . S
H1318 C1315 0.950 . S
C1319 C1310 1.390 . S
C1319 H1312 0.950 . S
C1319 C1316 1.387 . S
C1320 C1321 1.387 . S
C1320 H1324 0.950 . S
C1320 C1329 1.390 . S
C1321 C1320 1.387 . S
C1321 C1323 1.387 . S
H1322 C1329 0.950 . S
C1323 C1321 1.387 . S
C1323 C1325 1.390 . S
C1323 H1327 0.950 . S
H1324 C1320 0.950 . S
C1325 C1323 1.390 . S
C1325 C1326 1.387 . S
C1325 H1328 0.950 . S
C1326 C1325 1.387 . S
C1326 C1329 1.387 . S
H1327 C1323 0.950 . S
H1328 C1325 0.950 . S
C1329 C1320 1.390 . S
C1329 H1322 0.950 . S
C1329 C1326 1.387 . S
C1330 C1331 1.387 . S
C1330 H1334 0.950 . S
C1330 C1339 1.390 . S
C1331 C1330 1.387 . S
C1331 C1333 1.387 . S
H1332 C1339 0.950 . S
C1333 C1331 1.387 . S
C1333 C1335 1.390 . S
C1333 H1337 0.950 . S
H1334 C1330 0.950 . S
C1335 C1333 1.390 . S
C1335 C1336 1.387 . S
C1335 H1338 0.950 . S
C1336 C1335 1.387 . S
C1336 C1339 1.387 . S
H1337 C1333 0.950 . S
H1338 C1335 0.950 . S
C1339 C1330 1.390 . S
C1339 H1332 0.950 . S
C1339 C1336 1.387 . S
C1340 C1341 1.387 . S
C1340 H1344 0.950 . S
C1340 C1349 1.390 1_455 S
C1341 C1340 1.387 . S
C1341 C1343 1.387 . S
H1342 C1349 0.950 . S
C1343 C1341 1.387 . S
C1343 C1345 1.390 1_455 S
C1343 H1347 0.950 . S
H1344 C1340 0.950 . S
C1345 C1343 1.390 1_655 S
C1345 C1346 1.387 . S
C1345 H1348 0.950 . S
C1346 C1345 1.387 . S
C1346 C1349 1.387 . S
H1347 C1343 0.950 . S
H1348 C1345 0.950 . S
C1349 C1340 1.390 1_655 S
C1349 H1342 0.950 . S
C1349 C1346 1.387 . S
C1350 C1351 1.387 . S
C1350 H1354 0.950 . S
C1350 C1359 1.390 . S
C1351 C1350 1.387 . S
C1351 C1353 1.387 . S
H1352 C1359 0.950 . S
C1353 C1351 1.387 . S
C1353 C1355 1.390 1_554 S
C1353 H1357 0.950 . S
H1354 C1350 0.950 . S
C1355 C1353 1.390 1_556 S
C1355 C1356 1.387 . S
C1355 H1358 0.950 . S
C1356 C1355 1.387 . S
C1356 C1359 1.387 1_556 S
H1357 C1353 0.950 . S
H1358 C1355 0.950 . S
C1359 C1350 1.390 . S
C1359 H1352 0.950 . S
C1359 C1356 1.387 1_554 S
C1360 C1361 1.387 . S
C1360 H1364 0.950 . S
C1360 C1369 1.390 . S
C1361 C1360 1.387 . S
C1361 C1363 1.387 . S
H1362 C1369 0.950 . S
C1363 C1361 1.387 . S
C1363 C1365 1.390 . S
C1363 H1367 0.950 . S
H1364 C1360 0.950 . S
C1365 C1363 1.390 . S
C1365 C1366 1.387 . S
C1365 H1368 0.950 . S
C1366 C1365 1.387 . S
C1366 C1369 1.387 . S
H1367 C1363 0.950 . S
H1368 C1365 0.950 . S
C1369 C1360 1.390 . S
C1369 H1362 0.950 . S
C1369 C1366 1.387 . S
C1370 C1371 1.387 . S
C1370 H1374 0.950 . S
C1370 C1379 1.390 . S
C1371 C1370 1.387 . S
C1371 C1373 1.387 . S
H1372 C1379 0.950 . S
C1373 C1371 1.387 . S
C1373 C1375 1.390 . S
C1373 H1377 0.950 . S
H1374 C1370 0.950 . S
C1375 C1373 1.390 . S
C1375 C1376 1.387 . S
C1375 H1378 0.950 . S
C1376 C1375 1.387 . S
C1376 C1379 1.387 . S
H1377 C1373 0.950 . S
H1378 C1375 0.950 . S
C1379 C1370 1.390 . S
C1379 H1372 0.950 . S
C1379 C1376 1.387 . S
C1380 C1381 1.387 . S
C1380 H1384 0.950 . S
C1380 C1389 1.390 1_455 S
C1381 C1380 1.387 . S
C1381 C1383 1.387 . S
H1382 C1389 0.950 . S
C1383 C1381 1.387 . S
C1383 C1385 1.390 1_455 S
C1383 H1387 0.950 . S
H1384 C1380 0.950 . S
C1385 C1383 1.390 1_655 S
C1385 C1386 1.387 . S
C1385 H1388 0.950 . S
C1386 C1385 1.387 . S
C1386 C1389 1.387 . S
H1387 C1383 0.950 . S
H1388 C1385 0.950 . S
C1389 C1380 1.390 1_655 S
C1389 H1382 0.950 . S
C1389 C1386 1.387 . S
C1390 C1391 1.387 . S
C1390 H1394 0.950 . S
C1390 C1399 1.390 1_556 S
C1391 C1390 1.387 . S
C1391 C1393 1.387 1_556 S
H1392 C1399 0.950 . S
C1393 C1391 1.387 1_554 S
C1393 C1395 1.390 . S
C1393 H1397 0.950 . S
H1394 C1390 0.950 . S
C1395 C1393 1.390 . S
C1395 C1396 1.387 . S
C1395 H1398 0.950 . S
C1396 C1395 1.387 . S
C1396 C1399 1.387 . S
H1397 C1393 0.950 . S
H1398 C1395 0.950 . S
C1399 C1390 1.390 1_554 S
C1399 H1392 0.950 . S
C1399 C1396 1.387 . S
C1400 C1401 1.387 . S
C1400 H1404 0.950 . S
C1400 C1409 1.390 . S
C1401 C1400 1.387 . S
C1401 C1403 1.387 . S
H1402 C1409 0.950 . S
C1403 C1401 1.387 . S
C1403 C1405 1.390 . S
C1403 H1407 0.950 . S
H1404 C1400 0.950 . S
C1405 C1403 1.390 . S
C1405 C1406 1.387 . S
C1405 H1408 0.950 . S
C1406 C1405 1.387 . S
C1406 C1409 1.387 . S
H1407 C1403 0.950 . S
H1408 C1405 0.950 . S
C1409 C1400 1.390 . S
C1409 H1402 0.950 . S
C1409 C1406 1.387 . S
C1410 C1411 1.387 . S
C1410 H1414 0.950 . S
C1410 C1419 1.390 . S
C1411 C1410 1.387 . S
C1411 C1413 1.387 . S
H1412 C1419 0.950 . S
C1413 C1411 1.387 . S
C1413 C1415 1.390 . S
C1413 H1417 0.950 . S
H1414 C1410 0.950 . S
C1415 C1413 1.390 . S
C1415 C1416 1.387 . S
C1415 H1418 0.950 . S
C1416 C1415 1.387 . S
C1416 C1419 1.387 . S
H1417 C1413 0.950 . S
H1418 C1415 0.950 . S
C1419 C1410 1.390 . S
C1419 H1412 0.950 . S
C1419 C1416 1.387 . S
C1420 C1421 1.387 . S
C1420 H1424 0.950 . S
C1420 C1429 1.390 1_455 S
C1421 C1420 1.387 . S
C1421 C1423 1.387 . S
H1422 C1429 0.950 . S
C1423 C1421 1.387 . S
C1423 C1425 1.390 1_455 S
C1423 H1427 0.950 . S
H1424 C1420 0.950 . S
C1425 C1423 1.390 1_655 S
C1425 C1426 1.387 . S
C1425 H1428 0.950 . S
C1426 C1425 1.387 . S
C1426 C1429 1.387 . S
H1427 C1423 0.950 . S
H1428 C1425 0.950 . S
C1429 C1420 1.390 1_655 S
C1429 H1422 0.950 . S
C1429 C1426 1.387 . S
C1430 C1431 1.387 . S
C1430 H1434 0.950 . S
C1430 C1439 1.390 . S
C1431 C1430 1.387 . S
C1431 C1433 1.387 . S
H1432 C1439 0.950 . S
C1433 C1431 1.387 . S
C1433 C1435 1.390 . S
C1433 H1437 0.950 . S
H1434 C1430 0.950 . S
C1435 C1433 1.390 . S
C1435 C1436 1.387 . S
C1435 H1438 0.950 . S
C1436 C1435 1.387 . S
C1436 C1439 1.387 . S
H1437 C1433 0.950 . S
H1438 C1435 0.950 . S
C1439 C1430 1.390 . S
C1439 H1432 0.950 . S
C1439 C1436 1.387 . S
C1440 C1441 1.387 . S
C1440 H1444 0.950 . S
C1440 C1449 1.390 . S
C1441 C1440 1.387 . S
C1441 C1443 1.387 . S
H1442 C1449 0.950 . S
C1443 C1441 1.387 . S
C1443 C1445 1.390 . S
C1443 H1447 0.950 . S
H1444 C1440 0.950 . S
C1445 C1443 1.390 . S
C1445 C1446 1.387 . S
C1445 H1448 0.950 . S
C1446 C1445 1.387 . S
C1446 C1449 1.387 . S
H1447 C1443 0.950 . S
H1448 C1445 0.950 . S
C1449 C1440 1.390 . S
C1449 H1442 0.950 . S
C1449 C1446 1.387 . S
C1450 C1451 1.387 . S
C1450 H1454 0.950 . S
C1450 C1459 1.390 . S
C1451 C1450 1.387 . S
C1451 C1453 1.387 . S
H1452 C1459 0.950 . S
C1453 C1451 1.387 . S
C1453 C1455 1.390 . S
C1453 H1457 0.950 . S
H1454 C1450 0.950 . S
C1455 C1453 1.390 . S
C1455 C1456 1.387 . S
C1455 H1458 0.950 . S
C1456 C1455 1.387 . S
C1456 C1459 1.387 . S
H1457 C1453 0.950 . S
H1458 C1455 0.950 . S
C1459 C1450 1.390 . S
C1459 H1452 0.950 . S
C1459 C1456 1.387 . S
C1460 C1461 1.387 . S
C1460 H1464 0.950 . S
C1460 C1469 1.390 . S
C1461 C1460 1.387 . S
C1461 C1463 1.387 . S
H1462 C1469 0.950 . S
C1463 C1461 1.387 . S
C1463 C1465 1.390 . S
C1463 H1467 0.950 . S
H1464 C1460 0.950 . S
C1465 C1463 1.390 . S
C1465 C1466 1.387 . S
C1465 H1468 0.950 . S
C1466 C1465 1.387 . S
C1466 C1469 1.387 . S
H1467 C1463 0.950 . S
H1468 C1465 0.950 . S
C1469 C1460 1.390 . S
C1469 H1462 0.950 . S
C1469 C1466 1.387 . S
C1470 C1471 1.387 . S
C1470 H1474 0.950 . S
C1470 C1479 1.390 . S
C1471 C1470 1.387 . S
C1471 C1473 1.387 . S
H1472 C1479 0.950 . S
C1473 C1471 1.387 . S
C1473 C1475 1.390 . S
C1473 H1477 0.950 . S
H1474 C1470 0.950 . S
C1475 C1473 1.390 . S
C1475 C1476 1.387 . S
C1475 H1478 0.950 . S
C1476 C1475 1.387 . S
C1476 C1479 1.387 . S
H1477 C1473 0.950 . S
H1478 C1475 0.950 . S
C1479 C1470 1.390 . S
C1479 H1472 0.950 . S
C1479 C1476 1.387 . S
C1480 C1481 1.387 . S
C1480 H1484 0.950 . S
C1480 C1489 1.390 . S
C1481 C1480 1.387 . S
C1481 C1483 1.387 . S
H1482 C1489 0.950 . S
C1483 C1481 1.387 . S
C1483 C1485 1.390 . S
C1483 H1487 0.950 . S
H1484 C1480 0.950 . S
C1485 C1483 1.390 . S
C1485 C1486 1.387 . S
C1485 H1488 0.950 . S
C1486 C1485 1.387 . S
C1486 C1489 1.387 . S
H1487 C1483 0.950 . S
H1488 C1485 0.950 . S
C1489 C1480 1.390 . S
C1489 H1482 0.950 . S
C1489 C1486 1.387 . S
C1490 C1491 1.387 . S
C1490 H1494 0.950 . S
C1490 C1499 1.390 . S
C1491 C1490 1.387 . S
C1491 C1493 1.387 . S
H1492 C1499 0.950 . S
C1493 C1491 1.387 . S
C1493 C1495 1.390 . S
C1493 H1497 0.950 . S
H1494 C1490 0.950 . S
C1495 C1493 1.390 . S
C1495 C1496 1.387 . S
C1495 H1498 0.950 . S
C1496 C1495 1.387 . S
C1496 C1499 1.387 . S
H1497 C1493 0.950 . S
H1498 C1495 0.950 . S
C1499 C1490 1.390 . S
C1499 H1492 0.950 . S
C1499 C1496 1.387 . S
C1500 C1501 1.387 . S
C1500 H1504 0.950 . S
C1500 C1509 1.390 . S
C1501 C1500 1.387 . S
C1501 C1503 1.387 . S
H1502 C1509 0.950 . S
C1503 C1501 1.387 . S
C1503 C1505 1.390 . S
C1503 H1507 0.950 . S
H1504 C1500 0.950 . S
C1505 C1503 1.390 . S
C1505 C1506 1.387 . S
C1505 H1508 0.950 . S
C1506 C1505 1.387 . S
C1506 C1509 1.387 . S
H1507 C1503 0.950 . S
H1508 C1505 0.950 . S
C1509 C1500 1.390 . S
C1509 H1502 0.950 . S
C1509 C1506 1.387 . S
C1510 C1511 1.387 . S
C1510 H1514 0.950 . S
C1510 C1519 1.390 . S
C1511 C1510 1.387 . S
C1511 C1513 1.387 . S
H1512 C1519 0.950 . S
C1513 C1511 1.387 . S
C1513 C1515 1.390 . S
C1513 H1517 0.950 . S
H1514 C1510 0.950 . S
C1515 C1513 1.390 . S
C1515 C1516 1.387 . S
C1515 H1518 0.950 . S
C1516 C1515 1.387 . S
C1516 C1519 1.387 . S
H1517 C1513 0.950 . S
H1518 C1515 0.950 . S
C1519 C1510 1.390 . S
C1519 H1512 0.950 . S
C1519 C1516 1.387 . S
C1520 C1521 1.387 . S
C1520 H1524 0.950 . S
C1520 C1529 1.390 1_565 S
C1521 C1520 1.387 . S
C1521 C1523 1.387 . S
H1522 C1529 0.950 . S
C1523 C1521 1.387 . S
C1523 C1525 1.390 1_565 S
C1523 H1527 0.950 . S
H1524 C1520 0.950 . S
C1525 C1523 1.390 1_545 S
C1525 C1526 1.387 . S
C1525 H1528 0.950 . S
C1526 C1525 1.387 . S
C1526 C1529 1.387 . S
H1527 C1523 0.950 . S
H1528 C1525 0.950 . S
C1529 C1520 1.390 1_545 S
C1529 H1522 0.950 . S
C1529 C1526 1.387 . S
C1530 C1531 1.387 . S
C1530 H1534 0.950 . S
C1530 C1539 1.390 . S
C1531 C1530 1.387 . S
C1531 C1533 1.387 . S
H1532 C1539 0.950 . S
C1533 C1531 1.387 . S
C1533 C1535 1.390 . S
C1533 H1537 0.950 . S
H1534 C1530 0.950 . S
C1535 C1533 1.390 . S
C1535 C1536 1.387 . S
C1535 H1538 0.950 . S
C1536 C1535 1.387 . S
C1536 C1539 1.387 . S
H1537 C1533 0.950 . S
H1538 C1535 0.950 . S
C1539 C1530 1.390 . S
C1539 H1532 0.950 . S
C1539 C1536 1.387 . S
C1540 C1541 1.387 . S
C1540 H1544 0.950 . S
C1540 C1549 1.390 1_545 S
C1541 C1540 1.387 . S
C1541 C1543 1.387 . S
H1542 C1549 0.950 . S
C1543 C1541 1.387 . S
C1543 C1545 1.390 1_545 S
C1543 H1547 0.950 . S
H1544 C1540 0.950 . S
C1545 C1543 1.390 1_565 S
C1545 C1546 1.387 . S
C1545 H1548 0.950 . S
C1546 C1545 1.387 . S
C1546 C1549 1.387 . S
H1547 C1543 0.950 . S
H1548 C1545 0.950 . S
C1549 C1540 1.390 1_565 S
C1549 H1542 0.950 . S
C1549 C1546 1.387 . S
C1550 C1551 1.387 . S
C1550 H1554 0.950 . S
C1550 C1559 1.390 . S
C1551 C1550 1.387 . S
C1551 C1553 1.387 . S
H1552 C1559 0.950 . S
C1553 C1551 1.387 . S
C1553 C1555 1.390 . S
C1553 H1557 0.950 . S
H1554 C1550 0.950 . S
C1555 C1553 1.390 . S
C1555 C1556 1.387 . S
C1555 H1558 0.950 . S
C1556 C1555 1.387 . S
C1556 C1559 1.387 . S
H1557 C1553 0.950 . S
H1558 C1555 0.950 . S
C1559 C1550 1.390 . S
C1559 H1552 0.950 . S
C1559 C1556 1.387 . S
C1560 C1561 1.387 . S
C1560 H1564 0.950 . S
C1560 C1569 1.390 1_565 S
C1561 C1560 1.387 . S
C1561 C1563 1.387 . S
H1562 C1569 0.950 . S
C1563 C1561 1.387 . S
C1563 C1565 1.390 1_565 S
C1563 H1567 0.950 . S
H1564 C1560 0.950 . S
C1565 C1563 1.390 1_545 S
C1565 C1566 1.387 . S
C1565 H1568 0.950 . S
C1566 C1565 1.387 . S
C1566 C1569 1.387 . S
H1567 C1563 0.950 . S
H1568 C1565 0.950 . S
C1569 C1560 1.390 1_545 S
C1569 H1562 0.950 . S
C1569 C1566 1.387 . S
C1570 C1571 1.387 . S
C1570 H1574 0.950 . S
C1570 C1579 1.390 . S
C1571 C1570 1.387 . S
C1571 C1573 1.387 . S
H1572 C1579 0.950 . S
C1573 C1571 1.387 . S
C1573 C1575 1.390 . S
C1573 H1577 0.950 . S
H1574 C1570 0.950 . S
C1575 C1573 1.390 . S
C1575 C1576 1.387 . S
C1575 H1578 0.950 . S
C1576 C1575 1.387 . S
C1576 C1579 1.387 . S
H1577 C1573 0.950 . S
H1578 C1575 0.950 . S
C1579 C1570 1.390 . S
C1579 H1572 0.950 . S
C1579 C1576 1.387 . S
C1580 C1581 1.387 . S
C1580 H1584 0.950 . S
C1580 C1589 1.390 1_565 S
C1581 C1580 1.387 . S
C1581 C1583 1.387 . S
H1582 C1589 0.950 . S
C1583 C1581 1.387 . S
C1583 C1585 1.390 1_565 S
C1583 H1587 0.950 . S
H1584 C1580 0.950 . S
C1585 C1583 1.390 1_545 S
C1585 C1586 1.387 . S
C1585 H1588 0.950 . S
C1586 C1585 1.387 . S
C1586 C1589 1.387 . S
H1587 C1583 0.950 . S
H1588 C1585 0.950 . S
C1589 C1580 1.390 1_545 S
C1589 H1582 0.950 . S
C1589 C1586 1.387 . S
C1590 C1591 1.387 . S
C1590 H1594 0.950 . S
C1590 C1599 1.390 . S
C1591 C1590 1.387 . S
C1591 C1593 1.387 . S
H1592 C1599 0.950 . S
C1593 C1591 1.387 . S
C1593 C1595 1.390 . S
C1593 H1597 0.950 . S
H1594 C1590 0.950 . S
C1595 C1593 1.390 . S
C1595 C1596 1.387 . S
C1595 H1598 0.950 . S
C1596 C1595 1.387 . S
C1596 C1599 1.387 . S
H1597 C1593 0.950 . S
H1598 C1595 0.950 . S
C1599 C1590 1.390 . S
C1599 H1592 0.950 . S
C1599 C1596 1.387 . S
C641 C16 1.117 . S
C646 C96 1.117 . S
C651 C119 1.178 . S
C656 C39 1.172 . S
C661 C59 1.088 . S
C666 C139 1.088 . S
C671 C159 1.172 . S
C676 C79 1.178 . S
C681 C166 1.117 . S
C686 C246 1.117 . S
C691 C188 1.172 . S
C696 C268 1.178 . S
C701 C288 1.082 . S
C706 C208 1.082 . S
C711 C228 1.172 . S
C716 C308 1.167 . S
C721 C416 1.117 . S
C726 C336 1.117 . S
C731 C359 1.167 . S
C736 C439 1.172 . S
C741 C379 1.088 . S
C746 C459 1.088 . S
C751 C399 1.178 . S
C756 C479 1.172 . S
C761 C486 1.117 . S
C766 C566 1.117 . S
C771 C588 1.172 . S
C776 C508 1.167 . S
C781 C528 1.082 . S
C786 C608 1.082 . S
C791 C628 1.167 . S
C796 C548 1.172 . S
C801 C421 1.372 . S
C806 C9 1.373 . S
C811 C441 1.399 . S
C816 C21 1.438 . S
C821 C461 1.438 . S
C826 C41 1.401 . S
C831 C61 1.368 1_554 S
C836 C409 1.372 . S
C841 C89 1.373 . S
C846 C381 1.372 . S
C851 C329 1.373 . S
C856 C101 1.372 . S
C861 C121 1.398 . S
C866 C341 1.438 . S
C871 C141 1.437 . S
C876 C361 1.398 . S
C881 C161 1.373 . S
C886 C589 1.371 . S
C891 C609 1.401 . S
C896 C189 1.438 . S
C901 C629 1.437 . S
C906 C209 1.398 . S
C911 C229 1.370 . S
C916 C561 1.371 . S
C921 C241 1.371 . S
C926 C549 1.370 . S
C931 C269 1.370 . S
C936 C481 1.371 . S
C941 C289 1.401 . S
C946 C509 1.438 . S
C951 C309 1.438 . S
C956 C529 1.401 . S
C961 C169 0.816 . S
C966 C1 0.816 . S
C971 C29 0.267 . S
C976 C501 0.267 . S
C981 C201 0.676 . S
C986 C49 0.676 . S
C991 C69 0.593 . S
C996 C541 0.593 . S
C1001 C249 0.823 . S
C1006 C81 0.823 . S
C1011 C581 0.595 . S
C1016 C109 0.595 . S
C1021 C129 0.675 . S
C1026 C281 0.675 . S
C1031 C149 0.270 . S
C1036 C621 0.270 . S
C1041 C349 0.271 . S
C1046 C181 0.271 . S
C1051 C389 0.592 . S
C1056 C221 0.592 . S
C1061 C261 0.592 . S
C1066 C429 0.592 . S
C1071 C469 0.270 . S
C1076 C301 0.270 . S
C1081 C489 0.816 . S
C1086 C321 0.816 . S
C1091 C521 0.685 1_545 S
C1096 C369 0.684 1_565 S
C1101 C569 0.824 . S
C1106 C401 0.824 . S
C1111 C449 0.679 1_545 S
C1116 C601 0.677 1_565 S
C1121 C6 1.564 . S
C1126 C259 1.502 . S
C1131 C596 1.669 . S
C1136 C28 1.665 . S
C1141 C296 1.681 . S
C1146 C48 1.674 . S
C1151 C68 1.658 . S
C1156 C636 1.657 . S
C1161 C179 1.502 1_556 S
C1166 C86 1.564 . S
C1171 C516 1.657 . S
C1176 C108 1.658 . S
C1181 C216 1.678 . S
C1186 C128 1.671 . S
C1191 C556 1.669 . S
C1196 C148 1.665 . S
C1201 C88 1.498 . S
C1206 C176 1.561 . S
C1211 C426 1.667 . S
C1216 C199 1.664 . S
C1221 C126 1.681 . S
C1226 C219 1.674 . S
C1231 C239 1.658 . S
C1236 C466 1.657 . S
C1241 C8 1.502 . S
C1246 C256 1.564 . S
C1251 C346 1.657 . S
C1256 C279 1.658 . S
C1261 C299 1.671 . S
C1266 C46 1.678 . S
C1271 C319 1.665 . S
C1276 C386 1.669 . S
C1281 C579 1.498 . S
C1286 C326 1.561 . S
C1291 C276 1.666 . S
C1296 C348 1.662 . S
C1301 C368 1.671 . S
C1306 C616 1.679 . S
C1311 C316 1.657 . S
C1316 C388 1.658 . S
C1321 C406 1.564 . S
C1326 C499 1.502 . S
C1331 C428 1.661 . S
C1336 C196 1.660 . S
C1341 C536 1.678 . S
C1346 C448 1.671 . S
C1351 C236 1.669 . S
C1356 C468 1.665 . S
C1361 C496 1.561 . S
C1366 C408 1.498 1_556 S
C1371 C519 1.665 . S
C1376 C106 1.669 . S
C1381 C539 1.674 . S
C1386 C446 1.681 . S
C1391 C559 1.661 . S
C1396 C146 1.659 . S
C1401 C328 1.502 . S
C1406 C576 1.564 . S
C1411 C26 1.659 . S
C1416 C599 1.661 . S
C1421 C619 1.674 . S
C1426 C366 1.681 . S
C1431 C66 1.669 . S
C1436 C639 1.665 . S
C1441 C99 2.249 . S
C1446 C19 2.249 1_556 S
C1451 C116 1.740 1_554 S
C1456 C36 1.738 . S
C1461 C56 1.743 . S
C1466 C136 1.743 . S
C1471 C156 1.736 . S
C1476 C76 1.738 . S
C1481 C248 2.249 . S
C1486 C168 2.249 . S
C1491 C186 1.736 . S
C1496 C266 1.738 . S
C1501 C206 1.743 . S
C1506 C286 1.743 1_556 S
C1511 C306 1.738 . S
C1516 C226 1.740 . S
C1521 C339 2.251 . S
C1526 C419 2.251 . S
C1531 C436 1.738 . S
C1536 C356 1.736 . S
C1541 C376 1.743 1_556 S
C1546 C456 1.743 . S
C1551 C396 1.738 . S
C1556 C476 1.736 . S
C1561 C568 2.249 1_556 S
C1566 C488 2.249 . S
C1571 C586 1.738 . S
C1576 C506 1.736 . S
C1581 C526 1.745 . S
C1586 C606 1.745 . S
C1591 C626 1.735 . S
C1596 C546 1.738 1_554 S
