# Generated by pormake.
# Topology lcy, (6)-cn, num edge types: 1
# Building blocks:
#     Node 0, Type 0, BuildingBlock: OJICUG_clean_sbu_0, # of connection points: 6
#     Node 1, Type 0, BuildingBlock: OJICUG_clean_sbu_0, # of connection points: 6
#     Node 2, Type 0, BuildingBlock: OJICUG_clean_sbu_0, # of connection points: 6
#     Node 3, Type 0, BuildingBlock: OJICUG_clean_sbu_0, # of connection points: 6
#     Edge 4, Type (0, 0), BuildingBlock: XIVTED_clean_linker_0, # of connection points: 2
#     Edge 5, Type (0, 0), BuildingBlock: XIVTED_clean_linker_0, # of connection points: 2
#     Edge 6, Type (0, 0), BuildingBlock: XIVTED_clean_linker_0, # of connection points: 2
#     Edge 7, Type (0, 0), BuildingBlock: XIVTED_clean_linker_0, # of connection points: 2
#     Edge 8, Type (0, 0), BuildingBlock: XIVTED_clean_linker_0, # of connection points: 2
#     Edge 9, Type (0, 0), BuildingBlock: XIVTED_clean_linker_0, # of connection points: 2
#     Edge 10, Type (0, 0), BuildingBlock: XIVTED_clean_linker_0, # of connection points: 2
#     Edge 11, Type (0, 0), BuildingBlock: XIVTED_clean_linker_0, # of connection points: 2
#     Edge 12, Type (0, 0), BuildingBlock: XIVTED_clean_linker_0, # of connection points: 2
#     Edge 13, Type (0, 0), BuildingBlock: XIVTED_clean_linker_0, # of connection points: 2
#     Edge 14, Type (0, 0), BuildingBlock: XIVTED_clean_linker_0, # of connection points: 2
#     Edge 15, Type (0, 0), BuildingBlock: XIVTED_clean_linker_0, # of connection points: 2
# Relax obj value: 0.357
# Max RMSD: 0.279
# Mean RMSD: 0.279
data_MOF--net-lcy--node1-OJICUG_clean_sbu_0--edge1-XIVTED_clean_linker_0
_symmetry_space_group_name_H-M    P1
_symmetry_Int_Tables_number       1
_symmetry_cell_setting            triclinic
loop_
_symmetry_equiv_pos_as_xyz
'x, y, z'
_cell_length_a     26.042291
_cell_length_b     25.758969
_cell_length_c     26.029225
_cell_angle_alpha  89.636722
_cell_angle_beta   89.997056
_cell_angle_gamma 89.959324
loop_
_atom_site_label
_atom_site_type_symbol
_atom_site_fract_x
_atom_site_fract_y
_atom_site_fract_z
_atom_type_partial_charge
Sc0 Sc 0.34622 0.43836 0.39004 0.0
Sc1 Sc 0.34685 0.30456 0.38726 0.0
Sc2 Sc 0.42855 0.37375 0.30653 0.0
O3 O 0.37461 0.37225 0.36084 0.0
C4 C 0.3449 0.45992 0.27197 0.0
C5 C 0.24798 0.36268 0.38842 0.0
C6 C 0.37025 0.27402 0.2708 0.0
C7 C 0.3479 0.37677 0.48763 0.0
C8 C 0.46173 0.4735 0.36567 0.0
C9 C 0.46532 0.28555 0.3875 0.0
O10 O 0.32304 0.46328 0.31558 0.0
O11 O 0.27222 0.32827 0.36369 0.0
O12 O 0.39176 0.31676 0.26015 0.0
O13 O 0.37046 0.41383 0.4646 0.0
O14 O 0.47351 0.43102 0.3446 0.0
O15 O 0.42183 0.28019 0.40927 0.0
O16 O 0.41631 0.48316 0.38084 0.0
O17 O 0.33249 0.33666 0.46357 0.0
O18 O 0.47331 0.3152 0.34852 0.0
O19 O 0.27065 0.40343 0.40451 0.0
O20 O 0.3849 0.4322 0.26334 0.0
O21 O 0.35555 0.26265 0.31601 0.0
Sc22 Sc 0.92908 0.12142 0.67647 0.0
Sc23 Sc 0.84411 0.05786 0.59519 0.0
Sc24 Sc 0.8466 0.19164 0.59741 0.0
O25 O 0.87397 0.12366 0.62342 0.0
C26 C 0.87172 0.22118 0.71373 0.0
C27 C 0.84517 0.03639 0.71301 0.0
C28 C 0.74703 0.13495 0.59749 0.0
C29 C 0.95968 0.02139 0.61712 0.0
C30 C 0.9652 0.2097 0.59539 0.0
C31 C 0.84542 0.11907 0.49728 0.0
O32 O 0.89335 0.17833 0.72385 0.0
O33 O 0.82167 0.03401 0.67019 0.0
O34 O 0.77201 0.1689 0.62203 0.0
O35 O 0.97273 0.06429 0.63654 0.0
O36 O 0.92146 0.21535 0.57419 0.0
O37 O 0.86757 0.08158 0.52015 0.0
O38 O 0.97339 0.17999 0.63427 0.0
O39 O 0.9136 0.01194 0.60403 0.0
O40 O 0.83105 0.1596 0.52136 0.0
O41 O 0.88619 0.06291 0.72029 0.0
O42 O 0.85658 0.23299 0.66876 0.0
O43 O 0.76895 0.09384 0.58127 0.0
Sc44 Sc 0.14212 0.55339 0.88838 0.0
Sc45 Sc 0.13304 0.68547 0.89487 0.0
Sc46 Sc 0.06037 0.61899 0.80488 0.0
O47 O 0.11161 0.61926 0.86178 0.0
C48 C 0.15008 0.54002 0.76992 0.0
C49 C 0.23564 0.63441 0.89462 0.0
C50 C 0.11291 0.72384 0.77912 0.0
C51 C 0.13326 0.60521 0.98952 0.0
C52 C 0.02885 0.51582 0.85983 0.0
C53 C 0.01453 0.69545 0.8908 0.0
O54 O 0.17079 0.53702 0.81408 0.0
O55 O 0.21033 0.67051 0.8729 0.0
O56 O 0.09854 0.67965 0.76373 0.0
O57 O 0.11258 0.57024 0.96254 0.0
O58 O 0.01606 0.55875 0.83966 0.0
O59 O 0.05594 0.69844 0.91643 0.0
O60 O 0.07465 0.50627 0.87402 0.0
O61 O 0.14784 0.64797 0.96924 0.0
O62 O 0.01116 0.67429 0.84642 0.0
O63 O 0.21451 0.59167 0.90795 0.0
O64 O 0.10724 0.56321 0.76126 0.0
O65 O 0.12201 0.7329 0.82628 0.0
Sc66 Sc 0.63521 0.80984 0.09167 0.0
Sc67 Sc 0.64161 0.94225 0.09571 0.0
Sc68 Sc 0.55998 0.87676 0.17934 0.0
O69 O 0.61188 0.87631 0.12307 0.0
C70 C 0.51666 0.79808 0.0939 0.0
C71 C 0.63507 0.8886 -0.00441 0.0
C72 C 0.52774 0.97914 0.12334 0.0
C73 C 0.73656 0.8627 0.09118 0.0
C74 C 0.61397 0.773 0.20766 0.0
C75 C 0.64876 0.95666 0.21409 0.0
O76 O 0.55879 0.79472 0.06949 0.0
O77 O 0.6131 0.92362 0.02157 0.0
O78 O 0.51527 0.9362 0.14361 0.0
O79 O 0.71188 0.82702 0.11422 0.0
O80 O 0.59821 0.81712 0.22184 0.0
O81 O 0.66942 0.95976 0.16992 0.0
O82 O 0.62437 0.76327 0.16091 0.0
O83 O 0.71469 0.90483 0.07709 0.0
O84 O 0.60605 0.9333 0.22289 0.0
O85 O 0.64995 0.84639 0.01684 0.0
O86 O 0.51197 0.82047 0.1376 0.0
O87 O 0.57348 0.98888 0.10912 0.0
H88 H 0.12876 0.50928 0.0346 0.0
H89 H 0.30807 0.55857 0.27151 0.0
H90 H 0.19073 0.66316 0.05704 0.0
H91 H 0.32268 0.42238 0.17713 0.0
H92 H 0.25296 0.5985 0.20549 0.0
H93 H 0.18394 0.477 0.10316 0.0
C94 C 0.15306 0.53665 0.05458 0.0
C95 C 0.15562 0.58903 0.03934 0.0
C96 C 0.26886 0.5602 0.19915 0.0
C97 C 0.2188 0.55185 0.11778 0.0
C98 C 0.30026 0.53755 0.23644 0.0
C99 C 0.31994 0.48739 0.22924 0.0
C100 C 0.25586 0.53159 0.15551 0.0
C101 C 0.30861 0.46137 0.18362 0.0
C102 C 0.18495 0.51791 0.09327 0.0
C103 C 0.18773 0.62247 0.06723 0.0
N104 N 0.27646 0.48347 0.14871 0.0
N105 N 0.21842 0.60322 0.10513 0.0
H106 H 0.75169 0.96013 0.22397 0.0
H107 H 0.75328 0.15413 0.46083 0.0
H108 H 0.61209 0.00933 0.29862 0.0
H109 H 0.88101 0.05476 0.42247 0.0
H110 H 0.70382 0.11578 0.39067 0.0
H111 H 0.80159 0.00693 0.28764 0.0
C112 C 0.73153 0.98069 0.25407 0.0
C113 C 0.67769 0.98086 0.25621 0.0
C114 C 0.74294 0.10305 0.39721 0.0
C115 C 0.73476 0.03522 0.3288 0.0
C116 C 0.77151 0.12542 0.43666 0.0
C117 C 0.82136 0.10744 0.44745 0.0
C118 C 0.76482 0.06325 0.36792 0.0
C119 C 0.84274 0.06964 0.41542 0.0
C120 C 0.76008 0.00743 0.29031 0.0
C121 C 0.65356 0.00793 0.29604 0.0
N122 N 0.81425 0.04863 0.37722 0.0
N123 N 0.68238 0.0345 0.33078 0.0
H124 H 0.11188 0.492 0.68354 0.0
H125 H 0.3864 0.43851 0.56306 0.0
H126 H 0.25305 0.53032 0.76142 0.0
H127 H 0.25442 0.34566 0.5237 0.0
H128 H 0.33753 0.47639 0.63373 0.0
H129 H 0.1622 0.44422 0.61902 0.0
C130 C 0.15334 0.49076 0.68672 0.0
C131 C 0.1784 0.51499 0.72774 0.0
C132 C 0.31955 0.44706 0.61016 0.0
C133 C 0.23569 0.4607 0.655 0.0
C134 C 0.34757 0.42517 0.57018 0.0
C135 C 0.32449 0.38888 0.53767 0.0
C136 C 0.26774 0.43346 0.61684 0.0
C137 C 0.27382 0.37326 0.54815 0.0
C138 C 0.1819 0.46309 0.65043 0.0
C139 C 0.23218 0.51189 0.73052 0.0
N140 N 0.24672 0.3964 0.58631 0.0
N141 N 0.25899 0.48547 0.69458 0.0
H142 H 0.68997 0.8287 0.92762 0.0
H143 H 0.83243 0.07143 0.81065 0.0
H144 H 0.63726 0.98566 0.953 0.0
H145 H 0.80205 0.94038 0.71289 0.0
H146 H 0.77848 0.03148 0.87749 0.0
H147 H 0.74571 0.86133 0.85838 0.0
C148 C 0.68922 0.86968 0.91804 0.0
C149 C 0.65898 0.90446 0.94642 0.0
C150 C 0.78432 0.01133 0.84155 0.0
C151 C 0.72379 0.94171 0.86931 0.0
C152 C 0.8154 0.03372 0.80386 0.0
C153 C 0.82129 0.00907 0.75648 0.0
C154 C 0.76018 0.96364 0.83194 0.0
C155 C 0.79799 0.96054 0.74905 0.0
C156 C 0.72129 0.88817 0.87896 0.0
C157 C 0.65989 0.95727 0.93248 0.0
N158 N 0.76836 0.93918 0.78654 0.0
N159 N 0.69253 0.97439 0.89557 0.0
H160 H 0.06224 0.17358 0.57936 0.0
H161 H 0.18257 0.42107 0.44829 0.0
H162 H 0.96558 0.30769 0.55568 0.0
H163 H 0.20291 0.26715 0.38618 0.0
H164 H 0.1131 0.3871 0.50308 0.0
H165 H 0.12902 0.21526 0.52674 0.0
C166 C 0.05562 0.21221 0.56401 0.0
C167 C 0.00852 0.23726 0.57142 0.0
C168 C 0.13266 0.36128 0.47683 0.0
C169 C 0.08411 0.28479 0.51194 0.0
C170 C 0.17187 0.38058 0.44532 0.0
C171 C 0.19888 0.34696 0.41263 0.0
C172 C 0.12157 0.30802 0.47634 0.0
C173 C 0.18352 0.29467 0.41075 0.0
C174 C 0.09332 0.23565 0.53373 0.0
C175 C 0.00144 0.28712 0.55035 0.0
N176 N 0.14659 0.27666 0.44287 0.0
N177 N 0.03897 0.30947 0.5215 0.0
H178 H 0.14256 0.82512 0.79353 0.0
H179 H 0.06192 0.02704 0.64178 0.0
H180 H 0.0764 0.72301 0.68043 0.0
H181 H 0.94422 0.91749 0.59889 0.0
H182 H 0.11634 0.95495 0.66919 0.0
H183 H 0.11997 0.89919 0.73937 0.0
C184 C 0.12457 0.81813 0.7567 0.0
C185 C 0.11069 0.76773 0.74204 0.0
C186 C 0.07876 0.9467 0.65346 0.0
C187 C 0.08477 0.85249 0.67949 0.0
C188 C 0.04775 0.9878 0.63724 0.0
C189 C -0.0024 0.97847 0.61947 0.0
C190 C 0.05945 0.89592 0.65202 0.0
C191 C 0.9821 0.9267 0.6133 0.0
C192 C 0.11195 0.86053 0.72547 0.0
C193 C 0.08743 0.76114 0.69372 0.0
N194 N 0.0126 0.88737 0.63039 0.0
N195 N 0.07406 0.8031 0.66482 0.0
H196 H 0.30552 0.70449 0.85944 0.0
H197 H 0.43912 0.73686 0.13362 0.0
H198 H 0.2743 0.60083 0.98654 0.0
H199 H 0.4943 0.80825 -0.00617 0.0
H200 H 0.37342 0.69082 0.08297 0.0
H201 H 0.37357 0.74476 0.90962 0.0
C202 C 0.3139 0.68944 0.8975 0.0
C203 C 0.28447 0.64928 0.9188 0.0
C204 C 0.39991 0.71678 0.06364 0.0
C205 C 0.36091 0.69627 0.97725 0.0
C206 C 0.43671 0.74345 0.09254 0.0
C207 C 0.47183 0.77618 0.06765 0.0
C208 C 0.39836 0.72372 0.00994 0.0
C209 C 0.46792 0.78308 0.01433 0.0
C210 C 0.35239 0.71269 0.92637 0.0
C211 C 0.29652 0.63144 0.96851 0.0
N212 N 0.43195 0.75708 0.98731 0.0
N213 N 0.33341 0.65563 -0.00353 0.0
H214 H 0.40852 0.2806 0.17284 0.0
H215 H 0.42784 0.97387 0.15591 0.0
H216 H 0.33495 0.17365 0.27804 0.0
H217 H 0.53879 0.0806 0.09152 0.0
H218 H 0.37171 0.04692 0.17515 0.0
H219 H 0.43232 0.20772 0.1185 0.0
C220 C 0.39615 0.242 0.18399 0.0
C221 C 0.37112 0.23309 0.23111 0.0
C222 C 0.40786 0.05416 0.15582 0.0
C223 C 0.39832 0.14972 0.16879 0.0
C224 C 0.44007 0.01251 0.14477 0.0
C225 C 0.48897 0.02122 0.12345 0.0
C226 C 0.42448 0.10483 0.1453 0.0
C227 C 0.502 0.0721 0.10898 0.0
C228 C 0.40993 0.20043 0.15287 0.0
C229 C 0.3553 0.18229 0.24274 0.0
N230 N 0.4703 0.11216 0.12102 0.0
N231 N 0.37005 0.14233 0.21228 0.0
H232 H 0.70151 0.23028 0.60306 0.0
H233 H 0.46732 0.18518 0.4201 0.0
H234 H 0.6822 0.07883 0.53509 0.0
H235 H 0.55993 0.32362 0.41083 0.0
H236 H 0.53414 0.14373 0.47303 0.0
H237 H 0.6343 0.26392 0.54716 0.0
C238 C 0.6825 0.20367 0.57725 0.0
C239 C 0.69811 0.15157 0.5735 0.0
C240 C 0.53996 0.18287 0.45874 0.0
C241 C 0.62111 0.1904 0.50936 0.0
C242 C 0.50216 0.20643 0.42861 0.0
C243 C 0.50856 0.25769 0.41114 0.0
C244 C 0.58332 0.21157 0.47276 0.0
C245 C 0.55398 0.28387 0.42325 0.0
C246 C 0.64458 0.22324 0.54492 0.0
C247 C 0.67158 0.11923 0.53921 0.0
N248 N 0.58937 0.26081 0.45422 0.0
N249 N 0.63429 0.13923 0.50823 0.0
H250 H 0.92862 0.5208 0.82827 0.0
H251 H 0.91161 0.21422 0.81102 0.0
H252 H 0.04066 0.4145 0.89172 0.0
H253 H 0.83484 0.32105 0.70794 0.0
H254 H 0.93516 0.28693 0.86563 0.0
H255 H 0.87242 0.44759 0.81013 0.0
C256 C 0.94111 0.48222 0.83939 0.0
C257 C 0.99029 0.47365 0.86009 0.0
C258 C 0.91213 0.29421 0.83168 0.0
C259 C 0.92577 0.38988 0.83951 0.0
C260 C 0.89851 0.25274 0.80041 0.0
C261 C 0.87268 0.26174 0.75375 0.0
C262 C 0.8996 0.3449 0.81633 0.0
C263 C 0.85589 0.3124 0.74282 0.0
C264 C 0.90885 0.44048 0.82901 0.0
C265 C 0.00364 0.42287 0.87465 0.0
N266 N 0.87055 0.35228 0.77337 0.0
N267 N 0.97192 0.38272 0.86321 0.0
H268 H 0.98298 0.67125 0.98575 0.0
H269 H 0.77609 0.89965 0.00061 0.0
H270 H 0.94532 0.76807 0.85545 0.0
H271 H 0.80461 0.7886 0.12225 0.0
H272 H 0.84243 0.85775 0.94883 0.0
H273 H 0.91898 0.71647 0.03671 0.0
C274 C 0.96027 0.70159 0.96771 0.0
C275 C 0.96883 0.71587 0.91645 0.0
C276 C 0.83462 0.84306 0.98712 0.0
C277 C 0.89654 0.76904 0.97486 0.0
C278 C 0.79734 0.86742 0.01707 0.0
C279 C 0.78481 0.84744 0.06587 0.0
C280 C 0.85968 0.79879 0.00639 0.0
C281 C 0.81297 0.80514 0.08483 0.0
C282 C 0.92408 0.72772 -0.00312 0.0
C283 C 0.93904 0.75562 0.89475 0.0
N284 N 0.8488 0.78203 0.05491 0.0
N285 N 0.90428 0.78133 0.92434 0.0
H286 H 0.5797 0.77665 0.30713 0.0
H287 H 0.55996 0.46913 0.32813 0.0
H288 H 0.64175 0.67067 0.19506 0.0
H289 H 0.45135 0.5751 0.39652 0.0
H290 H 0.61292 0.54283 0.30248 0.0
H291 H 0.55654 0.70286 0.36145 0.0
C292 C 0.58961 0.738 0.29432 0.0
C293 C 0.61166 0.72989 0.24566 0.0
C294 C 0.57805 0.54977 0.32407 0.0
C295 C 0.58529 0.64537 0.30817 0.0
C296 C 0.54772 0.50774 0.33897 0.0
C297 C 0.5002 0.51591 0.36339 0.0
C298 C 0.56113 0.60033 0.33407 0.0
C299 C 0.48712 0.56689 0.377 0.0
C300 C 0.57618 0.69592 0.32545 0.0
C301 C 0.62404 0.67882 0.23176 0.0
N302 N 0.51702 0.60729 0.3614 0.0
N303 N 0.61001 0.63841 0.26255 0.0
loop_
_geom_bond_atom_site_label_1
_geom_bond_atom_site_label_2
_geom_bond_distance
_geom_bond_site_symmetry_2
_ccdc_geom_bond_type
Sc0 O3 2.025 . S
Sc0 O10 2.105 . S
Sc0 O13 2.105 . S
Sc0 O16 2.105 . S
Sc0 O19 2.105 . S
Sc1 O3 2.025 . S
Sc1 O11 2.105 . S
Sc1 O15 2.105 . S
Sc1 O17 2.105 . S
Sc1 O21 2.105 . S
Sc2 O3 2.025 . S
Sc2 O12 2.105 . S
Sc2 O14 2.105 . S
Sc2 O18 2.105 . S
Sc2 O20 2.105 . S
O3 Sc0 2.025 . S
O3 Sc1 2.025 . S
O3 Sc2 2.025 . S
C4 O10 1.268 . S
C4 O20 1.268 . S
C5 O11 1.268 . S
C5 O19 1.268 . S
C6 O12 1.268 . S
C6 O21 1.268 . S
C7 O13 1.268 . S
C7 O17 1.268 . S
C8 O14 1.268 . S
C8 O16 1.268 . S
C9 O15 1.268 . S
C9 O18 1.268 . S
O10 Sc0 2.105 . S
O10 C4 1.268 . S
O11 Sc1 2.105 . S
O11 C5 1.268 . S
O12 Sc2 2.105 . S
O12 C6 1.268 . S
O13 Sc0 2.105 . S
O13 C7 1.268 . S
O14 Sc2 2.105 . S
O14 C8 1.268 . S
O15 Sc1 2.105 . S
O15 C9 1.268 . S
O16 Sc0 2.105 . S
O16 C8 1.268 . S
O17 Sc1 2.105 . S
O17 C7 1.268 . S
O18 Sc2 2.105 . S
O18 C9 1.268 . S
O19 Sc0 2.105 . S
O19 C5 1.268 . S
O20 Sc2 2.105 . S
O20 C4 1.268 . S
O21 Sc1 2.105 . S
O21 C6 1.268 . S
Sc22 O25 2.025 . S
Sc22 O32 2.105 . S
Sc22 O35 2.105 . S
Sc22 O38 2.105 . S
Sc22 O41 2.105 . S
Sc23 O25 2.025 . S
Sc23 O33 2.105 . S
Sc23 O37 2.105 . S
Sc23 O39 2.105 . S
Sc23 O43 2.105 . S
Sc24 O25 2.025 . S
Sc24 O34 2.105 . S
Sc24 O36 2.105 . S
Sc24 O40 2.105 . S
Sc24 O42 2.105 . S
O25 Sc22 2.025 . S
O25 Sc23 2.025 . S
O25 Sc24 2.025 . S
C26 O32 1.268 . S
C26 O42 1.268 . S
C27 O33 1.268 . S
C27 O41 1.268 . S
C28 O34 1.268 . S
C28 O43 1.268 . S
C29 O35 1.268 . S
C29 O39 1.268 . S
C30 O36 1.268 . S
C30 O38 1.268 . S
C31 O37 1.268 . S
C31 O40 1.268 . S
O32 Sc22 2.105 . S
O32 C26 1.268 . S
O33 Sc23 2.105 . S
O33 C27 1.268 . S
O34 Sc24 2.105 . S
O34 C28 1.268 . S
O35 Sc22 2.105 . S
O35 C29 1.268 . S
O36 Sc24 2.105 . S
O36 C30 1.268 . S
O37 Sc23 2.105 . S
O37 C31 1.268 . S
O38 Sc22 2.105 . S
O38 C30 1.268 . S
O39 Sc23 2.105 . S
O39 C29 1.268 . S
O40 Sc24 2.105 . S
O40 C31 1.268 . S
O41 Sc22 2.105 . S
O41 C27 1.268 . S
O42 Sc24 2.105 . S
O42 C26 1.268 . S
O43 Sc23 2.105 . S
O43 C28 1.268 . S
Sc44 O47 2.025 . S
Sc44 O54 2.105 . S
Sc44 O57 2.105 . S
Sc44 O60 2.105 . S
Sc44 O63 2.105 . S
Sc45 O47 2.025 . S
Sc45 O55 2.105 . S
Sc45 O59 2.105 . S
Sc45 O61 2.105 . S
Sc45 O65 2.105 . S
Sc46 O47 2.025 . S
Sc46 O56 2.105 . S
Sc46 O58 2.105 . S
Sc46 O62 2.105 . S
Sc46 O64 2.105 . S
O47 Sc44 2.025 . S
O47 Sc45 2.025 . S
O47 Sc46 2.025 . S
C48 O54 1.268 . S
C48 O64 1.268 . S
C49 O55 1.268 . S
C49 O63 1.268 . S
C50 O56 1.268 . S
C50 O65 1.268 . S
C51 O57 1.268 . S
C51 O61 1.268 . S
C52 O58 1.268 . S
C52 O60 1.268 . S
C53 O59 1.268 . S
C53 O62 1.268 . S
O54 Sc44 2.105 . S
O54 C48 1.268 . S
O55 Sc45 2.105 . S
O55 C49 1.268 . S
O56 Sc46 2.105 . S
O56 C50 1.268 . S
O57 Sc44 2.105 . S
O57 C51 1.268 . S
O58 Sc46 2.105 . S
O58 C52 1.268 . S
O59 Sc45 2.105 . S
O59 C53 1.268 . S
O60 Sc44 2.105 . S
O60 C52 1.268 . S
O61 Sc45 2.105 . S
O61 C51 1.268 . S
O62 Sc46 2.105 . S
O62 C53 1.268 . S
O63 Sc44 2.105 . S
O63 C49 1.268 . S
O64 Sc46 2.105 . S
O64 C48 1.268 . S
O65 Sc45 2.105 . S
O65 C50 1.268 . S
Sc66 O69 2.025 . S
Sc66 O76 2.105 . S
Sc66 O79 2.105 . S
Sc66 O82 2.105 . S
Sc66 O85 2.105 . S
Sc67 O69 2.025 . S
Sc67 O77 2.105 . S
Sc67 O81 2.105 . S
Sc67 O83 2.105 . S
Sc67 O87 2.105 . S
Sc68 O69 2.025 . S
Sc68 O78 2.105 . S
Sc68 O80 2.105 . S
Sc68 O84 2.105 . S
Sc68 O86 2.105 . S
O69 Sc66 2.025 . S
O69 Sc67 2.025 . S
O69 Sc68 2.025 . S
C70 O76 1.268 . S
C70 O86 1.268 . S
C71 O77 1.268 . S
C71 O85 1.268 . S
C72 O78 1.268 . S
C72 O87 1.268 . S
C73 O79 1.268 . S
C73 O83 1.268 . S
C74 O80 1.268 . S
C74 O82 1.268 . S
C75 O81 1.268 . S
C75 O84 1.268 . S
O76 Sc66 2.105 . S
O76 C70 1.268 . S
O77 Sc67 2.105 . S
O77 C71 1.268 . S
O78 Sc68 2.105 . S
O78 C72 1.268 . S
O79 Sc66 2.105 . S
O79 C73 1.268 . S
O80 Sc68 2.105 . S
O80 C74 1.268 . S
O81 Sc67 2.105 . S
O81 C75 1.268 . S
O82 Sc66 2.105 . S
O82 C74 1.268 . S
O83 Sc67 2.105 . S
O83 C73 1.268 . S
O84 Sc68 2.105 . S
O84 C75 1.268 . S
O85 Sc66 2.105 . S
O85 C71 1.268 . S
O86 Sc68 2.105 . S
O86 C70 1.268 . S
O87 Sc67 2.105 . S
O87 C72 1.268 . S
H88 C94 0.930 1_556 S
H89 C98 0.930 . S
H90 C103 0.929 . S
H91 C101 0.929 . S
H92 C96 0.929 . S
H93 C102 0.929 . S
C94 H88 0.930 1_554 S
C94 C95 1.367 . S
C94 C102 1.378 . S
C95 C94 1.367 . S
C95 C103 1.433 . S
C96 H92 0.929 . S
C96 C98 1.378 . S
C96 C100 1.350 . S
C97 C100 1.463 . S
C97 C102 1.350 . S
C97 N105 1.427 . S
C98 H89 0.930 . S
C98 C96 1.378 . S
C98 C99 1.367 . S
C99 C98 1.367 . S
C99 C101 1.433 . S
C100 C96 1.350 . S
C100 C97 1.463 . S
C100 N104 1.427 . S
C101 H91 0.929 . S
C101 C99 1.433 . S
C101 N104 1.384 . S
C102 H93 0.929 . S
C102 C94 1.378 . S
C102 C97 1.350 . S
C103 H90 0.929 . S
C103 C95 1.433 . S
C103 N105 1.384 . S
N104 C100 1.427 . S
N104 C101 1.384 . S
N105 C97 1.427 . S
N105 C103 1.384 . S
H106 C112 0.930 . S
H107 C116 0.930 . S
H108 C121 0.929 . S
H109 C119 0.929 . S
H110 C114 0.929 . S
H111 C120 0.929 . S
C112 H106 0.930 . S
C112 C113 1.367 . S
C112 C120 1.378 . S
C113 C112 1.367 . S
C113 C121 1.433 . S
C114 H110 0.929 . S
C114 C116 1.378 . S
C114 C118 1.350 1_545 S
C115 C118 1.463 . S
C115 C120 1.350 . S
C115 N123 1.427 . S
C116 H107 0.930 . S
C116 C114 1.378 . S
C116 C117 1.367 . S
C117 C116 1.367 . S
C117 C119 1.433 . S
C118 C114 1.350 1_565 S
C118 C115 1.463 . S
C118 N122 1.427 . S
C119 H109 0.929 . S
C119 C117 1.433 . S
C119 N122 1.384 1_545 S
C120 H111 0.929 . S
C120 C112 1.378 . S
C120 C115 1.350 . S
C121 H108 0.929 . S
C121 C113 1.433 . S
C121 N123 1.384 . S
N122 C118 1.427 . S
N122 C119 1.384 1_565 S
N123 C115 1.427 . S
N123 C121 1.384 . S
H124 C130 0.930 . S
H125 C134 0.930 . S
H126 C139 0.929 . S
H127 C137 0.929 . S
H128 C132 0.929 . S
H129 C138 0.929 . S
C130 H124 0.930 . S
C130 C131 1.367 . S
C130 C138 1.378 . S
C131 C130 1.367 . S
C131 C139 1.433 . S
C132 H128 0.929 . S
C132 C134 1.378 . S
C132 C136 1.350 . S
C133 C136 1.463 . S
C133 C138 1.350 . S
C133 N141 1.427 . S
C134 H125 0.930 . S
C134 C132 1.378 . S
C134 C135 1.367 . S
C135 C134 1.367 . S
C135 C137 1.433 . S
C136 C132 1.350 . S
C136 C133 1.463 . S
C136 N140 1.427 . S
C137 H127 0.929 . S
C137 C135 1.433 . S
C137 N140 1.384 . S
C138 H129 0.929 . S
C138 C130 1.378 . S
C138 C133 1.350 . S
C139 H126 0.929 . S
C139 C131 1.433 . S
C139 N141 1.384 . S
N140 C136 1.427 . S
N140 C137 1.384 . S
N141 C133 1.427 . S
N141 C139 1.384 . S
H142 C148 0.930 . S
H143 C152 0.930 . S
H144 C157 0.929 1_554 S
H145 C155 0.929 . S
H146 C150 0.929 . S
H147 C156 0.929 . S
C148 H142 0.930 . S
C148 C149 1.367 . S
C148 C156 1.378 . S
C149 C148 1.367 . S
C149 C157 1.433 . S
C150 H146 0.929 . S
C150 C152 1.378 . S
C150 C154 1.350 . S
C151 C154 1.463 . S
C151 C156 1.350 1_545 S
C151 N159 1.427 1_545 S
C152 H143 0.930 . S
C152 C150 1.378 . S
C152 C153 1.367 . S
C153 C152 1.367 . S
C153 C155 1.433 . S
C154 C150 1.350 . S
C154 C151 1.463 . S
C154 N158 1.427 . S
C155 H145 0.929 . S
C155 C153 1.433 . S
C155 N158 1.384 . S
C156 H147 0.929 . S
C156 C148 1.378 . S
C156 C151 1.350 1_565 S
C157 H144 0.929 1_556 S
C157 C149 1.433 . S
C157 N159 1.384 . S
N158 C154 1.427 . S
N158 C155 1.384 . S
N159 C151 1.427 1_565 S
N159 C157 1.384 . S
H160 C166 0.930 . S
H161 C170 0.930 . S
H162 C175 0.929 . S
H163 C173 0.929 . S
H164 C168 0.929 . S
H165 C174 0.929 . S
C166 H160 0.930 . S
C166 C167 1.367 . S
C166 C174 1.378 . S
C167 C166 1.367 . S
C167 C175 1.433 . S
C168 H164 0.929 . S
C168 C170 1.378 . S
C168 C172 1.350 . S
C169 C172 1.463 . S
C169 C174 1.350 . S
C169 N177 1.427 . S
C170 H161 0.930 . S
C170 C168 1.378 . S
C170 C171 1.367 . S
C171 C170 1.367 . S
C171 C173 1.433 . S
C172 C168 1.350 . S
C172 C169 1.463 . S
C172 N176 1.427 . S
C173 H163 0.929 . S
C173 C171 1.433 . S
C173 N176 1.384 . S
C174 H165 0.929 . S
C174 C166 1.378 . S
C174 C169 1.350 . S
C175 H162 0.929 . S
C175 C167 1.433 . S
C175 N177 1.384 . S
N176 C172 1.427 . S
N176 C173 1.384 . S
N177 C169 1.427 . S
N177 C175 1.384 . S
H178 C184 0.930 . S
H179 C188 0.930 1_545 S
H180 C193 0.929 . S
H181 C191 0.929 . S
H182 C186 0.929 . S
H183 C192 0.929 1_655 S
C184 H178 0.930 . S
C184 C185 1.367 . S
C184 C192 1.378 . S
C185 C184 1.367 . S
C185 C193 1.433 . S
C186 H182 0.929 . S
C186 C188 1.378 . S
C186 C190 1.350 . S
C187 C190 1.463 . S
C187 C192 1.350 . S
C187 N195 1.427 . S
C188 H179 0.930 1_565 S
C188 C186 1.378 . S
C188 C189 1.367 1_455 S
C189 C188 1.367 1_655 S
C189 C191 1.433 . S
C190 C186 1.350 . S
C190 C187 1.463 . S
C190 N194 1.427 1_455 S
C191 H181 0.929 . S
C191 C189 1.433 . S
C191 N194 1.384 . S
C192 H183 0.929 1_455 S
C192 C184 1.378 . S
C192 C187 1.350 . S
C193 H180 0.929 . S
C193 C185 1.433 . S
C193 N195 1.384 . S
N194 C190 1.427 1_655 S
N194 C191 1.384 . S
N195 C187 1.427 . S
N195 C193 1.384 . S
H196 C202 0.930 . S
H197 C206 0.930 . S
H198 C211 0.929 . S
H199 C209 0.927 1_556 S
H200 C204 0.929 . S
H201 C210 0.929 . S
C202 H196 0.930 . S
C202 C203 1.367 . S
C202 C210 1.378 . S
C203 C202 1.367 . S
C203 C211 1.433 . S
C204 H200 0.929 . S
C204 C206 1.378 . S
C204 C208 1.350 1_554 S
C205 C208 1.463 . S
C205 C210 1.350 . S
C205 N213 1.427 . S
C206 H197 0.930 . S
C206 C204 1.378 . S
C206 C207 1.367 . S
C207 C206 1.367 . S
C207 C209 1.439 . S
C208 C204 1.350 1_556 S
C208 C205 1.463 . S
C208 N212 1.427 . S
C209 H199 0.927 1_554 S
C209 C207 1.439 . S
C209 N212 1.380 1_554 S
C210 H201 0.929 . S
C210 C202 1.378 . S
C210 C205 1.350 . S
C211 H198 0.929 . S
C211 C203 1.433 . S
C211 N213 1.384 . S
N212 C208 1.427 . S
N212 C209 1.380 1_556 S
N213 C205 1.427 . S
N213 C211 1.384 . S
H214 C220 0.930 . S
H215 C224 0.930 1_565 S
H216 C229 0.929 . S
H217 C227 0.929 . S
H218 C222 0.929 . S
H219 C228 0.929 . S
C220 H214 0.930 . S
C220 C221 1.367 . S
C220 C228 1.378 . S
C221 C220 1.367 . S
C221 C229 1.433 . S
C222 H218 0.929 . S
C222 C224 1.378 . S
C222 C226 1.350 . S
C223 C226 1.463 . S
C223 C228 1.350 . S
C223 N231 1.427 . S
C224 H215 0.930 1_545 S
C224 C222 1.378 . S
C224 C225 1.367 . S
C225 C224 1.367 . S
C225 C227 1.433 . S
C226 C222 1.350 . S
C226 C223 1.463 . S
C226 N230 1.427 . S
C227 H217 0.929 . S
C227 C225 1.433 . S
C227 N230 1.384 . S
C228 H219 0.929 . S
C228 C220 1.378 . S
C228 C223 1.350 . S
C229 H216 0.929 . S
C229 C221 1.433 . S
C229 N231 1.384 . S
N230 C226 1.427 . S
N230 C227 1.384 . S
N231 C223 1.427 . S
N231 C229 1.384 . S
H232 C238 0.930 . S
H233 C242 0.930 . S
H234 C247 0.929 . S
H235 C245 0.929 . S
H236 C240 0.929 . S
H237 C246 0.929 . S
C238 H232 0.930 . S
C238 C239 1.367 . S
C238 C246 1.378 . S
C239 C238 1.367 . S
C239 C247 1.433 . S
C240 H236 0.929 . S
C240 C242 1.378 . S
C240 C244 1.350 . S
C241 C244 1.463 . S
C241 C246 1.350 . S
C241 N249 1.427 . S
C242 H233 0.930 . S
C242 C240 1.378 . S
C242 C243 1.367 . S
C243 C242 1.367 . S
C243 C245 1.433 . S
C244 C240 1.350 . S
C244 C241 1.463 . S
C244 N248 1.427 . S
C245 H235 0.929 . S
C245 C243 1.433 . S
C245 N248 1.384 . S
C246 H237 0.929 . S
C246 C238 1.378 . S
C246 C241 1.350 . S
C247 H234 0.929 . S
C247 C239 1.433 . S
C247 N249 1.384 . S
N248 C244 1.427 . S
N248 C245 1.384 . S
N249 C241 1.427 . S
N249 C247 1.384 . S
H250 C256 0.930 1_655 S
H251 C260 0.930 . S
H252 C265 0.929 . S
H253 C263 0.929 . S
H254 C258 0.929 1_455 S
H255 C264 0.929 . S
C256 H250 0.930 1_455 S
C256 C257 1.367 . S
C256 C264 1.378 1_455 S
C257 C256 1.367 . S
C257 C265 1.433 . S
C258 H254 0.929 1_655 S
C258 C260 1.378 . S
C258 C262 1.350 . S
C259 C262 1.463 . S
C259 C264 1.350 . S
C259 N267 1.427 1_655 S
C260 H251 0.930 . S
C260 C258 1.378 . S
C260 C261 1.367 . S
C261 C260 1.367 . S
C261 C263 1.433 . S
C262 C258 1.350 . S
C262 C259 1.463 . S
C262 N266 1.427 . S
C263 H253 0.929 . S
C263 C261 1.433 . S
C263 N266 1.384 . S
C264 H255 0.929 . S
C264 C256 1.378 1_655 S
C264 C259 1.350 . S
C265 H252 0.929 . S
C265 C257 1.433 . S
C265 N267 1.384 . S
N266 C262 1.427 . S
N266 C263 1.384 . S
N267 C259 1.427 1_455 S
N267 C265 1.384 . S
H268 C274 0.928 1_554 S
H269 C278 0.930 . S
H270 C283 0.929 . S
H271 C281 0.929 . S
H272 C276 0.929 1_556 S
H273 C282 0.929 . S
C274 H268 0.928 1_556 S
C274 C275 1.372 . S
C274 C282 1.375 1_556 S
C275 C274 1.372 . S
C275 C283 1.433 . S
C276 H272 0.929 1_554 S
C276 C278 1.378 . S
C276 C280 1.350 . S
C277 C280 1.463 . S
C277 C282 1.350 . S
C277 N285 1.427 1_554 S
C278 H269 0.930 . S
C278 C276 1.378 . S
C278 C279 1.367 . S
C279 C278 1.367 . S
C279 C281 1.433 . S
C280 C276 1.350 . S
C280 C277 1.463 . S
C280 N284 1.427 . S
C281 H271 0.929 . S
C281 C279 1.433 . S
C281 N284 1.384 . S
C282 H273 0.929 . S
C282 C274 1.375 1_554 S
C282 C277 1.350 . S
C283 H270 0.929 . S
C283 C275 1.433 . S
C283 N285 1.384 . S
N284 C280 1.427 . S
N284 C281 1.384 . S
N285 C277 1.427 1_556 S
N285 C283 1.384 . S
H286 C292 0.930 . S
H287 C296 0.930 . S
H288 C301 0.929 . S
H289 C299 0.929 . S
H290 C294 0.929 . S
H291 C300 0.929 . S
C292 H286 0.930 . S
C292 C293 1.367 . S
C292 C300 1.378 . S
C293 C292 1.367 . S
C293 C301 1.433 . S
C294 H290 0.929 . S
C294 C296 1.378 . S
C294 C298 1.350 . S
C295 C298 1.463 . S
C295 C300 1.350 . S
C295 N303 1.427 . S
C296 H287 0.930 . S
C296 C294 1.378 . S
C296 C297 1.367 . S
C297 C296 1.367 . S
C297 C299 1.433 . S
C298 C294 1.350 . S
C298 C295 1.463 . S
C298 N302 1.427 . S
C299 H289 0.929 . S
C299 C297 1.433 . S
C299 N302 1.384 . S
C300 H291 0.929 . S
C300 C292 1.378 . S
C300 C295 1.350 . S
C301 H288 0.929 . S
C301 C293 1.433 . S
C301 N303 1.384 . S
N302 C298 1.427 . S
N302 C299 1.384 . S
N303 C295 1.427 . S
N303 C301 1.384 . S
C95 C51 1.305 1_554 S
C99 C4 1.302 . S
C113 C75 1.314 . S
C117 C31 1.301 . S
C131 C48 1.301 . S
C135 C7 1.308 . S
C149 C71 1.321 1_556 S
C153 C27 1.314 . S
C167 C30 1.320 1_455 S
C171 C5 1.305 . S
C185 C50 1.301 . S
C189 C29 1.311 1_565 S
C203 C49 1.320 . S
C207 C70 1.305 . S
C221 C6 1.304 . S
C225 C72 1.303 1_545 S
C239 C28 1.311 . S
C243 C9 1.301 . S
C257 C52 1.307 . S
C261 C26 1.301 . S
C275 C53 1.317 1_655 S
C279 C73 1.302 . S
C293 C74 1.322 . S
C297 C8 1.313 . S
