# Generated by pormake.
# Topology wmi, (6)-cn, num edge types: 1
# Building blocks:
#     Node 0, Type 0, BuildingBlock: MIFKUJ_clean_sbu_0, # of connection points: 6
#     Node 1, Type 0, BuildingBlock: MIFKUJ_clean_sbu_0, # of connection points: 6
#     Node 2, Type 0, BuildingBlock: MIFKUJ_clean_sbu_0, # of connection points: 6
#     Node 3, Type 0, BuildingBlock: MIFKUJ_clean_sbu_0, # of connection points: 6
#     Node 4, Type 0, BuildingBlock: MIFKUJ_clean_sbu_0, # of connection points: 6
#     Node 5, Type 0, BuildingBlock: MIFKUJ_clean_sbu_0, # of connection points: 6
#     Node 6, Type 0, BuildingBlock: MIFKUJ_clean_sbu_0, # of connection points: 6
#     Node 7, Type 0, BuildingBlock: MIFKUJ_clean_sbu_0, # of connection points: 6
#     Node 8, Type 0, BuildingBlock: MIFKUJ_clean_sbu_0, # of connection points: 6
#     Node 9, Type 0, BuildingBlock: MIFKUJ_clean_sbu_0, # of connection points: 6
#     Node 10, Type 0, BuildingBlock: MIFKUJ_clean_sbu_0, # of connection points: 6
#     Node 11, Type 0, BuildingBlock: MIFKUJ_clean_sbu_0, # of connection points: 6
#     Node 12, Type 0, BuildingBlock: MIFKUJ_clean_sbu_0, # of connection points: 6
#     Node 13, Type 0, BuildingBlock: MIFKUJ_clean_sbu_0, # of connection points: 6
#     Node 14, Type 0, BuildingBlock: MIFKUJ_clean_sbu_0, # of connection points: 6
#     Node 15, Type 0, BuildingBlock: MIFKUJ_clean_sbu_0, # of connection points: 6
#     Node 16, Type 0, BuildingBlock: MIFKUJ_clean_sbu_0, # of connection points: 6
#     Node 17, Type 0, BuildingBlock: MIFKUJ_clean_sbu_0, # of connection points: 6
#     Edge 18, Type (0, 0), BuildingBlock: OJICUG_clean_linker_0, # of connection points: 2
#     Edge 19, Type (0, 0), BuildingBlock: OJICUG_clean_linker_0, # of connection points: 2
#     Edge 20, Type (0, 0), BuildingBlock: OJICUG_clean_linker_0, # of connection points: 2
#     Edge 21, Type (0, 0), BuildingBlock: OJICUG_clean_linker_0, # of connection points: 2
#     Edge 22, Type (0, 0), BuildingBlock: OJICUG_clean_linker_0, # of connection points: 2
#     Edge 23, Type (0, 0), BuildingBlock: OJICUG_clean_linker_0, # of connection points: 2
#     Edge 24, Type (0, 0), BuildingBlock: OJICUG_clean_linker_0, # of connection points: 2
#     Edge 25, Type (0, 0), BuildingBlock: OJICUG_clean_linker_0, # of connection points: 2
#     Edge 26, Type (0, 0), BuildingBlock: OJICUG_clean_linker_0, # of connection points: 2
#     Edge 27, Type (0, 0), BuildingBlock: OJICUG_clean_linker_0, # of connection points: 2
#     Edge 28, Type (0, 0), BuildingBlock: OJICUG_clean_linker_0, # of connection points: 2
#     Edge 29, Type (0, 0), BuildingBlock: OJICUG_clean_linker_0, # of connection points: 2
#     Edge 30, Type (0, 0), BuildingBlock: OJICUG_clean_linker_0, # of connection points: 2
#     Edge 31, Type (0, 0), BuildingBlock: OJICUG_clean_linker_0, # of connection points: 2
#     Edge 32, Type (0, 0), BuildingBlock: OJICUG_clean_linker_0, # of connection points: 2
#     Edge 33, Type (0, 0), BuildingBlock: OJICUG_clean_linker_0, # of connection points: 2
#     Edge 34, Type (0, 0), BuildingBlock: OJICUG_clean_linker_0, # of connection points: 2
#     Edge 35, Type (0, 0), BuildingBlock: OJICUG_clean_linker_0, # of connection points: 2
#     Edge 36, Type (0, 0), BuildingBlock: OJICUG_clean_linker_0, # of connection points: 2
#     Edge 37, Type (0, 0), BuildingBlock: OJICUG_clean_linker_0, # of connection points: 2
#     Edge 38, Type (0, 0), BuildingBlock: OJICUG_clean_linker_0, # of connection points: 2
#     Edge 39, Type (0, 0), BuildingBlock: OJICUG_clean_linker_0, # of connection points: 2
#     Edge 40, Type (0, 0), BuildingBlock: OJICUG_clean_linker_0, # of connection points: 2
#     Edge 41, Type (0, 0), BuildingBlock: OJICUG_clean_linker_0, # of connection points: 2
#     Edge 42, Type (0, 0), BuildingBlock: OJICUG_clean_linker_0, # of connection points: 2
#     Edge 43, Type (0, 0), BuildingBlock: OJICUG_clean_linker_0, # of connection points: 2
#     Edge 44, Type (0, 0), BuildingBlock: OJICUG_clean_linker_0, # of connection points: 2
#     Edge 45, Type (0, 0), BuildingBlock: OJICUG_clean_linker_0, # of connection points: 2
#     Edge 46, Type (0, 0), BuildingBlock: OJICUG_clean_linker_0, # of connection points: 2
#     Edge 47, Type (0, 0), BuildingBlock: OJICUG_clean_linker_0, # of connection points: 2
#     Edge 48, Type (0, 0), BuildingBlock: OJICUG_clean_linker_0, # of connection points: 2
#     Edge 49, Type (0, 0), BuildingBlock: OJICUG_clean_linker_0, # of connection points: 2
#     Edge 50, Type (0, 0), BuildingBlock: OJICUG_clean_linker_0, # of connection points: 2
#     Edge 51, Type (0, 0), BuildingBlock: OJICUG_clean_linker_0, # of connection points: 2
#     Edge 52, Type (0, 0), BuildingBlock: OJICUG_clean_linker_0, # of connection points: 2
#     Edge 53, Type (0, 0), BuildingBlock: OJICUG_clean_linker_0, # of connection points: 2
#     Edge 54, Type (0, 0), BuildingBlock: OJICUG_clean_linker_0, # of connection points: 2
#     Edge 55, Type (0, 0), BuildingBlock: OJICUG_clean_linker_0, # of connection points: 2
#     Edge 56, Type (0, 0), BuildingBlock: OJICUG_clean_linker_0, # of connection points: 2
#     Edge 57, Type (0, 0), BuildingBlock: OJICUG_clean_linker_0, # of connection points: 2
#     Edge 58, Type (0, 0), BuildingBlock: OJICUG_clean_linker_0, # of connection points: 2
#     Edge 59, Type (0, 0), BuildingBlock: OJICUG_clean_linker_0, # of connection points: 2
#     Edge 60, Type (0, 0), BuildingBlock: OJICUG_clean_linker_0, # of connection points: 2
#     Edge 61, Type (0, 0), BuildingBlock: OJICUG_clean_linker_0, # of connection points: 2
#     Edge 62, Type (0, 0), BuildingBlock: OJICUG_clean_linker_0, # of connection points: 2
#     Edge 63, Type (0, 0), BuildingBlock: OJICUG_clean_linker_0, # of connection points: 2
#     Edge 64, Type (0, 0), BuildingBlock: OJICUG_clean_linker_0, # of connection points: 2
#     Edge 65, Type (0, 0), BuildingBlock: OJICUG_clean_linker_0, # of connection points: 2
#     Edge 66, Type (0, 0), BuildingBlock: OJICUG_clean_linker_0, # of connection points: 2
#     Edge 67, Type (0, 0), BuildingBlock: OJICUG_clean_linker_0, # of connection points: 2
#     Edge 68, Type (0, 0), BuildingBlock: OJICUG_clean_linker_0, # of connection points: 2
#     Edge 69, Type (0, 0), BuildingBlock: OJICUG_clean_linker_0, # of connection points: 2
#     Edge 70, Type (0, 0), BuildingBlock: OJICUG_clean_linker_0, # of connection points: 2
#     Edge 71, Type (0, 0), BuildingBlock: OJICUG_clean_linker_0, # of connection points: 2
# Relax obj value: 0.089
# Max RMSD: 0.199
# Mean RMSD: 0.199
data_MOF--net-wmi--node1-MIFKUJ_clean_sbu_0--edge1-OJICUG_clean_linker_0
_symmetry_space_group_name_H-M    P1
_symmetry_Int_Tables_number       1
_symmetry_cell_setting            triclinic
loop_
_symmetry_equiv_pos_as_xyz
'x, y, z'
_cell_length_a     27.023166
_cell_length_b     27.024416
_cell_length_c     56.616527
_cell_angle_alpha  90.300207
_cell_angle_beta   89.695691
_cell_angle_gamma 119.2069
loop_
_atom_site_label
_atom_site_type_symbol
_atom_site_fract_x
_atom_site_fract_y
_atom_site_fract_z
_atom_type_partial_charge
Zn0 Zn 0.38922 0.94396 0.06921 0.0
Zn1 Zn 0.51253 0.0845 0.07429 0.0
C2 C 0.44195 0.8799 0.06849 0.0
O3 O 0.41215 0.86714 0.04896 0.0
C4 C 0.49666 0.17926 0.08782 0.0
O5 O 0.50673 0.16716 0.1091 0.0
O6 O 0.30986 0.87765 0.0717 0.0
O7 O 0.39456 0.01234 0.08445 0.0
O8 O 0.4731 0.04256 0.10399 0.0
C9 C 0.29692 0.84655 0.09001 0.0
O10 O 0.33388 0.86137 0.10725 0.0
O11 O 0.44079 0.91632 0.08249 0.0
C12 C 0.62701 0.15669 0.06219 0.0
O13 O 0.6018 0.15816 0.04264 0.0
O14 O 0.59704 0.1242 0.0788 0.0
O15 O 0.49223 0.04338 0.0426 0.0
O16 O 0.4124 0.96269 0.03612 0.0
O17 O 0.49508 0.14838 0.07052 0.0
C18 C 0.41961 0.02065 0.10397 0.0
C19 C 0.45894 0.00348 0.02888 0.0
Zn20 Zn 0.10911 0.50367 0.07052 0.0
Zn21 Zn 0.94497 0.45373 0.07302 0.0
C22 C 0.12236 0.61556 0.07924 0.0
O23 O 0.08548 0.60136 0.06203 0.0
C24 C 0.85078 0.34152 0.08082 0.0
O25 O 0.86749 0.3536 0.10286 0.0
O26 O 0.17136 0.48361 0.0732 0.0
O27 O 0.03638 0.44051 0.08055 0.0
O28 O 0.97603 0.44459 0.10422 0.0
C29 C 0.19844 0.49317 0.09251 0.0
O30 O 0.18338 0.51368 0.11056 0.0
O31 O 0.13447 0.57878 0.08715 0.0
C32 C 0.88043 0.50722 0.06213 0.0
O33 O 0.87761 0.48245 0.04175 0.0
O34 O 0.9115 0.50465 0.07828 0.0
O35 O 0.00105 0.47953 0.04472 0.0
O36 O 0.09273 0.51181 0.03734 0.0
O37 O 0.87843 0.37741 0.06478 0.0
C38 C 0.01965 0.43951 0.10134 0.0
C39 C 0.04278 0.49738 0.03024 0.0
Zn40 Zn 0.53069 0.62433 0.07418 0.0
Zn41 Zn 0.57766 0.51882 0.0789 0.0
C42 C 0.42215 0.52511 0.08318 0.0
O43 O 0.43493 0.5054 0.06423 0.0
C44 C 0.69547 0.54518 0.08749 0.0
O45 O 0.68656 0.5535 0.10963 0.0
O46 O 0.52603 0.69561 0.071 0.0
O47 O 0.6037 0.64668 0.09055 0.0
O48 O 0.58259 0.56568 0.10766 0.0
C49 C 0.5238 0.72463 0.08832 0.0
O50 O 0.52644 0.70889 0.10998 0.0
O51 O 0.45972 0.57146 0.09217 0.0
C52 C 0.5251 0.40092 0.06962 0.0
O53 O 0.54041 0.42084 0.04812 0.0
O54 O 0.53328 0.43551 0.0864 0.0
O55 O 0.55577 0.53439 0.0471 0.0
O56 O 0.52851 0.59831 0.04143 0.0
O57 O 0.65616 0.53169 0.07247 0.0
C58 C 0.60477 0.61932 0.10841 0.0
C59 C 0.53934 0.56071 0.03355 0.0
Zn60 Zn 0.93875 0.39042 0.89186 0.0
Zn61 Zn 0.08248 0.50722 0.88307 0.0
C62 C 0.88472 0.45389 0.89493 0.0
O63 O 0.87585 0.42826 0.91541 0.0
C64 C 0.18228 0.49869 0.87021 0.0
O65 O 0.17299 0.51264 0.84916 0.0
O66 O 0.86812 0.31395 0.89186 0.0
O67 O 0.99702 0.3822 0.87348 0.0
O68 O 0.03769 0.46273 0.85446 0.0
C69 C 0.83781 0.29854 0.87329 0.0
O70 O 0.85435 0.33224 0.85485 0.0
O71 O 0.91426 0.44551 0.87944 0.0
C72 C 0.15211 0.62479 0.89214 0.0
O73 O 0.15209 0.60394 0.91305 0.0
O74 O 0.12153 0.59113 0.87593 0.0
O75 O 0.04667 0.49227 0.91588 0.0
O76 O 0.96548 0.41472 0.9243 0.0
O77 O 0.14778 0.49171 0.88688 0.0
C78 C 0.01129 0.40891 0.85423 0.0
C79 C 0.00832 0.46083 0.93057 0.0
Zn80 Zn 0.6388 0.55509 0.89513 0.0
Zn81 Zn 0.52396 0.58215 0.88565 0.0
C82 C 0.5718 0.43904 0.89626 0.0
O83 O 0.59109 0.453 0.91789 0.0
C84 C 0.53966 0.69267 0.87247 0.0
O85 O 0.53143 0.6718 0.85094 0.0
O86 O 0.71227 0.55376 0.89785 0.0
O87 O 0.65341 0.62193 0.876 0.0
O88 O 0.57133 0.58104 0.8579 0.0
C89 C 0.73494 0.5447 0.87977 0.0
O90 O 0.71175 0.54006 0.85896 0.0
O91 O 0.58465 0.47832 0.88119 0.0
C92 C 0.40428 0.53174 0.89259 0.0
O93 O 0.42115 0.54499 0.91456 0.0
O94 O 0.44103 0.5407 0.87664 0.0
O95 O 0.5329 0.5603 0.91896 0.0
O96 O 0.61273 0.5593 0.92706 0.0
O97 O 0.54045 0.66276 0.88955 0.0
C98 C 0.62498 0.61127 0.85722 0.0
C99 C 0.56598 0.55539 0.93349 0.0
Zn100 Zn 0.49733 0.10167 0.88911 0.0
Zn101 Zn 0.4467 0.94451 0.88313 0.0
C102 C 0.60938 0.11589 0.88221 0.0
O103 O 0.59585 0.08375 0.90106 0.0
C104 C 0.33707 0.84756 0.87123 0.0
O105 O 0.35518 0.86063 0.84936 0.0
O106 O 0.49547 0.17469 0.89244 0.0
O107 O 0.42546 0.04656 0.8737 0.0
O108 O 0.4449 0.98762 0.8544 0.0
C109 C 0.50174 0.20664 0.87496 0.0
O110 O 0.50753 0.19061 0.85365 0.0
O111 O 0.57122 0.12284 0.87213 0.0
C112 C 0.50283 0.8811 0.89256 0.0
O113 O 0.48631 0.8847 0.91406 0.0
O114 O 0.49388 0.90721 0.87597 0.0
O115 O 0.46799 0.98404 0.915 0.0
O116 O 0.49896 0.07573 0.92119 0.0
O117 O 0.36802 0.8785 0.88799 0.0
C118 C 0.42914 0.02481 0.85447 0.0
C119 C 0.48557 0.0267 0.92876 0.0
Zn120 Zn 0.05465 0.27894 0.38907 0.0
Zn121 Zn 0.16797 0.41072 0.39511 0.0
C122 C 0.11896 0.22461 0.38632 0.0
O123 O 0.09412 0.21536 0.36564 0.0
C124 C 0.16264 0.51065 0.41215 0.0
O125 O 0.1697 0.4947 0.43317 0.0
O126 O 0.98299 0.20647 0.39034 0.0
O127 O 0.04288 0.33442 0.40795 0.0
O128 O 0.12578 0.36711 0.4243 0.0
C129 C 0.96847 0.18032 0.40987 0.0
O130 O 0.99762 0.20522 0.42897 0.0
O131 O 0.11214 0.25677 0.40098 0.0
C132 C 0.28434 0.47147 0.38455 0.0
O133 O 0.26336 0.48066 0.36523 0.0
O134 O 0.2505 0.43927 0.4003 0.0
O135 O 0.14894 0.38003 0.36151 0.0
O136 O 0.06902 0.29994 0.35594 0.0
O137 O 0.15976 0.48089 0.3942 0.0
C138 C 0.07303 0.34944 0.42629 0.0
C139 C 0.11307 0.34197 0.34789 0.0
Zn140 Zn 0.77604 0.82522 0.41669 0.0
Zn141 Zn 0.59724 0.74994 0.41416 0.0
C142 C 0.84318 0.93833 0.40798 0.0
O143 O 0.85229 0.91426 0.38949 0.0
C144 C 0.51096 0.63117 0.41187 0.0
O145 O 0.53088 0.62761 0.43252 0.0
O146 O 0.8328 0.79839 0.422 0.0
O147 O 0.70119 0.78314 0.43057 0.0
O148 O 0.61939 0.73192 0.44627 0.0
C149 C 0.86869 0.81956 0.43864 0.0
O150 O 0.86298 0.85282 0.45414 0.0
O151 O 0.811 0.90744 0.4244 0.0
C152 C 0.53898 0.80977 0.40108 0.0
O153 O 0.54198 0.7894 0.38031 0.0
O154 O 0.56358 0.8017 0.41855 0.0
O155 O 0.66233 0.78029 0.3895 0.0
O156 O 0.75478 0.81782 0.38284 0.0
O157 O 0.53399 0.67811 0.40094 0.0
C158 C 0.67247 0.75218 0.44732 0.0
C159 C 0.70449 0.79966 0.37527 0.0
Zn160 Zn 0.19627 0.95866 0.39941 0.0
Zn161 Zn 0.25123 0.8536 0.40539 0.0
C162 C 0.09015 0.86121 0.41441 0.0
O163 O 0.09703 0.83722 0.39537 0.0
C164 C 0.3601 0.86442 0.4169 0.0
O165 O 0.34138 0.86201 0.43856 0.0
O166 O 0.19239 0.03072 0.394 0.0
O167 O 0.27111 0.98089 0.41408 0.0
O168 O 0.25623 0.90344 0.43287 0.0
C169 C 0.1895 0.06145 0.4105 0.0
O170 O 0.19071 0.04735 0.43258 0.0
O171 O 0.12922 0.91021 0.42036 0.0
C172 C 0.19806 0.73631 0.39705 0.0
O173 O 0.21388 0.75669 0.37565 0.0
O174 O 0.20611 0.77066 0.41393 0.0
O175 O 0.22501 0.86675 0.37405 0.0
O176 O 0.18971 0.92428 0.36779 0.0
O177 O 0.32984 0.86425 0.39973 0.0
C178 C 0.27268 0.95627 0.43279 0.0
C179 C 0.20396 0.88865 0.36034 0.0
Zn180 Zn 0.61073 0.72412 0.23384 0.0
Zn181 Zn 0.74268 0.83442 0.22722 0.0
C182 C 0.56354 0.79579 0.23551 0.0
O183 O 0.55702 0.77653 0.2572 0.0
C184 C 0.8421 0.82814 0.21045 0.0
O185 O 0.82525 0.83327 0.18933 0.0
O186 O 0.53684 0.65433 0.23319 0.0
O187 O 0.66378 0.70798 0.21535 0.0
O188 O 0.69917 0.79041 0.1983 0.0
C189 C 0.51096 0.63828 0.21365 0.0
O190 O 0.53668 0.6648 0.19417 0.0
O191 O 0.59142 0.78281 0.22089 0.0
C192 C 0.80229 0.95133 0.2368 0.0
O193 O 0.81064 0.93157 0.25666 0.0
O194 O 0.77091 0.91652 0.22113 0.0
O195 O 0.71297 0.81726 0.261 0.0
O196 O 0.63177 0.73885 0.26687 0.0
O197 O 0.81304 0.82675 0.22842 0.0
C198 C 0.68068 0.73743 0.19685 0.0
C199 C 0.67459 0.78234 0.27477 0.0
Zn200 Zn 0.2935 0.86454 0.22131 0.0
Zn201 Zn 0.18543 0.91852 0.21575 0.0
C202 C 0.19667 0.75849 0.20565 0.0
O203 O 0.17076 0.76671 0.2237 0.0
C204 C 0.19685 0.0278 0.2049 0.0
O205 O 0.19457 0.0096 0.18315 0.0
O206 O 0.36842 0.86612 0.22623 0.0
O207 O 0.3088 0.93827 0.20761 0.0
O208 O 0.23297 0.92238 0.18766 0.0
C209 C 0.39688 0.85974 0.20965 0.0
O210 O 0.37844 0.85389 0.18784 0.0
O211 O 0.24676 0.7966 0.20048 0.0
C212 C 0.06843 0.86509 0.22505 0.0
O213 O 0.08948 0.88112 0.24634 0.0
O214 O 0.10224 0.87321 0.20796 0.0
O215 O 0.20093 0.89104 0.24645 0.0
O216 O 0.25835 0.85557 0.25293 0.0
O217 O 0.19653 0.99709 0.22192 0.0
C218 C 0.28508 0.93608 0.18816 0.0
C219 C 0.22256 0.86982 0.26025 0.0
Zn220 Zn 0.15661 0.44301 0.20591 0.0
Zn221 Zn 0.082 0.2647 0.20784 0.0
C222 C 0.26879 0.51214 0.215 0.0
O223 O 0.24358 0.52152 0.233 0.0
C224 C 0.96422 0.17614 0.20824 0.0
O225 O 0.96343 0.19362 0.18671 0.0
O226 O 0.12976 0.49957 0.19998 0.0
O227 O 0.11623 0.36852 0.19191 0.0
O228 O 0.06595 0.28765 0.17546 0.0
C229 C 0.15204 0.53499 0.18323 0.0
O230 O 0.1854 0.52815 0.16817 0.0
O231 O 0.2389 0.47857 0.19874 0.0
C232 C 0.14093 0.20557 0.22129 0.0
O233 O 0.11951 0.20761 0.24193 0.0
O234 O 0.13373 0.23091 0.20387 0.0
O235 O 0.11115 0.32883 0.23307 0.0
O236 O 0.14811 0.42135 0.2397 0.0
O237 O 0.0093 0.20132 0.22035 0.0
C238 C 0.08669 0.34078 0.1747 0.0
C239 C 0.12998 0.37106 0.24728 0.0
Zn240 Zn 0.7315 0.59879 0.73091 0.0
Zn241 Zn 0.84485 0.74216 0.73969 0.0
C242 C 0.80077 0.55101 0.72861 0.0
O243 O 0.77948 0.5447 0.70731 0.0
C244 C 0.83322 0.8403 0.75247 0.0
O245 O 0.84482 0.82994 0.77379 0.0
O246 O 0.65868 0.52484 0.72889 0.0
O247 O 0.71667 0.65198 0.74986 0.0
O248 O 0.79877 0.69659 0.7679 0.0
C249 C 0.63733 0.49384 0.74703 0.0
O250 O 0.66148 0.51239 0.76768 0.0
O251 O 0.78789 0.57718 0.74412 0.0
C252 C 0.96321 0.8106 0.73154 0.0
O253 O 0.94392 0.80852 0.7101 0.0
O254 O 0.92833 0.78188 0.74776 0.0
O255 O 0.83338 0.70826 0.70673 0.0
O256 O 0.75561 0.62711 0.69876 0.0
O257 O 0.82879 0.80705 0.73565 0.0
C258 C 0.74492 0.67072 0.76862 0.0
C259 C 0.8015 0.66971 0.69227 0.0
Zn260 Zn 0.43361 0.14102 0.73296 0.0
Zn261 Zn 0.2817 0.10574 0.74012 0.0
C262 C 0.48923 0.25627 0.7319 0.0
O263 O 0.49941 0.23949 0.71152 0.0
C264 C 0.18482 -0.00285 0.75257 0.0
O265 O 0.19602 0.01799 0.77411 0.0
O266 O 0.50442 0.13443 0.73089 0.0
O267 O 0.37379 0.07349 0.74924 0.0
O268 O 0.32595 0.10603 0.76891 0.0
C269 C 0.53712 0.14604 0.7486 0.0
O270 O 0.52208 0.1587 0.76887 0.0
O271 O 0.45811 0.21891 0.74694 0.0
C272 C 0.21517 0.15882 0.73102 0.0
O273 O 0.21847 0.14219 0.7095 0.0
O274 O 0.24242 0.15099 0.74746 0.0
O275 O 0.31981 0.12768 0.70776 0.0
O276 O 0.40713 0.14221 0.70103 0.0
O277 O 0.21703 0.02616 0.7357 0.0
C278 C 0.35771 0.08368 0.76869 0.0
C279 C 0.36149 0.13954 0.69394 0.0
Zn280 Zn 0.88704 0.29499 0.72935 0.0
Zn281 Zn 0.91689 0.18188 0.73851 0.0
C282 C 0.77051 0.22027 0.72834 0.0
O283 O 0.78292 0.23447 0.70608 0.0
C284 C 0.02669 0.1953 0.75181 0.0
O285 O 0.00586 0.18683 0.77335 0.0
O286 O 0.8864 0.36864 0.72713 0.0
O287 O 0.95486 0.31019 0.74787 0.0
O288 O 0.91651 0.22915 0.76663 0.0
C289 C 0.87864 0.39196 0.74529 0.0
O290 O 0.87279 0.36816 0.76605 0.0
O291 O 0.8105 0.23955 0.74341 0.0
C292 C 0.8665 0.06269 0.73083 0.0
O293 O 0.88187 0.08069 0.7091 0.0
O294 O 0.87404 0.09865 0.74694 0.0
O295 O 0.89708 0.19286 0.70497 0.0
O296 O 0.89204 0.27073 0.69725 0.0
O297 O 0.99705 0.19697 0.73481 0.0
C298 C 0.94499 0.28296 0.76692 0.0
C299 C 0.89094 0.22542 0.69054 0.0
Zn300 Zn 0.28736 0.05881 0.55315 0.0
Zn301 Zn 0.42374 0.17989 0.54811 0.0
C302 C 0.22397 0.11203 0.55402 0.0
O303 O 0.21237 0.08309 0.57376 0.0
C304 C 0.51853 0.16356 0.53508 0.0
O305 O 0.50748 0.17478 0.51381 0.0
O306 O 0.21891 0.98106 0.55256 0.0
O307 O 0.35235 0.05874 0.53693 0.0
O308 O 0.38027 0.13883 0.51882 0.0
C309 C 0.18662 0.96376 0.53459 0.0
O310 O 0.20209 0.99457 0.51529 0.0
O311 O 0.25969 0.11032 0.53973 0.0
C312 C 0.49681 0.29547 0.55828 0.0
O313 O 0.49681 0.27255 0.57869 0.0
O314 O 0.46501 0.26376 0.54188 0.0
O315 O 0.38563 0.16532 0.58042 0.0
O316 O 0.30768 0.08244 0.586 0.0
O317 O 0.48686 0.16124 0.5522 0.0
C318 C 0.36221 0.08587 0.51788 0.0
C319 C 0.34615 0.12974 0.59369 0.0
Zn320 Zn 0.96437 0.19574 0.54943 0.0
Zn321 Zn 0.85795 0.24258 0.54497 0.0
C322 C 0.86514 0.0871 0.54036 0.0
O323 O 0.84488 0.10027 0.55903 0.0
C324 C 0.88117 0.35837 0.53504 0.0
O325 O 0.88463 0.34584 0.51286 0.0
O326 O 0.03631 0.19203 0.55255 0.0
O327 O 0.98588 0.2682 0.53277 0.0
O328 O 0.90416 0.24639 0.51613 0.0
C329 C 0.06496 0.18977 0.53508 0.0
O330 O 0.04826 0.19163 0.5135 0.0
O331 O 0.91196 0.12433 0.53158 0.0
C332 C 0.73966 0.19113 0.55417 0.0
O333 O 0.75929 0.20645 0.5757 0.0
O334 O 0.77444 0.19884 0.53751 0.0
O335 O 0.87335 0.22024 0.5768 0.0
O336 O 0.93794 0.19362 0.58218 0.0
O337 O 0.87172 0.32174 0.55092 0.0
C338 C 0.95782 0.269 0.5151 0.0
C339 C 0.90006 0.2039 0.5902 0.0
Zn340 Zn 0.83363 0.76893 0.55303 0.0
Zn341 Zn 0.79461 0.61269 0.54749 0.0
C342 C 0.9507 0.82092 0.55258 0.0
O343 O 0.93816 0.83209 0.57367 0.0
C344 C 0.68326 0.51727 0.53776 0.0
O345 O 0.69707 0.53291 0.51569 0.0
O346 O 0.81808 0.83418 0.55046 0.0
O347 O 0.76829 0.69887 0.54163 0.0
O348 O 0.78725 0.64855 0.51729 0.0
C349 C 0.82859 0.86146 0.53116 0.0
O350 O 0.84782 0.84518 0.51306 0.0
O351 O 0.9106 0.79193 0.53823 0.0
C352 C 0.84644 0.54678 0.55806 0.0
O353 O 0.82243 0.5453 0.57849 0.0
O354 O 0.84435 0.57782 0.54176 0.0
O355 O 0.81586 0.66066 0.57801 0.0
O356 O 0.83789 0.74984 0.58588 0.0
O357 O 0.71766 0.54584 0.55409 0.0
C358 C 0.77191 0.68532 0.52071 0.0
C359 C 0.83013 0.70175 0.59255 0.0
C360 C 0.48019 0.83732 0.09766 0.0
C361 C 0.47195 0.84833 0.07421 0.0
H362 H 0.5031 0.78891 0.12066 0.0
C363 C 0.48706 0.82349 0.05572 0.0
H364 H 0.46872 0.85592 0.11222 0.0
C365 C 0.50677 0.78568 0.06045 0.0
C366 C 0.51139 0.77134 0.08383 0.0
H367 H 0.4818 0.8318 0.03746 0.0
H368 H 0.51617 0.76596 0.04567 0.0
C369 C 0.49962 0.79884 0.10245 0.0
C370 C 0.20434 0.77468 0.07253 0.0
C371 C 0.24574 0.78988 0.09013 0.0
H372 H 0.1318 0.7077 0.05567 0.0
C373 C 0.2408 0.7485 0.1064 0.0
H374 H 0.20662 0.8057 0.0599 0.0
C375 C 0.19821 0.69211 0.10385 0.0
C376 C 0.15927 0.67616 0.08518 0.0
H377 H 0.27176 0.75888 0.1203 0.0
H378 H 0.19751 0.66059 0.11579 0.0
C379 C 0.16129 0.71846 0.07019 0.0
C380 C 0.26479 0.463 0.07514 0.0
C381 C 0.25161 0.49023 0.09332 0.0
H382 H 0.32894 0.45108 0.05812 0.0
C383 C 0.29241 0.52002 0.11077 0.0
H384 H 0.2339 0.43894 0.06166 0.0
C385 C 0.34721 0.52744 0.10866 0.0
C386 C 0.36189 0.50461 0.08921 0.0
H387 H 0.28332 0.54094 0.12518 0.0
H388 H 0.37893 0.55403 0.12143 0.0
C389 C 0.31928 0.46973 0.07321 0.0
C390 C 0.83907 0.49156 0.86701 0.0
C391 C 0.85549 0.48673 0.88999 0.0
H392 H 0.78764 0.51388 0.84565 0.0
C393 C 0.83773 0.5078 0.90904 0.0
H394 H 0.85211 0.47555 0.85202 0.0
C395 C 0.80125 0.5298 0.90548 0.0
C396 C 0.78122 0.53082 0.88276 0.0
H397 H 0.85028 0.50525 0.92695 0.0
H398 H 0.7867 0.54351 0.92073 0.0
C399 C 0.80199 0.51328 0.86342 0.0
C400 C 0.50445 0.2808 0.90217 0.0
C401 C 0.51007 0.26431 0.87919 0.0
H402 H 0.51865 0.34895 0.92537 0.0
C403 C 0.52854 0.30484 0.861 0.0
H404 H 0.48961 0.25059 0.91654 0.0
C405 C 0.54505 0.36163 0.86609 0.0
C406 C 0.54346 0.37858 0.88945 0.0
H407 H 0.53293 0.29335 0.84306 0.0
H408 H 0.5622 0.39264 0.85204 0.0
C409 C 0.52104 0.33726 0.90723 0.0
C410 C 0.6857 0.1933 0.85797 0.0
C411 C 0.66993 0.15544 0.87705 0.0
H412 H 0.75144 0.26801 0.84168 0.0
C413 C 0.71179 0.16127 0.89324 0.0
H414 H 0.65456 0.18987 0.84514 0.0
C415 C 0.76702 0.20655 0.89148 0.0
C416 C 0.78184 0.24649 0.8733 0.0
H417 H 0.70127 0.1328 0.90811 0.0
H418 H 0.79757 0.21135 0.90487 0.0
C419 C 0.74122 0.23819 0.85604 0.0
C420 C 0.16844 0.13928 0.4226 0.0
C421 C 0.17925 0.10925 0.40474 0.0
H422 H 0.14145 0.20019 0.43086 0.0
C423 C 0.17657 0.12288 0.38104 0.0
H424 H 0.17043 0.13004 0.44105 0.0
C425 C 0.16021 0.16295 0.37528 0.0
C426 C 0.14623 0.19065 0.39303 0.0
H427 H 0.18519 0.10116 0.36683 0.0
H428 H 0.15653 0.17072 0.35679 0.0
C429 C 0.15215 0.17972 0.41679 0.0
C430 C 0.91206 0.08837 0.43112 0.0
C431 C 0.92857 0.11905 0.40987 0.0
H432 H 0.87114 0.0061 0.4472 0.0
C433 C 0.91214 0.08975 0.38827 0.0
H434 H 0.92406 0.10996 0.44801 0.0
C435 C 0.88319 0.03088 0.38785 0.0
C436 C 0.86909 0.00018 0.40899 0.0
H437 H 0.92404 0.11209 0.37159 0.0
H438 H 0.8728 0.00938 0.37091 0.0
C439 C 0.88197 0.02914 0.43067 0.0
C440 C 0.02448 0.86696 0.44437 0.0
C441 C 0.03291 0.83928 0.42492 0.0
H442 H 0.96535 0.88145 0.46438 0.0
C443 C 0.98524 0.79654 0.41328 0.0
H444 H 0.06026 0.89947 0.45397 0.0
C445 C 0.93079 0.78645 0.41915 0.0
C446 C 0.92295 0.81861 0.43688 0.0
H447 H 0.99011 0.77386 0.39842 0.0
H448 H 0.89533 0.75621 0.40869 0.0
C449 C 0.96996 0.85655 0.45036 0.0
C450 C 0.47297 0.83597 0.19789 0.0
C451 C 0.44641 0.85228 0.21536 0.0
H452 H 0.53178 0.80586 0.19045 0.0
C453 C 0.46482 0.85719 0.23884 0.0
H454 H 0.46006 0.8321 0.17959 0.0
C455 C 0.50585 0.84241 0.24499 0.0
C456 C 0.5297 0.82247 0.22783 0.0
H457 H 0.44588 0.87026 0.25272 0.0
H458 H 0.51711 0.84432 0.26344 0.0
C459 C 0.51433 0.82124 0.20407 0.0
C460 C 0.13053 0.65386 0.20699 0.0
C461 C 0.17465 0.70087 0.19555 0.0
H462 H 0.08822 0.56394 0.21189 0.0
C463 C 0.20323 0.69138 0.17674 0.0
H464 H 0.1072 0.65958 0.22138 0.0
C465 C 0.19204 0.6364 0.1712 0.0
C466 C 0.1524 0.58994 0.18448 0.0
H467 H 0.23688 0.72664 0.16732 0.0
H468 H 0.21757 0.63094 0.15771 0.0
C469 C 0.11967 0.59892 0.20157 0.0
C470 C 0.41931 0.57998 0.19248 0.0
C471 C 0.44957 0.59912 0.21373 0.0
H472 H 0.33739 0.53653 0.1762 0.0
C473 C 0.41987 0.58555 0.23527 0.0
H474 H 0.44123 0.5898 0.17564 0.0
C475 C 0.36102 0.55636 0.23553 0.0
C476 C 0.33072 0.53923 0.21431 0.0
H477 H 0.44191 0.59961 0.25196 0.0
H478 H 0.33921 0.54795 0.25238 0.0
C479 C 0.3601 0.54969 0.19278 0.0
C480 C 0.83 0.49973 0.75738 0.0
C481 C 0.83166 0.52037 0.73451 0.0
H482 H 0.84372 0.44237 0.77883 0.0
C483 C 0.85614 0.50441 0.71614 0.0
H484 H 0.81121 0.51128 0.77184 0.0
C485 C 0.87455 0.46518 0.72005 0.0
C486 C 0.86868 0.44078 0.74244 0.0
H487 H 0.85859 0.52021 0.69838 0.0
H488 H 0.89087 0.452 0.70521 0.0
C489 C 0.84833 0.46006 0.76131 0.0
C490 C 0.57071 0.41342 0.72155 0.0
C491 C 0.59144 0.43449 0.74419 0.0
H492 H 0.52155 0.34052 0.70013 0.0
C493 C 0.57172 0.39696 0.76351 0.0
H494 H 0.58443 0.44107 0.70631 0.0
C495 C 0.53494 0.33887 0.75995 0.0
C496 C 0.51788 0.31762 0.737 0.0
H497 H 0.58665 0.41197 0.78123 0.0
H498 H 0.52271 0.31035 0.77489 0.0
C499 C 0.53461 0.35569 0.718 0.0
C500 C 0.63617 0.17905 0.76313 0.0
C501 C 0.59516 0.15462 0.74522 0.0
H502 H 0.72456 0.21867 0.77196 0.0
C503 C 0.61169 0.14406 0.72305 0.0
H504 H 0.62471 0.18734 0.78048 0.0
C505 C 0.66856 0.16189 0.71824 0.0
C506 C 0.71023 0.19048 0.7355 0.0
H507 H 0.58115 0.12464 0.70895 0.0
H508 H 0.68021 0.15574 0.70057 0.0
C509 C 0.69335 0.19679 0.75831 0.0
C510 C 0.12835 0.17513 0.56255 0.0
C511 C 0.11255 0.17848 0.53928 0.0
H512 H 0.17661 0.15226 0.58526 0.0
C513 C 0.13959 0.16662 0.52049 0.0
H514 H 0.10901 0.18465 0.57743 0.0
C515 C 0.17906 0.14831 0.52504 0.0
C516 C 0.19158 0.14131 0.54842 0.0
H517 H 0.12855 0.16914 0.50235 0.0
H518 H 0.19723 0.13666 0.51038 0.0
C519 C 0.1672 0.15659 0.56705 0.0
C520 C 0.85869 0.95636 0.51309 0.0
C521 C 0.82754 0.91559 0.53037 0.0
H522 H 0.89467 0.04316 0.50253 0.0
C523 C 0.80033 0.9294 0.54835 0.0
H524 H 0.87965 0.9468 0.49885 0.0
C525 C 0.80816 0.9843 0.55023 0.0
C526 C 0.84413 0.02672 0.53439 0.0
H527 H 0.77525 0.89856 0.56168 0.0
H528 H 0.78931 0.99432 0.56514 0.0
C529 C 0.86722 0.01158 0.51517 0.0
C530 C 0.08801 0.90271 0.51882 0.0
C531 C 0.12763 0.91698 0.53725 0.0
H532 H 0.99991 0.85976 0.5091 0.0
C533 C 0.10861 0.89137 0.5594 0.0
H534 H 0.10138 0.92143 0.50148 0.0
C535 C 0.05093 0.85677 0.56371 0.0
C536 C 0.01098 0.84624 0.54592 0.0
H537 H 0.13786 0.90081 0.57392 0.0
H538 H 0.03735 0.84044 0.5814 0.0
C539 C 0.02997 0.86727 0.52311 0.0
C540 C 0.4438 0.9598 -0.01118 0.0
C541 C 0.47214 0.0075 0.00353 0.0
H542 H 0.42675 0.9283 0.95338 0.0
C543 C 0.51029 0.06 -0.00645 0.0
H544 H 0.41475 0.91863 -0.00388 0.0
C545 C 0.51686 0.06558 0.96915 0.0
C546 C 0.48591 0.01863 0.95436 0.0
H547 H 0.53294 0.09743 0.00446 0.0
H548 H 0.54465 0.10712 0.96184 0.0
C549 C 0.45094 0.96524 0.9644 0.0
C550 C 0.96959 0.45092 0.97143 0.0
C551 C 0.01587 0.4761 0.95579 0.0
H552 H 0.94166 0.43897 0.00739 0.0
C553 C 0.06989 0.51362 0.96468 0.0
H554 H 0.92731 0.42243 0.965 0.0
C555 C 0.07814 0.52288 -0.01107 0.0
C556 C 0.03241 0.49528 0.00467 0.0
H557 H 0.1063 0.53382 0.95305 0.0
H558 H 0.12071 0.55012 -0.00462 0.0
C559 C 0.97773 0.46073 -0.00433 0.0
C560 C 0.51798 0.57046 0.96833 0.0
C561 C 0.55207 0.54934 0.95878 0.0
H562 H 0.48727 0.59079 -0.00023 0.0
C563 C 0.57644 0.52618 0.97387 0.0
H564 H 0.4986 0.58842 0.95704 0.0
C565 C 0.5694 0.52685 -0.00179 0.0
C566 C 0.53863 0.55157 0.0079 0.0
H567 H 0.60233 0.50897 0.96689 0.0
H568 H 0.59051 0.5106 0.00944 0.0
C569 C 0.51169 0.57199 -0.00725 0.0
C570 C 0.08955 0.3017 0.30714 0.0
C571 C 0.12098 0.34821 0.32215 0.0
H572 H 0.06823 0.2723 0.2715 0.0
C573 C 0.15801 0.40121 0.31231 0.0
H574 H 0.06108 0.26017 0.31428 0.0
C575 C 0.16165 0.40818 0.2879 0.0
C576 C 0.12888 0.36214 0.2729 0.0
H577 H 0.18284 0.43773 0.32345 0.0
H578 H 0.18965 0.4499 0.2808 0.0
C579 C 0.09376 0.30853 0.28268 0.0
C580 C 0.64163 0.76419 0.33999 0.0
C581 C 0.69546 0.79875 0.34968 0.0
H582 H 0.59287 0.73185 0.30849 0.0
C583 C 0.74156 0.83097 0.33461 0.0
H584 H 0.60535 0.73911 0.35121 0.0
C585 C 0.7344 0.8272 0.31021 0.0
C586 C 0.68115 0.79066 0.30047 0.0
H587 H 0.78346 0.85852 0.34164 0.0
H588 H 0.77095 0.85151 0.29901 0.0
C589 C 0.6346 0.75992 0.31555 0.0
C590 C 0.18085 0.89378 0.29498 0.0
C591 C 0.20984 0.86671 0.28571 0.0
H592 H 0.15584 0.92162 0.32593 0.0
C593 C 0.23106 0.84125 0.30124 0.0
H594 H 0.16394 0.91381 0.28351 0.0
C595 C 0.22653 0.84587 0.32558 0.0
C596 C 0.20079 0.87615 0.33485 0.0
H597 H 0.25318 0.81965 0.29463 0.0
H598 H 0.24561 0.82797 0.33705 0.0
C599 C 0.17641 0.8985 0.31933 0.0
C600 C 0.79062 0.62979 0.65165 0.0
C601 C 0.81578 0.67666 0.66699 0.0
H602 H 0.77653 0.60088 0.61581 0.0
C603 C 0.85168 0.73069 0.65773 0.0
H604 H 0.76341 0.58751 0.6584 0.0
C605 C 0.85887 0.73835 0.63341 0.0
C606 C 0.83089 0.69199 0.618 0.0
H607 H 0.87185 0.76751 0.66916 0.0
H608 H 0.88462 0.78089 0.62663 0.0
C609 C 0.79847 0.63734 0.62732 0.0
C610 C 0.40048 0.17534 0.63016 0.0
C611 C 0.3483 0.14069 0.61918 0.0
H612 H 0.4454 0.20194 0.66281 0.0
C613 C 0.29908 0.11199 0.63304 0.0
H614 H 0.439 0.19808 0.61988 0.0
C615 C 0.30262 0.11482 0.65761 0.0
C616 C 0.35558 0.14554 0.66855 0.0
H617 H 0.2582 0.08556 0.62492 0.0
H618 H 0.26456 0.09015 0.66796 0.0
C619 C 0.40416 0.17733 0.65469 0.0
C620 C 0.86378 0.23068 0.62577 0.0
C621 C 0.89054 0.20206 0.61589 0.0
H622 H 0.84312 0.26054 0.65729 0.0
C623 C 0.9121 0.17586 0.63089 0.0
H624 H 0.84656 0.25113 0.61469 0.0
C625 C 0.90956 0.18078 0.65536 0.0
C626 C 0.88623 0.21271 0.66513 0.0
H627 H 0.93246 0.15304 0.62373 0.0
H628 H 0.92834 0.16201 0.66655 0.0
C629 C 0.86204 0.23632 0.65017 0.0
C630 C 0.29381 0.95387 0.14488 0.0
C631 C 0.31948 0.95535 0.16651 0.0
H632 H 0.30551 0.97346 0.10821 0.0
C633 C 0.3785 0.97683 0.16738 0.0
H634 H 0.24844 0.9373 0.14363 0.0
C635 C 0.41142 -0.00223 0.14702 0.0
C636 C 0.38572 -0.00281 0.1255 0.0
H637 H 0.39944 0.97824 0.18383 0.0
H638 H 0.45686 0.01472 0.14818 0.0
C639 C 0.3266 0.97462 0.12459 0.0
C640 C 0.06674 0.38558 0.11467 0.0
C641 C 0.04148 0.41901 0.12035 0.0
H642 H 0.09983 0.3333 0.12775 0.0
C643 C 0.03301 0.42794 0.14408 0.0
H644 H 0.07329 0.37761 0.09646 0.0
C645 C 0.04896 0.40312 0.16186 0.0
C646 C 0.07251 0.36846 0.15604 0.0
H647 H 0.01339 0.45329 0.14883 0.0
H648 H 0.0412 0.40941 0.18013 0.0
C649 C 0.0815 0.35987 0.13243 0.0
C650 C 0.64536 0.64939 0.17265 0.0
C651 C 0.66684 0.70836 0.1738 0.0
H652 H 0.609 0.57496 0.15106 0.0
C653 C 0.67138 0.7383 0.15301 0.0
H654 H 0.64173 0.62518 0.18838 0.0
C655 C 0.65242 0.70944 0.13162 0.0
C656 C 0.62882 0.65015 0.13065 0.0
H657 H 0.68794 0.78376 0.15334 0.0
H658 H 0.65513 0.73354 0.11598 0.0
C659 C 0.62655 0.62056 0.15127 0.0
C660 C 0.96467 0.31719 0.83211 0.0
C661 C 0.99507 0.37686 0.83185 0.0
H662 H 0.92509 0.2406 0.81181 0.0
C663 C 0.00941 0.40518 0.81013 0.0
H664 H 0.95288 0.29406 0.84861 0.0
C665 C 0.99344 0.37446 0.78907 0.0
C666 C 0.96279 0.3148 0.78932 0.0
H667 H 0.03281 0.45105 0.80936 0.0
H668 H 0.00494 0.39765 0.77259 0.0
C669 C 0.94872 0.28645 0.81105 0.0
C670 C 0.71498 0.66009 0.83409 0.0
C671 C 0.65537 0.62877 0.83453 0.0
H672 H 0.79013 0.69808 0.8129 0.0
C673 C 0.62553 0.6132 0.81316 0.0
H674 H 0.73923 0.67288 0.8503 0.0
C675 C 0.65478 0.62764 0.79176 0.0
C676 C 0.71443 0.65798 0.79132 0.0
H677 H 0.57965 0.58923 0.81294 0.0
H678 H 0.63052 0.61434 0.77555 0.0
C679 C 0.74423 0.67457 0.81268 0.0
C680 C 0.36652 0.08751 0.8126 0.0
C681 C 0.3763 0.06935 0.79071 0.0
H682 H 0.3761 0.08797 0.85 0.0
C683 C 0.40412 0.0369 0.78988 0.0
H684 H 0.34543 0.11276 0.81373 0.0
C685 C 0.42128 0.02229 0.8106 0.0
C686 C 0.41139 0.04029 0.83251 0.0
H687 H 0.41234 0.02234 0.77322 0.0
H688 H 0.44241 0.99707 0.80944 0.0
C689 C 0.38419 0.07334 0.83333 0.0
C690 C 0.95782 0.29321 0.47262 0.0
C691 C 0.98796 0.29376 0.4928 0.0
H692 H 0.96131 0.31103 0.43579 0.0
C693 C 0.04712 0.31663 0.49133 0.0
H694 H 0.91231 0.27627 0.47322 0.0
C695 C 0.07529 0.3367 0.46987 0.0
C696 C 0.04478 0.33409 0.4495 0.0
H697 H 0.07164 0.31797 0.50663 0.0
H698 H 0.12065 0.35273 0.46913 0.0
C699 C 0.98596 0.31322 0.45118 0.0
C700 C 0.7361 0.7158 0.46014 0.0
C701 C 0.69908 0.73658 0.46597 0.0
H702 H 0.7885 0.68269 0.47312 0.0
C703 C 0.68725 0.74174 0.48959 0.0
H704 H 0.7447 0.71073 0.44185 0.0
C705 C 0.71262 0.72661 0.50734 0.0
C706 C 0.74902 0.70473 0.50165 0.0
H707 H 0.65878 0.75782 0.49429 0.0
H708 H 0.70264 0.73089 0.52554 0.0
C709 C 0.76072 0.69951 0.47791 0.0
C710 C 0.29989 0.96362 0.47509 0.0
C711 C 0.29661 0.98997 0.45436 0.0
H712 H 0.32362 0.97352 0.51133 0.0
C713 C 0.31623 0.04872 0.45445 0.0
H714 H 0.28525 0.9185 0.47559 0.0
C715 C 0.33842 0.08045 0.475 0.0
C716 C 0.34105 0.05382 0.49577 0.0
H717 H 0.31423 0.07022 0.43868 0.0
H718 H 0.35284 0.12553 0.47468 0.0
C719 C 0.32192 0.99523 0.49558 0.0
C720 C 0.49965 0.30331 0.0559 0.0
C721 C 0.5083 0.34103 0.07461 0.0
H722 H 0.48857 0.22244 0.04539 0.0
C723 C 0.50668 0.32257 0.09791 0.0
H724 H 0.50024 0.31603 0.03774 0.0
C725 C 0.50025 0.26884 0.10231 0.0
C726 C 0.49502 0.23244 0.0835 0.0
H727 H 0.51307 0.35055 0.11273 0.0
H728 H 0.50156 0.25676 0.12041 0.0
C729 C 0.49295 0.24957 0.06029 0.0
C730 C 0.71958 0.23586 0.0479 0.0
C731 C 0.68733 0.19869 0.06611 0.0
H732 H 0.79671 0.30991 0.03819 0.0
C733 C 0.71168 0.20567 0.08859 0.0
H734 H 0.70221 0.23144 0.03033 0.0
C735 C 0.76584 0.25081 0.09311 0.0
C736 C 0.79684 0.28978 0.07523 0.0
H737 H 0.68807 0.17769 0.10299 0.0
H738 H 0.78255 0.25618 0.11085 0.0
C739 C 0.77381 0.28088 0.0524 0.0
C740 C 0.78867 0.55116 0.09728 0.0
C741 C 0.74795 0.54457 0.0804 0.0
H742 H 0.86322 0.54531 0.10467 0.0
C743 C 0.75564 0.53292 0.05683 0.0
H744 H 0.78425 0.5606 0.11553 0.0
C745 C 0.80087 0.52424 0.0506 0.0
C746 C 0.83944 0.52703 0.06778 0.0
H747 H 0.72541 0.5282 0.04331 0.0
H748 H 0.80405 0.51284 0.0325 0.0
C749 C 0.83403 0.54252 0.09102 0.0
C750 C 0.32974 0.51665 0.86272 0.0
C751 C 0.34496 0.51484 0.88628 0.0
H752 H 0.26626 0.51286 0.83911 0.0
C753 C 0.30417 0.50191 0.90414 0.0
H754 H 0.36017 0.52647 0.84854 0.0
C755 C 0.25035 0.49387 0.89873 0.0
C756 C 0.23616 0.49898 0.87535 0.0
H757 H 0.31437 0.49981 0.92245 0.0
H758 H 0.22068 0.48591 0.91306 0.0
C759 C 0.27593 0.50898 0.85732 0.0
C760 C 0.52522 0.82393 0.86371 0.0
C761 C 0.52194 0.83939 0.88719 0.0
H762 H 0.53362 0.76545 0.84059 0.0
C763 C 0.53119 0.81024 0.9056 0.0
H764 H 0.51846 0.84564 0.8491 0.0
C765 C 0.54002 0.76441 0.90073 0.0
C766 C 0.53951 0.74651 0.87732 0.0
H767 H 0.52939 0.82134 0.92388 0.0
H768 H 0.54476 0.74154 0.91541 0.0
C769 C 0.53379 0.77785 0.85883 0.0
C770 C 0.25136 0.75763 0.85826 0.0
C771 C 0.2848 0.79365 0.87656 0.0
H772 H 0.1826 0.67615 0.84879 0.0
C773 C 0.27019 0.7757 0.90006 0.0
H774 H 0.26124 0.77027 0.83996 0.0
C775 C 0.22529 0.72177 0.90511 0.0
C776 C 0.19369 0.68461 0.88678 0.0
H777 H 0.29477 0.80243 0.91462 0.0
H778 H 0.21658 0.70855 0.92339 0.0
C779 C 0.20615 0.70371 0.86332 0.0
C780 C 0.16858 0.63853 0.3825 0.0
C781 C 0.18024 0.676 0.40159 0.0
H782 H 0.1534 0.55701 0.37086 0.0
C783 C 0.1805 0.65665 0.42457 0.0
H784 H 0.16765 0.65194 0.36459 0.0
C785 C 0.17257 0.602 0.42819 0.0
C786 C 0.164 0.56568 0.4089 0.0
H787 H 0.1894 0.68453 0.43966 0.0
H788 H 0.17516 0.58903 0.446 0.0
C789 C 0.16046 0.58402 0.38611 0.0
C790 C 0.43634 0.588 0.38085 0.0
C791 C 0.45691 0.58431 0.40314 0.0
H792 H 0.36575 0.55453 0.35732 0.0
C793 C 0.4227 0.53847 0.41791 0.0
H794 H 0.46197 0.62249 0.36895 0.0
C795 C 0.36737 0.49957 0.41127 0.0
C796 C 0.34544 0.50571 0.3897 0.0
H797 H 0.43749 0.53426 0.43513 0.0
H798 H 0.34101 0.46632 0.42353 0.0
C799 C 0.38118 0.54897 0.37417 0.0
C800 C 0.48746 0.84423 0.4277 0.0
C801 C 0.49962 0.83274 0.40479 0.0
H802 H 0.4341 0.86357 0.44949 0.0
C803 C 0.4695 0.83798 0.38566 0.0
H804 H 0.50996 0.84083 0.44283 0.0
C805 C 0.42601 0.85111 0.38948 0.0
C806 C 0.41152 0.85914 0.41252 0.0
H807 H 0.47798 0.82976 0.36777 0.0
H808 H 0.40223 0.8526 0.37441 0.0
C809 C 0.44382 0.85717 0.43152 0.0
C810 C 0.91651 0.82817 0.23654 0.0
C811 C 0.8973 0.82992 0.2137 0.0
H812 H 0.98528 0.83713 0.25796 0.0
C813 C 0.93292 0.8371 0.19431 0.0
H814 H 0.89004 0.8222 0.25187 0.0
C815 C 0.98773 0.84545 0.19782 0.0
C816 C 0.00796 0.84697 0.2208 0.0
H817 H 0.91926 0.83828 0.17647 0.0
H818 H 0.01502 0.8532 0.18262 0.0
C819 C 0.9712 0.83668 0.24004 0.0
C820 C 0.19016 0.11208 0.19068 0.0
C821 C 0.19135 0.079 0.20953 0.0
H822 H 0.17411 0.17855 0.1796 0.0
C823 C 0.1822 0.09242 0.23259 0.0
H824 H 0.19743 0.10319 0.17271 0.0
C825 C 0.1687 0.13561 0.23654 0.0
C826 C 0.16424 0.1665 0.21753 0.0
H827 H 0.18305 0.06799 0.24754 0.0
H828 H 0.15958 0.14324 0.25443 0.0
C829 C 0.17688 0.15543 0.19464 0.0
C830 C 0.8329 0.03232 0.20873 0.0
C831 C 0.83686 0.01206 0.23106 0.0
H832 H 0.86994 0.10061 0.18402 0.0
C833 C 0.87847 0.04901 0.24691 0.0
H834 H 0.80096 0.005 0.19619 0.0
C835 C 0.91808 0.10371 0.23992 0.0
C836 C 0.91668 0.12256 0.21697 0.0
H837 H 0.88231 0.03487 0.26433 0.0
H838 H 0.95128 0.13028 0.25216 0.0
C839 C 0.87243 0.08715 0.20176 0.0
C840 C 0.83036 0.9094 0.72394 0.0
C841 C 0.83331 0.89412 0.74738 0.0
H842 H 0.83807 0.97442 0.70039 0.0
C843 C 0.84107 0.9328 0.7656 0.0
H844 H 0.82413 0.88058 0.70947 0.0
C845 C 0.84877 0.98671 0.76037 0.0
C846 C 0.84923 0.0031 0.73681 0.0
H847 H 0.84323 0.92226 0.78386 0.0
H848 H 0.85692 0.01633 0.77473 0.0
C849 C 0.83841 0.96331 0.71872 0.0
C850 C 0.115 0.92703 0.72399 0.0
C851 C 0.13131 0.94427 0.74747 0.0
H852 H 0.04936 0.87105 0.7006 0.0
C853 C 0.09391 0.91303 0.76581 0.0
H854 H 0.14282 0.94989 0.70942 0.0
C855 C 0.04023 0.86744 0.76074 0.0
C856 C 0.02276 0.85243 0.7372 0.0
H857 H 0.10527 0.92495 0.7841 0.0
H858 H 0.01157 0.84566 0.77523 0.0
C859 C 0.06131 0.88177 0.71893 0.0
C860 C 0.15776 0.18024 0.76013 0.0
C861 C 0.17308 0.1773 0.73659 0.0
H862 H 0.09945 0.18839 0.78345 0.0
C863 C 0.1437 0.18661 0.71829 0.0
H864 H 0.17963 0.17337 0.77464 0.0
C865 C 0.09792 0.1954 0.72334 0.0
C866 C 0.08027 0.19474 0.7468 0.0
H867 H 0.15469 0.18506 0.69998 0.0
H868 H 0.07495 0.20034 0.70874 0.0
C869 C 0.11169 0.18872 0.76518 0.0
C870 C 0.60833 0.16697 0.52098 0.0
C871 C 0.57155 0.16171 0.53964 0.0
H872 H 0.69017 0.17959 0.51088 0.0
C873 C 0.5882 0.15952 0.56293 0.0
H874 H 0.59665 0.16841 0.50283 0.0
C875 C 0.64182 0.16607 0.56753 0.0
C876 C 0.67991 0.17467 0.54897 0.0
H877 H 0.56079 0.15515 0.57772 0.0
H878 H 0.65417 0.16654 0.58574 0.0
C879 C 0.66192 0.17322 0.52559 0.0
C880 C 0.87208 0.42216 0.56489 0.0
C881 C 0.88112 0.4116 0.54135 0.0
H882 H 0.85481 0.47361 0.58867 0.0
C883 C 0.88571 0.4502 0.52379 0.0
H884 H 0.86884 0.39359 0.57891 0.0
C885 C 0.87788 0.49639 0.52944 0.0
C886 C 0.86514 0.50474 0.55274 0.0
H887 H 0.89311 0.44357 0.50552 0.0
H888 H 0.87917 0.52391 0.51533 0.0
C889 C 0.86411 0.46816 0.57051 0.0
C890 C 0.54859 0.37672 0.53036 0.0
C891 C 0.53938 0.35517 0.55347 0.0
H892 H 0.60126 0.44497 0.50725 0.0
C893 C 0.57476 0.38962 0.57168 0.0
H894 H 0.52201 0.3513 0.51594 0.0
C895 C 0.62012 0.44329 0.56671 0.0
C896 C 0.63122 0.46363 0.5434 0.0
H897 H 0.56862 0.37445 0.5897 0.0
H898 H 0.64762 0.46796 0.58105 0.0
C899 C 0.59413 0.43038 0.52537 0.0
loop_
_geom_bond_atom_site_label_1
_geom_bond_atom_site_label_2
_geom_bond_distance
_geom_bond_site_symmetry_2
_ccdc_geom_bond_type
Zn0 O6 1.969 . S
Zn0 O7 1.965 . S
Zn0 O11 2.024 . S
Zn0 O16 1.969 . S
Zn1 O8 1.969 . S
Zn1 O14 1.969 . S
Zn1 O15 1.965 . S
Zn1 O17 2.024 . S
C2 O3 1.229 . S
C2 O11 1.058 . S
O3 C2 1.229 . S
C4 O5 1.229 . S
C4 O17 1.058 . S
O5 C4 1.229 . S
O6 Zn0 1.969 . S
O6 C9 1.267 . S
O7 Zn0 1.965 . S
O7 C18 1.260 1_565 S
O8 Zn1 1.969 . S
O8 C18 1.258 . S
C9 O6 1.267 . S
C9 O10 1.228 . S
O10 C9 1.228 . S
O11 Zn0 2.024 . S
O11 C2 1.058 . S
C12 O13 1.228 . S
C12 O14 1.267 . S
O13 C12 1.228 . S
O14 Zn1 1.969 . S
O14 C12 1.267 . S
O15 Zn1 1.965 . S
O15 C19 1.260 . S
O16 Zn0 1.969 . S
O16 C19 1.258 1_565 S
O17 Zn1 2.024 . S
O17 C4 1.058 . S
C18 O7 1.260 1_545 S
C18 O8 1.258 . S
C19 O15 1.260 . S
C19 O16 1.258 1_545 S
Zn20 O26 1.969 . S
Zn20 O27 1.965 . S
Zn20 O31 2.024 . S
Zn20 O36 1.969 . S
Zn21 O28 1.969 . S
Zn21 O34 1.969 . S
Zn21 O35 1.965 . S
Zn21 O37 2.024 . S
C22 O23 1.229 . S
C22 O31 1.058 . S
O23 C22 1.229 . S
C24 O25 1.229 . S
C24 O37 1.058 . S
O25 C24 1.229 . S
O26 Zn20 1.969 . S
O26 C29 1.267 . S
O27 Zn20 1.965 . S
O27 C38 1.260 . S
O28 Zn21 1.969 . S
O28 C38 1.258 1_655 S
C29 O26 1.267 . S
C29 O30 1.228 . S
O30 C29 1.228 . S
O31 Zn20 2.024 . S
O31 C22 1.058 . S
C32 O33 1.228 . S
C32 O34 1.267 . S
O33 C32 1.228 . S
O34 Zn21 1.969 . S
O34 C32 1.267 . S
O35 Zn21 1.965 . S
O35 C39 1.260 1_655 S
O36 Zn20 1.969 . S
O36 C39 1.258 . S
O37 Zn21 2.024 . S
O37 C24 1.058 . S
C38 O27 1.260 . S
C38 O28 1.258 1_455 S
C39 O35 1.260 1_455 S
C39 O36 1.258 . S
Zn40 O46 1.969 . S
Zn40 O47 1.965 . S
Zn40 O51 2.024 . S
Zn40 O56 1.969 . S
Zn41 O48 1.969 . S
Zn41 O54 1.969 . S
Zn41 O55 1.965 . S
Zn41 O57 2.024 . S
C42 O43 1.229 . S
C42 O51 1.058 . S
O43 C42 1.229 . S
C44 O45 1.229 . S
C44 O57 1.058 . S
O45 C44 1.229 . S
O46 Zn40 1.969 . S
O46 C49 1.267 . S
O47 Zn40 1.965 . S
O47 C58 1.260 . S
O48 Zn41 1.969 . S
O48 C58 1.258 . S
C49 O46 1.267 . S
C49 O50 1.228 . S
O50 C49 1.228 . S
O51 Zn40 2.024 . S
O51 C42 1.058 . S
C52 O53 1.228 . S
C52 O54 1.267 . S
O53 C52 1.228 . S
O54 Zn41 1.969 . S
O54 C52 1.267 . S
O55 Zn41 1.965 . S
O55 C59 1.260 . S
O56 Zn40 1.969 . S
O56 C59 1.258 . S
O57 Zn41 2.024 . S
O57 C44 1.058 . S
C58 O47 1.260 . S
C58 O48 1.258 . S
C59 O55 1.260 . S
C59 O56 1.258 . S
Zn60 O66 1.969 . S
Zn60 O67 1.965 . S
Zn60 O71 2.024 . S
Zn60 O76 1.969 . S
Zn61 O68 1.969 . S
Zn61 O74 1.969 . S
Zn61 O75 1.965 . S
Zn61 O77 2.024 . S
C62 O63 1.229 . S
C62 O71 1.058 . S
O63 C62 1.229 . S
C64 O65 1.229 . S
C64 O77 1.058 . S
O65 C64 1.229 . S
O66 Zn60 1.969 . S
O66 C69 1.267 . S
O67 Zn60 1.965 . S
O67 C78 1.260 1_655 S
O68 Zn61 1.969 . S
O68 C78 1.258 . S
C69 O66 1.267 . S
C69 O70 1.228 . S
O70 C69 1.228 . S
O71 Zn60 2.024 . S
O71 C62 1.058 . S
C72 O73 1.228 . S
C72 O74 1.267 . S
O73 C72 1.228 . S
O74 Zn61 1.969 . S
O74 C72 1.267 . S
O75 Zn61 1.965 . S
O75 C79 1.260 . S
O76 Zn60 1.969 . S
O76 C79 1.258 1_655 S
O77 Zn61 2.024 . S
O77 C64 1.058 . S
C78 O67 1.260 1_455 S
C78 O68 1.258 . S
C79 O75 1.260 . S
C79 O76 1.258 1_455 S
Zn80 O86 1.969 . S
Zn80 O87 1.965 . S
Zn80 O91 2.024 . S
Zn80 O96 1.969 . S
Zn81 O88 1.969 . S
Zn81 O94 1.969 . S
Zn81 O95 1.965 . S
Zn81 O97 2.024 . S
C82 O83 1.229 . S
C82 O91 1.058 . S
O83 C82 1.229 . S
C84 O85 1.229 . S
C84 O97 1.058 . S
O85 C84 1.229 . S
O86 Zn80 1.969 . S
O86 C89 1.267 . S
O87 Zn80 1.965 . S
O87 C98 1.260 . S
O88 Zn81 1.969 . S
O88 C98 1.258 . S
C89 O86 1.267 . S
C89 O90 1.228 . S
O90 C89 1.228 . S
O91 Zn80 2.024 . S
O91 C82 1.058 . S
C92 O93 1.228 . S
C92 O94 1.267 . S
O93 C92 1.228 . S
O94 Zn81 1.969 . S
O94 C92 1.267 . S
O95 Zn81 1.965 . S
O95 C99 1.260 . S
O96 Zn80 1.969 . S
O96 C99 1.258 . S
O97 Zn81 2.024 . S
O97 C84 1.058 . S
C98 O87 1.260 . S
C98 O88 1.258 . S
C99 O95 1.260 . S
C99 O96 1.258 . S
Zn100 O106 1.969 . S
Zn100 O107 1.965 . S
Zn100 O111 2.024 . S
Zn100 O116 1.969 . S
Zn101 O108 1.969 . S
Zn101 O114 1.969 . S
Zn101 O115 1.965 . S
Zn101 O117 2.024 . S
C102 O103 1.229 . S
C102 O111 1.058 . S
O103 C102 1.229 . S
C104 O105 1.229 . S
C104 O117 1.058 . S
O105 C104 1.229 . S
O106 Zn100 1.969 . S
O106 C109 1.267 . S
O107 Zn100 1.965 . S
O107 C118 1.260 . S
O108 Zn101 1.969 . S
O108 C118 1.258 1_565 S
C109 O106 1.267 . S
C109 O110 1.228 . S
O110 C109 1.228 . S
O111 Zn100 2.024 . S
O111 C102 1.058 . S
C112 O113 1.228 . S
C112 O114 1.267 . S
O113 C112 1.228 . S
O114 Zn101 1.969 . S
O114 C112 1.267 . S
O115 Zn101 1.965 . S
O115 C119 1.260 1_565 S
O116 Zn100 1.969 . S
O116 C119 1.258 . S
O117 Zn101 2.024 . S
O117 C104 1.058 . S
C118 O107 1.260 . S
C118 O108 1.258 1_545 S
C119 O115 1.260 1_545 S
C119 O116 1.258 . S
Zn120 O126 1.969 . S
Zn120 O127 1.965 . S
Zn120 O131 2.024 . S
Zn120 O136 1.969 . S
Zn121 O128 1.969 . S
Zn121 O134 1.969 . S
Zn121 O135 1.965 . S
Zn121 O137 2.024 . S
C122 O123 1.229 . S
C122 O131 1.058 . S
O123 C122 1.229 . S
C124 O125 1.229 . S
C124 O137 1.058 . S
O125 C124 1.229 . S
O126 Zn120 1.969 . S
O126 C129 1.267 1_455 S
O127 Zn120 1.965 . S
O127 C138 1.260 . S
O128 Zn121 1.969 . S
O128 C138 1.258 . S
C129 O126 1.267 1_655 S
C129 O130 1.228 1_655 S
O130 C129 1.228 1_455 S
O131 Zn120 2.024 . S
O131 C122 1.058 . S
C132 O133 1.228 . S
C132 O134 1.267 . S
O133 C132 1.228 . S
O134 Zn121 1.969 . S
O134 C132 1.267 . S
O135 Zn121 1.965 . S
O135 C139 1.260 . S
O136 Zn120 1.969 . S
O136 C139 1.258 . S
O137 Zn121 2.024 . S
O137 C124 1.058 . S
C138 O127 1.260 . S
C138 O128 1.258 . S
C139 O135 1.260 . S
C139 O136 1.258 . S
Zn140 O146 1.969 . S
Zn140 O147 1.965 . S
Zn140 O151 2.024 . S
Zn140 O156 1.969 . S
Zn141 O148 1.969 . S
Zn141 O154 1.969 . S
Zn141 O155 1.965 . S
Zn141 O157 2.024 . S
C142 O143 1.229 . S
C142 O151 1.058 . S
O143 C142 1.229 . S
C144 O145 1.229 . S
C144 O157 1.058 . S
O145 C144 1.229 . S
O146 Zn140 1.969 . S
O146 C149 1.267 . S
O147 Zn140 1.965 . S
O147 C158 1.260 . S
O148 Zn141 1.969 . S
O148 C158 1.258 . S
C149 O146 1.267 . S
C149 O150 1.228 . S
O150 C149 1.228 . S
O151 Zn140 2.024 . S
O151 C142 1.058 . S
C152 O153 1.228 . S
C152 O154 1.267 . S
O153 C152 1.228 . S
O154 Zn141 1.969 . S
O154 C152 1.267 . S
O155 Zn141 1.965 . S
O155 C159 1.260 . S
O156 Zn140 1.969 . S
O156 C159 1.258 . S
O157 Zn141 2.024 . S
O157 C144 1.058 . S
C158 O147 1.260 . S
C158 O148 1.258 . S
C159 O155 1.260 . S
C159 O156 1.258 . S
Zn160 O166 1.969 1_565 S
Zn160 O167 1.965 . S
Zn160 O171 2.024 . S
Zn160 O176 1.969 . S
Zn161 O168 1.969 . S
Zn161 O174 1.969 . S
Zn161 O175 1.965 . S
Zn161 O177 2.024 . S
C162 O163 1.229 . S
C162 O171 1.058 . S
O163 C162 1.229 . S
C164 O165 1.229 . S
C164 O177 1.058 . S
O165 C164 1.229 . S
O166 Zn160 1.969 1_545 S
O166 C169 1.267 . S
O167 Zn160 1.965 . S
O167 C178 1.260 . S
O168 Zn161 1.969 . S
O168 C178 1.258 . S
C169 O166 1.267 . S
C169 O170 1.228 . S
O170 C169 1.228 . S
O171 Zn160 2.024 . S
O171 C162 1.058 . S
C172 O173 1.228 . S
C172 O174 1.267 . S
O173 C172 1.228 . S
O174 Zn161 1.969 . S
O174 C172 1.267 . S
O175 Zn161 1.965 . S
O175 C179 1.260 . S
O176 Zn160 1.969 . S
O176 C179 1.258 . S
O177 Zn161 2.024 . S
O177 C164 1.058 . S
C178 O167 1.260 . S
C178 O168 1.258 . S
C179 O175 1.260 . S
C179 O176 1.258 . S
Zn180 O186 1.969 . S
Zn180 O187 1.965 . S
Zn180 O191 2.024 . S
Zn180 O196 1.969 . S
Zn181 O188 1.969 . S
Zn181 O194 1.969 . S
Zn181 O195 1.965 . S
Zn181 O197 2.024 . S
C182 O183 1.229 . S
C182 O191 1.058 . S
O183 C182 1.229 . S
C184 O185 1.229 . S
C184 O197 1.058 . S
O185 C184 1.229 . S
O186 Zn180 1.969 . S
O186 C189 1.267 . S
O187 Zn180 1.965 . S
O187 C198 1.260 . S
O188 Zn181 1.969 . S
O188 C198 1.258 . S
C189 O186 1.267 . S
C189 O190 1.228 . S
O190 C189 1.228 . S
O191 Zn180 2.024 . S
O191 C182 1.058 . S
C192 O193 1.228 . S
C192 O194 1.267 . S
O193 C192 1.228 . S
O194 Zn181 1.969 . S
O194 C192 1.267 . S
O195 Zn181 1.965 . S
O195 C199 1.260 . S
O196 Zn180 1.969 . S
O196 C199 1.258 . S
O197 Zn181 2.024 . S
O197 C184 1.058 . S
C198 O187 1.260 . S
C198 O188 1.258 . S
C199 O195 1.260 . S
C199 O196 1.258 . S
Zn200 O206 1.969 . S
Zn200 O207 1.965 . S
Zn200 O211 2.024 . S
Zn200 O216 1.969 . S
Zn201 O208 1.969 . S
Zn201 O214 1.969 . S
Zn201 O215 1.965 . S
Zn201 O217 2.024 . S
C202 O203 1.229 . S
C202 O211 1.058 . S
O203 C202 1.229 . S
C204 O205 1.229 . S
C204 O217 1.058 1_545 S
O205 C204 1.229 . S
O206 Zn200 1.969 . S
O206 C209 1.267 . S
O207 Zn200 1.965 . S
O207 C218 1.260 . S
O208 Zn201 1.969 . S
O208 C218 1.258 . S
C209 O206 1.267 . S
C209 O210 1.228 . S
O210 C209 1.228 . S
O211 Zn200 2.024 . S
O211 C202 1.058 . S
C212 O213 1.228 . S
C212 O214 1.267 . S
O213 C212 1.228 . S
O214 Zn201 1.969 . S
O214 C212 1.267 . S
O215 Zn201 1.965 . S
O215 C219 1.260 . S
O216 Zn200 1.969 . S
O216 C219 1.258 . S
O217 Zn201 2.024 . S
O217 C204 1.058 1_565 S
C218 O207 1.260 . S
C218 O208 1.258 . S
C219 O215 1.260 . S
C219 O216 1.258 . S
Zn220 O226 1.969 . S
Zn220 O227 1.965 . S
Zn220 O231 2.024 . S
Zn220 O236 1.969 . S
Zn221 O228 1.969 . S
Zn221 O234 1.969 . S
Zn221 O235 1.965 . S
Zn221 O237 2.024 . S
C222 O223 1.229 . S
C222 O231 1.058 . S
O223 C222 1.229 . S
C224 O225 1.229 . S
C224 O237 1.058 . S
O225 C224 1.229 . S
O226 Zn220 1.969 . S
O226 C229 1.267 . S
O227 Zn220 1.965 . S
O227 C238 1.260 . S
O228 Zn221 1.969 . S
O228 C238 1.258 . S
C229 O226 1.267 . S
C229 O230 1.228 . S
O230 C229 1.228 . S
O231 Zn220 2.024 . S
O231 C222 1.058 . S
C232 O233 1.228 . S
C232 O234 1.267 . S
O233 C232 1.228 . S
O234 Zn221 1.969 . S
O234 C232 1.267 . S
O235 Zn221 1.965 . S
O235 C239 1.260 . S
O236 Zn220 1.969 . S
O236 C239 1.258 . S
O237 Zn221 2.024 . S
O237 C224 1.058 . S
C238 O227 1.260 . S
C238 O228 1.258 . S
C239 O235 1.260 . S
C239 O236 1.258 . S
Zn240 O246 1.969 . S
Zn240 O247 1.965 . S
Zn240 O251 2.024 . S
Zn240 O256 1.969 . S
Zn241 O248 1.969 . S
Zn241 O254 1.969 . S
Zn241 O255 1.965 . S
Zn241 O257 2.024 . S
C242 O243 1.229 . S
C242 O251 1.058 . S
O243 C242 1.229 . S
C244 O245 1.229 . S
C244 O257 1.058 . S
O245 C244 1.229 . S
O246 Zn240 1.969 . S
O246 C249 1.267 . S
O247 Zn240 1.965 . S
O247 C258 1.260 . S
O248 Zn241 1.969 . S
O248 C258 1.258 . S
C249 O246 1.267 . S
C249 O250 1.228 . S
O250 C249 1.228 . S
O251 Zn240 2.024 . S
O251 C242 1.058 . S
C252 O253 1.228 . S
C252 O254 1.267 . S
O253 C252 1.228 . S
O254 Zn241 1.969 . S
O254 C252 1.267 . S
O255 Zn241 1.965 . S
O255 C259 1.260 . S
O256 Zn240 1.969 . S
O256 C259 1.258 . S
O257 Zn241 2.024 . S
O257 C244 1.058 . S
C258 O247 1.260 . S
C258 O248 1.258 . S
C259 O255 1.260 . S
C259 O256 1.258 . S
Zn260 O266 1.969 . S
Zn260 O267 1.965 . S
Zn260 O271 2.024 . S
Zn260 O276 1.969 . S
Zn261 O268 1.969 . S
Zn261 O274 1.969 . S
Zn261 O275 1.965 . S
Zn261 O277 2.024 . S
C262 O263 1.229 . S
C262 O271 1.058 . S
O263 C262 1.229 . S
C264 O265 1.229 . S
C264 O277 1.058 . S
O265 C264 1.229 . S
O266 Zn260 1.969 . S
O266 C269 1.267 . S
O267 Zn260 1.965 . S
O267 C278 1.260 . S
O268 Zn261 1.969 . S
O268 C278 1.258 . S
C269 O266 1.267 . S
C269 O270 1.228 . S
O270 C269 1.228 . S
O271 Zn260 2.024 . S
O271 C262 1.058 . S
C272 O273 1.228 . S
C272 O274 1.267 . S
O273 C272 1.228 . S
O274 Zn261 1.969 . S
O274 C272 1.267 . S
O275 Zn261 1.965 . S
O275 C279 1.260 . S
O276 Zn260 1.969 . S
O276 C279 1.258 . S
O277 Zn261 2.024 . S
O277 C264 1.058 . S
C278 O267 1.260 . S
C278 O268 1.258 . S
C279 O275 1.260 . S
C279 O276 1.258 . S
Zn280 O286 1.969 . S
Zn280 O287 1.965 . S
Zn280 O291 2.024 . S
Zn280 O296 1.969 . S
Zn281 O288 1.969 . S
Zn281 O294 1.969 . S
Zn281 O295 1.965 . S
Zn281 O297 2.024 . S
C282 O283 1.229 . S
C282 O291 1.058 . S
O283 C282 1.229 . S
C284 O285 1.229 . S
C284 O297 1.058 1_455 S
O285 C284 1.229 . S
O286 Zn280 1.969 . S
O286 C289 1.267 . S
O287 Zn280 1.965 . S
O287 C298 1.260 . S
O288 Zn281 1.969 . S
O288 C298 1.258 . S
C289 O286 1.267 . S
C289 O290 1.228 . S
O290 C289 1.228 . S
O291 Zn280 2.024 . S
O291 C282 1.058 . S
C292 O293 1.228 . S
C292 O294 1.267 . S
O293 C292 1.228 . S
O294 Zn281 1.969 . S
O294 C292 1.267 . S
O295 Zn281 1.965 . S
O295 C299 1.260 . S
O296 Zn280 1.969 . S
O296 C299 1.258 . S
O297 Zn281 2.024 . S
O297 C284 1.058 1_655 S
C298 O287 1.260 . S
C298 O288 1.258 . S
C299 O295 1.260 . S
C299 O296 1.258 . S
Zn300 O306 1.969 . S
Zn300 O307 1.965 . S
Zn300 O311 2.024 . S
Zn300 O316 1.969 . S
Zn301 O308 1.969 . S
Zn301 O314 1.969 . S
Zn301 O315 1.965 . S
Zn301 O317 2.024 . S
C302 O303 1.229 . S
C302 O311 1.058 . S
O303 C302 1.229 . S
C304 O305 1.229 . S
C304 O317 1.058 . S
O305 C304 1.229 . S
O306 Zn300 1.969 . S
O306 C309 1.267 1_545 S
O307 Zn300 1.965 . S
O307 C318 1.260 . S
O308 Zn301 1.969 . S
O308 C318 1.258 . S
C309 O306 1.267 1_565 S
C309 O310 1.228 1_565 S
O310 C309 1.228 1_545 S
O311 Zn300 2.024 . S
O311 C302 1.058 . S
C312 O313 1.228 . S
C312 O314 1.267 . S
O313 C312 1.228 . S
O314 Zn301 1.969 . S
O314 C312 1.267 . S
O315 Zn301 1.965 . S
O315 C319 1.260 . S
O316 Zn300 1.969 . S
O316 C319 1.258 . S
O317 Zn301 2.024 . S
O317 C304 1.058 . S
C318 O307 1.260 . S
C318 O308 1.258 . S
C319 O315 1.260 . S
C319 O316 1.258 . S
Zn320 O326 1.969 1_655 S
Zn320 O327 1.965 . S
Zn320 O331 2.024 . S
Zn320 O336 1.969 . S
Zn321 O328 1.969 . S
Zn321 O334 1.969 . S
Zn321 O335 1.965 . S
Zn321 O337 2.024 . S
C322 O323 1.229 . S
C322 O331 1.058 . S
O323 C322 1.229 . S
C324 O325 1.229 . S
C324 O337 1.058 . S
O325 C324 1.229 . S
O326 Zn320 1.969 1_455 S
O326 C329 1.267 . S
O327 Zn320 1.965 . S
O327 C338 1.260 . S
O328 Zn321 1.969 . S
O328 C338 1.258 . S
C329 O326 1.267 . S
C329 O330 1.228 . S
O330 C329 1.228 . S
O331 Zn320 2.024 . S
O331 C322 1.058 . S
C332 O333 1.228 . S
C332 O334 1.267 . S
O333 C332 1.228 . S
O334 Zn321 1.969 . S
O334 C332 1.267 . S
O335 Zn321 1.965 . S
O335 C339 1.260 . S
O336 Zn320 1.969 . S
O336 C339 1.258 . S
O337 Zn321 2.024 . S
O337 C324 1.058 . S
C338 O327 1.260 . S
C338 O328 1.258 . S
C339 O335 1.260 . S
C339 O336 1.258 . S
Zn340 O346 1.969 . S
Zn340 O347 1.965 . S
Zn340 O351 2.024 . S
Zn340 O356 1.969 . S
Zn341 O348 1.969 . S
Zn341 O354 1.969 . S
Zn341 O355 1.965 . S
Zn341 O357 2.024 . S
C342 O343 1.229 . S
C342 O351 1.058 . S
O343 C342 1.229 . S
C344 O345 1.229 . S
C344 O357 1.058 . S
O345 C344 1.229 . S
O346 Zn340 1.969 . S
O346 C349 1.267 . S
O347 Zn340 1.965 . S
O347 C358 1.260 . S
O348 Zn341 1.969 . S
O348 C358 1.258 . S
C349 O346 1.267 . S
C349 O350 1.228 . S
O350 C349 1.228 . S
O351 Zn340 2.024 . S
O351 C342 1.058 . S
C352 O353 1.228 . S
C352 O354 1.267 . S
O353 C352 1.228 . S
O354 Zn341 1.969 . S
O354 C352 1.267 . S
O355 Zn341 1.965 . S
O355 C359 1.260 . S
O356 Zn340 1.969 . S
O356 C359 1.258 . S
O357 Zn341 2.024 . S
O357 C344 1.058 . S
C358 O347 1.260 . S
C358 O348 1.258 . S
C359 O355 1.260 . S
C359 O356 1.258 . S
C360 C361 1.387 . S
C360 H364 0.950 . S
C360 C369 1.390 . S
C361 C360 1.387 . S
C361 C363 1.387 . S
H362 C369 0.950 . S
C363 C361 1.387 . S
C363 C365 1.390 . S
C363 H367 0.950 . S
H364 C360 0.950 . S
C365 C363 1.390 . S
C365 C366 1.387 . S
C365 H368 0.950 . S
C366 C365 1.387 . S
C366 C369 1.387 . S
H367 C363 0.950 . S
H368 C365 0.950 . S
C369 C360 1.390 . S
C369 H362 0.950 . S
C369 C366 1.387 . S
C370 C371 1.387 . S
C370 H374 0.950 . S
C370 C379 1.390 . S
C371 C370 1.387 . S
C371 C373 1.387 . S
H372 C379 0.950 . S
C373 C371 1.387 . S
C373 C375 1.390 . S
C373 H377 0.950 . S
H374 C370 0.950 . S
C375 C373 1.390 . S
C375 C376 1.387 . S
C375 H378 0.950 . S
C376 C375 1.387 . S
C376 C379 1.387 . S
H377 C373 0.950 . S
H378 C375 0.950 . S
C379 C370 1.390 . S
C379 H372 0.950 . S
C379 C376 1.387 . S
C380 C381 1.387 . S
C380 H384 0.950 . S
C380 C389 1.390 . S
C381 C380 1.387 . S
C381 C383 1.387 . S
H382 C389 0.950 . S
C383 C381 1.387 . S
C383 C385 1.390 . S
C383 H387 0.950 . S
H384 C380 0.950 . S
C385 C383 1.390 . S
C385 C386 1.387 . S
C385 H388 0.950 . S
C386 C385 1.387 . S
C386 C389 1.387 . S
H387 C383 0.950 . S
H388 C385 0.950 . S
C389 C380 1.390 . S
C389 H382 0.950 . S
C389 C386 1.387 . S
C390 C391 1.387 . S
C390 H394 0.950 . S
C390 C399 1.390 . S
C391 C390 1.387 . S
C391 C393 1.387 . S
H392 C399 0.950 . S
C393 C391 1.387 . S
C393 C395 1.390 . S
C393 H397 0.950 . S
H394 C390 0.950 . S
C395 C393 1.390 . S
C395 C396 1.387 . S
C395 H398 0.950 . S
C396 C395 1.387 . S
C396 C399 1.387 . S
H397 C393 0.950 . S
H398 C395 0.950 . S
C399 C390 1.390 . S
C399 H392 0.950 . S
C399 C396 1.387 . S
C400 C401 1.387 . S
C400 H404 0.950 . S
C400 C409 1.390 . S
C401 C400 1.387 . S
C401 C403 1.387 . S
H402 C409 0.950 . S
C403 C401 1.387 . S
C403 C405 1.390 . S
C403 H407 0.950 . S
H404 C400 0.950 . S
C405 C403 1.390 . S
C405 C406 1.387 . S
C405 H408 0.950 . S
C406 C405 1.387 . S
C406 C409 1.387 . S
H407 C403 0.950 . S
H408 C405 0.950 . S
C409 C400 1.390 . S
C409 H402 0.950 . S
C409 C406 1.387 . S
C410 C411 1.387 . S
C410 H414 0.950 . S
C410 C419 1.390 . S
C411 C410 1.387 . S
C411 C413 1.387 . S
H412 C419 0.950 . S
C413 C411 1.387 . S
C413 C415 1.390 . S
C413 H417 0.950 . S
H414 C410 0.950 . S
C415 C413 1.390 . S
C415 C416 1.387 . S
C415 H418 0.950 . S
C416 C415 1.387 . S
C416 C419 1.387 . S
H417 C413 0.950 . S
H418 C415 0.950 . S
C419 C410 1.390 . S
C419 H412 0.950 . S
C419 C416 1.387 . S
C420 C421 1.387 . S
C420 H424 0.950 . S
C420 C429 1.390 . S
C421 C420 1.387 . S
C421 C423 1.387 . S
H422 C429 0.950 . S
C423 C421 1.387 . S
C423 C425 1.390 . S
C423 H427 0.950 . S
H424 C420 0.950 . S
C425 C423 1.390 . S
C425 C426 1.387 . S
C425 H428 0.950 . S
C426 C425 1.387 . S
C426 C429 1.387 . S
H427 C423 0.950 . S
H428 C425 0.950 . S
C429 C420 1.390 . S
C429 H422 0.950 . S
C429 C426 1.387 . S
C430 C431 1.387 . S
C430 H434 0.950 . S
C430 C439 1.390 . S
C431 C430 1.387 . S
C431 C433 1.387 . S
H432 C439 0.950 . S
C433 C431 1.387 . S
C433 C435 1.390 . S
C433 H437 0.950 . S
H434 C430 0.950 . S
C435 C433 1.390 . S
C435 C436 1.387 . S
C435 H438 0.950 . S
C436 C435 1.387 . S
C436 C439 1.387 . S
H437 C433 0.950 . S
H438 C435 0.950 . S
C439 C430 1.390 . S
C439 H432 0.950 . S
C439 C436 1.387 . S
C440 C441 1.387 1_655 S
C440 H444 0.950 1_655 S
C440 C449 1.390 . S
C441 C440 1.387 1_455 S
C441 C443 1.387 1_455 S
H442 C449 0.950 . S
C443 C441 1.387 1_655 S
C443 C445 1.390 . S
C443 H447 0.950 . S
H444 C440 0.950 1_455 S
C445 C443 1.390 . S
C445 C446 1.387 . S
C445 H448 0.950 . S
C446 C445 1.387 . S
C446 C449 1.387 . S
H447 C443 0.950 . S
H448 C445 0.950 . S
C449 C440 1.390 . S
C449 H442 0.950 . S
C449 C446 1.387 . S
C450 C451 1.387 . S
C450 H454 0.950 . S
C450 C459 1.390 . S
C451 C450 1.387 . S
C451 C453 1.387 . S
H452 C459 0.950 . S
C453 C451 1.387 . S
C453 C455 1.390 . S
C453 H457 0.950 . S
H454 C450 0.950 . S
C455 C453 1.390 . S
C455 C456 1.387 . S
C455 H458 0.950 . S
C456 C455 1.387 . S
C456 C459 1.387 . S
H457 C453 0.950 . S
H458 C455 0.950 . S
C459 C450 1.390 . S
C459 H452 0.950 . S
C459 C456 1.387 . S
C460 C461 1.387 . S
C460 H464 0.950 . S
C460 C469 1.390 . S
C461 C460 1.387 . S
C461 C463 1.387 . S
H462 C469 0.950 . S
C463 C461 1.387 . S
C463 C465 1.390 . S
C463 H467 0.950 . S
H464 C460 0.950 . S
C465 C463 1.390 . S
C465 C466 1.387 . S
C465 H468 0.950 . S
C466 C465 1.387 . S
C466 C469 1.387 . S
H467 C463 0.950 . S
H468 C465 0.950 . S
C469 C460 1.390 . S
C469 H462 0.950 . S
C469 C466 1.387 . S
C470 C471 1.387 . S
C470 H474 0.950 . S
C470 C479 1.390 . S
C471 C470 1.387 . S
C471 C473 1.387 . S
H472 C479 0.950 . S
C473 C471 1.387 . S
C473 C475 1.390 . S
C473 H477 0.950 . S
H474 C470 0.950 . S
C475 C473 1.390 . S
C475 C476 1.387 . S
C475 H478 0.950 . S
C476 C475 1.387 . S
C476 C479 1.387 . S
H477 C473 0.950 . S
H478 C475 0.950 . S
C479 C470 1.390 . S
C479 H472 0.950 . S
C479 C476 1.387 . S
C480 C481 1.387 . S
C480 H484 0.950 . S
C480 C489 1.390 . S
C481 C480 1.387 . S
C481 C483 1.387 . S
H482 C489 0.950 . S
C483 C481 1.387 . S
C483 C485 1.390 . S
C483 H487 0.950 . S
H484 C480 0.950 . S
C485 C483 1.390 . S
C485 C486 1.387 . S
C485 H488 0.950 . S
C486 C485 1.387 . S
C486 C489 1.387 . S
H487 C483 0.950 . S
H488 C485 0.950 . S
C489 C480 1.390 . S
C489 H482 0.950 . S
C489 C486 1.387 . S
C490 C491 1.387 . S
C490 H494 0.950 . S
C490 C499 1.390 . S
C491 C490 1.387 . S
C491 C493 1.387 . S
H492 C499 0.950 . S
C493 C491 1.387 . S
C493 C495 1.390 . S
C493 H497 0.950 . S
H494 C490 0.950 . S
C495 C493 1.390 . S
C495 C496 1.387 . S
C495 H498 0.950 . S
C496 C495 1.387 . S
C496 C499 1.387 . S
H497 C493 0.950 . S
H498 C495 0.950 . S
C499 C490 1.390 . S
C499 H492 0.950 . S
C499 C496 1.387 . S
C500 C501 1.387 . S
C500 H504 0.950 . S
C500 C509 1.390 . S
C501 C500 1.387 . S
C501 C503 1.387 . S
H502 C509 0.950 . S
C503 C501 1.387 . S
C503 C505 1.390 . S
C503 H507 0.950 . S
H504 C500 0.950 . S
C505 C503 1.390 . S
C505 C506 1.387 . S
C505 H508 0.950 . S
C506 C505 1.387 . S
C506 C509 1.387 . S
H507 C503 0.950 . S
H508 C505 0.950 . S
C509 C500 1.390 . S
C509 H502 0.950 . S
C509 C506 1.387 . S
C510 C511 1.387 . S
C510 H514 0.950 . S
C510 C519 1.390 . S
C511 C510 1.387 . S
C511 C513 1.387 . S
H512 C519 0.950 . S
C513 C511 1.387 . S
C513 C515 1.390 . S
C513 H517 0.950 . S
H514 C510 0.950 . S
C515 C513 1.390 . S
C515 C516 1.387 . S
C515 H518 0.950 . S
C516 C515 1.387 . S
C516 C519 1.387 . S
H517 C513 0.950 . S
H518 C515 0.950 . S
C519 C510 1.390 . S
C519 H512 0.950 . S
C519 C516 1.387 . S
C520 C521 1.387 . S
C520 H524 0.950 . S
C520 C529 1.390 . S
C521 C520 1.387 . S
C521 C523 1.387 . S
H522 C529 0.950 . S
C523 C521 1.387 . S
C523 C525 1.390 . S
C523 H527 0.950 . S
H524 C520 0.950 . S
C525 C523 1.390 . S
C525 C526 1.387 1_565 S
C525 H528 0.950 1_565 S
C526 C525 1.387 1_545 S
C526 C529 1.387 1_545 S
H527 C523 0.950 . S
H528 C525 0.950 1_545 S
C529 C520 1.390 . S
C529 H522 0.950 . S
C529 C526 1.387 1_565 S
C530 C531 1.387 . S
C530 H534 0.950 . S
C530 C539 1.390 . S
C531 C530 1.387 . S
C531 C533 1.387 . S
H532 C539 0.950 . S
C533 C531 1.387 . S
C533 C535 1.390 . S
C533 H537 0.950 . S
H534 C530 0.950 . S
C535 C533 1.390 . S
C535 C536 1.387 . S
C535 H538 0.950 . S
C536 C535 1.387 . S
C536 C539 1.387 . S
H537 C533 0.950 . S
H538 C535 0.950 . S
C539 C530 1.390 . S
C539 H532 0.950 . S
C539 C536 1.387 . S
C540 C541 1.387 . S
C540 H544 0.950 . S
C540 C549 1.390 1_554 S
C541 C540 1.387 . S
C541 C543 1.387 . S
H542 C549 0.950 . S
C543 C541 1.387 . S
C543 C545 1.390 1_554 S
C543 H547 0.950 . S
H544 C540 0.950 . S
C545 C543 1.390 1_556 S
C545 C546 1.387 . S
C545 H548 0.950 . S
C546 C545 1.387 . S
C546 C549 1.387 . S
H547 C543 0.950 . S
H548 C545 0.950 . S
C549 C540 1.390 1_556 S
C549 H542 0.950 . S
C549 C546 1.387 . S
C550 C551 1.387 . S
C550 H554 0.950 1_455 S
C550 C559 1.390 1_456 S
C551 C550 1.387 . S
C551 C553 1.387 . S
H552 C559 0.947 . S
C553 C551 1.387 . S
C553 C555 1.390 1_556 S
C553 H557 0.950 . S
H554 C550 0.950 1_655 S
C555 C553 1.390 1_554 S
C555 C556 1.387 . S
C555 H558 0.950 . S
C556 C555 1.387 . S
C556 C559 1.391 1_455 S
H557 C553 0.950 . S
H558 C555 0.950 . S
C559 C550 1.390 1_654 S
C559 H552 0.947 . S
C559 C556 1.391 1_655 S
C560 C561 1.387 . S
C560 H564 0.950 . S
C560 C569 1.390 1_556 S
C561 C560 1.387 . S
C561 C563 1.387 . S
H562 C569 0.950 . S
C563 C561 1.387 . S
C563 C565 1.390 1_556 S
C563 H567 0.950 . S
H564 C560 0.950 . S
C565 C563 1.390 1_554 S
C565 C566 1.387 . S
C565 H568 0.950 . S
C566 C565 1.387 . S
C566 C569 1.387 . S
H567 C563 0.950 . S
H568 C565 0.950 . S
C569 C560 1.390 1_554 S
C569 H562 0.950 . S
C569 C566 1.387 . S
C570 C571 1.387 . S
C570 H574 0.950 . S
C570 C579 1.390 . S
C571 C570 1.387 . S
C571 C573 1.387 . S
H572 C579 0.950 . S
C573 C571 1.387 . S
C573 C575 1.390 . S
C573 H577 0.950 . S
H574 C570 0.950 . S
C575 C573 1.390 . S
C575 C576 1.387 . S
C575 H578 0.950 . S
C576 C575 1.387 . S
C576 C579 1.387 . S
H577 C573 0.950 . S
H578 C575 0.950 . S
C579 C570 1.390 . S
C579 H572 0.950 . S
C579 C576 1.387 . S
C580 C581 1.387 . S
C580 H584 0.950 . S
C580 C589 1.390 . S
C581 C580 1.387 . S
C581 C583 1.387 . S
H582 C589 0.950 . S
C583 C581 1.387 . S
C583 C585 1.390 . S
C583 H587 0.950 . S
H584 C580 0.950 . S
C585 C583 1.390 . S
C585 C586 1.387 . S
C585 H588 0.950 . S
C586 C585 1.387 . S
C586 C589 1.387 . S
H587 C583 0.950 . S
H588 C585 0.950 . S
C589 C580 1.390 . S
C589 H582 0.950 . S
C589 C586 1.387 . S
C590 C591 1.387 . S
C590 H594 0.950 . S
C590 C599 1.390 . S
C591 C590 1.387 . S
C591 C593 1.387 . S
H592 C599 0.950 . S
C593 C591 1.387 . S
C593 C595 1.390 . S
C593 H597 0.950 . S
H594 C590 0.950 . S
C595 C593 1.390 . S
C595 C596 1.387 . S
C595 H598 0.950 . S
C596 C595 1.387 . S
C596 C599 1.387 . S
H597 C593 0.950 . S
H598 C595 0.950 . S
C599 C590 1.390 . S
C599 H592 0.950 . S
C599 C596 1.387 . S
C600 C601 1.387 . S
C600 H604 0.950 . S
C600 C609 1.390 . S
C601 C600 1.387 . S
C601 C603 1.387 . S
H602 C609 0.950 . S
C603 C601 1.387 . S
C603 C605 1.390 . S
C603 H607 0.950 . S
H604 C600 0.950 . S
C605 C603 1.390 . S
C605 C606 1.387 . S
C605 H608 0.950 . S
C606 C605 1.387 . S
C606 C609 1.387 . S
H607 C603 0.950 . S
H608 C605 0.950 . S
C609 C600 1.390 . S
C609 H602 0.950 . S
C609 C606 1.387 . S
C610 C611 1.387 . S
C610 H614 0.950 . S
C610 C619 1.390 . S
C611 C610 1.387 . S
C611 C613 1.387 . S
H612 C619 0.950 . S
C613 C611 1.387 . S
C613 C615 1.390 . S
C613 H617 0.950 . S
H614 C610 0.950 . S
C615 C613 1.390 . S
C615 C616 1.387 . S
C615 H618 0.950 . S
C616 C615 1.387 . S
C616 C619 1.387 . S
H617 C613 0.950 . S
H618 C615 0.950 . S
C619 C610 1.390 . S
C619 H612 0.950 . S
C619 C616 1.387 . S
C620 C621 1.387 . S
C620 H624 0.950 . S
C620 C629 1.390 . S
C621 C620 1.387 . S
C621 C623 1.387 . S
H622 C629 0.950 . S
C623 C621 1.387 . S
C623 C625 1.390 . S
C623 H627 0.950 . S
H624 C620 0.950 . S
C625 C623 1.390 . S
C625 C626 1.387 . S
C625 H628 0.950 . S
C626 C625 1.387 . S
C626 C629 1.387 . S
H627 C623 0.950 . S
H628 C625 0.950 . S
C629 C620 1.390 . S
C629 H622 0.950 . S
C629 C626 1.387 . S
C630 C631 1.387 . S
C630 H634 0.950 . S
C630 C639 1.390 . S
C631 C630 1.387 . S
C631 C633 1.387 . S
H632 C639 0.950 1_545 S
C633 C631 1.387 . S
C633 C635 1.390 . S
C633 H637 0.950 . S
H634 C630 0.950 . S
C635 C633 1.390 . S
C635 C636 1.387 . S
C635 H638 0.950 . S
C636 C635 1.387 . S
C636 C639 1.387 . S
H637 C633 0.950 . S
H638 C635 0.950 . S
C639 C630 1.390 . S
C639 H632 0.950 1_565 S
C639 C636 1.387 . S
C640 C641 1.387 . S
C640 H644 0.950 . S
C640 C649 1.390 . S
C641 C640 1.387 . S
C641 C643 1.387 . S
H642 C649 0.950 . S
C643 C641 1.387 . S
C643 C645 1.390 . S
C643 H647 0.950 . S
H644 C640 0.950 . S
C645 C643 1.390 . S
C645 C646 1.387 . S
C645 H648 0.950 . S
C646 C645 1.387 . S
C646 C649 1.387 . S
H647 C643 0.950 . S
H648 C645 0.950 . S
C649 C640 1.390 . S
C649 H642 0.950 . S
C649 C646 1.387 . S
C650 C651 1.387 . S
C650 H654 0.950 . S
C650 C659 1.390 . S
C651 C650 1.387 . S
C651 C653 1.387 . S
H652 C659 0.950 . S
C653 C651 1.387 . S
C653 C655 1.390 . S
C653 H657 0.950 . S
H654 C650 0.950 . S
C655 C653 1.390 . S
C655 C656 1.387 . S
C655 H658 0.950 . S
C656 C655 1.387 . S
C656 C659 1.387 . S
H657 C653 0.950 . S
H658 C655 0.950 . S
C659 C650 1.390 . S
C659 H652 0.950 . S
C659 C656 1.387 . S
C660 C661 1.387 . S
C660 H664 0.950 1_655 S
C660 C669 1.390 . S
C661 C660 1.387 . S
C661 C663 1.387 . S
H662 C669 0.950 . S
C663 C661 1.387 . S
C663 C665 1.390 . S
C663 H667 0.950 . S
H664 C660 0.950 1_455 S
C665 C663 1.390 . S
C665 C666 1.387 . S
C665 H668 0.950 . S
C666 C665 1.387 . S
C666 C669 1.387 . S
H667 C663 0.950 . S
H668 C665 0.950 . S
C669 C660 1.390 . S
C669 H662 0.950 . S
C669 C666 1.387 . S
C670 C671 1.387 . S
C670 H674 0.950 . S
C670 C679 1.390 . S
C671 C670 1.387 . S
C671 C673 1.387 . S
H672 C679 0.950 . S
C673 C671 1.387 . S
C673 C675 1.390 . S
C673 H677 0.950 . S
H674 C670 0.950 . S
C675 C673 1.390 . S
C675 C676 1.387 . S
C675 H678 0.950 . S
C676 C675 1.387 . S
C676 C679 1.387 . S
H677 C673 0.950 . S
H678 C675 0.950 . S
C679 C670 1.390 . S
C679 H672 0.950 . S
C679 C676 1.387 . S
C680 C681 1.387 . S
C680 H684 0.950 . S
C680 C689 1.390 . S
C681 C680 1.387 . S
C681 C683 1.387 . S
H682 C689 0.950 . S
C683 C681 1.387 . S
C683 C685 1.390 . S
C683 H687 0.950 . S
H684 C680 0.950 . S
C685 C683 1.390 . S
C685 C686 1.387 . S
C685 H688 0.950 . S
C686 C685 1.387 . S
C686 C689 1.387 . S
H687 C683 0.950 . S
H688 C685 0.950 . S
C689 C680 1.390 . S
C689 H682 0.950 . S
C689 C686 1.387 . S
C690 C691 1.387 . S
C690 H694 0.950 . S
C690 C699 1.390 1_655 S
C691 C690 1.387 . S
C691 C693 1.387 1_655 S
H692 C699 0.950 . S
C693 C691 1.387 1_455 S
C693 C695 1.390 . S
C693 H697 0.950 . S
H694 C690 0.950 . S
C695 C693 1.390 . S
C695 C696 1.387 . S
C695 H698 0.950 . S
C696 C695 1.387 . S
C696 C699 1.387 . S
H697 C693 0.950 . S
H698 C695 0.950 . S
C699 C690 1.390 1_455 S
C699 H692 0.950 . S
C699 C696 1.387 . S
C700 C701 1.387 . S
C700 H704 0.950 . S
C700 C709 1.390 . S
C701 C700 1.387 . S
C701 C703 1.387 . S
H702 C709 0.950 . S
C703 C701 1.387 . S
C703 C705 1.390 . S
C703 H707 0.950 . S
H704 C700 0.950 . S
C705 C703 1.390 . S
C705 C706 1.387 . S
C705 H708 0.950 . S
C706 C705 1.387 . S
C706 C709 1.387 . S
H707 C703 0.950 . S
H708 C705 0.950 . S
C709 C700 1.390 . S
C709 H702 0.950 . S
C709 C706 1.387 . S
C710 C711 1.387 . S
C710 H714 0.950 . S
C710 C719 1.390 1_565 S
C711 C710 1.387 . S
C711 C713 1.387 . S
H712 C719 0.950 . S
C713 C711 1.387 . S
C713 C715 1.390 1_565 S
C713 H717 0.950 . S
H714 C710 0.950 . S
C715 C713 1.390 1_545 S
C715 C716 1.387 . S
C715 H718 0.950 . S
C716 C715 1.387 . S
C716 C719 1.387 . S
H717 C713 0.950 . S
H718 C715 0.950 . S
C719 C710 1.390 1_545 S
C719 H712 0.950 . S
C719 C716 1.387 . S
C720 C721 1.387 . S
C720 H724 0.950 . S
C720 C729 1.390 . S
C721 C720 1.387 . S
C721 C723 1.387 . S
H722 C729 0.950 . S
C723 C721 1.387 . S
C723 C725 1.390 . S
C723 H727 0.950 . S
H724 C720 0.950 . S
C725 C723 1.390 . S
C725 C726 1.387 . S
C725 H728 0.950 . S
C726 C725 1.387 . S
C726 C729 1.387 . S
H727 C723 0.950 . S
H728 C725 0.950 . S
C729 C720 1.390 . S
C729 H722 0.950 . S
C729 C726 1.387 . S
C730 C731 1.387 . S
C730 H734 0.950 . S
C730 C739 1.390 . S
C731 C730 1.387 . S
C731 C733 1.387 . S
H732 C739 0.950 . S
C733 C731 1.387 . S
C733 C735 1.390 . S
C733 H737 0.950 . S
H734 C730 0.950 . S
C735 C733 1.390 . S
C735 C736 1.387 . S
C735 H738 0.950 . S
C736 C735 1.387 . S
C736 C739 1.387 . S
H737 C733 0.950 . S
H738 C735 0.950 . S
C739 C730 1.390 . S
C739 H732 0.950 . S
C739 C736 1.387 . S
C740 C741 1.387 . S
C740 H744 0.950 . S
C740 C749 1.390 . S
C741 C740 1.387 . S
C741 C743 1.387 . S
H742 C749 0.950 . S
C743 C741 1.387 . S
C743 C745 1.390 . S
C743 H747 0.950 . S
H744 C740 0.950 . S
C745 C743 1.390 . S
C745 C746 1.387 . S
C745 H748 0.950 . S
C746 C745 1.387 . S
C746 C749 1.387 . S
H747 C743 0.950 . S
H748 C745 0.950 . S
C749 C740 1.390 . S
C749 H742 0.950 . S
C749 C746 1.387 . S
C750 C751 1.387 . S
C750 H754 0.950 . S
C750 C759 1.390 . S
C751 C750 1.387 . S
C751 C753 1.387 . S
H752 C759 0.950 . S
C753 C751 1.387 . S
C753 C755 1.390 . S
C753 H757 0.950 . S
H754 C750 0.950 . S
C755 C753 1.390 . S
C755 C756 1.387 . S
C755 H758 0.950 . S
C756 C755 1.387 . S
C756 C759 1.387 . S
H757 C753 0.950 . S
H758 C755 0.950 . S
C759 C750 1.390 . S
C759 H752 0.950 . S
C759 C756 1.387 . S
C760 C761 1.387 . S
C760 H764 0.950 . S
C760 C769 1.390 . S
C761 C760 1.387 . S
C761 C763 1.387 . S
H762 C769 0.950 . S
C763 C761 1.387 . S
C763 C765 1.390 . S
C763 H767 0.950 . S
H764 C760 0.950 . S
C765 C763 1.390 . S
C765 C766 1.387 . S
C765 H768 0.950 . S
C766 C765 1.387 . S
C766 C769 1.387 . S
H767 C763 0.950 . S
H768 C765 0.950 . S
C769 C760 1.390 . S
C769 H762 0.950 . S
C769 C766 1.387 . S
C770 C771 1.387 . S
C770 H774 0.950 . S
C770 C779 1.390 . S
C771 C770 1.387 . S
C771 C773 1.387 . S
H772 C779 0.950 . S
C773 C771 1.387 . S
C773 C775 1.390 . S
C773 H777 0.950 . S
H774 C770 0.950 . S
C775 C773 1.390 . S
C775 C776 1.387 . S
C775 H778 0.950 . S
C776 C775 1.387 . S
C776 C779 1.387 . S
H777 C773 0.950 . S
H778 C775 0.950 . S
C779 C770 1.390 . S
C779 H772 0.950 . S
C779 C776 1.387 . S
C780 C781 1.387 . S
C780 H784 0.950 . S
C780 C789 1.390 . S
C781 C780 1.387 . S
C781 C783 1.387 . S
H782 C789 0.950 . S
C783 C781 1.387 . S
C783 C785 1.390 . S
C783 H787 0.950 . S
H784 C780 0.950 . S
C785 C783 1.390 . S
C785 C786 1.387 . S
C785 H788 0.950 . S
C786 C785 1.387 . S
C786 C789 1.387 . S
H787 C783 0.950 . S
H788 C785 0.950 . S
C789 C780 1.390 . S
C789 H782 0.950 . S
C789 C786 1.387 . S
C790 C791 1.387 . S
C790 H794 0.950 . S
C790 C799 1.390 . S
C791 C790 1.387 . S
C791 C793 1.387 . S
H792 C799 0.950 . S
C793 C791 1.387 . S
C793 C795 1.390 . S
C793 H797 0.950 . S
H794 C790 0.950 . S
C795 C793 1.390 . S
C795 C796 1.387 . S
C795 H798 0.950 . S
C796 C795 1.387 . S
C796 C799 1.387 . S
H797 C793 0.950 . S
H798 C795 0.950 . S
C799 C790 1.390 . S
C799 H792 0.950 . S
C799 C796 1.387 . S
C800 C801 1.387 . S
C800 H804 0.950 . S
C800 C809 1.390 . S
C801 C800 1.387 . S
C801 C803 1.387 . S
H802 C809 0.950 . S
C803 C801 1.387 . S
C803 C805 1.390 . S
C803 H807 0.950 . S
H804 C800 0.950 . S
C805 C803 1.390 . S
C805 C806 1.387 . S
C805 H808 0.950 . S
C806 C805 1.387 . S
C806 C809 1.387 . S
H807 C803 0.950 . S
H808 C805 0.950 . S
C809 C800 1.390 . S
C809 H802 0.950 . S
C809 C806 1.387 . S
C810 C811 1.387 . S
C810 H814 0.950 . S
C810 C819 1.390 . S
C811 C810 1.387 . S
C811 C813 1.387 . S
H812 C819 0.950 . S
C813 C811 1.387 . S
C813 C815 1.390 . S
C813 H817 0.950 . S
H814 C810 0.950 . S
C815 C813 1.390 . S
C815 C816 1.387 . S
C815 H818 0.950 . S
C816 C815 1.387 . S
C816 C819 1.387 . S
H817 C813 0.950 . S
H818 C815 0.950 . S
C819 C810 1.390 . S
C819 H812 0.950 . S
C819 C816 1.387 . S
C820 C821 1.387 . S
C820 H824 0.950 . S
C820 C829 1.390 . S
C821 C820 1.387 . S
C821 C823 1.387 . S
H822 C829 0.950 . S
C823 C821 1.387 . S
C823 C825 1.390 . S
C823 H827 0.950 . S
H824 C820 0.950 . S
C825 C823 1.390 . S
C825 C826 1.387 . S
C825 H828 0.950 . S
C826 C825 1.387 . S
C826 C829 1.387 . S
H827 C823 0.950 . S
H828 C825 0.950 . S
C829 C820 1.390 . S
C829 H822 0.950 . S
C829 C826 1.387 . S
C830 C831 1.387 . S
C830 H834 0.950 . S
C830 C839 1.390 . S
C831 C830 1.387 . S
C831 C833 1.387 . S
H832 C839 0.950 . S
C833 C831 1.387 . S
C833 C835 1.390 . S
C833 H837 0.950 . S
H834 C830 0.950 . S
C835 C833 1.390 . S
C835 C836 1.387 . S
C835 H838 0.950 . S
C836 C835 1.387 . S
C836 C839 1.387 . S
H837 C833 0.950 . S
H838 C835 0.950 . S
C839 C830 1.390 . S
C839 H832 0.950 . S
C839 C836 1.387 . S
C840 C841 1.387 . S
C840 H844 0.950 . S
C840 C849 1.390 . S
C841 C840 1.387 . S
C841 C843 1.387 . S
H842 C849 0.950 . S
C843 C841 1.387 . S
C843 C845 1.390 . S
C843 H847 0.950 . S
H844 C840 0.950 . S
C845 C843 1.390 . S
C845 C846 1.387 . S
C845 H848 0.950 . S
C846 C845 1.387 . S
C846 C849 1.387 . S
H847 C843 0.950 . S
H848 C845 0.950 . S
C849 C840 1.390 . S
C849 H842 0.950 . S
C849 C846 1.387 . S
C850 C851 1.387 . S
C850 H854 0.950 . S
C850 C859 1.390 . S
C851 C850 1.387 . S
C851 C853 1.387 . S
H852 C859 0.950 . S
C853 C851 1.387 . S
C853 C855 1.390 . S
C853 H857 0.950 . S
H854 C850 0.950 . S
C855 C853 1.390 . S
C855 C856 1.387 . S
C855 H858 0.950 . S
C856 C855 1.387 . S
C856 C859 1.387 . S
H857 C853 0.950 . S
H858 C855 0.950 . S
C859 C850 1.390 . S
C859 H852 0.950 . S
C859 C856 1.387 . S
C860 C861 1.387 . S
C860 H864 0.950 . S
C860 C869 1.390 . S
C861 C860 1.387 . S
C861 C863 1.387 . S
H862 C869 0.950 . S
C863 C861 1.387 . S
C863 C865 1.390 . S
C863 H867 0.950 . S
H864 C860 0.950 . S
C865 C863 1.390 . S
C865 C866 1.387 . S
C865 H868 0.950 . S
C866 C865 1.387 . S
C866 C869 1.387 . S
H867 C863 0.950 . S
H868 C865 0.950 . S
C869 C860 1.390 . S
C869 H862 0.950 . S
C869 C866 1.387 . S
C870 C871 1.387 . S
C870 H874 0.950 . S
C870 C879 1.390 . S
C871 C870 1.387 . S
C871 C873 1.387 . S
H872 C879 0.950 . S
C873 C871 1.387 . S
C873 C875 1.390 . S
C873 H877 0.950 . S
H874 C870 0.950 . S
C875 C873 1.390 . S
C875 C876 1.387 . S
C875 H878 0.950 . S
C876 C875 1.387 . S
C876 C879 1.387 . S
H877 C873 0.950 . S
H878 C875 0.950 . S
C879 C870 1.390 . S
C879 H872 0.950 . S
C879 C876 1.387 . S
C880 C881 1.387 . S
C880 H884 0.950 . S
C880 C889 1.390 . S
C881 C880 1.387 . S
C881 C883 1.387 . S
H882 C889 0.950 . S
C883 C881 1.387 . S
C883 C885 1.390 . S
C883 H887 0.950 . S
H884 C880 0.950 . S
C885 C883 1.390 . S
C885 C886 1.387 . S
C885 H888 0.950 . S
C886 C885 1.387 . S
C886 C889 1.387 . S
H887 C883 0.950 . S
H888 C885 0.950 . S
C889 C880 1.390 . S
C889 H882 0.950 . S
C889 C886 1.387 . S
C890 C891 1.387 . S
C890 H894 0.950 . S
C890 C899 1.390 . S
C891 C890 1.387 . S
C891 C893 1.387 . S
H892 C899 0.950 . S
C893 C891 1.387 . S
C893 C895 1.390 . S
C893 H897 0.950 . S
H894 C890 0.950 . S
C895 C893 1.390 . S
C895 C896 1.387 . S
C895 H898 0.950 . S
C896 C895 1.387 . S
C896 C899 1.387 . S
H897 C893 0.950 . S
H898 C895 0.950 . S
C899 C890 1.390 . S
C899 H892 0.950 . S
C899 C896 1.387 . S
C361 C2 1.164 . S
C366 C49 1.097 . S
C371 C9 1.102 . S
C376 C22 1.161 . S
C381 C29 1.102 . S
C386 C42 1.163 . S
C391 C62 1.162 . S
C396 C89 1.097 . S
C401 C109 1.102 . S
C406 C82 1.160 . S
C411 C102 1.163 . S
C416 C69 1.097 . S
C421 C169 1.097 . S
C426 C122 1.164 . S
C431 C129 1.097 . S
C436 C142 1.163 1_545 S
C441 C162 1.164 . S
C446 C149 1.098 . S
C451 C209 1.096 . S
C456 C182 1.163 . S
C461 C202 1.161 . S
C466 C229 1.102 . S
C471 C189 1.097 . S
C476 C222 1.164 . S
C481 C242 1.164 . S
C486 C289 1.097 . S
C491 C249 1.102 . S
C496 C262 1.160 . S
C501 C269 1.097 . S
C506 C282 1.164 . S
C511 C329 1.103 . S
C516 C302 1.161 . S
C521 C349 1.097 . S
C526 C322 1.162 . S
C531 C309 1.096 . S
C536 C342 1.163 1_455 S
C541 C19 1.705 . S
C546 C119 1.705 . S
C551 C79 1.706 . S
C556 C39 1.705 . S
C561 C99 1.708 . S
C566 C59 1.708 . S
C571 C139 1.705 . S
C576 C239 1.705 . S
C581 C159 1.706 . S
C586 C199 1.706 . S
C591 C219 1.706 . S
C596 C179 1.706 . S
C601 C259 1.708 . S
C606 C359 1.708 . S
C611 C319 1.708 . S
C616 C279 1.708 . S
C621 C339 1.705 . S
C626 C299 1.706 . S
C631 C218 1.981 . S
C636 C18 1.980 1_565 S
C641 C38 1.979 . S
C646 C238 1.981 . S
C651 C198 1.981 . S
C656 C58 1.981 . S
C661 C78 1.980 1_655 S
C666 C298 1.980 . S
C671 C98 1.980 . S
C676 C258 1.981 . S
C681 C278 1.979 . S
C686 C118 1.978 . S
C691 C338 1.979 . S
C696 C138 1.977 . S
C701 C158 1.979 . S
C706 C358 1.981 . S
C711 C178 1.980 . S
C716 C318 1.981 . S
C721 C52 1.519 . S
C726 C4 1.351 . S
C731 C12 1.520 . S
C736 C24 1.352 . S
C741 C44 1.356 . S
C746 C32 1.519 . S
C751 C92 1.519 . S
C756 C64 1.356 . S
C761 C112 1.519 . S
C766 C84 1.356 . S
C771 C104 1.356 . S
C776 C72 1.519 . S
C781 C172 1.520 . S
C786 C124 1.351 . S
C791 C144 1.351 . S
C796 C132 1.520 . S
C801 C152 1.519 . S
C806 C164 1.357 . S
C811 C184 1.351 . S
C816 C212 1.520 1_655 S
C821 C204 1.356 . S
C826 C232 1.519 . S
C831 C192 1.518 1_545 S
C836 C224 1.356 1_655 S
C841 C244 1.351 . S
C846 C292 1.520 1_565 S
C851 C264 1.351 1_565 S
C856 C252 1.520 1_455 S
C861 C272 1.519 . S
C866 C284 1.356 . S
C871 C304 1.356 . S
C876 C332 1.518 . S
C881 C324 1.351 . S
C886 C352 1.519 . S
C891 C312 1.519 . S
C896 C344 1.356 . S
