# Generated by pormake.
# Topology afi, (4)-cn, num edge types: 1
# Building blocks:
#     Node 0, Type 0, BuildingBlock: CEKHIL_clean_sbu_0, # of connection points: 4
#     Node 1, Type 0, BuildingBlock: CEKHIL_clean_sbu_0, # of connection points: 4
#     Node 2, Type 0, BuildingBlock: CEKHIL_clean_sbu_0, # of connection points: 4
#     Node 3, Type 0, BuildingBlock: CEKHIL_clean_sbu_0, # of connection points: 4
#     Node 4, Type 0, BuildingBlock: CEKHIL_clean_sbu_0, # of connection points: 4
#     Node 5, Type 0, BuildingBlock: CEKHIL_clean_sbu_0, # of connection points: 4
#     Node 6, Type 0, BuildingBlock: CEKHIL_clean_sbu_0, # of connection points: 4
#     Node 7, Type 0, BuildingBlock: CEKHIL_clean_sbu_0, # of connection points: 4
#     Node 8, Type 0, BuildingBlock: CEKHIL_clean_sbu_0, # of connection points: 4
#     Node 9, Type 0, BuildingBlock: CEKHIL_clean_sbu_0, # of connection points: 4
#     Node 10, Type 0, BuildingBlock: CEKHIL_clean_sbu_0, # of connection points: 4
#     Node 11, Type 0, BuildingBlock: CEKHIL_clean_sbu_0, # of connection points: 4
#     Node 12, Type 0, BuildingBlock: CEKHIL_clean_sbu_0, # of connection points: 4
#     Node 13, Type 0, BuildingBlock: CEKHIL_clean_sbu_0, # of connection points: 4
#     Node 14, Type 0, BuildingBlock: CEKHIL_clean_sbu_0, # of connection points: 4
#     Node 15, Type 0, BuildingBlock: CEKHIL_clean_sbu_0, # of connection points: 4
#     Node 16, Type 0, BuildingBlock: CEKHIL_clean_sbu_0, # of connection points: 4
#     Node 17, Type 0, BuildingBlock: CEKHIL_clean_sbu_0, # of connection points: 4
#     Node 18, Type 0, BuildingBlock: CEKHIL_clean_sbu_0, # of connection points: 4
#     Node 19, Type 0, BuildingBlock: CEKHIL_clean_sbu_0, # of connection points: 4
#     Node 20, Type 0, BuildingBlock: CEKHIL_clean_sbu_0, # of connection points: 4
#     Node 21, Type 0, BuildingBlock: CEKHIL_clean_sbu_0, # of connection points: 4
#     Node 22, Type 0, BuildingBlock: CEKHIL_clean_sbu_0, # of connection points: 4
#     Node 23, Type 0, BuildingBlock: CEKHIL_clean_sbu_0, # of connection points: 4
#     Edge 24, Type (0, 0), BuildingBlock: XUDNAN_clean_linker_2, # of connection points: 2
#     Edge 25, Type (0, 0), BuildingBlock: XUDNAN_clean_linker_2, # of connection points: 2
#     Edge 26, Type (0, 0), BuildingBlock: XUDNAN_clean_linker_2, # of connection points: 2
#     Edge 27, Type (0, 0), BuildingBlock: XUDNAN_clean_linker_2, # of connection points: 2
#     Edge 28, Type (0, 0), BuildingBlock: XUDNAN_clean_linker_2, # of connection points: 2
#     Edge 29, Type (0, 0), BuildingBlock: XUDNAN_clean_linker_2, # of connection points: 2
#     Edge 30, Type (0, 0), BuildingBlock: XUDNAN_clean_linker_2, # of connection points: 2
#     Edge 31, Type (0, 0), BuildingBlock: XUDNAN_clean_linker_2, # of connection points: 2
#     Edge 32, Type (0, 0), BuildingBlock: XUDNAN_clean_linker_2, # of connection points: 2
#     Edge 33, Type (0, 0), BuildingBlock: XUDNAN_clean_linker_2, # of connection points: 2
#     Edge 34, Type (0, 0), BuildingBlock: XUDNAN_clean_linker_2, # of connection points: 2
#     Edge 35, Type (0, 0), BuildingBlock: XUDNAN_clean_linker_2, # of connection points: 2
#     Edge 36, Type (0, 0), BuildingBlock: XUDNAN_clean_linker_2, # of connection points: 2
#     Edge 37, Type (0, 0), BuildingBlock: XUDNAN_clean_linker_2, # of connection points: 2
#     Edge 38, Type (0, 0), BuildingBlock: XUDNAN_clean_linker_2, # of connection points: 2
#     Edge 39, Type (0, 0), BuildingBlock: XUDNAN_clean_linker_2, # of connection points: 2
#     Edge 40, Type (0, 0), BuildingBlock: XUDNAN_clean_linker_2, # of connection points: 2
#     Edge 41, Type (0, 0), BuildingBlock: XUDNAN_clean_linker_2, # of connection points: 2
#     Edge 42, Type (0, 0), BuildingBlock: XUDNAN_clean_linker_2, # of connection points: 2
#     Edge 43, Type (0, 0), BuildingBlock: XUDNAN_clean_linker_2, # of connection points: 2
#     Edge 44, Type (0, 0), BuildingBlock: XUDNAN_clean_linker_2, # of connection points: 2
#     Edge 45, Type (0, 0), BuildingBlock: XUDNAN_clean_linker_2, # of connection points: 2
#     Edge 46, Type (0, 0), BuildingBlock: XUDNAN_clean_linker_2, # of connection points: 2
#     Edge 47, Type (0, 0), BuildingBlock: XUDNAN_clean_linker_2, # of connection points: 2
#     Edge 48, Type (0, 0), BuildingBlock: XUDNAN_clean_linker_2, # of connection points: 2
#     Edge 49, Type (0, 0), BuildingBlock: XUDNAN_clean_linker_2, # of connection points: 2
#     Edge 50, Type (0, 0), BuildingBlock: XUDNAN_clean_linker_2, # of connection points: 2
#     Edge 51, Type (0, 0), BuildingBlock: XUDNAN_clean_linker_2, # of connection points: 2
#     Edge 52, Type (0, 0), BuildingBlock: XUDNAN_clean_linker_2, # of connection points: 2
#     Edge 53, Type (0, 0), BuildingBlock: XUDNAN_clean_linker_2, # of connection points: 2
#     Edge 54, Type (0, 0), BuildingBlock: XUDNAN_clean_linker_2, # of connection points: 2
#     Edge 55, Type (0, 0), BuildingBlock: XUDNAN_clean_linker_2, # of connection points: 2
#     Edge 56, Type (0, 0), BuildingBlock: XUDNAN_clean_linker_2, # of connection points: 2
#     Edge 57, Type (0, 0), BuildingBlock: XUDNAN_clean_linker_2, # of connection points: 2
#     Edge 58, Type (0, 0), BuildingBlock: XUDNAN_clean_linker_2, # of connection points: 2
#     Edge 59, Type (0, 0), BuildingBlock: XUDNAN_clean_linker_2, # of connection points: 2
#     Edge 60, Type (0, 0), BuildingBlock: XUDNAN_clean_linker_2, # of connection points: 2
#     Edge 61, Type (0, 0), BuildingBlock: XUDNAN_clean_linker_2, # of connection points: 2
#     Edge 62, Type (0, 0), BuildingBlock: XUDNAN_clean_linker_2, # of connection points: 2
#     Edge 63, Type (0, 0), BuildingBlock: XUDNAN_clean_linker_2, # of connection points: 2
#     Edge 64, Type (0, 0), BuildingBlock: XUDNAN_clean_linker_2, # of connection points: 2
#     Edge 65, Type (0, 0), BuildingBlock: XUDNAN_clean_linker_2, # of connection points: 2
#     Edge 66, Type (0, 0), BuildingBlock: XUDNAN_clean_linker_2, # of connection points: 2
#     Edge 67, Type (0, 0), BuildingBlock: XUDNAN_clean_linker_2, # of connection points: 2
#     Edge 68, Type (0, 0), BuildingBlock: XUDNAN_clean_linker_2, # of connection points: 2
#     Edge 69, Type (0, 0), BuildingBlock: XUDNAN_clean_linker_2, # of connection points: 2
#     Edge 70, Type (0, 0), BuildingBlock: XUDNAN_clean_linker_2, # of connection points: 2
#     Edge 71, Type (0, 0), BuildingBlock: XUDNAN_clean_linker_2, # of connection points: 2
# Relax obj value: 0.100
# Max RMSD: 0.107
# Mean RMSD: 0.107
data_MOF--net-afi--node1-CEKHIL_clean_sbu_0--edge1-XUDNAN_clean_linker_2
_symmetry_space_group_name_H-M    P1
_symmetry_Int_Tables_number       1
_symmetry_cell_setting            triclinic
loop_
_symmetry_equiv_pos_as_xyz
'x, y, z'
_cell_length_a     67.308495
_cell_length_b     67.310085
_cell_length_c     38.902145
_cell_angle_alpha  89.992337
_cell_angle_beta   89.988041
_cell_angle_gamma 119.96427
loop_
_atom_site_label
_atom_site_type_symbol
_atom_site_fract_x
_atom_site_fract_y
_atom_site_fract_z
_atom_type_partial_charge
Co0 Co 0.47534 0.1345 0.20386 0.0
O1 O 0.48707 0.16737 0.20359 0.0
O2 O 0.4516 0.14128 0.21725 0.0
C3 C 0.50575 0.13623 0.23176 0.0
O4 O 0.4569 0.09943 0.21003 0.0
Co5 Co 0.5 0.11119 0.16918 0.0
O6 O 0.47999 0.085 0.19932 0.0
C7 C 0.47318 0.12613 0.12658 0.0
C8 C 0.46688 0.16284 0.21394 0.0
C9 C 0.46139 0.08289 0.21116 0.0
O10 O 0.46628 0.13219 0.15349 0.0
O11 O 0.48727 0.11858 0.12777 0.0
O12 O 0.48961 0.13715 0.24883 0.0
O13 O 0.5038 0.13588 0.19879 0.0
Co14 Co 0.34715 0.47229 0.205 0.0
O15 O 0.32609 0.48397 0.20837 0.0
O16 O 0.31686 0.44807 0.21837 0.0
C17 C 0.37639 0.50164 0.23368 0.0
O18 O 0.36397 0.45389 0.20682 0.0
Co19 Co 0.39427 0.49864 0.16783 0.0
O20 O 0.40106 0.4772 0.19343 0.0
C21 C 0.35114 0.47641 0.12759 0.0
C22 C 0.31054 0.46343 0.21747 0.0
C23 C 0.38498 0.45838 0.20544 0.0
O24 O 0.33957 0.46525 0.1543 0.0
O25 O 0.37239 0.4918 0.12875 0.0
O26 O 0.35969 0.48498 0.25056 0.0
O27 O 0.37398 0.5008 0.20079 0.0
Co28 Co 0.87823 0.33674 0.20763 0.0
O29 O 0.84547 0.31548 0.20691 0.0
O30 O 0.87159 0.30615 0.22065 0.0
C31 C 0.87591 0.36493 0.23595 0.0
O32 O 0.91335 0.35386 0.21395 0.0
Co33 Co 0.90066 0.38495 0.17348 0.0
O34 O 0.92679 0.39132 0.20384 0.0
C35 C 0.88694 0.34361 0.13047 0.0
C36 C 0.85001 0.29983 0.21719 0.0
C37 C 0.92945 0.37508 0.21535 0.0
O38 O 0.88092 0.33045 0.15716 0.0
O39 O 0.89397 0.36513 0.13193 0.0
O40 O 0.87523 0.34792 0.25283 0.0
O41 O 0.87634 0.3635 0.20297 0.0
Co42 Co 0.54235 0.87523 0.19862 0.0
O43 O 0.52525 0.84224 0.19437 0.0
O44 O 0.5581 0.86135 0.22209 0.0
C45 C 0.51143 0.87887 0.2117 0.0
O46 O 0.56422 0.90917 0.21087 0.0
Co47 Co 0.53262 0.90712 0.15188 0.0
O48 O 0.55345 0.93175 0.18342 0.0
C49 C 0.55319 0.88093 0.12319 0.0
C50 C 0.54103 0.84162 0.2127 0.0
C51 C 0.56593 0.92892 0.20524 0.0
O52 O 0.5586 0.87733 0.15348 0.0
O53 O 0.5409 0.89022 0.1179 0.0
O54 O 0.52146 0.87355 0.23566 0.0
O55 O 0.5195 0.88039 0.18126 0.0
Co56 Co 0.67287 0.53804 0.19964 0.0
O57 O 0.68861 0.52091 0.1968 0.0
O58 O 0.70489 0.55661 0.21502 0.0
C59 C 0.64159 0.50937 0.22605 0.0
O60 O 0.66085 0.56059 0.20794 0.0
Co61 Co 0.62591 0.51981 0.16274 0.0
O62 O 0.62371 0.54248 0.19218 0.0
C63 C 0.66902 0.5435 0.1225 0.0
C64 C 0.70653 0.53836 0.20973 0.0
C65 C 0.64099 0.55928 0.2064 0.0
O66 O 0.68133 0.5484 0.15 0.0
O67 O 0.64711 0.53136 0.12244 0.0
O68 O 0.65957 0.52339 0.24368 0.0
O69 O 0.64362 0.51213 0.1932 0.0
Co70 Co 0.13523 0.66955 0.19617 0.0
O71 O 0.1681 0.69103 0.19667 0.0
O72 O 0.14188 0.69752 0.21975 0.0
C73 C 0.13776 0.63803 0.21017 0.0
O74 O 0.10029 0.65219 0.20352 0.0
Co75 Co 0.11063 0.62636 0.14942 0.0
O76 O 0.08441 0.61676 0.18116 0.0
C77 C 0.12642 0.67278 0.12041 0.0
C78 C 0.16341 0.70487 0.2135 0.0
C79 C 0.08311 0.63174 0.1995 0.0
O80 O 0.13227 0.68239 0.15028 0.0
O81 O 0.1189 0.65141 0.11523 0.0
O82 O 0.13884 0.65199 0.23423 0.0
O83 O 0.13639 0.64417 0.1794 0.0
Co84 Co 0.87768 0.5396 0.31503 0.0
O85 O 0.84481 0.52386 0.31956 0.0
O86 O 0.86476 0.55556 0.28943 0.0
C87 C 0.87912 0.50714 0.30457 0.0
O88 O 0.91188 0.55997 0.30251 0.0
Co89 Co 0.90861 0.52912 0.36243 0.0
O90 O 0.93075 0.5431 0.32427 0.0
C91 C 0.88944 0.55767 0.38818 0.0
C92 C 0.84478 0.53918 0.29941 0.0
C93 C 0.92973 0.55752 0.30424 0.0
O94 O 0.88099 0.55784 0.35844 0.0
O95 O 0.89984 0.54655 0.39474 0.0
O96 O 0.87476 0.51731 0.27971 0.0
O97 O 0.88131 0.51616 0.3345 0.0
Co98 Co 0.33811 0.87403 0.30371 0.0
O99 O 0.31713 0.84131 0.30174 0.0
O100 O 0.30805 0.8676 0.28792 0.0
C101 C 0.36773 0.8732 0.27763 0.0
O102 O 0.35557 0.90925 0.30009 0.0
Co103 Co 0.38389 0.89407 0.34453 0.0
O104 O 0.3919 0.92201 0.31723 0.0
C105 C 0.33991 0.87579 0.38165 0.0
C106 C 0.30179 0.84596 0.29041 0.0
C107 C 0.37676 0.92527 0.30277 0.0
O108 O 0.32941 0.87493 0.35349 0.0
O109 O 0.36092 0.88077 0.38277 0.0
O110 O 0.35133 0.8728 0.25945 0.0
O111 O 0.36464 0.87201 0.31043 0.0
Co112 Co 0.46914 0.33551 0.30919 0.0
O113 O 0.48074 0.31423 0.30949 0.0
O114 O 0.44867 0.3078 0.28426 0.0
C115 C 0.50322 0.3672 0.29684 0.0
O116 O 0.45191 0.35313 0.30062 0.0
Co117 Co 0.48643 0.37781 0.3575 0.0
O118 O 0.47222 0.3885 0.32297 0.0
C119 C 0.45453 0.3311 0.38418 0.0
C120 C 0.46288 0.30059 0.29126 0.0
C121 C 0.45624 0.37403 0.30373 0.0
O122 O 0.45204 0.32202 0.35409 0.0
O123 O 0.46805 0.35238 0.39049 0.0
O124 O 0.49096 0.35339 0.27225 0.0
O125 O 0.49523 0.36072 0.32735 0.0
Co126 Co 0.14013 0.46785 0.30447 0.0
O127 O 0.17295 0.47983 0.3031 0.0
O128 O 0.14693 0.44464 0.28806 0.0
C129 C 0.14103 0.49863 0.27924 0.0
O130 O 0.10491 0.44952 0.29983 0.0
Co131 Co 0.11805 0.49158 0.34494 0.0
O132 O 0.09095 0.4722 0.31604 0.0
C133 C 0.13344 0.46332 0.38225 0.0
C134 C 0.1685 0.46001 0.2912 0.0
C135 C 0.08839 0.45403 0.3018 0.0
O136 O 0.1389 0.45746 0.35381 0.0
O137 O 0.12581 0.47731 0.38408 0.0
O138 O 0.14177 0.4829 0.26083 0.0
O139 O 0.14159 0.49625 0.31209 0.0
Co140 Co 0.67666 0.1307 0.314 0.0
O141 O 0.69731 0.16363 0.31096 0.0
O142 O 0.70401 0.13744 0.28839 0.0
C143 C 0.64396 0.13137 0.30172 0.0
O144 O 0.65967 0.09561 0.3092 0.0
Co145 Co 0.63664 0.1081 0.36687 0.0
O146 O 0.62872 0.07881 0.34379 0.0
C147 C 0.68466 0.12974 0.39002 0.0
C148 C 0.71098 0.15902 0.29349 0.0
C149 C 0.6416 0.07776 0.32074 0.0
O150 O 0.69158 0.12976 0.35906 0.0
O151 O 0.66405 0.12435 0.39741 0.0
O152 O 0.65742 0.13233 0.27693 0.0
O153 O 0.65146 0.13164 0.33221 0.0
Co154 Co 0.55013 0.67477 0.31277 0.0
O155 O 0.53202 0.68964 0.31572 0.0
O156 O 0.56474 0.70381 0.28748 0.0
C157 C 0.51963 0.63953 0.30126 0.0
O158 O 0.57289 0.66345 0.30215 0.0
Co159 Co 0.54156 0.63469 0.36212 0.0
O160 O 0.55992 0.6291 0.32779 0.0
C161 C 0.56394 0.68248 0.38765 0.0
C162 C 0.54715 0.70578 0.29635 0.0
C163 C 0.57329 0.64464 0.30695 0.0
O164 O 0.56678 0.69052 0.35681 0.0
O165 O 0.55272 0.66107 0.39484 0.0
O166 O 0.52944 0.65437 0.27664 0.0
O167 O 0.52771 0.64687 0.33151 0.0
Co168 Co 0.55018 0.87566 0.80594 0.0
O169 O 0.53878 0.84294 0.80446 0.0
O170 O 0.57412 0.86951 0.79101 0.0
C171 C 0.51965 0.87437 0.77935 0.0
O172 O 0.56793 0.9108 0.80176 0.0
Co173 Co 0.52473 0.89658 0.84515 0.0
O174 O 0.5445 0.92414 0.81692 0.0
C175 C 0.54954 0.87775 0.88359 0.0
C176 C 0.55898 0.84784 0.7937 0.0
C177 C 0.56294 0.92699 0.80318 0.0
O178 O 0.5595 0.87684 0.85582 0.0
O179 O 0.53371 0.88303 0.88403 0.0
O180 O 0.53577 0.87394 0.76151 0.0
O181 O 0.52158 0.87369 0.81223 0.0
Co182 Co 0.67262 0.53245 0.8028 0.0
O183 O 0.68885 0.51584 0.80757 0.0
O184 O 0.70461 0.55118 0.78778 0.0
C185 C 0.64143 0.50317 0.77724 0.0
O186 O 0.66042 0.55454 0.79231 0.0
Co187 Co 0.62541 0.51535 0.83836 0.0
O188 O 0.62254 0.53512 0.80345 0.0
C189 C 0.66828 0.54012 0.87906 0.0
C190 C 0.70675 0.5334 0.79467 0.0
C191 C 0.6401 0.55202 0.78998 0.0
O192 O 0.68075 0.54395 0.85196 0.0
O193 O 0.64634 0.52835 0.87886 0.0
O194 O 0.6595 0.5167 0.75932 0.0
O195 O 0.64335 0.50671 0.80996 0.0
Co196 Co 0.14222 0.68125 0.80379 0.0
O197 O 0.17516 0.70154 0.80379 0.0
O198 O 0.14994 0.71182 0.78874 0.0
C199 C 0.14305 0.65169 0.77737 0.0
O200 O 0.10708 0.66497 0.79797 0.0
Co201 Co 0.1188 0.63432 0.84151 0.0
O202 O 0.09318 0.62764 0.80983 0.0
C203 C 0.13344 0.67708 0.88115 0.0
C204 C 0.17134 0.71743 0.79233 0.0
C205 C 0.09083 0.6438 0.79718 0.0
O206 O 0.14019 0.6893 0.85353 0.0
O207 O 0.12535 0.65535 0.88162 0.0
O208 O 0.14433 0.66863 0.75955 0.0
O209 O 0.14307 0.65396 0.8103 0.0
Co210 Co 0.47854 0.14032 0.804 0.0
O211 O 0.48885 0.17292 0.80473 0.0
O212 O 0.45402 0.14579 0.79016 0.0
C213 C 0.50987 0.14377 0.77674 0.0
O214 O 0.46153 0.10532 0.79716 0.0
Co215 Co 0.50461 0.11833 0.83849 0.0
O216 O 0.48598 0.0924 0.80706 0.0
C217 C 0.4757 0.13081 0.88095 0.0
C218 C 0.46854 0.16755 0.79379 0.0
C219 C 0.46708 0.08954 0.79528 0.0
O220 O 0.46881 0.13702 0.85419 0.0
O221 O 0.49042 0.12406 0.87973 0.0
O222 O 0.49352 0.14405 0.75935 0.0
O223 O 0.50752 0.143 0.80966 0.0
Co224 Co 0.34642 0.47808 0.80549 0.0
O225 O 0.33099 0.49555 0.8067 0.0
O226 O 0.31436 0.45951 0.79009 0.0
C227 C 0.37816 0.50591 0.77882 0.0
O228 O 0.35831 0.45532 0.79902 0.0
Co229 Co 0.39298 0.49695 0.84431 0.0
O230 O 0.39509 0.47336 0.81684 0.0
C231 C 0.34954 0.47794 0.88305 0.0
C232 C 0.31292 0.47796 0.79439 0.0
C233 C 0.37814 0.45665 0.80182 0.0
O234 O 0.33778 0.46885 0.8555 0.0
O235 O 0.37127 0.49148 0.88301 0.0
O236 O 0.36018 0.49195 0.76109 0.0
O237 O 0.37569 0.50369 0.81166 0.0
Co238 Co 0.88135 0.33877 0.80709 0.0
O239 O 0.84847 0.31802 0.80662 0.0
O240 O 0.87435 0.30807 0.79431 0.0
C241 C 0.88023 0.36744 0.77818 0.0
O242 O 0.91649 0.35516 0.80216 0.0
Co243 Co 0.90432 0.3869 0.84134 0.0
O244 O 0.93016 0.39283 0.81052 0.0
C245 C 0.88916 0.34529 0.88445 0.0
C246 C 0.85282 0.30215 0.79686 0.0
C247 C 0.93263 0.37629 0.79997 0.0
O248 O 0.88302 0.33218 0.85773 0.0
O249 O 0.8969 0.36695 0.88297 0.0
O250 O 0.87944 0.35029 0.7616 0.0
O251 O 0.8801 0.36594 0.81121 0.0
Co252 Co 0.1406 0.47711 0.69441 0.0
O253 O 0.1735 0.49311 0.69048 0.0
O254 O 0.15355 0.46059 0.71866 0.0
C255 C 0.13879 0.50917 0.70728 0.0
O256 O 0.10619 0.4563 0.70571 0.0
Co257 Co 0.11095 0.48975 0.6471 0.0
O258 O 0.08679 0.47178 0.68109 0.0
C259 C 0.13038 0.4619 0.61972 0.0
C260 C 0.17357 0.47734 0.70947 0.0
C261 C 0.08763 0.45731 0.70124 0.0
O262 O 0.13776 0.46017 0.64961 0.0
O263 O 0.12083 0.47391 0.6138 0.0
O264 O 0.14303 0.49841 0.73137 0.0
O265 O 0.13717 0.50106 0.67686 0.0
Co266 Co 0.67918 0.13395 0.69898 0.0
O267 O 0.70045 0.16683 0.69992 0.0
O268 O 0.70657 0.14077 0.72442 0.0
C269 C 0.64732 0.13627 0.71067 0.0
O270 O 0.66171 0.09904 0.70628 0.0
Co271 Co 0.63763 0.10958 0.64923 0.0
O272 O 0.62714 0.08309 0.68093 0.0
C273 C 0.68522 0.12911 0.62335 0.0
C274 C 0.71392 0.16228 0.71804 0.0
C275 C 0.64141 0.08188 0.70109 0.0
O276 O 0.69322 0.1313 0.65414 0.0
O277 O 0.66428 0.12286 0.61671 0.0
O278 O 0.66073 0.13737 0.73564 0.0
O279 O 0.65419 0.13502 0.68035 0.0
Co280 Co 0.55546 0.67503 0.6967 0.0
O281 O 0.54338 0.6958 0.69998 0.0
O282 O 0.5765 0.70253 0.72169 0.0
C283 C 0.52207 0.64272 0.70991 0.0
O284 O 0.57335 0.65772 0.70085 0.0
Co285 Co 0.53668 0.6343 0.64487 0.0
O286 O 0.5544 0.62401 0.67303 0.0
C287 C 0.56338 0.68221 0.62048 0.0
C288 C 0.56184 0.70951 0.71696 0.0
C289 C 0.57025 0.63768 0.69328 0.0
O290 O 0.57065 0.68952 0.65116 0.0
O291 O 0.5482 0.66148 0.61367 0.0
O292 O 0.53496 0.65614 0.73443 0.0
O293 O 0.52903 0.65003 0.67929 0.0
Co294 Co 0.8821 0.54137 0.69424 0.0
O295 O 0.84912 0.52463 0.69162 0.0
O296 O 0.86897 0.55713 0.71993 0.0
C297 C 0.88497 0.50975 0.70575 0.0
O298 O 0.91656 0.5628 0.70456 0.0
Co299 Co 0.91193 0.53055 0.64484 0.0
O300 O 0.936 0.54756 0.67944 0.0
C301 C 0.89126 0.55785 0.61997 0.0
C302 C 0.849 0.54009 0.7113 0.0
C303 C 0.9351 0.5618 0.70003 0.0
O304 O 0.88374 0.55851 0.65025 0.0
O305 O 0.9016 0.54676 0.6128 0.0
O306 O 0.88082 0.52023 0.73038 0.0
O307 O 0.88595 0.51787 0.67544 0.0
Co308 Co 0.34955 0.88164 0.69704 0.0
O309 O 0.32792 0.84885 0.69951 0.0
O310 O 0.32193 0.87578 0.72096 0.0
C311 C 0.38116 0.87937 0.71107 0.0
O312 O 0.36726 0.91672 0.7024 0.0
Co313 Co 0.39181 0.90449 0.64816 0.0
O314 O 0.40199 0.93189 0.67769 0.0
C315 C 0.34452 0.88376 0.62067 0.0
C316 C 0.31434 0.85408 0.71596 0.0
C317 C 0.38763 0.93369 0.69687 0.0
O318 O 0.3362 0.88318 0.65082 0.0
O319 O 0.3655 0.88955 0.61537 0.0
O320 O 0.36758 0.87896 0.73528 0.0
O321 O 0.37454 0.8799 0.68032 0.0
Co322 Co 0.46285 0.33547 0.69426 0.0
O323 O 0.47594 0.31542 0.69428 0.0
O324 O 0.44307 0.30724 0.71858 0.0
C325 C 0.49619 0.36791 0.70746 0.0
O326 O 0.44386 0.35138 0.7024 0.0
Co327 Co 0.47869 0.37811 0.64723 0.0
O328 O 0.46311 0.3873 0.68165 0.0
C329 C 0.44927 0.33121 0.61893 0.0
C330 C 0.45815 0.30107 0.71205 0.0
C331 C 0.44712 0.37192 0.69984 0.0
O332 O 0.44674 0.32184 0.64881 0.0
O333 O 0.46193 0.35274 0.6134 0.0
O334 O 0.48395 0.35373 0.73174 0.0
O335 O 0.48849 0.36156 0.6768 0.0
H336 H 0.46936 0.04925 0.23473 0.0
H337 H 0.41479 0.06501 0.22051 0.0
H338 H 0.38663 0.02627 0.24209 0.0
H339 H 0.43835 0.99077 0.20898 0.0
H340 H 0.45136 0.98137 0.24075 0.0
H341 H 0.46686 0.01024 0.22445 0.0
H342 H 0.47231 0.02615 0.28652 0.0
H343 H 0.45692 0.99732 0.30303 0.0
H344 H 0.44755 0.01743 0.31355 0.0
H345 H 0.36413 0.98418 0.26324 0.0
H346 H 0.35041 0.94488 0.2856 0.0
H347 H 0.42057 0.9585 0.28742 0.0
C348 C 0.45149 0.04464 0.23611 0.0
C349 C 0.4443 0.06019 0.22566 0.0
C350 C 0.42075 0.05345 0.22838 0.0
C351 C 0.40462 0.03143 0.2405 0.0
C352 C 0.41233 0.01644 0.25021 0.0
C353 C 0.43531 0.02296 0.24847 0.0
C354 C 0.4395 1.00406 0.26089 0.0
C355 C 0.44961 0.99615 0.23204 0.0
C356 C 0.45498 0.0117 0.2929 0.0
C357 C 0.41528 0.9857 0.26967 0.0
C358 C 0.39973 0.99296 0.2632 0.0
C359 C 0.37624 0.97846 0.26863 0.0
C360 C 0.36858 0.95612 0.28124 0.0
C361 C 0.38437 0.94858 0.28863 0.0
C362 C 0.40799 0.96371 0.28254 0.0
H363 H 0.46823 0.41758 0.28408 0.0
H364 H 0.41126 0.34771 0.28309 0.0
H365 H 0.3865 0.36131 0.25718 0.0
H366 H 0.43703 0.44532 0.30556 0.0
H367 H 0.45336 0.46966 0.27791 0.0
H368 H 0.46647 0.45424 0.2955 0.0
H369 H 0.47696 0.44753 0.23416 0.0
H370 H 0.464 0.46306 0.21636 0.0
H371 H 0.45475 0.43424 0.20216 0.0
H372 H 0.36732 0.38363 0.23502 0.0
H373 H 0.35662 0.41177 0.21382 0.0
H374 H 0.42706 0.4663 0.22676 0.0
C375 C 0.45056 0.40509 0.27829 0.0
C376 C 0.44163 0.38158 0.28583 0.0
C377 C 0.41849 0.36579 0.27746 0.0
C378 C 0.40429 0.37338 0.26288 0.0
C379 C 0.41359 0.39677 0.25626 0.0
C380 C 0.43633 0.4123 0.26325 0.0
C381 C 0.44237 0.43645 0.25341 0.0
C382 C 0.45027 0.45235 0.28498 0.0
C383 C 0.4606 0.44587 0.22482 0.0
C384 C 0.4194 0.43223 0.24034 0.0
C385 C 0.40293 0.40929 0.24233 0.0
C386 C 0.38019 0.40158 0.23298 0.0
C387 C 0.37424 0.41769 0.22109 0.0
C388 C 0.39101 0.44123 0.21825 0.0
C389 C 0.41386 0.44842 0.22807 0.0
H390 H 0.96143 0.41657 0.24112 0.0
H391 H 0.9496 0.34807 0.2216 0.0
H392 H 0.98915 0.36033 0.24148 0.0
H393 H 0.0191 0.44746 0.21332 0.0
H394 H 0.02794 0.46904 0.24631 0.0
H395 H 0.99872 0.45449 0.23145 0.0
H396 H 0.98431 0.442 0.29383 0.0
H397 H 0.0135 0.45667 0.30894 0.0
H398 H 0.99506 0.42669 0.31849 0.0
H399 H 0.03175 0.38173 0.26108 0.0
H400 H 0.071 0.4087 0.28225 0.0
H401 H 0.05308 0.46217 0.28978 0.0
C402 C 0.96705 0.40404 0.24107 0.0
C403 C 0.95241 0.38136 0.22956 0.0
C404 C 0.96046 0.36552 0.23038 0.0
C405 C 0.98294 0.37238 0.24149 0.0
C406 C 0.99705 0.39506 0.25213 0.0
C407 C 0.98919 0.4105 0.25237 0.0
C408 C 1.00735 0.4338 0.2652 0.0
C409 C 0.01364 0.45228 0.23741 0.0
C410 C 0.99959 0.44015 0.2986 0.0
C411 C 0.0269 0.42929 0.27173 0.0
C412 C 0.02082 0.40692 0.264 0.0
C413 C 0.03654 0.39921 0.26743 0.0
C414 C 0.05885 0.41468 0.27935 0.0
C415 C 0.06521 0.43758 0.28796 0.0
C416 C 0.04887 0.44478 0.28383 0.0
H417 H 0.5836 0.9742 0.18844 0.0
H418 H 0.5844 0.92991 0.26881 0.0
H419 H 0.607 0.96392 0.30569 0.0
H420 H 0.64204 0.02296 0.20464 0.0
H421 H 0.63351 0.04384 0.19508 0.0
H422 H 0.61942 0.01628 0.1741 0.0
H423 H 0.58012 0.0096 0.19559 0.0
H424 H 0.59405 0.03701 0.21677 0.0
H425 H 0.57576 0.01142 0.24095 0.0
H426 H 0.62469 1.00225 0.33652 0.0
H427 H 0.63889 0.042 0.35687 0.0
H428 H 0.62877 0.0616 0.25521 0.0
C429 C 0.58887 0.97163 0.21357 0.0
C430 C 0.58219 0.94931 0.22572 0.0
C431 C 0.58945 0.94679 0.25879 0.0
C432 C 0.60224 0.96603 0.27996 0.0
C433 C 0.60799 0.98772 0.26746 0.0
C434 C 0.60186 0.99063 0.23476 0.0
C435 C 0.60935 0.01559 0.22781 0.0
C436 C 0.62714 0.02523 0.19868 0.0
C437 C 0.58858 0.01857 0.21982 0.0
C438 C 0.62007 0.02626 0.26207 0.0
C439 C 0.61909 0.00989 0.28464 0.0
C440 C 0.62605 0.01527 0.31879 0.0
C441 C 0.63405 0.03783 0.33015 0.0
C442 C 0.63539 0.05484 0.30736 0.0
C443 C 0.62856 0.04902 0.27281 0.0
H444 H 0.56267 0.61181 0.25917 0.0
H445 H 0.62001 0.66572 0.31444 0.0
H446 H 0.64536 0.65164 0.2919 0.0
H447 H 0.57442 0.56871 0.27458 0.0
H448 H 0.56587 0.55534 0.23294 0.0
H449 H 0.55347 0.57162 0.24955 0.0
H450 H 0.56653 0.59741 0.19528 0.0
H451 H 0.5787 0.58095 0.17816 0.0
H452 H 0.59626 0.6116 0.18261 0.0
H453 H 0.66301 0.62765 0.26809 0.0
H454 H 0.67124 0.59854 0.24299 0.0
H455 H 0.60177 0.56174 0.20306 0.0
C456 C 0.58076 0.62113 0.26547 0.0
C457 C 0.58958 0.6401 0.28785 0.0
C458 C 0.61314 0.6515 0.29654 0.0
C459 C 0.62757 0.64349 0.28404 0.0
C460 C 0.61817 0.62424 0.26261 0.0
C461 C 0.59533 0.61355 0.25292 0.0
C462 C 0.58886 0.59258 0.23115 0.0
C463 C 0.56952 0.57079 0.24809 0.0
C464 C 0.5822 0.59584 0.19463 0.0
C465 C 0.61128 0.59249 0.23112 0.0
C466 C 0.62816 0.61088 0.24907 0.0
C467 C 0.64994 0.6134 0.25356 0.0
C468 C 0.65448 0.59674 0.23929 0.0
C469 C 0.63726 0.57774 0.22091 0.0
C470 C 0.61551 0.57596 0.21678 0.0
H471 H 0.04849 0.58878 0.21623 0.0
H472 H 0.06669 0.66032 0.21839 0.0
H473 H 0.02819 0.64913 0.24167 0.0
H474 H 0.98925 0.56487 0.1925 0.0
H475 H 0.97954 0.54015 0.21993 0.0
H476 H 1.00809 0.55381 0.20228 0.0
H477 H 0.02516 0.55912 0.26354 0.0
H478 H 0.99667 0.54523 0.28132 0.0
H479 H 0.01768 0.57349 0.2958 0.0
H480 H 0.98651 0.62928 0.26371 0.0
H481 H 0.94824 0.60346 0.28938 0.0
H482 H 0.95909 0.54572 0.27525 0.0
C483 C 0.0444 0.60213 0.22147 0.0
C484 C 0.06057 0.62543 0.21522 0.0
C485 C 0.0546 0.64236 0.223 0.0
C486 C 0.03271 0.63614 0.23601 0.0
C487 C 0.01707 0.61294 0.24148 0.0
C488 C 0.02285 0.59627 0.23492 0.0
C489 C 1.00357 0.57266 0.24463 0.0
C490 C 0.99459 0.55695 0.21294 0.0
C491 C 0.01123 0.56201 0.27301 0.0
C492 C 0.986 0.57857 0.25784 0.0
C493 C 0.99383 0.60181 0.25533 0.0
C494 C 0.98029 0.61108 0.26587 0.0
C495 C 0.95852 0.5963 0.28016 0.0
C496 C 0.95075 0.57264 0.28431 0.0
C497 C 0.96462 0.56376 0.27247 0.0
H498 H 0.55271 0.95903 0.77904 0.0
H499 H 0.60962 0.94686 0.7939 0.0
H500 H 0.63628 0.98561 0.77088 0.0
H501 H 0.57255 0.98882 0.69865 0.0
H502 H 0.56217 0.00836 0.70741 0.0
H503 H 0.54799 0.98012 0.72614 0.0
H504 H 0.55364 0.99801 0.78684 0.0
H505 H 0.56793 0.02631 0.7683 0.0
H506 H 0.58207 0.01885 0.80094 0.0
H507 H 0.65691 0.02684 0.74802 0.0
H508 H 0.66899 0.06484 0.72208 0.0
H509 H 0.59798 0.04846 0.71883 0.0
C510 C 0.5708 0.96452 0.77764 0.0
C511 C 0.57911 0.94996 0.78863 0.0
C512 C 0.60286 0.9577 0.7857 0.0
C513 C 0.61813 0.97972 0.77278 0.0
C514 C 0.60935 0.99369 0.76239 0.0
C515 C 0.58616 0.98622 0.76427 0.0
C516 C 0.58085 1.00405 0.7502 0.0
C517 C 0.56495 0.99478 0.71873 0.0
C518 C 0.57051 0.01229 0.77825 0.0
C519 C 0.60466 0.02282 0.74015 0.0
C520 C 0.62095 0.0167 0.74779 0.0
C521 C 0.64423 0.03167 0.7417 0.0
C522 C 0.65096 0.05326 0.72709 0.0
C523 C 0.63444 0.05957 0.71815 0.0
C524 C 0.61101 0.04406 0.72497 0.0
H525 H 0.60227 0.54425 0.75437 0.0
H526 H 0.66873 0.59908 0.78724 0.0
H527 H 0.6588 0.62771 0.76513 0.0
H528 H 0.5987 0.57201 0.67552 0.0
H529 H 0.5682 0.56028 0.68005 0.0
H530 H 0.58154 0.54479 0.69661 0.0
H531 H 0.56431 0.54354 0.7567 0.0
H532 H 0.55118 0.55928 0.74048 0.0
H533 H 0.57011 0.56998 0.77703 0.0
H534 H 0.63905 0.6502 0.74398 0.0
H535 H 0.61373 0.66394 0.72059 0.0
H536 H 0.56133 0.59358 0.70019 0.0
C537 C 0.61492 0.56229 0.7565 0.0
C538 C 0.63628 0.56947 0.77257 0.0
C539 C 0.65236 0.59321 0.77474 0.0
C540 C 0.64676 0.60956 0.76246 0.0
C541 C 0.62519 0.60182 0.74761 0.0
C542 C 0.60975 0.57867 0.74407 0.0
C543 C 0.58761 0.57448 0.72761 0.0
C544 C 0.5838 0.56217 0.69288 0.0
C545 C 0.5671 0.56103 0.75191 0.0
C546 C 0.59271 0.59888 0.72287 0.0
C547 C 0.61437 0.61451 0.73467 0.0
C548 C 0.62221 0.63805 0.73425 0.0
C549 C 0.60766 0.6457 0.72109 0.0
C550 C 0.5856 0.62989 0.7082 0.0
C551 C 0.5782 0.6062 0.7093 0.0
H552 H 0.97282 0.55724 0.708 0.0
H553 H 0.94701 0.60313 0.73239 0.0
H554 H 0.98478 0.63057 0.7581 0.0
H555 H 1.00562 0.56654 0.78429 0.0
H556 H 0.02817 0.56459 0.76233 0.0
H557 H 0.99932 0.54932 0.74601 0.0
H558 H 0.01377 0.56931 0.68697 0.0
H559 H 0.04266 0.58484 0.70323 0.0
H560 H 0.02965 0.60019 0.68483 0.0
H561 H 0.02724 0.65374 0.7795 0.0
H562 H 0.0672 0.66761 0.79934 0.0
H563 H 0.06298 0.60506 0.76161 0.0
C564 C 0.97494 0.57304 0.7187 0.0
C565 C 0.95687 0.57803 0.71792 0.0
C566 C 0.96052 0.59885 0.73269 0.0
C567 C 0.98199 0.61459 0.74716 0.0
C568 C 0.99955 0.60919 0.74685 0.0
C569 C 0.99601 0.58871 0.73326 0.0
C570 C 0.01713 0.58636 0.7364 0.0
C571 C 0.01227 0.56547 0.75859 0.0
C572 C 0.02634 0.58511 0.70074 0.0
C573 C 0.03323 0.60861 0.7543 0.0
C574 C 0.02309 0.62185 0.75974 0.0
C575 C 0.03519 0.64338 0.77544 0.0
C576 C 0.05792 0.65121 0.78643 0.0
C577 C 0.06812 0.63737 0.78215 0.0
C578 C 0.05558 0.61597 0.76549 0.0
H579 H 0.47727 0.05849 0.76698 0.0
H580 H 0.42009 0.06907 0.78944 0.0
H581 H 0.39318 0.03017 0.76718 0.0
H582 H 0.45432 0.02773 0.6873 0.0
H583 H 0.46581 0.00894 0.69424 0.0
H584 H 0.4802 0.03745 0.71202 0.0
H585 H 0.47789 0.02054 0.77271 0.0
H586 H 0.46338 0.99198 0.75516 0.0
H587 H 0.45039 0.99942 0.78962 0.0
H588 H 0.37241 0.98869 0.74504 0.0
H589 H 0.36011 0.95035 0.72022 0.0
H590 H 0.43137 0.96843 0.70974 0.0
C591 C 0.45908 0.05268 0.76722 0.0
C592 C 0.45078 0.0668 0.78021 0.0
C593 C 0.42687 0.0586 0.77958 0.0
C594 C 0.41145 0.03648 0.76712 0.0
C595 C 0.42024 0.0229 0.75489 0.0
C596 C 0.44356 0.03088 0.75442 0.0
C597 C 0.44881 0.01327 0.73928 0.0
C598 C 0.46313 0.02239 0.70625 0.0
C599 C 0.46082 1.00587 0.76578 0.0
C600 C 0.4248 0.99396 0.73157 0.0
C601 C 0.40849 0.99969 0.74099 0.0
C602 C 0.38509 0.98416 0.73728 0.0
C603 C 0.37824 0.96238 0.72329 0.0
C604 C 0.39474 0.9564 0.71273 0.0
C605 C 0.4183 0.97251 0.7171 0.0
H606 H 0.41848 0.45621 0.80187 0.0
H607 H 0.3479 0.41645 0.76726 0.0
H608 H 0.35686 0.38815 0.74106 0.0
H609 H 0.4442 0.44998 0.72814 0.0
H610 H 0.46665 0.44836 0.75096 0.0
H611 H 0.45383 0.4638 0.76933 0.0
H612 H 0.4437 0.4389 0.82442 0.0
H613 H 0.45648 0.42332 0.80614 0.0
H614 H 0.42719 0.40811 0.82091 0.0
H615 H 0.37486 0.36451 0.71722 0.0
H616 H 0.40023 0.35048 0.6946 0.0
H617 H 0.45872 0.4078 0.74279 0.0
C618 C 0.40466 0.44148 0.78917 0.0
C619 C 0.38236 0.43861 0.78691 0.0
C620 C 0.36508 0.41906 0.76959 0.0
C621 C 0.37002 0.40286 0.7547 0.0
C622 C 0.39232 0.40644 0.75734 0.0
C623 C 0.40931 0.4254 0.77413 0.0
C624 C 0.43224 0.42637 0.77208 0.0
C625 C 0.45028 0.44843 0.75404 0.0
C626 C 0.44037 0.42403 0.80802 0.0
C627 C 0.42584 0.40537 0.7505 0.0
C628 C 0.40265 0.39366 0.74286 0.0
C629 C 0.39299 0.37359 0.7232 0.0
C630 C 0.40745 0.36567 0.71061 0.0
C631 C 0.43134 0.37807 0.71711 0.0
C632 C 0.44049 0.398 0.73755 0.0
H633 H 0.0469 0.45683 0.69837 0.0
H634 H 0.07847 0.42055 0.74421 0.0
H635 H 0.04129 0.39367 0.77204 0.0
H636 H 0.01326 0.45412 0.76904 0.0
H637 H 0.98945 0.45041 0.74312 0.0
H638 H 0.01807 0.4655 0.72597 0.0
H639 H 1.00506 0.43757 0.67414 0.0
H640 H 0.97638 0.42228 0.69128 0.0
H641 H 0.9915 0.40713 0.68176 0.0
H642 H 0.99924 0.37056 0.79498 0.0
H643 H 0.9591 0.35656 0.81409 0.0
H644 H 0.9574 0.40984 0.75401 0.0
C645 C 0.04622 0.44324 0.7141 0.0
C646 C 0.06579 0.44087 0.71892 0.0
C647 C 0.0638 0.42278 0.74001 0.0
C648 C 0.0427 0.40737 0.75581 0.0
C649 C 0.02375 0.41027 0.75022 0.0
C650 C 0.02552 0.42792 0.72992 0.0
C651 C 1.00321 0.42818 0.72849 0.0
C652 C 1.00618 0.45089 0.74251 0.0
C653 C 0.99347 0.42351 0.69174 0.0
C654 C 0.98858 0.40832 0.75202 0.0
C655 C 1.0004 0.39776 0.76383 0.0
C656 C 0.98995 0.37879 0.7858 0.0
C657 C 0.96713 0.37085 0.79638 0.0
C658 C 0.95527 0.38218 0.78551 0.0
C659 C 0.96614 0.40093 0.76277 0.0
H660 H 0.49728 0.20718 0.23341 0.0
H661 H 0.42495 0.16005 0.21585 0.0
H662 H 0.41615 0.19029 0.23266 0.0
H663 H 0.4893 0.23291 0.30908 0.0
H664 H 0.51271 0.26124 0.29975 0.0
H665 H 0.5135 0.23641 0.28433 0.0
H666 H 0.51904 0.25189 0.22203 0.0
H667 H 0.51834 0.2768 0.23727 0.0
H668 H 0.4987 0.25908 0.20422 0.0
H669 H 0.41534 0.22605 0.25051 0.0
H670 H 0.42222 0.26361 0.27168 0.0
H671 H 0.49471 0.28669 0.28195 0.0
C672 C 0.47962 0.20332 0.23274 0.0
C673 C 0.46179 0.18131 0.22293 0.0
C674 C 0.43887 0.17679 0.22312 0.0
C675 C 0.43372 0.19388 0.23259 0.0
C676 C 0.45165 0.21535 0.24236 0.0
C677 C 0.47413 0.22006 0.24282 0.0
C678 C 0.49007 0.24418 0.25595 0.0
C679 C 0.5021 0.24364 0.28926 0.0
C680 C 0.50757 0.25885 0.22821 0.0
C681 C 0.47307 0.25233 0.26271 0.0
C682 C 0.45104 0.23552 0.25431 0.0
C683 C 0.43251 0.23926 0.25739 0.0
C684 C 0.43658 0.26067 0.26939 0.0
C685 C 0.45894 0.27802 0.27875 0.0
C686 C 0.47738 0.27367 0.27542 0.0
H687 H 0.2137 0.49158 0.27911 0.0
H688 H 0.16543 0.41844 0.27858 0.0
H689 H 0.1964 0.4112 0.25981 0.0
H690 H 0.24419 0.49194 0.20301 0.0
H691 H 0.27173 0.51374 0.21876 0.0
H692 H 0.24598 0.51304 0.2333 0.0
H693 H 0.25706 0.51124 0.29653 0.0
H694 H 0.28288 0.512 0.28219 0.0
H695 H 0.26295 0.48896 0.30944 0.0
H696 H 0.23324 0.41206 0.24203 0.0
H697 H 0.27219 0.42102 0.22441 0.0
H698 H 0.29577 0.49368 0.23362 0.0
C699 C 0.20966 0.47401 0.27528 0.0
C700 C 0.18714 0.45554 0.28059 0.0
C701 C 0.18254 0.43285 0.27478 0.0
C702 C 0.20004 0.42858 0.26413 0.0
C703 C 0.22203 0.44719 0.259 0.0
C704 C 0.22684 0.46948 0.26418 0.0
C705 C 0.25171 0.48649 0.25591 0.0
C706 C 0.2535 0.50223 0.22596 0.0
C707 C 0.2644 0.5005 0.28793 0.0
C708 C 0.26023 0.47034 0.24545 0.0
C709 C 0.2429 0.44772 0.24762 0.0
C710 C 0.24686 0.42972 0.24006 0.0
C711 C 0.26906 0.43497 0.23009 0.0
C712 C 0.28701 0.45804 0.22737 0.0
C713 C 0.28238 0.47588 0.23507 0.0
H714 H 0.72531 0.20478 0.28331 0.0
H715 H 0.74765 0.15472 0.27392 0.0
H716 H 0.78548 0.18505 0.25309 0.0
H717 H 0.75369 0.23635 0.20597 0.0
H718 H 0.76097 0.26385 0.22394 0.0
H719 H 0.73583 0.23831 0.23879 0.0
H720 H 0.75081 0.24774 0.30138 0.0
H721 H 0.77598 0.2733 0.28672 0.0
H722 H 0.77892 0.25224 0.31137 0.0
H723 H 0.82175 0.22146 0.23584 0.0
H724 H 0.85246 0.26042 0.21955 0.0
H725 H 0.80571 0.28627 0.23601 0.0
C726 C 0.73818 0.20023 0.27691 0.0
C727 C 0.73354 0.17736 0.28045 0.0
C728 C 0.75078 0.17208 0.27142 0.0
C729 C 0.77235 0.18922 0.25963 0.0
C730 C 0.7764 0.21158 0.25645 0.0
C731 C 0.7597 0.21707 0.26446 0.0
C732 C 0.76826 0.24231 0.25789 0.0
C733 C 0.75383 0.24538 0.22998 0.0
C734 C 0.7685 0.25462 0.29133 0.0
C735 C 0.79242 0.2502 0.24527 0.0
C736 C 0.79687 0.23225 0.24493 0.0
C737 C 0.81835 0.23557 0.23565 0.0
C738 C 0.83571 0.25776 0.22648 0.0
C739 C 0.83143 0.27632 0.22609 0.0
C740 C 0.80941 0.27235 0.23548 0.0
H741 H 0.57472 0.83171 0.23397 0.0
H742 H 0.50149 0.8009 0.21653 0.0
H743 H 0.49574 0.7636 0.23593 0.0
H744 H 0.57844 0.78231 0.20345 0.0
H745 H 0.59964 0.78555 0.23468 0.0
H746 H 0.59836 0.81032 0.22017 0.0
H747 H 0.5943 0.8202 0.28313 0.0
H748 H 0.59553 0.79545 0.29783 0.0
H749 H 0.57156 0.79898 0.3095 0.0
H750 H 0.49711 0.73029 0.25991 0.0
H751 H 0.50591 0.70133 0.28225 0.0
H752 H 0.5786 0.75139 0.28035 0.0
C753 C 0.55752 0.81708 0.23427 0.0
C754 C 0.53852 0.81931 0.22382 0.0
C755 C 0.51631 0.79969 0.22427 0.0
C756 C 0.51284 0.77839 0.23538 0.0
C757 C 0.53179 0.77672 0.24553 0.0
C758 C 0.55375 0.79537 0.24468 0.0
C759 C 0.57106 0.78837 0.25608 0.0
C760 C 0.58787 0.79184 0.22685 0.0
C761 C 0.58387 0.80154 0.28857 0.0
C762 C 0.5553 0.76298 0.26373 0.0
C763 C 0.53271 0.75686 0.25779 0.0
C764 C 0.51475 0.7348 0.26432 0.0
C765 C 0.51993 0.71847 0.27714 0.0
C766 C 0.54291 0.724 0.28284 0.0
C767 C 0.56089 0.74659 0.27582 0.0
H768 H 0.75182 0.57196 0.22633 0.0
H769 H 0.70556 0.49834 0.22023 0.0
H770 H 0.73569 0.49158 0.24223 0.0
H771 H 0.80287 0.56937 0.19877 0.0
H772 H 0.82225 0.59201 0.22703 0.0
H773 H 0.79705 0.59181 0.21092 0.0
H774 H 0.7844 0.59331 0.27323 0.0
H775 H 0.80951 0.59342 0.28953 0.0
H776 H 0.78141 0.57179 0.3037 0.0
H777 H 0.76879 0.49175 0.26796 0.0
H778 H 0.80575 0.49895 0.29096 0.0
H779 H 0.83382 0.57222 0.27739 0.0
C780 C 0.74817 0.55447 0.22951 0.0
C781 C 0.72616 0.5357 0.22148 0.0
C782 C 0.72216 0.51307 0.2259 0.0
C783 C 0.73918 0.50897 0.23859 0.0
C784 C 0.76049 0.52763 0.24641 0.0
C785 C 0.76535 0.54996 0.24164 0.0
C786 C 0.79022 0.56663 0.25148 0.0
C787 C 0.80391 0.58079 0.22018 0.0
C788 C 0.79145 0.58221 0.28126 0.0
C789 C 0.79823 0.55006 0.26285 0.0
C790 C 0.78052 0.52769 0.25994 0.0
C791 C 0.7829 0.50917 0.27003 0.0
C792 C 0.80399 0.51347 0.28326 0.0
C793 C 0.82275 0.5361 0.2859 0.0
C794 C 0.81985 0.55471 0.27537 0.0
H795 H 0.20887 0.71964 0.22724 0.0
H796 H 0.1588 0.74226 0.22601 0.0
H797 H 0.18861 0.78085 0.24503 0.0
H798 H 0.2376 0.7506 0.30453 0.0
H799 H 0.26568 0.75718 0.29007 0.0
H800 H 0.24065 0.73163 0.27505 0.0
H801 H 0.25256 0.74448 0.21201 0.0
H802 H 0.27764 0.77005 0.22684 0.0
H803 H 0.25769 0.77225 0.19838 0.0
H804 H 0.22448 0.81763 0.26247 0.0
H805 H 0.26276 0.84863 0.28091 0.0
H806 H 0.28874 0.80132 0.27493 0.0
C807 C 0.20424 0.73277 0.23079 0.0
C808 C 0.18154 0.72799 0.22485 0.0
C809 C 0.17607 0.74553 0.23037 0.0
C810 C 0.19291 0.76753 0.2411 0.0
C811 C 0.21512 0.7717 0.24684 0.0
C812 C 0.22076 0.75472 0.24226 0.0
C813 C 0.24566 0.76341 0.25158 0.0
C814 C 0.24749 0.7499 0.28212 0.0
C815 C 0.25918 0.7625 0.22034 0.0
C816 C 0.25322 0.78797 0.26164 0.0
C817 C 0.23541 0.79248 0.25847 0.0
C818 C 0.23849 0.81421 0.26532 0.0
C819 C 0.2603 0.83174 0.27574 0.0
C820 C 0.2787 0.8274 0.27969 0.0
C821 C 0.27496 0.80514 0.27259 0.0
H822 H 0.53027 0.72339 0.72826 0.0
H823 H 0.60294 0.74659 0.73516 0.0
H824 H 0.61026 0.78448 0.75557 0.0
H825 H 0.53513 0.77632 0.69972 0.0
H826 H 0.5114 0.77328 0.7252 0.0
H827 H 0.51197 0.74817 0.71067 0.0
H828 H 0.50766 0.73383 0.77351 0.0
H829 H 0.50706 0.7589 0.78823 0.0
H830 H 0.52785 0.75218 0.80555 0.0
H831 H 0.60977 0.82066 0.7727 0.0
H832 H 0.60114 0.85106 0.78943 0.0
H833 H 0.52855 0.80341 0.77535 0.0
C834 C 0.54773 0.73646 0.73402 0.0
C835 C 0.56608 0.73207 0.7299 0.0
C836 C 0.58863 0.74955 0.73812 0.0
C837 C 0.59295 0.77115 0.74966 0.0
C838 C 0.5745 0.77495 0.75338 0.0
C839 C 0.55229 0.75799 0.7462 0.0
C840 C 0.53543 0.76626 0.75327 0.0
C841 C 0.52274 0.76599 0.72025 0.0
C842 C 0.5185 0.75194 0.78184 0.0
C843 C 0.55162 0.79058 0.7652 0.0
C844 C 0.57412 0.79535 0.76479 0.0
C845 C 0.59219 0.81702 0.77345 0.0
C846 C 0.58715 0.8342 0.78286 0.0
C847 C 0.56419 0.82956 0.78405 0.0
C848 C 0.54626 0.80739 0.77519 0.0
H849 H 0.75052 0.56783 0.77377 0.0
H850 H 0.7097 0.49481 0.79488 0.0
H851 H 0.74172 0.48964 0.77712 0.0
H852 H 0.77971 0.5636 0.69942 0.0
H853 H 0.80721 0.58808 0.70951 0.0
H854 H 0.7813 0.58684 0.7246 0.0
H855 H 0.79627 0.59261 0.78714 0.0
H856 H 0.82228 0.59395 0.77223 0.0
H857 H 0.80507 0.57342 0.80472 0.0
H858 H 0.77597 0.49095 0.75325 0.0
H859 H 0.81313 0.49941 0.72917 0.0
H860 H 0.83501 0.57196 0.72653 0.0
C861 C 0.74847 0.55083 0.7749 0.0
C862 C 0.72742 0.53172 0.78576 0.0
C863 C 0.72551 0.50977 0.78685 0.0
C864 C 0.74364 0.50659 0.77669 0.0
C865 C 0.76394 0.52555 0.76586 0.0
C866 C 0.76676 0.54733 0.7653 0.0
C867 C 0.7908 0.56459 0.75268 0.0
C868 C 0.78968 0.57648 0.71958 0.0
C869 C 0.80441 0.58219 0.78088 0.0
C870 C 0.80069 0.54894 0.74572 0.0
C871 C 0.78464 0.52647 0.75336 0.0
C872 C 0.78882 0.50849 0.74759 0.0
C873 C 0.80998 0.51348 0.73373 0.0
C874 C 0.82704 0.53631 0.72617 0.0
C875 C 0.8224 0.55437 0.73252 0.0
H876 H 0.29815 0.80804 0.72755 0.0
H877 H 0.27824 0.86012 0.73215 0.0
H878 H 0.2396 0.83104 0.75202 0.0
H879 H 0.24398 0.76131 0.69879 0.0
H880 H 0.24562 0.74011 0.72506 0.0
H881 H 0.27153 0.7649 0.71036 0.0
H882 H 0.2857 0.77492 0.77325 0.0
H883 H 0.25983 0.75017 0.78814 0.0
H884 H 0.26787 0.77821 0.80469 0.0
H885 H 0.20239 0.79575 0.76931 0.0
H886 H 0.17055 0.75763 0.78663 0.0
H887 H 0.21536 0.72903 0.77492 0.0
C888 C 0.28562 0.81328 0.73262 0.0
C889 C 0.2912 0.83637 0.72807 0.0
C890 C 0.2744 0.84258 0.73544 0.0
C891 C 0.25236 0.82615 0.74668 0.0
C892 C 0.2474 0.80356 0.75096 0.0
C893 C 0.26363 0.79715 0.74452 0.0
C894 C 0.25409 0.77187 0.75225 0.0
C895 C 0.25379 0.75878 0.71967 0.0
C896 C 0.26768 0.76861 0.78131 0.0
C897 C 0.22995 0.76505 0.76376 0.0
C898 C 0.22635 0.78352 0.76251 0.0
C899 C 0.2051 0.78122 0.7707 0.0
C900 C 0.1871 0.7595 0.78047 0.0
C901 C 0.19051 0.74041 0.7825 0.0
C902 C 0.2123 0.74336 0.77413 0.0
H903 H 0.49147 0.28928 0.72284 0.0
H904 H 0.41822 0.2629 0.73068 0.0
H905 H 0.41293 0.22612 0.75271 0.0
H906 H 0.48906 0.23658 0.69719 0.0
H907 H 0.51344 0.24146 0.72271 0.0
H908 H 0.51139 0.26545 0.70654 0.0
H909 H 0.51561 0.28121 0.76845 0.0
H910 H 0.51759 0.25723 0.78483 0.0
H911 H 0.4961 0.26317 0.80142 0.0
H912 H 0.41542 0.19157 0.77202 0.0
H913 H 0.42578 0.16272 0.79037 0.0
H914 H 0.49769 0.21226 0.7743 0.0
C915 C 0.47431 0.2757 0.72899 0.0
C916 C 0.45521 0.27891 0.72475 0.0
C917 C 0.43309 0.26084 0.73364 0.0
C918 C 0.42991 0.23986 0.74615 0.0
C919 C 0.44907 0.23726 0.75019 0.0
C920 C 0.47088 0.25475 0.74219 0.0
C921 C 0.48865 0.24774 0.75002 0.0
C922 C 0.50138 0.24781 0.71715 0.0
C923 C 0.50548 0.26326 0.77784 0.0
C924 C 0.47341 0.22352 0.76336 0.0
C925 C 0.45061 0.21775 0.76295 0.0
C926 C 0.43323 0.196 0.77276 0.0
C927 C 0.43928 0.1797 0.78314 0.0
C928 C 0.46253 0.18529 0.78419 0.0
C929 C 0.47978 0.20759 0.77435 0.0
H930 H 0.18464 0.44411 0.73073 0.0
H931 H 0.2128 0.51742 0.71734 0.0
H932 H 0.25004 0.52448 0.73868 0.0
H933 H 0.21675 0.44719 0.80811 0.0
H934 H 0.22212 0.42453 0.79554 0.0
H935 H 0.19683 0.42453 0.78034 0.0
H936 H 0.20843 0.42273 0.71751 0.0
H937 H 0.23374 0.42269 0.73252 0.0
H938 H 0.23633 0.44414 0.70226 0.0
H939 H 0.28353 0.52464 0.76236 0.0
H940 H 0.31392 0.51791 0.78319 0.0
H941 H 0.26733 0.44428 0.77889 0.0
C942 C 0.19868 0.4616 0.73247 0.0
C943 C 0.1957 0.48025 0.72239 0.0
C944 C 0.21457 0.50285 0.72467 0.0
C945 C 0.23584 0.50709 0.73694 0.0
C946 C 0.23831 0.48854 0.74652 0.0
C947 C 0.22049 0.4662 0.74413 0.0
C948 C 0.22864 0.44962 0.75501 0.0
C949 C 0.21529 0.43564 0.78664 0.0
C950 C 0.22667 0.43386 0.72503 0.0
C951 C 0.25371 0.46627 0.76393 0.0
C952 C 0.25855 0.48859 0.7591 0.0
C953 C 0.28003 0.50725 0.76609 0.0
C954 C 0.29722 0.50317 0.7781 0.0
C955 C 0.29319 0.48056 0.78277 0.0
C956 C 0.27102 0.46176 0.77549 0.0
H957 H 0.80896 0.28921 0.77629 0.0
H958 H 0.8547 0.26246 0.79533 0.0
H959 H 0.82399 0.22374 0.77819 0.0
H960 H 0.75629 0.23965 0.80487 0.0
H961 H 0.73909 0.24203 0.77136 0.0
H962 H 0.76425 0.26731 0.78677 0.0
H963 H 0.78022 0.27681 0.72469 0.0
H964 H 0.75515 0.25153 0.7091 0.0
H965 H 0.78328 0.2557 0.70037 0.0
H966 H 0.7879 0.1877 0.75995 0.0
H967 H 0.75019 0.15762 0.73843 0.0
H968 H 0.72871 0.20824 0.72711 0.0
C969 C 0.81242 0.27514 0.77719 0.0
C970 C 0.83417 0.27879 0.78754 0.0
C971 C 0.83817 0.26004 0.78765 0.0
C972 C 0.82081 0.23799 0.778 0.0
C973 C 0.79961 0.23499 0.76775 0.0
C974 C 0.79542 0.2531 0.76696 0.0
C975 C 0.77151 0.24548 0.7534 0.0
C976 C 0.75693 0.24881 0.78073 0.0
C977 C 0.77262 0.25813 0.7199 0.0
C978 C 0.76284 0.22022 0.74685 0.0
C979 C 0.77924 0.21449 0.75565 0.0
C980 C 0.775 0.19205 0.75278 0.0
C981 C 0.7535 0.17506 0.74057 0.0
C982 C 0.73654 0.18058 0.73085 0.0
C983 C 0.7414 0.20353 0.73397 0.0
H984 H 0.46368 0.09638 0.07443 0.0
H985 H 0.46526 0.15973 0.10017 0.0
H986 H 0.45929 0.16517 0.03855 0.0
H987 H 0.49624 0.11529 0.00344 0.0
H988 H 0.48114 0.08909 0.97911 0.0
H989 H 0.48053 0.08809 0.02519 0.0
H990 H 0.43606 0.06658 0.02434 0.0
H991 H 0.43652 0.06739 0.97802 0.0
H992 H 0.42138 0.0788 1.00157 0.0
H993 H 0.4599 0.16642 0.97192 0.0
H994 H 0.46708 0.16331 0.90993 0.0
H995 H 0.46498 0.09906 0.93035 0.0
C996 C 0.46206 0.11106 0.06727 0.0
C997 C 0.46487 0.12761 0.09195 0.0
C998 C 0.46284 0.14669 0.08165 0.0
C999 C 0.4595 0.1499 0.0467 0.0
C1000 C 0.45778 0.13363 0.02268 0.0
C1001 C 0.45863 0.11437 0.03287 0.0
C1002 C 0.45884 0.10053 1.00248 0.0
C1003 C 0.48047 0.09814 0.00258 0.0
C1004 C 0.43689 0.07693 1.00155 0.0
C1005 C 0.45926 0.11554 0.97336 0.0
C1006 C 0.45815 0.13435 0.98514 0.0
C1007 C 0.46028 0.15149 0.96251 0.0
C1008 C 0.46427 0.14959 0.92733 0.0
C1009 C 0.46649 0.13091 0.91547 0.0
C1010 C 0.4632 0.11345 0.93872 0.0
H1011 H 0.35823 0.50833 0.93362 0.0
H1012 H 0.31724 0.43607 0.90987 0.0
H1013 H 0.30695 0.42773 0.97168 0.0
H1014 H 0.38344 0.50268 0.00363 0.0
H1015 H 0.38425 0.52588 0.02793 0.0
H1016 H 0.38351 0.52638 0.98189 0.0
H1017 H 0.34705 0.53018 0.98387 0.0
H1018 H 0.34779 0.52994 0.03018 0.0
H1019 H 0.32229 0.50952 0.00764 0.0
H1020 H 0.30761 0.42727 0.03814 0.0
H1021 H 0.31897 0.43478 0.09968 0.0
H1022 H 0.35977 0.50737 0.07756 0.0
C1023 C 0.34634 0.49083 0.94126 0.0
C1024 C 0.33835 0.47285 0.91713 0.0
C1025 C 0.32318 0.45012 0.92798 0.0
C1026 C 0.31735 0.44527 0.96305 0.0
C1027 C 0.32653 0.46342 0.98659 0.0
C1028 C 0.34041 0.48583 0.97581 0.0
C1029 C 0.35054 0.50212 0.00577 0.0
C1030 C 0.37698 0.51499 0.00473 0.0
C1031 C 0.34136 0.51893 0.00693 0.0
C1032 C 0.34132 0.48536 0.0353 0.0
C1033 C 0.32708 0.46314 0.02411 0.0
C1034 C 0.31833 0.44468 0.0471 0.0
C1035 C 0.3248 0.44906 0.08202 0.0
C1036 C 0.3402 0.47165 0.09326 0.0
C1037 C 0.34787 0.48993 0.06968 0.0
H1038 H 0.91921 0.36567 0.93615 0.0
H1039 H 0.85552 0.30404 0.91151 0.0
H1040 H 0.85054 0.29282 0.97321 0.0
H1041 H 0.93732 0.34101 0.00819 0.0
H1042 H 0.94906 0.36758 0.0317 0.0
H1043 H 0.94938 0.36787 0.98536 0.0
H1044 H 0.92797 0.39096 0.9854 0.0
H1045 H 0.92749 0.39064 0.03151 0.0
H1046 H 0.90103 0.37962 0.00786 0.0
H1047 H 0.84998 0.29229 0.03991 0.0
H1048 H 0.85389 0.30262 0.10195 0.0
H1049 H 0.91804 0.36451 0.08026 0.0
C1050 C 0.90453 0.34945 0.94356 0.0
C1051 C 0.88776 0.33569 0.91919 0.0
C1052 C 0.8687 0.31468 0.92981 0.0
C1053 C 0.86576 0.30824 0.9648 0.0
C1054 C 0.88228 0.3228 0.98852 0.0
C1055 C 0.90149 0.34282 0.97799 0.0
C1056 C 0.91569 0.35688 0.00811 0.0
C1057 C 0.93926 0.35841 0.00835 0.0
C1058 C 0.91816 0.38092 0.00821 0.0
C1059 C 0.90096 0.34236 0.03749 0.0
C1060 C 0.88196 0.3225 0.02606 0.0
C1061 C 0.86506 0.30757 0.04904 0.0
C1062 C 0.86741 0.31348 0.08423 0.0
C1063 C 0.8863 0.33431 0.09576 0.0
C1064 C 0.9035 0.3484 0.07214 0.0
H1065 H 0.52421 0.85065 0.07799 0.0
H1066 H 0.59637 0.89632 0.09677 0.0
H1067 H 0.60466 0.89351 0.03534 0.0
H1068 H 0.52982 0.81611 0.00338 0.0
H1069 H 0.50572 0.81556 0.98225 0.0
H1070 H 0.50679 0.81499 0.02854 0.0
H1071 H 0.5014 0.85047 0.03106 0.0
H1072 H 0.50079 0.8515 0.98509 0.0
H1073 H 0.52144 0.87631 0.00876 0.0
H1074 H 0.60352 0.89262 0.96973 0.0
H1075 H 0.59316 0.8944 0.90897 0.0
H1076 H 0.52138 0.85139 0.93428 0.0
C1077 C 0.54189 0.85889 0.06948 0.0
C1078 C 0.55974 0.87315 0.09204 0.0
C1079 C 0.5826 0.88468 0.08002 0.0
C1080 C 0.58737 0.88326 0.04508 0.0
C1081 C 0.56907 0.87018 0.02281 0.0
C1082 C 0.54676 0.85789 0.03485 0.0
C1083 C 0.52962 0.84858 0.00569 0.0
C1084 C 0.51726 0.82224 0.00492 0.0
C1085 C 0.51233 0.85726 0.0078 0.0
C1086 C 0.54552 0.85873 0.9753 0.0
C1087 C 0.56828 0.87051 0.98534 0.0
C1088 C 0.58579 0.88299 0.96162 0.0
C1089 C 0.5798 0.88391 0.92717 0.0
C1090 C 0.5565 0.87292 0.91715 0.0
C1091 C 0.53933 0.85973 0.94134 0.0
H1092 H 0.65382 0.55983 0.07211 0.0
H1093 H 0.70752 0.54447 0.09585 0.0
H1094 H 0.7188 0.54949 0.03423 0.0
H1095 H 0.63452 0.52789 1.00187 0.0
H1096 H 0.62778 0.54661 0.97764 0.0
H1097 H 0.62814 0.5477 0.02368 0.0
H1098 H 0.65783 0.59118 0.02199 0.0
H1099 H 0.65743 0.59029 0.97566 0.0
H1100 H 0.6842 0.60121 0.99841 0.0
H1101 H 0.71859 0.54859 0.96806 0.0
H1102 H 0.70684 0.54177 0.90667 0.0
H1103 H 0.65305 0.55743 0.92821 0.0
C1104 C 0.66855 0.55841 0.06452 0.0
C1105 C 0.67991 0.55192 0.08857 0.0
C1106 C 0.69886 0.54983 0.0778 0.0
C1107 C 0.7053 0.5526 0.04284 0.0
C1108 C 0.69288 0.55788 0.01933 0.0
C1109 C 0.67512 0.56117 0.03005 0.0
C1110 C 0.66237 0.56377 1.00002 0.0
C1111 C 0.63671 0.54539 1.00087 0.0
C1112 C 0.66567 0.58806 0.99896 0.0
C1113 C 0.67467 0.55996 0.97053 0.0
C1114 C 0.69263 0.55718 0.98182 0.0
C1115 C 0.70492 0.55129 0.95899 0.0
C1116 C 0.69821 0.54751 0.92415 0.0
C1117 C 0.67912 0.54919 0.91284 0.0
C1118 C 0.66784 0.55624 0.93618 0.0
H1119 H 0.09958 0.66232 0.9279 0.0
H1120 H 0.16994 0.71502 0.91028 0.0
H1121 H 0.17342 0.72654 0.97165 0.0
H1122 H 0.08614 0.69427 0.99724 0.0
H1123 H 0.06861 0.66772 0.0198 0.0
H1124 H 0.0703 0.66789 0.97353 0.0
H1125 H 0.0829 0.63727 0.97617 0.0
H1126 H 0.08122 0.637 0.02212 0.0
H1127 H 0.10761 0.64289 1.00151 0.0
H1128 H 0.17142 0.72567 0.0373 0.0
H1129 H 0.16416 0.71244 0.09794 0.0
H1130 H 0.09464 0.66157 0.07135 0.0
C1131 C 0.11541 0.67692 0.93673 0.0
C1132 C 0.13443 0.68794 0.91457 0.0
C1133 C 0.15506 0.70667 0.92687 0.0
C1134 C 0.15715 0.71327 0.96169 0.0
C1135 C 0.13824 0.70131 0.98343 0.0
C1136 C 0.11759 0.6838 0.97105 0.0
C1137 C 0.10071 0.67153 0.99977 0.0
C1138 C 0.08023 0.67561 0.99744 0.0
C1139 C 0.09268 0.64568 0.99989 0.0
C1140 C 0.11552 0.68365 0.03057 0.0
C1141 C 0.13697 0.70118 0.0209 0.0
C1142 C 0.15445 0.71252 0.04515 0.0
C1143 C 0.15018 0.70505 0.07963 0.0
C1144 C 0.12872 0.68628 0.08924 0.0
C1145 C 0.11099 0.67635 0.0647 0.0
H1146 H 0.92304 0.58607 0.575 0.0
H1147 H 0.85055 0.55302 0.59719 0.0
H1148 H 0.84309 0.56023 0.53742 0.0
H1149 H 0.92438 0.62781 0.50376 0.0
H1150 H 0.94506 0.62359 0.48026 0.0
H1151 H 0.94534 0.6237 0.52663 0.0
H1152 H 0.94246 0.58386 0.52633 0.0
H1153 H 0.94197 0.58352 0.48041 0.0
H1154 H 0.91898 0.5604 0.50399 0.0
H1155 H 0.84264 0.56035 0.47274 0.0
H1156 H 0.84922 0.55315 0.41252 0.0
H1157 H 0.92201 0.58598 0.43227 0.0
C1158 C 0.90579 0.58168 0.5677 0.0
C1159 C 0.88742 0.5694 0.59061 0.0
C1160 C 0.8649 0.56303 0.5802 0.0
C1161 C 0.86056 0.56699 0.54619 0.0
C1162 C 0.87898 0.57769 0.52325 0.0
C1163 C 0.9013 0.58544 0.53396 0.0
C1164 C 0.91763 0.59237 0.50378 0.0
C1165 C 0.93407 0.61842 0.5036 0.0
C1166 C 0.93099 0.57923 0.50364 0.0
C1167 C 0.90083 0.58524 0.47425 0.0
C1168 C 0.8787 0.57763 0.48574 0.0
C1169 C 0.85997 0.56703 0.46338 0.0
C1170 C 0.86382 0.56311 0.42909 0.0
C1171 C 0.88618 0.56941 0.41783 0.0
C1172 C 0.90488 0.58163 0.4402 0.0
H1173 H 0.33981 0.85161 0.5761 0.0
H1174 H 0.31911 0.90202 0.59418 0.0
H1175 H 0.3067 0.8986 0.53329 0.0
H1176 H 0.36715 0.87382 0.5044 0.0
H1177 H 0.36018 0.8476 0.48227 0.0
H1178 H 0.35997 0.84813 0.52829 0.0
H1179 H 0.31786 0.81485 0.52917 0.0
H1180 H 0.31799 0.81393 0.48284 0.0
H1181 H 0.29635 0.81733 0.505 0.0
H1182 H 0.30525 0.8961 0.46772 0.0
H1183 H 0.3157 0.89558 0.40663 0.0
H1184 H 0.33934 0.84835 0.43248 0.0
C1185 C 0.33144 0.86094 0.56761 0.0
C1186 C 0.32989 0.87667 0.58977 0.0
C1187 C 0.31976 0.88936 0.57776 0.0
C1188 C 0.31281 0.88758 0.54314 0.0
C1189 C 0.31596 0.87288 0.5212 0.0
C1190 C 0.32476 0.8595 0.53333 0.0
C1191 C 0.33041 0.84819 0.5043 0.0
C1192 C 0.35592 0.85486 0.50487 0.0
C1193 C 0.3147 0.82202 0.5054 0.0
C1194 C 0.32492 0.85842 0.47372 0.0
C1195 C 0.31589 0.87204 0.48371 0.0
C1196 C 0.31174 0.88501 0.45969 0.0
C1197 C 0.31764 0.88459 0.42503 0.0
C1198 C 0.32806 0.87172 0.41503 0.0
C1199 C 0.33101 0.85799 0.43951 0.0
H1200 H 0.42547 0.33936 0.57112 0.0
H1201 H 0.45097 0.29354 0.59589 0.0
H1202 H 0.44497 0.2801 0.53544 0.0
H1203 H 0.38417 0.30302 0.49775 0.0
H1204 H 0.39174 0.32896 0.47431 0.0
H1205 H 0.39063 0.32885 0.52064 0.0
H1206 H 0.43238 0.36284 0.52225 0.0
H1207 H 0.43369 0.36294 0.47633 0.0
H1208 H 0.45469 0.35998 0.50115 0.0
H1209 H 0.4464 0.28005 0.47028 0.0
H1210 H 0.45507 0.29343 0.40986 0.0
H1211 H 0.42868 0.3393 0.42796 0.0
C1212 C 0.42848 0.3255 0.56414 0.0
C1213 C 0.43825 0.31715 0.58811 0.0
C1214 C 0.44285 0.29966 0.57807 0.0
C1215 C 0.43959 0.29205 0.54368 0.0
C1216 C 0.43135 0.30183 0.51994 0.0
C1217 C 0.42537 0.31788 0.53008 0.0
C1218 C 0.42075 0.32885 0.49947 0.0
C1219 C 0.3953 0.322 0.49796 0.0
C1220 C 0.43632 0.35518 0.49984 0.0
C1221 C 0.42686 0.31796 0.4704 0.0
C1222 C 0.43223 0.30185 0.48242 0.0
C1223 C 0.44145 0.29201 0.46052 0.0
C1224 C 0.4462 0.29956 0.42612 0.0
C1225 C 0.44204 0.317 0.41426 0.0
C1226 C 0.43132 0.32543 0.43628 0.0
H1227 H 0.09805 0.43759 0.57301 0.0
H1228 H 0.16957 0.46323 0.59629 0.0
H1229 H 0.17648 0.45713 0.5356 0.0
H1230 H 0.09218 0.39699 0.49832 0.0
H1231 H 0.07393 0.40514 0.47586 0.0
H1232 H 0.0732 0.40354 0.52216 0.0
H1233 H 0.08141 0.44541 0.52501 0.0
H1234 H 0.08262 0.44736 0.4791 0.0
H1235 H 0.10669 0.46779 0.50427 0.0
H1236 H 0.17725 0.45769 0.47025 0.0
H1237 H 0.17192 0.46514 0.40938 0.0
H1238 H 0.10037 0.44154 0.42964 0.0
C1239 C 0.11486 0.4406 0.56567 0.0
C1240 C 0.13319 0.45047 0.58925 0.0
C1241 C 0.15519 0.45504 0.57877 0.0
C1242 C 0.15924 0.45175 0.54423 0.0
C1243 C 0.14104 0.44366 0.52082 0.0
C1244 C 0.11912 0.43774 0.53143 0.0
C1245 C 0.10339 0.43366 0.50119 0.0
C1246 C 0.08457 0.40832 0.49927 0.0
C1247 C 0.09296 0.44951 0.50249 0.0
C1248 C 0.12018 0.43988 0.47186 0.0
C1249 C 0.14163 0.44479 0.48335 0.0
C1250 C 0.16038 0.45326 0.46096 0.0
C1251 C 0.15724 0.45742 0.42644 0.0
C1252 C 0.13568 0.45363 0.41504 0.0
C1253 C 0.11689 0.44414 0.43778 0.0
H1254 H 0.69516 0.1635 0.43524 0.0
H1255 H 0.70596 0.10671 0.41322 0.0
H1256 H 0.71836 0.10742 0.47339 0.0
H1257 H 0.74137 0.19179 0.50717 0.0
H1258 H 0.72245 0.1987 0.53041 0.0
H1259 H 0.72261 0.19898 0.48405 0.0
H1260 H 0.67882 0.17072 0.48392 0.0
H1261 H 0.67852 0.17013 0.52988 0.0
H1262 H 0.66763 0.1437 0.50617 0.0
H1263 H 0.71814 0.10693 0.53819 0.0
H1264 H 0.70581 0.1057 0.5986 0.0
H1265 H 0.69532 0.16291 0.57846 0.0
C1266 C 0.70161 0.15225 0.44268 0.0
C1267 C 0.70023 0.13547 0.41962 0.0
C1268 C 0.70767 0.12019 0.43029 0.0
C1269 C 0.71459 0.12042 0.46454 0.0
C1270 C 0.71427 0.13626 0.4875 0.0
C1271 C 0.70843 0.15229 0.47666 0.0
C1272 C 0.70524 0.16466 0.50679 0.0
C1273 C 0.72405 0.19004 0.50712 0.0
C1274 C 0.68113 0.16211 0.50667 0.0
C1275 C 0.70822 0.15182 0.53641 0.0
C1276 C 0.71414 0.13598 0.52502 0.0
C1277 C 0.71439 0.11985 0.54749 0.0
C1278 C 0.70751 0.11932 0.58185 0.0
C1279 C 0.7003 0.13466 0.59317 0.0
C1280 C 0.70163 0.15162 0.57055 0.0
H1281 H 0.53889 0.69099 0.43217 0.0
H1282 H 0.60789 0.70542 0.41177 0.0
H1283 H 0.61871 0.71825 0.47197 0.0
H1284 H 0.55376 0.73669 0.50426 0.0
H1285 H 0.52821 0.71667 0.52712 0.0
H1286 H 0.52841 0.71693 0.48076 0.0
H1287 H 0.51532 0.67362 0.48051 0.0
H1288 H 0.51526 0.67325 0.52647 0.0
H1289 H 0.53219 0.66379 0.50314 0.0
H1290 H 0.61868 0.71842 0.53652 0.0
H1291 H 0.60761 0.70545 0.59669 0.0
H1292 H 0.53857 0.69071 0.57535 0.0
C1293 C 0.55664 0.69836 0.43997 0.0
C1294 C 0.57278 0.69801 0.41735 0.0
C1295 C 0.59556 0.70642 0.42853 0.0
C1296 C 0.60177 0.71362 0.46276 0.0
C1297 C 0.585 0.71242 0.48529 0.0
C1298 C 0.56292 0.70537 0.47403 0.0
C1299 C 0.54687 0.7012 0.50388 0.0
C1300 C 0.53885 0.71894 0.50401 0.0
C1301 C 0.52624 0.67652 0.50346 0.0
C1302 C 0.56277 0.70504 0.53377 0.0
C1303 C 0.58491 0.71228 0.52278 0.0
C1304 C 0.60164 0.71358 0.54552 0.0
C1305 C 0.5953 0.70633 0.57975 0.0
C1306 C 0.5724 0.69763 0.59058 0.0
C1307 C 0.55636 0.69803 0.56775 0.0
H1308 H 0.54255 0.13652 0.20092 0.0
H1309 H 0.51109 0.13121 0.30044 0.0
H1310 H 0.54229 0.12785 0.3283 0.0
H1311 H 0.56269 0.09649 0.21812 0.0
H1312 H 0.58912 0.11291 0.19472 0.0
H1313 H 0.56395 0.11413 0.18237 0.0
H1314 H 0.58648 0.15834 0.18864 0.0
H1315 H 0.61172 0.15728 0.20095 0.0
H1316 H 0.60066 0.17096 0.22869 0.0
H1317 H 0.57697 0.12588 0.34538 0.0
H1318 H 0.61354 0.12641 0.35146 0.0
H1319 H 0.62337 0.13333 0.24084 0.0
C1320 C 0.54216 0.13453 0.22858 0.0
C1321 C 0.52434 0.13408 0.24857 0.0
C1322 C 0.52454 0.13161 0.28466 0.0
C1323 C 0.54216 0.12963 0.30067 0.0
C1324 C 0.55947 0.1302 0.28023 0.0
C1325 C 0.55968 0.13263 0.24499 0.0
C1326 C 0.58067 0.13337 0.22913 0.0
C1327 C 0.57368 0.11301 0.20464 0.0
C1328 C 0.59577 0.15636 0.21078 0.0
C1329 C 0.59238 0.13115 0.26105 0.0
C1330 C 0.57971 0.12921 0.29015 0.0
C1331 C 0.587 0.12732 0.32279 0.0
C1332 C 0.60786 0.12764 0.32591 0.0
C1333 C 0.62139 0.12987 0.29661 0.0
C1334 C 0.6134 0.13148 0.26368 0.0
H1335 H 0.495 0.62034 0.24175 0.0
H1336 H 0.49856 0.60629 0.34978 0.0
H1337 H 0.46313 0.56898 0.34397 0.0
H1338 H 0.43496 0.59659 0.23806 0.0
H1339 H 0.43156 0.58434 0.19578 0.0
H1340 H 0.4582 0.60932 0.20754 0.0
H1341 H 0.48031 0.58817 0.19216 0.0
H1342 H 0.45373 0.56316 0.1801 0.0
H1343 H 0.472 0.56085 0.21179 0.0
H1344 H 0.42564 0.53431 0.32771 0.0
H1345 H 0.3899 0.50399 0.30091 0.0
H1346 H 0.41091 0.54008 0.20348 0.0
C1347 C 0.48852 0.60924 0.264 0.0
C1348 C 0.49961 0.61627 0.2962 0.0
C1349 C 0.49042 0.60132 0.32481 0.0
C1350 C 0.47026 0.58005 0.32181 0.0
C1351 C 0.45946 0.57381 0.28996 0.0
C1352 C 0.46835 0.58784 0.26145 0.0
C1353 C 0.45295 0.57729 0.23045 0.0
C1354 C 0.44388 0.59281 0.2172 0.0
C1355 C 0.4655 0.57206 0.20194 0.0
C1356 C 0.43389 0.55541 0.24618 0.0
C1357 C 0.43797 0.55369 0.28052 0.0
C1358 C 0.42235 0.53535 0.30073 0.0
C1359 C 0.40207 0.51826 0.28537 0.0
C1360 C 0.39765 0.51962 0.25015 0.0
C1361 C 0.41386 0.53846 0.23043 0.0
H1362 H 0.87545 0.48344 0.24462 0.0
H1363 H 0.88736 0.48381 0.35436 0.0
H1364 H 0.8887 0.44808 0.34867 0.0
H1365 H 0.83885 0.42325 0.23616 0.0
H1366 H 0.85005 0.42112 0.19509 0.0
H1367 H 0.85106 0.44742 0.20725 0.0
H1368 H 0.89501 0.46981 0.19732 0.0
H1369 H 0.89411 0.44357 0.18495 0.0
H1370 H 0.91281 0.46082 0.21919 0.0
H1371 H 0.8866 0.41108 0.33195 0.0
H1372 H 0.883 0.3763 0.30434 0.0
H1373 H 0.87334 0.40018 0.20549 0.0
C1374 C 0.87856 0.47611 0.26735 0.0
C1375 C 0.88128 0.48644 0.29992 0.0
C1376 C 0.88524 0.47625 0.32909 0.0
C1377 C 0.88602 0.45592 0.32617 0.0
C1378 C 0.88297 0.44597 0.29385 0.0
C1379 C 0.87951 0.45578 0.26488 0.0
C1380 C 0.87642 0.44133 0.23328 0.0
C1381 C 0.85268 0.43277 0.217 0.0
C1382 C 0.89574 0.45468 0.20715 0.0
C1383 C 0.87831 0.42176 0.24918 0.0
C1384 C 0.8821 0.42476 0.28414 0.0
C1385 C 0.88381 0.40861 0.30452 0.0
C1386 C 0.88167 0.38889 0.28867 0.0
C1387 C 0.87796 0.38556 0.25283 0.0
C1388 C 0.87631 0.4023 0.23295 0.0
H1389 H 0.48596 0.87166 0.27122 0.0
H1390 H 0.49139 0.89296 0.16461 0.0
H1391 H 0.45622 0.89514 0.17067 0.0
H1392 H 0.4257 0.83599 0.27238 0.0
H1393 H 0.42164 0.84359 0.31519 0.0
H1394 H 0.44834 0.84524 0.30373 0.0
H1395 H 0.47056 0.88791 0.32219 0.0
H1396 H 0.44391 0.88634 0.33395 0.0
H1397 H 0.46292 0.90778 0.30381 0.0
H1398 H 0.41898 0.8921 0.18615 0.0
H1399 H 0.38283 0.88618 0.21181 0.0
H1400 H 0.40133 0.86787 0.30881 0.0
C1401 C 0.47993 0.87715 0.24939 0.0
C1402 C 0.49149 0.88215 0.21746 0.0
C1403 C 0.4829 0.88904 0.18937 0.0
C1404 C 0.46288 0.89034 0.1925 0.0
C1405 C 0.45161 0.88485 0.22397 0.0
C1406 C 0.45987 0.87862 0.25209 0.0
C1407 C 0.4439 0.87297 0.28264 0.0
C1408 C 0.43433 0.84796 0.29415 0.0
C1409 C 0.45605 0.88975 0.31241 0.0
C1410 C 0.42528 0.87659 0.26699 0.0
C1411 C 0.43011 0.88346 0.23312 0.0
C1412 C 0.41508 0.88697 0.21278 0.0
C1413 C 0.39456 0.88347 0.22751 0.0
C1414 C 0.38932 0.87665 0.26226 0.0
C1415 C 0.40497 0.87327 0.28222 0.0
H1416 H 0.60492 0.4729 0.19452 0.0
H1417 H 0.63146 0.50341 0.29441 0.0
H1418 H 0.5981 0.47103 0.32237 0.0
H1419 H 0.54383 0.44897 0.21502 0.0
H1420 H 0.53506 0.4232 0.19046 0.0
H1421 H 0.56016 0.44957 0.1779 0.0
H1422 H 0.58441 0.42948 0.18061 0.0
H1423 H 0.55944 0.40309 0.19337 0.0
H1424 H 0.58485 0.41534 0.21973 0.0
H1425 H 0.56355 0.43506 0.33975 0.0
H1426 H 0.52918 0.39728 0.34634 0.0
H1427 H 0.52419 0.38874 0.2354 0.0
C1428 C 0.60351 0.47291 0.22225 0.0
C1429 C 0.62074 0.49073 0.24235 0.0
C1430 C 0.61847 0.48998 0.27855 0.0
C1431 C 0.59957 0.47167 0.29464 0.0
C1432 C 0.5831 0.45422 0.27419 0.0
C1433 C 0.58477 0.45463 0.2388 0.0
C1434 C 0.56506 0.4331 0.22311 0.0
C1435 C 0.55014 0.43907 0.20027 0.0
C1436 C 0.57398 0.41945 0.20302 0.0
C1437 C 0.55226 0.4204 0.2553 0.0
C1438 C 0.56299 0.43308 0.28436 0.0
C1439 C 0.5549 0.42503 0.31722 0.0
C1440 C 0.53531 0.40346 0.32062 0.0
C1441 C 0.52388 0.38998 0.29138 0.0
C1442 C 0.5325 0.39864 0.25821 0.0
H1443 H 0.14073 0.61811 0.27175 0.0
H1444 H 0.13212 0.60706 0.16138 0.0
H1445 H 0.13079 0.57031 0.16787 0.0
H1446 H 0.17754 0.59414 0.28274 0.0
H1447 H 0.16542 0.58045 0.32328 0.0
H1448 H 0.16473 0.60589 0.3109 0.0
H1449 H 0.12062 0.58433 0.31872 0.0
H1450 H 0.12119 0.55882 0.33115 0.0
H1451 H 0.10328 0.55781 0.29599 0.0
H1452 H 0.13172 0.53559 0.18453 0.0
H1453 H 0.13465 0.50406 0.21155 0.0
H1454 H 0.14252 0.53592 0.31148 0.0
C1455 C 0.13839 0.60783 0.24908 0.0
C1456 C 0.13643 0.61558 0.21607 0.0
C1457 C 0.13357 0.60165 0.18701 0.0
C1458 C 0.13279 0.58062 0.19034 0.0
C1459 C 0.13488 0.57352 0.22294 0.0
C1460 C 0.13759 0.58655 0.25191 0.0
C1461 C 0.13995 0.57475 0.28374 0.0
C1462 C 0.1633 0.58971 0.30119 0.0
C1463 C 0.12007 0.56856 0.30889 0.0
C1464 C 0.13838 0.55335 0.26785 0.0
C1465 C 0.13539 0.55307 0.23274 0.0
C1466 C 0.13395 0.5355 0.21206 0.0
C1467 C 0.13567 0.51767 0.22764 0.0
C1468 C 0.13879 0.51747 0.26357 0.0
C1469 C 0.14004 0.53554 0.28394 0.0
H1470 H 0.48329 0.87455 0.81149 0.0
H1471 H 0.51364 0.87928 0.71116 0.0
H1472 H 0.4822 0.88246 0.68408 0.0
H1473 H 0.42485 0.84009 0.78538 0.0
H1474 H 0.41405 0.85407 0.81298 0.0
H1475 H 0.43943 0.85316 0.825 0.0
H1476 H 0.46203 0.89744 0.83009 0.0
H1477 H 0.43671 0.89849 0.81811 0.0
H1478 H 0.46288 0.91465 0.79401 0.0
H1479 H 0.44761 0.88392 0.66765 0.0
H1480 H 0.41115 0.8833 0.66165 0.0
H1481 H 0.40184 0.87761 0.7725 0.0
C1482 C 0.48337 0.87639 0.78383 0.0
C1483 C 0.50095 0.87669 0.76336 0.0
C1484 C 0.50039 0.87901 0.7273 0.0
C1485 C 0.48262 0.88087 0.71171 0.0
C1486 C 0.46554 0.8804 0.73255 0.0
C1487 C 0.46568 0.87823 0.7678 0.0
C1488 C 0.4448 0.87766 0.78395 0.0
C1489 C 0.4299 0.85489 0.80295 0.0
C1490 C 0.45204 0.89829 0.80796 0.0
C1491 C 0.43275 0.87952 0.75214 0.0
C1492 C 0.44523 0.88122 0.72292 0.0
C1493 C 0.43774 0.88272 0.69031 0.0
C1494 C 0.4169 0.88236 0.68727 0.0
C1495 C 0.40353 0.8805 0.71663 0.0
C1496 C 0.41168 0.87917 0.74961 0.0
H1497 H 0.60452 0.46706 0.8089 0.0
H1498 H 0.62971 0.49917 0.70948 0.0
H1499 H 0.59421 0.46919 0.68219 0.0
H1500 H 0.57948 0.40948 0.77911 0.0
H1501 H 0.55509 0.39823 0.80754 0.0
H1502 H 0.58166 0.42309 0.81994 0.0
H1503 H 0.56051 0.44598 0.82884 0.0
H1504 H 0.53385 0.42116 0.81648 0.0
H1505 H 0.54383 0.44797 0.79417 0.0
H1506 H 0.5572 0.43563 0.66534 0.0
H1507 H 0.52113 0.39932 0.65874 0.0
H1508 H 0.51928 0.38729 0.76873 0.0
C1509 C 0.60242 0.46788 0.78143 0.0
C1510 C 0.61983 0.4855 0.76125 0.0
C1511 C 0.61662 0.48585 0.72538 0.0
C1512 C 0.59648 0.46894 0.70969 0.0
C1513 C 0.57976 0.45172 0.7302 0.0
C1514 C 0.58247 0.45094 0.76526 0.0
C1515 C 0.56225 0.42981 0.78094 0.0
C1516 C 0.5701 0.41423 0.79788 0.0
C1517 C 0.54935 0.43664 0.80663 0.0
C1518 C 0.54789 0.41869 0.7491 0.0
C1519 C 0.55832 0.43185 0.72028 0.0
C1520 C 0.54882 0.42522 0.68771 0.0
C1521 C 0.52825 0.40447 0.68429 0.0
C1522 C 0.51726 0.39036 0.71322 0.0
C1523 C 0.52717 0.39772 0.74617 0.0
H1524 H 0.14648 0.6168 0.80813 0.0
H1525 H 0.13304 0.63871 0.7102 0.0
H1526 H 0.12832 0.60345 0.68301 0.0
H1527 H 0.17991 0.59366 0.77432 0.0
H1528 H 0.16915 0.56994 0.80398 0.0
H1529 H 0.17008 0.59616 0.81635 0.0
H1530 H 0.12663 0.57351 0.83009 0.0
H1531 H 0.12555 0.54719 0.81769 0.0
H1532 H 0.10673 0.55553 0.79747 0.0
H1533 H 0.12603 0.56676 0.66613 0.0
H1534 H 0.12802 0.53153 0.65934 0.0
H1535 H 0.14387 0.53308 0.76787 0.0
C1536 C 0.14237 0.61407 0.78101 0.0
C1537 C 0.14005 0.63046 0.76123 0.0
C1538 C 0.13492 0.62642 0.72579 0.0
C1539 C 0.13212 0.6064 0.71017 0.0
C1540 C 0.13461 0.59065 0.73032 0.0
C1541 C 0.13973 0.59425 0.76492 0.0
C1542 C 0.1425 0.57502 0.78028 0.0
C1543 C 0.16686 0.58425 0.79457 0.0
C1544 C 0.12426 0.56205 0.80803 0.0
C1545 C 0.13841 0.56017 0.74877 0.0
C1546 C 0.13366 0.56947 0.72039 0.0
C1547 C 0.12966 0.55928 0.68816 0.0
C1548 C 0.13084 0.53921 0.68462 0.0
C1549 C 0.13609 0.52947 0.71308 0.0
C1550 C 0.1397 0.54002 0.7457 0.0
H1551 H 0.62682 0.13943 0.77102 0.0
H1552 H 0.61772 0.13221 0.66029 0.0
H1553 H 0.58171 0.13283 0.66531 0.0
H1554 H 0.56605 0.10377 0.79257 0.0
H1555 H 0.56737 0.12157 0.82811 0.0
H1556 H 0.59238 0.11989 0.8163 0.0
H1557 H 0.61566 0.1641 0.80993 0.0
H1558 H 0.59071 0.16589 0.82161 0.0
H1559 H 0.60531 0.17818 0.78169 0.0
H1560 H 0.54733 0.13555 0.68126 0.0
H1561 H 0.51599 0.13912 0.7082 0.0
H1562 H 0.54646 0.14424 0.8085 0.0
C1563 C 0.61714 0.13782 0.74794 0.0
C1564 C 0.62517 0.13575 0.71529 0.0
C1565 C 0.61201 0.13378 0.68565 0.0
C1566 C 0.59146 0.13412 0.68815 0.0
C1567 C 0.5841 0.13639 0.72051 0.0
C1568 C 0.59639 0.13809 0.74995 0.0
C1569 C 0.58456 0.14064 0.78146 0.0
C1570 C 0.57715 0.12025 0.80606 0.0
C1571 C 0.59998 0.16357 0.79974 0.0
C1572 C 0.56394 0.14031 0.76497 0.0
C1573 C 0.56403 0.13783 0.72978 0.0
C1574 C 0.54699 0.13741 0.70885 0.0
C1575 C 0.52928 0.1395 0.72433 0.0
C1576 C 0.52875 0.14193 0.76038 0.0
C1577 C 0.54635 0.14233 0.78085 0.0
H1578 H 0.41578 0.54094 0.81072 0.0
H1579 H 0.38909 0.51099 0.71061 0.0
H1580 H 0.42416 0.54161 0.68322 0.0
H1581 H 0.44023 0.59887 0.78483 0.0
H1582 H 0.46515 0.6095 0.81205 0.0
H1583 H 0.43888 0.58424 0.82434 0.0
H1584 H 0.46028 0.56131 0.82876 0.0
H1585 H 0.48667 0.58654 0.81658 0.0
H1586 H 0.4764 0.56038 0.79239 0.0
H1587 H 0.46053 0.57599 0.66643 0.0
H1588 H 0.49623 0.61268 0.66027 0.0
H1589 H 0.5002 0.62165 0.77114 0.0
C1590 C 0.41747 0.54067 0.78306 0.0
C1591 C 0.39975 0.52352 0.76273 0.0
C1592 C 0.40245 0.5239 0.72664 0.0
C1593 C 0.42233 0.5412 0.71088 0.0
C1594 C 0.43933 0.55799 0.73158 0.0
C1595 C 0.43719 0.55792 0.76687 0.0
C1596 C 0.45762 0.57868 0.78286 0.0
C1597 C 0.45001 0.59371 0.80215 0.0
C1598 C 0.47104 0.57128 0.80655 0.0
C1599 C 0.47137 0.59067 0.75093 0.0
C1600 C 0.4605 0.57821 0.72176 0.0
C1601 C 0.4693 0.58582 0.68906 0.0
C1602 C 0.48966 0.60677 0.68591 0.0
C1603 C 0.50116 0.62011 0.71525 0.0
C1604 C 0.49192 0.61181 0.74828 0.0
H1605 H 0.87775 0.40305 0.80759 0.0
H1606 H 0.88878 0.3789 0.70994 0.0
H1607 H 0.89328 0.41384 0.68158 0.0
H1608 H 0.84421 0.42622 0.77464 0.0
H1609 H 0.85593 0.45039 0.80352 0.0
H1610 H 0.85477 0.42412 0.81629 0.0
H1611 H 0.89852 0.44637 0.82794 0.0
H1612 H 0.89982 0.47272 0.81511 0.0
H1613 H 0.91787 0.46364 0.79427 0.0
H1614 H 0.89574 0.45091 0.66384 0.0
H1615 H 0.89431 0.48656 0.65701 0.0
H1616 H 0.88095 0.48645 0.76621 0.0
C1617 C 0.88125 0.40516 0.78026 0.0
C1618 C 0.88297 0.38828 0.76092 0.0
C1619 C 0.88737 0.39159 0.7252 0.0
C1620 C 0.89003 0.41142 0.70894 0.0
C1621 C 0.88817 0.4277 0.72876 0.0
C1622 C 0.88379 0.42475 0.76361 0.0
C1623 C 0.88173 0.44441 0.7788 0.0
C1624 C 0.85773 0.43576 0.79421 0.0
C1625 C 0.90061 0.45756 0.80561 0.0
C1626 C 0.8854 0.45881 0.74696 0.0
C1627 C 0.88929 0.44894 0.71846 0.0
C1628 C 0.89277 0.45881 0.68598 0.0
C1629 C 0.89193 0.4791 0.6824 0.0
C1630 C 0.88753 0.48934 0.71108 0.0
C1631 C 0.88447 0.47912 0.74385 0.0
loop_
_geom_bond_atom_site_label_1
_geom_bond_atom_site_label_2
_geom_bond_distance
_geom_bond_site_symmetry_2
_ccdc_geom_bond_type
Co0 O1 2.216 . S
Co0 O2 2.091 . S
Co0 O4 2.004 . S
Co0 O10 2.021 . S
Co0 O12 2.137 . S
Co0 O13 2.244 . S
O1 Co0 2.216 . S
O1 C8 1.247 . S
O2 Co0 2.091 . S
O2 C8 1.261 . S
C3 O12 1.247 . S
C3 O13 1.272 . S
O4 Co0 2.004 . S
O4 C9 1.259 . S
Co5 O6 2.061 . S
Co5 O11 2.052 . S
Co5 O13 2.135 . S
O6 Co5 2.061 . S
O6 C9 1.235 . S
C7 O10 1.238 . S
C7 O11 1.241 . S
C8 O1 1.247 . S
C8 O2 1.261 . S
C9 O4 1.259 . S
C9 O6 1.235 . S
O10 Co0 2.021 . S
O10 C7 1.238 . S
O11 Co5 2.052 . S
O11 C7 1.241 . S
O12 Co0 2.137 . S
O12 C3 1.247 . S
O13 Co0 2.244 . S
O13 C3 1.272 . S
O13 Co5 2.135 . S
Co14 O15 2.216 . S
Co14 O16 2.091 . S
Co14 O18 2.004 . S
Co14 O24 2.021 . S
Co14 O26 2.137 . S
Co14 O27 2.244 . S
O15 Co14 2.216 . S
O15 C22 1.247 . S
O16 Co14 2.091 . S
O16 C22 1.261 . S
C17 O26 1.247 . S
C17 O27 1.272 . S
O18 Co14 2.004 . S
O18 C23 1.259 . S
Co19 O20 2.061 . S
Co19 O25 2.052 . S
Co19 O27 2.135 . S
O20 Co19 2.061 . S
O20 C23 1.235 . S
C21 O24 1.238 . S
C21 O25 1.241 . S
C22 O15 1.247 . S
C22 O16 1.261 . S
C23 O18 1.259 . S
C23 O20 1.235 . S
O24 Co14 2.021 . S
O24 C21 1.238 . S
O25 Co19 2.052 . S
O25 C21 1.241 . S
O26 Co14 2.137 . S
O26 C17 1.247 . S
O27 Co14 2.244 . S
O27 C17 1.272 . S
O27 Co19 2.135 . S
Co28 O29 2.216 . S
Co28 O30 2.091 . S
Co28 O32 2.004 . S
Co28 O38 2.021 . S
Co28 O40 2.137 . S
Co28 O41 2.244 . S
O29 Co28 2.216 . S
O29 C36 1.247 . S
O30 Co28 2.091 . S
O30 C36 1.261 . S
C31 O40 1.247 . S
C31 O41 1.272 . S
O32 Co28 2.004 . S
O32 C37 1.259 . S
Co33 O34 2.061 . S
Co33 O39 2.052 . S
Co33 O41 2.135 . S
O34 Co33 2.061 . S
O34 C37 1.235 . S
C35 O38 1.238 . S
C35 O39 1.241 . S
C36 O29 1.247 . S
C36 O30 1.261 . S
C37 O32 1.259 . S
C37 O34 1.235 . S
O38 Co28 2.021 . S
O38 C35 1.238 . S
O39 Co33 2.052 . S
O39 C35 1.241 . S
O40 Co28 2.137 . S
O40 C31 1.247 . S
O41 Co28 2.244 . S
O41 C31 1.272 . S
O41 Co33 2.135 . S
Co42 O43 2.216 . S
Co42 O44 2.091 . S
Co42 O46 2.004 . S
Co42 O52 2.021 . S
Co42 O54 2.137 . S
Co42 O55 2.244 . S
O43 Co42 2.216 . S
O43 C50 1.247 . S
O44 Co42 2.091 . S
O44 C50 1.261 . S
C45 O54 1.247 . S
C45 O55 1.272 . S
O46 Co42 2.004 . S
O46 C51 1.259 . S
Co47 O48 2.061 . S
Co47 O53 2.052 . S
Co47 O55 2.135 . S
O48 Co47 2.061 . S
O48 C51 1.235 . S
C49 O52 1.238 . S
C49 O53 1.241 . S
C50 O43 1.247 . S
C50 O44 1.261 . S
C51 O46 1.259 . S
C51 O48 1.235 . S
O52 Co42 2.021 . S
O52 C49 1.238 . S
O53 Co47 2.052 . S
O53 C49 1.241 . S
O54 Co42 2.137 . S
O54 C45 1.247 . S
O55 Co42 2.244 . S
O55 C45 1.272 . S
O55 Co47 2.135 . S
Co56 O57 2.216 . S
Co56 O58 2.091 . S
Co56 O60 2.004 . S
Co56 O66 2.021 . S
Co56 O68 2.137 . S
Co56 O69 2.244 . S
O57 Co56 2.216 . S
O57 C64 1.247 . S
O58 Co56 2.091 . S
O58 C64 1.261 . S
C59 O68 1.247 . S
C59 O69 1.272 . S
O60 Co56 2.004 . S
O60 C65 1.259 . S
Co61 O62 2.061 . S
Co61 O67 2.052 . S
Co61 O69 2.135 . S
O62 Co61 2.061 . S
O62 C65 1.235 . S
C63 O66 1.238 . S
C63 O67 1.241 . S
C64 O57 1.247 . S
C64 O58 1.261 . S
C65 O60 1.259 . S
C65 O62 1.235 . S
O66 Co56 2.021 . S
O66 C63 1.238 . S
O67 Co61 2.052 . S
O67 C63 1.241 . S
O68 Co56 2.137 . S
O68 C59 1.247 . S
O69 Co56 2.244 . S
O69 C59 1.272 . S
O69 Co61 2.135 . S
Co70 O71 2.216 . S
Co70 O72 2.091 . S
Co70 O74 2.004 . S
Co70 O80 2.021 . S
Co70 O82 2.137 . S
Co70 O83 2.244 . S
O71 Co70 2.216 . S
O71 C78 1.247 . S
O72 Co70 2.091 . S
O72 C78 1.261 . S
C73 O82 1.247 . S
C73 O83 1.272 . S
O74 Co70 2.004 . S
O74 C79 1.259 . S
Co75 O76 2.061 . S
Co75 O81 2.052 . S
Co75 O83 2.135 . S
O76 Co75 2.061 . S
O76 C79 1.235 . S
C77 O80 1.238 . S
C77 O81 1.241 . S
C78 O71 1.247 . S
C78 O72 1.261 . S
C79 O74 1.259 . S
C79 O76 1.235 . S
O80 Co70 2.021 . S
O80 C77 1.238 . S
O81 Co75 2.052 . S
O81 C77 1.241 . S
O82 Co70 2.137 . S
O82 C73 1.247 . S
O83 Co70 2.244 . S
O83 C73 1.272 . S
O83 Co75 2.135 . S
Co84 O85 2.216 . S
Co84 O86 2.091 . S
Co84 O88 2.004 . S
Co84 O94 2.021 . S
Co84 O96 2.137 . S
Co84 O97 2.244 . S
O85 Co84 2.216 . S
O85 C92 1.247 . S
O86 Co84 2.091 . S
O86 C92 1.261 . S
C87 O96 1.247 . S
C87 O97 1.272 . S
O88 Co84 2.004 . S
O88 C93 1.259 . S
Co89 O90 2.061 . S
Co89 O95 2.052 . S
Co89 O97 2.135 . S
O90 Co89 2.061 . S
O90 C93 1.235 . S
C91 O94 1.238 . S
C91 O95 1.241 . S
C92 O85 1.247 . S
C92 O86 1.261 . S
C93 O88 1.259 . S
C93 O90 1.235 . S
O94 Co84 2.021 . S
O94 C91 1.238 . S
O95 Co89 2.052 . S
O95 C91 1.241 . S
O96 Co84 2.137 . S
O96 C87 1.247 . S
O97 Co84 2.244 . S
O97 C87 1.272 . S
O97 Co89 2.135 . S
Co98 O99 2.216 . S
Co98 O100 2.091 . S
Co98 O102 2.004 . S
Co98 O108 2.021 . S
Co98 O110 2.137 . S
Co98 O111 2.244 . S
O99 Co98 2.216 . S
O99 C106 1.247 . S
O100 Co98 2.091 . S
O100 C106 1.261 . S
C101 O110 1.247 . S
C101 O111 1.272 . S
O102 Co98 2.004 . S
O102 C107 1.259 . S
Co103 O104 2.061 . S
Co103 O109 2.052 . S
Co103 O111 2.135 . S
O104 Co103 2.061 . S
O104 C107 1.235 . S
C105 O108 1.238 . S
C105 O109 1.241 . S
C106 O99 1.247 . S
C106 O100 1.261 . S
C107 O102 1.259 . S
C107 O104 1.235 . S
O108 Co98 2.021 . S
O108 C105 1.238 . S
O109 Co103 2.052 . S
O109 C105 1.241 . S
O110 Co98 2.137 . S
O110 C101 1.247 . S
O111 Co98 2.244 . S
O111 C101 1.272 . S
O111 Co103 2.135 . S
Co112 O113 2.216 . S
Co112 O114 2.091 . S
Co112 O116 2.004 . S
Co112 O122 2.021 . S
Co112 O124 2.137 . S
Co112 O125 2.244 . S
O113 Co112 2.216 . S
O113 C120 1.247 . S
O114 Co112 2.091 . S
O114 C120 1.261 . S
C115 O124 1.247 . S
C115 O125 1.272 . S
O116 Co112 2.004 . S
O116 C121 1.259 . S
Co117 O118 2.061 . S
Co117 O123 2.052 . S
Co117 O125 2.135 . S
O118 Co117 2.061 . S
O118 C121 1.235 . S
C119 O122 1.238 . S
C119 O123 1.241 . S
C120 O113 1.247 . S
C120 O114 1.261 . S
C121 O116 1.259 . S
C121 O118 1.235 . S
O122 Co112 2.021 . S
O122 C119 1.238 . S
O123 Co117 2.052 . S
O123 C119 1.241 . S
O124 Co112 2.137 . S
O124 C115 1.247 . S
O125 Co112 2.244 . S
O125 C115 1.272 . S
O125 Co117 2.135 . S
Co126 O127 2.216 . S
Co126 O128 2.091 . S
Co126 O130 2.004 . S
Co126 O136 2.021 . S
Co126 O138 2.137 . S
Co126 O139 2.244 . S
O127 Co126 2.216 . S
O127 C134 1.247 . S
O128 Co126 2.091 . S
O128 C134 1.261 . S
C129 O138 1.247 . S
C129 O139 1.272 . S
O130 Co126 2.004 . S
O130 C135 1.259 . S
Co131 O132 2.061 . S
Co131 O137 2.052 . S
Co131 O139 2.135 . S
O132 Co131 2.061 . S
O132 C135 1.235 . S
C133 O136 1.238 . S
C133 O137 1.241 . S
C134 O127 1.247 . S
C134 O128 1.261 . S
C135 O130 1.259 . S
C135 O132 1.235 . S
O136 Co126 2.021 . S
O136 C133 1.238 . S
O137 Co131 2.052 . S
O137 C133 1.241 . S
O138 Co126 2.137 . S
O138 C129 1.247 . S
O139 Co126 2.244 . S
O139 C129 1.272 . S
O139 Co131 2.135 . S
Co140 O141 2.216 . S
Co140 O142 2.091 . S
Co140 O144 2.004 . S
Co140 O150 2.021 . S
Co140 O152 2.137 . S
Co140 O153 2.244 . S
O141 Co140 2.216 . S
O141 C148 1.247 . S
O142 Co140 2.091 . S
O142 C148 1.261 . S
C143 O152 1.247 . S
C143 O153 1.272 . S
O144 Co140 2.004 . S
O144 C149 1.259 . S
Co145 O146 2.061 . S
Co145 O151 2.052 . S
Co145 O153 2.135 . S
O146 Co145 2.061 . S
O146 C149 1.235 . S
C147 O150 1.238 . S
C147 O151 1.241 . S
C148 O141 1.247 . S
C148 O142 1.261 . S
C149 O144 1.259 . S
C149 O146 1.235 . S
O150 Co140 2.021 . S
O150 C147 1.238 . S
O151 Co145 2.052 . S
O151 C147 1.241 . S
O152 Co140 2.137 . S
O152 C143 1.247 . S
O153 Co140 2.244 . S
O153 C143 1.272 . S
O153 Co145 2.135 . S
Co154 O155 2.216 . S
Co154 O156 2.091 . S
Co154 O158 2.004 . S
Co154 O164 2.021 . S
Co154 O166 2.137 . S
Co154 O167 2.244 . S
O155 Co154 2.216 . S
O155 C162 1.247 . S
O156 Co154 2.091 . S
O156 C162 1.261 . S
C157 O166 1.247 . S
C157 O167 1.272 . S
O158 Co154 2.004 . S
O158 C163 1.259 . S
Co159 O160 2.061 . S
Co159 O165 2.052 . S
Co159 O167 2.135 . S
O160 Co159 2.061 . S
O160 C163 1.235 . S
C161 O164 1.238 . S
C161 O165 1.241 . S
C162 O155 1.247 . S
C162 O156 1.261 . S
C163 O158 1.259 . S
C163 O160 1.235 . S
O164 Co154 2.021 . S
O164 C161 1.238 . S
O165 Co159 2.052 . S
O165 C161 1.241 . S
O166 Co154 2.137 . S
O166 C157 1.247 . S
O167 Co154 2.244 . S
O167 C157 1.272 . S
O167 Co159 2.135 . S
Co168 O169 2.216 . S
Co168 O170 2.091 . S
Co168 O172 2.004 . S
Co168 O178 2.021 . S
Co168 O180 2.137 . S
Co168 O181 2.244 . S
O169 Co168 2.216 . S
O169 C176 1.247 . S
O170 Co168 2.091 . S
O170 C176 1.261 . S
C171 O180 1.247 . S
C171 O181 1.272 . S
O172 Co168 2.004 . S
O172 C177 1.259 . S
Co173 O174 2.061 . S
Co173 O179 2.052 . S
Co173 O181 2.135 . S
O174 Co173 2.061 . S
O174 C177 1.235 . S
C175 O178 1.238 . S
C175 O179 1.241 . S
C176 O169 1.247 . S
C176 O170 1.261 . S
C177 O172 1.259 . S
C177 O174 1.235 . S
O178 Co168 2.021 . S
O178 C175 1.238 . S
O179 Co173 2.052 . S
O179 C175 1.241 . S
O180 Co168 2.137 . S
O180 C171 1.247 . S
O181 Co168 2.244 . S
O181 C171 1.272 . S
O181 Co173 2.135 . S
Co182 O183 2.216 . S
Co182 O184 2.091 . S
Co182 O186 2.004 . S
Co182 O192 2.021 . S
Co182 O194 2.137 . S
Co182 O195 2.244 . S
O183 Co182 2.216 . S
O183 C190 1.247 . S
O184 Co182 2.091 . S
O184 C190 1.261 . S
C185 O194 1.247 . S
C185 O195 1.272 . S
O186 Co182 2.004 . S
O186 C191 1.259 . S
Co187 O188 2.061 . S
Co187 O193 2.052 . S
Co187 O195 2.135 . S
O188 Co187 2.061 . S
O188 C191 1.235 . S
C189 O192 1.238 . S
C189 O193 1.241 . S
C190 O183 1.247 . S
C190 O184 1.261 . S
C191 O186 1.259 . S
C191 O188 1.235 . S
O192 Co182 2.021 . S
O192 C189 1.238 . S
O193 Co187 2.052 . S
O193 C189 1.241 . S
O194 Co182 2.137 . S
O194 C185 1.247 . S
O195 Co182 2.244 . S
O195 C185 1.272 . S
O195 Co187 2.135 . S
Co196 O197 2.216 . S
Co196 O198 2.091 . S
Co196 O200 2.004 . S
Co196 O206 2.021 . S
Co196 O208 2.137 . S
Co196 O209 2.244 . S
O197 Co196 2.216 . S
O197 C204 1.247 . S
O198 Co196 2.091 . S
O198 C204 1.261 . S
C199 O208 1.247 . S
C199 O209 1.272 . S
O200 Co196 2.004 . S
O200 C205 1.259 . S
Co201 O202 2.061 . S
Co201 O207 2.052 . S
Co201 O209 2.135 . S
O202 Co201 2.061 . S
O202 C205 1.235 . S
C203 O206 1.238 . S
C203 O207 1.241 . S
C204 O197 1.247 . S
C204 O198 1.261 . S
C205 O200 1.259 . S
C205 O202 1.235 . S
O206 Co196 2.021 . S
O206 C203 1.238 . S
O207 Co201 2.052 . S
O207 C203 1.241 . S
O208 Co196 2.137 . S
O208 C199 1.247 . S
O209 Co196 2.244 . S
O209 C199 1.272 . S
O209 Co201 2.135 . S
Co210 O211 2.216 . S
Co210 O212 2.091 . S
Co210 O214 2.004 . S
Co210 O220 2.021 . S
Co210 O222 2.137 . S
Co210 O223 2.244 . S
O211 Co210 2.216 . S
O211 C218 1.247 . S
O212 Co210 2.091 . S
O212 C218 1.261 . S
C213 O222 1.247 . S
C213 O223 1.272 . S
O214 Co210 2.004 . S
O214 C219 1.259 . S
Co215 O216 2.061 . S
Co215 O221 2.052 . S
Co215 O223 2.135 . S
O216 Co215 2.061 . S
O216 C219 1.235 . S
C217 O220 1.238 . S
C217 O221 1.241 . S
C218 O211 1.247 . S
C218 O212 1.261 . S
C219 O214 1.259 . S
C219 O216 1.235 . S
O220 Co210 2.021 . S
O220 C217 1.238 . S
O221 Co215 2.052 . S
O221 C217 1.241 . S
O222 Co210 2.137 . S
O222 C213 1.247 . S
O223 Co210 2.244 . S
O223 C213 1.272 . S
O223 Co215 2.135 . S
Co224 O225 2.216 . S
Co224 O226 2.091 . S
Co224 O228 2.004 . S
Co224 O234 2.021 . S
Co224 O236 2.137 . S
Co224 O237 2.244 . S
O225 Co224 2.216 . S
O225 C232 1.247 . S
O226 Co224 2.091 . S
O226 C232 1.261 . S
C227 O236 1.247 . S
C227 O237 1.272 . S
O228 Co224 2.004 . S
O228 C233 1.259 . S
Co229 O230 2.061 . S
Co229 O235 2.052 . S
Co229 O237 2.135 . S
O230 Co229 2.061 . S
O230 C233 1.235 . S
C231 O234 1.238 . S
C231 O235 1.241 . S
C232 O225 1.247 . S
C232 O226 1.261 . S
C233 O228 1.259 . S
C233 O230 1.235 . S
O234 Co224 2.021 . S
O234 C231 1.238 . S
O235 Co229 2.052 . S
O235 C231 1.241 . S
O236 Co224 2.137 . S
O236 C227 1.247 . S
O237 Co224 2.244 . S
O237 C227 1.272 . S
O237 Co229 2.135 . S
Co238 O239 2.216 . S
Co238 O240 2.091 . S
Co238 O242 2.004 . S
Co238 O248 2.021 . S
Co238 O250 2.137 . S
Co238 O251 2.244 . S
O239 Co238 2.216 . S
O239 C246 1.247 . S
O240 Co238 2.091 . S
O240 C246 1.261 . S
C241 O250 1.247 . S
C241 O251 1.272 . S
O242 Co238 2.004 . S
O242 C247 1.259 . S
Co243 O244 2.061 . S
Co243 O249 2.052 . S
Co243 O251 2.135 . S
O244 Co243 2.061 . S
O244 C247 1.235 . S
C245 O248 1.238 . S
C245 O249 1.241 . S
C246 O239 1.247 . S
C246 O240 1.261 . S
C247 O242 1.259 . S
C247 O244 1.235 . S
O248 Co238 2.021 . S
O248 C245 1.238 . S
O249 Co243 2.052 . S
O249 C245 1.241 . S
O250 Co238 2.137 . S
O250 C241 1.247 . S
O251 Co238 2.244 . S
O251 C241 1.272 . S
O251 Co243 2.135 . S
Co252 O253 2.216 . S
Co252 O254 2.091 . S
Co252 O256 2.004 . S
Co252 O262 2.021 . S
Co252 O264 2.137 . S
Co252 O265 2.244 . S
O253 Co252 2.216 . S
O253 C260 1.247 . S
O254 Co252 2.091 . S
O254 C260 1.261 . S
C255 O264 1.247 . S
C255 O265 1.272 . S
O256 Co252 2.004 . S
O256 C261 1.259 . S
Co257 O258 2.061 . S
Co257 O263 2.052 . S
Co257 O265 2.135 . S
O258 Co257 2.061 . S
O258 C261 1.235 . S
C259 O262 1.238 . S
C259 O263 1.241 . S
C260 O253 1.247 . S
C260 O254 1.261 . S
C261 O256 1.259 . S
C261 O258 1.235 . S
O262 Co252 2.021 . S
O262 C259 1.238 . S
O263 Co257 2.052 . S
O263 C259 1.241 . S
O264 Co252 2.137 . S
O264 C255 1.247 . S
O265 Co252 2.244 . S
O265 C255 1.272 . S
O265 Co257 2.135 . S
Co266 O267 2.216 . S
Co266 O268 2.091 . S
Co266 O270 2.004 . S
Co266 O276 2.021 . S
Co266 O278 2.137 . S
Co266 O279 2.244 . S
O267 Co266 2.216 . S
O267 C274 1.247 . S
O268 Co266 2.091 . S
O268 C274 1.261 . S
C269 O278 1.247 . S
C269 O279 1.272 . S
O270 Co266 2.004 . S
O270 C275 1.259 . S
Co271 O272 2.061 . S
Co271 O277 2.052 . S
Co271 O279 2.135 . S
O272 Co271 2.061 . S
O272 C275 1.235 . S
C273 O276 1.238 . S
C273 O277 1.241 . S
C274 O267 1.247 . S
C274 O268 1.261 . S
C275 O270 1.259 . S
C275 O272 1.235 . S
O276 Co266 2.021 . S
O276 C273 1.238 . S
O277 Co271 2.052 . S
O277 C273 1.241 . S
O278 Co266 2.137 . S
O278 C269 1.247 . S
O279 Co266 2.244 . S
O279 C269 1.272 . S
O279 Co271 2.135 . S
Co280 O281 2.216 . S
Co280 O282 2.091 . S
Co280 O284 2.004 . S
Co280 O290 2.021 . S
Co280 O292 2.137 . S
Co280 O293 2.244 . S
O281 Co280 2.216 . S
O281 C288 1.247 . S
O282 Co280 2.091 . S
O282 C288 1.261 . S
C283 O292 1.247 . S
C283 O293 1.272 . S
O284 Co280 2.004 . S
O284 C289 1.259 . S
Co285 O286 2.061 . S
Co285 O291 2.052 . S
Co285 O293 2.135 . S
O286 Co285 2.061 . S
O286 C289 1.235 . S
C287 O290 1.238 . S
C287 O291 1.241 . S
C288 O281 1.247 . S
C288 O282 1.261 . S
C289 O284 1.259 . S
C289 O286 1.235 . S
O290 Co280 2.021 . S
O290 C287 1.238 . S
O291 Co285 2.052 . S
O291 C287 1.241 . S
O292 Co280 2.137 . S
O292 C283 1.247 . S
O293 Co280 2.244 . S
O293 C283 1.272 . S
O293 Co285 2.135 . S
Co294 O295 2.216 . S
Co294 O296 2.091 . S
Co294 O298 2.004 . S
Co294 O304 2.021 . S
Co294 O306 2.137 . S
Co294 O307 2.244 . S
O295 Co294 2.216 . S
O295 C302 1.247 . S
O296 Co294 2.091 . S
O296 C302 1.261 . S
C297 O306 1.247 . S
C297 O307 1.272 . S
O298 Co294 2.004 . S
O298 C303 1.259 . S
Co299 O300 2.061 . S
Co299 O305 2.052 . S
Co299 O307 2.135 . S
O300 Co299 2.061 . S
O300 C303 1.235 . S
C301 O304 1.238 . S
C301 O305 1.241 . S
C302 O295 1.247 . S
C302 O296 1.261 . S
C303 O298 1.259 . S
C303 O300 1.235 . S
O304 Co294 2.021 . S
O304 C301 1.238 . S
O305 Co299 2.052 . S
O305 C301 1.241 . S
O306 Co294 2.137 . S
O306 C297 1.247 . S
O307 Co294 2.244 . S
O307 C297 1.272 . S
O307 Co299 2.135 . S
Co308 O309 2.216 . S
Co308 O310 2.091 . S
Co308 O312 2.004 . S
Co308 O318 2.021 . S
Co308 O320 2.137 . S
Co308 O321 2.244 . S
O309 Co308 2.216 . S
O309 C316 1.247 . S
O310 Co308 2.091 . S
O310 C316 1.261 . S
C311 O320 1.247 . S
C311 O321 1.272 . S
O312 Co308 2.004 . S
O312 C317 1.259 . S
Co313 O314 2.061 . S
Co313 O319 2.052 . S
Co313 O321 2.135 . S
O314 Co313 2.061 . S
O314 C317 1.235 . S
C315 O318 1.238 . S
C315 O319 1.241 . S
C316 O309 1.247 . S
C316 O310 1.261 . S
C317 O312 1.259 . S
C317 O314 1.235 . S
O318 Co308 2.021 . S
O318 C315 1.238 . S
O319 Co313 2.052 . S
O319 C315 1.241 . S
O320 Co308 2.137 . S
O320 C311 1.247 . S
O321 Co308 2.244 . S
O321 C311 1.272 . S
O321 Co313 2.135 . S
Co322 O323 2.216 . S
Co322 O324 2.091 . S
Co322 O326 2.004 . S
Co322 O332 2.021 . S
Co322 O334 2.137 . S
Co322 O335 2.244 . S
O323 Co322 2.216 . S
O323 C330 1.247 . S
O324 Co322 2.091 . S
O324 C330 1.261 . S
C325 O334 1.247 . S
C325 O335 1.272 . S
O326 Co322 2.004 . S
O326 C331 1.259 . S
Co327 O328 2.061 . S
Co327 O333 2.052 . S
Co327 O335 2.135 . S
O328 Co327 2.061 . S
O328 C331 1.235 . S
C329 O332 1.238 . S
C329 O333 1.241 . S
C330 O323 1.247 . S
C330 O324 1.261 . S
C331 O326 1.259 . S
C331 O328 1.235 . S
O332 Co322 2.021 . S
O332 C329 1.238 . S
O333 Co327 2.052 . S
O333 C329 1.241 . S
O334 Co322 2.137 . S
O334 C325 1.247 . S
O335 Co322 2.244 . S
O335 C325 1.272 . S
O335 Co327 2.135 . S
H336 C348 0.930 . S
H337 C350 0.930 . S
H338 C351 0.930 . S
H339 C355 0.959 1_565 S
H340 C355 0.959 1_565 S
H341 C355 0.961 . S
H342 C356 0.960 . S
H343 C356 0.961 . S
H344 C356 0.959 . S
H345 C359 0.929 . S
H346 C360 0.931 . S
H347 C362 0.930 . S
C348 H336 0.930 . S
C348 C349 1.399 . S
C348 C353 1.399 . S
C349 C348 1.399 . S
C349 C350 1.376 . S
C350 H337 0.930 . S
C350 C349 1.376 . S
C350 C351 1.388 . S
C351 H338 0.930 . S
C351 C350 1.388 . S
C351 C352 1.390 . S
C352 C351 1.390 . S
C352 C353 1.394 . S
C352 C358 1.465 1_545 S
C353 C348 1.399 . S
C353 C352 1.394 . S
C353 C354 1.516 . S
C354 C353 1.516 . S
C354 C355 1.502 . S
C354 C356 1.561 . S
C354 C357 1.526 1_545 S
C355 H339 0.959 1_545 S
C355 H340 0.959 1_545 S
C355 H341 0.961 . S
C355 C354 1.502 . S
C356 H342 0.960 . S
C356 H343 0.961 . S
C356 H344 0.959 . S
C356 C354 1.561 . S
C357 C354 1.526 1_565 S
C357 C358 1.396 . S
C357 C362 1.390 . S
C358 C352 1.465 1_565 S
C358 C357 1.396 . S
C358 C359 1.399 . S
C359 H345 0.929 . S
C359 C358 1.399 . S
C359 C360 1.385 . S
C360 H346 0.931 . S
C360 C359 1.385 . S
C360 C361 1.389 . S
C361 C360 1.389 . S
C361 C362 1.387 . S
C362 H347 0.930 . S
C362 C357 1.390 . S
C362 C361 1.387 . S
H363 C375 0.930 . S
H364 C377 0.930 . S
H365 C378 0.930 . S
H366 C382 0.959 . S
H367 C382 0.959 . S
H368 C382 0.961 . S
H369 C383 0.960 . S
H370 C383 0.961 . S
H371 C383 0.959 . S
H372 C386 0.929 . S
H373 C387 0.931 . S
H374 C389 0.930 . S
C375 H363 0.930 . S
C375 C376 1.399 . S
C375 C380 1.399 . S
C376 C375 1.399 . S
C376 C377 1.376 . S
C377 H364 0.930 . S
C377 C376 1.376 . S
C377 C378 1.388 . S
C378 H365 0.930 . S
C378 C377 1.388 . S
C378 C379 1.390 . S
C379 C378 1.390 . S
C379 C380 1.394 . S
C379 C385 1.465 . S
C380 C375 1.399 . S
C380 C379 1.394 . S
C380 C381 1.516 . S
C381 C380 1.516 . S
C381 C382 1.502 . S
C381 C383 1.561 . S
C381 C384 1.526 . S
C382 H366 0.959 . S
C382 H367 0.959 . S
C382 H368 0.961 . S
C382 C381 1.502 . S
C383 H369 0.960 . S
C383 H370 0.961 . S
C383 H371 0.959 . S
C383 C381 1.561 . S
C384 C381 1.526 . S
C384 C385 1.396 . S
C384 C389 1.390 . S
C385 C379 1.465 . S
C385 C384 1.396 . S
C385 C386 1.399 . S
C386 H372 0.929 . S
C386 C385 1.399 . S
C386 C387 1.385 . S
C387 H373 0.931 . S
C387 C386 1.385 . S
C387 C388 1.389 . S
C388 C387 1.389 . S
C388 C389 1.387 . S
C389 H374 0.930 . S
C389 C384 1.390 . S
C389 C388 1.387 . S
H390 C402 0.930 . S
H391 C404 0.930 . S
H392 C405 0.930 . S
H393 C409 0.959 . S
H394 C409 0.959 . S
H395 C409 0.961 . S
H396 C410 0.960 . S
H397 C410 0.961 . S
H398 C410 0.959 . S
H399 C413 0.929 . S
H400 C414 0.931 . S
H401 C416 0.930 . S
C402 H390 0.930 . S
C402 C403 1.399 . S
C402 C407 1.399 . S
C403 C402 1.399 . S
C403 C404 1.376 . S
C404 H391 0.930 . S
C404 C403 1.376 . S
C404 C405 1.388 . S
C405 H392 0.930 . S
C405 C404 1.388 . S
C405 C406 1.390 . S
C406 C405 1.390 . S
C406 C407 1.394 . S
C406 C412 1.465 1_655 S
C407 C402 1.399 . S
C407 C406 1.394 . S
C407 C408 1.516 . S
C408 C407 1.516 . S
C408 C409 1.502 . S
C408 C410 1.561 . S
C408 C411 1.526 1_655 S
C409 H393 0.959 . S
C409 H394 0.959 . S
C409 H395 0.961 . S
C409 C408 1.502 . S
C410 H396 0.960 . S
C410 H397 0.961 . S
C410 H398 0.959 . S
C410 C408 1.561 . S
C411 C408 1.526 1_455 S
C411 C412 1.396 . S
C411 C416 1.390 . S
C412 C406 1.465 1_455 S
C412 C411 1.396 . S
C412 C413 1.399 . S
C413 H399 0.929 . S
C413 C412 1.399 . S
C413 C414 1.385 . S
C414 H400 0.931 . S
C414 C413 1.385 . S
C414 C415 1.389 . S
C415 C414 1.389 . S
C415 C416 1.387 . S
C416 H401 0.930 . S
C416 C411 1.390 . S
C416 C415 1.387 . S
H417 C429 0.930 . S
H418 C431 0.930 . S
H419 C432 0.930 . S
H420 C436 0.959 . S
H421 C436 0.959 . S
H422 C436 0.961 . S
H423 C437 0.960 . S
H424 C437 0.961 . S
H425 C437 0.959 . S
H426 C440 0.929 . S
H427 C441 0.931 . S
H428 C443 0.930 . S
C429 H417 0.930 . S
C429 C430 1.399 . S
C429 C434 1.399 . S
C430 C429 1.399 . S
C430 C431 1.376 . S
C431 H418 0.930 . S
C431 C430 1.376 . S
C431 C432 1.388 . S
C432 H419 0.930 . S
C432 C431 1.388 . S
C432 C433 1.390 . S
C433 C432 1.390 . S
C433 C434 1.394 . S
C433 C439 1.465 1_565 S
C434 C429 1.399 . S
C434 C433 1.394 . S
C434 C435 1.516 1_565 S
C435 C434 1.516 1_545 S
C435 C436 1.502 . S
C435 C437 1.561 . S
C435 C438 1.526 . S
C436 H420 0.959 . S
C436 H421 0.959 . S
C436 H422 0.961 . S
C436 C435 1.502 . S
C437 H423 0.960 . S
C437 H424 0.961 . S
C437 H425 0.959 . S
C437 C435 1.561 . S
C438 C435 1.526 . S
C438 C439 1.396 . S
C438 C443 1.390 . S
C439 C433 1.465 1_545 S
C439 C438 1.396 . S
C439 C440 1.399 . S
C440 H426 0.929 . S
C440 C439 1.399 . S
C440 C441 1.385 . S
C441 H427 0.931 . S
C441 C440 1.385 . S
C441 C442 1.389 . S
C442 C441 1.389 . S
C442 C443 1.387 . S
C443 H428 0.930 . S
C443 C438 1.390 . S
C443 C442 1.387 . S
H444 C456 0.930 . S
H445 C458 0.930 . S
H446 C459 0.930 . S
H447 C463 0.959 . S
H448 C463 0.959 . S
H449 C463 0.961 . S
H450 C464 0.960 . S
H451 C464 0.961 . S
H452 C464 0.959 . S
H453 C467 0.929 . S
H454 C468 0.931 . S
H455 C470 0.930 . S
C456 H444 0.930 . S
C456 C457 1.399 . S
C456 C461 1.399 . S
C457 C456 1.399 . S
C457 C458 1.376 . S
C458 H445 0.930 . S
C458 C457 1.376 . S
C458 C459 1.388 . S
C459 H446 0.930 . S
C459 C458 1.388 . S
C459 C460 1.390 . S
C460 C459 1.390 . S
C460 C461 1.394 . S
C460 C466 1.465 . S
C461 C456 1.399 . S
C461 C460 1.394 . S
C461 C462 1.516 . S
C462 C461 1.516 . S
C462 C463 1.502 . S
C462 C464 1.561 . S
C462 C465 1.526 . S
C463 H447 0.959 . S
C463 H448 0.959 . S
C463 H449 0.961 . S
C463 C462 1.502 . S
C464 H450 0.960 . S
C464 H451 0.961 . S
C464 H452 0.959 . S
C464 C462 1.561 . S
C465 C462 1.526 . S
C465 C466 1.396 . S
C465 C470 1.390 . S
C466 C460 1.465 . S
C466 C465 1.396 . S
C466 C467 1.399 . S
C467 H453 0.929 . S
C467 C466 1.399 . S
C467 C468 1.385 . S
C468 H454 0.931 . S
C468 C467 1.385 . S
C468 C469 1.389 . S
C469 C468 1.389 . S
C469 C470 1.387 . S
C470 H455 0.930 . S
C470 C465 1.390 . S
C470 C469 1.387 . S
H471 C483 0.930 . S
H472 C485 0.930 . S
H473 C486 0.930 . S
H474 C490 0.959 . S
H475 C490 0.959 . S
H476 C490 0.961 . S
H477 C491 0.960 1_455 S
H478 C491 0.961 . S
H479 C491 0.959 . S
H480 C494 0.929 . S
H481 C495 0.931 . S
H482 C497 0.930 . S
C483 H471 0.930 . S
C483 C484 1.399 . S
C483 C488 1.399 . S
C484 C483 1.399 . S
C484 C485 1.376 . S
C485 H472 0.930 . S
C485 C484 1.376 . S
C485 C486 1.388 . S
C486 H473 0.930 . S
C486 C485 1.388 . S
C486 C487 1.390 . S
C487 C486 1.390 . S
C487 C488 1.394 . S
C487 C493 1.465 1_455 S
C488 C483 1.399 . S
C488 C487 1.394 . S
C488 C489 1.516 1_455 S
C489 C488 1.516 1_655 S
C489 C490 1.502 . S
C489 C491 1.561 . S
C489 C492 1.526 . S
C490 H474 0.959 . S
C490 H475 0.959 . S
C490 H476 0.961 . S
C490 C489 1.502 . S
C491 H477 0.960 1_655 S
C491 H478 0.961 . S
C491 H479 0.959 . S
C491 C489 1.561 . S
C492 C489 1.526 . S
C492 C493 1.396 . S
C492 C497 1.390 . S
C493 C487 1.465 1_655 S
C493 C492 1.396 . S
C493 C494 1.399 . S
C494 H480 0.929 . S
C494 C493 1.399 . S
C494 C495 1.385 . S
C495 H481 0.931 . S
C495 C494 1.385 . S
C495 C496 1.389 . S
C496 C495 1.389 . S
C496 C497 1.387 . S
C497 H482 0.930 . S
C497 C492 1.390 . S
C497 C496 1.387 . S
H498 C510 0.930 . S
H499 C512 0.930 . S
H500 C513 0.930 . S
H501 C517 0.959 . S
H502 C517 0.959 . S
H503 C517 0.976 . S
H504 C518 0.960 . S
H505 C518 0.961 . S
H506 C518 0.959 . S
H507 C521 0.929 . S
H508 C522 0.931 . S
H509 C524 0.930 . S
C510 H498 0.930 . S
C510 C511 1.399 . S
C510 C515 1.399 . S
C511 C510 1.399 . S
C511 C512 1.376 . S
C512 H499 0.930 . S
C512 C511 1.376 . S
C512 C513 1.388 . S
C513 H500 0.930 . S
C513 C512 1.388 . S
C513 C514 1.390 . S
C514 C513 1.390 . S
C514 C515 1.394 . S
C514 C520 1.465 1_565 S
C515 C510 1.399 . S
C515 C514 1.394 . S
C515 C516 1.516 1_565 S
C516 C515 1.516 1_545 S
C516 C517 1.502 . S
C516 C518 1.561 . S
C516 C519 1.526 . S
C517 H501 0.959 . S
C517 H502 0.959 . S
C517 H503 0.976 . S
C517 C516 1.502 . S
C518 H504 0.960 . S
C518 H505 0.961 . S
C518 H506 0.959 . S
C518 C516 1.561 . S
C519 C516 1.526 . S
C519 C520 1.396 . S
C519 C524 1.390 . S
C520 C514 1.465 1_545 S
C520 C519 1.396 . S
C520 C521 1.399 . S
C521 H507 0.929 . S
C521 C520 1.399 . S
C521 C522 1.385 . S
C522 H508 0.931 . S
C522 C521 1.385 . S
C522 C523 1.389 . S
C523 C522 1.389 . S
C523 C524 1.387 . S
C524 H509 0.930 . S
C524 C519 1.390 . S
C524 C523 1.387 . S
H525 C537 0.930 . S
H526 C539 0.930 . S
H527 C540 0.930 . S
H528 C544 0.959 . S
H529 C544 0.959 . S
H530 C544 0.961 . S
H531 C545 0.960 . S
H532 C545 0.961 . S
H533 C545 0.959 . S
H534 C548 0.929 . S
H535 C549 0.931 . S
H536 C551 0.930 . S
C537 H525 0.930 . S
C537 C538 1.399 . S
C537 C542 1.399 . S
C538 C537 1.399 . S
C538 C539 1.376 . S
C539 H526 0.930 . S
C539 C538 1.376 . S
C539 C540 1.388 . S
C540 H527 0.930 . S
C540 C539 1.388 . S
C540 C541 1.390 . S
C541 C540 1.390 . S
C541 C542 1.394 . S
C541 C547 1.465 . S
C542 C537 1.399 . S
C542 C541 1.394 . S
C542 C543 1.516 . S
C543 C542 1.516 . S
C543 C544 1.502 . S
C543 C545 1.561 . S
C543 C546 1.526 . S
C544 H528 0.959 . S
C544 H529 0.959 . S
C544 H530 0.961 . S
C544 C543 1.502 . S
C545 H531 0.960 . S
C545 H532 0.961 . S
C545 H533 0.959 . S
C545 C543 1.561 . S
C546 C543 1.526 . S
C546 C547 1.396 . S
C546 C551 1.390 . S
C547 C541 1.465 . S
C547 C546 1.396 . S
C547 C548 1.399 . S
C548 H534 0.929 . S
C548 C547 1.399 . S
C548 C549 1.385 . S
C549 H535 0.931 . S
C549 C548 1.385 . S
C549 C550 1.389 . S
C550 C549 1.389 . S
C550 C551 1.387 . S
C551 H536 0.930 . S
C551 C546 1.390 . S
C551 C550 1.387 . S
H552 C564 0.930 . S
H553 C566 0.930 . S
H554 C567 0.930 . S
H555 C571 0.959 . S
H556 C571 0.959 . S
H557 C571 0.961 . S
H558 C572 0.960 . S
H559 C572 0.961 . S
H560 C572 0.959 . S
H561 C575 0.929 . S
H562 C576 0.931 . S
H563 C578 0.930 . S
C564 H552 0.930 . S
C564 C565 1.399 . S
C564 C569 1.399 . S
C565 C564 1.399 . S
C565 C566 1.376 . S
C566 H553 0.930 . S
C566 C565 1.376 . S
C566 C567 1.388 . S
C567 H554 0.930 . S
C567 C566 1.388 . S
C567 C568 1.390 . S
C568 C567 1.390 . S
C568 C569 1.394 . S
C568 C574 1.465 1_655 S
C569 C564 1.399 . S
C569 C568 1.394 . S
C569 C570 1.516 1_655 S
C570 C569 1.516 1_455 S
C570 C571 1.502 . S
C570 C572 1.561 . S
C570 C573 1.526 . S
C571 H555 0.959 . S
C571 H556 0.959 . S
C571 H557 0.961 . S
C571 C570 1.502 . S
C572 H558 0.960 . S
C572 H559 0.961 . S
C572 H560 0.959 . S
C572 C570 1.561 . S
C573 C570 1.526 . S
C573 C574 1.396 . S
C573 C578 1.390 . S
C574 C568 1.465 1_455 S
C574 C573 1.396 . S
C574 C575 1.399 . S
C575 H561 0.929 . S
C575 C574 1.399 . S
C575 C576 1.385 . S
C576 H562 0.931 . S
C576 C575 1.385 . S
C576 C577 1.389 . S
C577 C576 1.389 . S
C577 C578 1.387 . S
C578 H563 0.930 . S
C578 C573 1.390 . S
C578 C577 1.387 . S
H579 C591 0.930 . S
H580 C593 0.930 . S
H581 C594 0.930 . S
H582 C598 0.959 . S
H583 C598 0.959 . S
H584 C598 0.961 . S
H585 C599 0.960 . S
H586 C599 0.961 1_565 S
H587 C599 0.954 1_565 S
H588 C602 0.929 . S
H589 C603 0.931 . S
H590 C605 0.930 . S
C591 H579 0.930 . S
C591 C592 1.399 . S
C591 C596 1.399 . S
C592 C591 1.399 . S
C592 C593 1.376 . S
C593 H580 0.930 . S
C593 C592 1.376 . S
C593 C594 1.388 . S
C594 H581 0.930 . S
C594 C593 1.388 . S
C594 C595 1.390 . S
C595 C594 1.390 . S
C595 C596 1.394 . S
C595 C601 1.465 1_545 S
C596 C591 1.399 . S
C596 C595 1.394 . S
C596 C597 1.516 . S
C597 C596 1.516 . S
C597 C598 1.502 . S
C597 C599 1.561 . S
C597 C600 1.526 1_545 S
C598 H582 0.959 . S
C598 H583 0.959 . S
C598 H584 0.961 . S
C598 C597 1.502 . S
C599 H585 0.960 . S
C599 H586 0.961 1_545 S
C599 H587 0.954 1_545 S
C599 C597 1.561 . S
C600 C597 1.526 1_565 S
C600 C601 1.396 . S
C600 C605 1.390 . S
C601 C595 1.465 1_565 S
C601 C600 1.396 . S
C601 C602 1.399 . S
C602 H588 0.929 . S
C602 C601 1.399 . S
C602 C603 1.385 . S
C603 H589 0.931 . S
C603 C602 1.385 . S
C603 C604 1.389 . S
C604 C603 1.389 . S
C604 C605 1.387 . S
C605 H590 0.930 . S
C605 C600 1.390 . S
C605 C604 1.387 . S
H606 C618 0.930 . S
H607 C620 0.930 . S
H608 C621 0.930 . S
H609 C625 0.959 . S
H610 C625 0.959 . S
H611 C625 0.961 . S
H612 C626 0.960 . S
H613 C626 0.961 . S
H614 C626 0.959 . S
H615 C629 0.929 . S
H616 C630 0.931 . S
H617 C632 0.930 . S
C618 H606 0.930 . S
C618 C619 1.399 . S
C618 C623 1.399 . S
C619 C618 1.399 . S
C619 C620 1.376 . S
C620 H607 0.930 . S
C620 C619 1.376 . S
C620 C621 1.388 . S
C621 H608 0.930 . S
C621 C620 1.388 . S
C621 C622 1.390 . S
C622 C621 1.390 . S
C622 C623 1.394 . S
C622 C628 1.465 . S
C623 C618 1.399 . S
C623 C622 1.394 . S
C623 C624 1.516 . S
C624 C623 1.516 . S
C624 C625 1.502 . S
C624 C626 1.561 . S
C624 C627 1.526 . S
C625 H609 0.959 . S
C625 H610 0.959 . S
C625 H611 0.961 . S
C625 C624 1.502 . S
C626 H612 0.960 . S
C626 H613 0.961 . S
C626 H614 0.959 . S
C626 C624 1.561 . S
C627 C624 1.526 . S
C627 C628 1.396 . S
C627 C632 1.390 . S
C628 C622 1.465 . S
C628 C627 1.396 . S
C628 C629 1.399 . S
C629 H615 0.929 . S
C629 C628 1.399 . S
C629 C630 1.385 . S
C630 H616 0.931 . S
C630 C629 1.385 . S
C630 C631 1.389 . S
C631 C630 1.389 . S
C631 C632 1.387 . S
C632 H617 0.930 . S
C632 C627 1.390 . S
C632 C631 1.387 . S
H633 C645 0.930 . S
H634 C647 0.930 . S
H635 C648 0.930 . S
H636 C652 0.959 . S
H637 C652 0.959 . S
H638 C652 0.961 . S
H639 C653 0.960 1_455 S
H640 C653 0.961 . S
H641 C653 0.959 . S
H642 C656 0.929 . S
H643 C657 0.931 . S
H644 C659 0.930 . S
C645 H633 0.930 . S
C645 C646 1.399 . S
C645 C650 1.399 . S
C646 C645 1.399 . S
C646 C647 1.376 . S
C647 H634 0.930 . S
C647 C646 1.376 . S
C647 C648 1.388 . S
C648 H635 0.930 . S
C648 C647 1.388 . S
C648 C649 1.390 . S
C649 C648 1.390 . S
C649 C650 1.394 . S
C649 C655 1.465 1_455 S
C650 C645 1.399 . S
C650 C649 1.394 . S
C650 C651 1.516 1_455 S
C651 C650 1.516 1_655 S
C651 C652 1.502 . S
C651 C653 1.561 . S
C651 C654 1.526 . S
C652 H636 0.959 . S
C652 H637 0.959 . S
C652 H638 0.961 . S
C652 C651 1.502 . S
C653 H639 0.960 1_655 S
C653 H640 0.961 . S
C653 H641 0.959 . S
C653 C651 1.561 . S
C654 C651 1.526 . S
C654 C655 1.396 . S
C654 C659 1.390 . S
C655 C649 1.465 1_655 S
C655 C654 1.396 . S
C655 C656 1.399 . S
C656 H642 0.929 . S
C656 C655 1.399 . S
C656 C657 1.385 . S
C657 H643 0.931 . S
C657 C656 1.385 . S
C657 C658 1.389 . S
C658 C657 1.389 . S
C658 C659 1.387 . S
C659 H644 0.930 . S
C659 C654 1.390 . S
C659 C658 1.387 . S
H660 C672 0.930 . S
H661 C674 0.930 . S
H662 C675 0.930 . S
H663 C679 0.959 . S
H664 C679 0.959 . S
H665 C679 0.961 . S
H666 C680 0.960 . S
H667 C680 0.961 . S
H668 C680 0.959 . S
H669 C683 0.929 . S
H670 C684 0.931 . S
H671 C686 0.930 . S
C672 H660 0.930 . S
C672 C673 1.399 . S
C672 C677 1.399 . S
C673 C672 1.399 . S
C673 C674 1.376 . S
C674 H661 0.930 . S
C674 C673 1.376 . S
C674 C675 1.388 . S
C675 H662 0.930 . S
C675 C674 1.388 . S
C675 C676 1.390 . S
C676 C675 1.390 . S
C676 C677 1.394 . S
C676 C682 1.465 . S
C677 C672 1.399 . S
C677 C676 1.394 . S
C677 C678 1.516 . S
C678 C677 1.516 . S
C678 C679 1.502 . S
C678 C680 1.561 . S
C678 C681 1.526 . S
C679 H663 0.959 . S
C679 H664 0.959 . S
C679 H665 0.961 . S
C679 C678 1.502 . S
C680 H666 0.960 . S
C680 H667 0.961 . S
C680 H668 0.959 . S
C680 C678 1.561 . S
C681 C678 1.526 . S
C681 C682 1.396 . S
C681 C686 1.390 . S
C682 C676 1.465 . S
C682 C681 1.396 . S
C682 C683 1.399 . S
C683 H669 0.929 . S
C683 C682 1.399 . S
C683 C684 1.385 . S
C684 H670 0.931 . S
C684 C683 1.385 . S
C684 C685 1.389 . S
C685 C684 1.389 . S
C685 C686 1.387 . S
C686 H671 0.930 . S
C686 C681 1.390 . S
C686 C685 1.387 . S
H687 C699 0.930 . S
H688 C701 0.930 . S
H689 C702 0.930 . S
H690 C706 0.959 . S
H691 C706 0.959 . S
H692 C706 0.961 . S
H693 C707 0.960 . S
H694 C707 0.961 . S
H695 C707 0.959 . S
H696 C710 0.929 . S
H697 C711 0.931 . S
H698 C713 0.930 . S
C699 H687 0.930 . S
C699 C700 1.399 . S
C699 C704 1.399 . S
C700 C699 1.399 . S
C700 C701 1.376 . S
C701 H688 0.930 . S
C701 C700 1.376 . S
C701 C702 1.388 . S
C702 H689 0.930 . S
C702 C701 1.388 . S
C702 C703 1.390 . S
C703 C702 1.390 . S
C703 C704 1.394 . S
C703 C709 1.465 . S
C704 C699 1.399 . S
C704 C703 1.394 . S
C704 C705 1.516 . S
C705 C704 1.516 . S
C705 C706 1.502 . S
C705 C707 1.561 . S
C705 C708 1.526 . S
C706 H690 0.959 . S
C706 H691 0.959 . S
C706 H692 0.961 . S
C706 C705 1.502 . S
C707 H693 0.960 . S
C707 H694 0.961 . S
C707 H695 0.959 . S
C707 C705 1.561 . S
C708 C705 1.526 . S
C708 C709 1.396 . S
C708 C713 1.390 . S
C709 C703 1.465 . S
C709 C708 1.396 . S
C709 C710 1.399 . S
C710 H696 0.929 . S
C710 C709 1.399 . S
C710 C711 1.385 . S
C711 H697 0.931 . S
C711 C710 1.385 . S
C711 C712 1.389 . S
C712 C711 1.389 . S
C712 C713 1.387 . S
C713 H698 0.930 . S
C713 C708 1.390 . S
C713 C712 1.387 . S
H714 C726 0.930 . S
H715 C728 0.930 . S
H716 C729 0.930 . S
H717 C733 0.959 . S
H718 C733 0.959 . S
H719 C733 0.961 . S
H720 C734 0.960 . S
H721 C734 0.961 . S
H722 C734 0.959 . S
H723 C737 0.929 . S
H724 C738 0.931 . S
H725 C740 0.930 . S
C726 H714 0.930 . S
C726 C727 1.399 . S
C726 C731 1.399 . S
C727 C726 1.399 . S
C727 C728 1.376 . S
C728 H715 0.930 . S
C728 C727 1.376 . S
C728 C729 1.388 . S
C729 H716 0.930 . S
C729 C728 1.388 . S
C729 C730 1.390 . S
C730 C729 1.390 . S
C730 C731 1.394 . S
C730 C736 1.465 . S
C731 C726 1.399 . S
C731 C730 1.394 . S
C731 C732 1.516 . S
C732 C731 1.516 . S
C732 C733 1.502 . S
C732 C734 1.561 . S
C732 C735 1.526 . S
C733 H717 0.959 . S
C733 H718 0.959 . S
C733 H719 0.961 . S
C733 C732 1.502 . S
C734 H720 0.960 . S
C734 H721 0.961 . S
C734 H722 0.959 . S
C734 C732 1.561 . S
C735 C732 1.526 . S
C735 C736 1.396 . S
C735 C740 1.390 . S
C736 C730 1.465 . S
C736 C735 1.396 . S
C736 C737 1.399 . S
C737 H723 0.929 . S
C737 C736 1.399 . S
C737 C738 1.385 . S
C738 H724 0.931 . S
C738 C737 1.385 . S
C738 C739 1.389 . S
C739 C738 1.389 . S
C739 C740 1.387 . S
C740 H725 0.930 . S
C740 C735 1.390 . S
C740 C739 1.387 . S
H741 C753 0.930 . S
H742 C755 0.930 . S
H743 C756 0.930 . S
H744 C760 0.959 . S
H745 C760 0.959 . S
H746 C760 0.961 . S
H747 C761 0.960 . S
H748 C761 0.961 . S
H749 C761 0.959 . S
H750 C764 0.929 . S
H751 C765 0.931 . S
H752 C767 0.930 . S
C753 H741 0.930 . S
C753 C754 1.399 . S
C753 C758 1.399 . S
C754 C753 1.399 . S
C754 C755 1.376 . S
C755 H742 0.930 . S
C755 C754 1.376 . S
C755 C756 1.388 . S
C756 H743 0.930 . S
C756 C755 1.388 . S
C756 C757 1.390 . S
C757 C756 1.390 . S
C757 C758 1.394 . S
C757 C763 1.465 . S
C758 C753 1.399 . S
C758 C757 1.394 . S
C758 C759 1.516 . S
C759 C758 1.516 . S
C759 C760 1.502 . S
C759 C761 1.561 . S
C759 C762 1.526 . S
C760 H744 0.959 . S
C760 H745 0.959 . S
C760 H746 0.961 . S
C760 C759 1.502 . S
C761 H747 0.960 . S
C761 H748 0.961 . S
C761 H749 0.959 . S
C761 C759 1.561 . S
C762 C759 1.526 . S
C762 C763 1.396 . S
C762 C767 1.390 . S
C763 C757 1.465 . S
C763 C762 1.396 . S
C763 C764 1.399 . S
C764 H750 0.929 . S
C764 C763 1.399 . S
C764 C765 1.385 . S
C765 H751 0.931 . S
C765 C764 1.385 . S
C765 C766 1.389 . S
C766 C765 1.389 . S
C766 C767 1.387 . S
C767 H752 0.930 . S
C767 C762 1.390 . S
C767 C766 1.387 . S
H768 C780 0.930 . S
H769 C782 0.930 . S
H770 C783 0.930 . S
H771 C787 0.959 . S
H772 C787 0.959 . S
H773 C787 0.961 . S
H774 C788 0.960 . S
H775 C788 0.961 . S
H776 C788 0.959 . S
H777 C791 0.929 . S
H778 C792 0.931 . S
H779 C794 0.930 . S
C780 H768 0.930 . S
C780 C781 1.399 . S
C780 C785 1.399 . S
C781 C780 1.399 . S
C781 C782 1.376 . S
C782 H769 0.930 . S
C782 C781 1.376 . S
C782 C783 1.388 . S
C783 H770 0.930 . S
C783 C782 1.388 . S
C783 C784 1.390 . S
C784 C783 1.390 . S
C784 C785 1.394 . S
C784 C790 1.465 . S
C785 C780 1.399 . S
C785 C784 1.394 . S
C785 C786 1.516 . S
C786 C785 1.516 . S
C786 C787 1.502 . S
C786 C788 1.561 . S
C786 C789 1.526 . S
C787 H771 0.959 . S
C787 H772 0.959 . S
C787 H773 0.961 . S
C787 C786 1.502 . S
C788 H774 0.960 . S
C788 H775 0.961 . S
C788 H776 0.959 . S
C788 C786 1.561 . S
C789 C786 1.526 . S
C789 C790 1.396 . S
C789 C794 1.390 . S
C790 C784 1.465 . S
C790 C789 1.396 . S
C790 C791 1.399 . S
C791 H777 0.929 . S
C791 C790 1.399 . S
C791 C792 1.385 . S
C792 H778 0.931 . S
C792 C791 1.385 . S
C792 C793 1.389 . S
C793 C792 1.389 . S
C793 C794 1.387 . S
C794 H779 0.930 . S
C794 C789 1.390 . S
C794 C793 1.387 . S
H795 C807 0.930 . S
H796 C809 0.930 . S
H797 C810 0.930 . S
H798 C814 0.959 . S
H799 C814 0.959 . S
H800 C814 0.961 . S
H801 C815 0.960 . S
H802 C815 0.961 . S
H803 C815 0.959 . S
H804 C818 0.929 . S
H805 C819 0.931 . S
H806 C821 0.930 . S
C807 H795 0.930 . S
C807 C808 1.399 . S
C807 C812 1.399 . S
C808 C807 1.399 . S
C808 C809 1.376 . S
C809 H796 0.930 . S
C809 C808 1.376 . S
C809 C810 1.388 . S
C810 H797 0.930 . S
C810 C809 1.388 . S
C810 C811 1.390 . S
C811 C810 1.390 . S
C811 C812 1.394 . S
C811 C817 1.465 . S
C812 C807 1.399 . S
C812 C811 1.394 . S
C812 C813 1.516 . S
C813 C812 1.516 . S
C813 C814 1.502 . S
C813 C815 1.561 . S
C813 C816 1.526 . S
C814 H798 0.959 . S
C814 H799 0.959 . S
C814 H800 0.961 . S
C814 C813 1.502 . S
C815 H801 0.960 . S
C815 H802 0.961 . S
C815 H803 0.959 . S
C815 C813 1.561 . S
C816 C813 1.526 . S
C816 C817 1.396 . S
C816 C821 1.390 . S
C817 C811 1.465 . S
C817 C816 1.396 . S
C817 C818 1.399 . S
C818 H804 0.929 . S
C818 C817 1.399 . S
C818 C819 1.385 . S
C819 H805 0.931 . S
C819 C818 1.385 . S
C819 C820 1.389 . S
C820 C819 1.389 . S
C820 C821 1.387 . S
C821 H806 0.930 . S
C821 C816 1.390 . S
C821 C820 1.387 . S
H822 C834 0.930 . S
H823 C836 0.930 . S
H824 C837 0.930 . S
H825 C841 0.959 . S
H826 C841 0.959 . S
H827 C841 0.961 . S
H828 C842 0.960 . S
H829 C842 0.961 . S
H830 C842 0.959 . S
H831 C845 0.929 . S
H832 C846 0.931 . S
H833 C848 0.930 . S
C834 H822 0.930 . S
C834 C835 1.399 . S
C834 C839 1.399 . S
C835 C834 1.399 . S
C835 C836 1.376 . S
C836 H823 0.930 . S
C836 C835 1.376 . S
C836 C837 1.388 . S
C837 H824 0.930 . S
C837 C836 1.388 . S
C837 C838 1.390 . S
C838 C837 1.390 . S
C838 C839 1.394 . S
C838 C844 1.465 . S
C839 C834 1.399 . S
C839 C838 1.394 . S
C839 C840 1.516 . S
C840 C839 1.516 . S
C840 C841 1.502 . S
C840 C842 1.561 . S
C840 C843 1.526 . S
C841 H825 0.959 . S
C841 H826 0.959 . S
C841 H827 0.961 . S
C841 C840 1.502 . S
C842 H828 0.960 . S
C842 H829 0.961 . S
C842 H830 0.959 . S
C842 C840 1.561 . S
C843 C840 1.526 . S
C843 C844 1.396 . S
C843 C848 1.390 . S
C844 C838 1.465 . S
C844 C843 1.396 . S
C844 C845 1.399 . S
C845 H831 0.929 . S
C845 C844 1.399 . S
C845 C846 1.385 . S
C846 H832 0.931 . S
C846 C845 1.385 . S
C846 C847 1.389 . S
C847 C846 1.389 . S
C847 C848 1.387 . S
C848 H833 0.930 . S
C848 C843 1.390 . S
C848 C847 1.387 . S
H849 C861 0.930 . S
H850 C863 0.930 . S
H851 C864 0.930 . S
H852 C868 0.959 . S
H853 C868 0.959 . S
H854 C868 0.961 . S
H855 C869 0.960 . S
H856 C869 0.961 . S
H857 C869 0.959 . S
H858 C872 0.929 . S
H859 C873 0.931 . S
H860 C875 0.930 . S
C861 H849 0.930 . S
C861 C862 1.399 . S
C861 C866 1.399 . S
C862 C861 1.399 . S
C862 C863 1.376 . S
C863 H850 0.930 . S
C863 C862 1.376 . S
C863 C864 1.388 . S
C864 H851 0.930 . S
C864 C863 1.388 . S
C864 C865 1.390 . S
C865 C864 1.390 . S
C865 C866 1.394 . S
C865 C871 1.465 . S
C866 C861 1.399 . S
C866 C865 1.394 . S
C866 C867 1.516 . S
C867 C866 1.516 . S
C867 C868 1.502 . S
C867 C869 1.561 . S
C867 C870 1.526 . S
C868 H852 0.959 . S
C868 H853 0.959 . S
C868 H854 0.961 . S
C868 C867 1.502 . S
C869 H855 0.960 . S
C869 H856 0.961 . S
C869 H857 0.959 . S
C869 C867 1.561 . S
C870 C867 1.526 . S
C870 C871 1.396 . S
C870 C875 1.390 . S
C871 C865 1.465 . S
C871 C870 1.396 . S
C871 C872 1.399 . S
C872 H858 0.929 . S
C872 C871 1.399 . S
C872 C873 1.385 . S
C873 H859 0.931 . S
C873 C872 1.385 . S
C873 C874 1.389 . S
C874 C873 1.389 . S
C874 C875 1.387 . S
C875 H860 0.930 . S
C875 C870 1.390 . S
C875 C874 1.387 . S
H876 C888 0.930 . S
H877 C890 0.930 . S
H878 C891 0.930 . S
H879 C895 0.959 . S
H880 C895 0.959 . S
H881 C895 0.961 . S
H882 C896 0.960 . S
H883 C896 0.961 . S
H884 C896 0.959 . S
H885 C899 0.929 . S
H886 C900 0.931 . S
H887 C902 0.930 . S
C888 H876 0.930 . S
C888 C889 1.399 . S
C888 C893 1.399 . S
C889 C888 1.399 . S
C889 C890 1.376 . S
C890 H877 0.930 . S
C890 C889 1.376 . S
C890 C891 1.388 . S
C891 H878 0.930 . S
C891 C890 1.388 . S
C891 C892 1.390 . S
C892 C891 1.390 . S
C892 C893 1.394 . S
C892 C898 1.465 . S
C893 C888 1.399 . S
C893 C892 1.394 . S
C893 C894 1.516 . S
C894 C893 1.516 . S
C894 C895 1.502 . S
C894 C896 1.561 . S
C894 C897 1.526 . S
C895 H879 0.959 . S
C895 H880 0.959 . S
C895 H881 0.961 . S
C895 C894 1.502 . S
C896 H882 0.960 . S
C896 H883 0.961 . S
C896 H884 0.959 . S
C896 C894 1.561 . S
C897 C894 1.526 . S
C897 C898 1.396 . S
C897 C902 1.390 . S
C898 C892 1.465 . S
C898 C897 1.396 . S
C898 C899 1.399 . S
C899 H885 0.929 . S
C899 C898 1.399 . S
C899 C900 1.385 . S
C900 H886 0.931 . S
C900 C899 1.385 . S
C900 C901 1.389 . S
C901 C900 1.389 . S
C901 C902 1.387 . S
C902 H887 0.930 . S
C902 C897 1.390 . S
C902 C901 1.387 . S
H903 C915 0.930 . S
H904 C917 0.930 . S
H905 C918 0.930 . S
H906 C922 0.959 . S
H907 C922 0.959 . S
H908 C922 0.961 . S
H909 C923 0.960 . S
H910 C923 0.961 . S
H911 C923 0.959 . S
H912 C926 0.929 . S
H913 C927 0.931 . S
H914 C929 0.930 . S
C915 H903 0.930 . S
C915 C916 1.399 . S
C915 C920 1.399 . S
C916 C915 1.399 . S
C916 C917 1.376 . S
C917 H904 0.930 . S
C917 C916 1.376 . S
C917 C918 1.388 . S
C918 H905 0.930 . S
C918 C917 1.388 . S
C918 C919 1.390 . S
C919 C918 1.390 . S
C919 C920 1.394 . S
C919 C925 1.465 . S
C920 C915 1.399 . S
C920 C919 1.394 . S
C920 C921 1.516 . S
C921 C920 1.516 . S
C921 C922 1.502 . S
C921 C923 1.561 . S
C921 C924 1.526 . S
C922 H906 0.959 . S
C922 H907 0.959 . S
C922 H908 0.961 . S
C922 C921 1.502 . S
C923 H909 0.960 . S
C923 H910 0.961 . S
C923 H911 0.959 . S
C923 C921 1.561 . S
C924 C921 1.526 . S
C924 C925 1.396 . S
C924 C929 1.390 . S
C925 C919 1.465 . S
C925 C924 1.396 . S
C925 C926 1.399 . S
C926 H912 0.929 . S
C926 C925 1.399 . S
C926 C927 1.385 . S
C927 H913 0.931 . S
C927 C926 1.385 . S
C927 C928 1.389 . S
C928 C927 1.389 . S
C928 C929 1.387 . S
C929 H914 0.930 . S
C929 C924 1.390 . S
C929 C928 1.387 . S
H930 C942 0.930 . S
H931 C944 0.930 . S
H932 C945 0.930 . S
H933 C949 0.959 . S
H934 C949 0.959 . S
H935 C949 0.961 . S
H936 C950 0.960 . S
H937 C950 0.961 . S
H938 C950 0.959 . S
H939 C953 0.929 . S
H940 C954 0.931 . S
H941 C956 0.930 . S
C942 H930 0.930 . S
C942 C943 1.399 . S
C942 C947 1.399 . S
C943 C942 1.399 . S
C943 C944 1.376 . S
C944 H931 0.930 . S
C944 C943 1.376 . S
C944 C945 1.388 . S
C945 H932 0.930 . S
C945 C944 1.388 . S
C945 C946 1.390 . S
C946 C945 1.390 . S
C946 C947 1.394 . S
C946 C952 1.465 . S
C947 C942 1.399 . S
C947 C946 1.394 . S
C947 C948 1.516 . S
C948 C947 1.516 . S
C948 C949 1.502 . S
C948 C950 1.561 . S
C948 C951 1.526 . S
C949 H933 0.959 . S
C949 H934 0.959 . S
C949 H935 0.961 . S
C949 C948 1.502 . S
C950 H936 0.960 . S
C950 H937 0.961 . S
C950 H938 0.959 . S
C950 C948 1.561 . S
C951 C948 1.526 . S
C951 C952 1.396 . S
C951 C956 1.390 . S
C952 C946 1.465 . S
C952 C951 1.396 . S
C952 C953 1.399 . S
C953 H939 0.929 . S
C953 C952 1.399 . S
C953 C954 1.385 . S
C954 H940 0.931 . S
C954 C953 1.385 . S
C954 C955 1.389 . S
C955 C954 1.389 . S
C955 C956 1.387 . S
C956 H941 0.930 . S
C956 C951 1.390 . S
C956 C955 1.387 . S
H957 C969 0.930 . S
H958 C971 0.930 . S
H959 C972 0.930 . S
H960 C976 0.959 . S
H961 C976 0.959 . S
H962 C976 0.961 . S
H963 C977 0.960 . S
H964 C977 0.961 . S
H965 C977 0.959 . S
H966 C980 0.929 . S
H967 C981 0.931 . S
H968 C983 0.930 . S
C969 H957 0.930 . S
C969 C970 1.399 . S
C969 C974 1.399 . S
C970 C969 1.399 . S
C970 C971 1.376 . S
C971 H958 0.930 . S
C971 C970 1.376 . S
C971 C972 1.388 . S
C972 H959 0.930 . S
C972 C971 1.388 . S
C972 C973 1.390 . S
C973 C972 1.390 . S
C973 C974 1.394 . S
C973 C979 1.465 . S
C974 C969 1.399 . S
C974 C973 1.394 . S
C974 C975 1.516 . S
C975 C974 1.516 . S
C975 C976 1.502 . S
C975 C977 1.561 . S
C975 C978 1.526 . S
C976 H960 0.959 . S
C976 H961 0.959 . S
C976 H962 0.961 . S
C976 C975 1.502 . S
C977 H963 0.960 . S
C977 H964 0.961 . S
C977 H965 0.959 . S
C977 C975 1.561 . S
C978 C975 1.526 . S
C978 C979 1.396 . S
C978 C983 1.390 . S
C979 C973 1.465 . S
C979 C978 1.396 . S
C979 C980 1.399 . S
C980 H966 0.929 . S
C980 C979 1.399 . S
C980 C981 1.385 . S
C981 H967 0.931 . S
C981 C980 1.385 . S
C981 C982 1.389 . S
C982 C981 1.389 . S
C982 C983 1.387 . S
C983 H968 0.930 . S
C983 C978 1.390 . S
C983 C982 1.387 . S
H984 C996 0.930 . S
H985 C998 0.930 . S
H986 C999 0.930 . S
H987 C1003 0.962 . S
H988 C1003 0.980 . S
H989 C1003 0.938 1_554 S
H990 C1004 0.956 1_554 S
H991 C1004 0.964 . S
H992 C1004 0.959 . S
H993 C1007 0.929 . S
H994 C1008 0.931 . S
H995 C1010 0.930 . S
C996 H984 0.930 . S
C996 C997 1.399 . S
C996 C1001 1.399 . S
C997 C996 1.399 . S
C997 C998 1.376 . S
C998 H985 0.930 . S
C998 C997 1.376 . S
C998 C999 1.388 . S
C999 H986 0.930 . S
C999 C998 1.388 . S
C999 C1000 1.390 . S
C1000 C999 1.390 . S
C1000 C1001 1.394 . S
C1000 C1006 1.465 1_554 S
C1001 C996 1.399 . S
C1001 C1000 1.394 . S
C1001 C1002 1.516 1_554 S
C1002 C1001 1.516 1_556 S
C1002 C1003 1.502 . S
C1002 C1004 1.561 . S
C1002 C1005 1.526 . S
C1003 H987 0.962 . S
C1003 H988 0.980 . S
C1003 H989 0.938 1_556 S
C1003 C1002 1.502 . S
C1004 H990 0.956 1_556 S
C1004 H991 0.964 . S
C1004 H992 0.959 . S
C1004 C1002 1.561 . S
C1005 C1002 1.526 . S
C1005 C1006 1.396 . S
C1005 C1010 1.390 . S
C1006 C1000 1.465 1_556 S
C1006 C1005 1.396 . S
C1006 C1007 1.399 . S
C1007 H993 0.929 . S
C1007 C1006 1.399 . S
C1007 C1008 1.385 . S
C1008 H994 0.931 . S
C1008 C1007 1.385 . S
C1008 C1009 1.389 . S
C1009 C1008 1.389 . S
C1009 C1010 1.387 . S
C1010 H995 0.930 . S
C1010 C1005 1.390 . S
C1010 C1009 1.387 . S
H1011 C1023 0.930 . S
H1012 C1025 0.930 . S
H1013 C1026 0.930 . S
H1014 C1030 0.962 . S
H1015 C1030 0.980 . S
H1016 C1030 0.938 1_556 S
H1017 C1031 0.956 1_556 S
H1018 C1031 0.964 . S
H1019 C1031 0.959 . S
H1020 C1034 0.929 . S
H1021 C1035 0.931 . S
H1022 C1037 0.930 . S
C1023 H1011 0.930 . S
C1023 C1024 1.399 . S
C1023 C1028 1.399 . S
C1024 C1023 1.399 . S
C1024 C1025 1.376 . S
C1025 H1012 0.930 . S
C1025 C1024 1.376 . S
C1025 C1026 1.388 . S
C1026 H1013 0.930 . S
C1026 C1025 1.388 . S
C1026 C1027 1.390 . S
C1027 C1026 1.390 . S
C1027 C1028 1.394 . S
C1027 C1033 1.465 1_556 S
C1028 C1023 1.399 . S
C1028 C1027 1.394 . S
C1028 C1029 1.516 1_556 S
C1029 C1028 1.516 1_554 S
C1029 C1030 1.502 . S
C1029 C1031 1.561 . S
C1029 C1032 1.526 . S
C1030 H1014 0.962 . S
C1030 H1015 0.980 . S
C1030 H1016 0.938 1_554 S
C1030 C1029 1.502 . S
C1031 H1017 0.956 1_554 S
C1031 H1018 0.964 . S
C1031 H1019 0.959 . S
C1031 C1029 1.561 . S
C1032 C1029 1.526 . S
C1032 C1033 1.396 . S
C1032 C1037 1.390 . S
C1033 C1027 1.465 1_554 S
C1033 C1032 1.396 . S
C1033 C1034 1.399 . S
C1034 H1020 0.929 . S
C1034 C1033 1.399 . S
C1034 C1035 1.385 . S
C1035 H1021 0.931 . S
C1035 C1034 1.385 . S
C1035 C1036 1.389 . S
C1036 C1035 1.389 . S
C1036 C1037 1.387 . S
C1037 H1022 0.930 . S
C1037 C1032 1.390 . S
C1037 C1036 1.387 . S
H1038 C1050 0.930 . S
H1039 C1052 0.930 . S
H1040 C1053 0.930 . S
H1041 C1057 0.962 . S
H1042 C1057 0.980 . S
H1043 C1057 0.938 1_556 S
H1044 C1058 0.956 1_556 S
H1045 C1058 0.965 . S
H1046 C1058 0.959 . S
H1047 C1061 0.929 . S
H1048 C1062 0.931 . S
H1049 C1064 0.930 . S
C1050 H1038 0.930 . S
C1050 C1051 1.399 . S
C1050 C1055 1.399 . S
C1051 C1050 1.399 . S
C1051 C1052 1.376 . S
C1052 H1039 0.930 . S
C1052 C1051 1.376 . S
C1052 C1053 1.388 . S
C1053 H1040 0.930 . S
C1053 C1052 1.388 . S
C1053 C1054 1.390 . S
C1054 C1053 1.390 . S
C1054 C1055 1.394 . S
C1054 C1060 1.465 1_556 S
C1055 C1050 1.399 . S
C1055 C1054 1.394 . S
C1055 C1056 1.516 1_556 S
C1056 C1055 1.516 1_554 S
C1056 C1057 1.502 . S
C1056 C1058 1.561 . S
C1056 C1059 1.526 . S
C1057 H1041 0.962 . S
C1057 H1042 0.980 . S
C1057 H1043 0.938 1_554 S
C1057 C1056 1.502 . S
C1058 H1044 0.956 1_554 S
C1058 H1045 0.965 . S
C1058 H1046 0.959 . S
C1058 C1056 1.561 . S
C1059 C1056 1.526 . S
C1059 C1060 1.396 . S
C1059 C1064 1.390 . S
C1060 C1054 1.465 1_554 S
C1060 C1059 1.396 . S
C1060 C1061 1.399 . S
C1061 H1047 0.929 . S
C1061 C1060 1.399 . S
C1061 C1062 1.385 . S
C1062 H1048 0.931 . S
C1062 C1061 1.385 . S
C1062 C1063 1.389 . S
C1063 C1062 1.389 . S
C1063 C1064 1.387 . S
C1064 H1049 0.930 . S
C1064 C1059 1.390 . S
C1064 C1063 1.387 . S
H1065 C1077 0.930 . S
H1066 C1079 0.930 . S
H1067 C1080 0.930 . S
H1068 C1084 0.962 . S
H1069 C1084 0.980 . S
H1070 C1084 0.938 1_554 S
H1071 C1085 0.956 1_554 S
H1072 C1085 0.964 . S
H1073 C1085 0.959 . S
H1074 C1088 0.929 . S
H1075 C1089 0.931 . S
H1076 C1091 0.930 . S
C1077 H1065 0.930 . S
C1077 C1078 1.399 . S
C1077 C1082 1.399 . S
C1078 C1077 1.399 . S
C1078 C1079 1.376 . S
C1079 H1066 0.930 . S
C1079 C1078 1.376 . S
C1079 C1080 1.388 . S
C1080 H1067 0.930 . S
C1080 C1079 1.388 . S
C1080 C1081 1.390 . S
C1081 C1080 1.390 . S
C1081 C1082 1.394 . S
C1081 C1087 1.465 1_554 S
C1082 C1077 1.399 . S
C1082 C1081 1.394 . S
C1082 C1083 1.516 1_554 S
C1083 C1082 1.516 1_556 S
C1083 C1084 1.502 . S
C1083 C1085 1.561 . S
C1083 C1086 1.526 . S
C1084 H1068 0.962 . S
C1084 H1069 0.980 . S
C1084 H1070 0.938 1_556 S
C1084 C1083 1.502 . S
C1085 H1071 0.956 1_556 S
C1085 H1072 0.964 . S
C1085 H1073 0.959 . S
C1085 C1083 1.561 . S
C1086 C1083 1.526 . S
C1086 C1087 1.396 . S
C1086 C1091 1.390 . S
C1087 C1081 1.465 1_556 S
C1087 C1086 1.396 . S
C1087 C1088 1.399 . S
C1088 H1074 0.929 . S
C1088 C1087 1.399 . S
C1088 C1089 1.385 . S
C1089 H1075 0.931 . S
C1089 C1088 1.385 . S
C1089 C1090 1.389 . S
C1090 C1089 1.389 . S
C1090 C1091 1.387 . S
C1091 H1076 0.930 . S
C1091 C1086 1.390 . S
C1091 C1090 1.387 . S
H1092 C1104 0.930 . S
H1093 C1106 0.930 . S
H1094 C1107 0.930 . S
H1095 C1111 0.962 . S
H1096 C1111 0.980 . S
H1097 C1111 0.938 1_554 S
H1098 C1112 0.956 1_554 S
H1099 C1112 0.964 . S
H1100 C1112 0.959 . S
H1101 C1115 0.929 . S
H1102 C1116 0.931 . S
H1103 C1118 0.930 . S
C1104 H1092 0.930 . S
C1104 C1105 1.399 . S
C1104 C1109 1.399 . S
C1105 C1104 1.399 . S
C1105 C1106 1.376 . S
C1106 H1093 0.930 . S
C1106 C1105 1.376 . S
C1106 C1107 1.388 . S
C1107 H1094 0.930 . S
C1107 C1106 1.388 . S
C1107 C1108 1.390 . S
C1108 C1107 1.390 . S
C1108 C1109 1.394 . S
C1108 C1114 1.465 1_554 S
C1109 C1104 1.399 . S
C1109 C1108 1.394 . S
C1109 C1110 1.516 1_554 S
C1110 C1109 1.516 1_556 S
C1110 C1111 1.502 . S
C1110 C1112 1.561 . S
C1110 C1113 1.526 . S
C1111 H1095 0.962 . S
C1111 H1096 0.980 . S
C1111 H1097 0.938 1_556 S
C1111 C1110 1.502 . S
C1112 H1098 0.956 1_556 S
C1112 H1099 0.964 . S
C1112 H1100 0.959 . S
C1112 C1110 1.561 . S
C1113 C1110 1.526 . S
C1113 C1114 1.396 . S
C1113 C1118 1.390 . S
C1114 C1108 1.465 1_556 S
C1114 C1113 1.396 . S
C1114 C1115 1.399 . S
C1115 H1101 0.929 . S
C1115 C1114 1.399 . S
C1115 C1116 1.385 . S
C1116 H1102 0.931 . S
C1116 C1115 1.385 . S
C1116 C1117 1.389 . S
C1117 C1116 1.389 . S
C1117 C1118 1.387 . S
C1118 H1103 0.930 . S
C1118 C1113 1.390 . S
C1118 C1117 1.387 . S
H1119 C1131 0.930 . S
H1120 C1133 0.930 . S
H1121 C1134 0.930 . S
H1122 C1138 0.962 . S
H1123 C1138 0.980 . S
H1124 C1138 0.938 1_556 S
H1125 C1139 0.956 1_556 S
H1126 C1139 0.964 . S
H1127 C1139 0.959 . S
H1128 C1142 0.929 . S
H1129 C1143 0.931 . S
H1130 C1145 0.930 . S
C1131 H1119 0.930 . S
C1131 C1132 1.399 . S
C1131 C1136 1.399 . S
C1132 C1131 1.399 . S
C1132 C1133 1.376 . S
C1133 H1120 0.930 . S
C1133 C1132 1.376 . S
C1133 C1134 1.388 . S
C1134 H1121 0.930 . S
C1134 C1133 1.388 . S
C1134 C1135 1.390 . S
C1135 C1134 1.390 . S
C1135 C1136 1.394 . S
C1135 C1141 1.465 1_556 S
C1136 C1131 1.399 . S
C1136 C1135 1.394 . S
C1136 C1137 1.516 1_556 S
C1137 C1136 1.516 1_554 S
C1137 C1138 1.502 . S
C1137 C1139 1.561 . S
C1137 C1140 1.526 . S
C1138 H1122 0.962 . S
C1138 H1123 0.980 . S
C1138 H1124 0.938 1_554 S
C1138 C1137 1.502 . S
C1139 H1125 0.956 1_554 S
C1139 H1126 0.964 . S
C1139 H1127 0.959 . S
C1139 C1137 1.561 . S
C1140 C1137 1.526 . S
C1140 C1141 1.396 . S
C1140 C1145 1.390 . S
C1141 C1135 1.465 1_554 S
C1141 C1140 1.396 . S
C1141 C1142 1.399 . S
C1142 H1128 0.929 . S
C1142 C1141 1.399 . S
C1142 C1143 1.385 . S
C1143 H1129 0.931 . S
C1143 C1142 1.385 . S
C1143 C1144 1.389 . S
C1144 C1143 1.389 . S
C1144 C1145 1.387 . S
C1145 H1130 0.930 . S
C1145 C1140 1.390 . S
C1145 C1144 1.387 . S
H1146 C1158 0.930 . S
H1147 C1160 0.930 . S
H1148 C1161 0.930 . S
H1149 C1165 0.959 . S
H1150 C1165 0.959 . S
H1151 C1165 0.961 . S
H1152 C1166 0.960 . S
H1153 C1166 0.961 . S
H1154 C1166 0.959 . S
H1155 C1169 0.929 . S
H1156 C1170 0.931 . S
H1157 C1172 0.930 . S
C1158 H1146 0.930 . S
C1158 C1159 1.399 . S
C1158 C1163 1.399 . S
C1159 C1158 1.399 . S
C1159 C1160 1.376 . S
C1160 H1147 0.930 . S
C1160 C1159 1.376 . S
C1160 C1161 1.388 . S
C1161 H1148 0.930 . S
C1161 C1160 1.388 . S
C1161 C1162 1.390 . S
C1162 C1161 1.390 . S
C1162 C1163 1.394 . S
C1162 C1168 1.465 . S
C1163 C1158 1.399 . S
C1163 C1162 1.394 . S
C1163 C1164 1.516 . S
C1164 C1163 1.516 . S
C1164 C1165 1.502 . S
C1164 C1166 1.561 . S
C1164 C1167 1.526 . S
C1165 H1149 0.959 . S
C1165 H1150 0.959 . S
C1165 H1151 0.961 . S
C1165 C1164 1.502 . S
C1166 H1152 0.960 . S
C1166 H1153 0.961 . S
C1166 H1154 0.959 . S
C1166 C1164 1.561 . S
C1167 C1164 1.526 . S
C1167 C1168 1.396 . S
C1167 C1172 1.390 . S
C1168 C1162 1.465 . S
C1168 C1167 1.396 . S
C1168 C1169 1.399 . S
C1169 H1155 0.929 . S
C1169 C1168 1.399 . S
C1169 C1170 1.385 . S
C1170 H1156 0.931 . S
C1170 C1169 1.385 . S
C1170 C1171 1.389 . S
C1171 C1170 1.389 . S
C1171 C1172 1.387 . S
C1172 H1157 0.930 . S
C1172 C1167 1.390 . S
C1172 C1171 1.387 . S
H1173 C1185 0.930 . S
H1174 C1187 0.930 . S
H1175 C1188 0.930 . S
H1176 C1192 0.959 . S
H1177 C1192 0.959 . S
H1178 C1192 0.961 . S
H1179 C1193 0.960 . S
H1180 C1193 0.961 . S
H1181 C1193 0.959 . S
H1182 C1196 0.929 . S
H1183 C1197 0.931 . S
H1184 C1199 0.930 . S
C1185 H1173 0.930 . S
C1185 C1186 1.399 . S
C1185 C1190 1.399 . S
C1186 C1185 1.399 . S
C1186 C1187 1.376 . S
C1187 H1174 0.930 . S
C1187 C1186 1.376 . S
C1187 C1188 1.388 . S
C1188 H1175 0.930 . S
C1188 C1187 1.388 . S
C1188 C1189 1.390 . S
C1189 C1188 1.390 . S
C1189 C1190 1.394 . S
C1189 C1195 1.465 . S
C1190 C1185 1.399 . S
C1190 C1189 1.394 . S
C1190 C1191 1.516 . S
C1191 C1190 1.516 . S
C1191 C1192 1.502 . S
C1191 C1193 1.561 . S
C1191 C1194 1.526 . S
C1192 H1176 0.959 . S
C1192 H1177 0.959 . S
C1192 H1178 0.961 . S
C1192 C1191 1.502 . S
C1193 H1179 0.960 . S
C1193 H1180 0.961 . S
C1193 H1181 0.959 . S
C1193 C1191 1.561 . S
C1194 C1191 1.526 . S
C1194 C1195 1.396 . S
C1194 C1199 1.390 . S
C1195 C1189 1.465 . S
C1195 C1194 1.396 . S
C1195 C1196 1.399 . S
C1196 H1182 0.929 . S
C1196 C1195 1.399 . S
C1196 C1197 1.385 . S
C1197 H1183 0.931 . S
C1197 C1196 1.385 . S
C1197 C1198 1.389 . S
C1198 C1197 1.389 . S
C1198 C1199 1.387 . S
C1199 H1184 0.930 . S
C1199 C1194 1.390 . S
C1199 C1198 1.387 . S
H1200 C1212 0.930 . S
H1201 C1214 0.930 . S
H1202 C1215 0.930 . S
H1203 C1219 0.959 . S
H1204 C1219 0.959 . S
H1205 C1219 0.961 . S
H1206 C1220 0.960 . S
H1207 C1220 0.961 . S
H1208 C1220 0.959 . S
H1209 C1223 0.929 . S
H1210 C1224 0.931 . S
H1211 C1226 0.930 . S
C1212 H1200 0.930 . S
C1212 C1213 1.399 . S
C1212 C1217 1.399 . S
C1213 C1212 1.399 . S
C1213 C1214 1.376 . S
C1214 H1201 0.930 . S
C1214 C1213 1.376 . S
C1214 C1215 1.388 . S
C1215 H1202 0.930 . S
C1215 C1214 1.388 . S
C1215 C1216 1.390 . S
C1216 C1215 1.390 . S
C1216 C1217 1.394 . S
C1216 C1222 1.465 . S
C1217 C1212 1.399 . S
C1217 C1216 1.394 . S
C1217 C1218 1.516 . S
C1218 C1217 1.516 . S
C1218 C1219 1.502 . S
C1218 C1220 1.561 . S
C1218 C1221 1.526 . S
C1219 H1203 0.959 . S
C1219 H1204 0.959 . S
C1219 H1205 0.961 . S
C1219 C1218 1.502 . S
C1220 H1206 0.960 . S
C1220 H1207 0.961 . S
C1220 H1208 0.959 . S
C1220 C1218 1.561 . S
C1221 C1218 1.526 . S
C1221 C1222 1.396 . S
C1221 C1226 1.390 . S
C1222 C1216 1.465 . S
C1222 C1221 1.396 . S
C1222 C1223 1.399 . S
C1223 H1209 0.929 . S
C1223 C1222 1.399 . S
C1223 C1224 1.385 . S
C1224 H1210 0.931 . S
C1224 C1223 1.385 . S
C1224 C1225 1.389 . S
C1225 C1224 1.389 . S
C1225 C1226 1.387 . S
C1226 H1211 0.930 . S
C1226 C1221 1.390 . S
C1226 C1225 1.387 . S
H1227 C1239 0.930 . S
H1228 C1241 0.930 . S
H1229 C1242 0.930 . S
H1230 C1246 0.959 . S
H1231 C1246 0.959 . S
H1232 C1246 0.961 . S
H1233 C1247 0.960 . S
H1234 C1247 0.961 . S
H1235 C1247 0.959 . S
H1236 C1250 0.929 . S
H1237 C1251 0.931 . S
H1238 C1253 0.930 . S
C1239 H1227 0.930 . S
C1239 C1240 1.399 . S
C1239 C1244 1.399 . S
C1240 C1239 1.399 . S
C1240 C1241 1.376 . S
C1241 H1228 0.930 . S
C1241 C1240 1.376 . S
C1241 C1242 1.388 . S
C1242 H1229 0.930 . S
C1242 C1241 1.388 . S
C1242 C1243 1.390 . S
C1243 C1242 1.390 . S
C1243 C1244 1.394 . S
C1243 C1249 1.465 . S
C1244 C1239 1.399 . S
C1244 C1243 1.394 . S
C1244 C1245 1.516 . S
C1245 C1244 1.516 . S
C1245 C1246 1.502 . S
C1245 C1247 1.561 . S
C1245 C1248 1.526 . S
C1246 H1230 0.959 . S
C1246 H1231 0.959 . S
C1246 H1232 0.961 . S
C1246 C1245 1.502 . S
C1247 H1233 0.960 . S
C1247 H1234 0.961 . S
C1247 H1235 0.959 . S
C1247 C1245 1.561 . S
C1248 C1245 1.526 . S
C1248 C1249 1.396 . S
C1248 C1253 1.390 . S
C1249 C1243 1.465 . S
C1249 C1248 1.396 . S
C1249 C1250 1.399 . S
C1250 H1236 0.929 . S
C1250 C1249 1.399 . S
C1250 C1251 1.385 . S
C1251 H1237 0.931 . S
C1251 C1250 1.385 . S
C1251 C1252 1.389 . S
C1252 C1251 1.389 . S
C1252 C1253 1.387 . S
C1253 H1238 0.930 . S
C1253 C1248 1.390 . S
C1253 C1252 1.387 . S
H1254 C1266 0.930 . S
H1255 C1268 0.930 . S
H1256 C1269 0.930 . S
H1257 C1273 0.959 . S
H1258 C1273 0.959 . S
H1259 C1273 0.961 . S
H1260 C1274 0.960 . S
H1261 C1274 0.961 . S
H1262 C1274 0.959 . S
H1263 C1277 0.929 . S
H1264 C1278 0.931 . S
H1265 C1280 0.930 . S
C1266 H1254 0.930 . S
C1266 C1267 1.399 . S
C1266 C1271 1.399 . S
C1267 C1266 1.399 . S
C1267 C1268 1.376 . S
C1268 H1255 0.930 . S
C1268 C1267 1.376 . S
C1268 C1269 1.388 . S
C1269 H1256 0.930 . S
C1269 C1268 1.388 . S
C1269 C1270 1.390 . S
C1270 C1269 1.390 . S
C1270 C1271 1.394 . S
C1270 C1276 1.465 . S
C1271 C1266 1.399 . S
C1271 C1270 1.394 . S
C1271 C1272 1.516 . S
C1272 C1271 1.516 . S
C1272 C1273 1.502 . S
C1272 C1274 1.561 . S
C1272 C1275 1.526 . S
C1273 H1257 0.959 . S
C1273 H1258 0.959 . S
C1273 H1259 0.961 . S
C1273 C1272 1.502 . S
C1274 H1260 0.960 . S
C1274 H1261 0.961 . S
C1274 H1262 0.959 . S
C1274 C1272 1.561 . S
C1275 C1272 1.526 . S
C1275 C1276 1.396 . S
C1275 C1280 1.390 . S
C1276 C1270 1.465 . S
C1276 C1275 1.396 . S
C1276 C1277 1.399 . S
C1277 H1263 0.929 . S
C1277 C1276 1.399 . S
C1277 C1278 1.385 . S
C1278 H1264 0.931 . S
C1278 C1277 1.385 . S
C1278 C1279 1.389 . S
C1279 C1278 1.389 . S
C1279 C1280 1.387 . S
C1280 H1265 0.930 . S
C1280 C1275 1.390 . S
C1280 C1279 1.387 . S
H1281 C1293 0.930 . S
H1282 C1295 0.930 . S
H1283 C1296 0.930 . S
H1284 C1300 0.959 . S
H1285 C1300 0.959 . S
H1286 C1300 0.961 . S
H1287 C1301 0.960 . S
H1288 C1301 0.961 . S
H1289 C1301 0.959 . S
H1290 C1304 0.929 . S
H1291 C1305 0.931 . S
H1292 C1307 0.930 . S
C1293 H1281 0.930 . S
C1293 C1294 1.399 . S
C1293 C1298 1.399 . S
C1294 C1293 1.399 . S
C1294 C1295 1.376 . S
C1295 H1282 0.930 . S
C1295 C1294 1.376 . S
C1295 C1296 1.388 . S
C1296 H1283 0.930 . S
C1296 C1295 1.388 . S
C1296 C1297 1.390 . S
C1297 C1296 1.390 . S
C1297 C1298 1.394 . S
C1297 C1303 1.465 . S
C1298 C1293 1.399 . S
C1298 C1297 1.394 . S
C1298 C1299 1.516 . S
C1299 C1298 1.516 . S
C1299 C1300 1.502 . S
C1299 C1301 1.561 . S
C1299 C1302 1.526 . S
C1300 H1284 0.959 . S
C1300 H1285 0.959 . S
C1300 H1286 0.961 . S
C1300 C1299 1.502 . S
C1301 H1287 0.960 . S
C1301 H1288 0.961 . S
C1301 H1289 0.959 . S
C1301 C1299 1.561 . S
C1302 C1299 1.526 . S
C1302 C1303 1.396 . S
C1302 C1307 1.390 . S
C1303 C1297 1.465 . S
C1303 C1302 1.396 . S
C1303 C1304 1.399 . S
C1304 H1290 0.929 . S
C1304 C1303 1.399 . S
C1304 C1305 1.385 . S
C1305 H1291 0.931 . S
C1305 C1304 1.385 . S
C1305 C1306 1.389 . S
C1306 C1305 1.389 . S
C1306 C1307 1.387 . S
C1307 H1292 0.930 . S
C1307 C1302 1.390 . S
C1307 C1306 1.387 . S
H1308 C1320 0.930 . S
H1309 C1322 0.930 . S
H1310 C1323 0.930 . S
H1311 C1327 0.959 . S
H1312 C1327 0.959 . S
H1313 C1327 0.961 . S
H1314 C1328 0.960 . S
H1315 C1328 0.961 . S
H1316 C1328 0.959 . S
H1317 C1331 0.929 . S
H1318 C1332 0.931 . S
H1319 C1334 0.930 . S
C1320 H1308 0.930 . S
C1320 C1321 1.399 . S
C1320 C1325 1.399 . S
C1321 C1320 1.399 . S
C1321 C1322 1.376 . S
C1322 H1309 0.930 . S
C1322 C1321 1.376 . S
C1322 C1323 1.388 . S
C1323 H1310 0.930 . S
C1323 C1322 1.388 . S
C1323 C1324 1.390 . S
C1324 C1323 1.390 . S
C1324 C1325 1.394 . S
C1324 C1330 1.465 . S
C1325 C1320 1.399 . S
C1325 C1324 1.394 . S
C1325 C1326 1.516 . S
C1326 C1325 1.516 . S
C1326 C1327 1.502 . S
C1326 C1328 1.561 . S
C1326 C1329 1.526 . S
C1327 H1311 0.959 . S
C1327 H1312 0.959 . S
C1327 H1313 0.961 . S
C1327 C1326 1.502 . S
C1328 H1314 0.960 . S
C1328 H1315 0.961 . S
C1328 H1316 0.959 . S
C1328 C1326 1.561 . S
C1329 C1326 1.526 . S
C1329 C1330 1.396 . S
C1329 C1334 1.390 . S
C1330 C1324 1.465 . S
C1330 C1329 1.396 . S
C1330 C1331 1.399 . S
C1331 H1317 0.929 . S
C1331 C1330 1.399 . S
C1331 C1332 1.385 . S
C1332 H1318 0.931 . S
C1332 C1331 1.385 . S
C1332 C1333 1.389 . S
C1333 C1332 1.389 . S
C1333 C1334 1.387 . S
C1334 H1319 0.930 . S
C1334 C1329 1.390 . S
C1334 C1333 1.387 . S
H1335 C1347 0.930 . S
H1336 C1349 0.930 . S
H1337 C1350 0.930 . S
H1338 C1354 0.959 . S
H1339 C1354 0.959 . S
H1340 C1354 0.961 . S
H1341 C1355 0.960 . S
H1342 C1355 0.961 . S
H1343 C1355 0.959 . S
H1344 C1358 0.929 . S
H1345 C1359 0.931 . S
H1346 C1361 0.930 . S
C1347 H1335 0.930 . S
C1347 C1348 1.399 . S
C1347 C1352 1.399 . S
C1348 C1347 1.399 . S
C1348 C1349 1.376 . S
C1349 H1336 0.930 . S
C1349 C1348 1.376 . S
C1349 C1350 1.388 . S
C1350 H1337 0.930 . S
C1350 C1349 1.388 . S
C1350 C1351 1.390 . S
C1351 C1350 1.390 . S
C1351 C1352 1.394 . S
C1351 C1357 1.465 . S
C1352 C1347 1.399 . S
C1352 C1351 1.394 . S
C1352 C1353 1.516 . S
C1353 C1352 1.516 . S
C1353 C1354 1.502 . S
C1353 C1355 1.561 . S
C1353 C1356 1.526 . S
C1354 H1338 0.959 . S
C1354 H1339 0.959 . S
C1354 H1340 0.961 . S
C1354 C1353 1.502 . S
C1355 H1341 0.960 . S
C1355 H1342 0.961 . S
C1355 H1343 0.959 . S
C1355 C1353 1.561 . S
C1356 C1353 1.526 . S
C1356 C1357 1.396 . S
C1356 C1361 1.390 . S
C1357 C1351 1.465 . S
C1357 C1356 1.396 . S
C1357 C1358 1.399 . S
C1358 H1344 0.929 . S
C1358 C1357 1.399 . S
C1358 C1359 1.385 . S
C1359 H1345 0.931 . S
C1359 C1358 1.385 . S
C1359 C1360 1.389 . S
C1360 C1359 1.389 . S
C1360 C1361 1.387 . S
C1361 H1346 0.930 . S
C1361 C1356 1.390 . S
C1361 C1360 1.387 . S
H1362 C1374 0.930 . S
H1363 C1376 0.930 . S
H1364 C1377 0.930 . S
H1365 C1381 0.959 . S
H1366 C1381 0.959 . S
H1367 C1381 0.961 . S
H1368 C1382 0.960 . S
H1369 C1382 0.961 . S
H1370 C1382 0.959 . S
H1371 C1385 0.929 . S
H1372 C1386 0.931 . S
H1373 C1388 0.930 . S
C1374 H1362 0.930 . S
C1374 C1375 1.399 . S
C1374 C1379 1.399 . S
C1375 C1374 1.399 . S
C1375 C1376 1.376 . S
C1376 H1363 0.930 . S
C1376 C1375 1.376 . S
C1376 C1377 1.388 . S
C1377 H1364 0.930 . S
C1377 C1376 1.388 . S
C1377 C1378 1.390 . S
C1378 C1377 1.390 . S
C1378 C1379 1.394 . S
C1378 C1384 1.465 . S
C1379 C1374 1.399 . S
C1379 C1378 1.394 . S
C1379 C1380 1.516 . S
C1380 C1379 1.516 . S
C1380 C1381 1.502 . S
C1380 C1382 1.561 . S
C1380 C1383 1.526 . S
C1381 H1365 0.959 . S
C1381 H1366 0.959 . S
C1381 H1367 0.961 . S
C1381 C1380 1.502 . S
C1382 H1368 0.960 . S
C1382 H1369 0.961 . S
C1382 H1370 0.959 . S
C1382 C1380 1.561 . S
C1383 C1380 1.526 . S
C1383 C1384 1.396 . S
C1383 C1388 1.390 . S
C1384 C1378 1.465 . S
C1384 C1383 1.396 . S
C1384 C1385 1.399 . S
C1385 H1371 0.929 . S
C1385 C1384 1.399 . S
C1385 C1386 1.385 . S
C1386 H1372 0.931 . S
C1386 C1385 1.385 . S
C1386 C1387 1.389 . S
C1387 C1386 1.389 . S
C1387 C1388 1.387 . S
C1388 H1373 0.930 . S
C1388 C1383 1.390 . S
C1388 C1387 1.387 . S
H1389 C1401 0.930 . S
H1390 C1403 0.930 . S
H1391 C1404 0.930 . S
H1392 C1408 0.959 . S
H1393 C1408 0.959 . S
H1394 C1408 0.961 . S
H1395 C1409 0.960 . S
H1396 C1409 0.961 . S
H1397 C1409 0.959 . S
H1398 C1412 0.929 . S
H1399 C1413 0.931 . S
H1400 C1415 0.930 . S
C1401 H1389 0.930 . S
C1401 C1402 1.399 . S
C1401 C1406 1.399 . S
C1402 C1401 1.399 . S
C1402 C1403 1.376 . S
C1403 H1390 0.930 . S
C1403 C1402 1.376 . S
C1403 C1404 1.388 . S
C1404 H1391 0.930 . S
C1404 C1403 1.388 . S
C1404 C1405 1.390 . S
C1405 C1404 1.390 . S
C1405 C1406 1.394 . S
C1405 C1411 1.465 . S
C1406 C1401 1.399 . S
C1406 C1405 1.394 . S
C1406 C1407 1.516 . S
C1407 C1406 1.516 . S
C1407 C1408 1.502 . S
C1407 C1409 1.561 . S
C1407 C1410 1.526 . S
C1408 H1392 0.959 . S
C1408 H1393 0.959 . S
C1408 H1394 0.961 . S
C1408 C1407 1.502 . S
C1409 H1395 0.960 . S
C1409 H1396 0.961 . S
C1409 H1397 0.959 . S
C1409 C1407 1.561 . S
C1410 C1407 1.526 . S
C1410 C1411 1.396 . S
C1410 C1415 1.390 . S
C1411 C1405 1.465 . S
C1411 C1410 1.396 . S
C1411 C1412 1.399 . S
C1412 H1398 0.929 . S
C1412 C1411 1.399 . S
C1412 C1413 1.385 . S
C1413 H1399 0.931 . S
C1413 C1412 1.385 . S
C1413 C1414 1.389 . S
C1414 C1413 1.389 . S
C1414 C1415 1.387 . S
C1415 H1400 0.930 . S
C1415 C1410 1.390 . S
C1415 C1414 1.387 . S
H1416 C1428 0.930 . S
H1417 C1430 0.930 . S
H1418 C1431 0.930 . S
H1419 C1435 0.959 . S
H1420 C1435 0.959 . S
H1421 C1435 0.961 . S
H1422 C1436 0.960 . S
H1423 C1436 0.961 . S
H1424 C1436 0.959 . S
H1425 C1439 0.929 . S
H1426 C1440 0.931 . S
H1427 C1442 0.930 . S
C1428 H1416 0.930 . S
C1428 C1429 1.399 . S
C1428 C1433 1.399 . S
C1429 C1428 1.399 . S
C1429 C1430 1.376 . S
C1430 H1417 0.930 . S
C1430 C1429 1.376 . S
C1430 C1431 1.388 . S
C1431 H1418 0.930 . S
C1431 C1430 1.388 . S
C1431 C1432 1.390 . S
C1432 C1431 1.390 . S
C1432 C1433 1.394 . S
C1432 C1438 1.465 . S
C1433 C1428 1.399 . S
C1433 C1432 1.394 . S
C1433 C1434 1.516 . S
C1434 C1433 1.516 . S
C1434 C1435 1.502 . S
C1434 C1436 1.561 . S
C1434 C1437 1.526 . S
C1435 H1419 0.959 . S
C1435 H1420 0.959 . S
C1435 H1421 0.961 . S
C1435 C1434 1.502 . S
C1436 H1422 0.960 . S
C1436 H1423 0.961 . S
C1436 H1424 0.959 . S
C1436 C1434 1.561 . S
C1437 C1434 1.526 . S
C1437 C1438 1.396 . S
C1437 C1442 1.390 . S
C1438 C1432 1.465 . S
C1438 C1437 1.396 . S
C1438 C1439 1.399 . S
C1439 H1425 0.929 . S
C1439 C1438 1.399 . S
C1439 C1440 1.385 . S
C1440 H1426 0.931 . S
C1440 C1439 1.385 . S
C1440 C1441 1.389 . S
C1441 C1440 1.389 . S
C1441 C1442 1.387 . S
C1442 H1427 0.930 . S
C1442 C1437 1.390 . S
C1442 C1441 1.387 . S
H1443 C1455 0.930 . S
H1444 C1457 0.930 . S
H1445 C1458 0.930 . S
H1446 C1462 0.959 . S
H1447 C1462 0.959 . S
H1448 C1462 0.961 . S
H1449 C1463 0.960 . S
H1450 C1463 0.961 . S
H1451 C1463 0.959 . S
H1452 C1466 0.929 . S
H1453 C1467 0.931 . S
H1454 C1469 0.930 . S
C1455 H1443 0.930 . S
C1455 C1456 1.399 . S
C1455 C1460 1.399 . S
C1456 C1455 1.399 . S
C1456 C1457 1.376 . S
C1457 H1444 0.930 . S
C1457 C1456 1.376 . S
C1457 C1458 1.388 . S
C1458 H1445 0.930 . S
C1458 C1457 1.388 . S
C1458 C1459 1.390 . S
C1459 C1458 1.390 . S
C1459 C1460 1.394 . S
C1459 C1465 1.465 . S
C1460 C1455 1.399 . S
C1460 C1459 1.394 . S
C1460 C1461 1.516 . S
C1461 C1460 1.516 . S
C1461 C1462 1.502 . S
C1461 C1463 1.561 . S
C1461 C1464 1.526 . S
C1462 H1446 0.959 . S
C1462 H1447 0.959 . S
C1462 H1448 0.961 . S
C1462 C1461 1.502 . S
C1463 H1449 0.960 . S
C1463 H1450 0.961 . S
C1463 H1451 0.959 . S
C1463 C1461 1.561 . S
C1464 C1461 1.526 . S
C1464 C1465 1.396 . S
C1464 C1469 1.390 . S
C1465 C1459 1.465 . S
C1465 C1464 1.396 . S
C1465 C1466 1.399 . S
C1466 H1452 0.929 . S
C1466 C1465 1.399 . S
C1466 C1467 1.385 . S
C1467 H1453 0.931 . S
C1467 C1466 1.385 . S
C1467 C1468 1.389 . S
C1468 C1467 1.389 . S
C1468 C1469 1.387 . S
C1469 H1454 0.930 . S
C1469 C1464 1.390 . S
C1469 C1468 1.387 . S
H1470 C1482 0.930 . S
H1471 C1484 0.930 . S
H1472 C1485 0.930 . S
H1473 C1489 0.959 . S
H1474 C1489 0.959 . S
H1475 C1489 0.961 . S
H1476 C1490 0.960 . S
H1477 C1490 0.961 . S
H1478 C1490 0.959 . S
H1479 C1493 0.929 . S
H1480 C1494 0.931 . S
H1481 C1496 0.930 . S
C1482 H1470 0.930 . S
C1482 C1483 1.399 . S
C1482 C1487 1.399 . S
C1483 C1482 1.399 . S
C1483 C1484 1.376 . S
C1484 H1471 0.930 . S
C1484 C1483 1.376 . S
C1484 C1485 1.388 . S
C1485 H1472 0.930 . S
C1485 C1484 1.388 . S
C1485 C1486 1.390 . S
C1486 C1485 1.390 . S
C1486 C1487 1.394 . S
C1486 C1492 1.465 . S
C1487 C1482 1.399 . S
C1487 C1486 1.394 . S
C1487 C1488 1.516 . S
C1488 C1487 1.516 . S
C1488 C1489 1.502 . S
C1488 C1490 1.561 . S
C1488 C1491 1.526 . S
C1489 H1473 0.959 . S
C1489 H1474 0.959 . S
C1489 H1475 0.961 . S
C1489 C1488 1.502 . S
C1490 H1476 0.960 . S
C1490 H1477 0.961 . S
C1490 H1478 0.959 . S
C1490 C1488 1.561 . S
C1491 C1488 1.526 . S
C1491 C1492 1.396 . S
C1491 C1496 1.390 . S
C1492 C1486 1.465 . S
C1492 C1491 1.396 . S
C1492 C1493 1.399 . S
C1493 H1479 0.929 . S
C1493 C1492 1.399 . S
C1493 C1494 1.385 . S
C1494 H1480 0.931 . S
C1494 C1493 1.385 . S
C1494 C1495 1.389 . S
C1495 C1494 1.389 . S
C1495 C1496 1.387 . S
C1496 H1481 0.930 . S
C1496 C1491 1.390 . S
C1496 C1495 1.387 . S
H1497 C1509 0.930 . S
H1498 C1511 0.930 . S
H1499 C1512 0.930 . S
H1500 C1516 0.959 . S
H1501 C1516 0.959 . S
H1502 C1516 0.961 . S
H1503 C1517 0.960 . S
H1504 C1517 0.961 . S
H1505 C1517 0.959 . S
H1506 C1520 0.929 . S
H1507 C1521 0.931 . S
H1508 C1523 0.930 . S
C1509 H1497 0.930 . S
C1509 C1510 1.399 . S
C1509 C1514 1.399 . S
C1510 C1509 1.399 . S
C1510 C1511 1.376 . S
C1511 H1498 0.930 . S
C1511 C1510 1.376 . S
C1511 C1512 1.388 . S
C1512 H1499 0.930 . S
C1512 C1511 1.388 . S
C1512 C1513 1.390 . S
C1513 C1512 1.390 . S
C1513 C1514 1.394 . S
C1513 C1519 1.465 . S
C1514 C1509 1.399 . S
C1514 C1513 1.394 . S
C1514 C1515 1.516 . S
C1515 C1514 1.516 . S
C1515 C1516 1.502 . S
C1515 C1517 1.561 . S
C1515 C1518 1.526 . S
C1516 H1500 0.959 . S
C1516 H1501 0.959 . S
C1516 H1502 0.961 . S
C1516 C1515 1.502 . S
C1517 H1503 0.960 . S
C1517 H1504 0.961 . S
C1517 H1505 0.959 . S
C1517 C1515 1.561 . S
C1518 C1515 1.526 . S
C1518 C1519 1.396 . S
C1518 C1523 1.390 . S
C1519 C1513 1.465 . S
C1519 C1518 1.396 . S
C1519 C1520 1.399 . S
C1520 H1506 0.929 . S
C1520 C1519 1.399 . S
C1520 C1521 1.385 . S
C1521 H1507 0.931 . S
C1521 C1520 1.385 . S
C1521 C1522 1.389 . S
C1522 C1521 1.389 . S
C1522 C1523 1.387 . S
C1523 H1508 0.930 . S
C1523 C1518 1.390 . S
C1523 C1522 1.387 . S
H1524 C1536 0.930 . S
H1525 C1538 0.930 . S
H1526 C1539 0.930 . S
H1527 C1543 0.959 . S
H1528 C1543 0.959 . S
H1529 C1543 0.961 . S
H1530 C1544 0.960 . S
H1531 C1544 0.961 . S
H1532 C1544 0.959 . S
H1533 C1547 0.929 . S
H1534 C1548 0.931 . S
H1535 C1550 0.930 . S
C1536 H1524 0.930 . S
C1536 C1537 1.399 . S
C1536 C1541 1.399 . S
C1537 C1536 1.399 . S
C1537 C1538 1.376 . S
C1538 H1525 0.930 . S
C1538 C1537 1.376 . S
C1538 C1539 1.388 . S
C1539 H1526 0.930 . S
C1539 C1538 1.388 . S
C1539 C1540 1.390 . S
C1540 C1539 1.390 . S
C1540 C1541 1.394 . S
C1540 C1546 1.465 . S
C1541 C1536 1.399 . S
C1541 C1540 1.394 . S
C1541 C1542 1.516 . S
C1542 C1541 1.516 . S
C1542 C1543 1.502 . S
C1542 C1544 1.561 . S
C1542 C1545 1.526 . S
C1543 H1527 0.959 . S
C1543 H1528 0.959 . S
C1543 H1529 0.961 . S
C1543 C1542 1.502 . S
C1544 H1530 0.960 . S
C1544 H1531 0.961 . S
C1544 H1532 0.959 . S
C1544 C1542 1.561 . S
C1545 C1542 1.526 . S
C1545 C1546 1.396 . S
C1545 C1550 1.390 . S
C1546 C1540 1.465 . S
C1546 C1545 1.396 . S
C1546 C1547 1.399 . S
C1547 H1533 0.929 . S
C1547 C1546 1.399 . S
C1547 C1548 1.385 . S
C1548 H1534 0.931 . S
C1548 C1547 1.385 . S
C1548 C1549 1.389 . S
C1549 C1548 1.389 . S
C1549 C1550 1.387 . S
C1550 H1535 0.930 . S
C1550 C1545 1.390 . S
C1550 C1549 1.387 . S
H1551 C1563 0.930 . S
H1552 C1565 0.930 . S
H1553 C1566 0.930 . S
H1554 C1570 0.959 . S
H1555 C1570 0.959 . S
H1556 C1570 0.961 . S
H1557 C1571 0.960 . S
H1558 C1571 0.961 . S
H1559 C1571 0.959 . S
H1560 C1574 0.929 . S
H1561 C1575 0.931 . S
H1562 C1577 0.930 . S
C1563 H1551 0.930 . S
C1563 C1564 1.399 . S
C1563 C1568 1.399 . S
C1564 C1563 1.399 . S
C1564 C1565 1.376 . S
C1565 H1552 0.930 . S
C1565 C1564 1.376 . S
C1565 C1566 1.388 . S
C1566 H1553 0.930 . S
C1566 C1565 1.388 . S
C1566 C1567 1.390 . S
C1567 C1566 1.390 . S
C1567 C1568 1.394 . S
C1567 C1573 1.465 . S
C1568 C1563 1.399 . S
C1568 C1567 1.394 . S
C1568 C1569 1.516 . S
C1569 C1568 1.516 . S
C1569 C1570 1.502 . S
C1569 C1571 1.561 . S
C1569 C1572 1.526 . S
C1570 H1554 0.959 . S
C1570 H1555 0.959 . S
C1570 H1556 0.961 . S
C1570 C1569 1.502 . S
C1571 H1557 0.960 . S
C1571 H1558 0.961 . S
C1571 H1559 0.959 . S
C1571 C1569 1.561 . S
C1572 C1569 1.526 . S
C1572 C1573 1.396 . S
C1572 C1577 1.390 . S
C1573 C1567 1.465 . S
C1573 C1572 1.396 . S
C1573 C1574 1.399 . S
C1574 H1560 0.929 . S
C1574 C1573 1.399 . S
C1574 C1575 1.385 . S
C1575 H1561 0.931 . S
C1575 C1574 1.385 . S
C1575 C1576 1.389 . S
C1576 C1575 1.389 . S
C1576 C1577 1.387 . S
C1577 H1562 0.930 . S
C1577 C1572 1.390 . S
C1577 C1576 1.387 . S
H1578 C1590 0.930 . S
H1579 C1592 0.930 . S
H1580 C1593 0.930 . S
H1581 C1597 0.959 . S
H1582 C1597 0.959 . S
H1583 C1597 0.961 . S
H1584 C1598 0.960 . S
H1585 C1598 0.961 . S
H1586 C1598 0.959 . S
H1587 C1601 0.929 . S
H1588 C1602 0.931 . S
H1589 C1604 0.930 . S
C1590 H1578 0.930 . S
C1590 C1591 1.399 . S
C1590 C1595 1.399 . S
C1591 C1590 1.399 . S
C1591 C1592 1.376 . S
C1592 H1579 0.930 . S
C1592 C1591 1.376 . S
C1592 C1593 1.388 . S
C1593 H1580 0.930 . S
C1593 C1592 1.388 . S
C1593 C1594 1.390 . S
C1594 C1593 1.390 . S
C1594 C1595 1.394 . S
C1594 C1600 1.465 . S
C1595 C1590 1.399 . S
C1595 C1594 1.394 . S
C1595 C1596 1.516 . S
C1596 C1595 1.516 . S
C1596 C1597 1.502 . S
C1596 C1598 1.561 . S
C1596 C1599 1.526 . S
C1597 H1581 0.959 . S
C1597 H1582 0.959 . S
C1597 H1583 0.961 . S
C1597 C1596 1.502 . S
C1598 H1584 0.960 . S
C1598 H1585 0.961 . S
C1598 H1586 0.959 . S
C1598 C1596 1.561 . S
C1599 C1596 1.526 . S
C1599 C1600 1.396 . S
C1599 C1604 1.390 . S
C1600 C1594 1.465 . S
C1600 C1599 1.396 . S
C1600 C1601 1.399 . S
C1601 H1587 0.929 . S
C1601 C1600 1.399 . S
C1601 C1602 1.385 . S
C1602 H1588 0.931 . S
C1602 C1601 1.385 . S
C1602 C1603 1.389 . S
C1603 C1602 1.389 . S
C1603 C1604 1.387 . S
C1604 H1589 0.930 . S
C1604 C1599 1.390 . S
C1604 C1603 1.387 . S
H1605 C1617 0.930 . S
H1606 C1619 0.930 . S
H1607 C1620 0.930 . S
H1608 C1624 0.959 . S
H1609 C1624 0.959 . S
H1610 C1624 0.961 . S
H1611 C1625 0.960 . S
H1612 C1625 0.961 . S
H1613 C1625 0.959 . S
H1614 C1628 0.929 . S
H1615 C1629 0.931 . S
H1616 C1631 0.930 . S
C1617 H1605 0.930 . S
C1617 C1618 1.399 . S
C1617 C1622 1.399 . S
C1618 C1617 1.399 . S
C1618 C1619 1.376 . S
C1619 H1606 0.930 . S
C1619 C1618 1.376 . S
C1619 C1620 1.388 . S
C1620 H1607 0.930 . S
C1620 C1619 1.388 . S
C1620 C1621 1.390 . S
C1621 C1620 1.390 . S
C1621 C1622 1.394 . S
C1621 C1627 1.465 . S
C1622 C1617 1.399 . S
C1622 C1621 1.394 . S
C1622 C1623 1.516 . S
C1623 C1622 1.516 . S
C1623 C1624 1.502 . S
C1623 C1625 1.561 . S
C1623 C1626 1.526 . S
C1624 H1608 0.959 . S
C1624 H1609 0.959 . S
C1624 H1610 0.961 . S
C1624 C1623 1.502 . S
C1625 H1611 0.960 . S
C1625 H1612 0.961 . S
C1625 H1613 0.959 . S
C1625 C1623 1.561 . S
C1626 C1623 1.526 . S
C1626 C1627 1.396 . S
C1626 C1631 1.390 . S
C1627 C1621 1.465 . S
C1627 C1626 1.396 . S
C1627 C1628 1.399 . S
C1628 H1614 0.929 . S
C1628 C1627 1.399 . S
C1628 C1629 1.385 . S
C1629 H1615 0.931 . S
C1629 C1628 1.385 . S
C1629 C1630 1.389 . S
C1630 C1629 1.389 . S
C1630 C1631 1.387 . S
C1631 H1616 0.930 . S
C1631 C1626 1.390 . S
C1631 C1630 1.387 . S
C349 C9 1.552 . S
C361 C107 1.548 . S
C376 C121 1.548 . S
C388 C23 1.541 . S
C403 C37 1.538 . S
C415 C135 1.528 . S
C430 C51 1.505 . S
C442 C149 1.514 . S
C457 C163 1.534 . S
C469 C65 1.524 . S
C484 C79 1.529 . S
C496 C93 1.539 . S
C511 C177 1.548 . S
C523 C275 1.544 . S
C538 C191 1.532 . S
C550 C289 1.538 . S
C565 C303 1.539 . S
C577 C205 1.533 . S
C592 C219 1.530 . S
C604 C317 1.536 . S
C619 C233 1.530 . S
C631 C331 1.525 . S
C646 C261 1.519 . S
C658 C247 1.514 . S
C673 C8 1.384 . S
C685 C120 1.393 . S
C700 C134 1.395 . S
C712 C22 1.382 . S
C727 C148 1.377 . S
C739 C36 1.398 . S
C754 C50 1.394 . S
C766 C162 1.378 . S
C781 C64 1.377 . S
C793 C92 1.395 . S
C808 C78 1.399 . S
C820 C106 1.375 . S
C835 C288 1.390 . S
C847 C176 1.379 . S
C862 C190 1.396 . S
C874 C302 1.383 . S
C889 C316 1.388 . S
C901 C204 1.381 . S
C916 C330 1.390 . S
C928 C218 1.380 . S
C943 C260 1.397 . S
C955 C232 1.382 . S
C970 C246 1.395 . S
C982 C274 1.376 . S
C997 C7 1.559 . S
C1009 C217 1.553 . S
C1024 C231 1.561 . S
C1036 C21 1.558 . S
C1051 C245 1.539 . S
C1063 C35 1.548 . S
C1078 C49 1.486 . S
C1090 C175 1.492 . S
C1105 C63 1.530 . S
C1117 C189 1.519 . S
C1132 C203 1.546 . S
C1144 C77 1.554 . S
C1159 C301 1.485 . S
C1171 C91 1.489 . S
C1186 C315 1.538 . S
C1198 C105 1.527 . S
C1213 C329 1.552 . S
C1225 C119 1.558 . S
C1240 C259 1.487 . S
C1252 C133 1.493 . S
C1267 C147 1.524 . S
C1279 C273 1.535 . S
C1294 C161 1.551 . S
C1306 C287 1.557 . S
C1321 C3 1.441 . S
C1333 C143 1.421 . S
C1348 C157 1.420 . S
C1360 C17 1.438 . S
C1375 C87 1.421 . S
C1387 C31 1.438 . S
C1402 C45 1.429 . S
C1414 C101 1.425 . S
C1429 C59 1.445 . S
C1441 C115 1.424 . S
C1456 C73 1.421 . S
C1468 C129 1.442 . S
C1483 C171 1.446 . S
C1495 C311 1.436 . S
C1510 C185 1.435 . S
C1522 C325 1.421 . S
C1537 C199 1.441 . S
C1549 C255 1.424 . S
C1564 C269 1.420 . S
C1576 C213 1.431 . S
C1591 C227 1.445 . S
C1603 C283 1.436 . S
C1618 C241 1.433 . S
C1630 C297 1.421 . S
