# Generated by pormake.
# Topology ukd, (4)-cn, num edge types: 1
# Building blocks:
#     Node 0, Type 0, BuildingBlock: QUQFOY_clean_sbu_3, # of connection points: 4
#     Node 1, Type 0, BuildingBlock: QUQFOY_clean_sbu_3, # of connection points: 4
#     Node 2, Type 0, BuildingBlock: QUQFOY_clean_sbu_3, # of connection points: 4
#     Node 3, Type 0, BuildingBlock: QUQFOY_clean_sbu_3, # of connection points: 4
#     Node 4, Type 0, BuildingBlock: QUQFOY_clean_sbu_3, # of connection points: 4
#     Node 5, Type 0, BuildingBlock: QUQFOY_clean_sbu_3, # of connection points: 4
#     Node 6, Type 0, BuildingBlock: QUQFOY_clean_sbu_3, # of connection points: 4
#     Node 7, Type 0, BuildingBlock: QUQFOY_clean_sbu_3, # of connection points: 4
#     Node 8, Type 0, BuildingBlock: QUQFOY_clean_sbu_3, # of connection points: 4
#     Node 9, Type 0, BuildingBlock: QUQFOY_clean_sbu_3, # of connection points: 4
#     Node 10, Type 0, BuildingBlock: QUQFOY_clean_sbu_3, # of connection points: 4
#     Node 11, Type 0, BuildingBlock: QUQFOY_clean_sbu_3, # of connection points: 4
#     Node 12, Type 0, BuildingBlock: QUQFOY_clean_sbu_3, # of connection points: 4
#     Node 13, Type 0, BuildingBlock: QUQFOY_clean_sbu_3, # of connection points: 4
#     Node 14, Type 0, BuildingBlock: QUQFOY_clean_sbu_3, # of connection points: 4
#     Node 15, Type 0, BuildingBlock: QUQFOY_clean_sbu_3, # of connection points: 4
#     Node 16, Type 0, BuildingBlock: QUQFOY_clean_sbu_3, # of connection points: 4
#     Node 17, Type 0, BuildingBlock: QUQFOY_clean_sbu_3, # of connection points: 4
#     Node 18, Type 0, BuildingBlock: QUQFOY_clean_sbu_3, # of connection points: 4
#     Node 19, Type 0, BuildingBlock: QUQFOY_clean_sbu_3, # of connection points: 4
#     Node 20, Type 0, BuildingBlock: QUQFOY_clean_sbu_3, # of connection points: 4
#     Node 21, Type 0, BuildingBlock: QUQFOY_clean_sbu_3, # of connection points: 4
#     Node 22, Type 0, BuildingBlock: QUQFOY_clean_sbu_3, # of connection points: 4
#     Node 23, Type 0, BuildingBlock: QUQFOY_clean_sbu_3, # of connection points: 4
#     Node 24, Type 0, BuildingBlock: QUQFOY_clean_sbu_3, # of connection points: 4
#     Node 25, Type 0, BuildingBlock: QUQFOY_clean_sbu_3, # of connection points: 4
#     Node 26, Type 0, BuildingBlock: QUQFOY_clean_sbu_3, # of connection points: 4
#     Node 27, Type 0, BuildingBlock: QUQFOY_clean_sbu_3, # of connection points: 4
#     Node 28, Type 0, BuildingBlock: QUQFOY_clean_sbu_3, # of connection points: 4
#     Node 29, Type 0, BuildingBlock: QUQFOY_clean_sbu_3, # of connection points: 4
#     Node 30, Type 0, BuildingBlock: QUQFOY_clean_sbu_3, # of connection points: 4
#     Node 31, Type 0, BuildingBlock: QUQFOY_clean_sbu_3, # of connection points: 4
#     Edge 32, Type (0, 0), BuildingBlock: OJICUG_clean_linker_0, # of connection points: 2
#     Edge 33, Type (0, 0), BuildingBlock: OJICUG_clean_linker_0, # of connection points: 2
#     Edge 34, Type (0, 0), BuildingBlock: OJICUG_clean_linker_0, # of connection points: 2
#     Edge 35, Type (0, 0), BuildingBlock: OJICUG_clean_linker_0, # of connection points: 2
#     Edge 36, Type (0, 0), BuildingBlock: OJICUG_clean_linker_0, # of connection points: 2
#     Edge 37, Type (0, 0), BuildingBlock: OJICUG_clean_linker_0, # of connection points: 2
#     Edge 38, Type (0, 0), BuildingBlock: OJICUG_clean_linker_0, # of connection points: 2
#     Edge 39, Type (0, 0), BuildingBlock: OJICUG_clean_linker_0, # of connection points: 2
#     Edge 40, Type (0, 0), BuildingBlock: OJICUG_clean_linker_0, # of connection points: 2
#     Edge 41, Type (0, 0), BuildingBlock: OJICUG_clean_linker_0, # of connection points: 2
#     Edge 42, Type (0, 0), BuildingBlock: OJICUG_clean_linker_0, # of connection points: 2
#     Edge 43, Type (0, 0), BuildingBlock: OJICUG_clean_linker_0, # of connection points: 2
#     Edge 44, Type (0, 0), BuildingBlock: OJICUG_clean_linker_0, # of connection points: 2
#     Edge 45, Type (0, 0), BuildingBlock: OJICUG_clean_linker_0, # of connection points: 2
#     Edge 46, Type (0, 0), BuildingBlock: OJICUG_clean_linker_0, # of connection points: 2
#     Edge 47, Type (0, 0), BuildingBlock: OJICUG_clean_linker_0, # of connection points: 2
#     Edge 48, Type (0, 0), BuildingBlock: OJICUG_clean_linker_0, # of connection points: 2
#     Edge 49, Type (0, 0), BuildingBlock: OJICUG_clean_linker_0, # of connection points: 2
#     Edge 50, Type (0, 0), BuildingBlock: OJICUG_clean_linker_0, # of connection points: 2
#     Edge 51, Type (0, 0), BuildingBlock: OJICUG_clean_linker_0, # of connection points: 2
#     Edge 52, Type (0, 0), BuildingBlock: OJICUG_clean_linker_0, # of connection points: 2
#     Edge 53, Type (0, 0), BuildingBlock: OJICUG_clean_linker_0, # of connection points: 2
#     Edge 54, Type (0, 0), BuildingBlock: OJICUG_clean_linker_0, # of connection points: 2
#     Edge 55, Type (0, 0), BuildingBlock: OJICUG_clean_linker_0, # of connection points: 2
#     Edge 56, Type (0, 0), BuildingBlock: OJICUG_clean_linker_0, # of connection points: 2
#     Edge 57, Type (0, 0), BuildingBlock: OJICUG_clean_linker_0, # of connection points: 2
#     Edge 58, Type (0, 0), BuildingBlock: OJICUG_clean_linker_0, # of connection points: 2
#     Edge 59, Type (0, 0), BuildingBlock: OJICUG_clean_linker_0, # of connection points: 2
#     Edge 60, Type (0, 0), BuildingBlock: OJICUG_clean_linker_0, # of connection points: 2
#     Edge 61, Type (0, 0), BuildingBlock: OJICUG_clean_linker_0, # of connection points: 2
#     Edge 62, Type (0, 0), BuildingBlock: OJICUG_clean_linker_0, # of connection points: 2
#     Edge 63, Type (0, 0), BuildingBlock: OJICUG_clean_linker_0, # of connection points: 2
#     Edge 64, Type (0, 0), BuildingBlock: OJICUG_clean_linker_0, # of connection points: 2
#     Edge 65, Type (0, 0), BuildingBlock: OJICUG_clean_linker_0, # of connection points: 2
#     Edge 66, Type (0, 0), BuildingBlock: OJICUG_clean_linker_0, # of connection points: 2
#     Edge 67, Type (0, 0), BuildingBlock: OJICUG_clean_linker_0, # of connection points: 2
#     Edge 68, Type (0, 0), BuildingBlock: OJICUG_clean_linker_0, # of connection points: 2
#     Edge 69, Type (0, 0), BuildingBlock: OJICUG_clean_linker_0, # of connection points: 2
#     Edge 70, Type (0, 0), BuildingBlock: OJICUG_clean_linker_0, # of connection points: 2
#     Edge 71, Type (0, 0), BuildingBlock: OJICUG_clean_linker_0, # of connection points: 2
#     Edge 72, Type (0, 0), BuildingBlock: OJICUG_clean_linker_0, # of connection points: 2
#     Edge 73, Type (0, 0), BuildingBlock: OJICUG_clean_linker_0, # of connection points: 2
#     Edge 74, Type (0, 0), BuildingBlock: OJICUG_clean_linker_0, # of connection points: 2
#     Edge 75, Type (0, 0), BuildingBlock: OJICUG_clean_linker_0, # of connection points: 2
#     Edge 76, Type (0, 0), BuildingBlock: OJICUG_clean_linker_0, # of connection points: 2
#     Edge 77, Type (0, 0), BuildingBlock: OJICUG_clean_linker_0, # of connection points: 2
#     Edge 78, Type (0, 0), BuildingBlock: OJICUG_clean_linker_0, # of connection points: 2
#     Edge 79, Type (0, 0), BuildingBlock: OJICUG_clean_linker_0, # of connection points: 2
#     Edge 80, Type (0, 0), BuildingBlock: OJICUG_clean_linker_0, # of connection points: 2
#     Edge 81, Type (0, 0), BuildingBlock: OJICUG_clean_linker_0, # of connection points: 2
#     Edge 82, Type (0, 0), BuildingBlock: OJICUG_clean_linker_0, # of connection points: 2
#     Edge 83, Type (0, 0), BuildingBlock: OJICUG_clean_linker_0, # of connection points: 2
#     Edge 84, Type (0, 0), BuildingBlock: OJICUG_clean_linker_0, # of connection points: 2
#     Edge 85, Type (0, 0), BuildingBlock: OJICUG_clean_linker_0, # of connection points: 2
#     Edge 86, Type (0, 0), BuildingBlock: OJICUG_clean_linker_0, # of connection points: 2
#     Edge 87, Type (0, 0), BuildingBlock: OJICUG_clean_linker_0, # of connection points: 2
#     Edge 88, Type (0, 0), BuildingBlock: OJICUG_clean_linker_0, # of connection points: 2
#     Edge 89, Type (0, 0), BuildingBlock: OJICUG_clean_linker_0, # of connection points: 2
#     Edge 90, Type (0, 0), BuildingBlock: OJICUG_clean_linker_0, # of connection points: 2
#     Edge 91, Type (0, 0), BuildingBlock: OJICUG_clean_linker_0, # of connection points: 2
#     Edge 92, Type (0, 0), BuildingBlock: OJICUG_clean_linker_0, # of connection points: 2
#     Edge 93, Type (0, 0), BuildingBlock: OJICUG_clean_linker_0, # of connection points: 2
#     Edge 94, Type (0, 0), BuildingBlock: OJICUG_clean_linker_0, # of connection points: 2
#     Edge 95, Type (0, 0), BuildingBlock: OJICUG_clean_linker_0, # of connection points: 2
# Relax obj value: 0.048
# Max RMSD: 0.083
# Mean RMSD: 0.077
data_MOF--net-ukd--node1-QUQFOY_clean_sbu_3--edge1-OJICUG_clean_linker_0
_symmetry_space_group_name_H-M    P1
_symmetry_Int_Tables_number       1
_symmetry_cell_setting            triclinic
loop_
_symmetry_equiv_pos_as_xyz
'x, y, z'
_cell_length_a     33.972338
_cell_length_b     34.100565
_cell_length_c     56.840342
_cell_angle_alpha  89.867525
_cell_angle_beta   89.921938
_cell_angle_gamma 90.029229
loop_
_atom_site_label
_atom_site_type_symbol
_atom_site_fract_x
_atom_site_fract_y
_atom_site_fract_z
_atom_type_partial_charge
C0 C 0.19016 0.22166 0.28723 0.0
O1 O 0.15467 0.21142 0.29067 0.0
Cd2 Cd 0.13076 0.17997 0.32544 0.0
O3 O 0.21665 0.21401 0.30241 0.0
Cd4 Cd 0.22173 0.18179 0.34129 0.0
C5 C 0.16259 0.25192 0.36317 0.0
O6 O 0.17549 0.12886 0.33407 0.0
O7 O 0.18878 0.13939 0.3704 0.0
O8 O 0.28206 0.15195 0.32695 0.0
C9 C 0.17108 0.11855 0.35528 0.0
O10 O 0.13441 0.23161 0.35485 0.0
C11 C 0.30154 0.15695 0.34574 0.0
O12 O 0.19841 0.24303 0.35913 0.0
O13 O 0.28454 0.17566 0.3622 0.0
C14 C 0.03839 0.93395 0.53314 0.0
O15 O 0.05573 0.9012 0.53558 0.0
Cd16 Cd 0.07589 0.87583 0.57249 0.0
O17 O 0.03453 0.95738 0.55047 0.0
Cd18 Cd 0.05292 0.96543 0.59249 0.0
C19 C 0.98585 0.89472 0.60116 0.0
O20 O 0.112 0.9272 0.58953 0.0
O21 O 0.09246 0.93742 0.62485 0.0
O22 O 0.07633 0.02866 0.57924 0.0
C23 C 0.11763 0.92188 0.61127 0.0
O24 O 0.01175 0.87279 0.59165 0.0
C25 C 0.06678 0.04741 0.59763 0.0
O26 O -0.0082 0.93142 0.60383 0.0
O27 O 0.04823 0.02841 0.61344 0.0
C28 C 0.28971 0.77342 0.78328 0.0
O29 O 0.32241 0.79146 0.78411 0.0
Cd30 Cd 0.35154 0.81448 0.81941 0.0
O31 O 0.26761 0.77094 0.80138 0.0
Cd32 Cd 0.2628 0.79331 0.84281 0.0
C33 C 0.33328 0.72598 0.84982 0.0
O34 O 0.30283 0.85111 0.83853 0.0
O35 O 0.29432 0.83178 0.87413 0.0
O36 O 0.20027 0.8189 0.82994 0.0
C37 C 0.31008 0.8562 0.86012 0.0
O38 O 0.35442 0.75145 0.83926 0.0
C39 C 0.18135 0.81069 0.84857 0.0
O40 O 0.29678 0.73208 0.85386 0.0
O41 O 0.19986 0.79193 0.86449 0.0
C42 C 0.44183 0.0473 0.034 0.0
O43 O 0.42408 0.08005 0.03486 0.0
Cd44 Cd 0.40369 0.10879 0.07098 0.0
O45 O 0.44526 0.02596 0.05233 0.0
Cd46 Cd 0.42569 0.02173 0.09427 0.0
C47 C 0.49347 0.09202 0.10022 0.0
O48 O 0.36656 0.06035 0.09064 0.0
O49 O 0.38722 0.05196 0.12597 0.0
O50 O 0.40198 0.95832 0.08226 0.0
C51 C 0.36168 0.0668 0.11236 0.0
O52 O 0.4678 0.11319 0.08989 0.0
C53 C 0.41059 0.94046 0.10116 0.0
O54 O 0.48715 0.05575 0.10437 0.0
O55 O 0.4288 0.96 0.11679 0.0
C56 C 0.18152 0.77195 0.17736 0.0
O57 O 0.14651 0.78353 0.17376 0.0
Cd58 Cd 0.12475 0.81061 0.13715 0.0
O59 O 0.20798 0.77628 0.16166 0.0
Cd60 Cd 0.21633 0.80359 0.12178 0.0
C61 C 0.15522 0.73328 0.10244 0.0
O62 O 0.17203 0.85859 0.12657 0.0
O63 O 0.1868 0.84475 0.09083 0.0
O64 O 0.27709 0.83144 0.13655 0.0
C65 C 0.16895 0.86725 0.10502 0.0
O66 O 0.1276 0.75495 0.11023 0.0
C67 C 0.29734 0.82442 0.11826 0.0
O68 O 0.19128 0.7418 0.10589 0.0
O69 O 0.28038 0.80557 0.10186 0.0
C70 C 0.4508 0.93366 0.43065 0.0
O71 O 0.43329 0.90076 0.42987 0.0
Cd72 Cd 0.41231 0.87093 0.39441 0.0
O73 O 0.45355 0.95529 0.41238 0.0
Cd74 Cd 0.4322 0.95843 0.37059 0.0
C75 C 0.50172 0.89002 0.36501 0.0
O76 O 0.37421 0.91833 0.37493 0.0
O77 O 0.39457 0.92551 0.33942 0.0
O78 O 0.40624 0.02119 0.38232 0.0
C79 C 0.36943 0.91071 0.35336 0.0
O80 O 0.47648 0.86858 0.37556 0.0
C81 C 0.41406 0.03905 0.36327 0.0
O82 O 0.49465 0.92599 0.36038 0.0
O83 O 0.43282 0.0199 0.34767 0.0
C84 C 0.28955 0.19722 0.68127 0.0
O85 O 0.32213 0.17915 0.67958 0.0
Cd86 Cd 0.34898 0.15583 0.64368 0.0
O87 O 0.26648 0.20016 0.66367 0.0
Cd88 Cd 0.26027 0.17858 0.62212 0.0
C89 C 0.33209 0.24437 0.61343 0.0
O90 O 0.2985 0.11941 0.62594 0.0
O91 O 0.28944 0.13897 0.59047 0.0
O92 O 0.19685 0.15479 0.63493 0.0
C93 C 0.30445 0.1138 0.60424 0.0
O94 O 0.35339 0.21855 0.6235 0.0
C95 C 0.17846 0.16342 0.61621 0.0
O96 O 0.29523 0.23894 0.61042 0.0
O97 O 0.19764 0.18193 0.60045 0.0
C98 C 0.02732 0.03707 0.92882 0.0
O99 O 0.0456 0.06949 0.92731 0.0
Cd100 Cd 0.07266 0.0954 0.89203 0.0
O101 O 0.02587 0.01359 0.91141 0.0
Cd102 Cd 0.05096 0.00673 0.87056 0.0
C103 C 0.98642 0.07874 0.85929 0.0
O104 O 0.11024 0.04458 0.87575 0.0
O105 O 0.09331 0.03554 0.83985 0.0
O106 O 0.07416 0.94378 0.88426 0.0
C107 C 0.11759 0.05044 0.85422 0.0
O108 O 0.01193 0.09989 0.86973 0.0
C109 C 0.06655 0.92509 0.86554 0.0
O110 O -0.0086 0.04179 0.85708 0.0
O111 O 0.04885 0.94389 0.84932 0.0
C112 C 0.6947 0.82896 0.61227 0.0
O113 O 0.70682 0.81009 0.59446 0.0
Cd114 Cd 0.76102 0.76443 0.59671 0.0
O115 O 0.71044 0.82347 0.63228 0.0
Cd116 Cd 0.76159 0.78261 0.65027 0.0
C117 C 0.83468 0.82288 0.61907 0.0
O118 O 0.7532 0.71983 0.62894 0.0
O119 O 0.80431 0.72674 0.65128 0.0
O120 O 0.71307 0.771 0.68035 0.0
C121 C 0.78357 0.70472 0.63836 0.0
O122 O 0.821 0.80161 0.60261 0.0
C123 C 0.73556 0.77821 0.69759 0.0
O124 O 0.81686 0.82546 0.63875 0.0
O125 O 0.77026 0.78975 0.69282 0.0
C126 C 0.91035 0.9321 0.36084 0.0
O127 O 0.92377 0.94726 0.34208 0.0
Cd128 Cd 0.95919 0.0081 0.34324 0.0
O129 O 0.91838 0.94736 0.38065 0.0
Cd130 Cd 0.95862 0.00183 0.39595 0.0
C131 C 0.89619 0.06762 0.37362 0.0
O132 O 0.01596 0.00527 0.36884 0.0
O133 O 0.00666 0.05288 0.39346 0.0
O134 O 0.9866 0.95644 0.42397 0.0
C135 C 0.02879 0.03634 0.37855 0.0
O136 O 0.9111 0.05799 0.35393 0.0
C137 C 0.97751 0.97636 0.44201 0.0
O138 O 0.90723 0.0512 0.39258 0.0
O139 O 0.95812 0.00769 0.43864 0.0
C140 C 0.78433 0.15944 0.10879 0.0
O141 O 0.77232 0.17808 0.09084 0.0
Cd142 Cd 0.71786 0.22363 0.09327 0.0
O143 O 0.76847 0.1652 0.12873 0.0
Cd144 Cd 0.71742 0.2058 0.14673 0.0
C145 C 0.64463 0.16487 0.11592 0.0
O146 O 0.72515 0.26876 0.12528 0.0
O147 O 0.67451 0.26134 0.14809 0.0
O148 O 0.76591 0.21703 0.17671 0.0
C149 C 0.6948 0.28355 0.13494 0.0
O150 O 0.65809 0.18605 0.09927 0.0
C151 C 0.74367 0.20865 0.19393 0.0
O152 O 0.66251 0.16273 0.13557 0.0
O153 O 0.70899 0.19714 0.18918 0.0
C154 C 0.57791 0.02847 0.86343 0.0
O155 O 0.56354 0.01241 0.84526 0.0
Cd156 Cd 0.52594 0.95323 0.84831 0.0
O157 O 0.56963 0.01519 0.88378 0.0
Cd158 Cd 0.52722 0.96388 0.90125 0.0
C159 C 0.58733 0.89444 0.88082 0.0
O160 O 0.47021 0.96112 0.87421 0.0
O161 O 0.47706 0.91444 0.89979 0.0
O162 O 0.50045 0.01332 0.92709 0.0
C163 C 0.45585 0.93116 0.88446 0.0
O164 O 0.57247 0.90317 0.86096 0.0
C165 C 0.50768 -0.00512 0.946 0.0
O166 O 0.57702 0.91235 0.89942 0.0
O167 O 0.52582 0.96246 0.94416 0.0
C168 C 0.69673 0.14865 0.8535 0.0
O169 O 0.7103 0.16652 0.87129 0.0
Cd170 Cd 0.76555 0.21079 0.86811 0.0
O171 O 0.71134 0.15477 0.83323 0.0
Cd172 Cd 0.76189 0.19596 0.81479 0.0
C173 C 0.83634 0.15254 0.84236 0.0
O174 O 0.75713 0.25797 0.83737 0.0
O175 O 0.8074 0.24943 0.81443 0.0
O176 O 0.71209 0.21346 0.78673 0.0
C177 C 0.78773 0.27207 0.82757 0.0
O178 O 0.82439 0.17331 0.85953 0.0
C179 C 0.73272 0.20683 0.76857 0.0
O180 O 0.81684 0.15085 0.82326 0.0
O181 O 0.76676 0.19229 0.7718 0.0
C182 C 0.57376 0.94723 0.60339 0.0
O183 O 0.55553 0.95978 0.62136 0.0
Cd184 Cd 0.50993 0.0139 0.61915 0.0
O185 O 0.56724 0.96221 0.58329 0.0
Cd186 Cd 0.52456 0.01236 0.5658 0.0
C187 C 0.56761 0.08587 0.59414 0.0
O188 O 0.46239 0.00617 0.58854 0.0
O189 O 0.47028 0.05691 0.56598 0.0
O190 O 0.50787 0.96312 0.53754 0.0
C191 C 0.44786 0.03675 0.57908 0.0
O192 O 0.54701 0.07309 0.61124 0.0
C193 C 0.5143 0.98402 0.51947 0.0
O194 O 0.56924 0.06725 0.57475 0.0
O195 O 0.52816 0.01821 0.52282 0.0
C196 C 0.79164 0.81127 0.3562 0.0
O197 O 0.7797 0.79341 0.37447 0.0
Cd198 Cd 0.72189 0.75216 0.37303 0.0
O199 O 0.77428 0.80619 0.33666 0.0
Cd200 Cd 0.72052 0.76733 0.32 0.0
C201 C 0.65183 0.81475 0.3504 0.0
O202 O 0.72408 0.70446 0.34208 0.0
O203 O 0.6729 0.71595 0.32033 0.0
O204 O 0.76738 0.74948 0.29041 0.0
C205 C 0.69221 0.69213 0.33294 0.0
O206 O 0.66496 0.79384 0.36723 0.0
C207 C 0.74595 0.7582 0.27293 0.0
O208 O 0.66865 0.81444 0.33036 0.0
O209 O 0.71258 0.77345 0.27728 0.0
C210 C 0.90327 0.03896 0.10162 0.0
O211 O 0.92153 0.02716 0.11977 0.0
Cd212 Cd 0.96574 0.9719 0.1189 0.0
O213 O 0.90903 0.02251 0.08187 0.0
Cd214 Cd 0.95035 0.97024 0.06546 0.0
C215 C 0.90598 0.89969 0.09619 0.0
O216 O 0.01278 0.97688 0.08773 0.0
O217 O 0.00428 0.92519 0.06619 0.0
O218 O 0.96681 0.01734 0.03572 0.0
C219 C 0.02692 0.94567 0.07888 0.0
O220 O 0.92679 0.91336 0.11288 0.0
C221 C 0.96001 -0.00481 0.01831 0.0
O222 O 0.905 0.91676 0.07623 0.0
O223 O 0.94603 0.96136 0.02273 0.0
C224 C 0.69045 0.71876 0.78834 0.0
O225 O 0.65516 0.70781 0.79175 0.0
Cd226 Cd 0.63211 0.67678 0.82694 0.0
O227 O 0.71689 0.71215 0.80371 0.0
Cd228 Cd 0.72285 0.68112 0.8428 0.0
C229 C 0.66205 0.75028 0.86418 0.0
O230 O 0.678 0.6268 0.83609 0.0
O231 O 0.69178 0.63806 0.87228 0.0
O232 O 0.78358 0.65318 0.82798 0.0
C233 C 0.67432 0.61659 0.85738 0.0
O234 O 0.63436 0.72925 0.85592 0.0
C235 C 0.80338 0.65872 0.8466 0.0
O236 O 0.69807 0.74201 0.86029 0.0
O237 O 0.78625 0.67684 0.86325 0.0
C238 C 0.5326 0.44017 0.03246 0.0
O239 O 0.55041 0.40757 0.03436 0.0
Cd240 Cd 0.57371 0.38132 0.07045 0.0
O241 O 0.52992 0.46347 0.04992 0.0
Cd242 Cd 0.55179 0.46997 0.09144 0.0
C243 C 0.48522 0.39906 0.10075 0.0
O244 O 0.61109 0.43161 0.08769 0.0
O245 O 0.59177 0.44108 0.12316 0.0
O246 O 0.5757 0.53323 0.07861 0.0
C247 C 0.61695 0.42598 0.1094 0.0
O248 O 0.51087 0.37739 0.0908 0.0
C249 C 0.5666 0.55162 0.09721 0.0
O250 O 0.49106 0.43577 0.10345 0.0
O251 O 0.548 0.53246 0.11293 0.0
C252 C 0.7918 0.25606 0.28651 0.0
O253 O 0.82741 0.26577 0.28998 0.0
Cd254 Cd 0.85225 0.29071 0.3262 0.0
O255 O 0.76594 0.26075 0.30252 0.0
Cd256 Cd 0.76124 0.28594 0.34313 0.0
C257 C 0.82068 0.21277 0.36011 0.0
O258 O 0.80705 0.33958 0.33792 0.0
O259 O 0.79454 0.32463 0.37384 0.0
O260 O 0.70046 0.31572 0.32993 0.0
C261 C 0.81202 0.34719 0.35945 0.0
O262 O 0.84861 0.23406 0.3523 0.0
C263 C 0.68134 0.30937 0.34875 0.0
O264 O 0.78474 0.22239 0.35734 0.0
O265 O 0.69884 0.29011 0.36481 0.0
C266 C 0.93927 0.5435 0.53415 0.0
O267 O 0.92161 0.57626 0.5353 0.0
Cd268 Cd 0.90078 0.6039 0.57166 0.0
O269 O 0.9423 0.52151 0.55223 0.0
Cd270 Cd 0.92203 0.51556 0.59398 0.0
C271 C -0.00998 0.58542 0.60127 0.0
O272 O 0.86343 0.55494 0.5906 0.0
O273 O 0.88328 0.54505 0.62595 0.0
O274 O 0.8975 0.45291 0.58093 0.0
C275 C 0.85831 0.56088 0.61235 0.0
O276 O 0.96457 0.60702 0.59105 0.0
C277 C 0.9067 0.43388 0.59932 0.0
O278 O 0.98355 0.54901 0.6049 0.0
O279 O 0.92533 0.4525 0.61518 0.0
C280 C 0.68543 0.27636 0.68067 0.0
O281 O 0.65294 0.29475 0.67982 0.0
Cd282 Cd 0.62567 0.32096 0.64455 0.0
O283 O 0.70804 0.27491 0.66277 0.0
Cd284 Cd 0.71369 0.30003 0.62196 0.0
C285 C 0.64197 0.235 0.61184 0.0
O286 O 0.67494 0.35904 0.62655 0.0
O287 O 0.68434 0.3405 0.59091 0.0
O288 O 0.77646 0.32431 0.63526 0.0
C289 C 0.66905 0.36515 0.60486 0.0
O290 O 0.62091 0.26023 0.62257 0.0
C291 C 0.79532 0.31655 0.61657 0.0
O292 O 0.67891 0.24031 0.60902 0.0
O293 O 0.77671 0.29829 0.60054 0.0
C294 C 0.94673 0.43353 0.92932 0.0
O295 O 0.92902 0.40076 0.92835 0.0
Cd296 Cd 0.90836 0.37224 0.89232 0.0
O297 O 0.95019 0.4551 0.91107 0.0
Cd298 Cd 0.93076 0.45974 0.86913 0.0
C299 C -0.00175 0.38926 0.86294 0.0
O300 O 0.87169 0.42134 0.87319 0.0
O301 O 0.89153 0.42957 0.83766 0.0
O302 O 0.9074 0.52302 0.8816 0.0
C303 C 0.86628 0.4148 0.85155 0.0
O304 O 0.97245 0.3682 0.8733 0.0
C305 C 0.91564 0.54111 0.8627 0.0
O306 O -0.00785 0.42556 0.85879 0.0
O307 O 0.93351 0.52175 0.84683 0.0
C308 C 0.79033 0.70045 0.18161 0.0
O309 O 0.8233 0.6832 0.17963 0.0
Cd310 Cd 0.85068 0.66151 0.14359 0.0
O311 O 0.76705 0.70352 0.1641 0.0
Cd312 Cd 0.76091 0.68319 0.12225 0.0
C313 C 0.83147 0.75032 0.11393 0.0
O314 O 0.8005 0.6251 0.12576 0.0
O315 O 0.79107 0.64464 0.09034 0.0
O316 O 0.69792 0.65799 0.13491 0.0
C317 C 0.80691 0.61994 0.10408 0.0
O318 O 0.85323 0.72474 0.12387 0.0
C319 C 0.67931 0.66678 0.1163 0.0
O320 O 0.79472 0.74431 0.11086 0.0
O321 O 0.69816 0.68587 0.10065 0.0
C322 C 0.50946 0.5358 0.42653 0.0
O323 O 0.51996 0.57102 0.42279 0.0
Cd324 Cd 0.54834 0.594 0.3869 0.0
O325 O 0.51498 0.50948 0.411 0.0
Cd326 Cd 0.543 0.50417 0.37099 0.0
C327 C 0.47175 0.56447 0.35174 0.0
O328 O 0.59811 0.54817 0.37713 0.0
O329 O 0.58469 0.53603 0.341 0.0
O330 O 0.57101 0.4429 0.38465 0.0
C331 C 0.60741 0.55231 0.35573 0.0
O332 O 0.49344 0.59211 0.35937 0.0
C333 C 0.56532 0.42421 0.36568 0.0
O334 O 0.48049 0.52863 0.35534 0.0
O335 O 0.54694 0.44212 0.34941 0.0
C336 C 0.1945 0.33157 0.11073 0.0
O337 O 0.20687 0.31247 0.09307 0.0
Cd338 Cd 0.26145 0.26737 0.09594 0.0
O339 O 0.21012 0.32655 0.13082 0.0
Cd340 Cd 0.26112 0.28665 0.14958 0.0
C341 C 0.33425 0.32687 0.1186 0.0
O342 O 0.25339 0.22361 0.12852 0.0
O343 O 0.30419 0.23119 0.15103 0.0
O344 O 0.21248 0.27545 0.17965 0.0
C345 C 0.28377 0.20886 0.13813 0.0
O346 O 0.32095 0.30523 0.1022 0.0
C347 C 0.235 0.28272 0.19688 0.0
O348 O 0.31611 0.32971 0.13816 0.0
O349 O 0.26969 0.29425 0.19208 0.0
C350 C 0.40966 0.43817 0.85959 0.0
O351 O 0.42732 0.45004 0.84123 0.0
Cd352 Cd 0.47041 0.5063 0.84197 0.0
O353 O 0.41586 0.45481 0.87922 0.0
Cd354 Cd 0.45726 0.50752 0.89509 0.0
C355 C 0.41001 0.57718 0.86545 0.0
O356 O 0.51953 0.50301 0.87211 0.0
O357 O 0.50944 0.55438 0.89374 0.0
O358 O 0.47638 0.46088 0.92456 0.0
C359 C 0.53267 0.53465 0.88097 0.0
O360 O 0.43035 0.56393 0.8484 0.0
C361 C 0.46886 0.48254 0.94209 0.0
O362 O 0.41036 0.56012 0.88541 0.0
O363 O 0.45349 0.51581 0.93787 0.0
C364 C 0.28127 0.65186 0.61093 0.0
O365 O 0.26944 0.67048 0.59292 0.0
Cd366 Cd 0.21475 0.71548 0.59488 0.0
O367 O 0.2652 0.65767 0.63081 0.0
Cd368 Cd 0.21404 0.6995 0.64794 0.0
C369 C 0.14133 0.65737 0.61803 0.0
O370 O 0.22171 0.76205 0.62605 0.0
O371 O 0.16994 0.75408 0.6479 0.0
O372 O 0.26299 0.71466 0.67672 0.0
C373 C 0.19097 0.77662 0.63537 0.0
O374 O 0.15509 0.67807 0.60126 0.0
C375 C 0.24147 0.7084 0.69457 0.0
O376 O 0.15901 0.65564 0.63777 0.0
O377 O 0.20702 0.69519 0.69085 0.0
C378 C 0.07206 0.52897 0.36256 0.0
O379 O 0.0581 0.51244 0.34443 0.0
Cd380 Cd 0.02311 0.45172 0.34772 0.0
O381 O 0.0647 0.51522 0.38293 0.0
Cd382 Cd 0.02488 0.46248 0.40095 0.0
C383 C 0.08712 0.39521 0.38005 0.0
O384 O 0.96787 0.45777 0.37414 0.0
O385 O 0.97609 0.41163 0.39993 0.0
O386 O -0.00276 0.51123 0.42694 0.0
C387 C 0.95448 0.42744 0.38446 0.0
O388 O 0.07176 0.40354 0.36026 0.0
C389 C 0.00539 0.49305 0.44581 0.0
O390 O 0.07635 0.41264 0.39873 0.0
O391 O 0.02439 0.46114 0.44386 0.0
C392 C 0.19009 0.64948 0.35256 0.0
O393 O 0.20612 0.66435 0.3706 0.0
Cd394 Cd 0.26595 0.70131 0.36708 0.0
O395 O 0.20392 0.65655 0.33217 0.0
Cd396 Cd 0.25606 0.69641 0.31372 0.0
C397 C 0.32552 0.63811 0.33645 0.0
O398 O 0.25874 0.75478 0.33948 0.0
O399 O 0.30534 0.74668 0.31391 0.0
O400 O 0.20719 0.71976 0.28602 0.0
C401 C 0.28894 0.76842 0.32905 0.0
O402 O 0.31655 0.65413 0.35593 0.0
C403 C 0.22683 0.71078 0.26781 0.0
O404 O 0.30764 0.64711 0.31757 0.0
O405 O 0.25954 0.69358 0.271 0.0
C406 C 0.07604 0.45192 0.10108 0.0
O407 O 0.06094 0.46738 0.11925 0.0
Cd408 Cd 0.02201 0.52574 0.11643 0.0
O409 O 0.06822 0.46553 0.08076 0.0
Cd410 Cd 0.02599 0.51659 0.06319 0.0
C411 C 0.08311 0.58716 0.08541 0.0
O412 O 0.96794 0.51708 0.08947 0.0
O413 O 0.97421 0.56425 0.06413 0.0
O414 O 0.00189 0.46698 0.0367 0.0
C415 C 0.95306 0.54675 0.07922 0.0
O416 O 0.06762 0.57748 0.10496 0.0
C417 C 0.00943 0.48592 0.018 0.0
O418 O 0.07422 0.56941 0.0665 0.0
O419 O 0.02655 0.51883 0.02025 0.0
C420 C 0.28942 0.31853 0.85432 0.0
O421 O 0.27733 0.3009 0.87264 0.0
Cd422 Cd 0.22164 0.25688 0.8713 0.0
O423 O 0.27309 0.31215 0.83461 0.0
Cd424 Cd 0.22074 0.27058 0.81853 0.0
C425 C 0.14909 0.3153 0.84802 0.0
O426 O 0.22672 0.20818 0.84106 0.0
O427 O 0.175 0.21749 0.81943 0.0
O428 O 0.26801 0.25301 0.78905 0.0
C429 C 0.19543 0.19446 0.83194 0.0
O430 O 0.16243 0.29496 0.86503 0.0
C431 C 0.24615 0.26025 0.77151 0.0
O432 O 0.16682 0.31595 0.82826 0.0
O433 O 0.21244 0.27483 0.77574 0.0
C434 C 0.40174 0.53297 0.60331 0.0
O435 O 0.42002 0.52073 0.62135 0.0
Cd436 Cd 0.46559 0.46645 0.61956 0.0
O437 O 0.40789 0.51739 0.58336 0.0
Cd438 Cd 0.44918 0.46627 0.56592 0.0
C439 C 0.40684 0.39391 0.59645 0.0
O440 O 0.51176 0.47371 0.588 0.0
O441 O 0.50462 0.423 0.56551 0.0
O442 O 0.46216 0.51399 0.53564 0.0
C443 C 0.52668 0.44326 0.57868 0.0
O444 O 0.42786 0.40712 0.61319 0.0
C445 C 0.45448 0.49151 0.51851 0.0
O446 O 0.40511 0.41184 0.57679 0.0
O447 O 0.44231 0.45719 0.52344 0.0
C448 C 0.14642 0.35986 0.36586 0.0
C449 C 0.11416 0.36176 0.38125 0.0
H450 H 0.18887 0.32287 0.34902 0.0
C451 C 0.1034 0.32845 0.39428 0.0
H452 H 0.15486 0.38525 0.35552 0.0
C453 C 0.12201 0.2926 0.39005 0.0
C454 C 0.15242 0.29008 0.37338 0.0
H455 H 0.07823 0.32928 0.40599 0.0
H456 H 0.11082 0.26637 0.39854 0.0
C457 C 0.16595 0.32433 0.36227 0.0
C458 C 0.921 0.89386 0.62307 0.0
C459 C 0.94718 0.87706 0.60676 0.0
H460 H 0.86462 0.88941 0.64025 0.0
C461 C 0.93593 0.84272 0.59494 0.0
H462 H 0.92895 0.92034 0.63243 0.0
C463 C 0.89938 0.82574 0.59901 0.0
C464 C 0.87315 0.84215 0.61532 0.0
H465 H 0.95516 0.82911 0.58212 0.0
H466 H 0.89185 0.79935 0.58943 0.0
C467 C 0.88435 0.87619 0.62757 0.0
C468 C 0.35726 0.62622 0.87651 0.0
C469 C 0.38872 0.61453 0.86198 0.0
H470 H 0.31406 0.67085 0.88387 0.0
C471 C 0.40101 0.63953 0.84376 0.0
H472 H 0.3472 0.60743 0.89069 0.0
C473 C 0.38286 0.67547 0.84023 0.0
C474 C 0.35141 0.68741 0.85455 0.0
H475 H 0.42528 0.63167 0.83232 0.0
H476 H 0.39343 0.69382 0.82597 0.0
C477 C 0.33832 0.66232 0.87261 0.0
C478 C 0.54389 0.14279 0.09194 0.0
C479 C 0.53228 0.10982 0.10508 0.0
H480 H 0.58822 0.18534 0.08491 0.0
C481 C 0.55818 0.09448 0.12205 0.0
H482 H 0.52486 0.1552 0.07857 0.0
C483 C 0.59486 0.11236 0.12594 0.0
C484 C 0.60636 0.14512 0.11248 0.0
H485 H 0.54995 0.06906 0.1324 0.0
H486 H 0.61431 0.10035 0.1392 0.0
C487 C 0.58047 0.15996 0.09545 0.0
C488 C 0.11307 0.6918 0.07686 0.0
C489 C 0.14427 0.69482 0.09292 0.0
H490 H 0.07003 0.65406 0.06112 0.0
C491 C 0.15934 0.66075 0.10346 0.0
H492 H 0.1008 0.71785 0.06876 0.0
C493 C 0.14093 0.62465 0.09974 0.0
C494 C 0.10825 0.62207 0.08476 0.0
H495 H 0.18296 0.66257 0.1162 0.0
H496 H 0.1508 0.59919 0.10952 0.0
C497 C 0.09557 0.65545 0.07249 0.0
C498 C 0.56526 0.88448 0.34206 0.0
C499 C 0.54108 0.87304 0.36095 0.0
H500 H 0.61961 0.87444 0.32351 0.0
C501 C 0.55447 0.84407 0.37657 0.0
H502 H 0.55559 0.90686 0.32982 0.0
C503 C 0.59081 0.82634 0.37331 0.0
C504 C 0.61471 0.83656 0.35409 0.0
H505 H 0.53679 0.83499 0.39151 0.0
H506 H 0.59966 0.8038 0.38568 0.0
C507 C 0.60174 0.86595 0.33846 0.0
C508 C 0.38507 0.29309 0.61996 0.0
C509 C 0.35061 0.28255 0.60789 0.0
H510 H 0.42916 0.33626 0.62593 0.0
C511 C 0.33444 0.30904 0.59154 0.0
H512 H 0.39823 0.27364 0.63283 0.0
C513 C 0.35282 0.34532 0.5873 0.0
C514 C 0.38691 0.35583 0.59984 0.0
H515 H 0.30788 0.30165 0.582 0.0
H516 H 0.34007 0.36535 0.57461 0.0
C517 C 0.40273 0.32926 0.61614 0.0
C518 C 0.9407 0.13543 0.8612 0.0
C519 C 0.94882 0.0977 0.85252 0.0
H520 H 0.89902 0.18161 0.86488 0.0
C521 C 0.91995 0.07849 0.83901 0.0
H522 H 0.96201 0.15131 0.87167 0.0
C523 C 0.88342 0.09658 0.83477 0.0
C524 C 0.87516 0.13355 0.84451 0.0
H525 H 0.92536 0.04945 0.83206 0.0
H526 H 0.86128 0.0812 0.82466 0.0
C527 C 0.90436 0.15286 0.85744 0.0
C528 C 0.80642 0.61165 0.6052 0.0
C529 C 0.8334 0.59359 0.62054 0.0
H530 H 0.76871 0.66109 0.59901 0.0
C531 C 0.83975 0.60996 0.64285 0.0
H532 H 0.80084 0.59953 0.58792 0.0
C533 C 0.82193 0.64531 0.64898 0.0
C534 C 0.79684 0.66459 0.63312 0.0
H535 H 0.86021 0.5967 0.65511 0.0
H536 H 0.82889 0.65827 0.66586 0.0
C537 C 0.78799 0.64678 0.61153 0.0
C538 C 0.12184 0.09549 0.38477 0.0
C539 C 0.13816 0.09267 0.36215 0.0
H540 H 0.0741 0.08006 0.4075 0.0
C541 C 0.12013 0.06807 0.34549 0.0
H542 H 0.13502 0.11417 0.39799 0.0
C543 C 0.08539 0.04799 0.35108 0.0
C544 C 0.06784 0.05294 0.37323 0.0
H545 H 0.1322 0.06531 0.32792 0.0
H546 H 0.07132 0.03016 0.33777 0.0
C547 C 0.08682 0.07615 0.39017 0.0
C548 C 0.66965 0.37624 0.10181 0.0
C549 C 0.64287 0.39391 0.11744 0.0
H550 H 0.7079 0.32735 0.09529 0.0
C551 C 0.63763 0.3776 0.13992 0.0
H552 H 0.6744 0.38834 0.08439 0.0
C553 C 0.65625 0.34258 0.14595 0.0
C554 C 0.68104 0.32359 0.1298 0.0
H555 H 0.61737 0.39057 0.1524 0.0
H556 H 0.65008 0.32958 0.16297 0.0
C557 C 0.68887 0.34145 0.10803 0.0
C558 C 0.39729 0.89111 0.89522 0.0
C559 C 0.41632 0.91586 0.87902 0.0
H560 H 0.34818 0.85372 0.90223 0.0
C561 C 0.39799 0.92422 0.85747 0.0
H562 H 0.41052 0.88458 0.91212 0.0
C563 C 0.3623 0.90617 0.85169 0.0
C564 C 0.34415 0.88003 0.86753 0.0
H565 H 0.41199 0.94335 0.84472 0.0
H566 H 0.34957 0.9117 0.83453 0.0
C567 C 0.36142 0.87363 0.88963 0.0
C568 C 0.81342 0.36541 0.85964 0.0
C569 C 0.84052 0.38243 0.8439 0.0
H570 H 0.77471 0.31699 0.86664 0.0
C571 C 0.84612 0.36531 0.82172 0.0
H572 H 0.8084 0.37816 0.87683 0.0
C573 C 0.82741 0.3302 0.81611 0.0
C574 C 0.80219 0.31192 0.83238 0.0
H575 H 0.86664 0.37778 0.80916 0.0
H576 H 0.83373 0.31664 0.7993 0.0
C577 C 0.79411 0.33051 0.85384 0.0
C578 C 0.35357 0.09383 0.57395 0.0
C579 C 0.33687 0.08823 0.5963 0.0
H580 H 0.40209 0.08187 0.55111 0.0
C581 C 0.35448 0.06142 0.61193 0.0
H582 H 0.34065 0.11413 0.56147 0.0
C583 C 0.38955 0.04247 0.60583 0.0
C584 C 0.40774 0.05062 0.58419 0.0
H585 H 0.3421 0.05641 0.62925 0.0
H586 H 0.40356 0.02333 0.61854 0.0
C587 C 0.38885 0.07549 0.56804 0.0
C588 C 0.65166 0.63518 0.32077 0.0
C589 C 0.67639 0.65269 0.33751 0.0
H590 H 0.61126 0.58889 0.31318 0.0
C591 C 0.6823 0.63406 0.35924 0.0
H592 H 0.64695 0.64887 0.30379 0.0
C593 C 0.66129 0.59996 0.3648 0.0
C594 C 0.63477 0.58371 0.34851 0.0
H595 H 0.70123 0.64708 0.37241 0.0
H596 H 0.66459 0.58722 0.38216 0.0
C597 C 0.63137 0.60076 0.32612 0.0
C598 C 0.11886 0.91948 0.11256 0.0
C599 C 0.13696 0.89315 0.0969 0.0
H600 H 0.06977 0.95768 0.1189 0.0
C601 C 0.12112 0.88833 0.0743 0.0
H602 H 0.13061 0.92384 0.13007 0.0
C603 C 0.08612 0.90702 0.06815 0.0
C604 C 0.06681 0.93153 0.08427 0.0
H605 H 0.1344 0.86831 0.06183 0.0
H606 H 0.07342 0.9012 0.05103 0.0
C607 C 0.08418 0.93889 0.10619 0.0
C608 C 0.61935 0.79071 0.89006 0.0
C609 C 0.65112 0.78833 0.8743 0.0
H610 H 0.57493 0.8275 0.90525 0.0
C611 C 0.6661 0.82277 0.86411 0.0
H612 H 0.60711 0.76436 0.89786 0.0
C613 C 0.6469 0.8585 0.86767 0.0
C614 C 0.61348 0.86033 0.88214 0.0
H615 H 0.69014 0.82147 0.85158 0.0
H616 H 0.65664 0.88417 0.85801 0.0
C617 C 0.60101 0.82669 0.89426 0.0
C618 C 0.43594 0.34626 0.09515 0.0
C619 C 0.44675 0.38112 0.10658 0.0
H620 H 0.39221 0.30249 0.08985 0.0
C621 C 0.42018 0.39832 0.12251 0.0
H622 H 0.45545 0.33229 0.08262 0.0
C623 C 0.38352 0.38061 0.12694 0.0
C624 C 0.37273 0.34614 0.11501 0.0
H625 H 0.42775 0.4252 0.13155 0.0
H626 H 0.36343 0.39417 0.13929 0.0
C627 C 0.39941 0.32925 0.09915 0.0
C628 C 0.87745 0.13264 0.38965 0.0
C629 C 0.86939 0.10133 0.37441 0.0
H630 H 0.86801 0.19368 0.3968 0.0
C631 C 0.83974 0.10531 0.35741 0.0
H632 H 0.90056 0.13024 0.4027 0.0
C633 C 0.82015 0.14101 0.35468 0.0
C634 C 0.83097 0.1734 0.36838 0.0
H635 H 0.83328 0.08149 0.34544 0.0
H636 H 0.79923 0.14429 0.34043 0.0
C637 C 0.85887 0.16877 0.38634 0.0
C638 C 0.07715 0.65332 0.59761 0.0
C639 C 0.10291 0.63794 0.61455 0.0
H640 H 0.02174 0.64915 0.58048 0.0
C641 C 0.09121 0.60487 0.62767 0.0
H642 H 0.08505 0.67895 0.58733 0.0
C643 C 0.05451 0.58716 0.62346 0.0
C644 C 0.0288 0.603 0.60654 0.0
H645 H 0.11056 0.59246 0.64085 0.0
H646 H 0.04613 0.56146 0.63353 0.0
C647 C 0.04059 0.63633 0.5938 0.0
C648 C 0.6229 0.13364 0.58599 0.0
C649 C 0.58683 0.12437 0.59683 0.0
H650 H 0.66948 0.17615 0.58248 0.0
C651 C 0.56864 0.15226 0.61126 0.0
H652 H 0.63743 0.11252 0.57473 0.0
C653 C 0.58623 0.18834 0.61527 0.0
C654 C 0.623 0.19748 0.60529 0.0
H655 H 0.54059 0.14617 0.61962 0.0
H656 H 0.57124 0.20866 0.62684 0.0
C657 C 0.64118 0.16988 0.59044 0.0
C658 C 0.08504 0.32142 0.86851 0.0
C659 C 0.11098 0.33545 0.8512 0.0
H660 H 0.02951 0.32704 0.88542 0.0
C661 C 0.09961 0.3677 0.83729 0.0
H662 H 0.09267 0.29645 0.8794 0.0
C663 C 0.063 0.38588 0.84101 0.0
C664 C 0.03705 0.37129 0.85824 0.0
H665 H 0.1191 0.37907 0.82381 0.0
H666 H 0.05484 0.41089 0.8303 0.0
C667 C 0.04855 0.33884 0.87184 0.0
C668 C 0.90025 0.83649 0.11736 0.0
C669 C 0.88563 0.86192 0.10003 0.0
H670 H 0.89492 0.78175 0.135 0.0
C671 C 0.85257 0.85046 0.08683 0.0
H672 H 0.92585 0.8442 0.12772 0.0
C673 C 0.83418 0.81424 0.09128 0.0
C674 C 0.84938 0.78879 0.10853 0.0
H675 H 0.84073 0.86959 0.07335 0.0
H676 H 0.80855 0.80596 0.08112 0.0
C677 C 0.88262 0.8004 0.12142 0.0
C678 C 0.42911 0.60504 0.32586 0.0
C679 C 0.43274 0.57517 0.34275 0.0
H680 H 0.39096 0.64756 0.30993 0.0
C681 C 0.39915 0.56194 0.35477 0.0
H682 H 0.45484 0.61598 0.31667 0.0
C683 C 0.36311 0.58092 0.35159 0.0
C684 C 0.36002 0.61231 0.33572 0.0
H685 H 0.40153 0.53944 0.36819 0.0
H686 H 0.3382 0.57251 0.36241 0.0
C687 C 0.39272 0.62304 0.32205 0.0
C688 C 0.30883 0.11646 0.10495 0.0
C689 C 0.33591 0.09888 0.12043 0.0
H690 H 0.27028 0.1652 0.09863 0.0
C691 C 0.34142 0.11515 0.14285 0.0
H692 H 0.30385 0.10438 0.0876 0.0
C693 C 0.32275 0.15005 0.14895 0.0
C694 C 0.29765 0.16895 0.13294 0.0
H695 H 0.36189 0.1022 0.15523 0.0
H696 H 0.3291 0.16301 0.16591 0.0
C697 C 0.28957 0.15115 0.11125 0.0
C698 C 0.5901 0.54426 0.85394 0.0
C699 C 0.57243 0.5497 0.87601 0.0
H700 H 0.63663 0.5617 0.8306 0.0
C701 C 0.59126 0.57326 0.8928 0.0
H702 H 0.57603 0.52625 0.84071 0.0
C703 C 0.62611 0.59281 0.88726 0.0
C704 C 0.64229 0.58989 0.8646 0.0
H705 H 0.57831 0.57761 0.91003 0.0
H706 H 0.63903 0.612 0.90031 0.0
C707 C 0.62463 0.56458 0.84818 0.0
C708 C 0.15257 0.83554 0.64681 0.0
C709 C 0.1781 0.81713 0.63083 0.0
H710 H 0.11427 0.88394 0.65346 0.0
C711 C 0.18801 0.83632 0.60979 0.0
H712 H 0.14486 0.82151 0.66331 0.0
C713 C 0.17008 0.87196 0.604 0.0
C714 C 0.14253 0.88912 0.61935 0.0
H715 H 0.20772 0.82273 0.59723 0.0
H716 H 0.17637 0.88514 0.58705 0.0
C717 C 0.13523 0.8714 0.64123 0.0
C718 C 0.89704 0.38569 0.3951 0.0
C719 C 0.91568 0.41064 0.37883 0.0
H720 H 0.84895 0.34685 0.40196 0.0
C721 C 0.89776 0.41774 0.35701 0.0
H722 H 0.91 0.38008 0.41218 0.0
C723 C 0.86293 0.39832 0.35104 0.0
C724 C 0.84517 0.3721 0.36698 0.0
H725 H 0.91149 0.43697 0.34421 0.0
H726 H 0.85052 0.40294 0.33371 0.0
C727 C 0.86192 0.36688 0.38932 0.0
C728 C 0.29781 0.82582 0.35598 0.0
C729 C 0.30539 0.80738 0.3344 0.0
H730 H 0.31238 0.87338 0.37897 0.0
C731 C 0.33087 0.82546 0.31819 0.0
H732 H 0.27817 0.81252 0.36874 0.0
C733 C 0.34988 0.86041 0.32383 0.0
C734 C 0.34428 0.87767 0.34597 0.0
H735 H 0.33686 0.81211 0.30128 0.0
H736 H 0.37032 0.87289 0.31123 0.0
C737 C 0.31736 0.86059 0.3618 0.0
C738 C 0.89394 0.58586 0.0685 0.0
C739 C 0.91317 0.56113 0.08459 0.0
H740 H 0.84458 0.62298 0.06176 0.0
C741 C 0.8948 0.55214 0.10606 0.0
H742 H 0.90721 0.59284 0.05166 0.0
C743 C 0.85896 0.56975 0.11196 0.0
C744 C 0.84072 0.59609 0.09632 0.0
H745 H 0.90895 0.53299 0.11871 0.0
H746 H 0.84626 0.56387 0.12911 0.0
C747 C 0.85791 0.60291 0.07422 0.0
C748 C 0.18909 0.13519 0.85774 0.0
C749 C 0.18157 0.15421 0.8363 0.0
H750 H 0.17435 0.0869 0.88032 0.0
C751 C 0.15723 0.136 0.81963 0.0
H752 H 0.2078 0.14869 0.87084 0.0
C753 C 0.13876 0.10052 0.82481 0.0
C754 C 0.14363 0.08297 0.84697 0.0
H755 H 0.15136 0.14992 0.80284 0.0
H756 H 0.11883 0.08814 0.81194 0.0
C757 C 0.16993 0.09994 0.86313 0.0
C758 C 0.58369 0.43637 0.60626 0.0
C759 C 0.56666 0.4294 0.58418 0.0
H760 H 0.6299 0.4211 0.63027 0.0
C761 C 0.58636 0.40536 0.56799 0.0
H762 H 0.56899 0.4548 0.61904 0.0
C763 C 0.62131 0.38668 0.5742 0.0
C764 C 0.63685 0.39105 0.59692 0.0
H765 H 0.57398 0.39986 0.55075 0.0
H766 H 0.63487 0.36707 0.5616 0.0
C767 C 0.61843 0.41703 0.61267 0.0
C768 C 0.25052 0.27 0.23918 0.0
C769 C 0.2226 0.27329 0.22108 0.0
H770 H 0.26223 0.25078 0.27434 0.0
C771 C 0.18336 0.2627 0.22559 0.0
H772 H 0.28101 0.27788 0.23617 0.0
C773 C 0.17261 0.24714 0.24736 0.0
C774 C 0.20094 0.24165 0.26505 0.0
H775 H 0.16115 0.26507 0.212 0.0
H776 H 0.14232 0.2382 0.25 0.0
C777 C 0.2398 0.2542 0.26097 0.0
C778 C 0.0273 0.91964 0.49059 0.0
C779 C 0.022 0.94463 0.50996 0.0
H780 H 0.0171 0.90996 0.454 0.0
C781 C 0.00054 0.97952 0.50699 0.0
H782 H 0.04353 0.89245 0.49229 0.0
C783 C 0.98515 -0.01057 0.48501 0.0
C784 C -0.00894 0.96469 0.4656 0.0
H785 H -0.00426 -0.0007 0.5216 0.0
H786 H 0.96919 0.01676 0.48315 0.0
C787 C 0.01203 0.9296 0.46864 0.0
C788 C 0.29277 0.73607 0.72087 0.0
C789 C 0.25481 0.72044 0.71813 0.0
H790 H 0.33337 0.76526 0.74342 0.0
C791 C 0.22883 0.72055 0.73736 0.0
H792 H 0.31353 0.73638 0.70638 0.0
C793 C 0.24022 0.73735 0.75872 0.0
C794 C 0.27772 0.75439 0.76112 0.0
H795 H 0.19932 0.70884 0.73571 0.0
H796 H 0.21936 0.73772 0.77315 0.0
C797 C 0.30407 0.75292 0.74209 0.0
C798 C 0.45585 0.05724 -0.00879 0.0
C799 C 0.45947 0.03418 0.0116 0.0
H800 H 0.46863 0.06308 0.95455 0.0
C801 C 0.48064 -0.0012 0.01046 0.0
H802 H 0.43993 0.08475 -0.0085 0.0
C803 C 0.49732 0.98649 -0.01074 0.0
C804 C 0.49308 0.00928 0.96882 0.0
H805 H 0.48418 0.98045 0.02589 0.0
H806 H 0.51293 0.95881 -0.01117 0.0
C807 C 0.47246 0.0449 0.97004 0.0
C808 C 0.17645 0.73984 0.24102 0.0
C809 C 0.21371 0.72279 0.24417 0.0
H810 H 0.13695 0.76865 0.21738 0.0
C811 C 0.23947 0.72016 0.22491 0.0
H812 H 0.15596 0.74221 0.25556 0.0
C813 C 0.22876 0.73565 0.20311 0.0
C814 C 0.19195 0.75377 0.2001 0.0
H815 H 0.2684 0.70722 0.22683 0.0
H816 H 0.24959 0.73388 0.1887 0.0
C817 C 0.1656 0.75504 0.21916 0.0
C818 C 0.48641 0.98361 0.45507 0.0
C819 C 0.46901 0.94634 0.45295 0.0
H820 H 0.51494 0.02477 0.47785 0.0
C821 C 0.4695 0.9208 0.47237 0.0
H822 H 0.48677 0.00386 0.44037 0.0
C823 C 0.4859 0.93259 0.49362 0.0
C824 C 0.5021 0.97026 0.49603 0.0
H825 H 0.45681 0.89171 0.47128 0.0
H826 H 0.48495 0.91242 0.50837 0.0
C827 C 0.50279 -0.0045 0.47646 0.0
C828 C 0.29556 0.23151 0.74426 0.0
C829 C 0.25826 0.24828 0.74769 0.0
H830 H 0.33453 0.20211 0.72076 0.0
C831 C 0.23173 0.24979 0.72877 0.0
H832 H 0.3167 0.22994 0.75848 0.0
C833 C 0.24194 0.2336 0.70703 0.0
C834 C 0.27881 0.21557 0.70389 0.0
H835 H 0.20271 0.26242 0.73095 0.0
H836 H 0.22068 0.23454 0.69286 0.0
C837 C 0.3057 0.21531 0.72263 0.0
C838 C -0.0102 -0.01019 0.95431 0.0
C839 C 0.00722 0.02686 0.95105 0.0
H840 H 0.96059 0.95072 0.97822 0.0
C841 C 0.00549 0.05436 0.96938 0.0
H842 H -0.00963 0.96809 0.94044 0.0
C843 C 0.98819 0.04456 -0.00919 0.0
C844 C 0.97232 0.007 -0.00554 0.0
H845 H 0.01811 0.08335 0.96738 0.0
H846 H 0.9884 0.06612 0.00478 0.0
C847 C 0.97251 0.97994 0.97587 0.0
C848 C 0.68387 0.75786 0.72623 0.0
C849 C 0.72302 0.76895 0.7218 0.0
H850 H 0.64285 0.73344 0.7507 0.0
C851 C 0.75071 0.76657 0.74006 0.0
H852 H 0.66181 0.75953 0.71251 0.0
C853 C 0.73991 0.75127 0.76196 0.0
C854 C 0.70117 0.73827 0.76599 0.0
H855 H 0.78112 0.77486 0.73713 0.0
H856 H 0.7622 0.7486 0.77547 0.0
C857 C 0.67303 0.74277 0.74811 0.0
C858 C 0.79603 0.22614 0.22264 0.0
C859 C 0.75672 0.21574 0.21825 0.0
H860 H 0.83795 0.2469 0.24762 0.0
C861 C 0.72954 0.21594 0.23687 0.0
H862 H 0.81769 0.2261 0.20863 0.0
C863 C 0.7411 0.22818 0.25926 0.0
C864 C 0.78008 0.24022 0.2634 0.0
H865 H 0.69903 0.2081 0.23397 0.0
H866 H 0.71925 0.22909 0.27315 0.0
C867 C 0.80761 0.23816 0.24499 0.0
C868 C 0.74473 0.21957 0.72576 0.0
C869 C 0.7192 0.21999 0.74521 0.0
H870 H 0.75421 0.23735 0.69006 0.0
C871 C 0.68186 0.23721 0.74287 0.0
H872 H 0.77376 0.20664 0.72708 0.0
C873 C 0.67081 0.25507 0.72183 0.0
C874 C 0.69683 0.25604 0.70261 0.0
H875 H 0.66149 0.23798 0.75754 0.0
H876 H 0.64206 0.26868 0.7208 0.0
C877 C 0.73362 0.23742 0.70462 0.0
C878 C 0.73186 0.75006 0.22997 0.0
C879 C 0.75821 0.74746 0.24893 0.0
H880 H 0.72121 0.73692 0.1937 0.0
C881 C 0.79558 0.73101 0.24529 0.0
H882 H 0.70279 0.76249 0.23232 0.0
C883 C 0.806 0.71619 0.22336 0.0
C884 C 0.7793 0.71751 0.20454 0.0
H885 H 0.81659 0.72867 0.25954 0.0
H886 H 0.83489 0.70318 0.22132 0.0
C887 C 0.74233 0.73519 0.20792 0.0
C888 C 0.49578 0.48723 0.00656 0.0
C889 C 0.51423 0.45069 0.00977 0.0
H890 H 0.4664 0.52593 -0.01743 0.0
C891 C 0.51485 0.42388 -0.00895 0.0
H892 H 0.49455 0.50842 0.02071 0.0
C893 C 0.49851 0.43378 0.96939 0.0
C894 C 0.48123 0.47073 0.96591 0.0
H895 H 0.52841 0.39532 -0.00702 0.0
H896 H 0.50033 0.41271 0.9552 0.0
C897 C 0.47942 0.49718 -0.01521 0.0
C898 C -0.00446 0.48412 0.48907 0.0
C899 C -0.00917 0.50707 0.46873 0.0
H900 H 0.98267 0.47746 0.52569 0.0
C901 C 0.96976 0.54241 0.47014 0.0
H902 H 0.01152 0.45666 0.48849 0.0
C903 C 0.95312 0.55428 0.4914 0.0
C904 C 0.95713 0.531 0.51168 0.0
H905 H 0.96558 0.56069 0.45474 0.0
H906 H 0.93681 0.58155 0.49185 0.0
C907 C 0.9788 0.49595 0.51035 0.0
C908 C 0.9765 0.4353 -0.00665 0.0
C909 C -0.00393 0.47148 -0.00506 0.0
H910 H 0.94543 0.39504 0.97146 0.0
C911 C 0.00023 0.49473 0.97467 0.0
H912 H 0.9728 0.41674 0.00868 0.0
C913 C 0.98432 0.48238 0.9533 0.0
C914 C 0.96401 0.44653 0.95181 0.0
H915 H 0.01507 0.52283 0.9754 0.0
H916 H 0.98764 0.50113 0.93801 0.0
C917 C 0.96064 0.42295 0.97201 0.0
C918 C 0.48861 0.55319 0.46734 0.0
C919 C 0.49163 0.52514 0.44937 0.0
H920 H 0.47398 0.56457 0.50324 0.0
C921 C 0.47861 0.48664 0.45373 0.0
H922 H 0.49805 0.58318 0.46453 0.0
C923 C 0.46447 0.47604 0.47595 0.0
C924 C 0.46333 0.50371 0.49419 0.0
H925 H 0.48021 0.46442 0.44018 0.0
H926 H 0.45594 0.44586 0.47906 0.0
C927 C 0.47469 0.54256 0.48953 0.0
C928 C 0.35765 0.11662 0.33077 0.0
C929 C 0.33905 0.13593 0.34958 0.0
H930 H 0.39735 0.07104 0.32038 0.0
C931 C 0.35243 0.129 0.37258 0.0
H932 H 0.34824 0.12169 0.31281 0.0
C933 C 0.38026 0.09973 0.37692 0.0
C934 C 0.39557 0.07735 0.3583 0.0
H935 H 0.33892 0.14362 0.38744 0.0
H936 H 0.3875 0.09261 0.39499 0.0
C937 C 0.38594 0.08771 0.33509 0.0
C938 C 0.09041 0.09893 0.62527 0.0
C939 C 0.08376 0.0866 0.60207 0.0
H940 H 0.12599 0.13402 0.64805 0.0
C941 C 0.10126 0.10762 0.58348 0.0
H942 H 0.07714 0.0835 0.63996 0.0
C943 C 0.12893 0.13694 0.58811 0.0
C944 C 0.13986 0.14517 0.6114 0.0
H945 H 0.09625 0.09906 0.56539 0.0
H946 H 0.14468 0.14999 0.57347 0.0
C947 C 0.1185 0.12785 0.62991 0.0
C948 C 0.12177 0.84591 0.83409 0.0
C949 C 0.14261 0.829 0.85291 0.0
H950 H 0.07991 0.88928 0.8234 0.0
C951 C 0.13059 0.83716 0.87602 0.0
H952 H 0.1301 0.83976 0.81606 0.0
C953 C 0.10207 0.86587 0.88023 0.0
C954 C 0.08485 0.8864 0.86138 0.0
H955 H 0.14592 0.82443 0.89089 0.0
H956 H 0.09607 0.87433 0.89824 0.0
C957 C 0.09288 0.87422 0.83829 0.0
C958 C 0.35431 0.86295 0.13355 0.0
C959 C 0.33575 0.84386 0.11467 0.0
H960 H 0.39413 0.90831 0.14403 0.0
C961 C 0.34985 0.85023 0.09174 0.0
H962 H 0.34437 0.85821 0.15145 0.0
C963 C 0.37805 0.87921 0.08748 0.0
C964 C 0.39296 0.90177 0.10612 0.0
H965 H 0.33639 0.83571 0.07685 0.0
H966 H 0.38562 0.88622 0.06943 0.0
C967 C 0.38298 0.89154 0.12931 0.0
C968 C 0.64917 0.86974 0.58765 0.0
C969 C 0.66258 0.85798 0.60994 0.0
H970 H 0.6107 0.90719 0.56811 0.0
C971 C 0.64557 0.87487 0.63009 0.0
H972 H 0.66164 0.8573 0.57179 0.0
C973 C 0.6162 0.9033 0.62801 0.0
C974 C 0.60341 0.9157 0.60572 0.0
H975 H 0.65508 0.86631 0.64755 0.0
H976 H 0.60402 0.91601 0.64387 0.0
C977 C 0.62002 0.89841 0.58556 0.0
C978 C 0.86923 0.8849 0.33785 0.0
C979 C 0.88303 0.89834 0.35967 0.0
H980 H 0.82969 0.84688 0.31966 0.0
C981 C 0.86849 0.88088 0.38039 0.0
H982 H 0.87986 0.8976 0.32155 0.0
C983 C 0.83971 0.85162 0.37932 0.0
C984 C 0.82472 0.83941 0.35751 0.0
H985 H 0.87865 0.89044 0.3975 0.0
H986 H 0.82839 0.83945 0.39559 0.0
C987 C 0.84034 0.85586 0.33678 0.0
C988 C 0.83342 0.11414 0.12714 0.0
C989 C 0.81627 0.13017 0.10676 0.0
H990 H 0.87449 0.0731 0.14153 0.0
C991 C 0.82909 0.11703 0.08465 0.0
H992 H 0.82436 0.12377 0.14447 0.0
C993 C 0.85772 0.08774 0.08298 0.0
C994 C 0.87436 0.07125 0.10339 0.0
H995 H 0.81647 0.12878 0.06863 0.0
H996 H 0.86655 0.07781 0.06567 0.0
C997 C 0.86226 0.08514 0.12547 0.0
C998 C 0.6221 0.07959 0.88094 0.0
C999 C 0.6061 0.06132 0.86095 0.0
H1000 H 0.66317 0.12162 0.89432 0.0
C1001 C 0.61878 0.07343 0.83855 0.0
H1002 H 0.61288 0.07103 0.89846 0.0
C1003 C 0.64767 0.10227 0.83619 0.0
C1004 C 0.66446 0.11981 0.85618 0.0
H1005 H 0.60704 0.06005 0.82278 0.0
H1006 H 0.65722 0.1104 0.81866 0.0
C1007 C 0.65093 0.1086 0.87858 0.0
C1008 C 0.85522 0.63136 0.87295 0.0
C1009 C 0.84143 0.63856 0.85007 0.0
H1010 H 0.89053 0.59452 0.89494 0.0
C1011 C 0.85996 0.61983 0.83103 0.0
H1012 H 0.84178 0.64558 0.88797 0.0
C1013 C 0.88832 0.59087 0.83501 0.0
C1014 C 0.89807 0.57994 0.8581 0.0
H1015 H 0.85027 0.62519 0.81315 0.0
H1016 H 0.89948 0.57446 0.82013 0.0
C1017 C 0.88315 0.60206 0.87695 0.0
C1018 C 0.61959 0.63074 0.12996 0.0
C1019 C 0.64076 0.64844 0.1115 0.0
H1020 H 0.57806 0.58644 0.13982 0.0
C1021 C 0.62948 0.64082 0.0882 0.0
H1022 H 0.62737 0.63644 0.14812 0.0
C1023 C 0.60154 0.61181 0.08344 0.0
C1024 C 0.58411 0.59048 0.10193 0.0
H1025 H 0.64507 0.65419 0.0736 0.0
H1026 H 0.5962 0.60376 0.0653 0.0
C1027 C 0.59123 0.60214 0.12521 0.0
C1028 C 0.63142 0.33757 0.37611 0.0
C1029 C 0.64348 0.32938 0.353 0.0
H1030 H 0.59649 0.37437 0.39832 0.0
C1031 C 0.6231 0.34666 0.33414 0.0
H1032 H 0.64646 0.32455 0.39099 0.0
C1033 C 0.59409 0.37482 0.33834 0.0
C1034 C 0.58554 0.38656 0.36145 0.0
H1035 H 0.63152 0.34053 0.31613 0.0
H1036 H 0.58107 0.38984 0.32344 0.0
C1037 C 0.60285 0.36619 0.38031 0.0
C1038 C 0.88236 0.38192 0.62664 0.0
C1039 C 0.88962 0.39465 0.60353 0.0
H1040 H 0.84645 0.34609 0.64898 0.0
C1041 C 0.87284 0.37379 0.58473 0.0
H1042 H 0.89507 0.39723 0.64148 0.0
C1043 C 0.84531 0.34415 0.58901 0.0
C1044 C 0.83379 0.33541 0.61216 0.0
H1045 H 0.87836 0.38267 0.5667 0.0
H1046 H 0.83015 0.33118 0.57418 0.0
C1047 C 0.85441 0.35265 0.63093 0.0
C1048 C 0.11994 0.40065 0.08349 0.0
C1049 C 0.1043 0.41919 0.10352 0.0
H1050 H 0.16057 0.35825 0.07002 0.0
C1051 C 0.11724 0.40732 0.12588 0.0
H1052 H 0.11049 0.40901 0.066 0.0
C1053 C 0.14603 0.37841 0.12816 0.0
C1054 C 0.1624 0.36053 0.10814 0.0
H1055 H 0.10578 0.42092 0.14167 0.0
H1056 H 0.15578 0.37044 0.14567 0.0
C1057 C 0.14863 0.37152 0.08579 0.0
C1058 C 0.36775 0.39186 0.83634 0.0
C1059 C 0.38069 0.40583 0.85823 0.0
H1060 H 0.32878 0.35345 0.81794 0.0
C1061 C 0.36457 0.38959 0.87888 0.0
H1062 H 0.37956 0.40373 0.8201 0.0
C1063 C 0.33558 0.36058 0.87767 0.0
C1064 C 0.32185 0.34742 0.85576 0.0
H1065 H 0.37402 0.39957 0.89605 0.0
H1066 H 0.32337 0.34909 0.89389 0.0
C1067 C 0.33854 0.3631 0.83512 0.0
C1068 C 0.35608 0.58186 0.58501 0.0
C1069 C 0.37236 0.56478 0.60535 0.0
H1070 H 0.3148 0.62291 0.57079 0.0
C1071 C 0.3594 0.57757 0.6275 0.0
H1072 H 0.36555 0.57279 0.56765 0.0
C1073 C 0.33011 0.60615 0.62928 0.0
C1074 C 0.31339 0.62279 0.60894 0.0
H1075 H 0.37133 0.56502 0.64349 0.0
H1076 H 0.3204 0.615 0.64663 0.0
C1077 C 0.32703 0.61067 0.58679 0.0
C1078 C 0.11551 0.58063 0.38001 0.0
C1079 C 0.09906 0.56277 0.36002 0.0
H1080 H 0.15696 0.62222 0.39336 0.0
C1081 C 0.11055 0.57595 0.33761 0.0
H1082 H 0.10714 0.57133 0.39755 0.0
C1083 C 0.13915 0.60511 0.33521 0.0
C1084 C 0.15683 0.62178 0.35519 0.0
H1085 H 0.09834 0.56297 0.32185 0.0
H1086 H 0.14811 0.6138 0.31766 0.0
C1087 C 0.14407 0.60986 0.37761 0.0
loop_
_geom_bond_atom_site_label_1
_geom_bond_atom_site_label_2
_geom_bond_distance
_geom_bond_site_symmetry_2
_ccdc_geom_bond_type
C0 O1 1.306 . S
C0 O3 1.160 . S
O1 C0 1.306 . S
O1 Cd2 2.228 . S
Cd2 O1 2.228 . S
Cd2 O6 2.273 . S
Cd2 O10 2.277 . S
O3 C0 1.160 . S
O3 Cd4 2.203 . S
Cd4 O3 2.203 . S
Cd4 O6 2.411 . S
Cd4 O7 2.333 . S
Cd4 O8 2.352 . S
Cd4 O12 2.277 . S
Cd4 O13 2.356 . S
C5 O10 1.209 . S
C5 O12 1.226 . S
O6 Cd2 2.273 . S
O6 Cd4 2.411 . S
O6 C9 1.320 . S
O7 Cd4 2.333 . S
O7 C9 1.214 . S
O8 Cd4 2.352 . S
O8 C11 1.258 . S
C9 O6 1.320 . S
C9 O7 1.214 . S
O10 Cd2 2.277 . S
O10 C5 1.209 . S
C11 O8 1.258 . S
C11 O13 1.282 . S
O12 Cd4 2.277 . S
O12 C5 1.226 . S
O13 Cd4 2.356 . S
O13 C11 1.282 . S
C14 O15 1.306 . S
C14 O17 1.160 . S
O15 C14 1.306 . S
O15 Cd16 2.228 . S
Cd16 O15 2.228 . S
Cd16 O20 2.273 . S
Cd16 O24 2.277 . S
O17 C14 1.160 . S
O17 Cd18 2.203 . S
Cd18 O17 2.203 . S
Cd18 O20 2.411 . S
Cd18 O21 2.333 . S
Cd18 O22 2.352 1_565 S
Cd18 O26 2.274 1_455 S
Cd18 O27 2.356 1_565 S
C19 O24 1.209 1_655 S
C19 O26 1.227 . S
O20 Cd16 2.273 . S
O20 Cd18 2.411 . S
O20 C23 1.320 . S
O21 Cd18 2.333 . S
O21 C23 1.214 . S
O22 Cd18 2.352 1_545 S
O22 C25 1.258 . S
C23 O20 1.320 . S
C23 O21 1.214 . S
O24 Cd16 2.277 . S
O24 C19 1.209 1_455 S
C25 O22 1.258 . S
C25 O27 1.282 . S
O26 Cd18 2.274 1_655 S
O26 C19 1.227 . S
O27 Cd18 2.356 1_545 S
O27 C25 1.282 . S
C28 O29 1.306 . S
C28 O31 1.160 . S
O29 C28 1.306 . S
O29 Cd30 2.228 . S
Cd30 O29 2.228 . S
Cd30 O34 2.273 . S
Cd30 O38 2.277 . S
O31 C28 1.160 . S
O31 Cd32 2.203 . S
Cd32 O31 2.203 . S
Cd32 O34 2.411 . S
Cd32 O35 2.333 . S
Cd32 O36 2.352 . S
Cd32 O40 2.277 . S
Cd32 O41 2.356 . S
C33 O38 1.209 . S
C33 O40 1.226 . S
O34 Cd30 2.273 . S
O34 Cd32 2.411 . S
O34 C37 1.320 . S
O35 Cd32 2.333 . S
O35 C37 1.214 . S
O36 Cd32 2.352 . S
O36 C39 1.258 . S
C37 O34 1.320 . S
C37 O35 1.214 . S
O38 Cd30 2.277 . S
O38 C33 1.209 . S
C39 O36 1.258 . S
C39 O41 1.282 . S
O40 Cd32 2.277 . S
O40 C33 1.226 . S
O41 Cd32 2.356 . S
O41 C39 1.282 . S
C42 O43 1.306 . S
C42 O45 1.160 . S
O43 C42 1.306 . S
O43 Cd44 2.228 . S
Cd44 O43 2.228 . S
Cd44 O48 2.273 . S
Cd44 O52 2.277 . S
O45 C42 1.160 . S
O45 Cd46 2.203 . S
Cd46 O45 2.203 . S
Cd46 O48 2.411 . S
Cd46 O49 2.333 . S
Cd46 O50 2.352 1_545 S
Cd46 O54 2.277 . S
Cd46 O55 2.356 1_545 S
C47 O52 1.209 . S
C47 O54 1.226 . S
O48 Cd44 2.273 . S
O48 Cd46 2.411 . S
O48 C51 1.320 . S
O49 Cd46 2.333 . S
O49 C51 1.214 . S
O50 Cd46 2.352 1_565 S
O50 C53 1.258 . S
C51 O48 1.320 . S
C51 O49 1.214 . S
O52 Cd44 2.277 . S
O52 C47 1.209 . S
C53 O50 1.258 . S
C53 O55 1.282 . S
O54 Cd46 2.277 . S
O54 C47 1.226 . S
O55 Cd46 2.356 1_565 S
O55 C53 1.282 . S
C56 O57 1.306 . S
C56 O59 1.160 . S
O57 C56 1.306 . S
O57 Cd58 2.228 . S
Cd58 O57 2.228 . S
Cd58 O62 2.273 . S
Cd58 O66 2.277 . S
O59 C56 1.160 . S
O59 Cd60 2.203 . S
Cd60 O59 2.203 . S
Cd60 O62 2.411 . S
Cd60 O63 2.333 . S
Cd60 O64 2.352 . S
Cd60 O68 2.277 . S
Cd60 O69 2.356 . S
C61 O66 1.209 . S
C61 O68 1.226 . S
O62 Cd58 2.273 . S
O62 Cd60 2.411 . S
O62 C65 1.320 . S
O63 Cd60 2.333 . S
O63 C65 1.214 . S
O64 Cd60 2.352 . S
O64 C67 1.258 . S
C65 O62 1.320 . S
C65 O63 1.214 . S
O66 Cd58 2.277 . S
O66 C61 1.209 . S
C67 O64 1.258 . S
C67 O69 1.282 . S
O68 Cd60 2.277 . S
O68 C61 1.226 . S
O69 Cd60 2.356 . S
O69 C67 1.282 . S
C70 O71 1.306 . S
C70 O73 1.160 . S
O71 C70 1.306 . S
O71 Cd72 2.228 . S
Cd72 O71 2.228 . S
Cd72 O76 2.273 . S
Cd72 O80 2.277 . S
O73 C70 1.160 . S
O73 Cd74 2.203 . S
Cd74 O73 2.203 . S
Cd74 O76 2.411 . S
Cd74 O77 2.333 . S
Cd74 O78 2.352 1_565 S
Cd74 O82 2.277 . S
Cd74 O83 2.356 1_565 S
C75 O80 1.209 . S
C75 O82 1.226 . S
O76 Cd72 2.273 . S
O76 Cd74 2.411 . S
O76 C79 1.320 . S
O77 Cd74 2.333 . S
O77 C79 1.214 . S
O78 Cd74 2.352 1_545 S
O78 C81 1.258 . S
C79 O76 1.320 . S
C79 O77 1.214 . S
O80 Cd72 2.277 . S
O80 C75 1.209 . S
C81 O78 1.258 . S
C81 O83 1.282 . S
O82 Cd74 2.277 . S
O82 C75 1.226 . S
O83 Cd74 2.356 1_545 S
O83 C81 1.282 . S
C84 O85 1.306 . S
C84 O87 1.160 . S
O85 C84 1.306 . S
O85 Cd86 2.228 . S
Cd86 O85 2.228 . S
Cd86 O90 2.273 . S
Cd86 O94 2.277 . S
O87 C84 1.160 . S
O87 Cd88 2.203 . S
Cd88 O87 2.203 . S
Cd88 O90 2.411 . S
Cd88 O91 2.333 . S
Cd88 O92 2.352 . S
Cd88 O96 2.277 . S
Cd88 O97 2.356 . S
C89 O94 1.209 . S
C89 O96 1.226 . S
O90 Cd86 2.273 . S
O90 Cd88 2.411 . S
O90 C93 1.320 . S
O91 Cd88 2.333 . S
O91 C93 1.214 . S
O92 Cd88 2.352 . S
O92 C95 1.258 . S
C93 O90 1.320 . S
C93 O91 1.214 . S
O94 Cd86 2.277 . S
O94 C89 1.209 . S
C95 O92 1.258 . S
C95 O97 1.282 . S
O96 Cd88 2.277 . S
O96 C89 1.226 . S
O97 Cd88 2.356 . S
O97 C95 1.282 . S
C98 O99 1.306 . S
C98 O101 1.160 . S
O99 C98 1.306 . S
O99 Cd100 2.228 . S
Cd100 O99 2.228 . S
Cd100 O104 2.273 . S
Cd100 O108 2.277 . S
O101 C98 1.160 . S
O101 Cd102 2.203 . S
Cd102 O101 2.203 . S
Cd102 O104 2.411 . S
Cd102 O105 2.333 . S
Cd102 O106 2.352 1_545 S
Cd102 O110 2.274 1_455 S
Cd102 O111 2.356 1_545 S
C103 O108 1.209 1_655 S
C103 O110 1.227 . S
O104 Cd100 2.273 . S
O104 Cd102 2.411 . S
O104 C107 1.320 . S
O105 Cd102 2.333 . S
O105 C107 1.214 . S
O106 Cd102 2.352 1_565 S
O106 C109 1.258 . S
C107 O104 1.320 . S
C107 O105 1.214 . S
O108 Cd100 2.277 . S
O108 C103 1.209 1_455 S
C109 O106 1.258 . S
C109 O111 1.282 . S
O110 Cd102 2.274 1_655 S
O110 C103 1.227 . S
O111 Cd102 2.356 1_565 S
O111 C109 1.282 . S
C112 O113 1.306 . S
C112 O115 1.160 . S
O113 C112 1.306 . S
O113 Cd114 2.228 . S
Cd114 O113 2.228 . S
Cd114 O118 2.273 . S
Cd114 O122 2.277 . S
O115 C112 1.160 . S
O115 Cd116 2.203 . S
Cd116 O115 2.203 . S
Cd116 O118 2.411 . S
Cd116 O119 2.333 . S
Cd116 O120 2.352 . S
Cd116 O124 2.277 . S
Cd116 O125 2.356 . S
C117 O122 1.209 . S
C117 O124 1.226 . S
O118 Cd114 2.273 . S
O118 Cd116 2.411 . S
O118 C121 1.320 . S
O119 Cd116 2.333 . S
O119 C121 1.214 . S
O120 Cd116 2.352 . S
O120 C123 1.258 . S
C121 O118 1.320 . S
C121 O119 1.214 . S
O122 Cd114 2.277 . S
O122 C117 1.209 . S
C123 O120 1.258 . S
C123 O125 1.282 . S
O124 Cd116 2.277 . S
O124 C117 1.226 . S
O125 Cd116 2.356 . S
O125 C123 1.282 . S
C126 O127 1.306 . S
C126 O129 1.160 . S
O127 C126 1.306 . S
O127 Cd128 2.228 1_565 S
Cd128 O127 2.228 1_545 S
Cd128 O132 2.273 . S
Cd128 O136 2.277 . S
O129 C126 1.160 . S
O129 Cd130 2.203 1_565 S
Cd130 O129 2.203 1_545 S
Cd130 O132 2.411 . S
Cd130 O133 2.333 1_655 S
Cd130 O134 2.352 1_545 S
Cd130 O138 2.277 . S
Cd130 O139 2.356 . S
C131 O136 1.209 . S
C131 O138 1.226 . S
O132 Cd128 2.273 . S
O132 Cd130 2.411 . S
O132 C135 1.320 1_655 S
O133 Cd130 2.333 1_455 S
O133 C135 1.214 . S
O134 Cd130 2.352 1_565 S
O134 C137 1.258 1_565 S
C135 O132 1.320 1_455 S
C135 O133 1.214 . S
O136 Cd128 2.277 . S
O136 C131 1.209 . S
C137 O134 1.258 1_545 S
C137 O139 1.282 . S
O138 Cd130 2.277 . S
O138 C131 1.226 . S
O139 Cd130 2.356 . S
O139 C137 1.282 . S
C140 O141 1.306 . S
C140 O143 1.160 . S
O141 C140 1.306 . S
O141 Cd142 2.228 . S
Cd142 O141 2.228 . S
Cd142 O146 2.273 . S
Cd142 O150 2.277 . S
O143 C140 1.160 . S
O143 Cd144 2.203 . S
Cd144 O143 2.203 . S
Cd144 O146 2.411 . S
Cd144 O147 2.333 . S
Cd144 O148 2.352 . S
Cd144 O152 2.277 . S
Cd144 O153 2.356 . S
C145 O150 1.209 . S
C145 O152 1.226 . S
O146 Cd142 2.273 . S
O146 Cd144 2.411 . S
O146 C149 1.320 . S
O147 Cd144 2.333 . S
O147 C149 1.214 . S
O148 Cd144 2.352 . S
O148 C151 1.258 . S
C149 O146 1.320 . S
C149 O147 1.214 . S
O150 Cd142 2.277 . S
O150 C145 1.209 . S
C151 O148 1.258 . S
C151 O153 1.282 . S
O152 Cd144 2.277 . S
O152 C145 1.226 . S
O153 Cd144 2.356 . S
O153 C151 1.282 . S
C154 O155 1.306 . S
C154 O157 1.160 . S
O155 C154 1.306 . S
O155 Cd156 2.228 1_545 S
Cd156 O155 2.228 1_565 S
Cd156 O160 2.273 . S
Cd156 O164 2.277 . S
O157 C154 1.160 . S
O157 Cd158 2.203 1_545 S
Cd158 O157 2.203 1_565 S
Cd158 O160 2.411 . S
Cd158 O161 2.333 . S
Cd158 O162 2.352 1_565 S
Cd158 O166 2.277 . S
Cd158 O167 2.356 . S
C159 O164 1.209 . S
C159 O166 1.226 . S
O160 Cd156 2.273 . S
O160 Cd158 2.411 . S
O160 C163 1.320 . S
O161 Cd158 2.333 . S
O161 C163 1.214 . S
O162 Cd158 2.352 1_545 S
O162 C165 1.258 1_545 S
C163 O160 1.320 . S
C163 O161 1.214 . S
O164 Cd156 2.277 . S
O164 C159 1.209 . S
C165 O162 1.258 1_565 S
C165 O167 1.282 . S
O166 Cd158 2.277 . S
O166 C159 1.226 . S
O167 Cd158 2.356 . S
O167 C165 1.282 . S
C168 O169 1.306 . S
C168 O171 1.160 . S
O169 C168 1.306 . S
O169 Cd170 2.228 . S
Cd170 O169 2.228 . S
Cd170 O174 2.273 . S
Cd170 O178 2.277 . S
O171 C168 1.160 . S
O171 Cd172 2.203 . S
Cd172 O171 2.203 . S
Cd172 O174 2.411 . S
Cd172 O175 2.333 . S
Cd172 O176 2.352 . S
Cd172 O180 2.277 . S
Cd172 O181 2.356 . S
C173 O178 1.209 . S
C173 O180 1.226 . S
O174 Cd170 2.273 . S
O174 Cd172 2.411 . S
O174 C177 1.320 . S
O175 Cd172 2.333 . S
O175 C177 1.214 . S
O176 Cd172 2.352 . S
O176 C179 1.258 . S
C177 O174 1.320 . S
C177 O175 1.214 . S
O178 Cd170 2.277 . S
O178 C173 1.209 . S
C179 O176 1.258 . S
C179 O181 1.282 . S
O180 Cd172 2.277 . S
O180 C173 1.226 . S
O181 Cd172 2.356 . S
O181 C179 1.282 . S
C182 O183 1.306 . S
C182 O185 1.160 . S
O183 C182 1.306 . S
O183 Cd184 2.228 1_565 S
Cd184 O183 2.228 1_545 S
Cd184 O188 2.273 . S
Cd184 O192 2.277 . S
O185 C182 1.160 . S
O185 Cd186 2.203 1_565 S
Cd186 O185 2.203 1_545 S
Cd186 O188 2.411 . S
Cd186 O189 2.333 . S
Cd186 O190 2.352 1_545 S
Cd186 O194 2.277 . S
Cd186 O195 2.356 . S
C187 O192 1.209 . S
C187 O194 1.226 . S
O188 Cd184 2.273 . S
O188 Cd186 2.411 . S
O188 C191 1.320 . S
O189 Cd186 2.333 . S
O189 C191 1.214 . S
O190 Cd186 2.352 1_565 S
O190 C193 1.258 1_565 S
C191 O188 1.320 . S
C191 O189 1.214 . S
O192 Cd184 2.277 . S
O192 C187 1.209 . S
C193 O190 1.258 1_545 S
C193 O195 1.282 . S
O194 Cd186 2.277 . S
O194 C187 1.226 . S
O195 Cd186 2.356 . S
O195 C193 1.282 . S
C196 O197 1.306 . S
C196 O199 1.160 . S
O197 C196 1.306 . S
O197 Cd198 2.228 . S
Cd198 O197 2.228 . S
Cd198 O202 2.273 . S
Cd198 O206 2.277 . S
O199 C196 1.160 . S
O199 Cd200 2.203 . S
Cd200 O199 2.203 . S
Cd200 O202 2.411 . S
Cd200 O203 2.333 . S
Cd200 O204 2.352 . S
Cd200 O208 2.277 . S
Cd200 O209 2.356 . S
C201 O206 1.209 . S
C201 O208 1.226 . S
O202 Cd198 2.273 . S
O202 Cd200 2.411 . S
O202 C205 1.320 . S
O203 Cd200 2.333 . S
O203 C205 1.214 . S
O204 Cd200 2.352 . S
O204 C207 1.258 . S
C205 O202 1.320 . S
C205 O203 1.214 . S
O206 Cd198 2.277 . S
O206 C201 1.209 . S
C207 O204 1.258 . S
C207 O209 1.282 . S
O208 Cd200 2.277 . S
O208 C201 1.226 . S
O209 Cd200 2.356 . S
O209 C207 1.282 . S
C210 O211 1.306 . S
C210 O213 1.160 . S
O211 C210 1.306 . S
O211 Cd212 2.228 1_545 S
Cd212 O211 2.228 1_565 S
Cd212 O216 2.273 . S
Cd212 O220 2.277 . S
O213 C210 1.160 . S
O213 Cd214 2.203 1_545 S
Cd214 O213 2.203 1_565 S
Cd214 O216 2.411 . S
Cd214 O217 2.333 1_655 S
Cd214 O218 2.352 1_565 S
Cd214 O222 2.277 . S
Cd214 O223 2.356 . S
C215 O220 1.209 . S
C215 O222 1.226 . S
O216 Cd212 2.273 . S
O216 Cd214 2.411 . S
O216 C219 1.320 1_655 S
O217 Cd214 2.333 1_455 S
O217 C219 1.214 . S
O218 Cd214 2.352 1_545 S
O218 C221 1.258 1_545 S
C219 O216 1.320 1_455 S
C219 O217 1.214 . S
O220 Cd212 2.277 . S
O220 C215 1.209 . S
C221 O218 1.258 1_565 S
C221 O223 1.282 . S
O222 Cd214 2.277 . S
O222 C215 1.226 . S
O223 Cd214 2.356 . S
O223 C221 1.282 . S
C224 O225 1.306 . S
C224 O227 1.160 . S
O225 C224 1.306 . S
O225 Cd226 2.228 . S
Cd226 O225 2.228 . S
Cd226 O230 2.273 . S
Cd226 O234 2.277 . S
O227 C224 1.160 . S
O227 Cd228 2.203 . S
Cd228 O227 2.203 . S
Cd228 O230 2.411 . S
Cd228 O231 2.333 . S
Cd228 O232 2.352 . S
Cd228 O236 2.277 . S
Cd228 O237 2.356 . S
C229 O234 1.209 . S
C229 O236 1.226 . S
O230 Cd226 2.273 . S
O230 Cd228 2.411 . S
O230 C233 1.320 . S
O231 Cd228 2.333 . S
O231 C233 1.214 . S
O232 Cd228 2.352 . S
O232 C235 1.258 . S
C233 O230 1.320 . S
C233 O231 1.214 . S
O234 Cd226 2.277 . S
O234 C229 1.209 . S
C235 O232 1.258 . S
C235 O237 1.282 . S
O236 Cd228 2.277 . S
O236 C229 1.226 . S
O237 Cd228 2.356 . S
O237 C235 1.282 . S
C238 O239 1.306 . S
C238 O241 1.160 . S
O239 C238 1.306 . S
O239 Cd240 2.228 . S
Cd240 O239 2.228 . S
Cd240 O244 2.273 . S
Cd240 O248 2.277 . S
O241 C238 1.160 . S
O241 Cd242 2.203 . S
Cd242 O241 2.203 . S
Cd242 O244 2.411 . S
Cd242 O245 2.333 . S
Cd242 O246 2.352 . S
Cd242 O250 2.277 . S
Cd242 O251 2.356 . S
C243 O248 1.209 . S
C243 O250 1.226 . S
O244 Cd240 2.273 . S
O244 Cd242 2.411 . S
O244 C247 1.320 . S
O245 Cd242 2.333 . S
O245 C247 1.214 . S
O246 Cd242 2.352 . S
O246 C249 1.258 . S
C247 O244 1.320 . S
C247 O245 1.214 . S
O248 Cd240 2.277 . S
O248 C243 1.209 . S
C249 O246 1.258 . S
C249 O251 1.282 . S
O250 Cd242 2.277 . S
O250 C243 1.226 . S
O251 Cd242 2.356 . S
O251 C249 1.282 . S
C252 O253 1.306 . S
C252 O255 1.160 . S
O253 C252 1.306 . S
O253 Cd254 2.228 . S
Cd254 O253 2.228 . S
Cd254 O258 2.273 . S
Cd254 O262 2.277 . S
O255 C252 1.160 . S
O255 Cd256 2.203 . S
Cd256 O255 2.203 . S
Cd256 O258 2.411 . S
Cd256 O259 2.333 . S
Cd256 O260 2.352 . S
Cd256 O264 2.277 . S
Cd256 O265 2.356 . S
C257 O262 1.209 . S
C257 O264 1.226 . S
O258 Cd254 2.273 . S
O258 Cd256 2.411 . S
O258 C261 1.320 . S
O259 Cd256 2.333 . S
O259 C261 1.214 . S
O260 Cd256 2.352 . S
O260 C263 1.258 . S
C261 O258 1.320 . S
C261 O259 1.214 . S
O262 Cd254 2.277 . S
O262 C257 1.209 . S
C263 O260 1.258 . S
C263 O265 1.282 . S
O264 Cd256 2.277 . S
O264 C257 1.226 . S
O265 Cd256 2.356 . S
O265 C263 1.282 . S
C266 O267 1.306 . S
C266 O269 1.160 . S
O267 C266 1.306 . S
O267 Cd268 2.228 . S
Cd268 O267 2.228 . S
Cd268 O272 2.273 . S
Cd268 O276 2.277 . S
O269 C266 1.160 . S
O269 Cd270 2.203 . S
Cd270 O269 2.203 . S
Cd270 O272 2.411 . S
Cd270 O273 2.333 . S
Cd270 O274 2.352 . S
Cd270 O278 2.274 1_655 S
Cd270 O279 2.356 . S
C271 O276 1.209 1_455 S
C271 O278 1.227 . S
O272 Cd268 2.273 . S
O272 Cd270 2.411 . S
O272 C275 1.320 . S
O273 Cd270 2.333 . S
O273 C275 1.214 . S
O274 Cd270 2.352 . S
O274 C277 1.258 . S
C275 O272 1.320 . S
C275 O273 1.214 . S
O276 Cd268 2.277 . S
O276 C271 1.209 1_655 S
C277 O274 1.258 . S
C277 O279 1.282 . S
O278 Cd270 2.274 1_455 S
O278 C271 1.227 . S
O279 Cd270 2.356 . S
O279 C277 1.282 . S
C280 O281 1.306 . S
C280 O283 1.160 . S
O281 C280 1.306 . S
O281 Cd282 2.228 . S
Cd282 O281 2.228 . S
Cd282 O286 2.273 . S
Cd282 O290 2.277 . S
O283 C280 1.160 . S
O283 Cd284 2.203 . S
Cd284 O283 2.203 . S
Cd284 O286 2.411 . S
Cd284 O287 2.333 . S
Cd284 O288 2.352 . S
Cd284 O292 2.277 . S
Cd284 O293 2.356 . S
C285 O290 1.209 . S
C285 O292 1.226 . S
O286 Cd282 2.273 . S
O286 Cd284 2.411 . S
O286 C289 1.320 . S
O287 Cd284 2.333 . S
O287 C289 1.214 . S
O288 Cd284 2.352 . S
O288 C291 1.258 . S
C289 O286 1.320 . S
C289 O287 1.214 . S
O290 Cd282 2.277 . S
O290 C285 1.209 . S
C291 O288 1.258 . S
C291 O293 1.282 . S
O292 Cd284 2.277 . S
O292 C285 1.226 . S
O293 Cd284 2.356 . S
O293 C291 1.282 . S
C294 O295 1.306 . S
C294 O297 1.160 . S
O295 C294 1.306 . S
O295 Cd296 2.228 . S
Cd296 O295 2.228 . S
Cd296 O300 2.273 . S
Cd296 O304 2.277 . S
O297 C294 1.160 . S
O297 Cd298 2.203 . S
Cd298 O297 2.203 . S
Cd298 O300 2.411 . S
Cd298 O301 2.333 . S
Cd298 O302 2.352 . S
Cd298 O306 2.274 1_655 S
Cd298 O307 2.356 . S
C299 O304 1.209 1_455 S
C299 O306 1.227 . S
O300 Cd296 2.273 . S
O300 Cd298 2.411 . S
O300 C303 1.320 . S
O301 Cd298 2.333 . S
O301 C303 1.214 . S
O302 Cd298 2.352 . S
O302 C305 1.258 . S
C303 O300 1.320 . S
C303 O301 1.214 . S
O304 Cd296 2.277 . S
O304 C299 1.209 1_655 S
C305 O302 1.258 . S
C305 O307 1.282 . S
O306 Cd298 2.274 1_455 S
O306 C299 1.227 . S
O307 Cd298 2.356 . S
O307 C305 1.282 . S
C308 O309 1.306 . S
C308 O311 1.160 . S
O309 C308 1.306 . S
O309 Cd310 2.228 . S
Cd310 O309 2.228 . S
Cd310 O314 2.273 . S
Cd310 O318 2.277 . S
O311 C308 1.160 . S
O311 Cd312 2.203 . S
Cd312 O311 2.203 . S
Cd312 O314 2.411 . S
Cd312 O315 2.333 . S
Cd312 O316 2.352 . S
Cd312 O320 2.277 . S
Cd312 O321 2.356 . S
C313 O318 1.209 . S
C313 O320 1.226 . S
O314 Cd310 2.273 . S
O314 Cd312 2.411 . S
O314 C317 1.320 . S
O315 Cd312 2.333 . S
O315 C317 1.214 . S
O316 Cd312 2.352 . S
O316 C319 1.258 . S
C317 O314 1.320 . S
C317 O315 1.214 . S
O318 Cd310 2.277 . S
O318 C313 1.209 . S
C319 O316 1.258 . S
C319 O321 1.282 . S
O320 Cd312 2.277 . S
O320 C313 1.226 . S
O321 Cd312 2.356 . S
O321 C319 1.282 . S
C322 O323 1.306 . S
C322 O325 1.160 . S
O323 C322 1.306 . S
O323 Cd324 2.228 . S
Cd324 O323 2.228 . S
Cd324 O328 2.273 . S
Cd324 O332 2.277 . S
O325 C322 1.160 . S
O325 Cd326 2.203 . S
Cd326 O325 2.203 . S
Cd326 O328 2.411 . S
Cd326 O329 2.333 . S
Cd326 O330 2.352 . S
Cd326 O334 2.277 . S
Cd326 O335 2.356 . S
C327 O332 1.209 . S
C327 O334 1.226 . S
O328 Cd324 2.273 . S
O328 Cd326 2.411 . S
O328 C331 1.320 . S
O329 Cd326 2.333 . S
O329 C331 1.214 . S
O330 Cd326 2.352 . S
O330 C333 1.258 . S
C331 O328 1.320 . S
C331 O329 1.214 . S
O332 Cd324 2.277 . S
O332 C327 1.209 . S
C333 O330 1.258 . S
C333 O335 1.282 . S
O334 Cd326 2.277 . S
O334 C327 1.226 . S
O335 Cd326 2.356 . S
O335 C333 1.282 . S
C336 O337 1.306 . S
C336 O339 1.160 . S
O337 C336 1.306 . S
O337 Cd338 2.228 . S
Cd338 O337 2.228 . S
Cd338 O342 2.273 . S
Cd338 O346 2.277 . S
O339 C336 1.160 . S
O339 Cd340 2.203 . S
Cd340 O339 2.203 . S
Cd340 O342 2.411 . S
Cd340 O343 2.333 . S
Cd340 O344 2.352 . S
Cd340 O348 2.277 . S
Cd340 O349 2.356 . S
C341 O346 1.209 . S
C341 O348 1.226 . S
O342 Cd338 2.273 . S
O342 Cd340 2.411 . S
O342 C345 1.320 . S
O343 Cd340 2.333 . S
O343 C345 1.214 . S
O344 Cd340 2.352 . S
O344 C347 1.258 . S
C345 O342 1.320 . S
C345 O343 1.214 . S
O346 Cd338 2.277 . S
O346 C341 1.209 . S
C347 O344 1.258 . S
C347 O349 1.282 . S
O348 Cd340 2.277 . S
O348 C341 1.226 . S
O349 Cd340 2.356 . S
O349 C347 1.282 . S
C350 O351 1.306 . S
C350 O353 1.160 . S
O351 C350 1.306 . S
O351 Cd352 2.228 . S
Cd352 O351 2.228 . S
Cd352 O356 2.273 . S
Cd352 O360 2.277 . S
O353 C350 1.160 . S
O353 Cd354 2.203 . S
Cd354 O353 2.203 . S
Cd354 O356 2.411 . S
Cd354 O357 2.333 . S
Cd354 O358 2.352 . S
Cd354 O362 2.277 . S
Cd354 O363 2.356 . S
C355 O360 1.209 . S
C355 O362 1.226 . S
O356 Cd352 2.273 . S
O356 Cd354 2.411 . S
O356 C359 1.320 . S
O357 Cd354 2.333 . S
O357 C359 1.214 . S
O358 Cd354 2.352 . S
O358 C361 1.258 . S
C359 O356 1.320 . S
C359 O357 1.214 . S
O360 Cd352 2.277 . S
O360 C355 1.209 . S
C361 O358 1.258 . S
C361 O363 1.282 . S
O362 Cd354 2.277 . S
O362 C355 1.226 . S
O363 Cd354 2.356 . S
O363 C361 1.282 . S
C364 O365 1.306 . S
C364 O367 1.160 . S
O365 C364 1.306 . S
O365 Cd366 2.228 . S
Cd366 O365 2.228 . S
Cd366 O370 2.273 . S
Cd366 O374 2.277 . S
O367 C364 1.160 . S
O367 Cd368 2.203 . S
Cd368 O367 2.203 . S
Cd368 O370 2.411 . S
Cd368 O371 2.333 . S
Cd368 O372 2.352 . S
Cd368 O376 2.277 . S
Cd368 O377 2.356 . S
C369 O374 1.209 . S
C369 O376 1.226 . S
O370 Cd366 2.273 . S
O370 Cd368 2.411 . S
O370 C373 1.320 . S
O371 Cd368 2.333 . S
O371 C373 1.214 . S
O372 Cd368 2.352 . S
O372 C375 1.258 . S
C373 O370 1.320 . S
C373 O371 1.214 . S
O374 Cd366 2.277 . S
O374 C369 1.209 . S
C375 O372 1.258 . S
C375 O377 1.282 . S
O376 Cd368 2.277 . S
O376 C369 1.226 . S
O377 Cd368 2.356 . S
O377 C375 1.282 . S
C378 O379 1.306 . S
C378 O381 1.160 . S
O379 C378 1.306 . S
O379 Cd380 2.228 . S
Cd380 O379 2.228 . S
Cd380 O384 2.273 . S
Cd380 O388 2.277 . S
O381 C378 1.160 . S
O381 Cd382 2.203 . S
Cd382 O381 2.203 . S
Cd382 O384 2.411 . S
Cd382 O385 2.333 1_455 S
Cd382 O386 2.352 . S
Cd382 O390 2.277 . S
Cd382 O391 2.356 . S
C383 O388 1.209 . S
C383 O390 1.226 . S
O384 Cd380 2.273 . S
O384 Cd382 2.411 . S
O384 C387 1.320 1_455 S
O385 Cd382 2.333 1_655 S
O385 C387 1.214 . S
O386 Cd382 2.352 . S
O386 C389 1.258 . S
C387 O384 1.320 1_655 S
C387 O385 1.214 . S
O388 Cd380 2.277 . S
O388 C383 1.209 . S
C389 O386 1.258 . S
C389 O391 1.282 . S
O390 Cd382 2.277 . S
O390 C383 1.226 . S
O391 Cd382 2.356 . S
O391 C389 1.282 . S
C392 O393 1.306 . S
C392 O395 1.160 . S
O393 C392 1.306 . S
O393 Cd394 2.228 . S
Cd394 O393 2.228 . S
Cd394 O398 2.273 . S
Cd394 O402 2.277 . S
O395 C392 1.160 . S
O395 Cd396 2.203 . S
Cd396 O395 2.203 . S
Cd396 O398 2.411 . S
Cd396 O399 2.333 . S
Cd396 O400 2.352 . S
Cd396 O404 2.277 . S
Cd396 O405 2.356 . S
C397 O402 1.209 . S
C397 O404 1.226 . S
O398 Cd394 2.273 . S
O398 Cd396 2.411 . S
O398 C401 1.320 . S
O399 Cd396 2.333 . S
O399 C401 1.214 . S
O400 Cd396 2.352 . S
O400 C403 1.258 . S
C401 O398 1.320 . S
C401 O399 1.214 . S
O402 Cd394 2.277 . S
O402 C397 1.209 . S
C403 O400 1.258 . S
C403 O405 1.282 . S
O404 Cd396 2.277 . S
O404 C397 1.226 . S
O405 Cd396 2.356 . S
O405 C403 1.282 . S
C406 O407 1.306 . S
C406 O409 1.160 . S
O407 C406 1.306 . S
O407 Cd408 2.228 . S
Cd408 O407 2.228 . S
Cd408 O412 2.273 . S
Cd408 O416 2.277 . S
O409 C406 1.160 . S
O409 Cd410 2.203 . S
Cd410 O409 2.203 . S
Cd410 O412 2.411 . S
Cd410 O413 2.333 1_455 S
Cd410 O414 2.352 . S
Cd410 O418 2.277 . S
Cd410 O419 2.356 . S
C411 O416 1.209 . S
C411 O418 1.226 . S
O412 Cd408 2.273 . S
O412 Cd410 2.411 . S
O412 C415 1.320 1_455 S
O413 Cd410 2.333 1_655 S
O413 C415 1.214 . S
O414 Cd410 2.352 . S
O414 C417 1.258 . S
C415 O412 1.320 1_655 S
C415 O413 1.214 . S
O416 Cd408 2.277 . S
O416 C411 1.209 . S
C417 O414 1.258 . S
C417 O419 1.282 . S
O418 Cd410 2.277 . S
O418 C411 1.226 . S
O419 Cd410 2.356 . S
O419 C417 1.282 . S
C420 O421 1.306 . S
C420 O423 1.160 . S
O421 C420 1.306 . S
O421 Cd422 2.228 . S
Cd422 O421 2.228 . S
Cd422 O426 2.273 . S
Cd422 O430 2.277 . S
O423 C420 1.160 . S
O423 Cd424 2.203 . S
Cd424 O423 2.203 . S
Cd424 O426 2.411 . S
Cd424 O427 2.333 . S
Cd424 O428 2.352 . S
Cd424 O432 2.277 . S
Cd424 O433 2.356 . S
C425 O430 1.209 . S
C425 O432 1.226 . S
O426 Cd422 2.273 . S
O426 Cd424 2.411 . S
O426 C429 1.320 . S
O427 Cd424 2.333 . S
O427 C429 1.214 . S
O428 Cd424 2.352 . S
O428 C431 1.258 . S
C429 O426 1.320 . S
C429 O427 1.214 . S
O430 Cd422 2.277 . S
O430 C425 1.209 . S
C431 O428 1.258 . S
C431 O433 1.282 . S
O432 Cd424 2.277 . S
O432 C425 1.226 . S
O433 Cd424 2.356 . S
O433 C431 1.282 . S
C434 O435 1.306 . S
C434 O437 1.160 . S
O435 C434 1.306 . S
O435 Cd436 2.228 . S
Cd436 O435 2.228 . S
Cd436 O440 2.273 . S
Cd436 O444 2.277 . S
O437 C434 1.160 . S
O437 Cd438 2.203 . S
Cd438 O437 2.203 . S
Cd438 O440 2.411 . S
Cd438 O441 2.333 . S
Cd438 O442 2.352 . S
Cd438 O446 2.277 . S
Cd438 O447 2.356 . S
C439 O444 1.209 . S
C439 O446 1.226 . S
O440 Cd436 2.273 . S
O440 Cd438 2.411 . S
O440 C443 1.320 . S
O441 Cd438 2.333 . S
O441 C443 1.214 . S
O442 Cd438 2.352 . S
O442 C445 1.258 . S
C443 O440 1.320 . S
C443 O441 1.214 . S
O444 Cd436 2.277 . S
O444 C439 1.209 . S
C445 O442 1.258 . S
C445 O447 1.282 . S
O446 Cd438 2.277 . S
O446 C439 1.226 . S
O447 Cd438 2.356 . S
O447 C445 1.282 . S
C448 C449 1.387 . S
C448 H452 0.950 . S
C448 C457 1.390 . S
C449 C448 1.387 . S
C449 C451 1.387 . S
H450 C457 0.950 . S
C451 C449 1.387 . S
C451 C453 1.390 . S
C451 H455 0.950 . S
H452 C448 0.950 . S
C453 C451 1.390 . S
C453 C454 1.387 . S
C453 H456 0.950 . S
C454 C453 1.387 . S
C454 C457 1.387 . S
H455 C451 0.950 . S
H456 C453 0.950 . S
C457 C448 1.390 . S
C457 H450 0.950 . S
C457 C454 1.387 . S
C458 C459 1.387 . S
C458 H462 0.950 . S
C458 C467 1.390 . S
C459 C458 1.387 . S
C459 C461 1.387 . S
H460 C467 0.950 . S
C461 C459 1.387 . S
C461 C463 1.390 . S
C461 H465 0.950 . S
H462 C458 0.950 . S
C463 C461 1.390 . S
C463 C464 1.387 . S
C463 H466 0.950 . S
C464 C463 1.387 . S
C464 C467 1.387 . S
H465 C461 0.950 . S
H466 C463 0.950 . S
C467 C458 1.390 . S
C467 H460 0.950 . S
C467 C464 1.387 . S
C468 C469 1.387 . S
C468 H472 0.950 . S
C468 C477 1.390 . S
C469 C468 1.387 . S
C469 C471 1.387 . S
H470 C477 0.950 . S
C471 C469 1.387 . S
C471 C473 1.390 . S
C471 H475 0.950 . S
H472 C468 0.950 . S
C473 C471 1.390 . S
C473 C474 1.387 . S
C473 H476 0.950 . S
C474 C473 1.387 . S
C474 C477 1.387 . S
H475 C471 0.950 . S
H476 C473 0.950 . S
C477 C468 1.390 . S
C477 H470 0.950 . S
C477 C474 1.387 . S
C478 C479 1.387 . S
C478 H482 0.950 . S
C478 C487 1.390 . S
C479 C478 1.387 . S
C479 C481 1.387 . S
H480 C487 0.950 . S
C481 C479 1.387 . S
C481 C483 1.390 . S
C481 H485 0.950 . S
H482 C478 0.950 . S
C483 C481 1.390 . S
C483 C484 1.387 . S
C483 H486 0.950 . S
C484 C483 1.387 . S
C484 C487 1.387 . S
H485 C481 0.950 . S
H486 C483 0.950 . S
C487 C478 1.390 . S
C487 H480 0.950 . S
C487 C484 1.387 . S
C488 C489 1.387 . S
C488 H492 0.950 . S
C488 C497 1.390 . S
C489 C488 1.387 . S
C489 C491 1.387 . S
H490 C497 0.950 . S
C491 C489 1.387 . S
C491 C493 1.390 . S
C491 H495 0.950 . S
H492 C488 0.950 . S
C493 C491 1.390 . S
C493 C494 1.387 . S
C493 H496 0.950 . S
C494 C493 1.387 . S
C494 C497 1.387 . S
H495 C491 0.950 . S
H496 C493 0.950 . S
C497 C488 1.390 . S
C497 H490 0.950 . S
C497 C494 1.387 . S
C498 C499 1.387 . S
C498 H502 0.950 . S
C498 C507 1.390 . S
C499 C498 1.387 . S
C499 C501 1.387 . S
H500 C507 0.950 . S
C501 C499 1.387 . S
C501 C503 1.390 . S
C501 H505 0.950 . S
H502 C498 0.950 . S
C503 C501 1.390 . S
C503 C504 1.387 . S
C503 H506 0.950 . S
C504 C503 1.387 . S
C504 C507 1.387 . S
H505 C501 0.950 . S
H506 C503 0.950 . S
C507 C498 1.390 . S
C507 H500 0.950 . S
C507 C504 1.387 . S
C508 C509 1.387 . S
C508 H512 0.950 . S
C508 C517 1.390 . S
C509 C508 1.387 . S
C509 C511 1.387 . S
H510 C517 0.950 . S
C511 C509 1.387 . S
C511 C513 1.390 . S
C511 H515 0.950 . S
H512 C508 0.950 . S
C513 C511 1.390 . S
C513 C514 1.387 . S
C513 H516 0.950 . S
C514 C513 1.387 . S
C514 C517 1.387 . S
H515 C511 0.950 . S
H516 C513 0.950 . S
C517 C508 1.390 . S
C517 H510 0.950 . S
C517 C514 1.387 . S
C518 C519 1.387 . S
C518 H522 0.950 . S
C518 C527 1.390 . S
C519 C518 1.387 . S
C519 C521 1.387 . S
H520 C527 0.950 . S
C521 C519 1.387 . S
C521 C523 1.390 . S
C521 H525 0.950 . S
H522 C518 0.950 . S
C523 C521 1.390 . S
C523 C524 1.387 . S
C523 H526 0.950 . S
C524 C523 1.387 . S
C524 C527 1.387 . S
H525 C521 0.950 . S
H526 C523 0.950 . S
C527 C518 1.390 . S
C527 H520 0.950 . S
C527 C524 1.387 . S
C528 C529 1.387 . S
C528 H532 0.950 . S
C528 C537 1.390 . S
C529 C528 1.387 . S
C529 C531 1.387 . S
H530 C537 0.950 . S
C531 C529 1.387 . S
C531 C533 1.390 . S
C531 H535 0.950 . S
H532 C528 0.950 . S
C533 C531 1.390 . S
C533 C534 1.387 . S
C533 H536 0.950 . S
C534 C533 1.387 . S
C534 C537 1.387 . S
H535 C531 0.950 . S
H536 C533 0.950 . S
C537 C528 1.390 . S
C537 H530 0.950 . S
C537 C534 1.387 . S
C538 C539 1.387 . S
C538 H542 0.950 . S
C538 C547 1.390 . S
C539 C538 1.387 . S
C539 C541 1.387 . S
H540 C547 0.950 . S
C541 C539 1.387 . S
C541 C543 1.390 . S
C541 H545 0.950 . S
H542 C538 0.950 . S
C543 C541 1.390 . S
C543 C544 1.387 . S
C543 H546 0.950 . S
C544 C543 1.387 . S
C544 C547 1.387 . S
H545 C541 0.950 . S
H546 C543 0.950 . S
C547 C538 1.390 . S
C547 H540 0.950 . S
C547 C544 1.387 . S
C548 C549 1.387 . S
C548 H552 0.950 . S
C548 C557 1.390 . S
C549 C548 1.387 . S
C549 C551 1.387 . S
H550 C557 0.950 . S
C551 C549 1.387 . S
C551 C553 1.390 . S
C551 H555 0.950 . S
H552 C548 0.950 . S
C553 C551 1.390 . S
C553 C554 1.387 . S
C553 H556 0.950 . S
C554 C553 1.387 . S
C554 C557 1.387 . S
H555 C551 0.950 . S
H556 C553 0.950 . S
C557 C548 1.390 . S
C557 H550 0.950 . S
C557 C554 1.387 . S
C558 C559 1.387 . S
C558 H562 0.950 . S
C558 C567 1.390 . S
C559 C558 1.387 . S
C559 C561 1.387 . S
H560 C567 0.950 . S
C561 C559 1.387 . S
C561 C563 1.390 . S
C561 H565 0.950 . S
H562 C558 0.950 . S
C563 C561 1.390 . S
C563 C564 1.387 . S
C563 H566 0.950 . S
C564 C563 1.387 . S
C564 C567 1.387 . S
H565 C561 0.950 . S
H566 C563 0.950 . S
C567 C558 1.390 . S
C567 H560 0.950 . S
C567 C564 1.387 . S
C568 C569 1.387 . S
C568 H572 0.950 . S
C568 C577 1.390 . S
C569 C568 1.387 . S
C569 C571 1.387 . S
H570 C577 0.950 . S
C571 C569 1.387 . S
C571 C573 1.390 . S
C571 H575 0.950 . S
H572 C568 0.950 . S
C573 C571 1.390 . S
C573 C574 1.387 . S
C573 H576 0.950 . S
C574 C573 1.387 . S
C574 C577 1.387 . S
H575 C571 0.950 . S
H576 C573 0.950 . S
C577 C568 1.390 . S
C577 H570 0.950 . S
C577 C574 1.387 . S
C578 C579 1.387 . S
C578 H582 0.950 . S
C578 C587 1.390 . S
C579 C578 1.387 . S
C579 C581 1.387 . S
H580 C587 0.950 . S
C581 C579 1.387 . S
C581 C583 1.390 . S
C581 H585 0.950 . S
H582 C578 0.950 . S
C583 C581 1.390 . S
C583 C584 1.387 . S
C583 H586 0.950 . S
C584 C583 1.387 . S
C584 C587 1.387 . S
H585 C581 0.950 . S
H586 C583 0.950 . S
C587 C578 1.390 . S
C587 H580 0.950 . S
C587 C584 1.387 . S
C588 C589 1.387 . S
C588 H592 0.950 . S
C588 C597 1.390 . S
C589 C588 1.387 . S
C589 C591 1.387 . S
H590 C597 0.950 . S
C591 C589 1.387 . S
C591 C593 1.390 . S
C591 H595 0.950 . S
H592 C588 0.950 . S
C593 C591 1.390 . S
C593 C594 1.387 . S
C593 H596 0.950 . S
C594 C593 1.387 . S
C594 C597 1.387 . S
H595 C591 0.950 . S
H596 C593 0.950 . S
C597 C588 1.390 . S
C597 H590 0.950 . S
C597 C594 1.387 . S
C598 C599 1.387 . S
C598 H602 0.950 . S
C598 C607 1.390 . S
C599 C598 1.387 . S
C599 C601 1.387 . S
H600 C607 0.950 . S
C601 C599 1.387 . S
C601 C603 1.390 . S
C601 H605 0.950 . S
H602 C598 0.950 . S
C603 C601 1.390 . S
C603 C604 1.387 . S
C603 H606 0.950 . S
C604 C603 1.387 . S
C604 C607 1.387 . S
H605 C601 0.950 . S
H606 C603 0.950 . S
C607 C598 1.390 . S
C607 H600 0.950 . S
C607 C604 1.387 . S
C608 C609 1.387 . S
C608 H612 0.950 . S
C608 C617 1.390 . S
C609 C608 1.387 . S
C609 C611 1.387 . S
H610 C617 0.950 . S
C611 C609 1.387 . S
C611 C613 1.390 . S
C611 H615 0.950 . S
H612 C608 0.950 . S
C613 C611 1.390 . S
C613 C614 1.387 . S
C613 H616 0.950 . S
C614 C613 1.387 . S
C614 C617 1.387 . S
H615 C611 0.950 . S
H616 C613 0.950 . S
C617 C608 1.390 . S
C617 H610 0.950 . S
C617 C614 1.387 . S
C618 C619 1.387 . S
C618 H622 0.950 . S
C618 C627 1.390 . S
C619 C618 1.387 . S
C619 C621 1.387 . S
H620 C627 0.950 . S
C621 C619 1.387 . S
C621 C623 1.390 . S
C621 H625 0.950 . S
H622 C618 0.950 . S
C623 C621 1.390 . S
C623 C624 1.387 . S
C623 H626 0.950 . S
C624 C623 1.387 . S
C624 C627 1.387 . S
H625 C621 0.950 . S
H626 C623 0.950 . S
C627 C618 1.390 . S
C627 H620 0.950 . S
C627 C624 1.387 . S
C628 C629 1.387 . S
C628 H632 0.950 . S
C628 C637 1.390 . S
C629 C628 1.387 . S
C629 C631 1.387 . S
H630 C637 0.950 . S
C631 C629 1.387 . S
C631 C633 1.390 . S
C631 H635 0.950 . S
H632 C628 0.950 . S
C633 C631 1.390 . S
C633 C634 1.387 . S
C633 H636 0.950 . S
C634 C633 1.387 . S
C634 C637 1.387 . S
H635 C631 0.950 . S
H636 C633 0.950 . S
C637 C628 1.390 . S
C637 H630 0.950 . S
C637 C634 1.387 . S
C638 C639 1.387 . S
C638 H642 0.950 . S
C638 C647 1.390 . S
C639 C638 1.387 . S
C639 C641 1.387 . S
H640 C647 0.950 . S
C641 C639 1.387 . S
C641 C643 1.390 . S
C641 H645 0.950 . S
H642 C638 0.950 . S
C643 C641 1.390 . S
C643 C644 1.387 . S
C643 H646 0.950 . S
C644 C643 1.387 . S
C644 C647 1.387 . S
H645 C641 0.950 . S
H646 C643 0.950 . S
C647 C638 1.390 . S
C647 H640 0.950 . S
C647 C644 1.387 . S
C648 C649 1.387 . S
C648 H652 0.950 . S
C648 C657 1.390 . S
C649 C648 1.387 . S
C649 C651 1.387 . S
H650 C657 0.950 . S
C651 C649 1.387 . S
C651 C653 1.390 . S
C651 H655 0.950 . S
H652 C648 0.950 . S
C653 C651 1.390 . S
C653 C654 1.387 . S
C653 H656 0.950 . S
C654 C653 1.387 . S
C654 C657 1.387 . S
H655 C651 0.950 . S
H656 C653 0.950 . S
C657 C648 1.390 . S
C657 H650 0.950 . S
C657 C654 1.387 . S
C658 C659 1.387 . S
C658 H662 0.950 . S
C658 C667 1.390 . S
C659 C658 1.387 . S
C659 C661 1.387 . S
H660 C667 0.950 . S
C661 C659 1.387 . S
C661 C663 1.390 . S
C661 H665 0.950 . S
H662 C658 0.950 . S
C663 C661 1.390 . S
C663 C664 1.387 . S
C663 H666 0.950 . S
C664 C663 1.387 . S
C664 C667 1.387 . S
H665 C661 0.950 . S
H666 C663 0.950 . S
C667 C658 1.390 . S
C667 H660 0.950 . S
C667 C664 1.387 . S
C668 C669 1.387 . S
C668 H672 0.950 . S
C668 C677 1.390 . S
C669 C668 1.387 . S
C669 C671 1.387 . S
H670 C677 0.950 . S
C671 C669 1.387 . S
C671 C673 1.390 . S
C671 H675 0.950 . S
H672 C668 0.950 . S
C673 C671 1.390 . S
C673 C674 1.387 . S
C673 H676 0.950 . S
C674 C673 1.387 . S
C674 C677 1.387 . S
H675 C671 0.950 . S
H676 C673 0.950 . S
C677 C668 1.390 . S
C677 H670 0.950 . S
C677 C674 1.387 . S
C678 C679 1.387 . S
C678 H682 0.950 . S
C678 C687 1.390 . S
C679 C678 1.387 . S
C679 C681 1.387 . S
H680 C687 0.950 . S
C681 C679 1.387 . S
C681 C683 1.390 . S
C681 H685 0.950 . S
H682 C678 0.950 . S
C683 C681 1.390 . S
C683 C684 1.387 . S
C683 H686 0.950 . S
C684 C683 1.387 . S
C684 C687 1.387 . S
H685 C681 0.950 . S
H686 C683 0.950 . S
C687 C678 1.390 . S
C687 H680 0.950 . S
C687 C684 1.387 . S
C688 C689 1.387 . S
C688 H692 0.950 . S
C688 C697 1.390 . S
C689 C688 1.387 . S
C689 C691 1.387 . S
H690 C697 0.950 . S
C691 C689 1.387 . S
C691 C693 1.390 . S
C691 H695 0.950 . S
H692 C688 0.950 . S
C693 C691 1.390 . S
C693 C694 1.387 . S
C693 H696 0.950 . S
C694 C693 1.387 . S
C694 C697 1.387 . S
H695 C691 0.950 . S
H696 C693 0.950 . S
C697 C688 1.390 . S
C697 H690 0.950 . S
C697 C694 1.387 . S
C698 C699 1.387 . S
C698 H702 0.950 . S
C698 C707 1.390 . S
C699 C698 1.387 . S
C699 C701 1.387 . S
H700 C707 0.950 . S
C701 C699 1.387 . S
C701 C703 1.390 . S
C701 H705 0.950 . S
H702 C698 0.950 . S
C703 C701 1.390 . S
C703 C704 1.387 . S
C703 H706 0.950 . S
C704 C703 1.387 . S
C704 C707 1.387 . S
H705 C701 0.950 . S
H706 C703 0.950 . S
C707 C698 1.390 . S
C707 H700 0.950 . S
C707 C704 1.387 . S
C708 C709 1.387 . S
C708 H712 0.950 . S
C708 C717 1.390 . S
C709 C708 1.387 . S
C709 C711 1.387 . S
H710 C717 0.950 . S
C711 C709 1.387 . S
C711 C713 1.390 . S
C711 H715 0.950 . S
H712 C708 0.950 . S
C713 C711 1.390 . S
C713 C714 1.387 . S
C713 H716 0.950 . S
C714 C713 1.387 . S
C714 C717 1.387 . S
H715 C711 0.950 . S
H716 C713 0.950 . S
C717 C708 1.390 . S
C717 H710 0.950 . S
C717 C714 1.387 . S
C718 C719 1.387 . S
C718 H722 0.950 . S
C718 C727 1.390 . S
C719 C718 1.387 . S
C719 C721 1.387 . S
H720 C727 0.950 . S
C721 C719 1.387 . S
C721 C723 1.390 . S
C721 H725 0.950 . S
H722 C718 0.950 . S
C723 C721 1.390 . S
C723 C724 1.387 . S
C723 H726 0.950 . S
C724 C723 1.387 . S
C724 C727 1.387 . S
H725 C721 0.950 . S
H726 C723 0.950 . S
C727 C718 1.390 . S
C727 H720 0.950 . S
C727 C724 1.387 . S
C728 C729 1.387 . S
C728 H732 0.950 . S
C728 C737 1.390 . S
C729 C728 1.387 . S
C729 C731 1.387 . S
H730 C737 0.950 . S
C731 C729 1.387 . S
C731 C733 1.390 . S
C731 H735 0.950 . S
H732 C728 0.950 . S
C733 C731 1.390 . S
C733 C734 1.387 . S
C733 H736 0.950 . S
C734 C733 1.387 . S
C734 C737 1.387 . S
H735 C731 0.950 . S
H736 C733 0.950 . S
C737 C728 1.390 . S
C737 H730 0.950 . S
C737 C734 1.387 . S
C738 C739 1.387 . S
C738 H742 0.950 . S
C738 C747 1.390 . S
C739 C738 1.387 . S
C739 C741 1.387 . S
H740 C747 0.950 . S
C741 C739 1.387 . S
C741 C743 1.390 . S
C741 H745 0.950 . S
H742 C738 0.950 . S
C743 C741 1.390 . S
C743 C744 1.387 . S
C743 H746 0.950 . S
C744 C743 1.387 . S
C744 C747 1.387 . S
H745 C741 0.950 . S
H746 C743 0.950 . S
C747 C738 1.390 . S
C747 H740 0.950 . S
C747 C744 1.387 . S
C748 C749 1.387 . S
C748 H752 0.950 . S
C748 C757 1.390 . S
C749 C748 1.387 . S
C749 C751 1.387 . S
H750 C757 0.950 . S
C751 C749 1.387 . S
C751 C753 1.390 . S
C751 H755 0.950 . S
H752 C748 0.950 . S
C753 C751 1.390 . S
C753 C754 1.387 . S
C753 H756 0.950 . S
C754 C753 1.387 . S
C754 C757 1.387 . S
H755 C751 0.950 . S
H756 C753 0.950 . S
C757 C748 1.390 . S
C757 H750 0.950 . S
C757 C754 1.387 . S
C758 C759 1.387 . S
C758 H762 0.950 . S
C758 C767 1.390 . S
C759 C758 1.387 . S
C759 C761 1.387 . S
H760 C767 0.950 . S
C761 C759 1.387 . S
C761 C763 1.390 . S
C761 H765 0.950 . S
H762 C758 0.950 . S
C763 C761 1.390 . S
C763 C764 1.387 . S
C763 H766 0.950 . S
C764 C763 1.387 . S
C764 C767 1.387 . S
H765 C761 0.950 . S
H766 C763 0.950 . S
C767 C758 1.390 . S
C767 H760 0.950 . S
C767 C764 1.387 . S
C768 C769 1.387 . S
C768 H772 0.950 . S
C768 C777 1.390 . S
C769 C768 1.387 . S
C769 C771 1.387 . S
H770 C777 0.950 . S
C771 C769 1.387 . S
C771 C773 1.390 . S
C771 H775 0.950 . S
H772 C768 0.950 . S
C773 C771 1.390 . S
C773 C774 1.387 . S
C773 H776 0.950 . S
C774 C773 1.387 . S
C774 C777 1.387 . S
H775 C771 0.950 . S
H776 C773 0.950 . S
C777 C768 1.390 . S
C777 H770 0.950 . S
C777 C774 1.387 . S
C778 C779 1.387 1_655 S
C778 H782 0.950 . S
C778 C787 1.390 . S
C779 C778 1.387 1_455 S
C779 C781 1.387 1_565 S
H780 C787 0.950 . S
C781 C779 1.387 1_545 S
C781 C783 1.390 . S
C781 H785 0.950 . S
H782 C778 0.950 . S
C783 C781 1.390 . S
C783 C784 1.387 1_445 S
C783 H786 0.950 . S
C784 C783 1.387 1_665 S
C784 C787 1.387 . S
H785 C781 0.950 . S
H786 C783 0.950 . S
C787 C778 1.390 . S
C787 H780 0.950 . S
C787 C784 1.387 . S
C788 C789 1.387 . S
C788 H792 0.950 . S
C788 C797 1.390 . S
C789 C788 1.387 . S
C789 C791 1.387 . S
H790 C797 0.950 . S
C791 C789 1.387 . S
C791 C793 1.390 . S
C791 H795 0.950 . S
H792 C788 0.950 . S
C793 C791 1.390 . S
C793 C794 1.387 . S
C793 H796 0.950 . S
C794 C793 1.387 . S
C794 C797 1.387 . S
H795 C791 0.950 . S
H796 C793 0.950 . S
C797 C788 1.390 . S
C797 H790 0.950 . S
C797 C794 1.387 . S
C798 C799 1.387 . S
C798 H802 0.950 . S
C798 C807 1.390 1_554 S
C799 C798 1.387 . S
C799 C801 1.387 1_545 S
H800 C807 0.950 . S
C801 C799 1.387 1_565 S
C801 C803 1.390 1_554 S
C801 H805 0.950 . S
H802 C798 0.950 . S
C803 C801 1.390 1_556 S
C803 C804 1.387 1_565 S
C803 H806 0.950 . S
C804 C803 1.387 1_545 S
C804 C807 1.387 . S
H805 C801 0.950 . S
H806 C803 0.950 . S
C807 C798 1.390 1_556 S
C807 H800 0.950 . S
C807 C804 1.387 . S
C808 C809 1.387 . S
C808 H812 0.950 . S
C808 C817 1.390 . S
C809 C808 1.387 . S
C809 C811 1.387 . S
H810 C817 0.950 . S
C811 C809 1.387 . S
C811 C813 1.390 . S
C811 H815 0.950 . S
H812 C808 0.950 . S
C813 C811 1.390 . S
C813 C814 1.387 . S
C813 H816 0.950 . S
C814 C813 1.387 . S
C814 C817 1.387 . S
H815 C811 0.950 . S
H816 C813 0.950 . S
C817 C808 1.390 . S
C817 H810 0.950 . S
C817 C814 1.387 . S
C818 C819 1.387 1_545 S
C818 H822 0.950 . S
C818 C827 1.390 . S
C819 C818 1.387 1_565 S
C819 C821 1.387 . S
H820 C827 0.950 . S
C821 C819 1.387 . S
C821 C823 1.390 . S
C821 H825 0.950 . S
H822 C818 0.950 . S
C823 C821 1.390 . S
C823 C824 1.387 . S
C823 H826 0.950 . S
C824 C823 1.387 . S
C824 C827 1.387 1_565 S
H825 C821 0.950 . S
H826 C823 0.950 . S
C827 C818 1.390 . S
C827 H820 0.950 . S
C827 C824 1.387 1_545 S
C828 C829 1.387 . S
C828 H832 0.950 . S
C828 C837 1.390 . S
C829 C828 1.387 . S
C829 C831 1.387 . S
H830 C837 0.950 . S
C831 C829 1.387 . S
C831 C833 1.390 . S
C831 H835 0.950 . S
H832 C828 0.950 . S
C833 C831 1.390 . S
C833 C834 1.387 . S
C833 H836 0.950 . S
C834 C833 1.387 . S
C834 C837 1.387 . S
H835 C831 0.950 . S
H836 C833 0.950 . S
C837 C828 1.390 . S
C837 H830 0.950 . S
C837 C834 1.387 . S
C838 C839 1.387 1_565 S
C838 H842 0.950 . S
C838 C847 1.390 1_456 S
C839 C838 1.387 1_545 S
C839 C841 1.387 . S
H840 C847 0.950 . S
C841 C839 1.387 . S
C841 C843 1.390 1_456 S
C841 H845 0.950 . S
H842 C838 0.950 . S
C843 C841 1.390 1_654 S
C843 C844 1.387 . S
C843 H846 0.950 . S
C844 C843 1.387 . S
C844 C847 1.387 1_545 S
H845 C841 0.950 . S
H846 C843 0.950 . S
C847 C838 1.390 1_654 S
C847 H840 0.950 . S
C847 C844 1.387 1_565 S
C848 C849 1.387 . S
C848 H852 0.950 . S
C848 C857 1.390 . S
C849 C848 1.387 . S
C849 C851 1.387 . S
H850 C857 0.950 . S
C851 C849 1.387 . S
C851 C853 1.390 . S
C851 H855 0.950 . S
H852 C848 0.950 . S
C853 C851 1.390 . S
C853 C854 1.387 . S
C853 H856 0.950 . S
C854 C853 1.387 . S
C854 C857 1.387 . S
H855 C851 0.950 . S
H856 C853 0.950 . S
C857 C848 1.390 . S
C857 H850 0.950 . S
C857 C854 1.387 . S
C858 C859 1.387 . S
C858 H862 0.950 . S
C858 C867 1.390 . S
C859 C858 1.387 . S
C859 C861 1.387 . S
H860 C867 0.950 . S
C861 C859 1.387 . S
C861 C863 1.390 . S
C861 H865 0.950 . S
H862 C858 0.950 . S
C863 C861 1.390 . S
C863 C864 1.387 . S
C863 H866 0.950 . S
C864 C863 1.387 . S
C864 C867 1.387 . S
H865 C861 0.950 . S
H866 C863 0.950 . S
C867 C858 1.390 . S
C867 H860 0.950 . S
C867 C864 1.387 . S
C868 C869 1.387 . S
C868 H872 0.950 . S
C868 C877 1.390 . S
C869 C868 1.387 . S
C869 C871 1.387 . S
H870 C877 0.950 . S
C871 C869 1.387 . S
C871 C873 1.390 . S
C871 H875 0.950 . S
H872 C868 0.950 . S
C873 C871 1.390 . S
C873 C874 1.387 . S
C873 H876 0.950 . S
C874 C873 1.387 . S
C874 C877 1.387 . S
H875 C871 0.950 . S
H876 C873 0.950 . S
C877 C868 1.390 . S
C877 H870 0.950 . S
C877 C874 1.387 . S
C878 C879 1.387 . S
C878 H882 0.950 . S
C878 C887 1.390 . S
C879 C878 1.387 . S
C879 C881 1.387 . S
H880 C887 0.950 . S
C881 C879 1.387 . S
C881 C883 1.390 . S
C881 H885 0.950 . S
H882 C878 0.950 . S
C883 C881 1.390 . S
C883 C884 1.387 . S
C883 H886 0.950 . S
C884 C883 1.387 . S
C884 C887 1.387 . S
H885 C881 0.950 . S
H886 C883 0.950 . S
C887 C878 1.390 . S
C887 H880 0.950 . S
C887 C884 1.387 . S
C888 C889 1.387 . S
C888 H892 0.950 . S
C888 C897 1.390 1_554 S
C889 C888 1.387 . S
C889 C891 1.387 . S
H890 C897 0.950 . S
C891 C889 1.387 . S
C891 C893 1.390 1_554 S
C891 H895 0.950 . S
H892 C888 0.950 . S
C893 C891 1.390 1_556 S
C893 C894 1.387 . S
C893 H896 0.950 . S
C894 C893 1.387 . S
C894 C897 1.387 . S
H895 C891 0.950 . S
H896 C893 0.950 . S
C897 C888 1.390 1_556 S
C897 H890 0.950 . S
C897 C894 1.387 . S
C898 C899 1.387 . S
C898 H902 0.950 . S
C898 C907 1.390 1_455 S
C899 C898 1.387 . S
C899 C901 1.387 . S
H900 C907 0.950 . S
C901 C899 1.387 . S
C901 C903 1.390 1_455 S
C901 H905 0.950 . S
H902 C898 0.950 . S
C903 C901 1.390 1_655 S
C903 C904 1.387 . S
C903 H906 0.950 . S
C904 C903 1.387 . S
C904 C907 1.387 . S
H905 C901 0.950 . S
H906 C903 0.950 . S
C907 C898 1.390 1_655 S
C907 H900 0.950 . S
C907 C904 1.387 . S
C908 C909 1.390 . S
C908 H912 0.950 . S
C908 C917 1.387 1_454 S
C909 C908 1.390 . S
C909 C911 1.387 . S
H910 C917 0.950 . S
C911 C909 1.387 . S
C911 C913 1.390 1_454 S
C911 H915 0.950 . S
H912 C908 0.950 . S
C913 C911 1.390 1_656 S
C913 C914 1.387 . S
C913 H916 0.950 . S
C914 C913 1.387 . S
C914 C917 1.387 . S
H915 C911 0.950 . S
H916 C913 0.950 . S
C917 C908 1.387 1_656 S
C917 H910 0.950 . S
C917 C914 1.387 . S
C918 C919 1.387 . S
C918 H922 0.950 . S
C918 C927 1.390 . S
C919 C918 1.387 . S
C919 C921 1.387 . S
H920 C927 0.950 . S
C921 C919 1.387 . S
C921 C923 1.390 . S
C921 H925 0.950 . S
H922 C918 0.950 . S
C923 C921 1.390 . S
C923 C924 1.387 . S
C923 H926 0.950 . S
C924 C923 1.387 . S
C924 C927 1.387 . S
H925 C921 0.950 . S
H926 C923 0.950 . S
C927 C918 1.390 . S
C927 H920 0.950 . S
C927 C924 1.387 . S
C928 C929 1.387 . S
C928 H932 0.950 . S
C928 C937 1.390 . S
C929 C928 1.387 . S
C929 C931 1.387 . S
H930 C937 0.950 . S
C931 C929 1.387 . S
C931 C933 1.390 . S
C931 H935 0.950 . S
H932 C928 0.950 . S
C933 C931 1.390 . S
C933 C934 1.387 . S
C933 H936 0.950 . S
C934 C933 1.387 . S
C934 C937 1.387 . S
H935 C931 0.950 . S
H936 C933 0.950 . S
C937 C928 1.390 . S
C937 H930 0.950 . S
C937 C934 1.387 . S
C938 C939 1.387 . S
C938 H942 0.950 . S
C938 C947 1.390 . S
C939 C938 1.387 . S
C939 C941 1.387 . S
H940 C947 0.950 . S
C941 C939 1.387 . S
C941 C943 1.390 . S
C941 H945 0.950 . S
H942 C938 0.950 . S
C943 C941 1.390 . S
C943 C944 1.387 . S
C943 H946 0.950 . S
C944 C943 1.387 . S
C944 C947 1.387 . S
H945 C941 0.950 . S
H946 C943 0.950 . S
C947 C938 1.390 . S
C947 H940 0.950 . S
C947 C944 1.387 . S
C948 C949 1.387 . S
C948 H952 0.950 . S
C948 C957 1.390 . S
C949 C948 1.387 . S
C949 C951 1.387 . S
H950 C957 0.950 . S
C951 C949 1.387 . S
C951 C953 1.390 . S
C951 H955 0.950 . S
H952 C948 0.950 . S
C953 C951 1.390 . S
C953 C954 1.387 . S
C953 H956 0.950 . S
C954 C953 1.387 . S
C954 C957 1.387 . S
H955 C951 0.950 . S
H956 C953 0.950 . S
C957 C948 1.390 . S
C957 H950 0.950 . S
C957 C954 1.387 . S
C958 C959 1.387 . S
C958 H962 0.950 . S
C958 C967 1.390 . S
C959 C958 1.387 . S
C959 C961 1.387 . S
H960 C967 0.950 . S
C961 C959 1.387 . S
C961 C963 1.390 . S
C961 H965 0.950 . S
H962 C958 0.950 . S
C963 C961 1.390 . S
C963 C964 1.387 . S
C963 H966 0.950 . S
C964 C963 1.387 . S
C964 C967 1.387 . S
H965 C961 0.950 . S
H966 C963 0.950 . S
C967 C958 1.390 . S
C967 H960 0.950 . S
C967 C964 1.387 . S
C968 C969 1.387 . S
C968 H972 0.950 . S
C968 C977 1.390 . S
C969 C968 1.387 . S
C969 C971 1.387 . S
H970 C977 0.950 . S
C971 C969 1.387 . S
C971 C973 1.390 . S
C971 H975 0.950 . S
H972 C968 0.950 . S
C973 C971 1.390 . S
C973 C974 1.387 . S
C973 H976 0.950 . S
C974 C973 1.387 . S
C974 C977 1.387 . S
H975 C971 0.950 . S
H976 C973 0.950 . S
C977 C968 1.390 . S
C977 H970 0.950 . S
C977 C974 1.387 . S
C978 C979 1.387 . S
C978 H982 0.950 . S
C978 C987 1.390 . S
C979 C978 1.387 . S
C979 C981 1.387 . S
H980 C987 0.950 . S
C981 C979 1.387 . S
C981 C983 1.390 . S
C981 H985 0.950 . S
H982 C978 0.950 . S
C983 C981 1.390 . S
C983 C984 1.387 . S
C983 H986 0.950 . S
C984 C983 1.387 . S
C984 C987 1.387 . S
H985 C981 0.950 . S
H986 C983 0.950 . S
C987 C978 1.390 . S
C987 H980 0.950 . S
C987 C984 1.387 . S
C988 C989 1.387 . S
C988 H992 0.950 . S
C988 C997 1.390 . S
C989 C988 1.387 . S
C989 C991 1.387 . S
H990 C997 0.950 . S
C991 C989 1.387 . S
C991 C993 1.390 . S
C991 H995 0.950 . S
H992 C988 0.950 . S
C993 C991 1.390 . S
C993 C994 1.387 . S
C993 H996 0.950 . S
C994 C993 1.387 . S
C994 C997 1.387 . S
H995 C991 0.950 . S
H996 C993 0.950 . S
C997 C988 1.390 . S
C997 H990 0.950 . S
C997 C994 1.387 . S
C998 C999 1.387 . S
C998 H1002 0.950 . S
C998 C1007 1.390 . S
C999 C998 1.387 . S
C999 C1001 1.387 . S
H1000 C1007 0.950 . S
C1001 C999 1.387 . S
C1001 C1003 1.390 . S
C1001 H1005 0.950 . S
H1002 C998 0.950 . S
C1003 C1001 1.390 . S
C1003 C1004 1.387 . S
C1003 H1006 0.950 . S
C1004 C1003 1.387 . S
C1004 C1007 1.387 . S
H1005 C1001 0.950 . S
H1006 C1003 0.950 . S
C1007 C998 1.390 . S
C1007 H1000 0.950 . S
C1007 C1004 1.387 . S
C1008 C1009 1.387 . S
C1008 H1012 0.950 . S
C1008 C1017 1.390 . S
C1009 C1008 1.387 . S
C1009 C1011 1.387 . S
H1010 C1017 0.950 . S
C1011 C1009 1.387 . S
C1011 C1013 1.390 . S
C1011 H1015 0.950 . S
H1012 C1008 0.950 . S
C1013 C1011 1.390 . S
C1013 C1014 1.387 . S
C1013 H1016 0.950 . S
C1014 C1013 1.387 . S
C1014 C1017 1.387 . S
H1015 C1011 0.950 . S
H1016 C1013 0.950 . S
C1017 C1008 1.390 . S
C1017 H1010 0.950 . S
C1017 C1014 1.387 . S
C1018 C1019 1.387 . S
C1018 H1022 0.950 . S
C1018 C1027 1.390 . S
C1019 C1018 1.387 . S
C1019 C1021 1.387 . S
H1020 C1027 0.950 . S
C1021 C1019 1.387 . S
C1021 C1023 1.390 . S
C1021 H1025 0.950 . S
H1022 C1018 0.950 . S
C1023 C1021 1.390 . S
C1023 C1024 1.387 . S
C1023 H1026 0.950 . S
C1024 C1023 1.387 . S
C1024 C1027 1.387 . S
H1025 C1021 0.950 . S
H1026 C1023 0.950 . S
C1027 C1018 1.390 . S
C1027 H1020 0.950 . S
C1027 C1024 1.387 . S
C1028 C1029 1.387 . S
C1028 H1032 0.950 . S
C1028 C1037 1.390 . S
C1029 C1028 1.387 . S
C1029 C1031 1.387 . S
H1030 C1037 0.950 . S
C1031 C1029 1.387 . S
C1031 C1033 1.390 . S
C1031 H1035 0.950 . S
H1032 C1028 0.950 . S
C1033 C1031 1.390 . S
C1033 C1034 1.387 . S
C1033 H1036 0.950 . S
C1034 C1033 1.387 . S
C1034 C1037 1.387 . S
H1035 C1031 0.950 . S
H1036 C1033 0.950 . S
C1037 C1028 1.390 . S
C1037 H1030 0.950 . S
C1037 C1034 1.387 . S
C1038 C1039 1.387 . S
C1038 H1042 0.950 . S
C1038 C1047 1.390 . S
C1039 C1038 1.387 . S
C1039 C1041 1.387 . S
H1040 C1047 0.950 . S
C1041 C1039 1.387 . S
C1041 C1043 1.390 . S
C1041 H1045 0.950 . S
H1042 C1038 0.950 . S
C1043 C1041 1.390 . S
C1043 C1044 1.387 . S
C1043 H1046 0.950 . S
C1044 C1043 1.387 . S
C1044 C1047 1.387 . S
H1045 C1041 0.950 . S
H1046 C1043 0.950 . S
C1047 C1038 1.390 . S
C1047 H1040 0.950 . S
C1047 C1044 1.387 . S
C1048 C1049 1.387 . S
C1048 H1052 0.950 . S
C1048 C1057 1.390 . S
C1049 C1048 1.387 . S
C1049 C1051 1.387 . S
H1050 C1057 0.950 . S
C1051 C1049 1.387 . S
C1051 C1053 1.390 . S
C1051 H1055 0.950 . S
H1052 C1048 0.950 . S
C1053 C1051 1.390 . S
C1053 C1054 1.387 . S
C1053 H1056 0.950 . S
C1054 C1053 1.387 . S
C1054 C1057 1.387 . S
H1055 C1051 0.950 . S
H1056 C1053 0.950 . S
C1057 C1048 1.390 . S
C1057 H1050 0.950 . S
C1057 C1054 1.387 . S
C1058 C1059 1.387 . S
C1058 H1062 0.950 . S
C1058 C1067 1.390 . S
C1059 C1058 1.387 . S
C1059 C1061 1.387 . S
H1060 C1067 0.950 . S
C1061 C1059 1.387 . S
C1061 C1063 1.390 . S
C1061 H1065 0.950 . S
H1062 C1058 0.950 . S
C1063 C1061 1.390 . S
C1063 C1064 1.387 . S
C1063 H1066 0.950 . S
C1064 C1063 1.387 . S
C1064 C1067 1.387 . S
H1065 C1061 0.950 . S
H1066 C1063 0.950 . S
C1067 C1058 1.390 . S
C1067 H1060 0.950 . S
C1067 C1064 1.387 . S
C1068 C1069 1.387 . S
C1068 H1072 0.950 . S
C1068 C1077 1.390 . S
C1069 C1068 1.387 . S
C1069 C1071 1.387 . S
H1070 C1077 0.950 . S
C1071 C1069 1.387 . S
C1071 C1073 1.390 . S
C1071 H1075 0.950 . S
H1072 C1068 0.950 . S
C1073 C1071 1.390 . S
C1073 C1074 1.387 . S
C1073 H1076 0.950 . S
C1074 C1073 1.387 . S
C1074 C1077 1.387 . S
H1075 C1071 0.950 . S
H1076 C1073 0.950 . S
C1077 C1068 1.390 . S
C1077 H1070 0.950 . S
C1077 C1074 1.387 . S
C1078 C1079 1.387 . S
C1078 H1082 0.950 . S
C1078 C1087 1.390 . S
C1079 C1078 1.387 . S
C1079 C1081 1.387 . S
H1080 C1087 0.950 . S
C1081 C1079 1.387 . S
C1081 C1083 1.390 . S
C1081 H1085 0.950 . S
H1082 C1078 0.950 . S
C1083 C1081 1.390 . S
C1083 C1084 1.387 . S
C1083 H1086 0.950 . S
C1084 C1083 1.387 . S
C1084 C1087 1.387 . S
H1085 C1081 0.950 . S
H1086 C1083 0.950 . S
C1087 C1078 1.390 . S
C1087 H1080 0.950 . S
C1087 C1084 1.387 . S
C449 C383 1.351 . S
C454 C5 1.346 . S
C459 C19 1.345 . S
C464 C117 1.352 . S
C469 C355 1.352 . S
C474 C33 1.345 . S
C479 C47 1.346 . S
C484 C145 1.351 . S
C489 C61 1.345 . S
C494 C411 1.352 . S
C499 C75 1.345 . S
C504 C201 1.352 . S
C509 C89 1.346 . S
C514 C439 1.352 . S
C519 C103 1.346 . S
C524 C173 1.351 . S
C529 C275 1.406 . S
C534 C121 1.384 . S
C539 C9 1.405 . S
C544 C135 1.382 . S
C549 C247 1.406 . S
C554 C149 1.383 . S
C559 C163 1.383 . S
C564 C37 1.405 . S
C569 C303 1.406 . S
C574 C177 1.384 . S
C579 C93 1.405 . S
C584 C191 1.382 . S
C589 C205 1.381 . S
C594 C331 1.406 . S
C599 C65 1.406 . S
C604 C219 1.383 . S
C609 C229 1.345 . S
C614 C159 1.352 . S
C619 C243 1.346 . S
C624 C341 1.352 . S
C629 C131 1.352 . S
C634 C257 1.345 . S
C639 C369 1.351 . S
C644 C271 1.346 . S
C649 C187 1.352 . S
C654 C285 1.345 . S
C659 C425 1.351 . S
C664 C299 1.346 . S
C669 C215 1.351 . S
C674 C313 1.346 . S
C679 C327 1.345 . S
C684 C397 1.352 . S
C689 C51 1.406 . S
C694 C345 1.383 . S
C699 C359 1.384 . S
C704 C233 1.406 . S
C709 C373 1.381 . S
C714 C23 1.405 . S
C719 C387 1.382 . S
C724 C261 1.405 . S
C729 C401 1.383 . S
C734 C79 1.406 . S
C739 C415 1.383 . S
C744 C317 1.405 . S
C749 C429 1.382 . S
C754 C107 1.406 . S
C759 C443 1.383 . S
C764 C289 1.406 . S
C769 C347 1.510 . S
C774 C0 1.504 . S
C779 C14 1.504 . S
C784 C137 1.510 1_565 S
C789 C375 1.511 . S
C794 C28 1.505 . S
C799 C42 1.505 . S
C804 C165 1.510 1_545 S
C809 C403 1.510 . S
C814 C56 1.505 . S
C819 C70 1.504 . S
C824 C193 1.510 1_565 S
C829 C431 1.510 . S
C834 C84 1.504 . S
C839 C98 1.504 . S
C844 C221 1.510 1_545 S
C849 C123 1.511 . S
C854 C224 1.505 . S
C859 C151 1.510 . S
C864 C252 1.504 . S
C869 C179 1.510 . S
C874 C280 1.504 . S
C879 C207 1.510 . S
C884 C308 1.504 . S
C889 C238 1.504 . S
C894 C361 1.510 . S
C899 C389 1.510 . S
C904 C266 1.504 . S
C909 C417 1.510 . S
C914 C294 1.505 . S
C919 C322 1.505 . S
C924 C445 1.510 . S
C929 C11 1.415 . S
C934 C81 1.416 . S
C939 C25 1.416 . S
C944 C95 1.415 . S
C949 C39 1.415 . S
C954 C109 1.416 . S
C959 C67 1.415 . S
C964 C53 1.416 . S
C969 C112 1.558 . S
C974 C182 1.559 . S
C979 C126 1.558 . S
C984 C196 1.559 . S
C989 C140 1.559 . S
C994 C210 1.558 . S
C999 C154 1.559 . S
C1004 C168 1.558 . S
C1009 C235 1.416 . S
C1014 C305 1.415 . S
C1019 C319 1.416 . S
C1024 C249 1.416 . S
C1029 C263 1.416 . S
C1034 C333 1.415 . S
C1039 C277 1.416 . S
C1044 C291 1.416 . S
C1049 C406 1.559 . S
C1054 C336 1.558 . S
C1059 C350 1.558 . S
C1064 C420 1.559 . S
C1069 C434 1.559 . S
C1074 C364 1.558 . S
C1079 C378 1.559 . S
C1084 C392 1.558 . S
