# Generated by pormake.
# Topology sxb, (6)-cn, num edge types: 1
# Building blocks:
#     Node 0, Type 0, BuildingBlock: JUFBIX_clean_sbu_0, # of connection points: 6
#     Node 1, Type 0, BuildingBlock: JUFBIX_clean_sbu_0, # of connection points: 6
#     Node 2, Type 0, BuildingBlock: JUFBIX_clean_sbu_0, # of connection points: 6
#     Node 3, Type 0, BuildingBlock: JUFBIX_clean_sbu_0, # of connection points: 6
#     Edge 4, Type (0, 0), BuildingBlock: FUNLAD_clean_linker_0, # of connection points: 2
#     Edge 5, Type (0, 0), BuildingBlock: FUNLAD_clean_linker_0, # of connection points: 2
#     Edge 6, Type (0, 0), BuildingBlock: FUNLAD_clean_linker_0, # of connection points: 2
#     Edge 7, Type (0, 0), BuildingBlock: FUNLAD_clean_linker_0, # of connection points: 2
#     Edge 8, Type (0, 0), BuildingBlock: FUNLAD_clean_linker_0, # of connection points: 2
#     Edge 9, Type (0, 0), BuildingBlock: FUNLAD_clean_linker_0, # of connection points: 2
#     Edge 10, Type (0, 0), BuildingBlock: FUNLAD_clean_linker_0, # of connection points: 2
#     Edge 11, Type (0, 0), BuildingBlock: FUNLAD_clean_linker_0, # of connection points: 2
#     Edge 12, Type (0, 0), BuildingBlock: FUNLAD_clean_linker_0, # of connection points: 2
#     Edge 13, Type (0, 0), BuildingBlock: FUNLAD_clean_linker_0, # of connection points: 2
#     Edge 14, Type (0, 0), BuildingBlock: FUNLAD_clean_linker_0, # of connection points: 2
#     Edge 15, Type (0, 0), BuildingBlock: FUNLAD_clean_linker_0, # of connection points: 2
# Relax obj value: 0.062
# Max RMSD: 0.083
# Mean RMSD: 0.083
data_MOF--net-sxb--node1-JUFBIX_clean_sbu_0--edge1-FUNLAD_clean_linker_0
_symmetry_space_group_name_H-M    P1
_symmetry_Int_Tables_number       1
_symmetry_cell_setting            triclinic
loop_
_symmetry_equiv_pos_as_xyz
'x, y, z'
_cell_length_a     17.200704
_cell_length_b     40.478799
_cell_length_c     34.763056
_cell_angle_alpha  89.713047
_cell_angle_beta   96.0321
_cell_angle_gamma 90.085136
loop_
_atom_site_label
_atom_site_type_symbol
_atom_site_fract_x
_atom_site_fract_y
_atom_site_fract_z
_atom_type_partial_charge
Co0 Co -0.01738 1.0271 0.00954 0.0
C1 C -0.02275 0.06044 0.07938 0.0
Co2 Co -0.01322 0.08175 0.00505 0.0
C3 C 0.0327 0.95903 0.0048 0.0
C4 C 0.92957 0.96355 0.03379 0.0
N5 N -0.01926 0.98138 0.01537 0.0
N6 N 0.01647 0.92798 0.01617 0.0
C7 C 0.95127 0.93082 0.03432 0.0
H8 H 0.0831 0.96566 0.99021 0.0
H9 H 0.88053 0.97381 0.04677 0.0
C10 C -0.00789 0.04882 0.93519 0.0
N11 N -0.01116 0.12746 0.99903 0.0
C12 C 0.93377 0.14968 0.00637 0.0
C13 C 0.04308 0.14525 0.98267 0.0
N14 N 0.95096 0.18056 0.99484 0.0
C15 C 0.02011 0.1778 0.98011 0.0
C16 C 0.13204 0.0531 0.01858 0.0
O17 O -0.01245 1.02273 0.9554 0.0
O18 O -0.00733 0.07684 0.95154 0.0
O19 O 0.09695 0.08063 0.01385 0.0
O20 O 0.09252 1.02659 0.01785 0.0
O21 O -0.01915 0.08629 0.05873 0.0
H22 H 0.09488 0.13506 0.97211 0.0
H23 H 0.88036 0.14303 0.01841 0.0
O24 O -0.02233 1.03218 0.06351 0.0
O25 O 0.87249 1.02813 1.00123 0.0
O26 O 0.87681 0.08212 0.99629 0.0
C27 C 0.83734 0.05561 0.99604 0.0
H28 H 0.92139 0.91075 0.04728 0.0
H29 H 0.05152 0.19773 0.96778 0.0
Co30 Co -0.02867 1.01198 0.50511 0.0
C31 C -0.02377 0.04433 0.43461 0.0
Co32 Co 0.96746 0.06659 0.50869 0.0
C33 C 0.92014 0.94452 0.51194 0.0
C34 C 0.0226 0.94793 0.48217 0.0
N35 N -0.02732 0.96632 0.50046 0.0
N36 N 0.93462 0.91327 0.50119 0.0
C37 C -0.00063 0.91536 0.48254 0.0
H38 H 0.87034 0.95171 0.52656 0.0
H39 H 0.07155 0.95769 0.46855 0.0
C40 C 0.96312 1.03382 0.5792 0.0
N41 N 0.9656 0.11233 0.5135 0.0
C42 C 0.01737 0.13478 0.50258 0.0
C43 C 0.91358 0.13013 0.53113 0.0
N44 N -0.00014 0.16588 0.51281 0.0
C45 C 0.93429 0.16296 0.53067 0.0
C46 C 0.82205 1.03802 0.49603 0.0
O47 O 0.96639 1.00793 0.55892 0.0
O48 O 0.96299 0.06201 0.56286 0.0
O49 O 0.85729 0.06552 0.50056 0.0
O50 O 0.86142 1.01152 0.49678 0.0
O51 O -0.02784 0.07052 0.45441 0.0
H52 H 0.86474 0.11979 0.54436 0.0
H53 H 0.06731 0.12831 0.48765 0.0
O54 O -0.02362 1.01638 0.45142 0.0
O55 O 0.0815 1.01302 0.5134 0.0
O56 O 0.0773 0.0671 0.5168 0.0
C57 C 0.11669 1.04057 0.51774 0.0
H58 H 0.02762 0.89491 0.4697 0.0
H59 H 0.90474 0.18293 0.54372 0.0
Co60 Co 0.44589 0.51439 1.00396 0.0
C61 C 0.44111 0.54528 0.0756 0.0
Co62 Co 0.43736 0.56914 1.00172 0.0
C63 C 0.51278 0.44829 1.00265 0.0
C64 C 0.40158 0.44889 0.02501 0.0
N65 N 0.45319 0.46858 0.00925 0.0
N66 N 0.50066 0.41687 0.01409 0.0
C67 C 0.43034 0.41723 0.0279 0.0
H68 H 0.56566 0.45672 0.99137 0.0
H69 H 0.34758 0.45718 0.03513 0.0
C70 C 0.44151 0.5378 0.93006 0.0
N71 N 0.42999 0.61491 0.99655 0.0
C72 C 0.37567 0.63581 0.008 0.0
C73 C 0.4766 0.63411 0.97696 0.0
N74 N 0.38622 0.66721 0.99596 0.0
C75 C 0.45009 0.66612 0.97661 0.0
C76 C 0.58769 0.54617 0.01024 0.0
O77 O 0.44787 0.51129 0.9499 0.0
O78 O 0.43564 0.5653 0.94713 0.0
O79 O 0.5462 0.57203 0.00638 0.0
O80 O 0.55523 0.51803 0.01051 0.0
O81 O 0.43905 0.57218 0.05639 0.0
H82 H 0.5257 0.62524 0.96291 0.0
H83 H 0.32759 0.62789 0.02357 0.0
O84 O 0.44367 0.51794 0.05794 0.0
O85 O 0.33615 0.51161 0.99734 0.0
O86 O 0.32887 0.56576 0.99729 0.0
C87 C 0.29556 0.53778 0.99585 0.0
H88 H 0.40206 0.39626 0.03994 0.0
H89 H 0.47568 0.68691 0.96282 0.0
Co90 Co 0.47497 0.50783 0.50074 0.0
C91 C 0.48338 0.54412 0.43269 0.0
Co92 Co 0.48402 0.56203 0.50868 0.0
C93 C 0.41478 0.44071 0.50347 0.0
C94 C 0.51436 0.44461 0.4716 0.0
N95 N 0.46738 0.46259 0.49208 0.0
N96 N 0.42739 0.40975 0.49099 0.0
C97 C 0.49015 0.41222 0.47097 0.0
H98 H 0.36843 0.44737 0.52074 0.0
H99 H 0.56269 0.45451 0.45761 0.0
C100 C 0.47557 0.5261 0.57676 0.0
N101 N 0.49228 0.60719 0.51723 0.0
C102 C 0.5472 0.62814 0.50632 0.0
C103 C 0.44701 0.62586 0.53788 0.0
N104 N 0.53853 0.65911 0.51961 0.0
C105 C 0.47521 0.65772 0.53939 0.0
C106 C 0.3326 0.53946 0.49587 0.0
O107 O 0.47178 0.50104 0.5547 0.0
O108 O 0.4812 0.55477 0.56223 0.0
O109 O 0.37413 0.56523 0.50203 0.0
O110 O 0.36549 0.51154 0.49404 0.0
O111 O 0.48676 0.56892 0.45505 0.0
H112 H 0.39752 0.61674 0.55158 0.0
H113 H 0.59423 0.62047 0.49 0.0
O114 O 0.47816 0.51526 0.44686 0.0
O115 O 0.58488 0.50462 0.5076 0.0
O116 O 0.59354 0.55827 0.51524 0.0
C117 C 0.62644 0.53036 0.51361 0.0
H118 H 0.51579 0.39218 0.45613 0.0
H119 H 0.45099 0.67819 0.55408 0.0
C120 C 0.33404 0.72173 0.97344 0.0
C121 C 0.33734 0.69566 1.00048 0.0
C122 C 0.28741 0.74945 0.97766 0.0
C123 C 0.24312 0.75205 0.00935 0.0
C124 C 0.24529 0.72572 0.03599 0.0
C125 C 0.2919 0.69789 0.03169 0.0
C126 C 0.19235 0.78118 0.01494 0.0
C127 C 0.20237 0.81122 0.99901 0.0
C128 C 0.15205 0.84062 1.00396 0.0
C129 C 0.1555 0.86745 0.97836 0.0
C130 C 0.11083 0.89589 0.98212 0.0
C131 C 0.06162 0.89836 0.0118 0.0
H132 H 0.09992 0.82365 0.05498 0.0
C133 C 0.05829 0.87158 0.03756 0.0
C134 C 0.10301 0.84312 0.03381 0.0
H135 H 0.02242 0.87281 0.06127 0.0
H136 H 0.36645 0.72051 0.94844 0.0
H137 H 0.28535 0.76834 0.95549 0.0
H138 H 0.21131 0.7268 0.0605 0.0
H139 H 0.29316 0.67835 0.05312 0.0
H140 H 0.14577 0.77745 0.03324 0.0
H141 H 0.24966 0.81483 0.98109 0.0
H142 H 0.19283 0.8664 0.95515 0.0
H143 H 0.11447 0.91581 0.96152 0.0
C144 C 0.61089 0.38751 0.98862 0.0
C145 C 0.55422 0.38935 0.01489 0.0
C146 C 0.66284 0.36079 0.98971 0.0
C147 C 0.65914 0.33524 0.01719 0.0
C148 C 0.60324 0.33743 0.0437 0.0
C149 C 0.55133 0.36399 0.04251 0.0
C150 C 0.71307 0.30631 0.02009 0.0
C151 C 0.75262 0.2957 0.99099 0.0
C152 C 0.80451 0.26609 0.99377 0.0
C153 C 0.86068 0.26309 0.96748 0.0
C154 C 0.90922 0.23537 0.96817 0.0
C155 C 0.90246 0.20969 0.99503 0.0
H156 H 0.75364 0.241 0.04075 0.0
C157 C 0.84604 0.21258 0.02131 0.0
C158 C 0.79749 0.24035 0.02066 0.0
H159 H 0.83928 0.19337 0.04246 0.0
H160 H 0.61478 0.40661 0.96701 0.0
H161 H 0.70627 0.36068 0.96939 0.0
H162 H 0.59941 0.3184 0.06545 0.0
H163 H 0.50973 0.36484 0.06374 0.0
H164 H 0.71868 0.29294 0.04736 0.0
H165 H 0.74745 0.30913 0.96376 0.0
H166 H 0.86698 0.28227 0.94617 0.0
H167 H 0.95085 0.23384 0.947 0.0
C168 C 0.12486 0.19463 0.50519 0.0
C169 C 0.04391 0.19578 0.50795 0.0
C170 C 0.16786 0.22376 0.50206 0.0
C171 C 0.13088 0.25483 0.50176 0.0
C172 C 0.04976 0.25585 0.50357 0.0
C173 C 0.00688 0.22678 0.5068 0.0
C174 C 0.17391 0.28662 0.4986 0.0
C175 C 0.25157 0.2901 0.50819 0.0
C176 C 0.29493 0.32169 0.50444 0.0
C177 C 0.3755 0.32022 0.50119 0.0
C178 C 0.41878 0.34903 0.49714 0.0
C179 C 0.3828 0.38021 0.49671 0.0
H180 H 0.19756 0.35533 0.50848 0.0
C181 C 0.30253 0.38186 0.50105 0.0
C182 C 0.25896 0.35295 0.50484 0.0
H183 H 0.27304 0.40547 0.50081 0.0
H184 H 0.15543 0.17125 0.50608 0.0
H185 H 0.22972 0.2216 0.49946 0.0
H186 H 0.01937 0.27932 0.50287 0.0
H187 H 0.94448 0.22862 0.50817 0.0
H188 H 0.13948 0.30795 0.48832 0.0
H189 H 0.28609 0.26882 0.5185 0.0
H190 H 0.40508 0.29659 0.5013 0.0
H191 H 0.48071 0.34686 0.49457 0.0
C192 C 0.88654 0.85788 0.47996 0.0
C193 C 0.88732 0.88434 0.50607 0.0
C194 C 0.83864 0.83035 0.48381 0.0
C195 C 0.79063 0.82846 0.51419 0.0
C196 C 0.79157 0.85492 0.54026 0.0
C197 C 0.83935 0.88245 0.53634 0.0
C198 C 0.73678 0.80016 0.5191 0.0
C199 C 0.74298 0.77023 0.50271 0.0
C200 C 0.68854 0.74216 0.50764 0.0
C201 C 0.68361 0.7165 0.48042 0.0
C202 C 0.63419 0.68945 0.48412 0.0
C203 C 0.58871 0.68726 0.51536 0.0
H204 H 0.64739 0.7583 0.56161 0.0
C205 C 0.59412 0.71279 0.54281 0.0
C206 C 0.64356 0.73983 0.53914 0.0
H207 H 0.56145 0.71159 0.56773 0.0
H208 H 0.92141 0.85877 0.45582 0.0
H209 H 0.83835 0.8112 0.46226 0.0
H210 H 0.75515 0.8543 0.56386 0.0
H211 H 0.83894 0.90219 0.55719 0.0
H212 H 0.69021 0.80451 0.53721 0.0
H213 H 0.78912 0.76579 0.4844 0.0
H214 H 0.71781 0.71747 0.45597 0.0
H215 H 0.63115 0.67041 0.46227 0.0
C216 C 0.26191 0.08036 0.01778 0.0
C217 C 0.21789 0.05163 0.02226 0.0
C218 C 0.34269 0.07843 0.01742 0.0
C219 C 0.38069 0.04768 0.02141 0.0
C220 C 0.33727 1.01927 0.02793 0.0
C221 C 0.25642 1.02115 0.02811 0.0
C222 C 0.46531 0.04436 0.01864 0.0
C223 C 0.50404 0.06421 0.99607 0.0
C224 C 0.58867 0.06091 0.99328 0.0
C225 C 0.63197 0.0893 0.98653 0.0
C226 C 0.71281 0.08746 0.98632 0.0
C227 C 0.75148 0.05703 0.99238 0.0
H228 H 0.59464 1.0076 1.00117 0.0
C229 C 0.70759 1.02831 0.9971 0.0
C230 C 0.6268 1.0302 0.99747 0.0
H231 H 0.73572 1.00445 1.00137 0.0
H232 H 0.23388 0.10425 0.01366 0.0
H233 H 0.37498 0.10102 0.01389 0.0
H234 H 0.3656 0.9954 0.03165 0.0
H235 H 0.22405 0.99861 0.03197 0.0
H236 H 0.49559 1.02428 0.03472 0.0
H237 H 0.47372 0.08428 0.97999 0.0
H238 H 0.60354 0.11314 0.98265 0.0
H239 H 0.74508 0.11 0.98226 0.0
C240 C 0.24645 1.01333 0.51741 0.0
C241 C 0.20251 0.04207 0.52137 0.0
C242 C 0.32725 1.01525 0.51713 0.0
C243 C 0.36534 0.04602 0.52068 0.0
C244 C 0.32198 0.07446 0.52666 0.0
C245 C 0.24112 0.07258 0.52676 0.0
C246 C 0.44998 0.04932 0.51799 0.0
C247 C 0.48872 1.0294 0.49578 0.0
C248 C 0.57338 1.03269 0.49309 0.0
C249 C 0.61665 1.00425 0.48701 0.0
C250 C 0.69751 1.00609 0.48691 0.0
C251 C 0.73622 1.03656 0.4924 0.0
H252 H 0.5794 0.08604 0.49992 0.0
C253 C 0.69237 0.06532 0.49646 0.0
C254 C 0.61156 0.06343 0.49674 0.0
H255 H 0.72055 0.0892 0.50029 0.0
H256 H 0.21834 0.98942 0.51366 0.0
H257 H 0.35949 0.99265 0.51403 0.0
H258 H 0.35038 0.09834 0.53002 0.0
H259 H 0.2088 0.09514 0.53022 0.0
H260 H 0.48028 0.06944 0.5338 0.0
H261 H 0.4584 1.00929 0.47997 0.0
H262 H 0.58817 0.98038 0.48357 0.0
H263 H 0.72976 0.98353 0.48336 0.0
C264 C 0.71961 0.52135 0.02335 0.0
C265 C 0.67268 0.54877 0.01232 0.0
C266 C 0.80018 0.52326 0.02289 0.0
C267 C 0.83466 0.55247 0.01057 0.0
C268 C 0.78782 0.58019 1.00094 0.0
C269 C 0.70739 0.5784 1.00182 0.0
C270 C 0.9191 0.55522 0.00767 0.0
C271 C 0.96538 0.52893 1.00428 0.0
C272 C 0.04994 0.53201 1.00135 0.0
C273 C 0.08971 0.50521 0.98711 0.0
C274 C 0.16992 0.50707 0.98464 0.0
C275 C 0.21095 0.53594 0.99606 0.0
H276 H 0.06483 0.58131 0.02635 0.0
C277 C 0.17137 0.56272 0.01024 0.0
C278 C 0.09192 0.56064 0.01345 0.0
H279 H 0.20224 0.58497 0.02014 0.0
H280 H 0.69412 0.4984 0.03219 0.0
H281 H 0.83468 0.50183 0.03228 0.0
H282 H 0.81328 0.6031 0.99192 0.0
H283 H 0.67235 0.59996 0.99331 0.0
H284 H 0.94235 0.58004 0.00606 0.0
H285 H 0.94051 0.50428 1.00196 0.0
H286 H 0.05877 0.48277 0.97802 0.0
H287 H 0.19973 0.486 0.97391 0.0
C288 C 0.20149 0.51279 0.48838 0.0
C289 C 0.24695 0.54161 0.49294 0.0
C290 C 0.12079 0.51436 0.48885 0.0
C291 C 0.08426 0.5448 0.49413 0.0
C292 C 0.12914 0.57378 0.49675 0.0
C293 C 0.21 0.57222 0.49639 0.0
C294 C -0.00035 0.54709 0.49722 0.0
C295 C 0.95942 0.5227 0.51252 0.0
C296 C 0.8748 0.52499 0.51559 0.0
C297 C 0.8299 0.49602 0.5129 0.0
C298 C 0.74903 0.49759 0.51319 0.0
C299 C 0.71208 0.52819 0.51662 0.0
H300 H 0.87165 0.57808 0.52464 0.0
C301 C 0.75756 0.55701 0.52125 0.0
C302 C 0.83827 0.55543 0.52086 0.0
H303 H 0.73078 0.5809 0.52451 0.0
H304 H 0.22826 0.48889 0.48512 0.0
H305 H 0.08742 0.49171 0.48512 0.0
H306 H 0.1019 0.59754 0.50027 0.0
H307 H 0.24357 0.59488 0.49963 0.0
H308 H -0.02937 0.56996 0.48767 0.0
H309 H -0.01157 0.49983 0.52208 0.0
H310 H 0.85714 0.47226 0.50939 0.0
H311 H 0.71543 0.47493 0.50989 0.0
C312 C -0.02421 0.07612 0.37235 0.0
C313 C -0.01869 0.04589 0.39249 0.0
C314 C -0.01981 0.07705 0.33238 0.0
C315 C -0.00981 0.04768 0.31189 0.0
C316 C -0.00307 1.01766 0.33227 0.0
C317 C -0.00783 1.01671 0.37201 0.0
C318 C -0.0049 0.04687 0.26955 0.0
C319 C 0.96641 0.0705 0.24461 0.0
C320 C 0.9684 0.06748 0.20219 0.0
C321 C -0.02876 0.09618 0.17959 0.0
C322 C -0.02602 0.09401 0.13962 0.0
C323 C -0.02689 0.06303 0.12148 0.0
H324 H 0.95998 1.01385 0.19996 0.0
C325 C 0.96822 1.03434 0.14399 0.0
C326 C 0.96552 1.03652 0.18384 0.0
H327 H 0.96629 1.0101 0.13084 0.0
H328 H 0.96805 0.09904 0.38742 0.0
H329 H -0.0231 0.10082 0.31797 0.0
H330 H 0.00516 0.9947 0.31732 0.0
H331 H -0.00283 0.993 0.38664 0.0
H332 H 0.02172 1.02507 0.25845 0.0
H333 H 0.94103 0.09278 0.25515 0.0
H334 H -0.02758 0.12033 0.19295 0.0
H335 H -0.02289 0.1166 0.12302 0.0
C336 C -0.01371 1.01706 0.87309 0.0
C337 C -0.00401 0.04714 0.89302 0.0
C338 C -0.01231 1.01614 0.83293 0.0
C339 C -0.00111 0.04539 0.81205 0.0
C340 C 0.01048 0.07519 0.83223 0.0
C341 C 0.00865 0.07613 0.87216 0.0
C342 C -0.00038 0.04626 0.76943 0.0
C343 C 0.9654 1.02341 0.74521 0.0
C344 C 0.96329 1.02657 0.70258 0.0
C345 C 0.96138 0.99792 0.67997 0.0
C346 C 0.9608 1.00019 0.6398 0.0
C347 C 0.96117 1.03124 0.62148 0.0
H348 H 0.95956 0.08027 0.70038 0.0
C349 C 0.96064 0.0599 0.64403 0.0
C350 C 0.96141 0.05762 0.68411 0.0
H351 H 0.95988 0.08419 0.63076 0.0
H352 H -0.02292 0.99427 0.88845 0.0
H353 H -0.01916 0.9925 0.81863 0.0
H354 H 0.01986 0.09802 0.81696 0.0
H355 H 0.01695 0.09971 0.88663 0.0
H356 H 0.02754 0.06752 0.7575 0.0
H357 H 0.93849 1.00167 0.75652 0.0
H358 H 0.96165 0.97373 0.69346 0.0
H359 H 0.96057 0.97762 0.62318 0.0
C360 C 0.48244 0.52117 0.3661 0.0
C361 C 0.48405 0.54872 0.39054 0.0
C362 C 0.48066 0.52531 0.32617 0.0
C363 C 0.47958 0.55717 0.30969 0.0
C364 C 0.48359 0.5847 0.33419 0.0
C365 C 0.48544 0.58056 0.37424 0.0
C366 C 0.47612 0.56231 0.26722 0.0
C367 C 0.44146 0.54047 0.24181 0.0
C368 C 0.44115 0.54324 0.19924 0.0
C369 C 0.43133 0.51419 0.17749 0.0
C370 C 0.43137 0.51504 0.13746 0.0
C371 C 0.44025 0.54512 0.11804 0.0
H372 H 0.45469 0.59658 0.19556 0.0
C373 C 0.44852 0.57443 0.13959 0.0
C374 C 0.44911 0.57353 0.1799 0.0
H375 H 0.45492 0.598 0.12536 0.0
H376 H 0.48253 0.4963 0.37777 0.0
H377 H 0.48111 0.50342 0.30847 0.0
H378 H 0.484 0.60948 0.32228 0.0
H379 H 0.48728 0.60231 0.39234 0.0
H380 H 0.50251 0.58462 0.25699 0.0
H381 H 0.41403 0.51858 0.25255 0.0
H382 H 0.42452 0.49057 0.19159 0.0
H383 H 0.42427 0.492 0.12175 0.0
C384 C 0.47994 0.55048 0.64266 0.0
C385 C 0.4733 0.52241 0.61893 0.0
C386 C 0.47728 0.54757 0.68244 0.0
C387 C 0.46699 0.5165 0.69949 0.0
C388 C 0.46201 0.48832 0.67595 0.0
C389 C 0.46472 0.49123 0.63597 0.0
C390 C 0.46402 0.51283 0.74183 0.0
C391 C 0.43718 0.53701 0.76343 0.0
C392 C 0.4382 0.53582 0.8062 0.0
C393 C 0.43018 0.56569 0.82572 0.0
C394 C 0.43152 0.56629 0.86587 0.0
C395 C 0.44036 0.53691 0.88753 0.0
H396 H 0.45067 0.48259 0.81399 0.0
C397 C 0.44748 0.50687 0.8681 0.0
C398 C 0.44629 0.50627 0.82781 0.0
H399 H 0.45378 0.48377 0.88398 0.0
H400 H 0.48765 0.57484 0.63057 0.0
H401 H 0.48472 0.56974 0.6997 0.0
H402 H 0.45514 0.46406 0.68846 0.0
H403 H 0.45991 0.46911 0.61847 0.0
H404 H 0.48459 0.48969 0.75503 0.0
H405 H 0.41495 0.55958 0.74929 0.0
H406 H 0.42351 0.58881 0.80986 0.0
H407 H 0.42559 0.58986 0.87989 0.0
loop_
_geom_bond_atom_site_label_1
_geom_bond_atom_site_label_2
_geom_bond_distance
_geom_bond_site_symmetry_2
_ccdc_geom_bond_type
Co0 N5 2.057 1_556 S
Co0 O17 2.021 . S
Co0 O20 2.062 . S
Co0 O24 2.117 1_556 S
Co0 O25 2.020 1_455 S
C1 O21 1.259 1_455 S
C1 O24 1.258 1_545 S
Co2 N11 2.057 1_554 S
Co2 O18 2.117 1_554 S
Co2 O19 2.020 1_655 S
Co2 O21 2.021 . S
Co2 O26 2.062 . S
C3 N5 1.316 1_556 S
C3 N6 1.347 1_556 S
C3 H8 0.931 . S
C4 N5 1.375 . S
C4 C7 1.350 . S
C4 H9 0.930 . S
N5 Co0 2.057 1_554 S
N5 C3 1.316 1_554 S
N5 C4 1.375 . S
N6 C3 1.347 1_554 S
N6 C7 1.373 . S
C7 C4 1.350 . S
C7 N6 1.373 . S
C7 H28 0.931 . S
H8 C3 0.931 . S
H9 C4 0.930 . S
C10 O17 1.259 1_655 S
C10 O18 1.258 1_565 S
N11 Co2 2.057 1_556 S
N11 C12 1.316 1_556 S
N11 C13 1.375 . S
C12 N11 1.316 1_554 S
C12 N14 1.347 1_554 S
C12 H23 0.931 . S
C13 N11 1.375 . S
C13 C15 1.350 . S
C13 H22 0.930 . S
N14 C12 1.347 1_556 S
N14 C15 1.373 . S
C15 C13 1.350 . S
C15 N14 1.373 . S
C15 H29 0.931 . S
C16 O19 1.257 . S
C16 O20 1.254 1_544 S
O17 Co0 2.021 . S
O17 C10 1.259 1_455 S
O18 Co2 2.117 1_556 S
O18 C10 1.258 1_545 S
O19 Co2 2.020 1_455 S
O19 C16 1.257 . S
O20 Co0 2.062 . S
O20 C16 1.254 1_566 S
O21 C1 1.259 1_655 S
O21 Co2 2.021 . S
H22 C13 0.930 . S
H23 C12 0.931 . S
O24 Co0 2.117 1_554 S
O24 C1 1.258 1_565 S
O25 Co0 2.020 1_655 S
O25 C27 1.256 . S
O26 Co2 2.062 . S
O26 C27 1.254 1_544 S
C27 O25 1.256 . S
C27 O26 1.254 1_566 S
H28 C7 0.931 . S
H29 C15 0.931 . S
Co30 N35 2.057 . S
Co30 O47 2.021 . S
Co30 O50 2.062 . S
Co30 O54 2.117 . S
Co30 O55 2.020 1_655 S
C31 O51 1.259 1_655 S
C31 O54 1.258 1_545 S
Co32 N41 2.057 . S
Co32 O48 2.117 . S
Co32 O49 2.020 1_455 S
Co32 O51 2.021 . S
Co32 O56 2.062 . S
C33 N35 1.316 . S
C33 N36 1.347 . S
C33 H38 0.931 . S
C34 N35 1.375 . S
C34 C37 1.350 . S
C34 H39 0.930 . S
N35 Co30 2.057 . S
N35 C33 1.316 . S
N35 C34 1.375 . S
N36 C33 1.347 . S
N36 C37 1.373 . S
C37 C34 1.350 . S
C37 N36 1.373 . S
C37 H58 0.931 . S
H38 C33 0.931 . S
H39 C34 0.930 . S
C40 O47 1.259 1_455 S
C40 O48 1.258 1_565 S
N41 Co32 2.057 . S
N41 C42 1.316 . S
N41 C43 1.375 . S
C42 N41 1.316 . S
C42 N44 1.347 . S
C42 H53 0.931 . S
C43 N41 1.375 . S
C43 C45 1.350 . S
C43 H52 0.930 . S
N44 C42 1.347 . S
N44 C45 1.373 . S
C45 C43 1.350 . S
C45 N44 1.373 . S
C45 H59 0.931 . S
C46 O49 1.256 . S
C46 O50 1.255 1_545 S
O47 Co30 2.021 . S
O47 C40 1.259 1_655 S
O48 Co32 2.117 . S
O48 C40 1.258 1_545 S
O49 Co32 2.020 1_655 S
O49 C46 1.256 . S
O50 Co30 2.062 . S
O50 C46 1.255 1_565 S
O51 C31 1.259 1_455 S
O51 Co32 2.021 . S
H52 C43 0.930 . S
H53 C42 0.931 . S
O54 Co30 2.117 . S
O54 C31 1.258 1_565 S
O55 Co30 2.020 1_455 S
O55 C57 1.256 . S
O56 Co32 2.062 . S
O56 C57 1.255 1_545 S
C57 O55 1.256 . S
C57 O56 1.255 1_565 S
H58 C37 0.931 . S
H59 C45 0.931 . S
Co60 N65 2.057 1_556 S
Co60 O77 2.021 . S
Co60 O80 2.062 . S
Co60 O84 2.117 1_556 S
Co60 O85 2.020 . S
C61 O81 1.259 . S
C61 O84 1.258 . S
Co62 N71 2.057 1_554 S
Co62 O78 2.117 1_554 S
Co62 O79 2.020 . S
Co62 O81 2.021 . S
Co62 O86 2.062 . S
C63 N65 1.316 1_556 S
C63 N66 1.347 1_556 S
C63 H68 0.931 . S
C64 N65 1.375 . S
C64 C67 1.350 . S
C64 H69 0.930 . S
N65 Co60 2.057 1_554 S
N65 C63 1.316 1_554 S
N65 C64 1.375 . S
N66 C63 1.347 1_554 S
N66 C67 1.373 . S
C67 C64 1.350 . S
C67 N66 1.373 . S
C67 H88 0.931 . S
H68 C63 0.931 . S
H69 C64 0.930 . S
C70 O77 1.259 . S
C70 O78 1.258 . S
N71 Co62 2.057 1_556 S
N71 C72 1.316 1_556 S
N71 C73 1.375 . S
C72 N71 1.316 1_554 S
C72 N74 1.347 1_554 S
C72 H83 0.931 . S
C73 N71 1.375 . S
C73 C75 1.350 . S
C73 H82 0.930 . S
N74 C72 1.347 1_556 S
N74 C75 1.373 . S
C75 C73 1.350 . S
C75 N74 1.373 . S
C75 H89 0.931 . S
C76 O79 1.257 . S
C76 O80 1.254 1_554 S
O77 Co60 2.021 . S
O77 C70 1.259 . S
O78 Co62 2.117 1_556 S
O78 C70 1.258 . S
O79 Co62 2.020 . S
O79 C76 1.257 . S
O80 Co60 2.062 . S
O80 C76 1.254 1_556 S
O81 C61 1.259 . S
O81 Co62 2.021 . S
H82 C73 0.930 . S
H83 C72 0.931 . S
O84 Co60 2.117 1_554 S
O84 C61 1.258 . S
O85 Co60 2.020 . S
O85 C87 1.256 . S
O86 Co62 2.062 . S
O86 C87 1.254 1_554 S
C87 O85 1.256 . S
C87 O86 1.254 1_556 S
H88 C67 0.931 . S
H89 C75 0.931 . S
Co90 N95 2.057 . S
Co90 O107 2.021 . S
Co90 O110 2.062 . S
Co90 O114 2.117 . S
Co90 O115 2.020 . S
C91 O111 1.259 . S
C91 O114 1.258 . S
Co92 N101 2.057 . S
Co92 O108 2.117 . S
Co92 O109 2.020 . S
Co92 O111 2.021 . S
Co92 O116 2.062 . S
C93 N95 1.316 . S
C93 N96 1.347 . S
C93 H98 0.931 . S
C94 N95 1.375 . S
C94 C97 1.350 . S
C94 H99 0.930 . S
N95 Co90 2.057 . S
N95 C93 1.316 . S
N95 C94 1.375 . S
N96 C93 1.347 . S
N96 C97 1.373 . S
C97 C94 1.350 . S
C97 N96 1.373 . S
C97 H118 0.931 . S
H98 C93 0.931 . S
H99 C94 0.930 . S
C100 O107 1.259 . S
C100 O108 1.258 . S
N101 Co92 2.057 . S
N101 C102 1.316 . S
N101 C103 1.375 . S
C102 N101 1.316 . S
C102 N104 1.347 . S
C102 H113 0.931 . S
C103 N101 1.375 . S
C103 C105 1.350 . S
C103 H112 0.930 . S
N104 C102 1.347 . S
N104 C105 1.373 . S
C105 C103 1.350 . S
C105 N104 1.373 . S
C105 H119 0.931 . S
C106 O109 1.256 . S
C106 O110 1.255 . S
O107 Co90 2.021 . S
O107 C100 1.259 . S
O108 Co92 2.117 . S
O108 C100 1.258 . S
O109 Co92 2.020 . S
O109 C106 1.256 . S
O110 Co90 2.062 . S
O110 C106 1.255 . S
O111 C91 1.259 . S
O111 Co92 2.021 . S
H112 C103 0.930 . S
H113 C102 0.931 . S
O114 Co90 2.117 . S
O114 C91 1.258 . S
O115 Co90 2.020 . S
O115 C117 1.256 . S
O116 Co92 2.062 . S
O116 C117 1.255 . S
C117 O115 1.256 . S
C117 O116 1.255 . S
H118 C97 0.931 . S
H119 C105 0.931 . S
C120 C121 1.386 1_556 S
C120 C122 1.383 . S
C120 H136 0.951 . S
C121 C120 1.386 1_554 S
C121 C125 1.383 . S
C122 C120 1.383 . S
C122 C123 1.402 1_556 S
C122 H137 0.951 . S
C123 C122 1.402 1_554 S
C123 C124 1.375 . S
C123 C126 1.481 . S
C124 C123 1.375 . S
C124 C125 1.367 . S
C124 H138 0.951 . S
C125 C121 1.383 . S
C125 C124 1.367 . S
C125 H139 0.950 . S
C126 C123 1.481 . S
C126 C127 1.297 . S
C126 H140 0.950 . S
C127 C126 1.297 . S
C127 C128 1.479 . S
C127 H141 0.950 1_554 S
C128 C127 1.479 . S
C128 C129 1.375 1_554 S
C128 C134 1.404 . S
C129 C128 1.375 1_556 S
C129 C130 1.369 . S
C129 H142 0.950 . S
C130 C129 1.369 . S
C130 C131 1.384 1_556 S
C130 H143 0.951 . S
C131 C130 1.384 1_554 S
C131 C133 1.394 . S
H132 C134 0.949 . S
C133 C131 1.394 . S
C133 C134 1.385 . S
C133 H135 0.950 . S
C134 C128 1.404 . S
C134 H132 0.949 . S
C134 C133 1.385 . S
H135 C133 0.950 . S
H136 C120 0.951 . S
H137 C122 0.951 . S
H138 C124 0.951 . S
H139 C125 0.950 . S
H140 C126 0.950 . S
H141 C127 0.950 1_556 S
H142 C129 0.950 . S
H143 C130 0.951 . S
C144 C145 1.407 . S
C144 C146 1.383 . S
C144 H160 0.951 . S
C145 C144 1.407 . S
C145 C149 1.360 1_556 S
C146 C144 1.383 . S
C146 C147 1.402 1_556 S
C146 H161 0.951 . S
C147 C146 1.402 1_554 S
C147 C148 1.375 . S
C147 C150 1.481 . S
C148 C147 1.375 . S
C148 C149 1.367 . S
C148 H162 0.951 . S
C149 C145 1.360 1_554 S
C149 C148 1.367 . S
C149 H163 0.950 . S
C150 C147 1.481 . S
C150 C151 1.297 1_554 S
C150 H164 0.950 . S
C151 C150 1.297 1_556 S
C151 C152 1.479 . S
C151 H165 0.950 . S
C152 C151 1.479 . S
C152 C153 1.375 . S
C152 C158 1.404 1_556 S
C153 C152 1.375 . S
C153 C154 1.369 . S
C153 H166 0.950 . S
C154 C153 1.369 . S
C154 C155 1.385 1_556 S
C154 H167 0.951 . S
C155 C154 1.385 1_554 S
C155 C157 1.390 . S
H156 C158 0.949 . S
C157 C155 1.390 . S
C157 C158 1.385 . S
C157 H159 0.950 . S
C158 C152 1.404 1_554 S
C158 H156 0.949 . S
C158 C157 1.385 . S
H159 C157 0.950 . S
H160 C144 0.951 . S
H161 C146 0.951 . S
H162 C148 0.951 . S
H163 C149 0.950 . S
H164 C150 0.950 . S
H165 C151 0.950 . S
H166 C153 0.950 . S
H167 C154 0.951 . S
C168 C169 1.386 . S
C168 C170 1.383 . S
C168 H184 0.951 . S
C169 C168 1.386 . S
C169 C173 1.383 . S
C170 C168 1.383 . S
C170 C171 1.402 . S
C170 H185 0.951 . S
C171 C170 1.402 . S
C171 C172 1.375 . S
C171 C174 1.481 . S
C172 C171 1.375 . S
C172 C173 1.367 . S
C172 H186 0.951 . S
C173 C169 1.383 . S
C173 C172 1.367 . S
C173 H187 0.950 . S
C174 C171 1.481 . S
C174 C175 1.297 . S
C174 H188 0.950 . S
C175 C174 1.297 . S
C175 C176 1.479 . S
C175 H189 0.950 . S
C176 C175 1.479 . S
C176 C177 1.375 . S
C176 C182 1.404 . S
C177 C176 1.375 . S
C177 C178 1.369 . S
C177 H190 0.950 . S
C178 C177 1.369 . S
C178 C179 1.392 . S
C178 H191 0.951 . S
C179 C178 1.392 . S
C179 C181 1.384 . S
H180 C182 0.949 . S
C181 C179 1.384 . S
C181 C182 1.385 . S
C181 H183 0.950 . S
C182 C176 1.404 . S
C182 H180 0.949 . S
C182 C181 1.385 . S
H183 C181 0.950 . S
H184 C168 0.951 . S
H185 C170 0.951 . S
H186 C172 0.951 . S
H187 C173 0.950 . S
H188 C174 0.950 . S
H189 C175 0.950 . S
H190 C177 0.950 . S
H191 C178 0.951 . S
C192 C193 1.386 . S
C192 C194 1.383 . S
C192 H208 0.951 . S
C193 C192 1.386 . S
C193 C197 1.383 . S
C194 C192 1.383 . S
C194 C195 1.402 . S
C194 H209 0.951 . S
C195 C194 1.402 . S
C195 C196 1.375 . S
C195 C198 1.481 . S
C196 C195 1.375 . S
C196 C197 1.367 . S
C196 H210 0.951 . S
C197 C193 1.383 . S
C197 C196 1.367 . S
C197 H211 0.950 . S
C198 C195 1.481 . S
C198 C199 1.297 . S
C198 H212 0.950 . S
C199 C198 1.297 . S
C199 C200 1.479 . S
C199 H213 0.950 . S
C200 C199 1.479 . S
C200 C201 1.375 . S
C200 C206 1.404 . S
C201 C200 1.375 . S
C201 C202 1.369 . S
C201 H214 0.950 . S
C202 C201 1.369 . S
C202 C203 1.392 . S
C202 H215 0.951 . S
C203 C202 1.392 . S
C203 C205 1.384 . S
H204 C206 0.949 . S
C205 C203 1.384 . S
C205 C206 1.385 . S
C205 H207 0.950 . S
C206 C200 1.404 . S
C206 H204 0.949 . S
C206 C205 1.385 . S
H207 C205 0.950 . S
H208 C192 0.951 . S
H209 C194 0.951 . S
H210 C196 0.951 . S
H211 C197 0.950 . S
H212 C198 0.950 . S
H213 C199 0.950 . S
H214 C201 0.950 . S
H215 C202 0.951 . S
C216 C217 1.386 1_556 S
C216 C218 1.383 . S
C216 H232 0.951 . S
C217 C216 1.386 1_554 S
C217 C221 1.383 1_545 S
C218 C216 1.383 . S
C218 C219 1.402 1_546 S
C218 H233 0.951 . S
C219 C218 1.402 1_564 S
C219 C220 1.375 . S
C219 C222 1.481 . S
C220 C219 1.375 . S
C220 C221 1.367 . S
C220 H234 0.951 . S
C221 C217 1.383 1_565 S
C221 C220 1.367 . S
C221 H235 0.950 . S
C222 C219 1.481 . S
C222 C223 1.297 1_565 S
C222 H236 0.950 . S
C223 C222 1.297 1_545 S
C223 C224 1.479 . S
C223 H237 0.950 . S
C224 C223 1.479 . S
C224 C225 1.375 1_554 S
C224 C230 1.404 1_545 S
C225 C224 1.375 1_556 S
C225 C226 1.369 . S
C225 H238 0.950 . S
C226 C225 1.369 . S
C226 C227 1.392 1_546 S
C226 H239 0.951 . S
C227 C226 1.392 1_564 S
C227 C229 1.384 . S
H228 C230 0.949 . S
C229 C227 1.384 . S
C229 C230 1.385 . S
C229 H231 0.950 . S
C230 C224 1.404 1_565 S
C230 H228 0.949 . S
C230 C229 1.385 . S
H231 C229 0.950 . S
H232 C216 0.951 . S
H233 C218 0.951 . S
H234 C220 0.951 . S
H235 C221 0.950 . S
H236 C222 0.950 . S
H237 C223 0.950 . S
H238 C225 0.950 . S
H239 C226 0.951 . S
C240 C241 1.386 . S
C240 C242 1.383 . S
C240 H256 0.951 . S
C241 C240 1.386 . S
C241 C245 1.383 1_565 S
C242 C240 1.383 . S
C242 C243 1.402 1_565 S
C242 H257 0.951 . S
C243 C242 1.402 1_545 S
C243 C244 1.375 . S
C243 C246 1.481 . S
C244 C243 1.375 . S
C244 C245 1.367 . S
C244 H258 0.951 . S
C245 C241 1.383 1_545 S
C245 C244 1.367 . S
C245 H259 0.950 . S
C246 C243 1.481 . S
C246 C247 1.297 . S
C246 H260 0.950 . S
C247 C246 1.297 . S
C247 C248 1.479 . S
C247 H261 0.950 1_545 S
C248 C247 1.479 . S
C248 C249 1.375 1_545 S
C248 C254 1.404 . S
C249 C248 1.375 1_565 S
C249 C250 1.369 . S
C249 H262 0.950 . S
C250 C249 1.369 . S
C250 C251 1.392 1_565 S
C250 H263 0.951 . S
C251 C250 1.392 1_545 S
C251 C253 1.384 . S
H252 C254 0.949 . S
C253 C251 1.384 . S
C253 C254 1.385 . S
C253 H255 0.950 . S
C254 C248 1.404 . S
C254 H252 0.949 . S
C254 C253 1.385 . S
H255 C253 0.950 . S
H256 C240 0.951 . S
H257 C242 0.951 . S
H258 C244 0.951 . S
H259 C245 0.950 . S
H260 C246 0.950 . S
H261 C247 0.950 1_565 S
H262 C249 0.950 . S
H263 C250 0.951 . S
C264 C265 1.386 1_556 S
C264 C266 1.383 . S
C264 H280 0.951 . S
C265 C264 1.386 1_554 S
C265 C269 1.383 . S
C266 C264 1.383 . S
C266 C267 1.402 1_556 S
C266 H281 0.951 . S
C267 C266 1.402 1_554 S
C267 C268 1.375 . S
C267 C270 1.481 . S
C268 C267 1.375 . S
C268 C269 1.367 . S
C268 H282 0.951 . S
C269 C265 1.383 . S
C269 C268 1.367 . S
C269 H283 0.950 . S
C270 C267 1.481 . S
C270 C271 1.297 1_654 S
C270 H284 0.950 1_655 S
C271 C270 1.297 1_456 S
C271 C272 1.479 . S
C271 H285 0.950 . S
C272 C271 1.479 . S
C272 C273 1.375 . S
C272 C278 1.404 1_556 S
C273 C272 1.375 . S
C273 C274 1.369 . S
C273 H286 0.950 . S
C274 C273 1.369 . S
C274 C275 1.392 . S
C274 H287 0.951 . S
C275 C274 1.392 . S
C275 C277 1.384 1_556 S
H276 C278 0.949 . S
C277 C275 1.384 1_554 S
C277 C278 1.385 . S
C277 H279 0.950 . S
C278 C272 1.404 1_554 S
C278 H276 0.949 . S
C278 C277 1.385 . S
H279 C277 0.950 . S
H280 C264 0.951 . S
H281 C266 0.951 . S
H282 C268 0.951 . S
H283 C269 0.950 . S
H284 C270 0.950 1_455 S
H285 C271 0.950 . S
H286 C273 0.950 . S
H287 C274 0.951 . S
C288 C289 1.386 . S
C288 C290 1.383 . S
C288 H304 0.951 . S
C289 C288 1.386 . S
C289 C293 1.383 . S
C290 C288 1.383 . S
C290 C291 1.402 . S
C290 H305 0.951 . S
C291 C290 1.402 . S
C291 C292 1.375 . S
C291 C294 1.481 . S
C292 C291 1.375 . S
C292 C293 1.367 . S
C292 H306 0.951 . S
C293 C289 1.383 . S
C293 C292 1.367 . S
C293 H307 0.950 . S
C294 C291 1.481 . S
C294 C295 1.297 1_455 S
C294 H308 0.950 . S
C295 C294 1.297 1_655 S
C295 C296 1.479 . S
C295 H309 0.950 1_655 S
C296 C295 1.479 . S
C296 C297 1.375 . S
C296 C302 1.404 . S
C297 C296 1.375 . S
C297 C298 1.369 . S
C297 H310 0.950 . S
C298 C297 1.369 . S
C298 C299 1.392 . S
C298 H311 0.951 . S
C299 C298 1.392 . S
C299 C301 1.384 . S
H300 C302 0.949 . S
C301 C299 1.384 . S
C301 C302 1.385 . S
C301 H303 0.950 . S
C302 C296 1.404 . S
C302 H300 0.949 . S
C302 C301 1.385 . S
H303 C301 0.950 . S
H304 C288 0.951 . S
H305 C290 0.951 . S
H306 C292 0.951 . S
H307 C293 0.950 . S
H308 C294 0.950 . S
H309 C295 0.950 1_455 S
H310 C297 0.950 . S
H311 C298 0.951 . S
C312 C313 1.386 1_445 S
C312 C314 1.383 . S
C312 H328 0.951 . S
C313 C312 1.386 1_665 S
C313 C317 1.383 . S
C314 C312 1.383 . S
C314 C315 1.402 1_445 S
C314 H329 0.951 . S
C315 C314 1.402 1_665 S
C315 C316 1.375 . S
C315 C318 1.481 . S
C316 C315 1.375 . S
C316 C317 1.367 . S
C316 H330 0.951 . S
C317 C313 1.383 . S
C317 C316 1.367 . S
C317 H331 0.950 . S
C318 C315 1.481 . S
C318 C319 1.297 1_655 S
C318 H332 0.950 . S
C319 C318 1.297 1_455 S
C319 C320 1.479 . S
C319 H333 0.950 1_565 S
C320 C319 1.479 . S
C320 C321 1.375 1_565 S
C320 C326 1.404 1_455 S
C321 C320 1.375 1_545 S
C321 C322 1.369 . S
C321 H334 0.950 . S
C322 C321 1.369 . S
C322 C323 1.392 1_545 S
C322 H335 0.951 . S
C323 C322 1.392 1_565 S
C323 C325 1.384 1_455 S
H324 C326 0.949 . S
C325 C323 1.384 1_655 S
C325 C326 1.385 . S
C325 H327 0.950 . S
C326 C320 1.404 1_655 S
C326 H324 0.949 . S
C326 C325 1.385 . S
H327 C325 0.950 . S
H328 C312 0.951 . S
H329 C314 0.951 . S
H330 C316 0.951 . S
H331 C317 0.950 . S
H332 C318 0.950 . S
H333 C319 0.950 1_545 S
H334 C321 0.950 . S
H335 C322 0.951 . S
C336 C337 1.386 1_565 S
C336 C338 1.383 . S
C336 H352 0.951 . S
C337 C336 1.386 1_545 S
C337 C341 1.383 1_655 S
C338 C336 1.383 . S
C338 C339 1.402 1_565 S
C338 H353 0.951 . S
C339 C338 1.402 1_545 S
C339 C340 1.375 1_655 S
C339 C342 1.481 . S
C340 C339 1.375 1_455 S
C340 C341 1.367 . S
C340 H354 0.951 . S
C341 C337 1.383 1_455 S
C341 C340 1.367 . S
C341 H355 0.950 . S
C342 C339 1.481 . S
C342 C343 1.276 1_545 S
C342 H356 0.950 1_655 S
C343 C342 1.276 1_565 S
C343 C344 1.477 1_565 S
C343 H357 0.977 . S
C344 C343 1.477 1_545 S
C344 C345 1.375 1_545 S
C344 C350 1.409 . S
C345 C344 1.375 1_565 S
C345 C346 1.369 . S
C345 H358 0.950 . S
C346 C345 1.369 . S
C346 C347 1.379 1_565 S
C346 H359 0.951 . S
C347 C346 1.379 1_545 S
C347 C349 1.398 1_655 S
H348 C350 0.946 1_455 S
C349 C347 1.398 1_455 S
C349 C350 1.382 1_455 S
C349 H351 0.950 . S
C350 C344 1.409 . S
C350 H348 0.946 1_655 S
C350 C349 1.382 1_655 S
H351 C349 0.950 . S
H352 C336 0.951 . S
H353 C338 0.951 . S
H354 C340 0.951 . S
H355 C341 0.950 . S
H356 C342 0.950 1_455 S
H357 C343 0.977 . S
H358 C345 0.950 . S
H359 C346 0.951 . S
C360 C361 1.386 . S
C360 C362 1.383 . S
C360 H376 0.951 . S
C361 C360 1.386 . S
C361 C365 1.383 . S
C362 C360 1.383 . S
C362 C363 1.402 . S
C362 H377 0.951 . S
C363 C362 1.402 . S
C363 C364 1.375 . S
C363 C366 1.481 . S
C364 C363 1.375 . S
C364 C365 1.367 . S
C364 H378 0.951 . S
C365 C361 1.383 . S
C365 C364 1.367 . S
C365 H379 0.950 . S
C366 C363 1.481 . S
C366 C367 1.297 . S
C366 H380 0.950 . S
C367 C366 1.297 . S
C367 C368 1.479 . S
C367 H381 0.950 . S
C368 C367 1.479 . S
C368 C369 1.375 . S
C368 C374 1.404 . S
C369 C368 1.375 . S
C369 C370 1.369 . S
C369 H382 0.950 . S
C370 C369 1.369 . S
C370 C371 1.392 . S
C370 H383 0.951 . S
C371 C370 1.392 . S
C371 C373 1.384 . S
H372 C374 0.949 . S
C373 C371 1.384 . S
C373 C374 1.385 . S
C373 H375 0.950 . S
C374 C368 1.404 . S
C374 H372 0.949 . S
C374 C373 1.385 . S
H375 C373 0.950 . S
H376 C360 0.951 . S
H377 C362 0.951 . S
H378 C364 0.951 . S
H379 C365 0.950 . S
H380 C366 0.950 . S
H381 C367 0.950 . S
H382 C369 0.950 . S
H383 C370 0.951 . S
C384 C385 1.386 . S
C384 C386 1.383 . S
C384 H400 0.951 . S
C385 C384 1.386 . S
C385 C389 1.383 . S
C386 C384 1.383 . S
C386 C387 1.402 . S
C386 H401 0.951 . S
C387 C386 1.402 . S
C387 C388 1.375 . S
C387 C390 1.481 . S
C388 C387 1.375 . S
C388 C389 1.367 . S
C388 H402 0.951 . S
C389 C385 1.383 . S
C389 C388 1.367 . S
C389 H403 0.950 . S
C390 C387 1.481 . S
C390 C391 1.297 . S
C390 H404 0.950 . S
C391 C390 1.297 . S
C391 C392 1.479 . S
C391 H405 0.950 . S
C392 C391 1.479 . S
C392 C393 1.375 . S
C392 C398 1.404 . S
C393 C392 1.375 . S
C393 C394 1.369 . S
C393 H406 0.950 . S
C394 C393 1.369 . S
C394 C395 1.392 . S
C394 H407 0.951 . S
C395 C394 1.392 . S
C395 C397 1.384 . S
H396 C398 0.949 . S
C397 C395 1.384 . S
C397 C398 1.385 . S
C397 H399 0.950 . S
C398 C392 1.404 . S
C398 H396 0.949 . S
C398 C397 1.385 . S
H399 C397 0.950 . S
H400 C384 0.951 . S
H401 C386 0.951 . S
H402 C388 0.951 . S
H403 C389 0.950 . S
H404 C390 0.950 . S
H405 C391 0.950 . S
H406 C393 0.950 . S
H407 C394 0.951 . S
C121 N74 1.554 1_554 S
C131 N6 1.509 . S
C145 N66 1.520 1_556 S
C155 N14 1.503 1_554 S
C169 N44 1.529 . S
C179 N96 1.497 . S
C193 N36 1.550 . S
C203 N104 1.532 . S
C217 C16 0.852 . S
C227 C27 0.827 1_554 S
C241 C57 0.837 . S
C251 C46 0.872 . S
C265 C76 0.868 . S
C275 C87 0.829 . S
C289 C106 0.865 . S
C299 C117 0.852 . S
C313 C31 1.500 1_565 S
C323 C1 1.487 1_565 S
C337 C10 1.500 1_545 S
C347 C40 1.494 1_645 S
C361 C91 1.488 . S
C371 C61 1.488 . S
C385 C100 1.487 . S
C395 C70 1.477 . S
