# Generated by pormake.
# Topology reo, (8)-cn, num edge types: 1
# Building blocks:
#     Node 0, Type 0, BuildingBlock: VETTIZ_charged_sbu_0, # of connection points: 8
#     Node 1, Type 0, BuildingBlock: VETTIZ_charged_sbu_0, # of connection points: 8
#     Node 2, Type 0, BuildingBlock: VETTIZ_charged_sbu_0, # of connection points: 8
#     Edge 3, Type (0, 0), BuildingBlock: FUNLAD_clean_linker_0, # of connection points: 2
#     Edge 4, Type (0, 0), BuildingBlock: FUNLAD_clean_linker_0, # of connection points: 2
#     Edge 5, Type (0, 0), BuildingBlock: FUNLAD_clean_linker_0, # of connection points: 2
#     Edge 6, Type (0, 0), BuildingBlock: FUNLAD_clean_linker_0, # of connection points: 2
#     Edge 7, Type (0, 0), BuildingBlock: FUNLAD_clean_linker_0, # of connection points: 2
#     Edge 8, Type (0, 0), BuildingBlock: FUNLAD_clean_linker_0, # of connection points: 2
#     Edge 9, Type (0, 0), BuildingBlock: FUNLAD_clean_linker_0, # of connection points: 2
#     Edge 10, Type (0, 0), BuildingBlock: FUNLAD_clean_linker_0, # of connection points: 2
#     Edge 11, Type (0, 0), BuildingBlock: FUNLAD_clean_linker_0, # of connection points: 2
#     Edge 12, Type (0, 0), BuildingBlock: FUNLAD_clean_linker_0, # of connection points: 2
#     Edge 13, Type (0, 0), BuildingBlock: FUNLAD_clean_linker_0, # of connection points: 2
#     Edge 14, Type (0, 0), BuildingBlock: FUNLAD_clean_linker_0, # of connection points: 2
# Relax obj value: 0.145
# Max RMSD: 0.165
# Mean RMSD: 0.165
data_MOF--net-reo--node1-VETTIZ_charged_sbu_0--edge1-FUNLAD_clean_linker_0
_symmetry_space_group_name_H-M    P1
_symmetry_Int_Tables_number       1
_symmetry_cell_setting            triclinic
loop_
_symmetry_equiv_pos_as_xyz
'x, y, z'
_cell_length_a     26.878133
_cell_length_b     27.110847
_cell_length_c     26.731994
_cell_angle_alpha  90.571688
_cell_angle_beta   90.052685
_cell_angle_gamma 89.949908
loop_
_atom_site_label
_atom_site_type_symbol
_atom_site_fract_x
_atom_site_fract_y
_atom_site_fract_z
_atom_type_partial_charge
Fe0 Fe 0.9998 0.00999 0.4442 0.0
O1 O 0.99093 0.04731 0.50839 0.0
Fe2 Fe 0.06702 0.90704 0.48167 0.0
Fe3 Fe 0.9345 0.09221 0.52043 0.0
O4 O 0.01098 0.95268 0.48935 0.0
O5 O 0.01005 0.95129 0.49448 0.0
O6 O 0.98989 0.04592 0.51333 0.0
Fe7 Fe 0.00191 0.98894 0.55868 0.0
C8 C 0.9845 0.12145 0.42381 0.0
O9 O 0.92533 0.99339 0.44144 0.0
O10 O 0.89303 0.06692 0.45962 0.0
O11 O 0.0161 0.92279 0.59704 0.0
O12 O 0.03028 0.86566 0.53388 0.0
O13 O 0.02672 0.88637 0.41912 0.0
O14 O 0.00896 0.96155 0.38282 0.0
O15 O 0.89383 0.04694 0.56629 0.0
O16 O 0.9269 0.97132 0.56225 0.0
C17 C 0.01228 0.91352 0.38198 0.0
O18 O 0.07645 0.00636 0.56011 0.0
O19 O 0.10931 0.93323 0.54141 0.0
O20 O 0.98728 0.07653 0.406 0.0
O21 O 0.97301 0.13353 0.46946 0.0
C22 C 0.89073 0.0251 0.43743 0.0
C23 C 0.89132 0.00064 0.57343 0.0
C24 C 0.98904 0.08525 0.6208 0.0
O25 O 0.97401 0.11227 0.58381 0.0
O26 O 0.99322 0.03734 0.61989 0.0
C27 C 0.0205 0.87768 0.57998 0.0
O28 O 0.10642 0.95201 0.43407 0.0
O29 O 0.07461 0.02747 0.44231 0.0
C30 C 0.11182 0.97531 0.56298 0.0
C31 C 0.10917 -0.00156 0.42795 0.0
Fe32 Fe 0.44347 0.01147 1.00424 0.0
O33 O 0.48753 0.95285 0.01439 0.0
Fe34 Fe 0.51937 0.08869 0.93409 0.0
Fe35 Fe 0.48151 0.90847 0.07146 0.0
O36 O 0.50801 0.04601 0.99224 0.0
O37 O 0.51319 0.04441 0.99126 0.0
O38 O 0.49274 0.95118 0.01322 0.0
Fe39 Fe 0.55736 0.98586 1.00145 0.0
C40 C 0.43306 0.00249 0.11559 0.0
O41 O 0.38169 0.96549 0.01665 0.0
O42 O 0.41663 0.88981 0.03508 0.0
O43 O 0.55653 0.96699 0.92621 0.0
O44 O 0.56429 0.04169 0.89339 0.0
O45 O 0.45795 0.06376 0.89417 0.0
O46 O 0.43714 0.99285 0.9296 0.0
O47 O 0.52984 0.86437 0.03212 0.0
O48 O 0.59383 0.91771 0.01279 0.0
C49 C 0.43486 0.02271 0.89326 0.0
O50 O 0.6191 0.0324 0.98986 0.0
O51 O 0.58306 0.10794 0.97212 0.0
O52 O 0.44461 0.03067 0.0795 0.0
O53 O 0.43823 0.95593 0.11302 0.0
C54 C 0.37936 0.91784 0.02286 0.0
C55 C 0.57499 0.87354 0.01778 0.0
C56 C 0.56527 0.97431 0.11251 0.0
O57 O 0.54312 0.93285 0.11091 0.0
O58 O 0.56385 0.00417 0.07616 0.0
C59 C 0.57039 0.9952 0.89099 0.0
O60 O 0.47044 0.13268 0.97267 0.0
O61 O 0.40673 0.07944 0.99272 0.0
C62 C 0.61992 0.0804 0.9864 0.0
C63 C 0.42538 0.12357 0.98717 0.0
Fe64 Fe 0.05358 0.41662 0.0617 0.0
O65 O 0.02728 0.47929 0.03802 0.0
Fe66 Fe 0.04743 0.50268 0.96701 0.0
Fe67 Fe 0.95511 0.49576 0.03438 0.0
O68 O 0.03102 0.47977 0.03549 0.0
O69 O 0.97524 0.51896 0.96311 0.0
O70 O 0.97144 0.51845 0.96568 0.0
Fe71 Fe 0.94979 0.58205 0.93938 0.0
C72 C 0.95051 0.3853 0.024 0.0
O73 O 0.02668 0.44361 0.12882 0.0
O74 O 0.94744 0.46868 0.10725 0.0
O75 O 0.01746 0.61784 0.94564 0.0
O76 O 0.06355 0.57113 0.99602 0.0
O77 O 0.12165 0.48124 0.98017 0.0
O78 O 0.12085 0.45258 0.0609 0.0
O79 O 0.971 0.5643 0.06388 0.0
O80 O 0.93071 0.61104 0.00871 0.0
C81 C 0.14388 0.46546 0.02042 0.0
O82 O 0.97587 0.55443 0.87223 0.0
O83 O 0.05517 0.52978 0.89413 0.0
O84 O 0.98671 0.38011 0.05435 0.0
O85 O 0.93817 0.42698 0.0061 0.0
C86 C 0.98059 0.45381 0.13938 0.0
C87 C 0.95112 0.60493 0.05122 0.0
C88 C 0.85889 0.53402 0.98131 0.0
O89 O 0.88106 0.51775 0.0214 0.0
O90 O 0.88189 0.54714 0.94087 0.0
C91 C 0.05251 0.61274 0.97732 0.0
O92 O 0.0321 0.43412 0.93742 0.0
O93 O 0.07353 0.38819 0.99241 0.0
C94 C 0.02187 0.54385 0.86177 0.0
C95 C 0.05261 0.39381 0.95008 0.0
C96 C 0.99667 0.43422 0.22835 0.0
C97 C 0.96334 0.43552 0.18796 0.0
C98 C 0.98979 0.40049 0.26674 0.0
C99 C 0.94991 0.36694 0.26467 0.0
C100 C 0.91294 0.37316 0.22816 0.0
C101 C 0.91955 0.40735 0.18996 0.0
C102 C 0.94887 0.32201 0.29585 0.0
C103 C 0.99085 0.30004 0.31189 0.0
C104 C 0.99093 0.25214 0.33765 0.0
C105 C 0.02481 0.24474 0.37673 0.0
C106 C 0.02443 0.20074 0.40325 0.0
C107 C 0.99136 0.16287 0.38988 0.0
H108 H 0.93347 0.21781 0.29202 0.0
C109 C 0.95947 0.1689 0.34889 0.0
C110 C 0.95896 0.2135 0.32307 0.0
H111 H 0.93327 0.14019 0.33853 0.0
H112 H 0.0303 0.45624 0.22802 0.0
H113 H 0.01753 0.3987 0.29603 0.0
H114 H 0.88125 0.34853 0.22647 0.0
H115 H 0.89322 0.4076 0.15925 0.0
H116 H 0.91323 0.30403 0.30165 0.0
H117 H 0.0268 0.31728 0.30623 0.0
H118 H 0.05026 0.27378 0.38801 0.0
H119 H 0.04901 0.19675 0.43512 0.0
C120 C 0.80613 0.04374 0.40145 0.0
C121 C 0.85034 0.01588 0.40045 0.0
C122 C 0.77045 0.03831 0.36343 0.0
C123 C 0.77865 0.00542 0.32318 0.0
C124 C 0.82248 0.97723 0.32258 0.0
C125 C 0.85759 0.98188 0.361 0.0
C126 C 0.74403 0.00187 0.27974 0.0
C127 C 0.6943 0.00715 0.28353 0.0
C128 C 0.66062 0.0011 0.23965 0.0
C129 C 0.61541 0.97589 0.24524 0.0
C130 C 0.58414 0.96775 0.20406 0.0
C131 C 0.59665 0.9861 0.15669 0.0
H132 H 0.70696 0.04075 0.18725 0.0
C133 C 0.64085 0.01329 0.15153 0.0
C134 C 0.67281 0.02026 0.19247 0.0
H135 H 0.65151 0.02783 0.11548 0.0
H136 H 0.7995 0.0704 0.43116 0.0
H137 H 0.73747 0.06124 0.36462 0.0
H138 H 0.82987 0.95179 0.29195 0.0
H139 H 0.89138 0.96015 0.35866 0.0
H140 H 0.75993 0.99177 0.24367 0.0
H141 H 0.67749 0.01215 0.32018 0.0
H142 H 0.60494 0.9612 0.28128 0.0
H143 H 0.55017 0.94694 0.20923 0.0
C144 C 0.97385 0.84237 0.33753 0.0
C145 C 1.00006 0.88702 0.33528 0.0
C146 C 0.96708 0.81353 0.2946 0.0
C147 C 0.98719 0.82844 0.24866 0.0
C148 C 0.01252 0.87365 0.24616 0.0
C149 C 0.01822 0.90321 0.28906 0.0
C150 C 0.98644 0.79478 0.20469 0.0
C151 C 0.94783 0.76471 0.19482 0.0
C152 C 0.95011 0.72556 0.15599 0.0
C153 C 0.90779 0.71503 0.1271 0.0
C154 C 0.90838 0.67623 0.09228 0.0
C155 C 0.95074 0.64625 0.08726 0.0
H156 H 0.02564 0.70274 0.1729 0.0
C157 C 0.99292 0.65635 0.11655 0.0
C158 C 0.99284 0.69605 0.15027 0.0
H159 H 0.02607 0.6338 0.11303 0.0
H160 H 0.9596 0.82915 0.37285 0.0
H161 H 0.94832 0.77839 0.29803 0.0
H162 H 0.0287 0.88561 0.21122 0.0
H163 H 0.03899 0.93733 0.28663 0.0
H164 H 0.0189 0.79405 0.18045 0.0
H165 H 0.91348 0.76867 0.21593 0.0
H166 H 0.8743 0.73695 0.1314 0.0
H167 H 0.87536 0.66892 0.07013 0.0
C168 C 0.36762 0.05477 0.15782 0.0
C169 C 0.40827 0.02226 0.16106 0.0
C170 C 0.33661 0.06304 0.19951 0.0
C171 C 0.34616 0.03923 0.2453 0.0
C172 C 0.3892 0.01002 0.24907 0.0
C173 C 0.41949 0.00124 0.2075 0.0
C174 C 0.31142 0.04018 0.28912 0.0
C175 C 0.26324 0.05456 0.28779 0.0
C176 C 0.22726 0.04403 0.3291 0.0
C177 C 0.18425 0.07322 0.3348 0.0
C178 C 0.14705 0.06044 0.36926 0.0
C179 C 0.15159 0.01749 0.39803 0.0
H180 H 0.26415 0.97778 0.35558 0.0
C181 C 0.19527 0.98921 0.39339 0.0
C182 C 0.23254 0.00223 0.35953 0.0
H183 H 0.19997 0.95579 0.41479 0.0
H184 H 0.35791 0.07116 0.12232 0.0
H185 H 0.30462 0.08678 0.19503 0.0
H186 H 0.39808 0.99153 0.28371 0.0
H187 H 0.45057 0.97602 0.2111 0.0
H188 H 0.32549 0.02432 0.3235 0.0
H189 H 0.24849 0.07223 0.25472 0.0
H190 H 0.17882 0.10533 0.31162 0.0
H191 H 0.11367 0.08279 0.37147 0.0
C192 C 0.00803 0.78881 0.59818 0.0
C193 C 0.01984 0.83646 0.61551 0.0
C194 C 0.01538 0.74796 0.62851 0.0
C195 C 0.03536 0.75379 0.67687 0.0
C196 C 0.04462 0.80176 0.69511 0.0
C197 C 0.0369 0.8428 0.66476 0.0
C198 C 0.04592 0.71121 0.70982 0.0
C199 C 0.04693 0.66372 0.69431 0.0
C200 C 0.05007 0.62348 0.73087 0.0
C201 C 0.01371 0.58647 0.72983 0.0
C202 C 0.00766 0.55575 0.77096 0.0
C203 C 0.03894 0.56083 0.81278 0.0
H204 H 0.11352 0.65291 0.77128 0.0
C205 C 0.07937 0.59351 0.81086 0.0
C206 C 0.0846 0.6251 0.7703 0.0
H207 H 0.10367 0.59844 0.8429 0.0
H208 H 0.9941 0.78291 0.56054 0.0
H209 H 0.0055 0.7122 0.61338 0.0
H210 H 0.05918 0.80746 0.73254 0.0
H211 H 0.04656 0.87909 0.67902 0.0
H212 H 0.052 0.71936 0.74929 0.0
H213 H 0.03987 0.65354 0.65567 0.0
H214 H 0.98704 0.58443 0.69945 0.0
H215 H 0.97613 0.53088 0.77184 0.0
C216 C 0.39493 0.04503 0.81118 0.0
C217 C 0.40136 0.01112 0.85023 0.0
C218 C 0.36095 0.03572 0.77241 0.0
C219 C 0.33238 0.9922 0.77171 0.0
C220 C 0.33989 0.95771 0.80991 0.0
C221 C 0.37366 0.9671 0.8488 0.0
C222 C 0.29509 0.98106 0.73163 0.0
C223 C 0.27177 0.016 0.7045 0.0
C224 C 0.23235 0.00501 0.6665 0.0
C225 C 0.19724 0.0417 0.65518 0.0
C226 C 0.15884 0.03255 0.62086 0.0
C227 C 0.15489 0.98653 0.59637 0.0
H228 H 0.25644 0.93064 0.64734 0.0
C229 C 0.19106 0.95032 0.60642 0.0
C230 C 0.22929 0.9594 0.641 0.0
H231 H 0.18946 0.91451 0.58817 0.0
H232 H 0.41577 0.0792 0.81074 0.0
H233 H 0.35759 0.0626 0.74295 0.0
H234 H 0.31884 0.92364 0.81022 0.0
H235 H 0.37752 0.94003 0.8781 0.0
H236 H 0.28427 0.94274 0.72677 0.0
H237 H 0.27925 0.05461 0.71256 0.0
H238 H 0.19887 0.07737 0.67375 0.0
H239 H 0.13183 0.06142 0.61412 0.0
C240 C 0.01047 0.34143 0.88594 0.0
C241 C 0.05304 0.35232 0.91433 0.0
C242 C 0.01055 0.30158 0.85245 0.0
C243 C 0.05359 0.27266 0.84613 0.0
C244 C 0.09629 0.28394 0.87417 0.0
C245 C 0.09575 0.32293 0.90875 0.0
C246 C 0.05569 0.23341 0.80745 0.0
C247 C 0.01718 0.20304 0.79829 0.0
C248 C 0.01575 0.16976 0.7541 0.0
C249 C 0.9909 0.12431 0.75681 0.0
C250 C 0.98454 0.09506 0.71382 0.0
C251 C 1.00153 0.11179 0.66736 0.0
H252 H 0.05296 0.22062 0.70431 0.0
C253 C 0.0272 0.15673 0.66486 0.0
C254 C 0.03463 0.18527 0.70785 0.0
H255 H 0.0406 0.17033 0.62935 0.0
H256 H 0.97704 0.36348 0.88999 0.0
H257 H 0.97744 0.29432 0.83045 0.0
H258 H 0.13 0.26247 0.86938 0.0
H259 H 0.12904 0.33087 0.93026 0.0
H260 H 0.08966 0.22984 0.78566 0.0
H261 H 0.98518 0.20342 0.82315 0.0
H262 H 0.97564 0.11192 0.79201 0.0
H263 H 0.96424 0.06067 0.71644 0.0
C264 C 0.60313 0.00245 0.80391 0.0
C265 C 0.60067 0.97565 0.8486 0.0
C266 C 0.6386 0.99111 0.76731 0.0
C267 C 0.67288 0.95241 0.77422 0.0
C268 C 0.66904 0.92419 0.81802 0.0
C269 C 0.63305 0.93534 0.85463 0.0
C270 C 0.71603 0.94463 0.73941 0.0
C271 C 0.71582 0.95954 0.69125 0.0
C272 C 0.76074 0.96317 0.65832 0.0
C273 C 0.75797 0.99482 0.61709 0.0
C274 C 0.79992 0.00463 0.58804 0.0
C275 C 0.84582 0.98226 0.59861 0.0
H276 H 0.8098 0.91318 0.69818 0.0
C277 C 0.84827 0.94797 0.63769 0.0
C278 C 0.80618 0.9387 0.66756 0.0
H279 H 0.88327 0.93038 0.64686 0.0
H280 H 0.57897 0.03391 0.79813 0.0
H281 H 0.64068 0.01488 0.73514 0.0
H282 H 0.69506 0.89444 0.82475 0.0
H283 H 0.63264 0.91434 0.8889 0.0
H284 H 0.7496 0.9289 0.7552 0.0
H285 H 0.68137 0.97376 0.6758 0.0
H286 H 0.72363 0.01394 0.60853 0.0
H287 H 0.79679 0.0311 0.55808 0.0
C288 C 0.21979 0.42835 0.05835 0.0
C289 C 0.19585 0.44779 0.016 0.0
C290 C 0.25918 0.39528 0.05282 0.0
C291 C 0.27589 0.38178 0.00491 0.0
C292 C 0.25679 0.40631 0.96312 0.0
C293 C 0.21681 0.43896 0.96853 0.0
C294 C 0.31019 0.33969 0.99752 0.0
C295 C 0.30533 0.29773 0.02384 0.0
C296 C 0.33622 0.25323 0.0145 0.0
C297 C 0.31738 0.20632 0.02612 0.0
C298 C 0.34582 0.16376 0.01716 0.0
C299 C 0.39387 0.16758 0.99693 0.0
H300 H 0.401 0.29245 0.98724 0.0
C301 C 0.41276 0.21481 0.98626 0.0
C302 C 0.38448 0.25697 0.99507 0.0
H303 H 0.44975 0.21962 0.97105 0.0
H304 H 0.20543 0.43526 0.09562 0.0
H305 H 0.27477 0.37832 0.08585 0.0
H306 H 0.27001 0.39718 0.92588 0.0
H307 H 0.19969 0.45359 0.93511 0.0
H308 H 0.33599 0.34138 0.96635 0.0
H309 H 0.27556 0.29479 0.05115 0.0
H310 H 0.28039 0.20255 0.04167 0.0
H311 H 0.33028 0.12811 0.02624 0.0
C312 C 0.07918 0.70028 0.96418 0.0
C313 C 0.08231 0.65642 0.99171 0.0
C314 C 0.10882 0.7409 0.97681 0.0
C315 C 0.14203 0.73842 0.0174 0.0
C316 C 0.14343 0.69536 0.04612 0.0
C317 C 0.11421 0.65469 0.03327 0.0
C318 C 0.17779 0.77832 0.02989 0.0
C319 C 0.19502 0.81116 0.99656 0.0
C320 C 0.24046 0.84079 0.00644 0.0
C321 C 0.24725 0.88645 0.98292 0.0
C322 C 0.29188 0.91264 0.98899 0.0
C323 C 0.33072 0.89289 0.01782 0.0
H324 H 0.27646 0.78573 0.05283 0.0
C325 C 0.32359 0.84736 0.04139 0.0
C326 C 0.27926 0.82161 0.03567 0.0
H327 H 0.35261 0.83103 0.06401 0.0
H328 H 0.05448 0.70301 0.93229 0.0
H329 H 0.10561 0.77387 0.95459 0.0
H330 H 0.16841 0.69254 0.07781 0.0
H331 H 0.1169 0.62179 0.05578 0.0
H332 H 0.19448 0.77719 0.0669 0.0
H333 H 0.17827 0.81409 0.95978 0.0
H334 H 0.21819 0.9016 0.95952 0.0
H335 H 0.29647 0.94751 0.97011 0.0
C336 C 0.71076 0.09795 0.97676 0.0
C337 C 0.66519 0.1073 1.00052 0.0
C338 C 0.75016 0.1315 0.98216 0.0
C339 C 0.7443 0.17443 0.01192 0.0
C340 C 0.69968 0.18135 0.03824 0.0
C341 C 0.66051 0.14834 0.03243 0.0
C342 C 0.78093 0.21537 0.01343 0.0
C343 C 0.82753 0.21334 0.99529 0.0
C344 C 0.86011 0.25735 0.99756 0.0
C345 C 0.91013 0.2521 0.01118 0.0
C346 C 0.93986 0.29377 0.01871 0.0
C347 C 0.92025 0.34138 0.01175 0.0
H348 H 0.80305 0.30978 0.976 0.0
C349 C 0.87106 0.34641 0.99492 0.0
C350 C 0.84119 0.30478 0.98805 0.0
H351 H 0.85508 0.38253 0.98868 0.0
H352 H 0.71475 0.06671 0.95148 0.0
H353 H 0.78375 0.12485 0.96094 0.0
H354 H 0.69413 0.21375 0.06166 0.0
H355 H 0.62557 0.15614 0.05113 0.0
H356 H 0.7685 0.24973 0.03073 0.0
H357 H 0.8432 0.17887 0.98166 0.0
H358 H 0.92565 0.21588 0.01799 0.0
H359 H 0.97801 0.28871 0.03075 0.0
C360 C 0.78275 0.57089 0.94356 0.0
C361 C 0.8068 0.55132 0.98578 0.0
C362 C 0.7429 0.60339 0.94929 0.0
C363 C 0.72588 0.61624 0.99727 0.0
C364 C 0.74521 0.59158 0.03888 0.0
C365 C 0.78562 0.55947 0.03327 0.0
C366 C 0.69106 0.65787 0.00499 0.0
C367 C 0.69536 0.70004 0.97893 0.0
C368 C 0.66429 0.74431 0.98883 0.0
C369 C 0.68277 0.79135 0.97719 0.0
C370 C 0.65427 0.83373 0.9867 0.0
C371 C 0.60649 0.82964 0.00752 0.0
H372 H 0.60005 0.70469 0.01678 0.0
C373 C 0.58792 0.7823 0.01822 0.0
C374 C 0.6163 0.74028 0.00887 0.0
H375 H 0.55115 0.77732 0.0339 0.0
H376 H 0.79728 0.5645 0.90626 0.0
H377 H 0.72718 0.62044 0.91637 0.0
H378 H 0.73178 0.60019 0.07616 0.0
H379 H 0.80282 0.54471 0.06659 0.0
H380 H 0.66543 0.65574 0.03627 0.0
H381 H 0.72496 0.70342 0.95147 0.0
H382 H 0.71954 0.79536 0.96118 0.0
H383 H 0.66955 0.86948 0.97758 0.0
loop_
_geom_bond_atom_site_label_1
_geom_bond_atom_site_label_2
_geom_bond_distance
_geom_bond_site_symmetry_2
_ccdc_geom_bond_type
Fe0 O1 1.906 . S
Fe0 O4 1.694 1_645 S
Fe0 O9 2.098 1_545 S
Fe0 O14 1.922 1_545 S
Fe0 O20 2.094 1_655 S
Fe0 O29 1.917 1_655 S
O1 Fe0 1.906 . S
O1 Fe3 1.715 . S
Fe2 O4 1.886 . S
Fe2 O5 1.715 . S
Fe2 O12 1.935 . S
Fe2 O13 2.077 . S
Fe2 O19 1.935 . S
Fe2 O28 2.077 . S
Fe3 O1 1.715 . S
Fe3 O6 1.886 . S
Fe3 O10 1.935 . S
Fe3 O15 2.077 . S
Fe3 O21 1.935 . S
Fe3 O25 2.077 . S
O4 Fe0 1.694 1_465 S
O4 Fe2 1.886 . S
O5 Fe2 1.715 . S
O5 Fe7 1.892 . S
O6 Fe3 1.886 . S
O6 Fe7 1.708 1_645 S
Fe7 O5 1.892 . S
Fe7 O6 1.708 1_465 S
Fe7 O11 2.089 1_455 S
Fe7 O16 1.937 1_455 S
Fe7 O18 2.077 1_565 S
Fe7 O26 1.923 1_565 S
C8 O20 1.381 1_655 S
C8 O21 1.421 . S
O9 Fe0 2.098 1_565 S
O9 C22 1.381 1_565 S
O10 Fe3 1.935 . S
O10 C22 1.421 . S
O11 Fe7 2.089 1_655 S
O11 C27 1.381 1_655 S
O12 Fe2 1.935 . S
O12 C27 1.421 . S
O13 Fe2 2.077 . S
O13 C17 1.381 . S
O14 Fe0 1.922 1_565 S
O14 C17 1.421 1_655 S
O15 Fe3 2.077 . S
O15 C23 1.381 . S
O16 Fe7 1.937 1_655 S
O16 C23 1.421 1_565 S
C17 O13 1.381 . S
C17 O14 1.421 1_455 S
O18 Fe7 2.077 1_545 S
O18 C30 1.381 1_545 S
O19 Fe2 1.935 . S
O19 C30 1.421 . S
O20 Fe0 2.094 1_455 S
O20 C8 1.381 1_455 S
O21 Fe3 1.935 . S
O21 C8 1.421 . S
C22 O9 1.381 1_545 S
C22 O10 1.421 . S
C23 O15 1.381 . S
C23 O16 1.421 1_545 S
C24 O25 1.381 . S
C24 O26 1.421 1_655 S
O25 Fe3 2.077 . S
O25 C24 1.381 . S
O26 Fe7 1.923 1_545 S
O26 C24 1.421 1_455 S
C27 O11 1.381 1_455 S
C27 O12 1.421 . S
O28 Fe2 2.077 . S
O28 C31 1.381 . S
O29 Fe0 1.917 1_455 S
O29 C31 1.421 1_545 S
C30 O18 1.381 1_565 S
C30 O19 1.421 . S
C31 O28 1.381 . S
C31 O29 1.421 1_565 S
Fe32 O33 1.906 . S
Fe32 O36 1.694 1_564 S
Fe32 O41 2.098 1_554 S
Fe32 O46 1.922 1_554 S
Fe32 O52 2.094 1_565 S
Fe32 O61 1.917 1_565 S
O33 Fe32 1.906 . S
O33 Fe35 1.715 . S
Fe34 O36 1.886 . S
Fe34 O37 1.715 . S
Fe34 O44 1.935 . S
Fe34 O45 2.077 . S
Fe34 O51 1.935 . S
Fe34 O60 2.077 . S
Fe35 O33 1.715 . S
Fe35 O38 1.886 . S
Fe35 O42 1.935 . S
Fe35 O47 2.077 . S
Fe35 O53 1.935 . S
Fe35 O57 2.077 . S
O36 Fe32 1.694 1_546 S
O36 Fe34 1.886 . S
O37 Fe34 1.715 . S
O37 Fe39 1.892 . S
O38 Fe35 1.886 . S
O38 Fe39 1.708 1_564 S
Fe39 O37 1.892 . S
Fe39 O38 1.708 1_546 S
Fe39 O43 2.089 1_545 S
Fe39 O48 1.937 1_545 S
Fe39 O50 2.077 1_556 S
Fe39 O58 1.923 1_556 S
C40 O52 1.381 1_565 S
C40 O53 1.421 . S
O41 Fe32 2.098 1_556 S
O41 C54 1.381 1_556 S
O42 Fe35 1.935 . S
O42 C54 1.421 . S
O43 Fe39 2.089 1_565 S
O43 C59 1.381 1_565 S
O44 Fe34 1.935 . S
O44 C59 1.421 . S
O45 Fe34 2.077 . S
O45 C49 1.381 . S
O46 Fe32 1.922 1_556 S
O46 C49 1.421 1_565 S
O47 Fe35 2.077 . S
O47 C55 1.381 . S
O48 Fe39 1.937 1_565 S
O48 C55 1.421 1_556 S
C49 O45 1.381 . S
C49 O46 1.421 1_545 S
O50 Fe39 2.077 1_554 S
O50 C62 1.381 1_554 S
O51 Fe34 1.935 . S
O51 C62 1.421 . S
O52 Fe32 2.094 1_545 S
O52 C40 1.381 1_545 S
O53 Fe35 1.935 . S
O53 C40 1.421 . S
C54 O41 1.381 1_554 S
C54 O42 1.421 . S
C55 O47 1.381 . S
C55 O48 1.421 1_554 S
C56 O57 1.381 . S
C56 O58 1.421 1_565 S
O57 Fe35 2.077 . S
O57 C56 1.381 . S
O58 Fe39 1.923 1_554 S
O58 C56 1.421 1_545 S
C59 O43 1.381 1_545 S
C59 O44 1.421 . S
O60 Fe34 2.077 . S
O60 C63 1.381 . S
O61 Fe32 1.917 1_545 S
O61 C63 1.421 1_554 S
C62 O50 1.381 1_556 S
C62 O51 1.421 . S
C63 O60 1.381 . S
C63 O61 1.421 1_556 S
Fe64 O65 1.906 . S
Fe64 O68 1.694 1_654 S
Fe64 O73 2.094 1_655 S
Fe64 O78 1.917 1_655 S
Fe64 O84 2.098 1_554 S
Fe64 O93 1.922 1_554 S
O65 Fe64 1.906 . S
O65 Fe67 1.715 . S
Fe66 O68 1.886 . S
Fe66 O69 1.715 . S
Fe66 O76 1.935 . S
Fe66 O77 2.077 . S
Fe66 O83 1.935 . S
Fe66 O92 2.077 . S
Fe67 O65 1.715 . S
Fe67 O70 1.886 . S
Fe67 O74 1.935 . S
Fe67 O79 2.077 . S
Fe67 O85 1.935 . S
Fe67 O89 2.077 . S
O68 Fe64 1.694 1_456 S
O68 Fe66 1.886 . S
O69 Fe66 1.715 . S
O69 Fe71 1.892 . S
O70 Fe67 1.886 . S
O70 Fe71 1.708 1_654 S
Fe71 O69 1.892 . S
Fe71 O70 1.708 1_456 S
Fe71 O75 2.077 1_556 S
Fe71 O80 1.923 1_556 S
Fe71 O82 2.089 1_455 S
Fe71 O90 1.937 1_455 S
C72 O84 1.381 1_554 S
C72 O85 1.421 . S
O73 Fe64 2.094 1_455 S
O73 C86 1.381 1_455 S
O74 Fe67 1.935 . S
O74 C86 1.421 . S
O75 Fe71 2.077 1_554 S
O75 C91 1.381 1_554 S
O76 Fe66 1.935 . S
O76 C91 1.421 . S
O77 Fe66 2.077 . S
O77 C81 1.381 . S
O78 Fe64 1.917 1_455 S
O78 C81 1.421 1_554 S
O79 Fe67 2.077 . S
O79 C87 1.381 . S
O80 Fe71 1.923 1_554 S
O80 C87 1.421 1_455 S
C81 O77 1.381 . S
C81 O78 1.421 1_556 S
O82 Fe71 2.089 1_655 S
O82 C94 1.381 1_655 S
O83 Fe66 1.935 . S
O83 C94 1.421 . S
O84 Fe64 2.098 1_556 S
O84 C72 1.381 1_556 S
O85 Fe67 1.935 . S
O85 C72 1.421 . S
C86 O73 1.381 1_655 S
C86 O74 1.421 . S
C87 O79 1.381 . S
C87 O80 1.421 1_655 S
C88 O89 1.381 . S
C88 O90 1.421 1_554 S
O89 Fe67 2.077 . S
O89 C88 1.381 . S
O90 Fe71 1.937 1_655 S
O90 C88 1.421 1_556 S
C91 O75 1.381 1_556 S
C91 O76 1.421 . S
O92 Fe66 2.077 . S
O92 C95 1.381 . S
O93 Fe64 1.922 1_556 S
O93 C95 1.421 1_655 S
C94 O82 1.381 1_455 S
C94 O83 1.421 . S
C95 O92 1.381 . S
C95 O93 1.421 1_455 S
C96 C97 1.386 1_455 S
C96 C98 1.383 . S
C96 H112 0.951 . S
C97 C96 1.386 1_655 S
C97 C101 1.383 . S
C98 C96 1.383 . S
C98 C99 1.402 1_455 S
C98 H113 0.951 . S
C99 C98 1.402 1_655 S
C99 C100 1.375 . S
C99 C102 1.481 . S
C100 C99 1.375 . S
C100 C101 1.367 . S
C100 H114 0.951 . S
C101 C97 1.383 . S
C101 C100 1.367 . S
C101 H115 0.950 . S
C102 C99 1.481 . S
C102 C103 1.297 1_655 S
C102 H116 0.950 . S
C103 C102 1.297 1_455 S
C103 C104 1.479 1_455 S
C103 H117 0.950 . S
C104 C103 1.479 1_655 S
C104 C105 1.375 1_655 S
C104 C110 1.404 . S
C105 C104 1.375 1_455 S
C105 C106 1.369 . S
C105 H118 0.950 . S
C106 C105 1.369 . S
C106 C107 1.392 1_455 S
C106 H119 0.951 . S
C107 C106 1.392 1_655 S
C107 C109 1.384 . S
H108 C110 0.949 . S
C109 C107 1.384 . S
C109 C110 1.385 . S
C109 H111 0.950 . S
C110 C104 1.404 . S
C110 H108 0.949 . S
C110 C109 1.385 . S
H111 C109 0.950 . S
H112 C96 0.951 . S
H113 C98 0.951 . S
H114 C100 0.951 . S
H115 C101 0.950 . S
H116 C102 0.950 . S
H117 C103 0.950 . S
H118 C105 0.950 . S
H119 C106 0.951 . S
C120 C121 1.386 1_565 S
C120 C122 1.383 1_565 S
C120 H136 0.951 . S
C121 C120 1.386 1_545 S
C121 C125 1.383 . S
C122 C120 1.383 1_545 S
C122 C123 1.402 . S
C122 H137 0.951 1_545 S
C123 C122 1.402 . S
C123 C124 1.375 . S
C123 C126 1.481 . S
C124 C123 1.375 . S
C124 C125 1.367 . S
C124 H138 0.951 . S
C125 C121 1.383 . S
C125 C124 1.367 . S
C125 H139 0.950 . S
C126 C123 1.481 . S
C126 C127 1.297 . S
C126 H140 0.950 . S
C127 C126 1.297 . S
C127 C128 1.479 . S
C127 H141 0.950 . S
C128 C127 1.479 . S
C128 C129 1.375 . S
C128 C134 1.404 . S
C129 C128 1.375 . S
C129 C130 1.369 1_545 S
C129 H142 0.950 1_545 S
C130 C129 1.369 1_565 S
C130 C131 1.392 1_565 S
C130 H143 0.951 . S
C131 C130 1.392 1_545 S
C131 C133 1.384 . S
H132 C134 0.949 . S
C133 C131 1.384 . S
C133 C134 1.385 . S
C133 H135 0.950 . S
C134 C128 1.404 . S
C134 H132 0.949 . S
C134 C133 1.385 . S
H135 C133 0.950 . S
H136 C120 0.951 . S
H137 C122 0.951 1_565 S
H138 C124 0.951 . S
H139 C125 0.950 . S
H140 C126 0.950 . S
H141 C127 0.950 . S
H142 C129 0.950 1_565 S
H143 C130 0.951 . S
C144 C145 1.386 1_655 S
C144 C146 1.383 . S
C144 H160 0.951 . S
C145 C144 1.386 1_455 S
C145 C149 1.383 . S
C146 C144 1.383 . S
C146 C147 1.402 1_655 S
C146 H161 0.951 . S
C147 C146 1.402 1_455 S
C147 C148 1.375 . S
C147 C150 1.481 . S
C148 C147 1.375 . S
C148 C149 1.367 . S
C148 H162 0.951 . S
C149 C145 1.383 . S
C149 C148 1.367 . S
C149 H163 0.950 . S
C150 C147 1.481 . S
C150 C151 1.297 1_455 S
C150 H164 0.950 . S
C151 C150 1.297 1_655 S
C151 C152 1.479 . S
C151 H165 0.950 . S
C152 C151 1.479 . S
C152 C153 1.375 . S
C152 C158 1.404 1_655 S
C153 C152 1.375 . S
C153 C154 1.369 . S
C153 H166 0.950 . S
C154 C153 1.369 . S
C154 C155 1.392 . S
C154 H167 0.951 . S
C155 C154 1.392 . S
C155 C157 1.384 1_655 S
H156 C158 0.949 . S
C157 C155 1.384 1_455 S
C157 C158 1.385 . S
C157 H159 0.950 . S
C158 C152 1.404 1_455 S
C158 H156 0.949 . S
C158 C157 1.385 . S
H159 C157 0.950 . S
H160 C144 0.951 . S
H161 C146 0.951 . S
H162 C148 0.951 . S
H163 C149 0.950 . S
H164 C150 0.950 . S
H165 C151 0.950 . S
H166 C153 0.950 . S
H167 C154 0.951 . S
C168 C169 1.386 1_545 S
C168 C170 1.383 . S
C168 H184 0.951 . S
C169 C168 1.386 1_565 S
C169 C173 1.383 . S
C170 C168 1.383 . S
C170 C171 1.402 1_545 S
C170 H185 0.951 . S
C171 C170 1.402 1_565 S
C171 C172 1.375 . S
C171 C174 1.481 . S
C172 C171 1.375 . S
C172 C173 1.367 . S
C172 H186 0.951 . S
C173 C169 1.383 . S
C173 C172 1.367 . S
C173 H187 0.950 . S
C174 C171 1.481 . S
C174 C175 1.297 1_565 S
C174 H188 0.950 . S
C175 C174 1.297 1_545 S
C175 C176 1.479 . S
C175 H189 0.950 . S
C176 C175 1.479 . S
C176 C177 1.375 . S
C176 C182 1.404 1_545 S
C177 C176 1.375 . S
C177 C178 1.369 . S
C177 H190 0.950 . S
C178 C177 1.369 . S
C178 C179 1.392 . S
C178 H191 0.951 . S
C179 C178 1.392 . S
C179 C181 1.384 1_545 S
H180 C182 0.949 . S
C181 C179 1.384 1_565 S
C181 C182 1.385 . S
C181 H183 0.950 . S
C182 C176 1.404 1_565 S
C182 H180 0.949 . S
C182 C181 1.385 . S
H183 C181 0.950 . S
H184 C168 0.951 . S
H185 C170 0.951 . S
H186 C172 0.951 . S
H187 C173 0.950 . S
H188 C174 0.950 . S
H189 C175 0.950 . S
H190 C177 0.950 . S
H191 C178 0.951 . S
C192 C193 1.386 . S
C192 C194 1.383 . S
C192 H208 0.951 . S
C193 C192 1.386 . S
C193 C197 1.383 1_455 S
C194 C192 1.383 . S
C194 C195 1.402 . S
C194 H209 0.951 . S
C195 C194 1.402 . S
C195 C196 1.375 1_455 S
C195 C198 1.481 . S
C196 C195 1.375 1_655 S
C196 C197 1.367 . S
C196 H210 0.951 . S
C197 C193 1.383 1_655 S
C197 C196 1.367 . S
C197 H211 0.950 . S
C198 C195 1.481 . S
C198 C199 1.297 . S
C198 H212 0.950 1_455 S
C199 C198 1.297 . S
C199 C200 1.479 . S
C199 H213 0.950 . S
C200 C199 1.479 . S
C200 C201 1.375 . S
C200 C206 1.404 . S
C201 C200 1.375 . S
C201 C202 1.369 . S
C201 H214 0.950 . S
C202 C201 1.369 . S
C202 C203 1.392 . S
C202 H215 0.951 . S
C203 C202 1.392 . S
C203 C205 1.383 1_455 S
H204 C206 0.949 . S
C205 C203 1.383 1_655 S
C205 C206 1.384 1_655 S
C205 H207 0.952 . S
C206 C200 1.404 . S
C206 H204 0.949 . S
C206 C205 1.384 1_455 S
H207 C205 0.952 . S
H208 C192 0.951 . S
H209 C194 0.951 . S
H210 C196 0.951 . S
H211 C197 0.950 . S
H212 C198 0.950 1_655 S
H213 C199 0.950 . S
H214 C201 0.950 . S
H215 C202 0.951 . S
C216 C217 1.386 1_545 S
C216 C218 1.383 . S
C216 H232 0.951 . S
C217 C216 1.386 1_565 S
C217 C221 1.383 . S
C218 C216 1.383 . S
C218 C219 1.402 1_545 S
C218 H233 0.951 . S
C219 C218 1.402 1_565 S
C219 C220 1.375 . S
C219 C222 1.481 . S
C220 C219 1.375 . S
C220 C221 1.367 . S
C220 H234 0.951 . S
C221 C217 1.383 . S
C221 C220 1.367 . S
C221 H235 0.950 . S
C222 C219 1.481 . S
C222 C223 1.297 1_565 S
C222 H236 0.950 . S
C223 C222 1.297 1_545 S
C223 C224 1.479 1_545 S
C223 H237 0.950 . S
C224 C223 1.479 1_565 S
C224 C225 1.375 1_565 S
C224 C230 1.404 . S
C225 C224 1.375 1_545 S
C225 C226 1.369 . S
C225 H238 0.950 . S
C226 C225 1.369 . S
C226 C227 1.392 1_545 S
C226 H239 0.951 . S
C227 C226 1.392 1_565 S
C227 C229 1.384 . S
H228 C230 0.949 . S
C229 C227 1.384 . S
C229 C230 1.385 . S
C229 H231 0.950 . S
C230 C224 1.404 . S
C230 H228 0.949 . S
C230 C229 1.385 . S
H231 C229 0.950 . S
H232 C216 0.951 . S
H233 C218 0.951 . S
H234 C220 0.951 . S
H235 C221 0.950 . S
H236 C222 0.950 . S
H237 C223 0.950 . S
H238 C225 0.950 . S
H239 C226 0.951 . S
C240 C241 1.386 1_655 S
C240 C242 1.383 . S
C240 H256 0.951 . S
C241 C240 1.386 1_455 S
C241 C245 1.383 . S
C242 C240 1.383 . S
C242 C243 1.402 1_655 S
C242 H257 0.951 . S
C243 C242 1.402 1_455 S
C243 C244 1.375 . S
C243 C246 1.481 . S
C244 C243 1.375 . S
C244 C245 1.367 . S
C244 H258 0.951 . S
C245 C241 1.383 . S
C245 C244 1.367 . S
C245 H259 0.950 . S
C246 C243 1.481 . S
C246 C247 1.297 1_455 S
C246 H260 0.950 . S
C247 C246 1.297 1_655 S
C247 C248 1.479 . S
C247 H261 0.950 . S
C248 C247 1.479 . S
C248 C249 1.375 . S
C248 C254 1.404 1_655 S
C249 C248 1.375 . S
C249 C250 1.369 . S
C249 H262 0.950 . S
C250 C249 1.369 . S
C250 C251 1.392 . S
C250 H263 0.951 . S
C251 C250 1.392 . S
C251 C253 1.384 1_655 S
H252 C254 0.949 . S
C253 C251 1.384 1_455 S
C253 C254 1.385 . S
C253 H255 0.950 . S
C254 C248 1.404 1_455 S
C254 H252 0.949 . S
C254 C253 1.385 . S
H255 C253 0.950 . S
H256 C240 0.951 . S
H257 C242 0.951 . S
H258 C244 0.951 . S
H259 C245 0.950 . S
H260 C246 0.950 . S
H261 C247 0.950 . S
H262 C249 0.950 . S
H263 C250 0.951 . S
C264 C265 1.386 1_565 S
C264 C266 1.383 1_565 S
C264 H280 0.951 . S
C265 C264 1.386 1_545 S
C265 C269 1.383 . S
C266 C264 1.383 1_545 S
C266 C267 1.402 . S
C266 H281 0.951 1_545 S
C267 C266 1.402 . S
C267 C268 1.375 . S
C267 C270 1.481 . S
C268 C267 1.375 . S
C268 C269 1.367 . S
C268 H282 0.951 . S
C269 C265 1.383 . S
C269 C268 1.367 . S
C269 H283 0.950 . S
C270 C267 1.481 . S
C270 C271 1.297 . S
C270 H284 0.950 . S
C271 C270 1.297 . S
C271 C272 1.479 . S
C271 H285 0.950 . S
C272 C271 1.479 . S
C272 C273 1.375 . S
C272 C278 1.404 . S
C273 C272 1.375 . S
C273 C274 1.369 1_545 S
C273 H286 0.951 1_545 S
C274 C273 1.369 1_565 S
C274 C275 1.392 1_565 S
C274 H287 0.951 . S
C275 C274 1.392 1_545 S
C275 C277 1.384 . S
H276 C278 0.949 . S
C277 C275 1.384 . S
C277 C278 1.385 . S
C277 H279 0.950 . S
C278 C272 1.404 . S
C278 H276 0.949 . S
C278 C277 1.385 . S
H279 C277 0.950 . S
H280 C264 0.951 . S
H281 C266 0.951 1_565 S
H282 C268 0.951 . S
H283 C269 0.950 . S
H284 C270 0.950 . S
H285 C271 0.950 . S
H286 C273 0.951 1_565 S
H287 C274 0.951 . S
C288 C289 1.386 1_554 S
C288 C290 1.383 . S
C288 H304 0.951 . S
C289 C288 1.386 1_556 S
C289 C293 1.383 . S
C290 C288 1.383 . S
C290 C291 1.402 1_554 S
C290 H305 0.951 . S
C291 C290 1.402 1_556 S
C291 C292 1.375 . S
C291 C294 1.481 . S
C292 C291 1.375 . S
C292 C293 1.367 . S
C292 H306 0.951 . S
C293 C289 1.383 . S
C293 C292 1.367 . S
C293 H307 0.950 . S
C294 C291 1.481 . S
C294 C295 1.297 1_556 S
C294 H308 0.950 . S
C295 C294 1.297 1_554 S
C295 C296 1.479 1_554 S
C295 H309 0.950 . S
C296 C295 1.479 1_556 S
C296 C297 1.375 1_556 S
C296 C302 1.404 . S
C297 C296 1.375 1_554 S
C297 C298 1.369 . S
C297 H310 0.950 . S
C298 C297 1.369 . S
C298 C299 1.392 1_554 S
C298 H311 0.951 . S
C299 C298 1.392 1_556 S
C299 C301 1.384 . S
H300 C302 0.949 . S
C301 C299 1.384 . S
C301 C302 1.385 . S
C301 H303 0.950 . S
C302 C296 1.404 . S
C302 H300 0.949 . S
C302 C301 1.385 . S
H303 C301 0.950 . S
H304 C288 0.951 . S
H305 C290 0.951 . S
H306 C292 0.951 . S
H307 C293 0.950 . S
H308 C294 0.950 . S
H309 C295 0.950 . S
H310 C297 0.950 . S
H311 C298 0.951 . S
C312 C313 1.386 1_554 S
C312 C314 1.383 . S
C312 H328 0.951 . S
C313 C312 1.386 1_556 S
C313 C317 1.383 . S
C314 C312 1.383 . S
C314 C315 1.402 1_554 S
C314 H329 0.951 . S
C315 C314 1.402 1_556 S
C315 C316 1.375 . S
C315 C318 1.481 . S
C316 C315 1.375 . S
C316 C317 1.367 . S
C316 H330 0.951 . S
C317 C313 1.383 . S
C317 C316 1.367 . S
C317 H331 0.950 . S
C318 C315 1.481 . S
C318 C319 1.297 1_556 S
C318 H332 0.950 . S
C319 C318 1.297 1_554 S
C319 C320 1.479 . S
C319 H333 0.950 . S
C320 C319 1.479 . S
C320 C321 1.375 . S
C320 C326 1.404 1_554 S
C321 C320 1.375 . S
C321 C322 1.369 . S
C321 H334 0.950 . S
C322 C321 1.369 . S
C322 C323 1.392 . S
C322 H335 0.951 . S
C323 C322 1.392 . S
C323 C325 1.384 1_554 S
H324 C326 0.949 . S
C325 C323 1.384 1_556 S
C325 C326 1.385 . S
C325 H327 0.950 . S
C326 C320 1.404 1_556 S
C326 H324 0.949 . S
C326 C325 1.385 . S
H327 C325 0.950 . S
H328 C312 0.951 . S
H329 C314 0.951 . S
H330 C316 0.951 . S
H331 C317 0.950 . S
H332 C318 0.950 . S
H333 C319 0.950 . S
H334 C321 0.950 . S
H335 C322 0.951 . S
C336 C337 1.386 . S
C336 C338 1.383 . S
C336 H352 0.951 . S
C337 C336 1.386 . S
C337 C341 1.383 1_556 S
C338 C336 1.383 . S
C338 C339 1.402 . S
C338 H353 0.951 . S
C339 C338 1.402 . S
C339 C340 1.375 1_556 S
C339 C342 1.481 1_556 S
C340 C339 1.375 1_554 S
C340 C341 1.367 . S
C340 H354 0.951 . S
C341 C337 1.383 1_554 S
C341 C340 1.367 . S
C341 H355 0.950 . S
C342 C339 1.481 1_554 S
C342 C343 1.292 1_554 S
C342 H356 0.956 . S
C343 C342 1.292 1_556 S
C343 C344 1.479 . S
C343 H357 0.950 . S
C344 C343 1.479 . S
C344 C345 1.375 . S
C344 C350 1.404 1_556 S
C345 C344 1.375 . S
C345 C346 1.369 . S
C345 H358 0.950 . S
C346 C345 1.369 . S
C346 C347 1.392 . S
C346 H359 0.951 . S
C347 C346 1.392 . S
C347 C349 1.384 1_556 S
H348 C350 0.949 . S
C349 C347 1.384 1_554 S
C349 C350 1.385 . S
C349 H351 0.950 . S
C350 C344 1.404 1_554 S
C350 H348 0.949 . S
C350 C349 1.385 . S
H351 C349 0.950 . S
H352 C336 0.951 . S
H353 C338 0.951 . S
H354 C340 0.951 . S
H355 C341 0.950 . S
H356 C342 0.956 . S
H357 C343 0.950 . S
H358 C345 0.950 . S
H359 C346 0.951 . S
C360 C361 1.386 1_556 S
C360 C362 1.383 . S
C360 H376 0.951 . S
C361 C360 1.386 1_554 S
C361 C365 1.383 . S
C362 C360 1.383 . S
C362 C363 1.402 1_556 S
C362 H377 0.951 . S
C363 C362 1.402 1_554 S
C363 C364 1.375 . S
C363 C366 1.481 . S
C364 C363 1.375 . S
C364 C365 1.367 . S
C364 H378 0.951 . S
C365 C361 1.383 . S
C365 C364 1.367 . S
C365 H379 0.950 . S
C366 C363 1.481 . S
C366 C367 1.297 1_554 S
C366 H380 0.950 . S
C367 C366 1.297 1_556 S
C367 C368 1.479 . S
C367 H381 0.950 . S
C368 C367 1.479 . S
C368 C369 1.375 . S
C368 C374 1.404 1_556 S
C369 C368 1.375 . S
C369 C370 1.369 . S
C369 H382 0.950 . S
C370 C369 1.369 . S
C370 C371 1.392 . S
C370 H383 0.951 . S
C371 C370 1.392 . S
C371 C373 1.384 1_556 S
H372 C374 0.949 . S
C373 C371 1.384 1_554 S
C373 C374 1.385 . S
C373 H375 0.950 . S
C374 C368 1.404 1_554 S
C374 H372 0.949 . S
C374 C373 1.385 . S
H375 C373 0.950 . S
H376 C360 0.951 . S
H377 C362 0.951 . S
H378 C364 0.951 . S
H379 C365 0.950 . S
H380 C366 0.950 . S
H381 C367 0.950 . S
H382 C369 0.950 . S
H383 C370 0.951 . S
C97 C86 1.103 . S
C107 C8 1.143 . S
C121 C22 1.039 . S
C131 C56 1.133 1_545 S
C145 C17 1.029 . S
C155 C87 0.997 . S
C169 C40 1.091 . S
C179 C31 1.079 1_545 S
C193 C27 1.097 . S
C203 C94 1.060 . S
C217 C49 1.111 1_565 S
C227 C30 1.098 . S
C241 C95 1.078 . S
C251 C24 1.121 . S
C265 C59 1.087 . S
C275 C23 1.095 . S
C289 C81 1.083 . S
C299 C63 1.043 . S
C313 C91 1.098 . S
C323 C54 1.064 . S
C337 C62 1.102 . S
C347 C72 1.148 1_556 S
C361 C88 1.149 . S
C371 C55 1.190 1_556 S
