# Generated by pormake.
# Topology yfc, (5)-cn, num edge types: 1
# Building blocks:
#     Node 0, Type 0, BuildingBlock: XOMCOT_clean_sbu_0, # of connection points: 5
#     Node 1, Type 0, BuildingBlock: XOMCOT_clean_sbu_0, # of connection points: 5
#     Node 2, Type 0, BuildingBlock: XOMCOT_clean_sbu_0, # of connection points: 5
#     Node 3, Type 0, BuildingBlock: XOMCOT_clean_sbu_0, # of connection points: 5
#     Node 4, Type 0, BuildingBlock: XOMCOT_clean_sbu_0, # of connection points: 5
#     Node 5, Type 0, BuildingBlock: XOMCOT_clean_sbu_0, # of connection points: 5
#     Node 6, Type 0, BuildingBlock: XOMCOT_clean_sbu_0, # of connection points: 5
#     Node 7, Type 0, BuildingBlock: XOMCOT_clean_sbu_0, # of connection points: 5
#     Node 8, Type 0, BuildingBlock: XOMCOT_clean_sbu_0, # of connection points: 5
#     Node 9, Type 0, BuildingBlock: XOMCOT_clean_sbu_0, # of connection points: 5
#     Node 10, Type 0, BuildingBlock: XOMCOT_clean_sbu_0, # of connection points: 5
#     Node 11, Type 0, BuildingBlock: XOMCOT_clean_sbu_0, # of connection points: 5
#     Node 12, Type 0, BuildingBlock: XOMCOT_clean_sbu_0, # of connection points: 5
#     Node 13, Type 0, BuildingBlock: XOMCOT_clean_sbu_0, # of connection points: 5
#     Node 14, Type 0, BuildingBlock: XOMCOT_clean_sbu_0, # of connection points: 5
#     Node 15, Type 0, BuildingBlock: XOMCOT_clean_sbu_0, # of connection points: 5
#     Edge 16, Type (0, 0), None
#     Edge 17, Type (0, 0), None
#     Edge 18, Type (0, 0), None
#     Edge 19, Type (0, 0), None
#     Edge 20, Type (0, 0), None
#     Edge 21, Type (0, 0), None
#     Edge 22, Type (0, 0), None
#     Edge 23, Type (0, 0), None
#     Edge 24, Type (0, 0), None
#     Edge 25, Type (0, 0), None
#     Edge 26, Type (0, 0), None
#     Edge 27, Type (0, 0), None
#     Edge 28, Type (0, 0), None
#     Edge 29, Type (0, 0), None
#     Edge 30, Type (0, 0), None
#     Edge 31, Type (0, 0), None
#     Edge 32, Type (0, 0), None
#     Edge 33, Type (0, 0), None
#     Edge 34, Type (0, 0), None
#     Edge 35, Type (0, 0), None
#     Edge 36, Type (0, 0), None
#     Edge 37, Type (0, 0), None
#     Edge 38, Type (0, 0), None
#     Edge 39, Type (0, 0), None
#     Edge 40, Type (0, 0), None
#     Edge 41, Type (0, 0), None
#     Edge 42, Type (0, 0), None
#     Edge 43, Type (0, 0), None
#     Edge 44, Type (0, 0), None
#     Edge 45, Type (0, 0), None
#     Edge 46, Type (0, 0), None
#     Edge 47, Type (0, 0), None
#     Edge 48, Type (0, 0), None
#     Edge 49, Type (0, 0), None
#     Edge 50, Type (0, 0), None
#     Edge 51, Type (0, 0), None
#     Edge 52, Type (0, 0), None
#     Edge 53, Type (0, 0), None
#     Edge 54, Type (0, 0), None
#     Edge 55, Type (0, 0), None
# Relax obj value: 0.571
# Max RMSD: 0.290
# Mean RMSD: 0.278
data_MOF--net-yfc--node1-XOMCOT_clean_sbu_0--edge1-none
_symmetry_space_group_name_H-M    P1
_symmetry_Int_Tables_number       1
_symmetry_cell_setting            triclinic
loop_
_symmetry_equiv_pos_as_xyz
'x, y, z'
_cell_length_a     21.699473
_cell_length_b     21.699465
_cell_length_c     23.224057
_cell_angle_alpha  89.999574
_cell_angle_beta   90.000435
_cell_angle_gamma 89.999993
loop_
_atom_site_label
_atom_site_type_symbol
_atom_site_fract_x
_atom_site_fract_y
_atom_site_fract_z
_atom_type_partial_charge
Co0 Co 0.7344 0.06614 0.26375 0.0
C1 C 0.76113 0.17898 0.19343 0.0
C2 C 0.69277 0.18976 0.25792 0.0
C3 C 0.69478 0.24235 0.22657 0.0
N4 N 0.73208 0.14916 0.23645 0.0
N5 N 0.74206 0.23865 0.18921 0.0
H6 H 0.80131 0.16066 0.17173 0.0
H7 H 0.66813 0.18258 0.2967 0.0
C8 C 0.58157 0.07866 0.26843 0.0
O9 O 0.54212 0.04251 0.24225 0.0
N10 N 0.73144 0.97987 0.28953 0.0
C11 C 0.77537 0.93639 0.28217 0.0
C12 C 0.74794 0.87869 0.28047 0.0
C13 C 0.67824 0.94682 0.29449 0.0
N14 N 0.68695 0.8856 0.28818 0.0
C15 C 0.79085 0.01417 0.16462 0.0
C16 C 0.69977 0.04491 0.0869 0.0
C17 C 0.75638 0.02257 0.06625 0.0
C18 C 0.80148 1.00553 0.10607 0.0
C19 C 0.6909 0.05281 0.14607 0.0
N20 N 0.73664 0.03839 0.18419 0.0
H21 H 0.82822 1.00482 0.19377 0.0
H22 H 0.64904 0.07479 0.16033 0.0
H23 H 0.82328 0.94578 0.27317 0.0
H24 H 0.63313 0.96668 0.2993 0.0
O25 O 0.8239 0.07403 0.27605 0.0
O26 O 0.75703 0.09759 0.34221 0.0
O27 O 0.63952 0.06653 0.26281 0.0
C28 C 0.81508 0.09689 0.32675 0.0
H29 H 0.67269 0.28475 0.23922 0.0
H30 H 0.76992 0.83611 0.26874 0.0
H31 H 0.66403 0.0599 0.05751 0.0
H32 H 0.84571 0.9879 0.09205 0.0
Co33 Co 0.46019 0.73438 0.76375 0.0
C34 C 0.34735 0.76109 0.69342 0.0
C35 C 0.33657 0.69273 0.75791 0.0
C36 C 0.28398 0.69474 0.72656 0.0
N37 N 0.37717 0.73204 0.73644 0.0
N38 N 0.28767 0.74203 0.6892 0.0
H39 H 0.36566 0.80128 0.67172 0.0
H40 H 0.34375 0.66809 0.79669 0.0
C41 C 0.44767 0.58155 0.76843 0.0
O42 O 0.4838 0.54208 0.74224 0.0
N43 N 0.54645 0.73143 0.78953 0.0
C44 C 0.58993 0.77535 0.78216 0.0
C45 C 0.64763 0.74792 0.78046 0.0
C46 C 0.5795 0.67823 0.79451 0.0
N47 N 0.64073 0.68694 0.7882 0.0
C48 C 0.51215 0.79085 0.66462 0.0
C49 C 0.48144 0.69976 0.5869 0.0
C50 C 0.50377 0.75637 0.56625 0.0
C51 C 0.52079 0.80149 0.60608 0.0
C52 C 0.47353 0.69089 0.64607 0.0
N53 N 0.48794 0.73663 0.68419 0.0
H54 H 0.52148 0.82822 0.69378 0.0
H55 H 0.45157 0.64902 0.66032 0.0
H56 H 0.58054 0.82326 0.77314 0.0
H57 H 0.55964 0.63312 0.79934 0.0
O58 O 0.45227 0.82387 0.77606 0.0
O59 O 0.42873 0.75699 0.84221 0.0
O60 O 0.45982 0.63949 0.7628 0.0
C61 C 0.42941 0.81504 0.82675 0.0
H62 H 0.24159 0.67265 0.73921 0.0
H63 H 0.69021 0.7699 0.76872 0.0
H64 H 0.46646 0.66402 0.55751 0.0
H65 H 0.53842 0.84572 0.59206 0.0
Co66 Co 0.79194 0.46021 0.26376 0.0
C67 C 0.76518 0.34737 0.19345 0.0
C68 C 0.83357 0.33657 0.25794 0.0
C69 C 0.83153 0.28394 0.22663 0.0
N70 N 0.79427 0.3772 0.23645 0.0
N71 N 0.78425 0.28771 0.18929 0.0
H72 H 0.72499 0.36568 0.17175 0.0
H73 H 0.8582 0.34377 0.29672 0.0
C74 C 0.94477 0.44768 0.26843 0.0
O75 O 0.98424 0.48382 0.24225 0.0
N76 N 0.79488 0.54647 0.28954 0.0
C77 C 0.75097 0.58995 0.28216 0.0
C78 C 0.7784 0.64765 0.28047 0.0
C79 C 0.84808 0.57952 0.29453 0.0
N80 N 0.83938 0.64074 0.28821 0.0
C81 C 0.73546 0.51217 0.16462 0.0
C82 C 0.82655 0.48145 0.0869 0.0
C83 C 0.76994 0.50377 0.06625 0.0
C84 C 0.72482 0.5208 0.10608 0.0
C85 C 0.83542 0.47355 0.14608 0.0
N86 N 0.78968 0.48796 0.18419 0.0
H87 H 0.69809 0.52149 0.19378 0.0
H88 H 0.87729 0.45159 0.16033 0.0
H89 H 0.70305 0.58056 0.27314 0.0
H90 H 0.89319 0.55966 0.29937 0.0
O91 O 0.70244 0.45229 0.27606 0.0
O92 O 0.76933 0.42874 0.34222 0.0
O93 O 0.88682 0.45984 0.2628 0.0
C94 C 0.71127 0.42942 0.32676 0.0
H95 H 0.85357 0.24153 0.2393 0.0
H96 H 0.75642 0.69023 0.26872 0.0
H97 H 0.86229 0.46647 0.05751 0.0
H98 H 0.68059 0.53842 0.09206 0.0
Co99 Co 0.06612 0.79191 0.76376 0.0
C100 C 0.17895 0.76514 0.69345 0.0
C101 C 0.18976 0.83353 0.75795 0.0
C102 C 0.24239 0.83149 0.72664 0.0
N103 N 0.14913 0.79423 0.73646 0.0
N104 N 0.23862 0.78421 0.6893 0.0
H105 H 0.16065 0.72495 0.67176 0.0
H106 H 0.18256 0.85817 0.79672 0.0
C107 C 0.07865 0.94474 0.76844 0.0
O108 O 0.0425 0.9842 0.74226 0.0
N109 N 0.97986 0.79487 0.78953 0.0
C110 C 0.93637 0.75095 0.78217 0.0
C111 C 0.87867 0.77839 0.78048 0.0
C112 C 0.94681 0.84807 0.79451 0.0
N113 N 0.88558 0.83937 0.7882 0.0
C114 C 0.01415 0.73546 0.66462 0.0
C115 C 0.0449 0.82654 0.5869 0.0
C116 C 0.02257 0.76993 0.56625 0.0
C117 C 1.00552 0.72482 0.60608 0.0
C118 C 0.05279 0.83541 0.64608 0.0
N119 N 0.03837 0.78967 0.68419 0.0
H120 H 1.0048 0.69809 0.69378 0.0
H121 H 0.07477 0.87727 0.66033 0.0
H122 H 0.94576 0.70304 0.77317 0.0
H123 H 0.96667 0.89319 0.79932 0.0
O124 O 0.07402 0.70241 0.77606 0.0
O125 O 0.09757 0.76928 0.84222 0.0
O126 O 0.06651 0.8868 0.76282 0.0
C127 C 0.09688 0.71123 0.82675 0.0
H128 H 0.2848 0.85353 0.73931 0.0
H129 H 0.83609 0.7564 0.76874 0.0
H130 H 0.05989 0.86228 0.55752 0.0
H131 H 0.9879 0.68059 0.59205 0.0
Co132 Co 0.73424 0.46017 0.80623 0.0
C133 C 0.76107 0.34735 0.87653 0.0
C134 C 0.6927 0.33653 0.81204 0.0
C135 C 0.69473 0.28395 0.84341 0.0
N136 N 0.73201 0.37715 0.8335 0.0
N137 N 0.74202 0.28767 0.88076 0.0
H138 H 0.80123 0.36569 0.89824 0.0
H139 H 0.66802 0.34372 0.77329 0.0
C140 C 0.5814 0.44753 0.8015 0.0
O141 O 0.54199 0.48371 0.82771 0.0
N142 N 0.73117 0.54644 0.78049 0.0
C143 C 0.77521 0.58988 0.78745 0.0
C144 C 0.74786 0.64763 0.7892 0.0
C145 C 0.67797 0.57954 0.77586 0.0
N146 N 0.6868 0.64076 0.78199 0.0
C147 C 0.79046 0.51241 0.90534 0.0
C148 C 0.69955 0.48116 0.98307 0.0
C149 C 0.75606 0.50375 1.00371 0.0
C150 C 0.80108 0.52105 0.96389 0.0
C151 C 0.69071 0.47326 0.92389 0.0
N152 N 0.73637 0.48792 0.88578 0.0
H153 H 0.82775 0.52199 0.87616 0.0
H154 H 0.64895 0.4511 0.90962 0.0
H155 H 0.82318 0.58044 0.79614 0.0
H156 H 0.63279 0.55974 0.77141 0.0
O157 O 0.82376 0.4524 0.79399 0.0
O158 O 0.75697 0.42878 0.72778 0.0
O159 O 0.63936 0.45961 0.80708 0.0
C160 C 0.81501 0.42954 0.74328 0.0
H161 H 0.67265 0.24155 0.83076 0.0
H162 H 0.77 0.69023 0.80059 0.0
H163 H 0.66389 0.46598 1.01245 0.0
H164 H 0.84522 0.53889 0.97791 0.0
Co165 Co 0.06615 0.73427 0.30623 0.0
C166 C 0.17898 0.7611 0.37652 0.0
C167 C 0.1898 0.69274 0.31203 0.0
C168 C 0.24238 0.69477 0.3434 0.0
N169 N 0.14918 0.73205 0.33349 0.0
N170 N 0.23866 0.74206 0.38076 0.0
H171 H 0.16064 0.80127 0.39823 0.0
H172 H 0.18262 0.66805 0.27329 0.0
C173 C 0.07881 0.58142 0.3015 0.0
O174 O 0.0426 0.54203 0.3277 0.0
N175 N 0.97988 0.73118 0.2805 0.0
C176 C 0.93644 0.77522 0.28744 0.0
C177 C 0.8787 0.74787 0.28919 0.0
C178 C 0.94679 0.67798 0.27588 0.0
N179 N 0.88556 0.68681 0.282 0.0
C180 C 0.0139 0.79046 0.40534 0.0
C181 C 0.04519 0.69956 0.48306 0.0
C182 C 0.02259 0.75606 0.50371 0.0
C183 C 1.00527 0.80107 0.46389 0.0
C184 C 0.05309 0.69072 0.42389 0.0
N185 N 0.03842 0.73637 0.38578 0.0
H186 H 1.00431 0.82775 0.37616 0.0
H187 H 0.07526 0.64896 0.40962 0.0
H188 H 0.94588 0.8232 0.29611 0.0
H189 H 0.96659 0.63279 0.27146 0.0
O190 O 0.0739 0.82379 0.294 0.0
O191 O 0.09754 0.75701 0.22778 0.0
O192 O 0.06675 0.63939 0.30706 0.0
C193 C 0.09677 0.81505 0.24329 0.0
H194 H 0.28478 0.67269 0.33076 0.0
H195 H 0.8361 0.77002 0.30057 0.0
H196 H 0.06038 0.6639 0.51245 0.0
H197 H 0.98743 0.84521 0.47792 0.0
Co198 Co 0.79205 0.06613 0.80622 0.0
C199 C 0.76517 0.17896 0.8765 0.0
C200 C 0.83356 0.1898 0.81201 0.0
C201 C 0.8315 0.24242 0.84332 0.0
N202 N 0.79426 0.14915 0.83349 0.0
N203 N 0.78422 0.23862 0.88066 0.0
H204 H 0.725 0.16062 0.8982 0.0
H205 H 0.85824 0.1826 0.77326 0.0
C206 C 0.94489 0.07879 0.80149 0.0
O207 O 0.98429 0.04259 0.82769 0.0
N208 N 0.79513 0.97986 0.78049 0.0
C209 C 0.7511 0.93642 0.78744 0.0
C210 C 0.77845 0.87868 0.78918 0.0
C211 C 0.84834 0.94677 0.77587 0.0
N212 N 0.83951 0.88554 0.78199 0.0
C213 C 0.73585 0.01388 0.90534 0.0
C214 C 0.82675 0.04518 0.98306 0.0
C215 C 0.77024 0.02258 1.00371 0.0
C216 C 0.72523 1.00527 0.96389 0.0
C217 C 0.8356 0.05307 0.92388 0.0
N218 N 0.78994 0.03839 0.88577 0.0
H219 H 0.69856 1.00429 0.87616 0.0
H220 H 0.87735 0.07524 0.90961 0.0
H221 H 0.70312 0.94586 0.79612 0.0
H222 H 0.89352 0.96657 0.77144 0.0
O223 O 0.70252 0.07388 0.794 0.0
O224 O 0.7693 0.09752 0.72778 0.0
O225 O 0.88693 0.06673 0.80706 0.0
C226 C 0.71127 0.09676 0.74329 0.0
H227 H 0.85353 0.28484 0.83067 0.0
H228 H 0.75631 0.83607 0.80057 0.0
H229 H 0.86241 0.06037 1.01244 0.0
H230 H 0.68109 0.98742 0.97792 0.0
Co231 Co 0.46019 0.79207 0.30622 0.0
C232 C 0.34737 0.7652 0.37651 0.0
C233 C 0.33654 0.8336 0.31201 0.0
C234 C 0.28391 0.83154 0.34333 0.0
N235 N 0.37717 0.7943 0.3335 0.0
N236 N 0.2877 0.78426 0.38067 0.0
H237 H 0.3657 0.72503 0.39821 0.0
H238 H 0.34374 0.85828 0.27326 0.0
C239 C 0.44754 0.94491 0.3015 0.0
O240 O 0.48372 0.98433 0.32769 0.0
N241 N 0.54646 0.79514 0.28048 0.0
C242 C 0.58991 0.75111 0.28745 0.0
C243 C 0.64765 0.77846 0.28919 0.0
C244 C 0.57956 0.84835 0.27584 0.0
N245 N 0.64078 0.83952 0.28198 0.0
C246 C 0.51243 0.73585 0.40533 0.0
C247 C 0.48117 0.82676 0.48306 0.0
C248 C 0.50376 0.77025 0.50371 0.0
C249 C 0.52106 0.72523 0.46388 0.0
C250 C 0.47328 0.83561 0.42389 0.0
N251 N 0.48794 0.78995 0.38578 0.0
H252 H 0.522 0.69856 0.37616 0.0
H253 H 0.45112 0.87737 0.40962 0.0
H254 H 0.58047 0.70313 0.29615 0.0
H255 H 0.55975 0.89353 0.27139 0.0
O256 O 0.45242 0.70255 0.29399 0.0
O257 O 0.42879 0.76935 0.22778 0.0
O258 O 0.45963 0.88695 0.30708 0.0
C259 C 0.42955 0.71131 0.24328 0.0
H260 H 0.2415 0.85357 0.33067 0.0
H261 H 0.69025 0.75632 0.30059 0.0
H262 H 0.46599 0.86242 0.51244 0.0
H263 H 0.53889 0.68108 0.47791 0.0
Co264 Co 0.31965 0.94149 0.88938 0.0
C265 C 0.39376 0.01865 0.81028 0.0
C266 C 0.39832 0.05108 0.89758 0.0
C267 C 0.43468 0.08873 0.86396 0.0
N268 N 0.37233 1.00759 0.86381 0.0
N269 N 0.43113 0.06804 0.80947 0.0
H270 H 0.3841 0.99063 0.77298 0.0
H271 H 0.39182 0.05517 0.94354 0.0
C272 C 0.25786 0.98011 1.00374 0.0
O273 O 0.20539 0.95584 0.98761 0.0
N274 N 0.26984 0.87692 0.91895 0.0
C275 C 0.21107 0.86003 0.91038 0.0
C276 C 0.19973 0.80941 0.94365 0.0
C277 C 0.29094 0.83979 0.96047 0.0
N278 N 0.25221 0.79361 0.9716 0.0
C279 C 0.24673 0.97261 0.79139 0.0
C280 C 0.13872 0.99401 0.84979 0.0
C281 C 0.13634 0.96875 0.79418 0.0
C282 C 0.19061 0.96916 0.76208 0.0
C283 C 0.19677 1.00361 0.87562 0.0
N284 N 0.24866 0.98081 0.84983 0.0
H285 H 0.28753 0.96149 0.76747 0.0
H286 H 0.19913 0.02726 0.91607 0.0
H287 H 0.17788 0.88296 0.88397 0.0
H288 H 0.33711 0.84158 0.97773 0.0
O289 O 0.34526 0.88911 0.8242 0.0
O290 O 0.39518 0.88886 0.90497 0.0
O291 O 0.30446 0.98355 0.96849 0.0
C292 C 0.3895 0.8651 0.85361 0.0
H293 H 0.46072 0.12847 0.87813 0.0
H294 H 0.15831 0.78179 0.94154 0.0
H295 H 0.09696 1.00359 0.87366 0.0
H296 H 0.19016 0.95744 0.71671 0.0
Co297 Co 0.58483 0.31965 0.38938 0.0
C298 C 0.50769 0.39379 0.31028 0.0
C299 C 0.47522 0.3983 0.39757 0.0
C300 C 0.43758 0.43467 0.36395 0.0
N301 N 0.51874 0.37233 0.36381 0.0
N302 N 0.4583 0.43116 0.30947 0.0
H303 H 0.53574 0.38415 0.27299 0.0
H304 H 0.47111 0.39177 0.44353 0.0
C305 C 0.54621 0.25786 0.50374 0.0
O306 O 0.57049 0.20539 0.48761 0.0
N307 N 0.6494 0.26983 0.41895 0.0
C308 C 0.6663 0.21107 0.41036 0.0
C309 C 0.71691 0.19973 0.44364 0.0
C310 C 0.68653 0.29093 0.46046 0.0
N311 N 0.7327 0.2522 0.4716 0.0
C312 C 0.55368 0.24673 0.29139 0.0
C313 C 0.53231 0.13872 0.34979 0.0
C314 C 0.55756 0.13635 0.29418 0.0
C315 C 0.55713 0.19062 0.26207 0.0
C316 C 0.52272 0.19677 0.37562 0.0
N317 N 0.54551 0.24867 0.34984 0.0
H318 H 0.56479 0.28755 0.26747 0.0
H319 H 0.49907 0.19913 0.41608 0.0
H320 H 0.64337 0.17788 0.38395 0.0
H321 H 0.68474 0.3371 0.47774 0.0
O322 O 0.63721 0.34526 0.3242 0.0
O323 O 0.63746 0.39518 0.40497 0.0
O324 O 0.54277 0.30446 0.46849 0.0
C325 C 0.66122 0.3895 0.3536 0.0
H326 H 0.39783 0.4607 0.37812 0.0
H327 H 0.74453 0.15831 0.44153 0.0
H328 H 0.52274 0.09697 0.37366 0.0
H329 H 0.56884 0.19018 0.21671 0.0
Co330 Co 0.20666 0.58481 0.88939 0.0
C331 C 0.13254 0.50766 0.81029 0.0
C332 C 0.12809 0.47515 0.89756 0.0
C333 C 0.09172 0.43751 0.86395 0.0
N334 N 0.15402 0.51869 0.86381 0.0
N335 N 0.0952 0.45825 0.80947 0.0
H336 H 0.14215 0.53573 0.77301 0.0
H337 H 0.13463 0.47102 0.94352 0.0
C338 C 0.26845 0.54624 1.00375 0.0
O339 O 0.3209 0.57058 0.98764 0.0
N340 N 0.25645 0.64941 0.91895 0.0
C341 C 0.31522 0.66635 0.91035 0.0
C342 C 0.32654 0.71703 0.94356 0.0
C343 C 0.23529 0.68659 0.96041 0.0
N344 N 0.27403 0.73276 0.97147 0.0
C345 C 0.2796 0.55365 0.79141 0.0
C346 C 0.38762 0.53235 0.84982 0.0
C347 C 0.38999 0.55756 0.7942 0.0
C348 C 0.33571 0.5571 0.76209 0.0
C349 C 0.32958 0.52276 0.87566 0.0
N350 N 0.27767 0.54551 0.84986 0.0
H351 H 0.23878 0.56474 0.76749 0.0
H352 H 0.32723 0.49914 0.91613 0.0
H353 H 0.34842 0.64341 0.88397 0.0
H354 H 0.18913 0.68481 0.97767 0.0
O355 O 0.18105 0.63718 0.82419 0.0
O356 O 0.13111 0.63741 0.90496 0.0
O357 O 0.22186 0.54277 0.9685 0.0
C358 C 0.1368 0.66117 0.85359 0.0
H359 H 0.06572 0.39774 0.8781 0.0
H360 H 0.36793 0.74468 0.94143 0.0
H361 H 0.42938 0.52281 0.8737 0.0
H362 H 0.33615 0.56877 0.71672 0.0
Co363 Co 0.94151 0.20666 0.38939 0.0
C364 C 0.01868 0.13257 0.31029 0.0
C365 C 0.05115 0.12807 0.39757 0.0
C366 C 0.0888 0.09171 0.36395 0.0
N367 N 1.00763 0.15402 0.36381 0.0
N368 N 0.06809 0.09522 0.30947 0.0
H369 H 0.99063 0.1422 0.27299 0.0
H370 H 0.05526 0.13459 0.44354 0.0
C371 C 0.98008 0.26845 0.50375 0.0
O372 O 0.95575 0.3209 0.48764 0.0
N373 N 0.87691 0.25645 0.41895 0.0
C374 C 0.85998 0.31522 0.41036 0.0
C375 C 0.80929 0.32654 0.44357 0.0
C376 C 0.83973 0.23529 0.46041 0.0
N377 N 0.79356 0.27403 0.47147 0.0
C378 C 0.97264 0.27961 0.29141 0.0
C379 C 0.99397 0.38763 0.34982 0.0
C380 C 0.96875 0.39 0.2942 0.0
C381 C 0.9692 0.33572 0.2621 0.0
C382 C 1.00357 0.32958 0.37566 0.0
N383 N 0.9808 0.27768 0.34986 0.0
H384 H 0.96155 0.2388 0.26749 0.0
H385 H 0.02719 0.32723 0.41612 0.0
H386 H 0.88292 0.34842 0.38399 0.0
H387 H 0.8415 0.18912 0.47767 0.0
O388 O 0.88914 0.18105 0.3242 0.0
O389 O 0.88891 0.13111 0.40496 0.0
O390 O 0.98355 0.22186 0.46851 0.0
C391 C 0.86515 0.1368 0.35359 0.0
H392 H 0.12856 0.0657 0.37811 0.0
H393 H 0.78164 0.36793 0.44145 0.0
H394 H 1.00352 0.42939 0.3737 0.0
H395 H 0.95751 0.33617 0.21673 0.0
Co396 Co 0.31984 0.58479 0.18069 0.0
C397 C 0.39389 0.50757 0.25977 0.0
C398 C 0.39861 0.47528 0.17244 0.0
C399 C 0.43494 0.4376 0.20605 0.0
N400 N 0.37254 0.51871 0.20623 0.0
N401 N 0.43128 0.45819 0.26057 0.0
H402 H 0.38417 0.53555 0.29709 0.0
H403 H 0.39219 0.47126 0.12645 0.0
C404 C 0.258 0.54613 0.06637 0.0
O405 O 0.2055 0.57034 0.08251 0.0
N406 N 0.26998 0.64936 0.15115 0.0
C407 C 0.21118 0.66616 0.1597 0.0
C408 C 0.19979 0.71679 0.12646 0.0
C409 C 0.29106 0.68657 0.10969 0.0
N410 N 0.25226 0.73268 0.09856 0.0
C411 C 0.2469 0.55367 0.27868 0.0
C412 C 0.13895 0.53205 0.22025 0.0
C413 C 0.13651 0.55736 0.27584 0.0
C414 C 0.19077 0.55707 0.30796 0.0
C415 C 0.19703 0.52252 0.19445 0.0
N416 N 0.24888 0.54543 0.22024 0.0
H417 H 0.28768 0.56487 0.30261 0.0
H418 H 0.19945 0.49884 0.15402 0.0
H419 H 0.178 0.64314 0.18605 0.0
H420 H 0.33724 0.68486 0.09244 0.0
O421 O 0.34546 0.63716 0.24588 0.0
O422 O 0.39534 0.63745 0.16509 0.0
O423 O 0.30464 0.54276 0.10157 0.0
C424 C 0.38968 0.66119 0.21646 0.0
H425 H 0.46104 0.39791 0.19187 0.0
H426 H 0.15832 0.74434 0.12856 0.0
H427 H 0.09722 0.5224 0.19637 0.0
H428 H 0.19028 0.56885 0.35331 0.0
Co429 Co 0.94153 0.31984 0.68068 0.0
C430 C 0.01877 0.39386 0.75978 0.0
C431 C 0.05102 0.39863 0.67243 0.0
C432 C 0.08871 0.43495 0.70605 0.0
N433 N 1.00761 0.37254 0.70623 0.0
N434 N 0.06815 0.43125 0.76057 0.0
H435 H 0.99082 0.38412 0.7971 0.0
H436 H 0.05502 0.39223 0.62644 0.0
C437 C 0.9802 0.258 0.56637 0.0
O438 O 0.956 0.2055 0.58251 0.0
N439 N 0.87696 0.26998 0.65114 0.0
C440 C 0.86017 0.21118 0.65969 0.0
C441 C 0.80953 0.19979 0.62645 0.0
C442 C 0.83975 0.29107 0.60969 0.0
N443 N 0.79363 0.25226 0.59855 0.0
C444 C 0.97262 0.24689 0.77868 0.0
C445 C 0.99427 0.13895 0.72026 0.0
C446 C 0.96894 0.1365 0.77583 0.0
C447 C 0.96922 0.19076 0.80796 0.0
C448 C 1.0038 0.19703 0.69446 0.0
N449 N 0.98088 0.24887 0.72024 0.0
H450 H 0.96141 0.28767 0.80261 0.0
H451 H 0.02749 0.19945 0.65403 0.0
H452 H 0.88319 0.178 0.68603 0.0
H453 H 0.84145 0.33725 0.59244 0.0
O454 O 0.88916 0.34546 0.74587 0.0
O455 O 0.88887 0.39534 0.66509 0.0
O456 O 0.98357 0.30464 0.60157 0.0
C457 C 0.86513 0.38968 0.71646 0.0
H458 H 0.1284 0.46106 0.69186 0.0
H459 H 0.78198 0.15833 0.62855 0.0
H460 H 1.00393 0.09722 0.69637 0.0
H461 H 0.95743 0.19027 0.85331 0.0
Co462 Co 0.20648 0.94155 0.18068 0.0
C463 C 0.13247 0.0188 0.25977 0.0
C464 C 0.12776 0.05109 0.17244 0.0
C465 C 0.09144 0.08878 0.20606 0.0
N466 N 0.15381 1.00766 0.20622 0.0
N467 N 0.0951 0.06819 0.26057 0.0
H468 H 0.14218 0.99082 0.29709 0.0
H469 H 0.13418 0.05511 0.12645 0.0
C470 C 0.26831 0.98017 0.06635 0.0
O471 O 0.32079 0.9559 0.08247 0.0
N472 N 0.2563 0.87695 0.15114 0.0
C473 C 0.31511 0.86012 0.1597 0.0
C474 C 0.32647 0.80941 0.12653 0.0
C475 C 0.23516 0.83969 0.10974 0.0
N476 N 0.27397 0.79358 0.09868 0.0
C477 C 0.27945 0.97265 0.27865 0.0
C478 C 0.3874 0.99423 0.22022 0.0
C479 C 0.38983 0.96894 0.27582 0.0
C480 C 0.33558 0.96925 0.30794 0.0
C481 C 0.32932 1.00376 0.19442 0.0
N482 N 0.27747 0.98088 0.22022 0.0
H483 H 0.23867 0.96147 0.30259 0.0
H484 H 0.32691 0.02742 0.15397 0.0
H485 H 0.3483 0.88315 0.18602 0.0
H486 H 0.18898 0.84137 0.09251 0.0
O487 O 0.18085 0.88919 0.24588 0.0
O488 O 0.13095 0.88892 0.1651 0.0
O489 O 0.22168 0.98357 0.10155 0.0
C490 C 0.13662 0.86517 0.21647 0.0
H491 H 0.06535 0.12848 0.19187 0.0
H492 H 0.36791 0.78183 0.12864 0.0
H493 H 0.42913 1.00386 0.19634 0.0
H494 H 0.33606 0.9575 0.35329 0.0
Co495 Co 0.58478 0.20648 0.68068 0.0
C496 C 0.50755 0.13244 0.75977 0.0
C497 C 0.47521 0.12778 0.67244 0.0
C498 C 0.43753 0.09145 0.70606 0.0
N499 N 0.51867 0.15381 0.70622 0.0
N500 N 0.45815 0.09508 0.76057 0.0
H501 H 0.53554 0.14213 0.79708 0.0
H502 H 0.47117 0.13422 0.62646 0.0
C503 C 0.54616 0.26831 0.56635 0.0
O504 O 0.57043 0.32079 0.58247 0.0
N505 N 0.64937 0.2563 0.65115 0.0
C506 C 0.66621 0.31511 0.65971 0.0
C507 C 0.71691 0.32648 0.62654 0.0
C508 C 0.68663 0.23517 0.60974 0.0
N509 N 0.73274 0.27398 0.59868 0.0
C510 C 0.55364 0.27944 0.77865 0.0
C511 C 0.53209 0.38739 0.72022 0.0
C512 C 0.55737 0.38982 0.77582 0.0
C513 C 0.55704 0.33557 0.80795 0.0
C514 C 0.52256 0.32932 0.69441 0.0
N515 N 0.54544 0.27747 0.72021 0.0
H516 H 0.56482 0.23865 0.80259 0.0
H517 H 0.49891 0.32691 0.65397 0.0
H518 H 0.64318 0.3483 0.68604 0.0
H519 H 0.68494 0.18899 0.59251 0.0
O520 O 0.63713 0.18085 0.74588 0.0
O521 O 0.6374 0.13095 0.6651 0.0
O522 O 0.54276 0.22168 0.60155 0.0
C523 C 0.66115 0.13662 0.71647 0.0
H524 H 0.39782 0.06537 0.69188 0.0
H525 H 0.74449 0.36792 0.62866 0.0
H526 H 0.52247 0.42913 0.69633 0.0
H527 H 0.56878 0.33605 0.8533 0.0
loop_
_geom_bond_atom_site_label_1
_geom_bond_atom_site_label_2
_geom_bond_distance
_geom_bond_site_symmetry_2
_ccdc_geom_bond_type
Co0 N4 2.148 . S
Co0 N10 2.128 1_545 S
Co0 N20 2.194 . S
Co0 O25 2.351 . S
Co0 O26 2.155 . S
Co0 O27 2.096 . S
C1 N4 1.301 . S
C1 N5 1.328 . S
C1 H6 0.930 . S
C2 C3 1.333 . S
C2 N4 1.317 . S
C2 H7 0.930 . S
C3 C2 1.333 . S
C3 N5 1.350 . S
C3 H29 0.931 . S
N4 Co0 2.148 . S
N4 C1 1.301 . S
N4 C2 1.317 . S
N5 C1 1.328 . S
N5 C3 1.350 . S
H6 C1 0.930 . S
H7 C2 0.930 . S
C8 O9 1.224 . S
C8 O27 1.247 . S
O9 C8 1.224 . S
N10 Co0 2.128 1_565 S
N10 C11 1.355 . S
N10 C13 1.311 . S
C11 N10 1.355 . S
C11 C12 1.363 . S
C11 H23 0.929 . S
C12 C11 1.363 . S
C12 N14 1.375 . S
C12 H30 0.931 . S
C13 N10 1.311 . S
C13 N14 1.347 . S
C13 H24 0.929 . S
N14 C12 1.375 . S
N14 C13 1.347 . S
C15 C18 1.365 . S
C15 N20 1.328 . S
C15 H21 0.929 . S
C16 C17 1.362 . S
C16 C19 1.378 . S
C16 H31 0.929 . S
C17 C16 1.362 . S
C17 C18 1.366 . S
C18 C15 1.365 . S
C18 C17 1.366 . S
C18 H32 0.930 . S
C19 C16 1.378 . S
C19 N20 1.315 . S
C19 H22 0.930 . S
N20 Co0 2.194 . S
N20 C15 1.328 . S
N20 C19 1.315 . S
H21 C15 0.929 . S
H22 C19 0.930 . S
H23 C11 0.929 . S
H24 C13 0.929 . S
O25 Co0 2.351 . S
O25 C28 1.244 . S
O26 Co0 2.155 . S
O26 C28 1.240 . S
O27 Co0 2.096 . S
O27 C8 1.247 . S
C28 O25 1.244 . S
C28 O26 1.240 . S
H29 C3 0.931 . S
H30 C12 0.931 . S
H31 C16 0.929 . S
H32 C18 0.930 . S
Co33 N37 2.148 . S
Co33 N43 2.128 . S
Co33 N53 2.194 . S
Co33 O58 2.351 . S
Co33 O59 2.155 . S
Co33 O60 2.096 . S
C34 N37 1.301 . S
C34 N38 1.328 . S
C34 H39 0.930 . S
C35 C36 1.333 . S
C35 N37 1.317 . S
C35 H40 0.930 . S
C36 C35 1.333 . S
C36 N38 1.350 . S
C36 H62 0.931 . S
N37 Co33 2.148 . S
N37 C34 1.301 . S
N37 C35 1.317 . S
N38 C34 1.328 . S
N38 C36 1.350 . S
H39 C34 0.930 . S
H40 C35 0.930 . S
C41 O42 1.224 . S
C41 O60 1.247 . S
O42 C41 1.224 . S
N43 Co33 2.128 . S
N43 C44 1.355 . S
N43 C46 1.311 . S
C44 N43 1.355 . S
C44 C45 1.363 . S
C44 H56 0.929 . S
C45 C44 1.363 . S
C45 N47 1.375 . S
C45 H63 0.931 . S
C46 N43 1.311 . S
C46 N47 1.347 . S
C46 H57 0.929 . S
N47 C45 1.375 . S
N47 C46 1.347 . S
C48 C51 1.365 . S
C48 N53 1.328 . S
C48 H54 0.929 . S
C49 C50 1.362 . S
C49 C52 1.378 . S
C49 H64 0.929 . S
C50 C49 1.362 . S
C50 C51 1.366 . S
C51 C48 1.365 . S
C51 C50 1.366 . S
C51 H65 0.930 . S
C52 C49 1.378 . S
C52 N53 1.315 . S
C52 H55 0.930 . S
N53 Co33 2.194 . S
N53 C48 1.328 . S
N53 C52 1.315 . S
H54 C48 0.929 . S
H55 C52 0.930 . S
H56 C44 0.929 . S
H57 C46 0.929 . S
O58 Co33 2.351 . S
O58 C61 1.244 . S
O59 Co33 2.155 . S
O59 C61 1.240 . S
O60 Co33 2.096 . S
O60 C41 1.247 . S
C61 O58 1.244 . S
C61 O59 1.240 . S
H62 C36 0.931 . S
H63 C45 0.931 . S
H64 C49 0.929 . S
H65 C51 0.930 . S
Co66 N70 2.148 . S
Co66 N76 2.128 . S
Co66 N86 2.194 . S
Co66 O91 2.351 . S
Co66 O92 2.155 . S
Co66 O93 2.096 . S
C67 N70 1.301 . S
C67 N71 1.328 . S
C67 H72 0.930 . S
C68 C69 1.333 . S
C68 N70 1.317 . S
C68 H73 0.930 . S
C69 C68 1.333 . S
C69 N71 1.350 . S
C69 H95 0.931 . S
N70 Co66 2.148 . S
N70 C67 1.301 . S
N70 C68 1.317 . S
N71 C67 1.328 . S
N71 C69 1.350 . S
H72 C67 0.930 . S
H73 C68 0.930 . S
C74 O75 1.224 . S
C74 O93 1.247 . S
O75 C74 1.224 . S
N76 Co66 2.128 . S
N76 C77 1.355 . S
N76 C79 1.311 . S
C77 N76 1.355 . S
C77 C78 1.363 . S
C77 H89 0.929 . S
C78 C77 1.363 . S
C78 N80 1.375 . S
C78 H96 0.931 . S
C79 N76 1.311 . S
C79 N80 1.347 . S
C79 H90 0.929 . S
N80 C78 1.375 . S
N80 C79 1.347 . S
C81 C84 1.365 . S
C81 N86 1.328 . S
C81 H87 0.929 . S
C82 C83 1.362 . S
C82 C85 1.378 . S
C82 H97 0.929 . S
C83 C82 1.362 . S
C83 C84 1.366 . S
C84 C81 1.365 . S
C84 C83 1.366 . S
C84 H98 0.930 . S
C85 C82 1.378 . S
C85 N86 1.315 . S
C85 H88 0.930 . S
N86 Co66 2.194 . S
N86 C81 1.328 . S
N86 C85 1.315 . S
H87 C81 0.929 . S
H88 C85 0.930 . S
H89 C77 0.929 . S
H90 C79 0.929 . S
O91 Co66 2.351 . S
O91 C94 1.244 . S
O92 Co66 2.155 . S
O92 C94 1.240 . S
O93 Co66 2.096 . S
O93 C74 1.247 . S
C94 O91 1.244 . S
C94 O92 1.240 . S
H95 C69 0.931 . S
H96 C78 0.931 . S
H97 C82 0.929 . S
H98 C84 0.930 . S
Co99 N103 2.148 . S
Co99 N109 2.128 1_455 S
Co99 N119 2.194 . S
Co99 O124 2.351 . S
Co99 O125 2.155 . S
Co99 O126 2.096 . S
C100 N103 1.301 . S
C100 N104 1.328 . S
C100 H105 0.930 . S
C101 C102 1.333 . S
C101 N103 1.317 . S
C101 H106 0.930 . S
C102 C101 1.333 . S
C102 N104 1.350 . S
C102 H128 0.931 . S
N103 Co99 2.148 . S
N103 C100 1.301 . S
N103 C101 1.317 . S
N104 C100 1.328 . S
N104 C102 1.350 . S
H105 C100 0.930 . S
H106 C101 0.930 . S
C107 O108 1.224 . S
C107 O126 1.247 . S
O108 C107 1.224 . S
N109 Co99 2.128 1_655 S
N109 C110 1.355 . S
N109 C112 1.311 . S
C110 N109 1.355 . S
C110 C111 1.363 . S
C110 H122 0.929 . S
C111 C110 1.363 . S
C111 N113 1.375 . S
C111 H129 0.931 . S
C112 N109 1.311 . S
C112 N113 1.347 . S
C112 H123 0.929 . S
N113 C111 1.375 . S
N113 C112 1.347 . S
C114 C117 1.365 . S
C114 N119 1.328 . S
C114 H120 0.929 . S
C115 C116 1.362 . S
C115 C118 1.378 . S
C115 H130 0.929 . S
C116 C115 1.362 . S
C116 C117 1.366 . S
C117 C114 1.365 . S
C117 C116 1.366 . S
C117 H131 0.930 . S
C118 C115 1.378 . S
C118 N119 1.315 . S
C118 H121 0.930 . S
N119 Co99 2.194 . S
N119 C114 1.328 . S
N119 C118 1.315 . S
H120 C114 0.929 . S
H121 C118 0.930 . S
H122 C110 0.929 . S
H123 C112 0.929 . S
O124 Co99 2.351 . S
O124 C127 1.244 . S
O125 Co99 2.155 . S
O125 C127 1.240 . S
O126 Co99 2.096 . S
O126 C107 1.247 . S
C127 O124 1.244 . S
C127 O125 1.240 . S
H128 C102 0.931 . S
H129 C111 0.931 . S
H130 C115 0.929 . S
H131 C117 0.930 . S
Co132 N136 2.148 . S
Co132 N142 2.128 . S
Co132 N152 2.194 . S
Co132 O157 2.351 . S
Co132 O158 2.155 . S
Co132 O159 2.096 . S
C133 N136 1.301 . S
C133 N137 1.328 . S
C133 H138 0.930 . S
C134 C135 1.333 . S
C134 N136 1.317 . S
C134 H139 0.930 . S
C135 C134 1.333 . S
C135 N137 1.350 . S
C135 H161 0.931 . S
N136 Co132 2.148 . S
N136 C133 1.301 . S
N136 C134 1.317 . S
N137 C133 1.328 . S
N137 C135 1.350 . S
H138 C133 0.930 . S
H139 C134 0.930 . S
C140 O141 1.224 . S
C140 O159 1.247 . S
O141 C140 1.224 . S
N142 Co132 2.128 . S
N142 C143 1.355 . S
N142 C145 1.311 . S
C143 N142 1.355 . S
C143 C144 1.363 . S
C143 H155 0.929 . S
C144 C143 1.363 . S
C144 N146 1.375 . S
C144 H162 0.931 . S
C145 N142 1.311 . S
C145 N146 1.347 . S
C145 H156 0.929 . S
N146 C144 1.375 . S
N146 C145 1.347 . S
C147 C150 1.365 . S
C147 N152 1.328 . S
C147 H153 0.929 . S
C148 C149 1.362 . S
C148 C151 1.378 . S
C148 H163 0.929 . S
C149 C148 1.362 . S
C149 C150 1.366 . S
C150 C147 1.365 . S
C150 C149 1.366 . S
C150 H164 0.930 . S
C151 C148 1.378 . S
C151 N152 1.315 . S
C151 H154 0.930 . S
N152 Co132 2.194 . S
N152 C147 1.328 . S
N152 C151 1.315 . S
H153 C147 0.929 . S
H154 C151 0.930 . S
H155 C143 0.929 . S
H156 C145 0.929 . S
O157 Co132 2.351 . S
O157 C160 1.244 . S
O158 Co132 2.155 . S
O158 C160 1.240 . S
O159 Co132 2.096 . S
O159 C140 1.247 . S
C160 O157 1.244 . S
C160 O158 1.240 . S
H161 C135 0.931 . S
H162 C144 0.931 . S
H163 C148 0.929 . S
H164 C150 0.930 . S
Co165 N169 2.148 . S
Co165 N175 2.128 1_455 S
Co165 N185 2.194 . S
Co165 O190 2.351 . S
Co165 O191 2.155 . S
Co165 O192 2.096 . S
C166 N169 1.301 . S
C166 N170 1.328 . S
C166 H171 0.930 . S
C167 C168 1.333 . S
C167 N169 1.317 . S
C167 H172 0.930 . S
C168 C167 1.333 . S
C168 N170 1.350 . S
C168 H194 0.931 . S
N169 Co165 2.148 . S
N169 C166 1.301 . S
N169 C167 1.317 . S
N170 C166 1.328 . S
N170 C168 1.350 . S
H171 C166 0.930 . S
H172 C167 0.930 . S
C173 O174 1.224 . S
C173 O192 1.247 . S
O174 C173 1.224 . S
N175 Co165 2.128 1_655 S
N175 C176 1.355 . S
N175 C178 1.311 . S
C176 N175 1.355 . S
C176 C177 1.363 . S
C176 H188 0.929 . S
C177 C176 1.363 . S
C177 N179 1.375 . S
C177 H195 0.931 . S
C178 N175 1.311 . S
C178 N179 1.347 . S
C178 H189 0.929 . S
N179 C177 1.375 . S
N179 C178 1.347 . S
C180 C183 1.365 . S
C180 N185 1.328 . S
C180 H186 0.929 . S
C181 C182 1.362 . S
C181 C184 1.378 . S
C181 H196 0.929 . S
C182 C181 1.362 . S
C182 C183 1.366 . S
C183 C180 1.365 . S
C183 C182 1.366 . S
C183 H197 0.930 . S
C184 C181 1.378 . S
C184 N185 1.315 . S
C184 H187 0.930 . S
N185 Co165 2.194 . S
N185 C180 1.328 . S
N185 C184 1.315 . S
H186 C180 0.929 . S
H187 C184 0.930 . S
H188 C176 0.929 . S
H189 C178 0.929 . S
O190 Co165 2.351 . S
O190 C193 1.244 . S
O191 Co165 2.155 . S
O191 C193 1.240 . S
O192 Co165 2.096 . S
O192 C173 1.247 . S
C193 O190 1.244 . S
C193 O191 1.240 . S
H194 C168 0.931 . S
H195 C177 0.931 . S
H196 C181 0.929 . S
H197 C183 0.930 . S
Co198 N202 2.148 . S
Co198 N208 2.128 1_545 S
Co198 N218 2.194 . S
Co198 O223 2.351 . S
Co198 O224 2.155 . S
Co198 O225 2.096 . S
C199 N202 1.301 . S
C199 N203 1.328 . S
C199 H204 0.930 . S
C200 C201 1.333 . S
C200 N202 1.317 . S
C200 H205 0.930 . S
C201 C200 1.333 . S
C201 N203 1.350 . S
C201 H227 0.931 . S
N202 Co198 2.148 . S
N202 C199 1.301 . S
N202 C200 1.317 . S
N203 C199 1.328 . S
N203 C201 1.350 . S
H204 C199 0.930 . S
H205 C200 0.930 . S
C206 O207 1.224 . S
C206 O225 1.247 . S
O207 C206 1.224 . S
N208 Co198 2.128 1_565 S
N208 C209 1.355 . S
N208 C211 1.311 . S
C209 N208 1.355 . S
C209 C210 1.363 . S
C209 H221 0.929 . S
C210 C209 1.363 . S
C210 N212 1.375 . S
C210 H228 0.931 . S
C211 N208 1.311 . S
C211 N212 1.347 . S
C211 H222 0.929 . S
N212 C210 1.375 . S
N212 C211 1.347 . S
C213 C216 1.365 . S
C213 N218 1.328 . S
C213 H219 0.929 . S
C214 C215 1.362 . S
C214 C217 1.378 . S
C214 H229 0.929 . S
C215 C214 1.362 . S
C215 C216 1.366 . S
C216 C213 1.365 . S
C216 C215 1.366 . S
C216 H230 0.930 . S
C217 C214 1.378 . S
C217 N218 1.315 . S
C217 H220 0.930 . S
N218 Co198 2.194 . S
N218 C213 1.328 . S
N218 C217 1.315 . S
H219 C213 0.929 . S
H220 C217 0.930 . S
H221 C209 0.929 . S
H222 C211 0.929 . S
O223 Co198 2.351 . S
O223 C226 1.244 . S
O224 Co198 2.155 . S
O224 C226 1.240 . S
O225 Co198 2.096 . S
O225 C206 1.247 . S
C226 O223 1.244 . S
C226 O224 1.240 . S
H227 C201 0.931 . S
H228 C210 0.931 . S
H229 C214 0.929 . S
H230 C216 0.930 . S
Co231 N235 2.148 . S
Co231 N241 2.128 . S
Co231 N251 2.194 . S
Co231 O256 2.351 . S
Co231 O257 2.155 . S
Co231 O258 2.096 . S
C232 N235 1.301 . S
C232 N236 1.328 . S
C232 H237 0.930 . S
C233 C234 1.333 . S
C233 N235 1.317 . S
C233 H238 0.930 . S
C234 C233 1.333 . S
C234 N236 1.350 . S
C234 H260 0.931 . S
N235 Co231 2.148 . S
N235 C232 1.301 . S
N235 C233 1.317 . S
N236 C232 1.328 . S
N236 C234 1.350 . S
H237 C232 0.930 . S
H238 C233 0.930 . S
C239 O240 1.224 . S
C239 O258 1.247 . S
O240 C239 1.224 . S
N241 Co231 2.128 . S
N241 C242 1.355 . S
N241 C244 1.311 . S
C242 N241 1.355 . S
C242 C243 1.363 . S
C242 H254 0.929 . S
C243 C242 1.363 . S
C243 N245 1.375 . S
C243 H261 0.931 . S
C244 N241 1.311 . S
C244 N245 1.347 . S
C244 H255 0.929 . S
N245 C243 1.375 . S
N245 C244 1.347 . S
C246 C249 1.365 . S
C246 N251 1.328 . S
C246 H252 0.929 . S
C247 C248 1.362 . S
C247 C250 1.378 . S
C247 H262 0.929 . S
C248 C247 1.362 . S
C248 C249 1.366 . S
C249 C246 1.365 . S
C249 C248 1.366 . S
C249 H263 0.930 . S
C250 C247 1.378 . S
C250 N251 1.315 . S
C250 H253 0.930 . S
N251 Co231 2.194 . S
N251 C246 1.328 . S
N251 C250 1.315 . S
H252 C246 0.929 . S
H253 C250 0.930 . S
H254 C242 0.929 . S
H255 C244 0.929 . S
O256 Co231 2.351 . S
O256 C259 1.244 . S
O257 Co231 2.155 . S
O257 C259 1.240 . S
O258 Co231 2.096 . S
O258 C239 1.247 . S
C259 O256 1.244 . S
C259 O257 1.240 . S
H260 C234 0.931 . S
H261 C243 0.931 . S
H262 C247 0.929 . S
H263 C249 0.930 . S
Co264 N268 2.148 1_565 S
Co264 N274 2.128 . S
Co264 N284 2.194 . S
Co264 O289 2.351 . S
Co264 O290 2.155 . S
Co264 O291 2.096 . S
C265 N268 1.301 . S
C265 N269 1.328 . S
C265 H270 0.930 . S
C266 C267 1.333 . S
C266 N268 1.317 . S
C266 H271 0.930 . S
C267 C266 1.333 . S
C267 N269 1.350 . S
C267 H293 0.931 . S
N268 Co264 2.148 1_545 S
N268 C265 1.301 . S
N268 C266 1.317 . S
N269 C265 1.328 . S
N269 C267 1.350 . S
H270 C265 0.930 . S
H271 C266 0.930 . S
C272 O273 1.224 . S
C272 O291 1.247 . S
O273 C272 1.224 . S
N274 Co264 2.128 . S
N274 C275 1.355 . S
N274 C277 1.311 . S
C275 N274 1.355 . S
C275 C276 1.363 . S
C275 H287 0.929 . S
C276 C275 1.363 . S
C276 N278 1.375 . S
C276 H294 0.931 . S
C277 N274 1.311 . S
C277 N278 1.347 . S
C277 H288 0.929 . S
N278 C276 1.375 . S
N278 C277 1.347 . S
C279 C282 1.365 . S
C279 N284 1.328 . S
C279 H285 0.929 . S
C280 C281 1.362 . S
C280 C283 1.378 . S
C280 H295 0.929 . S
C281 C280 1.362 . S
C281 C282 1.366 . S
C282 C279 1.365 . S
C282 C281 1.366 . S
C282 H296 0.930 . S
C283 C280 1.378 . S
C283 N284 1.315 . S
C283 H286 0.930 . S
N284 Co264 2.194 . S
N284 C279 1.328 . S
N284 C283 1.315 . S
H285 C279 0.929 . S
H286 C283 0.930 . S
H287 C275 0.929 . S
H288 C277 0.929 . S
O289 Co264 2.351 . S
O289 C292 1.244 . S
O290 Co264 2.155 . S
O290 C292 1.240 . S
O291 Co264 2.096 . S
O291 C272 1.247 . S
C292 O289 1.244 . S
C292 O290 1.240 . S
H293 C267 0.931 . S
H294 C276 0.931 . S
H295 C280 0.929 . S
H296 C282 0.930 . S
Co297 N301 2.148 . S
Co297 N307 2.128 . S
Co297 N317 2.194 . S
Co297 O322 2.351 . S
Co297 O323 2.155 . S
Co297 O324 2.096 . S
C298 N301 1.301 . S
C298 N302 1.328 . S
C298 H303 0.930 . S
C299 C300 1.333 . S
C299 N301 1.317 . S
C299 H304 0.930 . S
C300 C299 1.333 . S
C300 N302 1.350 . S
C300 H326 0.931 . S
N301 Co297 2.148 . S
N301 C298 1.301 . S
N301 C299 1.317 . S
N302 C298 1.328 . S
N302 C300 1.350 . S
H303 C298 0.930 . S
H304 C299 0.930 . S
C305 O306 1.224 . S
C305 O324 1.247 . S
O306 C305 1.224 . S
N307 Co297 2.128 . S
N307 C308 1.355 . S
N307 C310 1.311 . S
C308 N307 1.355 . S
C308 C309 1.363 . S
C308 H320 0.929 . S
C309 C308 1.363 . S
C309 N311 1.375 . S
C309 H327 0.931 . S
C310 N307 1.311 . S
C310 N311 1.347 . S
C310 H321 0.929 . S
N311 C309 1.375 . S
N311 C310 1.347 . S
C312 C315 1.365 . S
C312 N317 1.328 . S
C312 H318 0.929 . S
C313 C314 1.362 . S
C313 C316 1.378 . S
C313 H328 0.929 . S
C314 C313 1.362 . S
C314 C315 1.366 . S
C315 C312 1.365 . S
C315 C314 1.366 . S
C315 H329 0.930 . S
C316 C313 1.378 . S
C316 N317 1.315 . S
C316 H319 0.930 . S
N317 Co297 2.194 . S
N317 C312 1.328 . S
N317 C316 1.315 . S
H318 C312 0.929 . S
H319 C316 0.930 . S
H320 C308 0.929 . S
H321 C310 0.929 . S
O322 Co297 2.351 . S
O322 C325 1.244 . S
O323 Co297 2.155 . S
O323 C325 1.240 . S
O324 Co297 2.096 . S
O324 C305 1.247 . S
C325 O322 1.244 . S
C325 O323 1.240 . S
H326 C300 0.931 . S
H327 C309 0.931 . S
H328 C313 0.929 . S
H329 C315 0.930 . S
Co330 N334 2.148 . S
Co330 N340 2.128 . S
Co330 N350 2.194 . S
Co330 O355 2.351 . S
Co330 O356 2.155 . S
Co330 O357 2.096 . S
C331 N334 1.301 . S
C331 N335 1.328 . S
C331 H336 0.930 . S
C332 C333 1.333 . S
C332 N334 1.317 . S
C332 H337 0.930 . S
C333 C332 1.333 . S
C333 N335 1.350 . S
C333 H359 0.931 . S
N334 Co330 2.148 . S
N334 C331 1.301 . S
N334 C332 1.317 . S
N335 C331 1.328 . S
N335 C333 1.350 . S
H336 C331 0.930 . S
H337 C332 0.930 . S
C338 O339 1.224 . S
C338 O357 1.247 . S
O339 C338 1.224 . S
N340 Co330 2.128 . S
N340 C341 1.355 . S
N340 C343 1.311 . S
C341 N340 1.355 . S
C341 C342 1.363 . S
C341 H353 0.929 . S
C342 C341 1.363 . S
C342 N344 1.375 . S
C342 H360 0.931 . S
C343 N340 1.311 . S
C343 N344 1.347 . S
C343 H354 0.929 . S
N344 C342 1.375 . S
N344 C343 1.347 . S
C345 C348 1.365 . S
C345 N350 1.328 . S
C345 H351 0.929 . S
C346 C347 1.362 . S
C346 C349 1.378 . S
C346 H361 0.929 . S
C347 C346 1.362 . S
C347 C348 1.366 . S
C348 C345 1.365 . S
C348 C347 1.366 . S
C348 H362 0.930 . S
C349 C346 1.378 . S
C349 N350 1.315 . S
C349 H352 0.930 . S
N350 Co330 2.194 . S
N350 C345 1.328 . S
N350 C349 1.315 . S
H351 C345 0.929 . S
H352 C349 0.930 . S
H353 C341 0.929 . S
H354 C343 0.929 . S
O355 Co330 2.351 . S
O355 C358 1.244 . S
O356 Co330 2.155 . S
O356 C358 1.240 . S
O357 Co330 2.096 . S
O357 C338 1.247 . S
C358 O355 1.244 . S
C358 O356 1.240 . S
H359 C333 0.931 . S
H360 C342 0.931 . S
H361 C346 0.929 . S
H362 C348 0.930 . S
Co363 N367 2.148 1_655 S
Co363 N373 2.128 . S
Co363 N383 2.194 . S
Co363 O388 2.351 . S
Co363 O389 2.155 . S
Co363 O390 2.096 . S
C364 N367 1.301 . S
C364 N368 1.328 . S
C364 H369 0.930 . S
C365 C366 1.333 . S
C365 N367 1.317 . S
C365 H370 0.930 . S
C366 C365 1.333 . S
C366 N368 1.350 . S
C366 H392 0.931 . S
N367 Co363 2.148 1_455 S
N367 C364 1.301 . S
N367 C365 1.317 . S
N368 C364 1.328 . S
N368 C366 1.350 . S
H369 C364 0.930 . S
H370 C365 0.930 . S
C371 O372 1.224 . S
C371 O390 1.247 . S
O372 C371 1.224 . S
N373 Co363 2.128 . S
N373 C374 1.355 . S
N373 C376 1.311 . S
C374 N373 1.355 . S
C374 C375 1.363 . S
C374 H386 0.929 . S
C375 C374 1.363 . S
C375 N377 1.375 . S
C375 H393 0.931 . S
C376 N373 1.311 . S
C376 N377 1.347 . S
C376 H387 0.929 . S
N377 C375 1.375 . S
N377 C376 1.347 . S
C378 C381 1.365 . S
C378 N383 1.328 . S
C378 H384 0.929 . S
C379 C380 1.362 . S
C379 C382 1.378 . S
C379 H394 0.929 . S
C380 C379 1.362 . S
C380 C381 1.366 . S
C381 C378 1.365 . S
C381 C380 1.366 . S
C381 H395 0.930 . S
C382 C379 1.378 . S
C382 N383 1.315 . S
C382 H385 0.930 . S
N383 Co363 2.194 . S
N383 C378 1.328 . S
N383 C382 1.315 . S
H384 C378 0.929 . S
H385 C382 0.930 . S
H386 C374 0.929 . S
H387 C376 0.929 . S
O388 Co363 2.351 . S
O388 C391 1.244 . S
O389 Co363 2.155 . S
O389 C391 1.240 . S
O390 Co363 2.096 . S
O390 C371 1.247 . S
C391 O388 1.244 . S
C391 O389 1.240 . S
H392 C366 0.931 . S
H393 C375 0.931 . S
H394 C379 0.929 . S
H395 C381 0.930 . S
Co396 N400 2.148 . S
Co396 N406 2.128 . S
Co396 N416 2.194 . S
Co396 O421 2.351 . S
Co396 O422 2.155 . S
Co396 O423 2.096 . S
C397 N400 1.301 . S
C397 N401 1.328 . S
C397 H402 0.930 . S
C398 C399 1.333 . S
C398 N400 1.317 . S
C398 H403 0.930 . S
C399 C398 1.333 . S
C399 N401 1.350 . S
C399 H425 0.931 . S
N400 Co396 2.148 . S
N400 C397 1.301 . S
N400 C398 1.317 . S
N401 C397 1.328 . S
N401 C399 1.350 . S
H402 C397 0.930 . S
H403 C398 0.930 . S
C404 O405 1.224 . S
C404 O423 1.247 . S
O405 C404 1.224 . S
N406 Co396 2.128 . S
N406 C407 1.355 . S
N406 C409 1.311 . S
C407 N406 1.355 . S
C407 C408 1.363 . S
C407 H419 0.929 . S
C408 C407 1.363 . S
C408 N410 1.375 . S
C408 H426 0.931 . S
C409 N406 1.311 . S
C409 N410 1.347 . S
C409 H420 0.929 . S
N410 C408 1.375 . S
N410 C409 1.347 . S
C411 C414 1.365 . S
C411 N416 1.328 . S
C411 H417 0.929 . S
C412 C413 1.362 . S
C412 C415 1.378 . S
C412 H427 0.929 . S
C413 C412 1.362 . S
C413 C414 1.366 . S
C414 C411 1.365 . S
C414 C413 1.366 . S
C414 H428 0.930 . S
C415 C412 1.378 . S
C415 N416 1.315 . S
C415 H418 0.930 . S
N416 Co396 2.194 . S
N416 C411 1.328 . S
N416 C415 1.315 . S
H417 C411 0.929 . S
H418 C415 0.930 . S
H419 C407 0.929 . S
H420 C409 0.929 . S
O421 Co396 2.351 . S
O421 C424 1.244 . S
O422 Co396 2.155 . S
O422 C424 1.240 . S
O423 Co396 2.096 . S
O423 C404 1.247 . S
C424 O421 1.244 . S
C424 O422 1.240 . S
H425 C399 0.931 . S
H426 C408 0.931 . S
H427 C412 0.929 . S
H428 C414 0.930 . S
Co429 N433 2.148 1_655 S
Co429 N439 2.128 . S
Co429 N449 2.194 . S
Co429 O454 2.351 . S
Co429 O455 2.155 . S
Co429 O456 2.096 . S
C430 N433 1.301 . S
C430 N434 1.328 . S
C430 H435 0.930 . S
C431 C432 1.333 . S
C431 N433 1.317 . S
C431 H436 0.930 . S
C432 C431 1.333 . S
C432 N434 1.350 . S
C432 H458 0.931 . S
N433 Co429 2.148 1_455 S
N433 C430 1.301 . S
N433 C431 1.317 . S
N434 C430 1.328 . S
N434 C432 1.350 . S
H435 C430 0.930 . S
H436 C431 0.930 . S
C437 O438 1.224 . S
C437 O456 1.247 . S
O438 C437 1.224 . S
N439 Co429 2.128 . S
N439 C440 1.355 . S
N439 C442 1.311 . S
C440 N439 1.355 . S
C440 C441 1.363 . S
C440 H452 0.929 . S
C441 C440 1.363 . S
C441 N443 1.375 . S
C441 H459 0.931 . S
C442 N439 1.311 . S
C442 N443 1.347 . S
C442 H453 0.929 . S
N443 C441 1.375 . S
N443 C442 1.347 . S
C444 C447 1.365 . S
C444 N449 1.328 . S
C444 H450 0.929 . S
C445 C446 1.362 . S
C445 C448 1.378 . S
C445 H460 0.929 . S
C446 C445 1.362 . S
C446 C447 1.366 . S
C447 C444 1.365 . S
C447 C446 1.366 . S
C447 H461 0.930 . S
C448 C445 1.378 . S
C448 N449 1.315 . S
C448 H451 0.930 . S
N449 Co429 2.194 . S
N449 C444 1.328 . S
N449 C448 1.315 . S
H450 C444 0.929 . S
H451 C448 0.930 . S
H452 C440 0.929 . S
H453 C442 0.929 . S
O454 Co429 2.351 . S
O454 C457 1.244 . S
O455 Co429 2.155 . S
O455 C457 1.240 . S
O456 Co429 2.096 . S
O456 C437 1.247 . S
C457 O454 1.244 . S
C457 O455 1.240 . S
H458 C432 0.931 . S
H459 C441 0.931 . S
H460 C445 0.929 . S
H461 C447 0.930 . S
Co462 N466 2.148 1_565 S
Co462 N472 2.128 . S
Co462 N482 2.194 . S
Co462 O487 2.351 . S
Co462 O488 2.155 . S
Co462 O489 2.096 . S
C463 N466 1.301 . S
C463 N467 1.328 . S
C463 H468 0.930 . S
C464 C465 1.333 . S
C464 N466 1.317 . S
C464 H469 0.930 . S
C465 C464 1.333 . S
C465 N467 1.350 . S
C465 H491 0.931 . S
N466 Co462 2.148 1_545 S
N466 C463 1.301 . S
N466 C464 1.317 . S
N467 C463 1.328 . S
N467 C465 1.350 . S
H468 C463 0.930 . S
H469 C464 0.930 . S
C470 O471 1.224 . S
C470 O489 1.247 . S
O471 C470 1.224 . S
N472 Co462 2.128 . S
N472 C473 1.355 . S
N472 C475 1.311 . S
C473 N472 1.355 . S
C473 C474 1.363 . S
C473 H485 0.929 . S
C474 C473 1.363 . S
C474 N476 1.375 . S
C474 H492 0.931 . S
C475 N472 1.311 . S
C475 N476 1.347 . S
C475 H486 0.929 . S
N476 C474 1.375 . S
N476 C475 1.347 . S
C477 C480 1.365 . S
C477 N482 1.328 . S
C477 H483 0.929 . S
C478 C479 1.362 . S
C478 C481 1.378 . S
C478 H493 0.929 . S
C479 C478 1.362 . S
C479 C480 1.366 . S
C480 C477 1.365 . S
C480 C479 1.366 . S
C480 H494 0.930 . S
C481 C478 1.378 . S
C481 N482 1.315 . S
C481 H484 0.930 . S
N482 Co462 2.194 . S
N482 C477 1.328 . S
N482 C481 1.315 . S
H483 C477 0.929 . S
H484 C481 0.930 . S
H485 C473 0.929 . S
H486 C475 0.929 . S
O487 Co462 2.351 . S
O487 C490 1.244 . S
O488 Co462 2.155 . S
O488 C490 1.240 . S
O489 Co462 2.096 . S
O489 C470 1.247 . S
C490 O487 1.244 . S
C490 O488 1.240 . S
H491 C465 0.931 . S
H492 C474 0.931 . S
H493 C478 0.929 . S
H494 C480 0.930 . S
Co495 N499 2.148 . S
Co495 N505 2.128 . S
Co495 N515 2.194 . S
Co495 O520 2.351 . S
Co495 O521 2.155 . S
Co495 O522 2.096 . S
C496 N499 1.301 . S
C496 N500 1.328 . S
C496 H501 0.930 . S
C497 C498 1.333 . S
C497 N499 1.317 . S
C497 H502 0.930 . S
C498 C497 1.333 . S
C498 N500 1.350 . S
C498 H524 0.931 . S
N499 Co495 2.148 . S
N499 C496 1.301 . S
N499 C497 1.317 . S
N500 C496 1.328 . S
N500 C498 1.350 . S
H501 C496 0.930 . S
H502 C497 0.930 . S
C503 O504 1.224 . S
C503 O522 1.247 . S
O504 C503 1.224 . S
N505 Co495 2.128 . S
N505 C506 1.355 . S
N505 C508 1.311 . S
C506 N505 1.355 . S
C506 C507 1.363 . S
C506 H518 0.929 . S
C507 C506 1.363 . S
C507 N509 1.375 . S
C507 H525 0.931 . S
C508 N505 1.311 . S
C508 N509 1.347 . S
C508 H519 0.929 . S
N509 C507 1.375 . S
N509 C508 1.347 . S
C510 C513 1.365 . S
C510 N515 1.328 . S
C510 H516 0.929 . S
C511 C512 1.362 . S
C511 C514 1.378 . S
C511 H526 0.929 . S
C512 C511 1.362 . S
C512 C513 1.366 . S
C513 C510 1.365 . S
C513 C512 1.366 . S
C513 H527 0.930 . S
C514 C511 1.378 . S
C514 N515 1.315 . S
C514 H517 0.930 . S
N515 Co495 2.194 . S
N515 C510 1.328 . S
N515 C514 1.315 . S
H516 C510 0.929 . S
H517 C514 0.930 . S
H518 C506 0.929 . S
H519 C508 0.929 . S
O520 Co495 2.351 . S
O520 C523 1.244 . S
O521 Co495 2.155 . S
O521 C523 1.240 . S
O522 Co495 2.096 . S
O522 C503 1.247 . S
C523 O520 1.244 . S
C523 O521 1.240 . S
H524 C498 0.931 . S
H525 C507 0.931 . S
H526 C511 0.929 . S
H527 C513 0.930 . S
N14 N245 2.022 . S
N146 N47 2.022 . S
N179 N80 2.022 . S
N113 N212 2.022 . S
N269 N500 2.989 . S
N302 N401 2.989 . S
N434 N335 2.989 . S
N368 N467 2.989 . S
C8 C314 2.019 . S
C347 C41 2.019 . S
C380 C74 2.019 . S
C281 C107 2.019 . S
C512 C140 2.019 . S
C413 C173 2.019 . S
C446 C206 2.019 . S
C479 C239 2.019 . S
C61 C292 2.009 . S
C94 C325 2.009 . S
C127 C358 2.009 . S
C391 C28 2.009 . S
C259 C424 2.009 . S
C160 C457 2.009 . S
C193 C490 2.009 . S
C226 C523 2.009 . S
N71 N5 2.245 . S
N38 N104 2.245 . S
N203 N137 2.245 . S
N236 N170 2.245 . S
N344 N278 1.278 . S
N377 N311 1.278 . S
N410 N476 1.278 . S
N509 N443 1.278 . S
C215 C17 1.441 1_556 S
C248 C50 1.441 . S
C83 C149 1.441 1_554 S
C182 C116 1.441 . S
C470 C272 1.786 1_554 S
C503 C305 1.786 . S
C404 C338 1.786 1_554 S
C371 C437 1.786 . S
