# Generated by pormake.
# Topology wjd, (6)-cn, num edge types: 1
# Building blocks:
#     Node 0, Type 0, BuildingBlock: FUNLAD_clean_sbu_0, # of connection points: 6
#     Node 1, Type 0, BuildingBlock: FUNLAD_clean_sbu_0, # of connection points: 6
#     Node 2, Type 0, BuildingBlock: FUNLAD_clean_sbu_0, # of connection points: 6
#     Node 3, Type 0, BuildingBlock: FUNLAD_clean_sbu_0, # of connection points: 6
#     Node 4, Type 0, BuildingBlock: FUNLAD_clean_sbu_0, # of connection points: 6
#     Node 5, Type 0, BuildingBlock: FUNLAD_clean_sbu_0, # of connection points: 6
#     Node 6, Type 0, BuildingBlock: FUNLAD_clean_sbu_0, # of connection points: 6
#     Node 7, Type 0, BuildingBlock: FUNLAD_clean_sbu_0, # of connection points: 6
#     Node 8, Type 0, BuildingBlock: FUNLAD_clean_sbu_0, # of connection points: 6
#     Node 9, Type 0, BuildingBlock: FUNLAD_clean_sbu_0, # of connection points: 6
#     Node 10, Type 0, BuildingBlock: FUNLAD_clean_sbu_0, # of connection points: 6
#     Node 11, Type 0, BuildingBlock: FUNLAD_clean_sbu_0, # of connection points: 6
#     Edge 12, Type (0, 0), BuildingBlock: XUDNAN_clean_linker_2, # of connection points: 2
#     Edge 13, Type (0, 0), BuildingBlock: XUDNAN_clean_linker_2, # of connection points: 2
#     Edge 14, Type (0, 0), BuildingBlock: XUDNAN_clean_linker_2, # of connection points: 2
#     Edge 15, Type (0, 0), BuildingBlock: XUDNAN_clean_linker_2, # of connection points: 2
#     Edge 16, Type (0, 0), BuildingBlock: XUDNAN_clean_linker_2, # of connection points: 2
#     Edge 17, Type (0, 0), BuildingBlock: XUDNAN_clean_linker_2, # of connection points: 2
#     Edge 18, Type (0, 0), BuildingBlock: XUDNAN_clean_linker_2, # of connection points: 2
#     Edge 19, Type (0, 0), BuildingBlock: XUDNAN_clean_linker_2, # of connection points: 2
#     Edge 20, Type (0, 0), BuildingBlock: XUDNAN_clean_linker_2, # of connection points: 2
#     Edge 21, Type (0, 0), BuildingBlock: XUDNAN_clean_linker_2, # of connection points: 2
#     Edge 22, Type (0, 0), BuildingBlock: XUDNAN_clean_linker_2, # of connection points: 2
#     Edge 23, Type (0, 0), BuildingBlock: XUDNAN_clean_linker_2, # of connection points: 2
#     Edge 24, Type (0, 0), BuildingBlock: XUDNAN_clean_linker_2, # of connection points: 2
#     Edge 25, Type (0, 0), BuildingBlock: XUDNAN_clean_linker_2, # of connection points: 2
#     Edge 26, Type (0, 0), BuildingBlock: XUDNAN_clean_linker_2, # of connection points: 2
#     Edge 27, Type (0, 0), BuildingBlock: XUDNAN_clean_linker_2, # of connection points: 2
#     Edge 28, Type (0, 0), BuildingBlock: XUDNAN_clean_linker_2, # of connection points: 2
#     Edge 29, Type (0, 0), BuildingBlock: XUDNAN_clean_linker_2, # of connection points: 2
#     Edge 30, Type (0, 0), BuildingBlock: XUDNAN_clean_linker_2, # of connection points: 2
#     Edge 31, Type (0, 0), BuildingBlock: XUDNAN_clean_linker_2, # of connection points: 2
#     Edge 32, Type (0, 0), BuildingBlock: XUDNAN_clean_linker_2, # of connection points: 2
#     Edge 33, Type (0, 0), BuildingBlock: XUDNAN_clean_linker_2, # of connection points: 2
#     Edge 34, Type (0, 0), BuildingBlock: XUDNAN_clean_linker_2, # of connection points: 2
#     Edge 35, Type (0, 0), BuildingBlock: XUDNAN_clean_linker_2, # of connection points: 2
#     Edge 36, Type (0, 0), BuildingBlock: XUDNAN_clean_linker_2, # of connection points: 2
#     Edge 37, Type (0, 0), BuildingBlock: XUDNAN_clean_linker_2, # of connection points: 2
#     Edge 38, Type (0, 0), BuildingBlock: XUDNAN_clean_linker_2, # of connection points: 2
#     Edge 39, Type (0, 0), BuildingBlock: XUDNAN_clean_linker_2, # of connection points: 2
#     Edge 40, Type (0, 0), BuildingBlock: XUDNAN_clean_linker_2, # of connection points: 2
#     Edge 41, Type (0, 0), BuildingBlock: XUDNAN_clean_linker_2, # of connection points: 2
#     Edge 42, Type (0, 0), BuildingBlock: XUDNAN_clean_linker_2, # of connection points: 2
#     Edge 43, Type (0, 0), BuildingBlock: XUDNAN_clean_linker_2, # of connection points: 2
#     Edge 44, Type (0, 0), BuildingBlock: XUDNAN_clean_linker_2, # of connection points: 2
#     Edge 45, Type (0, 0), BuildingBlock: XUDNAN_clean_linker_2, # of connection points: 2
#     Edge 46, Type (0, 0), BuildingBlock: XUDNAN_clean_linker_2, # of connection points: 2
#     Edge 47, Type (0, 0), BuildingBlock: XUDNAN_clean_linker_2, # of connection points: 2
# Relax obj value: 0.160
# Max RMSD: 0.212
# Mean RMSD: 0.212
data_MOF--net-wjd--node1-FUNLAD_clean_sbu_0--edge1-XUDNAN_clean_linker_2
_symmetry_space_group_name_H-M    P1
_symmetry_Int_Tables_number       1
_symmetry_cell_setting            triclinic
loop_
_symmetry_equiv_pos_as_xyz
'x, y, z'
_cell_length_a     27.907913
_cell_length_b     27.887879
_cell_length_c     85.881133
_cell_angle_alpha  90.100667
_cell_angle_beta   90.016027
_cell_angle_gamma 120.04592
loop_
_atom_site_label
_atom_site_type_symbol
_atom_site_fract_x
_atom_site_fract_y
_atom_site_fract_z
_atom_type_partial_charge
C0 C 0.24368 0.9649 0.14008 0.0
N1 N 0.31626 0.06839 0.10183 0.0
C2 C 0.31602 0.02288 0.09595 0.0
C3 C 0.31378 0.01386 0.07997 0.0
C4 C 0.31131 0.05169 0.06984 0.0
C5 C 0.31024 0.09778 0.07602 0.0
C6 C 0.31285 0.10547 0.09224 0.0
Zn7 Zn 0.32302 0.07544 0.12569 0.0
C8 C 0.24872 0.10709 0.14084 0.0
N9 N 0.33424 0.07522 0.17547 0.0
C10 C 0.28742 0.05165 0.18429 0.0
C11 C 0.3852 0.09926 0.18222 0.0
C12 C 0.39045 0.09886 0.19839 0.0
C13 C 0.34283 0.07372 0.20776 0.0
C14 C 0.29079 0.05061 0.20052 0.0
Zn15 Zn 0.32815 0.07236 0.15161 0.0
O16 O 0.26004 0.99098 0.12731 0.0
C17 C 0.4086 0.04825 0.13698 0.0
O18 O 0.26748 0.9889 0.15266 0.0
H19 H 0.42192 0.11811 0.17504 0.0
H20 H 0.31851 0.99366 0.10368 0.0
H21 H 0.24727 0.0327 0.17871 0.0
O22 O 0.38746 0.05544 0.12473 0.0
O23 O 0.38986 0.05112 0.15018 0.0
H24 H 0.31302 0.14133 0.09713 0.0
O25 O 0.38682 0.15688 0.15024 0.0
O26 O 0.38294 0.16041 0.12468 0.0
O27 O 0.26806 0.09561 0.15274 0.0
O28 O 0.26202 0.09927 0.12728 0.0
C29 C 0.4007 0.18482 0.13771 0.0
H30 H 0.31505 0.97811 0.07554 0.0
H31 H 0.30897 0.12806 0.06842 0.0
H32 H 0.43142 0.11784 0.2035 0.0
H33 H 0.25301 0.03037 0.20728 0.0
C34 C 0.77571 0.58849 0.39362 0.0
N35 N 0.75503 0.6606 0.35327 0.0
C36 C 0.79768 0.65602 0.34725 0.0
C37 C 0.80062 0.64863 0.33125 0.0
C38 C 0.75935 0.64602 0.32129 0.0
C39 C 0.71669 0.65241 0.32779 0.0
C40 C 0.71525 0.65955 0.34386 0.0
Zn41 Zn 0.74718 0.66425 0.37698 0.0
C42 C 0.63342 0.57933 0.38723 0.0
N43 N 0.72619 0.66786 0.42635 0.0
C44 C 0.77 0.6792 0.43572 0.0
C45 C 0.67992 0.66596 0.43221 0.0
C46 C 0.67745 0.67797 0.44792 0.0
C47 C 0.72341 0.69301 0.45758 0.0
C48 C 0.76966 0.69244 0.4514 0.0
Zn49 Zn 0.73429 0.66301 0.40265 0.0
O50 O 0.76897 0.6027 0.38011 0.0
C51 C 0.84966 0.74265 0.39281 0.0
O52 O 0.76293 0.60674 0.40555 0.0
H53 H 0.64573 0.65737 0.42456 0.0
H54 H 0.82896 0.65703 0.35491 0.0
H55 H 0.80628 0.68018 0.43091 0.0
O56 O 0.83155 0.72406 0.37926 0.0
O57 O 0.81639 0.727 0.40422 0.0
H58 H 0.6815 0.66291 0.34887 0.0
O59 O 0.70848 0.72127 0.39931 0.0
O60 O 0.72793 0.72781 0.37437 0.0
O61 O 0.65288 0.59704 0.40073 0.0
O62 O 0.66313 0.60249 0.37533 0.0
C63 C 0.71274 0.74416 0.38621 0.0
H64 H 0.83469 0.64465 0.32673 0.0
H65 H 0.68368 0.65007 0.32061 0.0
H66 H 0.64116 0.67824 0.45227 0.0
H67 H 0.80569 0.70332 0.45855 0.0
C68 C 0.02635 0.28001 0.13917 0.0
N69 N 0.92238 0.22975 0.10025 0.0
C70 C 0.96343 0.27548 0.09311 0.0
C71 C 0.97393 0.27467 0.07727 0.0
C72 C 0.94256 0.22608 0.0686 0.0
C73 C 0.90037 0.1793 0.07619 0.0
C74 C 0.89069 0.18214 0.09211 0.0
Zn75 Zn 0.91424 0.23569 0.12395 0.0
C76 C 0.8938 0.13718 0.1415 0.0
N77 N 0.91055 0.25648 0.17334 0.0
C78 C 0.9486 0.30173 0.18142 0.0
C79 C 0.86741 0.21339 0.18075 0.0
C80 C 0.8607 0.21504 0.19679 0.0
C81 C 0.89901 0.26122 0.20542 0.0
C82 C 0.94378 0.30481 0.19759 0.0
Zn83 Zn 0.91649 0.25003 0.14965 0.0
O84 O -0.00023 0.26441 0.12641 0.0
C85 C 0.93079 0.3467 0.13258 0.0
O86 O 0.00163 0.28166 0.15139 0.0
H87 H 0.83803 0.17739 0.17423 0.0
H88 H 0.98904 0.31263 0.09978 0.0
H89 H 0.98267 0.33549 0.17533 0.0
O90 O 0.92851 0.31675 0.12113 0.0
O91 O 0.92779 0.32902 0.14636 0.0
H92 H 0.85843 0.14613 0.09798 0.0
O93 O 0.83041 0.21539 0.14749 0.0
O94 O 0.82769 0.20421 0.12207 0.0
O95 O 0.9035 0.17053 0.15269 0.0
O96 O 0.89717 0.15385 0.12755 0.0
C97 C 0.80272 0.19806 0.13495 0.0
H98 H 0.00746 0.31136 0.07196 0.0
H99 H 0.87513 0.14102 0.0699 0.0
H100 H 0.82609 0.18016 0.20241 0.0
H101 H 0.97408 0.34121 0.20385 0.0
C102 C 0.40012 0.1813 0.38766 0.0
N103 N 0.30996 0.05881 0.35457 0.0
C104 C 0.31067 0.09949 0.34564 0.0
C105 C 0.31413 0.09772 0.32939 0.0
C106 C 0.31729 0.05389 0.32233 0.0
C107 C 0.31366 0.01121 0.3318 0.0
C108 C 0.31001 0.0145 0.34792 0.0
Zn109 Zn 0.31762 0.06623 0.37839 0.0
C110 C 0.40824 0.04649 0.38918 0.0
N111 N 0.34002 0.08065 0.42791 0.0
C112 C 0.33337 0.11891 0.43601 0.0
C113 C 0.34652 0.04138 0.43545 0.0
C114 C 0.34506 0.03861 0.45169 0.0
C115 C 0.33587 0.07602 0.46038 0.0
C116 C 0.33082 0.11714 0.45228 0.0
Zn117 Zn 0.33242 0.07573 0.40406 0.0
O118 O 0.37696 0.14939 0.37614 0.0
C119 C 0.24671 0.10223 0.39344 0.0
O120 O 0.39073 0.16144 0.40139 0.0
H121 H 0.35133 0.01101 0.42885 0.0
H122 H 0.31084 0.1345 0.35114 0.0
H123 H 0.32815 0.14976 0.42984 0.0
O124 O 0.25675 0.0903 0.37997 0.0
O125 O 0.27045 0.0962 0.40527 0.0
H126 H 0.30942 0.98257 0.35518 0.0
O127 O 0.27238 0.99121 0.40619 0.0
O128 O 0.25679 0.98348 0.38104 0.0
O129 O 0.39585 0.05726 0.40243 0.0
O130 O 0.38043 0.04519 0.37731 0.0
C131 C 0.2451 0.96227 0.39454 0.0
H132 H 0.31706 0.1316 0.32252 0.0
H133 H 0.31507 0.97623 0.32682 0.0
H134 H 0.35043 0.00692 0.45733 0.0
H135 H 0.32299 0.14655 0.45835 0.0
C136 C 0.7149 0.73947 0.14446 0.0
N137 N 0.7391 0.67909 0.10228 0.0
C138 C 0.69524 0.67877 0.09522 0.0
C139 C 0.69468 0.68511 0.07907 0.0
C140 C 0.73995 0.69244 0.07007 0.0
C141 C 0.78555 0.69483 0.07781 0.0
C142 C 0.78403 0.6875 0.09391 0.0
Zn143 Zn 0.7368 0.66337 0.12572 0.0
C144 C 0.8465 0.7264 0.14111 0.0
N145 N 0.7315 0.63096 0.1747 0.0
C146 C 0.69302 0.63233 0.18414 0.0
C147 C 0.77182 0.62241 0.18065 0.0
C148 C 0.77504 0.61568 0.19665 0.0
C149 C 0.7364 0.61767 0.20673 0.0
C150 C 0.69473 0.62579 0.20025 0.0
Zn151 Zn 0.73257 0.64616 0.15124 0.0
O152 O 0.71862 0.72595 0.13056 0.0
C153 C 0.62428 0.57824 0.13641 0.0
O154 O 0.71801 0.71165 0.15571 0.0
H155 H 0.80233 0.62186 0.17301 0.0
H156 H 0.65999 0.67226 0.10207 0.0
H157 H 0.66132 0.63921 0.17919 0.0
O158 O 0.6512 0.60245 0.12418 0.0
O159 O 0.64835 0.59092 0.14955 0.0
H160 H 0.81848 0.68754 0.09968 0.0
O161 O 0.74973 0.58202 0.14608 0.0
O162 O 0.75646 0.60239 0.12119 0.0
O163 O 0.81684 0.70038 0.15269 0.0
O164 O 0.82369 0.72174 0.12793 0.0
C165 C 0.76037 0.57433 0.1322 0.0
H166 H 0.65831 0.68239 0.07369 0.0
H167 H 0.822 0.70167 0.0715 0.0
H168 H 0.80841 0.61038 0.2011 0.0
H169 H 0.66367 0.62697 0.20754 0.0
C170 C 0.80509 0.22196 0.38767 0.0
N171 N 0.91655 0.25094 0.35201 0.0
C172 C 0.87218 0.20818 0.34485 0.0
C173 C 0.86555 0.20828 0.32877 0.0
C174 C 0.90485 0.25282 0.31986 0.0
C175 C 0.95154 0.29532 0.32742 0.0
C176 C 0.9565 0.29365 0.34362 0.0
Zn177 Zn 0.91756 0.25201 0.37594 0.0
C178 C 0.94431 0.36159 0.38895 0.0
N179 N 0.91224 0.25248 0.42589 0.0
C180 C 0.87439 0.20794 0.43418 0.0
C181 C 0.9552 0.29649 0.43316 0.0
C182 C 0.96235 0.29607 0.44924 0.0
C183 C 0.92557 0.24952 0.45794 0.0
C184 C 0.88058 0.2054 0.45027 0.0
Zn185 Zn 0.91095 0.25143 0.4019 0.0
O186 O 0.83541 0.23166 0.37577 0.0
C187 C 0.87676 0.14013 0.3895 0.0
O188 O 0.82638 0.22949 0.4012 0.0
H189 H 0.98537 0.33119 0.4264 0.0
H190 H 0.8408 0.17459 0.35168 0.0
H191 H 0.84043 0.17343 0.42824 0.0
O192 O 0.89007 0.16518 0.37648 0.0
O193 O 0.88483 0.16765 0.40195 0.0
H194 H -0.00864 0.32733 0.34954 0.0
O195 O -0.00609 0.2705 0.40194 0.0
O196 O 5e-05 0.27038 0.37644 0.0
O197 O 0.93505 0.33467 0.40153 0.0
O198 O 0.94139 0.33785 0.37603 0.0
C199 C 0.02165 0.27478 0.38977 0.0
H200 H 0.8294 0.17415 0.32339 0.0
H201 H 0.9827 0.33054 0.32099 0.0
H202 H -0.0021 0.33065 0.4547 0.0
H203 H 0.85113 0.1689 0.45662 0.0
C204 C 0.17538 0.39943 0.63512 0.0
N205 N 0.07296 0.33305 0.67399 0.0
C206 C 0.11697 0.33341 0.68093 0.0
C207 C 0.12393 0.33938 0.69705 0.0
C208 C 0.08508 0.34472 0.70618 0.0
C209 C 0.03931 0.34283 0.69877 0.0
C210 C 0.03416 0.33718 0.68257 0.0
Zn211 Zn 0.06626 0.32811 0.65015 0.0
C212 C 0.04169 0.41172 0.63706 0.0
N213 N 0.05349 0.3194 0.60028 0.0
C214 C 0.08702 0.30787 0.59145 0.0
C215 C 0.01079 0.32271 0.59372 0.0
C216 C -0.00028 0.31308 0.5778 0.0
C217 C 0.03215 0.29879 0.56858 0.0
C218 C 0.07669 0.29685 0.57552 0.0
Zn219 Zn 0.06209 0.32554 0.62415 0.0
O220 O 0.15014 0.38388 0.64803 0.0
C221 C 0.09447 0.24757 0.63686 0.0
O222 O 0.14812 0.3848 0.62243 0.0
H223 H 0.98407 0.33113 0.60091 0.0
H224 H 0.14714 0.32963 0.67394 0.0
H225 H 0.12091 0.30568 0.59682 0.0
O226 O 0.08625 0.2639 0.6499 0.0
O227 O 0.08393 0.26457 0.62434 0.0
H228 H -0.00049 0.33687 0.67684 0.0
O229 O 0.97773 0.26427 0.6264 0.0
O230 O 0.98245 0.27019 0.65189 0.0
O231 O 0.04264 0.38857 0.62443 0.0
O232 O 0.04962 0.39421 0.64991 0.0
C233 C 0.95481 0.24795 0.63961 0.0
H234 H 0.15941 0.33983 0.70232 0.0
H235 H 0.00864 0.34722 0.70536 0.0
H236 H 0.96466 0.31444 0.57288 0.0
H237 H 0.10281 0.28624 0.56874 0.0
C238 C 0.27436 0.02253 0.88935 0.0
N239 N 0.24865 0.92097 0.9277 0.0
C240 C 0.29503 0.96774 0.93248 0.0
C241 C 0.30556 0.98051 0.94818 0.0
C242 C 0.26841 0.94488 0.95939 0.0
C243 C 0.21994 0.89727 0.9543 0.0
C244 C 0.21087 0.88588 0.93824 0.0
Zn245 Zn 0.24411 0.91235 0.90377 0.0
C246 C 0.13717 0.88019 0.88969 0.0
N247 N 0.25171 0.91316 0.85389 0.0
C248 C 0.29515 0.95632 0.84661 0.0
C249 C 0.20907 0.87256 0.84556 0.0
C250 C 0.20828 0.87562 0.82929 0.0
C251 C 0.25157 0.92109 0.82159 0.0
C252 C 0.29592 0.96108 0.83046 0.0
Zn253 Zn 0.25097 0.91499 0.8778 0.0
O254 O 0.26537 -0.00292 0.90221 0.0
C255 C 0.35605 0.93904 0.89136 0.0
O256 O 0.27311 -0.00224 0.87687 0.0
H257 H 0.1749 0.83859 0.85156 0.0
H258 H 0.32455 -0.00435 0.92407 0.0
H259 H 0.32877 0.98812 0.85338 0.0
O260 O 0.3286 0.93212 0.90376 0.0
O261 O 0.3336 0.93596 0.8783 0.0
H262 H 0.17405 0.84905 0.93424 0.0
O263 O 0.22615 0.83131 0.87894 0.0
O264 O 0.21898 0.82698 0.90454 0.0
O265 O 0.16732 0.8916 0.87764 0.0
O266 O 0.15911 0.88849 0.90316 0.0
C267 C 0.21234 0.80303 0.89141 0.0
H268 H 0.34279 0.0183 0.95151 0.0
H269 H 0.19017 0.86873 0.9626 0.0
H270 H 0.17322 0.844 0.82287 0.0
H271 H 0.33056 -0.00367 0.82497 0.0
C272 C 0.57554 0.77802 0.63667 0.0
N273 N 0.64149 0.72996 0.67349 0.0
C274 C 0.64159 0.77083 0.68223 0.0
C275 C 0.63731 0.76632 0.69846 0.0
C276 C 0.63249 0.71911 0.7058 0.0
C277 C 0.63295 0.67784 0.69648 0.0
C278 C 0.63759 0.68415 0.68032 0.0
Zn279 Zn 0.64791 0.73707 0.64958 0.0
C280 C 0.56816 0.63445 0.63358 0.0
N281 N 0.66123 0.75352 0.59981 0.0
C282 C 0.67191 0.8002 0.59195 0.0
C283 C 0.65803 0.70914 0.5922 0.0
C284 C 0.66585 0.71054 0.57613 0.0
C285 C 0.67807 0.75843 0.56775 0.0
C286 C 0.68089 0.80368 0.57583 0.0
Zn287 Zn 0.65361 0.74788 0.62368 0.0
O288 O 0.58913 0.7626 0.64901 0.0
C289 C 0.72841 0.85184 0.6401 0.0
O290 O 0.594 0.77334 0.62355 0.0
H291 H 0.65064 0.6728 0.59863 0.0
H292 H 0.64472 0.80696 0.67661 0.0
H293 H 0.67445 0.83511 0.59819 0.0
O294 O 0.70845 0.82007 0.65177 0.0
O295 O 0.71502 0.83196 0.62641 0.0
H296 H 0.63802 0.65231 0.67322 0.0
O297 O 0.71582 0.72541 0.62441 0.0
O298 O 0.70852 0.7145 0.64975 0.0
O299 O 0.58955 0.6643 0.62161 0.0
O300 O 0.58602 0.65444 0.64702 0.0
C301 C 0.73208 0.71481 0.63709 0.0
H302 H 0.63664 0.7989 0.70517 0.0
H303 H 0.63015 0.64111 0.70164 0.0
H304 H 0.66426 0.67513 0.57041 0.0
H305 H 0.69015 0.84136 0.56976 0.0
C306 C 0.95935 0.24288 0.89003 0.0
N307 N 0.07118 0.31762 0.92664 0.0
C308 C 0.03035 0.32164 0.93415 0.0
C309 C 0.0211 0.31009 0.95003 0.0
C310 C 0.05356 0.29336 0.95831 0.0
C311 C 0.09651 0.29108 0.95041 0.0
C312 C 0.10485 0.30375 0.93452 0.0
Zn313 Zn 0.07356 0.32359 0.90267 0.0
C314 C 0.09947 0.24461 0.88744 0.0
N315 N 0.06526 0.32763 0.85288 0.0
C316 C 0.02603 0.33164 0.84446 0.0
C317 C 0.1096 0.32923 0.84575 0.0
C318 C 0.11669 0.33656 0.82972 0.0
C319 C 0.0779 0.34241 0.82077 0.0
C320 C 0.03144 0.33885 0.82827 0.0
Zn321 Zn 0.06336 0.32276 0.8768 0.0
O322 O 0.98859 0.26394 0.90217 0.0
C323 C 0.04428 0.40681 0.89153 0.0
O324 O 0.98035 0.26076 0.8767 0.0
H325 H 0.14036 0.32583 0.85254 0.0
H326 H 0.00322 0.33158 0.92769 0.0
H327 H -0.00888 0.33035 0.85034 0.0
O328 O 0.05618 0.38909 0.90371 0.0
O329 O 0.04171 0.38422 0.87846 0.0
H330 H 0.13698 0.30058 0.92838 0.0
O331 O 0.14727 0.38322 0.87727 0.0
O332 O 0.15907 0.38166 0.90252 0.0
O333 O 0.08691 0.2628 0.87552 0.0
O334 O 0.09394 0.26013 0.9009 0.0
C335 C 0.1791 0.39893 0.88904 0.0
H336 H 0.98711 0.3117 0.9556 0.0
H337 H 0.12276 0.27875 0.95641 0.0
H338 H 0.15258 0.33802 0.8244 0.0
H339 H 0.00064 0.34331 0.82177 0.0
C340 C 0.2049 0.80871 0.63439 0.0
N341 N 0.2459 0.91093 0.67464 0.0
C342 C 0.20437 0.86993 0.68311 0.0
C343 C 0.20526 0.87279 0.69942 0.0
C344 C 0.24914 0.91841 0.70697 0.0
C345 C 0.29269 0.95835 0.69792 0.0
C346 C 0.29018 0.95389 0.68176 0.0
Zn347 Zn 0.24134 0.91583 0.65087 0.0
C348 C 0.34804 0.94531 0.63584 0.0
N349 N 0.23576 0.93195 0.60139 0.0
C350 C 0.26139 0.914 0.5914 0.0
C351 C 0.21502 0.96415 0.59631 0.0
C352 C 0.22309 0.98274 0.58095 0.0
C353 C 0.25223 0.9676 0.57062 0.0
C354 C 0.26978 0.93116 0.57583 0.0
Zn355 Zn 0.23781 0.92165 0.62503 0.0
O356 O 0.218 0.83092 0.64787 0.0
C357 C 0.12941 0.88531 0.64053 0.0
O358 O 0.21122 0.83847 0.62253 0.0
H359 H 0.19475 0.97797 0.6044 0.0
H360 H 0.16947 0.83618 0.67723 0.0
H361 H 0.27789 0.88873 0.59569 0.0
O362 O 0.15848 0.89087 0.65247 0.0
O363 O 0.15247 0.89909 0.62721 0.0
H364 H 0.32275 0.98614 0.67487 0.0
O365 O 0.26358 0.0053 0.62791 0.0
O366 O 0.26103 -0.00064 0.65334 0.0
O367 O 0.32126 0.94034 0.6234 0.0
O368 O 0.32468 0.93938 0.64892 0.0
C369 C 0.26835 0.02761 0.64111 0.0
H370 H 0.1708 0.84118 0.70598 0.0
H371 H 0.32777 0.99368 0.70329 0.0
H372 H 0.20834 0.01027 0.57731 0.0
H373 H 0.2926 0.91874 0.56822 0.0
C374 C 0.74105 0.70709 0.88937 0.0
N375 N 0.65741 0.72682 0.92669 0.0
C376 C 0.65109 0.67807 0.93204 0.0
C377 C 0.65982 0.67173 0.94766 0.0
C378 C 0.6764 0.71624 0.95802 0.0
C379 C 0.67966 0.76522 0.95248 0.0
C380 C 0.66998 0.76969 0.93664 0.0
Zn381 Zn 0.65824 0.73412 0.90279 0.0
C382 C 0.7415 0.84657 0.89223 0.0
N383 N 0.66657 0.74352 0.85275 0.0
C384 C 0.66491 0.69929 0.84548 0.0
C385 C 0.66421 0.78379 0.84439 0.0
C386 C 0.65773 0.77911 0.82814 0.0
C387 C 0.65322 0.73233 0.82052 0.0
C388 C 0.65833 0.69295 0.8294 0.0
Zn389 Zn 0.66525 0.74112 0.87679 0.0
O390 O 0.71907 0.70935 0.90209 0.0
C391 C 0.57627 0.63052 0.88757 0.0
O392 O 0.72451 0.71693 0.87667 0.0
H393 H 0.66545 0.81859 0.85036 0.0
H394 H 0.64208 0.64466 0.92403 0.0
H395 H 0.66674 0.66757 0.85223 0.0
O396 O 0.59283 0.65213 0.90091 0.0
O397 O 0.60085 0.6582 0.87553 0.0
H398 H 0.67521 0.80828 0.93219 0.0
O399 O 0.60785 0.76752 0.87739 0.0
O400 O 0.60034 0.76298 0.90296 0.0
O401 O 0.72793 0.8254 0.87866 0.0
O402 O 0.72088 0.81612 0.90413 0.0
C403 C 0.58881 0.7762 0.88985 0.0
H404 H 0.65568 0.63281 0.95146 0.0
H405 H 0.69241 0.80061 0.96008 0.0
H406 H 0.65388 0.8104 0.82172 0.0
H407 H 0.65606 0.65674 0.82398 0.0
H408 H 0.0781 0.25284 0.11682 0.0
H409 H 0.09184 0.30518 0.16505 0.0
H410 H 0.15805 0.27304 0.16996 0.0
H411 H 0.0679 0.13193 0.1237 0.0
H412 H 0.10798 0.12947 0.10758 0.0
H413 H 0.07464 0.17017 0.10613 0.0
H414 H 0.16791 0.2585 0.10006 0.0
H415 H 0.2016 0.21773 0.10079 0.0
H416 H 0.22627 0.27864 0.11282 0.0
H417 H 0.20188 0.21528 0.17133 0.0
H418 H 0.23776 0.15153 0.16793 0.0
H419 H 0.19644 0.13609 0.1187 0.0
C420 C 0.09721 0.26025 0.12821 0.0
C421 C 0.07958 0.28122 0.14059 0.0
C422 C 0.1048 0.28931 0.1554 0.0
C423 C 0.14228 0.27092 0.15832 0.0
C424 C 0.15468 0.24556 0.14623 0.0
C425 C 0.13439 0.24179 0.13133 0.0
C426 C 0.14897 0.20705 0.12089 0.0
C427 C 0.09676 0.1567 0.11419 0.0
C428 C 0.18856 0.24261 0.10787 0.0
C429 C 0.17783 0.18935 0.13249 0.0
C430 C 0.18094 0.21235 0.14699 0.0
C431 C 0.2012 0.1983 0.15994 0.0
C432 C 0.22071 0.16132 0.1579 0.0
C433 C 0.22 0.13886 0.14301 0.0
C434 C 0.19778 0.15279 0.13019 0.0
H435 H 0.16907 0.89913 0.37251 0.0
H436 H 0.20029 0.91188 0.4223 0.0
H437 H 0.10097 0.84948 0.42705 0.0
H438 H 0.05906 0.91341 0.37366 0.0
H439 H 0.01832 0.86481 0.35861 0.0
H440 H 0.09243 0.89676 0.3583 0.0
H441 H 0.08636 0.80102 0.35822 0.0
H442 H 0.01193 0.76835 0.35781 0.0
H443 H 0.04549 0.75053 0.3728 0.0
H444 H -0.00079 0.80721 0.42672 0.0
H445 H 0.90025 0.76938 0.42122 0.0
H446 H 0.93434 0.78357 0.37156 0.0
C447 C 0.15549 0.88659 0.38437 0.0
C448 C 0.19226 0.9107 0.39704 0.0
C449 C 0.17283 0.89388 0.41241 0.0
C450 C 0.1164 0.85864 0.41524 0.0
C451 C 0.08049 0.83991 0.40254 0.0
C452 C 0.09931 0.85167 0.38737 0.0
C453 C 0.05178 0.8316 0.37592 0.0
C454 C 0.05568 0.87952 0.36606 0.0
C455 C 0.0487 0.78509 0.36558 0.0
C456 C 0.0036 0.80972 0.38708 0.0
C457 C 0.02106 0.81458 0.40236 0.0
C458 C 0.98478 0.80161 0.4148 0.0
C459 C 0.92874 0.78093 0.41154 0.0
C460 C 0.90956 0.77332 0.39594 0.0
C461 C 0.94773 0.78866 0.38359 0.0
H462 H 0.84882 0.05079 0.12081 0.0
H463 H 0.87957 0.08948 0.17011 0.0
H464 H 0.82224 0.99043 0.17639 0.0
H465 H 0.70717 0.94101 0.12449 0.0
H466 H 0.71275 0.89884 0.10947 0.0
H467 H 0.7552 0.9732 0.10866 0.0
H468 H 0.84427 0.96583 0.1075 0.0
H469 H 0.8019 0.89162 0.10772 0.0
H470 H 0.85549 0.92619 0.12213 0.0
H471 H 0.76307 0.88796 0.17738 0.0
H472 H 0.72093 0.78766 0.17274 0.0
H473 H 0.72684 0.81613 0.12288 0.0
C474 C 0.84412 0.03841 0.13292 0.0
C475 C 0.86858 0.0778 0.14496 0.0
C476 C 0.86126 0.05994 0.16067 0.0
C477 C 0.8282 0.00389 0.16438 0.0
C478 C 0.80276 0.9664 0.15226 0.0
C479 C 0.81117 0.9827 0.13685 0.0
C480 C 0.78175 0.93372 0.126 0.0
C481 C 0.73653 0.93691 0.1166 0.0
C482 C 0.82332 0.92905 0.11522 0.0
C483 C 0.7568 0.88718 0.13774 0.0
C484 C 0.76838 0.907 0.15284 0.0
C485 C 0.75331 0.87179 0.16563 0.0
C486 C 0.72904 0.81485 0.16288 0.0
C487 C 0.72095 0.79419 0.14745 0.0
C488 C 0.73203 0.83058 0.13481 0.0
H489 H 0.1899 0.12494 0.37113 0.0
H490 H 0.23497 0.14796 0.42016 0.0
H491 H 0.19595 0.20915 0.42301 0.0
H492 H 0.21492 0.26398 0.3637 0.0
H493 H 0.15532 0.24085 0.35124 0.0
H494 H 0.19015 0.20126 0.35247 0.0
H495 H 0.09834 0.11356 0.36035 0.0
H496 H 0.06317 0.15252 0.35866 0.0
H497 H 0.05935 0.11724 0.37658 0.0
H498 H 0.15115 0.2656 0.42106 0.0
H499 H 0.08641 0.29922 0.41559 0.0
H500 H 0.06849 0.23948 0.36803 0.0
C501 C 0.19128 0.14266 0.38247 0.0
C502 C 0.21579 0.13188 0.39537 0.0
C503 C 0.21645 0.15554 0.41006 0.0
C504 C 0.19503 0.19099 0.41179 0.0
C505 C 0.17281 0.20219 0.39876 0.0
C506 C 0.16955 0.17785 0.38447 0.0
C507 C 0.13898 0.19312 0.37273 0.0
C508 C 0.17714 0.22681 0.35924 0.0
C509 C 0.08687 0.14103 0.36674 0.0
C510 C 0.12444 0.22865 0.38282 0.0
C511 C 0.14566 0.23441 0.39768 0.0
C512 C 0.1346 0.26188 0.40944 0.0
C513 C 0.09803 0.28107 0.40621 0.0
C514 C 0.07264 0.27202 0.39139 0.0
C515 C 0.08819 0.248 0.37936 0.0
H516 H 0.16228 0.92334 0.11805 0.0
H517 H 0.20365 0.89149 0.16417 0.0
H518 H 0.10608 0.82027 0.1683 0.0
H519 H 0.04539 0.92172 0.12838 0.0
H520 H 0.00482 0.88814 0.11127 0.0
H521 H 0.07909 0.92695 0.11003 0.0
H522 H 0.08109 0.84133 0.09915 0.0
H523 H 0.00653 0.80245 0.09987 0.0
H524 H 0.04634 0.77669 0.1096 0.0
H525 H 0.00441 0.76773 0.16952 0.0
H526 H 0.90392 0.72621 0.16666 0.0
H527 H 0.92649 0.79167 0.11966 0.0
C528 C 0.15131 0.89951 0.12872 0.0
C529 C 0.19052 0.91254 0.14077 0.0
C530 C 0.1743 0.88178 0.15476 0.0
C531 C 0.11897 0.84138 0.15722 0.0
C532 C 0.08068 0.83215 0.14552 0.0
C533 C 0.09613 0.8594 0.1314 0.0
C534 C 0.04598 0.84618 0.12149 0.0
C535 C 0.04373 0.89889 0.11757 0.0
C536 C 0.04492 0.81477 0.10665 0.0
C537 C -5e-05 0.80914 0.13252 0.0
C538 C 0.02108 0.80139 0.14625 0.0
C539 C 0.98726 0.77236 0.1587 0.0
C540 C 0.93017 0.74947 0.15699 0.0
C541 C 0.90724 0.75561 0.14289 0.0
C542 C 0.94276 0.78603 0.13052 0.0
H543 H 0.76229 0.82656 0.36467 0.0
H544 H 0.66664 0.7818 0.4074 0.0
H545 H 0.69161 0.8791 0.41117 0.0
H546 H 0.87153 0.94077 0.37816 0.0
H547 H 0.88762 0.98377 0.36112 0.0
H548 H 0.85161 0.90966 0.35911 0.0
H549 H 0.77092 0.91089 0.3446 0.0
H550 H 0.80747 0.98542 0.34605 0.0
H551 H 0.73767 0.94561 0.35327 0.0
H552 H 0.74317 0.98007 0.41369 0.0
H553 H 0.80659 0.08042 0.41269 0.0
H554 H 0.86889 0.06266 0.36798 0.0
C555 C 0.7442 0.83677 0.37437 0.0
C556 C 0.7123 0.7967 0.38572 0.0
C557 C 0.69084 0.81185 0.39853 0.0
C558 C 0.70492 0.86704 0.40079 0.0
C559 C 0.73989 0.90625 0.39002 0.0
C560 C 0.75814 0.89185 0.37682 0.0
C561 C 0.80036 0.94289 0.36806 0.0
C562 C 0.85604 0.94431 0.36654 0.0
C563 C 0.77774 0.94641 0.35205 0.0
C564 C 0.80513 0.98803 0.37887 0.0
C565 C 0.76957 0.96576 0.39139 0.0
C566 C 0.77008 -0.0018 0.40375 0.0
C567 C 0.80695 0.05514 0.40316 0.0
C568 C 0.84274 0.07932 0.39024 0.0
C569 C 0.84167 0.04527 0.37791 0.0
H570 H 0.22212 0.0621 0.66315 0.0
H571 H 0.31246 0.10933 0.61955 0.0
H572 H 0.28423 0.17888 0.61533 0.0
H573 H 0.10997 0.05951 0.65047 0.0
H574 H 0.09386 0.08833 0.66712 0.0
H575 H 0.13323 0.05396 0.66963 0.0
H576 H 0.21334 0.14103 0.68264 0.0
H577 H 0.17333 0.17529 0.68082 0.0
H578 H 0.24238 0.20703 0.67294 0.0
H579 H 0.22742 0.22185 0.6122 0.0
H580 H 0.1603 0.25407 0.6129 0.0
H581 H 0.10708 0.18297 0.65897 0.0
C582 C 0.23872 0.08952 0.65323 0.0
C583 C 0.26969 0.08084 0.6417 0.0
C584 C 0.28906 0.11585 0.62854 0.0
C585 C 0.27305 0.15527 0.62603 0.0
C586 C 0.2384 0.15951 0.63691 0.0
C587 C 0.22283 0.12905 0.65053 0.0
C588 C 0.18 0.13688 0.6593 0.0
C589 C 0.12611 0.08136 0.66176 0.0
C590 C 0.20369 0.16686 0.67485 0.0
C591 C 0.17144 0.17346 0.64797 0.0
C592 C 0.20581 0.18605 0.6352 0.0
C593 C 0.20156 0.21388 0.62235 0.0
C594 C 0.16249 0.2311 0.62276 0.0
C595 C 0.12841 0.2209 0.636 0.0
C596 C 0.13289 0.19157 0.64876 0.0
H597 H 0.05567 0.85967 0.91129 0.0
H598 H 0.08187 0.82473 0.8637 0.0
H599 H 0.98237 0.76036 0.86076 0.0
H600 H 0.94057 0.72066 0.92068 0.0
H601 H 0.90285 0.74671 0.93142 0.0
H602 H 0.97742 0.78615 0.93073 0.0
H603 H 0.97407 0.87131 0.91995 0.0
H604 H 0.89979 0.83256 0.92108 0.0
H605 H 0.93307 0.86322 0.90287 0.0
H606 H 0.88142 0.70435 0.86202 0.0
H607 H 0.78283 0.67411 0.86579 0.0
H608 H 0.81907 0.74477 0.91227 0.0
C609 C 0.04032 0.83839 0.90028 0.0
C610 C 0.0766 0.84726 0.88776 0.0
C611 C 0.05496 0.81905 0.87346 0.0
C612 C -0.00149 0.78162 0.87172 0.0
C613 C 0.96397 0.77292 0.88433 0.0
C614 C 0.98363 0.80127 0.89823 0.0
C615 C 0.93646 0.78878 0.90926 0.0
C616 C 0.93953 0.75878 0.92389 0.0
C617 C 0.9358 0.84212 0.91353 0.0
C618 C 0.88737 0.7505 0.89915 0.0
C619 C 0.90445 0.74072 0.88499 0.0
C620 C 0.86729 0.71095 0.87312 0.0
C621 C 0.81137 0.69366 0.87539 0.0
C622 C 0.79349 0.7067 0.88935 0.0
C623 C 0.83146 0.73287 0.90167 0.0
H624 H 0.78315 0.93366 0.61839 0.0
H625 H 0.73952 0.90618 0.66743 0.0
H626 H 0.77766 0.0062 0.67119 0.0
H627 H 0.91255 0.05565 0.62413 0.0
H628 H 0.90795 0.0887 0.60662 0.0
H629 H 0.87272 0.01441 0.60775 0.0
H630 H 0.78067 0.01109 0.60066 0.0
H631 H 0.81564 0.08569 0.60002 0.0
H632 H 0.75658 0.04805 0.61256 0.0
H633 H 0.82331 0.10809 0.67012 0.0
H634 H 0.88988 0.20666 0.66542 0.0
H635 H 0.90437 0.16907 0.61716 0.0
C636 C 0.78176 0.94875 0.62992 0.0
C637 C 0.7583 0.91215 0.64259 0.0
C638 C 0.75757 0.93346 0.65754 0.0
C639 C 0.77834 0.99014 0.65976 0.0
C640 C 0.79978 0.02493 0.64695 0.0
C641 C 0.80272 0.00533 0.63239 0.0
C642 C 0.83283 0.05225 0.62096 0.0
C643 C 0.88458 0.0528 0.6145 0.0
C644 C 0.79409 0.04905 0.60777 0.0
C645 C 0.84789 0.10133 0.63153 0.0
C646 C 0.82707 0.0845 0.64636 0.0
C647 C 0.83942 0.12198 0.65853 0.0
C648 C 0.87705 0.17791 0.65572 0.0
C649 C 0.90222 0.19539 0.64094 0.0
C650 C 0.88499 0.15709 0.6285 0.0
H651 H 0.12268 0.18736 0.9094 0.0
H652 H 0.14768 0.23688 0.86078 0.0
H653 H 0.21091 0.20022 0.8578 0.0
H654 H 0.26227 0.21363 0.91738 0.0
H655 H 0.23884 0.15274 0.92928 0.0
H656 H 0.19879 0.18714 0.92827 0.0
H657 H 0.1122 0.09571 0.91944 0.0
H658 H 0.1516 0.06097 0.92092 0.0
H659 H 0.11741 0.05869 0.9029 0.0
H660 H 0.26891 0.15704 0.85957 0.0
H661 H 0.30209 0.09161 0.86442 0.0
H662 H 0.23849 0.06724 0.91162 0.0
C663 C 0.14136 0.19027 0.89813 0.0
C664 C 0.13039 0.21509 0.88536 0.0
C665 C 0.1552 0.21777 0.87074 0.0
C666 C 0.1919 0.19786 0.86897 0.0
C667 C 0.20309 0.17506 0.88187 0.0
C668 C 0.17761 0.16984 0.89607 0.0
C669 C 0.19251 0.13831 0.90757 0.0
C670 C 0.22504 0.17518 0.92145 0.0
C671 C 0.14035 0.08527 0.91301 0.0
C672 C 0.22903 0.12533 0.89743 0.0
C673 C 0.23584 0.14842 0.88281 0.0
C674 C 0.26433 0.139 0.87101 0.0
C675 C 0.28326 0.10199 0.87389 0.0
C676 C 0.27274 0.07435 0.88838 0.0
C677 C 0.24799 0.08851 0.90054 0.0
H678 H 0.0504 0.8694 0.61856 0.0
H679 H 0.07101 0.82848 0.66599 0.0
H680 H 0.97087 0.76582 0.66806 0.0
H681 H 0.92785 0.87463 0.6264 0.0
H682 H 0.89636 0.84616 0.6078 0.0
H683 H 0.97051 0.88403 0.60962 0.0
H684 H 0.97396 0.79948 0.59829 0.0
H685 H 0.8995 0.76086 0.59689 0.0
H686 H 0.93545 0.73302 0.60767 0.0
H687 H 0.86976 0.7106 0.66576 0.0
H688 H 0.77165 0.68021 0.66095 0.0
H689 H 0.81421 0.7569 0.61529 0.0
C690 C 0.03373 0.84728 0.62937 0.0
C691 C 0.06864 0.85376 0.64206 0.0
C692 C 0.04523 0.82447 0.65608 0.0
C693 C 0.98837 0.78807 0.65733 0.0
C694 C 0.95526 0.78152 0.64452 0.0
C695 C 0.97668 0.8111 0.63092 0.0
C696 C 0.93095 0.80038 0.61952 0.0
C697 C 0.93144 0.8545 0.61562 0.0
C698 C 0.93524 0.77172 0.60472 0.0
C699 C 0.88063 0.76147 0.62907 0.0
C700 C 0.89583 0.75004 0.64328 0.0
C701 C 0.85711 0.7187 0.65462 0.0
C702 C 0.80146 0.70139 0.65176 0.0
C703 C 0.78539 0.71609 0.63775 0.0
C704 C 0.82512 0.74404 0.62597 0.0
H705 H 0.90846 0.1633 0.86775 0.0
H706 H 0.89634 0.20177 0.91608 0.0
H707 H 0.83265 0.10295 0.92124 0.0
H708 H 0.7606 0.03817 0.86452 0.0
H709 H 0.78525 0.00267 0.85222 0.0
H710 H 0.81754 0.07708 0.85141 0.0
H711 H 0.91225 0.08434 0.85678 0.0
H712 H 0.88031 0.01035 0.85833 0.0
H713 H 0.92139 0.05386 0.87422 0.0
H714 H 0.79201 0.00214 0.92277 0.0
H715 H 0.75672 0.90261 0.91944 0.0
H716 H 0.7926 0.92743 0.8699 0.0
C717 C 0.88991 0.1513 0.87919 0.0
C718 C 0.90726 0.18999 0.89153 0.0
C719 C 0.88338 0.17267 0.90647 0.0
C720 C 0.84738 0.11661 0.90952 0.0
C721 C 0.8351 0.07885 0.89745 0.0
C722 C 0.85397 0.09538 0.88243 0.0
C723 C 0.83936 0.04596 0.87201 0.0
C724 C 0.79822 0.04065 0.85929 0.0
C725 C 0.89144 0.04885 0.86493 0.0
C726 C 0.81229 -0.00046 0.88374 0.0
C727 C 0.81017 0.01956 0.8983 0.0
C728 C 0.79173 0.98563 0.91133 0.0
C729 C 0.77254 0.92919 0.90933 0.0
C730 C 0.77156 0.90711 0.89437 0.0
C731 C 0.79251 0.94302 0.88146 0.0
H732 H 0.26903 0.07863 0.29786 0.0
H733 H 0.39145 0.03089 0.30853 0.0
H734 H 0.41141 0.03156 0.28056 0.0
H735 H 0.21676 -0.00355 0.26296 0.0
H736 H 0.20702 0.04722 0.25267 0.0
H737 H 0.20248 0.04369 0.2736 0.0
H738 H 0.27794 0.14729 0.27545 0.0
H739 H 0.28268 0.15114 0.25452 0.0
H740 H 0.34377 0.1709 0.26606 0.0
H741 H 0.419 0.03796 0.25163 0.0
H742 H 0.41159 0.04686 0.22329 0.0
H743 H 0.28418 0.09023 0.23098 0.0
C744 C 0.30017 0.06856 0.29429 0.0
C745 C 0.32843 0.05434 0.30539 0.0
C746 C 0.36864 0.04103 0.30024 0.0
C747 C 0.38056 0.04165 0.28438 0.0
C748 C 0.35186 0.05556 0.27375 0.0
C749 C 0.31236 0.06859 0.27844 0.0
C750 C 0.28704 0.08124 0.26452 0.0
C751 C 0.22463 0.03966 0.26337 0.0
C752 C 0.29857 0.14121 0.26518 0.0
C753 C 0.31856 0.07331 0.25132 0.0
C754 C 0.35591 0.05878 0.25695 0.0
C755 C 0.39 0.04944 0.24707 0.0
C756 C 0.38572 0.05494 0.23099 0.0
C757 C 0.34751 0.06948 0.2249 0.0
C758 C 0.31351 0.0787 0.23527 0.0
H759 H 0.73486 0.69345 0.29667 0.0
H760 H 0.7835 0.57184 0.3076 0.0
H761 H 0.78183 0.55069 0.27963 0.0
H762 H 0.64067 0.61642 0.26556 0.0
H763 H 0.65914 0.67674 0.25382 0.0
H764 H 0.66461 0.68283 0.27472 0.0
H765 H 0.76787 0.75859 0.27234 0.0
H766 H 0.76265 0.7529 0.25144 0.0
H767 H 0.81445 0.74408 0.26147 0.0
H768 H 0.77358 0.54168 0.25051 0.0
H769 H 0.76234 0.54761 0.22221 0.0
H770 H 0.7199 0.67573 0.23012 0.0
C771 C 0.7449 0.66217 0.2932 0.0
C772 C 0.75951 0.63444 0.30437 0.0
C773 C 0.773 0.59425 0.29928 0.0
C774 C 0.77176 0.58163 0.28341 0.0
C775 C 0.75699 0.60956 0.27274 0.0
C776 C 0.744 0.64915 0.27739 0.0
C777 C 0.73005 0.6735 0.26352 0.0
C778 C 0.67005 0.66164 0.26447 0.0
C779 C 0.77122 0.73597 0.26211 0.0
C780 C 0.73716 0.64136 0.25035 0.0
C781 C 0.75257 0.60461 0.25593 0.0
C782 C 0.76176 0.5705 0.246 0.0
C783 C 0.75554 0.57439 0.22992 0.0
C784 C 0.74044 0.61228 0.22388 0.0
C785 C 0.73082 0.64586 0.23433 0.0
H786 H 0.97661 0.28937 0.22869 0.0
H787 H 0.80377 0.237 0.22057 0.0
H788 H 0.78811 0.23367 0.24891 0.0
H789 H 0.95437 0.20257 0.2611 0.0
H790 H 0.01499 0.25188 0.27172 0.0
H791 H 0.01412 0.25449 0.25078 0.0
H792 H 0.03807 0.35697 0.25202 0.0
H793 H 0.03925 0.35475 0.27298 0.0
H794 H -0.00498 0.37522 0.26329 0.0
H795 H 0.78955 0.23111 0.27782 0.0
H796 H 0.80794 0.2298 0.30582 0.0
H797 H 0.97977 0.28282 0.29568 0.0
C798 C 0.93577 0.27821 0.23292 0.0
C799 C 0.89134 0.26344 0.22245 0.0
C800 C 0.83823 0.24805 0.22839 0.0
C801 C 0.829 0.2463 0.24446 0.0
C802 C 0.87333 0.26011 0.25447 0.0
C803 C 0.92572 0.27593 0.24898 0.0
C804 C 0.9654 0.28609 0.26233 0.0
C805 C 0.98856 0.24638 0.26142 0.0
C806 C 0.0122 0.34688 0.26267 0.0
C807 C 0.92688 0.2728 0.27613 0.0
C808 C 0.87407 0.25821 0.27129 0.0
C809 C 0.83076 0.24261 0.28177 0.0
C810 C 0.84155 0.24159 0.29765 0.0
C811 C 0.89519 0.25584 0.30295 0.0
C812 C 0.93849 0.27218 0.292 0.0
H813 H 0.00791 0.29589 0.72958 0.0
H814 H 0.18125 0.41472 0.72133 0.0
H815 H 0.19662 0.42983 0.74963 0.0
H816 H 0.98961 0.36785 0.76258 0.0
H817 H 0.94474 0.30488 0.77295 0.0
H818 H 0.94649 0.30472 0.75197 0.0
H819 H 0.96983 0.22576 0.75247 0.0
H820 H 0.96805 0.22561 0.77343 0.0
H821 H 0.02893 0.2349 0.76345 0.0
H822 H 0.19419 0.43073 0.77856 0.0
H823 H 0.17487 0.41539 0.80666 0.0
H824 H 0.00313 0.29539 0.79659 0.0
C825 C 0.04893 0.32553 0.73374 0.0
C826 C 0.09346 0.35407 0.72324 0.0
C827 C 0.14671 0.39192 0.72915 0.0
C828 C 0.15576 0.40109 0.7452 0.0
C829 C 0.11114 0.37211 0.75522 0.0
C830 C 0.05878 0.33502 0.74977 0.0
C831 C 0.01858 0.30786 0.76314 0.0
C832 C 0.97211 0.3222 0.76262 0.0
C833 C -0.00503 0.2448 0.76312 0.0
C834 C 0.0567 0.33518 0.77694 0.0
C835 C 0.10981 0.37233 0.77205 0.0
C836 C 0.15278 0.40178 0.78254 0.0
C837 C 0.14144 0.39254 0.79848 0.0
C838 C 0.08759 0.35395 0.80382 0.0
C839 C 0.04454 0.32551 0.79286 0.0
H840 H 0.22436 0.84416 0.79798 0.0
H841 H 0.27431 0.01631 0.80676 0.0
H842 H 0.2755 0.03253 0.77855 0.0
H843 H 0.30835 0.86834 0.76443 0.0
H844 H 0.25826 0.80754 0.75401 0.0
H845 H 0.25836 0.80807 0.77498 0.0
H846 H 0.15546 0.78261 0.77503 0.0
H847 H 0.155 0.7819 0.75405 0.0
H848 H 0.135 0.8253 0.76446 0.0
H849 H 0.27492 0.03183 0.74979 0.0
H850 H 0.27259 0.01427 0.72162 0.0
H851 H 0.22312 0.84254 0.73077 0.0
C852 C 0.23485 0.88502 0.79393 0.0
C853 C 0.2496 0.9291 0.80456 0.0
C854 C 0.26368 0.98217 0.79883 0.0
C855 C 0.26412 0.99172 0.78284 0.0
C856 C 0.25021 0.94776 0.77267 0.0
C857 C 0.2357 0.89541 0.77792 0.0
C858 C 0.22434 0.85608 0.76436 0.0
C859 C 0.26475 0.83371 0.76445 0.0
C860 C 0.16385 0.80867 0.76449 0.0
C861 C 0.23536 0.8948 0.75072 0.0
C862 C 0.24998 0.94737 0.75586 0.0
C863 C 0.26347 0.99083 0.7456 0.0
C864 C 0.2624 0.98051 0.72962 0.0
C865 C 0.24815 0.92718 0.724 0.0
C866 C 0.23383 0.88361 0.73473 0.0
H867 H 0.68766 0.79715 0.72882 0.0
H868 H 0.56193 0.62502 0.7217 0.0
H869 H 0.55178 0.61144 0.75012 0.0
H870 H 0.75202 0.77473 0.76171 0.0
H871 H 0.76547 0.837 0.7718 0.0
H872 H 0.76167 0.83421 0.75086 0.0
H873 H 0.68558 0.86149 0.7516 0.0
H874 H 0.68914 0.86436 0.77256 0.0
H875 H 0.62394 0.82074 0.76296 0.0
H876 H 0.55653 0.61519 0.77903 0.0
H877 H 0.57667 0.63565 0.80695 0.0
H878 H 0.69926 0.80557 0.79591 0.0
C879 C 0.65752 0.75679 0.73325 0.0
C880 C 0.62572 0.71204 0.723 0.0
C881 C 0.58731 0.6597 0.72929 0.0
C882 C 0.58094 0.65166 0.74542 0.0
C883 C 0.61318 0.69639 0.75518 0.0
C884 C 0.6507 0.74796 0.74939 0.0
C885 C 0.68127 0.78851 0.76252 0.0
C886 C 0.74381 0.80985 0.76167 0.0
C887 C 0.66925 0.83662 0.7624 0.0
C888 C 0.65534 0.75146 0.77658 0.0
C889 C 0.61602 0.69857 0.77201 0.0
C890 C 0.58719 0.65645 0.78276 0.0
C891 C 0.59918 0.66843 0.79859 0.0
C892 C 0.63982 0.72209 0.80363 0.0
C893 C 0.66772 0.76431 0.79243 0.0
H894 H 0.20078 0.94197 0.98347 0.0
H895 H 0.36804 0.9786 0.97313 0.0
H896 H 0.3969 0.01342 0.9998 0.0
H897 H 0.23644 0.05903 1.00745 0.0
H898 H 0.18199 0.02297 0.02149 0.0
H899 H 0.17265 -0.0015 1.00168 0.0
H900 H 0.15152 0.90177 1.0112 0.0
H901 H 0.15983 0.92566 0.03106 0.0
H902 H 0.20018 0.89627 0.02382 0.0
H903 H 0.40965 0.048 0.02683 0.0
H904 H 0.403 0.07184 0.05418 0.0
H905 H 0.22796 0.01231 0.04795 0.0
C906 C 0.24316 0.95641 0.98694 0.0
C907 C 0.28234 0.95822 0.97614 0.0
C908 C 0.33754 0.97771 0.98111 0.0
C909 C 0.35437 -0.00246 0.99624 0.0
C910 C 0.31545 -0.00286 1.00642 0.0
C911 C 0.26079 0.97629 1.00214 0.0
C912 C 0.22762 0.9805 0.01557 0.0
C913 C 0.20325 0.01746 1.01129 0.0
C914 C 0.18209 0.92261 0.02072 0.0
C915 C 0.27247 0.00768 0.0279 0.0
C916 C 0.32279 0.01692 0.02228 0.0
C917 C 0.37052 0.04097 0.0314 0.0
C918 C 0.36651 0.05471 0.04683 0.0
C919 C 0.31531 0.04462 0.05296 0.0
C920 C 0.26776 0.02135 0.04336 0.0
H921 H 0.64678 0.64201 0.48087 0.0
H922 H 0.80338 0.78925 0.4705 0.0
H923 H 0.80613 0.8246 0.49711 0.0
H924 H 0.5902 0.70734 0.50549 0.0
H925 H 0.55902 0.65045 0.51902 0.0
H926 H 0.56795 0.63784 0.49894 0.0
H927 H 0.62277 0.58992 0.50749 0.0
H928 H 0.61378 0.60214 0.52758 0.0
H929 H 0.68233 0.62658 0.51997 0.0
H930 H 0.79163 0.84415 0.52477 0.0
H931 H 0.76533 0.84249 0.55235 0.0
H932 H 0.62013 0.68087 0.54514 0.0
C933 C 0.6814 0.68181 0.48422 0.0
C934 C 0.72484 0.71306 0.47367 0.0
C935 C 0.7699 0.76461 0.47847 0.0
C936 C 0.77162 0.78514 0.49351 0.0
C937 C 0.72819 0.75338 0.50365 0.0
C938 C 0.68421 0.70254 0.49928 0.0
C939 C 0.64436 0.67541 0.5127 0.0
C940 C 0.58699 0.6673 0.5088 0.0
C941 C 0.64062 0.62025 0.5172 0.0
C942 C 0.67287 0.71886 0.52528 0.0
C943 C 0.72077 0.76384 0.51976 0.0
C944 C 0.75419 0.80916 0.52923 0.0
C945 C 0.73876 0.80804 0.54484 0.0
C946 C 0.69073 0.76164 0.55086 0.0
C947 C 0.65721 0.7168 0.54086 0.0
H948 H 0.02998 0.34425 0.98215 0.0
H949 H 0.04561 0.20051 0.9716 0.0
H950 H 0.01683 0.16632 0.99845 0.0
H951 H 0.0822 0.36316 0.02162 0.0
H952 H 0.03526 0.38456 0.02894 0.0
H953 H 0.05745 0.39756 1.00894 0.0
H954 H 0.95502 0.34558 0.99993 0.0
H955 H 0.93253 0.33205 0.0199 0.0
H956 H 0.90991 0.27543 1.00631 0.0
H957 H 0.9824 0.14591 0.02627 0.0
H958 H 0.95349 0.14535 0.05354 0.0
H959 H 0.96226 0.30332 0.04601 0.0
C960 C 0.02744 0.30563 0.98551 0.0
C961 C 0.04009 0.27504 0.97478 0.0
C962 C 0.03675 0.22495 0.97967 0.0
C963 C 0.02002 0.20498 0.99486 0.0
C964 C 0.00718 0.2358 1.00508 0.0
C965 C 0.01136 0.2854 1.00066 0.0
C966 C -0.00385 0.31106 0.01395 0.0
C967 C 0.04572 0.36742 0.01864 0.0
C968 C 0.94538 0.31632 1.00977 0.0
C969 C 0.9825 0.26805 0.02652 0.0
C970 C 0.98864 0.2247 0.02114 0.0
C971 C 0.97766 0.17975 0.03061 0.0
C972 C 0.96087 0.17957 0.04604 0.0
C973 C 0.9557 0.22427 0.0519 0.0
C974 C 0.96629 0.26877 0.0419 0.0
H975 H 0.28869 0.98058 0.47809 0.0
H976 H 0.36887 0.15979 0.48205 0.0
H977 H 0.35468 0.15096 0.51045 0.0
H978 H 0.18731 0.94651 0.50749 0.0
H979 H 0.19162 0.88825 0.51482 0.0
H980 H 0.20741 0.90827 0.49472 0.0
H981 H 0.30384 0.91726 0.49807 0.0
H982 H 0.28824 0.89692 0.51816 0.0
H983 H 0.34949 0.96121 0.51323 0.0
H984 H 0.32936 0.12276 0.53831 0.0
H985 H 0.29992 0.07742 0.56396 0.0
H986 H 0.24168 0.91708 0.5422 0.0
C987 C 0.3042 0.0182 0.48488 0.0
C988 C 0.3297 0.07097 0.47767 0.0
C989 C 0.34823 0.1188 0.48714 0.0
C990 C 0.34072 0.11427 0.50333 0.0
C991 C 0.31515 0.06168 0.50997 0.0
C992 C 0.29771 0.01452 0.50108 0.0
C993 C 0.27203 0.96295 0.51114 0.0
C994 C 0.21097 0.92423 0.50678 0.0
C995 C 0.30541 0.93282 0.51009 0.0
C996 C 0.27747 0.9885 0.52709 0.0
C997 C 0.3021 0.04549 0.52612 0.0
C998 C 0.31028 0.07821 0.53922 0.0
C999 C 0.29313 0.05207 0.55371 0.0
C1000 C 0.26844 0.9938 0.55504 0.0
C1001 C 0.26075 0.96172 0.54153 0.0
H1002 H 0.69299 0.73916 0.05134 0.0
H1003 H 0.7824 0.64878 0.04928 0.0
H1004 H 0.78007 0.65058 0.02073 0.0
H1005 H 0.60131 0.6663 0.01964 0.0
H1006 H 0.5998 0.72598 1.01224 0.0
H1007 H 0.61162 0.72144 0.03267 0.0
H1008 H 0.70284 0.81574 0.03121 0.0
H1009 H 0.69138 0.8205 1.01076 0.0
H1010 H 0.75498 0.82506 0.01723 0.0
H1011 H 0.76691 0.65957 0.99267 0.0
H1012 H 0.7402 0.67199 0.96636 0.0
H1013 H 0.65434 0.75195 0.98589 0.0
C1014 C 0.71204 0.71966 0.04492 0.0
C1015 C 0.7387 0.69459 0.05271 0.0
C1016 C 0.76316 0.66973 0.04374 0.0
C1017 C 0.7617 0.67011 0.02745 0.0
C1018 C 0.73527 0.69512 0.0202 0.0
C1019 C 0.71058 0.7192 0.02858 0.0
C1020 C 0.6829 0.74118 0.01777 0.0
C1021 C 0.62018 0.71197 0.02076 0.0
C1022 C 0.70963 0.80438 0.01934 0.0
C1023 C 0.69557 0.72515 1.00205 0.0
C1024 C 0.72619 0.69899 1.0038 0.0
C1025 C 0.74269 0.67973 0.99113 0.0
C1026 C 0.72691 0.68664 0.97623 0.0
C1027 C 0.6944 0.71218 0.97404 0.0
C1028 C 0.67925 0.7324 0.98717 0.0
H1029 H 0.01303 0.35581 0.54566 0.0
H1030 H 0.01703 0.20476 0.55439 0.0
H1031 H 0.98718 0.17436 0.52728 0.0
H1032 H 0.89406 0.29745 0.52055 0.0
H1033 H 0.92155 0.35603 0.50759 0.0
H1034 H 0.94254 0.36573 0.52772 0.0
H1035 H 0.04543 0.41216 0.5194 0.0
H1036 H 0.02478 0.40296 0.49924 0.0
H1037 H 0.06719 0.37585 0.50641 0.0
H1038 H 0.95346 0.15886 0.49959 0.0
H1039 H 0.92768 0.16355 0.47232 0.0
H1040 H 0.95006 0.32675 0.48108 0.0
C1041 C 0.00763 0.31639 0.54181 0.0
C1042 C 0.01722 0.2825 0.55207 0.0
C1043 C 0.01028 0.23143 0.54664 0.0
C1044 C -0.007 0.21371 0.53132 0.0
C1045 C 0.98348 0.24786 0.52152 0.0
C1046 C -0.00871 0.29849 0.52646 0.0
C1047 C 0.98002 0.32809 0.51341 0.0
C1048 C 0.93166 0.33735 0.51757 0.0
C1049 C 0.03248 0.38301 0.50938 0.0
C1050 C 0.96437 0.28607 0.50039 0.0
C1051 C 0.96599 0.23981 0.50537 0.0
C1052 C 0.95226 0.19496 0.49553 0.0
C1053 C 0.93731 0.19781 0.48011 0.0
C1054 C 0.93682 0.24543 0.47463 0.0
C1055 C 0.95033 0.28996 0.48496 0.0
H1056 H 0.72319 0.18731 0.11381 0.0
H1057 H 0.74604 0.13006 0.15866 0.0
H1058 H 0.64539 0.07054 0.16137 0.0
H1059 H 0.6103 0.2003 0.1254 0.0
H1060 H 0.57357 0.17838 0.10715 0.0
H1061 H 0.64766 0.20963 0.10749 0.0
H1062 H 0.63932 0.12361 0.09329 0.0
H1063 H 0.56493 0.09176 0.09315 0.0
H1064 H 0.59714 0.05577 0.10161 0.0
H1065 H 0.54443 0.02567 0.16093 0.0
H1066 H 0.44826 0.00599 0.15864 0.0
H1067 H 0.48762 0.09167 0.1143 0.0
C1068 C 0.70675 0.16147 0.12404 0.0
C1069 C 0.74217 0.16322 0.13603 0.0
C1070 C 0.71949 0.12971 0.1494 0.0
C1071 C 0.66241 0.09516 0.15096 0.0
C1072 C 0.62837 0.09462 0.13907 0.0
C1073 C 0.6494 0.12722 0.12592 0.0
C1074 C 0.60312 0.12386 0.11588 0.0
C1075 C 0.60902 0.18144 0.11387 0.0
C1076 C 0.60102 0.09715 0.10004 0.0
C1077 C 0.55325 0.0861 0.12578 0.0
C1078 C 0.56886 0.06867 0.13889 0.0
C1079 C 0.53135 0.03807 0.15058 0.0
C1080 C 0.47683 0.02702 0.14918 0.0
C1081 C 0.46051 0.04674 0.13623 0.0
C1082 C 0.49865 0.07472 0.1241 0.0
H1083 H 0.58056 0.50053 0.4095 0.0
H1084 H 0.57432 0.5353 0.36052 0.0
H1085 H 0.50765 0.43656 0.35586 0.0
H1086 H 0.58683 0.38457 0.40428 0.0
H1087 H 0.54421 0.34538 0.42048 0.0
H1088 H 0.58085 0.41981 0.42115 0.0
H1089 H 0.48947 0.4203 0.42593 0.0
H1090 H 0.45249 0.34562 0.42583 0.0
H1091 H 0.43182 0.38279 0.41287 0.0
H1092 H 0.45786 0.33437 0.35547 0.0
H1093 H 0.4154 0.23431 0.35994 0.0
H1094 H 0.45383 0.26465 0.40927 0.0
C1095 C 0.56316 0.48785 0.39794 0.0
C1096 C 0.58235 0.52551 0.38537 0.0
C1097 C 0.55986 0.50711 0.37032 0.0
C1098 C 0.52213 0.4511 0.36755 0.0
C1099 C 0.5071 0.41439 0.37999 0.0
C1100 C 0.52578 0.43202 0.39497 0.0
C1101 C 0.50777 0.38342 0.40593 0.0
C1102 C 0.55791 0.38333 0.41339 0.0
C1103 C 0.46801 0.38301 0.41838 0.0
C1104 C 0.47812 0.3358 0.39462 0.0
C1105 C 0.47797 0.35469 0.37976 0.0
C1106 C 0.45652 0.31894 0.36711 0.0
C1107 C 0.43306 0.26216 0.36977 0.0
C1108 C 0.43117 0.24159 0.38499 0.0
C1109 C 0.45448 0.27908 0.39753 0.0
H1110 H 0.9083 0.40445 0.15411 0.0
H1111 H 0.93561 0.39589 0.10465 0.0
H1112 H 0.8979 0.45741 0.09928 0.0
H1113 H 0.78195 0.39059 0.15082 0.0
H1114 H 0.78842 0.43764 0.16617 0.0
H1115 H 0.8286 0.40356 0.16687 0.0
H1116 H 0.91973 0.49796 0.16867 0.0
H1117 H 0.87976 0.53249 0.16859 0.0
H1118 H 0.93382 0.55083 0.15443 0.0
H1119 H 0.84292 0.50525 0.09891 0.0
H1120 H 0.7868 0.54935 0.10386 0.0
H1121 H 0.79351 0.52428 0.15356 0.0
C1122 C 0.90862 0.41738 0.14221 0.0
C1123 C 0.92475 0.3954 0.12979 0.0
C1124 C 0.92355 0.41244 0.11434 0.0
C1125 C 0.902 0.44716 0.11117 0.0
C1126 C 0.88253 0.46469 0.1236 0.0
C1127 C 0.88688 0.45156 0.13885 0.0
C1128 C 0.85836 0.4714 0.14994 0.0
C1129 C 0.81157 0.42289 0.15897 0.0
C1130 C 0.90043 0.51583 0.16106 0.0
C1131 C 0.83555 0.49588 0.13847 0.0
C1132 C 0.85023 0.49192 0.12336 0.0
C1133 C 0.832 0.50957 0.11071 0.0
C1134 C 0.79966 0.53397 0.11364 0.0
C1135 C 0.78584 0.5402 0.12911 0.0
C1136 C 0.80322 0.51991 0.14162 0.0
H1137 H 0.48762 0.07048 0.41122 0.0
H1138 H 0.45081 0.03194 0.36212 0.0
H1139 H 0.54961 0.0675 0.35696 0.0
H1140 H 0.59886 0.19422 0.40671 0.0
H1141 H 0.64084 0.19172 0.42229 0.0
H1142 H 0.56669 0.15056 0.42338 0.0
H1143 H 0.57157 0.06082 0.42665 0.0
H1144 H 0.64607 0.10185 0.42624 0.0
H1145 H 0.6103 0.04493 0.41283 0.0
H1146 H 0.65068 0.1264 0.35606 0.0
H1147 H 0.75018 0.18811 0.36008 0.0
H1148 H 0.72338 0.18789 0.40996 0.0
C1149 C 0.49992 0.06698 0.39951 0.0
C1150 C 0.46166 0.04881 0.38705 0.0
C1151 C 0.47944 0.04568 0.37184 0.0
C1152 C 0.53553 0.066 0.36878 0.0
C1153 C 0.5728 0.08819 0.38111 0.0
C1154 C 0.55578 0.08718 0.39626 0.0
C1155 C 0.60474 0.11862 0.4071 0.0
C1156 C 0.60261 0.1666 0.41534 0.0
C1157 C 0.60839 0.07919 0.4189 0.0
C1158 C 0.65168 0.13999 0.3955 0.0
C1159 C 0.63217 0.1217 0.38061 0.0
C1160 C 0.66674 0.13962 0.36771 0.0
C1161 C 0.72319 0.17535 0.37014 0.0
C1162 C 0.74469 0.19257 0.38539 0.0
C1163 C 0.70823 0.17521 0.3982 0.0
H1164 H 0.4654 0.26374 0.11599 0.0
H1165 H 0.39152 0.2421 0.16179 0.0
H1166 H 0.42452 0.34175 0.16325 0.0
H1167 H 0.58796 0.38676 0.12562 0.0
H1168 H 0.5962 0.41843 0.10679 0.0
H1169 H 0.5598 0.34426 0.10848 0.0
H1170 H 0.47515 0.34036 0.09467 0.0
H1171 H 0.51107 0.41491 0.09342 0.0
H1172 H 0.44432 0.37834 0.10272 0.0
H1173 H 0.4703 0.44233 0.16112 0.0
H1174 H 0.54196 0.54013 0.15779 0.0
H1175 H 0.58899 0.50007 0.11366 0.0
C1176 C 0.4561 0.28019 0.12625 0.0
C1177 C 0.42612 0.24537 0.13877 0.0
C1178 C 0.41509 0.26817 0.15212 0.0
C1179 C 0.43275 0.3246 0.15296 0.0
C1180 C 0.46171 0.35786 0.14039 0.0
C1181 C 0.47446 0.33694 0.12743 0.0
C1182 C 0.51262 0.38312 0.11656 0.0
C1183 C 0.56738 0.38316 0.11424 0.0
C1184 C 0.48406 0.37891 0.10091 0.0
C1185 C 0.52096 0.43319 0.1258 0.0
C1186 C 0.48961 0.41736 0.13925 0.0
C1187 C 0.49438 0.4555 0.15052 0.0
C1188 C 0.53492 0.51097 0.1485 0.0
C1189 C 0.57022 0.52743 0.13539 0.0
C1190 C 0.56116 0.48871 0.12351 0.0
H1191 H 0.79177 0.52645 0.37171 0.0
H1192 H 0.83188 0.58625 0.41931 0.0
H1193 H 0.89511 0.54876 0.42115 0.0
H1194 H 0.78728 0.3987 0.37863 0.0
H1195 H 0.8157 0.39734 0.3599 0.0
H1196 H 0.77741 0.43297 0.36219 0.0
H1197 H 0.86144 0.52219 0.35127 0.0
H1198 H 0.90054 0.487 0.34944 0.0
H1199 H 0.92796 0.55005 0.36064 0.0
H1200 H 0.95102 0.50294 0.41828 0.0
H1201 H 0.9811 0.43526 0.41286 0.0
H1202 H 0.90437 0.40379 0.36724 0.0
C1203 C 0.81378 0.53148 0.38253 0.0
C1204 C 0.80699 0.5592 0.39537 0.0
C1205 C 0.8361 0.56467 0.40938 0.0
C1206 C 0.87278 0.54434 0.41045 0.0
C1207 C 0.87966 0.51853 0.39744 0.0
C1208 C 0.8501 0.51091 0.38386 0.0
C1209 C 0.86108 0.47697 0.37214 0.0
C1210 C 0.80719 0.42332 0.36798 0.0
C1211 C 0.88945 0.51111 0.3575 0.0
C1212 C 0.90025 0.46532 0.38143 0.0
C1213 C 0.91157 0.49105 0.39583 0.0
C1214 C 0.94301 0.48302 0.407 0.0
C1215 C 0.96024 0.44481 0.40378 0.0
C1216 C 0.94536 0.41477 0.3896 0.0
C1217 C 0.91762 0.42735 0.37798 0.0
H1218 H 0.19026 0.72992 0.65609 0.0
H1219 H 0.14886 0.75044 0.60871 0.0
H1220 H 0.0883 0.64979 0.60631 0.0
H1221 H 0.1994 0.60987 0.64808 0.0
H1222 H 0.17112 0.57756 0.66656 0.0
H1223 H 0.20728 0.6518 0.66495 0.0
H1224 H 0.12122 0.65245 0.67612 0.0
H1225 H 0.08434 0.5779 0.67736 0.0
H1226 H 0.05515 0.61261 0.66658 0.0
H1227 H 0.03577 0.54836 0.60832 0.0
H1228 H 0.00747 0.45063 0.61301 0.0
H1229 H 0.08291 0.49405 0.65888 0.0
C1230 C 0.16843 0.71315 0.64523 0.0
C1231 C 0.17418 0.74805 0.63262 0.0
C1232 C 0.14535 0.72457 0.61853 0.0
C1233 C 0.11018 0.66746 0.6171 0.0
C1234 C 0.10441 0.63432 0.62983 0.0
C1235 C 0.13348 0.65599 0.64352 0.0
C1236 C 0.12384 0.61047 0.65483 0.0
C1237 C 0.17865 0.61254 0.65883 0.0
C1238 C 0.09438 0.61356 0.6696 0.0
C1239 C 0.08614 0.55994 0.64515 0.0
C1240 C 0.07439 0.57482 0.63092 0.0
C1241 C 0.04409 0.53596 0.61946 0.0
C1242 C 0.02804 0.48057 0.62225 0.0
C1243 C 0.04289 0.46493 0.63631 0.0
C1244 C 0.06996 0.50469 0.64817 0.0
H1245 H 0.39014 0.89236 0.91336 0.0
H1246 H 0.43735 0.9813 0.86954 0.0
H1247 H 0.51023 0.95693 0.8662 0.0
H1248 H 0.53464 0.91944 0.92474 0.0
H1249 H 0.50548 0.8506 0.93265 0.0
H1250 H 0.46708 0.88674 0.93363 0.0
H1251 H 0.38474 0.80384 0.91982 0.0
H1252 H 0.4232 0.76813 0.91831 0.0
H1253 H 0.39525 0.78165 0.90103 0.0
H1254 H 0.56105 0.90701 0.86452 0.0
H1255 H 0.59853 0.84436 0.86619 0.0
H1256 H 0.52048 0.78647 0.91133 0.0
C1257 C 0.41784 0.90916 0.9035 0.0
C1258 C 0.40876 0.93921 0.89177 0.0
C1259 C 0.44418 0.95871 0.8787 0.0
C1260 C 0.48556 0.94498 0.8767 0.0
C1261 C 0.49101 0.91205 0.88794 0.0
C1262 C 0.45908 0.8953 0.90127 0.0
C1263 C 0.46876 0.85451 0.9105 0.0
C1264 C 0.49561 0.87932 0.92632 0.0
C1265 C 0.41478 0.79876 0.91252 0.0
C1266 C 0.50882 0.84881 0.89983 0.0
C1267 C 0.52127 0.88281 0.88698 0.0
C1268 C 0.55286 0.88128 0.87471 0.0
C1269 C 0.57327 0.84484 0.8757 0.0
C1270 C 0.5623 0.81041 0.8889 0.0
C1271 C 0.52983 0.81264 0.90117 0.0
H1272 H 0.48757 0.60465 0.61176 0.0
H1273 H 0.53134 0.54725 0.65337 0.0
H1274 H 0.4351 0.47079 0.65564 0.0
H1275 H 0.3715 0.59266 0.62551 0.0
H1276 H 0.32966 0.56904 0.60814 0.0
H1277 H 0.40373 0.60903 0.60658 0.0
H1278 H 0.4053 0.53169 0.59028 0.0
H1279 H 0.3308 0.49184 0.59133 0.0
H1280 H 0.37162 0.46178 0.59761 0.0
H1281 H 0.33483 0.41745 0.65726 0.0
H1282 H 0.23469 0.38107 0.65659 0.0
H1283 H 0.25203 0.47133 0.61385 0.0
C1284 C 0.47739 0.57407 0.62082 0.0
C1285 C 0.51668 0.58107 0.63229 0.0
C1286 C 0.50174 0.54195 0.6444 0.0
C1287 C 0.44724 0.49847 0.64577 0.0
C1288 C 0.40849 0.49483 0.63489 0.0
C1289 C 0.42284 0.5308 0.62245 0.0
C1290 C 0.37185 0.52278 0.61381 0.0
C1291 C 0.36907 0.57657 0.61351 0.0
C1292 C 0.36977 0.50069 0.59727 0.0
C1293 C 0.32671 0.47922 0.62394 0.0
C1294 C 0.34904 0.4633 0.63587 0.0
C1295 C 0.31669 0.42838 0.64775 0.0
C1296 C 0.25991 0.40868 0.64738 0.0
C1297 C 0.23582 0.42378 0.6352 0.0
C1298 C 0.26952 0.4589 0.6232 0.0
H1299 H 0.19817 0.72321 0.91285 0.0
H1300 H 0.14779 0.74657 0.86694 0.0
H1301 H 0.08392 0.64661 0.86468 0.0
H1302 H 0.20274 0.60324 0.90271 0.0
H1303 H 0.17805 0.56939 0.92123 0.0
H1304 H 0.2142 0.64373 0.92014 0.0
H1305 H 0.13078 0.64382 0.93346 0.0
H1306 H 0.09391 0.56917 0.93421 0.0
H1307 H 0.06286 0.60486 0.92488 0.0
H1308 H 0.03137 0.54565 0.86609 0.0
H1309 H 0.00493 0.44777 0.8693 0.0
H1310 H 0.08923 0.48683 0.91397 0.0
C1311 C 0.17336 0.70707 0.9024 0.0
C1312 C 0.17805 0.74249 0.89007 0.0
C1313 C 0.14544 0.72009 0.87648 0.0
C1314 C 0.10827 0.66343 0.87516 0.0
C1315 C 0.10426 0.62951 0.8875 0.0
C1316 C 0.13651 0.65011 0.90075 0.0
C1317 C 0.12888 0.60353 0.91138 0.0
C1318 C 0.18424 0.60506 0.91401 0.0
C1319 C 0.10253 0.60548 0.9269 0.0
C1320 C 0.08904 0.55381 0.90171 0.0
C1321 C 0.07417 0.56995 0.8882 0.0
C1322 C 0.04194 0.5322 0.87671 0.0
C1323 C 0.02701 0.4767 0.87865 0.0
C1324 C 0.04488 0.45982 0.89189 0.0
C1325 C 0.07395 0.49838 0.90389 0.0
H1326 H 0.38472 0.90273 0.61326 0.0
H1327 H 0.42744 0.98512 0.65819 0.0
H1328 H 0.49837 0.95832 0.6618 0.0
H1329 H 0.38544 0.78943 0.62423 0.0
H1330 H 0.41576 0.77785 0.60713 0.0
H1331 H 0.37915 0.81539 0.60558 0.0
H1332 H 0.46492 0.89949 0.59348 0.0
H1333 H 0.50149 0.86152 0.59442 0.0
H1334 H 0.53076 0.92901 0.60332 0.0
H1335 H 0.54518 0.90438 0.66364 0.0
H1336 H 0.5808 0.84 0.66154 0.0
H1337 H 0.51126 0.79305 0.61504 0.0
C1338 C 0.41126 0.91781 0.62342 0.0
C1339 C 0.40112 0.94629 0.63542 0.0
C1340 C 0.43505 0.96364 0.64884 0.0
C1341 C 0.47529 0.94847 0.651 0.0
C1342 C 0.48134 0.91658 0.63954 0.0
C1343 C 0.45155 0.90271 0.62578 0.0
C1344 C 0.46155 0.86271 0.61623 0.0
C1345 C 0.40724 0.80814 0.61312 0.0
C1346 C 0.49148 0.88982 0.60095 0.0
C1347 C 0.49892 0.8539 0.62719 0.0
C1348 C 0.50987 0.88564 0.64051 0.0
C1349 C 0.53835 0.88053 0.65309 0.0
C1350 C 0.55758 0.84313 0.65187 0.0
C1351 C 0.5486 0.81155 0.63813 0.0
C1352 C 0.51897 0.81708 0.62562 0.0
H1353 H 0.49873 0.57715 0.91018 0.0
H1354 H 0.53125 0.57103 0.86098 0.0
H1355 H 0.43256 0.50413 0.85667 0.0
H1356 H 0.38127 0.4274 0.91353 0.0
H1357 H 0.34461 0.44765 0.92685 0.0
H1358 H 0.41925 0.48468 0.9267 0.0
H1359 H 0.41853 0.57623 0.92246 0.0
H1360 H 0.34414 0.53959 0.92204 0.0
H1361 H 0.38269 0.58277 0.90585 0.0
H1362 H 0.33104 0.45636 0.85655 0.0
H1363 H 0.23149 0.41537 0.86124 0.0
H1364 H 0.2628 0.44995 0.91073 0.0
C1365 C 0.48557 0.55976 0.89864 0.0
C1366 C 0.52256 0.57925 0.88591 0.0
C1367 C 0.5036 0.55652 0.8709 0.0
C1368 C 0.4476 0.51861 0.86833 0.0
C1369 C 0.41151 0.50342 0.88093 0.0
C1370 C 0.42974 0.52197 0.89587 0.0
C1371 C 0.3816 0.5036 0.90704 0.0
C1372 C 0.38169 0.46342 0.91925 0.0
C1373 C 0.3818 0.55353 0.91479 0.0
C1374 C 0.33356 0.47425 0.89586 0.0
C1375 C 0.35193 0.47452 0.88089 0.0
C1376 C 0.31597 0.45444 0.86828 0.0
C1377 C 0.25947 0.43188 0.87107 0.0
C1378 C 0.23932 0.42925 0.88639 0.0
C1379 C 0.27699 0.45102 0.89893 0.0
loop_
_geom_bond_atom_site_label_1
_geom_bond_atom_site_label_2
_geom_bond_distance
_geom_bond_site_symmetry_2
_ccdc_geom_bond_type
C0 O16 1.251 . S
C0 O18 1.254 . S
N1 C2 1.333 . S
N1 C6 1.307 . S
N1 Zn7 2.020 . S
C2 N1 1.333 . S
C2 C3 1.379 . S
C2 H20 0.952 . S
C3 C2 1.379 . S
C3 C4 1.390 . S
C3 H30 0.949 . S
C4 C3 1.390 . S
C4 C5 1.357 . S
C5 C4 1.357 . S
C5 C6 1.370 . S
C5 H31 0.950 . S
C6 N1 1.307 . S
C6 C5 1.370 . S
C6 H24 0.948 . S
Zn7 N1 2.020 . S
Zn7 O16 2.039 . S
Zn7 O22 2.034 . S
Zn7 O26 2.025 . S
Zn7 O28 2.024 . S
C8 O27 1.246 . S
C8 O28 1.249 . S
N9 C10 1.307 . S
N9 C11 1.333 . S
N9 Zn15 2.020 . S
C10 N9 1.307 . S
C10 C14 1.370 . S
C10 H21 0.948 . S
C11 N9 1.333 . S
C11 C12 1.379 . S
C11 H19 0.952 . S
C12 C11 1.379 . S
C12 C13 1.390 . S
C12 H32 0.949 . S
C13 C12 1.390 . S
C13 C14 1.357 . S
C14 C10 1.370 . S
C14 C13 1.357 . S
C14 H33 0.950 . S
Zn15 N9 2.020 . S
Zn15 O18 2.025 . S
Zn15 O23 2.024 . S
Zn15 O25 2.039 . S
Zn15 O27 2.034 . S
O16 C0 1.251 . S
O16 Zn7 2.039 . S
C17 O22 1.246 . S
C17 O23 1.249 . S
O18 C0 1.254 . S
O18 Zn15 2.025 . S
H19 C11 0.952 . S
H20 C2 0.952 . S
H21 C10 0.948 . S
O22 Zn7 2.034 . S
O22 C17 1.246 . S
O23 Zn15 2.024 . S
O23 C17 1.249 . S
H24 C6 0.948 . S
O25 Zn15 2.039 . S
O25 C29 1.251 . S
O26 Zn7 2.025 . S
O26 C29 1.254 . S
O27 C8 1.246 . S
O27 Zn15 2.034 . S
O28 Zn7 2.024 . S
O28 C8 1.249 . S
C29 O25 1.251 . S
C29 O26 1.254 . S
H30 C3 0.949 . S
H31 C5 0.950 . S
H32 C12 0.949 . S
H33 C14 0.950 . S
C34 O50 1.251 . S
C34 O52 1.254 . S
N35 C36 1.333 . S
N35 C40 1.307 . S
N35 Zn41 2.020 . S
C36 N35 1.333 . S
C36 C37 1.379 . S
C36 H54 0.952 . S
C37 C36 1.379 . S
C37 C38 1.390 . S
C37 H64 0.949 . S
C38 C37 1.390 . S
C38 C39 1.357 . S
C39 C38 1.357 . S
C39 C40 1.370 . S
C39 H65 0.950 . S
C40 N35 1.307 . S
C40 C39 1.370 . S
C40 H58 0.948 . S
Zn41 N35 2.020 . S
Zn41 O50 2.039 . S
Zn41 O56 2.034 . S
Zn41 O60 2.025 . S
Zn41 O62 2.024 . S
C42 O61 1.246 . S
C42 O62 1.249 . S
N43 C44 1.307 . S
N43 C45 1.333 . S
N43 Zn49 2.020 . S
C44 N43 1.307 . S
C44 C48 1.370 . S
C44 H55 0.948 . S
C45 N43 1.333 . S
C45 C46 1.379 . S
C45 H53 0.952 . S
C46 C45 1.379 . S
C46 C47 1.390 . S
C46 H66 0.949 . S
C47 C46 1.390 . S
C47 C48 1.357 . S
C48 C44 1.370 . S
C48 C47 1.357 . S
C48 H67 0.950 . S
Zn49 N43 2.020 . S
Zn49 O52 2.025 . S
Zn49 O57 2.024 . S
Zn49 O59 2.039 . S
Zn49 O61 2.034 . S
O50 C34 1.251 . S
O50 Zn41 2.039 . S
C51 O56 1.246 . S
C51 O57 1.249 . S
O52 C34 1.254 . S
O52 Zn49 2.025 . S
H53 C45 0.952 . S
H54 C36 0.952 . S
H55 C44 0.948 . S
O56 Zn41 2.034 . S
O56 C51 1.246 . S
O57 Zn49 2.024 . S
O57 C51 1.249 . S
H58 C40 0.948 . S
O59 Zn49 2.039 . S
O59 C63 1.251 . S
O60 Zn41 2.025 . S
O60 C63 1.254 . S
O61 C42 1.246 . S
O61 Zn49 2.034 . S
O62 Zn41 2.024 . S
O62 C42 1.249 . S
C63 O59 1.251 . S
C63 O60 1.254 . S
H64 C37 0.949 . S
H65 C39 0.950 . S
H66 C46 0.949 . S
H67 C48 0.950 . S
C68 O84 1.251 . S
C68 O86 1.254 . S
N69 C70 1.333 . S
N69 C74 1.307 . S
N69 Zn75 2.020 . S
C70 N69 1.333 . S
C70 C71 1.379 . S
C70 H88 0.952 . S
C71 C70 1.379 . S
C71 C72 1.390 . S
C71 H98 0.949 . S
C72 C71 1.390 . S
C72 C73 1.357 . S
C73 C72 1.357 . S
C73 C74 1.370 . S
C73 H99 0.950 . S
C74 N69 1.307 . S
C74 C73 1.370 . S
C74 H92 0.948 . S
Zn75 N69 2.020 . S
Zn75 O84 2.039 . S
Zn75 O90 2.034 . S
Zn75 O94 2.025 . S
Zn75 O96 2.024 . S
C76 O95 1.246 . S
C76 O96 1.249 . S
N77 C78 1.307 . S
N77 C79 1.333 . S
N77 Zn83 2.020 . S
C78 N77 1.307 . S
C78 C82 1.370 . S
C78 H89 0.948 . S
C79 N77 1.333 . S
C79 C80 1.379 . S
C79 H87 0.952 . S
C80 C79 1.379 . S
C80 C81 1.390 . S
C80 H100 0.949 . S
C81 C80 1.390 . S
C81 C82 1.357 . S
C82 C78 1.370 . S
C82 C81 1.357 . S
C82 H101 0.950 . S
Zn83 N77 2.020 . S
Zn83 O86 2.025 . S
Zn83 O91 2.024 . S
Zn83 O93 2.039 . S
Zn83 O95 2.034 . S
O84 C68 1.251 . S
O84 Zn75 2.039 . S
C85 O90 1.246 . S
C85 O91 1.249 . S
O86 C68 1.254 . S
O86 Zn83 2.025 . S
H87 C79 0.952 . S
H88 C70 0.952 . S
H89 C78 0.948 . S
O90 Zn75 2.034 . S
O90 C85 1.246 . S
O91 Zn83 2.024 . S
O91 C85 1.249 . S
H92 C74 0.948 . S
O93 Zn83 2.039 . S
O93 C97 1.251 . S
O94 Zn75 2.025 . S
O94 C97 1.254 . S
O95 C76 1.246 . S
O95 Zn83 2.034 . S
O96 Zn75 2.024 . S
O96 C76 1.249 . S
C97 O93 1.251 . S
C97 O94 1.254 . S
H98 C71 0.949 . S
H99 C73 0.950 . S
H100 C80 0.949 . S
H101 C82 0.950 . S
C102 O118 1.251 . S
C102 O120 1.254 . S
N103 C104 1.333 . S
N103 C108 1.307 . S
N103 Zn109 2.020 . S
C104 N103 1.333 . S
C104 C105 1.379 . S
C104 H122 0.952 . S
C105 C104 1.379 . S
C105 C106 1.390 . S
C105 H132 0.949 . S
C106 C105 1.390 . S
C106 C107 1.357 . S
C107 C106 1.357 . S
C107 C108 1.370 . S
C107 H133 0.950 . S
C108 N103 1.307 . S
C108 C107 1.370 . S
C108 H126 0.948 . S
Zn109 N103 2.020 . S
Zn109 O118 2.039 . S
Zn109 O124 2.034 . S
Zn109 O128 2.025 . S
Zn109 O130 2.024 . S
C110 O129 1.246 . S
C110 O130 1.249 . S
N111 C112 1.307 . S
N111 C113 1.333 . S
N111 Zn117 2.020 . S
C112 N111 1.307 . S
C112 C116 1.370 . S
C112 H123 0.948 . S
C113 N111 1.333 . S
C113 C114 1.379 . S
C113 H121 0.952 . S
C114 C113 1.379 . S
C114 C115 1.390 . S
C114 H134 0.949 . S
C115 C114 1.390 . S
C115 C116 1.357 . S
C116 C112 1.370 . S
C116 C115 1.357 . S
C116 H135 0.950 . S
Zn117 N111 2.020 . S
Zn117 O120 2.025 . S
Zn117 O125 2.024 . S
Zn117 O127 2.039 . S
Zn117 O129 2.034 . S
O118 C102 1.251 . S
O118 Zn109 2.039 . S
C119 O124 1.246 . S
C119 O125 1.249 . S
O120 C102 1.254 . S
O120 Zn117 2.025 . S
H121 C113 0.952 . S
H122 C104 0.952 . S
H123 C112 0.948 . S
O124 Zn109 2.034 . S
O124 C119 1.246 . S
O125 Zn117 2.024 . S
O125 C119 1.249 . S
H126 C108 0.948 . S
O127 Zn117 2.039 . S
O127 C131 1.251 . S
O128 Zn109 2.025 . S
O128 C131 1.254 . S
O129 C110 1.246 . S
O129 Zn117 2.034 . S
O130 Zn109 2.024 . S
O130 C110 1.249 . S
C131 O127 1.251 . S
C131 O128 1.254 . S
H132 C105 0.949 . S
H133 C107 0.950 . S
H134 C114 0.949 . S
H135 C116 0.950 . S
C136 O152 1.251 . S
C136 O154 1.254 . S
N137 C138 1.333 . S
N137 C142 1.307 . S
N137 Zn143 2.020 . S
C138 N137 1.333 . S
C138 C139 1.379 . S
C138 H156 0.952 . S
C139 C138 1.379 . S
C139 C140 1.390 . S
C139 H166 0.949 . S
C140 C139 1.390 . S
C140 C141 1.357 . S
C141 C140 1.357 . S
C141 C142 1.370 . S
C141 H167 0.950 . S
C142 N137 1.307 . S
C142 C141 1.370 . S
C142 H160 0.948 . S
Zn143 N137 2.020 . S
Zn143 O152 2.039 . S
Zn143 O158 2.034 . S
Zn143 O162 2.025 . S
Zn143 O164 2.024 . S
C144 O163 1.246 . S
C144 O164 1.249 . S
N145 C146 1.307 . S
N145 C147 1.333 . S
N145 Zn151 2.020 . S
C146 N145 1.307 . S
C146 C150 1.370 . S
C146 H157 0.948 . S
C147 N145 1.333 . S
C147 C148 1.379 . S
C147 H155 0.952 . S
C148 C147 1.379 . S
C148 C149 1.390 . S
C148 H168 0.949 . S
C149 C148 1.390 . S
C149 C150 1.357 . S
C150 C146 1.370 . S
C150 C149 1.357 . S
C150 H169 0.950 . S
Zn151 N145 2.020 . S
Zn151 O154 2.025 . S
Zn151 O159 2.024 . S
Zn151 O161 2.039 . S
Zn151 O163 2.034 . S
O152 C136 1.251 . S
O152 Zn143 2.039 . S
C153 O158 1.246 . S
C153 O159 1.249 . S
O154 C136 1.254 . S
O154 Zn151 2.025 . S
H155 C147 0.952 . S
H156 C138 0.952 . S
H157 C146 0.948 . S
O158 Zn143 2.034 . S
O158 C153 1.246 . S
O159 Zn151 2.024 . S
O159 C153 1.249 . S
H160 C142 0.948 . S
O161 Zn151 2.039 . S
O161 C165 1.251 . S
O162 Zn143 2.025 . S
O162 C165 1.254 . S
O163 C144 1.246 . S
O163 Zn151 2.034 . S
O164 Zn143 2.024 . S
O164 C144 1.249 . S
C165 O161 1.251 . S
C165 O162 1.254 . S
H166 C139 0.949 . S
H167 C141 0.950 . S
H168 C148 0.949 . S
H169 C150 0.950 . S
C170 O186 1.251 . S
C170 O188 1.254 . S
N171 C172 1.333 . S
N171 C176 1.307 . S
N171 Zn177 2.020 . S
C172 N171 1.333 . S
C172 C173 1.379 . S
C172 H190 0.952 . S
C173 C172 1.379 . S
C173 C174 1.390 . S
C173 H200 0.949 . S
C174 C173 1.390 . S
C174 C175 1.357 . S
C175 C174 1.357 . S
C175 C176 1.370 . S
C175 H201 0.950 . S
C176 N171 1.307 . S
C176 C175 1.370 . S
C176 H194 0.948 . S
Zn177 N171 2.020 . S
Zn177 O186 2.039 . S
Zn177 O192 2.034 . S
Zn177 O196 2.025 . S
Zn177 O198 2.024 . S
C178 O197 1.246 . S
C178 O198 1.249 . S
N179 C180 1.307 . S
N179 C181 1.333 . S
N179 Zn185 2.020 . S
C180 N179 1.307 . S
C180 C184 1.370 . S
C180 H191 0.948 . S
C181 N179 1.333 . S
C181 C182 1.379 . S
C181 H189 0.952 . S
C182 C181 1.379 . S
C182 C183 1.390 . S
C182 H202 0.949 . S
C183 C182 1.390 . S
C183 C184 1.357 . S
C184 C180 1.370 . S
C184 C183 1.357 . S
C184 H203 0.950 . S
Zn185 N179 2.020 . S
Zn185 O188 2.025 . S
Zn185 O193 2.024 . S
Zn185 O195 2.039 . S
Zn185 O197 2.034 . S
O186 C170 1.251 . S
O186 Zn177 2.039 . S
C187 O192 1.246 . S
C187 O193 1.249 . S
O188 C170 1.254 . S
O188 Zn185 2.025 . S
H189 C181 0.952 . S
H190 C172 0.952 . S
H191 C180 0.948 . S
O192 Zn177 2.034 . S
O192 C187 1.246 . S
O193 Zn185 2.024 . S
O193 C187 1.249 . S
H194 C176 0.948 . S
O195 Zn185 2.039 . S
O195 C199 1.251 . S
O196 Zn177 2.025 . S
O196 C199 1.254 . S
O197 C178 1.246 . S
O197 Zn185 2.034 . S
O198 Zn177 2.024 . S
O198 C178 1.249 . S
C199 O195 1.251 . S
C199 O196 1.254 . S
H200 C173 0.949 . S
H201 C175 0.950 . S
H202 C182 0.949 . S
H203 C184 0.950 . S
C204 O220 1.251 . S
C204 O222 1.254 . S
N205 C206 1.333 . S
N205 C210 1.307 . S
N205 Zn211 2.020 . S
C206 N205 1.333 . S
C206 C207 1.379 . S
C206 H224 0.952 . S
C207 C206 1.379 . S
C207 C208 1.390 . S
C207 H234 0.949 . S
C208 C207 1.390 . S
C208 C209 1.357 . S
C209 C208 1.357 . S
C209 C210 1.370 . S
C209 H235 0.950 . S
C210 N205 1.307 . S
C210 C209 1.370 . S
C210 H228 0.948 . S
Zn211 N205 2.020 . S
Zn211 O220 2.039 . S
Zn211 O226 2.034 . S
Zn211 O230 2.025 . S
Zn211 O232 2.024 . S
C212 O231 1.246 . S
C212 O232 1.249 . S
N213 C214 1.307 . S
N213 C215 1.333 . S
N213 Zn219 2.020 . S
C214 N213 1.307 . S
C214 C218 1.370 . S
C214 H225 0.948 . S
C215 N213 1.333 . S
C215 C216 1.379 . S
C215 H223 0.952 . S
C216 C215 1.379 . S
C216 C217 1.390 . S
C216 H236 0.949 . S
C217 C216 1.390 . S
C217 C218 1.357 . S
C218 C214 1.370 . S
C218 C217 1.357 . S
C218 H237 0.950 . S
Zn219 N213 2.020 . S
Zn219 O222 2.025 . S
Zn219 O227 2.024 . S
Zn219 O229 2.039 . S
Zn219 O231 2.034 . S
O220 C204 1.251 . S
O220 Zn211 2.039 . S
C221 O226 1.246 . S
C221 O227 1.249 . S
O222 C204 1.254 . S
O222 Zn219 2.025 . S
H223 C215 0.952 . S
H224 C206 0.952 . S
H225 C214 0.948 . S
O226 Zn211 2.034 . S
O226 C221 1.246 . S
O227 Zn219 2.024 . S
O227 C221 1.249 . S
H228 C210 0.948 . S
O229 Zn219 2.039 . S
O229 C233 1.251 . S
O230 Zn211 2.025 . S
O230 C233 1.254 . S
O231 C212 1.246 . S
O231 Zn219 2.034 . S
O232 Zn211 2.024 . S
O232 C212 1.249 . S
C233 O229 1.251 . S
C233 O230 1.254 . S
H234 C207 0.949 . S
H235 C209 0.950 . S
H236 C216 0.949 . S
H237 C218 0.950 . S
C238 O254 1.251 . S
C238 O256 1.254 . S
N239 C240 1.333 . S
N239 C244 1.307 . S
N239 Zn245 2.020 . S
C240 N239 1.333 . S
C240 C241 1.379 . S
C240 H258 0.952 . S
C241 C240 1.379 . S
C241 C242 1.390 . S
C241 H268 0.949 . S
C242 C241 1.390 . S
C242 C243 1.357 . S
C243 C242 1.357 . S
C243 C244 1.370 . S
C243 H269 0.950 . S
C244 N239 1.307 . S
C244 C243 1.370 . S
C244 H262 0.948 . S
Zn245 N239 2.020 . S
Zn245 O254 2.039 . S
Zn245 O260 2.034 . S
Zn245 O264 2.025 . S
Zn245 O266 2.024 . S
C246 O265 1.246 . S
C246 O266 1.249 . S
N247 C248 1.307 . S
N247 C249 1.333 . S
N247 Zn253 2.020 . S
C248 N247 1.307 . S
C248 C252 1.370 . S
C248 H259 0.948 . S
C249 N247 1.333 . S
C249 C250 1.379 . S
C249 H257 0.952 . S
C250 C249 1.379 . S
C250 C251 1.390 . S
C250 H270 0.949 . S
C251 C250 1.390 . S
C251 C252 1.357 . S
C252 C248 1.370 . S
C252 C251 1.357 . S
C252 H271 0.950 . S
Zn253 N247 2.020 . S
Zn253 O256 2.025 . S
Zn253 O261 2.024 . S
Zn253 O263 2.039 . S
Zn253 O265 2.034 . S
O254 C238 1.251 . S
O254 Zn245 2.039 . S
C255 O260 1.246 . S
C255 O261 1.249 . S
O256 C238 1.254 . S
O256 Zn253 2.025 . S
H257 C249 0.952 . S
H258 C240 0.952 . S
H259 C248 0.948 . S
O260 Zn245 2.034 . S
O260 C255 1.246 . S
O261 Zn253 2.024 . S
O261 C255 1.249 . S
H262 C244 0.948 . S
O263 Zn253 2.039 . S
O263 C267 1.251 . S
O264 Zn245 2.025 . S
O264 C267 1.254 . S
O265 C246 1.246 . S
O265 Zn253 2.034 . S
O266 Zn245 2.024 . S
O266 C246 1.249 . S
C267 O263 1.251 . S
C267 O264 1.254 . S
H268 C241 0.949 . S
H269 C243 0.950 . S
H270 C250 0.949 . S
H271 C252 0.950 . S
C272 O288 1.251 . S
C272 O290 1.254 . S
N273 C274 1.333 . S
N273 C278 1.307 . S
N273 Zn279 2.020 . S
C274 N273 1.333 . S
C274 C275 1.379 . S
C274 H292 0.952 . S
C275 C274 1.379 . S
C275 C276 1.390 . S
C275 H302 0.949 . S
C276 C275 1.390 . S
C276 C277 1.357 . S
C277 C276 1.357 . S
C277 C278 1.370 . S
C277 H303 0.950 . S
C278 N273 1.307 . S
C278 C277 1.370 . S
C278 H296 0.948 . S
Zn279 N273 2.020 . S
Zn279 O288 2.039 . S
Zn279 O294 2.034 . S
Zn279 O298 2.025 . S
Zn279 O300 2.024 . S
C280 O299 1.246 . S
C280 O300 1.249 . S
N281 C282 1.307 . S
N281 C283 1.333 . S
N281 Zn287 2.020 . S
C282 N281 1.307 . S
C282 C286 1.370 . S
C282 H293 0.948 . S
C283 N281 1.333 . S
C283 C284 1.379 . S
C283 H291 0.952 . S
C284 C283 1.379 . S
C284 C285 1.390 . S
C284 H304 0.949 . S
C285 C284 1.390 . S
C285 C286 1.357 . S
C286 C282 1.370 . S
C286 C285 1.357 . S
C286 H305 0.950 . S
Zn287 N281 2.020 . S
Zn287 O290 2.025 . S
Zn287 O295 2.024 . S
Zn287 O297 2.039 . S
Zn287 O299 2.034 . S
O288 C272 1.251 . S
O288 Zn279 2.039 . S
C289 O294 1.246 . S
C289 O295 1.249 . S
O290 C272 1.254 . S
O290 Zn287 2.025 . S
H291 C283 0.952 . S
H292 C274 0.952 . S
H293 C282 0.948 . S
O294 Zn279 2.034 . S
O294 C289 1.246 . S
O295 Zn287 2.024 . S
O295 C289 1.249 . S
H296 C278 0.948 . S
O297 Zn287 2.039 . S
O297 C301 1.251 . S
O298 Zn279 2.025 . S
O298 C301 1.254 . S
O299 C280 1.246 . S
O299 Zn287 2.034 . S
O300 Zn279 2.024 . S
O300 C280 1.249 . S
C301 O297 1.251 . S
C301 O298 1.254 . S
H302 C275 0.949 . S
H303 C277 0.950 . S
H304 C284 0.949 . S
H305 C286 0.950 . S
C306 O322 1.251 . S
C306 O324 1.254 . S
N307 C308 1.333 . S
N307 C312 1.307 . S
N307 Zn313 2.020 . S
C308 N307 1.333 . S
C308 C309 1.379 . S
C308 H326 0.952 . S
C309 C308 1.379 . S
C309 C310 1.390 . S
C309 H336 0.949 . S
C310 C309 1.390 . S
C310 C311 1.357 . S
C311 C310 1.357 . S
C311 C312 1.370 . S
C311 H337 0.950 . S
C312 N307 1.307 . S
C312 C311 1.370 . S
C312 H330 0.948 . S
Zn313 N307 2.020 . S
Zn313 O322 2.039 . S
Zn313 O328 2.034 . S
Zn313 O332 2.025 . S
Zn313 O334 2.024 . S
C314 O333 1.246 . S
C314 O334 1.249 . S
N315 C316 1.307 . S
N315 C317 1.333 . S
N315 Zn321 2.020 . S
C316 N315 1.307 . S
C316 C320 1.370 . S
C316 H327 0.948 . S
C317 N315 1.333 . S
C317 C318 1.379 . S
C317 H325 0.952 . S
C318 C317 1.379 . S
C318 C319 1.390 . S
C318 H338 0.949 . S
C319 C318 1.390 . S
C319 C320 1.357 . S
C320 C316 1.370 . S
C320 C319 1.357 . S
C320 H339 0.950 . S
Zn321 N315 2.020 . S
Zn321 O324 2.025 . S
Zn321 O329 2.024 . S
Zn321 O331 2.039 . S
Zn321 O333 2.034 . S
O322 C306 1.251 . S
O322 Zn313 2.039 . S
C323 O328 1.246 . S
C323 O329 1.249 . S
O324 C306 1.254 . S
O324 Zn321 2.025 . S
H325 C317 0.952 . S
H326 C308 0.952 . S
H327 C316 0.948 . S
O328 Zn313 2.034 . S
O328 C323 1.246 . S
O329 Zn321 2.024 . S
O329 C323 1.249 . S
H330 C312 0.948 . S
O331 Zn321 2.039 . S
O331 C335 1.251 . S
O332 Zn313 2.025 . S
O332 C335 1.254 . S
O333 C314 1.246 . S
O333 Zn321 2.034 . S
O334 Zn313 2.024 . S
O334 C314 1.249 . S
C335 O331 1.251 . S
C335 O332 1.254 . S
H336 C309 0.949 . S
H337 C311 0.950 . S
H338 C318 0.949 . S
H339 C320 0.950 . S
C340 O356 1.251 . S
C340 O358 1.254 . S
N341 C342 1.333 . S
N341 C346 1.307 . S
N341 Zn347 2.020 . S
C342 N341 1.333 . S
C342 C343 1.379 . S
C342 H360 0.952 . S
C343 C342 1.379 . S
C343 C344 1.390 . S
C343 H370 0.949 . S
C344 C343 1.390 . S
C344 C345 1.357 . S
C345 C344 1.357 . S
C345 C346 1.370 . S
C345 H371 0.950 . S
C346 N341 1.307 . S
C346 C345 1.370 . S
C346 H364 0.948 . S
Zn347 N341 2.020 . S
Zn347 O356 2.039 . S
Zn347 O362 2.034 . S
Zn347 O366 2.025 . S
Zn347 O368 2.024 . S
C348 O367 1.246 . S
C348 O368 1.249 . S
N349 C350 1.307 . S
N349 C351 1.333 . S
N349 Zn355 2.020 . S
C350 N349 1.307 . S
C350 C354 1.370 . S
C350 H361 0.948 . S
C351 N349 1.333 . S
C351 C352 1.379 . S
C351 H359 0.952 . S
C352 C351 1.379 . S
C352 C353 1.390 . S
C352 H372 0.949 . S
C353 C352 1.390 . S
C353 C354 1.357 . S
C354 C350 1.370 . S
C354 C353 1.357 . S
C354 H373 0.950 . S
Zn355 N349 2.020 . S
Zn355 O358 2.025 . S
Zn355 O363 2.024 . S
Zn355 O365 2.039 . S
Zn355 O367 2.034 . S
O356 C340 1.251 . S
O356 Zn347 2.039 . S
C357 O362 1.246 . S
C357 O363 1.249 . S
O358 C340 1.254 . S
O358 Zn355 2.025 . S
H359 C351 0.952 . S
H360 C342 0.952 . S
H361 C350 0.948 . S
O362 Zn347 2.034 . S
O362 C357 1.246 . S
O363 Zn355 2.024 . S
O363 C357 1.249 . S
H364 C346 0.948 . S
O365 Zn355 2.039 . S
O365 C369 1.251 . S
O366 Zn347 2.025 . S
O366 C369 1.254 . S
O367 C348 1.246 . S
O367 Zn355 2.034 . S
O368 Zn347 2.024 . S
O368 C348 1.249 . S
C369 O365 1.251 . S
C369 O366 1.254 . S
H370 C343 0.949 . S
H371 C345 0.950 . S
H372 C352 0.949 . S
H373 C354 0.950 . S
C374 O390 1.251 . S
C374 O392 1.254 . S
N375 C376 1.333 . S
N375 C380 1.307 . S
N375 Zn381 2.020 . S
C376 N375 1.333 . S
C376 C377 1.379 . S
C376 H394 0.952 . S
C377 C376 1.379 . S
C377 C378 1.390 . S
C377 H404 0.949 . S
C378 C377 1.390 . S
C378 C379 1.357 . S
C379 C378 1.357 . S
C379 C380 1.370 . S
C379 H405 0.950 . S
C380 N375 1.307 . S
C380 C379 1.370 . S
C380 H398 0.948 . S
Zn381 N375 2.020 . S
Zn381 O390 2.039 . S
Zn381 O396 2.034 . S
Zn381 O400 2.025 . S
Zn381 O402 2.024 . S
C382 O401 1.246 . S
C382 O402 1.249 . S
N383 C384 1.307 . S
N383 C385 1.333 . S
N383 Zn389 2.020 . S
C384 N383 1.307 . S
C384 C388 1.370 . S
C384 H395 0.948 . S
C385 N383 1.333 . S
C385 C386 1.379 . S
C385 H393 0.952 . S
C386 C385 1.379 . S
C386 C387 1.390 . S
C386 H406 0.949 . S
C387 C386 1.390 . S
C387 C388 1.357 . S
C388 C384 1.370 . S
C388 C387 1.357 . S
C388 H407 0.950 . S
Zn389 N383 2.020 . S
Zn389 O392 2.025 . S
Zn389 O397 2.024 . S
Zn389 O399 2.039 . S
Zn389 O401 2.034 . S
O390 C374 1.251 . S
O390 Zn381 2.039 . S
C391 O396 1.246 . S
C391 O397 1.249 . S
O392 C374 1.254 . S
O392 Zn389 2.025 . S
H393 C385 0.952 . S
H394 C376 0.952 . S
H395 C384 0.948 . S
O396 Zn381 2.034 . S
O396 C391 1.246 . S
O397 Zn389 2.024 . S
O397 C391 1.249 . S
H398 C380 0.948 . S
O399 Zn389 2.039 . S
O399 C403 1.251 . S
O400 Zn381 2.025 . S
O400 C403 1.254 . S
O401 C382 1.246 . S
O401 Zn389 2.034 . S
O402 Zn381 2.024 . S
O402 C382 1.249 . S
C403 O399 1.251 . S
C403 O400 1.254 . S
H404 C377 0.949 . S
H405 C379 0.950 . S
H406 C386 0.949 . S
H407 C388 0.950 . S
H408 C420 0.931 . S
H409 C422 0.930 . S
H410 C423 0.930 . S
H411 C427 0.959 . S
H412 C427 0.959 . S
H413 C427 0.961 . S
H414 C428 0.960 . S
H415 C428 0.961 . S
H416 C428 0.959 . S
H417 C431 0.929 . S
H418 C432 0.931 . S
H419 C434 0.930 . S
C420 H408 0.931 . S
C420 C421 1.399 . S
C420 C425 1.399 . S
C421 C420 1.399 . S
C421 C422 1.376 . S
C422 H409 0.930 . S
C422 C421 1.376 . S
C422 C423 1.388 . S
C423 H410 0.930 . S
C423 C422 1.388 . S
C423 C424 1.390 . S
C424 C423 1.390 . S
C424 C425 1.394 . S
C424 C430 1.465 . S
C425 C420 1.399 . S
C425 C424 1.394 . S
C425 C426 1.516 . S
C426 C425 1.516 . S
C426 C427 1.502 . S
C426 C428 1.561 . S
C426 C429 1.526 . S
C427 H411 0.959 . S
C427 H412 0.959 . S
C427 H413 0.961 . S
C427 C426 1.502 . S
C428 H414 0.960 . S
C428 H415 0.961 . S
C428 H416 0.959 . S
C428 C426 1.561 . S
C429 C426 1.526 . S
C429 C430 1.396 . S
C429 C434 1.390 . S
C430 C424 1.465 . S
C430 C429 1.396 . S
C430 C431 1.399 . S
C431 H417 0.929 . S
C431 C430 1.399 . S
C431 C432 1.385 . S
C432 H418 0.931 . S
C432 C431 1.385 . S
C432 C433 1.389 . S
C433 C432 1.389 . S
C433 C434 1.387 . S
C434 H419 0.930 . S
C434 C429 1.390 . S
C434 C433 1.387 . S
H435 C447 0.930 . S
H436 C449 0.930 . S
H437 C450 0.930 . S
H438 C454 0.959 . S
H439 C454 0.959 . S
H440 C454 0.961 . S
H441 C455 0.960 . S
H442 C455 0.961 . S
H443 C455 0.959 . S
H444 C458 0.929 . S
H445 C459 0.931 . S
H446 C461 0.930 . S
C447 H435 0.930 . S
C447 C448 1.399 . S
C447 C452 1.399 . S
C448 C447 1.399 . S
C448 C449 1.376 . S
C449 H436 0.930 . S
C449 C448 1.376 . S
C449 C450 1.388 . S
C450 H437 0.930 . S
C450 C449 1.388 . S
C450 C451 1.390 . S
C451 C450 1.390 . S
C451 C452 1.394 . S
C451 C457 1.465 . S
C452 C447 1.399 . S
C452 C451 1.394 . S
C452 C453 1.516 . S
C453 C452 1.516 . S
C453 C454 1.502 . S
C453 C455 1.561 . S
C453 C456 1.526 . S
C454 H438 0.959 . S
C454 H439 0.959 . S
C454 H440 0.961 . S
C454 C453 1.502 . S
C455 H441 0.960 . S
C455 H442 0.961 . S
C455 H443 0.959 . S
C455 C453 1.561 . S
C456 C453 1.526 . S
C456 C457 1.396 . S
C456 C461 1.390 1_455 S
C457 C451 1.465 . S
C457 C456 1.396 . S
C457 C458 1.399 . S
C458 H444 0.929 . S
C458 C457 1.399 . S
C458 C459 1.385 1_455 S
C459 H445 0.931 . S
C459 C458 1.385 1_655 S
C459 C460 1.389 . S
C460 C459 1.389 . S
C460 C461 1.387 . S
C461 H446 0.930 . S
C461 C456 1.390 1_655 S
C461 C460 1.387 . S
H462 C474 0.930 . S
H463 C476 0.930 . S
H464 C477 0.930 . S
H465 C481 0.959 . S
H466 C481 0.959 . S
H467 C481 0.961 . S
H468 C482 0.960 . S
H469 C482 0.961 . S
H470 C482 0.959 . S
H471 C485 0.929 . S
H472 C486 0.931 . S
H473 C488 0.930 . S
C474 H462 0.930 . S
C474 C475 1.399 . S
C474 C479 1.399 1_545 S
C475 C474 1.399 . S
C475 C476 1.376 . S
C476 H463 0.930 . S
C476 C475 1.376 . S
C476 C477 1.388 . S
C477 H464 0.930 . S
C477 C476 1.388 . S
C477 C478 1.390 1_545 S
C478 C477 1.390 1_565 S
C478 C479 1.394 . S
C478 C484 1.465 . S
C479 C474 1.399 1_565 S
C479 C478 1.394 . S
C479 C480 1.516 . S
C480 C479 1.516 . S
C480 C481 1.502 . S
C480 C482 1.561 . S
C480 C483 1.526 . S
C481 H465 0.959 . S
C481 H466 0.959 . S
C481 H467 0.961 . S
C481 C480 1.502 . S
C482 H468 0.960 . S
C482 H469 0.961 . S
C482 H470 0.959 . S
C482 C480 1.561 . S
C483 C480 1.526 . S
C483 C484 1.396 . S
C483 C488 1.390 . S
C484 C478 1.465 . S
C484 C483 1.396 . S
C484 C485 1.399 . S
C485 H471 0.929 . S
C485 C484 1.399 . S
C485 C486 1.385 . S
C486 H472 0.931 . S
C486 C485 1.385 . S
C486 C487 1.389 . S
C487 C486 1.389 . S
C487 C488 1.387 . S
C488 H473 0.930 . S
C488 C483 1.390 . S
C488 C487 1.387 . S
H489 C501 0.930 . S
H490 C503 0.930 . S
H491 C504 0.930 . S
H492 C508 0.959 . S
H493 C508 0.959 . S
H494 C508 0.961 . S
H495 C509 0.960 . S
H496 C509 0.961 . S
H497 C509 0.959 . S
H498 C512 0.929 1_655 S
H499 C513 0.931 . S
H500 C515 0.930 . S
C501 H489 0.930 . S
C501 C502 1.399 . S
C501 C506 1.399 . S
C502 C501 1.399 . S
C502 C503 1.376 . S
C503 H490 0.930 . S
C503 C502 1.376 . S
C503 C504 1.388 . S
C504 H491 0.930 . S
C504 C503 1.388 . S
C504 C505 1.390 . S
C505 C504 1.390 . S
C505 C506 1.394 . S
C505 C511 1.465 . S
C506 C501 1.399 . S
C506 C505 1.394 . S
C506 C507 1.516 . S
C507 C506 1.516 . S
C507 C508 1.502 . S
C507 C509 1.561 . S
C507 C510 1.526 . S
C508 H492 0.959 . S
C508 H493 0.959 . S
C508 H494 0.961 . S
C508 C507 1.502 . S
C509 H495 0.960 . S
C509 H496 0.961 . S
C509 H497 0.959 . S
C509 C507 1.561 . S
C510 C507 1.526 . S
C510 C511 1.396 . S
C510 C515 1.390 . S
C511 C505 1.465 . S
C511 C510 1.396 . S
C511 C512 1.399 . S
C512 H498 0.929 1_455 S
C512 C511 1.399 . S
C512 C513 1.385 1_455 S
C513 H499 0.931 . S
C513 C512 1.385 1_655 S
C513 C514 1.389 . S
C514 C513 1.389 . S
C514 C515 1.387 1_655 S
C515 H500 0.930 . S
C515 C510 1.390 . S
C515 C514 1.387 1_455 S
H516 C528 0.930 . S
H517 C530 0.930 . S
H518 C531 0.930 . S
H519 C535 0.959 . S
H520 C535 0.959 . S
H521 C535 0.961 . S
H522 C536 0.960 . S
H523 C536 0.961 . S
H524 C536 0.959 . S
H525 C539 0.929 . S
H526 C540 0.931 . S
H527 C542 0.930 . S
C528 H516 0.930 . S
C528 C529 1.399 1_565 S
C528 C533 1.399 . S
C529 C528 1.399 1_545 S
C529 C530 1.376 . S
C530 H517 0.930 . S
C530 C529 1.376 . S
C530 C531 1.388 1_545 S
C531 H518 0.930 . S
C531 C530 1.388 1_565 S
C531 C532 1.390 . S
C532 C531 1.390 . S
C532 C533 1.394 . S
C532 C538 1.465 . S
C533 C528 1.399 . S
C533 C532 1.394 . S
C533 C534 1.516 . S
C534 C533 1.516 . S
C534 C535 1.502 . S
C534 C536 1.561 . S
C534 C537 1.526 . S
C535 H519 0.959 . S
C535 H520 0.959 . S
C535 H521 0.961 . S
C535 C534 1.502 . S
C536 H522 0.960 . S
C536 H523 0.961 . S
C536 H524 0.959 . S
C536 C534 1.561 . S
C537 C534 1.526 . S
C537 C538 1.396 . S
C537 C542 1.390 1_455 S
C538 C532 1.465 . S
C538 C537 1.396 . S
C538 C539 1.399 1_455 S
C539 H525 0.929 . S
C539 C538 1.399 1_655 S
C539 C540 1.385 . S
C540 H526 0.931 . S
C540 C539 1.385 . S
C540 C541 1.389 . S
C541 C540 1.389 . S
C541 C542 1.387 . S
C542 H527 0.930 . S
C542 C537 1.390 1_655 S
C542 C541 1.387 . S
H543 C555 0.930 . S
H544 C557 0.930 . S
H545 C558 0.930 . S
H546 C562 0.959 . S
H547 C562 0.959 . S
H548 C562 0.961 . S
H549 C563 0.960 . S
H550 C563 0.961 . S
H551 C563 0.959 . S
H552 C566 0.929 . S
H553 C567 0.931 . S
H554 C569 0.930 . S
C555 H543 0.930 . S
C555 C556 1.399 . S
C555 C560 1.399 . S
C556 C555 1.399 . S
C556 C557 1.376 . S
C557 H544 0.930 . S
C557 C556 1.376 . S
C557 C558 1.388 . S
C558 H545 0.930 . S
C558 C557 1.388 . S
C558 C559 1.390 . S
C559 C558 1.390 . S
C559 C560 1.394 . S
C559 C565 1.465 . S
C560 C555 1.399 . S
C560 C559 1.394 . S
C560 C561 1.516 . S
C561 C560 1.516 . S
C561 C562 1.502 . S
C561 C563 1.561 . S
C561 C564 1.526 . S
C562 H546 0.959 . S
C562 H547 0.959 . S
C562 H548 0.961 . S
C562 C561 1.502 . S
C563 H549 0.960 . S
C563 H550 0.961 . S
C563 H551 0.959 . S
C563 C561 1.561 . S
C564 C561 1.526 . S
C564 C565 1.396 . S
C564 C569 1.390 1_565 S
C565 C559 1.465 . S
C565 C564 1.396 . S
C565 C566 1.399 . S
C566 H552 0.929 . S
C566 C565 1.399 . S
C566 C567 1.385 1_565 S
C567 H553 0.931 . S
C567 C566 1.385 1_545 S
C567 C568 1.389 . S
C568 C567 1.389 . S
C568 C569 1.387 . S
C569 H554 0.930 . S
C569 C564 1.390 1_545 S
C569 C568 1.387 . S
H570 C582 0.930 1_565 S
H571 C584 0.930 . S
H572 C585 0.930 . S
H573 C589 0.959 . S
H574 C589 0.959 . S
H575 C589 0.961 . S
H576 C590 0.960 . S
H577 C590 0.961 . S
H578 C590 0.959 . S
H579 C593 0.929 . S
H580 C594 0.931 . S
H581 C596 0.930 . S
C582 H570 0.930 1_545 S
C582 C583 1.399 . S
C582 C587 1.399 . S
C583 C582 1.399 . S
C583 C584 1.376 . S
C584 H571 0.930 . S
C584 C583 1.376 . S
C584 C585 1.388 . S
C585 H572 0.930 . S
C585 C584 1.388 . S
C585 C586 1.390 . S
C586 C585 1.390 . S
C586 C587 1.394 . S
C586 C592 1.465 . S
C587 C582 1.399 . S
C587 C586 1.394 . S
C587 C588 1.516 . S
C588 C587 1.516 . S
C588 C589 1.502 . S
C588 C590 1.561 . S
C588 C591 1.526 . S
C589 H573 0.959 . S
C589 H574 0.959 . S
C589 H575 0.961 . S
C589 C588 1.502 . S
C590 H576 0.960 . S
C590 H577 0.961 . S
C590 H578 0.959 . S
C590 C588 1.561 . S
C591 C588 1.526 . S
C591 C592 1.396 . S
C591 C596 1.390 . S
C592 C586 1.465 . S
C592 C591 1.396 . S
C592 C593 1.399 . S
C593 H579 0.929 . S
C593 C592 1.399 . S
C593 C594 1.385 . S
C594 H580 0.931 . S
C594 C593 1.385 . S
C594 C595 1.389 . S
C595 C594 1.389 . S
C595 C596 1.387 . S
C596 H581 0.930 . S
C596 C591 1.390 . S
C596 C595 1.387 . S
H597 C609 0.930 . S
H598 C611 0.930 . S
H599 C612 0.930 . S
H600 C616 0.959 . S
H601 C616 0.959 . S
H602 C616 0.961 . S
H603 C617 0.960 . S
H604 C617 0.961 . S
H605 C617 0.959 . S
H606 C620 0.929 . S
H607 C621 0.931 . S
H608 C623 0.930 . S
C609 H597 0.930 . S
C609 C610 1.399 . S
C609 C614 1.399 1_455 S
C610 C609 1.399 . S
C610 C611 1.376 . S
C611 H598 0.930 . S
C611 C610 1.376 . S
C611 C612 1.388 . S
C612 H599 0.930 . S
C612 C611 1.388 . S
C612 C613 1.390 1_455 S
C613 C612 1.390 1_655 S
C613 C614 1.394 . S
C613 C619 1.465 . S
C614 C609 1.399 1_655 S
C614 C613 1.394 . S
C614 C615 1.516 . S
C615 C614 1.516 . S
C615 C616 1.502 . S
C615 C617 1.561 . S
C615 C618 1.526 . S
C616 H600 0.959 . S
C616 H601 0.959 . S
C616 H602 0.961 . S
C616 C615 1.502 . S
C617 H603 0.960 . S
C617 H604 0.961 . S
C617 H605 0.959 . S
C617 C615 1.561 . S
C618 C615 1.526 . S
C618 C619 1.396 . S
C618 C623 1.390 . S
C619 C613 1.465 . S
C619 C618 1.396 . S
C619 C620 1.399 . S
C620 H606 0.929 . S
C620 C619 1.399 . S
C620 C621 1.385 . S
C621 H607 0.931 . S
C621 C620 1.385 . S
C621 C622 1.389 . S
C622 C621 1.389 . S
C622 C623 1.387 . S
C623 H608 0.930 . S
C623 C618 1.390 . S
C623 C622 1.387 . S
H624 C636 0.930 . S
H625 C638 0.930 . S
H626 C639 0.930 . S
H627 C643 0.959 . S
H628 C643 0.959 . S
H629 C643 0.961 . S
H630 C644 0.960 . S
H631 C644 0.961 . S
H632 C644 0.959 . S
H633 C647 0.929 . S
H634 C648 0.931 . S
H635 C650 0.930 . S
C636 H624 0.930 . S
C636 C637 1.399 . S
C636 C641 1.399 1_565 S
C637 C636 1.399 . S
C637 C638 1.376 . S
C638 H625 0.930 . S
C638 C637 1.376 . S
C638 C639 1.388 1_565 S
C639 H626 0.930 . S
C639 C638 1.388 1_545 S
C639 C640 1.390 . S
C640 C639 1.390 . S
C640 C641 1.394 . S
C640 C646 1.465 . S
C641 C636 1.399 1_545 S
C641 C640 1.394 . S
C641 C642 1.516 . S
C642 C641 1.516 . S
C642 C643 1.502 . S
C642 C644 1.561 . S
C642 C645 1.526 . S
C643 H627 0.959 . S
C643 H628 0.959 . S
C643 H629 0.961 . S
C643 C642 1.502 . S
C644 H630 0.960 . S
C644 H631 0.961 . S
C644 H632 0.959 . S
C644 C642 1.561 . S
C645 C642 1.526 . S
C645 C646 1.396 . S
C645 C650 1.390 . S
C646 C640 1.465 . S
C646 C645 1.396 . S
C646 C647 1.399 . S
C647 H633 0.929 . S
C647 C646 1.399 . S
C647 C648 1.385 . S
C648 H634 0.931 . S
C648 C647 1.385 . S
C648 C649 1.389 . S
C649 C648 1.389 . S
C649 C650 1.387 . S
C650 H635 0.930 . S
C650 C645 1.390 . S
C650 C649 1.387 . S
H651 C663 0.930 . S
H652 C665 0.930 . S
H653 C666 0.930 . S
H654 C670 0.959 . S
H655 C670 0.959 . S
H656 C670 0.961 . S
H657 C671 0.960 . S
H658 C671 0.961 . S
H659 C671 0.959 . S
H660 C674 0.929 . S
H661 C675 0.931 1_565 S
H662 C677 0.930 . S
C663 H651 0.930 . S
C663 C664 1.399 . S
C663 C668 1.399 . S
C664 C663 1.399 . S
C664 C665 1.376 . S
C665 H652 0.930 . S
C665 C664 1.376 . S
C665 C666 1.388 . S
C666 H653 0.930 . S
C666 C665 1.388 . S
C666 C667 1.390 . S
C667 C666 1.390 . S
C667 C668 1.394 . S
C667 C673 1.465 . S
C668 C663 1.399 . S
C668 C667 1.394 . S
C668 C669 1.516 . S
C669 C668 1.516 . S
C669 C670 1.502 . S
C669 C671 1.561 . S
C669 C672 1.526 . S
C670 H654 0.959 . S
C670 H655 0.959 . S
C670 H656 0.961 . S
C670 C669 1.502 . S
C671 H657 0.960 . S
C671 H658 0.961 . S
C671 H659 0.959 . S
C671 C669 1.561 . S
C672 C669 1.526 . S
C672 C673 1.396 . S
C672 C677 1.390 . S
C673 C667 1.465 . S
C673 C672 1.396 . S
C673 C674 1.399 . S
C674 H660 0.929 . S
C674 C673 1.399 . S
C674 C675 1.385 . S
C675 H661 0.931 1_545 S
C675 C674 1.385 . S
C675 C676 1.383 1_545 S
C676 C675 1.383 1_565 S
C676 C677 1.374 1_565 S
C677 H662 0.930 . S
C677 C672 1.390 . S
C677 C676 1.374 1_545 S
H678 C690 0.930 . S
H679 C692 0.930 . S
H680 C693 0.930 . S
H681 C697 0.959 . S
H682 C697 0.959 . S
H683 C697 0.961 . S
H684 C698 0.960 . S
H685 C698 0.961 . S
H686 C698 0.959 . S
H687 C701 0.929 . S
H688 C702 0.931 . S
H689 C704 0.930 . S
C690 H678 0.930 . S
C690 C691 1.399 . S
C690 C695 1.399 1_455 S
C691 C690 1.399 . S
C691 C692 1.376 . S
C692 H679 0.930 . S
C692 C691 1.376 . S
C692 C693 1.388 1_455 S
C693 H680 0.930 . S
C693 C692 1.388 1_655 S
C693 C694 1.390 . S
C694 C693 1.390 . S
C694 C695 1.394 . S
C694 C700 1.465 . S
C695 C690 1.399 1_655 S
C695 C694 1.394 . S
C695 C696 1.516 . S
C696 C695 1.516 . S
C696 C697 1.502 . S
C696 C698 1.561 . S
C696 C699 1.526 . S
C697 H681 0.959 . S
C697 H682 0.959 . S
C697 H683 0.961 . S
C697 C696 1.502 . S
C698 H684 0.960 . S
C698 H685 0.961 . S
C698 H686 0.959 . S
C698 C696 1.561 . S
C699 C696 1.526 . S
C699 C700 1.396 . S
C699 C704 1.390 . S
C700 C694 1.465 . S
C700 C699 1.396 . S
C700 C701 1.399 . S
C701 H687 0.929 . S
C701 C700 1.399 . S
C701 C702 1.385 . S
C702 H688 0.931 . S
C702 C701 1.385 . S
C702 C703 1.389 . S
C703 C702 1.389 . S
C703 C704 1.387 . S
C704 H689 0.930 . S
C704 C699 1.390 . S
C704 C703 1.387 . S
H705 C717 0.930 . S
H706 C719 0.930 . S
H707 C720 0.930 . S
H708 C724 0.959 . S
H709 C724 0.959 . S
H710 C724 0.961 . S
H711 C725 0.960 . S
H712 C725 0.961 . S
H713 C725 0.959 . S
H714 C728 0.933 1_545 S
H715 C729 0.931 . S
H716 C731 0.930 . S
C717 H705 0.930 . S
C717 C718 1.399 1_655 S
C717 C722 1.399 . S
C718 C717 1.399 1_455 S
C718 C719 1.376 . S
C719 H706 0.930 . S
C719 C718 1.376 . S
C719 C720 1.388 1_455 S
C720 H707 0.930 . S
C720 C719 1.388 1_655 S
C720 C721 1.390 . S
C721 C720 1.390 . S
C721 C722 1.394 . S
C721 C727 1.465 . S
C722 C717 1.399 . S
C722 C721 1.394 . S
C722 C723 1.516 . S
C723 C722 1.516 . S
C723 C724 1.502 . S
C723 C725 1.561 . S
C723 C726 1.526 . S
C724 H708 0.959 . S
C724 H709 0.959 . S
C724 H710 0.961 . S
C724 C723 1.502 . S
C725 H711 0.960 . S
C725 H712 0.961 . S
C725 H713 0.959 . S
C725 C723 1.561 . S
C726 C723 1.526 . S
C726 C727 1.396 . S
C726 C731 1.390 1_545 S
C727 C721 1.465 . S
C727 C726 1.396 . S
C727 C728 1.391 1_545 S
C728 H714 0.933 1_565 S
C728 C727 1.391 1_565 S
C728 C729 1.390 . S
C729 H715 0.931 . S
C729 C728 1.390 . S
C729 C730 1.389 . S
C730 C729 1.389 . S
C730 C731 1.387 . S
C731 H716 0.930 . S
C731 C726 1.390 1_565 S
C731 C730 1.387 . S
H732 C744 0.930 . S
H733 C746 0.930 . S
H734 C747 0.930 . S
H735 C751 0.959 . S
H736 C751 0.959 . S
H737 C751 0.961 . S
H738 C752 0.960 . S
H739 C752 0.961 . S
H740 C752 0.959 . S
H741 C755 0.929 . S
H742 C756 0.931 . S
H743 C758 0.930 . S
C744 H732 0.930 . S
C744 C745 1.399 . S
C744 C749 1.399 . S
C745 C744 1.399 . S
C745 C746 1.376 . S
C746 H733 0.930 . S
C746 C745 1.376 . S
C746 C747 1.388 . S
C747 H734 0.930 . S
C747 C746 1.388 . S
C747 C748 1.390 . S
C748 C747 1.390 . S
C748 C749 1.394 . S
C748 C754 1.465 . S
C749 C744 1.399 . S
C749 C748 1.394 . S
C749 C750 1.516 . S
C750 C749 1.516 . S
C750 C751 1.502 . S
C750 C752 1.561 . S
C750 C753 1.526 . S
C751 H735 0.959 . S
C751 H736 0.959 . S
C751 H737 0.961 . S
C751 C750 1.502 . S
C752 H738 0.960 . S
C752 H739 0.961 . S
C752 H740 0.959 . S
C752 C750 1.561 . S
C753 C750 1.526 . S
C753 C754 1.396 . S
C753 C758 1.390 . S
C754 C748 1.465 . S
C754 C753 1.396 . S
C754 C755 1.399 . S
C755 H741 0.929 . S
C755 C754 1.399 . S
C755 C756 1.385 . S
C756 H742 0.931 . S
C756 C755 1.385 . S
C756 C757 1.389 . S
C757 C756 1.389 . S
C757 C758 1.387 . S
C758 H743 0.930 . S
C758 C753 1.390 . S
C758 C757 1.387 . S
H759 C771 0.930 . S
H760 C773 0.930 . S
H761 C774 0.930 . S
H762 C778 0.959 . S
H763 C778 0.959 . S
H764 C778 0.961 . S
H765 C779 0.960 . S
H766 C779 0.961 . S
H767 C779 0.959 . S
H768 C782 0.929 . S
H769 C783 0.931 . S
H770 C785 0.930 . S
C771 H759 0.930 . S
C771 C772 1.399 . S
C771 C776 1.399 . S
C772 C771 1.399 . S
C772 C773 1.376 . S
C773 H760 0.930 . S
C773 C772 1.376 . S
C773 C774 1.388 . S
C774 H761 0.930 . S
C774 C773 1.388 . S
C774 C775 1.390 . S
C775 C774 1.390 . S
C775 C776 1.394 . S
C775 C781 1.465 . S
C776 C771 1.399 . S
C776 C775 1.394 . S
C776 C777 1.516 . S
C777 C776 1.516 . S
C777 C778 1.502 . S
C777 C779 1.561 . S
C777 C780 1.526 . S
C778 H762 0.959 . S
C778 H763 0.959 . S
C778 H764 0.961 . S
C778 C777 1.502 . S
C779 H765 0.960 . S
C779 H766 0.961 . S
C779 H767 0.959 . S
C779 C777 1.561 . S
C780 C777 1.526 . S
C780 C781 1.396 . S
C780 C785 1.390 . S
C781 C775 1.465 . S
C781 C780 1.396 . S
C781 C782 1.399 . S
C782 H768 0.929 . S
C782 C781 1.399 . S
C782 C783 1.385 . S
C783 H769 0.931 . S
C783 C782 1.385 . S
C783 C784 1.389 . S
C784 C783 1.389 . S
C784 C785 1.387 . S
C785 H770 0.930 . S
C785 C780 1.390 . S
C785 C784 1.387 . S
H786 C798 0.930 . S
H787 C800 0.930 . S
H788 C801 0.930 . S
H789 C805 0.959 . S
H790 C805 0.959 . S
H791 C805 0.961 . S
H792 C806 0.960 . S
H793 C806 0.961 . S
H794 C806 0.959 . S
H795 C809 0.929 . S
H796 C810 0.931 . S
H797 C812 0.930 . S
C798 H786 0.930 . S
C798 C799 1.399 . S
C798 C803 1.399 . S
C799 C798 1.399 . S
C799 C800 1.376 . S
C800 H787 0.930 . S
C800 C799 1.376 . S
C800 C801 1.388 . S
C801 H788 0.930 . S
C801 C800 1.388 . S
C801 C802 1.390 . S
C802 C801 1.390 . S
C802 C803 1.394 . S
C802 C808 1.465 . S
C803 C798 1.399 . S
C803 C802 1.394 . S
C803 C804 1.516 . S
C804 C803 1.516 . S
C804 C805 1.502 . S
C804 C806 1.561 . S
C804 C807 1.526 . S
C805 H789 0.959 . S
C805 H790 0.959 . S
C805 H791 0.961 . S
C805 C804 1.502 . S
C806 H792 0.960 . S
C806 H793 0.961 . S
C806 H794 0.959 . S
C806 C804 1.561 . S
C807 C804 1.526 . S
C807 C808 1.396 . S
C807 C812 1.390 . S
C808 C802 1.465 . S
C808 C807 1.396 . S
C808 C809 1.399 . S
C809 H795 0.929 . S
C809 C808 1.399 . S
C809 C810 1.385 . S
C810 H796 0.931 . S
C810 C809 1.385 . S
C810 C811 1.389 . S
C811 C810 1.389 . S
C811 C812 1.387 . S
C812 H797 0.930 . S
C812 C807 1.390 . S
C812 C811 1.387 . S
H813 C825 0.930 . S
H814 C827 0.930 . S
H815 C828 0.930 . S
H816 C832 0.959 . S
H817 C832 0.959 . S
H818 C832 0.961 . S
H819 C833 0.960 . S
H820 C833 0.961 . S
H821 C833 0.959 . S
H822 C836 0.929 . S
H823 C837 0.931 . S
H824 C839 0.930 . S
C825 H813 0.930 . S
C825 C826 1.399 . S
C825 C830 1.399 . S
C826 C825 1.399 . S
C826 C827 1.376 . S
C827 H814 0.930 . S
C827 C826 1.376 . S
C827 C828 1.388 . S
C828 H815 0.930 . S
C828 C827 1.388 . S
C828 C829 1.390 . S
C829 C828 1.390 . S
C829 C830 1.394 . S
C829 C835 1.465 . S
C830 C825 1.399 . S
C830 C829 1.394 . S
C830 C831 1.516 . S
C831 C830 1.516 . S
C831 C832 1.502 . S
C831 C833 1.561 . S
C831 C834 1.526 . S
C832 H816 0.959 . S
C832 H817 0.959 . S
C832 H818 0.961 . S
C832 C831 1.502 . S
C833 H819 0.960 . S
C833 H820 0.961 . S
C833 H821 0.959 . S
C833 C831 1.561 . S
C834 C831 1.526 . S
C834 C835 1.396 . S
C834 C839 1.390 . S
C835 C829 1.465 . S
C835 C834 1.396 . S
C835 C836 1.399 . S
C836 H822 0.929 . S
C836 C835 1.399 . S
C836 C837 1.385 . S
C837 H823 0.931 . S
C837 C836 1.385 . S
C837 C838 1.389 . S
C838 C837 1.389 . S
C838 C839 1.387 . S
C839 H824 0.930 . S
C839 C834 1.390 . S
C839 C838 1.387 . S
H840 C852 0.930 . S
H841 C854 0.930 . S
H842 C855 0.930 . S
H843 C859 0.959 . S
H844 C859 0.959 . S
H845 C859 0.961 . S
H846 C860 0.960 . S
H847 C860 0.961 . S
H848 C860 0.959 . S
H849 C863 0.929 . S
H850 C864 0.931 . S
H851 C866 0.930 . S
C852 H840 0.930 . S
C852 C853 1.399 . S
C852 C857 1.399 . S
C853 C852 1.399 . S
C853 C854 1.376 . S
C854 H841 0.930 . S
C854 C853 1.376 . S
C854 C855 1.388 . S
C855 H842 0.930 . S
C855 C854 1.388 . S
C855 C856 1.390 . S
C856 C855 1.390 . S
C856 C857 1.394 . S
C856 C862 1.465 . S
C857 C852 1.399 . S
C857 C856 1.394 . S
C857 C858 1.516 . S
C858 C857 1.516 . S
C858 C859 1.502 . S
C858 C860 1.561 . S
C858 C861 1.526 . S
C859 H843 0.959 . S
C859 H844 0.959 . S
C859 H845 0.961 . S
C859 C858 1.502 . S
C860 H846 0.960 . S
C860 H847 0.961 . S
C860 H848 0.959 . S
C860 C858 1.561 . S
C861 C858 1.526 . S
C861 C862 1.396 . S
C861 C866 1.390 . S
C862 C856 1.465 . S
C862 C861 1.396 . S
C862 C863 1.399 . S
C863 H849 0.929 . S
C863 C862 1.399 . S
C863 C864 1.385 . S
C864 H850 0.931 . S
C864 C863 1.385 . S
C864 C865 1.389 . S
C865 C864 1.389 . S
C865 C866 1.387 . S
C866 H851 0.930 . S
C866 C861 1.390 . S
C866 C865 1.387 . S
H867 C879 0.930 . S
H868 C881 0.930 . S
H869 C882 0.930 . S
H870 C886 0.959 . S
H871 C886 0.959 . S
H872 C886 0.961 . S
H873 C887 0.960 . S
H874 C887 0.961 . S
H875 C887 0.959 . S
H876 C890 0.929 . S
H877 C891 0.931 . S
H878 C893 0.930 . S
C879 H867 0.930 . S
C879 C880 1.399 . S
C879 C884 1.399 . S
C880 C879 1.399 . S
C880 C881 1.376 . S
C881 H868 0.930 . S
C881 C880 1.376 . S
C881 C882 1.388 . S
C882 H869 0.930 . S
C882 C881 1.388 . S
C882 C883 1.390 . S
C883 C882 1.390 . S
C883 C884 1.394 . S
C883 C889 1.465 . S
C884 C879 1.399 . S
C884 C883 1.394 . S
C884 C885 1.516 . S
C885 C884 1.516 . S
C885 C886 1.502 . S
C885 C887 1.561 . S
C885 C888 1.526 . S
C886 H870 0.959 . S
C886 H871 0.959 . S
C886 H872 0.961 . S
C886 C885 1.502 . S
C887 H873 0.960 . S
C887 H874 0.961 . S
C887 H875 0.959 . S
C887 C885 1.561 . S
C888 C885 1.526 . S
C888 C889 1.396 . S
C888 C893 1.390 . S
C889 C883 1.465 . S
C889 C888 1.396 . S
C889 C890 1.399 . S
C890 H876 0.929 . S
C890 C889 1.399 . S
C890 C891 1.385 . S
C891 H877 0.931 . S
C891 C890 1.385 . S
C891 C892 1.389 . S
C892 C891 1.389 . S
C892 C893 1.387 . S
C893 H878 0.930 . S
C893 C888 1.390 . S
C893 C892 1.387 . S
H894 C906 0.930 . S
H895 C908 0.930 . S
H896 C909 0.930 . S
H897 C913 0.959 . S
H898 C913 0.959 . S
H899 C913 0.961 . S
H900 C914 0.960 . S
H901 C914 0.961 . S
H902 C914 0.959 . S
H903 C917 0.929 . S
H904 C918 0.931 . S
H905 C920 0.930 . S
C906 H894 0.930 . S
C906 C907 1.399 . S
C906 C911 1.399 . S
C907 C906 1.399 . S
C907 C908 1.376 . S
C908 H895 0.930 . S
C908 C907 1.376 . S
C908 C909 1.388 1_565 S
C909 H896 0.930 . S
C909 C908 1.388 1_545 S
C909 C910 1.390 1_545 S
C910 C909 1.390 1_565 S
C910 C911 1.394 . S
C910 C916 1.465 1_566 S
C911 C906 1.399 . S
C911 C910 1.394 . S
C911 C912 1.516 1_556 S
C912 C911 1.516 1_554 S
C912 C913 1.502 . S
C912 C914 1.561 . S
C912 C915 1.526 1_565 S
C913 H897 0.959 . S
C913 H898 0.959 . S
C913 H899 0.961 . S
C913 C912 1.502 . S
C914 H900 0.960 . S
C914 H901 0.961 . S
C914 H902 0.959 . S
C914 C912 1.561 . S
C915 C912 1.526 1_545 S
C915 C916 1.396 . S
C915 C920 1.390 . S
C916 C910 1.465 1_544 S
C916 C915 1.396 . S
C916 C917 1.399 . S
C917 H903 0.929 . S
C917 C916 1.399 . S
C917 C918 1.385 . S
C918 H904 0.931 . S
C918 C917 1.385 . S
C918 C919 1.389 . S
C919 C918 1.389 . S
C919 C920 1.387 . S
C920 H905 0.930 . S
C920 C915 1.390 . S
C920 C919 1.387 . S
H921 C933 0.930 . S
H922 C935 0.930 . S
H923 C936 0.930 . S
H924 C940 0.959 . S
H925 C940 0.959 . S
H926 C940 0.961 . S
H927 C941 0.960 . S
H928 C941 0.961 . S
H929 C941 0.959 . S
H930 C944 0.929 . S
H931 C945 0.931 . S
H932 C947 0.930 . S
C933 H921 0.930 . S
C933 C934 1.399 . S
C933 C938 1.399 . S
C934 C933 1.399 . S
C934 C935 1.376 . S
C935 H922 0.930 . S
C935 C934 1.376 . S
C935 C936 1.388 . S
C936 H923 0.930 . S
C936 C935 1.388 . S
C936 C937 1.390 . S
C937 C936 1.390 . S
C937 C938 1.394 . S
C937 C943 1.465 . S
C938 C933 1.399 . S
C938 C937 1.394 . S
C938 C939 1.516 . S
C939 C938 1.516 . S
C939 C940 1.502 . S
C939 C941 1.561 . S
C939 C942 1.526 . S
C940 H924 0.959 . S
C940 H925 0.959 . S
C940 H926 0.961 . S
C940 C939 1.502 . S
C941 H927 0.960 . S
C941 H928 0.961 . S
C941 H929 0.959 . S
C941 C939 1.561 . S
C942 C939 1.526 . S
C942 C943 1.396 . S
C942 C947 1.390 . S
C943 C937 1.465 . S
C943 C942 1.396 . S
C943 C944 1.399 . S
C944 H930 0.929 . S
C944 C943 1.399 . S
C944 C945 1.385 . S
C945 H931 0.931 . S
C945 C944 1.385 . S
C945 C946 1.389 . S
C946 C945 1.389 . S
C946 C947 1.387 . S
C947 H932 0.930 . S
C947 C942 1.390 . S
C947 C946 1.387 . S
H948 C960 0.930 . S
H949 C962 0.930 . S
H950 C963 0.930 . S
H951 C967 0.959 . S
H952 C967 0.959 . S
H953 C967 0.961 . S
H954 C968 0.960 1_556 S
H955 C968 0.961 . S
H956 C968 0.959 1_656 S
H957 C971 0.929 . S
H958 C972 0.931 . S
H959 C974 0.930 . S
C960 H948 0.930 . S
C960 C961 1.399 . S
C960 C965 1.399 . S
C961 C960 1.399 . S
C961 C962 1.376 . S
C962 H949 0.930 . S
C962 C961 1.376 . S
C962 C963 1.388 1_455 S
C963 H950 0.930 . S
C963 C962 1.388 1_655 S
C963 C964 1.390 . S
C964 C963 1.390 . S
C964 C965 1.394 1_655 S
C964 C970 1.465 1_556 S
C965 C960 1.399 . S
C965 C964 1.394 1_455 S
C965 C966 1.516 1_556 S
C966 C965 1.516 1_554 S
C966 C967 1.502 . S
C966 C968 1.561 . S
C966 C969 1.526 1_455 S
C967 H951 0.959 . S
C967 H952 0.959 . S
C967 H953 0.961 . S
C967 C966 1.502 . S
C968 H954 0.960 1_554 S
C968 H955 0.961 . S
C968 H956 0.959 1_454 S
C968 C966 1.561 . S
C969 C966 1.526 1_655 S
C969 C970 1.396 . S
C969 C974 1.390 . S
C970 C964 1.465 1_554 S
C970 C969 1.396 . S
C970 C971 1.399 . S
C971 H957 0.929 . S
C971 C970 1.399 . S
C971 C972 1.385 . S
C972 H958 0.931 . S
C972 C971 1.385 . S
C972 C973 1.389 . S
C973 C972 1.389 . S
C973 C974 1.387 . S
C974 H959 0.930 . S
C974 C969 1.390 . S
C974 C973 1.387 . S
H975 C987 0.930 . S
H976 C989 0.930 . S
H977 C990 0.930 . S
H978 C994 0.959 . S
H979 C994 0.959 . S
H980 C994 0.961 . S
H981 C995 0.960 . S
H982 C995 0.961 . S
H983 C995 0.959 . S
H984 C998 0.929 . S
H985 C999 0.931 . S
H986 C1001 0.930 . S
C987 H975 0.930 . S
C987 C988 1.399 . S
C987 C992 1.399 . S
C988 C987 1.399 . S
C988 C989 1.376 . S
C989 H976 0.930 . S
C989 C988 1.376 . S
C989 C990 1.388 . S
C990 H977 0.930 . S
C990 C989 1.388 . S
C990 C991 1.390 . S
C991 C990 1.390 . S
C991 C992 1.394 . S
C991 C997 1.465 . S
C992 C987 1.399 . S
C992 C991 1.394 . S
C992 C993 1.516 1_545 S
C993 C992 1.516 1_565 S
C993 C994 1.502 . S
C993 C995 1.561 . S
C993 C996 1.526 . S
C994 H978 0.959 . S
C994 H979 0.959 . S
C994 H980 0.961 . S
C994 C993 1.502 . S
C995 H981 0.960 . S
C995 H982 0.961 . S
C995 H983 0.959 . S
C995 C993 1.561 . S
C996 C993 1.526 . S
C996 C997 1.396 1_565 S
C996 C1001 1.390 . S
C997 C991 1.465 . S
C997 C996 1.396 1_545 S
C997 C998 1.399 . S
C998 H984 0.929 . S
C998 C997 1.399 . S
C998 C999 1.385 1_545 S
C999 H985 0.931 . S
C999 C998 1.385 1_565 S
C999 C1000 1.389 . S
C1000 C999 1.389 . S
C1000 C1001 1.387 . S
C1001 H986 0.930 . S
C1001 C996 1.390 . S
C1001 C1000 1.387 . S
H1002 C1014 0.930 . S
H1003 C1016 0.930 . S
H1004 C1017 0.930 1_556 S
H1005 C1021 0.959 . S
H1006 C1021 0.959 . S
H1007 C1021 0.961 . S
H1008 C1022 0.960 . S
H1009 C1022 0.961 . S
H1010 C1022 0.959 . S
H1011 C1025 0.929 . S
H1012 C1026 0.931 . S
H1013 C1028 0.930 . S
C1014 H1002 0.930 . S
C1014 C1015 1.399 . S
C1014 C1019 1.399 . S
C1015 C1014 1.399 . S
C1015 C1016 1.376 . S
C1016 H1003 0.930 . S
C1016 C1015 1.376 . S
C1016 C1017 1.388 . S
C1017 H1004 0.930 1_554 S
C1017 C1016 1.388 . S
C1017 C1018 1.390 . S
C1018 C1017 1.390 . S
C1018 C1019 1.394 . S
C1018 C1024 1.465 1_554 S
C1019 C1014 1.399 . S
C1019 C1018 1.394 . S
C1019 C1020 1.516 . S
C1020 C1019 1.516 . S
C1020 C1021 1.502 . S
C1020 C1022 1.561 . S
C1020 C1023 1.526 1_554 S
C1021 H1005 0.959 . S
C1021 H1006 0.959 . S
C1021 H1007 0.961 . S
C1021 C1020 1.502 . S
C1022 H1008 0.960 . S
C1022 H1009 0.961 . S
C1022 H1010 0.959 . S
C1022 C1020 1.561 . S
C1023 C1020 1.526 1_556 S
C1023 C1024 1.396 . S
C1023 C1028 1.390 . S
C1024 C1018 1.465 1_556 S
C1024 C1023 1.396 . S
C1024 C1025 1.399 . S
C1025 H1011 0.929 . S
C1025 C1024 1.399 . S
C1025 C1026 1.385 . S
C1026 H1012 0.931 . S
C1026 C1025 1.385 . S
C1026 C1027 1.389 . S
C1027 C1026 1.389 . S
C1027 C1028 1.387 . S
C1028 H1013 0.930 . S
C1028 C1023 1.390 . S
C1028 C1027 1.387 . S
H1029 C1041 0.930 . S
H1030 C1043 0.930 . S
H1031 C1044 0.930 . S
H1032 C1048 0.959 . S
H1033 C1048 0.959 . S
H1034 C1048 0.961 . S
H1035 C1049 0.960 . S
H1036 C1049 0.961 . S
H1037 C1049 0.959 . S
H1038 C1052 0.929 . S
H1039 C1053 0.931 . S
H1040 C1055 0.930 . S
C1041 H1029 0.930 . S
C1041 C1042 1.399 . S
C1041 C1046 1.399 . S
C1042 C1041 1.399 . S
C1042 C1043 1.376 . S
C1043 H1030 0.930 . S
C1043 C1042 1.376 . S
C1043 C1044 1.388 . S
C1044 H1031 0.930 . S
C1044 C1043 1.388 . S
C1044 C1045 1.390 . S
C1045 C1044 1.390 . S
C1045 C1046 1.394 . S
C1045 C1051 1.465 1_455 S
C1046 C1041 1.399 . S
C1046 C1045 1.394 . S
C1046 C1047 1.516 1_455 S
C1047 C1046 1.516 1_655 S
C1047 C1048 1.502 . S
C1047 C1049 1.561 1_655 S
C1047 C1050 1.526 . S
C1048 H1032 0.959 . S
C1048 H1033 0.959 . S
C1048 H1034 0.961 . S
C1048 C1047 1.502 . S
C1049 H1035 0.960 . S
C1049 H1036 0.961 . S
C1049 H1037 0.959 . S
C1049 C1047 1.561 1_455 S
C1050 C1047 1.526 . S
C1050 C1051 1.396 . S
C1050 C1055 1.390 . S
C1051 C1045 1.465 1_655 S
C1051 C1050 1.396 . S
C1051 C1052 1.399 . S
C1052 H1038 0.929 . S
C1052 C1051 1.399 . S
C1052 C1053 1.385 . S
C1053 H1039 0.931 . S
C1053 C1052 1.385 . S
C1053 C1054 1.389 . S
C1054 C1053 1.389 . S
C1054 C1055 1.387 . S
C1055 H1040 0.930 . S
C1055 C1050 1.390 . S
C1055 C1054 1.387 . S
H1056 C1068 0.930 . S
H1057 C1070 0.930 . S
H1058 C1071 0.930 . S
H1059 C1075 0.959 . S
H1060 C1075 0.959 . S
H1061 C1075 0.961 . S
H1062 C1076 0.960 . S
H1063 C1076 0.961 1_565 S
H1064 C1076 0.959 . S
H1065 C1079 0.929 . S
H1066 C1080 0.931 . S
H1067 C1082 0.930 . S
C1068 H1056 0.930 . S
C1068 C1069 1.399 . S
C1068 C1073 1.399 . S
C1069 C1068 1.399 . S
C1069 C1070 1.376 . S
C1070 H1057 0.930 . S
C1070 C1069 1.376 . S
C1070 C1071 1.388 . S
C1071 H1058 0.930 . S
C1071 C1070 1.388 . S
C1071 C1072 1.390 . S
C1072 C1071 1.390 . S
C1072 C1073 1.394 . S
C1072 C1078 1.465 . S
C1073 C1068 1.399 . S
C1073 C1072 1.394 . S
C1073 C1074 1.516 . S
C1074 C1073 1.516 . S
C1074 C1075 1.502 . S
C1074 C1076 1.561 . S
C1074 C1077 1.526 . S
C1075 H1059 0.959 . S
C1075 H1060 0.959 . S
C1075 H1061 0.961 . S
C1075 C1074 1.502 . S
C1076 H1062 0.960 . S
C1076 H1063 0.961 1_545 S
C1076 H1064 0.959 . S
C1076 C1074 1.561 . S
C1077 C1074 1.526 . S
C1077 C1078 1.396 . S
C1077 C1082 1.390 . S
C1078 C1072 1.465 . S
C1078 C1077 1.396 . S
C1078 C1079 1.399 . S
C1079 H1065 0.929 . S
C1079 C1078 1.399 . S
C1079 C1080 1.385 . S
C1080 H1066 0.931 . S
C1080 C1079 1.385 . S
C1080 C1081 1.389 . S
C1081 C1080 1.389 . S
C1081 C1082 1.387 . S
C1082 H1067 0.930 . S
C1082 C1077 1.390 . S
C1082 C1081 1.387 . S
H1083 C1095 0.930 . S
H1084 C1097 0.930 . S
H1085 C1098 0.930 . S
H1086 C1102 0.959 . S
H1087 C1102 0.959 . S
H1088 C1102 0.961 . S
H1089 C1103 0.960 . S
H1090 C1103 0.961 . S
H1091 C1103 0.959 . S
H1092 C1106 0.929 . S
H1093 C1107 0.931 . S
H1094 C1109 0.930 . S
C1095 H1083 0.930 . S
C1095 C1096 1.399 . S
C1095 C1100 1.399 . S
C1096 C1095 1.399 . S
C1096 C1097 1.376 . S
C1097 H1084 0.930 . S
C1097 C1096 1.376 . S
C1097 C1098 1.388 . S
C1098 H1085 0.930 . S
C1098 C1097 1.388 . S
C1098 C1099 1.390 . S
C1099 C1098 1.390 . S
C1099 C1100 1.394 . S
C1099 C1105 1.465 . S
C1100 C1095 1.399 . S
C1100 C1099 1.394 . S
C1100 C1101 1.516 . S
C1101 C1100 1.516 . S
C1101 C1102 1.502 . S
C1101 C1103 1.561 . S
C1101 C1104 1.526 . S
C1102 H1086 0.959 . S
C1102 H1087 0.959 . S
C1102 H1088 0.961 . S
C1102 C1101 1.502 . S
C1103 H1089 0.960 . S
C1103 H1090 0.961 . S
C1103 H1091 0.959 . S
C1103 C1101 1.561 . S
C1104 C1101 1.526 . S
C1104 C1105 1.396 . S
C1104 C1109 1.390 . S
C1105 C1099 1.465 . S
C1105 C1104 1.396 . S
C1105 C1106 1.399 . S
C1106 H1092 0.929 . S
C1106 C1105 1.399 . S
C1106 C1107 1.385 . S
C1107 H1093 0.931 . S
C1107 C1106 1.385 . S
C1107 C1108 1.389 . S
C1108 C1107 1.389 . S
C1108 C1109 1.387 . S
C1109 H1094 0.930 . S
C1109 C1104 1.390 . S
C1109 C1108 1.387 . S
H1110 C1122 0.930 . S
H1111 C1124 0.930 . S
H1112 C1125 0.930 . S
H1113 C1129 0.959 . S
H1114 C1129 0.959 . S
H1115 C1129 0.961 . S
H1116 C1130 0.960 . S
H1117 C1130 0.961 . S
H1118 C1130 0.959 . S
H1119 C1133 0.929 . S
H1120 C1134 0.931 . S
H1121 C1136 0.930 . S
C1122 H1110 0.930 . S
C1122 C1123 1.399 . S
C1122 C1127 1.399 . S
C1123 C1122 1.399 . S
C1123 C1124 1.376 . S
C1124 H1111 0.930 . S
C1124 C1123 1.376 . S
C1124 C1125 1.388 . S
C1125 H1112 0.930 . S
C1125 C1124 1.388 . S
C1125 C1126 1.390 . S
C1126 C1125 1.390 . S
C1126 C1127 1.394 . S
C1126 C1132 1.465 . S
C1127 C1122 1.399 . S
C1127 C1126 1.394 . S
C1127 C1128 1.516 . S
C1128 C1127 1.516 . S
C1128 C1129 1.502 . S
C1128 C1130 1.561 . S
C1128 C1131 1.526 . S
C1129 H1113 0.959 . S
C1129 H1114 0.959 . S
C1129 H1115 0.961 . S
C1129 C1128 1.502 . S
C1130 H1116 0.960 . S
C1130 H1117 0.961 . S
C1130 H1118 0.959 . S
C1130 C1128 1.561 . S
C1131 C1128 1.526 . S
C1131 C1132 1.396 . S
C1131 C1136 1.390 . S
C1132 C1126 1.465 . S
C1132 C1131 1.396 . S
C1132 C1133 1.399 . S
C1133 H1119 0.929 . S
C1133 C1132 1.399 . S
C1133 C1134 1.385 . S
C1134 H1120 0.931 . S
C1134 C1133 1.385 . S
C1134 C1135 1.389 . S
C1135 C1134 1.389 . S
C1135 C1136 1.387 . S
C1136 H1121 0.930 . S
C1136 C1131 1.390 . S
C1136 C1135 1.387 . S
H1137 C1149 0.930 . S
H1138 C1151 0.930 . S
H1139 C1152 0.930 . S
H1140 C1156 0.959 . S
H1141 C1156 0.959 . S
H1142 C1156 0.961 . S
H1143 C1157 0.960 . S
H1144 C1157 0.961 . S
H1145 C1157 0.959 . S
H1146 C1160 0.929 . S
H1147 C1161 0.931 . S
H1148 C1163 0.930 . S
C1149 H1137 0.930 . S
C1149 C1150 1.399 . S
C1149 C1154 1.399 . S
C1150 C1149 1.399 . S
C1150 C1151 1.376 . S
C1151 H1138 0.930 . S
C1151 C1150 1.376 . S
C1151 C1152 1.388 . S
C1152 H1139 0.930 . S
C1152 C1151 1.388 . S
C1152 C1153 1.390 . S
C1153 C1152 1.390 . S
C1153 C1154 1.394 . S
C1153 C1159 1.465 . S
C1154 C1149 1.399 . S
C1154 C1153 1.394 . S
C1154 C1155 1.516 . S
C1155 C1154 1.516 . S
C1155 C1156 1.502 . S
C1155 C1157 1.561 . S
C1155 C1158 1.526 . S
C1156 H1140 0.959 . S
C1156 H1141 0.959 . S
C1156 H1142 0.961 . S
C1156 C1155 1.502 . S
C1157 H1143 0.960 . S
C1157 H1144 0.961 . S
C1157 H1145 0.959 . S
C1157 C1155 1.561 . S
C1158 C1155 1.526 . S
C1158 C1159 1.396 . S
C1158 C1163 1.390 . S
C1159 C1153 1.465 . S
C1159 C1158 1.396 . S
C1159 C1160 1.399 . S
C1160 H1146 0.929 . S
C1160 C1159 1.399 . S
C1160 C1161 1.385 . S
C1161 H1147 0.931 . S
C1161 C1160 1.385 . S
C1161 C1162 1.389 . S
C1162 C1161 1.389 . S
C1162 C1163 1.387 . S
C1163 H1148 0.930 . S
C1163 C1158 1.390 . S
C1163 C1162 1.387 . S
H1164 C1176 0.930 . S
H1165 C1178 0.930 . S
H1166 C1179 0.930 . S
H1167 C1183 0.959 . S
H1168 C1183 0.959 . S
H1169 C1183 0.961 . S
H1170 C1184 0.960 . S
H1171 C1184 0.961 . S
H1172 C1184 0.959 . S
H1173 C1187 0.929 . S
H1174 C1188 0.931 . S
H1175 C1190 0.930 . S
C1176 H1164 0.930 . S
C1176 C1177 1.399 . S
C1176 C1181 1.399 . S
C1177 C1176 1.399 . S
C1177 C1178 1.376 . S
C1178 H1165 0.930 . S
C1178 C1177 1.376 . S
C1178 C1179 1.388 . S
C1179 H1166 0.930 . S
C1179 C1178 1.388 . S
C1179 C1180 1.390 . S
C1180 C1179 1.390 . S
C1180 C1181 1.394 . S
C1180 C1186 1.465 . S
C1181 C1176 1.399 . S
C1181 C1180 1.394 . S
C1181 C1182 1.516 . S
C1182 C1181 1.516 . S
C1182 C1183 1.502 . S
C1182 C1184 1.561 . S
C1182 C1185 1.526 . S
C1183 H1167 0.959 . S
C1183 H1168 0.959 . S
C1183 H1169 0.961 . S
C1183 C1182 1.502 . S
C1184 H1170 0.960 . S
C1184 H1171 0.961 . S
C1184 H1172 0.959 . S
C1184 C1182 1.561 . S
C1185 C1182 1.526 . S
C1185 C1186 1.396 . S
C1185 C1190 1.390 . S
C1186 C1180 1.465 . S
C1186 C1185 1.396 . S
C1186 C1187 1.399 . S
C1187 H1173 0.929 . S
C1187 C1186 1.399 . S
C1187 C1188 1.385 . S
C1188 H1174 0.931 . S
C1188 C1187 1.385 . S
C1188 C1189 1.389 . S
C1189 C1188 1.389 . S
C1189 C1190 1.387 . S
C1190 H1175 0.930 . S
C1190 C1185 1.390 . S
C1190 C1189 1.387 . S
H1191 C1203 0.930 . S
H1192 C1205 0.930 . S
H1193 C1206 0.930 . S
H1194 C1210 0.959 . S
H1195 C1210 0.959 . S
H1196 C1210 0.961 . S
H1197 C1211 0.960 . S
H1198 C1211 0.961 . S
H1199 C1211 0.959 . S
H1200 C1214 0.929 . S
H1201 C1215 0.931 . S
H1202 C1217 0.930 . S
C1203 H1191 0.930 . S
C1203 C1204 1.399 . S
C1203 C1208 1.399 . S
C1204 C1203 1.399 . S
C1204 C1205 1.376 . S
C1205 H1192 0.930 . S
C1205 C1204 1.376 . S
C1205 C1206 1.388 . S
C1206 H1193 0.930 . S
C1206 C1205 1.388 . S
C1206 C1207 1.390 . S
C1207 C1206 1.390 . S
C1207 C1208 1.394 . S
C1207 C1213 1.465 . S
C1208 C1203 1.399 . S
C1208 C1207 1.394 . S
C1208 C1209 1.516 . S
C1209 C1208 1.516 . S
C1209 C1210 1.502 . S
C1209 C1211 1.561 . S
C1209 C1212 1.526 . S
C1210 H1194 0.959 . S
C1210 H1195 0.959 . S
C1210 H1196 0.961 . S
C1210 C1209 1.502 . S
C1211 H1197 0.960 . S
C1211 H1198 0.961 . S
C1211 H1199 0.959 . S
C1211 C1209 1.561 . S
C1212 C1209 1.526 . S
C1212 C1213 1.396 . S
C1212 C1217 1.390 . S
C1213 C1207 1.465 . S
C1213 C1212 1.396 . S
C1213 C1214 1.399 . S
C1214 H1200 0.929 . S
C1214 C1213 1.399 . S
C1214 C1215 1.385 . S
C1215 H1201 0.931 . S
C1215 C1214 1.385 . S
C1215 C1216 1.389 . S
C1216 C1215 1.389 . S
C1216 C1217 1.387 . S
C1217 H1202 0.930 . S
C1217 C1212 1.390 . S
C1217 C1216 1.387 . S
H1218 C1230 0.930 . S
H1219 C1232 0.930 . S
H1220 C1233 0.930 . S
H1221 C1237 0.959 . S
H1222 C1237 0.959 . S
H1223 C1237 0.961 . S
H1224 C1238 0.960 . S
H1225 C1238 0.961 . S
H1226 C1238 0.959 . S
H1227 C1241 0.929 . S
H1228 C1242 0.931 . S
H1229 C1244 0.930 . S
C1230 H1218 0.930 . S
C1230 C1231 1.399 . S
C1230 C1235 1.399 . S
C1231 C1230 1.399 . S
C1231 C1232 1.376 . S
C1232 H1219 0.930 . S
C1232 C1231 1.376 . S
C1232 C1233 1.388 . S
C1233 H1220 0.930 . S
C1233 C1232 1.388 . S
C1233 C1234 1.390 . S
C1234 C1233 1.390 . S
C1234 C1235 1.394 . S
C1234 C1240 1.465 . S
C1235 C1230 1.399 . S
C1235 C1234 1.394 . S
C1235 C1236 1.516 . S
C1236 C1235 1.516 . S
C1236 C1237 1.502 . S
C1236 C1238 1.561 . S
C1236 C1239 1.526 . S
C1237 H1221 0.959 . S
C1237 H1222 0.959 . S
C1237 H1223 0.961 . S
C1237 C1236 1.502 . S
C1238 H1224 0.960 . S
C1238 H1225 0.961 . S
C1238 H1226 0.959 . S
C1238 C1236 1.561 . S
C1239 C1236 1.526 . S
C1239 C1240 1.396 . S
C1239 C1244 1.390 . S
C1240 C1234 1.465 . S
C1240 C1239 1.396 . S
C1240 C1241 1.399 . S
C1241 H1227 0.929 . S
C1241 C1240 1.399 . S
C1241 C1242 1.385 . S
C1242 H1228 0.931 . S
C1242 C1241 1.385 . S
C1242 C1243 1.389 . S
C1243 C1242 1.389 . S
C1243 C1244 1.387 . S
C1244 H1229 0.930 . S
C1244 C1239 1.390 . S
C1244 C1243 1.387 . S
H1245 C1257 0.930 . S
H1246 C1259 0.930 . S
H1247 C1260 0.930 . S
H1248 C1264 0.959 . S
H1249 C1264 0.959 . S
H1250 C1264 0.961 . S
H1251 C1265 0.960 . S
H1252 C1265 0.961 . S
H1253 C1265 0.959 . S
H1254 C1268 0.929 . S
H1255 C1269 0.931 . S
H1256 C1271 0.930 . S
C1257 H1245 0.930 . S
C1257 C1258 1.399 . S
C1257 C1262 1.399 . S
C1258 C1257 1.399 . S
C1258 C1259 1.376 . S
C1259 H1246 0.930 . S
C1259 C1258 1.376 . S
C1259 C1260 1.388 . S
C1260 H1247 0.930 . S
C1260 C1259 1.388 . S
C1260 C1261 1.390 . S
C1261 C1260 1.390 . S
C1261 C1262 1.394 . S
C1261 C1267 1.465 . S
C1262 C1257 1.399 . S
C1262 C1261 1.394 . S
C1262 C1263 1.516 . S
C1263 C1262 1.516 . S
C1263 C1264 1.502 . S
C1263 C1265 1.561 . S
C1263 C1266 1.526 . S
C1264 H1248 0.959 . S
C1264 H1249 0.959 . S
C1264 H1250 0.961 . S
C1264 C1263 1.502 . S
C1265 H1251 0.960 . S
C1265 H1252 0.961 . S
C1265 H1253 0.959 . S
C1265 C1263 1.561 . S
C1266 C1263 1.526 . S
C1266 C1267 1.396 . S
C1266 C1271 1.390 . S
C1267 C1261 1.465 . S
C1267 C1266 1.396 . S
C1267 C1268 1.399 . S
C1268 H1254 0.929 . S
C1268 C1267 1.399 . S
C1268 C1269 1.385 . S
C1269 H1255 0.931 . S
C1269 C1268 1.385 . S
C1269 C1270 1.389 . S
C1270 C1269 1.389 . S
C1270 C1271 1.387 . S
C1271 H1256 0.930 . S
C1271 C1266 1.390 . S
C1271 C1270 1.387 . S
H1272 C1284 0.930 . S
H1273 C1286 0.930 . S
H1274 C1287 0.930 . S
H1275 C1291 0.959 . S
H1276 C1291 0.959 . S
H1277 C1291 0.961 . S
H1278 C1292 0.960 . S
H1279 C1292 0.961 . S
H1280 C1292 0.959 . S
H1281 C1295 0.929 . S
H1282 C1296 0.931 . S
H1283 C1298 0.930 . S
C1284 H1272 0.930 . S
C1284 C1285 1.399 . S
C1284 C1289 1.399 . S
C1285 C1284 1.399 . S
C1285 C1286 1.376 . S
C1286 H1273 0.930 . S
C1286 C1285 1.376 . S
C1286 C1287 1.388 . S
C1287 H1274 0.930 . S
C1287 C1286 1.388 . S
C1287 C1288 1.390 . S
C1288 C1287 1.390 . S
C1288 C1289 1.394 . S
C1288 C1294 1.465 . S
C1289 C1284 1.399 . S
C1289 C1288 1.394 . S
C1289 C1290 1.516 . S
C1290 C1289 1.516 . S
C1290 C1291 1.502 . S
C1290 C1292 1.561 . S
C1290 C1293 1.526 . S
C1291 H1275 0.959 . S
C1291 H1276 0.959 . S
C1291 H1277 0.961 . S
C1291 C1290 1.502 . S
C1292 H1278 0.960 . S
C1292 H1279 0.961 . S
C1292 H1280 0.959 . S
C1292 C1290 1.561 . S
C1293 C1290 1.526 . S
C1293 C1294 1.396 . S
C1293 C1298 1.390 . S
C1294 C1288 1.465 . S
C1294 C1293 1.396 . S
C1294 C1295 1.399 . S
C1295 H1281 0.929 . S
C1295 C1294 1.399 . S
C1295 C1296 1.385 . S
C1296 H1282 0.931 . S
C1296 C1295 1.385 . S
C1296 C1297 1.389 . S
C1297 C1296 1.389 . S
C1297 C1298 1.387 . S
C1298 H1283 0.930 . S
C1298 C1293 1.390 . S
C1298 C1297 1.387 . S
H1299 C1311 0.930 . S
H1300 C1313 0.930 . S
H1301 C1314 0.930 . S
H1302 C1318 0.959 . S
H1303 C1318 0.959 . S
H1304 C1318 0.961 . S
H1305 C1319 0.960 . S
H1306 C1319 0.961 . S
H1307 C1319 0.959 . S
H1308 C1322 0.929 . S
H1309 C1323 0.931 . S
H1310 C1325 0.930 . S
C1311 H1299 0.930 . S
C1311 C1312 1.399 . S
C1311 C1316 1.399 . S
C1312 C1311 1.399 . S
C1312 C1313 1.376 . S
C1313 H1300 0.930 . S
C1313 C1312 1.376 . S
C1313 C1314 1.388 . S
C1314 H1301 0.930 . S
C1314 C1313 1.388 . S
C1314 C1315 1.390 . S
C1315 C1314 1.390 . S
C1315 C1316 1.394 . S
C1315 C1321 1.465 . S
C1316 C1311 1.399 . S
C1316 C1315 1.394 . S
C1316 C1317 1.516 . S
C1317 C1316 1.516 . S
C1317 C1318 1.502 . S
C1317 C1319 1.561 . S
C1317 C1320 1.526 . S
C1318 H1302 0.959 . S
C1318 H1303 0.959 . S
C1318 H1304 0.961 . S
C1318 C1317 1.502 . S
C1319 H1305 0.960 . S
C1319 H1306 0.961 . S
C1319 H1307 0.959 . S
C1319 C1317 1.561 . S
C1320 C1317 1.526 . S
C1320 C1321 1.396 . S
C1320 C1325 1.390 . S
C1321 C1315 1.465 . S
C1321 C1320 1.396 . S
C1321 C1322 1.399 . S
C1322 H1308 0.929 . S
C1322 C1321 1.399 . S
C1322 C1323 1.385 . S
C1323 H1309 0.931 . S
C1323 C1322 1.385 . S
C1323 C1324 1.389 . S
C1324 C1323 1.389 . S
C1324 C1325 1.387 . S
C1325 H1310 0.930 . S
C1325 C1320 1.390 . S
C1325 C1324 1.387 . S
H1326 C1338 0.930 . S
H1327 C1340 0.930 . S
H1328 C1341 0.930 . S
H1329 C1345 0.959 . S
H1330 C1345 0.959 . S
H1331 C1345 0.961 . S
H1332 C1346 0.960 . S
H1333 C1346 0.961 . S
H1334 C1346 0.959 . S
H1335 C1349 0.929 . S
H1336 C1350 0.931 . S
H1337 C1352 0.930 . S
C1338 H1326 0.930 . S
C1338 C1339 1.399 . S
C1338 C1343 1.399 . S
C1339 C1338 1.399 . S
C1339 C1340 1.376 . S
C1340 H1327 0.930 . S
C1340 C1339 1.376 . S
C1340 C1341 1.388 . S
C1341 H1328 0.930 . S
C1341 C1340 1.388 . S
C1341 C1342 1.390 . S
C1342 C1341 1.390 . S
C1342 C1343 1.394 . S
C1342 C1348 1.465 . S
C1343 C1338 1.399 . S
C1343 C1342 1.394 . S
C1343 C1344 1.516 . S
C1344 C1343 1.516 . S
C1344 C1345 1.502 . S
C1344 C1346 1.561 . S
C1344 C1347 1.526 . S
C1345 H1329 0.959 . S
C1345 H1330 0.959 . S
C1345 H1331 0.961 . S
C1345 C1344 1.502 . S
C1346 H1332 0.960 . S
C1346 H1333 0.961 . S
C1346 H1334 0.959 . S
C1346 C1344 1.561 . S
C1347 C1344 1.526 . S
C1347 C1348 1.396 . S
C1347 C1352 1.390 . S
C1348 C1342 1.465 . S
C1348 C1347 1.396 . S
C1348 C1349 1.399 . S
C1349 H1335 0.929 . S
C1349 C1348 1.399 . S
C1349 C1350 1.385 . S
C1350 H1336 0.931 . S
C1350 C1349 1.385 . S
C1350 C1351 1.389 . S
C1351 C1350 1.389 . S
C1351 C1352 1.387 . S
C1352 H1337 0.930 . S
C1352 C1347 1.390 . S
C1352 C1351 1.387 . S
H1353 C1365 0.930 . S
H1354 C1367 0.930 . S
H1355 C1368 0.930 . S
H1356 C1372 0.959 . S
H1357 C1372 0.959 . S
H1358 C1372 0.961 . S
H1359 C1373 0.960 . S
H1360 C1373 0.961 . S
H1361 C1373 0.959 . S
H1362 C1376 0.929 . S
H1363 C1377 0.931 . S
H1364 C1379 0.930 . S
C1365 H1353 0.930 . S
C1365 C1366 1.399 . S
C1365 C1370 1.399 . S
C1366 C1365 1.399 . S
C1366 C1367 1.376 . S
C1367 H1354 0.930 . S
C1367 C1366 1.376 . S
C1367 C1368 1.388 . S
C1368 H1355 0.930 . S
C1368 C1367 1.388 . S
C1368 C1369 1.390 . S
C1369 C1368 1.390 . S
C1369 C1370 1.394 . S
C1369 C1375 1.465 . S
C1370 C1365 1.399 . S
C1370 C1369 1.394 . S
C1370 C1371 1.516 . S
C1371 C1370 1.516 . S
C1371 C1372 1.502 . S
C1371 C1373 1.561 . S
C1371 C1374 1.526 . S
C1372 H1356 0.959 . S
C1372 H1357 0.959 . S
C1372 H1358 0.961 . S
C1372 C1371 1.502 . S
C1373 H1359 0.960 . S
C1373 H1360 0.961 . S
C1373 H1361 0.959 . S
C1373 C1371 1.561 . S
C1374 C1371 1.526 . S
C1374 C1375 1.396 . S
C1374 C1379 1.390 . S
C1375 C1369 1.465 . S
C1375 C1374 1.396 . S
C1375 C1376 1.399 . S
C1376 H1362 0.929 . S
C1376 C1375 1.399 . S
C1376 C1377 1.385 . S
C1377 H1363 0.931 . S
C1377 C1376 1.385 . S
C1377 C1378 1.389 . S
C1378 C1377 1.389 . S
C1378 C1379 1.387 . S
C1379 H1364 0.930 . S
C1379 C1374 1.390 . S
C1379 C1378 1.387 . S
C421 C68 0.930 1_455 S
C433 C8 0.900 . S
C448 C131 0.917 1_565 S
C460 C51 0.898 . S
C475 C76 0.910 . S
C487 C136 0.857 . S
C502 C119 0.910 . S
C514 C199 0.851 . S
C529 C0 0.875 . S
C541 C144 0.910 . S
C556 C63 0.932 . S
C568 C187 0.895 . S
C583 C369 0.930 1_545 S
C595 C221 0.895 . S
C610 C246 0.910 . S
C622 C374 0.862 . S
C637 C289 0.899 . S
C649 C233 0.916 1_655 S
C664 C314 0.908 . S
C676 C238 0.907 . S
C691 C357 0.897 . S
C703 C301 0.922 . S
C718 C306 0.851 . S
C730 C382 0.908 . S
C745 C106 1.597 . S
C757 C13 1.595 . S
C772 C38 1.619 . S
C784 C149 1.618 . S
C799 C81 1.619 . S
C811 C174 1.619 . S
C826 C208 1.619 . S
C838 C319 1.618 . S
C853 C251 1.598 . S
C865 C344 1.595 . S
C880 C276 1.613 . S
C892 C387 1.609 . S
C907 C242 1.830 . S
C919 C4 1.852 . S
C934 C47 1.842 . S
C946 C285 1.846 . S
C961 C310 1.821 . S
C973 C72 1.856 . S
C988 C115 1.853 . S
C1000 C353 1.820 . S
C1015 C140 1.860 . S
C1027 C378 1.818 . S
C1042 C217 1.853 . S
C1054 C183 1.835 . S
C1069 C97 1.134 . S
C1081 C17 1.109 . S
C1096 C42 1.145 . S
C1108 C102 1.135 . S
C1123 C85 1.155 . S
C1135 C165 1.142 . S
C1150 C110 1.138 . S
C1162 C170 1.134 . S
C1177 C29 1.137 . S
C1189 C153 1.141 . S
C1204 C34 1.143 . S
C1216 C178 1.143 . S
C1231 C340 1.143 . S
C1243 C212 1.138 . S
C1258 C255 1.113 . S
C1270 C403 1.134 . S
C1285 C280 1.140 . S
C1297 C204 1.135 . S
C1312 C267 1.136 . S
C1324 C323 1.141 . S
C1339 C348 1.155 . S
C1351 C272 1.140 . S
C1366 C391 1.109 . S
C1378 C335 1.134 . S
