# Generated by pormake.
# Topology uoh, (4)-cn, num edge types: 1
# Building blocks:
#     Node 0, Type 0, BuildingBlock: GALJAG_clean_sbu_0, # of connection points: 4
#     Node 1, Type 0, BuildingBlock: GALJAG_clean_sbu_0, # of connection points: 4
#     Node 2, Type 0, BuildingBlock: GALJAG_clean_sbu_0, # of connection points: 4
#     Node 3, Type 0, BuildingBlock: GALJAG_clean_sbu_0, # of connection points: 4
#     Node 4, Type 0, BuildingBlock: GALJAG_clean_sbu_0, # of connection points: 4
#     Node 5, Type 0, BuildingBlock: GALJAG_clean_sbu_0, # of connection points: 4
#     Node 6, Type 0, BuildingBlock: GALJAG_clean_sbu_0, # of connection points: 4
#     Node 7, Type 0, BuildingBlock: GALJAG_clean_sbu_0, # of connection points: 4
#     Node 8, Type 0, BuildingBlock: GALJAG_clean_sbu_0, # of connection points: 4
#     Node 9, Type 0, BuildingBlock: GALJAG_clean_sbu_0, # of connection points: 4
#     Node 10, Type 0, BuildingBlock: GALJAG_clean_sbu_0, # of connection points: 4
#     Node 11, Type 0, BuildingBlock: GALJAG_clean_sbu_0, # of connection points: 4
#     Node 12, Type 0, BuildingBlock: GALJAG_clean_sbu_0, # of connection points: 4
#     Node 13, Type 0, BuildingBlock: GALJAG_clean_sbu_0, # of connection points: 4
#     Node 14, Type 0, BuildingBlock: GALJAG_clean_sbu_0, # of connection points: 4
#     Node 15, Type 0, BuildingBlock: GALJAG_clean_sbu_0, # of connection points: 4
#     Node 16, Type 0, BuildingBlock: GALJAG_clean_sbu_0, # of connection points: 4
#     Node 17, Type 0, BuildingBlock: GALJAG_clean_sbu_0, # of connection points: 4
#     Node 18, Type 0, BuildingBlock: GALJAG_clean_sbu_0, # of connection points: 4
#     Node 19, Type 0, BuildingBlock: GALJAG_clean_sbu_0, # of connection points: 4
#     Node 20, Type 0, BuildingBlock: GALJAG_clean_sbu_0, # of connection points: 4
#     Node 21, Type 0, BuildingBlock: GALJAG_clean_sbu_0, # of connection points: 4
#     Node 22, Type 0, BuildingBlock: GALJAG_clean_sbu_0, # of connection points: 4
#     Node 23, Type 0, BuildingBlock: GALJAG_clean_sbu_0, # of connection points: 4
#     Node 24, Type 0, BuildingBlock: GALJAG_clean_sbu_0, # of connection points: 4
#     Node 25, Type 0, BuildingBlock: GALJAG_clean_sbu_0, # of connection points: 4
#     Node 26, Type 0, BuildingBlock: GALJAG_clean_sbu_0, # of connection points: 4
#     Node 27, Type 0, BuildingBlock: GALJAG_clean_sbu_0, # of connection points: 4
#     Node 28, Type 0, BuildingBlock: GALJAG_clean_sbu_0, # of connection points: 4
#     Node 29, Type 0, BuildingBlock: GALJAG_clean_sbu_0, # of connection points: 4
#     Node 30, Type 0, BuildingBlock: GALJAG_clean_sbu_0, # of connection points: 4
#     Node 31, Type 0, BuildingBlock: GALJAG_clean_sbu_0, # of connection points: 4
#     Node 32, Type 0, BuildingBlock: GALJAG_clean_sbu_0, # of connection points: 4
#     Node 33, Type 0, BuildingBlock: GALJAG_clean_sbu_0, # of connection points: 4
#     Node 34, Type 0, BuildingBlock: GALJAG_clean_sbu_0, # of connection points: 4
#     Node 35, Type 0, BuildingBlock: GALJAG_clean_sbu_0, # of connection points: 4
#     Edge 36, Type (0, 0), BuildingBlock: OJICUG_clean_linker_0, # of connection points: 2
#     Edge 37, Type (0, 0), BuildingBlock: OJICUG_clean_linker_0, # of connection points: 2
#     Edge 38, Type (0, 0), BuildingBlock: OJICUG_clean_linker_0, # of connection points: 2
#     Edge 39, Type (0, 0), BuildingBlock: OJICUG_clean_linker_0, # of connection points: 2
#     Edge 40, Type (0, 0), BuildingBlock: OJICUG_clean_linker_0, # of connection points: 2
#     Edge 41, Type (0, 0), BuildingBlock: OJICUG_clean_linker_0, # of connection points: 2
#     Edge 42, Type (0, 0), BuildingBlock: OJICUG_clean_linker_0, # of connection points: 2
#     Edge 43, Type (0, 0), BuildingBlock: OJICUG_clean_linker_0, # of connection points: 2
#     Edge 44, Type (0, 0), BuildingBlock: OJICUG_clean_linker_0, # of connection points: 2
#     Edge 45, Type (0, 0), BuildingBlock: OJICUG_clean_linker_0, # of connection points: 2
#     Edge 46, Type (0, 0), BuildingBlock: OJICUG_clean_linker_0, # of connection points: 2
#     Edge 47, Type (0, 0), BuildingBlock: OJICUG_clean_linker_0, # of connection points: 2
#     Edge 48, Type (0, 0), BuildingBlock: OJICUG_clean_linker_0, # of connection points: 2
#     Edge 49, Type (0, 0), BuildingBlock: OJICUG_clean_linker_0, # of connection points: 2
#     Edge 50, Type (0, 0), BuildingBlock: OJICUG_clean_linker_0, # of connection points: 2
#     Edge 51, Type (0, 0), BuildingBlock: OJICUG_clean_linker_0, # of connection points: 2
#     Edge 52, Type (0, 0), BuildingBlock: OJICUG_clean_linker_0, # of connection points: 2
#     Edge 53, Type (0, 0), BuildingBlock: OJICUG_clean_linker_0, # of connection points: 2
#     Edge 54, Type (0, 0), BuildingBlock: OJICUG_clean_linker_0, # of connection points: 2
#     Edge 55, Type (0, 0), BuildingBlock: OJICUG_clean_linker_0, # of connection points: 2
#     Edge 56, Type (0, 0), BuildingBlock: OJICUG_clean_linker_0, # of connection points: 2
#     Edge 57, Type (0, 0), BuildingBlock: OJICUG_clean_linker_0, # of connection points: 2
#     Edge 58, Type (0, 0), BuildingBlock: OJICUG_clean_linker_0, # of connection points: 2
#     Edge 59, Type (0, 0), BuildingBlock: OJICUG_clean_linker_0, # of connection points: 2
#     Edge 60, Type (0, 0), BuildingBlock: OJICUG_clean_linker_0, # of connection points: 2
#     Edge 61, Type (0, 0), BuildingBlock: OJICUG_clean_linker_0, # of connection points: 2
#     Edge 62, Type (0, 0), BuildingBlock: OJICUG_clean_linker_0, # of connection points: 2
#     Edge 63, Type (0, 0), BuildingBlock: OJICUG_clean_linker_0, # of connection points: 2
#     Edge 64, Type (0, 0), BuildingBlock: OJICUG_clean_linker_0, # of connection points: 2
#     Edge 65, Type (0, 0), BuildingBlock: OJICUG_clean_linker_0, # of connection points: 2
#     Edge 66, Type (0, 0), BuildingBlock: OJICUG_clean_linker_0, # of connection points: 2
#     Edge 67, Type (0, 0), BuildingBlock: OJICUG_clean_linker_0, # of connection points: 2
#     Edge 68, Type (0, 0), BuildingBlock: OJICUG_clean_linker_0, # of connection points: 2
#     Edge 69, Type (0, 0), BuildingBlock: OJICUG_clean_linker_0, # of connection points: 2
#     Edge 70, Type (0, 0), BuildingBlock: OJICUG_clean_linker_0, # of connection points: 2
#     Edge 71, Type (0, 0), BuildingBlock: OJICUG_clean_linker_0, # of connection points: 2
#     Edge 72, Type (0, 0), BuildingBlock: OJICUG_clean_linker_0, # of connection points: 2
#     Edge 73, Type (0, 0), BuildingBlock: OJICUG_clean_linker_0, # of connection points: 2
#     Edge 74, Type (0, 0), BuildingBlock: OJICUG_clean_linker_0, # of connection points: 2
#     Edge 75, Type (0, 0), BuildingBlock: OJICUG_clean_linker_0, # of connection points: 2
#     Edge 76, Type (0, 0), BuildingBlock: OJICUG_clean_linker_0, # of connection points: 2
#     Edge 77, Type (0, 0), BuildingBlock: OJICUG_clean_linker_0, # of connection points: 2
#     Edge 78, Type (0, 0), BuildingBlock: OJICUG_clean_linker_0, # of connection points: 2
#     Edge 79, Type (0, 0), BuildingBlock: OJICUG_clean_linker_0, # of connection points: 2
#     Edge 80, Type (0, 0), BuildingBlock: OJICUG_clean_linker_0, # of connection points: 2
#     Edge 81, Type (0, 0), BuildingBlock: OJICUG_clean_linker_0, # of connection points: 2
#     Edge 82, Type (0, 0), BuildingBlock: OJICUG_clean_linker_0, # of connection points: 2
#     Edge 83, Type (0, 0), BuildingBlock: OJICUG_clean_linker_0, # of connection points: 2
#     Edge 84, Type (0, 0), BuildingBlock: OJICUG_clean_linker_0, # of connection points: 2
#     Edge 85, Type (0, 0), BuildingBlock: OJICUG_clean_linker_0, # of connection points: 2
#     Edge 86, Type (0, 0), BuildingBlock: OJICUG_clean_linker_0, # of connection points: 2
#     Edge 87, Type (0, 0), BuildingBlock: OJICUG_clean_linker_0, # of connection points: 2
#     Edge 88, Type (0, 0), BuildingBlock: OJICUG_clean_linker_0, # of connection points: 2
#     Edge 89, Type (0, 0), BuildingBlock: OJICUG_clean_linker_0, # of connection points: 2
#     Edge 90, Type (0, 0), BuildingBlock: OJICUG_clean_linker_0, # of connection points: 2
#     Edge 91, Type (0, 0), BuildingBlock: OJICUG_clean_linker_0, # of connection points: 2
#     Edge 92, Type (0, 0), BuildingBlock: OJICUG_clean_linker_0, # of connection points: 2
#     Edge 93, Type (0, 0), BuildingBlock: OJICUG_clean_linker_0, # of connection points: 2
#     Edge 94, Type (0, 0), BuildingBlock: OJICUG_clean_linker_0, # of connection points: 2
#     Edge 95, Type (0, 0), BuildingBlock: OJICUG_clean_linker_0, # of connection points: 2
#     Edge 96, Type (0, 0), BuildingBlock: OJICUG_clean_linker_0, # of connection points: 2
#     Edge 97, Type (0, 0), BuildingBlock: OJICUG_clean_linker_0, # of connection points: 2
#     Edge 98, Type (0, 0), BuildingBlock: OJICUG_clean_linker_0, # of connection points: 2
#     Edge 99, Type (0, 0), BuildingBlock: OJICUG_clean_linker_0, # of connection points: 2
#     Edge 100, Type (0, 0), BuildingBlock: OJICUG_clean_linker_0, # of connection points: 2
#     Edge 101, Type (0, 0), BuildingBlock: OJICUG_clean_linker_0, # of connection points: 2
#     Edge 102, Type (0, 0), BuildingBlock: OJICUG_clean_linker_0, # of connection points: 2
#     Edge 103, Type (0, 0), BuildingBlock: OJICUG_clean_linker_0, # of connection points: 2
#     Edge 104, Type (0, 0), BuildingBlock: OJICUG_clean_linker_0, # of connection points: 2
#     Edge 105, Type (0, 0), BuildingBlock: OJICUG_clean_linker_0, # of connection points: 2
#     Edge 106, Type (0, 0), BuildingBlock: OJICUG_clean_linker_0, # of connection points: 2
#     Edge 107, Type (0, 0), BuildingBlock: OJICUG_clean_linker_0, # of connection points: 2
# Relax obj value: 0.044
# Max RMSD: 0.095
# Mean RMSD: 0.095
data_MOF--net-uoh--node1-GALJAG_clean_sbu_0--edge1-OJICUG_clean_linker_0
_symmetry_space_group_name_H-M    P1
_symmetry_Int_Tables_number       1
_symmetry_cell_setting            triclinic
loop_
_symmetry_equiv_pos_as_xyz
'x, y, z'
_cell_length_a     64.187235
_cell_length_b     64.311292
_cell_length_c     20.981289
_cell_angle_alpha  90.054332
_cell_angle_beta   89.983313
_cell_angle_gamma 119.87261
loop_
_atom_site_label
_atom_site_type_symbol
_atom_site_fract_x
_atom_site_fract_y
_atom_site_fract_z
_atom_type_partial_charge
In0 In 0.22227 0.13128 0.20241 0.0
O1 O 0.22329 0.1668 0.21481 0.0
O2 O 0.18913 0.1345 0.21264 0.0
C3 C 0.26876 0.14355 0.19184 0.0
C4 C 0.21149 0.11299 0.32073 0.0
C5 C 0.20782 0.11481 0.08334 0.0
O6 O 0.26207 0.15902 0.1919 0.0
O7 O 0.25207 0.12217 0.19807 0.0
O8 O 0.20401 0.1008 0.1298 0.0
O9 O 0.21817 0.13676 0.09761 0.0
C10 C 0.20065 0.15706 0.2191 0.0
O11 O 0.20405 0.09953 0.27207 0.0
O12 O 0.22453 0.13503 0.30917 0.0
In13 In 0.8416 0.08674 0.19151 0.0
O14 O 0.80699 0.05165 0.20576 0.0
O15 O 0.8404 0.05168 0.2064 0.0
C16 C 0.82829 0.11994 0.17743 0.0
C17 C 0.85951 0.09603 0.31027 0.0
C18 C 0.85787 0.08769 0.07297 0.0
O19 O 0.81306 0.0978 0.18003 0.0
O20 O 0.8499 0.12507 0.18265 0.0
O21 O 0.87199 0.09823 0.11911 0.0
O22 O 0.83588 0.07628 0.08738 0.0
C23 C 0.81783 0.03987 0.21309 0.0
O24 O 0.87325 0.102 0.26214 0.0
O25 O 0.83741 0.08633 0.29786 0.0
In26 In 0.88729 0.75324 0.18721 0.0
O27 O 0.87311 0.77099 0.25692 0.0
O28 O 0.88934 0.75151 0.29378 0.0
C29 C 0.88515 0.76757 0.06815 0.0
C30 C 0.93455 0.77444 0.2046 0.0
C31 C 0.85353 0.70672 0.17913 0.0
O32 O 0.87506 0.77158 0.11469 0.0
O33 O 0.89664 0.75706 0.08232 0.0
O34 O 0.87572 0.71362 0.17784 0.0
O35 O 0.84853 0.72325 0.18472 0.0
C36 C 0.87966 0.76398 0.30546 0.0
O37 O 0.92162 0.75189 0.19954 0.0
O38 O 0.92365 0.78616 0.19823 0.0
In39 In 0.12794 0.2323 0.29962 0.0
O40 O 0.16278 0.23175 0.28775 0.0
O41 O 0.1297 0.19835 0.29215 0.0
C42 C 0.14159 0.27915 0.3055 0.0
C43 C 0.10878 0.22047 0.18231 0.0
C44 C 0.11211 0.21968 0.41987 0.0
O45 O 0.15664 0.27191 0.3049 0.0
O46 O 0.11991 0.26281 0.30233 0.0
O47 O 0.09785 0.21562 0.37376 0.0
O48 O 0.13399 0.22944 0.4048 0.0
C49 C 0.15227 0.20907 0.28507 0.0
O50 O 0.09558 0.21409 0.23154 0.0
O51 O 0.131 0.23301 0.19281 0.0
In52 In 0.75073 0.89562 0.32173 0.0
O53 O 0.74853 0.92904 0.30169 0.0
O54 O 0.78316 0.93234 0.3148 0.0
C55 C 0.70493 0.8601 0.32308 0.0
C56 C 0.76447 0.88842 0.2071 0.0
C57 C 0.76088 0.89698 0.44638 0.0
O58 O 0.7107 0.88193 0.31892 0.0
O59 O 0.72236 0.85619 0.32568 0.0
O60 O 0.77129 0.8908 0.40525 0.0
O61 O 0.746 0.90241 0.42397 0.0
C62 C 0.77114 0.94252 0.30176 0.0
O63 O 0.76986 0.88111 0.25732 0.0
O64 O 0.75193 0.89824 0.2156 0.0
In65 In 0.08088 0.84455 0.30053 0.0
O66 O 0.09588 0.87588 0.2294 0.0
O67 O 0.08034 0.84001 0.19427 0.0
C68 C 0.08205 0.86078 0.41908 0.0
C69 C 0.03372 0.82098 0.28085 0.0
C70 C 0.11482 0.83218 0.31544 0.0
O71 O 0.09223 0.87491 0.37277 0.0
O72 O 0.07087 0.8388 0.40481 0.0
O73 O 0.09274 0.81661 0.31252 0.0
O74 O 0.11949 0.8536 0.30982 0.0
C75 C 0.08996 0.86203 0.18151 0.0
O76 O 0.04551 0.81008 0.28665 0.0
O77 O 0.0457 0.84351 0.2876 0.0
In78 In 0.75399 0.85581 0.82404 0.0
O79 O 0.74972 0.81944 0.79739 0.0
O80 O 0.78446 0.85065 0.79253 0.0
C81 C 0.70753 0.84092 0.84428 0.0
C82 C 0.76164 0.87972 0.71328 0.0
C83 C 0.77021 0.87047 0.94357 0.0
O84 O 0.71496 0.82641 0.83215 0.0
O85 O 0.72364 0.86276 0.84685 0.0
O86 O 0.77168 0.88488 0.90042 0.0
O87 O 0.76151 0.84905 0.92552 0.0
C88 C 0.77173 0.82836 0.78379 0.0
O89 O 0.77847 0.88524 0.75273 0.0
O90 O 0.74136 0.86325 0.731 0.0
In91 In 0.12743 0.88999 0.79741 0.0
O92 O 0.09486 0.87554 0.73001 0.0
O93 O 0.13023 0.8931 0.69076 0.0
C94 C 0.11192 0.88654 0.9181 0.0
C95 C 0.15147 0.93742 0.78413 0.0
C96 C 0.14155 0.85703 0.79944 0.0
O97 O 0.09752 0.8767 0.87207 0.0
O98 O 0.13379 0.89833 0.90279 0.0
O99 O 0.15642 0.87928 0.79959 0.0
O100 O 0.11979 0.8516 0.79801 0.0
C101 C 0.10795 0.88292 0.68065 0.0
O102 O 0.1621 0.9253 0.7864 0.0
O103 O 0.1289 0.92558 0.79098 0.0
In104 In 0.08095 0.23107 0.80249 0.0
O105 O 0.04587 0.23091 0.78886 0.0
O106 O 0.04551 0.1974 0.7887 0.0
C107 C 0.11439 0.27727 0.81951 0.0
C108 C 0.0902 0.2227 0.68331 0.0
C109 C 0.08233 0.21572 0.92063 0.0
O110 O 0.09224 0.27058 0.81641 0.0
O111 O 0.1194 0.26078 0.81262 0.0
O112 O 0.09296 0.21237 0.8742 0.0
O113 O 0.07049 0.22591 0.90659 0.0
C114 C 0.0338 0.20832 0.78242 0.0
O115 O 0.09575 0.21443 0.73116 0.0
O116 O 0.08089 0.23544 0.6962 0.0
In117 In 0.8411 0.75209 0.68795 0.0
O118 O 0.806 0.75214 0.70072 0.0
O119 O 0.83879 0.78565 0.69156 0.0
C120 C 0.82911 0.70575 0.6826 0.0
C121 C 0.85962 0.76405 0.80589 0.0
C122 C 0.85686 0.76518 0.56813 0.0
O123 O 0.81344 0.71221 0.68156 0.0
O124 O 0.85052 0.72261 0.68678 0.0
O125 O 0.87123 0.77022 0.61453 0.0
O126 O 0.83488 0.75397 0.58266 0.0
C127 C 0.8163 0.77484 0.70026 0.0
O128 O 0.87307 0.77021 0.75715 0.0
O129 O 0.83743 0.75177 0.79461 0.0
In130 In 0.22134 0.08476 0.70237 0.0
O131 O 0.22221 0.05022 0.71433 0.0
O132 O 0.18808 0.04865 0.71268 0.0
C133 C 0.268 0.11816 0.69231 0.0
C134 C 0.21071 0.09251 0.82076 0.0
C135 C 0.2072 0.08719 0.5832 0.0
O136 O 0.26096 0.09598 0.69207 0.0
O137 O 0.25157 0.12331 0.69852 0.0
O138 O 0.20358 0.09759 0.62965 0.0
O139 O 0.21714 0.07517 0.59755 0.0
C140 C 0.19958 0.03751 0.71885 0.0
O141 O 0.20338 0.0987 0.77217 0.0
O142 O 0.22354 0.0832 0.80907 0.0
In143 In 0.88684 0.13275 0.6947 0.0
O144 O 0.92155 0.16791 0.70663 0.0
O145 O 0.92303 0.13539 0.70211 0.0
C146 C 0.85336 0.14623 0.69234 0.0
C147 C 0.87988 0.11316 0.81128 0.0
C148 C 0.88401 0.11751 0.57386 0.0
O149 O 0.87558 0.16127 0.69265 0.0
O150 O 0.84818 0.12458 0.69339 0.0
O151 O 0.87419 0.10303 0.61965 0.0
O152 O 0.89552 0.13932 0.5895 0.0
C153 C 0.93427 0.15792 0.70937 0.0
O154 O 0.87272 0.10014 0.76177 0.0
O155 O 0.88977 0.13538 0.80139 0.0
In156 In 0.88535 0.46085 0.5186 0.0
O157 O 0.88822 0.49673 0.54401 0.0
O158 O 0.85392 0.46487 0.54742 0.0
C159 C 0.93146 0.474 0.49843 0.0
C160 C 0.87827 0.43818 0.63068 0.0
C161 C 0.86953 0.4465 0.39894 0.0
O162 O 0.92475 0.48921 0.5084 0.0
O163 O 0.91484 0.45235 0.49793 0.0
O164 O 0.86728 0.43187 0.4424 0.0
O165 O 0.87889 0.46804 0.41672 0.0
C166 C 0.86603 0.48721 0.55627 0.0
O167 O 0.86218 0.43014 0.58807 0.0
O168 O 0.89758 0.45671 0.61578 0.0
In169 In 0.51209 0.41592 0.52117 0.0
O170 O 0.4767 0.38219 0.54051 0.0
O171 O 0.50826 0.37932 0.52697 0.0
C172 C 0.50123 0.45108 0.52041 0.0
C173 C 0.53313 0.42338 0.63575 0.0
C174 C 0.52123 0.41547 0.39638 0.0
O175 O 0.48536 0.42918 0.52436 0.0
O176 O 0.52263 0.45522 0.51799 0.0
O177 O 0.53765 0.42117 0.43771 0.0
O178 O 0.50088 0.40995 0.41866 0.0
C179 C 0.48607 0.3689 0.5399 0.0
O180 O 0.54575 0.43091 0.58546 0.0
O181 O 0.51075 0.41312 0.62735 0.0
In182 In 0.55616 0.08122 0.52961 0.0
O183 O 0.59183 0.08222 0.54051 0.0
O184 O 0.59166 0.11532 0.53147 0.0
C185 C 0.52291 0.03443 0.52838 0.0
C186 C 0.5496 0.09398 0.64675 0.0
C187 C 0.55209 0.09267 0.40881 0.0
O188 O 0.54517 0.04154 0.528 0.0
O189 O 0.51768 0.05088 0.52974 0.0
O190 O 0.54275 0.09778 0.45508 0.0
O191 O 0.5636 0.08224 0.42389 0.0
C192 C 0.6038 0.10493 0.53946 0.0
O193 O 0.54187 0.09939 0.59753 0.0
O194 O 0.56003 0.08211 0.63634 0.0
In195 In 0.79401 0.5608 0.65675 0.0
O196 O 0.82929 0.56113 0.64378 0.0
O197 O 0.79663 0.52738 0.64993 0.0
C198 C 0.80597 0.60711 0.6639 0.0
C199 C 0.77571 0.54986 0.53838 0.0
C200 C 0.77788 0.54724 0.77629 0.0
O201 O 0.82163 0.60065 0.6648 0.0
O202 O 0.78457 0.59026 0.65901 0.0
O203 O 0.76366 0.54236 0.72961 0.0
O204 O 0.7999 0.55837 0.7621 0.0
C205 C 0.81916 0.53846 0.64193 0.0
O206 O 0.76217 0.5431 0.58697 0.0
O207 O 0.79786 0.56215 0.55004 0.0
In208 In 0.41368 0.22423 0.64693 0.0
O209 O 0.41361 0.25907 0.6321 0.0
O210 O 0.44729 0.25966 0.63371 0.0
C211 C 0.36709 0.19097 0.65849 0.0
C212 C 0.42381 0.21585 0.52895 0.0
C213 C 0.42835 0.22289 0.76597 0.0
O214 O 0.37414 0.21316 0.65826 0.0
O215 O 0.38348 0.18575 0.65208 0.0
O216 O 0.43177 0.2121 0.72015 0.0
O217 O 0.41827 0.23473 0.75102 0.0
C218 C 0.43624 0.27118 0.62608 0.0
O219 O 0.43128 0.20982 0.57756 0.0
O220 O 0.4109 0.22508 0.54047 0.0
In221 In 0.7484 0.18755 0.65084 0.0
O222 O 0.71615 0.15105 0.62668 0.0
O223 O 0.71246 0.1822 0.62149 0.0
C224 C 0.78079 0.17371 0.67211 0.0
C225 C 0.76397 0.21055 0.5388 0.0
C226 C 0.74723 0.20266 0.77004 0.0
O227 O 0.75893 0.15877 0.66075 0.0
O228 O 0.78606 0.19544 0.67318 0.0
O229 O 0.75982 0.21694 0.72628 0.0
O230 O 0.73464 0.18113 0.75274 0.0
C231 C 0.70285 0.15983 0.6139 0.0
O232 O 0.75401 0.21723 0.57961 0.0
O233 O 0.76666 0.19326 0.55554 0.0
In234 In 0.4138 0.17971 0.14646 0.0
O235 O 0.41326 0.14457 0.13125 0.0
O236 O 0.44722 0.17709 0.13553 0.0
C237 C 0.36735 0.16744 0.15725 0.0
C238 C 0.42451 0.19825 0.0287 0.0
C239 C 0.42805 0.19533 0.26593 0.0
O240 O 0.37403 0.15196 0.15702 0.0
O241 O 0.38404 0.18884 0.15111 0.0
O242 O 0.43199 0.20968 0.22021 0.0
O243 O 0.41767 0.17347 0.25069 0.0
C244 C 0.43594 0.15462 0.12712 0.0
O245 O 0.43192 0.21166 0.07747 0.0
O246 O 0.41143 0.17619 0.03996 0.0
In247 In 0.79238 0.22905 0.14806 0.0
O248 O 0.82766 0.26299 0.12922 0.0
O249 O 0.79577 0.26541 0.14077 0.0
C250 C 0.80337 0.194 0.14945 0.0
C251 C 0.7716 0.22149 0.03317 0.0
C252 C 0.7831 0.22967 0.27268 0.0
O253 O 0.81919 0.21591 0.14537 0.0
O254 O 0.78194 0.18979 0.15176 0.0
O255 O 0.76665 0.22355 0.23125 0.0
O256 O 0.80356 0.23552 0.25057 0.0
C257 C 0.81802 0.27603 0.12856 0.0
O258 O 0.75886 0.21415 0.08332 0.0
O259 O 0.79395 0.23154 0.04186 0.0
In260 In 0.74698 0.56055 0.15632 0.0
O261 O 0.71162 0.56 0.14351 0.0
O262 O 0.71138 0.52665 0.15039 0.0
C263 C 0.78019 0.60728 0.16163 0.0
C264 C 0.75451 0.54932 0.03837 0.0
C265 C 0.75032 0.5476 0.27604 0.0
O266 O 0.75794 0.60015 0.16338 0.0
O267 O 0.78544 0.59089 0.15692 0.0
O268 O 0.75995 0.54307 0.22935 0.0
O269 O 0.7388 0.5581 0.26183 0.0
C270 C 0.6995 0.5373 0.14219 0.0
O271 O 0.76182 0.54324 0.08722 0.0
O272 O 0.74403 0.56109 0.04955 0.0
In273 In 0.50982 0.08248 0.02634 0.0
O274 O 0.47485 0.08257 0.0395 0.0
O275 O 0.50788 0.1161 0.04051 0.0
C276 C 0.49665 0.03606 0.01148 0.0
C277 C 0.52747 0.09085 0.14552 0.0
C278 C 0.52679 0.09776 0.90819 0.0
O279 O 0.48139 0.04302 0.0137 0.0
O280 O 0.51821 0.05243 0.01761 0.0
O281 O 0.54065 0.1012 0.95492 0.0
O282 O 0.50475 0.08745 0.92188 0.0
C283 C 0.48526 0.10512 0.04649 0.0
O284 O 0.54129 0.09876 0.09759 0.0
O285 O 0.50541 0.07855 0.13274 0.0
In286 In 0.88857 0.42051 0.02126 0.0
O287 O 0.86993 0.43554 0.08552 0.0
O288 O 0.88726 0.41781 0.12736 0.0
C289 C 0.87878 0.4197 0.89662 0.0
C290 C 0.86707 0.37351 0.04072 0.0
C291 C 0.93452 0.45566 0.02069 0.0
O292 O 0.86833 0.42579 0.93785 0.0
O293 O 0.89352 0.41405 0.91892 0.0
O294 O 0.92851 0.43375 0.02466 0.0
O295 O 0.91726 0.45981 0.01791 0.0
C296 C 0.87507 0.42802 0.13576 0.0
O297 O 0.88975 0.38646 0.04047 0.0
O298 O 0.85556 0.38425 0.02817 0.0
In299 In 0.55614 0.45741 0.01811 0.0
O300 O 0.58863 0.49354 0.04396 0.0
O301 O 0.59182 0.46208 0.04737 0.0
C302 C 0.5238 0.47129 0.99671 0.0
C303 C 0.54032 0.43453 0.13017 0.0
C304 C 0.55745 0.4425 0.89879 0.0
O305 O 0.54572 0.48623 0.00739 0.0
O306 O 0.51846 0.44953 0.99629 0.0
O307 O 0.54491 0.42813 0.94248 0.0
O308 O 0.56991 0.46405 0.91621 0.0
C309 C 0.60163 0.48439 0.05636 0.0
O310 O 0.54972 0.42735 0.08897 0.0
O311 O 0.53828 0.45224 0.11375 0.0
In312 In 0.55983 0.797 0.8616 0.0
O313 O 0.5421 0.76441 0.92891 0.0
O314 O 0.55987 0.7997 0.96827 0.0
C315 C 0.54722 0.78159 0.74095 0.0
C316 C 0.5368 0.82134 0.87829 0.0
C317 C 0.60694 0.81136 0.85923 0.0
O318 O 0.54296 0.76721 0.78675 0.0
O319 O 0.55726 0.80341 0.75649 0.0
O320 O 0.5993 0.82606 0.85965 0.0
O321 O 0.59082 0.78958 0.85985 0.0
C322 C 0.54791 0.77747 0.97833 0.0
O323 O 0.55946 0.83178 0.87329 0.0
O324 O 0.52591 0.79878 0.87179 0.0
In325 In 0.1842 0.7533 0.84351 0.0
O326 O 0.214 0.76004 0.91603 0.0
O327 O 0.18853 0.77093 0.9391 0.0
C328 C 0.20005 0.75296 0.72465 0.0
C329 C 0.15724 0.70771 0.88061 0.0
C330 C 0.16996 0.78527 0.821 0.0
O331 O 0.21409 0.76531 0.76919 0.0
O332 O 0.17841 0.74008 0.74108 0.0
O333 O 0.15507 0.7633 0.83075 0.0
O334 O 0.19181 0.79083 0.82213 0.0
C335 C 0.20635 0.76922 0.95658 0.0
O336 O 0.14807 0.72072 0.86872 0.0
O337 O 0.1796 0.71755 0.87159 0.0
In338 In 0.22427 0.42077 0.86683 0.0
O339 O 0.20966 0.4396 0.93186 0.0
O340 O 0.22653 0.42137 0.97324 0.0
C341 C 0.22457 0.43077 0.7424 0.0
C342 C 0.27145 0.44147 0.88513 0.0
C343 C 0.1888 0.37499 0.86268 0.0
O344 O 0.21885 0.44129 0.78431 0.0
O345 O 0.23034 0.41604 0.76398 0.0
O346 O 0.21068 0.38078 0.86754 0.0
O347 O 0.18482 0.39235 0.86171 0.0
C348 C 0.21673 0.43393 0.98202 0.0
O349 O 0.25805 0.41889 0.88555 0.0
O350 O 0.26105 0.45332 0.87288 0.0
In351 In 0.46112 0.89141 0.97944 0.0
O352 O 0.49637 0.89259 0.95989 0.0
O353 O 0.4647 0.85845 0.97349 0.0
C354 C 0.47202 0.93738 0.98058 0.0
C355 C 0.44007 0.87794 0.86494 0.0
C356 C 0.45208 0.88207 0.10428 0.0
O357 O 0.48788 0.93124 0.97649 0.0
O358 O 0.4506 0.92025 0.98281 0.0
O359 O 0.43561 0.87142 0.06307 0.0
O360 O 0.47244 0.89668 0.08185 0.0
C361 C 0.48688 0.86998 0.96046 0.0
O362 O 0.42745 0.87285 0.91526 0.0
O363 O 0.46245 0.89005 0.87326 0.0
In364 In 0.08016 0.56306 0.98657 0.0
O365 O 0.09613 0.54738 0.91566 0.0
O366 O 0.07727 0.5644 0.87983 0.0
C367 C 0.09418 0.5603 0.1056 0.0
C368 C 0.10403 0.61035 0.96952 0.0
C369 C 0.03352 0.52998 0.99795 0.0
O370 O 0.09847 0.55063 0.05856 0.0
O371 O 0.08358 0.57178 0.09193 0.0
O372 O 0.0405 0.55217 0.99646 0.0
O373 O 0.04999 0.52481 0.99307 0.0
C374 C 0.08892 0.55388 0.86743 0.0
O375 O 0.08132 0.59865 0.97355 0.0
O376 O 0.11444 0.59819 0.97665 0.0
In377 In 0.41817 0.51284 0.97538 0.0
O378 O 0.38282 0.4782 0.96391 0.0
O379 O 0.3826 0.51139 0.96694 0.0
C380 C 0.45137 0.49902 0.9776 0.0
C381 C 0.4254 0.53223 0.85858 0.0
C382 C 0.42118 0.52816 0.09616 0.0
O383 O 0.42911 0.48407 0.97743 0.0
O384 O 0.45669 0.52071 0.97656 0.0
O385 O 0.43109 0.54259 0.05032 0.0
O386 O 0.40953 0.50634 0.08061 0.0
C387 C 0.37074 0.48886 0.9602 0.0
O388 O 0.43262 0.54533 0.90795 0.0
O389 O 0.41536 0.51 0.86872 0.0
In390 In 0.07822 0.5137 0.48377 0.0
O391 O 0.09617 0.54616 0.41612 0.0
O392 O 0.0792 0.5109 0.37686 0.0
C393 C 0.08982 0.52952 0.60462 0.0
C394 C 0.10157 0.4893 0.47322 0.0
C395 C 0.03128 0.50026 0.48394 0.0
O396 O 0.09515 0.54378 0.55799 0.0
O397 O 0.07913 0.50759 0.58991 0.0
O398 O 0.03841 0.48513 0.48469 0.0
O399 O 0.04778 0.52187 0.48308 0.0
C400 C 0.09083 0.53315 0.36669 0.0
O401 O 0.07883 0.47885 0.47319 0.0
O402 O 0.11222 0.51181 0.48068 0.0
In403 In 0.46369 0.55885 0.47836 0.0
O404 O 0.432 0.54396 0.40782 0.0
O405 O 0.4678 0.55951 0.37192 0.0
C406 C 0.44734 0.5578 0.59688 0.0
C407 C 0.48834 0.60584 0.45846 0.0
C408 C 0.47669 0.52539 0.49225 0.0
O409 O 0.43323 0.54741 0.55062 0.0
O410 O 0.46934 0.56912 0.58259 0.0
O411 O 0.49201 0.5475 0.48974 0.0
O412 O 0.45512 0.5204 0.48696 0.0
C413 C 0.4457 0.54993 0.35961 0.0
O414 O 0.49869 0.59355 0.4646 0.0
O415 O 0.46575 0.59444 0.46509 0.0
In416 In 0.41733 0.88916 0.48318 0.0
O417 O 0.42418 0.86589 0.41198 0.0
O418 O 0.43472 0.90194 0.38713 0.0
C419 C 0.4157 0.87258 0.60204 0.0
C420 C 0.37188 0.8709 0.44477 0.0
C421 C 0.44999 0.93501 0.50584 0.0
O422 O 0.42829 0.87073 0.55835 0.0
O423 O 0.40331 0.88182 0.58479 0.0
O424 O 0.42813 0.92841 0.49504 0.0
O425 O 0.45512 0.91841 0.50558 0.0
C426 C 0.43311 0.88237 0.37065 0.0
O427 O 0.38462 0.89287 0.45897 0.0
O428 O 0.38192 0.85848 0.4521 0.0
In429 In 0.18206 0.42435 0.36367 0.0
O430 O 0.14582 0.42111 0.38742 0.0
O431 O 0.17744 0.45556 0.39104 0.0
C432 C 0.16857 0.37841 0.34002 0.0
C433 C 0.2042 0.43096 0.47686 0.0
C434 C 0.19764 0.44046 0.24478 0.0
O435 O 0.15341 0.38519 0.35047 0.0
O436 O 0.19032 0.39484 0.34156 0.0
O437 O 0.21181 0.44219 0.28909 0.0
O438 O 0.17601 0.43168 0.26146 0.0
C439 C 0.15502 0.44328 0.39902 0.0
O440 O 0.21214 0.44735 0.43523 0.0
O441 O 0.18602 0.41158 0.46048 0.0
In442 In 0.55992 0.75132 0.35911 0.0
O443 O 0.54285 0.76612 0.42922 0.0
O444 O 0.56279 0.75029 0.46562 0.0
C445 C 0.54497 0.75236 0.24018 0.0
C446 C 0.53763 0.7043 0.37836 0.0
C447 C 0.6063 0.78506 0.34704 0.0
O448 O 0.54083 0.7625 0.28635 0.0
O449 O 0.55598 0.74136 0.25471 0.0
O450 O 0.59971 0.76298 0.34933 0.0
O451 O 0.58956 0.78986 0.35146 0.0
C452 C 0.5503 0.75994 0.47762 0.0
O453 O 0.56027 0.71661 0.37283 0.0
O454 O 0.52643 0.7157 0.37146 0.0
In455 In 0.22635 0.79954 0.34728 0.0
O456 O 0.26067 0.83481 0.36527 0.0
O457 O 0.26295 0.80325 0.34682 0.0
C458 C 0.19066 0.80973 0.34729 0.0
C459 C 0.21977 0.77886 0.46222 0.0
C460 C 0.22556 0.7897 0.22263 0.0
O461 O 0.21254 0.82586 0.35069 0.0
O462 O 0.18686 0.78849 0.34535 0.0
O463 O 0.2207 0.77367 0.26448 0.0
O464 O 0.23077 0.81003 0.24431 0.0
C465 C 0.27383 0.82535 0.36039 0.0
O466 O 0.21179 0.76619 0.41216 0.0
O467 O 0.23021 0.80119 0.45351 0.0
C468 C 0.2039 0.11641 0.90388 0.0
C469 C 0.20562 0.09624 0.88691 0.0
H470 H 0.2034 0.13827 0.98049 0.0
C471 C 0.20486 0.08062 0.93483 0.0
H472 H 0.2045 0.12872 0.86773 0.0
C473 C 0.20364 0.08571 0.99897 0.0
C474 C 0.20379 0.10684 0.01631 0.0
H475 H 0.206 0.06483 0.92275 0.0
H476 H 0.20414 0.07389 0.03497 0.0
C477 C 0.2033 0.12185 0.96826 0.0
C478 C 0.89258 0.11788 0.92454 0.0
C479 C 0.87634 0.10376 0.8767 0.0
H480 H 0.89977 0.12338 0.02457 0.0
C481 C 0.85561 0.08237 0.8935 0.0
H482 H 0.9088 0.1344 0.91256 0.0
C483 C 0.85023 0.07628 0.95782 0.0
C484 C 0.86579 0.09124 0.0059 0.0
H485 H 0.84283 0.07125 0.85738 0.0
H486 H 0.83338 0.06047 0.97001 0.0
C487 C 0.88749 0.11153 0.98858 0.0
C488 C 0.89655 0.77175 0.95305 0.0
C489 C 0.88119 0.77159 1.00115 0.0
H490 H 0.90201 0.77008 0.8526 0.0
C491 C 0.8603 0.77201 0.98389 0.0
H492 H 0.91281 0.77146 0.96523 0.0
C493 C 0.85392 0.77067 0.91979 0.0
C494 C 0.86859 0.76949 0.87185 0.0
H495 H 0.84811 0.77179 0.01995 0.0
H496 H 0.83703 0.7697 0.90779 0.0
C497 C 0.89044 0.771 0.88874 0.0
C498 C 0.11939 0.21545 0.53501 0.0
C499 C 0.10447 0.21629 0.48715 0.0
H500 H 0.12622 0.21622 0.63551 0.0
C501 C 0.08364 0.21677 0.50475 0.0
H502 H 0.13557 0.21506 0.52256 0.0
C503 C 0.07869 0.21805 0.56896 0.0
C504 C 0.09413 0.21825 0.61673 0.0
H505 H 0.0719 0.21755 0.46889 0.0
H506 H 0.06307 0.21951 0.58125 0.0
C507 C 0.11407 0.21609 0.59947 0.0
C508 C 0.74724 0.89747 0.55689 0.0
C509 C 0.76393 0.8962 0.51602 0.0
H510 H 0.73361 0.89329 0.65191 0.0
C511 C 0.78215 0.89281 0.54243 0.0
H512 H 0.73301 0.90014 0.53816 0.0
C513 C 0.78286 0.8896 0.60841 0.0
C514 C 0.76509 0.88927 0.6482 0.0
H515 H 0.7953 0.89186 0.51204 0.0
H516 H 0.79624 0.88575 0.62762 0.0
C517 C 0.74762 0.89371 0.62211 0.0
C518 C 0.07707 0.85862 0.59853 0.0
C519 C 0.09854 0.8793 0.61519 0.0
H520 H 0.05497 0.83641 0.52217 0.0
C521 C 0.11263 0.89547 0.56727 0.0
H522 H 0.06596 0.84589 0.6347 0.0
C523 C 0.10615 0.89036 0.50328 0.0
C524 C 0.08575 0.86872 0.48611 0.0
H525 H 0.12921 0.91165 0.57915 0.0
H526 H 0.11797 0.90259 0.4672 0.0
C527 C 0.07085 0.85322 0.53427 0.0
C528 C 0.77132 0.8648 0.12286 0.0
C529 C 0.77144 0.88573 0.14209 0.0
H530 H 0.77083 0.84344 0.04365 0.0
C531 C 0.77501 0.90314 0.09631 0.0
H532 H 0.76851 0.85112 0.15736 0.0
C533 C 0.77668 0.899 0.03178 0.0
C534 C 0.77436 0.87715 0.01168 0.0
H535 H 0.77537 0.91955 0.1102 0.0
H536 H 0.77814 0.91223 0.99746 0.0
C537 C 0.77257 0.86043 0.05788 0.0
C538 C 0.0783 0.85537 0.06728 0.0
C539 C 0.09395 0.87038 0.11498 0.0
H540 H 0.07139 0.84916 0.96723 0.0
C541 C 0.11416 0.89213 0.09768 0.0
H542 H 0.06248 0.83855 0.07961 0.0
C543 C 0.11951 0.89796 0.03323 0.0
C544 C 0.10437 0.88241 0.98543 0.0
H545 H 0.12647 0.90394 0.13369 0.0
H546 H 0.13587 0.91425 0.02073 0.0
C547 C 0.0833 0.86148 0.00306 0.0
C548 C 0.10742 0.21161 0.00465 0.0
C549 C 0.08638 0.21175 0.98762 0.0
H550 H 0.13107 0.21452 0.08035 0.0
C551 C 0.0711 0.21166 0.03592 0.0
H552 H 0.11956 0.21179 0.96847 0.0
C553 C 0.0775 0.21281 0.10015 0.0
C554 C 0.09952 0.21466 0.11667 0.0
H555 H 0.05473 0.21175 0.02394 0.0
H556 H 0.06601 0.21379 0.13642 0.0
C557 C 0.11407 0.21333 0.06861 0.0
C558 C 0.89179 0.77033 0.41928 0.0
C559 C 0.87572 0.76881 0.37159 0.0
H560 H 0.89871 0.77112 0.51935 0.0
C561 C 0.85482 0.76918 0.38886 0.0
H562 H 0.90812 0.77018 0.40691 0.0
C563 C 0.84919 0.76919 0.45329 0.0
C564 C 0.8647 0.76945 0.50108 0.0
H565 H 0.84214 0.76792 0.35285 0.0
H566 H 0.83229 0.76809 0.46577 0.0
C567 C 0.88648 0.77096 0.48351 0.0
C568 C 0.20403 0.11271 0.49888 0.0
C569 C 0.20353 0.09142 0.51611 0.0
H570 H 0.20724 0.1363 0.42285 0.0
C571 C 0.20282 0.07582 0.46796 0.0
H572 H 0.20472 0.1251 0.53496 0.0
C573 C 0.20381 0.08202 0.40364 0.0
C574 C 0.20616 0.10418 0.38682 0.0
H575 H 0.20244 0.05926 0.48011 0.0
H576 H 0.2042 0.0702 0.36743 0.0
C577 C 0.20563 0.11918 0.4348 0.0
C578 C 0.85929 0.08889 0.48844 0.0
C579 C 0.88005 0.11008 0.50639 0.0
H580 H 0.83646 0.06808 0.41162 0.0
C581 C 0.89546 0.12548 0.45879 0.0
H582 H 0.84707 0.07678 0.5241 0.0
C583 C 0.88963 0.12025 0.39426 0.0
C584 C 0.868 0.09991 0.3767 0.0
H585 H 0.91161 0.14194 0.47153 0.0
H586 H 0.9013 0.13276 0.35843 0.0
C587 C 0.85317 0.08401 0.42417 0.0
C588 C 0.86875 0.45209 0.21962 0.0
C589 C 0.86821 0.43092 0.20067 0.0
H590 H 0.86961 0.47373 0.29854 0.0
C591 C 0.86429 0.41346 0.24662 0.0
H592 H 0.87183 0.46581 0.18498 0.0
C593 C 0.86266 0.41774 0.31106 0.0
C594 C 0.86539 0.43979 0.33088 0.0
H595 H 0.86361 0.39688 0.23292 0.0
H596 H 0.86091 0.40444 0.34554 0.0
C597 C 0.86755 0.45659 0.28451 0.0
C598 C 0.5507 0.42316 0.23433 0.0
C599 C 0.53389 0.42483 0.195 0.0
H600 H 0.56017 0.41933 0.33028 0.0
C601 C 0.51236 0.4214 0.22131 0.0
H602 H 0.56765 0.42623 0.21494 0.0
C603 C 0.50796 0.41716 0.28631 0.0
C604 C 0.52531 0.41696 0.3268 0.0
H605 H 0.4993 0.4229 0.19186 0.0
H606 H 0.49138 0.41523 0.30525 0.0
C607 C 0.54655 0.4195 0.30016 0.0
C608 C 0.56334 0.09636 0.29356 0.0
C609 C 0.5479 0.09613 0.34155 0.0
H610 H 0.56925 0.09552 0.193 0.0
C611 C 0.52708 0.09665 0.32417 0.0
H612 H 0.57955 0.09601 0.30586 0.0
C613 C 0.52096 0.09577 0.25998 0.0
C614 C 0.53588 0.09501 0.21206 0.0
H615 H 0.51484 0.09638 0.36016 0.0
H616 H 0.50422 0.09507 0.24781 0.0
C617 C 0.55753 0.09614 0.22915 0.0
C618 C 0.78531 0.54365 0.89163 0.0
C619 C 0.76987 0.54314 0.84327 0.0
H620 H 0.7922 0.54537 0.99223 0.0
C621 C 0.74806 0.5417 0.86017 0.0
H622 H 0.80225 0.54472 0.87973 0.0
C623 C 0.74263 0.54261 0.9242 0.0
C624 C 0.75863 0.54437 0.97242 0.0
H625 H 0.73589 0.54138 0.8239 0.0
H626 H 0.72626 0.54276 0.93594 0.0
C627 C 0.77958 0.54396 0.95586 0.0
C628 C 0.43259 0.23479 0.88076 0.0
C629 C 0.43235 0.21923 0.83319 0.0
H630 H 0.43086 0.24058 0.98106 0.0
C631 C 0.43261 0.19837 0.85115 0.0
H632 H 0.43243 0.25103 0.86802 0.0
C633 C 0.43115 0.1922 0.91536 0.0
C634 C 0.43001 0.20705 0.96274 0.0
H635 H 0.43235 0.18603 0.81553 0.0
H636 H 0.43006 0.17534 0.9279 0.0
C637 C 0.43173 0.22888 0.94527 0.0
C638 C 0.76978 0.23138 0.85739 0.0
C639 C 0.75004 0.2096 0.83798 0.0
H640 H 0.79196 0.25208 0.93513 0.0
C641 C 0.73517 0.19314 0.88469 0.0
H642 H 0.78153 0.24441 0.82265 0.0
C643 C 0.74098 0.19771 0.9495 0.0
C644 C 0.76195 0.21858 0.96809 0.0
H645 H 0.71977 0.1762 0.87098 0.0
H646 H 0.73009 0.18424 0.98441 0.0
C647 C 0.77579 0.23572 0.92177 0.0
C648 C 0.43094 0.19238 0.44523 0.0
C649 C 0.42924 0.2125 0.46289 0.0
H650 H 0.43177 0.17102 0.36777 0.0
C651 C 0.43049 0.22857 0.41569 0.0
H652 H 0.43 0.17977 0.4809 0.0
C653 C 0.43209 0.22394 0.35143 0.0
C654 C 0.43186 0.20285 0.33327 0.0
H655 H 0.42942 0.24435 0.42838 0.0
H656 H 0.43193 0.23608 0.31592 0.0
C657 C 0.43193 0.18741 0.38069 0.0
C658 C 0.7921 0.22434 0.44799 0.0
C659 C 0.77031 0.22029 0.47398 0.0
H660 H 0.81334 0.23103 0.36432 0.0
C661 C 0.75325 0.22141 0.43436 0.0
H662 H 0.80537 0.2233 0.47767 0.0
C663 C 0.75745 0.22511 0.36857 0.0
C664 C 0.77897 0.22823 0.34223 0.0
H665 H 0.73611 0.21786 0.45351 0.0
H666 H 0.74366 0.22482 0.33822 0.0
C667 C 0.79654 0.22863 0.38301 0.0
C668 C 0.74516 0.54384 0.4556 0.0
C669 C 0.76687 0.54501 0.47223 0.0
H670 H 0.72294 0.54394 0.37943 0.0
C671 C 0.78156 0.54403 0.424 0.0
H672 H 0.7336 0.54465 0.49197 0.0
C673 C 0.77526 0.54308 0.35994 0.0
C674 C 0.75445 0.54372 0.34302 0.0
H675 H 0.79836 0.54478 0.43579 0.0
H676 H 0.78741 0.54333 0.3237 0.0
C677 C 0.73914 0.54351 0.39135 0.0
C678 C 0.5254 0.10099 0.72861 0.0
C679 C 0.5459 0.09966 0.71237 0.0
H680 H 0.50317 0.10135 0.80441 0.0
C681 C 0.56175 0.1012 0.76076 0.0
H682 H 0.51291 0.09981 0.69214 0.0
C683 C 0.55649 0.10259 0.82467 0.0
C684 C 0.53501 0.10192 0.84134 0.0
H685 H 0.57779 0.10039 0.74931 0.0
H686 H 0.56845 0.10258 0.86107 0.0
C687 C 0.51985 0.10183 0.79275 0.0
C688 C 0.89281 0.42453 0.72121 0.0
C689 C 0.87491 0.42833 0.69526 0.0
H690 H 0.90765 0.41828 0.80498 0.0
C691 C 0.85675 0.42721 0.73492 0.0
H692 H 0.90715 0.42568 0.69144 0.0
C693 C 0.85739 0.42372 0.80076 0.0
C694 C 0.87594 0.42086 0.82707 0.0
H695 H 0.84306 0.43062 0.71575 0.0
H696 H 0.84389 0.424 0.83114 0.0
C697 C 0.89313 0.42047 0.78626 0.0
C698 C 0.56363 0.44752 0.71928 0.0
C699 C 0.54291 0.42642 0.70071 0.0
H700 H 0.58458 0.46929 0.79778 0.0
C701 C 0.52932 0.40916 0.74705 0.0
H702 H 0.57431 0.4611 0.68436 0.0
C703 C 0.5353 0.4136 0.81143 0.0
C704 C 0.55474 0.43559 0.83083 0.0
H705 H 0.51333 0.39262 0.7337 0.0
H706 H 0.52371 0.40045 0.84617 0.0
C707 C 0.5694 0.45218 0.7841 0.0
C708 C 0.54367 0.78948 0.62583 0.0
C709 C 0.54367 0.7741 0.67352 0.0
H710 H 0.54515 0.79671 0.52544 0.0
C711 C 0.54312 0.75282 0.65568 0.0
H712 H 0.54405 0.806 0.63846 0.0
C713 C 0.54431 0.74786 0.59145 0.0
C714 C 0.54547 0.76377 0.5439 0.0
H715 H 0.5432 0.7407 0.69139 0.0
H716 H 0.54506 0.73188 0.579 0.0
C717 C 0.54424 0.78418 0.56133 0.0
C718 C 0.19602 0.74779 0.54484 0.0
C719 C 0.21672 0.7691 0.52727 0.0
H720 H 0.17442 0.72586 0.62222 0.0
C721 C 0.2335 0.78295 0.57442 0.0
H722 H 0.18282 0.73686 0.50934 0.0
C723 C 0.22897 0.77653 0.63854 0.0
C724 C 0.20732 0.75636 0.6569 0.0
H725 H 0.24973 0.79939 0.56193 0.0
H726 H 0.2417 0.78827 0.67393 0.0
C727 C 0.19125 0.74157 0.60937 0.0
C728 C 0.21613 0.45257 0.58126 0.0
C729 C 0.21396 0.43397 0.54162 0.0
H730 H 0.22077 0.466 0.67729 0.0
C731 C 0.21721 0.41573 0.56738 0.0
H732 H 0.21322 0.46658 0.56228 0.0
C733 C 0.22187 0.41558 0.63213 0.0
C734 C 0.22264 0.4333 0.67297 0.0
H735 H 0.21534 0.40109 0.53768 0.0
H736 H 0.22368 0.40084 0.65066 0.0
C737 C 0.22019 0.4521 0.64688 0.0
C738 C 0.46525 0.89741 0.2141 0.0
C739 C 0.44805 0.87967 0.17387 0.0
H740 H 0.47381 0.91201 0.30837 0.0
C741 C 0.42698 0.86094 0.20076 0.0
H742 H 0.48168 0.91209 0.19494 0.0
C743 C 0.42288 0.86055 0.26659 0.0
C744 C 0.43955 0.87918 0.30568 0.0
H745 H 0.41348 0.84702 0.17082 0.0
H746 H 0.40607 0.84661 0.2862 0.0
C747 C 0.46088 0.89734 0.27911 0.0
C748 C 0.09763 0.57067 0.22152 0.0
C749 C 0.0981 0.55596 0.17246 0.0
H750 H 0.09557 0.57524 0.32232 0.0
C751 C 0.0992 0.53537 0.1885 0.0
H752 H 0.09681 0.58669 0.21036 0.0
C753 C 0.09797 0.52861 0.25225 0.0
C754 C 0.0962 0.54261 0.30113 0.0
H755 H 0.09948 0.52367 0.15173 0.0
H756 H 0.09754 0.51194 0.26322 0.0
C757 C 0.09698 0.56418 0.28549 0.0
C758 C 0.44588 0.55688 0.18141 0.0
C759 C 0.42515 0.53564 0.16358 0.0
H760 H 0.46869 0.57781 0.25812 0.0
C761 C 0.40974 0.52031 0.21127 0.0
H762 H 0.4581 0.56895 0.14569 0.0
C763 C 0.41556 0.52563 0.27578 0.0
C764 C 0.43717 0.54601 0.29322 0.0
H765 H 0.3936 0.50382 0.19864 0.0
H766 H 0.40389 0.51316 0.31168 0.0
C767 C 0.45199 0.56186 0.24566 0.0
C768 C 0.09328 0.52826 0.78456 0.0
C769 C 0.09283 0.54917 0.80098 0.0
H770 H 0.09239 0.50545 0.70865 0.0
C771 C 0.09395 0.56476 0.75247 0.0
H772 H 0.09235 0.51594 0.82113 0.0
C773 C 0.09455 0.5591 0.68845 0.0
C774 C 0.0934 0.53743 0.67177 0.0
H775 H 0.09374 0.58108 0.76405 0.0
H776 H 0.0946 0.57105 0.65204 0.0
C777 C 0.09324 0.52227 0.72034 0.0
C778 C 0.41275 0.52737 0.74523 0.0
C779 C 0.42895 0.54155 0.79308 0.0
H780 H 0.40556 0.52188 0.64518 0.0
C781 C 0.44958 0.56303 0.77631 0.0
H782 H 0.39659 0.51079 0.75719 0.0
C783 C 0.45492 0.56916 0.71201 0.0
C784 C 0.43941 0.55417 0.66391 0.0
H785 H 0.46232 0.57421 0.81244 0.0
H786 H 0.4717 0.58505 0.69983 0.0
C787 C 0.41779 0.53377 0.6812 0.0
C788 C 0.40948 0.87148 0.78148 0.0
C789 C 0.43028 0.87114 0.80002 0.0
H790 H 0.38844 0.8722 0.70299 0.0
C791 C 0.44391 0.86742 0.7537 0.0
H792 H 0.39876 0.8744 0.8164 0.0
C793 C 0.43789 0.86579 0.68934 0.0
C794 C 0.41837 0.86832 0.66995 0.0
H795 H 0.45995 0.86689 0.76704 0.0
H796 H 0.44952 0.86422 0.65459 0.0
C797 C 0.40367 0.87029 0.71668 0.0
C798 C 0.2263 0.44543 0.15818 0.0
C799 C 0.20477 0.44424 0.17694 0.0
H800 H 0.24679 0.44299 0.08113 0.0
C801 C 0.18863 0.44312 0.12974 0.0
H802 H 0.23907 0.44629 0.19331 0.0
C803 C 0.19324 0.44158 0.06509 0.0
C804 C 0.21381 0.44068 0.04715 0.0
H805 H 0.17188 0.44222 0.14294 0.0
H806 H 0.18 0.43945 0.02981 0.0
C807 C 0.23065 0.44342 0.09397 0.0
C808 C 0.53988 0.78214 0.0916 0.0
C809 C 0.54229 0.76815 0.04383 0.0
H810 H 0.53806 0.78763 0.19161 0.0
C811 C 0.54209 0.74698 0.06074 0.0
H812 H 0.53982 0.79849 0.07951 0.0
C813 C 0.54153 0.74099 0.12508 0.0
C814 C 0.54059 0.75581 0.17308 0.0
H815 H 0.54399 0.73596 0.02467 0.0
H816 H 0.54289 0.72535 0.13737 0.0
C817 C 0.53875 0.77587 0.15567 0.0
C818 C 0.22252 0.80192 0.11237 0.0
C819 C 0.22373 0.78523 0.15321 0.0
H820 H 0.21609 0.80974 0.01774 0.0
C821 C 0.22211 0.76434 0.12705 0.0
H822 H 0.22374 0.81821 0.13095 0.0
C823 C 0.21843 0.75988 0.06131 0.0
C824 C 0.21583 0.77602 0.02159 0.0
H825 H 0.22308 0.75125 0.15745 0.0
H826 H 0.21614 0.7432 0.04227 0.0
C827 C 0.21828 0.79719 0.04748 0.0
C828 C 0.18996 0.20823 0.26033 0.0
C829 C 0.16499 0.19596 0.27002 0.0
H830 H 0.22093 0.20547 0.23605 0.0
C831 C 0.15192 0.17097 0.26209 0.0
H832 H 0.20044 0.22752 0.26583 0.0
C833 C 0.16355 0.15846 0.24454 0.0
C834 C 0.18849 0.17066 0.23481 0.0
H835 H 0.13263 0.16106 0.26891 0.0
H836 H 0.15297 0.13917 0.23897 0.0
C837 C 0.20164 0.19565 0.24296 0.0
C838 C 0.76921 0.97851 0.26553 0.0
C839 C 0.78286 0.96768 0.28137 0.0
H840 H 0.76965 0.01004 0.23074 0.0
C841 C 0.80788 0.98057 0.27347 0.0
H842 H 0.74985 0.96885 0.2708 0.0
C843 C 0.81909 0.00386 0.24983 0.0
C844 C 0.80552 0.01475 0.23403 0.0
H845 H 0.81883 0.9726 0.28482 0.0
H846 H 0.83845 0.01338 0.2445 0.0
C847 C 0.78049 0.00195 0.24218 0.0
C848 C 0.97295 0.81105 0.23238 0.0
C849 C 0.96011 0.78619 0.22209 0.0
H850 H 0.00622 0.84144 0.25988 0.0
C851 C 0.97151 0.77266 0.23218 0.0
H852 H 0.96457 0.82191 0.22536 0.0
C853 C -0.00457 0.78387 0.25228 0.0
C854 C 0.00821 0.80874 0.26272 0.0
H855 H 0.96194 0.75343 0.22494 0.0
H856 H 0.00391 0.7731 0.2594 0.0
C857 C -0.00324 0.82221 0.25258 0.0
C858 C 0.81669 0.81322 0.71568 0.0
C859 C 0.80374 0.78808 0.71535 0.0
H860 H 0.81667 0.84555 0.73784 0.0
C861 C 0.77957 0.77605 0.73467 0.0
H862 H 0.83533 0.82298 0.70086 0.0
C863 C 0.7688 0.78908 0.75608 0.0
C864 C 0.78215 0.81422 0.75861 0.0
H865 H 0.76921 0.75665 0.73494 0.0
H866 H 0.75029 0.7795 0.77196 0.0
C867 C 0.80603 0.82615 0.7372 0.0
C868 C 0.20065 -3e-05 0.74237 0.0
C869 C 0.18744 0.01183 0.73452 0.0
H870 H 0.19957 0.96697 0.76487 0.0
C871 C 0.16251 -0.0008 0.74449 0.0
H872 H 0.21993 0.00936 0.73529 0.0
C873 C 0.15096 0.97513 0.76192 0.0
C874 C 0.1641 0.9632 0.76949 0.0
H875 H 0.1519 0.00794 0.73916 0.0
H876 H 0.13167 0.96582 0.76888 0.0
C877 C 0.18905 0.9758 0.75964 0.0
C878 C 0.97174 0.19599 0.73674 0.0
C879 C 0.95996 0.17117 0.72551 0.0
H880 H 0.0045 0.2273 0.76422 0.0
C881 C 0.97257 0.15873 0.73357 0.0
H882 H 0.96237 0.20598 0.73117 0.0
C883 C -0.00352 0.17083 0.75298 0.0
C884 C 0.00827 0.19562 0.76451 0.0
H885 H 0.9639 0.13956 0.72558 0.0
H886 H 0.00575 0.16074 0.75872 0.0
C887 C -0.00424 0.20815 0.75602 0.0
C888 C 0.85651 0.53821 0.6086 0.0
C889 C 0.83205 0.52566 0.62524 0.0
H890 H 0.88661 0.53579 0.57321 0.0
C891 C 0.81929 0.50056 0.62105 0.0
H892 H 0.86673 0.5576 0.61124 0.0
C893 C 0.83051 0.48823 0.59895 0.0
C894 C 0.85477 0.50071 0.58075 0.0
H895 H 0.80043 0.4904 0.63355 0.0
H896 H 0.82005 0.46886 0.5956 0.0
C897 C 0.86783 0.52578 0.58658 0.0
C898 C 0.47335 0.30759 0.59049 0.0
C899 C 0.44881 0.29636 0.60563 0.0
H900 H 0.50421 0.3392 0.55663 0.0
C901 C 0.43633 0.30893 0.59737 0.0
H902 H 0.48338 0.29825 0.59587 0.0
C903 C 0.4483 0.33247 0.57469 0.0
C904 C 0.47285 0.34364 0.55955 0.0
H905 H 0.41735 0.30059 0.60831 0.0
H906 H 0.4384 0.34194 0.56937 0.0
C907 C 0.48523 0.33096 0.56746 0.0
C908 C 0.6415 0.14374 0.55323 0.0
C909 C 0.62973 0.1186 0.55272 0.0
H910 H 0.6738 0.17637 0.57322 0.0
C911 C 0.6425 0.10694 0.5697 0.0
H912 H 0.63213 0.15322 0.54027 0.0
C913 C 0.66652 0.12028 0.58878 0.0
C914 C 0.67797 0.14541 0.59129 0.0
H915 H 0.63378 0.08754 0.56979 0.0
H916 H 0.67594 0.11095 0.60277 0.0
C917 C 0.66535 0.157 0.57241 0.0
C918 C 0.43543 0.11686 0.09592 0.0
C919 C 0.44838 0.14159 0.1084 0.0
H920 H 0.43701 0.08584 0.06578 0.0
C921 C 0.47336 0.15421 0.09931 0.0
H922 H 0.41613 0.10675 0.10217 0.0
C923 C 0.48522 0.14236 0.07796 0.0
C924 C 0.47233 0.11764 0.06548 0.0
H925 H 0.48379 0.17333 0.10818 0.0
H926 H 0.50452 0.15257 0.07169 0.0
C927 C 0.44734 0.10495 0.07469 0.0
C928 C 0.86767 0.33645 0.07341 0.0
C929 C 0.85474 0.34833 0.0611 0.0
H930 H 0.8661 0.30402 0.10505 0.0
C931 C 0.8299 0.33647 0.07248 0.0
H932 H 0.88688 0.3453 0.06539 0.0
C933 C 0.81818 0.31318 0.09607 0.0
C934 C 0.83101 0.30121 0.10815 0.0
H935 H 0.81951 0.34528 0.06395 0.0
H936 H 0.79897 0.30446 0.10407 0.0
C937 C 0.85584 0.31297 0.0965 0.0
C938 C 0.66199 0.49894 0.12159 0.0
C939 C 0.67384 0.52404 0.12565 0.0
H940 H 0.62996 0.46686 0.09611 0.0
C941 C 0.66149 0.53616 0.10888 0.0
H942 H 0.67104 0.48911 0.13419 0.0
C943 C 0.63781 0.52333 0.0868 0.0
C944 C 0.62628 0.49827 0.08104 0.0
H945 H 0.67028 0.55553 0.11142 0.0
H946 H 0.62871 0.53302 0.0733 0.0
C947 C 0.63848 0.4862 0.09941 0.0
C948 C 0.48758 0.83273 0.93333 0.0
C949 C 0.50002 0.85773 0.94107 0.0
H950 H 0.48944 0.8017 0.90619 0.0
C951 C 0.52461 0.87086 0.92641 0.0
H952 H 0.46856 0.82217 0.94376 0.0
C953 C 0.53659 0.85911 0.90466 0.0
C954 C 0.52409 0.83409 0.89692 0.0
H955 H 0.53456 0.89019 0.93156 0.0
H956 H 0.55562 0.86957 0.89429 0.0
C957 C 0.49949 0.82103 0.91126 0.0
C958 C 0.10547 0.64844 0.93638 0.0
C959 C 0.11747 0.63583 0.95146 0.0
H960 H 0.10872 0.68129 0.90157 0.0
C961 C 0.14251 0.64722 0.94456 0.0
H962 H 0.08614 0.64002 0.94107 0.0
C963 C 0.1553 0.67058 0.92161 0.0
C964 C 0.14333 0.68308 0.90522 0.0
H965 H 0.15225 0.63794 0.95573 0.0
H966 H 0.17459 0.67877 0.91631 0.0
C967 C 0.11834 0.67196 0.91347 0.0
C968 C 0.30989 0.47834 0.91078 0.0
C969 C 0.29696 0.45335 0.90306 0.0
H970 H 0.34324 0.50906 0.93602 0.0
C971 C 0.30828 0.43991 0.91583 0.0
H972 H 0.30156 0.48913 0.90177 0.0
C973 C 0.33224 0.45136 0.9356 0.0
C974 C 0.34512 0.47638 0.94328 0.0
H975 H 0.29864 0.42058 0.9106 0.0
H976 H 0.3407 0.44068 0.94452 0.0
C977 C 0.3337 0.48973 0.9309 0.0
C978 C 0.10287 0.45216 0.44422 0.0
C979 C 0.11494 0.4767 0.45952 0.0
H980 H 0.10617 0.42218 0.41269 0.0
C981 C 0.14012 0.48974 0.45713 0.0
H982 H 0.08344 0.44171 0.44557 0.0
C983 C 0.153 0.47869 0.43801 0.0
C984 C 0.141 0.45434 0.42104 0.0
H985 H 0.14992 0.50868 0.46871 0.0
H986 H 0.17241 0.48936 0.43586 0.0
C987 C 0.11583 0.44103 0.42518 0.0
C988 C 0.48844 0.64323 0.42852 0.0
C989 C 0.50128 0.6312 0.43964 0.0
H990 H 0.4899 0.67572 0.39947 0.0
C991 C 0.52619 0.64319 0.42921 0.0
H992 H 0.46919 0.63436 0.43577 0.0
C993 C 0.53808 0.66693 0.40807 0.0
C994 C 0.52518 0.67892 0.39695 0.0
H995 H 0.53647 0.63423 0.43706 0.0
H996 H 0.55734 0.6759 0.40082 0.0
C997 C 0.50027 0.66686 0.40728 0.0
C998 C 0.3348 0.87303 0.41962 0.0
C999 C 0.34725 0.86022 0.41995 0.0
H1000 H 0.30148 0.87195 0.39993 0.0
C1001 C 0.33594 0.83668 0.39635 0.0
H1002 H 0.34322 0.89127 0.43725 0.0
C1003 C 0.31239 0.82582 0.37454 0.0
C1004 C 0.29956 0.83821 0.37622 0.0
H1005 H 0.3452 0.82646 0.39531 0.0
H1006 H 0.30404 0.80744 0.3579 0.0
C1007 C 0.31103 0.86204 0.39805 0.0
C1008 C 0.31211 0.17369 0.17532 0.0
C1009 C 0.29402 0.14975 0.18356 0.0
H1010 H 0.34954 0.19803 0.1603 0.0
C1011 C 0.30017 0.13161 0.18272 0.0
H1012 H 0.30787 0.18802 0.17562 0.0
C1013 C 0.324 0.13731 0.17381 0.0
C1014 C 0.34209 0.16125 0.16557 0.0
H1015 H 0.28657 0.11297 0.18883 0.0
H1016 H 0.32824 0.12297 0.1735 0.0
C1017 C 0.33594 0.17939 0.16641 0.0
C1018 C 0.83371 0.18068 0.15561 0.0
C1019 C 0.80955 0.17485 0.15406 0.0
H1020 H 0.85852 0.16784 0.16443 0.0
C1021 C 0.79145 0.1507 0.15911 0.0
H1022 H 0.84804 0.19913 0.15189 0.0
C1023 C 0.79745 0.13271 0.16629 0.0
C1024 C 0.82165 0.13863 0.16873 0.0
H1025 H 0.77265 0.14571 0.15808 0.0
H1026 H 0.78319 0.11425 0.17047 0.0
C1027 C 0.8397 0.16275 0.16296 0.0
C1028 C 0.79253 0.65066 0.17169 0.0
C1029 C 0.79884 0.63276 0.1655 0.0
H1030 H 0.805 0.68819 0.18093 0.0
C1031 C 0.82326 0.63936 0.16358 0.0
H1032 H 0.77385 0.64607 0.17332 0.0
C1033 C 0.84107 0.66342 0.16797 0.0
C1034 C 0.83478 0.68131 0.17436 0.0
H1035 H 0.82865 0.62593 0.15883 0.0
H1036 H 0.85974 0.66798 0.16644 0.0
C1037 C 0.81036 0.67473 0.17609 0.0
C1038 C 0.13731 0.33533 0.32585 0.0
C1039 C 0.16161 0.35312 0.32879 0.0
H1040 H 0.11194 0.29794 0.31578 0.0
C1041 C 0.17934 0.3465 0.32218 0.0
H1042 H 0.12327 0.33992 0.33069 0.0
C1043 C 0.17287 0.32248 0.31384 0.0
C1044 C 0.14857 0.30466 0.31168 0.0
H1045 H 0.19824 0.35985 0.32422 0.0
H1046 H 0.1869 0.31786 0.30963 0.0
C1047 C 0.13084 0.31132 0.31725 0.0
C1048 C 0.63731 0.82806 0.33424 0.0
C1049 C 0.63156 0.80401 0.33958 0.0
H1050 H 0.66502 0.86462 0.32443 0.0
C1051 C 0.65008 0.79841 0.33791 0.0
H1052 H 0.62339 0.83291 0.33516 0.0
C1053 C 0.674 0.81664 0.33179 0.0
C1054 C 0.67972 0.84071 0.32705 0.0
H1055 H 0.64613 0.78001 0.34182 0.0
H1056 H 0.68799 0.81189 0.33124 0.0
C1057 C 0.66115 0.84623 0.32795 0.0
C1058 C 0.17632 0.83926 0.33969 0.0
C1059 C 0.17106 0.81533 0.34222 0.0
H1060 H 0.16262 0.86328 0.32898 0.0
C1061 C 0.14703 0.79684 0.33711 0.0
H1062 H 0.19466 0.85387 0.3434 0.0
C1063 C 0.12861 0.80222 0.32878 0.0
C1064 C 0.13396 0.82617 0.32525 0.0
H1065 H 0.14246 0.77821 0.33884 0.0
H1066 H 0.11026 0.78766 0.32454 0.0
C1067 C 0.15796 0.84462 0.33121 0.0
C1068 C 0.6644 0.80882 0.8486 0.0
C1069 C 0.68185 0.83323 0.85113 0.0
H1070 H 0.62693 0.78277 0.84936 0.0
C1071 C 0.67452 0.85038 0.85782 0.0
H1072 H 0.66955 0.79523 0.84342 0.0
C1073 C 0.65014 0.84328 0.86083 0.0
C1074 C 0.63269 0.8189 0.85753 0.0
H1075 H 0.68759 0.86934 0.8598 0.0
H1076 H 0.64499 0.8569 0.86535 0.0
C1077 C 0.64003 0.80172 0.85193 0.0
C1078 C 0.18006 0.82784 0.80701 0.0
C1079 C 0.1626 0.80346 0.8123 0.0
H1080 H 0.18708 0.86396 0.79891 0.0
C1081 C 0.1382 0.79679 0.81145 0.0
H1082 H 0.19903 0.83351 0.80756 0.0
C1083 C 0.13138 0.81423 0.80635 0.0
C1084 C 0.14885 0.83865 0.80225 0.0
H1085 H 0.12437 0.77814 0.81544 0.0
H1086 H 0.11242 0.80859 0.80648 0.0
C1087 C 0.17325 0.84528 0.80215 0.0
C1088 C 0.14545 0.34425 0.8481 0.0
C1089 C 0.16951 0.34991 0.8546 0.0
H1090 H 0.109 0.3167 0.83174 0.0
C1091 C 0.17517 0.33151 0.85033 0.0
H1092 H 0.14058 0.35812 0.85106 0.0
C1093 C 0.15719 0.30795 0.83889 0.0
C1094 C 0.13316 0.30228 0.83169 0.0
H1095 H 0.19356 0.33535 0.85499 0.0
H1096 H 0.16216 0.29417 0.83549 0.0
C1097 C 0.1274 0.3206 0.83685 0.0
C1098 C 0.79912 0.66211 0.67264 0.0
C1099 C 0.82309 0.68049 0.67836 0.0
H1100 H 0.77494 0.62441 0.66347 0.0
C1101 C 0.84145 0.67459 0.67933 0.0
H1102 H 0.78463 0.66614 0.67171 0.0
C1103 C 0.83593 0.65073 0.67455 0.0
C1104 C 0.81196 0.63235 0.66872 0.0
H1105 H 0.86012 0.68842 0.68366 0.0
H1106 H 0.85042 0.64669 0.67541 0.0
C1107 C 0.7936 0.63824 0.66786 0.0
C1108 C 0.31116 0.13035 0.67618 0.0
C1109 C 0.29338 0.13675 0.68437 0.0
H1110 H 0.34847 0.14257 0.66136 0.0
C1111 C 0.29998 0.16113 0.68379 0.0
H1112 H 0.30657 0.1117 0.6763 0.0
C1113 C 0.32394 0.1788 0.67511 0.0
C1114 C 0.34172 0.1724 0.66685 0.0
H1115 H 0.28662 0.16658 0.68988 0.0
H1116 H 0.32853 0.19745 0.67493 0.0
C1117 C 0.33512 0.14802 0.66751 0.0
C1118 C 0.81038 0.13567 0.68425 0.0
C1119 C 0.83475 0.15325 0.68965 0.0
H1120 H 0.77414 0.12837 0.6745 0.0
C1121 C 0.84114 0.17753 0.69131 0.0
H1122 H 0.80493 0.1168 0.6829 0.0
C1123 C 0.82351 0.18413 0.68681 0.0
C1124 C 0.79918 0.16657 0.68028 0.0
H1125 H 0.85978 0.19144 0.69559 0.0
H1126 H 0.82899 0.20301 0.68755 0.0
C1127 C 0.79275 0.14228 0.67946 0.0
C1128 C -0.00088 0.51125 0.48854 0.0
C1129 C 0.00569 0.49345 0.48512 0.0
H1130 H 0.97042 0.51906 0.49533 0.0
C1131 C -0.01234 0.46924 0.48385 0.0
H1132 H 0.01265 0.53008 0.4895 0.0
C1133 C 0.96348 0.46296 0.48686 0.0
C1134 C 0.95693 0.48076 0.49148 0.0
H1135 H -0.00778 0.45516 0.48106 0.0
H1136 H 0.94994 0.44412 0.48656 0.0
C1137 C 0.97495 0.50497 0.49182 0.0
C1138 C 0.46509 0.48253 0.50672 0.0
C1139 C 0.48321 0.50662 0.50102 0.0
H1140 H 0.45661 0.4461 0.51781 0.0
C1141 C 0.50738 0.51245 0.50365 0.0
H1142 H 0.44629 0.47751 0.50512 0.0
C1143 C 0.51329 0.49441 0.51092 0.0
C1144 C 0.49513 0.47028 0.51588 0.0
H1145 H 0.52169 0.5309 0.49953 0.0
H1146 H 0.53207 0.49933 0.51207 0.0
C1147 C 0.47099 0.46454 0.51417 0.0
C1148 C 0.4799 0.00238 0.52122 0.0
C1149 C 0.50427 0.00891 0.52557 0.0
H1150 H 0.44358 0.97382 0.5116 0.0
C1151 C 0.51057 -0.00908 0.52568 0.0
H1152 H 0.47451 0.01588 0.52109 0.0
C1153 C 0.49283 0.96683 0.52052 0.0
C1154 C 0.4685 0.96034 0.51488 0.0
H1155 H 0.5292 -0.00455 0.5291 0.0
H1156 H 0.49822 0.95333 0.51995 0.0
C1157 C 0.46218 0.97831 0.51579 0.0
C1158 C 0.46593 -0.00734 0.99864 0.0
C1159 C 0.49009 0.01082 1.00201 0.0
H1160 H 0.44121 0.95503 0.98898 0.0
C1161 C 0.5082 0.00472 0.99632 0.0
H1162 H 0.45162 -0.00311 0.00273 0.0
C1163 C 0.50229 0.98088 0.98814 0.0
C1164 C 0.47814 0.96265 0.9857 0.0
H1165 H 0.52701 0.01836 0.99847 0.0
H1166 H 0.51665 0.97671 0.98454 0.0
C1167 C 0.45999 0.96875 0.99066 0.0
C1168 C 0.96581 0.49904 0.01277 0.0
C1169 C 0.95982 0.47488 0.01708 0.0
H1170 H -0.00602 0.53559 0.00336 0.0
C1171 C 0.97821 0.4691 0.01606 0.0
H1172 H 0.95196 0.50399 0.01342 0.0
C1173 C 0.00212 0.4871 0.01005 0.0
C1174 C 0.00815 0.51125 0.00513 0.0
H1175 H 0.97413 0.45064 0.01925 0.0
H1176 H 0.01589 0.48204 0.00902 0.0
C1177 C -0.01018 0.51711 0.00695 0.0
C1178 C 0.48105 0.46094 0.98294 0.0
C1179 C 0.50543 0.47847 0.98875 0.0
H1180 H 0.44477 0.4537 0.97503 0.0
C1181 C 0.51192 0.50278 0.98914 0.0
H1182 H 0.47552 0.44204 0.98255 0.0
C1183 C 0.49432 0.50943 0.98469 0.0
C1184 C 0.46991 0.49189 0.98003 0.0
H1185 H 0.53056 0.51666 0.99356 0.0
H1186 H 0.49983 0.52832 0.98571 0.0
C1187 C 0.46344 0.46759 0.97875 0.0
loop_
_geom_bond_atom_site_label_1
_geom_bond_atom_site_label_2
_geom_bond_distance
_geom_bond_site_symmetry_2
_ccdc_geom_bond_type
In0 O1 2.294 . S
In0 O2 2.326 . S
In0 O6 2.266 . S
In0 O7 2.326 . S
In0 O8 2.266 . S
In0 O9 2.326 . S
In0 O11 2.294 . S
In0 O12 2.326 . S
O1 In0 2.294 . S
O1 C10 1.240 . S
O2 In0 2.326 . S
O2 C10 1.252 . S
C3 O6 1.252 . S
C3 O7 1.260 . S
C4 O11 1.240 . S
C4 O12 1.252 . S
C5 O8 1.252 . S
C5 O9 1.260 . S
O6 In0 2.266 . S
O6 C3 1.252 . S
O7 In0 2.326 . S
O7 C3 1.260 . S
O8 In0 2.266 . S
O8 C5 1.252 . S
O9 In0 2.326 . S
O9 C5 1.260 . S
C10 O1 1.240 . S
C10 O2 1.252 . S
O11 In0 2.294 . S
O11 C4 1.240 . S
O12 In0 2.326 . S
O12 C4 1.252 . S
In13 O14 2.294 . S
In13 O15 2.326 . S
In13 O19 2.266 . S
In13 O20 2.326 . S
In13 O21 2.266 . S
In13 O22 2.326 . S
In13 O24 2.294 . S
In13 O25 2.326 . S
O14 In13 2.294 . S
O14 C23 1.240 . S
O15 In13 2.326 . S
O15 C23 1.252 . S
C16 O19 1.252 . S
C16 O20 1.260 . S
C17 O24 1.240 . S
C17 O25 1.252 . S
C18 O21 1.252 . S
C18 O22 1.260 . S
O19 In13 2.266 . S
O19 C16 1.252 . S
O20 In13 2.326 . S
O20 C16 1.260 . S
O21 In13 2.266 . S
O21 C18 1.252 . S
O22 In13 2.326 . S
O22 C18 1.260 . S
C23 O14 1.240 . S
C23 O15 1.252 . S
O24 In13 2.294 . S
O24 C17 1.240 . S
O25 In13 2.326 . S
O25 C17 1.252 . S
In26 O27 2.294 . S
In26 O28 2.326 . S
In26 O32 2.266 . S
In26 O33 2.326 . S
In26 O34 2.266 . S
In26 O35 2.326 . S
In26 O37 2.294 . S
In26 O38 2.326 . S
O27 In26 2.294 . S
O27 C36 1.240 . S
O28 In26 2.326 . S
O28 C36 1.252 . S
C29 O32 1.252 . S
C29 O33 1.260 . S
C30 O37 1.240 . S
C30 O38 1.252 . S
C31 O34 1.252 . S
C31 O35 1.260 . S
O32 In26 2.266 . S
O32 C29 1.252 . S
O33 In26 2.326 . S
O33 C29 1.260 . S
O34 In26 2.266 . S
O34 C31 1.252 . S
O35 In26 2.326 . S
O35 C31 1.260 . S
C36 O27 1.240 . S
C36 O28 1.252 . S
O37 In26 2.294 . S
O37 C30 1.240 . S
O38 In26 2.326 . S
O38 C30 1.252 . S
In39 O40 2.294 . S
In39 O41 2.326 . S
In39 O45 2.266 . S
In39 O46 2.326 . S
In39 O47 2.266 . S
In39 O48 2.326 . S
In39 O50 2.294 . S
In39 O51 2.326 . S
O40 In39 2.294 . S
O40 C49 1.240 . S
O41 In39 2.326 . S
O41 C49 1.252 . S
C42 O45 1.252 . S
C42 O46 1.260 . S
C43 O50 1.240 . S
C43 O51 1.252 . S
C44 O47 1.252 . S
C44 O48 1.260 . S
O45 In39 2.266 . S
O45 C42 1.252 . S
O46 In39 2.326 . S
O46 C42 1.260 . S
O47 In39 2.266 . S
O47 C44 1.252 . S
O48 In39 2.326 . S
O48 C44 1.260 . S
C49 O40 1.240 . S
C49 O41 1.252 . S
O50 In39 2.294 . S
O50 C43 1.240 . S
O51 In39 2.326 . S
O51 C43 1.252 . S
In52 O53 2.294 . S
In52 O54 2.326 . S
In52 O58 2.266 . S
In52 O59 2.326 . S
In52 O60 2.266 . S
In52 O61 2.326 . S
In52 O63 2.294 . S
In52 O64 2.326 . S
O53 In52 2.294 . S
O53 C62 1.240 . S
O54 In52 2.326 . S
O54 C62 1.252 . S
C55 O58 1.252 . S
C55 O59 1.260 . S
C56 O63 1.240 . S
C56 O64 1.252 . S
C57 O60 1.252 . S
C57 O61 1.260 . S
O58 In52 2.266 . S
O58 C55 1.252 . S
O59 In52 2.326 . S
O59 C55 1.260 . S
O60 In52 2.266 . S
O60 C57 1.252 . S
O61 In52 2.326 . S
O61 C57 1.260 . S
C62 O53 1.240 . S
C62 O54 1.252 . S
O63 In52 2.294 . S
O63 C56 1.240 . S
O64 In52 2.326 . S
O64 C56 1.252 . S
In65 O66 2.294 . S
In65 O67 2.326 . S
In65 O71 2.266 . S
In65 O72 2.326 . S
In65 O73 2.266 . S
In65 O74 2.326 . S
In65 O76 2.294 . S
In65 O77 2.326 . S
O66 In65 2.294 . S
O66 C75 1.240 . S
O67 In65 2.326 . S
O67 C75 1.252 . S
C68 O71 1.252 . S
C68 O72 1.260 . S
C69 O76 1.240 . S
C69 O77 1.252 . S
C70 O73 1.252 . S
C70 O74 1.260 . S
O71 In65 2.266 . S
O71 C68 1.252 . S
O72 In65 2.326 . S
O72 C68 1.260 . S
O73 In65 2.266 . S
O73 C70 1.252 . S
O74 In65 2.326 . S
O74 C70 1.260 . S
C75 O66 1.240 . S
C75 O67 1.252 . S
O76 In65 2.294 . S
O76 C69 1.240 . S
O77 In65 2.326 . S
O77 C69 1.252 . S
In78 O79 2.294 . S
In78 O80 2.326 . S
In78 O84 2.266 . S
In78 O85 2.326 . S
In78 O86 2.266 . S
In78 O87 2.326 . S
In78 O89 2.294 . S
In78 O90 2.326 . S
O79 In78 2.294 . S
O79 C88 1.240 . S
O80 In78 2.326 . S
O80 C88 1.252 . S
C81 O84 1.252 . S
C81 O85 1.260 . S
C82 O89 1.240 . S
C82 O90 1.252 . S
C83 O86 1.252 . S
C83 O87 1.260 . S
O84 In78 2.266 . S
O84 C81 1.252 . S
O85 In78 2.326 . S
O85 C81 1.260 . S
O86 In78 2.266 . S
O86 C83 1.252 . S
O87 In78 2.326 . S
O87 C83 1.260 . S
C88 O79 1.240 . S
C88 O80 1.252 . S
O89 In78 2.294 . S
O89 C82 1.240 . S
O90 In78 2.326 . S
O90 C82 1.252 . S
In91 O92 2.294 . S
In91 O93 2.326 . S
In91 O97 2.266 . S
In91 O98 2.326 . S
In91 O99 2.266 . S
In91 O100 2.326 . S
In91 O102 2.294 . S
In91 O103 2.326 . S
O92 In91 2.294 . S
O92 C101 1.240 . S
O93 In91 2.326 . S
O93 C101 1.252 . S
C94 O97 1.252 . S
C94 O98 1.260 . S
C95 O102 1.240 . S
C95 O103 1.252 . S
C96 O99 1.252 . S
C96 O100 1.260 . S
O97 In91 2.266 . S
O97 C94 1.252 . S
O98 In91 2.326 . S
O98 C94 1.260 . S
O99 In91 2.266 . S
O99 C96 1.252 . S
O100 In91 2.326 . S
O100 C96 1.260 . S
C101 O92 1.240 . S
C101 O93 1.252 . S
O102 In91 2.294 . S
O102 C95 1.240 . S
O103 In91 2.326 . S
O103 C95 1.252 . S
In104 O105 2.294 . S
In104 O106 2.326 . S
In104 O110 2.266 . S
In104 O111 2.326 . S
In104 O112 2.266 . S
In104 O113 2.326 . S
In104 O115 2.294 . S
In104 O116 2.326 . S
O105 In104 2.294 . S
O105 C114 1.240 . S
O106 In104 2.326 . S
O106 C114 1.252 . S
C107 O110 1.252 . S
C107 O111 1.260 . S
C108 O115 1.240 . S
C108 O116 1.252 . S
C109 O112 1.252 . S
C109 O113 1.260 . S
O110 In104 2.266 . S
O110 C107 1.252 . S
O111 In104 2.326 . S
O111 C107 1.260 . S
O112 In104 2.266 . S
O112 C109 1.252 . S
O113 In104 2.326 . S
O113 C109 1.260 . S
C114 O105 1.240 . S
C114 O106 1.252 . S
O115 In104 2.294 . S
O115 C108 1.240 . S
O116 In104 2.326 . S
O116 C108 1.252 . S
In117 O118 2.294 . S
In117 O119 2.326 . S
In117 O123 2.266 . S
In117 O124 2.326 . S
In117 O125 2.266 . S
In117 O126 2.326 . S
In117 O128 2.294 . S
In117 O129 2.326 . S
O118 In117 2.294 . S
O118 C127 1.240 . S
O119 In117 2.326 . S
O119 C127 1.252 . S
C120 O123 1.252 . S
C120 O124 1.260 . S
C121 O128 1.240 . S
C121 O129 1.252 . S
C122 O125 1.252 . S
C122 O126 1.260 . S
O123 In117 2.266 . S
O123 C120 1.252 . S
O124 In117 2.326 . S
O124 C120 1.260 . S
O125 In117 2.266 . S
O125 C122 1.252 . S
O126 In117 2.326 . S
O126 C122 1.260 . S
C127 O118 1.240 . S
C127 O119 1.252 . S
O128 In117 2.294 . S
O128 C121 1.240 . S
O129 In117 2.326 . S
O129 C121 1.252 . S
In130 O131 2.294 . S
In130 O132 2.326 . S
In130 O136 2.266 . S
In130 O137 2.326 . S
In130 O138 2.266 . S
In130 O139 2.326 . S
In130 O141 2.294 . S
In130 O142 2.326 . S
O131 In130 2.294 . S
O131 C140 1.240 . S
O132 In130 2.326 . S
O132 C140 1.252 . S
C133 O136 1.252 . S
C133 O137 1.260 . S
C134 O141 1.240 . S
C134 O142 1.252 . S
C135 O138 1.252 . S
C135 O139 1.260 . S
O136 In130 2.266 . S
O136 C133 1.252 . S
O137 In130 2.326 . S
O137 C133 1.260 . S
O138 In130 2.266 . S
O138 C135 1.252 . S
O139 In130 2.326 . S
O139 C135 1.260 . S
C140 O131 1.240 . S
C140 O132 1.252 . S
O141 In130 2.294 . S
O141 C134 1.240 . S
O142 In130 2.326 . S
O142 C134 1.252 . S
In143 O144 2.294 . S
In143 O145 2.326 . S
In143 O149 2.266 . S
In143 O150 2.326 . S
In143 O151 2.266 . S
In143 O152 2.326 . S
In143 O154 2.294 . S
In143 O155 2.326 . S
O144 In143 2.294 . S
O144 C153 1.240 . S
O145 In143 2.326 . S
O145 C153 1.252 . S
C146 O149 1.252 . S
C146 O150 1.260 . S
C147 O154 1.240 . S
C147 O155 1.252 . S
C148 O151 1.252 . S
C148 O152 1.260 . S
O149 In143 2.266 . S
O149 C146 1.252 . S
O150 In143 2.326 . S
O150 C146 1.260 . S
O151 In143 2.266 . S
O151 C148 1.252 . S
O152 In143 2.326 . S
O152 C148 1.260 . S
C153 O144 1.240 . S
C153 O145 1.252 . S
O154 In143 2.294 . S
O154 C147 1.240 . S
O155 In143 2.326 . S
O155 C147 1.252 . S
In156 O157 2.294 . S
In156 O158 2.326 . S
In156 O162 2.266 . S
In156 O163 2.326 . S
In156 O164 2.266 . S
In156 O165 2.326 . S
In156 O167 2.294 . S
In156 O168 2.326 . S
O157 In156 2.294 . S
O157 C166 1.240 . S
O158 In156 2.326 . S
O158 C166 1.252 . S
C159 O162 1.252 . S
C159 O163 1.260 . S
C160 O167 1.240 . S
C160 O168 1.252 . S
C161 O164 1.252 . S
C161 O165 1.260 . S
O162 In156 2.266 . S
O162 C159 1.252 . S
O163 In156 2.326 . S
O163 C159 1.260 . S
O164 In156 2.266 . S
O164 C161 1.252 . S
O165 In156 2.326 . S
O165 C161 1.260 . S
C166 O157 1.240 . S
C166 O158 1.252 . S
O167 In156 2.294 . S
O167 C160 1.240 . S
O168 In156 2.326 . S
O168 C160 1.252 . S
In169 O170 2.294 . S
In169 O171 2.326 . S
In169 O175 2.266 . S
In169 O176 2.326 . S
In169 O177 2.266 . S
In169 O178 2.326 . S
In169 O180 2.294 . S
In169 O181 2.326 . S
O170 In169 2.294 . S
O170 C179 1.240 . S
O171 In169 2.326 . S
O171 C179 1.252 . S
C172 O175 1.252 . S
C172 O176 1.260 . S
C173 O180 1.240 . S
C173 O181 1.252 . S
C174 O177 1.252 . S
C174 O178 1.260 . S
O175 In169 2.266 . S
O175 C172 1.252 . S
O176 In169 2.326 . S
O176 C172 1.260 . S
O177 In169 2.266 . S
O177 C174 1.252 . S
O178 In169 2.326 . S
O178 C174 1.260 . S
C179 O170 1.240 . S
C179 O171 1.252 . S
O180 In169 2.294 . S
O180 C173 1.240 . S
O181 In169 2.326 . S
O181 C173 1.252 . S
In182 O183 2.294 . S
In182 O184 2.326 . S
In182 O188 2.266 . S
In182 O189 2.326 . S
In182 O190 2.266 . S
In182 O191 2.326 . S
In182 O193 2.294 . S
In182 O194 2.326 . S
O183 In182 2.294 . S
O183 C192 1.240 . S
O184 In182 2.326 . S
O184 C192 1.252 . S
C185 O188 1.252 . S
C185 O189 1.260 . S
C186 O193 1.240 . S
C186 O194 1.252 . S
C187 O190 1.252 . S
C187 O191 1.260 . S
O188 In182 2.266 . S
O188 C185 1.252 . S
O189 In182 2.326 . S
O189 C185 1.260 . S
O190 In182 2.266 . S
O190 C187 1.252 . S
O191 In182 2.326 . S
O191 C187 1.260 . S
C192 O183 1.240 . S
C192 O184 1.252 . S
O193 In182 2.294 . S
O193 C186 1.240 . S
O194 In182 2.326 . S
O194 C186 1.252 . S
In195 O196 2.294 . S
In195 O197 2.326 . S
In195 O201 2.266 . S
In195 O202 2.326 . S
In195 O203 2.266 . S
In195 O204 2.326 . S
In195 O206 2.294 . S
In195 O207 2.326 . S
O196 In195 2.294 . S
O196 C205 1.240 . S
O197 In195 2.326 . S
O197 C205 1.252 . S
C198 O201 1.252 . S
C198 O202 1.260 . S
C199 O206 1.240 . S
C199 O207 1.252 . S
C200 O203 1.252 . S
C200 O204 1.260 . S
O201 In195 2.266 . S
O201 C198 1.252 . S
O202 In195 2.326 . S
O202 C198 1.260 . S
O203 In195 2.266 . S
O203 C200 1.252 . S
O204 In195 2.326 . S
O204 C200 1.260 . S
C205 O196 1.240 . S
C205 O197 1.252 . S
O206 In195 2.294 . S
O206 C199 1.240 . S
O207 In195 2.326 . S
O207 C199 1.252 . S
In208 O209 2.294 . S
In208 O210 2.326 . S
In208 O214 2.266 . S
In208 O215 2.326 . S
In208 O216 2.266 . S
In208 O217 2.326 . S
In208 O219 2.294 . S
In208 O220 2.326 . S
O209 In208 2.294 . S
O209 C218 1.240 . S
O210 In208 2.326 . S
O210 C218 1.252 . S
C211 O214 1.252 . S
C211 O215 1.260 . S
C212 O219 1.240 . S
C212 O220 1.252 . S
C213 O216 1.252 . S
C213 O217 1.260 . S
O214 In208 2.266 . S
O214 C211 1.252 . S
O215 In208 2.326 . S
O215 C211 1.260 . S
O216 In208 2.266 . S
O216 C213 1.252 . S
O217 In208 2.326 . S
O217 C213 1.260 . S
C218 O209 1.240 . S
C218 O210 1.252 . S
O219 In208 2.294 . S
O219 C212 1.240 . S
O220 In208 2.326 . S
O220 C212 1.252 . S
In221 O222 2.294 . S
In221 O223 2.326 . S
In221 O227 2.266 . S
In221 O228 2.326 . S
In221 O229 2.266 . S
In221 O230 2.326 . S
In221 O232 2.294 . S
In221 O233 2.326 . S
O222 In221 2.294 . S
O222 C231 1.240 . S
O223 In221 2.326 . S
O223 C231 1.252 . S
C224 O227 1.252 . S
C224 O228 1.260 . S
C225 O232 1.240 . S
C225 O233 1.252 . S
C226 O229 1.252 . S
C226 O230 1.260 . S
O227 In221 2.266 . S
O227 C224 1.252 . S
O228 In221 2.326 . S
O228 C224 1.260 . S
O229 In221 2.266 . S
O229 C226 1.252 . S
O230 In221 2.326 . S
O230 C226 1.260 . S
C231 O222 1.240 . S
C231 O223 1.252 . S
O232 In221 2.294 . S
O232 C225 1.240 . S
O233 In221 2.326 . S
O233 C225 1.252 . S
In234 O235 2.294 . S
In234 O236 2.326 . S
In234 O240 2.266 . S
In234 O241 2.326 . S
In234 O242 2.266 . S
In234 O243 2.326 . S
In234 O245 2.294 . S
In234 O246 2.326 . S
O235 In234 2.294 . S
O235 C244 1.240 . S
O236 In234 2.326 . S
O236 C244 1.252 . S
C237 O240 1.252 . S
C237 O241 1.260 . S
C238 O245 1.240 . S
C238 O246 1.252 . S
C239 O242 1.252 . S
C239 O243 1.260 . S
O240 In234 2.266 . S
O240 C237 1.252 . S
O241 In234 2.326 . S
O241 C237 1.260 . S
O242 In234 2.266 . S
O242 C239 1.252 . S
O243 In234 2.326 . S
O243 C239 1.260 . S
C244 O235 1.240 . S
C244 O236 1.252 . S
O245 In234 2.294 . S
O245 C238 1.240 . S
O246 In234 2.326 . S
O246 C238 1.252 . S
In247 O248 2.294 . S
In247 O249 2.326 . S
In247 O253 2.266 . S
In247 O254 2.326 . S
In247 O255 2.266 . S
In247 O256 2.326 . S
In247 O258 2.294 . S
In247 O259 2.326 . S
O248 In247 2.294 . S
O248 C257 1.240 . S
O249 In247 2.326 . S
O249 C257 1.252 . S
C250 O253 1.252 . S
C250 O254 1.260 . S
C251 O258 1.240 . S
C251 O259 1.252 . S
C252 O255 1.252 . S
C252 O256 1.260 . S
O253 In247 2.266 . S
O253 C250 1.252 . S
O254 In247 2.326 . S
O254 C250 1.260 . S
O255 In247 2.266 . S
O255 C252 1.252 . S
O256 In247 2.326 . S
O256 C252 1.260 . S
C257 O248 1.240 . S
C257 O249 1.252 . S
O258 In247 2.294 . S
O258 C251 1.240 . S
O259 In247 2.326 . S
O259 C251 1.252 . S
In260 O261 2.294 . S
In260 O262 2.326 . S
In260 O266 2.266 . S
In260 O267 2.326 . S
In260 O268 2.266 . S
In260 O269 2.326 . S
In260 O271 2.294 . S
In260 O272 2.326 . S
O261 In260 2.294 . S
O261 C270 1.240 . S
O262 In260 2.326 . S
O262 C270 1.252 . S
C263 O266 1.252 . S
C263 O267 1.260 . S
C264 O271 1.240 . S
C264 O272 1.252 . S
C265 O268 1.252 . S
C265 O269 1.260 . S
O266 In260 2.266 . S
O266 C263 1.252 . S
O267 In260 2.326 . S
O267 C263 1.260 . S
O268 In260 2.266 . S
O268 C265 1.252 . S
O269 In260 2.326 . S
O269 C265 1.260 . S
C270 O261 1.240 . S
C270 O262 1.252 . S
O271 In260 2.294 . S
O271 C264 1.240 . S
O272 In260 2.326 . S
O272 C264 1.252 . S
In273 O274 2.294 . S
In273 O275 2.326 . S
In273 O279 2.266 . S
In273 O280 2.326 . S
In273 O281 2.266 1_554 S
In273 O282 2.326 1_554 S
In273 O284 2.294 . S
In273 O285 2.326 . S
O274 In273 2.294 . S
O274 C283 1.240 . S
O275 In273 2.326 . S
O275 C283 1.252 . S
C276 O279 1.252 . S
C276 O280 1.260 . S
C277 O284 1.240 . S
C277 O285 1.252 . S
C278 O281 1.252 . S
C278 O282 1.260 . S
O279 In273 2.266 . S
O279 C276 1.252 . S
O280 In273 2.326 . S
O280 C276 1.260 . S
O281 In273 2.266 1_556 S
O281 C278 1.252 . S
O282 In273 2.326 1_556 S
O282 C278 1.260 . S
C283 O274 1.240 . S
C283 O275 1.252 . S
O284 In273 2.294 . S
O284 C277 1.240 . S
O285 In273 2.326 . S
O285 C277 1.252 . S
In286 O287 2.294 . S
In286 O288 2.326 . S
In286 O292 2.266 1_554 S
In286 O293 2.326 1_554 S
In286 O294 2.266 . S
In286 O295 2.326 . S
In286 O297 2.294 . S
In286 O298 2.326 . S
O287 In286 2.294 . S
O287 C296 1.240 . S
O288 In286 2.326 . S
O288 C296 1.252 . S
C289 O292 1.252 . S
C289 O293 1.260 . S
C290 O297 1.240 . S
C290 O298 1.252 . S
C291 O294 1.252 . S
C291 O295 1.260 . S
O292 In286 2.266 1_556 S
O292 C289 1.252 . S
O293 In286 2.326 1_556 S
O293 C289 1.260 . S
O294 In286 2.266 . S
O294 C291 1.252 . S
O295 In286 2.326 . S
O295 C291 1.260 . S
C296 O287 1.240 . S
C296 O288 1.252 . S
O297 In286 2.294 . S
O297 C290 1.240 . S
O298 In286 2.326 . S
O298 C290 1.252 . S
In299 O300 2.294 . S
In299 O301 2.326 . S
In299 O305 2.266 . S
In299 O306 2.326 . S
In299 O307 2.266 1_554 S
In299 O308 2.326 1_554 S
In299 O310 2.294 . S
In299 O311 2.326 . S
O300 In299 2.294 . S
O300 C309 1.240 . S
O301 In299 2.326 . S
O301 C309 1.252 . S
C302 O305 1.252 . S
C302 O306 1.260 . S
C303 O310 1.240 . S
C303 O311 1.252 . S
C304 O307 1.252 . S
C304 O308 1.260 . S
O305 In299 2.266 . S
O305 C302 1.252 . S
O306 In299 2.326 . S
O306 C302 1.260 . S
O307 In299 2.266 1_556 S
O307 C304 1.252 . S
O308 In299 2.326 1_556 S
O308 C304 1.260 . S
C309 O300 1.240 . S
C309 O301 1.252 . S
O310 In299 2.294 . S
O310 C303 1.240 . S
O311 In299 2.326 . S
O311 C303 1.252 . S
In312 O313 2.294 . S
In312 O314 2.326 . S
In312 O318 2.266 . S
In312 O319 2.326 . S
In312 O320 2.266 . S
In312 O321 2.326 . S
In312 O323 2.294 . S
In312 O324 2.326 . S
O313 In312 2.294 . S
O313 C322 1.240 . S
O314 In312 2.326 . S
O314 C322 1.252 . S
C315 O318 1.252 . S
C315 O319 1.260 . S
C316 O323 1.240 . S
C316 O324 1.252 . S
C317 O320 1.252 . S
C317 O321 1.260 . S
O318 In312 2.266 . S
O318 C315 1.252 . S
O319 In312 2.326 . S
O319 C315 1.260 . S
O320 In312 2.266 . S
O320 C317 1.252 . S
O321 In312 2.326 . S
O321 C317 1.260 . S
C322 O313 1.240 . S
C322 O314 1.252 . S
O323 In312 2.294 . S
O323 C316 1.240 . S
O324 In312 2.326 . S
O324 C316 1.252 . S
In325 O326 2.294 . S
In325 O327 2.326 . S
In325 O331 2.266 . S
In325 O332 2.326 . S
In325 O333 2.266 . S
In325 O334 2.326 . S
In325 O336 2.294 . S
In325 O337 2.326 . S
O326 In325 2.294 . S
O326 C335 1.240 . S
O327 In325 2.326 . S
O327 C335 1.252 . S
C328 O331 1.252 . S
C328 O332 1.260 . S
C329 O336 1.240 . S
C329 O337 1.252 . S
C330 O333 1.252 . S
C330 O334 1.260 . S
O331 In325 2.266 . S
O331 C328 1.252 . S
O332 In325 2.326 . S
O332 C328 1.260 . S
O333 In325 2.266 . S
O333 C330 1.252 . S
O334 In325 2.326 . S
O334 C330 1.260 . S
C335 O326 1.240 . S
C335 O327 1.252 . S
O336 In325 2.294 . S
O336 C329 1.240 . S
O337 In325 2.326 . S
O337 C329 1.252 . S
In338 O339 2.294 . S
In338 O340 2.326 . S
In338 O344 2.266 . S
In338 O345 2.326 . S
In338 O346 2.266 . S
In338 O347 2.326 . S
In338 O349 2.294 . S
In338 O350 2.326 . S
O339 In338 2.294 . S
O339 C348 1.240 . S
O340 In338 2.326 . S
O340 C348 1.252 . S
C341 O344 1.252 . S
C341 O345 1.260 . S
C342 O349 1.240 . S
C342 O350 1.252 . S
C343 O346 1.252 . S
C343 O347 1.260 . S
O344 In338 2.266 . S
O344 C341 1.252 . S
O345 In338 2.326 . S
O345 C341 1.260 . S
O346 In338 2.266 . S
O346 C343 1.252 . S
O347 In338 2.326 . S
O347 C343 1.260 . S
C348 O339 1.240 . S
C348 O340 1.252 . S
O349 In338 2.294 . S
O349 C342 1.240 . S
O350 In338 2.326 . S
O350 C342 1.252 . S
In351 O352 2.294 . S
In351 O353 2.326 . S
In351 O357 2.266 . S
In351 O358 2.326 . S
In351 O359 2.266 1_556 S
In351 O360 2.326 1_556 S
In351 O362 2.294 . S
In351 O363 2.326 . S
O352 In351 2.294 . S
O352 C361 1.240 . S
O353 In351 2.326 . S
O353 C361 1.252 . S
C354 O357 1.252 . S
C354 O358 1.260 . S
C355 O362 1.240 . S
C355 O363 1.252 . S
C356 O359 1.252 . S
C356 O360 1.260 . S
O357 In351 2.266 . S
O357 C354 1.252 . S
O358 In351 2.326 . S
O358 C354 1.260 . S
O359 In351 2.266 1_554 S
O359 C356 1.252 . S
O360 In351 2.326 1_554 S
O360 C356 1.260 . S
C361 O352 1.240 . S
C361 O353 1.252 . S
O362 In351 2.294 . S
O362 C355 1.240 . S
O363 In351 2.326 . S
O363 C355 1.252 . S
In364 O365 2.294 . S
In364 O366 2.326 . S
In364 O370 2.266 1_556 S
In364 O371 2.326 1_556 S
In364 O372 2.266 . S
In364 O373 2.326 . S
In364 O375 2.294 . S
In364 O376 2.326 . S
O365 In364 2.294 . S
O365 C374 1.240 . S
O366 In364 2.326 . S
O366 C374 1.252 . S
C367 O370 1.252 . S
C367 O371 1.260 . S
C368 O375 1.240 . S
C368 O376 1.252 . S
C369 O372 1.252 . S
C369 O373 1.260 . S
O370 In364 2.266 1_554 S
O370 C367 1.252 . S
O371 In364 2.326 1_554 S
O371 C367 1.260 . S
O372 In364 2.266 . S
O372 C369 1.252 . S
O373 In364 2.326 . S
O373 C369 1.260 . S
C374 O365 1.240 . S
C374 O366 1.252 . S
O375 In364 2.294 . S
O375 C368 1.240 . S
O376 In364 2.326 . S
O376 C368 1.252 . S
In377 O378 2.294 . S
In377 O379 2.326 . S
In377 O383 2.266 . S
In377 O384 2.326 . S
In377 O385 2.266 1_556 S
In377 O386 2.326 1_556 S
In377 O388 2.294 . S
In377 O389 2.326 . S
O378 In377 2.294 . S
O378 C387 1.240 . S
O379 In377 2.326 . S
O379 C387 1.252 . S
C380 O383 1.252 . S
C380 O384 1.260 . S
C381 O388 1.240 . S
C381 O389 1.252 . S
C382 O385 1.252 . S
C382 O386 1.260 . S
O383 In377 2.266 . S
O383 C380 1.252 . S
O384 In377 2.326 . S
O384 C380 1.260 . S
O385 In377 2.266 1_554 S
O385 C382 1.252 . S
O386 In377 2.326 1_554 S
O386 C382 1.260 . S
C387 O378 1.240 . S
C387 O379 1.252 . S
O388 In377 2.294 . S
O388 C381 1.240 . S
O389 In377 2.326 . S
O389 C381 1.252 . S
In390 O391 2.294 . S
In390 O392 2.326 . S
In390 O396 2.266 . S
In390 O397 2.326 . S
In390 O398 2.266 . S
In390 O399 2.326 . S
In390 O401 2.294 . S
In390 O402 2.326 . S
O391 In390 2.294 . S
O391 C400 1.240 . S
O392 In390 2.326 . S
O392 C400 1.252 . S
C393 O396 1.252 . S
C393 O397 1.260 . S
C394 O401 1.240 . S
C394 O402 1.252 . S
C395 O398 1.252 . S
C395 O399 1.260 . S
O396 In390 2.266 . S
O396 C393 1.252 . S
O397 In390 2.326 . S
O397 C393 1.260 . S
O398 In390 2.266 . S
O398 C395 1.252 . S
O399 In390 2.326 . S
O399 C395 1.260 . S
C400 O391 1.240 . S
C400 O392 1.252 . S
O401 In390 2.294 . S
O401 C394 1.240 . S
O402 In390 2.326 . S
O402 C394 1.252 . S
In403 O404 2.294 . S
In403 O405 2.326 . S
In403 O409 2.266 . S
In403 O410 2.326 . S
In403 O411 2.266 . S
In403 O412 2.326 . S
In403 O414 2.294 . S
In403 O415 2.326 . S
O404 In403 2.294 . S
O404 C413 1.240 . S
O405 In403 2.326 . S
O405 C413 1.252 . S
C406 O409 1.252 . S
C406 O410 1.260 . S
C407 O414 1.240 . S
C407 O415 1.252 . S
C408 O411 1.252 . S
C408 O412 1.260 . S
O409 In403 2.266 . S
O409 C406 1.252 . S
O410 In403 2.326 . S
O410 C406 1.260 . S
O411 In403 2.266 . S
O411 C408 1.252 . S
O412 In403 2.326 . S
O412 C408 1.260 . S
C413 O404 1.240 . S
C413 O405 1.252 . S
O414 In403 2.294 . S
O414 C407 1.240 . S
O415 In403 2.326 . S
O415 C407 1.252 . S
In416 O417 2.294 . S
In416 O418 2.326 . S
In416 O422 2.266 . S
In416 O423 2.326 . S
In416 O424 2.266 . S
In416 O425 2.326 . S
In416 O427 2.294 . S
In416 O428 2.326 . S
O417 In416 2.294 . S
O417 C426 1.240 . S
O418 In416 2.326 . S
O418 C426 1.252 . S
C419 O422 1.252 . S
C419 O423 1.260 . S
C420 O427 1.240 . S
C420 O428 1.252 . S
C421 O424 1.252 . S
C421 O425 1.260 . S
O422 In416 2.266 . S
O422 C419 1.252 . S
O423 In416 2.326 . S
O423 C419 1.260 . S
O424 In416 2.266 . S
O424 C421 1.252 . S
O425 In416 2.326 . S
O425 C421 1.260 . S
C426 O417 1.240 . S
C426 O418 1.252 . S
O427 In416 2.294 . S
O427 C420 1.240 . S
O428 In416 2.326 . S
O428 C420 1.252 . S
In429 O430 2.294 . S
In429 O431 2.326 . S
In429 O435 2.266 . S
In429 O436 2.326 . S
In429 O437 2.266 . S
In429 O438 2.326 . S
In429 O440 2.294 . S
In429 O441 2.326 . S
O430 In429 2.294 . S
O430 C439 1.240 . S
O431 In429 2.326 . S
O431 C439 1.252 . S
C432 O435 1.252 . S
C432 O436 1.260 . S
C433 O440 1.240 . S
C433 O441 1.252 . S
C434 O437 1.252 . S
C434 O438 1.260 . S
O435 In429 2.266 . S
O435 C432 1.252 . S
O436 In429 2.326 . S
O436 C432 1.260 . S
O437 In429 2.266 . S
O437 C434 1.252 . S
O438 In429 2.326 . S
O438 C434 1.260 . S
C439 O430 1.240 . S
C439 O431 1.252 . S
O440 In429 2.294 . S
O440 C433 1.240 . S
O441 In429 2.326 . S
O441 C433 1.252 . S
In442 O443 2.294 . S
In442 O444 2.326 . S
In442 O448 2.266 . S
In442 O449 2.326 . S
In442 O450 2.266 . S
In442 O451 2.326 . S
In442 O453 2.294 . S
In442 O454 2.326 . S
O443 In442 2.294 . S
O443 C452 1.240 . S
O444 In442 2.326 . S
O444 C452 1.252 . S
C445 O448 1.252 . S
C445 O449 1.260 . S
C446 O453 1.240 . S
C446 O454 1.252 . S
C447 O450 1.252 . S
C447 O451 1.260 . S
O448 In442 2.266 . S
O448 C445 1.252 . S
O449 In442 2.326 . S
O449 C445 1.260 . S
O450 In442 2.266 . S
O450 C447 1.252 . S
O451 In442 2.326 . S
O451 C447 1.260 . S
C452 O443 1.240 . S
C452 O444 1.252 . S
O453 In442 2.294 . S
O453 C446 1.240 . S
O454 In442 2.326 . S
O454 C446 1.252 . S
In455 O456 2.294 . S
In455 O457 2.326 . S
In455 O461 2.266 . S
In455 O462 2.326 . S
In455 O463 2.266 . S
In455 O464 2.326 . S
In455 O466 2.294 . S
In455 O467 2.326 . S
O456 In455 2.294 . S
O456 C465 1.240 . S
O457 In455 2.326 . S
O457 C465 1.252 . S
C458 O461 1.252 . S
C458 O462 1.260 . S
C459 O466 1.240 . S
C459 O467 1.252 . S
C460 O463 1.252 . S
C460 O464 1.260 . S
O461 In455 2.266 . S
O461 C458 1.252 . S
O462 In455 2.326 . S
O462 C458 1.260 . S
O463 In455 2.266 . S
O463 C460 1.252 . S
O464 In455 2.326 . S
O464 C460 1.260 . S
C465 O456 1.240 . S
C465 O457 1.252 . S
O466 In455 2.294 . S
O466 C459 1.240 . S
O467 In455 2.326 . S
O467 C459 1.252 . S
C468 C469 1.387 . S
C468 H472 0.950 . S
C468 C477 1.390 . S
C469 C468 1.387 . S
C469 C471 1.387 . S
H470 C477 0.950 1_554 S
C471 C469 1.387 . S
C471 C473 1.390 . S
C471 H475 0.950 . S
H472 C468 0.950 . S
C473 C471 1.390 . S
C473 C474 1.387 1_556 S
C473 H476 0.950 1_556 S
C474 C473 1.387 1_554 S
C474 C477 1.387 1_554 S
H475 C471 0.950 . S
H476 C473 0.950 1_554 S
C477 C468 1.390 . S
C477 H470 0.950 1_556 S
C477 C474 1.387 1_556 S
C478 C479 1.387 . S
C478 H482 0.950 . S
C478 C487 1.390 . S
C479 C478 1.387 . S
C479 C481 1.387 . S
H480 C487 0.950 1_554 S
C481 C479 1.387 . S
C481 C483 1.390 . S
C481 H485 0.950 . S
H482 C478 0.950 . S
C483 C481 1.390 . S
C483 C484 1.387 1_556 S
C483 H486 0.950 1_556 S
C484 C483 1.387 1_554 S
C484 C487 1.387 1_554 S
H485 C481 0.950 . S
H486 C483 0.950 1_554 S
C487 C478 1.390 . S
C487 H480 0.950 1_556 S
C487 C484 1.387 1_556 S
C488 C489 1.387 1_556 S
C488 H492 0.950 1_556 S
C488 C497 1.390 . S
C489 C488 1.387 1_554 S
C489 C491 1.387 1_554 S
H490 C497 0.950 . S
C491 C489 1.387 1_556 S
C491 C493 1.390 . S
C491 H495 0.950 1_556 S
H492 C488 0.950 1_554 S
C493 C491 1.390 . S
C493 C494 1.387 . S
C493 H496 0.950 . S
C494 C493 1.387 . S
C494 C497 1.387 . S
H495 C491 0.950 1_554 S
H496 C493 0.950 . S
C497 C488 1.390 . S
C497 H490 0.950 . S
C497 C494 1.387 . S
C498 C499 1.387 . S
C498 H502 0.950 . S
C498 C507 1.390 . S
C499 C498 1.387 . S
C499 C501 1.387 . S
H500 C507 0.950 . S
C501 C499 1.387 . S
C501 C503 1.390 . S
C501 H505 0.950 . S
H502 C498 0.950 . S
C503 C501 1.390 . S
C503 C504 1.387 . S
C503 H506 0.950 . S
C504 C503 1.387 . S
C504 C507 1.387 . S
H505 C501 0.950 . S
H506 C503 0.950 . S
C507 C498 1.390 . S
C507 H500 0.950 . S
C507 C504 1.387 . S
C508 C509 1.387 . S
C508 H512 0.950 . S
C508 C517 1.390 . S
C509 C508 1.387 . S
C509 C511 1.387 . S
H510 C517 0.950 . S
C511 C509 1.387 . S
C511 C513 1.390 . S
C511 H515 0.950 . S
H512 C508 0.950 . S
C513 C511 1.390 . S
C513 C514 1.387 . S
C513 H516 0.950 . S
C514 C513 1.387 . S
C514 C517 1.387 . S
H515 C511 0.950 . S
H516 C513 0.950 . S
C517 C508 1.390 . S
C517 H510 0.950 . S
C517 C514 1.387 . S
C518 C519 1.387 . S
C518 H522 0.950 . S
C518 C527 1.390 . S
C519 C518 1.387 . S
C519 C521 1.387 . S
H520 C527 0.950 . S
C521 C519 1.387 . S
C521 C523 1.390 . S
C521 H525 0.950 . S
H522 C518 0.950 . S
C523 C521 1.390 . S
C523 C524 1.387 . S
C523 H526 0.950 . S
C524 C523 1.387 . S
C524 C527 1.387 . S
H525 C521 0.950 . S
H526 C523 0.950 . S
C527 C518 1.390 . S
C527 H520 0.950 . S
C527 C524 1.387 . S
C528 C529 1.387 . S
C528 H532 0.950 . S
C528 C537 1.390 . S
C529 C528 1.387 . S
C529 C531 1.387 . S
H530 C537 0.950 1_556 S
C531 C529 1.387 . S
C531 C533 1.390 . S
C531 H535 0.950 . S
H532 C528 0.950 . S
C533 C531 1.390 . S
C533 C534 1.387 1_554 S
C533 H536 0.950 1_554 S
C534 C533 1.387 1_556 S
C534 C537 1.387 1_556 S
H535 C531 0.950 . S
H536 C533 0.950 1_556 S
C537 C528 1.390 . S
C537 H530 0.950 1_554 S
C537 C534 1.387 1_554 S
C538 C539 1.387 . S
C538 H542 0.950 . S
C538 C547 1.390 . S
C539 C538 1.387 . S
C539 C541 1.387 . S
H540 C547 0.950 1_556 S
C541 C539 1.387 . S
C541 C543 1.390 . S
C541 H545 0.950 . S
H542 C538 0.950 . S
C543 C541 1.390 . S
C543 C544 1.387 1_554 S
C543 H546 0.950 1_554 S
C544 C543 1.387 1_556 S
C544 C547 1.387 1_556 S
H545 C541 0.950 . S
H546 C543 0.950 1_556 S
C547 C538 1.390 . S
C547 H540 0.950 1_554 S
C547 C544 1.387 1_554 S
C548 C549 1.387 1_554 S
C548 H552 0.950 1_554 S
C548 C557 1.390 . S
C549 C548 1.387 1_556 S
C549 C551 1.387 1_556 S
H550 C557 0.950 . S
C551 C549 1.387 1_554 S
C551 C553 1.390 . S
C551 H555 0.950 1_554 S
H552 C548 0.950 1_556 S
C553 C551 1.390 . S
C553 C554 1.387 . S
C553 H556 0.950 . S
C554 C553 1.387 . S
C554 C557 1.387 . S
H555 C551 0.950 1_556 S
H556 C553 0.950 . S
C557 C548 1.390 . S
C557 H550 0.950 . S
C557 C554 1.387 . S
C558 C559 1.387 . S
C558 H562 0.950 . S
C558 C567 1.390 . S
C559 C558 1.387 . S
C559 C561 1.387 . S
H560 C567 0.950 . S
C561 C559 1.387 . S
C561 C563 1.390 . S
C561 H565 0.950 . S
H562 C558 0.950 . S
C563 C561 1.390 . S
C563 C564 1.387 . S
C563 H566 0.950 . S
C564 C563 1.387 . S
C564 C567 1.387 . S
H565 C561 0.950 . S
H566 C563 0.950 . S
C567 C558 1.390 . S
C567 H560 0.950 . S
C567 C564 1.387 . S
C568 C569 1.387 . S
C568 H572 0.950 . S
C568 C577 1.390 . S
C569 C568 1.387 . S
C569 C571 1.387 . S
H570 C577 0.950 . S
C571 C569 1.387 . S
C571 C573 1.390 . S
C571 H575 0.950 . S
H572 C568 0.950 . S
C573 C571 1.390 . S
C573 C574 1.387 . S
C573 H576 0.950 . S
C574 C573 1.387 . S
C574 C577 1.387 . S
H575 C571 0.950 . S
H576 C573 0.950 . S
C577 C568 1.390 . S
C577 H570 0.950 . S
C577 C574 1.387 . S
C578 C579 1.387 . S
C578 H582 0.950 . S
C578 C587 1.390 . S
C579 C578 1.387 . S
C579 C581 1.387 . S
H580 C587 0.950 . S
C581 C579 1.387 . S
C581 C583 1.390 . S
C581 H585 0.950 . S
H582 C578 0.950 . S
C583 C581 1.390 . S
C583 C584 1.387 . S
C583 H586 0.950 . S
C584 C583 1.387 . S
C584 C587 1.387 . S
H585 C581 0.950 . S
H586 C583 0.950 . S
C587 C578 1.390 . S
C587 H580 0.950 . S
C587 C584 1.387 . S
C588 C589 1.387 . S
C588 H592 0.950 . S
C588 C597 1.390 . S
C589 C588 1.387 . S
C589 C591 1.387 . S
H590 C597 0.950 . S
C591 C589 1.387 . S
C591 C593 1.390 . S
C591 H595 0.950 . S
H592 C588 0.950 . S
C593 C591 1.390 . S
C593 C594 1.387 . S
C593 H596 0.950 . S
C594 C593 1.387 . S
C594 C597 1.387 . S
H595 C591 0.950 . S
H596 C593 0.950 . S
C597 C588 1.390 . S
C597 H590 0.950 . S
C597 C594 1.387 . S
C598 C599 1.387 . S
C598 H602 0.950 . S
C598 C607 1.390 . S
C599 C598 1.387 . S
C599 C601 1.387 . S
H600 C607 0.950 . S
C601 C599 1.387 . S
C601 C603 1.390 . S
C601 H605 0.950 . S
H602 C598 0.950 . S
C603 C601 1.390 . S
C603 C604 1.387 . S
C603 H606 0.950 . S
C604 C603 1.387 . S
C604 C607 1.387 . S
H605 C601 0.950 . S
H606 C603 0.950 . S
C607 C598 1.390 . S
C607 H600 0.950 . S
C607 C604 1.387 . S
C608 C609 1.387 . S
C608 H612 0.950 . S
C608 C617 1.390 . S
C609 C608 1.387 . S
C609 C611 1.387 . S
H610 C617 0.950 . S
C611 C609 1.387 . S
C611 C613 1.390 . S
C611 H615 0.950 . S
H612 C608 0.950 . S
C613 C611 1.390 . S
C613 C614 1.387 . S
C613 H616 0.950 . S
C614 C613 1.387 . S
C614 C617 1.387 . S
H615 C611 0.950 . S
H616 C613 0.950 . S
C617 C608 1.390 . S
C617 H610 0.950 . S
C617 C614 1.387 . S
C618 C619 1.387 . S
C618 H622 0.950 . S
C618 C627 1.390 . S
C619 C618 1.387 . S
C619 C621 1.387 . S
H620 C627 0.950 . S
C621 C619 1.387 . S
C621 C623 1.390 . S
C621 H625 0.950 . S
H622 C618 0.950 . S
C623 C621 1.390 . S
C623 C624 1.387 . S
C623 H626 0.950 . S
C624 C623 1.387 . S
C624 C627 1.387 . S
H625 C621 0.950 . S
H626 C623 0.950 . S
C627 C618 1.390 . S
C627 H620 0.950 . S
C627 C624 1.387 . S
C628 C629 1.387 . S
C628 H632 0.950 . S
C628 C637 1.390 . S
C629 C628 1.387 . S
C629 C631 1.387 . S
H630 C637 0.950 . S
C631 C629 1.387 . S
C631 C633 1.390 . S
C631 H635 0.950 . S
H632 C628 0.950 . S
C633 C631 1.390 . S
C633 C634 1.387 . S
C633 H636 0.950 . S
C634 C633 1.387 . S
C634 C637 1.387 . S
H635 C631 0.950 . S
H636 C633 0.950 . S
C637 C628 1.390 . S
C637 H630 0.950 . S
C637 C634 1.387 . S
C638 C639 1.387 . S
C638 H642 0.950 . S
C638 C647 1.390 . S
C639 C638 1.387 . S
C639 C641 1.387 . S
H640 C647 0.950 . S
C641 C639 1.387 . S
C641 C643 1.390 . S
C641 H645 0.950 . S
H642 C638 0.950 . S
C643 C641 1.390 . S
C643 C644 1.387 . S
C643 H646 0.950 . S
C644 C643 1.387 . S
C644 C647 1.387 . S
H645 C641 0.950 . S
H646 C643 0.950 . S
C647 C638 1.390 . S
C647 H640 0.950 . S
C647 C644 1.387 . S
C648 C649 1.387 . S
C648 H652 0.950 . S
C648 C657 1.390 . S
C649 C648 1.387 . S
C649 C651 1.387 . S
H650 C657 0.950 . S
C651 C649 1.387 . S
C651 C653 1.390 . S
C651 H655 0.950 . S
H652 C648 0.950 . S
C653 C651 1.390 . S
C653 C654 1.387 . S
C653 H656 0.950 . S
C654 C653 1.387 . S
C654 C657 1.387 . S
H655 C651 0.950 . S
H656 C653 0.950 . S
C657 C648 1.390 . S
C657 H650 0.950 . S
C657 C654 1.387 . S
C658 C659 1.387 . S
C658 H662 0.950 . S
C658 C667 1.390 . S
C659 C658 1.387 . S
C659 C661 1.387 . S
H660 C667 0.950 . S
C661 C659 1.387 . S
C661 C663 1.390 . S
C661 H665 0.950 . S
H662 C658 0.950 . S
C663 C661 1.390 . S
C663 C664 1.387 . S
C663 H666 0.950 . S
C664 C663 1.387 . S
C664 C667 1.387 . S
H665 C661 0.950 . S
H666 C663 0.950 . S
C667 C658 1.390 . S
C667 H660 0.950 . S
C667 C664 1.387 . S
C668 C669 1.387 . S
C668 H672 0.950 . S
C668 C677 1.390 . S
C669 C668 1.387 . S
C669 C671 1.387 . S
H670 C677 0.950 . S
C671 C669 1.387 . S
C671 C673 1.390 . S
C671 H675 0.950 . S
H672 C668 0.950 . S
C673 C671 1.390 . S
C673 C674 1.387 . S
C673 H676 0.950 . S
C674 C673 1.387 . S
C674 C677 1.387 . S
H675 C671 0.950 . S
H676 C673 0.950 . S
C677 C668 1.390 . S
C677 H670 0.950 . S
C677 C674 1.387 . S
C678 C679 1.387 . S
C678 H682 0.950 . S
C678 C687 1.390 . S
C679 C678 1.387 . S
C679 C681 1.387 . S
H680 C687 0.950 . S
C681 C679 1.387 . S
C681 C683 1.390 . S
C681 H685 0.950 . S
H682 C678 0.950 . S
C683 C681 1.390 . S
C683 C684 1.387 . S
C683 H686 0.950 . S
C684 C683 1.387 . S
C684 C687 1.387 . S
H685 C681 0.950 . S
H686 C683 0.950 . S
C687 C678 1.390 . S
C687 H680 0.950 . S
C687 C684 1.387 . S
C688 C689 1.387 . S
C688 H692 0.950 . S
C688 C697 1.390 . S
C689 C688 1.387 . S
C689 C691 1.387 . S
H690 C697 0.950 . S
C691 C689 1.387 . S
C691 C693 1.390 . S
C691 H695 0.950 . S
H692 C688 0.950 . S
C693 C691 1.390 . S
C693 C694 1.387 . S
C693 H696 0.950 . S
C694 C693 1.387 . S
C694 C697 1.387 . S
H695 C691 0.950 . S
H696 C693 0.950 . S
C697 C688 1.390 . S
C697 H690 0.950 . S
C697 C694 1.387 . S
C698 C699 1.387 . S
C698 H702 0.950 . S
C698 C707 1.390 . S
C699 C698 1.387 . S
C699 C701 1.387 . S
H700 C707 0.950 . S
C701 C699 1.387 . S
C701 C703 1.390 . S
C701 H705 0.950 . S
H702 C698 0.950 . S
C703 C701 1.390 . S
C703 C704 1.387 . S
C703 H706 0.950 . S
C704 C703 1.387 . S
C704 C707 1.387 . S
H705 C701 0.950 . S
H706 C703 0.950 . S
C707 C698 1.390 . S
C707 H700 0.950 . S
C707 C704 1.387 . S
C708 C709 1.387 . S
C708 H712 0.950 . S
C708 C717 1.390 . S
C709 C708 1.387 . S
C709 C711 1.387 . S
H710 C717 0.950 . S
C711 C709 1.387 . S
C711 C713 1.390 . S
C711 H715 0.950 . S
H712 C708 0.950 . S
C713 C711 1.390 . S
C713 C714 1.387 . S
C713 H716 0.950 . S
C714 C713 1.387 . S
C714 C717 1.387 . S
H715 C711 0.950 . S
H716 C713 0.950 . S
C717 C708 1.390 . S
C717 H710 0.950 . S
C717 C714 1.387 . S
C718 C719 1.387 . S
C718 H722 0.950 . S
C718 C727 1.390 . S
C719 C718 1.387 . S
C719 C721 1.387 . S
H720 C727 0.950 . S
C721 C719 1.387 . S
C721 C723 1.390 . S
C721 H725 0.950 . S
H722 C718 0.950 . S
C723 C721 1.390 . S
C723 C724 1.387 . S
C723 H726 0.950 . S
C724 C723 1.387 . S
C724 C727 1.387 . S
H725 C721 0.950 . S
H726 C723 0.950 . S
C727 C718 1.390 . S
C727 H720 0.950 . S
C727 C724 1.387 . S
C728 C729 1.387 . S
C728 H732 0.950 . S
C728 C737 1.390 . S
C729 C728 1.387 . S
C729 C731 1.387 . S
H730 C737 0.950 . S
C731 C729 1.387 . S
C731 C733 1.390 . S
C731 H735 0.950 . S
H732 C728 0.950 . S
C733 C731 1.390 . S
C733 C734 1.387 . S
C733 H736 0.950 . S
C734 C733 1.387 . S
C734 C737 1.387 . S
H735 C731 0.950 . S
H736 C733 0.950 . S
C737 C728 1.390 . S
C737 H730 0.950 . S
C737 C734 1.387 . S
C738 C739 1.387 . S
C738 H742 0.950 . S
C738 C747 1.390 . S
C739 C738 1.387 . S
C739 C741 1.387 . S
H740 C747 0.950 . S
C741 C739 1.387 . S
C741 C743 1.390 . S
C741 H745 0.950 . S
H742 C738 0.950 . S
C743 C741 1.390 . S
C743 C744 1.387 . S
C743 H746 0.950 . S
C744 C743 1.387 . S
C744 C747 1.387 . S
H745 C741 0.950 . S
H746 C743 0.950 . S
C747 C738 1.390 . S
C747 H740 0.950 . S
C747 C744 1.387 . S
C748 C749 1.387 . S
C748 H752 0.950 . S
C748 C757 1.390 . S
C749 C748 1.387 . S
C749 C751 1.387 . S
H750 C757 0.950 . S
C751 C749 1.387 . S
C751 C753 1.390 . S
C751 H755 0.950 . S
H752 C748 0.950 . S
C753 C751 1.390 . S
C753 C754 1.387 . S
C753 H756 0.950 . S
C754 C753 1.387 . S
C754 C757 1.387 . S
H755 C751 0.950 . S
H756 C753 0.950 . S
C757 C748 1.390 . S
C757 H750 0.950 . S
C757 C754 1.387 . S
C758 C759 1.387 . S
C758 H762 0.950 . S
C758 C767 1.390 . S
C759 C758 1.387 . S
C759 C761 1.387 . S
H760 C767 0.950 . S
C761 C759 1.387 . S
C761 C763 1.390 . S
C761 H765 0.950 . S
H762 C758 0.950 . S
C763 C761 1.390 . S
C763 C764 1.387 . S
C763 H766 0.950 . S
C764 C763 1.387 . S
C764 C767 1.387 . S
H765 C761 0.950 . S
H766 C763 0.950 . S
C767 C758 1.390 . S
C767 H760 0.950 . S
C767 C764 1.387 . S
C768 C769 1.387 . S
C768 H772 0.950 . S
C768 C777 1.390 . S
C769 C768 1.387 . S
C769 C771 1.387 . S
H770 C777 0.950 . S
C771 C769 1.387 . S
C771 C773 1.390 . S
C771 H775 0.950 . S
H772 C768 0.950 . S
C773 C771 1.390 . S
C773 C774 1.387 . S
C773 H776 0.950 . S
C774 C773 1.387 . S
C774 C777 1.387 . S
H775 C771 0.950 . S
H776 C773 0.950 . S
C777 C768 1.390 . S
C777 H770 0.950 . S
C777 C774 1.387 . S
C778 C779 1.387 . S
C778 H782 0.950 . S
C778 C787 1.390 . S
C779 C778 1.387 . S
C779 C781 1.387 . S
H780 C787 0.950 . S
C781 C779 1.387 . S
C781 C783 1.390 . S
C781 H785 0.950 . S
H782 C778 0.950 . S
C783 C781 1.390 . S
C783 C784 1.387 . S
C783 H786 0.950 . S
C784 C783 1.387 . S
C784 C787 1.387 . S
H785 C781 0.950 . S
H786 C783 0.950 . S
C787 C778 1.390 . S
C787 H780 0.950 . S
C787 C784 1.387 . S
C788 C789 1.387 . S
C788 H792 0.950 . S
C788 C797 1.390 . S
C789 C788 1.387 . S
C789 C791 1.387 . S
H790 C797 0.950 . S
C791 C789 1.387 . S
C791 C793 1.390 . S
C791 H795 0.950 . S
H792 C788 0.950 . S
C793 C791 1.390 . S
C793 C794 1.387 . S
C793 H796 0.950 . S
C794 C793 1.387 . S
C794 C797 1.387 . S
H795 C791 0.950 . S
H796 C793 0.950 . S
C797 C788 1.390 . S
C797 H790 0.950 . S
C797 C794 1.387 . S
C798 C799 1.387 . S
C798 H802 0.950 . S
C798 C807 1.390 . S
C799 C798 1.387 . S
C799 C801 1.387 . S
H800 C807 0.950 . S
C801 C799 1.387 . S
C801 C803 1.390 . S
C801 H805 0.950 . S
H802 C798 0.950 . S
C803 C801 1.390 . S
C803 C804 1.387 . S
C803 H806 0.950 . S
C804 C803 1.387 . S
C804 C807 1.387 . S
H805 C801 0.950 . S
H806 C803 0.950 . S
C807 C798 1.390 . S
C807 H800 0.950 . S
C807 C804 1.387 . S
C808 C809 1.387 . S
C808 H812 0.950 . S
C808 C817 1.390 . S
C809 C808 1.387 . S
C809 C811 1.387 . S
H810 C817 0.950 . S
C811 C809 1.387 . S
C811 C813 1.390 . S
C811 H815 0.950 . S
H812 C808 0.950 . S
C813 C811 1.390 . S
C813 C814 1.387 . S
C813 H816 0.950 . S
C814 C813 1.387 . S
C814 C817 1.387 . S
H815 C811 0.950 . S
H816 C813 0.950 . S
C817 C808 1.390 . S
C817 H810 0.950 . S
C817 C814 1.387 . S
C818 C819 1.387 . S
C818 H822 0.950 . S
C818 C827 1.390 . S
C819 C818 1.387 . S
C819 C821 1.387 . S
H820 C827 0.950 . S
C821 C819 1.387 . S
C821 C823 1.390 . S
C821 H825 0.950 . S
H822 C818 0.950 . S
C823 C821 1.390 . S
C823 C824 1.387 . S
C823 H826 0.950 . S
C824 C823 1.387 . S
C824 C827 1.387 . S
H825 C821 0.950 . S
H826 C823 0.950 . S
C827 C818 1.390 . S
C827 H820 0.950 . S
C827 C824 1.387 . S
C828 C829 1.387 . S
C828 H832 0.950 . S
C828 C837 1.390 . S
C829 C828 1.387 . S
C829 C831 1.387 . S
H830 C837 0.950 . S
C831 C829 1.387 . S
C831 C833 1.390 . S
C831 H835 0.950 . S
H832 C828 0.950 . S
C833 C831 1.390 . S
C833 C834 1.387 . S
C833 H836 0.950 . S
C834 C833 1.387 . S
C834 C837 1.387 . S
H835 C831 0.950 . S
H836 C833 0.950 . S
C837 C828 1.390 . S
C837 H830 0.950 . S
C837 C834 1.387 . S
C838 C839 1.387 . S
C838 H842 0.950 . S
C838 C847 1.390 1_565 S
C839 C838 1.387 . S
C839 C841 1.387 . S
H840 C847 0.950 . S
C841 C839 1.387 . S
C841 C843 1.390 1_565 S
C841 H845 0.950 . S
H842 C838 0.950 . S
C843 C841 1.390 1_545 S
C843 C844 1.387 . S
C843 H846 0.950 . S
C844 C843 1.387 . S
C844 C847 1.387 . S
H845 C841 0.950 . S
H846 C843 0.950 . S
C847 C838 1.390 1_545 S
C847 H840 0.950 . S
C847 C844 1.387 . S
C848 C849 1.387 . S
C848 H852 0.950 . S
C848 C857 1.390 1_655 S
C849 C848 1.387 . S
C849 C851 1.387 . S
H850 C857 0.950 . S
C851 C849 1.387 . S
C851 C853 1.390 1_655 S
C851 H855 0.950 . S
H852 C848 0.950 . S
C853 C851 1.390 1_455 S
C853 C854 1.387 . S
C853 H856 0.950 . S
C854 C853 1.387 . S
C854 C857 1.387 . S
H855 C851 0.950 . S
H856 C853 0.950 . S
C857 C848 1.390 1_455 S
C857 H850 0.950 . S
C857 C854 1.387 . S
C858 C859 1.387 . S
C858 H862 0.950 . S
C858 C867 1.390 . S
C859 C858 1.387 . S
C859 C861 1.387 . S
H860 C867 0.950 . S
C861 C859 1.387 . S
C861 C863 1.390 . S
C861 H865 0.950 . S
H862 C858 0.950 . S
C863 C861 1.390 . S
C863 C864 1.387 . S
C863 H866 0.950 . S
C864 C863 1.387 . S
C864 C867 1.387 . S
H865 C861 0.950 . S
H866 C863 0.950 . S
C867 C858 1.390 . S
C867 H860 0.950 . S
C867 C864 1.387 . S
C868 C869 1.387 . S
C868 H872 0.950 . S
C868 C877 1.390 1_545 S
C869 C868 1.387 . S
C869 C871 1.387 . S
H870 C877 0.950 . S
C871 C869 1.387 . S
C871 C873 1.390 1_545 S
C871 H875 0.950 . S
H872 C868 0.950 . S
C873 C871 1.390 1_565 S
C873 C874 1.387 . S
C873 H876 0.950 . S
C874 C873 1.387 . S
C874 C877 1.387 . S
H875 C871 0.950 . S
H876 C873 0.950 . S
C877 C868 1.390 1_565 S
C877 H870 0.950 . S
C877 C874 1.387 . S
C878 C879 1.387 . S
C878 H882 0.950 . S
C878 C887 1.390 1_655 S
C879 C878 1.387 . S
C879 C881 1.387 . S
H880 C887 0.950 . S
C881 C879 1.387 . S
C881 C883 1.390 1_655 S
C881 H885 0.950 . S
H882 C878 0.950 . S
C883 C881 1.390 1_455 S
C883 C884 1.387 . S
C883 H886 0.950 . S
C884 C883 1.387 . S
C884 C887 1.387 . S
H885 C881 0.950 . S
H886 C883 0.950 . S
C887 C878 1.390 1_455 S
C887 H880 0.950 . S
C887 C884 1.387 . S
C888 C889 1.387 . S
C888 H892 0.950 . S
C888 C897 1.390 . S
C889 C888 1.387 . S
C889 C891 1.387 . S
H890 C897 0.950 . S
C891 C889 1.387 . S
C891 C893 1.390 . S
C891 H895 0.950 . S
H892 C888 0.950 . S
C893 C891 1.390 . S
C893 C894 1.387 . S
C893 H896 0.950 . S
C894 C893 1.387 . S
C894 C897 1.387 . S
H895 C891 0.950 . S
H896 C893 0.950 . S
C897 C888 1.390 . S
C897 H890 0.950 . S
C897 C894 1.387 . S
C898 C899 1.387 . S
C898 H902 0.950 . S
C898 C907 1.390 . S
C899 C898 1.387 . S
C899 C901 1.387 . S
H900 C907 0.950 . S
C901 C899 1.387 . S
C901 C903 1.390 . S
C901 H905 0.950 . S
H902 C898 0.950 . S
C903 C901 1.390 . S
C903 C904 1.387 . S
C903 H906 0.950 . S
C904 C903 1.387 . S
C904 C907 1.387 . S
H905 C901 0.950 . S
H906 C903 0.950 . S
C907 C898 1.390 . S
C907 H900 0.950 . S
C907 C904 1.387 . S
C908 C909 1.387 . S
C908 H912 0.950 . S
C908 C917 1.390 . S
C909 C908 1.387 . S
C909 C911 1.387 . S
H910 C917 0.950 . S
C911 C909 1.387 . S
C911 C913 1.390 . S
C911 H915 0.950 . S
H912 C908 0.950 . S
C913 C911 1.390 . S
C913 C914 1.387 . S
C913 H916 0.950 . S
C914 C913 1.387 . S
C914 C917 1.387 . S
H915 C911 0.950 . S
H916 C913 0.950 . S
C917 C908 1.390 . S
C917 H910 0.950 . S
C917 C914 1.387 . S
C918 C919 1.387 . S
C918 H922 0.950 1_554 S
C918 C927 1.390 . S
C919 C918 1.387 . S
C919 C921 1.387 . S
H920 C927 0.950 1_556 S
C921 C919 1.387 . S
C921 C923 1.390 . S
C921 H925 0.950 . S
H922 C918 0.950 1_556 S
C923 C921 1.390 . S
C923 C924 1.387 . S
C923 H926 0.950 . S
C924 C923 1.387 . S
C924 C927 1.387 . S
H925 C921 0.950 . S
H926 C923 0.950 . S
C927 C918 1.390 . S
C927 H920 0.950 1_554 S
C927 C924 1.387 . S
C928 C929 1.387 . S
C928 H932 0.950 . S
C928 C937 1.390 . S
C929 C928 1.387 . S
C929 C931 1.387 . S
H930 C937 0.950 . S
C931 C929 1.387 . S
C931 C933 1.390 . S
C931 H935 0.950 . S
H932 C928 0.950 . S
C933 C931 1.390 . S
C933 C934 1.387 . S
C933 H936 0.950 . S
C934 C933 1.387 . S
C934 C937 1.387 . S
H935 C931 0.950 . S
H936 C933 0.950 . S
C937 C928 1.390 . S
C937 H930 0.950 . S
C937 C934 1.387 . S
C938 C939 1.387 . S
C938 H942 0.950 . S
C938 C947 1.390 . S
C939 C938 1.387 . S
C939 C941 1.387 . S
H940 C947 0.950 . S
C941 C939 1.387 . S
C941 C943 1.390 . S
C941 H945 0.940 1_554 S
H942 C938 0.950 . S
C943 C941 1.390 . S
C943 C944 1.387 . S
C943 H946 0.950 1_554 S
C944 C943 1.387 . S
C944 C947 1.387 . S
H945 C941 0.940 1_556 S
H946 C943 0.950 1_556 S
C947 C938 1.390 . S
C947 H940 0.950 . S
C947 C944 1.387 . S
C948 C949 1.387 . S
C948 H952 0.950 . S
C948 C957 1.390 . S
C949 C948 1.387 . S
C949 C951 1.387 . S
H950 C957 0.950 . S
C951 C949 1.387 . S
C951 C953 1.390 . S
C951 H955 0.950 1_556 S
H952 C948 0.950 . S
C953 C951 1.390 . S
C953 C954 1.387 . S
C953 H956 0.950 1_556 S
C954 C953 1.387 . S
C954 C957 1.387 . S
H955 C951 0.950 1_554 S
H956 C953 0.950 1_554 S
C957 C948 1.390 . S
C957 H950 0.950 . S
C957 C954 1.387 . S
C958 C959 1.387 . S
C958 H962 0.950 . S
C958 C967 1.390 . S
C959 C958 1.387 . S
C959 C961 1.387 . S
H960 C967 0.950 . S
C961 C959 1.387 . S
C961 C963 1.390 . S
C961 H965 0.950 . S
H962 C958 0.950 . S
C963 C961 1.390 . S
C963 C964 1.387 . S
C963 H966 0.950 . S
C964 C963 1.387 . S
C964 C967 1.387 . S
H965 C961 0.950 . S
H966 C963 0.950 . S
C967 C958 1.390 . S
C967 H960 0.950 . S
C967 C964 1.387 . S
C968 C969 1.387 . S
C968 H972 0.950 . S
C968 C977 1.390 . S
C969 C968 1.387 . S
C969 C971 1.387 . S
H970 C977 0.950 . S
C971 C969 1.387 . S
C971 C973 1.390 . S
C971 H975 0.950 1_556 S
H972 C968 0.950 . S
C973 C971 1.390 . S
C973 C974 1.387 . S
C973 H976 0.950 1_556 S
C974 C973 1.387 . S
C974 C977 1.387 . S
H975 C971 0.950 1_554 S
H976 C973 0.950 1_554 S
C977 C968 1.390 . S
C977 H970 0.950 . S
C977 C974 1.387 . S
C978 C979 1.387 . S
C978 H982 0.950 . S
C978 C987 1.390 . S
C979 C978 1.387 . S
C979 C981 1.387 . S
H980 C987 0.950 . S
C981 C979 1.387 . S
C981 C983 1.390 . S
C981 H985 0.950 . S
H982 C978 0.950 . S
C983 C981 1.390 . S
C983 C984 1.387 . S
C983 H986 0.950 . S
C984 C983 1.387 . S
C984 C987 1.387 . S
H985 C981 0.950 . S
H986 C983 0.950 . S
C987 C978 1.390 . S
C987 H980 0.950 . S
C987 C984 1.387 . S
C988 C989 1.387 . S
C988 H992 0.950 . S
C988 C997 1.390 . S
C989 C988 1.387 . S
C989 C991 1.387 . S
H990 C997 0.950 . S
C991 C989 1.387 . S
C991 C993 1.390 . S
C991 H995 0.950 . S
H992 C988 0.950 . S
C993 C991 1.390 . S
C993 C994 1.387 . S
C993 H996 0.950 . S
C994 C993 1.387 . S
C994 C997 1.387 . S
H995 C991 0.950 . S
H996 C993 0.950 . S
C997 C988 1.390 . S
C997 H990 0.950 . S
C997 C994 1.387 . S
C998 C999 1.387 . S
C998 H1002 0.950 . S
C998 C1007 1.390 . S
C999 C998 1.387 . S
C999 C1001 1.387 . S
H1000 C1007 0.950 . S
C1001 C999 1.387 . S
C1001 C1003 1.390 . S
C1001 H1005 0.950 . S
H1002 C998 0.950 . S
C1003 C1001 1.390 . S
C1003 C1004 1.387 . S
C1003 H1006 0.950 . S
C1004 C1003 1.387 . S
C1004 C1007 1.387 . S
H1005 C1001 0.950 . S
H1006 C1003 0.950 . S
C1007 C998 1.390 . S
C1007 H1000 0.950 . S
C1007 C1004 1.387 . S
C1008 C1009 1.387 . S
C1008 H1012 0.950 . S
C1008 C1017 1.390 . S
C1009 C1008 1.387 . S
C1009 C1011 1.387 . S
H1010 C1017 0.950 . S
C1011 C1009 1.387 . S
C1011 C1013 1.390 . S
C1011 H1015 0.950 . S
H1012 C1008 0.950 . S
C1013 C1011 1.390 . S
C1013 C1014 1.387 . S
C1013 H1016 0.950 . S
C1014 C1013 1.387 . S
C1014 C1017 1.387 . S
H1015 C1011 0.950 . S
H1016 C1013 0.950 . S
C1017 C1008 1.390 . S
C1017 H1010 0.950 . S
C1017 C1014 1.387 . S
C1018 C1019 1.387 . S
C1018 H1022 0.950 . S
C1018 C1027 1.390 . S
C1019 C1018 1.387 . S
C1019 C1021 1.387 . S
H1020 C1027 0.950 . S
C1021 C1019 1.387 . S
C1021 C1023 1.390 . S
C1021 H1025 0.950 . S
H1022 C1018 0.950 . S
C1023 C1021 1.390 . S
C1023 C1024 1.387 . S
C1023 H1026 0.950 . S
C1024 C1023 1.387 . S
C1024 C1027 1.387 . S
H1025 C1021 0.950 . S
H1026 C1023 0.950 . S
C1027 C1018 1.390 . S
C1027 H1020 0.950 . S
C1027 C1024 1.387 . S
C1028 C1029 1.387 . S
C1028 H1032 0.950 . S
C1028 C1037 1.390 . S
C1029 C1028 1.387 . S
C1029 C1031 1.387 . S
H1030 C1037 0.950 . S
C1031 C1029 1.387 . S
C1031 C1033 1.390 . S
C1031 H1035 0.950 . S
H1032 C1028 0.950 . S
C1033 C1031 1.390 . S
C1033 C1034 1.387 . S
C1033 H1036 0.950 . S
C1034 C1033 1.387 . S
C1034 C1037 1.387 . S
H1035 C1031 0.950 . S
H1036 C1033 0.950 . S
C1037 C1028 1.390 . S
C1037 H1030 0.950 . S
C1037 C1034 1.387 . S
C1038 C1039 1.387 . S
C1038 H1042 0.950 . S
C1038 C1047 1.390 . S
C1039 C1038 1.387 . S
C1039 C1041 1.387 . S
H1040 C1047 0.950 . S
C1041 C1039 1.387 . S
C1041 C1043 1.390 . S
C1041 H1045 0.950 . S
H1042 C1038 0.950 . S
C1043 C1041 1.390 . S
C1043 C1044 1.387 . S
C1043 H1046 0.950 . S
C1044 C1043 1.387 . S
C1044 C1047 1.387 . S
H1045 C1041 0.950 . S
H1046 C1043 0.950 . S
C1047 C1038 1.390 . S
C1047 H1040 0.950 . S
C1047 C1044 1.387 . S
C1048 C1049 1.387 . S
C1048 H1052 0.950 . S
C1048 C1057 1.390 . S
C1049 C1048 1.387 . S
C1049 C1051 1.387 . S
H1050 C1057 0.950 . S
C1051 C1049 1.387 . S
C1051 C1053 1.390 . S
C1051 H1055 0.950 . S
H1052 C1048 0.950 . S
C1053 C1051 1.390 . S
C1053 C1054 1.387 . S
C1053 H1056 0.950 . S
C1054 C1053 1.387 . S
C1054 C1057 1.387 . S
H1055 C1051 0.950 . S
H1056 C1053 0.950 . S
C1057 C1048 1.390 . S
C1057 H1050 0.950 . S
C1057 C1054 1.387 . S
C1058 C1059 1.387 . S
C1058 H1062 0.950 . S
C1058 C1067 1.390 . S
C1059 C1058 1.387 . S
C1059 C1061 1.387 . S
H1060 C1067 0.950 . S
C1061 C1059 1.387 . S
C1061 C1063 1.390 . S
C1061 H1065 0.950 . S
H1062 C1058 0.950 . S
C1063 C1061 1.390 . S
C1063 C1064 1.387 . S
C1063 H1066 0.950 . S
C1064 C1063 1.387 . S
C1064 C1067 1.387 . S
H1065 C1061 0.950 . S
H1066 C1063 0.950 . S
C1067 C1058 1.390 . S
C1067 H1060 0.950 . S
C1067 C1064 1.387 . S
C1068 C1069 1.387 . S
C1068 H1072 0.950 . S
C1068 C1077 1.390 . S
C1069 C1068 1.387 . S
C1069 C1071 1.387 . S
H1070 C1077 0.950 . S
C1071 C1069 1.387 . S
C1071 C1073 1.390 . S
C1071 H1075 0.950 . S
H1072 C1068 0.950 . S
C1073 C1071 1.390 . S
C1073 C1074 1.387 . S
C1073 H1076 0.950 . S
C1074 C1073 1.387 . S
C1074 C1077 1.387 . S
H1075 C1071 0.950 . S
H1076 C1073 0.950 . S
C1077 C1068 1.390 . S
C1077 H1070 0.950 . S
C1077 C1074 1.387 . S
C1078 C1079 1.387 . S
C1078 H1082 0.950 . S
C1078 C1087 1.390 . S
C1079 C1078 1.387 . S
C1079 C1081 1.387 . S
H1080 C1087 0.950 . S
C1081 C1079 1.387 . S
C1081 C1083 1.390 . S
C1081 H1085 0.950 . S
H1082 C1078 0.950 . S
C1083 C1081 1.390 . S
C1083 C1084 1.387 . S
C1083 H1086 0.950 . S
C1084 C1083 1.387 . S
C1084 C1087 1.387 . S
H1085 C1081 0.950 . S
H1086 C1083 0.950 . S
C1087 C1078 1.390 . S
C1087 H1080 0.950 . S
C1087 C1084 1.387 . S
C1088 C1089 1.387 . S
C1088 H1092 0.950 . S
C1088 C1097 1.390 . S
C1089 C1088 1.387 . S
C1089 C1091 1.387 . S
H1090 C1097 0.950 . S
C1091 C1089 1.387 . S
C1091 C1093 1.390 . S
C1091 H1095 0.950 . S
H1092 C1088 0.950 . S
C1093 C1091 1.390 . S
C1093 C1094 1.387 . S
C1093 H1096 0.950 . S
C1094 C1093 1.387 . S
C1094 C1097 1.387 . S
H1095 C1091 0.950 . S
H1096 C1093 0.950 . S
C1097 C1088 1.390 . S
C1097 H1090 0.950 . S
C1097 C1094 1.387 . S
C1098 C1099 1.387 . S
C1098 H1102 0.950 . S
C1098 C1107 1.390 . S
C1099 C1098 1.387 . S
C1099 C1101 1.387 . S
H1100 C1107 0.950 . S
C1101 C1099 1.387 . S
C1101 C1103 1.390 . S
C1101 H1105 0.950 . S
H1102 C1098 0.950 . S
C1103 C1101 1.390 . S
C1103 C1104 1.387 . S
C1103 H1106 0.950 . S
C1104 C1103 1.387 . S
C1104 C1107 1.387 . S
H1105 C1101 0.950 . S
H1106 C1103 0.950 . S
C1107 C1098 1.390 . S
C1107 H1100 0.950 . S
C1107 C1104 1.387 . S
C1108 C1109 1.387 . S
C1108 H1112 0.950 . S
C1108 C1117 1.390 . S
C1109 C1108 1.387 . S
C1109 C1111 1.387 . S
H1110 C1117 0.950 . S
C1111 C1109 1.387 . S
C1111 C1113 1.390 . S
C1111 H1115 0.950 . S
H1112 C1108 0.950 . S
C1113 C1111 1.390 . S
C1113 C1114 1.387 . S
C1113 H1116 0.950 . S
C1114 C1113 1.387 . S
C1114 C1117 1.387 . S
H1115 C1111 0.950 . S
H1116 C1113 0.950 . S
C1117 C1108 1.390 . S
C1117 H1110 0.950 . S
C1117 C1114 1.387 . S
C1118 C1119 1.387 . S
C1118 H1122 0.950 . S
C1118 C1127 1.390 . S
C1119 C1118 1.387 . S
C1119 C1121 1.387 . S
H1120 C1127 0.950 . S
C1121 C1119 1.387 . S
C1121 C1123 1.390 . S
C1121 H1125 0.950 . S
H1122 C1118 0.950 . S
C1123 C1121 1.390 . S
C1123 C1124 1.387 . S
C1123 H1126 0.950 . S
C1124 C1123 1.387 . S
C1124 C1127 1.387 . S
H1125 C1121 0.950 . S
H1126 C1123 0.950 . S
C1127 C1118 1.390 . S
C1127 H1120 0.950 . S
C1127 C1124 1.387 . S
C1128 C1129 1.387 . S
C1128 H1132 0.950 . S
C1128 C1137 1.390 1_455 S
C1129 C1128 1.387 . S
C1129 C1131 1.387 . S
H1130 C1137 0.950 . S
C1131 C1129 1.387 . S
C1131 C1133 1.390 1_455 S
C1131 H1135 0.950 . S
H1132 C1128 0.950 . S
C1133 C1131 1.390 1_655 S
C1133 C1134 1.387 . S
C1133 H1136 0.950 . S
C1134 C1133 1.387 . S
C1134 C1137 1.387 . S
H1135 C1131 0.950 . S
H1136 C1133 0.950 . S
C1137 C1128 1.390 1_655 S
C1137 H1130 0.950 . S
C1137 C1134 1.387 . S
C1138 C1139 1.387 . S
C1138 H1142 0.950 . S
C1138 C1147 1.390 . S
C1139 C1138 1.387 . S
C1139 C1141 1.387 . S
H1140 C1147 0.950 . S
C1141 C1139 1.387 . S
C1141 C1143 1.390 . S
C1141 H1145 0.950 . S
H1142 C1138 0.950 . S
C1143 C1141 1.390 . S
C1143 C1144 1.387 . S
C1143 H1146 0.950 . S
C1144 C1143 1.387 . S
C1144 C1147 1.387 . S
H1145 C1141 0.950 . S
H1146 C1143 0.950 . S
C1147 C1138 1.390 . S
C1147 H1140 0.950 . S
C1147 C1144 1.387 . S
C1148 C1149 1.387 . S
C1148 H1152 0.950 . S
C1148 C1157 1.390 1_545 S
C1149 C1148 1.387 . S
C1149 C1151 1.387 . S
H1150 C1157 0.950 . S
C1151 C1149 1.387 . S
C1151 C1153 1.390 1_545 S
C1151 H1155 0.950 . S
H1152 C1148 0.950 . S
C1153 C1151 1.390 1_565 S
C1153 C1154 1.387 . S
C1153 H1156 0.950 . S
C1154 C1153 1.387 . S
C1154 C1157 1.387 . S
H1155 C1151 0.950 . S
H1156 C1153 0.950 . S
C1157 C1148 1.390 1_565 S
C1157 H1150 0.950 . S
C1157 C1154 1.387 . S
C1158 C1159 1.387 1_556 S
C1158 H1162 0.950 . S
C1158 C1167 1.390 1_545 S
C1159 C1158 1.387 1_554 S
C1159 C1161 1.387 . S
H1160 C1167 0.950 . S
C1161 C1159 1.387 . S
C1161 C1163 1.390 1_545 S
C1161 H1165 0.950 . S
H1162 C1158 0.950 . S
C1163 C1161 1.390 1_565 S
C1163 C1164 1.387 1_554 S
C1163 H1166 0.950 . S
C1164 C1163 1.387 1_556 S
C1164 C1167 1.387 . S
H1165 C1161 0.950 . S
H1166 C1163 0.950 . S
C1167 C1158 1.390 1_565 S
C1167 H1160 0.950 . S
C1167 C1164 1.387 . S
C1168 C1169 1.387 . S
C1168 H1172 0.950 . S
C1168 C1177 1.390 1_655 S
C1169 C1168 1.387 . S
C1169 C1171 1.387 1_554 S
H1170 C1177 0.950 . S
C1171 C1169 1.387 1_556 S
C1171 C1173 1.390 1_655 S
C1171 H1175 0.950 . S
H1172 C1168 0.950 . S
C1173 C1171 1.390 1_455 S
C1173 C1174 1.387 . S
C1173 H1176 0.950 . S
C1174 C1173 1.387 . S
C1174 C1177 1.387 1_556 S
H1175 C1171 0.950 . S
H1176 C1173 0.950 . S
C1177 C1168 1.390 1_455 S
C1177 H1170 0.950 . S
C1177 C1174 1.387 1_554 S
C1178 C1179 1.387 1_556 S
C1178 H1182 0.950 . S
C1178 C1187 1.390 . S
C1179 C1178 1.387 1_554 S
C1179 C1181 1.387 . S
H1180 C1187 0.950 . S
C1181 C1179 1.387 . S
C1181 C1183 1.390 . S
C1181 H1185 0.950 . S
H1182 C1178 0.950 . S
C1183 C1181 1.390 . S
C1183 C1184 1.387 1_554 S
C1183 H1186 0.950 . S
C1184 C1183 1.387 1_556 S
C1184 C1187 1.387 . S
H1185 C1181 0.950 . S
H1186 C1183 0.950 . S
C1187 C1178 1.390 . S
C1187 H1180 0.950 . S
C1187 C1184 1.387 . S
C469 C134 1.434 . S
C474 C5 1.433 . S
C479 C147 1.436 . S
C484 C18 1.434 . S
C489 C29 1.435 . S
C494 C121 1.436 . S
C499 C44 1.434 . S
C504 C108 1.436 . S
C509 C57 1.432 . S
C514 C82 1.434 . S
C519 C101 1.434 . S
C524 C68 1.433 . S
C529 C56 1.436 . S
C534 C83 1.433 . S
C539 C75 1.436 . S
C544 C94 1.434 . S
C549 C109 1.435 . S
C554 C43 1.436 . S
C559 C36 1.434 . S
C564 C122 1.433 . S
C569 C135 1.433 . S
C574 C4 1.434 . S
C579 C148 1.433 . S
C584 C17 1.434 . S
C589 C296 1.435 . S
C594 C161 1.434 . S
C599 C303 1.436 . S
C604 C174 1.434 . S
C609 C187 1.435 . S
C614 C277 1.436 . S
C619 C200 1.434 . S
C624 C264 1.436 1_556 S
C629 C213 1.433 . S
C634 C238 1.434 1_556 S
C639 C226 1.432 . S
C644 C251 1.435 1_556 S
C649 C212 1.435 . S
C654 C239 1.432 . S
C659 C225 1.436 . S
C664 C252 1.434 . S
C669 C199 1.434 . S
C674 C265 1.432 . S
C679 C186 1.434 . S
C684 C278 1.432 . S
C689 C160 1.436 . S
C694 C289 1.434 . S
C699 C173 1.436 . S
C704 C304 1.433 . S
C709 C315 1.434 . S
C714 C452 1.435 . S
C719 C459 1.434 . S
C724 C328 1.432 . S
C729 C433 1.436 . S
C734 C341 1.434 . S
C739 C356 1.432 . S
C744 C426 1.434 . S
C749 C367 1.434 . S
C754 C400 1.435 . S
C759 C382 1.434 . S
C764 C413 1.436 . S
C769 C374 1.436 . S
C774 C393 1.434 . S
C779 C381 1.434 . S
C784 C406 1.433 . S
C789 C355 1.434 . S
C794 C419 1.432 . S
C799 C434 1.434 . S
C804 C348 1.436 1_554 S
C809 C322 1.434 1_554 S
C814 C445 1.433 . S
C819 C460 1.434 . S
C824 C335 1.436 1_554 S
C829 C49 1.553 . S
C834 C10 1.552 . S
C839 C62 1.553 . S
C844 C23 1.553 . S
C849 C30 1.553 . S
C854 C69 1.553 . S
C859 C127 1.553 . S
C864 C88 1.552 . S
C869 C140 1.553 . S
C874 C95 1.553 . S
C879 C153 1.552 . S
C884 C114 1.553 . S
C889 C205 1.553 . S
C894 C166 1.552 . S
C899 C218 1.553 . S
C904 C179 1.553 . S
C909 C192 1.552 . S
C914 C231 1.553 . S
C919 C244 1.552 . S
C924 C283 1.553 . S
C929 C290 1.553 . S
C934 C257 1.553 . S
C939 C270 1.553 . S
C944 C309 1.552 . S
C949 C361 1.553 . S
C954 C316 1.552 . S
C959 C368 1.553 . S
C964 C329 1.553 . S
C969 C342 1.552 . S
C974 C387 1.553 . S
C979 C394 1.552 . S
C984 C439 1.553 . S
C989 C407 1.553 . S
C994 C446 1.553 . S
C999 C420 1.552 . S
C1004 C465 1.553 . S
C1009 C3 1.540 . S
C1014 C237 1.540 . S
C1019 C250 1.540 . S
C1024 C16 1.540 . S
C1029 C263 1.540 . S
C1034 C31 1.540 . S
C1039 C432 1.540 . S
C1044 C42 1.540 . S
C1049 C447 1.540 . S
C1054 C55 1.540 . S
C1059 C458 1.540 . S
C1064 C70 1.540 . S
C1069 C81 1.540 . S
C1074 C317 1.540 . S
C1079 C330 1.540 . S
C1084 C96 1.540 . S
C1089 C343 1.540 . S
C1094 C107 1.540 . S
C1099 C120 1.540 . S
C1104 C198 1.540 . S
C1109 C133 1.540 . S
C1114 C211 1.540 . S
C1119 C146 1.540 . S
C1124 C224 1.540 . S
C1129 C395 1.540 . S
C1134 C159 1.540 . S
C1139 C408 1.540 . S
C1144 C172 1.540 . S
C1149 C185 1.540 . S
C1154 C421 1.540 . S
C1159 C276 1.540 . S
C1164 C354 1.540 . S
C1169 C291 1.540 . S
C1174 C369 1.540 . S
C1179 C302 1.540 . S
C1184 C380 1.540 . S
