# Generated by pormake.
# Topology uki, (4)-cn, num edge types: 1
# Building blocks:
#     Node 0, Type 0, BuildingBlock: KUFVIS_clean_sbu_0, # of connection points: 4
#     Node 1, Type 0, BuildingBlock: KUFVIS_clean_sbu_0, # of connection points: 4
#     Node 2, Type 0, BuildingBlock: KUFVIS_clean_sbu_0, # of connection points: 4
#     Node 3, Type 0, BuildingBlock: KUFVIS_clean_sbu_0, # of connection points: 4
#     Node 4, Type 0, BuildingBlock: KUFVIS_clean_sbu_0, # of connection points: 4
#     Node 5, Type 0, BuildingBlock: KUFVIS_clean_sbu_0, # of connection points: 4
#     Node 6, Type 0, BuildingBlock: KUFVIS_clean_sbu_0, # of connection points: 4
#     Node 7, Type 0, BuildingBlock: KUFVIS_clean_sbu_0, # of connection points: 4
#     Node 8, Type 0, BuildingBlock: KUFVIS_clean_sbu_0, # of connection points: 4
#     Node 9, Type 0, BuildingBlock: KUFVIS_clean_sbu_0, # of connection points: 4
#     Node 10, Type 0, BuildingBlock: KUFVIS_clean_sbu_0, # of connection points: 4
#     Node 11, Type 0, BuildingBlock: KUFVIS_clean_sbu_0, # of connection points: 4
#     Node 12, Type 0, BuildingBlock: KUFVIS_clean_sbu_0, # of connection points: 4
#     Node 13, Type 0, BuildingBlock: KUFVIS_clean_sbu_0, # of connection points: 4
#     Node 14, Type 0, BuildingBlock: KUFVIS_clean_sbu_0, # of connection points: 4
#     Node 15, Type 0, BuildingBlock: KUFVIS_clean_sbu_0, # of connection points: 4
#     Edge 16, Type (0, 0), BuildingBlock: KIFKEQ_clean_linker_1, # of connection points: 2
#     Edge 17, Type (0, 0), BuildingBlock: KIFKEQ_clean_linker_1, # of connection points: 2
#     Edge 18, Type (0, 0), BuildingBlock: KIFKEQ_clean_linker_1, # of connection points: 2
#     Edge 19, Type (0, 0), BuildingBlock: KIFKEQ_clean_linker_1, # of connection points: 2
#     Edge 20, Type (0, 0), BuildingBlock: KIFKEQ_clean_linker_1, # of connection points: 2
#     Edge 21, Type (0, 0), BuildingBlock: KIFKEQ_clean_linker_1, # of connection points: 2
#     Edge 22, Type (0, 0), BuildingBlock: KIFKEQ_clean_linker_1, # of connection points: 2
#     Edge 23, Type (0, 0), BuildingBlock: KIFKEQ_clean_linker_1, # of connection points: 2
#     Edge 24, Type (0, 0), BuildingBlock: KIFKEQ_clean_linker_1, # of connection points: 2
#     Edge 25, Type (0, 0), BuildingBlock: KIFKEQ_clean_linker_1, # of connection points: 2
#     Edge 26, Type (0, 0), BuildingBlock: KIFKEQ_clean_linker_1, # of connection points: 2
#     Edge 27, Type (0, 0), BuildingBlock: KIFKEQ_clean_linker_1, # of connection points: 2
#     Edge 28, Type (0, 0), BuildingBlock: KIFKEQ_clean_linker_1, # of connection points: 2
#     Edge 29, Type (0, 0), BuildingBlock: KIFKEQ_clean_linker_1, # of connection points: 2
#     Edge 30, Type (0, 0), BuildingBlock: KIFKEQ_clean_linker_1, # of connection points: 2
#     Edge 31, Type (0, 0), BuildingBlock: KIFKEQ_clean_linker_1, # of connection points: 2
#     Edge 32, Type (0, 0), BuildingBlock: KIFKEQ_clean_linker_1, # of connection points: 2
#     Edge 33, Type (0, 0), BuildingBlock: KIFKEQ_clean_linker_1, # of connection points: 2
#     Edge 34, Type (0, 0), BuildingBlock: KIFKEQ_clean_linker_1, # of connection points: 2
#     Edge 35, Type (0, 0), BuildingBlock: KIFKEQ_clean_linker_1, # of connection points: 2
#     Edge 36, Type (0, 0), BuildingBlock: KIFKEQ_clean_linker_1, # of connection points: 2
#     Edge 37, Type (0, 0), BuildingBlock: KIFKEQ_clean_linker_1, # of connection points: 2
#     Edge 38, Type (0, 0), BuildingBlock: KIFKEQ_clean_linker_1, # of connection points: 2
#     Edge 39, Type (0, 0), BuildingBlock: KIFKEQ_clean_linker_1, # of connection points: 2
#     Edge 40, Type (0, 0), BuildingBlock: KIFKEQ_clean_linker_1, # of connection points: 2
#     Edge 41, Type (0, 0), BuildingBlock: KIFKEQ_clean_linker_1, # of connection points: 2
#     Edge 42, Type (0, 0), BuildingBlock: KIFKEQ_clean_linker_1, # of connection points: 2
#     Edge 43, Type (0, 0), BuildingBlock: KIFKEQ_clean_linker_1, # of connection points: 2
#     Edge 44, Type (0, 0), BuildingBlock: KIFKEQ_clean_linker_1, # of connection points: 2
#     Edge 45, Type (0, 0), BuildingBlock: KIFKEQ_clean_linker_1, # of connection points: 2
#     Edge 46, Type (0, 0), BuildingBlock: KIFKEQ_clean_linker_1, # of connection points: 2
#     Edge 47, Type (0, 0), BuildingBlock: KIFKEQ_clean_linker_1, # of connection points: 2
# Relax obj value: 0.140
# Max RMSD: 0.244
# Mean RMSD: 0.244
data_MOF--net-uki--node1-KUFVIS_clean_sbu_0--edge1-KIFKEQ_clean_linker_1
_symmetry_space_group_name_H-M    P1
_symmetry_Int_Tables_number       1
_symmetry_cell_setting            triclinic
loop_
_symmetry_equiv_pos_as_xyz
'x, y, z'
_cell_length_a     31.686638
_cell_length_b     31.709751
_cell_length_c     69.11892
_cell_angle_alpha  90.021929
_cell_angle_beta   90.007334
_cell_angle_gamma 90.009506
loop_
_atom_site_label
_atom_site_type_symbol
_atom_site_fract_x
_atom_site_fract_y
_atom_site_fract_z
_atom_type_partial_charge
Mn0 Mn 0.07803 0.23006 0.29253 0.0
Mn1 Mn 0.02059 0.23277 0.33357 0.0
C2 C 0.0083 0.24971 0.29109 0.0
C3 C 0.12527 0.26413 0.27217 0.0
C4 C 0.0404 0.15217 0.31177 0.0
O5 O 0.12222 0.22643 0.31374 0.0
O6 O 0.08194 0.23443 0.34031 0.0
C7 C 0.04223 0.3193 0.34621 0.0
N8 N 0.01262 0.29023 0.34107 0.0
C9 C 0.95661 0.3407 0.34511 0.0
C10 C 0.98646 0.37108 0.3506 0.0
C11 C 0.02946 0.36033 0.35113 0.0
C12 C 0.97118 0.30025 0.3405 0.0
H13 H 0.07534 0.31127 0.34648 0.0
C14 C 0.11792 0.23058 0.33198 0.0
O15 O 0.12201 0.22327 0.27197 0.0
O16 O 0.10158 0.28475 0.28415 0.0
N17 N 0.9609 0.23177 0.32933 0.0
C18 C 0.93627 0.1992 0.32313 0.0
C19 C 0.8925 0.20506 0.32139 0.0
C20 C 0.87449 0.24417 0.32616 0.0
C21 C 0.90038 0.27699 0.33281 0.0
C22 C 0.94375 0.26919 0.33442 0.0
H23 H 0.94992 0.16912 0.31936 0.0
O24 O 0.02821 0.23812 0.27559 0.0
O25 O 0.03057 0.25152 0.30694 0.0
O26 O 0.05973 0.16902 0.29751 0.0
O27 O 0.02639 0.17276 0.32633 0.0
C28 C 0.88496 0.31733 0.33759 0.0
C29 C 0.91305 0.34918 0.34372 0.0
H30 H 0.97677 0.40284 0.35429 0.0
H31 H 0.05271 0.38368 0.35524 0.0
H32 H 0.87273 0.17956 0.31627 0.0
H33 H 0.84078 0.2487 0.32461 0.0
H34 H 0.8516 0.32434 0.33642 0.0
H35 H 0.90087 0.38019 0.34718 0.0
Mn36 Mn 0.22717 0.90953 0.70767 0.0
Mn37 Mn 0.23102 0.96964 0.66753 0.0
C38 C 0.24843 0.97867 0.71018 0.0
C39 C 0.26055 0.86009 0.72714 0.0
C40 C 0.14998 0.94926 0.68903 0.0
O41 O 0.22172 0.86718 0.68571 0.0
O42 O 0.23333 0.90888 0.65993 0.0
C43 C 0.31795 0.94946 0.65491 0.0
N44 N 0.28859 0.97849 0.66035 0.0
C45 C 0.33874 0.03506 0.65722 0.0
C46 C 0.36943 0.00581 0.65142 0.0
C47 C 0.35898 0.96282 0.65028 0.0
C48 C 0.2983 0.01992 0.66151 0.0
H49 H 0.31017 0.91634 0.65417 0.0
C50 C 0.22758 0.87253 0.66762 0.0
O51 O 0.21975 0.86423 0.72755 0.0
O52 O 0.28147 0.88406 0.7154 0.0
N53 N 0.22959 0.02896 0.67267 0.0
C54 C 0.19678 0.05295 0.67912 0.0
C55 C 0.20233 0.09659 0.68148 0.0
C56 C 0.24139 0.11516 0.67705 0.0
C57 C 0.27446 0.08996 0.67012 0.0
C58 C 0.26697 0.0467 0.66789 0.0
H59 H 0.16672 0.03889 0.68262 0.0
O60 O 0.23687 0.95781 0.72541 0.0
O61 O 0.24942 0.95759 0.694 0.0
O62 O 0.16662 0.92965 0.70325 0.0
O63 O 0.17075 0.96305 0.67446 0.0
C64 C 0.31478 0.10596 0.66566 0.0
C65 C 0.34691 0.07853 0.65923 0.0
H66 H 0.40119 0.01596 0.64796 0.0
H67 H 0.38256 0.94003 0.64593 0.0
H68 H 0.17662 0.11583 0.6868 0.0
H69 H 0.24568 0.14876 0.67908 0.0
H70 H 0.32155 0.13926 0.66732 0.0
H71 H 0.3779 0.09114 0.65604 0.0
Mn72 Mn 0.92004 0.76731 0.29302 0.0
Mn73 Mn 0.97469 0.7703 0.33481 0.0
C74 C 0.99163 0.75488 0.29275 0.0
C75 C 0.88021 0.7281 0.27114 0.0
C76 C 0.94844 0.84859 0.31268 0.0
O77 O 0.87399 0.76581 0.3135 0.0
O78 O 0.91328 0.76332 0.34062 0.0
C79 C 0.95983 0.68246 0.34758 0.0
N80 N 0.98712 0.71388 0.34268 0.0
C81 C 0.04702 0.66854 0.3477 0.0
C82 C 0.01957 0.6358 0.35296 0.0
C83 C 0.97579 0.64279 0.35288 0.0
C84 C 0.0293 0.70751 0.34273 0.0
H85 H 0.92614 0.68757 0.34739 0.0
C86 C 0.87759 0.76318 0.33184 0.0
O87 O 0.87719 0.769 0.27163 0.0
O88 O 0.90461 0.71051 0.2838 0.0
N89 N 0.03432 0.77639 0.33134 0.0
C90 C 0.05638 0.81063 0.32504 0.0
C91 C 0.10054 0.80844 0.32374 0.0
C92 C 0.12157 0.77118 0.329 0.0
C93 C 0.09824 0.73652 0.33565 0.0
C94 C 0.05431 0.74068 0.33682 0.0
H95 H 0.04039 0.83928 0.32085 0.0
O96 O 0.972 0.76531 0.27701 0.0
O97 O 0.96831 0.75059 0.30815 0.0
O98 O 0.93085 0.82989 0.29843 0.0
O99 O 0.96426 0.82949 0.32727 0.0
C100 C 0.11678 0.69775 0.34083 0.0
C101 C 0.09119 0.66378 0.34684 0.0
H102 H 0.03173 0.60506 0.35691 0.0
H103 H 0.95439 0.61761 0.35681 0.0
H104 H 0.11832 0.83531 0.31858 0.0
H105 H 0.15561 0.76947 0.32779 0.0
H106 H 0.15067 0.69356 0.34002 0.0
H107 H 0.10579 0.63399 0.35058 0.0
Mn108 Mn 0.76966 0.08464 0.70932 0.0
Mn109 Mn 0.76811 0.0264 0.6685 0.0
C110 C 0.75089 0.01468 0.71096 0.0
C111 C 0.73481 0.13149 0.7296 0.0
C112 C 0.84831 0.0483 0.69023 0.0
O113 O 0.77259 0.12848 0.68791 0.0
O114 O 0.76513 0.08746 0.66153 0.0
C115 C 0.68115 0.04572 0.65566 0.0
N116 N 0.71087 0.01694 0.66096 0.0
C117 C 0.66178 0.95969 0.65698 0.0
C118 C 0.63073 0.98869 0.65132 0.0
C119 C 0.64046 0.03189 0.65068 0.0
C120 C 0.70185 0.9753 0.66163 0.0
H121 H 0.6884 0.07899 0.6553 0.0
C122 C 0.76841 0.12366 0.66969 0.0
O123 O 0.77574 0.12894 0.72977 0.0
O124 O 0.71456 0.10742 0.71765 0.0
N125 N 0.77043 0.96689 0.67304 0.0
C126 C 0.80344 0.94321 0.67951 0.0
C127 C 0.79856 0.8994 0.68144 0.0
C128 C 0.75996 0.88036 0.67659 0.0
C129 C 0.72666 0.90529 0.66969 0.0
C130 C 0.73348 0.94876 0.6679 0.0
H131 H 0.83314 0.95765 0.68335 0.0
O132 O 0.76226 0.03492 0.7264 0.0
O133 O 0.74895 0.03668 0.69505 0.0
O134 O 0.83105 0.06735 0.70447 0.0
O135 O 0.82801 0.0337 0.67572 0.0
C136 C 0.68673 0.88883 0.66485 0.0
C137 C 0.6543 0.91601 0.65852 0.0
H138 H 0.59923 0.97818 0.6476 0.0
H139 H 0.6166 0.05449 0.64644 0.0
H140 H 0.82443 0.88037 0.68676 0.0
H141 H 0.75618 0.84662 0.67829 0.0
H142 H 0.68047 0.85536 0.66616 0.0
H143 H 0.6236 0.90303 0.65504 0.0
Mn144 Mn 0.07643 0.26393 0.95624 0.0
Mn145 Mn 0.01956 0.26384 0.91509 0.0
C146 C 0.00664 0.24417 0.95732 0.0
C147 C 0.12351 0.2276 0.97587 0.0
C148 C 0.03949 0.34304 0.9381 0.0
O149 O 0.1207 0.27008 0.93513 0.0
O150 O 0.08092 0.26071 0.90851 0.0
C151 C 0.03908 0.17738 0.90166 0.0
N152 N 0.01018 0.20697 0.907 0.0
C153 C 0.95292 0.15818 0.9023 0.0
C154 C 0.98204 0.1273 0.89658 0.0
C155 C 0.02531 0.13694 0.89629 0.0
C156 C 0.96848 0.19802 0.90736 0.0
H157 H 0.07241 0.18453 0.90158 0.0
C158 C 0.11675 0.26534 0.9169 0.0
O159 O 0.12041 0.26841 0.977 0.0
O160 O 0.09992 0.20843 0.96337 0.0
N161 N 0.95985 0.26618 0.91921 0.0
C162 C 0.93596 0.29907 0.92565 0.0
C163 C 0.89204 0.29427 0.9272 0.0
C164 C 0.87309 0.25587 0.92199 0.0
C165 C 0.89822 0.22273 0.91509 0.0
C166 C 0.94179 0.22947 0.91368 0.0
H167 H 0.9503 0.32864 0.92974 0.0
O168 O 0.02663 0.25407 0.97304 0.0
O169 O 0.02896 0.24373 0.94148 0.0
O170 O 0.05776 0.32524 0.95243 0.0
O171 O 0.02673 0.3234 0.92301 0.0
C172 C 0.88181 0.18303 0.90985 0.0
C173 C 0.90914 0.15078 0.90348 0.0
H174 H 0.97156 0.09599 0.89255 0.0
H175 H 0.048 0.1132 0.89202 0.0
H176 H 0.87286 0.32003 0.9325 0.0
H177 H 0.83925 0.25214 0.9234 0.0
H178 H 0.84826 0.17685 0.91085 0.0
H179 H 0.89619 0.12026 0.89967 0.0
Mn180 Mn 0.26155 0.91098 0.04096 0.0
Mn181 Mn 0.26083 0.97033 0.08143 0.0
C182 C 0.24358 0.981 0.03863 0.0
C183 C 0.22551 0.86278 0.02177 0.0
C184 C 0.34061 0.94756 0.05943 0.0
O185 O 0.26633 0.86816 0.0627 0.0
O186 O 0.25596 0.90951 0.08868 0.0
C187 C 0.1731 0.95347 0.0939 0.0
N188 N 0.20374 0.9814 0.08873 0.0
C189 C 0.15623 0.04002 0.09252 0.0
C190 C 0.12426 0.01191 0.09804 0.0
C191 C 0.13273 0.96844 0.0987 0.0
C192 C 0.1959 0.02327 0.08798 0.0
H193 H 0.17938 0.92 0.09428 0.0
C194 C 0.2607 0.8732 0.0808 0.0
O195 O 0.26641 0.86541 0.021 0.0
O196 O 0.206 0.88762 0.03364 0.0
N197 N 0.26495 0.02975 0.07689 0.0
C198 C 0.29903 0.05262 0.07099 0.0
C199 C 0.2956 0.09661 0.06927 0.0
C200 C 0.25738 0.11669 0.07386 0.0
C201 C 0.22307 0.09263 0.08035 0.0
C202 C 0.22844 0.04891 0.08191 0.0
H203 H 0.32851 0.03743 0.06744 0.0
O204 O 0.25317 0.95947 0.02332 0.0
O205 O 0.24194 0.96002 0.05486 0.0
O206 O 0.32307 0.92902 0.04509 0.0
O207 O 0.32059 0.96134 0.07423 0.0
C208 C 0.18353 0.11022 0.08502 0.0
C209 C 0.15012 0.08393 0.09107 0.0
H210 H 0.09302 0.02332 0.10166 0.0
H211 H 0.10815 0.94653 0.10284 0.0
H212 H 0.32229 0.11498 0.06434 0.0
H213 H 0.25473 0.15058 0.07232 0.0
H214 H 0.17837 0.14389 0.08384 0.0
H215 H 0.11977 0.09778 0.09446 0.0
Mn216 Mn 0.91264 0.72631 0.95725 0.0
Mn217 Mn 0.9695 0.71933 0.91611 0.0
C218 C 0.98465 0.73441 0.95851 0.0
C219 C 0.87319 0.76778 0.9784 0.0
C220 C 0.93885 0.64307 0.9384 0.0
O221 O 0.86797 0.73004 0.93625 0.0
O222 O 0.90862 0.72789 0.9096 0.0
C223 C 0.95808 0.8073 0.90281 0.0
N224 N 0.98411 0.77509 0.90804 0.0
C225 C 0.04571 0.81817 0.90313 0.0
C226 C 0.01958 0.85171 0.89754 0.0
C227 C 0.97557 0.84625 0.8974 0.0
C228 C 0.02649 0.78 0.90824 0.0
H229 H 0.92423 0.80335 0.90283 0.0
C230 C 0.87257 0.73077 0.91794 0.0
O231 O 0.86829 0.72707 0.97797 0.0
O232 O 0.89949 0.78398 0.96615 0.0
N233 N 0.02877 0.71128 0.91998 0.0
C234 C 0.04947 0.67619 0.92627 0.0
C235 C 0.09368 0.67674 0.92766 0.0
C236 C 0.11615 0.71315 0.92239 0.0
C237 C 0.09421 0.74859 0.91561 0.0
C238 C 0.05016 0.7461 0.9144 0.0
H239 H 0.03238 0.64815 0.93041 0.0
O240 O 0.96327 0.72577 0.974 0.0
O241 O 0.96286 0.73997 0.94269 0.0
O242 O 0.92064 0.66294 0.95217 0.0
O243 O 0.95676 0.66098 0.92401 0.0
C244 C 0.11425 0.78655 0.91034 0.0
C245 C 0.09002 0.82132 0.90412 0.0
H246 H 0.03293 0.88187 0.89347 0.0
H247 H 0.95519 0.87206 0.89321 0.0
H248 H 0.11039 0.64923 0.93286 0.0
H249 H 0.15022 0.7136 0.92366 0.0
H250 H 0.14826 0.78948 0.91121 0.0
H251 H 0.10577 0.85046 0.90028 0.0
Mn252 Mn 0.72544 0.07299 0.04455 0.0
Mn253 Mn 0.71606 0.01926 0.08637 0.0
C254 C 0.73492 0.00108 0.04473 0.0
C255 C 0.7685 0.11067 0.02338 0.0
C256 C 0.64107 0.04726 0.06242 0.0
O257 O 0.72725 0.11932 0.06487 0.0
O258 O 0.72331 0.08065 0.09211 0.0
C259 C 0.80267 0.03289 0.10115 0.0
N260 N 0.77135 0.00606 0.0956 0.0
C261 C 0.81516 0.94556 0.10178 0.0
C262 C 0.84777 0.97254 0.1077 0.0
C263 C 0.84149 0.01639 0.10737 0.0
C264 C 0.77704 0.96381 0.09588 0.0
H265 H 0.79811 0.06662 0.10077 0.0
C266 C 0.7266 0.11607 0.08326 0.0
O267 O 0.72772 0.1154 0.02299 0.0
O268 O 0.78373 0.08578 0.03646 0.0
N269 N 0.70927 0.95971 0.08304 0.0
C270 C 0.67523 0.93812 0.07616 0.0
C271 C 0.67678 0.89393 0.07508 0.0
C272 C 0.71316 0.8724 0.08118 0.0
C273 C 0.74758 0.89527 0.08844 0.0
C274 C 0.74408 0.93926 0.08933 0.0
H275 H 0.64727 0.95449 0.07134 0.0
O276 O 0.72669 0.02081 0.02876 0.0
O277 O 0.73879 0.02443 0.06016 0.0
O278 O 0.66176 0.06477 0.04871 0.0
O279 O 0.65814 0.03057 0.07732 0.0
C280 C 0.78549 0.8762 0.09451 0.0
C281 C 0.81926 0.90133 0.10117 0.0
H282 H 0.87787 0.95995 0.11238 0.0
H283 H 0.86658 0.03742 0.11182 0.0
H284 H 0.65009 0.87651 0.06946 0.0
H285 H 0.7144 0.83834 0.08015 0.0
H286 H 0.78916 0.84226 0.09394 0.0
H287 H 0.8484 0.88632 0.10562 0.0
Mn288 Mn 0.57009 0.73185 0.79505 0.0
Mn289 Mn 0.51247 0.72068 0.83576 0.0
C290 C 0.498 0.73807 0.79348 0.0
C291 C 0.6091 0.77631 0.775 0.0
C292 C 0.54533 0.64674 0.81248 0.0
O293 O 0.61414 0.73479 0.81633 0.0
O294 O 0.57297 0.73022 0.84274 0.0
C295 C 0.52144 0.80805 0.85026 0.0
N296 N 0.49632 0.77555 0.84448 0.0
C297 C 0.4336 0.81691 0.84949 0.0
C298 C 0.45878 0.85072 0.85565 0.0
C299 C 0.50289 0.84627 0.85602 0.0
C300 C 0.45386 0.77952 0.84403 0.0
H301 H 0.55537 0.80487 0.85042 0.0
C302 C 0.60914 0.73421 0.83462 0.0
O303 O 0.61498 0.73571 0.77462 0.0
O304 O 0.58201 0.79059 0.78738 0.0
N305 N 0.45351 0.7114 0.8315 0.0
C306 C 0.4338 0.67607 0.82482 0.0
C307 C 0.38962 0.6756 0.82322 0.0
C308 C 0.36617 0.71124 0.82871 0.0
C309 C 0.3871 0.74689 0.83594 0.0
C310 C 0.43117 0.74541 0.83733 0.0
H311 H 0.45165 0.64863 0.82052 0.0
O312 O 0.52002 0.73148 0.77797 0.0
O313 O 0.51918 0.74305 0.80951 0.0
O314 O 0.56332 0.66785 0.79902 0.0
O315 O 0.52688 0.66331 0.82707 0.0
C316 C 0.36602 0.78407 0.84152 0.0
C317 C 0.38926 0.81907 0.84827 0.0
H318 H 0.44461 0.88033 0.86 0.0
H319 H 0.52254 0.8723 0.86065 0.0
H320 H 0.3737 0.64792 0.81769 0.0
H321 H 0.33213 0.7109 0.82729 0.0
H322 H 0.33197 0.78621 0.84052 0.0
H323 H 0.37272 0.8476 0.85237 0.0
Mn324 Mn 0.73274 0.4272 0.20201 0.0
Mn325 Mn 0.7248 0.48161 0.1603 0.0
C326 C 0.74328 0.49896 0.20206 0.0
C327 C 0.77488 0.38849 0.2232 0.0
C328 C 0.64905 0.45465 0.18397 0.0
O329 O 0.73391 0.38108 0.1816 0.0
O330 O 0.73068 0.42013 0.15446 0.0
C331 C 0.81129 0.46622 0.14576 0.0
N332 N 0.78049 0.49368 0.15125 0.0
C333 C 0.8257 0.55326 0.1453 0.0
C334 C 0.85779 0.52562 0.13943 0.0
C335 C 0.85055 0.48192 0.13969 0.0
C336 C 0.78711 0.53579 0.15105 0.0
H337 H 0.80598 0.43258 0.14609 0.0
C338 C 0.7332 0.38455 0.16322 0.0
O339 O 0.73402 0.38448 0.22347 0.0
O340 O 0.7907 0.4133 0.21024 0.0
N341 N 0.71926 0.54126 0.16369 0.0
C342 C 0.68554 0.56354 0.17043 0.0
C343 C 0.68801 0.60769 0.17154 0.0
C344 C 0.72495 0.62847 0.1656 0.0
C345 C 0.759 0.60491 0.15845 0.0
C346 C 0.75459 0.56101 0.15753 0.0
H347 H 0.65715 0.54773 0.17512 0.0
O348 O 0.73464 0.47911 0.21796 0.0
O349 O 0.74706 0.47577 0.18658 0.0
O350 O 0.66925 0.43652 0.19766 0.0
O351 O 0.66659 0.47141 0.16919 0.0
C352 C 0.7974 0.6232 0.15252 0.0
C353 C 0.83073 0.59739 0.14596 0.0
H354 H 0.88822 0.53759 0.13486 0.0
H355 H 0.87525 0.46038 0.13529 0.0
H356 H 0.66158 0.62565 0.17706 0.0
H357 H 0.72688 0.66249 0.16666 0.0
H358 H 0.80178 0.65705 0.15313 0.0
H359 H 0.86024 0.6118 0.14162 0.0
Mn360 Mn 0.42524 0.26103 0.7965 0.0
Mn361 Mn 0.48023 0.27128 0.838 0.0
C362 C 0.49714 0.25224 0.796 0.0
C363 C 0.38621 0.21694 0.77628 0.0
C364 C 0.45162 0.34569 0.81376 0.0
O365 O 0.37963 0.26121 0.81711 0.0
O366 O 0.41906 0.26318 0.84413 0.0
C367 C 0.46812 0.18444 0.85267 0.0
N368 N 0.49442 0.21617 0.8471 0.0
C369 C 0.5557 0.17329 0.85305 0.0
C370 C 0.52929 0.14026 0.85899 0.0
C371 C 0.48531 0.14586 0.85878 0.0
C372 C 0.53677 0.21109 0.84721 0.0
H373 H 0.43429 0.1885 0.85238 0.0
C374 C 0.38332 0.26119 0.83546 0.0
O375 O 0.38172 0.25768 0.7754 0.0
O376 O 0.41168 0.2024 0.78929 0.0
N377 N 0.53967 0.27905 0.83458 0.0
C378 C 0.56073 0.31386 0.82819 0.0
C379 C 0.60499 0.3132 0.82724 0.0
C380 C 0.62714 0.27701 0.83307 0.0
C381 C 0.60484 0.24194 0.84 0.0
C382 C 0.56075 0.24452 0.84075 0.0
H383 H 0.54389 0.34175 0.82365 0.0
O384 O 0.47634 0.25863 0.78013 0.0
O385 O 0.47476 0.24867 0.81176 0.0
O386 O 0.43432 0.3248 0.80003 0.0
O387 O 0.46785 0.3289 0.82886 0.0
C388 C 0.62459 0.20431 0.84596 0.0
C389 C 0.60004 0.17 0.85246 0.0
H390 H 0.54241 0.11038 0.86363 0.0
H391 H 0.4647 0.12045 0.86325 0.0
H392 H 0.62198 0.34046 0.82195 0.0
H393 H 0.66127 0.27649 0.83215 0.0
H394 H 0.65862 0.20132 0.84546 0.0
H395 H 0.61557 0.14113 0.85686 0.0
Mn396 Mn 0.263 0.57162 0.20465 0.0
Mn397 Mn 0.26775 0.51472 0.16348 0.0
C398 C 0.25281 0.49994 0.20594 0.0
C399 C 0.22229 0.61226 0.22563 0.0
C400 C 0.34523 0.5434 0.18563 0.0
O401 O 0.26132 0.61632 0.18365 0.0
O402 O 0.25987 0.57567 0.157 0.0
C403 C 0.17958 0.52751 0.15063 0.0
N404 N 0.21152 0.501 0.15571 0.0
C405 C 0.16724 0.44015 0.15112 0.0
C406 C 0.13396 0.46679 0.14569 0.0
C407 C 0.14016 0.51066 0.14546 0.0
C408 C 0.20588 0.45875 0.156 0.0
H409 H 0.1841 0.56127 0.15058 0.0
C410 C 0.2592 0.61178 0.16536 0.0
O411 O 0.26318 0.61598 0.22539 0.0
O412 O 0.2056 0.58653 0.21328 0.0
N413 N 0.27497 0.45539 0.16731 0.0
C414 C 0.30998 0.43413 0.17334 0.0
C415 C 0.30876 0.38997 0.17473 0.0
C416 C 0.27176 0.36811 0.16974 0.0
C417 C 0.23643 0.3906 0.16322 0.0
C418 C 0.2396 0.43457 0.16198 0.0
H419 H 0.33847 0.45075 0.17725 0.0
O420 O 0.26171 0.52112 0.22145 0.0
O421 O 0.24793 0.52182 0.19012 0.0
O422 O 0.32607 0.56151 0.19964 0.0
O423 O 0.32659 0.52659 0.17113 0.0
C424 C 0.19796 0.37118 0.1582 0.0
C425 C 0.16338 0.39594 0.15217 0.0
H426 H 0.10344 0.45393 0.14181 0.0
H427 H 0.11457 0.53144 0.14139 0.0
H428 H 0.3362 0.37283 0.17973 0.0
H429 H 0.27081 0.33408 0.17102 0.0
H430 H 0.1945 0.33725 0.15909 0.0
H431 H 0.13385 0.38067 0.14851 0.0
Mn432 Mn 0.56922 0.76213 0.45232 0.0
Mn433 Mn 0.51433 0.76491 0.41059 0.0
C434 C 0.49777 0.74919 0.45268 0.0
C435 C 0.60959 0.72311 0.47404 0.0
C436 C 0.53962 0.84325 0.43293 0.0
O437 O 0.61518 0.76139 0.43182 0.0
O438 O 0.57583 0.759 0.40472 0.0
C439 C 0.53055 0.67742 0.39765 0.0
N440 N 0.50278 0.70836 0.40262 0.0
C441 C 0.4436 0.66208 0.39756 0.0
C442 C 0.47155 0.62983 0.39223 0.0
C443 C 0.51522 0.63753 0.3923 0.0
C444 C 0.46071 0.7013 0.40259 0.0
H445 H 0.56415 0.68308 0.39783 0.0
C446 C 0.61155 0.75915 0.41347 0.0
O447 O 0.61218 0.76404 0.47366 0.0
O448 O 0.58528 0.7054 0.46137 0.0
N449 N 0.45462 0.77005 0.41406 0.0
C450 C 0.43201 0.80399 0.42031 0.0
C451 C 0.38788 0.80112 0.42157 0.0
C452 C 0.36744 0.76352 0.41629 0.0
C453 C 0.39132 0.72921 0.40966 0.0
C454 C 0.43518 0.73404 0.40854 0.0
H455 H 0.44755 0.83289 0.42449 0.0
O456 O 0.51748 0.7595 0.46842 0.0
O457 O 0.52097 0.7451 0.43722 0.0
O458 O 0.55771 0.82464 0.44707 0.0
O459 O 0.52388 0.82414 0.41832 0.0
C460 C 0.37338 0.69018 0.40444 0.0
C461 C 0.3995 0.65663 0.3984 0.0
H462 H 0.45987 0.59892 0.38823 0.0
H463 H 0.537 0.61272 0.38831 0.0
H464 H 0.36967 0.82774 0.4267 0.0
H465 H 0.33342 0.76129 0.41747 0.0
H466 H 0.33956 0.68547 0.4052 0.0
H467 H 0.38537 0.62664 0.39461 0.0
Mn468 Mn 0.76113 0.42506 0.54599 0.0
Mn469 Mn 0.76581 0.48271 0.58693 0.0
C470 C 0.74892 0.49649 0.54478 0.0
C471 C 0.72147 0.38383 0.52481 0.0
C472 C 0.8432 0.45581 0.56448 0.0
O473 O 0.75981 0.38041 0.56707 0.0
O474 O 0.76149 0.42156 0.5936 0.0
C475 C 0.67916 0.46581 0.60091 0.0
N476 N 0.70941 0.49377 0.59531 0.0
C477 C 0.66233 0.5524 0.60007 0.0
C478 C 0.63078 0.52425 0.60604 0.0
C479 C 0.63923 0.48077 0.60644 0.0
C480 C 0.70163 0.53567 0.59488 0.0
H481 H 0.68542 0.43234 0.60109 0.0
C482 C 0.76002 0.38532 0.58538 0.0
O483 O 0.7624 0.38088 0.5252 0.0
O484 O 0.70408 0.40908 0.53718 0.0
N485 N 0.76981 0.54224 0.58275 0.0
C486 C 0.80319 0.56502 0.57601 0.0
C487 C 0.79957 0.609 0.57429 0.0
C488 C 0.76182 0.62909 0.57963 0.0
C489 C 0.72813 0.60505 0.5868 0.0
C490 C 0.7337 0.56137 0.58835 0.0
H491 H 0.8322 0.54972 0.57178 0.0
O492 O 0.75896 0.47579 0.52928 0.0
O493 O 0.74485 0.47433 0.56056 0.0
O494 O 0.82405 0.43606 0.55096 0.0
O495 O 0.82467 0.47357 0.57875 0.0
C496 C 0.689 0.62262 0.59215 0.0
C497 C 0.65612 0.59631 0.59878 0.0
H498 H 0.59985 0.53564 0.61019 0.0
H499 H 0.61496 0.45883 0.61092 0.0
H500 H 0.82572 0.62733 0.56876 0.0
H501 H 0.759 0.66297 0.5781 0.0
H502 H 0.68371 0.65628 0.59105 0.0
H503 H 0.62605 0.61015 0.60268 0.0
Mn504 Mn 0.4243 0.22978 0.45326 0.0
Mn505 Mn 0.48061 0.22581 0.41197 0.0
C506 C 0.4959 0.24149 0.45411 0.0
C507 C 0.38409 0.26951 0.47479 0.0
C508 C 0.45362 0.14803 0.43409 0.0
O509 O 0.37901 0.232 0.4325 0.0
O510 O 0.41924 0.23101 0.40566 0.0
C511 C 0.46431 0.31297 0.39862 0.0
N512 N 0.49209 0.2823 0.4039 0.0
C513 C 0.55114 0.32895 0.39927 0.0
C514 C 0.52318 0.36095 0.39363 0.0
C515 C 0.47958 0.35291 0.39332 0.0
C516 C 0.53411 0.28967 0.40423 0.0
H517 H 0.43075 0.30705 0.39852 0.0
C518 C 0.38327 0.23247 0.41415 0.0
O519 O 0.38065 0.22864 0.47432 0.0
O520 O 0.40924 0.28674 0.46234 0.0
N521 N 0.54023 0.22108 0.41585 0.0
C522 C 0.56279 0.18735 0.42235 0.0
C523 C 0.60685 0.19054 0.42398 0.0
C524 C 0.62724 0.22823 0.41883 0.0
C525 C 0.6034 0.26232 0.41194 0.0
C526 C 0.55962 0.25718 0.41046 0.0
H527 H 0.54726 0.1584 0.42646 0.0
O528 O 0.47559 0.23113 0.46967 0.0
O529 O 0.47325 0.24604 0.4385 0.0
O530 O 0.4346 0.16692 0.44791 0.0
O531 O 0.47101 0.16684 0.41981 0.0
C532 C 0.62127 0.30143 0.40681 0.0
C533 C 0.59516 0.33473 0.40049 0.0
H534 H 0.5348 0.39189 0.38967 0.0
H535 H 0.45778 0.37752 0.3891 0.0
H536 H 0.62503 0.16409 0.42932 0.0
H537 H 0.66119 0.23071 0.42029 0.0
H538 H 0.65501 0.30639 0.40786 0.0
H539 H 0.60922 0.36479 0.39677 0.0
Mn540 Mn 0.2298 0.57 0.54369 0.0
Mn541 Mn 0.22656 0.51433 0.58518 0.0
C542 C 0.24271 0.49858 0.54308 0.0
C543 C 0.2693 0.61051 0.52219 0.0
C544 C 0.14841 0.54047 0.56289 0.0
O545 O 0.23044 0.61556 0.56441 0.0
O546 O 0.23263 0.5756 0.5913 0.0
C547 C 0.31407 0.5299 0.59834 0.0
N548 N 0.28302 0.50238 0.5932 0.0
C549 C 0.32896 0.44294 0.59814 0.0
C550 C 0.36133 0.47062 0.60363 0.0
C551 C 0.35385 0.51429 0.60371 0.0
C552 C 0.28985 0.4603 0.59309 0.0
H553 H 0.30856 0.56351 0.59827 0.0
C554 C 0.23252 0.6115 0.58275 0.0
O555 O 0.22833 0.61327 0.52248 0.0
O556 O 0.28672 0.58603 0.53485 0.0
N557 N 0.22118 0.45476 0.58143 0.0
C558 C 0.18721 0.43247 0.57495 0.0
C559 C 0.18989 0.38838 0.5735 0.0
C560 C 0.22732 0.36767 0.5788 0.0
C561 C 0.26167 0.39123 0.58565 0.0
C562 C 0.25703 0.43506 0.58696 0.0
H563 H 0.15844 0.44822 0.57074 0.0
O564 O 0.2325 0.51853 0.5274 0.0
O565 O 0.24661 0.52151 0.55863 0.0
O566 O 0.16712 0.55859 0.54879 0.0
O567 O 0.16744 0.52433 0.57743 0.0
C568 C 0.30058 0.37303 0.59089 0.0
C569 C 0.3342 0.39886 0.59712 0.0
H570 H 0.39216 0.45873 0.60765 0.0
H571 H 0.37875 0.53587 0.60782 0.0
H572 H 0.16325 0.37042 0.56819 0.0
H573 H 0.22941 0.3337 0.57747 0.0
H574 H 0.30514 0.33923 0.58998 0.0
H575 H 0.36411 0.38453 0.60091 0.0
H576 H 0.13318 0.25717 0.23293 0.0
H577 H 0.1801 0.32451 0.28271 0.0
H578 H 0.17109 0.30646 0.21148 0.0
H579 H 0.21885 0.37239 0.26158 0.0
H580 H 0.302 0.44049 0.22208 0.0
H581 H 0.27857 0.37234 0.2347 0.0
H582 H 0.15618 0.39161 0.20879 0.0
H583 H 0.17948 0.46032 0.19654 0.0
C584 C 0.15276 0.2816 0.23922 0.0
C585 C 0.15407 0.28725 0.25937 0.0
C586 C 0.17416 0.30975 0.22702 0.0
C587 C 0.19801 0.34292 0.23493 0.0
C588 C 0.20117 0.34673 0.25512 0.0
C589 C 0.17897 0.3195 0.26721 0.0
C590 C 0.27066 0.42929 0.21846 0.0
C591 C 0.24276 0.455 0.20803 0.0
C592 C 0.25731 0.39043 0.22565 0.0
C593 C 0.21565 0.37685 0.22269 0.0
C594 C 0.18866 0.40111 0.211 0.0
C595 C 0.20196 0.44029 0.20395 0.0
H596 H 0.44162 0.687 0.77623 0.0
H597 H 0.45426 0.80838 0.80372 0.0
H598 H 0.37268 0.70771 0.76347 0.0
H599 H 0.38484 0.82897 0.79129 0.0
H600 H 0.25205 0.84955 0.76617 0.0
H601 H 0.30145 0.81168 0.78755 0.0
H602 H 0.36995 0.76779 0.73744 0.0
H603 H 0.32189 0.80645 0.71639 0.0
C604 C 0.42868 0.71742 0.78022 0.0
C605 C 0.45261 0.74584 0.79125 0.0
C606 C 0.38937 0.72923 0.77294 0.0
C607 C 0.37357 0.76989 0.77639 0.0
C608 C 0.39605 0.79721 0.78867 0.0
C609 C 0.43565 0.78545 0.79583 0.0
C610 C 0.27701 0.83073 0.75984 0.0
C611 C 0.28337 0.83061 0.73973 0.0
C612 C 0.30525 0.80936 0.77201 0.0
C613 C 0.33926 0.78671 0.7641 0.0
C614 C 0.34366 0.78449 0.74391 0.0
C615 C 0.31631 0.80667 0.73186 0.0
H616 H 0.70285 0.56441 0.21891 0.0
H617 H 0.81881 0.52983 0.19045 0.0
H618 H 0.73578 0.62921 0.23073 0.0
H619 H 0.85161 0.59507 0.20178 0.0
H620 H 0.90368 0.65032 0.2597 0.0
H621 H 0.86918 0.60408 0.23676 0.0
H622 H 0.77487 0.69941 0.22571 0.0
H623 H 0.81023 0.74666 0.24893 0.0
C624 C 0.73479 0.57178 0.21446 0.0
C625 C 0.75818 0.54268 0.20355 0.0
C626 C 0.75359 0.6089 0.22114 0.0
C627 C 0.79639 0.61696 0.21735 0.0
C628 C 0.81863 0.58949 0.20502 0.0
C629 C 0.7998 0.5524 0.19835 0.0
C630 C 0.8758 0.66175 0.25229 0.0
C631 C 0.85936 0.70194 0.25627 0.0
C632 C 0.85633 0.63539 0.23891 0.0
C633 C 0.81956 0.64826 0.22926 0.0
C634 C 0.80334 0.68883 0.23289 0.0
C635 C 0.82344 0.71574 0.24616 0.0
H636 H 0.55486 0.30339 0.77994 0.0
H637 H 0.53981 0.18142 0.80658 0.0
H638 H 0.62374 0.28207 0.76739 0.0
H639 H 0.60923 0.16017 0.79431 0.0
H640 H 0.7436 0.14094 0.76872 0.0
H641 H 0.69417 0.17777 0.79051 0.0
H642 H 0.62365 0.22123 0.74093 0.0
H643 H 0.67167 0.18353 0.71947 0.0
C644 C 0.5673 0.27271 0.78385 0.0
C645 C 0.54262 0.24426 0.79449 0.0
C646 C 0.60658 0.26055 0.77668 0.0
C647 C 0.62161 0.21951 0.77986 0.0
C648 C 0.59856 0.1922 0.7919 0.0
C649 C 0.55896 0.20433 0.79897 0.0
C650 C 0.71809 0.15935 0.76259 0.0
C651 C 0.71124 0.15972 0.74251 0.0
C652 C 0.68986 0.18013 0.775 0.0
C653 C 0.65541 0.20249 0.76734 0.0
C654 C 0.6503 0.20473 0.74718 0.0
C655 C 0.67762 0.18311 0.73491 0.0
H656 H 0.16937 0.02043 0.04694 0.0
H657 H 0.29347 0.04047 0.02312 0.0
H658 H 0.14762 0.09038 0.03546 0.0
H659 H 0.2718 0.10993 0.01141 0.0
H660 H 0.17998 0.16987 0.96417 0.0
H661 H 0.21589 0.1176 0.9841 0.0
H662 H 0.16294 0.174 0.03553 0.0
H663 H 0.12775 0.22759 0.01534 0.0
C664 C 0.1924 0.04061 0.03998 0.0
C665 C 0.23334 0.02583 0.03631 0.0
C666 C 0.18003 0.0805 0.03339 0.0
C667 C 0.20813 0.10548 0.02258 0.0
C668 C 0.24965 0.09134 0.01976 0.0
C669 C 0.26201 0.05174 0.02644 0.0
C670 C 0.17722 0.17193 0.97977 0.0
C671 C 0.15162 0.20275 0.9883 0.0
C672 C 0.19774 0.14211 0.99118 0.0
C673 C 0.19217 0.14186 0.01135 0.0
C674 C 0.16778 0.17372 0.02001 0.0
C675 C 0.14801 0.20441 0.00854 0.0
H676 H 0.16407 0.8105 0.03371 0.0
H677 H 0.23067 0.85138 0.98263 0.0
H678 H 0.11437 0.77127 0.01363 0.0
H679 H 0.17955 0.81304 0.96225 0.0
H680 H 0.02499 0.80685 0.94843 0.0
H681 H 0.09428 0.82996 0.96012 0.0
H682 H 0.11232 0.70917 0.98763 0.0
H683 H 0.04365 0.68581 0.97547 0.0
C684 C 0.16851 0.81021 0.01816 0.0
C685 C 0.20112 0.83355 0.00965 0.0
C686 C 0.14022 0.78773 0.00668 0.0
C687 C 0.14331 0.78908 0.98642 0.0
C688 C 0.17679 0.81138 0.97785 0.0
C689 C 0.20599 0.83301 0.98945 0.0
C690 C 0.04483 0.7846 0.95608 0.0
C691 C 0.02969 0.74426 0.96067 0.0
C692 C 0.08434 0.79781 0.96282 0.0
C693 C 0.10851 0.77125 0.97475 0.0
C694 C 0.09433 0.73007 0.97837 0.0
C695 C 0.05517 0.71677 0.97145 0.0
H696 H 0.80175 0.75142 -8e-05 0.0
H697 H 0.89698 0.84605 0.98918 0.0
H698 H 0.76584 0.80018 0.02224 0.0
H699 H 0.86183 0.89386 0.01124 0.0
H700 H 0.81007 0.97019 0.05679 0.0
H701 H 0.8429 0.90461 0.04592 0.0
H702 H 0.72773 0.87034 0.01642 0.0
H703 H 0.69474 0.93552 0.02778 0.0
C704 C 0.8152 0.78231 0.0025 0.0
C705 C 0.85187 0.79513 0.99268 0.0
C706 C 0.79477 0.8101 0.01525 0.0
C707 C 0.81131 0.85063 0.01865 0.0
C708 C 0.84871 0.8626 0.00926 0.0
C709 C 0.86857 0.83533 0.99639 0.0
C710 C 0.79119 0.94755 0.04885 0.0
C711 C 0.74974 0.95731 0.04339 0.0
C712 C 0.81006 0.91028 0.04243 0.0
C713 C 0.78802 0.88263 0.03011 0.0
C714 C 0.74538 0.8908 0.02602 0.0
C715 C 0.72654 0.92812 0.03244 0.0
H716 H 0.75427 0.17978 1e-05 0.0
H717 H 0.84744 0.08548 0.01448 0.0
H718 H 0.80522 0.21324 0.97792 0.0
H719 H 0.89742 0.11824 0.99267 0.0
H720 H 0.978 0.16668 0.94722 0.0
H721 H 0.91215 0.13402 0.95808 0.0
H722 H 0.87451 0.25176 0.98436 0.0
H723 H 0.94 0.28433 0.97313 0.0
C724 C 0.78532 0.166 0.99831 0.0
C725 C 0.79708 0.13038 0.00913 0.0
C726 C 0.81437 0.18503 0.98569 0.0
C727 C 0.85516 0.1681 0.98343 0.0
C728 C 0.86606 0.13162 0.99377 0.0
C729 C 0.83751 0.11317 0.00651 0.0
C730 C 0.95468 0.18592 0.95453 0.0
C731 C 0.96338 0.22812 0.95902 0.0
C732 C 0.91724 0.16723 0.96091 0.0
C733 C 0.88834 0.19028 0.97221 0.0
C734 C 0.89586 0.23333 0.97551 0.0
C735 C 0.93336 0.25192 0.96918 0.0
H736 H 0.58584 0.85635 0.76698 0.0
H737 H 0.67993 0.76286 0.75262 0.0
H738 H 0.62081 0.90716 0.74633 0.0
H739 H 0.71553 0.81457 0.73167 0.0
H740 H 0.78905 0.9475 0.72744 0.0
H741 H 0.75477 0.8829 0.73873 0.0
H742 H 0.63814 0.92308 0.71213 0.0
H743 H 0.67244 0.98803 0.70129 0.0
C744 C 0.61396 0.84653 0.75928 0.0
C745 C 0.63037 0.80569 0.76157 0.0
C746 C 0.63372 0.87558 0.74722 0.0
C747 C 0.67071 0.86478 0.73721 0.0
C748 C 0.68697 0.82368 0.7392 0.0
C749 C 0.66669 0.79418 0.75116 0.0
C750 C 0.75647 0.94165 0.72349 0.0
C751 C 0.7335 0.97205 0.71317 0.0
C752 C 0.73691 0.90467 0.72986 0.0
C753 C 0.69372 0.89805 0.72641 0.0
C754 C 0.67142 0.92747 0.7151 0.0
C755 C 0.69106 0.96438 0.70871 0.0
H756 H 0.94086 0.21091 0.27518 0.0
H757 H 0.98169 0.32843 0.30032 0.0
H758 H 0.8767 0.24496 0.26326 0.0
H759 H 0.91716 0.36256 0.28879 0.0
H760 H 0.8547 0.41126 0.23197 0.0
H761 H 0.90354 0.37752 0.25401 0.0
H762 H 0.8084 0.2857 0.26911 0.0
H763 H 0.75862 0.32015 0.24678 0.0
C764 C 0.93511 0.24365 0.27881 0.0
C765 C 0.96557 0.26696 0.28896 0.0
C766 C 0.89837 0.2631 0.27208 0.0
C767 C 0.89206 0.30648 0.27498 0.0
C768 C 0.92134 0.32911 0.28625 0.0
C769 C 0.95801 0.30958 0.29303 0.0
C770 C 0.84389 0.38406 0.24006 0.0
C771 C 0.80293 0.36806 0.23749 0.0
C772 C 0.8718 0.36504 0.25292 0.0
C773 C 0.85972 0.32919 0.26345 0.0
C774 C 0.81846 0.31341 0.2612 0.0
C775 C 0.79007 0.33301 0.24844 0.0
H776 H 0.32732 0.0056 0.70145 0.0
H777 H 0.2094 0.04539 0.72658 0.0
H778 H 0.36091 0.07051 0.71289 0.0
H779 H 0.24288 0.11003 0.73836 0.0
H780 H 0.31705 0.23062 0.7528 0.0
H781 H 0.28269 0.17884 0.7314 0.0
H782 H 0.37581 0.08593 0.74764 0.0
H783 H 0.40947 0.13672 0.76878 0.0
C784 C 0.3083 0.02908 0.70877 0.0
C785 C 0.26568 0.02125 0.71278 0.0
C786 C 0.3275 0.06597 0.71548 0.0
C787 C 0.30453 0.09523 0.72661 0.0
C788 C 0.26123 0.0884 0.72962 0.0
C789 C 0.24213 0.0514 0.72298 0.0
C790 C 0.33019 0.1992 0.75161 0.0
C791 C 0.36563 0.18758 0.7626 0.0
C792 C 0.31064 0.16968 0.73939 0.0
C793 C 0.32685 0.12849 0.73771 0.0
C794 C 0.363 0.11757 0.74831 0.0
C795 C 0.38197 0.14662 0.76064 0.0
H796 H 0.01971 0.67777 0.30344 0.0
H797 H 0.05865 0.7938 0.27633 0.0
H798 H 0.08444 0.64364 0.29236 0.0
H799 H 0.12293 0.75948 0.26465 0.0
H800 H 0.2402 0.68245 0.24783 0.0
H801 H 0.19183 0.71892 0.27016 0.0
H802 H 0.09552 0.62641 0.25768 0.0
H803 H 0.14291 0.59073 0.23565 0.0
C804 C 0.04309 0.69643 0.29586 0.0
C805 C 0.03482 0.73853 0.29104 0.0
C806 C 0.07988 0.67683 0.28931 0.0
C807 C 0.10849 0.69877 0.27743 0.0
C808 C 0.10172 0.74187 0.27391 0.0
C809 C 0.06491 0.76146 0.2805 0.0
C810 C 0.20879 0.6699 0.25007 0.0
C811 C 0.19516 0.63404 0.23986 0.0
C812 C 0.18122 0.69065 0.26283 0.0
C813 C 0.14008 0.67522 0.26584 0.0
C814 C 0.12724 0.63866 0.25602 0.0
C815 C 0.1543 0.61849 0.24316 0.0
H816 H 0.78852 0.56182 0.5274 0.0
H817 H 0.67217 0.52621 0.55526 0.0
H818 H 0.7549 0.62568 0.5149 0.0
H819 H 0.63866 0.59048 0.54324 0.0
H820 H 0.67896 0.74248 0.49651 0.0
H821 H 0.71462 0.69558 0.51977 0.0
H822 H 0.62218 0.59876 0.50803 0.0
H823 H 0.58739 0.64467 0.48505 0.0
C824 C 0.75627 0.56875 0.53153 0.0
C825 C 0.73303 0.5397 0.54253 0.0
C826 C 0.73709 0.60533 0.52448 0.0
C827 C 0.69408 0.61283 0.52796 0.0
C828 C 0.67183 0.58532 0.54025 0.0
C829 C 0.69104 0.5488 0.5473 0.0
C830 C 0.66625 0.71129 0.49912 0.0
C831 C 0.63074 0.69702 0.48884 0.0
C832 C 0.68652 0.68458 0.5124 0.0
C833 C 0.67086 0.64372 0.51587 0.0
C834 C 0.63456 0.63031 0.506 0.0
C835 C 0.61494 0.65648 0.4926 0.0
H836 H 0.74135 0.3147 0.50232 0.0
H837 H 0.64195 0.40414 0.51441 0.0
H838 H 0.69464 0.27839 0.47919 0.0
H839 H 0.59622 0.36867 0.49153 0.0
H840 H 0.56206 0.20236 0.47111 0.0
H841 H 0.62537 0.23672 0.48386 0.0
H842 H 0.58824 0.35299 0.45616 0.0
H843 H 0.52456 0.31873 0.44388 0.0
C844 C 0.70982 0.32677 0.49991 0.0
C845 C 0.69513 0.36195 0.5103 0.0
C846 C 0.68322 0.30613 0.48669 0.0
C847 C 0.64201 0.32105 0.48338 0.0
C848 C 0.62805 0.35689 0.49343 0.0
C849 C 0.65414 0.3769 0.50677 0.0
C850 C 0.56849 0.23479 0.46715 0.0
C851 C 0.53902 0.25781 0.45628 0.0
C852 C 0.60473 0.25441 0.47436 0.0
C853 C 0.61148 0.29762 0.47116 0.0
C854 C 0.58365 0.31969 0.45895 0.0
C855 C 0.54748 0.30003 0.45173 0.0
H856 H 0.20361 0.43212 0.52633 0.0
H857 H 0.31968 0.47002 0.55382 0.0
H858 H 0.23773 0.3679 0.5145 0.0
H859 H 0.3536 0.40531 0.5426 0.0
H860 H 0.40642 0.3481 0.48555 0.0
H861 H 0.37108 0.39488 0.50795 0.0
H862 H 0.27786 0.29883 0.51969 0.0
H863 H 0.31399 0.25108 0.49696 0.0
C864 C 0.23591 0.42563 0.53054 0.0
C865 C 0.25892 0.45541 0.54124 0.0
C866 C 0.25537 0.38884 0.52387 0.0
C867 C 0.29843 0.3818 0.52747 0.0
C868 C 0.32043 0.4101 0.53949 0.0
C869 C 0.30097 0.44687 0.54611 0.0
C870 C 0.37858 0.33663 0.49298 0.0
C871 C 0.36269 0.29606 0.48935 0.0
C872 C 0.35863 0.36333 0.50606 0.0
C873 C 0.32193 0.35041 0.51576 0.0
C874 C 0.30623 0.30949 0.51245 0.0
C875 C 0.32679 0.28228 0.49947 0.0
H876 H 0.46884 0.67218 0.44221 0.0
H877 H 0.43124 0.7891 0.46894 0.0
H878 H 0.40411 0.63873 0.45377 0.0
H879 H 0.36695 0.75553 0.48103 0.0
H880 H 0.25025 0.67944 0.49937 0.0
H881 H 0.29763 0.71477 0.47621 0.0
H882 H 0.39456 0.62305 0.48883 0.0
H883 H 0.34819 0.58856 0.51168 0.0
C884 C 0.44572 0.69117 0.44979 0.0
C885 C 0.45442 0.73331 0.45441 0.0
C886 C 0.40893 0.67199 0.4566 0.0
C887 C 0.38075 0.69441 0.46851 0.0
C888 C 0.38783 0.73756 0.47176 0.0
C889 C 0.42465 0.75673 0.46493 0.0
C890 C 0.28158 0.66682 0.49698 0.0
C891 C 0.29572 0.63159 0.50748 0.0
C892 C 0.30856 0.6869 0.48375 0.0
C893 C 0.34959 0.67135 0.48054 0.0
C894 C 0.3629 0.63534 0.49064 0.0
C895 C 0.33644 0.6159 0.50398 0.0
H896 H 0.30377 0.25738 0.42479 0.0
H897 H 0.37502 0.21046 0.37606 0.0
H898 H 0.24019 0.25862 0.40503 0.0
H899 H 0.31121 0.20969 0.35654 0.0
H900 H 0.19857 0.24818 0.32048 0.0
H901 H 0.26202 0.25085 0.34021 0.0
H902 H 0.18878 0.21632 0.39056 0.0
H903 H 0.12499 0.21572 0.37091 0.0
C904 C 0.30582 0.24705 0.40988 0.0
C905 C 0.34458 0.23389 0.40202 0.0
C906 C 0.2692 0.24745 0.39854 0.0
C907 C 0.27018 0.23411 0.3791 0.0
C908 C 0.30909 0.22097 0.37129 0.0
C909 C 0.3458 0.22118 0.38255 0.0
C910 C 0.196 0.24113 0.33577 0.0
C911 C 0.15664 0.23164 0.34409 0.0
C912 C 0.23254 0.24243 0.34711 0.0
C913 C 0.23091 0.23362 0.36707 0.0
C914 C 0.19142 0.22404 0.37536 0.0
C915 C 0.15475 0.22339 0.36405 0.0
H916 H 0.21629 0.69303 0.57176 0.0
H917 H 0.25177 0.61786 0.62129 0.0
H918 H 0.21502 0.75584 0.59202 0.0
H919 H 0.2519 0.68083 0.6414 0.0
H920 H 0.2035 0.79187 0.67658 0.0
H921 H 0.20532 0.72978 0.65595 0.0
H922 H 0.25723 0.80464 0.60944 0.0
H923 H 0.25405 0.86712 0.6299 0.0
C924 C 0.22429 0.68992 0.58693 0.0
C925 C 0.23392 0.65023 0.59487 0.0
C926 C 0.22376 0.72607 0.59856 0.0
C927 C 0.23318 0.72358 0.61843 0.0
C928 C 0.24361 0.68397 0.62628 0.0
C929 C 0.2438 0.64779 0.61468 0.0
C930 C 0.21526 0.79518 0.66194 0.0
C931 C 0.22853 0.83465 0.65493 0.0
C932 C 0.2166 0.75939 0.65012 0.0
C933 C 0.2316 0.76194 0.63098 0.0
C934 C 0.24489 0.80146 0.62398 0.0
C935 C 0.24324 0.83735 0.63576 0.0
H936 H 0.69236 0.77785 0.42466 0.0
H937 H 0.61949 0.73647 0.37535 0.0
H938 H 0.75593 0.77781 0.40497 0.0
H939 H 0.68338 0.73478 0.3558 0.0
H940 H 0.79646 0.78082 0.32076 0.0
H941 H 0.73284 0.77878 0.34043 0.0
H942 H 0.80617 0.73535 0.38926 0.0
H943 H 0.87003 0.73905 0.36976 0.0
C944 C 0.68994 0.76824 0.40966 0.0
C945 C 0.65067 0.75733 0.40161 0.0
C946 C 0.72657 0.76797 0.39835 0.0
C947 C 0.72507 0.75631 0.3787 0.0
C948 C 0.68582 0.74473 0.37075 0.0
C949 C 0.6491 0.74545 0.38201 0.0
C950 C 0.79903 0.77073 0.33568 0.0
C951 C 0.8385 0.7603 0.34367 0.0
C952 C 0.76239 0.7693 0.34698 0.0
C953 C 0.7641 0.75693 0.36653 0.0
C954 C 0.80356 0.74583 0.3744 0.0
C955 C 0.84026 0.74771 0.36316 0.0
H956 H 0.74989 0.20444 0.68072 0.0
H957 H 0.78248 0.12959 0.63069 0.0
H958 H 0.74563 0.26703 0.66049 0.0
H959 H 0.78025 0.19249 0.61054 0.0
H960 H 0.73601 0.30503 0.57559 0.0
H961 H 0.73636 0.24235 0.59593 0.0
H962 H 0.78558 0.31621 0.64346 0.0
H963 H 0.78325 0.37906 0.62338 0.0
C964 C 0.75663 0.20142 0.66541 0.0
C965 C 0.76659 0.16195 0.65735 0.0
C966 C 0.7544 0.23745 0.65378 0.0
C967 C 0.76271 0.23517 0.63378 0.0
C968 C 0.77286 0.19559 0.62577 0.0
C969 C 0.77445 0.15944 0.63736 0.0
C970 C 0.74674 0.30789 0.59041 0.0
C971 C 0.75953 0.34715 0.59784 0.0
C972 C 0.74725 0.2718 0.60208 0.0
C973 C 0.76115 0.27386 0.62142 0.0
C974 C 0.7739 0.31327 0.6288 0.0
C975 C 0.7728 0.34943 0.61722 0.0
H976 H 0.1966 0.29004 0.92712 0.0
H977 H 0.12534 0.23804 0.87945 0.0
H978 H 0.26032 0.28842 0.90752 0.0
H979 H 0.18938 0.23483 0.86007 0.0
H980 H 0.3021 0.27535 0.82361 0.0
H981 H 0.23836 0.27646 0.84314 0.0
H982 H 0.31162 0.24384 0.89373 0.0
H983 H 0.37571 0.24437 0.87426 0.0
C984 C 0.19454 0.27797 0.91249 0.0
C985 C 0.15568 0.26434 0.90488 0.0
C986 C 0.23127 0.27673 0.90125 0.0
C987 C 0.23031 0.2614 0.88214 0.0
C988 C 0.19141 0.24755 0.87458 0.0
C989 C 0.15459 0.24921 0.88575 0.0
C990 C 0.30466 0.26825 0.83889 0.0
C991 C 0.34419 0.25988 0.84734 0.0
C992 C 0.26793 0.26867 0.85012 0.0
C993 C 0.26955 0.26027 0.87011 0.0
C994 C 0.30906 0.25126 0.87849 0.0
C995 C 0.34589 0.25128 0.86728 0.0
H996 H 0.27394 0.69361 0.17615 0.0
H997 H 0.23938 0.61737 0.1268 0.0
H998 H 0.27366 0.75625 0.15588 0.0
H999 H 0.23759 0.6803 0.10663 0.0
H1000 H 0.28413 0.79259 0.07146 0.0
H1001 H 0.28258 0.73022 0.09188 0.0
H1002 H 0.23077 0.80433 0.13869 0.0
H1003 H 0.23378 0.86711 0.11844 0.0
C1004 C 0.26578 0.69023 0.16101 0.0
C1005 C 0.25687 0.65029 0.15313 0.0
C1006 C 0.26539 0.72631 0.14937 0.0
C1007 C 0.2557 0.72357 0.12953 0.0
C1008 C 0.24601 0.68368 0.12174 0.0
C1009 C 0.24678 0.64752 0.13335 0.0
C1010 C 0.27239 0.79566 0.08611 0.0
C1011 C 0.25923 0.83504 0.09329 0.0
C1012 C 0.2712 0.7597 0.09782 0.0
C1013 C 0.25645 0.76197 0.11699 0.0
C1014 C 0.24299 0.80135 0.12412 0.0
C1015 C 0.24453 0.83742 0.11246 0.0
H1016 H 0.7928 0.7541 0.92898 0.0
H1017 H 0.86517 0.71543 0.87907 0.0
H1018 H 0.7296 0.75831 0.90905 0.0
H1019 H 0.80173 0.71794 0.8593 0.0
H1020 H 0.68873 0.75955 0.8243 0.0
H1021 H 0.75176 0.76195 0.84438 0.0
H1022 H 0.67951 0.71612 0.89308 0.0
H1023 H 0.61619 0.71539 0.87318 0.0
C1024 C 0.79523 0.74629 0.91376 0.0
C1025 C 0.83418 0.73436 0.90567 0.0
C1026 C 0.75883 0.74845 0.90232 0.0
C1027 C 0.76024 0.7383 0.8825 0.0
C1028 C 0.79933 0.72669 0.8744 0.0
C1029 C 0.83582 0.72499 0.88579 0.0
C1030 C 0.68622 0.75018 0.83933 0.0
C1031 C 0.64729 0.73719 0.84708 0.0
C1032 C 0.72253 0.75129 0.85085 0.0
C1033 C 0.72107 0.73898 0.87041 0.0
C1034 C 0.68195 0.72647 0.8782 0.0
C1035 C 0.64554 0.72582 0.86673 0.0
H1036 H 0.70884 0.12614 0.12179 0.0
H1037 H 0.75085 0.19498 0.07142 0.0
H1038 H 0.7113 0.19063 0.14081 0.0
H1039 H 0.75501 0.25921 0.09061 0.0
H1040 H 0.71434 0.37545 0.12475 0.0
H1041 H 0.71345 0.31098 0.10569 0.0
H1042 H 0.75578 0.24045 0.15556 0.0
H1043 H 0.75496 0.30473 0.17481 0.0
C1044 C 0.71905 0.15495 0.1148 0.0
C1045 C 0.72947 0.15527 0.09502 0.0
C1046 C 0.72074 0.19203 0.12577 0.0
C1047 C 0.73337 0.23044 0.11734 0.0
C1048 C 0.74436 0.23056 0.09759 0.0
C1049 C 0.74221 0.19356 0.08657 0.0
C1050 C 0.72359 0.34622 0.13165 0.0
C1051 C 0.73456 0.34538 0.15137 0.0
C1052 C 0.72332 0.30914 0.12066 0.0
C1053 C 0.7345 0.27019 0.129 0.0
C1054 C 0.74617 0.26955 0.14866 0.0
C1055 C 0.74597 0.30657 0.15971 0.0
H1056 H 0.97371 0.89297 0.28124 0.0
H1057 H 0.94139 0.90645 0.34152 0.0
H1058 H -0.00188 0.96567 0.28043 0.0
H1059 H 0.96244 0.98024 0.34055 0.0
H1060 H 0.04442 0.09513 0.34097 0.0
H1061 H 0.02087 0.02213 0.34044 0.0
H1062 H 0.9846 0.03638 0.28038 0.0
H1063 H 0.0115 0.10832 0.28075 0.0
C1064 C 0.97057 0.91209 0.29415 0.0
C1065 C 0.95563 0.89434 0.31142 0.0
C1066 C 0.98454 0.95389 0.29373 0.0
C1067 C 0.9829 0.97917 0.31049 0.0
C1068 C 0.96566 0.96167 0.32749 0.0
C1069 C 0.95289 0.91954 0.32803 0.0
C1070 C 0.03206 0.08218 0.32761 0.0
C1071 C 0.03011 0.10698 0.31086 0.0
C1072 C 0.01787 0.04051 0.32732 0.0
C1073 C 1e-05 0.02308 0.31044 0.0
C1074 C -0.00135 0.0481 0.29359 0.0
C1075 C 0.01403 0.08943 0.29376 0.0
H1076 H 0.90572 0.05479 0.66127 0.0
H1077 H 0.89215 0.01876 0.72108 0.0
H1078 H 0.97891 0.03157 0.66166 0.0
H1079 H 0.96422 0.99216 0.72128 0.0
H1080 H 0.10676 0.97681 0.72046 0.0
H1081 H 0.03518 0.00454 0.72136 0.0
H1082 H 0.01984 0.97256 0.66084 0.0
H1083 H 0.0926 0.94814 0.65982 0.0
C1084 C 0.91866 0.0419 0.67452 0.0
C1085 C 0.89368 0.03884 0.69118 0.0
C1086 C 0.96043 0.02791 0.67472 0.0
C1087 C 0.97773 0.00913 0.69141 0.0
C1088 C 0.9526 0.00692 0.70821 0.0
C1089 C 0.91119 0.02212 0.70815 0.0
C1090 C 0.08773 0.9754 0.70745 0.0
C1091 C 0.10494 0.96028 0.69009 0.0
C1092 C 0.04659 0.99124 0.70793 0.0
C1093 C 0.02137 0.99132 0.69113 0.0
C1094 C 0.03841 0.97443 0.67395 0.0
C1095 C 0.07994 0.95977 0.67337 0.0
H1096 H 0.01038 0.3848 0.96978 0.0
H1097 H 0.04133 0.4017 0.90952 0.0
H1098 H 0.98042 0.45557 0.97084 0.0
H1099 H 0.01436 0.47342 0.91072 0.0
H1100 H 0.96457 0.59971 0.97008 0.0
H1101 H 0.99082 0.52752 0.97091 0.0
H1102 H 0.95264 0.51102 0.91123 0.0
H1103 H 0.92952 0.58419 0.91023 0.0
C1104 C 0.01187 0.40426 0.95692 0.0
C1105 C 0.02824 0.388 0.93959 0.0
C1106 C 0.99463 0.44487 0.95747 0.0
C1107 C 0.99422 0.47039 0.94079 0.0
C1108 C 0.01261 0.45447 0.92372 0.0
C1109 C 0.02879 0.41357 0.92306 0.0
C1110 C 0.96103 0.58016 0.95732 0.0
C1111 C 0.94495 0.59725 0.94011 0.0
C1112 C 0.97618 0.53873 0.95773 0.0
C1113 C 0.97474 0.51329 0.94102 0.0
C1114 C 0.95581 0.52987 0.92421 0.0
C1115 C 0.94178 0.57158 0.92368 0.0
H1116 H 0.39811 0.94455 0.08847 0.0
H1117 H 0.38408 0.97598 0.02811 0.0
H1118 H 0.47016 0.97092 0.08799 0.0
H1119 H 0.45527 0.00529 0.02776 0.0
H1120 H 0.59961 0.02101 0.03022 0.0
H1121 H 0.52745 0.99459 0.02852 0.0
H1122 H 0.50744 0.03297 0.08793 0.0
H1123 H 0.58047 0.05636 0.08981 0.0
C1124 C 0.41071 0.957 0.07506 0.0
C1125 C 0.38584 0.95794 0.0583 0.0
C1126 C 0.45179 0.97283 0.07481 0.0
C1127 C 0.46859 0.99127 0.05793 0.0
C1128 C 0.44383 0.99108 0.04099 0.0
C1129 C 0.40302 0.9742 0.04114 0.0
C1130 C 0.57932 0.02452 0.04273 0.0
C1131 C 0.59537 0.04073 0.06013 0.0
C1132 C 0.53791 0.00928 0.04182 0.0
C1133 C 0.5115 0.01074 0.05821 0.0
C1134 C 0.52707 0.02978 0.0752 0.0
C1135 C 0.56871 0.04393 0.07624 0.0
H1136 H 0.47732 0.38688 0.78131 0.0
H1137 H 0.44412 0.40636 0.84115 0.0
H1138 H 0.50482 0.45875 0.77953 0.0
H1139 H 0.469 0.47879 0.83924 0.0
H1140 H 0.5567 0.58693 0.83992 0.0
H1141 H 0.53313 0.51395 0.83867 0.0
H1142 H 0.49318 0.53188 0.77937 0.0
H1143 H 0.51946 0.60428 0.78046 0.0
C1144 C 0.47455 0.40715 0.79387 0.0
C1145 C 0.45856 0.39129 0.81136 0.0
C1146 C 0.4905 0.44829 0.79291 0.0
C1147 C 0.49014 0.47449 0.80937 0.0
C1148 C 0.47135 0.4592 0.82646 0.0
C1149 C 0.45633 0.41792 0.82751 0.0
C1150 C 0.54401 0.57472 0.82648 0.0
C1151 C 0.54017 0.60091 0.81025 0.0
C1152 C 0.52972 0.53315 0.82582 0.0
C1153 C 0.51 0.51715 0.80908 0.0
C1154 C 0.50825 0.54288 0.79249 0.0
C1155 C 0.52351 0.58432 0.79304 0.0
H1156 H 0.60674 0.48114 0.2159 0.0
H1157 H 0.58927 0.44533 0.15626 0.0
H1158 H 0.53411 0.50643 0.21728 0.0
H1159 H 0.51587 0.46752 0.15782 0.0
H1160 H 0.40305 0.5505 0.15689 0.0
H1161 H 0.47647 0.52818 0.15767 0.0
H1162 H 0.46238 0.49336 0.21789 0.0
H1163 H 0.38977 0.51875 0.21723 0.0
C1164 C 0.58675 0.47737 0.2033 0.0
C1165 C 0.60333 0.46124 0.18599 0.0
C1166 C 0.5451 0.49195 0.20403 0.0
C1167 C 0.51898 0.48988 0.18755 0.0
C1168 C 0.53521 0.47117 0.17062 0.0
C1169 C 0.57708 0.4577 0.16976 0.0
C1170 C 0.41615 0.53899 0.17037 0.0
C1171 C 0.39106 0.53664 0.18702 0.0
C1172 C 0.45803 0.52544 0.17079 0.0
C1173 C 0.47543 0.50786 0.18774 0.0
C1174 C 0.45048 0.50696 0.20461 0.0
C1175 C 0.40884 0.52161 0.20429 0.0
H1176 H 0.48029 0.1036 0.46528 0.0
H1177 H 0.44386 0.09036 0.40549 0.0
H1178 H 0.50442 0.03066 0.46571 0.0
H1179 H 0.46464 0.0165 0.4061 0.0
H1180 H 0.54496 0.90125 0.40413 0.0
H1181 H 0.52339 0.97483 0.40537 0.0
H1182 H 0.49009 0.95982 0.46574 0.0
H1183 H 0.51494 0.88722 0.46464 0.0
C1184 C 0.47617 0.08445 0.45242 0.0
C1185 C 0.46015 0.10226 0.43538 0.0
C1186 C 0.49002 0.04259 0.45261 0.0
C1187 C 0.4872 0.01743 0.43584 0.0
C1188 C 0.46881 0.03501 0.41912 0.0
C1189 C 0.45615 0.07715 0.41881 0.0
C1190 C 0.53382 0.91416 0.41772 0.0
C1191 C 0.53192 0.88889 0.43432 0.0
C1192 C 0.52074 0.95616 0.41841 0.0
C1193 C 0.50405 0.97346 0.43557 0.0
C1194 C 0.50317 0.94812 0.45231 0.0
C1195 C 0.51743 0.90643 0.45172 0.0
H1196 H 0.90164 0.44874 0.59292 0.0
H1197 H 0.88683 0.48015 0.53262 0.0
H1198 H 0.97548 0.46953 0.59155 0.0
H1199 H 0.95982 0.50426 0.53138 0.0
H1200 H 0.10381 0.51381 0.5317 0.0
H1201 H 0.03083 0.48961 0.53127 0.0
H1202 H 0.01698 0.52846 0.591 0.0
H1203 H 0.09084 0.54938 0.59162 0.0
C1204 C 0.91448 0.45997 0.57934 0.0
C1205 C 0.88892 0.46256 0.56285 0.0
C1206 C 0.95662 0.47262 0.57857 0.0
C1207 C 0.97377 0.48959 0.56144 0.0
C1208 C 0.94818 0.491 0.54478 0.0
C1209 C 0.9063 0.47716 0.54544 0.0
C1210 C 0.08474 0.51767 0.5446 0.0
C1211 C 0.10265 0.53348 0.56168 0.0
C1212 C 0.04286 0.50379 0.5444 0.0
C1213 C 0.01778 0.50635 0.56119 0.0
C1214 C 0.03545 0.52448 0.57796 0.0
C1215 C 0.07759 0.5372 0.57829 0.0
loop_
_geom_bond_atom_site_label_1
_geom_bond_atom_site_label_2
_geom_bond_distance
_geom_bond_site_symmetry_2
_ccdc_geom_bond_type
Mn0 O5 2.095 . S
Mn0 O15 2.162 . S
Mn0 O16 2.297 . S
Mn0 O24 2.385 . S
Mn0 O25 2.209 . S
Mn0 O26 2.094 . S
Mn1 O6 2.121 . S
Mn1 N8 2.257 1_455 S
Mn1 N17 2.282 1_455 S
Mn1 O25 2.215 . S
Mn1 O27 2.117 . S
C2 O24 1.234 . S
C2 O25 1.283 . S
C3 O15 1.281 . S
C3 O16 1.236 . S
C4 O26 1.240 . S
C4 O27 1.264 . S
O5 Mn0 2.095 . S
O5 C14 1.250 . S
O6 Mn1 2.121 . S
O6 C14 1.258 . S
C7 N8 1.326 1_455 S
C7 C11 1.460 1_455 S
C7 H13 0.929 . S
N8 Mn1 2.257 1_655 S
N8 C7 1.326 1_655 S
N8 C12 1.362 . S
C9 C10 1.258 . S
C9 C12 1.431 . S
C9 C29 1.449 . S
C10 C9 1.258 . S
C10 C11 1.477 . S
C10 H30 0.931 . S
C11 C7 1.460 1_655 S
C11 C10 1.477 . S
C11 H31 0.930 . S
C12 N8 1.362 . S
C12 C9 1.431 . S
C12 C22 1.476 . S
H13 C7 0.929 . S
C14 O5 1.250 . S
C14 O6 1.258 . S
O15 Mn0 2.162 . S
O15 C3 1.281 . S
O16 Mn0 2.297 . S
O16 C3 1.236 . S
N17 Mn1 2.282 1_655 S
N17 C18 1.328 . S
N17 C22 1.318 . S
C18 N17 1.328 . S
C18 C19 1.457 . S
C18 H23 0.929 . S
C19 C18 1.457 . S
C19 C20 1.291 . S
C19 H32 0.931 . S
C20 C19 1.291 . S
C20 C21 1.373 . S
C20 H33 0.929 . S
C21 C20 1.373 . S
C21 C22 1.396 . S
C21 C28 1.403 . S
C22 C12 1.476 . S
C22 N17 1.318 . S
C22 C21 1.396 . S
H23 C18 0.929 . S
O24 Mn0 2.385 . S
O24 C2 1.234 . S
O25 Mn0 2.209 . S
O25 Mn1 2.215 . S
O25 C2 1.283 . S
O26 Mn0 2.094 . S
O26 C4 1.240 . S
O27 Mn1 2.117 . S
O27 C4 1.264 . S
C28 C21 1.403 . S
C28 C29 1.399 . S
C28 H34 0.929 . S
C29 C9 1.449 . S
C29 C28 1.399 . S
C29 H35 0.930 . S
H30 C10 0.931 . S
H31 C11 0.930 . S
H32 C19 0.931 . S
H33 C20 0.929 . S
H34 C28 0.929 . S
H35 C29 0.930 . S
Mn36 O41 2.095 . S
Mn36 O51 2.162 . S
Mn36 O52 2.297 . S
Mn36 O60 2.385 . S
Mn36 O61 2.209 . S
Mn36 O62 2.094 . S
Mn37 O42 2.121 . S
Mn37 N44 2.257 1_565 S
Mn37 N53 2.282 1_565 S
Mn37 O61 2.215 . S
Mn37 O63 2.117 . S
C38 O60 1.234 . S
C38 O61 1.283 . S
C39 O51 1.281 . S
C39 O52 1.236 . S
C40 O62 1.240 . S
C40 O63 1.264 . S
O41 Mn36 2.095 . S
O41 C50 1.250 . S
O42 Mn37 2.121 . S
O42 C50 1.258 . S
C43 N44 1.326 1_565 S
C43 C47 1.460 1_565 S
C43 H49 0.929 . S
N44 Mn37 2.257 1_545 S
N44 C43 1.326 1_545 S
N44 C48 1.362 . S
C45 C46 1.258 . S
C45 C48 1.431 . S
C45 C65 1.449 . S
C46 C45 1.258 . S
C46 C47 1.477 . S
C46 H66 0.931 . S
C47 C43 1.460 1_545 S
C47 C46 1.477 . S
C47 H67 0.930 . S
C48 N44 1.362 . S
C48 C45 1.431 . S
C48 C58 1.476 . S
H49 C43 0.929 . S
C50 O41 1.250 . S
C50 O42 1.258 . S
O51 Mn36 2.162 . S
O51 C39 1.281 . S
O52 Mn36 2.297 . S
O52 C39 1.236 . S
N53 Mn37 2.282 1_545 S
N53 C54 1.328 . S
N53 C58 1.318 . S
C54 N53 1.328 . S
C54 C55 1.457 . S
C54 H59 0.929 . S
C55 C54 1.457 . S
C55 C56 1.291 . S
C55 H68 0.931 . S
C56 C55 1.291 . S
C56 C57 1.373 . S
C56 H69 0.929 . S
C57 C56 1.373 . S
C57 C58 1.396 . S
C57 C64 1.403 . S
C58 C48 1.476 . S
C58 N53 1.318 . S
C58 C57 1.396 . S
H59 C54 0.929 . S
O60 Mn36 2.385 . S
O60 C38 1.234 . S
O61 Mn36 2.209 . S
O61 Mn37 2.215 . S
O61 C38 1.283 . S
O62 Mn36 2.094 . S
O62 C40 1.240 . S
O63 Mn37 2.117 . S
O63 C40 1.264 . S
C64 C57 1.403 . S
C64 C65 1.399 . S
C64 H70 0.929 . S
C65 C45 1.449 . S
C65 C64 1.399 . S
C65 H71 0.930 . S
H66 C46 0.931 . S
H67 C47 0.930 . S
H68 C55 0.931 . S
H69 C56 0.929 . S
H70 C64 0.929 . S
H71 C65 0.930 . S
Mn72 O77 2.095 . S
Mn72 O87 2.162 . S
Mn72 O88 2.297 . S
Mn72 O96 2.385 . S
Mn72 O97 2.209 . S
Mn72 O98 2.094 . S
Mn73 O78 2.121 . S
Mn73 N80 2.257 1_655 S
Mn73 N89 2.282 1_655 S
Mn73 O97 2.215 . S
Mn73 O99 2.117 . S
C74 O96 1.234 . S
C74 O97 1.283 . S
C75 O87 1.281 . S
C75 O88 1.236 . S
C76 O98 1.240 . S
C76 O99 1.264 . S
O77 Mn72 2.095 . S
O77 C86 1.250 . S
O78 Mn73 2.121 . S
O78 C86 1.258 . S
C79 N80 1.326 1_655 S
C79 C83 1.460 1_655 S
C79 H85 0.929 . S
N80 Mn73 2.257 1_455 S
N80 C79 1.326 1_455 S
N80 C84 1.362 . S
C81 C82 1.258 . S
C81 C84 1.431 . S
C81 C101 1.449 . S
C82 C81 1.258 . S
C82 C83 1.477 . S
C82 H102 0.931 . S
C83 C79 1.460 1_455 S
C83 C82 1.477 . S
C83 H103 0.930 . S
C84 N80 1.362 . S
C84 C81 1.431 . S
C84 C94 1.476 . S
H85 C79 0.929 . S
C86 O77 1.250 . S
C86 O78 1.258 . S
O87 Mn72 2.162 . S
O87 C75 1.281 . S
O88 Mn72 2.297 . S
O88 C75 1.236 . S
N89 Mn73 2.282 1_455 S
N89 C90 1.328 . S
N89 C94 1.318 . S
C90 N89 1.328 . S
C90 C91 1.457 . S
C90 H95 0.929 . S
C91 C90 1.457 . S
C91 C92 1.291 . S
C91 H104 0.931 . S
C92 C91 1.291 . S
C92 C93 1.373 . S
C92 H105 0.929 . S
C93 C92 1.373 . S
C93 C94 1.396 . S
C93 C100 1.403 . S
C94 C84 1.476 . S
C94 N89 1.318 . S
C94 C93 1.396 . S
H95 C90 0.929 . S
O96 Mn72 2.385 . S
O96 C74 1.234 . S
O97 Mn72 2.209 . S
O97 Mn73 2.215 . S
O97 C74 1.283 . S
O98 Mn72 2.094 . S
O98 C76 1.240 . S
O99 Mn73 2.117 . S
O99 C76 1.264 . S
C100 C93 1.403 . S
C100 C101 1.399 . S
C100 H106 0.929 . S
C101 C81 1.449 . S
C101 C100 1.399 . S
C101 H107 0.930 . S
H102 C82 0.931 . S
H103 C83 0.930 . S
H104 C91 0.931 . S
H105 C92 0.929 . S
H106 C100 0.929 . S
H107 C101 0.930 . S
Mn108 O113 2.095 . S
Mn108 O123 2.162 . S
Mn108 O124 2.297 . S
Mn108 O132 2.385 . S
Mn108 O133 2.209 . S
Mn108 O134 2.094 . S
Mn109 O114 2.121 . S
Mn109 N116 2.257 1_545 S
Mn109 N125 2.282 1_545 S
Mn109 O133 2.215 . S
Mn109 O135 2.117 . S
C110 O132 1.234 . S
C110 O133 1.283 . S
C111 O123 1.281 . S
C111 O124 1.236 . S
C112 O134 1.240 . S
C112 O135 1.264 . S
O113 Mn108 2.095 . S
O113 C122 1.250 . S
O114 Mn109 2.121 . S
O114 C122 1.258 . S
C115 N116 1.326 1_545 S
C115 C119 1.460 1_545 S
C115 H121 0.929 . S
N116 Mn109 2.257 1_565 S
N116 C115 1.326 1_565 S
N116 C120 1.362 . S
C117 C118 1.258 . S
C117 C120 1.431 . S
C117 C137 1.449 . S
C118 C117 1.258 . S
C118 C119 1.477 . S
C118 H138 0.931 . S
C119 C115 1.460 1_565 S
C119 C118 1.477 . S
C119 H139 0.930 . S
C120 N116 1.362 . S
C120 C117 1.431 . S
C120 C130 1.476 . S
H121 C115 0.929 . S
C122 O113 1.250 . S
C122 O114 1.258 . S
O123 Mn108 2.162 . S
O123 C111 1.281 . S
O124 Mn108 2.297 . S
O124 C111 1.236 . S
N125 Mn109 2.282 1_565 S
N125 C126 1.328 . S
N125 C130 1.318 . S
C126 N125 1.328 . S
C126 C127 1.457 . S
C126 H131 0.929 . S
C127 C126 1.457 . S
C127 C128 1.291 . S
C127 H140 0.931 . S
C128 C127 1.291 . S
C128 C129 1.373 . S
C128 H141 0.929 . S
C129 C128 1.373 . S
C129 C130 1.396 . S
C129 C136 1.403 . S
C130 C120 1.476 . S
C130 N125 1.318 . S
C130 C129 1.396 . S
H131 C126 0.929 . S
O132 Mn108 2.385 . S
O132 C110 1.234 . S
O133 Mn108 2.209 . S
O133 Mn109 2.215 . S
O133 C110 1.283 . S
O134 Mn108 2.094 . S
O134 C112 1.240 . S
O135 Mn109 2.117 . S
O135 C112 1.264 . S
C136 C129 1.403 . S
C136 C137 1.399 . S
C136 H142 0.929 . S
C137 C117 1.449 . S
C137 C136 1.399 . S
C137 H143 0.930 . S
H138 C118 0.931 . S
H139 C119 0.930 . S
H140 C127 0.931 . S
H141 C128 0.929 . S
H142 C136 0.929 . S
H143 C137 0.930 . S
Mn144 O149 2.095 . S
Mn144 O159 2.162 . S
Mn144 O160 2.297 . S
Mn144 O168 2.385 . S
Mn144 O169 2.209 . S
Mn144 O170 2.094 . S
Mn145 O150 2.121 . S
Mn145 N152 2.257 1_455 S
Mn145 N161 2.282 1_455 S
Mn145 O169 2.215 . S
Mn145 O171 2.117 . S
C146 O168 1.234 . S
C146 O169 1.283 . S
C147 O159 1.281 . S
C147 O160 1.236 . S
C148 O170 1.240 . S
C148 O171 1.264 . S
O149 Mn144 2.095 . S
O149 C158 1.250 . S
O150 Mn145 2.121 . S
O150 C158 1.258 . S
C151 N152 1.326 1_455 S
C151 C155 1.460 1_455 S
C151 H157 0.929 . S
N152 Mn145 2.257 1_655 S
N152 C151 1.326 1_655 S
N152 C156 1.362 . S
C153 C154 1.258 . S
C153 C156 1.431 . S
C153 C173 1.449 . S
C154 C153 1.258 . S
C154 C155 1.477 . S
C154 H174 0.931 . S
C155 C151 1.460 1_655 S
C155 C154 1.477 . S
C155 H175 0.930 . S
C156 N152 1.362 . S
C156 C153 1.431 . S
C156 C166 1.476 . S
H157 C151 0.929 . S
C158 O149 1.250 . S
C158 O150 1.258 . S
O159 Mn144 2.162 . S
O159 C147 1.281 . S
O160 Mn144 2.297 . S
O160 C147 1.236 . S
N161 Mn145 2.282 1_655 S
N161 C162 1.328 . S
N161 C166 1.318 . S
C162 N161 1.328 . S
C162 C163 1.457 . S
C162 H167 0.929 . S
C163 C162 1.457 . S
C163 C164 1.291 . S
C163 H176 0.931 . S
C164 C163 1.291 . S
C164 C165 1.373 . S
C164 H177 0.929 . S
C165 C164 1.373 . S
C165 C166 1.396 . S
C165 C172 1.403 . S
C166 C156 1.476 . S
C166 N161 1.318 . S
C166 C165 1.396 . S
H167 C162 0.929 . S
O168 Mn144 2.385 . S
O168 C146 1.234 . S
O169 Mn144 2.209 . S
O169 Mn145 2.215 . S
O169 C146 1.283 . S
O170 Mn144 2.094 . S
O170 C148 1.240 . S
O171 Mn145 2.117 . S
O171 C148 1.264 . S
C172 C165 1.403 . S
C172 C173 1.399 . S
C172 H178 0.929 . S
C173 C153 1.449 . S
C173 C172 1.399 . S
C173 H179 0.930 . S
H174 C154 0.931 . S
H175 C155 0.930 . S
H176 C163 0.931 . S
H177 C164 0.929 . S
H178 C172 0.929 . S
H179 C173 0.930 . S
Mn180 O185 2.095 . S
Mn180 O195 2.162 . S
Mn180 O196 2.297 . S
Mn180 O204 2.385 . S
Mn180 O205 2.209 . S
Mn180 O206 2.094 . S
Mn181 O186 2.121 . S
Mn181 N188 2.257 1_565 S
Mn181 N197 2.282 1_565 S
Mn181 O205 2.215 . S
Mn181 O207 2.117 . S
C182 O204 1.234 . S
C182 O205 1.283 . S
C183 O195 1.281 . S
C183 O196 1.236 . S
C184 O206 1.240 . S
C184 O207 1.264 . S
O185 Mn180 2.095 . S
O185 C194 1.250 . S
O186 Mn181 2.121 . S
O186 C194 1.258 . S
C187 N188 1.326 1_565 S
C187 C191 1.460 1_565 S
C187 H193 0.929 . S
N188 Mn181 2.257 1_545 S
N188 C187 1.326 1_545 S
N188 C192 1.362 . S
C189 C190 1.258 . S
C189 C192 1.431 . S
C189 C209 1.449 . S
C190 C189 1.258 . S
C190 C191 1.477 . S
C190 H210 0.931 . S
C191 C187 1.460 1_545 S
C191 C190 1.477 . S
C191 H211 0.930 . S
C192 N188 1.362 . S
C192 C189 1.431 . S
C192 C202 1.476 . S
H193 C187 0.929 . S
C194 O185 1.250 . S
C194 O186 1.258 . S
O195 Mn180 2.162 . S
O195 C183 1.281 . S
O196 Mn180 2.297 . S
O196 C183 1.236 . S
N197 Mn181 2.282 1_545 S
N197 C198 1.328 . S
N197 C202 1.318 . S
C198 N197 1.328 . S
C198 C199 1.457 . S
C198 H203 0.929 . S
C199 C198 1.457 . S
C199 C200 1.291 . S
C199 H212 0.931 . S
C200 C199 1.291 . S
C200 C201 1.373 . S
C200 H213 0.929 . S
C201 C200 1.373 . S
C201 C202 1.396 . S
C201 C208 1.403 . S
C202 C192 1.476 . S
C202 N197 1.318 . S
C202 C201 1.396 . S
H203 C198 0.929 . S
O204 Mn180 2.385 . S
O204 C182 1.234 . S
O205 Mn180 2.209 . S
O205 Mn181 2.215 . S
O205 C182 1.283 . S
O206 Mn180 2.094 . S
O206 C184 1.240 . S
O207 Mn181 2.117 . S
O207 C184 1.264 . S
C208 C201 1.403 . S
C208 C209 1.399 . S
C208 H214 0.929 . S
C209 C189 1.449 . S
C209 C208 1.399 . S
C209 H215 0.930 . S
H210 C190 0.931 . S
H211 C191 0.930 . S
H212 C199 0.931 . S
H213 C200 0.929 . S
H214 C208 0.929 . S
H215 C209 0.930 . S
Mn216 O221 2.095 . S
Mn216 O231 2.162 . S
Mn216 O232 2.297 . S
Mn216 O240 2.385 . S
Mn216 O241 2.209 . S
Mn216 O242 2.094 . S
Mn217 O222 2.121 . S
Mn217 N224 2.257 1_655 S
Mn217 N233 2.282 1_655 S
Mn217 O241 2.215 . S
Mn217 O243 2.117 . S
C218 O240 1.234 . S
C218 O241 1.283 . S
C219 O231 1.281 . S
C219 O232 1.236 . S
C220 O242 1.240 . S
C220 O243 1.264 . S
O221 Mn216 2.095 . S
O221 C230 1.250 . S
O222 Mn217 2.121 . S
O222 C230 1.258 . S
C223 N224 1.326 1_655 S
C223 C227 1.460 1_655 S
C223 H229 0.929 . S
N224 Mn217 2.257 1_455 S
N224 C223 1.326 1_455 S
N224 C228 1.362 . S
C225 C226 1.258 . S
C225 C228 1.431 . S
C225 C245 1.449 . S
C226 C225 1.258 . S
C226 C227 1.477 . S
C226 H246 0.931 . S
C227 C223 1.460 1_455 S
C227 C226 1.477 . S
C227 H247 0.930 . S
C228 N224 1.362 . S
C228 C225 1.431 . S
C228 C238 1.476 . S
H229 C223 0.929 . S
C230 O221 1.250 . S
C230 O222 1.258 . S
O231 Mn216 2.162 . S
O231 C219 1.281 . S
O232 Mn216 2.297 . S
O232 C219 1.236 . S
N233 Mn217 2.282 1_455 S
N233 C234 1.328 . S
N233 C238 1.318 . S
C234 N233 1.328 . S
C234 C235 1.457 . S
C234 H239 0.929 . S
C235 C234 1.457 . S
C235 C236 1.291 . S
C235 H248 0.931 . S
C236 C235 1.291 . S
C236 C237 1.373 . S
C236 H249 0.929 . S
C237 C236 1.373 . S
C237 C238 1.396 . S
C237 C244 1.403 . S
C238 C228 1.476 . S
C238 N233 1.318 . S
C238 C237 1.396 . S
H239 C234 0.929 . S
O240 Mn216 2.385 . S
O240 C218 1.234 . S
O241 Mn216 2.209 . S
O241 Mn217 2.215 . S
O241 C218 1.283 . S
O242 Mn216 2.094 . S
O242 C220 1.240 . S
O243 Mn217 2.117 . S
O243 C220 1.264 . S
C244 C237 1.403 . S
C244 C245 1.399 . S
C244 H250 0.929 . S
C245 C225 1.449 . S
C245 C244 1.399 . S
C245 H251 0.930 . S
H246 C226 0.931 . S
H247 C227 0.930 . S
H248 C235 0.931 . S
H249 C236 0.929 . S
H250 C244 0.929 . S
H251 C245 0.930 . S
Mn252 O257 2.095 . S
Mn252 O267 2.162 . S
Mn252 O268 2.297 . S
Mn252 O276 2.385 . S
Mn252 O277 2.209 . S
Mn252 O278 2.094 . S
Mn253 O258 2.121 . S
Mn253 N260 2.257 1_545 S
Mn253 N269 2.282 1_545 S
Mn253 O277 2.215 . S
Mn253 O279 2.117 . S
C254 O276 1.234 . S
C254 O277 1.283 . S
C255 O267 1.281 . S
C255 O268 1.236 . S
C256 O278 1.240 . S
C256 O279 1.264 . S
O257 Mn252 2.095 . S
O257 C266 1.250 . S
O258 Mn253 2.121 . S
O258 C266 1.258 . S
C259 N260 1.326 1_545 S
C259 C263 1.460 1_545 S
C259 H265 0.929 . S
N260 Mn253 2.257 1_565 S
N260 C259 1.326 1_565 S
N260 C264 1.362 . S
C261 C262 1.258 . S
C261 C264 1.431 . S
C261 C281 1.449 . S
C262 C261 1.258 . S
C262 C263 1.477 . S
C262 H282 0.931 . S
C263 C259 1.460 1_565 S
C263 C262 1.477 . S
C263 H283 0.930 . S
C264 N260 1.362 . S
C264 C261 1.431 . S
C264 C274 1.476 . S
H265 C259 0.929 . S
C266 O257 1.250 . S
C266 O258 1.258 . S
O267 Mn252 2.162 . S
O267 C255 1.281 . S
O268 Mn252 2.297 . S
O268 C255 1.236 . S
N269 Mn253 2.282 1_565 S
N269 C270 1.328 . S
N269 C274 1.318 . S
C270 N269 1.328 . S
C270 C271 1.457 . S
C270 H275 0.929 . S
C271 C270 1.457 . S
C271 C272 1.291 . S
C271 H284 0.931 . S
C272 C271 1.291 . S
C272 C273 1.373 . S
C272 H285 0.929 . S
C273 C272 1.373 . S
C273 C274 1.396 . S
C273 C280 1.403 . S
C274 C264 1.476 . S
C274 N269 1.318 . S
C274 C273 1.396 . S
H275 C270 0.929 . S
O276 Mn252 2.385 . S
O276 C254 1.234 . S
O277 Mn252 2.209 . S
O277 Mn253 2.215 . S
O277 C254 1.283 . S
O278 Mn252 2.094 . S
O278 C256 1.240 . S
O279 Mn253 2.117 . S
O279 C256 1.264 . S
C280 C273 1.403 . S
C280 C281 1.399 . S
C280 H286 0.929 . S
C281 C261 1.449 . S
C281 C280 1.399 . S
C281 H287 0.930 . S
H282 C262 0.931 . S
H283 C263 0.930 . S
H284 C271 0.931 . S
H285 C272 0.929 . S
H286 C280 0.929 . S
H287 C281 0.930 . S
Mn288 O293 2.095 . S
Mn288 O303 2.162 . S
Mn288 O304 2.297 . S
Mn288 O312 2.385 . S
Mn288 O313 2.209 . S
Mn288 O314 2.094 . S
Mn289 O294 2.121 . S
Mn289 N296 2.257 . S
Mn289 N305 2.282 . S
Mn289 O313 2.215 . S
Mn289 O315 2.117 . S
C290 O312 1.234 . S
C290 O313 1.283 . S
C291 O303 1.281 . S
C291 O304 1.236 . S
C292 O314 1.240 . S
C292 O315 1.264 . S
O293 Mn288 2.095 . S
O293 C302 1.250 . S
O294 Mn289 2.121 . S
O294 C302 1.258 . S
C295 N296 1.326 . S
C295 C299 1.460 . S
C295 H301 0.929 . S
N296 Mn289 2.257 . S
N296 C295 1.326 . S
N296 C300 1.362 . S
C297 C298 1.258 . S
C297 C300 1.431 . S
C297 C317 1.449 . S
C298 C297 1.258 . S
C298 C299 1.477 . S
C298 H318 0.931 . S
C299 C295 1.460 . S
C299 C298 1.477 . S
C299 H319 0.930 . S
C300 N296 1.362 . S
C300 C297 1.431 . S
C300 C310 1.476 . S
H301 C295 0.929 . S
C302 O293 1.250 . S
C302 O294 1.258 . S
O303 Mn288 2.162 . S
O303 C291 1.281 . S
O304 Mn288 2.297 . S
O304 C291 1.236 . S
N305 Mn289 2.282 . S
N305 C306 1.328 . S
N305 C310 1.318 . S
C306 N305 1.328 . S
C306 C307 1.457 . S
C306 H311 0.929 . S
C307 C306 1.457 . S
C307 C308 1.291 . S
C307 H320 0.931 . S
C308 C307 1.291 . S
C308 C309 1.373 . S
C308 H321 0.929 . S
C309 C308 1.373 . S
C309 C310 1.396 . S
C309 C316 1.403 . S
C310 C300 1.476 . S
C310 N305 1.318 . S
C310 C309 1.396 . S
H311 C306 0.929 . S
O312 Mn288 2.385 . S
O312 C290 1.234 . S
O313 Mn288 2.209 . S
O313 Mn289 2.215 . S
O313 C290 1.283 . S
O314 Mn288 2.094 . S
O314 C292 1.240 . S
O315 Mn289 2.117 . S
O315 C292 1.264 . S
C316 C309 1.403 . S
C316 C317 1.399 . S
C316 H322 0.929 . S
C317 C297 1.449 . S
C317 C316 1.399 . S
C317 H323 0.930 . S
H318 C298 0.931 . S
H319 C299 0.930 . S
H320 C307 0.931 . S
H321 C308 0.929 . S
H322 C316 0.929 . S
H323 C317 0.930 . S
Mn324 O329 2.095 . S
Mn324 O339 2.162 . S
Mn324 O340 2.297 . S
Mn324 O348 2.385 . S
Mn324 O349 2.209 . S
Mn324 O350 2.094 . S
Mn325 O330 2.121 . S
Mn325 N332 2.257 . S
Mn325 N341 2.282 . S
Mn325 O349 2.215 . S
Mn325 O351 2.117 . S
C326 O348 1.234 . S
C326 O349 1.283 . S
C327 O339 1.281 . S
C327 O340 1.236 . S
C328 O350 1.240 . S
C328 O351 1.264 . S
O329 Mn324 2.095 . S
O329 C338 1.250 . S
O330 Mn325 2.121 . S
O330 C338 1.258 . S
C331 N332 1.326 . S
C331 C335 1.460 . S
C331 H337 0.929 . S
N332 Mn325 2.257 . S
N332 C331 1.326 . S
N332 C336 1.362 . S
C333 C334 1.258 . S
C333 C336 1.431 . S
C333 C353 1.449 . S
C334 C333 1.258 . S
C334 C335 1.477 . S
C334 H354 0.931 . S
C335 C331 1.460 . S
C335 C334 1.477 . S
C335 H355 0.930 . S
C336 N332 1.362 . S
C336 C333 1.431 . S
C336 C346 1.476 . S
H337 C331 0.929 . S
C338 O329 1.250 . S
C338 O330 1.258 . S
O339 Mn324 2.162 . S
O339 C327 1.281 . S
O340 Mn324 2.297 . S
O340 C327 1.236 . S
N341 Mn325 2.282 . S
N341 C342 1.328 . S
N341 C346 1.318 . S
C342 N341 1.328 . S
C342 C343 1.457 . S
C342 H347 0.929 . S
C343 C342 1.457 . S
C343 C344 1.291 . S
C343 H356 0.931 . S
C344 C343 1.291 . S
C344 C345 1.373 . S
C344 H357 0.929 . S
C345 C344 1.373 . S
C345 C346 1.396 . S
C345 C352 1.403 . S
C346 C336 1.476 . S
C346 N341 1.318 . S
C346 C345 1.396 . S
H347 C342 0.929 . S
O348 Mn324 2.385 . S
O348 C326 1.234 . S
O349 Mn324 2.209 . S
O349 Mn325 2.215 . S
O349 C326 1.283 . S
O350 Mn324 2.094 . S
O350 C328 1.240 . S
O351 Mn325 2.117 . S
O351 C328 1.264 . S
C352 C345 1.403 . S
C352 C353 1.399 . S
C352 H358 0.929 . S
C353 C333 1.449 . S
C353 C352 1.399 . S
C353 H359 0.930 . S
H354 C334 0.931 . S
H355 C335 0.930 . S
H356 C343 0.931 . S
H357 C344 0.929 . S
H358 C352 0.929 . S
H359 C353 0.930 . S
Mn360 O365 2.095 . S
Mn360 O375 2.162 . S
Mn360 O376 2.297 . S
Mn360 O384 2.385 . S
Mn360 O385 2.209 . S
Mn360 O386 2.094 . S
Mn361 O366 2.121 . S
Mn361 N368 2.257 . S
Mn361 N377 2.282 . S
Mn361 O385 2.215 . S
Mn361 O387 2.117 . S
C362 O384 1.234 . S
C362 O385 1.283 . S
C363 O375 1.281 . S
C363 O376 1.236 . S
C364 O386 1.240 . S
C364 O387 1.264 . S
O365 Mn360 2.095 . S
O365 C374 1.250 . S
O366 Mn361 2.121 . S
O366 C374 1.258 . S
C367 N368 1.326 . S
C367 C371 1.460 . S
C367 H373 0.929 . S
N368 Mn361 2.257 . S
N368 C367 1.326 . S
N368 C372 1.362 . S
C369 C370 1.258 . S
C369 C372 1.431 . S
C369 C389 1.449 . S
C370 C369 1.258 . S
C370 C371 1.477 . S
C370 H390 0.931 . S
C371 C367 1.460 . S
C371 C370 1.477 . S
C371 H391 0.930 . S
C372 N368 1.362 . S
C372 C369 1.431 . S
C372 C382 1.476 . S
H373 C367 0.929 . S
C374 O365 1.250 . S
C374 O366 1.258 . S
O375 Mn360 2.162 . S
O375 C363 1.281 . S
O376 Mn360 2.297 . S
O376 C363 1.236 . S
N377 Mn361 2.282 . S
N377 C378 1.328 . S
N377 C382 1.318 . S
C378 N377 1.328 . S
C378 C379 1.457 . S
C378 H383 0.929 . S
C379 C378 1.457 . S
C379 C380 1.291 . S
C379 H392 0.931 . S
C380 C379 1.291 . S
C380 C381 1.373 . S
C380 H393 0.929 . S
C381 C380 1.373 . S
C381 C382 1.396 . S
C381 C388 1.403 . S
C382 C372 1.476 . S
C382 N377 1.318 . S
C382 C381 1.396 . S
H383 C378 0.929 . S
O384 Mn360 2.385 . S
O384 C362 1.234 . S
O385 Mn360 2.209 . S
O385 Mn361 2.215 . S
O385 C362 1.283 . S
O386 Mn360 2.094 . S
O386 C364 1.240 . S
O387 Mn361 2.117 . S
O387 C364 1.264 . S
C388 C381 1.403 . S
C388 C389 1.399 . S
C388 H394 0.929 . S
C389 C369 1.449 . S
C389 C388 1.399 . S
C389 H395 0.930 . S
H390 C370 0.931 . S
H391 C371 0.930 . S
H392 C379 0.931 . S
H393 C380 0.929 . S
H394 C388 0.929 . S
H395 C389 0.930 . S
Mn396 O401 2.095 . S
Mn396 O411 2.162 . S
Mn396 O412 2.297 . S
Mn396 O420 2.385 . S
Mn396 O421 2.209 . S
Mn396 O422 2.094 . S
Mn397 O402 2.121 . S
Mn397 N404 2.257 . S
Mn397 N413 2.282 . S
Mn397 O421 2.215 . S
Mn397 O423 2.117 . S
C398 O420 1.234 . S
C398 O421 1.283 . S
C399 O411 1.281 . S
C399 O412 1.236 . S
C400 O422 1.240 . S
C400 O423 1.264 . S
O401 Mn396 2.095 . S
O401 C410 1.250 . S
O402 Mn397 2.121 . S
O402 C410 1.258 . S
C403 N404 1.326 . S
C403 C407 1.460 . S
C403 H409 0.929 . S
N404 Mn397 2.257 . S
N404 C403 1.326 . S
N404 C408 1.362 . S
C405 C406 1.258 . S
C405 C408 1.431 . S
C405 C425 1.449 . S
C406 C405 1.258 . S
C406 C407 1.477 . S
C406 H426 0.931 . S
C407 C403 1.460 . S
C407 C406 1.477 . S
C407 H427 0.930 . S
C408 N404 1.362 . S
C408 C405 1.431 . S
C408 C418 1.476 . S
H409 C403 0.929 . S
C410 O401 1.250 . S
C410 O402 1.258 . S
O411 Mn396 2.162 . S
O411 C399 1.281 . S
O412 Mn396 2.297 . S
O412 C399 1.236 . S
N413 Mn397 2.282 . S
N413 C414 1.328 . S
N413 C418 1.318 . S
C414 N413 1.328 . S
C414 C415 1.457 . S
C414 H419 0.929 . S
C415 C414 1.457 . S
C415 C416 1.291 . S
C415 H428 0.931 . S
C416 C415 1.291 . S
C416 C417 1.373 . S
C416 H429 0.929 . S
C417 C416 1.373 . S
C417 C418 1.396 . S
C417 C424 1.403 . S
C418 C408 1.476 . S
C418 N413 1.318 . S
C418 C417 1.396 . S
H419 C414 0.929 . S
O420 Mn396 2.385 . S
O420 C398 1.234 . S
O421 Mn396 2.209 . S
O421 Mn397 2.215 . S
O421 C398 1.283 . S
O422 Mn396 2.094 . S
O422 C400 1.240 . S
O423 Mn397 2.117 . S
O423 C400 1.264 . S
C424 C417 1.403 . S
C424 C425 1.399 . S
C424 H430 0.929 . S
C425 C405 1.449 . S
C425 C424 1.399 . S
C425 H431 0.930 . S
H426 C406 0.931 . S
H427 C407 0.930 . S
H428 C415 0.931 . S
H429 C416 0.929 . S
H430 C424 0.929 . S
H431 C425 0.930 . S
Mn432 O437 2.095 . S
Mn432 O447 2.162 . S
Mn432 O448 2.297 . S
Mn432 O456 2.385 . S
Mn432 O457 2.209 . S
Mn432 O458 2.094 . S
Mn433 O438 2.121 . S
Mn433 N440 2.257 . S
Mn433 N449 2.282 . S
Mn433 O457 2.215 . S
Mn433 O459 2.117 . S
C434 O456 1.234 . S
C434 O457 1.283 . S
C435 O447 1.281 . S
C435 O448 1.236 . S
C436 O458 1.240 . S
C436 O459 1.264 . S
O437 Mn432 2.095 . S
O437 C446 1.250 . S
O438 Mn433 2.121 . S
O438 C446 1.258 . S
C439 N440 1.326 . S
C439 C443 1.460 . S
C439 H445 0.929 . S
N440 Mn433 2.257 . S
N440 C439 1.326 . S
N440 C444 1.362 . S
C441 C442 1.258 . S
C441 C444 1.431 . S
C441 C461 1.449 . S
C442 C441 1.258 . S
C442 C443 1.477 . S
C442 H462 0.931 . S
C443 C439 1.460 . S
C443 C442 1.477 . S
C443 H463 0.930 . S
C444 N440 1.362 . S
C444 C441 1.431 . S
C444 C454 1.476 . S
H445 C439 0.929 . S
C446 O437 1.250 . S
C446 O438 1.258 . S
O447 Mn432 2.162 . S
O447 C435 1.281 . S
O448 Mn432 2.297 . S
O448 C435 1.236 . S
N449 Mn433 2.282 . S
N449 C450 1.328 . S
N449 C454 1.318 . S
C450 N449 1.328 . S
C450 C451 1.457 . S
C450 H455 0.929 . S
C451 C450 1.457 . S
C451 C452 1.291 . S
C451 H464 0.931 . S
C452 C451 1.291 . S
C452 C453 1.373 . S
C452 H465 0.929 . S
C453 C452 1.373 . S
C453 C454 1.396 . S
C453 C460 1.403 . S
C454 C444 1.476 . S
C454 N449 1.318 . S
C454 C453 1.396 . S
H455 C450 0.929 . S
O456 Mn432 2.385 . S
O456 C434 1.234 . S
O457 Mn432 2.209 . S
O457 Mn433 2.215 . S
O457 C434 1.283 . S
O458 Mn432 2.094 . S
O458 C436 1.240 . S
O459 Mn433 2.117 . S
O459 C436 1.264 . S
C460 C453 1.403 . S
C460 C461 1.399 . S
C460 H466 0.929 . S
C461 C441 1.449 . S
C461 C460 1.399 . S
C461 H467 0.930 . S
H462 C442 0.931 . S
H463 C443 0.930 . S
H464 C451 0.931 . S
H465 C452 0.929 . S
H466 C460 0.929 . S
H467 C461 0.930 . S
Mn468 O473 2.095 . S
Mn468 O483 2.162 . S
Mn468 O484 2.297 . S
Mn468 O492 2.385 . S
Mn468 O493 2.209 . S
Mn468 O494 2.094 . S
Mn469 O474 2.121 . S
Mn469 N476 2.257 . S
Mn469 N485 2.282 . S
Mn469 O493 2.215 . S
Mn469 O495 2.117 . S
C470 O492 1.234 . S
C470 O493 1.283 . S
C471 O483 1.281 . S
C471 O484 1.236 . S
C472 O494 1.240 . S
C472 O495 1.264 . S
O473 Mn468 2.095 . S
O473 C482 1.250 . S
O474 Mn469 2.121 . S
O474 C482 1.258 . S
C475 N476 1.326 . S
C475 C479 1.460 . S
C475 H481 0.929 . S
N476 Mn469 2.257 . S
N476 C475 1.326 . S
N476 C480 1.362 . S
C477 C478 1.258 . S
C477 C480 1.431 . S
C477 C497 1.449 . S
C478 C477 1.258 . S
C478 C479 1.477 . S
C478 H498 0.931 . S
C479 C475 1.460 . S
C479 C478 1.477 . S
C479 H499 0.930 . S
C480 N476 1.362 . S
C480 C477 1.431 . S
C480 C490 1.476 . S
H481 C475 0.929 . S
C482 O473 1.250 . S
C482 O474 1.258 . S
O483 Mn468 2.162 . S
O483 C471 1.281 . S
O484 Mn468 2.297 . S
O484 C471 1.236 . S
N485 Mn469 2.282 . S
N485 C486 1.328 . S
N485 C490 1.318 . S
C486 N485 1.328 . S
C486 C487 1.457 . S
C486 H491 0.929 . S
C487 C486 1.457 . S
C487 C488 1.291 . S
C487 H500 0.931 . S
C488 C487 1.291 . S
C488 C489 1.373 . S
C488 H501 0.929 . S
C489 C488 1.373 . S
C489 C490 1.396 . S
C489 C496 1.403 . S
C490 C480 1.476 . S
C490 N485 1.318 . S
C490 C489 1.396 . S
H491 C486 0.929 . S
O492 Mn468 2.385 . S
O492 C470 1.234 . S
O493 Mn468 2.209 . S
O493 Mn469 2.215 . S
O493 C470 1.283 . S
O494 Mn468 2.094 . S
O494 C472 1.240 . S
O495 Mn469 2.117 . S
O495 C472 1.264 . S
C496 C489 1.403 . S
C496 C497 1.399 . S
C496 H502 0.929 . S
C497 C477 1.449 . S
C497 C496 1.399 . S
C497 H503 0.930 . S
H498 C478 0.931 . S
H499 C479 0.930 . S
H500 C487 0.931 . S
H501 C488 0.929 . S
H502 C496 0.929 . S
H503 C497 0.930 . S
Mn504 O509 2.095 . S
Mn504 O519 2.162 . S
Mn504 O520 2.297 . S
Mn504 O528 2.385 . S
Mn504 O529 2.209 . S
Mn504 O530 2.094 . S
Mn505 O510 2.121 . S
Mn505 N512 2.257 . S
Mn505 N521 2.282 . S
Mn505 O529 2.215 . S
Mn505 O531 2.117 . S
C506 O528 1.234 . S
C506 O529 1.283 . S
C507 O519 1.281 . S
C507 O520 1.236 . S
C508 O530 1.240 . S
C508 O531 1.264 . S
O509 Mn504 2.095 . S
O509 C518 1.250 . S
O510 Mn505 2.121 . S
O510 C518 1.258 . S
C511 N512 1.326 . S
C511 C515 1.460 . S
C511 H517 0.929 . S
N512 Mn505 2.257 . S
N512 C511 1.326 . S
N512 C516 1.362 . S
C513 C514 1.258 . S
C513 C516 1.431 . S
C513 C533 1.449 . S
C514 C513 1.258 . S
C514 C515 1.477 . S
C514 H534 0.931 . S
C515 C511 1.460 . S
C515 C514 1.477 . S
C515 H535 0.930 . S
C516 N512 1.362 . S
C516 C513 1.431 . S
C516 C526 1.476 . S
H517 C511 0.929 . S
C518 O509 1.250 . S
C518 O510 1.258 . S
O519 Mn504 2.162 . S
O519 C507 1.281 . S
O520 Mn504 2.297 . S
O520 C507 1.236 . S
N521 Mn505 2.282 . S
N521 C522 1.328 . S
N521 C526 1.318 . S
C522 N521 1.328 . S
C522 C523 1.457 . S
C522 H527 0.929 . S
C523 C522 1.457 . S
C523 C524 1.291 . S
C523 H536 0.931 . S
C524 C523 1.291 . S
C524 C525 1.373 . S
C524 H537 0.929 . S
C525 C524 1.373 . S
C525 C526 1.396 . S
C525 C532 1.403 . S
C526 C516 1.476 . S
C526 N521 1.318 . S
C526 C525 1.396 . S
H527 C522 0.929 . S
O528 Mn504 2.385 . S
O528 C506 1.234 . S
O529 Mn504 2.209 . S
O529 Mn505 2.215 . S
O529 C506 1.283 . S
O530 Mn504 2.094 . S
O530 C508 1.240 . S
O531 Mn505 2.117 . S
O531 C508 1.264 . S
C532 C525 1.403 . S
C532 C533 1.399 . S
C532 H538 0.929 . S
C533 C513 1.449 . S
C533 C532 1.399 . S
C533 H539 0.930 . S
H534 C514 0.931 . S
H535 C515 0.930 . S
H536 C523 0.931 . S
H537 C524 0.929 . S
H538 C532 0.929 . S
H539 C533 0.930 . S
Mn540 O545 2.095 . S
Mn540 O555 2.162 . S
Mn540 O556 2.297 . S
Mn540 O564 2.385 . S
Mn540 O565 2.209 . S
Mn540 O566 2.094 . S
Mn541 O546 2.121 . S
Mn541 N548 2.257 . S
Mn541 N557 2.282 . S
Mn541 O565 2.215 . S
Mn541 O567 2.117 . S
C542 O564 1.234 . S
C542 O565 1.283 . S
C543 O555 1.281 . S
C543 O556 1.236 . S
C544 O566 1.240 . S
C544 O567 1.264 . S
O545 Mn540 2.095 . S
O545 C554 1.250 . S
O546 Mn541 2.121 . S
O546 C554 1.258 . S
C547 N548 1.326 . S
C547 C551 1.460 . S
C547 H553 0.929 . S
N548 Mn541 2.257 . S
N548 C547 1.326 . S
N548 C552 1.362 . S
C549 C550 1.258 . S
C549 C552 1.431 . S
C549 C569 1.449 . S
C550 C549 1.258 . S
C550 C551 1.477 . S
C550 H570 0.931 . S
C551 C547 1.460 . S
C551 C550 1.477 . S
C551 H571 0.930 . S
C552 N548 1.362 . S
C552 C549 1.431 . S
C552 C562 1.476 . S
H553 C547 0.929 . S
C554 O545 1.250 . S
C554 O546 1.258 . S
O555 Mn540 2.162 . S
O555 C543 1.281 . S
O556 Mn540 2.297 . S
O556 C543 1.236 . S
N557 Mn541 2.282 . S
N557 C558 1.328 . S
N557 C562 1.318 . S
C558 N557 1.328 . S
C558 C559 1.457 . S
C558 H563 0.929 . S
C559 C558 1.457 . S
C559 C560 1.291 . S
C559 H572 0.931 . S
C560 C559 1.291 . S
C560 C561 1.373 . S
C560 H573 0.929 . S
C561 C560 1.373 . S
C561 C562 1.396 . S
C561 C568 1.403 . S
C562 C552 1.476 . S
C562 N557 1.318 . S
C562 C561 1.396 . S
H563 C558 0.929 . S
O564 Mn540 2.385 . S
O564 C542 1.234 . S
O565 Mn540 2.209 . S
O565 Mn541 2.215 . S
O565 C542 1.283 . S
O566 Mn540 2.094 . S
O566 C544 1.240 . S
O567 Mn541 2.117 . S
O567 C544 1.264 . S
C568 C561 1.403 . S
C568 C569 1.399 . S
C568 H574 0.929 . S
C569 C549 1.449 . S
C569 C568 1.399 . S
C569 H575 0.930 . S
H570 C550 0.931 . S
H571 C551 0.930 . S
H572 C559 0.931 . S
H573 C560 0.929 . S
H574 C568 0.929 . S
H575 C569 0.930 . S
H576 C584 0.950 . S
H577 C589 0.950 . S
H578 C586 0.950 . S
H579 C588 0.950 . S
H580 C590 0.950 . S
H581 C592 0.950 . S
H582 C594 0.950 . S
H583 C595 0.950 . S
C584 H576 0.950 . S
C584 C585 1.386 . S
C584 C586 1.391 . S
C585 C584 1.386 . S
C585 C589 1.393 . S
C586 H578 0.950 . S
C586 C584 1.391 . S
C586 C587 1.400 . S
C587 C586 1.400 . S
C587 C588 1.398 . S
C587 C593 1.491 . S
C588 H579 0.950 . S
C588 C587 1.398 . S
C588 C589 1.391 . S
C589 H577 0.950 . S
C589 C585 1.393 . S
C589 C588 1.391 . S
C590 H580 0.950 . S
C590 C591 1.386 . S
C590 C592 1.391 . S
C591 C590 1.386 . S
C591 C595 1.393 . S
C592 H581 0.950 . S
C592 C590 1.391 . S
C592 C593 1.400 . S
C593 C587 1.491 . S
C593 C592 1.400 . S
C593 C594 1.398 . S
C594 H582 0.950 . S
C594 C593 1.398 . S
C594 C595 1.391 . S
C595 H583 0.950 . S
C595 C591 1.393 . S
C595 C594 1.391 . S
H596 C604 0.950 . S
H597 C609 0.950 . S
H598 C606 0.950 . S
H599 C608 0.950 . S
H600 C610 0.950 . S
H601 C612 0.950 . S
H602 C614 0.950 . S
H603 C615 0.950 . S
C604 H596 0.950 . S
C604 C605 1.386 . S
C604 C606 1.391 . S
C605 C604 1.386 . S
C605 C609 1.393 . S
C606 H598 0.950 . S
C606 C604 1.391 . S
C606 C607 1.400 . S
C607 C606 1.400 . S
C607 C608 1.398 . S
C607 C613 1.491 . S
C608 H599 0.950 . S
C608 C607 1.398 . S
C608 C609 1.391 . S
C609 H597 0.950 . S
C609 C605 1.393 . S
C609 C608 1.391 . S
C610 H600 0.950 . S
C610 C611 1.386 . S
C610 C612 1.391 . S
C611 C610 1.386 . S
C611 C615 1.393 . S
C612 H601 0.950 . S
C612 C610 1.391 . S
C612 C613 1.400 . S
C613 C607 1.491 . S
C613 C612 1.400 . S
C613 C614 1.398 . S
C614 H602 0.950 . S
C614 C613 1.398 . S
C614 C615 1.391 . S
C615 H603 0.950 . S
C615 C611 1.393 . S
C615 C614 1.391 . S
H616 C624 0.950 . S
H617 C629 0.950 . S
H618 C626 0.950 . S
H619 C628 0.950 . S
H620 C630 0.950 . S
H621 C632 0.950 . S
H622 C634 0.950 . S
H623 C635 0.950 . S
C624 H616 0.950 . S
C624 C625 1.386 . S
C624 C626 1.391 . S
C625 C624 1.386 . S
C625 C629 1.393 . S
C626 H618 0.950 . S
C626 C624 1.391 . S
C626 C627 1.400 . S
C627 C626 1.400 . S
C627 C628 1.398 . S
C627 C633 1.491 . S
C628 H619 0.950 . S
C628 C627 1.398 . S
C628 C629 1.391 . S
C629 H617 0.950 . S
C629 C625 1.393 . S
C629 C628 1.391 . S
C630 H620 0.950 . S
C630 C631 1.386 . S
C630 C632 1.391 . S
C631 C630 1.386 . S
C631 C635 1.393 . S
C632 H621 0.950 . S
C632 C630 1.391 . S
C632 C633 1.400 . S
C633 C627 1.491 . S
C633 C632 1.400 . S
C633 C634 1.398 . S
C634 H622 0.950 . S
C634 C633 1.398 . S
C634 C635 1.391 . S
C635 H623 0.950 . S
C635 C631 1.393 . S
C635 C634 1.391 . S
H636 C644 0.950 . S
H637 C649 0.950 . S
H638 C646 0.950 . S
H639 C648 0.950 . S
H640 C650 0.950 . S
H641 C652 0.950 . S
H642 C654 0.950 . S
H643 C655 0.950 . S
C644 H636 0.950 . S
C644 C645 1.386 . S
C644 C646 1.391 . S
C645 C644 1.386 . S
C645 C649 1.393 . S
C646 H638 0.950 . S
C646 C644 1.391 . S
C646 C647 1.400 . S
C647 C646 1.400 . S
C647 C648 1.398 . S
C647 C653 1.491 . S
C648 H639 0.950 . S
C648 C647 1.398 . S
C648 C649 1.391 . S
C649 H637 0.950 . S
C649 C645 1.393 . S
C649 C648 1.391 . S
C650 H640 0.950 . S
C650 C651 1.386 . S
C650 C652 1.391 . S
C651 C650 1.386 . S
C651 C655 1.393 . S
C652 H641 0.950 . S
C652 C650 1.391 . S
C652 C653 1.400 . S
C653 C647 1.491 . S
C653 C652 1.400 . S
C653 C654 1.398 . S
C654 H642 0.950 . S
C654 C653 1.398 . S
C654 C655 1.391 . S
C655 H643 0.950 . S
C655 C651 1.393 . S
C655 C654 1.391 . S
H656 C664 0.950 . S
H657 C669 0.969 1_565 S
H658 C666 0.950 . S
H659 C668 0.950 1_556 S
H660 C670 0.950 . S
H661 C672 0.950 . S
H662 C674 0.950 . S
H663 C675 0.950 . S
C664 H656 0.950 . S
C664 C665 1.371 1_545 S
C664 C666 1.391 . S
C665 C664 1.371 1_565 S
C665 C669 1.391 1_565 S
C666 H658 0.950 . S
C666 C664 1.391 . S
C666 C667 1.400 . S
C667 C666 1.400 . S
C667 C668 1.398 . S
C667 C673 1.491 . S
C668 H659 0.950 1_554 S
C668 C667 1.398 . S
C668 C669 1.391 . S
C669 H657 0.969 1_545 S
C669 C665 1.391 1_545 S
C669 C668 1.391 . S
C670 H660 0.950 . S
C670 C671 1.386 . S
C670 C672 1.391 . S
C671 C670 1.386 . S
C671 C675 1.393 1_556 S
C672 H661 0.950 . S
C672 C670 1.391 . S
C672 C673 1.400 1_556 S
C673 C667 1.491 . S
C673 C672 1.400 1_554 S
C673 C674 1.398 . S
C674 H662 0.950 . S
C674 C673 1.398 . S
C674 C675 1.391 . S
C675 H663 0.950 . S
C675 C671 1.393 1_554 S
C675 C674 1.391 . S
H676 C684 0.950 . S
H677 C689 0.950 . S
H678 C686 0.950 . S
H679 C688 0.950 . S
H680 C690 0.950 . S
H681 C692 0.950 . S
H682 C694 0.950 1_554 S
H683 C695 0.950 1_655 S
C684 H676 0.950 . S
C684 C685 1.386 . S
C684 C686 1.391 . S
C685 C684 1.386 . S
C685 C689 1.393 1_554 S
C686 H678 0.950 . S
C686 C684 1.391 . S
C686 C687 1.400 1_554 S
C687 C686 1.400 1_556 S
C687 C688 1.398 . S
C687 C693 1.491 . S
C688 H679 0.950 . S
C688 C687 1.398 . S
C688 C689 1.391 . S
C689 H677 0.950 . S
C689 C685 1.393 1_556 S
C689 C688 1.391 . S
C690 H680 0.950 . S
C690 C691 1.362 1_455 S
C690 C692 1.391 . S
C691 C690 1.362 1_655 S
C691 C695 1.391 1_655 S
C692 H681 0.950 . S
C692 C690 1.391 . S
C692 C693 1.400 . S
C693 C687 1.491 . S
C693 C692 1.400 . S
C693 C694 1.398 . S
C694 H682 0.950 1_556 S
C694 C693 1.398 . S
C694 C695 1.391 . S
C695 H683 0.950 1_455 S
C695 C691 1.391 1_455 S
C695 C694 1.391 . S
H696 C704 0.950 . S
H697 C709 0.950 . S
H698 C706 0.950 . S
H699 C708 0.950 . S
H700 C710 0.950 1_545 S
H701 C712 0.950 . S
H702 C714 0.950 . S
H703 C715 0.950 . S
C704 H696 0.950 . S
C704 C705 1.386 . S
C704 C706 1.391 1_556 S
C705 C704 1.386 . S
C705 C709 1.393 . S
C706 H698 0.950 . S
C706 C704 1.391 1_554 S
C706 C707 1.400 . S
C707 C706 1.400 . S
C707 C708 1.398 . S
C707 C713 1.491 . S
C708 H699 0.950 . S
C708 C707 1.398 . S
C708 C709 1.391 1_554 S
C709 H697 0.950 . S
C709 C705 1.393 . S
C709 C708 1.391 1_556 S
C710 H700 0.950 1_565 S
C710 C711 1.386 1_565 S
C710 C712 1.391 . S
C711 C710 1.386 1_545 S
C711 C715 1.393 1_545 S
C712 H701 0.950 . S
C712 C710 1.391 . S
C712 C713 1.400 . S
C713 C707 1.491 . S
C713 C712 1.400 . S
C713 C714 1.398 . S
C714 H702 0.950 . S
C714 C713 1.398 . S
C714 C715 1.391 . S
C715 H703 0.950 . S
C715 C711 1.393 1_565 S
C715 C714 1.391 . S
H716 C724 0.950 . S
H717 C729 0.950 . S
H718 C726 0.950 . S
H719 C728 0.950 . S
H720 C730 0.950 . S
H721 C732 0.950 . S
H722 C734 0.950 1_554 S
H723 C735 0.950 . S
C724 H716 0.950 . S
C724 C725 1.386 . S
C724 C726 1.391 . S
C725 C724 1.386 . S
C725 C729 1.393 1_554 S
C726 H718 0.950 . S
C726 C724 1.391 . S
C726 C727 1.400 1_554 S
C727 C726 1.400 1_556 S
C727 C728 1.398 . S
C727 C733 1.491 . S
C728 H719 0.950 . S
C728 C727 1.398 . S
C728 C729 1.391 . S
C729 H717 0.950 . S
C729 C725 1.393 1_556 S
C729 C728 1.391 . S
C730 H720 0.950 . S
C730 C731 1.382 1_655 S
C730 C732 1.391 . S
C731 C730 1.382 1_455 S
C731 C735 1.390 1_455 S
C732 H721 0.950 . S
C732 C730 1.391 . S
C732 C733 1.400 . S
C733 C727 1.491 . S
C733 C732 1.400 . S
C733 C734 1.398 . S
C734 H722 0.950 1_556 S
C734 C733 1.398 . S
C734 C735 1.391 . S
C735 H723 0.950 . S
C735 C731 1.390 1_655 S
C735 C734 1.391 . S
H736 C744 0.950 . S
H737 C749 0.950 . S
H738 C746 0.950 . S
H739 C748 0.950 . S
H740 C750 0.950 . S
H741 C752 0.950 . S
H742 C754 0.950 . S
H743 C755 0.950 1_545 S
C744 H736 0.950 . S
C744 C745 1.386 . S
C744 C746 1.391 . S
C745 C744 1.386 . S
C745 C749 1.393 . S
C746 H738 0.950 . S
C746 C744 1.391 . S
C746 C747 1.400 . S
C747 C746 1.400 . S
C747 C748 1.398 . S
C747 C753 1.491 . S
C748 H739 0.950 . S
C748 C747 1.398 . S
C748 C749 1.391 . S
C749 H737 0.950 . S
C749 C745 1.393 . S
C749 C748 1.391 . S
C750 H740 0.950 . S
C750 C751 1.375 1_565 S
C750 C752 1.391 . S
C751 C750 1.375 1_545 S
C751 C755 1.390 1_545 S
C752 H741 0.950 . S
C752 C750 1.391 . S
C752 C753 1.400 . S
C753 C747 1.491 . S
C753 C752 1.400 . S
C753 C754 1.398 . S
C754 H742 0.950 . S
C754 C753 1.398 . S
C754 C755 1.391 . S
C755 H743 0.950 1_565 S
C755 C751 1.390 1_565 S
C755 C754 1.391 . S
H756 C764 0.950 . S
H757 C769 0.950 1_455 S
H758 C766 0.950 . S
H759 C768 0.950 . S
H760 C770 0.950 . S
H761 C772 0.950 . S
H762 C774 0.950 . S
H763 C775 0.950 . S
C764 H756 0.950 . S
C764 C765 1.374 1_655 S
C764 C766 1.391 . S
C765 C764 1.374 1_455 S
C765 C769 1.390 1_455 S
C766 H758 0.950 . S
C766 C764 1.391 . S
C766 C767 1.400 . S
C767 C766 1.400 . S
C767 C768 1.398 . S
C767 C773 1.491 . S
C768 H759 0.950 . S
C768 C767 1.398 . S
C768 C769 1.391 . S
C769 H757 0.950 1_655 S
C769 C765 1.390 1_655 S
C769 C768 1.391 . S
C770 H760 0.950 . S
C770 C771 1.386 . S
C770 C772 1.391 . S
C771 C770 1.386 . S
C771 C775 1.393 . S
C772 H761 0.950 . S
C772 C770 1.391 . S
C772 C773 1.400 . S
C773 C767 1.491 . S
C773 C772 1.400 . S
C773 C774 1.398 . S
C774 H762 0.950 . S
C774 C773 1.398 . S
C774 C775 1.391 . S
C775 H763 0.950 . S
C775 C771 1.393 . S
C775 C774 1.391 . S
H776 C784 0.950 1_565 S
H777 C789 0.950 . S
H778 C786 0.950 . S
H779 C788 0.950 . S
H780 C790 0.950 . S
H781 C792 0.950 . S
H782 C794 0.950 . S
H783 C795 0.950 . S
C784 H776 0.950 1_545 S
C784 C785 1.384 1_545 S
C784 C786 1.391 . S
C785 C784 1.384 1_565 S
C785 C789 1.381 1_565 S
C786 H778 0.950 . S
C786 C784 1.391 . S
C786 C787 1.400 . S
C787 C786 1.400 . S
C787 C788 1.398 . S
C787 C793 1.491 . S
C788 H779 0.950 . S
C788 C787 1.398 . S
C788 C789 1.391 . S
C789 H777 0.950 . S
C789 C785 1.381 1_545 S
C789 C788 1.391 . S
C790 H780 0.950 . S
C790 C791 1.386 . S
C790 C792 1.391 . S
C791 C790 1.386 . S
C791 C795 1.393 . S
C792 H781 0.950 . S
C792 C790 1.391 . S
C792 C793 1.400 . S
C793 C787 1.491 . S
C793 C792 1.400 . S
C793 C794 1.398 . S
C794 H782 0.950 . S
C794 C793 1.398 . S
C794 C795 1.391 . S
C795 H783 0.950 . S
C795 C791 1.393 . S
C795 C794 1.391 . S
H796 C804 0.950 . S
H797 C809 0.950 . S
H798 C806 0.950 . S
H799 C808 0.950 . S
H800 C810 0.950 . S
H801 C812 0.950 . S
H802 C814 0.950 . S
H803 C815 0.950 . S
C804 H796 0.950 . S
C804 C805 1.386 1_455 S
C804 C806 1.391 . S
C805 C804 1.386 1_655 S
C805 C809 1.393 1_655 S
C806 H798 0.950 . S
C806 C804 1.391 . S
C806 C807 1.400 . S
C807 C806 1.400 . S
C807 C808 1.398 . S
C807 C813 1.491 . S
C808 H799 0.950 . S
C808 C807 1.398 . S
C808 C809 1.391 . S
C809 H797 0.950 . S
C809 C805 1.393 1_455 S
C809 C808 1.391 . S
C810 H800 0.950 . S
C810 C811 1.386 . S
C810 C812 1.391 . S
C811 C810 1.386 . S
C811 C815 1.393 . S
C812 H801 0.950 . S
C812 C810 1.391 . S
C812 C813 1.400 . S
C813 C807 1.491 . S
C813 C812 1.400 . S
C813 C814 1.398 . S
C814 H802 0.950 . S
C814 C813 1.398 . S
C814 C815 1.391 . S
C815 H803 0.950 . S
C815 C811 1.393 . S
C815 C814 1.391 . S
H816 C824 0.950 . S
H817 C829 0.950 . S
H818 C826 0.950 . S
H819 C828 0.950 . S
H820 C830 0.950 . S
H821 C832 0.950 . S
H822 C834 0.950 . S
H823 C835 0.950 . S
C824 H816 0.950 . S
C824 C825 1.386 . S
C824 C826 1.391 . S
C825 C824 1.386 . S
C825 C829 1.393 . S
C826 H818 0.950 . S
C826 C824 1.391 . S
C826 C827 1.400 . S
C827 C826 1.400 . S
C827 C828 1.398 . S
C827 C833 1.491 . S
C828 H819 0.950 . S
C828 C827 1.398 . S
C828 C829 1.391 . S
C829 H817 0.950 . S
C829 C825 1.393 . S
C829 C828 1.391 . S
C830 H820 0.950 . S
C830 C831 1.386 . S
C830 C832 1.391 . S
C831 C830 1.386 . S
C831 C835 1.393 . S
C832 H821 0.950 . S
C832 C830 1.391 . S
C832 C833 1.400 . S
C833 C827 1.491 . S
C833 C832 1.400 . S
C833 C834 1.398 . S
C834 H822 0.950 . S
C834 C833 1.398 . S
C834 C835 1.391 . S
C835 H823 0.950 . S
C835 C831 1.393 . S
C835 C834 1.391 . S
H836 C844 0.950 . S
H837 C849 0.950 . S
H838 C846 0.950 . S
H839 C848 0.950 . S
H840 C850 0.950 . S
H841 C852 0.950 . S
H842 C854 0.950 . S
H843 C855 0.950 . S
C844 H836 0.950 . S
C844 C845 1.386 . S
C844 C846 1.391 . S
C845 C844 1.386 . S
C845 C849 1.393 . S
C846 H838 0.950 . S
C846 C844 1.391 . S
C846 C847 1.400 . S
C847 C846 1.400 . S
C847 C848 1.398 . S
C847 C853 1.491 . S
C848 H839 0.950 . S
C848 C847 1.398 . S
C848 C849 1.391 . S
C849 H837 0.950 . S
C849 C845 1.393 . S
C849 C848 1.391 . S
C850 H840 0.950 . S
C850 C851 1.386 . S
C850 C852 1.391 . S
C851 C850 1.386 . S
C851 C855 1.393 . S
C852 H841 0.950 . S
C852 C850 1.391 . S
C852 C853 1.400 . S
C853 C847 1.491 . S
C853 C852 1.400 . S
C853 C854 1.398 . S
C854 H842 0.950 . S
C854 C853 1.398 . S
C854 C855 1.391 . S
C855 H843 0.950 . S
C855 C851 1.393 . S
C855 C854 1.391 . S
H856 C864 0.950 . S
H857 C869 0.950 . S
H858 C866 0.950 . S
H859 C868 0.950 . S
H860 C870 0.950 . S
H861 C872 0.950 . S
H862 C874 0.950 . S
H863 C875 0.950 . S
C864 H856 0.950 . S
C864 C865 1.386 . S
C864 C866 1.391 . S
C865 C864 1.386 . S
C865 C869 1.393 . S
C866 H858 0.950 . S
C866 C864 1.391 . S
C866 C867 1.400 . S
C867 C866 1.400 . S
C867 C868 1.398 . S
C867 C873 1.491 . S
C868 H859 0.950 . S
C868 C867 1.398 . S
C868 C869 1.391 . S
C869 H857 0.950 . S
C869 C865 1.393 . S
C869 C868 1.391 . S
C870 H860 0.950 . S
C870 C871 1.386 . S
C870 C872 1.391 . S
C871 C870 1.386 . S
C871 C875 1.393 . S
C872 H861 0.950 . S
C872 C870 1.391 . S
C872 C873 1.400 . S
C873 C867 1.491 . S
C873 C872 1.400 . S
C873 C874 1.398 . S
C874 H862 0.950 . S
C874 C873 1.398 . S
C874 C875 1.391 . S
C875 H863 0.950 . S
C875 C871 1.393 . S
C875 C874 1.391 . S
H876 C884 0.950 . S
H877 C889 0.950 . S
H878 C886 0.950 . S
H879 C888 0.950 . S
H880 C890 0.950 . S
H881 C892 0.950 . S
H882 C894 0.950 . S
H883 C895 0.950 . S
C884 H876 0.950 . S
C884 C885 1.386 . S
C884 C886 1.391 . S
C885 C884 1.386 . S
C885 C889 1.393 . S
C886 H878 0.950 . S
C886 C884 1.391 . S
C886 C887 1.400 . S
C887 C886 1.400 . S
C887 C888 1.398 . S
C887 C893 1.491 . S
C888 H879 0.950 . S
C888 C887 1.398 . S
C888 C889 1.391 . S
C889 H877 0.950 . S
C889 C885 1.393 . S
C889 C888 1.391 . S
C890 H880 0.950 . S
C890 C891 1.386 . S
C890 C892 1.391 . S
C891 C890 1.386 . S
C891 C895 1.393 . S
C892 H881 0.950 . S
C892 C890 1.391 . S
C892 C893 1.400 . S
C893 C887 1.491 . S
C893 C892 1.400 . S
C893 C894 1.398 . S
C894 H882 0.950 . S
C894 C893 1.398 . S
C894 C895 1.391 . S
C895 H883 0.950 . S
C895 C891 1.393 . S
C895 C894 1.391 . S
H896 C904 0.950 . S
H897 C909 0.950 . S
H898 C906 0.950 . S
H899 C908 0.950 . S
H900 C910 0.950 . S
H901 C912 0.950 . S
H902 C914 0.950 . S
H903 C915 0.950 . S
C904 H896 0.950 . S
C904 C905 1.386 . S
C904 C906 1.391 . S
C905 C904 1.386 . S
C905 C909 1.393 . S
C906 H898 0.950 . S
C906 C904 1.391 . S
C906 C907 1.400 . S
C907 C906 1.400 . S
C907 C908 1.398 . S
C907 C913 1.491 . S
C908 H899 0.950 . S
C908 C907 1.398 . S
C908 C909 1.391 . S
C909 H897 0.950 . S
C909 C905 1.393 . S
C909 C908 1.391 . S
C910 H900 0.950 . S
C910 C911 1.386 . S
C910 C912 1.391 . S
C911 C910 1.386 . S
C911 C915 1.393 . S
C912 H901 0.950 . S
C912 C910 1.391 . S
C912 C913 1.400 . S
C913 C907 1.491 . S
C913 C912 1.400 . S
C913 C914 1.398 . S
C914 H902 0.950 . S
C914 C913 1.398 . S
C914 C915 1.391 . S
C915 H903 0.950 . S
C915 C911 1.393 . S
C915 C914 1.391 . S
H916 C924 0.950 . S
H917 C929 0.950 . S
H918 C926 0.950 . S
H919 C928 0.950 . S
H920 C930 0.950 . S
H921 C932 0.950 . S
H922 C934 0.950 . S
H923 C935 0.950 . S
C924 H916 0.950 . S
C924 C925 1.386 . S
C924 C926 1.391 . S
C925 C924 1.386 . S
C925 C929 1.393 . S
C926 H918 0.950 . S
C926 C924 1.391 . S
C926 C927 1.400 . S
C927 C926 1.400 . S
C927 C928 1.398 . S
C927 C933 1.491 . S
C928 H919 0.950 . S
C928 C927 1.398 . S
C928 C929 1.391 . S
C929 H917 0.950 . S
C929 C925 1.393 . S
C929 C928 1.391 . S
C930 H920 0.950 . S
C930 C931 1.386 . S
C930 C932 1.391 . S
C931 C930 1.386 . S
C931 C935 1.393 . S
C932 H921 0.950 . S
C932 C930 1.391 . S
C932 C933 1.400 . S
C933 C927 1.491 . S
C933 C932 1.400 . S
C933 C934 1.398 . S
C934 H922 0.950 . S
C934 C933 1.398 . S
C934 C935 1.391 . S
C935 H923 0.950 . S
C935 C931 1.393 . S
C935 C934 1.391 . S
H936 C944 0.950 . S
H937 C949 0.950 . S
H938 C946 0.950 . S
H939 C948 0.950 . S
H940 C950 0.950 . S
H941 C952 0.950 . S
H942 C954 0.950 . S
H943 C955 0.950 . S
C944 H936 0.950 . S
C944 C945 1.386 . S
C944 C946 1.391 . S
C945 C944 1.386 . S
C945 C949 1.393 . S
C946 H938 0.950 . S
C946 C944 1.391 . S
C946 C947 1.400 . S
C947 C946 1.400 . S
C947 C948 1.398 . S
C947 C953 1.491 . S
C948 H939 0.950 . S
C948 C947 1.398 . S
C948 C949 1.391 . S
C949 H937 0.950 . S
C949 C945 1.393 . S
C949 C948 1.391 . S
C950 H940 0.950 . S
C950 C951 1.386 . S
C950 C952 1.391 . S
C951 C950 1.386 . S
C951 C955 1.393 . S
C952 H941 0.950 . S
C952 C950 1.391 . S
C952 C953 1.400 . S
C953 C947 1.491 . S
C953 C952 1.400 . S
C953 C954 1.398 . S
C954 H942 0.950 . S
C954 C953 1.398 . S
C954 C955 1.391 . S
C955 H943 0.950 . S
C955 C951 1.393 . S
C955 C954 1.391 . S
H956 C964 0.950 . S
H957 C969 0.950 . S
H958 C966 0.950 . S
H959 C968 0.950 . S
H960 C970 0.950 . S
H961 C972 0.950 . S
H962 C974 0.950 . S
H963 C975 0.950 . S
C964 H956 0.950 . S
C964 C965 1.386 . S
C964 C966 1.391 . S
C965 C964 1.386 . S
C965 C969 1.393 . S
C966 H958 0.950 . S
C966 C964 1.391 . S
C966 C967 1.400 . S
C967 C966 1.400 . S
C967 C968 1.398 . S
C967 C973 1.491 . S
C968 H959 0.950 . S
C968 C967 1.398 . S
C968 C969 1.391 . S
C969 H957 0.950 . S
C969 C965 1.393 . S
C969 C968 1.391 . S
C970 H960 0.950 . S
C970 C971 1.386 . S
C970 C972 1.391 . S
C971 C970 1.386 . S
C971 C975 1.393 . S
C972 H961 0.950 . S
C972 C970 1.391 . S
C972 C973 1.400 . S
C973 C967 1.491 . S
C973 C972 1.400 . S
C973 C974 1.398 . S
C974 H962 0.950 . S
C974 C973 1.398 . S
C974 C975 1.391 . S
C975 H963 0.950 . S
C975 C971 1.393 . S
C975 C974 1.391 . S
H976 C984 0.950 . S
H977 C989 0.950 . S
H978 C986 0.950 . S
H979 C988 0.950 . S
H980 C990 0.950 . S
H981 C992 0.950 . S
H982 C994 0.950 . S
H983 C995 0.950 . S
C984 H976 0.950 . S
C984 C985 1.386 . S
C984 C986 1.391 . S
C985 C984 1.386 . S
C985 C989 1.393 . S
C986 H978 0.950 . S
C986 C984 1.391 . S
C986 C987 1.400 . S
C987 C986 1.400 . S
C987 C988 1.398 . S
C987 C993 1.491 . S
C988 H979 0.950 . S
C988 C987 1.398 . S
C988 C989 1.391 . S
C989 H977 0.950 . S
C989 C985 1.393 . S
C989 C988 1.391 . S
C990 H980 0.950 . S
C990 C991 1.386 . S
C990 C992 1.391 . S
C991 C990 1.386 . S
C991 C995 1.393 . S
C992 H981 0.950 . S
C992 C990 1.391 . S
C992 C993 1.400 . S
C993 C987 1.491 . S
C993 C992 1.400 . S
C993 C994 1.398 . S
C994 H982 0.950 . S
C994 C993 1.398 . S
C994 C995 1.391 . S
C995 H983 0.950 . S
C995 C991 1.393 . S
C995 C994 1.391 . S
H996 C1004 0.950 . S
H997 C1009 0.950 . S
H998 C1006 0.950 . S
H999 C1008 0.950 . S
H1000 C1010 0.950 . S
H1001 C1012 0.950 . S
H1002 C1014 0.950 . S
H1003 C1015 0.950 . S
C1004 H996 0.950 . S
C1004 C1005 1.386 . S
C1004 C1006 1.391 . S
C1005 C1004 1.386 . S
C1005 C1009 1.393 . S
C1006 H998 0.950 . S
C1006 C1004 1.391 . S
C1006 C1007 1.400 . S
C1007 C1006 1.400 . S
C1007 C1008 1.398 . S
C1007 C1013 1.491 . S
C1008 H999 0.950 . S
C1008 C1007 1.398 . S
C1008 C1009 1.391 . S
C1009 H997 0.950 . S
C1009 C1005 1.393 . S
C1009 C1008 1.391 . S
C1010 H1000 0.950 . S
C1010 C1011 1.386 . S
C1010 C1012 1.391 . S
C1011 C1010 1.386 . S
C1011 C1015 1.393 . S
C1012 H1001 0.950 . S
C1012 C1010 1.391 . S
C1012 C1013 1.400 . S
C1013 C1007 1.491 . S
C1013 C1012 1.400 . S
C1013 C1014 1.398 . S
C1014 H1002 0.950 . S
C1014 C1013 1.398 . S
C1014 C1015 1.391 . S
C1015 H1003 0.950 . S
C1015 C1011 1.393 . S
C1015 C1014 1.391 . S
H1016 C1024 0.950 . S
H1017 C1029 0.950 . S
H1018 C1026 0.950 . S
H1019 C1028 0.950 . S
H1020 C1030 0.950 . S
H1021 C1032 0.950 . S
H1022 C1034 0.950 . S
H1023 C1035 0.950 . S
C1024 H1016 0.950 . S
C1024 C1025 1.386 . S
C1024 C1026 1.391 . S
C1025 C1024 1.386 . S
C1025 C1029 1.393 . S
C1026 H1018 0.950 . S
C1026 C1024 1.391 . S
C1026 C1027 1.400 . S
C1027 C1026 1.400 . S
C1027 C1028 1.398 . S
C1027 C1033 1.491 . S
C1028 H1019 0.950 . S
C1028 C1027 1.398 . S
C1028 C1029 1.391 . S
C1029 H1017 0.950 . S
C1029 C1025 1.393 . S
C1029 C1028 1.391 . S
C1030 H1020 0.950 . S
C1030 C1031 1.386 . S
C1030 C1032 1.391 . S
C1031 C1030 1.386 . S
C1031 C1035 1.393 . S
C1032 H1021 0.950 . S
C1032 C1030 1.391 . S
C1032 C1033 1.400 . S
C1033 C1027 1.491 . S
C1033 C1032 1.400 . S
C1033 C1034 1.398 . S
C1034 H1022 0.950 . S
C1034 C1033 1.398 . S
C1034 C1035 1.391 . S
C1035 H1023 0.950 . S
C1035 C1031 1.393 . S
C1035 C1034 1.391 . S
H1036 C1044 0.950 . S
H1037 C1049 0.950 . S
H1038 C1046 0.950 . S
H1039 C1048 0.950 . S
H1040 C1050 0.950 . S
H1041 C1052 0.950 . S
H1042 C1054 0.950 . S
H1043 C1055 0.950 . S
C1044 H1036 0.950 . S
C1044 C1045 1.386 . S
C1044 C1046 1.391 . S
C1045 C1044 1.386 . S
C1045 C1049 1.393 . S
C1046 H1038 0.950 . S
C1046 C1044 1.391 . S
C1046 C1047 1.400 . S
C1047 C1046 1.400 . S
C1047 C1048 1.398 . S
C1047 C1053 1.491 . S
C1048 H1039 0.950 . S
C1048 C1047 1.398 . S
C1048 C1049 1.391 . S
C1049 H1037 0.950 . S
C1049 C1045 1.393 . S
C1049 C1048 1.391 . S
C1050 H1040 0.950 . S
C1050 C1051 1.386 . S
C1050 C1052 1.391 . S
C1051 C1050 1.386 . S
C1051 C1055 1.393 . S
C1052 H1041 0.950 . S
C1052 C1050 1.391 . S
C1052 C1053 1.400 . S
C1053 C1047 1.491 . S
C1053 C1052 1.400 . S
C1053 C1054 1.398 . S
C1054 H1042 0.950 . S
C1054 C1053 1.398 . S
C1054 C1055 1.391 . S
C1055 H1043 0.950 . S
C1055 C1051 1.393 . S
C1055 C1054 1.391 . S
H1056 C1064 0.950 . S
H1057 C1069 0.950 . S
H1058 C1066 0.950 1_545 S
H1059 C1068 0.950 1_455 S
H1060 C1070 0.950 . S
H1061 C1072 0.950 1_565 S
H1062 C1074 0.950 1_655 S
H1063 C1075 0.950 . S
C1064 H1056 0.950 . S
C1064 C1065 1.386 . S
C1064 C1066 1.391 . S
C1065 C1064 1.386 . S
C1065 C1069 1.393 . S
C1066 H1058 0.950 1_565 S
C1066 C1064 1.391 . S
C1066 C1067 1.400 . S
C1067 C1066 1.400 . S
C1067 C1068 1.398 . S
C1067 C1073 1.491 1_665 S
C1068 H1059 0.950 1_655 S
C1068 C1067 1.398 . S
C1068 C1069 1.391 . S
C1069 H1057 0.950 . S
C1069 C1065 1.393 . S
C1069 C1068 1.391 . S
C1070 H1060 0.950 . S
C1070 C1071 1.386 . S
C1070 C1072 1.391 . S
C1071 C1070 1.386 . S
C1071 C1075 1.393 . S
C1072 H1061 0.950 1_545 S
C1072 C1070 1.391 . S
C1072 C1073 1.400 . S
C1073 C1067 1.491 1_445 S
C1073 C1072 1.400 . S
C1073 C1074 1.398 . S
C1074 H1062 0.950 1_455 S
C1074 C1073 1.398 . S
C1074 C1075 1.391 . S
C1075 H1063 0.950 . S
C1075 C1071 1.393 . S
C1075 C1074 1.391 . S
H1076 C1084 0.950 . S
H1077 C1089 0.950 . S
H1078 C1086 0.950 . S
H1079 C1088 0.950 1_565 S
H1080 C1090 0.950 . S
H1081 C1092 0.950 . S
H1082 C1094 0.950 1_545 S
H1083 C1095 0.950 . S
C1084 H1076 0.950 . S
C1084 C1085 1.386 . S
C1084 C1086 1.391 . S
C1085 C1084 1.386 . S
C1085 C1089 1.393 . S
C1086 H1078 0.950 . S
C1086 C1084 1.391 . S
C1086 C1087 1.400 . S
C1087 C1086 1.400 . S
C1087 C1088 1.398 . S
C1087 C1093 1.491 1_645 S
C1088 H1079 0.950 1_545 S
C1088 C1087 1.398 . S
C1088 C1089 1.391 . S
C1089 H1077 0.950 . S
C1089 C1085 1.393 . S
C1089 C1088 1.391 . S
C1090 H1080 0.950 . S
C1090 C1091 1.386 . S
C1090 C1092 1.391 . S
C1091 C1090 1.386 . S
C1091 C1095 1.393 . S
C1092 H1081 0.950 . S
C1092 C1090 1.391 . S
C1092 C1093 1.400 . S
C1093 C1087 1.491 1_465 S
C1093 C1092 1.400 . S
C1093 C1094 1.398 . S
C1094 H1082 0.950 1_565 S
C1094 C1093 1.398 . S
C1094 C1095 1.391 . S
C1095 H1083 0.950 . S
C1095 C1091 1.393 . S
C1095 C1094 1.391 . S
H1096 C1104 0.950 . S
H1097 C1109 0.950 . S
H1098 C1106 0.950 . S
H1099 C1108 0.950 . S
H1100 C1110 0.950 . S
H1101 C1112 0.950 . S
H1102 C1114 0.950 . S
H1103 C1115 0.950 . S
C1104 H1096 0.950 . S
C1104 C1105 1.386 . S
C1104 C1106 1.391 1_455 S
C1105 C1104 1.386 . S
C1105 C1109 1.393 . S
C1106 H1098 0.950 . S
C1106 C1104 1.391 1_655 S
C1106 C1107 1.400 1_655 S
C1107 C1106 1.400 1_455 S
C1107 C1108 1.398 . S
C1107 C1113 1.491 1_455 S
C1108 H1099 0.950 . S
C1108 C1107 1.398 . S
C1108 C1109 1.391 . S
C1109 H1097 0.950 . S
C1109 C1105 1.393 . S
C1109 C1108 1.391 . S
C1110 H1100 0.950 . S
C1110 C1111 1.386 . S
C1110 C1112 1.391 1_655 S
C1111 C1110 1.386 . S
C1111 C1115 1.393 . S
C1112 H1101 0.950 . S
C1112 C1110 1.391 1_455 S
C1112 C1113 1.400 1_455 S
C1113 C1107 1.491 1_655 S
C1113 C1112 1.400 1_655 S
C1113 C1114 1.398 . S
C1114 H1102 0.950 . S
C1114 C1113 1.398 . S
C1114 C1115 1.391 . S
C1115 H1103 0.950 . S
C1115 C1111 1.393 . S
C1115 C1114 1.391 . S
H1116 C1124 0.950 . S
H1117 C1129 0.950 . S
H1118 C1126 0.950 . S
H1119 C1128 0.950 1_545 S
H1120 C1130 0.950 . S
H1121 C1132 0.950 . S
H1122 C1134 0.950 1_565 S
H1123 C1135 0.950 . S
C1124 H1116 0.950 . S
C1124 C1125 1.386 . S
C1124 C1126 1.391 . S
C1125 C1124 1.386 . S
C1125 C1129 1.393 . S
C1126 H1118 0.950 . S
C1126 C1124 1.391 . S
C1126 C1127 1.400 . S
C1127 C1126 1.400 . S
C1127 C1128 1.398 . S
C1127 C1133 1.491 1_565 S
C1128 H1119 0.950 1_565 S
C1128 C1127 1.398 . S
C1128 C1129 1.391 . S
C1129 H1117 0.950 . S
C1129 C1125 1.393 . S
C1129 C1128 1.391 . S
C1130 H1120 0.950 . S
C1130 C1131 1.386 . S
C1130 C1132 1.391 . S
C1131 C1130 1.386 . S
C1131 C1135 1.393 . S
C1132 H1121 0.950 . S
C1132 C1130 1.391 . S
C1132 C1133 1.400 . S
C1133 C1127 1.491 1_545 S
C1133 C1132 1.400 . S
C1133 C1134 1.398 . S
C1134 H1122 0.950 1_545 S
C1134 C1133 1.398 . S
C1134 C1135 1.391 . S
C1135 H1123 0.950 . S
C1135 C1131 1.393 . S
C1135 C1134 1.391 . S
H1136 C1144 0.950 . S
H1137 C1149 0.950 . S
H1138 C1146 0.950 . S
H1139 C1148 0.950 . S
H1140 C1150 0.950 . S
H1141 C1152 0.950 . S
H1142 C1154 0.950 . S
H1143 C1155 0.950 . S
C1144 H1136 0.950 . S
C1144 C1145 1.386 . S
C1144 C1146 1.391 . S
C1145 C1144 1.386 . S
C1145 C1149 1.393 . S
C1146 H1138 0.950 . S
C1146 C1144 1.391 . S
C1146 C1147 1.400 . S
C1147 C1146 1.400 . S
C1147 C1148 1.398 . S
C1147 C1153 1.491 . S
C1148 H1139 0.950 . S
C1148 C1147 1.398 . S
C1148 C1149 1.391 . S
C1149 H1137 0.950 . S
C1149 C1145 1.393 . S
C1149 C1148 1.391 . S
C1150 H1140 0.950 . S
C1150 C1151 1.386 . S
C1150 C1152 1.391 . S
C1151 C1150 1.386 . S
C1151 C1155 1.393 . S
C1152 H1141 0.950 . S
C1152 C1150 1.391 . S
C1152 C1153 1.400 . S
C1153 C1147 1.491 . S
C1153 C1152 1.400 . S
C1153 C1154 1.398 . S
C1154 H1142 0.950 . S
C1154 C1153 1.398 . S
C1154 C1155 1.391 . S
C1155 H1143 0.950 . S
C1155 C1151 1.393 . S
C1155 C1154 1.391 . S
H1156 C1164 0.950 . S
H1157 C1169 0.950 . S
H1158 C1166 0.950 . S
H1159 C1168 0.950 . S
H1160 C1170 0.950 . S
H1161 C1172 0.950 . S
H1162 C1174 0.950 . S
H1163 C1175 0.950 . S
C1164 H1156 0.950 . S
C1164 C1165 1.386 . S
C1164 C1166 1.391 . S
C1165 C1164 1.386 . S
C1165 C1169 1.393 . S
C1166 H1158 0.950 . S
C1166 C1164 1.391 . S
C1166 C1167 1.400 . S
C1167 C1166 1.400 . S
C1167 C1168 1.398 . S
C1167 C1173 1.491 . S
C1168 H1159 0.950 . S
C1168 C1167 1.398 . S
C1168 C1169 1.391 . S
C1169 H1157 0.950 . S
C1169 C1165 1.393 . S
C1169 C1168 1.391 . S
C1170 H1160 0.950 . S
C1170 C1171 1.386 . S
C1170 C1172 1.391 . S
C1171 C1170 1.386 . S
C1171 C1175 1.393 . S
C1172 H1161 0.950 . S
C1172 C1170 1.391 . S
C1172 C1173 1.400 . S
C1173 C1167 1.491 . S
C1173 C1172 1.400 . S
C1173 C1174 1.398 . S
C1174 H1162 0.950 . S
C1174 C1173 1.398 . S
C1174 C1175 1.391 . S
C1175 H1163 0.950 . S
C1175 C1171 1.393 . S
C1175 C1174 1.391 . S
H1176 C1184 0.950 . S
H1177 C1189 0.950 . S
H1178 C1186 0.950 . S
H1179 C1188 0.950 1_565 S
H1180 C1190 0.950 . S
H1181 C1192 0.950 . S
H1182 C1194 0.950 1_545 S
H1183 C1195 0.950 . S
C1184 H1176 0.950 . S
C1184 C1185 1.386 . S
C1184 C1186 1.391 . S
C1185 C1184 1.386 . S
C1185 C1189 1.393 . S
C1186 H1178 0.950 . S
C1186 C1184 1.391 . S
C1186 C1187 1.400 . S
C1187 C1186 1.400 . S
C1187 C1188 1.398 . S
C1187 C1193 1.491 1_545 S
C1188 H1179 0.950 1_545 S
C1188 C1187 1.398 . S
C1188 C1189 1.391 . S
C1189 H1177 0.950 . S
C1189 C1185 1.393 . S
C1189 C1188 1.391 . S
C1190 H1180 0.950 . S
C1190 C1191 1.386 . S
C1190 C1192 1.391 . S
C1191 C1190 1.386 . S
C1191 C1195 1.393 . S
C1192 H1181 0.950 . S
C1192 C1190 1.391 . S
C1192 C1193 1.400 . S
C1193 C1187 1.491 1_565 S
C1193 C1192 1.400 . S
C1193 C1194 1.398 . S
C1194 H1182 0.950 1_565 S
C1194 C1193 1.398 . S
C1194 C1195 1.391 . S
C1195 H1183 0.950 . S
C1195 C1191 1.393 . S
C1195 C1194 1.391 . S
H1196 C1204 0.950 . S
H1197 C1209 0.950 . S
H1198 C1206 0.950 . S
H1199 C1208 0.950 1_455 S
H1200 C1210 0.950 . S
H1201 C1212 0.950 . S
H1202 C1214 0.950 1_655 S
H1203 C1215 0.950 . S
C1204 H1196 0.950 . S
C1204 C1205 1.386 . S
C1204 C1206 1.391 . S
C1205 C1204 1.386 . S
C1205 C1209 1.393 . S
C1206 H1198 0.950 . S
C1206 C1204 1.391 . S
C1206 C1207 1.400 . S
C1207 C1206 1.400 . S
C1207 C1208 1.398 . S
C1207 C1213 1.491 1_655 S
C1208 H1199 0.950 1_655 S
C1208 C1207 1.398 . S
C1208 C1209 1.391 . S
C1209 H1197 0.950 . S
C1209 C1205 1.393 . S
C1209 C1208 1.391 . S
C1210 H1200 0.950 . S
C1210 C1211 1.386 . S
C1210 C1212 1.391 . S
C1211 C1210 1.386 . S
C1211 C1215 1.393 . S
C1212 H1201 0.950 . S
C1212 C1210 1.391 . S
C1212 C1213 1.400 . S
C1213 C1207 1.491 1_455 S
C1213 C1212 1.400 . S
C1213 C1214 1.398 . S
C1214 H1202 0.950 1_455 S
C1214 C1213 1.398 . S
C1214 C1215 1.391 . S
C1215 H1203 0.950 . S
C1215 C1211 1.393 . S
C1215 C1214 1.391 . S
C585 C3 1.093 . S
C591 C398 1.082 . S
C605 C290 1.081 . S
C611 C39 1.093 . S
C625 C326 1.076 . S
C631 C75 1.107 . S
C645 C362 1.078 . S
C651 C111 1.096 . S
C665 C182 1.098 . S
C671 C147 1.094 . S
C685 C183 1.098 . S
C691 C218 1.102 . S
C705 C219 1.106 . S
C711 C254 1.075 . S
C725 C255 1.088 . S
C731 C146 1.099 . S
C745 C291 1.093 . S
C751 C110 1.118 . S
C765 C2 1.119 . S
C771 C327 1.094 . S
C785 C38 1.118 . S
C791 C363 1.093 . S
C805 C74 1.084 . S
C811 C399 1.111 . S
C825 C470 1.105 . S
C831 C435 1.096 . S
C845 C471 1.097 . S
C851 C506 1.105 . S
C865 C542 1.084 . S
C871 C507 1.111 . S
C885 C434 1.083 . S
C891 C543 1.111 . S
C905 C518 1.588 . S
C911 C14 1.575 . S
C925 C554 1.578 . S
C931 C50 1.580 . S
C945 C446 1.583 . S
C951 C86 1.576 . S
C965 C122 1.578 . S
C971 C482 1.588 . S
C985 C158 1.580 . S
C991 C374 1.578 . S
C1005 C410 1.575 . S
C1011 C194 1.586 . S
C1025 C230 1.585 . S
C1031 C302 1.582 . S
C1045 C266 1.588 . S
C1051 C338 1.576 . S
C1065 C76 1.245 . S
C1071 C4 1.259 . S
C1085 C112 1.264 . S
C1091 C40 1.254 . S
C1105 C148 1.254 . S
C1111 C220 1.239 . S
C1125 C184 1.264 . S
C1131 C256 1.255 . S
C1145 C364 1.242 . S
C1151 C292 1.257 . S
C1165 C328 1.237 . S
C1171 C400 1.252 . S
C1185 C508 1.262 . S
C1191 C436 1.249 . S
C1205 C472 1.246 . S
C1211 C544 1.260 . S
