# Generated by pormake.
# Topology wkc, (5)-cn, num edge types: 1
# Building blocks:
#     Node 0, Type 0, BuildingBlock: XOMCOT_clean_sbu_0, # of connection points: 5
#     Node 1, Type 0, BuildingBlock: XOMCOT_clean_sbu_0, # of connection points: 5
#     Node 2, Type 0, BuildingBlock: XOMCOT_clean_sbu_0, # of connection points: 5
#     Node 3, Type 0, BuildingBlock: XOMCOT_clean_sbu_0, # of connection points: 5
#     Node 4, Type 0, BuildingBlock: XOMCOT_clean_sbu_0, # of connection points: 5
#     Node 5, Type 0, BuildingBlock: XOMCOT_clean_sbu_0, # of connection points: 5
#     Node 6, Type 0, BuildingBlock: XOMCOT_clean_sbu_0, # of connection points: 5
#     Node 7, Type 0, BuildingBlock: XOMCOT_clean_sbu_0, # of connection points: 5
#     Node 8, Type 0, BuildingBlock: XOMCOT_clean_sbu_0, # of connection points: 5
#     Node 9, Type 0, BuildingBlock: XOMCOT_clean_sbu_0, # of connection points: 5
#     Node 10, Type 0, BuildingBlock: XOMCOT_clean_sbu_0, # of connection points: 5
#     Node 11, Type 0, BuildingBlock: XOMCOT_clean_sbu_0, # of connection points: 5
#     Edge 12, Type (0, 0), BuildingBlock: XUDNAN_clean_linker_2, # of connection points: 2
#     Edge 13, Type (0, 0), BuildingBlock: XUDNAN_clean_linker_2, # of connection points: 2
#     Edge 14, Type (0, 0), BuildingBlock: XUDNAN_clean_linker_2, # of connection points: 2
#     Edge 15, Type (0, 0), BuildingBlock: XUDNAN_clean_linker_2, # of connection points: 2
#     Edge 16, Type (0, 0), BuildingBlock: XUDNAN_clean_linker_2, # of connection points: 2
#     Edge 17, Type (0, 0), BuildingBlock: XUDNAN_clean_linker_2, # of connection points: 2
#     Edge 18, Type (0, 0), BuildingBlock: XUDNAN_clean_linker_2, # of connection points: 2
#     Edge 19, Type (0, 0), BuildingBlock: XUDNAN_clean_linker_2, # of connection points: 2
#     Edge 20, Type (0, 0), BuildingBlock: XUDNAN_clean_linker_2, # of connection points: 2
#     Edge 21, Type (0, 0), BuildingBlock: XUDNAN_clean_linker_2, # of connection points: 2
#     Edge 22, Type (0, 0), BuildingBlock: XUDNAN_clean_linker_2, # of connection points: 2
#     Edge 23, Type (0, 0), BuildingBlock: XUDNAN_clean_linker_2, # of connection points: 2
#     Edge 24, Type (0, 0), BuildingBlock: XUDNAN_clean_linker_2, # of connection points: 2
#     Edge 25, Type (0, 0), BuildingBlock: XUDNAN_clean_linker_2, # of connection points: 2
#     Edge 26, Type (0, 0), BuildingBlock: XUDNAN_clean_linker_2, # of connection points: 2
#     Edge 27, Type (0, 0), BuildingBlock: XUDNAN_clean_linker_2, # of connection points: 2
#     Edge 28, Type (0, 0), BuildingBlock: XUDNAN_clean_linker_2, # of connection points: 2
#     Edge 29, Type (0, 0), BuildingBlock: XUDNAN_clean_linker_2, # of connection points: 2
#     Edge 30, Type (0, 0), BuildingBlock: XUDNAN_clean_linker_2, # of connection points: 2
#     Edge 31, Type (0, 0), BuildingBlock: XUDNAN_clean_linker_2, # of connection points: 2
#     Edge 32, Type (0, 0), BuildingBlock: XUDNAN_clean_linker_2, # of connection points: 2
#     Edge 33, Type (0, 0), BuildingBlock: XUDNAN_clean_linker_2, # of connection points: 2
#     Edge 34, Type (0, 0), BuildingBlock: XUDNAN_clean_linker_2, # of connection points: 2
#     Edge 35, Type (0, 0), BuildingBlock: XUDNAN_clean_linker_2, # of connection points: 2
#     Edge 36, Type (0, 0), BuildingBlock: XUDNAN_clean_linker_2, # of connection points: 2
#     Edge 37, Type (0, 0), BuildingBlock: XUDNAN_clean_linker_2, # of connection points: 2
#     Edge 38, Type (0, 0), BuildingBlock: XUDNAN_clean_linker_2, # of connection points: 2
#     Edge 39, Type (0, 0), BuildingBlock: XUDNAN_clean_linker_2, # of connection points: 2
#     Edge 40, Type (0, 0), BuildingBlock: XUDNAN_clean_linker_2, # of connection points: 2
#     Edge 41, Type (0, 0), BuildingBlock: XUDNAN_clean_linker_2, # of connection points: 2
# Relax obj value: 0.256
# Max RMSD: 0.219
# Mean RMSD: 0.219
data_MOF--net-wkc--node1-XOMCOT_clean_sbu_0--edge1-XUDNAN_clean_linker_2
_symmetry_space_group_name_H-M    P1
_symmetry_Int_Tables_number       1
_symmetry_cell_setting            triclinic
loop_
_symmetry_equiv_pos_as_xyz
'x, y, z'
_cell_length_a     38.758862
_cell_length_b     38.730471
_cell_length_c     45.567469
_cell_angle_alpha  89.84446
_cell_angle_beta   90.044346
_cell_angle_gamma 119.90491
loop_
_atom_site_label
_atom_site_type_symbol
_atom_site_fract_x
_atom_site_fract_y
_atom_site_fract_z
_atom_type_partial_charge
Co0 Co 0.26497 0.43074 0.99076 0.0
C1 C 0.28545 0.38167 0.95239 0.0
C2 C 0.22927 0.37671 0.94107 0.0
C3 C 0.23546 0.35174 0.92319 0.0
N4 N 0.26035 0.39511 0.95952 0.0
N5 N 0.27074 0.35497 0.93027 0.0
H6 H 0.31299 0.39004 0.96384 0.0
H7 H 0.2035 0.38059 0.94103 0.0
C8 C 0.1813 0.41022 0.00184 0.0
O9 O 0.19294 0.44821 0.99878 0.0
N10 N 0.2687 0.46604 0.02255 0.0
C11 C 0.25456 0.45448 0.05004 0.0
C12 C 0.25533 0.48596 0.06457 0.0
C13 C 0.27779 0.50452 0.02086 0.0
N14 N 0.26959 0.51731 0.04607 0.0
C15 C 0.30918 0.41642 0.03402 0.0
C16 C 0.25015 0.34014 0.04868 0.0
C17 C 0.28435 0.35931 0.06616 0.0
C18 C 0.31477 0.39728 0.05795 0.0
C19 C 0.24603 0.36013 0.02456 0.0
N20 N 0.27446 0.39853 0.01857 0.0
H21 H 0.33166 0.44674 0.02908 0.0
H22 H 0.21928 0.34526 0.01149 0.0
H23 H 0.24193 0.42444 0.05843 0.0
H24 H 0.28841 0.52241 1.00124 0.0
O25 O 0.31918 0.46661 0.97926 0.0
O26 O 0.26679 0.4686 0.96176 0.0
O27 O 0.20601 0.39796 0.99809 0.0
C28 C 0.30531 0.48332 0.96179 0.0
H29 H 0.21538 0.3323 0.90645 0.0
H30 H 0.24373 0.48492 0.08635 0.0
H31 H 0.22639 0.31046 0.05409 0.0
H32 H 0.34158 0.41307 0.07097 0.0
Co33 Co 0.85461 0.27706 0.16739 0.0
C34 C 0.91885 0.2826 0.12799 0.0
C35 C 0.86285 0.23027 0.11972 0.0
C36 C 0.88993 0.23217 0.09933 0.0
N37 N 0.8812 0.26109 0.13852 0.0
N38 N 0.92512 0.26521 0.10449 0.0
H39 H 0.94072 0.31149 0.13609 0.0
H40 H 0.83137 0.20881 0.1198 0.0
C41 C 0.81712 0.18969 0.17871 0.0
O42 O 0.85325 0.19484 0.17705 0.0
N43 N 0.82808 0.29383 0.19487 0.0
C44 C 0.8454 0.32704 0.2114 0.0
C45 C 0.81626 0.32952 0.2269 0.0
C46 C 0.78879 0.27638 0.20057 0.0
N47 N 0.78084 0.29761 0.22012 0.0
C48 C 0.92578 0.29726 0.20098 0.0
C49 C 0.88594 0.25217 0.24966 0.0
C50 C 0.92742 0.2753 0.25056 0.0
C51 C 0.94744 0.29819 0.22584 0.0
C52 C 0.86552 0.25253 0.22463 0.0
N53 N 0.88535 0.27373 0.20017 0.0
H54 H 0.94149 0.31713 0.18315 0.0
H55 H 0.83341 0.23679 0.22548 0.0
H56 H 0.877 0.34811 0.21194 0.0
H57 H 0.76642 0.24934 0.19014 0.0
O58 O 0.88914 0.33184 0.15636 0.0
O59 O 0.83111 0.29152 0.13529 0.0
O60 O 0.81161 0.21926 0.17393 0.0
C61 C 0.86266 0.3268 0.13677 0.0
H62 H 0.88362 0.21198 0.08113 0.0
H63 H 0.82071 0.3528 0.24213 0.0
H64 H 0.86915 0.23544 0.2687 0.0
H65 H 0.97947 0.31736 0.22596 0.0
Co66 Co 0.58553 0.84938 0.34011 0.0
C67 C 0.63304 0.92036 0.30299 0.0
C68 C 0.64108 0.87152 0.2902 0.0
C69 C 0.66318 0.90329 0.27169 0.0
N70 N 0.62235 0.88235 0.30985 0.0
N71 N 0.65797 0.93394 0.27967 0.0
H72 H 0.6227 0.93766 0.31484 0.0
H73 H 0.63832 0.84237 0.28898 0.0
C74 C 0.61764 0.80026 0.36499 0.0
O75 O 0.60976 0.80993 0.39072 0.0
N76 N 0.54734 0.8153 0.36976 0.0
C77 C 0.53403 0.8244 0.39432 0.0
C78 C 0.50349 0.78997 0.40614 0.0
C79 C 0.52403 0.77545 0.36691 0.0
N80 N 0.49709 0.75921 0.38882 0.0
C81 C 0.61206 0.90889 0.38487 0.0
C82 C 0.68442 0.91383 0.39602 0.0
C83 C 0.67068 0.93275 0.41502 0.0
C84 C 0.63495 0.9317 0.40832 0.0
C85 C 0.66023 0.89109 0.37271 0.0
N86 N 0.62273 0.88563 0.36934 0.0
H87 H 0.58499 0.90912 0.37984 0.0
H88 H 0.67127 0.877 0.358 0.0
H89 H 0.54372 0.85366 0.40281 0.0
H90 H 0.5263 0.7589 0.34865 0.0
O91 O 0.55499 0.87551 0.3344 0.0
O92 O 0.54436 0.82149 0.31044 0.0
O93 O 0.61052 0.81384 0.3414 0.0
C94 C 0.53365 0.84793 0.31564 0.0
H95 H 0.68077 0.90336 0.25323 0.0
H96 H 0.48585 0.78815 0.4251 0.0
H97 H 0.71282 0.91548 0.39967 0.0
H98 H 0.62449 0.94801 0.42137 0.0
Co99 Co 0.75233 0.57853 0.48849 0.0
C100 C 0.73465 0.62447 0.44415 0.0
C101 C 0.7974 0.64726 0.44717 0.0
C102 C 0.79067 0.67046 0.42752 0.0
N103 N 0.76232 0.61939 0.4588 0.0
N104 N 0.75118 0.65585 0.42568 0.0
H105 H 0.70285 0.60595 0.44698 0.0
H106 H 0.82613 0.65052 0.45195 0.0
C107 C 0.83637 0.6385 0.50708 0.0
O108 O 0.82672 0.66655 0.50804 0.0
N109 N 0.74183 0.53714 0.51683 0.0
C110 C 0.71059 0.51926 0.53526 0.0
C111 C 0.71247 0.48897 0.54974 0.0
C112 C 0.76198 0.5173 0.52001 0.0
N113 N 0.74474 0.48765 0.54008 0.0
C114 C 0.716 0.6196 0.51497 0.0
C115 C 0.74907 0.62748 0.57003 0.0
C116 C 0.71942 0.63771 0.56602 0.0
C117 C 0.70396 0.63494 0.5378 0.0
C118 C 0.7608 0.61279 0.54635 0.0
N119 N 0.74411 0.60872 0.51918 0.0
H120 H 0.70042 0.61399 0.49455 0.0
H121 H 0.78153 0.60233 0.55038 0.0
H122 H 0.68751 0.52705 0.53741 0.0
H123 H 0.78822 0.52403 0.50738 0.0
O124 O 0.69809 0.5476 0.47506 0.0
O125 O 0.74892 0.5426 0.4577 0.0
O126 O 0.81103 0.60342 0.49834 0.0
C127 C 0.71082 0.53004 0.45743 0.0
H128 H 0.81294 0.6958 0.41529 0.0
H129 H 0.69072 0.46842 0.56523 0.0
H130 H 0.76124 0.62834 0.59159 0.0
H131 H 0.68106 0.6426 0.53362 0.0
Co132 Co 0.17883 0.75482 0.66167 0.0
C133 C 0.11082 0.73461 0.6231 0.0
C134 C 0.16455 0.78051 0.60348 0.0
C135 C 0.13338 0.77046 0.5842 0.0
N136 N 0.15007 0.75869 0.62817 0.0
N137 N 0.09979 0.74144 0.59662 0.0
H138 H 0.09086 0.71172 0.63821 0.0
H139 H 0.19567 0.80142 0.59945 0.0
C140 C 0.21232 0.84676 0.66024 0.0
O141 O 0.18733 0.84706 0.64093 0.0
N142 N 0.20721 0.75107 0.69569 0.0
C143 C 0.20865 0.76848 0.72163 0.0
C144 C 0.23281 0.76277 0.74053 0.0
C145 C 0.23168 0.73572 0.69906 0.0
N146 N 0.24732 0.74221 0.72643 0.0
C147 C 0.11815 0.71436 0.70435 0.0
C148 C 0.09698 0.77233 0.71096 0.0
C149 C 0.08059 0.73944 0.72996 0.0
C150 C 0.09056 0.70961 0.72588 0.0
C151 C 0.1243 0.77577 0.68957 0.0
N152 N 0.13586 0.74788 0.68738 0.0
H153 H 0.12699 0.69205 0.70227 0.0
H154 H 0.13634 0.80107 0.67516 0.0
H155 H 0.19389 0.7853 0.72632 0.0
H156 H 0.23841 0.72062 0.682 0.0
O157 O 0.15909 0.69965 0.65159 0.0
O158 O 0.21591 0.75046 0.63563 0.0
O159 O 0.2101 0.81421 0.66863 0.0
C160 C 0.19102 0.71223 0.63569 0.0
H161 H 0.13551 0.78214 0.56225 0.0
H162 H 0.24042 0.77428 0.76264 0.0
H163 H 0.08924 0.79552 0.71292 0.0
H164 H 0.07872 0.68378 0.74014 0.0
Co165 Co 0.44035 0.17481 0.82955 0.0
C166 C 0.40103 0.11889 0.7802 0.0
C167 C 0.36754 0.14657 0.79318 0.0
C168 C 0.34557 0.11721 0.77301 0.0
N169 N 0.40233 0.14745 0.79796 0.0
N170 N 0.36645 0.09938 0.7651 0.0
H171 H 0.4241 0.111 0.77952 0.0
H172 H 0.35733 0.16406 0.80479 0.0
C173 C 0.41754 0.23799 0.83805 0.0
O174 O 0.44958 0.26416 0.82399 0.0
N175 N 0.47821 0.2012 0.8611 0.0
C176 C 0.48668 0.18283 0.88284 0.0
C177 C 0.51523 0.21113 0.90076 0.0
C178 C 0.50311 0.24057 0.86543 0.0
N179 N 0.52553 0.24725 0.88972 0.0
C180 C 0.40155 0.09431 0.8502 0.0
C181 C 0.37623 0.10878 0.90313 0.0
C182 C 0.37218 0.07119 0.89823 0.0
C183 C 0.38356 0.06371 0.8708 0.0
C184 C 0.39363 0.13837 0.88168 0.0
N185 N 0.40725 0.13131 0.85599 0.0
H186 H 0.41281 0.08873 0.83022 0.0
H187 H 0.39907 0.16783 0.88692 0.0
H188 H 0.47338 0.15096 0.88542 0.0
H189 H 0.50523 0.26385 0.85117 0.0
O190 O 0.4744 0.15563 0.81509 0.0
O191 O 0.47848 0.2126 0.80161 0.0
O192 O 0.41001 0.20218 0.84119 0.0
C193 C 0.49213 0.18798 0.79949 0.0
H194 H 0.31537 0.10793 0.76639 0.0
H195 H 0.52816 0.20569 0.92006 0.0
H196 H 0.3686 0.11634 0.92407 0.0
H197 H 0.38032 0.03495 0.86572 0.0
Co198 Co 0.57962 0.74096 0.82768 0.0
C199 C 0.62826 0.7208 0.86596 0.0
C200 C 0.64381 0.78187 0.87162 0.0
C201 C 0.66703 0.77364 0.89018 0.0
N202 N 0.61966 0.7487 0.85641 0.0
N203 N 0.65708 0.73514 0.88667 0.0
H204 H 0.61376 0.69059 0.85776 0.0
H205 H 0.64423 0.80991 0.86968 0.0
C206 C 0.61136 0.81769 0.79311 0.0
O207 O 0.59334 0.7964 0.76986 0.0
N208 N 0.53831 0.73185 0.7989 0.0
C209 C 0.53207 0.71524 0.77191 0.0
C210 C 0.49803 0.71226 0.76013 0.0
C211 C 0.50754 0.73854 0.80294 0.0
N212 N 0.48249 0.72662 0.77975 0.0
C213 C 0.59341 0.6879 0.79306 0.0
C214 C 0.65627 0.74451 0.7603 0.0
C215 C 0.63695 0.70465 0.75129 0.0
C216 C 0.60706 0.67595 0.76916 0.0
C217 C 0.6419 0.75519 0.78483 0.0
N218 N 0.60831 0.72738 0.79901 0.0
H219 H 0.56833 0.66524 0.80501 0.0
H220 H 0.65707 0.78594 0.79152 0.0
H221 H 0.55082 0.70627 0.7608 0.0
H222 H 0.50333 0.75176 0.82249 0.0
O223 O 0.5452 0.68834 0.84341 0.0
O224 O 0.54591 0.74278 0.85871 0.0
O225 O 0.61017 0.8003 0.81744 0.0
C226 C 0.53043 0.70429 0.86058 0.0
H227 H 0.68888 0.7942 0.90555 0.0
H228 H 0.48513 0.69949 0.73906 0.0
H229 H 0.68054 0.76742 0.74759 0.0
H230 H 0.5924 0.64463 0.76352 0.0
Co231 Co 0.85228 0.58357 0.99165 0.0
C232 C 0.92079 0.63738 0.03017 0.0
C233 C 0.8686 0.6408 0.03976 0.0
C234 C 0.89752 0.66348 0.05995 0.0
N235 N 0.88343 0.62534 0.02028 0.0
N236 N 0.93041 0.66133 0.05389 0.0
H237 H 0.93954 0.62627 0.02196 0.0
H238 H 0.83811 0.63441 0.04039 0.0
C239 C 0.81816 0.63707 0.98327 0.0
O240 O 0.85505 0.66678 0.98297 0.0
N241 N 0.82059 0.54088 0.96476 0.0
C242 C 0.83321 0.52697 0.94262 0.0
C243 C 0.8006 0.49447 0.93047 0.0
C244 C 0.78088 0.51662 0.9661 0.0
N245 N 0.76779 0.48793 0.94539 0.0
C246 C 0.92208 0.63572 0.95755 0.0
C247 C 0.88144 0.64077 0.90933 0.0
C248 C 0.92301 0.66098 0.90892 0.0
C249 C 0.94343 0.65845 0.93336 0.0
C250 C 0.86124 0.61914 0.93427 0.0
N251 N 0.88154 0.61743 0.95835 0.0
H252 H 0.93831 0.63164 0.97496 0.0
H253 H 0.82908 0.60294 0.93393 0.0
H254 H 0.86398 0.5391 0.93618 0.0
H255 H 0.76213 0.51963 0.98228 0.0
O256 O 0.88511 0.56021 0.99891 0.0
O257 O 0.83041 0.54557 0.02395 0.0
O258 O 0.81125 0.60161 0.98852 0.0
C259 C 0.86043 0.53974 0.01976 0.0
H260 H 0.89409 0.67936 0.07818 0.0
H261 H 0.80123 0.47613 0.91283 0.0
H262 H 0.86475 0.64142 0.89046 0.0
H263 H 0.97561 0.67255 0.93325 0.0
Co264 Co 0.27688 0.84217 0.16611 0.0
C265 C 0.28232 0.90759 0.20193 0.0
C266 C 0.22792 0.85318 0.21047 0.0
C267 C 0.23015 0.88225 0.22913 0.0
N268 N 0.26062 0.86927 0.19346 0.0
N269 N 0.26451 0.91651 0.22382 0.0
H270 H 0.31093 0.92818 0.19248 0.0
H271 H 0.20479 0.82223 0.21006 0.0
C272 C 0.20493 0.79351 0.12775 0.0
O273 O 0.22884 0.80195 0.10512 0.0
N274 N 0.29426 0.815 0.13913 0.0
C275 C 0.32781 0.83141 0.12275 0.0
C276 C 0.32899 0.80218 0.10664 0.0
C277 C 0.27666 0.77541 0.1339 0.0
N278 N 0.29691 0.76719 0.11366 0.0
C279 C 0.3259 0.91137 0.13144 0.0
C280 C 0.26649 0.90808 0.0961 0.0
C281 C 0.3062 0.9307 0.08702 0.0
C282 C 0.33614 0.93465 0.1062 0.0
C283 C 0.25769 0.88539 0.12187 0.0
N284 N 0.28723 0.88344 0.13694 0.0
H285 H 0.34958 0.91373 0.14523 0.0
H286 H 0.22706 0.86823 0.12872 0.0
H287 H 0.35069 0.86222 0.12258 0.0
H288 H 0.24894 0.75333 0.14381 0.0
O289 O 0.32857 0.86658 0.18447 0.0
O290 O 0.27722 0.80841 0.19764 0.0
O291 O 0.21927 0.8077 0.15314 0.0
C292 C 0.31426 0.83562 0.20149 0.0
H293 H 0.20872 0.87788 0.24601 0.0
H294 H 0.35166 0.80619 0.09093 0.0
H295 H 0.24248 0.9059 0.08259 0.0
H296 H 0.36729 0.95368 0.10078 0.0
Co297 Co 0.43544 0.26881 0.32713 0.0
C298 C 0.38906 0.28163 0.37396 0.0
C299 C 0.35325 0.22856 0.34912 0.0
C300 C 0.32866 0.23524 0.36705 0.0
N301 N 0.39124 0.25765 0.35328 0.0
N302 N 0.35115 0.26867 0.38254 0.0
H303 H 0.41394 0.30984 0.38072 0.0
H304 H 0.34346 0.20599 0.33234 0.0
C305 C 0.41674 0.1878 0.30147 0.0
O306 O 0.44955 0.20432 0.28598 0.0
N307 N 0.48031 0.28201 0.30129 0.0
C308 C 0.49325 0.30909 0.27934 0.0
C309 C 0.52894 0.31446 0.269 0.0
C310 C 0.50961 0.27308 0.30505 0.0
N311 N 0.53888 0.29146 0.28501 0.0
C312 C 0.3939 0.30372 0.29902 0.0
C313 C 0.38115 0.26401 0.24624 0.0
C314 C 0.36701 0.29061 0.24983 0.0
C315 C 0.37322 0.31044 0.27664 0.0
C316 C 0.40085 0.25753 0.26928 0.0
N317 N 0.40703 0.27721 0.29529 0.0
H318 H 0.39953 0.31991 0.31937 0.0
H319 H 0.4124 0.23783 0.26562 0.0
H320 H 0.47836 0.32476 0.27173 0.0
H321 H 0.50927 0.25314 0.32189 0.0
O322 O 0.46575 0.32268 0.34175 0.0
O323 O 0.46773 0.27047 0.35999 0.0
O324 O 0.40779 0.20908 0.31791 0.0
C325 C 0.48147 0.30879 0.36028 0.0
H326 H 0.29646 0.21814 0.36739 0.0
H327 H 0.546 0.33339 0.25086 0.0
H328 H 0.37706 0.24835 0.22572 0.0
H329 H 0.36305 0.3316 0.28 0.0
Co330 Co 0.17788 0.43892 0.50031 0.0
C331 C 0.11565 0.38804 0.54236 0.0
C332 C 0.17064 0.38971 0.55221 0.0
C333 C 0.14257 0.36625 0.57293 0.0
N334 N 0.15356 0.40319 0.53312 0.0
N335 N 0.10798 0.3652 0.56662 0.0
H336 H 0.09438 0.39437 0.53183 0.0
H337 H 0.20134 0.39668 0.55128 0.0
C338 C 0.21719 0.40471 0.46388 0.0
O339 O 0.2016 0.4129 0.44116 0.0
N340 N 0.20296 0.47592 0.46768 0.0
C341 C 0.18652 0.48472 0.44472 0.0
C342 C 0.21628 0.51187 0.42686 0.0
C343 C 0.24271 0.49903 0.46371 0.0
N344 N 0.25145 0.52077 0.43883 0.0
C345 C 0.10556 0.41218 0.46759 0.0
C346 C 0.09716 0.34028 0.44983 0.0
C347 C 0.07346 0.35394 0.43669 0.0
C348 C 0.07634 0.3893 0.44708 0.0
C349 C 0.12601 0.36429 0.47033 0.0
N350 N 0.1328 0.40176 0.47634 0.0
H351 H 0.10775 0.43964 0.47505 0.0
H352 H 0.1437 0.35317 0.48052 0.0
H353 H 0.15541 0.47313 0.44061 0.0
H354 H 0.26478 0.49924 0.4784 0.0
O355 O 0.1568 0.47159 0.51479 0.0
O356 O 0.21583 0.47953 0.52645 0.0
O357 O 0.21005 0.41208 0.48992 0.0
C358 C 0.19004 0.49156 0.52907 0.0
H359 H 0.14723 0.35092 0.59105 0.0
H360 H 0.21243 0.52469 0.40684 0.0
H361 H 0.09481 0.31229 0.4434 0.0
H362 H 0.05704 0.39983 0.43876 0.0
Co363 Co 0.75403 0.17447 0.66631 0.0
C364 C 0.7383 0.10874 0.70687 0.0
C365 C 0.79232 0.16205 0.71828 0.0
C366 C 0.78627 0.13231 0.73793 0.0
N367 N 0.76223 0.14714 0.69885 0.0
N368 N 0.75226 0.09873 0.73074 0.0
H369 H 0.71094 0.08877 0.69558 0.0
H370 H 0.81692 0.19234 0.71817 0.0
C371 C 0.83059 0.21736 0.6336 0.0
O372 O 0.80882 0.20486 0.6097 0.0
N373 N 0.74507 0.2025 0.63401 0.0
C374 C 0.72137 0.188 0.61011 0.0
C375 C 0.72493 0.21919 0.5934 0.0
C376 C 0.76168 0.24258 0.63174 0.0
N377 N 0.75009 0.25326 0.60706 0.0
C378 C 0.71313 0.10537 0.62917 0.0
C379 C 0.77903 0.09857 0.61614 0.0
C380 C 0.74415 0.07622 0.59981 0.0
C381 C 0.71022 0.07837 0.60771 0.0
C382 C 0.78061 0.12556 0.63706 0.0
N383 N 0.7491 0.13169 0.64098 0.0
H384 H 0.68681 0.10664 0.6351 0.0
H385 H 0.80761 0.14214 0.64958 0.0
H386 H 0.70226 0.15729 0.60458 0.0
H387 H 0.7824 0.26348 0.64752 0.0
O388 O 0.69902 0.15255 0.67823 0.0
O389 O 0.74912 0.21037 0.69311 0.0
O390 O 0.81378 0.20711 0.65887 0.0
C391 C 0.71114 0.18489 0.69356 0.0
H392 H 0.80581 0.13521 0.75589 0.0
H393 H 0.70983 0.21708 0.57291 0.0
H394 H 0.80523 0.09597 0.61239 0.0
H395 H 0.68207 0.06094 0.59656 0.0
H396 H 0.43247 0.31282 0.85502 0.0
H397 H 0.33958 0.18865 0.85142 0.0
H398 H 0.2928 0.20559 0.87489 0.0
H399 H 0.40529 0.33173 0.92648 0.0
H400 H 0.41646 0.38172 0.91789 0.0
H401 H 0.44283 0.36065 0.89953 0.0
H402 H 0.42158 0.3749 0.8491 0.0
H403 H 0.39535 0.39622 0.86731 0.0
H404 H 0.36952 0.35601 0.84164 0.0
H405 H 0.25545 0.23526 0.89757 0.0
H406 H 0.23015 0.27619 0.92024 0.0
H407 H 0.34709 0.38087 0.91275 0.0
C408 C 0.40216 0.28935 0.8589 0.0
C409 C 0.3896 0.24943 0.85106 0.0
C410 C 0.3499 0.21943 0.85706 0.0
C411 C 0.32305 0.22874 0.87041 0.0
C412 C 0.33636 0.26816 0.87809 0.0
C413 C 0.37497 0.29803 0.87278 0.0
C414 C 0.38164 0.33775 0.88423 0.0
C415 C 0.41344 0.3539 0.90847 0.0
C416 C 0.39267 0.36801 0.85906 0.0
C417 C 0.34066 0.32545 0.89654 0.0
C418 C 0.31503 0.28516 0.89251 0.0
C419 C 0.27526 0.26678 0.90102 0.0
C420 C 0.26112 0.2902 0.91379 0.0
C421 C 0.28671 0.33147 0.91832 0.0
C422 C 0.32713 0.34924 0.90986 0.0
H423 H 0.12997 0.42755 0.03156 0.0
H424 H 0.14176 0.32904 0.99827 0.0
H425 H 0.07668 0.28146 0.01999 0.0
H426 H 0.08748 0.38252 0.10018 0.0
H427 H 0.05422 0.40237 0.10221 0.0
H428 H 0.10033 0.42897 0.08226 0.0
H429 H 0.06181 0.42856 0.03566 0.0
H430 H 0.01558 0.40218 0.05554 0.0
H431 H 0.02231 0.38188 0.02189 0.0
H432 H 1.01114 0.24447 0.0462 0.0
H433 H 0.95021 0.22056 0.07602 0.0
H434 H 0.98149 0.34273 0.0938 0.0
C435 C 0.11852 0.39598 0.02839 0.0
C436 C 0.14079 0.38201 0.01292 0.0
C437 C 0.12517 0.34044 0.00989 0.0
C438 C 0.08821 0.31317 0.02215 0.0
C439 C 0.06728 0.32787 0.0376 0.0
C440 C 0.08183 0.36828 0.04083 0.0
C441 C 0.05418 0.37613 0.05968 0.0
C442 C 0.07532 0.39884 0.08774 0.0
C443 C 0.03748 0.39851 0.04214 0.0
C444 C 0.02192 0.33383 0.06661 0.0
C445 C 0.02995 0.30649 0.05346 0.0
C446 C 1.0045 0.26562 0.05653 0.0
C447 C 0.96988 0.2523 0.07342 0.0
C448 C 0.96103 0.27967 0.08729 0.0
C449 C 0.9876 0.32102 0.08381 0.0
H450 H 0.81895 0.12096 0.18914 0.0
H451 H 0.74268 0.17279 0.19748 0.0
H452 H 0.69264 0.11217 0.22348 0.0
H453 H 0.73984 0.01817 0.17795 0.0
H454 H 0.7652 0.99801 0.19892 0.0
H455 H 0.79345 0.04439 0.17943 0.0
H456 H 0.82915 0.07882 0.22776 0.0
H457 H 0.80079 0.03269 0.24745 0.0
H458 H 0.79994 0.07666 0.25921 0.0
H459 H 0.65286 0.047 0.2518 0.0
H460 H 0.62526 0.98187 0.27698 0.0
H461 H 0.72799 0.97339 0.24982 0.0
C462 C 0.79148 0.11944 0.196 0.0
C463 C 0.78475 0.15171 0.1911 0.0
C464 C 0.74844 0.14841 0.20069 0.0
C465 C 0.7199 0.11412 0.21561 0.0
C466 C 0.72795 0.08325 0.22063 0.0
C467 C 0.76273 0.0855 0.21081 0.0
C468 C 0.76488 0.04884 0.21958 0.0
C469 C 0.76589 0.026 0.19234 0.0
C470 C 0.80082 0.05993 0.2397 0.0
C471 C 0.72602 0.02564 0.23614 0.0
C472 C 0.70513 0.04595 0.23659 0.0
C473 C 0.66892 0.03079 0.25139 0.0
C474 C 0.6536 0.99388 0.26584 0.0
C475 C 0.67433 0.97233 0.26537 0.0
C476 C 0.71107 0.98871 0.25027 0.0
H477 H 0.76239 0.72998 0.43118 0.0
H478 H 0.69267 0.61834 0.38567 0.0
H479 H 0.65512 0.64609 0.36007 0.0
H480 H 0.68121 0.74467 0.44546 0.0
H481 H 0.70938 0.79812 0.4419 0.0
H482 H 0.73384 0.77117 0.45316 0.0
H483 H 0.78394 0.80274 0.41022 0.0
H484 H 0.75941 0.82966 0.39873 0.0
H485 H 0.7656 0.79769 0.3732 0.0
H486 H 0.62416 0.68662 0.3404 0.0
H487 H 0.59666 0.73205 0.33392 0.0
H488 H 0.68283 0.81417 0.39612 0.0
C489 C 0.73979 0.71188 0.41529 0.0
C490 C 0.73084 0.67247 0.40972 0.0
C491 C 0.70013 0.64882 0.38974 0.0
C492 C 0.67886 0.66441 0.37511 0.0
C493 C 0.68826 0.70349 0.38115 0.0
C494 C 0.71766 0.72666 0.40115 0.0
C495 C 0.71917 0.766 0.40629 0.0
C496 C 0.71036 0.77021 0.43862 0.0
C497 C 0.75943 0.80109 0.39652 0.0
C498 C 0.68585 0.76133 0.38634 0.0
C499 C 0.66892 0.72554 0.37143 0.0
C500 C 0.6373 0.71474 0.35193 0.0
C501 C 0.62202 0.74074 0.3482 0.0
C502 C 0.63784 0.7765 0.36441 0.0
C503 C 0.67042 0.78702 0.38335 0.0
H504 H 0.05953 0.77145 0.56723 0.0
H505 H 0.05236 0.66162 0.59656 0.0
H506 H 0.98537 0.62303 0.57438 0.0
H507 H 0.9575 0.74094 0.58319 0.0
H508 H 0.95137 0.76628 0.55211 0.0
H509 H 0.99975 0.78498 0.56848 0.0
H510 H 0.02861 0.78146 0.51803 0.0
H511 H 0.98026 0.76263 0.50153 0.0
H512 H 1.00618 0.735 0.49828 0.0
H513 H 0.9195 0.59649 0.54873 0.0
H514 H 0.85667 0.5838 0.52563 0.0
H515 H 0.90421 0.71111 0.51562 0.0
C516 C 0.04385 0.73926 0.56863 0.0
C517 C 0.06103 0.71933 0.58335 0.0
C518 C 0.03953 0.67727 0.58539 0.0
C519 C 1.00163 0.65519 0.57274 0.0
C520 C 0.98537 0.67566 0.55847 0.0
C521 C 1.00554 0.71678 0.55665 0.0
C522 C 0.98023 0.73148 0.5417 0.0
C523 C 0.97171 0.75745 0.56262 0.0
C524 C 1.00001 0.75397 0.51319 0.0
C525 C 0.94275 0.69224 0.53536 0.0
C526 C 0.94661 0.66041 0.54486 0.0
C527 C 0.91613 0.62118 0.54126 0.0
C528 C 0.88056 0.61427 0.52797 0.0
C529 C 0.87543 0.64642 0.51877 0.0
C530 C 0.90716 0.68589 0.52244 0.0
H531 H 0.21426 0.91916 0.66376 0.0
H532 H 0.27855 0.85873 0.68956 0.0
H533 H 0.32714 0.91853 0.7162 0.0
H534 H 0.30202 0.01939 0.65532 0.0
H535 H 0.27717 0.04409 0.67059 0.0
H536 H 0.24892 0.99768 0.65127 0.0
H537 H 0.20327 0.96719 0.69664 0.0
H538 H 0.23141 0.01341 0.71611 0.0
H539 H 0.22515 0.96781 0.73171 0.0
H540 H 0.36653 0.98258 0.74241 0.0
H541 H 0.39369 0.04663 0.76766 0.0
H542 H 0.30509 0.06752 0.72543 0.0
C543 C 0.23897 0.91882 0.67458 0.0
C544 C 0.24265 0.88424 0.67436 0.0
C545 C 0.27502 0.88477 0.68932 0.0
C546 C 0.30292 0.91868 0.70449 0.0
C547 C 0.29819 0.95201 0.70464 0.0
C548 C 0.2671 0.95249 0.69013 0.0
C549 C 0.26787 0.99161 0.69534 0.0
C550 C 0.27439 0.01455 0.6664 0.0
C551 C 0.22966 0.98457 0.71088 0.0
C552 C 0.30387 0.01262 0.71535 0.0
C553 C 0.32101 0.98928 0.72013 0.0
C554 C 0.35369 1.00141 0.73855 0.0
C555 C 0.36914 0.03824 0.75271 0.0
C556 C 0.35199 0.06284 0.74853 0.0
C557 C 0.31902 0.0497 0.72927 0.0
H558 H 0.8241 0.70844 0.96808 0.0
H559 H 0.73935 0.58178 0.97358 0.0
H560 H 0.68796 0.59339 0.95091 0.0
H561 H 0.75381 0.74333 0.983 0.0
H562 H 0.77753 0.78414 0.95738 0.0
H563 H 0.80645 0.76597 0.97592 0.0
H564 H 0.83061 0.75479 0.92571 0.0
H565 H 0.80158 0.77263 0.90701 0.0
H566 H 0.79448 0.72406 0.89858 0.0
H567 H 0.64705 0.61873 0.92442 0.0
H568 H 0.61945 0.65566 0.89848 0.0
H569 H 0.73137 0.76557 0.91012 0.0
C570 C 0.79457 0.68312 0.96501 0.0
C571 C 0.78579 0.64415 0.97284 0.0
C572 C 0.7468 0.61194 0.96805 0.0
C573 C 0.71742 0.61825 0.95508 0.0
C574 C 0.72739 0.65696 0.9471 0.0
C575 C 0.76498 0.68888 0.95211 0.0
C576 C 0.76866 0.72736 0.94059 0.0
C577 C 0.7771 0.75694 0.96573 0.0
C578 C 0.80073 0.74578 0.91655 0.0
C579 C 0.72737 0.71215 0.92802 0.0
C580 C 0.70398 0.67147 0.93198 0.0
C581 C 0.6651 0.65061 0.92137 0.0
C582 C 0.64975 0.67184 0.90644 0.0
C583 C 0.67314 0.71362 0.90219 0.0
C584 C 0.71246 0.73383 0.91331 0.0
H585 H 0.1645 0.75918 0.07672 0.0
H586 H 0.14605 0.7783 0.16785 0.0
H587 H 0.07353 0.74474 0.15915 0.0
H588 H 0.09058 0.77731 0.04636 0.0
H589 H 0.07507 0.73941 0.01857 0.0
H590 H 0.1253 0.76329 0.03226 0.0
H591 H 0.11669 0.69449 0.04609 0.0
H592 H 0.06641 0.67037 0.03238 0.0
H593 H 0.07599 0.66139 0.06953 0.0
H594 H 1.00303 0.71156 0.13987 0.0
H595 H 0.94013 0.68004 0.11199 0.0
H596 H 1.00445 0.68253 0.03339 0.0
C597 C 0.14526 0.75609 0.09496 0.0
C598 C 0.16113 0.77144 0.12303 0.0
C599 C 0.13474 0.76674 0.14619 0.0
C600 C 0.09345 0.74773 0.14145 0.0
C601 C 0.07889 0.73335 0.11345 0.0
C602 C 0.10399 0.73711 0.09063 0.0
C603 C 0.08085 0.71971 0.06249 0.0
C604 C 0.09372 0.75185 0.03851 0.0
C605 C 0.08525 0.68439 0.05201 0.0
C606 C 0.03882 0.70598 0.07294 0.0
C607 C 0.03834 0.71407 0.10241 0.0
C608 C 1.00309 0.705 0.11681 0.0
C609 C 0.96747 0.6873 0.1007 0.0
C610 C 0.96716 0.67874 0.07042 0.0
C611 C 1.00349 0.68813 0.05654 0.0
H612 H 0.4295 0.13453 0.271 0.0
H613 H 0.33838 0.14399 0.3197 0.0
H614 H 0.28944 0.07458 0.30626 0.0
H615 H 0.36953 0.07943 0.21175 0.0
H616 H 0.39241 0.04907 0.20744 0.0
H617 H 0.42061 0.09838 0.22251 0.0
H618 H 0.43624 0.06976 0.2689 0.0
H619 H 0.40839 0.02035 0.25384 0.0
H620 H 0.39591 0.0308 0.28957 0.0
H621 H 0.24941 1.00505 0.28414 0.0
H622 H 0.22288 0.9413 0.25776 0.0
H623 H 0.34155 0.97785 0.22516 0.0
C624 C 0.39938 0.12204 0.27918 0.0
C625 C 0.38783 0.14498 0.29634 0.0
C626 C 0.34805 0.12719 0.30654 0.0
C627 C 0.32 0.08774 0.29897 0.0
C628 C 0.3323 0.06636 0.28142 0.0
C629 C 0.37121 0.08285 0.27196 0.0
C630 C 0.37692 0.05416 0.25285 0.0
C631 C 0.39067 0.07129 0.2218 0.0
C632 C 0.40609 0.04311 0.26715 0.0
C633 C 0.33497 0.01906 0.25257 0.0
C634 C 0.30962 0.02654 0.26918 0.0
C635 C 0.26918 0.99877 0.27137 0.0
C636 C 0.25439 0.96246 0.25633 0.0
C637 C 0.27993 0.95401 0.23926 0.0
C638 C 0.32083 0.98299 0.23761 0.0
H639 H 0.21072 0.35763 0.41764 0.0
H640 H 0.27683 0.40667 0.49812 0.0
H641 H 0.31894 0.37676 0.48649 0.0
H642 H 0.21056 0.26403 0.42119 0.0
H643 H 0.21486 0.26154 0.38196 0.0
H644 H 0.19034 0.28656 0.39715 0.0
H645 H 0.23827 0.35052 0.36826 0.0
H646 H 0.26307 0.3258 0.35311 0.0
H647 H 0.29126 0.37194 0.37275 0.0
H648 H 0.35711 0.34492 0.46315 0.0
H649 H 0.38254 0.30861 0.43334 0.0
H650 H 0.28793 0.2779 0.37041 0.0
C651 C 0.23397 0.362 0.43293 0.0
C652 C 0.24075 0.3847 0.4587 0.0
C653 C 0.27111 0.38929 0.47829 0.0
C654 C 0.29524 0.37255 0.47178 0.0
C655 C 0.28807 0.35078 0.44586 0.0
C656 C 0.25767 0.34501 0.42704 0.0
C657 C 0.25536 0.32002 0.40084 0.0
C658 C 0.21541 0.28071 0.40027 0.0
C659 C 0.26242 0.34348 0.37205 0.0
C660 C 0.28954 0.31291 0.40753 0.0
C661 C 0.30842 0.33113 0.43341 0.0
C662 C 0.34211 0.3301 0.44311 0.0
C663 C 0.35646 0.30961 0.42606 0.0
C664 C 0.33678 0.28997 0.39992 0.0
C665 C 0.30298 0.29184 0.39067 0.0
H666 H 0.8728 0.2517 0.58364 0.0
H667 H 0.88793 0.23643 0.67626 0.0
H668 H 0.9612 0.27343 0.66949 0.0
H669 H 0.95175 0.23869 0.55718 0.0
H670 H 0.96611 0.2757 0.52866 0.0
H671 H 0.91531 0.24907 0.5412 0.0
H672 H 0.91817 0.31592 0.55284 0.0
H673 H 0.96897 0.34277 0.54026 0.0
H674 H 0.95668 0.35132 0.57665 0.0
H675 H 0.03345 0.31036 0.65149 0.0
H676 H 0.09741 0.34598 0.62473 0.0
H677 H 0.03357 0.33666 0.54423 0.0
C678 C 0.8914 0.25615 0.60262 0.0
C679 C 0.87455 0.24102 0.63051 0.0
C680 C 0.90013 0.24781 0.65471 0.0
C681 C 0.94177 0.26871 0.65103 0.0
C682 C 0.95731 0.28285 0.62309 0.0
C683 C 0.93279 0.27702 0.59937 0.0
C684 C 0.95657 0.29495 0.57158 0.0
C685 C 0.94685 0.26267 0.54829 0.0
C686 C 0.94968 0.32822 0.55964 0.0
C687 C 0.99845 0.31158 0.5832 0.0
C688 C 0.99839 0.3043 0.61293 0.0
C689 C 0.03374 0.31629 0.62824 0.0
C690 C 0.06996 0.33631 0.61281 0.0
C691 C 0.07067 0.34433 0.58235 0.0
C692 C 0.03424 0.33164 0.56754 0.0
H693 H 0.61954 0.8626 0.74415 0.0
H694 H 0.6575 0.87308 0.83493 0.0
H695 H 0.69743 0.94634 0.829 0.0
H696 H 0.71232 0.93925 0.71501 0.0
H697 H 0.68936 0.9566 0.68889 0.0
H698 H 0.66367 0.90529 0.70053 0.0
H699 H 0.60322 0.91207 0.71665 0.0
H700 H 0.62876 0.96341 0.70509 0.0
H701 H 0.61052 0.95062 0.74217 0.0
H702 H 0.73385 0.01906 0.81259 0.0
H703 H 0.76296 0.08426 0.78764 0.0
H704 H 0.70136 0.02555 0.70747 0.0
C705 C 0.63618 0.88016 0.76289 0.0
C706 C 0.6353 0.86186 0.79008 0.0
C707 C 0.6576 0.88624 0.81391 0.0
C708 C 0.6804 0.92792 0.81073 0.0
C709 C 0.6806 0.94487 0.78358 0.0
C710 C 0.659 0.92167 0.76009 0.0
C711 C 0.66423 0.94702 0.73319 0.0
C712 C 0.68355 0.9364 0.70792 0.0
C713 C 0.62431 0.94304 0.72373 0.0
C714 C 0.69223 0.98822 0.74512 0.0
C715 C 0.70136 0.9864 0.77421 0.0
C716 C 0.7269 0.02071 0.7898 0.0
C717 C 0.74352 0.05771 0.77533 0.0
C718 C 0.73467 0.0604 0.74546 0.0
C719 C 0.70851 0.0249 0.73034 0.0
H720 H 0.28619 0.69927 0.13902 0.0
H721 H 0.28408 0.75302 0.05619 0.0
H722 H 0.27281 0.69245 0.02985 0.0
H723 H 0.34132 0.65603 0.11348 0.0
H724 H 0.31589 0.61105 0.13501 0.0
H725 H 0.31841 0.65616 0.14787 0.0
H726 H 0.2415 0.6201 0.15157 0.0
H727 H 0.23874 0.5747 0.139 0.0
H728 H 0.21181 0.59472 0.1199 0.0
H729 H 0.2669 0.62911 0.01244 0.0
H730 H 0.26561 0.56581 0.00446 0.0
H731 H 0.27499 0.55353 0.0985 0.0
C732 C 0.28216 0.69748 0.11545 0.0
C733 C 0.28529 0.7301 0.09943 0.0
C734 C 0.28128 0.72783 0.06857 0.0
C735 C 0.27491 0.6937 0.05355 0.0
C736 C 0.27295 0.66227 0.0698 0.0
C737 C 0.27632 0.66369 0.10006 0.0
C738 C 0.27618 0.62697 0.11187 0.0
C739 C 0.31528 0.63825 0.128 0.0
C740 C 0.23989 0.60268 0.13176 0.0
C741 C 0.27283 0.60514 0.0835 0.0
C742 C 0.27069 0.62594 0.05957 0.0
C743 C 0.26844 0.61243 0.03099 0.0
C744 C 0.2682 0.57655 0.02668 0.0
C745 C 0.27051 0.55458 0.05082 0.0
C746 C 0.27278 0.56927 0.0796 0.0
H747 H 0.75543 0.3501 0.22982 0.0
H748 H 0.71982 0.225 0.23495 0.0
H749 H 0.65429 0.20993 0.25503 0.0
H750 H 0.70614 0.35532 0.29549 0.0
H751 H 0.69134 0.38855 0.27947 0.0
H752 H 0.73584 0.38947 0.26687 0.0
H753 H 0.70908 0.37721 0.21353 0.0
H754 H 0.66463 0.37647 0.22593 0.0
H755 H 0.66095 0.3348 0.20574 0.0
H756 H 0.59317 0.20923 0.27538 0.0
H757 H 0.53849 0.2216 0.28917 0.0
H758 H 0.6133 0.34671 0.26817 0.0
C759 C 0.73389 0.31962 0.23545 0.0
C760 C 0.74256 0.28868 0.23118 0.0
C761 C 0.71349 0.24899 0.23808 0.0
C762 C 0.67643 0.24028 0.24964 0.0
C763 C 0.66887 0.27157 0.25375 0.0
C764 C 0.69661 0.31038 0.24648 0.0
C765 C 0.68041 0.33828 0.25141 0.0
C766 C 0.70489 0.36976 0.2747 0.0
C767 C 0.67866 0.35782 0.22243 0.0
C768 C 0.63917 0.30915 0.26262 0.0
C769 C 0.63326 0.27092 0.26423 0.0
C770 C 0.59747 0.23903 0.27416 0.0
C771 C 0.56673 0.24634 0.28213 0.0
C772 C 0.57182 0.28506 0.2797 0.0
C773 C 0.60865 0.31681 0.27006 0.0
H774 H 0.45904 0.72021 0.43878 0.0
H775 H 0.46104 0.70647 0.34441 0.0
H776 H 0.40188 0.63964 0.3481 0.0
H777 H 0.42244 0.61439 0.4582 0.0
H778 H 0.39164 0.61517 0.48753 0.0
H779 H 0.43715 0.65989 0.47801 0.0
H780 H 0.39786 0.69721 0.47057 0.0
H781 H 0.35233 0.65269 0.48001 0.0
H782 H 0.35637 0.6773 0.4455 0.0
H783 H 0.33786 0.57875 0.36093 0.0
H784 H 0.27454 0.52661 0.38253 0.0
H785 H 0.31413 0.57838 0.46865 0.0
C786 C 0.44735 0.70296 0.41893 0.0
C787 C 0.46489 0.71867 0.3913 0.0
C788 C 0.44868 0.69499 0.36587 0.0
C789 C 0.41493 0.65698 0.36774 0.0
C790 C 0.39792 0.64281 0.39522 0.0
C791 C 0.41377 0.66488 0.42043 0.0
C792 C 0.3883 0.64382 0.447 0.0
C793 C 0.41126 0.63265 0.46898 0.0
C794 C 0.3728 0.66927 0.46161 0.0
C795 C 0.3549 0.60711 0.43263 0.0
C796 C 0.36121 0.60703 0.40276 0.0
C797 C 0.33296 0.57806 0.38435 0.0
C798 C 0.29712 0.54873 0.39672 0.0
C799 C 0.28995 0.54842 0.42718 0.0
C800 C 0.31951 0.57753 0.44542 0.0
H801 H 0.72661 0.44344 0.59032 0.0
H802 H 0.78752 0.46409 0.5067 0.0
H803 H 0.80248 0.41074 0.51797 0.0
H804 H 0.79196 0.41732 0.63241 0.0
H805 H 0.75111 0.37932 0.65328 0.0
H806 H 0.74902 0.42223 0.64024 0.0
H807 H 0.6822 0.376 0.61411 0.0
H808 H 0.68404 0.33306 0.62712 0.0
H809 H 0.67948 0.33944 0.58838 0.0
H810 H 0.80379 0.35008 0.5353 0.0
H811 H 0.79202 0.28697 0.55824 0.0
H812 H 0.73177 0.30584 0.63093 0.0
C813 C 0.7434 0.43705 0.57446 0.0
C814 C 0.75596 0.45829 0.54761 0.0
C815 C 0.77806 0.44892 0.52759 0.0
C816 C 0.78663 0.41847 0.53377 0.0
C817 C 0.77325 0.39778 0.56018 0.0
C818 C 0.7523 0.4068 0.58031 0.0
C819 C 0.73918 0.37839 0.60626 0.0
C820 C 0.75901 0.40065 0.63474 0.0
C821 C 0.69352 0.35536 0.60912 0.0
C822 C 0.75494 0.35122 0.59712 0.0
C823 C 0.77479 0.36316 0.57055 0.0
C824 C 0.78911 0.34095 0.5564 0.0
C825 C 0.78241 0.30532 0.56949 0.0
C826 C 0.76195 0.29249 0.59649 0.0
C827 C 0.74863 0.31599 0.61072 0.0
H828 H 0.30833 0.74089 0.69763 0.0
H829 H 0.25146 0.72259 0.78262 0.0
H830 H 0.30496 0.7148 0.80528 0.0
H831 H 0.34531 0.67012 0.70887 0.0
H832 H 0.39123 0.70137 0.68964 0.0
H833 H 0.34667 0.70226 0.67965 0.0
H834 H 0.38354 0.77861 0.68765 0.0
H835 H 0.42802 0.77791 0.698 0.0
H836 H 0.40671 0.79865 0.72258 0.0
H837 H 0.36695 0.7146 0.81955 0.0
H838 H 0.43169 0.71715 0.8239 0.0
H839 H 0.44874 0.73493 0.72983 0.0
C840 C 0.30671 0.73424 0.72084 0.0
C841 C 0.27582 0.73245 0.73841 0.0
C842 C 0.27509 0.72448 0.76884 0.0
C843 C 0.30525 0.71988 0.78189 0.0
C844 C 0.33595 0.7231 0.7642 0.0
C845 C 0.33676 0.72963 0.73429 0.0
C846 C 0.37414 0.73336 0.7206 0.0
C847 C 0.3637 0.69977 0.69838 0.0
C848 C 0.3996 0.77458 0.70638 0.0
C849 C 0.39434 0.72852 0.74757 0.0
C850 C 0.37176 0.72264 0.77247 0.0
C851 C 0.38479 0.71886 0.80018 0.0
C852 C 0.42176 0.72074 0.80248 0.0
C853 C 0.44525 0.72625 0.77723 0.0
C854 C 0.43121 0.73019 0.74945 0.0
H855 H 0.73334 0.448 0.89488 0.0
H856 H 0.71174 0.45268 0.98781 0.0
H857 H 0.64461 0.3944 0.98241 0.0
H858 H 0.63128 0.41604 0.87035 0.0
H859 H 0.63215 0.38376 0.8423 0.0
H860 H 0.67761 0.42773 0.85291 0.0
H861 H 0.7099 0.38453 0.86422 0.0
H862 H 0.66463 0.34051 0.85361 0.0
H863 H 0.68562 0.34328 0.88943 0.0
H864 H 0.583 0.33197 0.96829 0.0
H865 H 0.52933 0.27058 0.94556 0.0
H866 H 0.58862 0.30702 0.86141 0.0
C867 C 0.71436 0.4369 0.91403 0.0
C868 C 0.72781 0.45509 0.94176 0.0
C869 C 0.70197 0.43975 0.96627 0.0
C870 C 0.66381 0.40651 0.96344 0.0
C871 C 0.65164 0.38912 0.93589 0.0
C872 C 0.67596 0.4039 0.91153 0.0
C873 C 0.65603 0.37872 0.88464 0.0
C874 C 0.64884 0.40302 0.86116 0.0
C875 C 0.6805 0.3607 0.87226 0.0
C876 C 0.61714 0.34691 0.89788 0.0
C877 C 0.61528 0.35358 0.92749 0.0
C878 C 0.58375 0.32681 0.94503 0.0
C879 C 0.55353 0.29211 0.93204 0.0
C880 C 0.5548 0.28472 0.90181 0.0
C881 C 0.58667 0.31273 0.88442 0.0
H882 H 0.39539 0.31351 0.19441 0.0
H883 H 0.2939 0.28506 0.25002 0.0
H884 H 0.25943 0.29521 0.2078 0.0
H885 H 0.39258 0.39192 0.15461 0.0
H886 H 0.40806 0.38053 0.12044 0.0
H887 H 0.42343 0.36922 0.1547 0.0
H888 H 0.39318 0.29554 0.1387 0.0
H889 H 0.37738 0.30656 0.10447 0.0
H890 H 0.34157 0.26777 0.12802 0.0
H891 H 0.23612 0.30759 0.15921 0.0
H892 H 0.22857 0.32886 0.10953 0.0
H893 H 0.34676 0.35184 0.0866 0.0
C894 C 0.36581 0.30926 0.19758 0.0
C895 C 0.34697 0.29823 0.22521 0.0
C896 C 0.30864 0.29356 0.22889 0.0
C897 C 0.28885 0.29899 0.20506 0.0
C898 C 0.30812 0.30947 0.17794 0.0
C899 C 0.34598 0.31511 0.17421 0.0
C900 C 0.36104 0.32843 0.1433 0.0
C901 C 0.39848 0.36999 0.14328 0.0
C902 C 0.36873 0.29774 0.12771 0.0
C903 C 0.32576 0.32948 0.13015 0.0
C904 C 0.2953 0.3179 0.15033 0.0
C905 C 0.25974 0.31668 0.14323 0.0
C906 C 0.2556 0.3285 0.11494 0.0
C907 C 0.28703 0.34178 0.09433 0.0
C908 C 0.3223 0.34177 0.10199 0.0
H909 H 0.06647 0.38828 0.38651 0.0
H910 H 0.02434 0.27332 0.42831 0.0
H911 H 0.98466 0.24 0.38398 0.0
H912 H 0.97513 0.36514 0.35086 0.0
H913 H 0.99945 0.39373 0.31844 0.0
H914 H 0.0245 0.40778 0.35332 0.0
H915 H 0.08404 0.40393 0.33107 0.0
H916 H 0.05895 0.38941 0.29619 0.0
H917 H 0.07546 0.35847 0.31383 0.0
H918 H 0.9482 0.2198 0.33531 0.0
H919 H 0.91741 0.2143 0.28668 0.0
H920 H 0.9845 0.34285 0.27732 0.0
C921 C 0.04853 0.3561 0.38653 0.0
C922 C 0.04818 0.33335 0.41093 0.0
C923 C 0.02508 0.29127 0.4098 0.0
C924 C 1.00247 0.27215 0.38476 0.0
C925 C 1.00365 0.29558 0.36104 0.0
C926 C 0.02611 0.33664 0.36177 0.0
C927 C 0.02227 0.35514 0.33358 0.0
C928 C 1.00425 0.38202 0.33941 0.0
C929 C 0.06258 0.37809 0.31774 0.0
C930 C 0.99374 0.3181 0.31688 0.0
C931 C 0.98337 0.284 0.33302 0.0
C932 C 0.95629 0.24628 0.32244 0.0
C933 C 0.93894 0.24346 0.29486 0.0
C934 C 0.94885 0.27813 0.27819 0.0
C935 C 0.977 0.3158 0.28929 0.0
H936 H 0.63941 0.92422 0.46959 0.0
H937 H 0.75033 0.98696 0.42133 0.0
H938 H 0.78397 0.02535 0.4661 0.0
H939 H 0.64846 1.00478 0.50779 0.0
H940 H 0.62667 0.97828 0.54146 0.0
H941 H 0.61313 0.95212 0.5071 0.0
H942 H 0.63413 0.90248 0.52687 0.0
H943 H 0.6476 0.92843 0.56146 0.0
H944 H 0.68355 0.92115 0.54142 0.0
H945 H 0.8024 0.06296 0.5139 0.0
H946 H 0.80502 0.09578 0.56065 0.0
H947 H 0.68237 1.0057 0.57842 0.0
C948 C 0.67095 0.94563 0.4686 0.0
C949 C 0.69237 0.95287 0.4421 0.0
C950 C 0.73357 0.98088 0.44155 0.0
C951 C 0.75282 1.00275 0.46683 0.0
C952 C 0.73049 0.9956 0.49245 0.0
C953 C 0.69054 0.96733 0.49356 0.0
C954 C 0.67246 0.96712 0.52302 0.0
C955 C 0.63818 0.97613 0.51962 0.0
C956 C 0.65863 0.92743 0.53914 0.0
C957 C 0.70805 1.0009 0.53799 0.0
C958 C 0.74136 0.01666 0.52017 0.0
C959 C 0.7768 0.05024 0.52833 0.0
C960 C 0.77802 0.06855 0.55512 0.0
C961 C 0.74398 0.05329 0.57355 0.0
C962 C 0.70892 0.01838 0.56498 0.0
H963 H 0.75635 0.68361 0.61505 0.0
H964 H 0.64047 0.60989 0.57495 0.0
H965 H 0.60838 0.62196 0.61694 0.0
H966 H 0.72489 0.64981 0.68867 0.0
H967 H 0.75605 0.69767 0.7054 0.0
H968 H 0.77094 0.68539 0.67136 0.0
H969 H 0.7765 0.74856 0.64714 0.0
H970 H 0.76161 0.76105 0.68112 0.0
H971 H 0.73428 0.75622 0.64791 0.0
H972 H 0.58804 0.63905 0.66286 0.0
H973 H 0.58001 0.66072 0.71177 0.0
H974 H 0.70813 0.72305 0.72415 0.0
C975 C 0.72426 0.67019 0.61511 0.0
C976 C 0.70103 0.6464 0.59139 0.0
C977 C 0.65907 0.62916 0.59238 0.0
C978 C 0.64046 0.63557 0.61626 0.0
C979 C 0.66411 0.65916 0.63912 0.0
C980 C 0.70503 0.67627 0.63893 0.0
C981 C 0.72298 0.69946 0.66698 0.0
C982 C 0.74501 0.68203 0.68411 0.0
C983 C 0.75047 0.74397 0.66038 0.0
C984 C 0.6856 0.69225 0.68296 0.0
C985 C 0.65212 0.66895 0.66628 0.0
C986 C 0.61396 0.6573 0.67619 0.0
C987 C 0.60972 0.66954 0.70405 0.0
C988 C 0.64341 0.69312 0.72179 0.0
C989 C 0.68194 0.70507 0.71096 0.0
H990 H 1.0118 0.6749 0.75001 0.0
H991 H 0.09457 0.79952 0.76781 0.0
H992 H 0.0585 0.79477 0.81361 0.0
H993 H 0.92224 0.67283 0.78161 0.0
H994 H 0.90354 0.62343 0.79637 0.0
H995 H 0.9328 0.63798 0.76319 0.0
H996 H 0.98181 0.61883 0.78684 0.0
H997 H 0.95289 0.60442 0.82006 0.0
H998 H 1.00513 0.64098 0.8213 0.0
H999 H 0.02 0.77408 0.86061 0.0
H1000 H 0.97832 0.73963 0.90403 0.0
H1001 H 0.91893 0.62942 0.85498 0.0
C1002 C 0.02184 0.70134 0.7633 0.0
C1003 C 0.05582 0.73763 0.75531 0.0
C1004 C 0.0682 0.77159 0.77328 0.0
C1005 C 0.04801 0.76914 0.79939 0.0
C1006 C 0.01521 0.73267 0.807 0.0
C1007 C 1.00183 0.69949 0.78929 0.0
C1008 C 0.96732 0.66327 0.80333 0.0
C1009 C 0.92922 0.64852 0.78503 0.0
C1010 C 0.97742 0.62993 0.80817 0.0
C1011 C 0.9643 0.68093 0.83214 0.0
C1012 C 0.9921 0.72105 0.8338 0.0
C1013 C 0.99745 0.74294 0.85933 0.0
C1014 C 0.97387 0.72323 0.88383 0.0
C1015 C 0.94519 0.68229 0.88241 0.0
C1016 C 0.94001 0.66105 0.85618 0.0
H1017 H 0.28112 0.97506 0.05504 0.0
H1018 H 0.35479 0.91992 0.05046 0.0
H1019 H 0.37467 0.94513 1.00011 0.0
H1020 H 0.24882 0.95822 0.97764 0.0
H1021 H 0.25125 1.00574 0.97399 0.0
H1022 H 0.24001 0.98091 0.0091 0.0
H1023 H 0.29894 0.04343 0.03252 0.0
H1024 H 0.31029 0.06843 0.99754 0.0
H1025 H 0.34807 0.06347 0.01705 0.0
H1026 H 0.39028 0.97916 0.9524 0.0
H1027 H 0.40281 0.02244 0.9097 0.0
H1028 H 0.31794 0.05511 0.94314 0.0
C1029 C 0.30105 0.96803 0.04321 0.0
C1030 C 0.31673 0.94588 0.05664 0.0
C1031 C 0.34298 0.93742 0.04068 0.0
C1032 C 0.35416 0.95127 0.012 0.0
C1033 C 0.33873 0.97345 0.99948 0.0
C1034 C 0.31282 0.98193 0.01443 0.0
C1035 C 0.30264 0.00845 0.99617 0.0
C1036 C 0.25802 0.98704 0.98878 0.0
C1037 C 0.31578 0.0483 0.01175 0.0
C1038 C 0.32757 0.01409 0.969 0.0
C1039 C 0.34771 0.9932 0.97137 0.0
C1040 C 0.37417 0.99515 0.94996 0.0
C1041 C 0.38079 0.01964 0.92558 0.0
C1042 C 0.36098 0.04192 0.92265 0.0
C1043 C 0.33356 0.03852 0.94459 0.0
H1044 H 0.37904 0.50313 0.942 0.0
H1045 H 0.29416 0.54501 0.94435 0.0
H1046 H 0.34406 0.60851 0.92104 0.0
H1047 H 0.46644 0.59514 0.95725 0.0
H1048 H 0.49753 0.58685 0.93218 0.0
H1049 H 0.45526 0.5451 0.94905 0.0
H1050 H 0.42726 0.51521 0.89784 0.0
H1051 H 0.46977 0.55652 0.88085 0.0
H1052 H 0.42023 0.5452 0.87079 0.0
H1053 H 0.40578 0.66932 0.89971 0.0
H1054 H 0.4695 0.71741 0.87581 0.0
H1055 H 0.51123 0.63288 0.88505 0.0
C1056 C 0.37087 0.52558 0.93743 0.0
C1057 C 0.33289 0.51936 0.94501 0.0
C1058 C 0.32309 0.5492 0.93849 0.0
C1059 C 0.35133 0.58542 0.9255 0.0
C1060 C 0.38891 0.59092 0.91879 0.0
C1061 C 0.39832 0.5614 0.92402 0.0
C1062 C 0.44004 0.57377 0.91379 0.0
C1063 C 0.46636 0.57531 0.93961 0.0
C1064 C 0.43926 0.54604 0.88936 0.0
C1065 C 0.45291 0.61504 0.90213 0.0
C1066 C 0.42335 0.62479 0.90556 0.0
C1067 C 0.42898 0.66184 0.8968 0.0
C1068 C 0.46534 0.68909 0.8835 0.0
C1069 C 0.49515 0.67878 0.87871 0.0
C1070 C 0.48889 0.64149 0.88848 0.0
H1071 H 0.80523 0.4708 0.04815 0.0
H1072 H 0.93162 0.54575 0.03124 0.0
H1073 H 0.9452 0.4989 0.05865 0.0
H1074 H 0.81396 0.43882 0.12165 0.0
H1075 H 0.7737 0.38852 0.11686 0.0
H1076 H 0.77369 0.42875 0.09693 0.0
H1077 H 0.76747 0.39217 0.04802 0.0
H1078 H 0.76775 0.35196 0.06779 0.0
H1079 H 0.80373 0.37759 0.03915 0.0
H1080 H 0.94587 0.4454 0.0881 0.0
H1081 H 0.93331 0.38665 0.11746 0.0
H1082 H 0.80627 0.34277 0.11344 0.0
C1083 C 0.83572 0.47742 0.05056 0.0
C1084 C 0.86745 0.512 0.03773 0.0
C1085 C 0.90691 0.51941 0.04087 0.0
C1086 C 0.91494 0.49301 0.05642 0.0
C1087 C 0.88313 0.45895 0.06845 0.0
C1088 C 0.84428 0.45085 0.06568 0.0
C1089 C 0.81569 0.41127 0.08011 0.0
C1090 C 0.79292 0.41721 0.10539 0.0
C1091 C 0.78696 0.38149 0.05741 0.0
C1092 C 0.84465 0.39868 0.09149 0.0
C1093 C 0.8834 0.42689 0.08461 0.0
C1094 C 0.91566 0.42296 0.0935 0.0
C1095 C 0.90825 0.38954 0.11017 0.0
C1096 C 0.86888 0.36013 0.11747 0.0
C1097 C 0.83661 0.36454 0.10772 0.0
H1098 H 0.49079 0.80826 0.26585 0.0
H1099 H 0.49425 0.88305 0.33793 0.0
H1100 H 0.43428 0.88164 0.31892 0.0
H1101 H 0.46234 0.85555 0.21159 0.0
H1102 H 0.43006 0.81064 0.1917 0.0
H1103 H 0.47137 0.81417 0.21226 0.0
H1104 H 0.4232 0.75022 0.24101 0.0
H1105 H 0.38167 0.74669 0.22063 0.0
H1106 H 0.38144 0.74796 0.26016 0.0
H1107 H 0.37684 0.87605 0.29151 0.0
H1108 H 0.32686 0.86948 0.25478 0.0
H1109 H 0.35951 0.79959 0.19939 0.0
C1110 C 0.47857 0.82391 0.27772 0.0
C1111 C 0.4972 0.84571 0.3034 0.0
C1112 C 0.48067 0.86629 0.31813 0.0
C1113 C 0.44638 0.86547 0.30764 0.0
C1114 C 0.42883 0.84405 0.28225 0.0
C1115 C 0.44434 0.82383 0.26727 0.0
C1116 C 0.42093 0.80557 0.23932 0.0
C1117 C 0.44778 0.82251 0.21211 0.0
C1118 C 0.40061 0.75989 0.24035 0.0
C1119 C 0.39051 0.81937 0.24081 0.0
C1120 C 0.39536 0.84104 0.26605 0.0
C1121 C 0.37229 0.85866 0.27186 0.0
C1122 C 0.34393 0.85468 0.25104 0.0
C1123 C 0.33896 0.83327 0.2249 0.0
C1124 C 0.36219 0.81509 0.21975 0.0
H1125 H 0.50323 0.38368 0.38027 0.0
H1126 H 0.54092 0.29542 0.37775 0.0
H1127 H 0.60513 0.34361 0.40031 0.0
H1128 H 0.59667 0.46889 0.36428 0.0
H1129 H 0.59093 0.50141 0.38955 0.0
H1130 H 0.54766 0.46005 0.37342 0.0
H1131 H 0.51869 0.43328 0.42512 0.0
H1132 H 0.56154 0.47494 0.4414 0.0
H1133 H 0.54831 0.42482 0.45158 0.0
H1134 H 0.66727 0.40322 0.41962 0.0
H1135 H 0.71859 0.46628 0.44204 0.0
H1136 H 0.63858 0.5139 0.43566 0.0
C1137 C 0.52486 0.37443 0.38485 0.0
C1138 C 0.51719 0.33587 0.37737 0.0
C1139 C 0.54608 0.3247 0.38365 0.0
C1140 C 0.58276 0.35197 0.39619 0.0
C1141 C 0.58978 0.39006 0.40279 0.0
C1142 C 0.5613 0.401 0.39799 0.0
C1143 C 0.57582 0.44331 0.40808 0.0
C1144 C 0.57789 0.46998 0.38229 0.0
C1145 C 0.54953 0.44412 0.43303 0.0
C1146 C 0.61705 0.45457 0.419 0.0
C1147 C 0.62479 0.42367 0.4153 0.0
C1148 C 0.66141 0.42749 0.42289 0.0
C1149 C 0.69048 0.46348 0.43535 0.0
C1150 C 0.68244 0.49478 0.44052 0.0
C1151 C 0.64539 0.49032 0.43198 0.0
H1152 H 0.13639 0.51007 0.55259 0.0
H1153 H 0.26298 0.55379 0.54395 0.0
H1154 H 0.27733 0.6156 0.56997 0.0
H1155 H 0.13913 0.60266 0.54244 0.0
H1156 H 0.10145 0.5928 0.56955 0.0
H1157 H 0.10122 0.5521 0.55036 0.0
H1158 H 0.10292 0.51999 0.59991 0.0
H1159 H 0.10287 0.56045 0.61927 0.0
H1160 H 0.14172 0.54872 0.62601 0.0
H1161 H 0.27751 0.67443 0.59441 0.0
H1162 H 0.26361 0.72267 0.61979 0.0
H1163 H 0.13701 0.63838 0.61526 0.0
C1164 C 0.16713 0.53261 0.55629 0.0
C1165 C 0.19863 0.5273 0.54622 0.0
C1166 C 0.23844 0.55725 0.55165 0.0
C1167 C 0.24685 0.59249 0.56627 0.0
C1168 C 0.21508 0.59699 0.57569 0.0
C1169 C 0.17601 0.56758 0.57131 0.0
C1170 C 0.1473 0.5793 0.58419 0.0
C1171 C 0.12071 0.58187 0.5602 0.0
C1172 C 0.12223 0.5504 0.60881 0.0
C1173 C 0.17627 0.62009 0.59625 0.0
C1174 C 0.21523 0.62997 0.59086 0.0
C1175 C 0.24713 0.66683 0.59898 0.0
C1176 C 0.23897 0.6941 0.61323 0.0
C1177 C 0.1993 0.6841 0.61958 0.0
C1178 C 0.16766 0.64661 0.61095 0.0
H1179 H 0.63729 0.13146 0.71496 0.0
H1180 H 0.72121 0.25791 0.70706 0.0
H1181 H 0.67297 0.27294 0.73106 0.0
H1182 H 0.54751 0.13535 0.70282 0.0
H1183 H 0.51905 0.09781 0.72993 0.0
H1184 H 0.55955 0.09704 0.71115 0.0
H1185 H 0.59234 0.09837 0.76104 0.0
H1186 H 0.55179 0.0988 0.77996 0.0
H1187 H 0.60228 0.13734 0.78696 0.0
H1188 H 0.61424 0.27395 0.75491 0.0
H1189 H 0.55306 0.26065 0.78163 0.0
H1190 H 0.50983 0.13377 0.77658 0.0
C1191 C 0.64542 0.16229 0.71827 0.0
C1192 C 0.68286 0.19356 0.70911 0.0
C1193 C 0.69271 0.23353 0.71408 0.0
C1194 C 0.66542 0.24235 0.72751 0.0
C1195 C 0.62862 0.21083 0.73621 0.0
C1196 C 0.61885 0.1716 0.73217 0.0
C1197 C 0.57821 0.14323 0.74484 0.0
C1198 C 0.54938 0.11681 0.72074 0.0
C1199 C 0.58136 0.11795 0.76968 0.0
C1200 C 0.56658 0.17258 0.75654 0.0
C1201 C 0.59575 0.21144 0.751 0.0
C1202 C 0.59129 0.24362 0.75948 0.0
C1203 C 0.55642 0.23584 0.77447 0.0
C1204 C 0.5269 0.19627 0.78119 0.0
C1205 C 0.53205 0.16437 0.77185 0.0
loop_
_geom_bond_atom_site_label_1
_geom_bond_atom_site_label_2
_geom_bond_distance
_geom_bond_site_symmetry_2
_ccdc_geom_bond_type
Co0 N4 2.148 . S
Co0 N10 2.128 1_556 S
Co0 N20 2.194 1_556 S
Co0 O25 2.351 . S
Co0 O26 2.155 . S
Co0 O27 2.096 . S
C1 N4 1.301 . S
C1 N5 1.328 . S
C1 H6 0.930 . S
C2 C3 1.333 . S
C2 N4 1.317 . S
C2 H7 0.930 . S
C3 C2 1.333 . S
C3 N5 1.350 . S
C3 H29 0.931 . S
N4 Co0 2.148 . S
N4 C1 1.301 . S
N4 C2 1.317 . S
N5 C1 1.328 . S
N5 C3 1.350 . S
H6 C1 0.930 . S
H7 C2 0.930 . S
C8 O9 1.224 . S
C8 O27 1.247 1_554 S
O9 C8 1.224 . S
N10 Co0 2.128 1_554 S
N10 C11 1.355 . S
N10 C13 1.311 . S
C11 N10 1.355 . S
C11 C12 1.363 . S
C11 H23 0.929 . S
C12 C11 1.363 . S
C12 N14 1.375 . S
C12 H30 0.931 . S
C13 N10 1.311 . S
C13 N14 1.347 . S
C13 H24 0.929 . S
N14 C12 1.375 . S
N14 C13 1.347 . S
C15 C18 1.365 . S
C15 N20 1.328 . S
C15 H21 0.929 . S
C16 C17 1.362 . S
C16 C19 1.378 . S
C16 H31 0.929 . S
C17 C16 1.362 . S
C17 C18 1.366 . S
C18 C15 1.365 . S
C18 C17 1.366 . S
C18 H32 0.930 . S
C19 C16 1.378 . S
C19 N20 1.315 . S
C19 H22 0.930 . S
N20 Co0 2.194 1_554 S
N20 C15 1.328 . S
N20 C19 1.315 . S
H21 C15 0.929 . S
H22 C19 0.930 . S
H23 C11 0.929 . S
H24 C13 0.929 . S
O25 Co0 2.351 . S
O25 C28 1.244 . S
O26 Co0 2.155 . S
O26 C28 1.240 . S
O27 Co0 2.096 . S
O27 C8 1.247 1_556 S
C28 O25 1.244 . S
C28 O26 1.240 . S
H29 C3 0.931 . S
H30 C12 0.931 . S
H31 C16 0.929 . S
H32 C18 0.930 . S
Co33 N37 2.148 . S
Co33 N43 2.128 . S
Co33 N53 2.194 . S
Co33 O58 2.351 . S
Co33 O59 2.155 . S
Co33 O60 2.096 . S
C34 N37 1.301 . S
C34 N38 1.328 . S
C34 H39 0.930 . S
C35 C36 1.333 . S
C35 N37 1.317 . S
C35 H40 0.930 . S
C36 C35 1.333 . S
C36 N38 1.350 . S
C36 H62 0.931 . S
N37 Co33 2.148 . S
N37 C34 1.301 . S
N37 C35 1.317 . S
N38 C34 1.328 . S
N38 C36 1.350 . S
H39 C34 0.930 . S
H40 C35 0.930 . S
C41 O42 1.224 . S
C41 O60 1.247 . S
O42 C41 1.224 . S
N43 Co33 2.128 . S
N43 C44 1.355 . S
N43 C46 1.311 . S
C44 N43 1.355 . S
C44 C45 1.363 . S
C44 H56 0.929 . S
C45 C44 1.363 . S
C45 N47 1.375 . S
C45 H63 0.931 . S
C46 N43 1.311 . S
C46 N47 1.347 . S
C46 H57 0.929 . S
N47 C45 1.375 . S
N47 C46 1.347 . S
C48 C51 1.365 . S
C48 N53 1.328 . S
C48 H54 0.929 . S
C49 C50 1.362 . S
C49 C52 1.378 . S
C49 H64 0.929 . S
C50 C49 1.362 . S
C50 C51 1.366 . S
C51 C48 1.365 . S
C51 C50 1.366 . S
C51 H65 0.930 . S
C52 C49 1.378 . S
C52 N53 1.315 . S
C52 H55 0.930 . S
N53 Co33 2.194 . S
N53 C48 1.328 . S
N53 C52 1.315 . S
H54 C48 0.929 . S
H55 C52 0.930 . S
H56 C44 0.929 . S
H57 C46 0.929 . S
O58 Co33 2.351 . S
O58 C61 1.244 . S
O59 Co33 2.155 . S
O59 C61 1.240 . S
O60 Co33 2.096 . S
O60 C41 1.247 . S
C61 O58 1.244 . S
C61 O59 1.240 . S
H62 C36 0.931 . S
H63 C45 0.931 . S
H64 C49 0.929 . S
H65 C51 0.930 . S
Co66 N70 2.148 . S
Co66 N76 2.128 . S
Co66 N86 2.194 . S
Co66 O91 2.351 . S
Co66 O92 2.155 . S
Co66 O93 2.096 . S
C67 N70 1.301 . S
C67 N71 1.328 . S
C67 H72 0.930 . S
C68 C69 1.333 . S
C68 N70 1.317 . S
C68 H73 0.930 . S
C69 C68 1.333 . S
C69 N71 1.350 . S
C69 H95 0.931 . S
N70 Co66 2.148 . S
N70 C67 1.301 . S
N70 C68 1.317 . S
N71 C67 1.328 . S
N71 C69 1.350 . S
H72 C67 0.930 . S
H73 C68 0.930 . S
C74 O75 1.224 . S
C74 O93 1.247 . S
O75 C74 1.224 . S
N76 Co66 2.128 . S
N76 C77 1.355 . S
N76 C79 1.311 . S
C77 N76 1.355 . S
C77 C78 1.363 . S
C77 H89 0.929 . S
C78 C77 1.363 . S
C78 N80 1.375 . S
C78 H96 0.931 . S
C79 N76 1.311 . S
C79 N80 1.347 . S
C79 H90 0.929 . S
N80 C78 1.375 . S
N80 C79 1.347 . S
C81 C84 1.365 . S
C81 N86 1.328 . S
C81 H87 0.929 . S
C82 C83 1.362 . S
C82 C85 1.378 . S
C82 H97 0.929 . S
C83 C82 1.362 . S
C83 C84 1.366 . S
C84 C81 1.365 . S
C84 C83 1.366 . S
C84 H98 0.930 . S
C85 C82 1.378 . S
C85 N86 1.315 . S
C85 H88 0.930 . S
N86 Co66 2.194 . S
N86 C81 1.328 . S
N86 C85 1.315 . S
H87 C81 0.929 . S
H88 C85 0.930 . S
H89 C77 0.929 . S
H90 C79 0.929 . S
O91 Co66 2.351 . S
O91 C94 1.244 . S
O92 Co66 2.155 . S
O92 C94 1.240 . S
O93 Co66 2.096 . S
O93 C74 1.247 . S
C94 O91 1.244 . S
C94 O92 1.240 . S
H95 C69 0.931 . S
H96 C78 0.931 . S
H97 C82 0.929 . S
H98 C84 0.930 . S
Co99 N103 2.148 . S
Co99 N109 2.128 . S
Co99 N119 2.194 . S
Co99 O124 2.351 . S
Co99 O125 2.155 . S
Co99 O126 2.096 . S
C100 N103 1.301 . S
C100 N104 1.328 . S
C100 H105 0.930 . S
C101 C102 1.333 . S
C101 N103 1.317 . S
C101 H106 0.930 . S
C102 C101 1.333 . S
C102 N104 1.350 . S
C102 H128 0.931 . S
N103 Co99 2.148 . S
N103 C100 1.301 . S
N103 C101 1.317 . S
N104 C100 1.328 . S
N104 C102 1.350 . S
H105 C100 0.930 . S
H106 C101 0.930 . S
C107 O108 1.224 . S
C107 O126 1.247 . S
O108 C107 1.224 . S
N109 Co99 2.128 . S
N109 C110 1.355 . S
N109 C112 1.311 . S
C110 N109 1.355 . S
C110 C111 1.363 . S
C110 H122 0.929 . S
C111 C110 1.363 . S
C111 N113 1.375 . S
C111 H129 0.931 . S
C112 N109 1.311 . S
C112 N113 1.347 . S
C112 H123 0.929 . S
N113 C111 1.375 . S
N113 C112 1.347 . S
C114 C117 1.365 . S
C114 N119 1.328 . S
C114 H120 0.929 . S
C115 C116 1.362 . S
C115 C118 1.378 . S
C115 H130 0.929 . S
C116 C115 1.362 . S
C116 C117 1.366 . S
C117 C114 1.365 . S
C117 C116 1.366 . S
C117 H131 0.930 . S
C118 C115 1.378 . S
C118 N119 1.315 . S
C118 H121 0.930 . S
N119 Co99 2.194 . S
N119 C114 1.328 . S
N119 C118 1.315 . S
H120 C114 0.929 . S
H121 C118 0.930 . S
H122 C110 0.929 . S
H123 C112 0.929 . S
O124 Co99 2.351 . S
O124 C127 1.244 . S
O125 Co99 2.155 . S
O125 C127 1.240 . S
O126 Co99 2.096 . S
O126 C107 1.247 . S
C127 O124 1.244 . S
C127 O125 1.240 . S
H128 C102 0.931 . S
H129 C111 0.931 . S
H130 C115 0.929 . S
H131 C117 0.930 . S
Co132 N136 2.148 . S
Co132 N142 2.128 . S
Co132 N152 2.194 . S
Co132 O157 2.351 . S
Co132 O158 2.155 . S
Co132 O159 2.096 . S
C133 N136 1.301 . S
C133 N137 1.328 . S
C133 H138 0.930 . S
C134 C135 1.333 . S
C134 N136 1.317 . S
C134 H139 0.930 . S
C135 C134 1.333 . S
C135 N137 1.350 . S
C135 H161 0.931 . S
N136 Co132 2.148 . S
N136 C133 1.301 . S
N136 C134 1.317 . S
N137 C133 1.328 . S
N137 C135 1.350 . S
H138 C133 0.930 . S
H139 C134 0.930 . S
C140 O141 1.224 . S
C140 O159 1.247 . S
O141 C140 1.224 . S
N142 Co132 2.128 . S
N142 C143 1.355 . S
N142 C145 1.311 . S
C143 N142 1.355 . S
C143 C144 1.363 . S
C143 H155 0.929 . S
C144 C143 1.363 . S
C144 N146 1.375 . S
C144 H162 0.931 . S
C145 N142 1.311 . S
C145 N146 1.347 . S
C145 H156 0.929 . S
N146 C144 1.375 . S
N146 C145 1.347 . S
C147 C150 1.365 . S
C147 N152 1.328 . S
C147 H153 0.929 . S
C148 C149 1.362 . S
C148 C151 1.378 . S
C148 H163 0.929 . S
C149 C148 1.362 . S
C149 C150 1.366 . S
C150 C147 1.365 . S
C150 C149 1.366 . S
C150 H164 0.930 . S
C151 C148 1.378 . S
C151 N152 1.315 . S
C151 H154 0.930 . S
N152 Co132 2.194 . S
N152 C147 1.328 . S
N152 C151 1.315 . S
H153 C147 0.929 . S
H154 C151 0.930 . S
H155 C143 0.929 . S
H156 C145 0.929 . S
O157 Co132 2.351 . S
O157 C160 1.244 . S
O158 Co132 2.155 . S
O158 C160 1.240 . S
O159 Co132 2.096 . S
O159 C140 1.247 . S
C160 O157 1.244 . S
C160 O158 1.240 . S
H161 C135 0.931 . S
H162 C144 0.931 . S
H163 C148 0.929 . S
H164 C150 0.930 . S
Co165 N169 2.148 . S
Co165 N175 2.128 . S
Co165 N185 2.194 . S
Co165 O190 2.351 . S
Co165 O191 2.155 . S
Co165 O192 2.096 . S
C166 N169 1.301 . S
C166 N170 1.328 . S
C166 H171 0.930 . S
C167 C168 1.333 . S
C167 N169 1.317 . S
C167 H172 0.930 . S
C168 C167 1.333 . S
C168 N170 1.350 . S
C168 H194 0.931 . S
N169 Co165 2.148 . S
N169 C166 1.301 . S
N169 C167 1.317 . S
N170 C166 1.328 . S
N170 C168 1.350 . S
H171 C166 0.930 . S
H172 C167 0.930 . S
C173 O174 1.224 . S
C173 O192 1.247 . S
O174 C173 1.224 . S
N175 Co165 2.128 . S
N175 C176 1.355 . S
N175 C178 1.311 . S
C176 N175 1.355 . S
C176 C177 1.363 . S
C176 H188 0.929 . S
C177 C176 1.363 . S
C177 N179 1.375 . S
C177 H195 0.931 . S
C178 N175 1.311 . S
C178 N179 1.347 . S
C178 H189 0.929 . S
N179 C177 1.375 . S
N179 C178 1.347 . S
C180 C183 1.365 . S
C180 N185 1.328 . S
C180 H186 0.929 . S
C181 C182 1.362 . S
C181 C184 1.378 . S
C181 H196 0.929 . S
C182 C181 1.362 . S
C182 C183 1.366 . S
C183 C180 1.365 . S
C183 C182 1.366 . S
C183 H197 0.930 . S
C184 C181 1.378 . S
C184 N185 1.315 . S
C184 H187 0.930 . S
N185 Co165 2.194 . S
N185 C180 1.328 . S
N185 C184 1.315 . S
H186 C180 0.929 . S
H187 C184 0.930 . S
H188 C176 0.929 . S
H189 C178 0.929 . S
O190 Co165 2.351 . S
O190 C193 1.244 . S
O191 Co165 2.155 . S
O191 C193 1.240 . S
O192 Co165 2.096 . S
O192 C173 1.247 . S
C193 O190 1.244 . S
C193 O191 1.240 . S
H194 C168 0.931 . S
H195 C177 0.931 . S
H196 C181 0.929 . S
H197 C183 0.930 . S
Co198 N202 2.148 . S
Co198 N208 2.128 . S
Co198 N218 2.194 . S
Co198 O223 2.351 . S
Co198 O224 2.155 . S
Co198 O225 2.096 . S
C199 N202 1.301 . S
C199 N203 1.328 . S
C199 H204 0.930 . S
C200 C201 1.333 . S
C200 N202 1.317 . S
C200 H205 0.930 . S
C201 C200 1.333 . S
C201 N203 1.350 . S
C201 H227 0.931 . S
N202 Co198 2.148 . S
N202 C199 1.301 . S
N202 C200 1.317 . S
N203 C199 1.328 . S
N203 C201 1.350 . S
H204 C199 0.930 . S
H205 C200 0.930 . S
C206 O207 1.224 . S
C206 O225 1.247 . S
O207 C206 1.224 . S
N208 Co198 2.128 . S
N208 C209 1.355 . S
N208 C211 1.311 . S
C209 N208 1.355 . S
C209 C210 1.363 . S
C209 H221 0.929 . S
C210 C209 1.363 . S
C210 N212 1.375 . S
C210 H228 0.931 . S
C211 N208 1.311 . S
C211 N212 1.347 . S
C211 H222 0.929 . S
N212 C210 1.375 . S
N212 C211 1.347 . S
C213 C216 1.365 . S
C213 N218 1.328 . S
C213 H219 0.929 . S
C214 C215 1.362 . S
C214 C217 1.378 . S
C214 H229 0.929 . S
C215 C214 1.362 . S
C215 C216 1.366 . S
C216 C213 1.365 . S
C216 C215 1.366 . S
C216 H230 0.930 . S
C217 C214 1.378 . S
C217 N218 1.315 . S
C217 H220 0.930 . S
N218 Co198 2.194 . S
N218 C213 1.328 . S
N218 C217 1.315 . S
H219 C213 0.929 . S
H220 C217 0.930 . S
H221 C209 0.929 . S
H222 C211 0.929 . S
O223 Co198 2.351 . S
O223 C226 1.244 . S
O224 Co198 2.155 . S
O224 C226 1.240 . S
O225 Co198 2.096 . S
O225 C206 1.247 . S
C226 O223 1.244 . S
C226 O224 1.240 . S
H227 C201 0.931 . S
H228 C210 0.931 . S
H229 C214 0.929 . S
H230 C216 0.930 . S
Co231 N235 2.148 1_556 S
Co231 N241 2.128 . S
Co231 N251 2.194 . S
Co231 O256 2.351 1_556 S
Co231 O257 2.155 1_556 S
Co231 O258 2.096 1_556 S
C232 N235 1.301 . S
C232 N236 1.328 . S
C232 H237 0.930 . S
C233 C234 1.333 . S
C233 N235 1.317 . S
C233 H238 0.930 . S
C234 C233 1.333 . S
C234 N236 1.350 . S
C234 H260 0.931 . S
N235 Co231 2.148 1_554 S
N235 C232 1.301 . S
N235 C233 1.317 . S
N236 C232 1.328 . S
N236 C234 1.350 . S
H237 C232 0.930 . S
H238 C233 0.930 . S
C239 O240 1.224 . S
C239 O258 1.247 1_556 S
O240 C239 1.224 . S
N241 Co231 2.128 . S
N241 C242 1.355 . S
N241 C244 1.311 . S
C242 N241 1.355 . S
C242 C243 1.363 . S
C242 H254 0.929 . S
C243 C242 1.363 . S
C243 N245 1.375 . S
C243 H261 0.931 . S
C244 N241 1.311 . S
C244 N245 1.347 . S
C244 H255 0.929 . S
N245 C243 1.375 . S
N245 C244 1.347 . S
C246 C249 1.365 . S
C246 N251 1.328 . S
C246 H252 0.929 . S
C247 C248 1.362 . S
C247 C250 1.378 . S
C247 H262 0.929 . S
C248 C247 1.362 . S
C248 C249 1.366 . S
C249 C246 1.365 . S
C249 C248 1.366 . S
C249 H263 0.930 . S
C250 C247 1.378 . S
C250 N251 1.315 . S
C250 H253 0.930 . S
N251 Co231 2.194 . S
N251 C246 1.328 . S
N251 C250 1.315 . S
H252 C246 0.929 . S
H253 C250 0.930 . S
H254 C242 0.929 . S
H255 C244 0.929 . S
O256 Co231 2.351 1_554 S
O256 C259 1.244 . S
O257 Co231 2.155 1_554 S
O257 C259 1.240 . S
O258 Co231 2.096 1_554 S
O258 C239 1.247 1_554 S
C259 O256 1.244 . S
C259 O257 1.240 . S
H260 C234 0.931 . S
H261 C243 0.931 . S
H262 C247 0.929 . S
H263 C249 0.930 . S
Co264 N268 2.148 . S
Co264 N274 2.128 . S
Co264 N284 2.194 . S
Co264 O289 2.351 . S
Co264 O290 2.155 . S
Co264 O291 2.096 . S
C265 N268 1.301 . S
C265 N269 1.328 . S
C265 H270 0.930 . S
C266 C267 1.333 . S
C266 N268 1.317 . S
C266 H271 0.930 . S
C267 C266 1.333 . S
C267 N269 1.350 . S
C267 H293 0.931 . S
N268 Co264 2.148 . S
N268 C265 1.301 . S
N268 C266 1.317 . S
N269 C265 1.328 . S
N269 C267 1.350 . S
H270 C265 0.930 . S
H271 C266 0.930 . S
C272 O273 1.224 . S
C272 O291 1.247 . S
O273 C272 1.224 . S
N274 Co264 2.128 . S
N274 C275 1.355 . S
N274 C277 1.311 . S
C275 N274 1.355 . S
C275 C276 1.363 . S
C275 H287 0.929 . S
C276 C275 1.363 . S
C276 N278 1.375 . S
C276 H294 0.931 . S
C277 N274 1.311 . S
C277 N278 1.347 . S
C277 H288 0.929 . S
N278 C276 1.375 . S
N278 C277 1.347 . S
C279 C282 1.365 . S
C279 N284 1.328 . S
C279 H285 0.929 . S
C280 C281 1.362 . S
C280 C283 1.378 . S
C280 H295 0.929 . S
C281 C280 1.362 . S
C281 C282 1.366 . S
C282 C279 1.365 . S
C282 C281 1.366 . S
C282 H296 0.930 . S
C283 C280 1.378 . S
C283 N284 1.315 . S
C283 H286 0.930 . S
N284 Co264 2.194 . S
N284 C279 1.328 . S
N284 C283 1.315 . S
H285 C279 0.929 . S
H286 C283 0.930 . S
H287 C275 0.929 . S
H288 C277 0.929 . S
O289 Co264 2.351 . S
O289 C292 1.244 . S
O290 Co264 2.155 . S
O290 C292 1.240 . S
O291 Co264 2.096 . S
O291 C272 1.247 . S
C292 O289 1.244 . S
C292 O290 1.240 . S
H293 C267 0.931 . S
H294 C276 0.931 . S
H295 C280 0.929 . S
H296 C282 0.930 . S
Co297 N301 2.148 . S
Co297 N307 2.128 . S
Co297 N317 2.194 . S
Co297 O322 2.351 . S
Co297 O323 2.155 . S
Co297 O324 2.096 . S
C298 N301 1.301 . S
C298 N302 1.328 . S
C298 H303 0.930 . S
C299 C300 1.333 . S
C299 N301 1.317 . S
C299 H304 0.930 . S
C300 C299 1.333 . S
C300 N302 1.350 . S
C300 H326 0.931 . S
N301 Co297 2.148 . S
N301 C298 1.301 . S
N301 C299 1.317 . S
N302 C298 1.328 . S
N302 C300 1.350 . S
H303 C298 0.930 . S
H304 C299 0.930 . S
C305 O306 1.224 . S
C305 O324 1.247 . S
O306 C305 1.224 . S
N307 Co297 2.128 . S
N307 C308 1.355 . S
N307 C310 1.311 . S
C308 N307 1.355 . S
C308 C309 1.363 . S
C308 H320 0.929 . S
C309 C308 1.363 . S
C309 N311 1.375 . S
C309 H327 0.931 . S
C310 N307 1.311 . S
C310 N311 1.347 . S
C310 H321 0.929 . S
N311 C309 1.375 . S
N311 C310 1.347 . S
C312 C315 1.365 . S
C312 N317 1.328 . S
C312 H318 0.929 . S
C313 C314 1.362 . S
C313 C316 1.378 . S
C313 H328 0.929 . S
C314 C313 1.362 . S
C314 C315 1.366 . S
C315 C312 1.365 . S
C315 C314 1.366 . S
C315 H329 0.930 . S
C316 C313 1.378 . S
C316 N317 1.315 . S
C316 H319 0.930 . S
N317 Co297 2.194 . S
N317 C312 1.328 . S
N317 C316 1.315 . S
H318 C312 0.929 . S
H319 C316 0.930 . S
H320 C308 0.929 . S
H321 C310 0.929 . S
O322 Co297 2.351 . S
O322 C325 1.244 . S
O323 Co297 2.155 . S
O323 C325 1.240 . S
O324 Co297 2.096 . S
O324 C305 1.247 . S
C325 O322 1.244 . S
C325 O323 1.240 . S
H326 C300 0.931 . S
H327 C309 0.931 . S
H328 C313 0.929 . S
H329 C315 0.930 . S
Co330 N334 2.148 . S
Co330 N340 2.128 . S
Co330 N350 2.194 . S
Co330 O355 2.351 . S
Co330 O356 2.155 . S
Co330 O357 2.096 . S
C331 N334 1.301 . S
C331 N335 1.328 . S
C331 H336 0.930 . S
C332 C333 1.333 . S
C332 N334 1.317 . S
C332 H337 0.930 . S
C333 C332 1.333 . S
C333 N335 1.350 . S
C333 H359 0.931 . S
N334 Co330 2.148 . S
N334 C331 1.301 . S
N334 C332 1.317 . S
N335 C331 1.328 . S
N335 C333 1.350 . S
H336 C331 0.930 . S
H337 C332 0.930 . S
C338 O339 1.224 . S
C338 O357 1.247 . S
O339 C338 1.224 . S
N340 Co330 2.128 . S
N340 C341 1.355 . S
N340 C343 1.311 . S
C341 N340 1.355 . S
C341 C342 1.363 . S
C341 H353 0.929 . S
C342 C341 1.363 . S
C342 N344 1.375 . S
C342 H360 0.931 . S
C343 N340 1.311 . S
C343 N344 1.347 . S
C343 H354 0.929 . S
N344 C342 1.375 . S
N344 C343 1.347 . S
C345 C348 1.365 . S
C345 N350 1.328 . S
C345 H351 0.929 . S
C346 C347 1.362 . S
C346 C349 1.378 . S
C346 H361 0.929 . S
C347 C346 1.362 . S
C347 C348 1.366 . S
C348 C345 1.365 . S
C348 C347 1.366 . S
C348 H362 0.930 . S
C349 C346 1.378 . S
C349 N350 1.315 . S
C349 H352 0.930 . S
N350 Co330 2.194 . S
N350 C345 1.328 . S
N350 C349 1.315 . S
H351 C345 0.929 . S
H352 C349 0.930 . S
H353 C341 0.929 . S
H354 C343 0.929 . S
O355 Co330 2.351 . S
O355 C358 1.244 . S
O356 Co330 2.155 . S
O356 C358 1.240 . S
O357 Co330 2.096 . S
O357 C338 1.247 . S
C358 O355 1.244 . S
C358 O356 1.240 . S
H359 C333 0.931 . S
H360 C342 0.931 . S
H361 C346 0.929 . S
H362 C348 0.930 . S
Co363 N367 2.148 . S
Co363 N373 2.128 . S
Co363 N383 2.194 . S
Co363 O388 2.351 . S
Co363 O389 2.155 . S
Co363 O390 2.096 . S
C364 N367 1.301 . S
C364 N368 1.328 . S
C364 H369 0.930 . S
C365 C366 1.333 . S
C365 N367 1.317 . S
C365 H370 0.930 . S
C366 C365 1.333 . S
C366 N368 1.350 . S
C366 H392 0.931 . S
N367 Co363 2.148 . S
N367 C364 1.301 . S
N367 C365 1.317 . S
N368 C364 1.328 . S
N368 C366 1.350 . S
H369 C364 0.930 . S
H370 C365 0.930 . S
C371 O372 1.224 . S
C371 O390 1.247 . S
O372 C371 1.224 . S
N373 Co363 2.128 . S
N373 C374 1.355 . S
N373 C376 1.311 . S
C374 N373 1.355 . S
C374 C375 1.363 . S
C374 H386 0.929 . S
C375 C374 1.363 . S
C375 N377 1.375 . S
C375 H393 0.931 . S
C376 N373 1.311 . S
C376 N377 1.347 . S
C376 H387 0.929 . S
N377 C375 1.375 . S
N377 C376 1.347 . S
C378 C381 1.365 . S
C378 N383 1.328 . S
C378 H384 0.929 . S
C379 C380 1.362 . S
C379 C382 1.378 . S
C379 H394 0.929 . S
C380 C379 1.362 . S
C380 C381 1.366 . S
C381 C378 1.365 . S
C381 C380 1.366 . S
C381 H395 0.930 . S
C382 C379 1.378 . S
C382 N383 1.315 . S
C382 H385 0.930 . S
N383 Co363 2.194 . S
N383 C378 1.328 . S
N383 C382 1.315 . S
H384 C378 0.929 . S
H385 C382 0.930 . S
H386 C374 0.929 . S
H387 C376 0.929 . S
O388 Co363 2.351 . S
O388 C391 1.244 . S
O389 Co363 2.155 . S
O389 C391 1.240 . S
O390 Co363 2.096 . S
O390 C371 1.247 . S
C391 O388 1.244 . S
C391 O389 1.240 . S
H392 C366 0.931 . S
H393 C375 0.931 . S
H394 C379 0.929 . S
H395 C381 0.930 . S
H396 C408 0.930 . S
H397 C410 0.930 . S
H398 C411 0.930 . S
H399 C415 0.959 . S
H400 C415 0.959 . S
H401 C415 0.961 . S
H402 C416 0.960 . S
H403 C416 0.961 . S
H404 C416 0.959 . S
H405 C419 0.929 . S
H406 C420 0.931 . S
H407 C422 0.930 . S
C408 H396 0.930 . S
C408 C409 1.399 . S
C408 C413 1.399 . S
C409 C408 1.399 . S
C409 C410 1.376 . S
C410 H397 0.930 . S
C410 C409 1.376 . S
C410 C411 1.388 . S
C411 H398 0.930 . S
C411 C410 1.388 . S
C411 C412 1.390 . S
C412 C411 1.390 . S
C412 C413 1.394 . S
C412 C418 1.465 . S
C413 C408 1.399 . S
C413 C412 1.394 . S
C413 C414 1.516 . S
C414 C413 1.516 . S
C414 C415 1.502 . S
C414 C416 1.561 . S
C414 C417 1.526 . S
C415 H399 0.959 . S
C415 H400 0.959 . S
C415 H401 0.961 . S
C415 C414 1.502 . S
C416 H402 0.960 . S
C416 H403 0.961 . S
C416 H404 0.959 . S
C416 C414 1.561 . S
C417 C414 1.526 . S
C417 C418 1.396 . S
C417 C422 1.390 . S
C418 C412 1.465 . S
C418 C417 1.396 . S
C418 C419 1.399 . S
C419 H405 0.929 . S
C419 C418 1.399 . S
C419 C420 1.385 . S
C420 H406 0.931 . S
C420 C419 1.385 . S
C420 C421 1.389 . S
C421 C420 1.389 . S
C421 C422 1.387 . S
C422 H407 0.930 . S
C422 C417 1.390 . S
C422 C421 1.387 . S
H423 C435 0.930 1_556 S
H424 C437 0.930 . S
H425 C438 0.930 . S
H426 C442 0.959 . S
H427 C442 0.959 . S
H428 C442 0.961 . S
H429 C443 0.960 1_556 S
H430 C443 0.961 1_655 S
H431 C443 0.959 . S
H432 C446 0.929 . S
H433 C447 0.931 1_655 S
H434 C449 0.930 . S
C435 H423 0.930 1_554 S
C435 C436 1.399 . S
C435 C440 1.399 . S
C436 C435 1.399 . S
C436 C437 1.376 . S
C437 H424 0.930 . S
C437 C436 1.376 . S
C437 C438 1.388 . S
C438 H425 0.930 . S
C438 C437 1.388 . S
C438 C439 1.390 . S
C439 C438 1.390 . S
C439 C440 1.394 . S
C439 C445 1.465 . S
C440 C435 1.399 . S
C440 C439 1.394 . S
C440 C441 1.516 . S
C441 C440 1.516 . S
C441 C442 1.502 . S
C441 C443 1.561 . S
C441 C444 1.526 . S
C442 H426 0.959 . S
C442 H427 0.959 . S
C442 H428 0.961 . S
C442 C441 1.502 . S
C443 H429 0.960 1_554 S
C443 H430 0.961 1_455 S
C443 H431 0.959 . S
C443 C441 1.561 . S
C444 C441 1.526 . S
C444 C445 1.396 . S
C444 C449 1.390 1_455 S
C445 C439 1.465 . S
C445 C444 1.396 . S
C445 C446 1.399 . S
C446 H432 0.929 . S
C446 C445 1.399 . S
C446 C447 1.385 . S
C447 H433 0.931 1_455 S
C447 C446 1.385 . S
C447 C448 1.389 1_455 S
C448 C447 1.389 1_655 S
C448 C449 1.387 . S
C449 H434 0.930 . S
C449 C444 1.390 1_655 S
C449 C448 1.387 . S
H450 C462 0.930 . S
H451 C464 0.930 . S
H452 C465 0.930 . S
H453 C469 0.959 . S
H454 C469 0.959 . S
H455 C469 0.961 . S
H456 C470 0.960 . S
H457 C470 0.961 . S
H458 C470 0.959 . S
H459 C473 0.929 . S
H460 C474 0.931 . S
H461 C476 0.930 . S
C462 H450 0.930 . S
C462 C463 1.399 . S
C462 C467 1.399 . S
C463 C462 1.399 . S
C463 C464 1.376 . S
C464 H451 0.930 . S
C464 C463 1.376 . S
C464 C465 1.388 . S
C465 H452 0.930 . S
C465 C464 1.388 . S
C465 C466 1.390 . S
C466 C465 1.390 . S
C466 C467 1.394 . S
C466 C472 1.465 . S
C467 C462 1.399 . S
C467 C466 1.394 . S
C467 C468 1.516 . S
C468 C467 1.516 . S
C468 C469 1.502 . S
C468 C470 1.561 . S
C468 C471 1.526 . S
C469 H453 0.959 . S
C469 H454 0.959 . S
C469 H455 0.961 . S
C469 C468 1.502 . S
C470 H456 0.960 . S
C470 H457 0.961 . S
C470 H458 0.959 . S
C470 C468 1.561 . S
C471 C468 1.526 . S
C471 C472 1.396 . S
C471 C476 1.390 . S
C472 C466 1.465 . S
C472 C471 1.396 . S
C472 C473 1.399 1_545 S
C473 H459 0.929 . S
C473 C472 1.399 1_565 S
C473 C474 1.385 . S
C474 H460 0.931 . S
C474 C473 1.385 . S
C474 C475 1.389 . S
C475 C474 1.389 . S
C475 C476 1.387 1_565 S
C476 H461 0.930 . S
C476 C471 1.390 . S
C476 C475 1.387 1_545 S
H477 C489 0.930 . S
H478 C491 0.930 . S
H479 C492 0.930 . S
H480 C496 0.959 . S
H481 C496 0.959 . S
H482 C496 0.961 . S
H483 C497 0.960 . S
H484 C497 0.961 . S
H485 C497 0.959 . S
H486 C500 0.929 . S
H487 C501 0.931 . S
H488 C503 0.930 . S
C489 H477 0.930 . S
C489 C490 1.399 . S
C489 C494 1.399 . S
C490 C489 1.399 . S
C490 C491 1.376 . S
C491 H478 0.930 . S
C491 C490 1.376 . S
C491 C492 1.388 . S
C492 H479 0.930 . S
C492 C491 1.388 . S
C492 C493 1.390 . S
C493 C492 1.390 . S
C493 C494 1.394 . S
C493 C499 1.465 . S
C494 C489 1.399 . S
C494 C493 1.394 . S
C494 C495 1.516 . S
C495 C494 1.516 . S
C495 C496 1.502 . S
C495 C497 1.561 . S
C495 C498 1.526 . S
C496 H480 0.959 . S
C496 H481 0.959 . S
C496 H482 0.961 . S
C496 C495 1.502 . S
C497 H483 0.960 . S
C497 H484 0.961 . S
C497 H485 0.959 . S
C497 C495 1.561 . S
C498 C495 1.526 . S
C498 C499 1.396 . S
C498 C503 1.390 . S
C499 C493 1.465 . S
C499 C498 1.396 . S
C499 C500 1.399 . S
C500 H486 0.929 . S
C500 C499 1.399 . S
C500 C501 1.385 . S
C501 H487 0.931 . S
C501 C500 1.385 . S
C501 C502 1.389 . S
C502 C501 1.389 . S
C502 C503 1.387 . S
C503 H488 0.930 . S
C503 C498 1.390 . S
C503 C502 1.387 . S
H504 C516 0.930 . S
H505 C518 0.930 . S
H506 C519 0.930 . S
H507 C523 0.959 . S
H508 C523 0.959 . S
H509 C523 0.961 . S
H510 C524 0.960 . S
H511 C524 0.961 . S
H512 C524 0.959 . S
H513 C527 0.929 . S
H514 C528 0.931 . S
H515 C530 0.930 . S
C516 H504 0.930 . S
C516 C517 1.399 . S
C516 C521 1.399 1_455 S
C517 C516 1.399 . S
C517 C518 1.376 . S
C518 H505 0.930 . S
C518 C517 1.376 . S
C518 C519 1.388 1_455 S
C519 H506 0.930 . S
C519 C518 1.388 1_655 S
C519 C520 1.390 . S
C520 C519 1.390 . S
C520 C521 1.394 . S
C520 C526 1.465 . S
C521 C516 1.399 1_655 S
C521 C520 1.394 . S
C521 C522 1.516 . S
C522 C521 1.516 . S
C522 C523 1.502 . S
C522 C524 1.561 . S
C522 C525 1.526 . S
C523 H507 0.959 . S
C523 H508 0.959 . S
C523 H509 0.961 . S
C523 C522 1.502 . S
C524 H510 0.960 . S
C524 H511 0.961 . S
C524 H512 0.959 . S
C524 C522 1.561 . S
C525 C522 1.526 . S
C525 C526 1.396 . S
C525 C530 1.390 . S
C526 C520 1.465 . S
C526 C525 1.396 . S
C526 C527 1.399 . S
C527 H513 0.929 . S
C527 C526 1.399 . S
C527 C528 1.385 . S
C528 H514 0.931 . S
C528 C527 1.385 . S
C528 C529 1.389 . S
C529 C528 1.389 . S
C529 C530 1.387 . S
C530 H515 0.930 . S
C530 C525 1.390 . S
C530 C529 1.387 . S
H531 C543 0.930 . S
H532 C545 0.930 . S
H533 C546 0.930 . S
H534 C550 0.959 . S
H535 C550 0.959 1_545 S
H536 C550 0.961 . S
H537 C551 0.960 . S
H538 C551 0.961 . S
H539 C551 0.959 . S
H540 C554 0.929 . S
H541 C555 0.931 . S
H542 C557 0.930 . S
C543 H531 0.930 . S
C543 C544 1.399 . S
C543 C548 1.399 . S
C544 C543 1.399 . S
C544 C545 1.376 . S
C545 H532 0.930 . S
C545 C544 1.376 . S
C545 C546 1.388 . S
C546 H533 0.930 . S
C546 C545 1.388 . S
C546 C547 1.390 . S
C547 C546 1.390 . S
C547 C548 1.394 . S
C547 C553 1.465 . S
C548 C543 1.399 . S
C548 C547 1.394 . S
C548 C549 1.516 . S
C549 C548 1.516 . S
C549 C550 1.502 . S
C549 C551 1.561 . S
C549 C552 1.526 . S
C550 H534 0.959 . S
C550 H535 0.959 1_565 S
C550 H536 0.961 . S
C550 C549 1.502 . S
C551 H537 0.960 . S
C551 H538 0.961 . S
C551 H539 0.959 . S
C551 C549 1.561 . S
C552 C549 1.526 . S
C552 C553 1.396 . S
C552 C557 1.390 1_565 S
C553 C547 1.465 . S
C553 C552 1.396 . S
C553 C554 1.399 . S
C554 H540 0.929 . S
C554 C553 1.399 . S
C554 C555 1.385 . S
C555 H541 0.931 . S
C555 C554 1.385 . S
C555 C556 1.389 1_565 S
C556 C555 1.389 1_545 S
C556 C557 1.387 . S
C557 H542 0.930 . S
C557 C552 1.390 1_545 S
C557 C556 1.387 . S
H558 C570 0.930 . S
H559 C572 0.930 . S
H560 C573 0.930 . S
H561 C577 0.959 . S
H562 C577 0.959 . S
H563 C577 0.961 . S
H564 C578 0.960 . S
H565 C578 0.961 . S
H566 C578 0.959 . S
H567 C581 0.929 . S
H568 C582 0.931 . S
H569 C584 0.930 . S
C570 H558 0.930 . S
C570 C571 1.399 . S
C570 C575 1.399 . S
C571 C570 1.399 . S
C571 C572 1.376 . S
C572 H559 0.930 . S
C572 C571 1.376 . S
C572 C573 1.388 . S
C573 H560 0.930 . S
C573 C572 1.388 . S
C573 C574 1.390 . S
C574 C573 1.390 . S
C574 C575 1.394 . S
C574 C580 1.465 . S
C575 C570 1.399 . S
C575 C574 1.394 . S
C575 C576 1.516 . S
C576 C575 1.516 . S
C576 C577 1.502 . S
C576 C578 1.561 . S
C576 C579 1.526 . S
C577 H561 0.959 . S
C577 H562 0.959 . S
C577 H563 0.961 . S
C577 C576 1.502 . S
C578 H564 0.960 . S
C578 H565 0.961 . S
C578 H566 0.959 . S
C578 C576 1.561 . S
C579 C576 1.526 . S
C579 C580 1.396 . S
C579 C584 1.390 . S
C580 C574 1.465 . S
C580 C579 1.396 . S
C580 C581 1.399 . S
C581 H567 0.929 . S
C581 C580 1.399 . S
C581 C582 1.385 . S
C582 H568 0.931 . S
C582 C581 1.385 . S
C582 C583 1.389 . S
C583 C582 1.389 . S
C583 C584 1.387 . S
C584 H569 0.930 . S
C584 C579 1.390 . S
C584 C583 1.387 . S
H585 C597 0.930 . S
H586 C599 0.930 . S
H587 C600 0.930 . S
H588 C604 0.959 . S
H589 C604 0.959 . S
H590 C604 0.961 . S
H591 C605 0.960 . S
H592 C605 0.961 . S
H593 C605 0.959 . S
H594 C608 0.929 . S
H595 C609 0.931 . S
H596 C611 0.930 1_655 S
C597 H585 0.930 . S
C597 C598 1.399 . S
C597 C602 1.399 . S
C598 C597 1.399 . S
C598 C599 1.376 . S
C599 H586 0.930 . S
C599 C598 1.376 . S
C599 C600 1.388 . S
C600 H587 0.930 . S
C600 C599 1.388 . S
C600 C601 1.390 . S
C601 C600 1.390 . S
C601 C602 1.394 . S
C601 C607 1.465 . S
C602 C597 1.399 . S
C602 C601 1.394 . S
C602 C603 1.516 . S
C603 C602 1.516 . S
C603 C604 1.502 . S
C603 C605 1.561 . S
C603 C606 1.526 . S
C604 H588 0.959 . S
C604 H589 0.959 . S
C604 H590 0.961 . S
C604 C603 1.502 . S
C605 H591 0.960 . S
C605 H592 0.961 . S
C605 H593 0.959 . S
C605 C603 1.561 . S
C606 C603 1.526 . S
C606 C607 1.396 . S
C606 C611 1.390 . S
C607 C601 1.465 . S
C607 C606 1.396 . S
C607 C608 1.399 . S
C608 H594 0.929 . S
C608 C607 1.399 . S
C608 C609 1.385 1_455 S
C609 H595 0.931 . S
C609 C608 1.385 1_655 S
C609 C610 1.389 . S
C610 C609 1.389 . S
C610 C611 1.387 1_655 S
C611 H596 0.930 1_455 S
C611 C606 1.390 . S
C611 C610 1.387 1_455 S
H612 C624 0.930 . S
H613 C626 0.930 . S
H614 C627 0.930 . S
H615 C631 0.959 . S
H616 C631 0.959 . S
H617 C631 0.961 . S
H618 C632 0.960 . S
H619 C632 0.961 1_565 S
H620 C632 0.959 . S
H621 C635 0.929 . S
H622 C636 0.931 . S
H623 C638 0.930 . S
C624 H612 0.930 . S
C624 C625 1.399 . S
C624 C629 1.399 . S
C625 C624 1.399 . S
C625 C626 1.376 . S
C626 H613 0.930 . S
C626 C625 1.376 . S
C626 C627 1.388 . S
C627 H614 0.930 . S
C627 C626 1.388 . S
C627 C628 1.390 . S
C628 C627 1.390 . S
C628 C629 1.394 . S
C628 C634 1.465 . S
C629 C624 1.399 . S
C629 C628 1.394 . S
C629 C630 1.516 . S
C630 C629 1.516 . S
C630 C631 1.502 . S
C630 C632 1.561 . S
C630 C633 1.526 . S
C631 H615 0.959 . S
C631 H616 0.959 . S
C631 H617 0.961 . S
C631 C630 1.502 . S
C632 H618 0.960 . S
C632 H619 0.961 1_545 S
C632 H620 0.959 . S
C632 C630 1.561 . S
C633 C630 1.526 . S
C633 C634 1.396 . S
C633 C638 1.390 1_545 S
C634 C628 1.465 . S
C634 C633 1.396 . S
C634 C635 1.399 . S
C635 H621 0.929 . S
C635 C634 1.399 . S
C635 C636 1.385 . S
C636 H622 0.931 . S
C636 C635 1.385 . S
C636 C637 1.389 1_545 S
C637 C636 1.389 1_565 S
C637 C638 1.387 . S
C638 H623 0.930 . S
C638 C633 1.390 1_565 S
C638 C637 1.387 . S
H639 C651 0.930 . S
H640 C653 0.930 . S
H641 C654 0.930 . S
H642 C658 0.959 . S
H643 C658 0.959 . S
H644 C658 0.961 . S
H645 C659 0.960 . S
H646 C659 0.961 . S
H647 C659 0.959 . S
H648 C662 0.929 . S
H649 C663 0.931 . S
H650 C665 0.930 . S
C651 H639 0.930 . S
C651 C652 1.399 . S
C651 C656 1.399 . S
C652 C651 1.399 . S
C652 C653 1.376 . S
C653 H640 0.930 . S
C653 C652 1.376 . S
C653 C654 1.388 . S
C654 H641 0.930 . S
C654 C653 1.388 . S
C654 C655 1.390 . S
C655 C654 1.390 . S
C655 C656 1.394 . S
C655 C661 1.465 . S
C656 C651 1.399 . S
C656 C655 1.394 . S
C656 C657 1.516 . S
C657 C656 1.516 . S
C657 C658 1.502 . S
C657 C659 1.561 . S
C657 C660 1.526 . S
C658 H642 0.959 . S
C658 H643 0.959 . S
C658 H644 0.961 . S
C658 C657 1.502 . S
C659 H645 0.960 . S
C659 H646 0.961 . S
C659 H647 0.959 . S
C659 C657 1.561 . S
C660 C657 1.526 . S
C660 C661 1.396 . S
C660 C665 1.390 . S
C661 C655 1.465 . S
C661 C660 1.396 . S
C661 C662 1.399 . S
C662 H648 0.929 . S
C662 C661 1.399 . S
C662 C663 1.385 . S
C663 H649 0.931 . S
C663 C662 1.385 . S
C663 C664 1.389 . S
C664 C663 1.389 . S
C664 C665 1.387 . S
C665 H650 0.930 . S
C665 C660 1.390 . S
C665 C664 1.387 . S
H666 C678 0.930 . S
H667 C680 0.930 . S
H668 C681 0.930 . S
H669 C685 0.959 . S
H670 C685 0.959 . S
H671 C685 0.961 . S
H672 C686 0.960 . S
H673 C686 0.961 . S
H674 C686 0.959 . S
H675 C689 0.929 . S
H676 C690 0.931 . S
H677 C692 0.930 1_455 S
C678 H666 0.930 . S
C678 C679 1.399 . S
C678 C683 1.399 . S
C679 C678 1.399 . S
C679 C680 1.376 . S
C680 H667 0.930 . S
C680 C679 1.376 . S
C680 C681 1.388 . S
C681 H668 0.930 . S
C681 C680 1.388 . S
C681 C682 1.390 . S
C682 C681 1.390 . S
C682 C683 1.394 . S
C682 C688 1.465 . S
C683 C678 1.399 . S
C683 C682 1.394 . S
C683 C684 1.516 . S
C684 C683 1.516 . S
C684 C685 1.502 . S
C684 C686 1.561 . S
C684 C687 1.526 . S
C685 H669 0.959 . S
C685 H670 0.959 . S
C685 H671 0.961 . S
C685 C684 1.502 . S
C686 H672 0.960 . S
C686 H673 0.961 . S
C686 H674 0.959 . S
C686 C684 1.561 . S
C687 C684 1.526 . S
C687 C688 1.396 . S
C687 C692 1.390 . S
C688 C682 1.465 . S
C688 C687 1.396 . S
C688 C689 1.399 . S
C689 H675 0.929 . S
C689 C688 1.399 . S
C689 C690 1.385 1_655 S
C690 H676 0.931 . S
C690 C689 1.385 1_455 S
C690 C691 1.389 . S
C691 C690 1.389 . S
C691 C692 1.387 1_455 S
C692 H677 0.930 1_655 S
C692 C687 1.390 . S
C692 C691 1.387 1_655 S
H693 C705 0.930 . S
H694 C707 0.930 . S
H695 C708 0.930 . S
H696 C712 0.959 . S
H697 C712 0.959 . S
H698 C712 0.961 . S
H699 C713 0.960 . S
H700 C713 0.961 . S
H701 C713 0.959 . S
H702 C716 0.930 1_545 S
H703 C717 0.931 . S
H704 C719 0.930 . S
C705 H693 0.930 . S
C705 C706 1.399 . S
C705 C710 1.399 . S
C706 C705 1.399 . S
C706 C707 1.376 . S
C707 H694 0.930 . S
C707 C706 1.376 . S
C707 C708 1.388 . S
C708 H695 0.930 . S
C708 C707 1.388 . S
C708 C709 1.390 . S
C709 C708 1.390 . S
C709 C710 1.394 . S
C709 C715 1.465 . S
C710 C705 1.399 . S
C710 C709 1.394 . S
C710 C711 1.516 . S
C711 C710 1.516 . S
C711 C712 1.502 . S
C711 C713 1.561 . S
C711 C714 1.526 . S
C712 H696 0.959 . S
C712 H697 0.959 . S
C712 H698 0.961 . S
C712 C711 1.502 . S
C713 H699 0.960 . S
C713 H700 0.961 . S
C713 H701 0.959 . S
C713 C711 1.561 . S
C714 C711 1.526 . S
C714 C715 1.396 . S
C714 C719 1.390 . S
C715 C709 1.465 . S
C715 C714 1.396 . S
C715 C716 1.399 . S
C716 H702 0.930 1_565 S
C716 C715 1.399 . S
C716 C717 1.385 1_565 S
C717 H703 0.931 . S
C717 C716 1.385 1_545 S
C717 C718 1.389 . S
C718 C717 1.389 . S
C718 C719 1.387 1_545 S
C719 H704 0.930 . S
C719 C714 1.390 . S
C719 C718 1.387 1_565 S
H720 C732 0.930 . S
H721 C734 0.930 . S
H722 C735 0.930 . S
H723 C739 0.959 . S
H724 C739 0.959 . S
H725 C739 0.961 . S
H726 C740 0.960 . S
H727 C740 0.961 . S
H728 C740 0.959 . S
H729 C743 0.929 . S
H730 C744 0.931 . S
H731 C746 0.930 . S
C732 H720 0.930 . S
C732 C733 1.399 . S
C732 C737 1.399 . S
C733 C732 1.399 . S
C733 C734 1.376 . S
C734 H721 0.930 . S
C734 C733 1.376 . S
C734 C735 1.388 . S
C735 H722 0.930 . S
C735 C734 1.388 . S
C735 C736 1.390 . S
C736 C735 1.390 . S
C736 C737 1.394 . S
C736 C742 1.465 . S
C737 C732 1.399 . S
C737 C736 1.394 . S
C737 C738 1.516 . S
C738 C737 1.516 . S
C738 C739 1.502 . S
C738 C740 1.561 . S
C738 C741 1.526 . S
C739 H723 0.959 . S
C739 H724 0.959 . S
C739 H725 0.961 . S
C739 C738 1.502 . S
C740 H726 0.960 . S
C740 H727 0.961 . S
C740 H728 0.959 . S
C740 C738 1.561 . S
C741 C738 1.526 . S
C741 C742 1.396 . S
C741 C746 1.390 . S
C742 C736 1.465 . S
C742 C741 1.396 . S
C742 C743 1.399 . S
C743 H729 0.929 . S
C743 C742 1.399 . S
C743 C744 1.385 . S
C744 H730 0.931 . S
C744 C743 1.385 . S
C744 C745 1.389 . S
C745 C744 1.389 . S
C745 C746 1.387 . S
C746 H731 0.930 . S
C746 C741 1.390 . S
C746 C745 1.387 . S
H747 C759 0.930 . S
H748 C761 0.930 . S
H749 C762 0.930 . S
H750 C766 0.959 . S
H751 C766 0.959 . S
H752 C766 0.961 . S
H753 C767 0.960 . S
H754 C767 0.961 . S
H755 C767 0.959 . S
H756 C770 0.929 . S
H757 C771 0.931 . S
H758 C773 0.930 . S
C759 H747 0.930 . S
C759 C760 1.399 . S
C759 C764 1.399 . S
C760 C759 1.399 . S
C760 C761 1.376 . S
C761 H748 0.930 . S
C761 C760 1.376 . S
C761 C762 1.388 . S
C762 H749 0.930 . S
C762 C761 1.388 . S
C762 C763 1.390 . S
C763 C762 1.390 . S
C763 C764 1.394 . S
C763 C769 1.465 . S
C764 C759 1.399 . S
C764 C763 1.394 . S
C764 C765 1.516 . S
C765 C764 1.516 . S
C765 C766 1.502 . S
C765 C767 1.561 . S
C765 C768 1.526 . S
C766 H750 0.959 . S
C766 H751 0.959 . S
C766 H752 0.961 . S
C766 C765 1.502 . S
C767 H753 0.960 . S
C767 H754 0.961 . S
C767 H755 0.959 . S
C767 C765 1.561 . S
C768 C765 1.526 . S
C768 C769 1.396 . S
C768 C773 1.390 . S
C769 C763 1.465 . S
C769 C768 1.396 . S
C769 C770 1.399 . S
C770 H756 0.929 . S
C770 C769 1.399 . S
C770 C771 1.385 . S
C771 H757 0.931 . S
C771 C770 1.385 . S
C771 C772 1.389 . S
C772 C771 1.389 . S
C772 C773 1.387 . S
C773 H758 0.930 . S
C773 C768 1.390 . S
C773 C772 1.387 . S
H774 C786 0.930 . S
H775 C788 0.930 . S
H776 C789 0.930 . S
H777 C793 0.959 . S
H778 C793 0.959 . S
H779 C793 0.961 . S
H780 C794 0.960 . S
H781 C794 0.961 . S
H782 C794 0.959 . S
H783 C797 0.929 . S
H784 C798 0.931 . S
H785 C800 0.930 . S
C786 H774 0.930 . S
C786 C787 1.399 . S
C786 C791 1.399 . S
C787 C786 1.399 . S
C787 C788 1.376 . S
C788 H775 0.930 . S
C788 C787 1.376 . S
C788 C789 1.388 . S
C789 H776 0.930 . S
C789 C788 1.388 . S
C789 C790 1.390 . S
C790 C789 1.390 . S
C790 C791 1.394 . S
C790 C796 1.465 . S
C791 C786 1.399 . S
C791 C790 1.394 . S
C791 C792 1.516 . S
C792 C791 1.516 . S
C792 C793 1.502 . S
C792 C794 1.561 . S
C792 C795 1.526 . S
C793 H777 0.959 . S
C793 H778 0.959 . S
C793 H779 0.961 . S
C793 C792 1.502 . S
C794 H780 0.960 . S
C794 H781 0.961 . S
C794 H782 0.959 . S
C794 C792 1.561 . S
C795 C792 1.526 . S
C795 C796 1.396 . S
C795 C800 1.390 . S
C796 C790 1.465 . S
C796 C795 1.396 . S
C796 C797 1.399 . S
C797 H783 0.929 . S
C797 C796 1.399 . S
C797 C798 1.385 . S
C798 H784 0.931 . S
C798 C797 1.385 . S
C798 C799 1.389 . S
C799 C798 1.389 . S
C799 C800 1.387 . S
C800 H785 0.930 . S
C800 C795 1.390 . S
C800 C799 1.387 . S
H801 C813 0.930 . S
H802 C815 0.930 . S
H803 C816 0.930 . S
H804 C820 0.959 . S
H805 C820 0.959 . S
H806 C820 0.961 . S
H807 C821 0.960 . S
H808 C821 0.961 . S
H809 C821 0.959 . S
H810 C824 0.929 . S
H811 C825 0.931 . S
H812 C827 0.930 . S
C813 H801 0.930 . S
C813 C814 1.399 . S
C813 C818 1.399 . S
C814 C813 1.399 . S
C814 C815 1.376 . S
C815 H802 0.930 . S
C815 C814 1.376 . S
C815 C816 1.388 . S
C816 H803 0.930 . S
C816 C815 1.388 . S
C816 C817 1.390 . S
C817 C816 1.390 . S
C817 C818 1.394 . S
C817 C823 1.465 . S
C818 C813 1.399 . S
C818 C817 1.394 . S
C818 C819 1.516 . S
C819 C818 1.516 . S
C819 C820 1.502 . S
C819 C821 1.561 . S
C819 C822 1.526 . S
C820 H804 0.959 . S
C820 H805 0.959 . S
C820 H806 0.961 . S
C820 C819 1.502 . S
C821 H807 0.960 . S
C821 H808 0.961 . S
C821 H809 0.959 . S
C821 C819 1.561 . S
C822 C819 1.526 . S
C822 C823 1.396 . S
C822 C827 1.390 . S
C823 C817 1.465 . S
C823 C822 1.396 . S
C823 C824 1.399 . S
C824 H810 0.929 . S
C824 C823 1.399 . S
C824 C825 1.385 . S
C825 H811 0.931 . S
C825 C824 1.385 . S
C825 C826 1.389 . S
C826 C825 1.389 . S
C826 C827 1.387 . S
C827 H812 0.930 . S
C827 C822 1.390 . S
C827 C826 1.387 . S
H828 C840 0.930 . S
H829 C842 0.930 . S
H830 C843 0.930 . S
H831 C847 0.959 . S
H832 C847 0.959 . S
H833 C847 0.961 . S
H834 C848 0.960 . S
H835 C848 0.961 . S
H836 C848 0.959 . S
H837 C851 0.929 . S
H838 C852 0.931 . S
H839 C854 0.930 . S
C840 H828 0.930 . S
C840 C841 1.399 . S
C840 C845 1.399 . S
C841 C840 1.399 . S
C841 C842 1.376 . S
C842 H829 0.930 . S
C842 C841 1.376 . S
C842 C843 1.388 . S
C843 H830 0.930 . S
C843 C842 1.388 . S
C843 C844 1.390 . S
C844 C843 1.390 . S
C844 C845 1.394 . S
C844 C850 1.465 . S
C845 C840 1.399 . S
C845 C844 1.394 . S
C845 C846 1.516 . S
C846 C845 1.516 . S
C846 C847 1.502 . S
C846 C848 1.561 . S
C846 C849 1.526 . S
C847 H831 0.959 . S
C847 H832 0.959 . S
C847 H833 0.961 . S
C847 C846 1.502 . S
C848 H834 0.960 . S
C848 H835 0.961 . S
C848 H836 0.959 . S
C848 C846 1.561 . S
C849 C846 1.526 . S
C849 C850 1.396 . S
C849 C854 1.390 . S
C850 C844 1.465 . S
C850 C849 1.396 . S
C850 C851 1.399 . S
C851 H837 0.929 . S
C851 C850 1.399 . S
C851 C852 1.385 . S
C852 H838 0.931 . S
C852 C851 1.385 . S
C852 C853 1.389 . S
C853 C852 1.389 . S
C853 C854 1.387 . S
C854 H839 0.930 . S
C854 C849 1.390 . S
C854 C853 1.387 . S
H855 C867 0.930 . S
H856 C869 0.930 . S
H857 C870 0.930 . S
H858 C874 0.959 . S
H859 C874 0.959 . S
H860 C874 0.961 . S
H861 C875 0.960 . S
H862 C875 0.961 . S
H863 C875 0.959 . S
H864 C878 0.929 . S
H865 C879 0.931 . S
H866 C881 0.930 . S
C867 H855 0.930 . S
C867 C868 1.399 . S
C867 C872 1.399 . S
C868 C867 1.399 . S
C868 C869 1.376 . S
C869 H856 0.930 . S
C869 C868 1.376 . S
C869 C870 1.388 . S
C870 H857 0.930 . S
C870 C869 1.388 . S
C870 C871 1.390 . S
C871 C870 1.390 . S
C871 C872 1.394 . S
C871 C877 1.465 . S
C872 C867 1.399 . S
C872 C871 1.394 . S
C872 C873 1.516 . S
C873 C872 1.516 . S
C873 C874 1.502 . S
C873 C875 1.561 . S
C873 C876 1.526 . S
C874 H858 0.959 . S
C874 H859 0.959 . S
C874 H860 0.961 . S
C874 C873 1.502 . S
C875 H861 0.960 . S
C875 H862 0.961 . S
C875 H863 0.959 . S
C875 C873 1.561 . S
C876 C873 1.526 . S
C876 C877 1.396 . S
C876 C881 1.390 . S
C877 C871 1.465 . S
C877 C876 1.396 . S
C877 C878 1.399 . S
C878 H864 0.929 . S
C878 C877 1.399 . S
C878 C879 1.385 . S
C879 H865 0.931 . S
C879 C878 1.385 . S
C879 C880 1.389 . S
C880 C879 1.389 . S
C880 C881 1.387 . S
C881 H866 0.930 . S
C881 C876 1.390 . S
C881 C880 1.387 . S
H882 C894 0.930 . S
H883 C896 0.930 . S
H884 C897 0.930 . S
H885 C901 0.959 . S
H886 C901 0.959 . S
H887 C901 0.961 . S
H888 C902 0.960 . S
H889 C902 0.961 . S
H890 C902 0.959 . S
H891 C905 0.929 . S
H892 C906 0.931 . S
H893 C908 0.930 . S
C894 H882 0.930 . S
C894 C895 1.399 . S
C894 C899 1.399 . S
C895 C894 1.399 . S
C895 C896 1.376 . S
C896 H883 0.930 . S
C896 C895 1.376 . S
C896 C897 1.388 . S
C897 H884 0.930 . S
C897 C896 1.388 . S
C897 C898 1.390 . S
C898 C897 1.390 . S
C898 C899 1.394 . S
C898 C904 1.465 . S
C899 C894 1.399 . S
C899 C898 1.394 . S
C899 C900 1.516 . S
C900 C899 1.516 . S
C900 C901 1.502 . S
C900 C902 1.561 . S
C900 C903 1.526 . S
C901 H885 0.959 . S
C901 H886 0.959 . S
C901 H887 0.961 . S
C901 C900 1.502 . S
C902 H888 0.960 . S
C902 H889 0.961 . S
C902 H890 0.959 . S
C902 C900 1.561 . S
C903 C900 1.526 . S
C903 C904 1.396 . S
C903 C908 1.390 . S
C904 C898 1.465 . S
C904 C903 1.396 . S
C904 C905 1.399 . S
C905 H891 0.929 . S
C905 C904 1.399 . S
C905 C906 1.385 . S
C906 H892 0.931 . S
C906 C905 1.385 . S
C906 C907 1.389 . S
C907 C906 1.389 . S
C907 C908 1.387 . S
C908 H893 0.930 . S
C908 C903 1.390 . S
C908 C907 1.387 . S
H909 C921 0.930 . S
H910 C923 0.930 . S
H911 C924 0.930 . S
H912 C928 0.959 . S
H913 C928 0.959 . S
H914 C928 0.961 . S
H915 C929 0.960 . S
H916 C929 0.961 . S
H917 C929 0.959 . S
H918 C932 0.929 . S
H919 C933 0.931 . S
H920 C935 0.930 . S
C921 H909 0.930 . S
C921 C922 1.399 . S
C921 C926 1.399 . S
C922 C921 1.399 . S
C922 C923 1.376 . S
C923 H910 0.930 . S
C923 C922 1.376 . S
C923 C924 1.388 . S
C924 H911 0.930 . S
C924 C923 1.388 . S
C924 C925 1.390 . S
C925 C924 1.390 . S
C925 C926 1.394 . S
C925 C931 1.465 1_455 S
C926 C921 1.399 . S
C926 C925 1.394 . S
C926 C927 1.516 1_455 S
C927 C926 1.516 1_655 S
C927 C928 1.502 . S
C927 C929 1.561 1_655 S
C927 C930 1.526 . S
C928 H912 0.959 . S
C928 H913 0.959 . S
C928 H914 0.961 . S
C928 C927 1.502 . S
C929 H915 0.960 . S
C929 H916 0.961 . S
C929 H917 0.959 . S
C929 C927 1.561 1_455 S
C930 C927 1.526 . S
C930 C931 1.396 . S
C930 C935 1.390 . S
C931 C925 1.465 1_655 S
C931 C930 1.396 . S
C931 C932 1.399 . S
C932 H918 0.929 . S
C932 C931 1.399 . S
C932 C933 1.385 . S
C933 H919 0.931 . S
C933 C932 1.385 . S
C933 C934 1.389 . S
C934 C933 1.389 . S
C934 C935 1.387 . S
C935 H920 0.930 . S
C935 C930 1.390 . S
C935 C934 1.387 . S
H936 C948 0.930 . S
H937 C950 0.930 . S
H938 C951 0.930 . S
H939 C955 0.959 . S
H940 C955 0.959 . S
H941 C955 0.961 . S
H942 C956 0.960 . S
H943 C956 0.961 . S
H944 C956 0.959 . S
H945 C959 0.929 . S
H946 C960 0.931 . S
H947 C962 0.930 . S
C948 H936 0.930 . S
C948 C949 1.399 . S
C948 C953 1.399 . S
C949 C948 1.399 . S
C949 C950 1.376 . S
C950 H937 0.930 . S
C950 C949 1.376 . S
C950 C951 1.388 1_565 S
C951 H938 0.930 . S
C951 C950 1.388 1_545 S
C951 C952 1.390 . S
C952 C951 1.390 . S
C952 C953 1.394 1_545 S
C952 C958 1.465 . S
C953 C948 1.399 . S
C953 C952 1.394 1_565 S
C953 C954 1.516 . S
C954 C953 1.516 . S
C954 C955 1.502 . S
C954 C956 1.561 . S
C954 C957 1.526 1_565 S
C955 H939 0.959 . S
C955 H940 0.959 . S
C955 H941 0.961 . S
C955 C954 1.502 . S
C956 H942 0.960 . S
C956 H943 0.961 . S
C956 H944 0.959 . S
C956 C954 1.561 . S
C957 C954 1.526 1_545 S
C957 C958 1.396 . S
C957 C962 1.390 . S
C958 C952 1.465 . S
C958 C957 1.396 . S
C958 C959 1.399 . S
C959 H945 0.929 . S
C959 C958 1.399 . S
C959 C960 1.385 . S
C960 H946 0.931 . S
C960 C959 1.385 . S
C960 C961 1.389 . S
C961 C960 1.389 . S
C961 C962 1.387 . S
C962 H947 0.930 . S
C962 C957 1.390 . S
C962 C961 1.387 . S
H963 C975 0.930 . S
H964 C977 0.930 . S
H965 C978 0.930 . S
H966 C982 0.959 . S
H967 C982 0.959 . S
H968 C982 0.961 . S
H969 C983 0.960 . S
H970 C983 0.961 . S
H971 C983 0.959 . S
H972 C986 0.929 . S
H973 C987 0.931 . S
H974 C989 0.930 . S
C975 H963 0.930 . S
C975 C976 1.399 . S
C975 C980 1.399 . S
C976 C975 1.399 . S
C976 C977 1.376 . S
C977 H964 0.930 . S
C977 C976 1.376 . S
C977 C978 1.388 . S
C978 H965 0.930 . S
C978 C977 1.388 . S
C978 C979 1.390 . S
C979 C978 1.390 . S
C979 C980 1.394 . S
C979 C985 1.465 . S
C980 C975 1.399 . S
C980 C979 1.394 . S
C980 C981 1.516 . S
C981 C980 1.516 . S
C981 C982 1.502 . S
C981 C983 1.561 . S
C981 C984 1.526 . S
C982 H966 0.959 . S
C982 H967 0.959 . S
C982 H968 0.961 . S
C982 C981 1.502 . S
C983 H969 0.960 . S
C983 H970 0.961 . S
C983 H971 0.959 . S
C983 C981 1.561 . S
C984 C981 1.526 . S
C984 C985 1.396 . S
C984 C989 1.390 . S
C985 C979 1.465 . S
C985 C984 1.396 . S
C985 C986 1.399 . S
C986 H972 0.929 . S
C986 C985 1.399 . S
C986 C987 1.385 . S
C987 H973 0.931 . S
C987 C986 1.385 . S
C987 C988 1.389 . S
C988 C987 1.389 . S
C988 C989 1.387 . S
C989 H974 0.930 . S
C989 C984 1.390 . S
C989 C988 1.387 . S
H990 C1002 0.930 . S
H991 C1004 0.930 . S
H992 C1005 0.930 . S
H993 C1009 0.959 . S
H994 C1009 0.959 . S
H995 C1009 0.961 . S
H996 C1010 0.956 1_455 S
H997 C1010 0.963 . S
H998 C1010 0.954 1_455 S
H999 C1013 0.929 . S
H1000 C1014 0.931 . S
H1001 C1016 0.930 . S
C1002 H990 0.930 . S
C1002 C1003 1.399 . S
C1002 C1007 1.399 . S
C1003 C1002 1.399 . S
C1003 C1004 1.376 . S
C1004 H991 0.930 . S
C1004 C1003 1.376 . S
C1004 C1005 1.388 . S
C1005 H992 0.930 . S
C1005 C1004 1.388 . S
C1005 C1006 1.390 . S
C1006 C1005 1.390 . S
C1006 C1007 1.394 . S
C1006 C1012 1.481 . S
C1007 C1002 1.399 . S
C1007 C1006 1.394 . S
C1007 C1008 1.516 1_455 S
C1008 C1007 1.516 1_655 S
C1008 C1009 1.502 . S
C1008 C1010 1.568 . S
C1008 C1011 1.526 . S
C1009 H993 0.959 . S
C1009 H994 0.959 . S
C1009 H995 0.961 . S
C1009 C1008 1.502 . S
C1010 H996 0.956 1_655 S
C1010 H997 0.963 . S
C1010 H998 0.954 1_655 S
C1010 C1008 1.568 . S
C1011 C1008 1.526 . S
C1011 C1012 1.391 1_655 S
C1011 C1016 1.390 . S
C1012 C1006 1.481 . S
C1012 C1011 1.391 1_455 S
C1012 C1013 1.389 . S
C1013 H999 0.929 . S
C1013 C1012 1.389 . S
C1013 C1014 1.385 1_455 S
C1014 H1000 0.931 . S
C1014 C1013 1.385 1_655 S
C1014 C1015 1.389 . S
C1015 C1014 1.389 . S
C1015 C1016 1.387 . S
C1016 H1001 0.930 . S
C1016 C1011 1.390 . S
C1016 C1015 1.387 . S
H1017 C1029 0.930 . S
H1018 C1031 0.930 . S
H1019 C1032 0.930 1_545 S
H1020 C1036 0.959 . S
H1021 C1036 0.959 . S
H1022 C1036 0.961 . S
H1023 C1037 0.960 . S
H1024 C1037 0.961 1_556 S
H1025 C1037 0.959 . S
H1026 C1040 0.929 . S
H1027 C1041 0.931 . S
H1028 C1043 0.930 . S
C1029 H1017 0.930 . S
C1029 C1030 1.399 . S
C1029 C1034 1.399 . S
C1030 C1029 1.399 . S
C1030 C1031 1.376 . S
C1031 H1018 0.930 . S
C1031 C1030 1.376 . S
C1031 C1032 1.388 . S
C1032 H1019 0.930 1_565 S
C1032 C1031 1.388 . S
C1032 C1033 1.390 . S
C1033 C1032 1.390 . S
C1033 C1034 1.394 . S
C1033 C1039 1.465 1_564 S
C1034 C1029 1.399 . S
C1034 C1033 1.394 . S
C1034 C1035 1.516 1_554 S
C1035 C1034 1.516 1_556 S
C1035 C1036 1.502 . S
C1035 C1037 1.561 1_566 S
C1035 C1038 1.526 1_565 S
C1036 H1020 0.959 . S
C1036 H1021 0.959 . S
C1036 H1022 0.961 . S
C1036 C1035 1.502 . S
C1037 H1023 0.960 . S
C1037 H1024 0.961 1_554 S
C1037 H1025 0.959 . S
C1037 C1035 1.561 1_544 S
C1038 C1035 1.526 1_545 S
C1038 C1039 1.396 . S
C1038 C1043 1.390 . S
C1039 C1033 1.465 1_546 S
C1039 C1038 1.396 . S
C1039 C1040 1.399 . S
C1040 H1026 0.929 . S
C1040 C1039 1.399 . S
C1040 C1041 1.385 . S
C1041 H1027 0.931 . S
C1041 C1040 1.385 . S
C1041 C1042 1.389 . S
C1042 C1041 1.389 . S
C1042 C1043 1.387 . S
C1043 H1028 0.930 . S
C1043 C1038 1.390 . S
C1043 C1042 1.387 . S
H1044 C1056 0.930 . S
H1045 C1058 0.930 . S
H1046 C1059 0.930 . S
H1047 C1063 0.959 . S
H1048 C1063 0.959 . S
H1049 C1063 0.961 . S
H1050 C1064 0.960 . S
H1051 C1064 0.961 . S
H1052 C1064 0.959 . S
H1053 C1067 0.929 . S
H1054 C1068 0.931 . S
H1055 C1070 0.930 . S
C1056 H1044 0.930 . S
C1056 C1057 1.399 . S
C1056 C1061 1.399 . S
C1057 C1056 1.399 . S
C1057 C1058 1.376 . S
C1058 H1045 0.930 . S
C1058 C1057 1.376 . S
C1058 C1059 1.388 . S
C1059 H1046 0.930 . S
C1059 C1058 1.388 . S
C1059 C1060 1.390 . S
C1060 C1059 1.390 . S
C1060 C1061 1.394 . S
C1060 C1066 1.465 . S
C1061 C1056 1.399 . S
C1061 C1060 1.394 . S
C1061 C1062 1.516 . S
C1062 C1061 1.516 . S
C1062 C1063 1.502 . S
C1062 C1064 1.561 . S
C1062 C1065 1.526 . S
C1063 H1047 0.959 . S
C1063 H1048 0.959 . S
C1063 H1049 0.961 . S
C1063 C1062 1.502 . S
C1064 H1050 0.960 . S
C1064 H1051 0.961 . S
C1064 H1052 0.959 . S
C1064 C1062 1.561 . S
C1065 C1062 1.526 . S
C1065 C1066 1.396 . S
C1065 C1070 1.390 . S
C1066 C1060 1.465 . S
C1066 C1065 1.396 . S
C1066 C1067 1.399 . S
C1067 H1053 0.929 . S
C1067 C1066 1.399 . S
C1067 C1068 1.385 . S
C1068 H1054 0.931 . S
C1068 C1067 1.385 . S
C1068 C1069 1.389 . S
C1069 C1068 1.389 . S
C1069 C1070 1.387 . S
C1070 H1055 0.930 . S
C1070 C1065 1.390 . S
C1070 C1069 1.387 . S
H1071 C1083 0.930 . S
H1072 C1085 0.930 . S
H1073 C1086 0.930 . S
H1074 C1090 0.959 . S
H1075 C1090 0.959 . S
H1076 C1090 0.961 . S
H1077 C1091 0.960 . S
H1078 C1091 0.961 . S
H1079 C1091 0.959 . S
H1080 C1094 0.929 . S
H1081 C1095 0.931 . S
H1082 C1097 0.930 . S
C1083 H1071 0.930 . S
C1083 C1084 1.399 . S
C1083 C1088 1.399 . S
C1084 C1083 1.399 . S
C1084 C1085 1.376 . S
C1085 H1072 0.930 . S
C1085 C1084 1.376 . S
C1085 C1086 1.388 . S
C1086 H1073 0.930 . S
C1086 C1085 1.388 . S
C1086 C1087 1.390 . S
C1087 C1086 1.390 . S
C1087 C1088 1.394 . S
C1087 C1093 1.465 . S
C1088 C1083 1.399 . S
C1088 C1087 1.394 . S
C1088 C1089 1.516 . S
C1089 C1088 1.516 . S
C1089 C1090 1.502 . S
C1089 C1091 1.561 . S
C1089 C1092 1.526 . S
C1090 H1074 0.959 . S
C1090 H1075 0.959 . S
C1090 H1076 0.961 . S
C1090 C1089 1.502 . S
C1091 H1077 0.960 . S
C1091 H1078 0.961 . S
C1091 H1079 0.959 . S
C1091 C1089 1.561 . S
C1092 C1089 1.526 . S
C1092 C1093 1.396 . S
C1092 C1097 1.390 . S
C1093 C1087 1.465 . S
C1093 C1092 1.396 . S
C1093 C1094 1.399 . S
C1094 H1080 0.929 . S
C1094 C1093 1.399 . S
C1094 C1095 1.385 . S
C1095 H1081 0.931 . S
C1095 C1094 1.385 . S
C1095 C1096 1.389 . S
C1096 C1095 1.389 . S
C1096 C1097 1.387 . S
C1097 H1082 0.930 . S
C1097 C1092 1.390 . S
C1097 C1096 1.387 . S
H1098 C1110 0.930 . S
H1099 C1112 0.930 . S
H1100 C1113 0.930 . S
H1101 C1117 0.959 . S
H1102 C1117 0.959 . S
H1103 C1117 0.961 . S
H1104 C1118 0.960 . S
H1105 C1118 0.961 . S
H1106 C1118 0.959 . S
H1107 C1121 0.929 . S
H1108 C1122 0.931 . S
H1109 C1124 0.930 . S
C1110 H1098 0.930 . S
C1110 C1111 1.399 . S
C1110 C1115 1.399 . S
C1111 C1110 1.399 . S
C1111 C1112 1.376 . S
C1112 H1099 0.930 . S
C1112 C1111 1.376 . S
C1112 C1113 1.388 . S
C1113 H1100 0.930 . S
C1113 C1112 1.388 . S
C1113 C1114 1.390 . S
C1114 C1113 1.390 . S
C1114 C1115 1.394 . S
C1114 C1120 1.465 . S
C1115 C1110 1.399 . S
C1115 C1114 1.394 . S
C1115 C1116 1.516 . S
C1116 C1115 1.516 . S
C1116 C1117 1.502 . S
C1116 C1118 1.561 . S
C1116 C1119 1.526 . S
C1117 H1101 0.959 . S
C1117 H1102 0.959 . S
C1117 H1103 0.961 . S
C1117 C1116 1.502 . S
C1118 H1104 0.960 . S
C1118 H1105 0.961 . S
C1118 H1106 0.959 . S
C1118 C1116 1.561 . S
C1119 C1116 1.526 . S
C1119 C1120 1.396 . S
C1119 C1124 1.390 . S
C1120 C1114 1.465 . S
C1120 C1119 1.396 . S
C1120 C1121 1.399 . S
C1121 H1107 0.929 . S
C1121 C1120 1.399 . S
C1121 C1122 1.385 . S
C1122 H1108 0.931 . S
C1122 C1121 1.385 . S
C1122 C1123 1.389 . S
C1123 C1122 1.389 . S
C1123 C1124 1.387 . S
C1124 H1109 0.930 . S
C1124 C1119 1.390 . S
C1124 C1123 1.387 . S
H1125 C1137 0.930 . S
H1126 C1139 0.930 . S
H1127 C1140 0.930 . S
H1128 C1144 0.959 . S
H1129 C1144 0.959 . S
H1130 C1144 0.961 . S
H1131 C1145 0.960 . S
H1132 C1145 0.961 . S
H1133 C1145 0.959 . S
H1134 C1148 0.929 . S
H1135 C1149 0.931 . S
H1136 C1151 0.930 . S
C1137 H1125 0.930 . S
C1137 C1138 1.399 . S
C1137 C1142 1.399 . S
C1138 C1137 1.399 . S
C1138 C1139 1.376 . S
C1139 H1126 0.930 . S
C1139 C1138 1.376 . S
C1139 C1140 1.388 . S
C1140 H1127 0.930 . S
C1140 C1139 1.388 . S
C1140 C1141 1.390 . S
C1141 C1140 1.390 . S
C1141 C1142 1.394 . S
C1141 C1147 1.465 . S
C1142 C1137 1.399 . S
C1142 C1141 1.394 . S
C1142 C1143 1.516 . S
C1143 C1142 1.516 . S
C1143 C1144 1.502 . S
C1143 C1145 1.561 . S
C1143 C1146 1.526 . S
C1144 H1128 0.959 . S
C1144 H1129 0.959 . S
C1144 H1130 0.961 . S
C1144 C1143 1.502 . S
C1145 H1131 0.960 . S
C1145 H1132 0.961 . S
C1145 H1133 0.959 . S
C1145 C1143 1.561 . S
C1146 C1143 1.526 . S
C1146 C1147 1.396 . S
C1146 C1151 1.390 . S
C1147 C1141 1.465 . S
C1147 C1146 1.396 . S
C1147 C1148 1.399 . S
C1148 H1134 0.929 . S
C1148 C1147 1.399 . S
C1148 C1149 1.385 . S
C1149 H1135 0.931 . S
C1149 C1148 1.385 . S
C1149 C1150 1.389 . S
C1150 C1149 1.389 . S
C1150 C1151 1.387 . S
C1151 H1136 0.930 . S
C1151 C1146 1.390 . S
C1151 C1150 1.387 . S
H1152 C1164 0.930 . S
H1153 C1166 0.930 . S
H1154 C1167 0.930 . S
H1155 C1171 0.959 . S
H1156 C1171 0.959 . S
H1157 C1171 0.961 . S
H1158 C1172 0.960 . S
H1159 C1172 0.961 . S
H1160 C1172 0.959 . S
H1161 C1175 0.929 . S
H1162 C1176 0.931 . S
H1163 C1178 0.930 . S
C1164 H1152 0.930 . S
C1164 C1165 1.399 . S
C1164 C1169 1.399 . S
C1165 C1164 1.399 . S
C1165 C1166 1.376 . S
C1166 H1153 0.930 . S
C1166 C1165 1.376 . S
C1166 C1167 1.388 . S
C1167 H1154 0.930 . S
C1167 C1166 1.388 . S
C1167 C1168 1.390 . S
C1168 C1167 1.390 . S
C1168 C1169 1.394 . S
C1168 C1174 1.465 . S
C1169 C1164 1.399 . S
C1169 C1168 1.394 . S
C1169 C1170 1.516 . S
C1170 C1169 1.516 . S
C1170 C1171 1.502 . S
C1170 C1172 1.561 . S
C1170 C1173 1.526 . S
C1171 H1155 0.959 . S
C1171 H1156 0.959 . S
C1171 H1157 0.961 . S
C1171 C1170 1.502 . S
C1172 H1158 0.960 . S
C1172 H1159 0.961 . S
C1172 H1160 0.959 . S
C1172 C1170 1.561 . S
C1173 C1170 1.526 . S
C1173 C1174 1.396 . S
C1173 C1178 1.390 . S
C1174 C1168 1.465 . S
C1174 C1173 1.396 . S
C1174 C1175 1.399 . S
C1175 H1161 0.929 . S
C1175 C1174 1.399 . S
C1175 C1176 1.385 . S
C1176 H1162 0.931 . S
C1176 C1175 1.385 . S
C1176 C1177 1.389 . S
C1177 C1176 1.389 . S
C1177 C1178 1.387 . S
C1178 H1163 0.930 . S
C1178 C1173 1.390 . S
C1178 C1177 1.387 . S
H1179 C1191 0.930 . S
H1180 C1193 0.930 . S
H1181 C1194 0.930 . S
H1182 C1198 0.959 . S
H1183 C1198 0.959 . S
H1184 C1198 0.961 . S
H1185 C1199 0.960 . S
H1186 C1199 0.961 . S
H1187 C1199 0.959 . S
H1188 C1202 0.929 . S
H1189 C1203 0.931 . S
H1190 C1205 0.930 . S
C1191 H1179 0.930 . S
C1191 C1192 1.399 . S
C1191 C1196 1.399 . S
C1192 C1191 1.399 . S
C1192 C1193 1.376 . S
C1193 H1180 0.930 . S
C1193 C1192 1.376 . S
C1193 C1194 1.388 . S
C1194 H1181 0.930 . S
C1194 C1193 1.388 . S
C1194 C1195 1.390 . S
C1195 C1194 1.390 . S
C1195 C1196 1.394 . S
C1195 C1201 1.465 . S
C1196 C1191 1.399 . S
C1196 C1195 1.394 . S
C1196 C1197 1.516 . S
C1197 C1196 1.516 . S
C1197 C1198 1.502 . S
C1197 C1199 1.561 . S
C1197 C1200 1.526 . S
C1198 H1182 0.959 . S
C1198 H1183 0.959 . S
C1198 H1184 0.961 . S
C1198 C1197 1.502 . S
C1199 H1185 0.960 . S
C1199 H1186 0.961 . S
C1199 H1187 0.959 . S
C1199 C1197 1.561 . S
C1200 C1197 1.526 . S
C1200 C1201 1.396 . S
C1200 C1205 1.390 . S
C1201 C1195 1.465 . S
C1201 C1200 1.396 . S
C1201 C1202 1.399 . S
C1202 H1188 0.929 . S
C1202 C1201 1.399 . S
C1202 C1203 1.385 . S
C1203 H1189 0.931 . S
C1203 C1202 1.385 . S
C1203 C1204 1.389 . S
C1204 C1203 1.389 . S
C1204 C1205 1.387 . S
C1205 H1190 0.930 . S
C1205 C1200 1.390 . S
C1205 C1204 1.387 . S
C409 C173 1.634 . S
C421 N5 1.718 . S
C436 C8 1.613 . S
C448 N38 1.720 . S
C463 C41 1.676 . S
C475 N71 1.712 . S
C490 N104 1.713 . S
C502 C74 1.668 . S
C517 N137 1.716 . S
C529 C107 1.644 . S
C544 C140 1.600 . S
C556 N170 1.721 . S
C571 C239 1.604 . S
C583 N203 1.721 . S
C598 C272 1.650 . S
C610 N236 1.716 . S
C625 C305 1.608 . S
C637 N269 1.721 . S
C652 C338 1.667 . S
C664 N302 1.713 . S
C679 C371 1.651 . S
C691 N335 1.715 . S
C706 C206 1.664 . S
C718 N368 1.713 . S
C733 N278 1.331 . S
C745 N14 1.300 . S
C760 N47 1.336 . S
C772 N311 1.315 . S
C787 N80 1.252 . S
C799 N344 1.276 . S
C814 N113 1.252 . S
C826 N377 1.275 . S
C841 N146 1.273 . S
C853 N212 1.253 . S
C868 N245 1.254 . S
C880 N179 1.282 . S
C895 C314 1.096 . S
C907 C17 1.100 . S
C922 C347 1.075 . S
C934 C50 1.074 . S
C949 C83 1.076 . S
C961 C380 1.079 . S
C976 C116 1.103 . S
C988 C215 1.105 . S
C1003 C149 1.080 . S
C1015 C248 1.078 . S
C1030 C281 1.103 . S
C1042 C182 1.105 . S
C1057 C28 0.928 . S
C1069 C226 0.933 . S
C1084 C259 0.882 . S
C1096 C61 0.981 . S
C1111 C94 0.912 . S
C1123 C292 0.954 . S
C1138 C325 0.985 . S
C1150 C127 0.878 . S
C1165 C358 0.880 . S
C1177 C160 0.979 . S
C1192 C391 0.905 . S
C1204 C193 0.960 . S
