# Generated by pormake.
# Topology smi, (6)-cn, num edge types: 1
# Building blocks:
#     Node 0, Type 0, BuildingBlock: IZENUY_clean_sbu_0, # of connection points: 6
#     Node 1, Type 0, BuildingBlock: IZENUY_clean_sbu_0, # of connection points: 6
#     Node 2, Type 0, BuildingBlock: IZENUY_clean_sbu_0, # of connection points: 6
#     Node 3, Type 0, BuildingBlock: IZENUY_clean_sbu_0, # of connection points: 6
#     Node 4, Type 0, BuildingBlock: IZENUY_clean_sbu_0, # of connection points: 6
#     Node 5, Type 0, BuildingBlock: IZENUY_clean_sbu_0, # of connection points: 6
#     Edge 6, Type (0, 0), BuildingBlock: EZIPEK_clean_linker_0, # of connection points: 2
#     Edge 7, Type (0, 0), BuildingBlock: EZIPEK_clean_linker_0, # of connection points: 2
#     Edge 8, Type (0, 0), BuildingBlock: EZIPEK_clean_linker_0, # of connection points: 2
#     Edge 9, Type (0, 0), BuildingBlock: EZIPEK_clean_linker_0, # of connection points: 2
#     Edge 10, Type (0, 0), BuildingBlock: EZIPEK_clean_linker_0, # of connection points: 2
#     Edge 11, Type (0, 0), BuildingBlock: EZIPEK_clean_linker_0, # of connection points: 2
#     Edge 12, Type (0, 0), BuildingBlock: EZIPEK_clean_linker_0, # of connection points: 2
#     Edge 13, Type (0, 0), BuildingBlock: EZIPEK_clean_linker_0, # of connection points: 2
#     Edge 14, Type (0, 0), BuildingBlock: EZIPEK_clean_linker_0, # of connection points: 2
#     Edge 15, Type (0, 0), BuildingBlock: EZIPEK_clean_linker_0, # of connection points: 2
#     Edge 16, Type (0, 0), BuildingBlock: EZIPEK_clean_linker_0, # of connection points: 2
#     Edge 17, Type (0, 0), BuildingBlock: EZIPEK_clean_linker_0, # of connection points: 2
#     Edge 18, Type (0, 0), BuildingBlock: EZIPEK_clean_linker_0, # of connection points: 2
#     Edge 19, Type (0, 0), BuildingBlock: EZIPEK_clean_linker_0, # of connection points: 2
#     Edge 20, Type (0, 0), BuildingBlock: EZIPEK_clean_linker_0, # of connection points: 2
#     Edge 21, Type (0, 0), BuildingBlock: EZIPEK_clean_linker_0, # of connection points: 2
#     Edge 22, Type (0, 0), BuildingBlock: EZIPEK_clean_linker_0, # of connection points: 2
#     Edge 23, Type (0, 0), BuildingBlock: EZIPEK_clean_linker_0, # of connection points: 2
# Relax obj value: 0.337
# Max RMSD: 0.277
# Mean RMSD: 0.276
data_MOF--net-smi--node1-IZENUY_clean_sbu_0--edge1-EZIPEK_clean_linker_0
_symmetry_space_group_name_H-M    P1
_symmetry_Int_Tables_number       1
_symmetry_cell_setting            triclinic
loop_
_symmetry_equiv_pos_as_xyz
'x, y, z'
_cell_length_a     20.069547
_cell_length_b     19.902254
_cell_length_c     29.820835
_cell_angle_alpha  89.88599
_cell_angle_beta   89.7481
_cell_angle_gamma 120.34945
loop_
_atom_site_label
_atom_site_type_symbol
_atom_site_fract_x
_atom_site_fract_y
_atom_site_fract_z
_atom_type_partial_charge
Fe0 Fe 0.09216 0.5853 0.13456 0.0
Fe1 Fe 0.24638 0.63155 0.08738 0.0
O2 O 0.14461 0.57676 0.0889 0.0
Fe3 Fe 0.09481 0.51528 0.04333 0.0
O4 O 0.05194 0.57384 0.03157 0.0
O5 O 1.00998 0.57391 0.09928 0.0
O6 O 0.13596 0.69006 0.12773 0.0
C7 C 0.20771 0.73597 0.13006 0.0
C8 C 1.00084 0.43094 0.11925 0.0
O9 O 0.25446 0.71411 0.11881 0.0
C10 C 0.21165 0.48559 0.04853 0.0
O11 O 0.16471 0.59669 0.17691 0.0
O12 O 0.25329 0.58615 0.13831 0.0
O13 O 1.01051 0.44362 0.07729 0.0
O14 O 0.04478 0.48237 0.14625 0.0
C15 C 0.21646 0.64673 1.0004 0.0
O16 O 0.25645 0.55766 0.05608 0.0
O17 O 0.13916 0.45561 0.05153 0.0
C18 C 0.22177 0.58552 0.17513 0.0
O19 O 0.24665 0.68166 0.0364 0.0
O20 O 0.16701 0.57479 1.00062 0.0
C21 C 1.00592 0.58079 0.05697 0.0
Fe22 Fe 0.58338 0.08823 0.21664 0.0
Fe23 Fe 0.60193 0.23868 0.26013 0.0
O24 O 0.56203 0.13607 0.26014 0.0
Fe25 Fe 0.49899 0.07837 0.30443 0.0
O26 O 0.52231 1.00087 0.30085 0.0
O27 O 0.62354 0.04858 0.25698 0.0
O28 O 0.68158 0.16756 0.20517 0.0
C29 C 0.72506 0.2335 0.22204 0.0
C30 C 0.42253 0.99277 0.23117 0.0
O31 O 0.70074 0.25995 0.25225 0.0
C32 C 0.46141 0.1974 0.29931 0.0
O33 O 0.54735 0.12513 0.17326 0.0
O34 O 0.58963 0.24403 0.19962 0.0
O35 O 0.41919 0.02885 0.26524 0.0
O36 O 0.48645 1.00047 0.21824 0.0
C37 C 0.61801 0.1989 0.34996 0.0
O38 O 0.50814 0.23182 0.26751 0.0
O39 O 0.46342 0.14309 0.31928 0.0
C40 C 0.56349 0.19479 0.16812 0.0
O41 O 0.62127 0.24742 0.3209 0.0
O42 O 0.5754 0.12607 0.345 0.0
C43 C 0.58474 1.00502 0.28926 0.0
Fe44 Fe 0.40308 0.63222 0.42678 0.0
Fe45 Fe 0.43741 0.50851 0.46543 0.0
O46 O 0.44909 0.57615 0.42241 0.0
Fe47 Fe 0.50768 0.58636 0.37494 0.0
O48 O 0.54037 0.68841 0.36381 0.0
O49 O 0.49199 0.72494 0.41713 0.0
O50 O 0.42197 0.64976 0.48706 0.0
C51 C 0.46128 0.63545 0.51465 0.0
C52 C 0.38192 0.58289 0.33543 0.0
O53 O 0.4803 0.58488 0.50705 0.0
C54 C 0.42728 0.4242 0.39098 0.0
O55 O 0.30827 0.54693 0.43689 0.0
O56 O 0.34081 0.48479 0.48365 0.0
O57 O 0.42758 0.55666 0.33673 0.0
O58 O 0.37768 0.62312 0.36707 0.0
C59 C 0.59436 0.57776 0.44258 0.0
O60 O 0.39305 0.42725 0.42601 0.0
O61 O 0.48519 0.48495 0.37553 0.0
C62 C 0.28964 0.49566 0.46702 0.0
O63 O 0.53309 0.51997 0.45736 0.0
O64 O 0.59243 0.61798 0.41032 0.0
C65 C 0.53933 0.74224 0.38518 0.0
Fe66 Fe 0.76774 0.3943 0.59242 0.0
Fe67 Fe 0.917 0.49103 0.53913 0.0
O68 O 0.8689 0.44275 0.58875 0.0
Fe69 Fe 0.92303 0.44453 0.63509 0.0
O70 O 0.8782 0.33895 0.63649 0.0
O71 O 0.75992 0.31966 0.63304 0.0
O72 O 0.75923 0.32854 0.54829 0.0
C73 C 0.78747 0.34929 0.5095 0.0
C74 C 0.80771 0.46846 0.67297 0.0
O75 O 0.8387 0.42013 0.5023 0.0
C76 C 0.01538 0.59149 0.60951 0.0
O77 O 0.75813 0.45988 0.55215 0.0
O78 O 0.87732 0.55515 0.54043 0.0
O79 O 0.85359 0.44243 0.67622 0.0
O80 O 0.77135 0.45808 0.63688 0.0
C81 C 1.00829 0.43474 0.55944 0.0
O82 O 1.00609 0.56994 0.56856 0.0
O83 O 0.96559 0.54832 0.63734 0.0
C84 C 0.8055 0.52844 0.53834 0.0
O85 O 0.95608 0.42782 0.53404 0.0
O86 O 1.0053 0.44993 0.60076 0.0
C87 C 0.8062 0.29571 0.64278 0.0
Fe88 Fe 0.45141 0.92432 0.70114 0.0
Fe89 Fe 0.39598 0.77292 0.75317 0.0
O90 O 0.44773 0.87543 0.75169 0.0
Fe91 Fe 0.49523 0.92774 0.80062 0.0
O92 O 0.44056 0.97735 0.80094 0.0
O93 O 0.45323 1.0086 0.72947 0.0
O94 O 0.34647 0.87852 0.69799 0.0
C95 C 0.30356 0.80569 0.69516 0.0
C96 C 0.60162 0.01413 0.72965 0.0
O97 O 0.32619 0.76097 0.70987 0.0
C98 C 0.52296 0.80775 0.81023 0.0
O99 O 0.45205 0.84875 0.66482 0.0
O100 O 0.46036 0.76944 0.71235 0.0
O101 O 0.57721 1.00886 0.76971 0.0
O102 O 0.55552 0.97289 0.69941 0.0
C103 C 0.35208 0.80105 0.83286 0.0
O104 O 0.45507 0.76275 0.79672 0.0
O105 O 0.55338 0.88062 0.80552 0.0
C106 C 0.47181 0.79848 0.67363 0.0
O107 O 0.32969 0.77273 0.79443 0.0
O108 O 0.42089 0.85593 0.83911 0.0
C109 C 0.43814 0.01852 0.76965 0.0
Fe110 Fe 0.63983 0.4033 0.92072 0.0
Fe111 Fe 0.58448 0.4945 0.97428 0.0
O112 O 0.57961 0.44286 0.92524 0.0
Fe113 Fe 0.51523 0.42899 0.88041 0.0
O114 O 0.46821 0.32103 0.88264 0.0
O115 O 0.57865 0.32678 0.88245 0.0
O116 O 0.59033 0.33636 0.96641 0.0
C117 C 0.58434 0.3586 1.0051 0.0
C118 C 0.6573 0.46409 0.83795 0.0
O119 O 0.59672 0.42722 0.01186 0.0
C120 C 0.56892 0.58298 0.90229 0.0
O121 O 0.71471 0.47043 0.95825 0.0
O122 O 0.68867 0.56251 0.9701 0.0
O123 O 0.58416 0.43475 0.83647 0.0
O124 O 0.69024 0.46967 0.8749 0.0
C125 C 0.43006 0.42467 0.95966 0.0
O126 O 0.57166 0.56901 0.94381 0.0
O127 O 0.55664 0.53264 0.87287 0.0
C128 C 0.73586 0.53851 0.97068 0.0
O129 O 0.4832 0.43056 0.9839 0.0
O130 O 0.43771 0.42639 0.91712 0.0
C131 C 0.50737 0.28776 0.8758 0.0
C132 C 0.22618 0.5169 0.24546 0.0
C133 C 0.26049 0.58362 0.2171 0.0
C134 C 0.37879 0.63947 0.26151 0.0
C135 C 0.34182 0.57799 0.29289 0.0
N136 N 0.23015 0.45801 0.31623 0.0
N137 N 0.36374 0.71597 0.20441 0.0
C138 C 0.26525 0.5165 0.28531 0.0
C139 C 0.3352 0.64694 0.22686 0.0
N140 N 0.1577 0.45324 0.23352 0.0
N141 N 0.45655 0.68952 0.26372 0.0
H142 H 0.33334 0.72501 0.17949 0.0
H143 H 0.41366 0.76676 0.21395 0.0
H144 H 0.49111 0.68388 0.2875 0.0
H145 H 0.48776 0.73011 0.23869 0.0
H146 H 0.13315 0.39984 0.25008 0.0
H147 H 0.12751 0.4523 0.20496 0.0
H148 H 0.1718 0.41584 0.31558 0.0
H149 H 0.25928 0.45384 0.34401 0.0
C150 C 0.626 0.21112 0.43391 0.0
C151 C 0.66366 0.22859 0.39167 0.0
C152 C 0.78846 0.30994 0.42844 0.0
C153 C 0.74971 0.29515 0.47059 0.0
N154 N 0.64016 0.19521 0.5126 0.0
N155 N 0.78211 0.2708 0.35079 0.0
C156 C 0.67099 0.23465 0.4734 0.0
C157 C 0.74552 0.27137 0.38941 0.0
N158 N 0.54733 0.17355 0.43666 0.0
N159 N 0.86656 0.35841 0.42589 0.0
H160 H 0.7521 0.23761 0.32314 0.0
H161 H 0.84166 0.2955 0.34774 0.0
H162 H 0.90176 0.37516 0.45408 0.0
H163 H 0.89631 0.38137 0.39587 0.0
H164 H 0.51795 0.16724 0.46673 0.0
H165 H 0.51191 0.15494 0.40857 0.0
H166 H 0.58407 0.14788 0.51497 0.0
H167 H 0.6737 0.19978 0.54022 0.0
C168 C 0.52484 0.80145 0.59534 0.0
C169 C 0.49221 0.76116 0.63639 0.0
C170 C 0.45194 0.63711 0.59895 0.0
C171 C 0.48163 0.67722 0.55791 0.0
N172 N 0.57746 0.79626 0.52323 0.0
N173 N 0.46961 0.64663 0.67887 0.0
C174 C 0.52779 0.75917 0.55794 0.0
C175 C 0.46963 0.68072 0.63908 0.0
N176 N 0.55292 0.87955 0.59148 0.0
N177 N 0.4055 0.55804 0.59994 0.0
H178 H 0.49582 0.67847 0.70764 0.0
H179 H 0.45666 0.58897 0.68114 0.0
H180 H 0.39162 0.5236 0.57137 0.0
H181 H 0.37624 0.52779 0.62887 0.0
H182 H 0.56779 0.90866 0.56071 0.0
H183 H 0.55953 0.91497 0.61861 0.0
H184 H 0.61913 0.85529 0.52385 0.0
H185 H 0.58185 0.76605 0.49592 0.0
C186 C 0.7635 0.46078 0.79412 0.0
C187 C 0.70223 0.47725 0.79569 0.0
C188 C 0.72291 0.5105 0.71537 0.0
C189 C 0.78324 0.49248 0.71483 0.0
N190 N 0.88705 0.50159 0.76013 0.0
N191 N 0.64107 0.54162 0.76022 0.0
C192 C 0.81242 0.48467 0.75632 0.0
C193 C 0.68679 0.50912 0.75697 0.0
N194 N 0.77268 0.41763 0.82659 0.0
N195 N 0.70146 0.53115 0.67681 0.0
H196 H 0.61597 0.54464 0.79016 0.0
H197 H 0.63415 0.57274 0.73435 0.0
H198 H 0.73638 0.54977 0.64836 0.0
H199 H 0.64996 0.53147 0.67351 0.0
H200 H 0.81529 0.40242 0.82452 0.0
H201 H 0.73227 0.38772 0.8518 0.0
H202 H 0.91099 0.50007 0.79084 0.0
H203 H 0.92715 0.52815 0.73417 0.0
C204 C 0.2485 0.75568 0.94568 0.0
C205 C 0.24842 0.68631 0.95692 0.0
C206 C 0.29474 0.68204 0.88161 0.0
C207 C 0.30592 0.75728 0.87254 0.0
N208 N 0.2976 0.86845 0.89657 0.0
N209 N 0.28922 0.59419 0.93902 0.0
C210 C 0.28413 0.79503 0.90487 0.0
C211 C 0.27593 0.65214 0.92575 0.0
N212 N 0.21196 0.78218 0.97304 0.0
N213 N 0.30246 0.63866 0.84867 0.0
H214 H 0.28304 0.57532 0.97205 0.0
H215 H 0.31601 0.57198 0.91883 0.0
H216 H 0.31698 0.65653 0.81559 0.0
H217 H 0.28599 0.58033 0.8531 0.0
H218 H 0.20359 0.82814 0.96454 0.0
H219 H 0.18391 0.75388 1.00267 0.0
H220 H 0.29174 0.90272 0.92082 0.0
H221 H 0.3183 0.89661 0.86579 0.0
C222 C 0.61843 0.23745 0.09092 0.0
C223 C 0.55986 0.2231 0.12281 0.0
C224 C 0.50759 0.28145 0.07194 0.0
C225 C 0.57357 0.3077 0.04398 0.0
N226 N 0.69606 0.31642 0.02845 0.0
N227 N 0.44913 0.23214 0.14476 0.0
C228 C 0.62984 0.28656 0.05358 0.0
C229 C 0.50448 0.24532 0.11358 0.0
N230 N 0.66326 0.20436 0.09625 0.0
N231 N 0.44635 0.28768 0.05764 0.0
H232 H 0.44188 0.20043 0.17403 0.0
H233 H 0.41315 0.2556 0.14261 0.0
H234 H 0.44494 0.309 0.02598 0.0
H235 H 0.39388 0.26381 0.07476 0.0
H236 H 0.70166 0.20644 0.07195 0.0
H237 H 0.6567 0.16776 0.12291 0.0
H238 H 0.7425 0.3092 0.03641 0.0
H239 H 0.708 0.35403 1.0014 0.0
C240 C 0.37907 0.46489 0.02635 0.0
C241 C 0.36503 0.42796 0.98337 0.0
C242 C 0.23448 0.41094 0.98618 0.0
C243 C 0.2487 0.44234 0.03035 0.0
N244 N 0.32246 0.46692 0.09758 0.0
N245 N 0.26813 0.3451 0.92972 0.0
C246 C 0.31623 0.45614 0.05228 0.0
C247 C 0.28913 0.39427 0.96544 0.0
N248 N 0.45211 0.51577 0.04095 0.0
N249 N 0.1716 0.40064 0.96297 0.0
H250 H 0.30453 0.32783 0.91542 0.0
H251 H 0.21171 0.31461 0.91782 0.0
H252 H 0.12933 0.40991 0.97695 0.0
H253 H 0.16414 0.38721 0.92892 0.0
H254 H 0.4627 0.54653 0.07086 0.0
H255 H 0.50113 0.53773 0.02077 0.0
H256 H 0.36967 0.4729 0.11554 0.0
H257 H 0.27651 0.46105 0.11717 0.0
C258 C 0.92662 0.31397 0.16989 0.0
C259 C 0.92647 0.36759 0.13838 0.0
C260 C 0.80428 0.34551 0.16992 0.0
C261 C 0.79969 0.28602 0.19852 0.0
N262 N 0.85293 0.20713 0.22217 0.0
N263 N 0.85145 0.41291 0.09933 0.0
C264 C 0.8597 0.26789 0.19719 0.0
C265 C 0.86075 0.37614 0.13537 0.0
N266 N 0.99116 0.30802 0.17403 0.0
N267 N 0.75652 0.37499 0.17621 0.0
H268 H 0.88728 0.42914 0.07129 0.0
H269 H 0.80231 0.41709 0.09438 0.0
H270 H 0.71869 0.35983 0.20319 0.0
H271 H 0.76221 0.42272 0.15838 0.0
H272 H 0.99889 0.27714 0.19973 0.0
H273 H 0.03857 0.3371 0.15247 0.0
H274 H 0.89049 0.18565 0.21918 0.0
H275 H 0.80723 0.1758 0.24453 0.0
C276 C 0.61376 0.83601 0.32122 0.0
C277 C 0.58207 0.82407 0.36559 0.0
C278 C 0.60723 0.95795 0.36128 0.0
C279 C 0.60755 0.95478 0.31408 0.0
N280 N 0.61791 0.89104 0.24794 0.0
N281 N 0.56108 0.88634 0.43011 0.0
C282 C 0.61382 0.89437 0.29346 0.0
C283 C 0.58293 0.88897 0.38659 0.0
N284 N 0.64722 0.79512 0.30637 0.0
N285 N 0.63422 0.02806 0.38174 0.0
H286 H 0.55161 0.84203 0.45193 0.0
H287 H 0.5514 0.92863 0.44417 0.0
H288 H 0.66226 0.07956 0.36312 0.0
H289 H 0.63994 0.03544 0.41639 0.0
H290 H 0.67414 0.80506 0.27511 0.0
H291 H 0.6587 0.76077 0.3278 0.0
H292 H 0.61619 0.84404 0.23149 0.0
H293 H 0.61934 0.93342 0.22673 0.0
C294 C 0.76475 0.54961 0.46301 0.0
C295 C 0.77535 0.56779 0.50932 0.0
C296 C 0.69271 0.62501 0.50339 0.0
C297 C 0.66851 0.59034 0.46054 0.0
N298 N 0.68227 0.52137 0.39824 0.0
N299 N 0.763 0.63588 0.57197 0.0
C300 C 0.70581 0.55437 0.43955 0.0
C301 C 0.74398 0.61042 0.52892 0.0
N302 N 0.81227 0.5296 0.44142 0.0
N303 N 0.6663 0.67166 0.5192 0.0
H304 H 0.80606 0.6318 0.58913 0.0
H305 H 0.73673 0.66038 0.59058 0.0
H306 H 0.63138 0.68489 0.4998 0.0
H307 H 0.68328 0.70189 0.5493 0.0
H308 H 0.81068 0.52011 0.40702 0.0
H309 H 0.86001 0.53271 0.4571 0.0
H310 H 0.70013 0.48549 0.38371 0.0
H311 H 0.64162 0.52687 0.37937 0.0
C312 C 0.1662 0.70603 0.69758 0.0
C313 C 0.22609 0.76812 0.67363 0.0
C314 C 0.14305 0.7241 0.60658 0.0
C315 C 0.09124 0.65295 0.62895 0.0
N316 N 0.07876 0.56955 0.69262 0.0
N317 N 0.27488 0.83328 0.60246 0.0
C318 C 0.1095 0.64193 0.67373 0.0
C319 C 0.21553 0.777 0.62722 0.0
N320 N 0.16528 0.70655 0.74331 0.0
N321 N 0.12315 0.74241 0.56664 0.0
H322 H 0.32768 0.87345 0.61649 0.0
H323 H 0.27296 0.83672 0.56765 0.0
H324 H 0.07022 0.70672 0.55131 0.0
H325 H 0.15624 0.79642 0.55107 0.0
H326 H 0.1198 0.66325 0.76213 0.0
H327 H 0.20494 0.75509 0.76147 0.0
H328 H 0.09501 0.56059 0.72426 0.0
H329 H 0.04739 0.51825 0.67467 0.0
C330 C 0.40116 0.15699 0.83994 0.0
C331 C 0.48015 0.21432 0.8478 0.0
C332 C 0.51703 0.15828 0.78603 0.0
C333 C 0.44263 0.09275 0.78403 0.0
N334 N 0.31191 0.02674 0.8114 0.0
N335 N 0.60889 0.22937 0.84236 0.0
C336 C 0.38365 0.09158 0.81144 0.0
C337 C 0.53751 0.20455 0.82471 0.0
N338 N 0.34336 0.16182 0.86106 0.0
N339 N 0.57079 0.17262 0.75367 0.0
H340 H 0.621 0.24236 0.87624 0.0
H341 H 0.65033 0.22139 0.8259 0.0
H342 H 0.55748 0.14034 0.72423 0.0
H343 H 0.62539 0.22267 0.75421 0.0
H344 H 0.28542 0.12697 0.8526 0.0
H345 H 0.35323 0.20132 0.88658 0.0
H346 H 0.26845 0.01761 0.83407 0.0
H347 H 0.29761 0.98056 0.7895 0.0
C348 C 0.5301 0.75194 0.88424 0.0
C349 C 0.55807 0.77305 0.83967 0.0
C350 C 0.6197 0.69401 0.84682 0.0
C351 C 0.57533 0.65781 0.88622 0.0
N352 N 0.48322 0.65166 0.94138 0.0
N353 N 0.63066 0.76435 0.77794 0.0
C354 C 0.53018 0.6875 0.90527 0.0
C355 C 0.60415 0.7449 0.82096 0.0
N356 N 0.50339 0.79365 0.90634 0.0
N357 N 0.6778 0.68086 0.8347 0.0
H358 H 0.62278 0.80395 0.75899 0.0
H359 H 0.65664 0.73816 0.76055 0.0
H360 H 0.69254 0.64651 0.85401 0.0
H361 H 0.71596 0.71008 0.80834 0.0
H362 H 0.48696 0.78499 0.94 0.0
H363 H 0.50768 0.84376 0.89242 0.0
H364 H 0.44497 0.66764 0.95425 0.0
H365 H 0.47719 0.60183 0.95651 0.0
C366 C 0.91959 0.55568 0.98999 0.0
C367 C 0.93999 0.5837 0.03483 0.0
C368 C 0.82908 0.60494 0.03528 0.0
C369 C 0.81526 0.58301 0.98938 0.0
N370 N 0.87008 0.57244 0.91993 0.0
N371 N 0.92465 0.65769 0.09442 0.0
C372 C 0.87066 0.57359 0.96565 0.0
C373 C 0.89822 0.61571 0.0559 0.0
N374 N 0.93789 0.50382 0.97207 0.0
N375 N 0.77558 0.6123 0.05971 0.0
H376 H 0.97722 0.67152 0.10881 0.0
H377 H 0.89867 0.68641 0.10895 0.0
H378 H 0.72648 0.60838 0.04541 0.0
H379 H 0.7788 0.61894 0.09444 0.0
H380 H 0.91986 0.48007 0.94022 0.0
H381 H 0.95837 0.47419 0.99114 0.0
H382 H 0.91154 0.56774 0.90115 0.0
H383 H 0.83291 0.58433 0.90164 0.0
C384 C 0.30022 0.86138 0.22966 0.0
C385 C 0.35074 0.93357 0.20854 0.0
C386 C 0.28845 0.88096 0.13621 0.0
C387 C 0.23951 0.80827 0.15705 0.0
N388 N 0.17953 0.73878 0.22556 0.0
N389 N 0.37328 0.01969 0.14635 0.0
C390 C 0.23868 0.80182 0.20453 0.0
C391 C 0.33851 0.9458 0.16315 0.0
N392 N 0.31344 0.84784 0.27273 0.0
N393 N 0.28851 0.88732 0.09062 0.0
H394 H 0.40466 0.06775 0.16689 0.0
H395 H 0.36312 0.03339 0.11433 0.0
H396 H 0.24923 0.84167 0.07049 0.0
H397 H 0.32924 0.9363 0.07294 0.0
H398 H 0.28441 0.79297 0.28776 0.0
H399 H 0.35724 0.89022 0.29244 0.0
H400 H 0.17327 0.73359 0.2603 0.0
H401 H 0.13173 0.69644 0.20831 0.0
C402 C 0.40683 0.28828 0.29744 0.0
C403 C 0.41922 0.23371 0.32099 0.0
C404 C 0.41101 0.28924 0.39254 0.0
C405 C 0.40687 0.34903 0.36912 0.0
N406 N 0.3674 0.38503 0.30162 0.0
N407 N 0.38037 0.15556 0.38883 0.0
C408 C 0.3943 0.34216 0.32208 0.0
C409 C 0.40448 0.22525 0.36798 0.0
N410 N 0.40529 0.28722 0.25177 0.0
N411 N 0.42516 0.29464 0.4375 0.0
H412 H 0.36418 0.10463 0.37099 0.0
H413 H 0.36506 0.14626 0.42269 0.0
H414 H 0.43095 0.34054 0.45708 0.0
H415 H 0.43683 0.25592 0.4545 0.0
H416 H 0.40696 0.33137 0.23213 0.0
H417 H 0.40157 0.24059 0.23388 0.0
H418 H 0.35277 0.38035 0.26787 0.0
H419 H 0.3507 0.41825 0.32022 0.0
C420 C 0.10102 0.48043 0.49356 0.0
C421 C 0.08025 0.44493 0.53702 0.0
C422 C 0.19164 0.42426 0.53216 0.0
C423 C 0.20989 0.45904 0.48827 0.0
N424 N 0.15236 0.47525 0.42161 0.0
N425 N 0.09627 0.36577 0.59231 0.0
C426 C 0.15487 0.47234 0.46721 0.0
C427 C 0.12315 0.41222 0.55503 0.0
N428 N 0.07329 0.52595 0.47758 0.0
N429 N 0.23745 0.40037 0.55181 0.0
H430 H 0.04571 0.3538 0.60902 0.0
H431 H 0.12009 0.33349 0.60447 0.0
H432 H 0.27439 0.38802 0.53374 0.0
H433 H 0.23624 0.38969 0.58611 0.0
H434 H 0.09259 0.55676 0.44744 0.0
H435 H 0.0398 0.54187 0.49627 0.0
H436 H 0.10929 0.47954 0.40463 0.0
H437 H 0.18634 0.46175 0.40139 0.0
C438 C 0.70474 0.07919 0.67007 0.0
C439 C 0.67905 0.08031 0.7143 0.0
C440 C 0.7678 0.22138 0.71625 0.0
C441 C 0.77586 0.22159 0.66873 0.0
N442 N 0.75879 0.15002 0.6006 0.0
N443 N 0.72129 0.14519 0.78516 0.0
C444 C 0.74758 0.15016 0.64579 0.0
C445 C 0.7211 0.1494 0.73947 0.0
N446 N 0.69216 0.01046 0.65273 0.0
N447 N 0.80345 0.29008 0.73893 0.0
H448 H 0.69606 0.09217 0.80226 0.0
H449 H 0.75475 0.19252 0.80575 0.0
H450 H 0.84606 0.34136 0.72414 0.0
H451 H 0.79098 0.29618 0.77205 0.0
H452 H 0.71482 1.0061 0.6221 0.0
H453 H 0.66633 0.95927 0.67182 0.0
H454 H 0.73147 0.09977 0.58122 0.0
H455 H 0.79268 0.20104 0.58224 0.0
loop_
_geom_bond_atom_site_label_1
_geom_bond_atom_site_label_2
_geom_bond_distance
_geom_bond_site_symmetry_2
_ccdc_geom_bond_type
Fe0 O2 1.918 . S
Fe0 O5 1.997 . S
Fe0 O6 2.002 . S
Fe0 O11 1.976 . S
Fe0 O14 1.996 . S
Fe1 O2 1.918 . S
Fe1 O9 1.997 . S
Fe1 O12 1.996 . S
Fe1 O16 1.976 . S
Fe1 O19 2.002 . S
O2 Fe0 1.918 . S
O2 Fe1 1.918 . S
O2 Fe3 1.918 . S
Fe3 O2 1.918 . S
Fe3 O4 2.002 . S
Fe3 O13 1.976 . S
Fe3 O17 1.996 . S
Fe3 O20 1.997 1_554 S
O4 Fe3 2.002 . S
O4 C21 1.295 . S
O5 Fe0 1.997 . S
O5 C21 1.235 . S
O6 Fe0 2.002 . S
O6 C7 1.295 . S
C7 O6 1.295 . S
C7 O9 1.235 . S
C8 O13 1.287 . S
C8 O14 1.255 . S
O9 Fe1 1.997 . S
O9 C7 1.235 . S
C10 O16 1.287 . S
C10 O17 1.255 . S
O11 Fe0 1.976 . S
O11 C18 1.287 . S
O12 Fe1 1.996 . S
O12 C18 1.255 . S
O13 Fe3 1.976 . S
O13 C8 1.287 . S
O14 Fe0 1.996 . S
O14 C8 1.255 . S
C15 O19 1.295 1_556 S
C15 O20 1.235 . S
O16 Fe1 1.976 . S
O16 C10 1.287 . S
O17 Fe3 1.996 . S
O17 C10 1.255 . S
C18 O11 1.287 . S
C18 O12 1.255 . S
O19 Fe1 2.002 . S
O19 C15 1.295 1_554 S
O20 Fe3 1.997 1_556 S
O20 C15 1.235 . S
C21 O4 1.295 . S
C21 O5 1.235 . S
Fe22 O24 1.918 . S
Fe22 O27 1.997 . S
Fe22 O28 2.002 . S
Fe22 O33 1.976 . S
Fe22 O36 1.996 . S
Fe23 O24 1.918 . S
Fe23 O31 1.997 . S
Fe23 O34 1.996 . S
Fe23 O38 1.976 . S
Fe23 O41 2.002 . S
O24 Fe22 1.918 . S
O24 Fe23 1.918 . S
O24 Fe25 1.918 . S
Fe25 O24 1.918 . S
Fe25 O26 2.002 . S
Fe25 O35 1.976 . S
Fe25 O39 1.996 . S
Fe25 O42 1.997 . S
O26 Fe25 2.002 . S
O26 C43 1.295 . S
O27 Fe22 1.997 . S
O27 C43 1.235 . S
O28 Fe22 2.002 . S
O28 C29 1.295 . S
C29 O28 1.295 . S
C29 O31 1.235 . S
C30 O35 1.287 . S
C30 O36 1.255 . S
O31 Fe23 1.997 . S
O31 C29 1.235 . S
C32 O38 1.287 . S
C32 O39 1.255 . S
O33 Fe22 1.976 . S
O33 C40 1.287 . S
O34 Fe23 1.996 . S
O34 C40 1.255 . S
O35 Fe25 1.976 . S
O35 C30 1.287 . S
O36 Fe22 1.996 . S
O36 C30 1.255 . S
C37 O41 1.295 . S
C37 O42 1.235 . S
O38 Fe23 1.976 . S
O38 C32 1.287 . S
O39 Fe25 1.996 . S
O39 C32 1.255 . S
C40 O33 1.287 . S
C40 O34 1.255 . S
O41 Fe23 2.002 . S
O41 C37 1.295 . S
O42 Fe25 1.997 . S
O42 C37 1.235 . S
C43 O26 1.295 . S
C43 O27 1.235 . S
Fe44 O46 1.918 . S
Fe44 O49 1.997 . S
Fe44 O50 2.002 . S
Fe44 O55 1.976 . S
Fe44 O58 1.996 . S
Fe45 O46 1.918 . S
Fe45 O53 1.997 . S
Fe45 O56 1.996 . S
Fe45 O60 1.976 . S
Fe45 O63 2.002 . S
O46 Fe44 1.918 . S
O46 Fe45 1.918 . S
O46 Fe47 1.918 . S
Fe47 O46 1.918 . S
Fe47 O48 2.002 . S
Fe47 O57 1.976 . S
Fe47 O61 1.996 . S
Fe47 O64 1.997 . S
O48 Fe47 2.002 . S
O48 C65 1.295 . S
O49 Fe44 1.997 . S
O49 C65 1.235 . S
O50 Fe44 2.002 . S
O50 C51 1.295 . S
C51 O50 1.295 . S
C51 O53 1.235 . S
C52 O57 1.287 . S
C52 O58 1.255 . S
O53 Fe45 1.997 . S
O53 C51 1.235 . S
C54 O60 1.287 . S
C54 O61 1.255 . S
O55 Fe44 1.976 . S
O55 C62 1.287 . S
O56 Fe45 1.996 . S
O56 C62 1.255 . S
O57 Fe47 1.976 . S
O57 C52 1.287 . S
O58 Fe44 1.996 . S
O58 C52 1.255 . S
C59 O63 1.295 . S
C59 O64 1.235 . S
O60 Fe45 1.976 . S
O60 C54 1.287 . S
O61 Fe47 1.996 . S
O61 C54 1.255 . S
C62 O55 1.287 . S
C62 O56 1.255 . S
O63 Fe45 2.002 . S
O63 C59 1.295 . S
O64 Fe47 1.997 . S
O64 C59 1.235 . S
C65 O48 1.295 . S
C65 O49 1.235 . S
Fe66 O68 1.918 . S
Fe66 O71 1.997 . S
Fe66 O72 2.002 . S
Fe66 O77 1.976 . S
Fe66 O80 1.996 . S
Fe67 O68 1.918 . S
Fe67 O75 1.997 . S
Fe67 O78 1.996 . S
Fe67 O82 1.976 . S
Fe67 O85 2.002 . S
O68 Fe66 1.918 . S
O68 Fe67 1.918 . S
O68 Fe69 1.918 . S
Fe69 O68 1.918 . S
Fe69 O70 2.002 . S
Fe69 O79 1.976 . S
Fe69 O83 1.996 . S
Fe69 O86 1.997 . S
O70 Fe69 2.002 . S
O70 C87 1.295 . S
O71 Fe66 1.997 . S
O71 C87 1.235 . S
O72 Fe66 2.002 . S
O72 C73 1.295 . S
C73 O72 1.295 . S
C73 O75 1.235 . S
C74 O79 1.287 . S
C74 O80 1.255 . S
O75 Fe67 1.997 . S
O75 C73 1.235 . S
C76 O82 1.287 . S
C76 O83 1.255 . S
O77 Fe66 1.976 . S
O77 C84 1.287 . S
O78 Fe67 1.996 . S
O78 C84 1.255 . S
O79 Fe69 1.976 . S
O79 C74 1.287 . S
O80 Fe66 1.996 . S
O80 C74 1.255 . S
C81 O85 1.295 . S
C81 O86 1.235 . S
O82 Fe67 1.976 . S
O82 C76 1.287 . S
O83 Fe69 1.996 . S
O83 C76 1.255 . S
C84 O77 1.287 . S
C84 O78 1.255 . S
O85 Fe67 2.002 . S
O85 C81 1.295 . S
O86 Fe69 1.997 . S
O86 C81 1.235 . S
C87 O70 1.295 . S
C87 O71 1.235 . S
Fe88 O90 1.918 . S
Fe88 O93 1.997 . S
Fe88 O94 2.002 . S
Fe88 O99 1.976 . S
Fe88 O102 1.996 . S
Fe89 O90 1.918 . S
Fe89 O97 1.997 . S
Fe89 O100 1.996 . S
Fe89 O104 1.976 . S
Fe89 O107 2.002 . S
O90 Fe88 1.918 . S
O90 Fe89 1.918 . S
O90 Fe91 1.918 . S
Fe91 O90 1.918 . S
Fe91 O92 2.002 . S
Fe91 O101 1.976 . S
Fe91 O105 1.996 . S
Fe91 O108 1.997 . S
O92 Fe91 2.002 . S
O92 C109 1.295 . S
O93 Fe88 1.997 . S
O93 C109 1.235 . S
O94 Fe88 2.002 . S
O94 C95 1.295 . S
C95 O94 1.295 . S
C95 O97 1.235 . S
C96 O101 1.287 . S
C96 O102 1.255 . S
O97 Fe89 1.997 . S
O97 C95 1.235 . S
C98 O104 1.287 . S
C98 O105 1.255 . S
O99 Fe88 1.976 . S
O99 C106 1.287 . S
O100 Fe89 1.996 . S
O100 C106 1.255 . S
O101 Fe91 1.976 . S
O101 C96 1.287 . S
O102 Fe88 1.996 . S
O102 C96 1.255 . S
C103 O107 1.295 . S
C103 O108 1.235 . S
O104 Fe89 1.976 . S
O104 C98 1.287 . S
O105 Fe91 1.996 . S
O105 C98 1.255 . S
C106 O99 1.287 . S
C106 O100 1.255 . S
O107 Fe89 2.002 . S
O107 C103 1.295 . S
O108 Fe91 1.997 . S
O108 C103 1.235 . S
C109 O92 1.295 . S
C109 O93 1.235 . S
Fe110 O112 1.918 . S
Fe110 O115 1.997 . S
Fe110 O116 2.002 . S
Fe110 O121 1.976 . S
Fe110 O124 1.996 . S
Fe111 O112 1.918 . S
Fe111 O119 1.997 1_556 S
Fe111 O122 1.996 . S
Fe111 O126 1.976 . S
Fe111 O129 2.002 . S
O112 Fe110 1.918 . S
O112 Fe111 1.918 . S
O112 Fe113 1.918 . S
Fe113 O112 1.918 . S
Fe113 O114 2.002 . S
Fe113 O123 1.976 . S
Fe113 O127 1.996 . S
Fe113 O130 1.997 . S
O114 Fe113 2.002 . S
O114 C131 1.295 . S
O115 Fe110 1.997 . S
O115 C131 1.235 . S
O116 Fe110 2.002 . S
O116 C117 1.295 1_556 S
C117 O116 1.295 1_554 S
C117 O119 1.235 . S
C118 O123 1.287 . S
C118 O124 1.255 . S
O119 Fe111 1.997 1_554 S
O119 C117 1.235 . S
C120 O126 1.287 . S
C120 O127 1.255 . S
O121 Fe110 1.976 . S
O121 C128 1.287 . S
O122 Fe111 1.996 . S
O122 C128 1.255 . S
O123 Fe113 1.976 . S
O123 C118 1.287 . S
O124 Fe110 1.996 . S
O124 C118 1.255 . S
C125 O129 1.295 . S
C125 O130 1.235 . S
O126 Fe111 1.976 . S
O126 C120 1.287 . S
O127 Fe113 1.996 . S
O127 C120 1.255 . S
C128 O121 1.287 . S
C128 O122 1.255 . S
O129 Fe111 2.002 . S
O129 C125 1.295 . S
O130 Fe113 1.997 . S
O130 C125 1.235 . S
C131 O114 1.295 . S
C131 O115 1.235 . S
C132 C133 1.363 . S
C132 C138 1.379 . S
C132 N140 1.356 . S
C133 C132 1.363 . S
C133 C139 1.363 . S
C134 C135 1.363 . S
C134 C139 1.379 . S
C134 N141 1.356 . S
C135 C134 1.363 . S
C135 C138 1.363 . S
N136 C138 1.356 . S
N136 H148 0.984 . S
N136 H149 0.985 . S
N137 C139 1.356 . S
N137 H142 0.984 . S
N137 H143 0.985 . S
C138 C132 1.379 . S
C138 C135 1.363 . S
C138 N136 1.356 . S
C139 C133 1.363 . S
C139 C134 1.379 . S
C139 N137 1.356 . S
N140 C132 1.356 . S
N140 H146 0.984 . S
N140 H147 0.984 . S
N141 C134 1.356 . S
N141 H144 0.984 . S
N141 H145 0.985 . S
H142 N137 0.984 . S
H143 N137 0.985 . S
H144 N141 0.984 . S
H145 N141 0.985 . S
H146 N140 0.984 . S
H147 N140 0.984 . S
H148 N136 0.984 . S
H149 N136 0.985 . S
C150 C151 1.363 . S
C150 C156 1.379 . S
C150 N158 1.356 . S
C151 C150 1.363 . S
C151 C157 1.363 . S
C152 C153 1.363 . S
C152 C157 1.379 . S
C152 N159 1.356 . S
C153 C152 1.363 . S
C153 C156 1.363 . S
N154 C156 1.356 . S
N154 H166 0.984 . S
N154 H167 0.985 . S
N155 C157 1.356 . S
N155 H160 0.984 . S
N155 H161 0.985 . S
C156 C150 1.379 . S
C156 C153 1.363 . S
C156 N154 1.356 . S
C157 C151 1.363 . S
C157 C152 1.379 . S
C157 N155 1.356 . S
N158 C150 1.356 . S
N158 H164 0.984 . S
N158 H165 0.984 . S
N159 C152 1.356 . S
N159 H162 0.984 . S
N159 H163 0.985 . S
H160 N155 0.984 . S
H161 N155 0.985 . S
H162 N159 0.984 . S
H163 N159 0.985 . S
H164 N158 0.984 . S
H165 N158 0.984 . S
H166 N154 0.984 . S
H167 N154 0.985 . S
C168 C169 1.363 . S
C168 C174 1.379 . S
C168 N176 1.356 . S
C169 C168 1.363 . S
C169 C175 1.363 . S
C170 C171 1.363 . S
C170 C175 1.379 . S
C170 N177 1.356 . S
C171 C170 1.363 . S
C171 C174 1.363 . S
N172 C174 1.356 . S
N172 H184 0.984 . S
N172 H185 0.985 . S
N173 C175 1.356 . S
N173 H178 0.984 . S
N173 H179 0.985 . S
C174 C168 1.379 . S
C174 C171 1.363 . S
C174 N172 1.356 . S
C175 C169 1.363 . S
C175 C170 1.379 . S
C175 N173 1.356 . S
N176 C168 1.356 . S
N176 H182 0.984 . S
N176 H183 0.984 . S
N177 C170 1.356 . S
N177 H180 0.984 . S
N177 H181 0.985 . S
H178 N173 0.984 . S
H179 N173 0.985 . S
H180 N177 0.984 . S
H181 N177 0.985 . S
H182 N176 0.984 . S
H183 N176 0.984 . S
H184 N172 0.984 . S
H185 N172 0.985 . S
C186 C187 1.363 . S
C186 C192 1.379 . S
C186 N194 1.356 . S
C187 C186 1.363 . S
C187 C193 1.363 . S
C188 C189 1.363 . S
C188 C193 1.379 . S
C188 N195 1.356 . S
C189 C188 1.363 . S
C189 C192 1.363 . S
N190 C192 1.356 . S
N190 H202 0.984 . S
N190 H203 0.985 . S
N191 C193 1.356 . S
N191 H196 0.984 . S
N191 H197 0.985 . S
C192 C186 1.379 . S
C192 C189 1.363 . S
C192 N190 1.356 . S
C193 C187 1.363 . S
C193 C188 1.379 . S
C193 N191 1.356 . S
N194 C186 1.356 . S
N194 H200 0.984 . S
N194 H201 0.984 . S
N195 C188 1.356 . S
N195 H198 0.984 . S
N195 H199 0.985 . S
H196 N191 0.984 . S
H197 N191 0.985 . S
H198 N195 0.984 . S
H199 N195 0.985 . S
H200 N194 0.984 . S
H201 N194 0.984 . S
H202 N190 0.984 . S
H203 N190 0.985 . S
C204 C205 1.363 . S
C204 C210 1.379 . S
C204 N212 1.356 . S
C205 C204 1.363 . S
C205 C211 1.363 . S
C206 C207 1.363 . S
C206 C211 1.379 . S
C206 N213 1.356 . S
C207 C206 1.363 . S
C207 C210 1.363 . S
N208 C210 1.356 . S
N208 H220 0.984 . S
N208 H221 0.985 . S
N209 C211 1.356 . S
N209 H214 0.984 . S
N209 H215 0.985 . S
C210 C204 1.379 . S
C210 C207 1.363 . S
C210 N208 1.356 . S
C211 C205 1.363 . S
C211 C206 1.379 . S
C211 N209 1.356 . S
N212 C204 1.356 . S
N212 H218 0.984 . S
N212 H219 0.984 1_556 S
N213 C206 1.356 . S
N213 H216 0.984 . S
N213 H217 0.985 . S
H214 N209 0.984 . S
H215 N209 0.985 . S
H216 N213 0.984 . S
H217 N213 0.985 . S
H218 N212 0.984 . S
H219 N212 0.984 1_554 S
H220 N208 0.984 . S
H221 N208 0.985 . S
C222 C223 1.363 . S
C222 C228 1.379 . S
C222 N230 1.356 . S
C223 C222 1.363 . S
C223 C229 1.363 . S
C224 C225 1.363 . S
C224 C229 1.379 . S
C224 N231 1.356 . S
C225 C224 1.363 . S
C225 C228 1.363 . S
N226 C228 1.362 . S
N226 H238 0.983 1_554 S
N226 H239 0.980 1_554 S
N227 C229 1.356 . S
N227 H232 0.984 . S
N227 H233 0.985 . S
C228 C222 1.379 . S
C228 C225 1.363 . S
C228 N226 1.362 . S
C229 C223 1.363 . S
C229 C224 1.379 . S
C229 N227 1.356 . S
N230 C222 1.356 . S
N230 H236 0.984 . S
N230 H237 0.984 . S
N231 C224 1.356 . S
N231 H234 0.984 . S
N231 H235 0.985 . S
H232 N227 0.984 . S
H233 N227 0.985 . S
H234 N231 0.984 . S
H235 N231 0.985 . S
H236 N230 0.984 . S
H237 N230 0.984 . S
H238 N226 0.983 1_556 S
H239 N226 0.980 1_556 S
C240 C241 1.363 . S
C240 C246 1.379 1_556 S
C240 N248 1.356 . S
C241 C240 1.363 . S
C241 C247 1.363 . S
C242 C243 1.363 1_556 S
C242 C247 1.379 . S
C242 N249 1.356 1_556 S
C243 C242 1.363 1_554 S
C243 C246 1.363 . S
N244 C246 1.356 . S
N244 H256 0.984 . S
N244 H257 0.985 . S
N245 C247 1.356 . S
N245 H250 0.984 . S
N245 H251 0.985 . S
C246 C240 1.379 1_554 S
C246 C243 1.363 . S
C246 N244 1.356 . S
C247 C241 1.363 . S
C247 C242 1.379 . S
C247 N245 1.356 . S
N248 C240 1.356 . S
N248 H254 0.973 1_556 S
N248 H255 0.984 . S
N249 C242 1.356 1_554 S
N249 H252 0.984 . S
N249 H253 0.985 1_554 S
H250 N245 0.984 . S
H251 N245 0.985 . S
H252 N249 0.984 . S
H253 N249 0.985 1_556 S
H254 N248 0.973 1_554 S
H255 N248 0.984 . S
H256 N244 0.984 . S
H257 N244 0.985 . S
C258 C259 1.363 . S
C258 C264 1.379 . S
C258 N266 1.356 1_655 S
C259 C258 1.363 . S
C259 C265 1.363 . S
C260 C261 1.363 . S
C260 C265 1.379 . S
C260 N267 1.356 . S
C261 C260 1.363 . S
C261 C264 1.363 . S
N262 C264 1.356 . S
N262 H274 0.984 . S
N262 H275 0.985 . S
N263 C265 1.356 . S
N263 H268 0.984 . S
N263 H269 0.985 . S
C264 C258 1.379 . S
C264 C261 1.363 . S
C264 N262 1.356 . S
C265 C259 1.363 . S
C265 C260 1.379 . S
C265 N263 1.356 . S
N266 C258 1.356 1_455 S
N266 H272 0.984 . S
N266 H273 0.984 . S
N267 C260 1.356 . S
N267 H270 0.984 . S
N267 H271 0.985 . S
H268 N263 0.984 . S
H269 N263 0.985 . S
H270 N267 0.984 . S
H271 N267 0.985 . S
H272 N266 0.984 . S
H273 N266 0.984 . S
H274 N262 0.984 . S
H275 N262 0.985 . S
C276 C277 1.363 . S
C276 C282 1.379 . S
C276 N284 1.356 . S
C277 C276 1.363 . S
C277 C283 1.363 . S
C278 C279 1.363 . S
C278 C283 1.379 . S
C278 N285 1.356 . S
C279 C278 1.363 . S
C279 C282 1.363 . S
N280 C282 1.356 . S
N280 H292 0.984 . S
N280 H293 0.985 . S
N281 C283 1.356 . S
N281 H286 0.984 . S
N281 H287 0.985 . S
C282 C276 1.379 . S
C282 C279 1.363 . S
C282 N280 1.356 . S
C283 C277 1.363 . S
C283 C278 1.379 . S
C283 N281 1.356 . S
N284 C276 1.356 . S
N284 H290 0.984 . S
N284 H291 0.984 . S
N285 C278 1.356 . S
N285 H288 0.984 1_565 S
N285 H289 0.985 1_565 S
H286 N281 0.984 . S
H287 N281 0.985 . S
H288 N285 0.984 1_545 S
H289 N285 0.985 1_545 S
H290 N284 0.984 . S
H291 N284 0.984 . S
H292 N280 0.984 . S
H293 N280 0.985 . S
C294 C295 1.363 . S
C294 C300 1.379 . S
C294 N302 1.356 . S
C295 C294 1.363 . S
C295 C301 1.363 . S
C296 C297 1.363 . S
C296 C301 1.379 . S
C296 N303 1.356 . S
C297 C296 1.363 . S
C297 C300 1.363 . S
N298 C300 1.356 . S
N298 H310 0.984 . S
N298 H311 0.985 . S
N299 C301 1.356 . S
N299 H304 0.984 . S
N299 H305 0.985 . S
C300 C294 1.379 . S
C300 C297 1.363 . S
C300 N298 1.356 . S
C301 C295 1.363 . S
C301 C296 1.379 . S
C301 N299 1.356 . S
N302 C294 1.356 . S
N302 H308 0.984 . S
N302 H309 0.984 . S
N303 C296 1.356 . S
N303 H306 0.984 . S
N303 H307 0.985 . S
H304 N299 0.984 . S
H305 N299 0.985 . S
H306 N303 0.984 . S
H307 N303 0.985 . S
H308 N302 0.984 . S
H309 N302 0.984 . S
H310 N298 0.984 . S
H311 N298 0.985 . S
C312 C313 1.363 . S
C312 C318 1.379 . S
C312 N320 1.356 . S
C313 C312 1.363 . S
C313 C319 1.363 . S
C314 C315 1.363 . S
C314 C319 1.379 . S
C314 N321 1.356 . S
C315 C314 1.363 . S
C315 C318 1.363 . S
N316 C318 1.356 . S
N316 H328 0.984 . S
N316 H329 0.985 1_455 S
N317 C319 1.356 . S
N317 H322 0.984 . S
N317 H323 0.985 . S
C318 C312 1.379 . S
C318 C315 1.363 . S
C318 N316 1.356 . S
C319 C313 1.363 . S
C319 C314 1.379 . S
C319 N317 1.356 . S
N320 C312 1.356 . S
N320 H326 0.984 . S
N320 H327 0.984 . S
N321 C314 1.356 . S
N321 H324 0.984 . S
N321 H325 0.985 . S
H322 N317 0.984 . S
H323 N317 0.985 . S
H324 N321 0.984 . S
H325 N321 0.985 . S
H326 N320 0.984 . S
H327 N320 0.984 . S
H328 N316 0.984 . S
H329 N316 0.985 1_655 S
C330 C331 1.363 . S
C330 C336 1.379 . S
C330 N338 1.356 . S
C331 C330 1.363 . S
C331 C337 1.363 . S
C332 C333 1.363 . S
C332 C337 1.379 . S
C332 N339 1.356 . S
C333 C332 1.363 . S
C333 C336 1.363 . S
N334 C336 1.356 . S
N334 H346 0.984 . S
N334 H347 0.985 . S
N335 C337 1.356 . S
N335 H340 0.984 . S
N335 H341 0.985 . S
C336 C330 1.379 . S
C336 C333 1.363 . S
C336 N334 1.356 . S
C337 C331 1.363 . S
C337 C332 1.379 . S
C337 N335 1.356 . S
N338 C330 1.356 . S
N338 H344 0.984 . S
N338 H345 0.984 . S
N339 C332 1.356 . S
N339 H342 0.984 1_545 S
N339 H343 0.985 . S
H340 N335 0.984 . S
H341 N335 0.985 . S
H342 N339 0.984 1_565 S
H343 N339 0.985 . S
H344 N338 0.984 . S
H345 N338 0.984 . S
H346 N334 0.984 . S
H347 N334 0.985 . S
C348 C349 1.363 . S
C348 C354 1.379 . S
C348 N356 1.356 . S
C349 C348 1.363 . S
C349 C355 1.363 . S
C350 C351 1.363 . S
C350 C355 1.379 . S
C350 N357 1.356 . S
C351 C350 1.363 . S
C351 C354 1.363 . S
N352 C354 1.356 . S
N352 H364 0.984 . S
N352 H365 0.985 . S
N353 C355 1.356 . S
N353 H358 0.984 . S
N353 H359 0.985 . S
C354 C348 1.379 . S
C354 C351 1.363 . S
C354 N352 1.356 . S
C355 C349 1.363 . S
C355 C350 1.379 . S
C355 N353 1.356 . S
N356 C348 1.356 . S
N356 H362 0.984 . S
N356 H363 0.984 . S
N357 C350 1.356 . S
N357 H360 0.984 . S
N357 H361 0.985 . S
H358 N353 0.984 . S
H359 N353 0.985 . S
H360 N357 0.984 . S
H361 N357 0.985 . S
H362 N356 0.984 . S
H363 N356 0.984 . S
H364 N352 0.984 . S
H365 N352 0.985 . S
C366 C367 1.363 . S
C366 C372 1.379 1_554 S
C366 N374 1.356 . S
C367 C366 1.363 . S
C367 C373 1.363 . S
C368 C369 1.363 . S
C368 C373 1.379 1_556 S
C368 N375 1.356 . S
C369 C368 1.363 . S
C369 C372 1.363 . S
N370 C372 1.356 . S
N370 H382 0.984 . S
N370 H383 0.985 . S
N371 C373 1.356 . S
N371 H376 0.984 1_655 S
N371 H377 0.985 . S
C372 C366 1.379 1_556 S
C372 C369 1.363 . S
C372 N370 1.356 . S
C373 C367 1.363 . S
C373 C368 1.379 1_554 S
C373 N371 1.356 . S
N374 C366 1.356 . S
N374 H380 0.984 . S
N374 H381 0.984 . S
N375 C368 1.356 . S
N375 H378 0.984 . S
N375 H379 0.985 . S
H376 N371 0.984 1_455 S
H377 N371 0.985 . S
H378 N375 0.984 . S
H379 N375 0.985 . S
H380 N374 0.984 . S
H381 N374 0.984 . S
H382 N370 0.984 . S
H383 N370 0.985 . S
C384 C385 1.363 . S
C384 C390 1.379 . S
C384 N392 1.356 . S
C385 C384 1.363 . S
C385 C391 1.363 . S
C386 C387 1.363 . S
C386 C391 1.379 . S
C386 N393 1.356 . S
C387 C386 1.363 . S
C387 C390 1.363 . S
N388 C390 1.356 . S
N388 H400 0.984 . S
N388 H401 0.985 . S
N389 C391 1.356 1_545 S
N389 H394 0.984 . S
N389 H395 0.985 . S
C390 C384 1.379 . S
C390 C387 1.363 . S
C390 N388 1.356 . S
C391 C385 1.363 . S
C391 C386 1.379 . S
C391 N389 1.356 1_565 S
N392 C384 1.356 . S
N392 H398 0.984 . S
N392 H399 0.984 . S
N393 C386 1.356 . S
N393 H396 0.984 . S
N393 H397 0.985 . S
H394 N389 0.984 . S
H395 N389 0.985 . S
H396 N393 0.984 . S
H397 N393 0.985 . S
H398 N392 0.984 . S
H399 N392 0.984 . S
H400 N388 0.984 . S
H401 N388 0.985 . S
C402 C403 1.363 . S
C402 C408 1.379 . S
C402 N410 1.356 . S
C403 C402 1.363 . S
C403 C409 1.363 . S
C404 C405 1.363 . S
C404 C409 1.379 . S
C404 N411 1.356 . S
C405 C404 1.363 . S
C405 C408 1.363 . S
N406 C408 1.356 . S
N406 H418 0.984 . S
N406 H419 0.985 . S
N407 C409 1.356 . S
N407 H412 0.984 . S
N407 H413 0.985 . S
C408 C402 1.379 . S
C408 C405 1.363 . S
C408 N406 1.356 . S
C409 C403 1.363 . S
C409 C404 1.379 . S
C409 N407 1.356 . S
N410 C402 1.356 . S
N410 H416 0.984 . S
N410 H417 0.984 . S
N411 C404 1.356 . S
N411 H414 0.984 . S
N411 H415 0.985 . S
H412 N407 0.984 . S
H413 N407 0.985 . S
H414 N411 0.984 . S
H415 N411 0.985 . S
H416 N410 0.984 . S
H417 N410 0.984 . S
H418 N406 0.984 . S
H419 N406 0.985 . S
C420 C421 1.363 . S
C420 C426 1.379 . S
C420 N428 1.356 . S
C421 C420 1.363 . S
C421 C427 1.363 . S
C422 C423 1.363 . S
C422 C427 1.379 . S
C422 N429 1.356 . S
C423 C422 1.363 . S
C423 C426 1.363 . S
N424 C426 1.356 . S
N424 H436 0.984 . S
N424 H437 0.985 . S
N425 C427 1.356 . S
N425 H430 0.984 1_455 S
N425 H431 0.985 . S
C426 C420 1.379 . S
C426 C423 1.363 . S
C426 N424 1.356 . S
C427 C421 1.363 . S
C427 C422 1.379 . S
C427 N425 1.356 . S
N428 C420 1.356 . S
N428 H434 0.984 . S
N428 H435 0.984 1_455 S
N429 C422 1.356 . S
N429 H432 0.984 . S
N429 H433 0.985 . S
H430 N425 0.984 1_655 S
H431 N425 0.985 . S
H432 N429 0.984 . S
H433 N429 0.985 . S
H434 N428 0.984 . S
H435 N428 0.984 1_655 S
H436 N424 0.984 . S
H437 N424 0.985 . S
C438 C439 1.363 . S
C438 C444 1.379 . S
C438 N446 1.356 1_545 S
C439 C438 1.363 . S
C439 C445 1.363 . S
C440 C441 1.363 . S
C440 C445 1.379 . S
C440 N447 1.356 . S
C441 C440 1.363 . S
C441 C444 1.363 . S
N442 C444 1.356 . S
N442 H454 0.984 . S
N442 H455 0.985 . S
N443 C445 1.356 . S
N443 H448 0.984 . S
N443 H449 0.985 . S
C444 C438 1.379 . S
C444 C441 1.363 . S
C444 N442 1.356 . S
C445 C439 1.363 . S
C445 C440 1.379 . S
C445 N443 1.356 . S
N446 C438 1.356 1_565 S
N446 H452 0.984 . S
N446 H453 0.984 . S
N447 C440 1.356 . S
N447 H450 0.984 . S
N447 H451 0.985 . S
H448 N443 0.984 . S
H449 N443 0.985 . S
H450 N447 0.984 . S
H451 N447 0.985 . S
H452 N446 0.984 . S
H453 N446 0.984 . S
H454 N442 0.984 . S
H455 N442 0.985 . S
C133 C18 0.989 . S
C135 C52 0.990 . S
C151 C37 1.104 . S
C153 C73 1.105 . S
C169 C106 1.051 . S
C171 C51 1.044 . S
C187 C118 0.990 . S
C189 C74 0.989 . S
C205 C15 1.105 . S
C207 C103 1.104 . S
C223 C40 1.051 . S
C225 C117 1.044 . S
C241 C125 1.438 . S
C243 C10 1.461 . S
C259 C8 1.458 1_655 S
C261 C29 1.433 . S
C277 C65 1.454 . S
C279 C43 1.465 1_565 S
C295 C84 1.461 . S
C297 C59 1.438 . S
C313 C95 1.433 . S
C315 C76 1.458 1_455 S
C331 C131 1.454 . S
C333 C109 1.465 1_545 S
C349 C98 1.431 . S
C351 C120 1.425 . S
C367 C21 1.433 1_655 S
C369 C128 1.452 . S
C385 C30 1.452 1_565 S
C387 C7 1.424 . S
C403 C32 1.431 . S
C405 C54 1.425 . S
C421 C81 1.433 1_455 S
C423 C62 1.452 . S
C439 C96 1.452 1_545 S
C441 C87 1.424 . S
