# Generated by pormake.
# Topology vcc, (6)-cn, num edge types: 1
# Building blocks:
#     Node 0, Type 0, BuildingBlock: JUFBIX_clean_sbu_0, # of connection points: 6
#     Node 1, Type 0, BuildingBlock: JUFBIX_clean_sbu_0, # of connection points: 6
#     Node 2, Type 0, BuildingBlock: JUFBIX_clean_sbu_0, # of connection points: 6
#     Node 3, Type 0, BuildingBlock: JUFBIX_clean_sbu_0, # of connection points: 6
#     Node 4, Type 0, BuildingBlock: JUFBIX_clean_sbu_0, # of connection points: 6
#     Node 5, Type 0, BuildingBlock: JUFBIX_clean_sbu_0, # of connection points: 6
#     Node 6, Type 0, BuildingBlock: JUFBIX_clean_sbu_0, # of connection points: 6
#     Node 7, Type 0, BuildingBlock: JUFBIX_clean_sbu_0, # of connection points: 6
#     Node 8, Type 0, BuildingBlock: JUFBIX_clean_sbu_0, # of connection points: 6
#     Node 9, Type 0, BuildingBlock: JUFBIX_clean_sbu_0, # of connection points: 6
#     Node 10, Type 0, BuildingBlock: JUFBIX_clean_sbu_0, # of connection points: 6
#     Node 11, Type 0, BuildingBlock: JUFBIX_clean_sbu_0, # of connection points: 6
#     Node 12, Type 0, BuildingBlock: JUFBIX_clean_sbu_0, # of connection points: 6
#     Node 13, Type 0, BuildingBlock: JUFBIX_clean_sbu_0, # of connection points: 6
#     Node 14, Type 0, BuildingBlock: JUFBIX_clean_sbu_0, # of connection points: 6
#     Node 15, Type 0, BuildingBlock: JUFBIX_clean_sbu_0, # of connection points: 6
#     Node 16, Type 0, BuildingBlock: JUFBIX_clean_sbu_0, # of connection points: 6
#     Node 17, Type 0, BuildingBlock: JUFBIX_clean_sbu_0, # of connection points: 6
#     Node 18, Type 0, BuildingBlock: JUFBIX_clean_sbu_0, # of connection points: 6
#     Node 19, Type 0, BuildingBlock: JUFBIX_clean_sbu_0, # of connection points: 6
#     Node 20, Type 0, BuildingBlock: JUFBIX_clean_sbu_0, # of connection points: 6
#     Node 21, Type 0, BuildingBlock: JUFBIX_clean_sbu_0, # of connection points: 6
#     Node 22, Type 0, BuildingBlock: JUFBIX_clean_sbu_0, # of connection points: 6
#     Node 23, Type 0, BuildingBlock: JUFBIX_clean_sbu_0, # of connection points: 6
#     Node 24, Type 0, BuildingBlock: JUFBIX_clean_sbu_0, # of connection points: 6
#     Node 25, Type 0, BuildingBlock: JUFBIX_clean_sbu_0, # of connection points: 6
#     Node 26, Type 0, BuildingBlock: JUFBIX_clean_sbu_0, # of connection points: 6
#     Node 27, Type 0, BuildingBlock: JUFBIX_clean_sbu_0, # of connection points: 6
#     Node 28, Type 0, BuildingBlock: JUFBIX_clean_sbu_0, # of connection points: 6
#     Node 29, Type 0, BuildingBlock: JUFBIX_clean_sbu_0, # of connection points: 6
#     Node 30, Type 0, BuildingBlock: JUFBIX_clean_sbu_0, # of connection points: 6
#     Node 31, Type 0, BuildingBlock: JUFBIX_clean_sbu_0, # of connection points: 6
#     Edge 32, Type (0, 0), BuildingBlock: KIFKEQ_clean_linker_1, # of connection points: 2
#     Edge 33, Type (0, 0), BuildingBlock: KIFKEQ_clean_linker_1, # of connection points: 2
#     Edge 34, Type (0, 0), BuildingBlock: KIFKEQ_clean_linker_1, # of connection points: 2
#     Edge 35, Type (0, 0), BuildingBlock: KIFKEQ_clean_linker_1, # of connection points: 2
#     Edge 36, Type (0, 0), BuildingBlock: KIFKEQ_clean_linker_1, # of connection points: 2
#     Edge 37, Type (0, 0), BuildingBlock: KIFKEQ_clean_linker_1, # of connection points: 2
#     Edge 38, Type (0, 0), BuildingBlock: KIFKEQ_clean_linker_1, # of connection points: 2
#     Edge 39, Type (0, 0), BuildingBlock: KIFKEQ_clean_linker_1, # of connection points: 2
#     Edge 40, Type (0, 0), BuildingBlock: KIFKEQ_clean_linker_1, # of connection points: 2
#     Edge 41, Type (0, 0), BuildingBlock: KIFKEQ_clean_linker_1, # of connection points: 2
#     Edge 42, Type (0, 0), BuildingBlock: KIFKEQ_clean_linker_1, # of connection points: 2
#     Edge 43, Type (0, 0), BuildingBlock: KIFKEQ_clean_linker_1, # of connection points: 2
#     Edge 44, Type (0, 0), BuildingBlock: KIFKEQ_clean_linker_1, # of connection points: 2
#     Edge 45, Type (0, 0), BuildingBlock: KIFKEQ_clean_linker_1, # of connection points: 2
#     Edge 46, Type (0, 0), BuildingBlock: KIFKEQ_clean_linker_1, # of connection points: 2
#     Edge 47, Type (0, 0), BuildingBlock: KIFKEQ_clean_linker_1, # of connection points: 2
#     Edge 48, Type (0, 0), BuildingBlock: KIFKEQ_clean_linker_1, # of connection points: 2
#     Edge 49, Type (0, 0), BuildingBlock: KIFKEQ_clean_linker_1, # of connection points: 2
#     Edge 50, Type (0, 0), BuildingBlock: KIFKEQ_clean_linker_1, # of connection points: 2
#     Edge 51, Type (0, 0), BuildingBlock: KIFKEQ_clean_linker_1, # of connection points: 2
#     Edge 52, Type (0, 0), BuildingBlock: KIFKEQ_clean_linker_1, # of connection points: 2
#     Edge 53, Type (0, 0), BuildingBlock: KIFKEQ_clean_linker_1, # of connection points: 2
#     Edge 54, Type (0, 0), BuildingBlock: KIFKEQ_clean_linker_1, # of connection points: 2
#     Edge 55, Type (0, 0), BuildingBlock: KIFKEQ_clean_linker_1, # of connection points: 2
#     Edge 56, Type (0, 0), BuildingBlock: KIFKEQ_clean_linker_1, # of connection points: 2
#     Edge 57, Type (0, 0), BuildingBlock: KIFKEQ_clean_linker_1, # of connection points: 2
#     Edge 58, Type (0, 0), BuildingBlock: KIFKEQ_clean_linker_1, # of connection points: 2
#     Edge 59, Type (0, 0), BuildingBlock: KIFKEQ_clean_linker_1, # of connection points: 2
#     Edge 60, Type (0, 0), BuildingBlock: KIFKEQ_clean_linker_1, # of connection points: 2
#     Edge 61, Type (0, 0), BuildingBlock: KIFKEQ_clean_linker_1, # of connection points: 2
#     Edge 62, Type (0, 0), BuildingBlock: KIFKEQ_clean_linker_1, # of connection points: 2
#     Edge 63, Type (0, 0), BuildingBlock: KIFKEQ_clean_linker_1, # of connection points: 2
#     Edge 64, Type (0, 0), BuildingBlock: KIFKEQ_clean_linker_1, # of connection points: 2
#     Edge 65, Type (0, 0), BuildingBlock: KIFKEQ_clean_linker_1, # of connection points: 2
#     Edge 66, Type (0, 0), BuildingBlock: KIFKEQ_clean_linker_1, # of connection points: 2
#     Edge 67, Type (0, 0), BuildingBlock: KIFKEQ_clean_linker_1, # of connection points: 2
#     Edge 68, Type (0, 0), BuildingBlock: KIFKEQ_clean_linker_1, # of connection points: 2
#     Edge 69, Type (0, 0), BuildingBlock: KIFKEQ_clean_linker_1, # of connection points: 2
#     Edge 70, Type (0, 0), BuildingBlock: KIFKEQ_clean_linker_1, # of connection points: 2
#     Edge 71, Type (0, 0), BuildingBlock: KIFKEQ_clean_linker_1, # of connection points: 2
#     Edge 72, Type (0, 0), BuildingBlock: KIFKEQ_clean_linker_1, # of connection points: 2
#     Edge 73, Type (0, 0), BuildingBlock: KIFKEQ_clean_linker_1, # of connection points: 2
#     Edge 74, Type (0, 0), BuildingBlock: KIFKEQ_clean_linker_1, # of connection points: 2
#     Edge 75, Type (0, 0), BuildingBlock: KIFKEQ_clean_linker_1, # of connection points: 2
#     Edge 76, Type (0, 0), BuildingBlock: KIFKEQ_clean_linker_1, # of connection points: 2
#     Edge 77, Type (0, 0), BuildingBlock: KIFKEQ_clean_linker_1, # of connection points: 2
#     Edge 78, Type (0, 0), BuildingBlock: KIFKEQ_clean_linker_1, # of connection points: 2
#     Edge 79, Type (0, 0), BuildingBlock: KIFKEQ_clean_linker_1, # of connection points: 2
#     Edge 80, Type (0, 0), BuildingBlock: KIFKEQ_clean_linker_1, # of connection points: 2
#     Edge 81, Type (0, 0), BuildingBlock: KIFKEQ_clean_linker_1, # of connection points: 2
#     Edge 82, Type (0, 0), BuildingBlock: KIFKEQ_clean_linker_1, # of connection points: 2
#     Edge 83, Type (0, 0), BuildingBlock: KIFKEQ_clean_linker_1, # of connection points: 2
#     Edge 84, Type (0, 0), BuildingBlock: KIFKEQ_clean_linker_1, # of connection points: 2
#     Edge 85, Type (0, 0), BuildingBlock: KIFKEQ_clean_linker_1, # of connection points: 2
#     Edge 86, Type (0, 0), BuildingBlock: KIFKEQ_clean_linker_1, # of connection points: 2
#     Edge 87, Type (0, 0), BuildingBlock: KIFKEQ_clean_linker_1, # of connection points: 2
#     Edge 88, Type (0, 0), BuildingBlock: KIFKEQ_clean_linker_1, # of connection points: 2
#     Edge 89, Type (0, 0), BuildingBlock: KIFKEQ_clean_linker_1, # of connection points: 2
#     Edge 90, Type (0, 0), BuildingBlock: KIFKEQ_clean_linker_1, # of connection points: 2
#     Edge 91, Type (0, 0), BuildingBlock: KIFKEQ_clean_linker_1, # of connection points: 2
#     Edge 92, Type (0, 0), BuildingBlock: KIFKEQ_clean_linker_1, # of connection points: 2
#     Edge 93, Type (0, 0), BuildingBlock: KIFKEQ_clean_linker_1, # of connection points: 2
#     Edge 94, Type (0, 0), BuildingBlock: KIFKEQ_clean_linker_1, # of connection points: 2
#     Edge 95, Type (0, 0), BuildingBlock: KIFKEQ_clean_linker_1, # of connection points: 2
#     Edge 96, Type (0, 0), BuildingBlock: KIFKEQ_clean_linker_1, # of connection points: 2
#     Edge 97, Type (0, 0), BuildingBlock: KIFKEQ_clean_linker_1, # of connection points: 2
#     Edge 98, Type (0, 0), BuildingBlock: KIFKEQ_clean_linker_1, # of connection points: 2
#     Edge 99, Type (0, 0), BuildingBlock: KIFKEQ_clean_linker_1, # of connection points: 2
#     Edge 100, Type (0, 0), BuildingBlock: KIFKEQ_clean_linker_1, # of connection points: 2
#     Edge 101, Type (0, 0), BuildingBlock: KIFKEQ_clean_linker_1, # of connection points: 2
#     Edge 102, Type (0, 0), BuildingBlock: KIFKEQ_clean_linker_1, # of connection points: 2
#     Edge 103, Type (0, 0), BuildingBlock: KIFKEQ_clean_linker_1, # of connection points: 2
#     Edge 104, Type (0, 0), BuildingBlock: KIFKEQ_clean_linker_1, # of connection points: 2
#     Edge 105, Type (0, 0), BuildingBlock: KIFKEQ_clean_linker_1, # of connection points: 2
#     Edge 106, Type (0, 0), BuildingBlock: KIFKEQ_clean_linker_1, # of connection points: 2
#     Edge 107, Type (0, 0), BuildingBlock: KIFKEQ_clean_linker_1, # of connection points: 2
#     Edge 108, Type (0, 0), BuildingBlock: KIFKEQ_clean_linker_1, # of connection points: 2
#     Edge 109, Type (0, 0), BuildingBlock: KIFKEQ_clean_linker_1, # of connection points: 2
#     Edge 110, Type (0, 0), BuildingBlock: KIFKEQ_clean_linker_1, # of connection points: 2
#     Edge 111, Type (0, 0), BuildingBlock: KIFKEQ_clean_linker_1, # of connection points: 2
#     Edge 112, Type (0, 0), BuildingBlock: KIFKEQ_clean_linker_1, # of connection points: 2
#     Edge 113, Type (0, 0), BuildingBlock: KIFKEQ_clean_linker_1, # of connection points: 2
#     Edge 114, Type (0, 0), BuildingBlock: KIFKEQ_clean_linker_1, # of connection points: 2
#     Edge 115, Type (0, 0), BuildingBlock: KIFKEQ_clean_linker_1, # of connection points: 2
#     Edge 116, Type (0, 0), BuildingBlock: KIFKEQ_clean_linker_1, # of connection points: 2
#     Edge 117, Type (0, 0), BuildingBlock: KIFKEQ_clean_linker_1, # of connection points: 2
#     Edge 118, Type (0, 0), BuildingBlock: KIFKEQ_clean_linker_1, # of connection points: 2
#     Edge 119, Type (0, 0), BuildingBlock: KIFKEQ_clean_linker_1, # of connection points: 2
#     Edge 120, Type (0, 0), BuildingBlock: KIFKEQ_clean_linker_1, # of connection points: 2
#     Edge 121, Type (0, 0), BuildingBlock: KIFKEQ_clean_linker_1, # of connection points: 2
#     Edge 122, Type (0, 0), BuildingBlock: KIFKEQ_clean_linker_1, # of connection points: 2
#     Edge 123, Type (0, 0), BuildingBlock: KIFKEQ_clean_linker_1, # of connection points: 2
#     Edge 124, Type (0, 0), BuildingBlock: KIFKEQ_clean_linker_1, # of connection points: 2
#     Edge 125, Type (0, 0), BuildingBlock: KIFKEQ_clean_linker_1, # of connection points: 2
#     Edge 126, Type (0, 0), BuildingBlock: KIFKEQ_clean_linker_1, # of connection points: 2
#     Edge 127, Type (0, 0), BuildingBlock: KIFKEQ_clean_linker_1, # of connection points: 2
# Relax obj value: 0.307
# Max RMSD: 0.181
# Mean RMSD: 0.181
data_MOF--net-vcc--node1-JUFBIX_clean_sbu_0--edge1-KIFKEQ_clean_linker_1
_symmetry_space_group_name_H-M    P1
_symmetry_Int_Tables_number       1
_symmetry_cell_setting            triclinic
loop_
_symmetry_equiv_pos_as_xyz
'x, y, z'
_cell_length_a     64.426823
_cell_length_b     56.266769
_cell_length_c     35.603912
_cell_angle_alpha  90.034281
_cell_angle_beta   90.040704
_cell_angle_gamma 90.034529
loop_
_atom_site_label
_atom_site_type_symbol
_atom_site_fract_x
_atom_site_fract_y
_atom_site_fract_z
_atom_type_partial_charge
Co0 Co 0.34669 0.03079 0.14237 0.0
C1 C 0.34574 0.98141 0.13119 0.0
Co2 Co 0.31806 1.01898 0.11586 0.0
C3 C 0.37835 0.05829 0.1833 0.0
C4 C 0.3901 0.03013 0.14879 0.0
N5 N 0.37226 0.03983 0.16152 0.0
N6 N 0.39923 0.06054 0.18357 0.0
C7 C 0.40661 0.0428 0.1622 0.0
H8 H 0.36778 0.07041 0.19713 0.0
H9 H 0.39106 1.01534 0.12945 0.0
C10 C 0.3209 0.06864 0.12916 0.0
N11 N 0.29326 1.00932 0.0951 0.0
C12 C 0.29009 0.9965 0.06351 0.0
C13 C 0.27415 1.01319 0.10934 0.0
N14 N 0.26981 0.99199 0.05807 0.0
C15 C 0.25969 1.0025 0.08658 0.0
C16 C 0.31428 1.02195 0.19565 0.0
O17 O 0.33913 0.06263 0.13829 0.0
O18 O 0.30828 0.05248 0.11805 0.0
O19 O 0.30628 1.01428 0.16532 0.0
O20 O 0.33296 0.03007 0.19371 0.0
O21 O 0.32845 0.98576 0.1149 0.0
H22 H 0.27091 1.02332 0.13449 0.0
H23 H 0.30232 0.9907 1.04481 0.0
O24 O 0.355 0.99856 0.14703 0.0
O25 O 0.3592 0.03196 0.09081 0.0
O26 O 0.32937 1.02375 0.06546 0.0
C27 C 0.34849 0.02861 0.06102 0.0
H28 H 0.42285 0.03937 0.15659 0.0
H29 H 0.24299 1.00298 0.08995 0.0
Co30 Co 0.92464 0.27503 0.14841 0.0
C31 C 0.92542 0.32423 0.13607 0.0
Co32 Co 0.9526 0.28628 0.11996 0.0
C33 C 0.89408 0.24756 0.19104 0.0
C34 C 0.88143 0.27639 0.15899 0.0
N35 N 0.89956 0.26633 0.16947 0.0
N36 N 0.87326 0.24549 0.1934 0.0
C37 C 0.86529 0.26363 0.17361 0.0
H38 H 0.90498 0.23509 0.20315 0.0
H39 H 0.88 0.29147 0.14033 0.0
C40 C 0.94975 0.23673 0.13433 0.0
N41 N 0.97708 0.29546 0.09784 0.0
C42 C 0.98012 0.30871 0.0667 0.0
C43 C 0.99627 0.29057 0.11095 0.0
N44 N 1.00045 0.3125 0.06051 0.0
C45 C 0.01067 0.30108 0.08801 0.0
C46 C 0.95796 0.28411 0.19937 0.0
O47 O 0.93165 0.24302 0.14371 0.0
O48 O 0.96246 0.25273 0.12307 0.0
O49 O 0.9652 0.29198 0.16861 0.0
O50 O 0.93943 0.27554 0.19859 0.0
O51 O 0.94198 0.3195 0.11771 0.0
H52 H 0.99957 0.27994 0.13554 0.0
H53 H 0.96777 0.31536 1.04896 0.0
O54 O 0.91683 0.30743 0.15389 0.0
O55 O 0.911 0.27403 0.0977 0.0
O56 O 0.9407 0.28062 0.07067 0.0
C57 C 0.92139 0.27646 0.06732 0.0
H58 H 0.84891 0.26715 0.16972 0.0
H59 H 0.02739 0.3 0.09066 0.0
Co60 Co 0.34636 0.2702 0.22457 0.0
C61 C 0.34527 0.31983 0.23534 0.0
Co62 Co 0.31724 0.28257 0.24868 0.0
C63 C 0.37924 0.24377 0.1857 0.0
C64 C 0.38997 0.26996 0.2249 0.0
N65 N 0.37257 0.26125 0.20882 0.0
N66 N 0.40004 0.24104 0.18783 0.0
C67 C 0.4068 0.25756 0.21219 0.0
H68 H 0.36908 0.23278 0.16879 0.0
H69 H 0.39037 0.28405 0.24557 0.0
C70 C 0.32051 0.23249 0.23578 0.0
N71 N 0.29104 0.29179 0.26398 0.0
C72 C 0.28444 0.30905 0.28754 0.0
C73 C 0.27362 0.28346 0.24744 0.0
N74 N 0.26367 0.31203 0.2853 0.0
C75 C 0.25686 0.2959 0.26034 0.0
C76 C 0.31617 0.27907 0.16826 0.0
O77 O 0.3389 0.23837 0.22779 0.0
O78 O 0.30784 0.24876 0.24602 0.0
O79 O 0.3076 0.28677 0.19789 0.0
O80 O 0.33466 0.27069 0.17163 0.0
O81 O 0.32746 0.31591 0.25004 0.0
H82 H 0.27317 0.26964 0.22632 0.0
H83 H 0.29463 0.31961 0.30507 0.0
O84 O 0.35478 0.3024 0.22082 0.0
O85 O 0.3567 0.26925 0.27761 0.0
O86 O 0.32648 0.27856 0.30083 0.0
C87 C 0.34547 0.27322 0.3066 0.0
H88 H 0.42285 0.26057 0.21989 0.0
H89 H 0.2408 0.29311 0.25244 0.0
Co90 Co 0.92386 0.03098 0.21808 0.0
C91 C 0.92527 0.98211 0.23203 0.0
Co92 Co 0.95159 1.02093 0.24914 0.0
C93 C 0.8977 0.05325 0.16195 0.0
C94 C 0.88124 0.02981 0.19902 0.0
N95 N 0.90028 0.03867 0.19173 0.0
N96 N 0.87778 0.0536 0.15059 0.0
C97 C 0.86738 0.03894 0.17365 0.0
H98 H 0.91011 0.06318 0.14877 0.0
H99 H 0.87771 1.01733 0.22121 0.0
C100 C 0.9481 0.07017 0.2331 0.0
N101 N 0.97494 1.01289 0.27642 0.0
C102 C 0.99015 0.99729 0.26775 0.0
C103 C 0.98003 1.02134 0.31069 0.0
N104 N 1.00421 0.99546 0.29563 0.0
C105 C 0.99792 1.01054 0.32264 0.0
C106 C 0.95951 1.02186 0.17116 0.0
O107 O 0.93068 0.06316 0.221 0.0
O108 O 0.96052 0.05481 0.24723 0.0
O109 O 0.96677 1.0159 0.20302 0.0
O110 O 0.94049 0.0287 0.17012 0.0
O111 O 0.94186 0.98723 0.25017 0.0
H112 H 0.97143 0.03472 0.32596 0.0
H113 H 0.99094 0.98748 0.24163 0.0
O114 O 0.91627 0.99866 0.21438 0.0
O115 O 0.90802 0.03355 0.26681 0.0
O116 O 0.93695 1.02609 0.29582 0.0
C117 C 0.91773 0.03076 0.29791 0.0
H118 H 0.85093 0.0351 0.17204 0.0
H119 H 1.00615 1.01415 0.34855 0.0
Co120 Co 0.70062 0.03592 0.99816 0.0
C121 C 0.69596 0.98755 0.97733 0.0
Co122 Co 0.67307 0.02801 0.96499 0.0
C123 C 0.73912 0.05792 1.02083 0.0
C124 C 0.72846 0.03176 0.0601 0.0
N125 N 0.72379 0.04201 1.02692 0.0
N126 N 0.75291 0.05819 1.04928 0.0
C127 C 0.74629 0.04178 0.074 0.0
H128 H 0.7401 0.06919 0.99626 0.0
H129 H 0.71952 1.01782 0.07333 0.0
C130 C 0.67627 0.07637 0.98237 0.0
N131 N 0.64965 1.02242 0.93676 0.0
C132 C 0.6469 1.00809 0.90669 0.0
C133 C 0.63133 0.03363 0.94147 0.0
N134 N 0.62768 1.01041 0.8923 0.0
C135 C 0.61783 0.02636 0.914 0.0
C136 C 0.66561 0.02664 1.0448 0.0
O137 O 0.69234 0.06999 1.00094 0.0
O138 O 0.66682 0.06074 0.96346 0.0
O139 O 0.65633 1.02483 1.01301 0.0
O140 O 0.68503 0.03045 1.04388 0.0
O141 O 0.67886 0.99549 0.96517 0.0
H142 H 0.62808 0.04651 0.96325 0.0
H143 H 0.65878 0.99659 0.89524 0.0
O144 O 0.70824 1.00182 0.99442 0.0
O145 O 0.71681 0.0412 0.95279 0.0
O146 O 0.69042 0.03085 0.91805 0.0
C147 C 0.70972 0.03645 0.92024 0.0
H148 H 0.75416 0.03693 0.09977 0.0
H149 H 0.60193 0.03214 0.91033 0.0
Co150 Co 0.06923 0.76832 0.99572 0.0
C151 C 0.07167 0.81812 0.9821 0.0
Co152 Co 0.09755 0.78056 0.96875 0.0
C153 C 0.04065 0.74626 1.04799 0.0
C154 C 0.02546 0.76247 1.00091 0.0
N155 N 0.04434 0.75877 1.0163 0.0
N156 N 0.02028 0.74166 1.0522 0.0
C157 C 0.01067 0.75188 1.02288 0.0
H158 H 0.05257 0.74071 0.06756 0.0
H159 H 0.02257 0.77244 0.97548 0.0
C160 C 0.09685 0.73094 0.98036 0.0
N161 N 0.12304 0.78955 0.94931 0.0
C162 C 0.12903 0.80811 0.92773 0.0
C163 C 0.14092 0.77978 0.96172 0.0
N164 N 0.1499 0.81037 0.92727 0.0
C165 C 0.15738 0.79252 0.9483 0.0
C166 C 0.09981 0.77829 1.05027 0.0
O167 O 0.07963 0.73521 0.9969 0.0
O168 O 0.10589 0.74812 0.96418 0.0
O169 O 0.11028 0.78182 1.02025 0.0
O170 O 0.08067 0.77322 1.04617 0.0
O171 O 0.08997 0.81257 0.97278 0.0
H172 H 0.14196 0.76493 0.9809 0.0
H173 H 0.1184 0.82032 0.91423 0.0
O174 O 0.05938 0.8017 0.99335 0.0
O175 O 0.05736 0.76343 0.94621 0.0
O176 O 0.08357 0.77978 0.91745 0.0
C177 C 0.06498 0.77138 0.9158 0.0
H178 H 0.99404 0.7523 1.01847 0.0
H179 H 0.17365 0.7891 0.95374 0.0
Co180 Co 0.70052 0.76996 0.86867 0.0
C181 C 0.6966 0.81993 0.88168 0.0
Co182 Co 0.67136 0.78182 0.8933 0.0
C183 C 0.73334 0.74477 0.82787 0.0
C184 C 0.74419 0.76938 0.86946 0.0
N185 N 0.72674 0.76128 0.85273 0.0
N186 N 0.75414 0.74197 0.82952 0.0
C187 C 0.76097 0.75749 0.85542 0.0
H188 H 0.72315 0.73465 0.80969 0.0
H189 H 0.74465 0.78274 0.8913 0.0
C190 C 0.67325 0.73214 0.88238 0.0
N191 N 0.6451 0.79013 0.90958 0.0
C192 C 0.63826 0.80748 0.93275 0.0
C193 C 0.62775 0.78093 0.89396 0.0
N194 N 0.6174 0.80967 0.93113 0.0
C195 C 0.61078 0.79292 0.90702 0.0
C196 C 0.67182 0.77892 0.81127 0.0
O197 O 0.6909 0.73648 0.86737 0.0
O198 O 0.66351 0.74935 0.89707 0.0
O199 O 0.6607 0.78266 0.84047 0.0
O200 O 0.6909 0.77384 0.8167 0.0
O201 O 0.6783 0.81388 0.89008 0.0
H202 H 0.62748 0.7668 0.87336 0.0
H203 H 0.64833 0.81878 0.94933 0.0
O204 O 0.70938 0.80384 0.87119 0.0
O205 O 0.71051 0.76594 0.91937 0.0
O206 O 0.68333 0.78152 0.946 0.0
C207 C 0.70196 0.77354 0.94911 0.0
H208 H 0.77706 0.7603 0.86307 0.0
H209 H 0.59474 0.78951 0.89968 0.0
Co210 Co 0.06759 0.0339 0.86606 0.0
C211 C 0.07047 0.98416 0.88337 0.0
Co212 Co 0.0958 1.02232 0.89436 0.0
C213 C 0.03731 0.06047 0.82148 0.0
C214 C 0.02442 0.03222 0.85451 0.0
N215 N 0.04263 0.04207 0.84396 0.0
N216 N 0.0165 0.0625 0.81857 0.0
C217 C 1.00839 0.04473 0.83899 0.0
H218 H 0.04829 0.07273 0.80911 0.0
H219 H 0.02278 1.01765 0.87407 0.0
C220 C 0.09497 0.07166 0.88005 0.0
N221 N 0.11975 1.01447 0.91953 0.0
C222 C 0.13464 0.99837 0.91133 0.0
C223 C 0.12513 1.02351 0.95325 0.0
N224 N 0.14873 0.9968 0.93921 0.0
C225 C 0.14285 1.01259 0.9655 0.0
C226 C 0.09951 1.0228 0.81365 0.0
O227 O 0.07752 0.06732 0.86424 0.0
O228 O 0.10421 0.05459 0.89612 0.0
O229 O 0.10983 1.01924 0.84409 0.0
O230 O 0.08038 0.02838 0.81704 0.0
O231 O 0.08846 0.99026 0.89363 0.0
H232 H 0.11658 0.03708 0.96819 0.0
H233 H 0.13487 0.98768 0.88605 0.0
O234 O 0.05852 1.00001 0.86941 0.0
O235 O 0.05424 0.03958 0.91385 0.0
O236 O 0.08058 1.02496 0.9439 0.0
C237 C 0.06195 0.03284 0.9448 0.0
H238 H 0.99198 0.04135 0.84281 0.0
H239 H 0.15099 1.01609 0.99154 0.0
Co240 Co 0.34396 0.52907 0.64338 0.0
C241 C 0.34186 0.47987 0.63087 0.0
Co242 Co 0.31577 0.51842 0.61449 0.0
C243 C 0.38346 0.5516 0.66073 0.0
C244 C 0.3724 0.52814 0.70377 0.0
N245 N 0.36783 0.53651 0.66925 0.0
N246 N 0.39725 0.55321 0.68912 0.0
C247 C 0.39039 0.53847 0.71612 0.0
H248 H 0.38445 0.56158 0.63481 0.0
H249 H 0.36313 0.51541 0.71915 0.0
C250 C 0.32014 0.56813 0.62964 0.0
N251 N 0.29093 0.51069 0.59162 0.0
C252 C 0.28555 0.49191 0.56996 0.0
C253 C 0.27279 0.52131 0.60058 0.0
N254 N 0.26478 0.49042 0.56592 0.0
C255 C 0.25674 0.50889 0.58483 0.0
C256 C 0.30932 0.52029 0.69289 0.0
O257 O 0.33794 0.5613 0.6398 0.0
O258 O 0.30732 0.55256 0.61744 0.0
O259 O 0.30191 0.51304 0.66195 0.0
O260 O 0.32795 0.52824 0.69226 0.0
O261 O 0.32524 0.48482 0.61278 0.0
H262 H 0.27116 0.53632 0.61931 0.0
H263 H 0.29643 0.47898 0.55906 0.0
O264 O 0.35106 0.49661 0.64787 0.0
O265 O 0.35875 0.53032 0.59364 0.0
O266 O 0.32898 0.52359 0.56595 0.0
C267 C 0.3484 0.52772 0.56298 0.0
H268 H 0.39803 0.53527 0.74274 0.0
H269 H 0.24035 0.51272 0.58771 0.0
Co270 Co 0.92401 0.77804 0.64364 0.0
C271 C 0.92786 0.82672 0.62932 0.0
Co272 Co 0.9523 0.7863 0.61354 0.0
C273 C 0.89188 0.75338 0.68682 0.0
C274 C 0.88124 0.78396 0.65651 0.0
N275 N 0.89863 0.77195 0.66602 0.0
N276 N 0.871 0.75334 0.68971 0.0
C277 C 0.8643 0.77256 0.67099 0.0
H278 H 0.90183 0.73945 0.69755 0.0
H279 H 0.88075 0.79926 0.63817 0.0
C280 C 0.94634 0.73743 0.63039 0.0
N281 N 0.9768 0.7927 0.58955 0.0
C282 C 0.97999 0.80611 0.55868 0.0
C283 C 0.99554 0.7836 0.5984 0.0
N284 N 0.99998 0.80554 0.54801 0.0
C285 C 0.00985 0.79143 0.57268 0.0
C286 C 0.95878 0.78523 0.69294 0.0
O287 O 0.92897 0.7455 0.64074 0.0
O288 O 0.95976 0.75199 0.61723 0.0
O289 O 0.96618 0.79127 0.66121 0.0
O290 O 0.93957 0.77876 0.69353 0.0
O291 O 0.94397 0.82048 0.61074 0.0
H292 H 0.99849 0.77165 0.62158 0.0
H293 H 0.96786 0.8155 0.54375 0.0
O294 O 0.91833 0.81087 0.64758 0.0
O295 O 0.90963 0.77694 0.59296 0.0
O296 O 0.93936 0.78122 0.56507 0.0
C297 C 0.91989 0.77829 0.56218 0.0
H298 H 0.8482 0.77758 0.66729 0.0
H299 H 0.02615 0.78681 0.57164 0.0
Co300 Co 0.34601 0.77101 0.71968 0.0
C301 C 0.34553 0.82023 0.73191 0.0
Co302 Co 0.31771 0.78289 0.74728 0.0
C303 C 0.37373 0.74714 0.66865 0.0
C304 C 0.38972 0.76713 0.71111 0.0
N305 N 0.37059 0.76171 0.69825 0.0
N306 N 0.39406 0.74303 0.66322 0.0
C307 C 0.4042 0.75561 0.68957 0.0
H308 H 0.36144 0.7395 0.65177 0.0
H309 H 0.39293 0.77867 0.73472 0.0
C310 C 0.32052 0.73306 0.73321 0.0
N311 N 0.29234 0.79197 0.76695 0.0
C312 C 0.28661 0.81014 0.78959 0.0
C313 C 0.27431 0.78269 0.75419 0.0
N314 N 0.26576 0.81265 0.79037 0.0
C315 C 0.25804 0.79535 0.76843 0.0
C316 C 0.31345 0.78057 0.66773 0.0
O317 O 0.33847 0.73919 0.72291 0.0
O318 O 0.3082 0.74911 0.74539 0.0
O319 O 0.3056 0.78766 0.69837 0.0
O320 O 0.33203 0.77249 0.66906 0.0
O321 O 0.32809 0.81612 0.74793 0.0
H322 H 0.27305 0.76826 0.73424 0.0
H323 H 0.2974 0.82183 0.80383 0.0
O324 O 0.35469 0.80304 0.71596 0.0
O325 O 0.35892 0.76925 0.77067 0.0
O326 O 0.3295 0.77836 0.79749 0.0
C327 C 0.34869 0.77307 0.80093 0.0
H328 H 0.42091 0.75662 0.69252 0.0
H329 H 0.24172 0.79222 0.76305 0.0
Co330 Co 0.92358 0.5262 0.71827 0.0
C331 C 0.92943 0.47839 0.73665 0.0
Co332 Co 0.95222 0.52041 0.74948 0.0
C333 C 0.88194 0.54234 0.7035 0.0
C334 C 0.89274 0.51675 0.66334 0.0
N335 N 0.89878 0.52959 0.69342 0.0
N336 N 0.86556 0.53747 0.6813 0.0
C337 C 0.87226 0.52148 0.65594 0.0
H338 H 0.88139 0.55402 0.72766 0.0
H339 H 0.90236 0.50396 0.64879 0.0
C340 C 0.9443 0.56829 0.72653 0.0
N341 N 0.97777 0.51629 0.77248 0.0
C342 C 0.98548 0.49712 0.79067 0.0
C343 C 0.99447 0.53021 0.76572 0.0
N344 N 1.00623 0.49861 0.79469 0.0
C345 C 0.01193 0.51937 0.77931 0.0
C346 C 0.95861 0.51912 0.67018 0.0
O347 O 0.92737 0.55891 0.71641 0.0
O348 O 0.95759 0.55525 0.74351 0.0
O349 O 0.96638 0.51533 0.70238 0.0
O350 O 0.93914 0.52388 0.669 0.0
O351 O 0.94563 0.48578 0.75391 0.0
H352 H 0.99438 0.54636 0.74933 0.0
H353 H 0.97641 0.48171 0.79851 0.0
O354 O 0.91883 0.49332 0.7185 0.0
O355 O 0.90907 0.52879 0.76868 0.0
O356 O 0.93885 0.52549 0.79762 0.0
C357 C 0.91922 0.528 0.79981 0.0
H358 H 0.86286 0.51353 0.63405 0.0
H359 H 0.02774 0.5257 0.77672 0.0
Co360 Co 0.69934 0.53573 0.49609 0.0
C361 C 0.69613 0.48632 0.48056 0.0
Co362 Co 0.67162 0.52495 0.46621 0.0
C363 C 0.72657 0.55593 0.55279 0.0
C364 C 0.7429 0.54097 0.50598 0.0
N365 N 0.72365 0.54435 0.51994 0.0
N366 N 0.74684 0.56032 0.55917 0.0
C367 C 0.75713 0.55088 0.52988 0.0
H368 H 0.71416 0.56101 0.57163 0.0
H369 H 0.74644 0.53166 0.48019 0.0
C370 C 0.67282 0.57397 0.47969 0.0
N371 N 0.64762 0.51694 0.44151 0.0
C372 C 0.64493 0.50232 0.41182 0.0
C373 C 0.62867 0.52602 0.44877 0.0
N374 N 0.62505 0.50219 0.40033 0.0
C375 C 0.61475 0.51703 0.4233 0.0
C376 C 0.66683 0.52576 0.54674 0.0
O377 O 0.68918 0.56897 0.49844 0.0
O378 O 0.66414 0.55738 0.46146 0.0
O379 O 0.65678 0.52345 0.51582 0.0
O380 O 0.68623 0.52984 0.54434 0.0
O381 O 0.67825 0.49282 0.47021 0.0
H382 H 0.62531 0.53877 0.4707 0.0
H383 H 0.6573 0.49246 0.39841 0.0
O384 O 0.70878 0.50208 0.49289 0.0
O385 O 0.7129 0.5417 0.44842 0.0
O386 O 0.68729 0.526 0.41735 0.0
C387 C 0.70584 0.53426 0.41729 0.0
H388 H 0.77384 0.55031 0.52686 0.0
H389 H 0.59838 0.52122 0.42138 0.0
Co390 Co 0.06741 0.26944 0.50148 0.0
C391 C 0.07031 0.31907 0.4841 0.0
Co392 Co 0.09597 0.281 0.47423 0.0
C393 C 0.03544 0.24255 0.54153 0.0
C394 C 0.02378 0.26965 0.50486 0.0
N395 N 0.04155 0.26064 0.51912 0.0
N396 N 0.01463 0.23977 0.54072 0.0
C397 C 1.00728 0.25684 0.51798 0.0
H398 H 0.04598 0.2311 0.55678 0.0
H399 H 0.02291 0.28396 0.48465 0.0
C400 C 0.09513 0.23167 0.48843 0.0
N401 N 0.12187 0.28946 0.45628 0.0
C402 C 0.12816 0.30672 0.43243 0.0
C403 C 0.13953 0.28093 0.47163 0.0
N404 N 0.14898 0.30948 0.43337 0.0
C405 C 0.15614 0.29319 0.45771 0.0
C406 C 0.0967 0.28001 0.55674 0.0
O407 O 0.07752 0.23596 0.50366 0.0
O408 O 0.10443 0.24875 0.47256 0.0
O409 O 0.10733 0.28365 0.52684 0.0
O410 O 0.07769 0.27432 0.55243 0.0
O411 O 0.08843 0.31294 0.4748 0.0
H412 H 0.14026 0.2672 0.49284 0.0
H413 H 0.11771 0.31767 0.41605 0.0
O414 O 0.05817 0.30327 0.4978 0.0
O415 O 0.0565 0.26452 0.45179 0.0
O416 O 0.08324 0.27876 0.42205 0.0
C417 C 0.06441 0.27112 0.4209 0.0
H418 H 0.99107 0.25976 0.51135 0.0
H419 H 0.17231 0.2904 0.46481 0.0
Co420 Co 0.70271 0.26846 0.36847 0.0
C421 C 0.69642 0.31688 0.38977 0.0
Co422 Co 0.67454 0.27563 0.40021 0.0
C423 C 0.73473 0.2446 0.3244 0.0
C424 C 0.74535 0.27544 0.35415 0.0
N425 N 0.72801 0.2631 0.34541 0.0
N426 N 0.75554 0.24498 0.32054 0.0
C427 C 0.76225 0.26434 0.33892 0.0
H428 H 0.72484 0.23047 0.3141 0.0
H429 H 0.74597 0.29066 0.37266 0.0
C430 C 0.67888 0.22729 0.38277 0.0
N431 N 0.64999 0.2805 0.42516 0.0
C432 C 0.64608 0.29447 0.45518 0.0
C433 C 0.63193 0.26924 0.41785 0.0
N434 N 0.62638 0.29198 0.46698 0.0
C435 C 0.61739 0.2762 0.44373 0.0
C436 C 0.66965 0.27688 0.31848 0.0
O437 O 0.6951 0.23404 0.36494 0.0
O438 O 0.66893 0.2427 0.40121 0.0
O439 O 0.6598 0.27827 0.34987 0.0
O440 O 0.68921 0.27355 0.32026 0.0
O441 O 0.67936 0.3083 0.40082 0.0
H442 H 0.6296 0.25652 0.39544 0.0
H443 H 0.65748 0.30582 0.4685 0.0
O444 O 0.70921 0.30305 0.37317 0.0
O445 O 0.71695 0.26343 0.41594 0.0
O446 O 0.69011 0.27337 0.44935 0.0
C447 C 0.70945 0.26799 0.44812 0.0
H448 H 0.77833 0.2696 0.34204 0.0
H449 H 0.60143 0.27026 0.44539 0.0
Co450 Co 0.06926 0.53398 0.36724 0.0
C451 C 0.07253 0.48455 0.38196 0.0
Co452 Co 0.09726 0.52322 0.3969 0.0
C453 C 0.03025 0.55759 0.35113 0.0
C454 C 0.04023 0.53458 0.30668 0.0
N455 N 0.04551 0.54232 0.34128 0.0
N456 N 0.01604 0.55994 0.32361 0.0
C457 C 0.02222 0.54549 0.2957 0.0
H458 H 0.02951 0.56674 0.37785 0.0
H459 H 0.04873 0.52155 0.29052 0.0
C460 C 0.09539 0.57255 0.38454 0.0
N461 N 0.12183 0.51512 0.42062 0.0
C462 C 0.12728 0.49536 0.43991 0.0
C463 C 0.13988 0.52668 0.41426 0.0
N464 N 0.14799 0.49427 0.44503 0.0
C465 C 0.15592 0.51393 0.42925 0.0
C466 C 0.10243 0.52448 0.31691 0.0
O467 O 0.07896 0.5674 0.36608 0.0
O468 O 0.10448 0.55593 0.40199 0.0
O469 O 0.11239 0.52179 0.34769 0.0
O470 O 0.08318 0.52887 0.31953 0.0
O471 O 0.09045 0.49088 0.39253 0.0
H472 H 0.14149 0.54266 0.39765 0.0
H473 H 0.11656 0.48146 0.44802 0.0
O474 O 0.0601 0.5004 0.36938 0.0
O475 O 0.055 0.53891 0.41444 0.0
O476 O 0.08127 0.52422 0.44565 0.0
C477 C 0.06241 0.53181 0.44564 0.0
H478 H 0.01379 0.54229 0.26986 0.0
H479 H 0.17228 0.51828 0.42768 0.0
Co480 Co 0.84758 0.0313 0.64548 0.0
C481 C 0.84514 0.98218 0.63066 0.0
Co482 Co 0.81923 1.02125 0.61627 0.0
C483 C 0.87878 0.05751 0.68868 0.0
C484 C 0.89042 0.02684 0.65981 0.0
N485 N 0.87266 0.0384 0.66838 0.0
N486 N 0.89962 0.05827 0.69218 0.0
C487 C 0.90695 0.03899 0.67439 0.0
H488 H 0.86842 0.07129 0.69858 0.0
H489 H 0.89148 1.01135 0.64192 0.0
C490 C 0.82317 0.07036 0.6346 0.0
N491 N 0.79505 1.01443 0.59093 0.0
C492 C 0.78086 0.99704 0.5961 0.0
C493 C 0.78841 0.02658 0.56054 0.0
N494 N 0.76597 0.99777 0.56952 0.0
C495 C 0.77063 1.01627 0.5472 0.0
C496 C 0.81324 1.02215 0.69511 0.0
O497 O 0.84114 0.06363 0.64399 0.0
O498 O 0.81067 0.05503 0.62069 0.0
O499 O 0.8054 1.01567 0.66383 0.0
O500 O 0.83223 0.02936 0.69482 0.0
O501 O 0.82845 0.98751 0.61305 0.0
H502 H 0.79612 0.04191 0.54866 0.0
H503 H 0.7816 0.98397 0.61835 0.0
O504 O 0.85444 0.9986 0.6482 0.0
O505 O 0.86199 0.03366 0.59552 0.0
O506 O 0.83248 0.02691 0.56814 0.0
C507 C 0.85172 0.03127 0.56498 0.0
H508 H 0.9232 0.0345 0.67121 0.0
H509 H 0.76163 1.02201 0.52316 0.0
Co510 Co 0.42122 0.27636 0.65276 0.0
C511 C 0.42429 0.32457 0.63495 0.0
Co512 Co 0.44852 0.28401 0.61893 0.0
C513 C 0.39551 0.25571 0.71078 0.0
C514 C 0.37989 0.28251 0.67855 0.0
N515 N 0.39809 0.2708 0.68166 0.0
N516 N 0.37655 0.25802 0.72618 0.0
C517 C 0.36666 0.27475 0.70606 0.0
H518 H 0.40729 0.24355 0.72076 0.0
H519 H 0.3765 0.29593 0.6577 0.0
C520 C 0.44403 0.23574 0.6402 0.0
N521 N 0.47143 0.29015 0.58954 0.0
C522 C 0.48719 0.30541 0.59623 0.0
C523 C 0.47555 0.28069 0.55551 0.0
N524 N 0.50071 0.30606 0.56744 0.0
C525 C 0.49348 0.29055 0.54179 0.0
C526 C 0.4582 0.28493 0.69656 0.0
O527 O 0.42701 0.24383 0.65251 0.0
O528 O 0.45624 0.24988 0.62272 0.0
O529 O 0.46504 0.28951 0.66383 0.0
O530 O 0.43893 0.27931 0.69924 0.0
O531 O 0.44018 0.31806 0.61605 0.0
H532 H 0.46624 0.2673 0.54166 0.0
H533 H 0.48876 0.31584 0.62163 0.0
O534 O 0.41501 0.30906 0.65432 0.0
O535 O 0.40405 0.27311 0.60524 0.0
O536 O 0.43258 0.27835 0.5738 0.0
C537 C 0.41314 0.27471 0.57327 0.0
H538 H 0.35085 0.2806 0.71065 0.0
H539 H 0.5011 0.28599 0.51566 0.0
Co540 Co 0.84858 0.2737 0.72171 0.0
C541 C 0.84719 0.32307 0.73363 0.0
Co542 Co 0.82067 0.28506 0.75114 0.0
C543 C 0.87843 0.24605 0.67777 0.0
C544 C 0.89131 0.27637 0.70591 0.0
N545 N 0.87314 0.26539 0.69822 0.0
N546 N 0.89918 0.24457 0.67335 0.0
C547 C 0.90728 0.26363 0.69068 0.0
H548 H 0.86752 0.2327 0.6682 0.0
H549 H 0.89301 0.29197 0.72342 0.0
C550 C 0.8238 0.23548 0.73722 0.0
N551 N 0.79694 0.2935 0.77707 0.0
C552 C 0.78168 0.30888 0.7677 0.0
C553 C 0.79164 0.28529 0.81138 0.0
N554 N 0.76747 0.31088 0.7953 0.0
C555 C 0.77366 0.29607 0.82272 0.0
C556 C 0.8137 0.28228 0.67269 0.0
O557 O 0.8417 0.24158 0.72634 0.0
O558 O 0.81146 0.25149 0.74956 0.0
O559 O 0.80634 0.2897 0.70378 0.0
O560 O 0.83253 0.27458 0.67286 0.0
O561 O 0.83055 0.31846 0.75183 0.0
H562 H 0.80013 0.27204 0.8271 0.0
H563 H 0.78095 0.31839 0.74131 0.0
O564 O 0.85599 0.30615 0.71646 0.0
O565 O 0.8637 0.2724 0.77093 0.0
O566 O 0.83465 0.28029 0.79898 0.0
C567 C 0.85385 0.27562 0.80165 0.0
H568 H 0.92368 0.26767 0.69283 0.0
H569 H 0.76528 0.29263 0.84851 0.0
Co570 Co 0.42287 0.02765 0.7151 0.0
C571 C 0.42445 0.97868 0.72939 0.0
Co572 Co 0.45039 1.01749 0.7469 0.0
C573 C 0.39742 0.04943 0.6575 0.0
C574 C 0.3806 1.02567 0.69352 0.0
N575 N 0.39961 0.03499 0.68755 0.0
N576 N 0.3778 0.04911 0.64451 0.0
C577 C 0.36717 0.03427 0.66696 0.0
H578 H 0.40991 0.05967 0.6452 0.0
H579 H 0.3768 1.01323 0.71562 0.0
C580 C 0.4467 0.0668 0.73094 0.0
N581 N 0.47343 1.00967 0.77526 0.0
C582 C 0.48913 0.99469 0.76677 0.0
C583 C 0.47779 1.01769 0.81012 0.0
N584 N 0.50284 0.99284 0.79522 0.0
C585 C 0.49577 1.00727 0.8225 0.0
C586 C 0.45928 1.01868 0.66941 0.0
O587 O 0.42953 0.05986 0.71771 0.0
O588 O 0.45888 0.05146 0.74584 0.0
O589 O 0.4663 1.01293 0.70153 0.0
O590 O 0.44016 1.02515 0.66773 0.0
O591 O 0.44121 0.98373 0.74699 0.0
H592 H 0.4687 0.0306 0.82544 0.0
H593 H 0.49059 0.98541 0.74026 0.0
O594 O 0.41537 0.99528 0.71196 0.0
O595 O 0.40641 0.03047 0.76313 0.0
O596 O 0.43491 1.02221 0.79302 0.0
C597 C 0.41572 0.02723 0.79453 0.0
H598 H 0.35083 0.03006 0.66425 0.0
H599 H 0.50358 1.01085 0.84884 0.0
Co600 Co 0.20135 0.03438 0.49831 0.0
C601 C 0.19839 0.98557 0.47811 0.0
Co602 Co 0.17377 1.02475 0.46634 0.0
C603 C 0.2396 0.05789 0.51883 0.0
C604 C 0.22951 0.03278 0.56022 0.0
N605 N 0.2245 0.04193 0.52639 0.0
N606 N 0.25355 0.05926 0.54695 0.0
C607 C 0.24728 0.0435 0.573 0.0
H608 H 0.24038 0.06831 0.49332 0.0
H609 H 0.22092 1.01899 0.57459 0.0
C610 C 0.17477 0.07336 0.48355 0.0
N611 N 0.15036 1.01759 0.43903 0.0
C612 C 0.14816 1.00415 0.40781 0.0
C613 C 0.13119 1.02596 0.44659 0.0
N614 N 0.12836 1.00411 0.39573 0.0
C615 C 0.11764 1.01775 0.41988 0.0
C616 C 0.16714 1.02339 0.54638 0.0
O617 O 0.19177 0.06816 0.50034 0.0
O618 O 0.16572 0.05699 0.46549 0.0
O619 O 0.15772 1.02051 0.51493 0.0
O620 O 0.18629 0.0286 0.54472 0.0
O621 O 0.18101 0.99272 0.46612 0.0
H622 H 0.12736 0.0375 0.46988 0.0
H623 H 0.16076 0.99489 0.39405 0.0
O624 O 0.21023 1.00045 0.49503 0.0
O625 O 0.217 0.04 0.45264 0.0
O626 O 0.19067 0.02867 0.41858 0.0
C627 C 0.20986 0.03494 0.42029 0.0
H628 H 0.25544 0.03941 0.59879 0.0
H629 H 0.10118 1.02147 0.41815 0.0
Co630 Co 0.56744 0.77045 0.4998 0.0
C631 C 0.5729 0.81905 0.48117 0.0
Co632 Co 0.59466 0.77804 0.46616 0.0
C633 C 0.53009 0.74767 0.52526 0.0
C634 C 0.54 0.77581 0.56177 0.0
N635 N 0.54474 0.76461 0.5294 0.0
N636 N 0.51667 0.74766 0.5542 0.0
C637 C 0.52279 0.76532 0.57721 0.0
H638 H 0.52949 0.73533 0.50194 0.0
H639 H 0.54864 0.79053 0.57356 0.0
C640 C 0.59096 0.72968 0.48227 0.0
N641 N 0.61772 0.78355 0.43696 0.0
C642 C 0.62071 0.7997 0.4094 0.0
C643 C 0.63555 0.77102 0.43865 0.0
N644 N 0.63955 0.79725 0.39359 0.0
C645 C 0.64895 0.77934 0.41185 0.0
C646 C 0.60314 0.77863 0.54534 0.0
O647 O 0.57549 0.7363 0.50219 0.0
O648 O 0.60013 0.74519 0.46276 0.0
O649 O 0.61222 0.77992 0.51332 0.0
O650 O 0.5836 0.77576 0.54491 0.0
O651 O 0.58978 0.81076 0.46865 0.0
H652 H 0.63863 0.75674 0.4582 0.0
H653 H 0.60934 0.81283 0.40101 0.0
O654 O 0.56004 0.80469 0.49654 0.0
O655 O 0.55066 0.76518 0.45543 0.0
O656 O 0.57644 0.77634 0.41994 0.0
C657 C 0.55726 0.7703 0.42276 0.0
H658 H 0.51512 0.77047 0.60301 0.0
H659 H 0.66459 0.77313 0.4066 0.0
Co660 Co 0.2019 0.76851 0.36606 0.0
C661 C 0.19825 0.81796 0.382 0.0
Co662 Co 0.1742 0.77877 0.39672 0.0
C663 C 0.23133 0.74182 0.3203 0.0
C664 C 0.24477 0.77072 0.35123 0.0
N665 N 0.2264 0.76053 0.34241 0.0
N666 N 0.25205 0.73991 0.31596 0.0
C667 C 0.26051 0.75808 0.33504 0.0
H668 H 0.22017 0.72924 0.30927 0.0
H669 H 0.24674 0.78559 0.37016 0.0
C670 C 0.17581 0.72973 0.3835 0.0
N671 N 0.15075 0.7869 0.4229 0.0
C672 C 0.13552 0.80212 0.41299 0.0
C673 C 0.1462 0.78018 0.45829 0.0
N674 N 0.12194 0.80547 0.44121 0.0
C675 C 0.12852 0.79166 0.46968 0.0
C676 C 0.16873 0.77782 0.31613 0.0
O677 O 0.19221 0.73498 0.36495 0.0
O678 O 0.16667 0.74626 0.40115 0.0
O679 O 0.15891 0.78041 0.34732 0.0
O680 O 0.18816 0.77362 0.31811 0.0
O681 O 0.18068 0.81116 0.39337 0.0
H682 H 0.15524 0.76786 0.47489 0.0
H683 H 0.13464 0.81096 0.38604 0.0
O684 O 0.21064 0.80244 0.36844 0.0
O685 O 0.21628 0.76327 0.41278 0.0
O686 O 0.19058 0.77737 0.44515 0.0
C687 C 0.20934 0.76988 0.44437 0.0
H688 H 0.27698 0.76161 0.33759 0.0
H689 H 0.12082 0.78969 0.49653 0.0
Co690 Co 0.56737 0.03503 0.36637 0.0
C691 C 0.57009 0.98507 0.37964 0.0
Co692 Co 0.59578 1.02275 0.39305 0.0
C693 C 0.53579 0.062 0.32445 0.0
C694 C 0.52387 0.0357 0.36226 0.0
N695 N 0.54175 0.04439 0.34796 0.0
N696 N 0.51495 0.06479 0.32465 0.0
C697 C 0.50748 0.04821 0.34814 0.0
H698 H 0.54643 0.07302 0.30865 0.0
H699 H 0.52283 1.02168 0.38294 0.0
C700 C 0.59539 0.07221 0.38203 0.0
N701 N 0.6207 1.01319 0.41353 0.0
C702 C 0.6242 0.99978 0.44438 0.0
C703 C 0.63967 1.01747 0.39898 0.0
N704 N 0.64455 0.99529 0.44897 0.0
C705 C 0.65437 1.00642 0.42072 0.0
C706 C 0.59738 1.02527 0.31126 0.0
O707 O 0.57814 0.06819 0.3652 0.0
O708 O 0.6044 0.05488 0.39794 0.0
O709 O 0.60811 1.02164 0.34112 0.0
O710 O 0.57823 0.03038 0.31564 0.0
O711 O 0.58828 0.99095 0.38892 0.0
H712 H 0.64268 0.02805 0.37423 0.0
H713 H 0.61214 0.99334 0.46292 0.0
O714 O 0.55761 1.00133 0.36867 0.0
O715 O 0.55596 0.0399 0.41602 0.0
O716 O 0.58217 1.02347 0.44421 0.0
C717 C 0.56374 0.032 0.44623 0.0
H718 H 0.49122 0.04531 0.35442 0.0
H719 H 0.67102 1.00695 0.41673 0.0
Co720 Co 0.84599 0.52808 0.14773 0.0
C721 C 0.84187 0.47921 0.1326 0.0
Co722 Co 0.81773 0.51966 0.11715 0.0
C723 C 0.87427 0.54693 0.20304 0.0
C724 C 0.88875 0.52248 0.16493 0.0
N725 N 0.87061 0.53346 0.17233 0.0
N726 N 0.8939 0.54435 0.21524 0.0
C727 C 0.90309 0.52904 0.19149 0.0
H728 H 0.86264 0.55769 0.2169 0.0
H729 H 0.89119 0.50992 0.14233 0.0
C730 C 0.82401 0.56883 0.13537 0.0
N731 N 0.79229 0.51379 0.09481 0.0
C732 C 0.78554 0.49514 0.07412 0.0
C733 C 0.7749 0.52585 0.10412 0.0
N734 N 0.76467 0.49513 0.07107 0.0
C735 C 0.75797 0.51443 0.0896 0.0
C736 C 0.81137 0.52051 0.19627 0.0
O737 O 0.84134 0.56086 0.14613 0.0
O738 O 0.81093 0.55422 0.12124 0.0
O739 O 0.80398 0.5148 0.16453 0.0
O740 O 0.8305 0.52686 0.19707 0.0
O741 O 0.82563 0.48541 0.11431 0.0
H742 H 0.77432 0.54111 0.12254 0.0
H743 H 0.79548 0.48119 0.06347 0.0
O744 O 0.85159 0.49511 0.15054 0.0
O745 O 0.86048 0.52962 0.09726 0.0
O746 O 0.8308 0.52447 0.06861 0.0
C747 C 0.85034 0.52779 0.06623 0.0
H748 H 0.91898 0.5229 0.19356 0.0
H749 H 0.74187 0.51946 0.0932 0.0
Co750 Co 0.42003 0.77194 0.147 0.0
C751 C 0.42213 0.82129 0.13472 0.0
Co752 Co 0.44887 0.78289 0.1203 0.0
C753 C 0.38777 0.74496 0.1857 0.0
C754 C 0.37648 0.77376 0.152 0.0
N755 N 0.39412 0.76378 0.16509 0.0
N756 N 0.36694 0.74268 0.18487 0.0
C757 C 0.3598 0.76081 0.16406 0.0
H758 H 0.39817 0.73247 0.19915 0.0
H759 H 0.37582 0.78874 0.13302 0.0
C760 C 0.44471 0.73317 0.13444 0.0
N761 N 0.47486 0.79115 0.10259 0.0
C762 C 0.48128 0.80832 0.07871 0.0
C763 C 0.49246 0.78222 0.1176 0.0
N764 N 0.50214 0.81065 0.0793 0.0
C765 C 0.50918 0.7942 0.10347 0.0
C766 C 0.45166 0.78041 0.20069 0.0
O767 O 0.42673 0.7398 0.14381 0.0
O768 O 0.45756 0.74889 0.12292 0.0
O769 O 0.45988 0.78734 0.17024 0.0
O770 O 0.43292 0.77263 0.19883 0.0
O771 O 0.43944 0.81648 0.11879 0.0
H772 H 0.49309 0.7684 0.13867 0.0
H773 H 0.47093 0.81938 0.06234 0.0
O774 O 0.41251 0.80445 0.15068 0.0
O775 O 0.40826 0.77085 0.09511 0.0
O776 O 0.43817 0.77859 0.06918 0.0
C777 C 0.41888 0.774 0.06515 0.0
H778 H 0.34363 0.7642 0.15765 0.0
H779 H 0.52534 0.79102 0.11019 0.0
Co780 Co 0.84405 0.77928 0.21616 0.0
C781 C 0.8415 0.82729 0.23317 0.0
Co782 Co 0.81663 0.78677 0.24948 0.0
C783 C 0.88247 0.75785 0.19224 0.0
C784 C 0.86983 0.78199 0.15163 0.0
N785 N 0.86658 0.773 0.18623 0.0
N786 N 0.89527 0.75681 0.16239 0.0
C787 C 0.88742 0.77197 0.13683 0.0
H788 H 0.88435 0.74739 0.21752 0.0
H789 H 0.85997 0.79489 0.13792 0.0
C790 C 0.82117 0.73852 0.22834 0.0
N791 N 0.79405 0.79316 0.27945 0.0
C792 C 0.77908 0.8096 0.27426 0.0
C793 C 0.78949 0.78274 0.31253 0.0
N794 N 0.76555 0.81002 0.30308 0.0
C795 C 0.77202 0.79314 0.32719 0.0
C796 C 0.80645 0.78781 0.17265 0.0
O797 O 0.83821 0.74697 0.21692 0.0
O798 O 0.8086 0.75245 0.24551 0.0
O799 O 0.79974 0.79259 0.20534 0.0
O800 O 0.82567 0.78199 0.17002 0.0
O801 O 0.82553 0.82087 0.25211 0.0
H802 H 0.79821 0.76837 0.32508 0.0
H803 H 0.7781 0.82105 0.2499 0.0
O804 O 0.85077 0.81171 0.21389 0.0
O805 O 0.86151 0.77628 0.26342 0.0
O806 O 0.8327 0.7809 0.29431 0.0
C807 C 0.85218 0.77762 0.29523 0.0
H808 H 0.89411 0.77572 0.10958 0.0
H809 H 0.76421 0.7881 0.3529 0.0
Co810 Co 0.42294 0.52728 0.21634 0.0
C811 C 0.42443 0.47834 0.23054 0.0
Co812 Co 0.45053 0.51721 0.2479 0.0
C813 C 0.3975 0.54818 0.15776 0.0
C814 C 0.38051 0.52579 0.19564 0.0
N815 N 0.3996 0.53467 0.18891 0.0
N816 N 0.37785 0.5477 0.14485 0.0
C817 C 0.36713 0.53369 0.16845 0.0
H818 H 0.41012 0.55764 0.14438 0.0
H819 H 0.37668 0.51388 0.21844 0.0
C820 C 0.44679 0.56649 0.23219 0.0
N821 N 0.47352 0.50934 0.27602 0.0
C822 C 0.48856 0.49336 0.26828 0.0
C823 C 0.47832 0.51802 0.31027 0.0
N824 N 0.50226 0.4915 0.29672 0.0
C825 C 0.49591 0.50698 0.32313 0.0
C826 C 0.45939 0.51843 0.17025 0.0
O827 O 0.42962 0.55943 0.21908 0.0
O828 O 0.45909 0.55119 0.24685 0.0
O829 O 0.46643 0.51264 0.20234 0.0
O830 O 0.44024 0.52485 0.16872 0.0
O831 O 0.44124 0.48342 0.24802 0.0
H832 H 0.46969 0.53164 0.32492 0.0
H833 H 0.48946 0.48326 0.24244 0.0
O834 O 0.41536 0.49493 0.21308 0.0
O835 O 0.40658 0.53003 0.26471 0.0
O836 O 0.4352 0.52192 0.29428 0.0
C837 C 0.41601 0.52686 0.29605 0.0
H838 H 0.35081 0.52938 0.1659 0.0
H839 H 0.50389 0.51065 0.34928 0.0
Co840 Co 0.20166 0.53344 0.99912 0.0
C841 C 0.19906 0.48377 0.98449 0.0
Co842 Co 0.17342 0.52177 0.97047 0.0
C843 C 0.24077 0.55761 1.01382 0.0
C844 C 0.23122 0.53471 0.05869 0.0
N845 N 0.2256 0.54235 1.02421 0.0
N846 N 0.25525 0.56007 1.04092 0.0
C847 C 0.2493 0.54569 0.06908 0.0
H848 H 0.24125 0.56669 0.98704 0.0
H849 H 0.22289 0.52169 0.07516 0.0
C850 C 0.17433 0.57122 0.98285 0.0
N851 N 0.14886 0.51293 0.9478 0.0
C852 C 0.14435 0.49517 0.92353 0.0
C853 C 0.13027 0.52152 0.95882 0.0
N854 N 0.12367 0.4922 0.92004 0.0
C855 C 0.1148 0.50881 0.94185 0.0
C856 C 0.16918 0.52323 1.05076 0.0
O857 O 0.19172 0.56688 0.99887 0.0
O858 O 0.16493 0.55403 0.96731 0.0
O859 O 0.15923 0.51907 1.02042 0.0
O860 O 0.18811 0.52907 1.04744 0.0
O861 O 0.18122 0.48971 0.97308 0.0
H862 H 0.12808 0.53555 0.97922 0.0
H863 H 0.15586 0.48405 0.91007 0.0
O864 O 0.21103 0.49983 0.998 0.0
O865 O 0.21548 0.53768 0.95178 0.0
O866 O 0.18862 0.52419 0.92079 0.0
C867 C 0.20764 0.53129 0.92055 0.0
H868 H 0.25793 0.54264 0.09475 0.0
H869 H 0.09825 0.51139 0.94532 0.0
Co870 Co 0.56799 0.27047 0.99962 0.0
C871 C 0.57158 0.32007 0.98225 0.0
Co872 Co 0.59615 0.28144 0.97078 0.0
C873 C 0.53646 0.24484 1.04311 0.0
C874 C 0.52463 0.27242 1.00753 0.0
N875 N 0.54249 0.26267 1.02009 0.0
N876 N 0.51558 0.24299 1.04435 0.0
C877 C 0.50814 0.26036 1.0223 0.0
H878 H 0.54705 0.23284 0.05717 0.0
H879 H 0.5236 0.28666 0.98723 0.0
C880 C 0.59433 0.23211 0.98457 0.0
N881 N 0.62091 0.28886 0.94796 0.0
C882 C 0.62443 0.30194 0.91681 0.0
C883 C 0.63967 0.28041 0.95822 0.0
N884 N 0.64464 0.30175 0.90734 0.0
C885 C 0.65429 0.28823 0.9331 0.0
C886 C 0.59941 0.28024 1.05261 0.0
O887 O 0.57746 0.23694 1.00194 0.0
O888 O 0.60357 0.24889 0.96778 0.0
O889 O 0.60965 0.28344 1.02202 0.0
O890 O 0.58009 0.27555 1.04937 0.0
O891 O 0.58956 0.31371 0.97238 0.0
H892 H 0.64241 0.2687 0.98178 0.0
H893 H 0.6124 0.31074 0.90076 0.0
O894 O 0.55938 0.3044 0.996 0.0
O895 O 0.55534 0.26518 0.95076 0.0
O896 O 0.58171 0.27977 0.92058 0.0
C897 C 0.56299 0.27205 0.91978 0.0
H898 H 0.49187 0.26388 1.01705 0.0
H899 H 0.67068 0.28394 0.93313 0.0
Co900 Co 0.20134 0.26832 0.86779 0.0
C901 C 0.19993 0.31724 0.88641 0.0
Co902 Co 0.17442 0.27884 0.90083 0.0
C903 C 0.23838 0.24339 0.84548 0.0
C904 C 0.22787 0.26771 0.80329 0.0
N905 N 0.22345 0.25953 0.83798 0.0
N906 N 0.25179 0.24107 0.8167 0.0
C907 C 0.24523 0.25632 0.79011 0.0
H908 H 0.23958 0.23369 0.87163 0.0
H909 H 0.21929 0.28141 0.78873 0.0
C910 C 0.17398 0.23028 0.88495 0.0
N911 N 0.15242 0.28745 0.93065 0.0
C912 C 0.13706 0.30309 0.92335 0.0
C913 C 0.14899 0.27998 0.96608 0.0
N914 N 0.12443 0.3059 0.95315 0.0
C915 C 0.13184 0.29138 0.98003 0.0
C916 C 0.16612 0.27985 0.82195 0.0
O917 O 0.19083 0.23505 0.86741 0.0
O918 O 0.16531 0.24692 0.90307 0.0
O919 O 0.15723 0.28311 0.85378 0.0
O920 O 0.18523 0.27429 0.82268 0.0
O921 O 0.18266 0.31067 0.89964 0.0
H922 H 0.15831 0.26703 0.98085 0.0
H923 H 0.13533 0.31248 0.897 0.0
O924 O 0.21121 0.30185 0.86948 0.0
O925 O 0.21805 0.26245 0.91211 0.0
O926 O 0.19257 0.27479 0.94704 0.0
C927 C 0.21152 0.26791 0.94463 0.0
H928 H 0.25305 0.25984 0.76378 0.0
H929 H 0.12499 0.28877 1.00749 0.0
Co930 Co 0.5683 0.53501 0.86681 0.0
C931 C 0.57062 0.48531 0.88029 0.0
Co932 Co 0.59669 0.5228 0.89373 0.0
C933 C 0.5403 0.55656 0.81311 0.0
C934 C 0.52447 0.54141 0.86034 0.0
N935 N 0.54355 0.54471 0.8456 0.0
N936 N 0.52001 0.56103 0.80762 0.0
C937 C 0.50997 0.55148 0.83703 0.0
H938 H 0.55247 0.5616 0.79372 0.0
H939 H 0.52122 0.53194 0.88611 0.0
C940 C 0.59616 0.57227 0.88228 0.0
N941 N 0.62194 0.51356 0.91354 0.0
C942 C 0.62735 0.49543 0.93647 0.0
C943 C 0.6401 0.5225 0.90094 0.0
N944 N 0.64814 0.49258 0.93756 0.0
C945 C 0.65617 0.50963 0.91557 0.0
C946 C 0.59897 0.52494 0.81256 0.0
O947 O 0.57887 0.56806 0.86586 0.0
O948 O 0.60526 0.55505 0.89826 0.0
O949 O 0.60947 0.52137 0.84252 0.0
O950 O 0.57987 0.53006 0.81664 0.0
O951 O 0.5889 0.49091 0.88972 0.0
H952 H 0.64157 0.53695 0.88109 0.0
H953 H 0.61635 0.48402 0.95072 0.0
O954 O 0.55831 0.50168 0.86899 0.0
O955 O 0.55634 0.5399 0.91612 0.0
O956 O 0.58275 0.52376 0.94475 0.0
C957 C 0.56416 0.53209 0.9465 0.0
H958 H 0.49329 0.55112 0.84061 0.0
H959 H 0.67256 0.51251 0.91052 0.0
H960 H 0.43758 0.86499 0.10981 0.0
H961 H 0.38244 0.83218 0.15512 0.0
H962 H 0.41905 0.90321 0.10674 0.0
H963 H 0.36416 0.86979 0.15161 0.0
H964 H 0.33058 0.9372 0.10827 0.0
H965 H 0.34929 0.89908 0.10695 0.0
H966 H 0.40418 0.93377 0.1496 0.0
H967 H 0.38568 0.97135 0.15133 0.0
C968 C 0.42161 0.86583 0.11914 0.0
C969 C 0.41173 0.84528 0.13293 0.0
C970 C 0.41091 0.88778 0.1174 0.0
C971 C 0.38992 0.88974 0.12872 0.0
C972 C 0.38011 0.86912 0.14211 0.0
C973 C 0.39081 0.84744 0.14441 0.0
C974 C 0.3466 0.93668 0.11743 0.0
C975 C 0.35641 0.95756 0.13015 0.0
C976 C 0.35739 0.91478 0.11672 0.0
C977 C 0.37842 0.91318 0.12803 0.0
C978 C 0.38819 0.93415 0.1402 0.0
C979 C 0.37739 0.95581 0.14148 0.0
H980 H 0.86068 0.45686 0.19073 0.0
H981 H 0.84546 0.44661 0.07397 0.0
H982 H 0.88128 0.42064 0.19036 0.0
H983 H 0.86648 0.40991 0.0734 0.0
H984 H 0.92628 0.35996 0.08169 0.0
H985 H 0.90461 0.3961 0.07914 0.0
H986 H 0.87758 0.37758 0.18598 0.0
H987 H 0.89888 0.34198 0.18842 0.0
C988 C 0.86137 0.44657 0.16503 0.0
C989 C 0.85098 0.45459 0.13259 0.0
C990 C 0.87334 0.42571 0.16477 0.0
C991 C 0.87577 0.41212 0.13184 0.0
C992 C 0.86517 0.41991 0.09928 0.0
C993 C 0.8528 0.44075 0.09973 0.0
C994 C 0.91596 0.36386 0.10488 0.0
C995 C 0.91465 0.34803 0.1355 0.0
C996 C 0.90327 0.38443 0.10319 0.0
C997 C 0.88916 0.38996 0.13233 0.0
C998 C 0.88826 0.37427 0.16309 0.0
C999 C 0.9006 0.35372 0.16451 0.0
H1000 H 0.38546 0.46743 0.20598 0.0
H1001 H 0.43833 0.43507 0.26014 0.0
H1002 H 0.36644 0.43034 0.21009 0.0
H1003 H 0.41903 0.39734 0.26389 0.0
H1004 H 0.38612 0.32854 0.22067 0.0
H1005 H 0.40518 0.36574 0.22215 0.0
H1006 H 0.34938 0.40273 0.25464 0.0
H1007 H 0.33005 0.36496 0.2535 0.0
C1008 C 0.39319 0.45237 0.21873 0.0
C1009 C 0.41371 0.45451 0.2325 0.0
C1010 C 0.38204 0.43099 0.2214 0.0
C1011 C 0.39097 0.41064 0.23752 0.0
C1012 C 0.41157 0.41256 0.25111 0.0
C1013 C 0.42271 0.43423 0.24896 0.0
C1014 C 0.37773 0.34451 0.22823 0.0
C1015 C 0.3563 0.3435 0.2367 0.0
C1016 C 0.38886 0.36596 0.2294 0.0
C1017 C 0.37902 0.38747 0.23859 0.0
C1018 C 0.35757 0.3866 0.24718 0.0
C1019 C 0.34641 0.36491 0.24659 0.0
H1020 H 0.84555 0.85925 0.29272 0.0
H1021 H 0.8603 0.85004 0.17557 0.0
H1022 H 0.86682 0.8958 0.29398 0.0
H1023 H 0.88126 0.88593 0.17669 0.0
H1024 H 0.89949 0.96394 0.17903 0.0
H1025 H 0.87816 0.92843 0.18123 0.0
H1026 H 0.90452 0.91015 0.28881 0.0
H1027 H 0.92612 0.94639 0.28663 0.0
C1028 C 0.85286 0.86529 0.26705 0.0
C1029 C 0.85083 0.8518 0.23386 0.0
C1030 C 0.86539 0.88604 0.26789 0.0
C1031 C 0.87595 0.89403 0.23543 0.0
C1032 C 0.87333 0.88074 0.20222 0.0
C1033 C 0.86117 0.86005 0.20153 0.0
C1034 C 0.90108 0.95227 0.20305 0.0
C1035 C 0.91488 0.9581 0.23241 0.0
C1036 C 0.88872 0.93175 0.20433 0.0
C1037 C 0.88941 0.91614 0.2352 0.0
C1038 C 0.90334 0.92175 0.26465 0.0
C1039 C 0.91601 0.94237 0.26317 0.0
H1040 H 0.65627 0.09883 0.92572 0.0
H1041 H 0.67372 0.10868 1.04158 0.0
H1042 H 0.6358 0.13508 0.92764 0.0
H1043 H 0.65287 0.14548 1.04367 0.0
H1044 H 0.59336 0.19618 1.0386 0.0
H1045 H 0.61453 0.1596 1.0399 0.0
H1046 H 0.64048 0.17807 0.93214 0.0
H1047 H 0.61969 0.21406 0.93093 0.0
C1048 C 0.65607 0.10902 0.95155 0.0
C1049 C 0.66703 0.10089 0.98329 0.0
C1050 C 0.64419 0.12989 0.95269 0.0
C1051 C 0.64248 0.14341 0.98583 0.0
C1052 C 0.65363 0.13551 1.01769 0.0
C1053 C 0.66589 0.11461 1.01635 0.0
C1054 C 0.60332 0.19216 1.01495 0.0
C1055 C 0.60454 0.20807 0.98445 0.0
C1056 C 0.61572 0.17135 1.01592 0.0
C1057 C 0.62938 0.16573 0.98614 0.0
C1058 C 0.63014 0.18149 0.95549 0.0
C1059 C 0.6181 0.20224 0.95478 0.0
H1060 H 0.13656 0.72067 0.95862 0.0
H1061 H 0.08226 0.68707 1.0057 0.0
H1062 H 0.1553 0.68323 0.96159 0.0
H1063 H 0.10119 0.64915 1.0083 0.0
H1064 H 0.13417 0.58113 0.96408 0.0
H1065 H 0.11567 0.61869 0.9656 0.0
H1066 H 0.17099 0.65386 1.00535 0.0
H1067 H 0.18973 0.61573 1.00419 0.0
C1068 C 0.12849 0.70528 0.96957 0.0
C1069 C 0.10766 0.70714 0.9817 0.0
C1070 C 0.13944 0.6837 0.97158 0.0
C1071 C 0.12997 0.66293 0.9853 0.0
C1072 C 0.10908 0.66466 0.99731 0.0
C1073 C 0.09815 0.68646 0.99585 0.0
C1074 C 0.14258 0.59677 0.97322 0.0
C1075 C 0.16368 0.59512 0.98382 0.0
C1076 C 0.13177 0.61844 0.97439 0.0
C1077 C 0.14163 0.63955 0.98572 0.0
C1078 C 0.1628 0.63807 0.99623 0.0
C1079 C 0.17361 0.61615 0.99564 0.0
H1080 H 0.63308 0.72198 0.90054 0.0
H1081 H 0.68891 0.68782 0.86096 0.0
H1082 H 0.61471 0.68436 0.89834 0.0
H1083 H 0.67027 0.64962 0.85901 0.0
H1084 H 0.63588 0.58245 0.90405 0.0
H1085 H 0.65456 0.61996 0.90177 0.0
H1086 H 0.6004 0.65415 0.85539 0.0
H1087 H 0.58152 0.61618 0.85742 0.0
C1088 C 0.64157 0.70642 0.89137 0.0
C1089 C 0.66271 0.70819 0.88114 0.0
C1090 C 0.63083 0.68472 0.8898 0.0
C1091 C 0.6408 0.66372 0.87835 0.0
C1092 C 0.662 0.66533 0.86822 0.0
C1093 C 0.67275 0.68727 0.86927 0.0
C1094 C 0.62778 0.59789 0.89333 0.0
C1095 C 0.60695 0.59606 0.88116 0.0
C1096 C 0.6387 0.6195 0.89171 0.0
C1097 C 0.62919 0.64032 0.8783 0.0
C1098 C 0.60831 0.63861 0.86617 0.0
C1099 C 0.59741 0.61678 0.86729 0.0
H1100 H 0.18795 0.18682 0.85662 0.0
H1101 H 0.13444 0.21998 0.90726 0.0
H1102 H 0.16864 0.14914 0.85278 0.0
H1103 H 0.11535 0.18281 0.9031 0.0
H1104 H 0.07977 0.11645 0.85979 0.0
H1105 H 0.09892 0.15436 0.85864 0.0
H1106 H 0.15441 0.11815 0.89489 0.0
H1107 H 0.13553 0.08082 0.89637 0.0
C1108 C 0.17215 0.18616 0.86697 0.0
C1109 C 0.16299 0.20662 0.88255 0.0
C1110 C 0.16101 0.1645 0.86479 0.0
C1111 C 0.14024 0.16275 0.87748 0.0
C1112 C 0.13111 0.18333 0.89256 0.0
C1113 C 0.14227 0.20473 0.89527 0.0
C1114 C 0.09604 0.1166 0.8675 0.0
C1115 C 0.1059 0.09538 0.87845 0.0
C1116 C 0.10707 0.13838 0.86693 0.0
C1117 C 0.12839 0.13951 0.87657 0.0
C1118 C 0.13819 0.11818 0.88683 0.0
C1119 C 0.12717 0.09665 0.88799 0.0
H1120 H 0.4217 0.35665 0.5755 0.0
H1121 H 0.40414 0.34712 0.69132 0.0
H1122 H 0.40069 0.39332 0.57301 0.0
H1123 H 0.38347 0.38317 0.68897 0.0
H1124 H 0.36659 0.46176 0.6854 0.0
H1125 H 0.38755 0.42592 0.68464 0.0
H1126 H 0.36263 0.40746 0.57596 0.0
H1127 H 0.34136 0.44396 0.57675 0.0
C1128 C 0.41381 0.36263 0.60063 0.0
C1129 C 0.41497 0.34903 0.6338 0.0
C1130 C 0.40145 0.38344 0.59906 0.0
C1131 C 0.39021 0.39137 0.63078 0.0
C1132 C 0.39193 0.37797 0.66402 0.0
C1133 C 0.40393 0.35721 0.66541 0.0
C1134 C 0.36525 0.44997 0.66144 0.0
C1135 C 0.35197 0.45579 0.63135 0.0
C1136 C 0.37738 0.42929 0.66099 0.0
C1137 C 0.37698 0.41358 0.63022 0.0
C1138 C 0.36356 0.41917 0.60004 0.0
C1139 C 0.35109 0.43992 0.60072 0.0
H1140 H 0.86955 0.96298 0.68473 0.0
H1141 H 0.84498 0.9472 0.57485 0.0
H1142 H 0.89056 0.92721 0.68272 0.0
H1143 H 0.86632 0.91075 0.57276 0.0
H1144 H 0.92541 0.85979 0.57108 0.0
H1145 H 0.90432 0.89644 0.5698 0.0
H1146 H 0.88678 0.88446 0.68515 0.0
H1147 H 0.90753 0.84844 0.68631 0.0
C1148 C 0.86835 0.95164 0.66022 0.0
C1149 C 0.85521 0.95802 0.63019 0.0
C1150 C 0.88053 0.93099 0.65905 0.0
C1151 C 0.88035 0.91583 0.62756 0.0
C1152 C 0.86708 0.92199 0.59741 0.0
C1153 C 0.85456 0.94272 0.59882 0.0
C1154 C 0.91744 0.86536 0.59637 0.0
C1155 C 0.91856 0.85124 0.62902 0.0
C1156 C 0.90502 0.88618 0.59547 0.0
C1157 C 0.89365 0.89361 0.62737 0.0
C1158 C 0.89533 0.87969 0.66009 0.0
C1159 C 0.90738 0.85893 0.66079 0.0
H1160 H 0.43857 0.93529 0.75812 0.0
H1161 H 0.38542 0.96785 0.70515 0.0
H1162 H 0.41939 0.89744 0.76134 0.0
H1163 H 0.36652 0.93067 0.70881 0.0
H1164 H 0.33051 0.86504 0.75199 0.0
H1165 H 0.34986 0.90277 0.75378 0.0
H1166 H 0.40534 0.86622 0.71841 0.0
H1167 H 0.38624 0.82901 0.71627 0.0
C1168 C 0.42291 0.93447 0.74712 0.0
C1169 C 0.41378 0.95483 0.73114 0.0
C1170 C 0.41185 0.91275 0.74897 0.0
C1171 C 0.39121 0.91088 0.73557 0.0
C1172 C 0.38216 0.93131 0.71996 0.0
C1173 C 0.39323 0.95273 0.71755 0.0
C1174 C 0.34681 0.86508 0.74457 0.0
C1175 C 0.3566 0.84382 0.73361 0.0
C1176 C 0.35796 0.88674 0.74554 0.0
C1177 C 0.37932 0.8877 0.73632 0.0
C1178 C 0.38909 0.86634 0.72612 0.0
C1179 C 0.37794 0.84491 0.72455 0.0
H1180 H 0.87543 0.33945 0.68327 0.0
H1181 H 0.84457 0.36012 0.78566 0.0
H1182 H 0.89689 0.37482 0.68612 0.0
H1183 H 0.86625 0.39625 0.78838 0.0
H1184 H 0.92388 0.44789 0.79733 0.0
H1185 H 0.90323 0.4109 0.79791 0.0
H1186 H 0.89436 0.41699 0.67815 0.0
H1187 H 0.91475 0.45333 0.67778 0.0
C1188 C 0.87296 0.35176 0.70625 0.0
C1189 C 0.85794 0.34685 0.73398 0.0
C1190 C 0.88539 0.3722 0.70789 0.0
C1191 C 0.8835 0.38866 0.73749 0.0
C1192 C 0.86837 0.38396 0.76529 0.0
C1193 C 0.85567 0.3634 0.76344 0.0
C1194 C 0.91806 0.44083 0.77105 0.0
C1195 C 0.92146 0.45335 0.73735 0.0
C1196 C 0.90584 0.41987 0.77144 0.0
C1197 C 0.89693 0.41076 0.73806 0.0
C1198 C 0.90102 0.42303 0.70441 0.0
C1199 C 0.9129 0.44393 0.70413 0.0
H1200 H 0.67394 0.60951 0.53429 0.0
H1201 H 0.64683 0.59214 0.42693 0.0
H1202 H 0.65271 0.64598 0.53666 0.0
H1203 H 0.62592 0.628 0.42926 0.0
H1204 H 0.60985 0.70718 0.42443 0.0
H1205 H 0.63019 0.67083 0.42513 0.0
H1206 H 0.61481 0.66025 0.54185 0.0
H1207 H 0.59414 0.69719 0.54102 0.0
C1208 C 0.66377 0.61361 0.51094 0.0
C1209 C 0.66238 0.59788 0.4802 0.0
C1210 C 0.65134 0.63436 0.51254 0.0
C1211 C 0.63744 0.6401 0.48317 0.0
C1212 C 0.63646 0.6245 0.4523 0.0
C1213 C 0.64857 0.60381 0.45095 0.0
C1214 C 0.61039 0.69693 0.45017 0.0
C1215 C 0.59998 0.70507 0.48249 0.0
C1216 C 0.62218 0.67599 0.4506 0.0
C1217 C 0.62433 0.6624 0.48355 0.0
C1218 C 0.6137 0.67028 0.51598 0.0
C1219 C 0.60154 0.69126 0.51538 0.0
H1220 H 0.13505 0.08368 0.46273 0.0
H1221 H 0.18902 0.117 0.51175 0.0
H1222 H 0.11597 0.12068 0.46728 0.0
H1223 H 0.16964 0.15466 0.51599 0.0
H1224 H 0.13577 0.22272 0.47235 0.0
H1225 H 0.1549 0.18563 0.47446 0.0
H1226 H 0.09968 0.14908 0.51122 0.0
H1227 H 0.08027 0.18678 0.50945 0.0
C1228 C 0.143 0.09892 0.4745 0.0
C1229 C 0.16386 0.09707 0.4866 0.0
C1230 C 0.13182 0.12026 0.47744 0.0
C1231 C 0.14102 0.1409 0.49216 0.0
C1232 C 0.16193 0.13924 0.50428 0.0
C1233 C 0.17312 0.1176 0.50189 0.0
C1234 C 0.12752 0.20689 0.48103 0.0
C1235 C 0.10621 0.20802 0.49048 0.0
C1236 C 0.1387 0.18548 0.48255 0.0
C1237 C 0.12906 0.1641 0.49309 0.0
C1238 C 0.10773 0.16509 0.50271 0.0
C1239 C 0.09652 0.18676 0.50177 0.0
H1240 H 0.67405 0.19631 0.32231 0.0
H1241 H 0.66183 0.20313 0.44077 0.0
H1242 H 0.65305 0.15958 0.32077 0.0
H1243 H 0.64125 0.16685 0.43946 0.0
H1244 H 0.62338 0.08837 0.43324 0.0
H1245 H 0.64473 0.12397 0.43163 0.0
H1246 H 0.61505 0.1456 0.32857 0.0
H1247 H 0.59332 0.10946 0.33029 0.0
C1248 C 0.66742 0.18966 0.34819 0.0
C1249 C 0.67007 0.20253 0.38184 0.0
C1250 C 0.65504 0.1688 0.34722 0.0
C1251 C 0.64526 0.16005 0.37999 0.0
C1252 C 0.64855 0.17267 0.41366 0.0
C1253 C 0.66052 0.19354 0.41446 0.0
C1254 C 0.62111 0.10077 0.41034 0.0
C1255 C 0.60631 0.09594 0.38214 0.0
C1256 C 0.63348 0.12133 0.40941 0.0
C1257 C 0.63184 0.1379 0.37993 0.0
C1258 C 0.61697 0.13324 0.3516 0.0
C1259 C 0.60426 0.11265 0.35284 0.0
H1260 H 0.17522 0.69521 0.3275 0.0
H1261 H 0.15306 0.70965 0.43943 0.0
H1262 H 0.15476 0.65812 0.3265 0.0
H1263 H 0.13313 0.67282 0.43872 0.0
H1264 H 0.11938 0.59214 0.43939 0.0
H1265 H 0.13941 0.62889 0.43811 0.0
H1266 H 0.1157 0.6444 0.32753 0.0
H1267 H 0.09515 0.60739 0.3291 0.0
C1268 C 0.16636 0.69029 0.35214 0.0
C1269 C 0.16606 0.70542 0.38372 0.0
C1270 C 0.15437 0.66917 0.3514 0.0
C1271 C 0.14212 0.66235 0.3825 0.0
C1272 C 0.14236 0.67725 0.41429 0.0
C1273 C 0.1539 0.69844 0.41472 0.0
C1274 C 0.1181 0.6035 0.41493 0.0
C1275 C 0.10532 0.59678 0.38457 0.0
C1276 C 0.12971 0.62465 0.41417 0.0
C1277 C 0.12938 0.63976 0.38267 0.0
C1278 C 0.11653 0.63318 0.35219 0.0
C1279 C 0.1045 0.6121 0.35328 0.0
H1280 H 0.31866 0.04827 0.26262 0.0
H1281 H 0.27743 0.99861 0.20871 0.0
H1282 H 0.29385 0.05252 0.31441 0.0
H1283 H 0.25311 1.00202 0.26042 0.0
H1284 H 0.20252 1.02312 0.34463 0.0
H1285 H 0.22734 1.02045 0.29277 0.0
H1286 H 0.27675 0.0414 0.36778 0.0
H1287 H 0.25185 0.04491 0.41868 0.0
C1288 C 0.30454 0.03784 0.26198 0.0
C1289 C 0.30051 1.02292 0.23087 0.0
C1290 C 0.29003 0.04027 0.29205 0.0
C1291 C 0.27077 0.02782 0.29268 0.0
C1292 C 0.26714 1.01256 0.26174 0.0
C1293 C 0.28148 1.0103 0.23175 0.0
C1294 C 0.21862 0.02744 0.35005 0.0
C1295 C 0.22473 0.03445 0.38653 0.0
C1296 C 0.2332 1.02562 0.32003 0.0
C1297 C 0.25472 0.0305 0.32493 0.0
C1298 C 0.26064 0.03771 0.36152 0.0
C1299 C 0.2461 0.03966 0.39131 0.0
H1300 H 0.07131 0.28743 0.34648 0.0
H1301 H 0.02372 0.25711 0.41657 0.0
H1302 H 0.04624 0.29023 0.29469 0.0
H1303 H 0.99873 0.26095 0.36663 0.0
H1304 H 0.95596 0.25594 0.26424 0.0
H1305 H 0.98171 0.2516 0.31414 0.0
H1306 H 0.01929 0.30608 0.26237 0.0
H1307 H 0.994 0.30936 0.21196 0.0
C1308 C 0.05561 0.28122 0.35103 0.0
C1309 C 0.05005 0.27177 0.38638 0.0
C1310 C 0.04086 0.2831 0.32114 0.0
C1311 C 0.01975 0.2759 0.32523 0.0
C1312 C 0.01448 0.26639 0.36072 0.0
C1313 C 0.02914 0.26429 0.39012 0.0
C1314 C 0.96956 0.26724 0.26372 0.0
C1315 C 0.97239 0.28323 0.23364 0.0
C1316 C 0.98465 0.2648 0.29277 0.0
C1317 C 1.0033 0.27844 0.29356 0.0
C1318 C 1.00578 0.29471 0.26358 0.0
C1319 C 0.99087 0.29689 0.23441 0.0
H1320 H 0.25322 0.25624 0.94541 0.0
H1321 H 0.20506 0.28059 1.01985 0.0
H1322 H 0.27856 0.2592 0.99598 0.0
H1323 H 0.23026 0.28284 0.07116 0.0
H1324 H 0.28127 0.305 0.1524 0.0
H1325 H 0.25701 0.30188 0.10059 0.0
H1326 H 0.29501 0.2472 1.05069 0.0
H1327 H 0.31985 0.25101 0.10279 0.0
C1328 C 0.24784 0.26197 0.97276 0.0
C1329 C 0.22669 0.26808 0.97787 0.0
C1330 C 0.2626 0.2636 1.00228 0.0
C1331 C 0.25709 0.27144 1.03871 0.0
C1332 C 0.23577 0.27718 1.04391 0.0
C1333 C 0.221 0.27562 1.01425 0.0
C1334 C 0.28477 0.29243 0.13023 0.0
C1335 C 0.30301 0.27847 0.13236 0.0
C1336 C 0.27044 0.29037 0.10026 0.0
C1337 C 0.2733 0.27398 0.07059 0.0
C1338 C 0.29186 0.26028 0.07221 0.0
C1339 C 0.30637 0.26248 0.10236 0.0
H1340 H 1.0016 1.01334 0.1691 0.0
H1341 H 0.95119 0.03239 0.09554 0.0
H1342 H 0.02595 1.01666 0.11748 0.0
H1343 H 0.9755 0.0347 1.04284 0.0
H1344 H 0.02469 0.05567 0.95643 0.0
H1345 H 1.00068 0.05298 1.00886 0.0
H1346 H 0.04245 1.00445 0.06467 0.0
H1347 H 0.0669 1.00815 1.01245 0.0
C1348 C 0.99552 1.01794 0.14168 0.0
C1349 C 0.97405 1.02248 0.13717 0.0
C1350 C 1.00973 1.01974 0.11147 0.0
C1351 C 1.0033 1.02601 0.07478 0.0
C1352 C 0.98168 0.03026 0.07019 0.0
C1353 C 0.96744 0.02867 0.10066 0.0
C1354 C 0.02898 0.04461 0.98008 0.0
C1355 C 0.04816 0.03239 0.97974 0.0
C1356 C 0.01487 0.04277 1.01043 0.0
C1357 C 0.01896 0.02829 1.04208 0.0
C1358 C 0.03834 1.01617 1.04181 0.0
C1359 C 0.05261 1.01825 1.01148 0.0
H1360 H 0.75219 0.04329 0.91921 0.0
H1361 H 0.7017 0.02688 0.84426 0.0
H1362 H 0.77679 0.03924 0.86792 0.0
H1363 H 0.72622 1.02378 0.79205 0.0
H1364 H 0.77502 1.0011 0.70593 0.0
H1365 H 0.75089 1.00464 0.75806 0.0
H1366 H 0.79418 0.05072 0.8154 0.0
H1367 H 0.81869 0.04622 0.7634 0.0
C1368 C 0.74615 0.03913 0.89158 0.0
C1369 C 0.72457 0.03557 0.88659 0.0
C1370 C 0.7605 0.03688 0.86156 0.0
C1371 C 0.75412 0.03107 0.82461 0.0
C1372 C 0.73239 0.02782 0.81957 0.0
C1373 C 0.71802 0.02989 0.8498 0.0
C1374 C 0.77962 1.01181 0.72982 0.0
C1375 C 0.79926 1.02311 0.72991 0.0
C1376 C 0.76543 1.01415 0.76004 0.0
C1377 C 0.76989 0.02821 0.79206 0.0
C1378 C 0.78972 0.03937 0.79224 0.0
C1379 C 0.80404 0.03682 0.76202 0.0
H1380 H 0.06839 0.79816 0.84912 0.0
H1381 H 0.0281 0.74777 0.90341 0.0
H1382 H 0.04305 0.80248 0.79821 0.0
H1383 H 1.0032 0.75127 0.85249 0.0
H1384 H 0.95176 0.77194 0.76859 0.0
H1385 H 0.97691 0.76898 0.82016 0.0
H1386 H 0.02566 0.79183 0.74533 0.0
H1387 H 1.00057 0.79558 0.69499 0.0
C1388 C 0.05437 0.78756 0.85001 0.0
C1389 C 0.05082 0.7724 0.88097 0.0
C1390 C 0.03953 0.79003 0.82042 0.0
C1391 C 0.02035 0.77737 0.82007 0.0
C1392 C 0.01715 0.76193 0.85091 0.0
C1393 C 0.03184 0.75963 0.88044 0.0
C1394 C 0.96779 0.7766 0.76317 0.0
C1395 C 0.97364 0.78423 0.72687 0.0
C1396 C 0.98256 0.77464 0.79302 0.0
C1397 C 1.00402 0.78003 0.78812 0.0
C1398 C 1.00964 0.78778 0.75171 0.0
C1399 C 0.99495 0.78985 0.72217 0.0
H1400 H 0.73799 0.74939 0.96405 0.0
H1401 H 0.69741 0.80085 1.01518 0.0
H1402 H 0.76221 0.75326 1.0158 0.0
H1403 H 0.72217 0.8054 0.06725 0.0
H1404 H 0.76431 0.79722 0.17227 0.0
H1405 H 0.73908 0.79353 0.12163 0.0
H1406 H 0.78822 0.77344 1.04568 0.0
H1407 H 0.81336 0.77641 0.09703 0.0
C1408 C 0.73404 0.76155 0.98652 0.0
C1409 C 0.71526 0.77458 0.98483 0.0
C1410 C 0.74833 0.76407 1.01648 0.0
C1411 C 0.74487 0.77997 1.04658 0.0
C1412 C 0.7258 0.79273 1.04538 0.0
C1413 C 0.71134 0.79009 1.01524 0.0
C1414 C 0.7699 0.79211 0.14474 0.0
C1415 C 0.79127 0.7872 0.13943 0.0
C1416 C 0.7552 0.79006 0.11518 0.0
C1417 C 0.761 0.78298 0.07851 0.0
C1418 C 0.78251 0.77846 0.07312 0.0
C1419 C 0.79724 0.78044 0.10281 0.0
H1420 H 0.24955 0.54001 0.91712 0.0
H1421 H 0.19868 0.52022 0.84501 0.0
H1422 H 0.2735 0.53669 0.86514 0.0
H1423 H 0.22266 0.51797 0.79169 0.0
H1424 H 0.27179 0.49778 0.70409 0.0
H1425 H 0.24778 0.50042 0.75657 0.0
H1426 H 0.28971 0.54879 0.81259 0.0
H1427 H 0.31414 0.54507 0.76046 0.0
C1428 C 0.24326 0.53527 0.88991 0.0
C1429 C 0.22178 0.53054 0.88598 0.0
C1430 C 0.25725 0.53348 0.85944 0.0
C1431 C 0.25063 0.52709 0.82293 0.0
C1432 C 0.22899 0.52258 0.81887 0.0
C1433 C 0.21494 0.52412 0.84969 0.0
C1434 C 0.2761 0.5088 0.7278 0.0
C1435 C 0.29533 0.52096 0.72757 0.0
C1436 C 0.26199 0.5106 0.75819 0.0
C1437 C 0.26616 0.52496 0.78998 0.0
C1438 C 0.28554 0.5371 0.7897 0.0
C1439 C 0.2998 0.53504 0.75937 0.0
H1440 H 0.20181 0.78159 0.51987 0.0
H1441 H 0.25113 0.76016 0.4456 0.0
H1442 H 0.22667 0.78381 0.57186 0.0
H1443 H 0.27601 0.76333 0.49644 0.0
H1444 H 0.31736 0.75443 0.60108 0.0
H1445 H 0.2924 0.7508 0.54948 0.0
H1446 H 0.25277 0.80234 0.60363 0.0
H1447 H 0.27722 0.80503 0.65536 0.0
C1448 C 0.21792 0.77733 0.51446 0.0
C1449 C 0.22409 0.7705 0.478 0.0
C1450 C 0.23247 0.77885 0.54447 0.0
C1451 C 0.25394 0.77388 0.53936 0.0
C1452 C 0.2599 0.76697 0.50276 0.0
C1453 C 0.2454 0.76525 0.47304 0.0
C1454 C 0.30346 0.76522 0.60175 0.0
C1455 C 0.29969 0.78017 0.63281 0.0
C1456 C 0.28889 0.76316 0.57185 0.0
C1457 C 0.26994 0.77613 0.57144 0.0
C1458 C 0.26658 0.79146 0.60232 0.0
C1459 C 0.28097 0.79329 0.63221 0.0
H1460 H 0.02394 0.55249 0.45503 0.0
H1461 H 0.06741 0.50808 0.51423 0.0
H1462 H 0.99945 0.54917 0.50669 0.0
H1463 H 0.04256 0.50384 0.56573 0.0
H1464 H 1.00095 0.51315 0.66887 0.0
H1465 H 0.02536 0.51668 0.61751 0.0
H1466 H 0.97462 0.5299 0.54107 0.0
H1467 H 0.95008 0.52728 0.59357 0.0
C1468 C 0.02842 0.54198 0.47919 0.0
C1469 C 0.0481 0.53081 0.47995 0.0
C1470 C 0.01403 0.53979 0.50911 0.0
C1471 C 0.01838 0.52607 0.54147 0.0
C1472 C 0.03822 0.51497 0.54226 0.0
C1473 C 0.05272 0.51735 0.51234 0.0
C1474 C 0.99478 0.51668 0.64113 0.0
C1475 C 0.97314 0.51976 0.6361 0.0
C1476 C 1.00905 0.51861 0.61106 0.0
C1477 C 1.00257 0.5236 0.57394 0.0
C1478 C 0.9808 0.52643 0.56877 0.0
C1479 C 0.96645 0.52466 0.59913 0.0
H1480 H 0.81914 0.53142 0.27231 0.0
H1481 H 0.76934 0.51263 0.19711 0.0
H1482 H 0.79414 0.5344 0.32405 0.0
H1483 H 0.74447 0.51659 0.24754 0.0
H1484 H 0.70203 0.50885 0.35012 0.0
H1485 H 0.72738 0.50445 0.29954 0.0
H1486 H 0.76843 0.55334 0.35654 0.0
H1487 H 0.74346 0.55677 0.40744 0.0
C1488 C 0.80292 0.52787 0.26663 0.0
C1489 C 0.79666 0.52153 0.22996 0.0
C1490 C 0.7883 0.52984 0.2965 0.0
C1491 C 0.76669 0.52582 0.29105 0.0
C1492 C 0.76065 0.51945 0.25422 0.0
C1493 C 0.77519 0.51728 0.22469 0.0
C1494 C 0.71635 0.51889 0.3517 0.0
C1495 C 0.72028 0.53336 0.38329 0.0
C1496 C 0.73115 0.51641 0.32233 0.0
C1497 C 0.75057 0.52845 0.32289 0.0
C1498 C 0.7542 0.54322 0.3544 0.0
C1499 C 0.73954 0.54548 0.38382 0.0
H1500 H 0.70125 0.27758 0.52438 0.0
H1501 H 0.75177 0.26118 0.44964 0.0
H1502 H 0.72584 0.28059 0.57674 0.0
H1503 H 0.77632 0.26511 0.50088 0.0
H1504 H 0.81853 0.25789 0.60452 0.0
H1505 H 0.79368 0.25335 0.55303 0.0
H1506 H 0.75079 0.29949 0.61099 0.0
H1507 H 0.77528 0.3031 0.66266 0.0
C1508 C 0.71756 0.27454 0.51891 0.0
C1509 C 0.72411 0.26887 0.48213 0.0
C1510 C 0.73197 0.27654 0.54921 0.0
C1511 C 0.7537 0.27321 0.54421 0.0
C1512 C 0.76004 0.26747 0.50726 0.0
C1513 C 0.7457 0.2653 0.47724 0.0
C1514 C 0.80389 0.26728 0.60618 0.0
C1515 C 0.79935 0.28105 0.63831 0.0
C1516 C 0.78937 0.26472 0.57624 0.0
C1517 C 0.76958 0.27594 0.57669 0.0
C1518 C 0.76532 0.28998 0.60879 0.0
C1519 C 0.77972 0.29234 0.63874 0.0
H1520 H 0.5252 0.25019 0.90896 0.0
H1521 H 0.5679 0.29656 0.85171 0.0
H1522 H 0.5008 0.25348 0.85722 0.0
H1523 H 0.54306 0.30076 0.8 0.0
H1524 H 0.50061 0.29224 0.69661 0.0
H1525 H 0.5256 0.28862 0.74747 0.0
H1526 H 0.47569 0.27286 0.82441 0.0
H1527 H 0.45077 0.27557 0.77271 0.0
C1528 C 0.52954 0.26112 0.88518 0.0
C1529 C 0.54897 0.27285 0.88503 0.0
C1530 C 0.51518 0.26331 0.85521 0.0
C1531 C 0.51927 0.27764 0.8234 0.0
C1532 C 0.53891 0.28922 0.82308 0.0
C1533 C 0.55341 0.28682 0.85309 0.0
C1534 C 0.4948 0.28811 0.72439 0.0
C1535 C 0.47328 0.28433 0.72987 0.0
C1536 C 0.50937 0.28611 0.75412 0.0
C1537 C 0.50328 0.28032 0.7912 0.0
C1538 C 0.48162 0.27688 0.79673 0.0
C1539 C 0.46703 0.27872 0.76682 0.0
H1540 H 0.45197 0.0306 0.59394 0.0
H1541 H 0.50126 1.00913 0.6683 0.0
H1542 H 0.47689 0.0334 0.54224 0.0
H1543 H 0.52623 1.01278 0.61759 0.0
H1544 H 0.56783 1.00522 0.51244 0.0
H1545 H 0.54292 1.00095 0.56404 0.0
H1546 H 0.50289 0.05252 0.51103 0.0
H1547 H 0.52729 0.05595 0.45943 0.0
C1548 C 0.46809 0.02642 0.59945 0.0
C1549 C 0.47419 1.01946 0.6359 0.0
C1550 C 0.48269 0.02829 0.56957 0.0
C1551 C 0.50419 1.0235 0.5747 0.0
C1552 C 0.51011 1.01636 0.61126 0.0
C1553 C 0.49555 1.01436 0.64091 0.0
C1554 C 0.55384 1.01589 0.51201 0.0
C1555 C 0.55 0.0311 0.48127 0.0
C1556 C 0.5393 1.01345 0.54193 0.0
C1557 C 0.52024 1.0262 0.54267 0.0
C1558 C 0.51678 0.04177 0.51212 0.0
C1559 C 0.53116 0.04403 0.48227 0.0
H1560 H 0.44751 0.75466 0.26818 0.0
H1561 H 0.488 0.80458 0.21314 0.0
H1562 H 0.47258 0.75119 0.31987 0.0
H1563 H 0.51252 0.80189 0.26461 0.0
H1564 H 0.56392 0.78069 0.34667 0.0
H1565 H 0.5386 0.78271 0.29551 0.0
H1566 H 0.48972 0.76406 0.37298 0.0
H1567 H 0.51513 0.76122 0.42334 0.0
C1568 C 0.4615 0.76531 0.26729 0.0
C1569 C 0.46531 0.78004 0.23594 0.0
C1570 C 0.47614 0.76332 0.29723 0.0
C1571 C 0.49525 0.77604 0.2973 0.0
C1572 C 0.49861 0.79117 0.2662 0.0
C1573 C 0.48416 0.79299 0.2364 0.0
C1574 C 0.54782 0.77681 0.35281 0.0
C1575 C 0.54197 0.77067 0.38975 0.0
C1576 C 0.53299 0.77822 0.32323 0.0
C1577 C 0.51149 0.77376 0.32911 0.0
C1578 C 0.50582 0.7674 0.36614 0.0
C1579 C 0.52062 0.76587 0.39555 0.0
H1580 H 0.5014 0.50884 0.16881 0.0
H1581 H 0.45212 0.53061 0.09471 0.0
H1582 H 0.52635 0.51256 0.11808 0.0
H1583 H 0.47702 0.5335 1.04297 0.0
H1584 H 0.52735 0.55556 0.95938 0.0
H1585 H 0.50291 0.55209 1.01094 0.0
H1586 H 0.54337 0.5013 0.06474 0.0
H1587 H 0.56828 0.50561 1.01316 0.0
C1588 C 0.49568 0.51415 0.14147 0.0
C1589 C 0.47432 0.5193 0.13661 0.0
C1590 C 0.51025 0.51621 0.11177 0.0
C1591 C 0.50436 0.52345 0.07521 0.0
C1592 C 0.48284 0.5283 0.07024 0.0
C1593 C 0.46823 0.52638 0.10018 0.0
C1594 C 0.53131 0.5438 0.98237 0.0
C1595 C 0.55029 0.53112 0.98154 0.0
C1596 C 0.5169 0.54151 1.01224 0.0
C1597 C 0.52044 0.52617 1.04307 0.0
C1598 C 0.53964 0.51364 1.04246 0.0
C1599 C 0.5542 0.5161 1.01252 0.0
H1600 H 0.38894 0.03958 1.03962 0.0
H1601 H 0.32993 1.01976 0.99207 0.0
H1602 H 0.40414 0.04052 0.9768 0.0
H1603 H 0.34515 1.01997 0.92926 0.0
H1604 H 0.37427 0.03763 0.8133 0.0
H1605 H 0.3582 0.03903 0.87583 0.0
H1606 H 0.41692 1.02009 0.92593 0.0
H1607 H 0.4328 1.0194 0.86424 0.0
C1608 C 0.37913 0.03534 1.01584 0.0
C1609 C 0.35804 0.02961 1.02172 0.0
C1610 C 0.38795 0.03567 0.9793 0.0
C1611 C 0.37618 0.03018 0.9467 0.0
C1612 C 0.355 1.02465 0.95275 0.0
C1613 C 0.34618 1.02438 0.98928 0.0
C1614 C 0.38379 0.03389 0.83766 0.0
C1615 C 0.40505 0.02851 0.83289 0.0
C1616 C 0.37449 0.03452 0.87396 0.0
C1617 C 0.386 0.02979 0.90719 0.0
C1618 C 0.40724 1.02439 0.90205 0.0
C1619 C 0.41647 1.02381 0.86601 0.0
H1620 H 0.88052 0.26606 1.0473 0.0
H1621 H 0.93947 0.28431 0.99808 0.0
H1622 H 0.86491 0.26467 0.98469 0.0
H1623 H 0.92389 0.28372 0.93573 0.0
H1624 H 0.89486 0.2649 0.82121 0.0
H1625 H 0.91073 0.26396 0.88376 0.0
H1626 H 0.85214 0.28437 0.93286 0.0
H1627 H 0.83636 0.28451 0.87083 0.0
C1628 C 0.89022 0.26986 1.02321 0.0
C1629 C 0.91142 0.27525 1.02847 0.0
C1630 C 0.88117 0.26926 0.98684 0.0
C1631 C 0.89286 0.27413 0.95395 0.0
C1632 C 0.91411 0.27943 0.95946 0.0
C1633 C 0.92315 0.27993 0.99574 0.0
C1634 C 0.88532 0.26909 0.84534 0.0
C1635 C 0.86415 0.27471 0.84024 0.0
C1636 C 0.89451 0.26874 0.88165 0.0
C1637 C 0.88298 0.27407 0.91456 0.0
C1638 C 0.86179 0.27967 0.90915 0.0
C1639 C 0.85264 0.27993 0.87302 0.0
H1640 H 0.38503 0.26011 0.32933 0.0
H1641 H 0.32691 0.28423 0.37519 0.0
H1642 H 0.39998 0.25915 0.39217 0.0
H1643 H 0.34201 0.28408 0.43833 0.0
H1644 H 0.3709 0.26705 0.55561 0.0
H1645 H 0.3544 0.26575 0.49329 0.0
H1646 H 0.41382 0.27936 0.4417 0.0
H1647 H 0.43004 0.27987 0.50298 0.0
C1648 C 0.37534 0.26534 0.35277 0.0
C1649 C 0.35458 0.27226 0.34633 0.0
C1650 C 0.38406 0.26501 0.38937 0.0
C1651 C 0.37256 0.27177 0.42163 0.0
C1652 C 0.35166 0.27846 0.41512 0.0
C1653 C 0.3429 0.27868 0.37841 0.0
C1654 C 0.38047 0.26959 0.53095 0.0
C1655 C 0.40204 0.27339 0.53521 0.0
C1656 C 0.37092 0.26903 0.49476 0.0
C1657 C 0.3825 0.27226 0.46115 0.0
C1658 C 0.40403 0.27617 0.46584 0.0
C1659 C 0.41348 0.27665 0.50169 0.0
H1660 H 0.9354 1.02237 0.36696 0.0
H1661 H 0.87669 0.04188 0.31791 0.0
H1662 H 0.92006 1.02305 0.42914 0.0
H1663 H 0.86123 0.04339 0.38082 0.0
H1664 H 0.83321 1.02398 0.49606 0.0
H1665 H 0.8483 1.02443 0.43346 0.0
H1666 H 0.90783 0.04265 0.48122 0.0
H1667 H 0.89267 0.04135 0.54421 0.0
C1668 C 0.91915 0.02707 0.36928 0.0
C1669 C 0.90747 0.03208 0.33655 0.0
C1670 C 0.91025 0.02764 0.40557 0.0
C1671 C 0.88914 0.03339 0.41132 0.0
C1672 C 0.87741 0.03853 0.37848 0.0
C1673 C 0.88636 0.03784 0.34195 0.0
C1674 C 0.84956 0.02814 0.49344 0.0
C1675 C 0.86155 0.0326 0.526 0.0
C1676 C 0.85831 0.02857 0.45697 0.0
C1677 C 0.87956 0.03357 0.45099 0.0
C1678 C 0.89154 0.03828 0.48369 0.0
C1679 C 0.88276 0.03774 0.5203 0.0
H1680 H 0.62356 1.01848 0.0629 0.0
H1681 H 0.68272 0.0321 0.11508 0.0
H1682 H 0.60724 1.0171 0.12523 0.0
H1683 H 0.66664 0.03152 0.17655 0.0
H1684 H 0.63759 1.0131 0.28971 0.0
H1685 H 0.6529 1.01211 0.22703 0.0
H1686 H 0.59465 0.03517 0.17951 0.0
H1687 H 0.57929 0.03535 0.2422 0.0
C1688 C 0.63318 1.02121 0.08748 0.0
C1689 C 0.65469 1.02528 0.08305 0.0
C1690 C 0.62373 1.0206 0.12372 0.0
C1691 C 0.63533 1.02408 0.1573 0.0
C1692 C 0.65682 0.02818 0.15246 0.0
C1693 C 0.6662 0.02871 0.11651 0.0
C1694 C 0.62795 1.01789 0.26597 0.0
C1695 C 0.60701 1.02429 0.2719 0.0
C1696 C 0.63686 1.01754 0.22946 0.0
C1697 C 0.62536 1.02372 0.19683 0.0
C1698 C 0.60433 0.02994 0.20293 0.0
C1699 C 0.5954 0.03019 0.23944 0.0
H1700 H 0.14041 0.78951 0.07082 0.0
H1701 H 0.08194 0.76917 0.11975 0.0
H1702 H 0.15616 0.79049 0.13326 0.0
H1703 H 0.0977 0.76942 0.18214 0.0
H1704 H 0.12718 0.7872 0.29749 0.0
H1705 H 0.11085 0.78827 0.23526 0.0
H1706 H 0.16969 0.77091 0.18435 0.0
H1707 H 0.18588 0.77055 0.24603 0.0
C1708 C 0.13082 0.78517 0.09482 0.0
C1709 C 0.1097 0.77931 0.0894 0.0
C1710 C 0.13998 0.78552 0.13116 0.0
C1711 C 0.12853 0.77993 0.16406 0.0
C1712 C 0.10733 0.77421 0.15846 0.0
C1713 C 0.09818 0.77392 0.12214 0.0
C1714 C 0.1367 0.78371 0.27304 0.0
C1715 C 0.15807 0.77888 0.27764 0.0
C1716 C 0.12722 0.78415 0.23687 0.0
C1717 C 0.13865 0.77974 0.20346 0.0
C1718 C 0.16004 0.77491 0.20838 0.0
C1719 C 0.16946 0.77453 0.24437 0.0
H1720 H 0.63213 0.79195 0.78919 0.0
H1721 H 0.69009 0.7681 0.74236 0.0
H1722 H 0.61692 0.7931 0.72656 0.0
H1723 H 0.67473 0.7684 0.67944 0.0
H1724 H 0.64549 0.78567 0.56265 0.0
H1725 H 0.66219 0.78663 0.62479 0.0
H1726 H 0.60283 0.77343 0.67688 0.0
H1727 H 0.58641 0.7733 0.61574 0.0
C1728 C 0.64172 0.78681 0.76557 0.0
C1729 C 0.66252 0.77992 0.77169 0.0
C1730 C 0.63285 0.78725 0.72908 0.0
C1731 C 0.64423 0.78062 0.69661 0.0
C1732 C 0.66516 0.77393 0.70281 0.0
C1733 C 0.67407 0.77362 0.73939 0.0
C1734 C 0.63598 0.78312 0.58738 0.0
C1735 C 0.61437 0.77956 0.58331 0.0
C1736 C 0.64564 0.7835 0.62347 0.0
C1737 C 0.63415 0.78029 0.65719 0.0
C1738 C 0.61257 0.7766 0.65267 0.0
C1739 C 0.603 0.77632 0.61691 0.0
H1740 H 0.14013 1.01106 0.79262 0.0
H1741 H 0.08154 0.03157 0.74429 0.0
H1742 H 0.15552 1.00978 0.72983 0.0
H1743 H 0.0969 0.031 0.68175 0.0
H1744 H 0.12551 1.01382 0.56558 0.0
H1745 H 0.10958 1.01242 0.62819 0.0
H1746 H 0.16887 0.02897 0.67824 0.0
H1747 H 0.18461 0.02966 0.61635 0.0
C1748 C 0.13043 1.01536 0.76872 0.0
C1749 C 0.10939 1.02139 0.77445 0.0
C1750 C 0.13938 1.01483 0.73216 0.0
C1751 C 0.12778 1.02038 0.69933 0.0
C1752 C 0.10666 1.02622 0.70529 0.0
C1753 C 0.09774 0.0267 0.74176 0.0
C1754 C 0.1352 1.01701 0.58992 0.0
C1755 C 0.15657 1.02176 0.58498 0.0
C1756 C 0.12597 1.0164 0.62634 0.0
C1757 C 0.13764 1.02053 0.65966 0.0
C1758 C 0.15902 1.02519 0.65436 0.0
C1759 C 0.16818 1.02576 0.61819 0.0
H1760 H 0.38948 0.53761 0.54241 0.0
H1761 H 0.33026 0.52003 0.49357 0.0
H1762 H 0.40494 0.53868 0.47965 0.0
H1763 H 0.34564 0.52035 0.43112 0.0
H1764 H 0.37467 0.53749 0.3155 0.0
H1765 H 0.35883 0.53887 0.37816 0.0
H1766 H 0.4176 0.51945 0.42759 0.0
H1767 H 0.43328 0.51883 0.36566 0.0
C1768 C 0.37967 0.53388 0.51841 0.0
C1769 C 0.35843 0.52876 0.52395 0.0
C1770 C 0.38864 0.53431 0.48188 0.0
C1771 C 0.37685 0.52953 0.44895 0.0
C1772 C 0.35556 0.52453 0.45475 0.0
C1773 C 0.34662 0.52419 0.49117 0.0
C1774 C 0.38426 0.53362 0.33972 0.0
C1775 C 0.40547 0.52812 0.33463 0.0
C1776 C 0.37509 0.53423 0.37616 0.0
C1777 C 0.38665 0.52932 0.4093 0.0
C1778 C 0.40786 0.52385 0.40384 0.0
C1779 C 0.41697 0.52331 0.36765 0.0
H1780 H 0.87883 0.76827 0.54154 0.0
H1781 H 0.93804 0.78589 0.49294 0.0
H1782 H 0.86351 0.76665 0.47872 0.0
H1783 H 0.92278 0.78525 0.43042 0.0
H1784 H 0.89401 0.76858 0.31434 0.0
H1785 H 0.90991 0.76754 0.37704 0.0
H1786 H 0.85059 0.78449 0.42658 0.0
H1787 H 0.8349 0.78457 0.36484 0.0
C1788 C 0.88865 0.77195 0.51757 0.0
C1789 C 0.90985 0.77718 0.52318 0.0
C1790 C 0.87977 0.77122 0.48096 0.0
C1791 C 0.89158 0.77591 0.44805 0.0
C1792 C 0.91284 0.7811 0.45397 0.0
C1793 C 0.9217 0.78164 0.49045 0.0
C1794 C 0.88433 0.77194 0.33862 0.0
C1795 C 0.86296 0.77654 0.33362 0.0
C1796 C 0.89353 0.77154 0.37509 0.0
C1797 C 0.88183 0.77586 0.40831 0.0
C1798 C 0.86048 0.7805 0.40287 0.0
C1799 C 0.85134 0.78074 0.36672 0.0
H1800 H 0.38959 0.76229 0.8198 0.0
H1801 H 0.33162 0.78233 0.87093 0.0
H1802 H 0.40614 0.76174 0.88165 0.0
H1803 H 0.34814 0.78246 0.93259 0.0
H1804 H 0.378 0.76387 1.04603 0.0
H1805 H 0.36165 0.76278 0.98415 0.0
H1806 H 0.4201 0.78166 0.93305 0.0
H1807 H 0.43647 0.78206 0.99498 0.0
C1808 C 0.38028 0.76662 0.84416 0.0
C1809 C 0.35904 0.77225 0.83961 0.0
C1810 C 0.3899 0.76651 0.88009 0.0
C1811 C 0.3788 0.77206 0.91334 0.0
C1812 C 0.35751 0.77764 0.90857 0.0
C1813 C 0.34791 0.77771 0.8727 0.0
C1814 C 0.38747 0.76771 1.02166 0.0
C1815 C 0.40877 0.77299 1.02628 0.0
C1816 C 0.37795 0.76729 0.98568 0.0
C1817 C 0.38922 0.77219 0.95238 0.0
C1818 C 0.4106 0.77738 0.95716 0.0
C1819 C 0.42011 0.77776 0.99316 0.0
H1820 H 0.93692 0.5217 0.86982 0.0
H1821 H 0.87759 0.53628 0.81913 0.0
H1822 H 0.92109 0.52181 0.93175 0.0
H1823 H 0.86162 0.53734 0.88149 0.0
H1824 H 0.83285 0.51975 0.99641 0.0
H1825 H 0.84865 0.52001 0.93442 0.0
H1826 H 0.9075 0.539 0.98419 0.0
H1827 H 0.89161 0.53777 1.04658 0.0
C1828 C 0.92043 0.52521 0.87171 0.0
C1829 C 0.90877 0.529 0.83853 0.0
C1830 C 0.91119 0.52544 0.90789 0.0
C1831 C 0.88972 0.52965 0.91317 0.0
C1832 C 0.87806 0.53361 0.8798 0.0
C1833 C 0.88732 0.53321 0.84346 0.0
C1834 C 0.8492 0.52403 0.99439 0.0
C1835 C 0.86072 0.52874 1.02744 0.0
C1836 C 0.8584 0.52436 0.95817 0.0
C1837 C 0.8797 0.52959 0.95275 0.0
C1838 C 0.89122 0.53446 0.98599 0.0
C1839 C 0.88199 0.53395 1.02235 0.0
H1840 H 0.6394 0.51329 0.79191 0.0
H1841 H 0.58104 0.53455 0.74344 0.0
H1842 H 0.655 0.51237 0.72938 0.0
H1843 H 0.59665 0.5344 0.68102 0.0
H1844 H 0.62544 0.51647 0.56569 0.0
H1845 H 0.60939 0.51525 0.62804 0.0
H1846 H 0.66851 0.53226 0.67845 0.0
H1847 H 0.68445 0.53272 0.61657 0.0
C1848 C 0.62981 0.51785 0.76798 0.0
C1849 C 0.60877 0.52394 0.77349 0.0
C1850 C 0.63888 0.51753 0.73163 0.0
C1851 C 0.62739 0.52339 0.6989 0.0
C1852 C 0.60628 0.52937 0.70461 0.0
C1853 C 0.59722 0.52961 0.74092 0.0
C1854 C 0.63507 0.51983 0.59006 0.0
C1855 C 0.65644 0.52459 0.58531 0.0
C1856 C 0.62577 0.51932 0.62628 0.0
C1857 C 0.63737 0.52361 0.65953 0.0
C1858 C 0.65876 0.52836 0.65448 0.0
C1859 C 0.66802 0.5288 0.61842 0.0
H1860 H 0.18258 0.27279 0.75162 0.0
H1861 H 0.12434 0.28996 0.80438 0.0
H1862 H 0.16612 0.27332 0.69043 0.0
H1863 H 0.10764 0.29116 0.74226 0.0
H1864 H 0.07866 0.27118 0.62628 0.0
H1865 H 0.09432 0.27192 0.68884 0.0
H1866 H 0.15264 0.29348 0.63997 0.0
H1867 H 0.13703 0.29205 0.5775 0.0
C1868 C 0.16619 0.27696 0.75037 0.0
C1869 C 0.15504 0.2814 0.78389 0.0
C1870 C 0.15661 0.27744 0.7146 0.0
C1871 C 0.13526 0.28246 0.71004 0.0
C1872 C 0.12401 0.28696 0.74366 0.0
C1873 C 0.13368 0.28645 0.77972 0.0
C1874 C 0.09485 0.27615 0.62873 0.0
C1875 C 0.10639 0.28151 0.59599 0.0
C1876 C 0.10393 0.27671 0.66511 0.0
C1877 C 0.12508 0.28265 0.67073 0.0
C1878 C 0.13651 0.28831 0.63784 0.0
C1879 C 0.12743 0.2877 0.60148 0.0
H1880 H 0.58204 0.27095 0.12241 0.0
H1881 H 0.64042 0.29082 0.07275 0.0
H1882 H 0.5981 0.27041 0.18441 0.0
H1883 H 0.65652 0.2911 0.13498 0.0
H1884 H 0.68678 0.27145 0.24775 0.0
H1885 H 0.67049 0.27251 0.18615 0.0
H1886 H 0.6114 0.28724 0.23818 0.0
H1887 H 0.62785 0.28537 0.3002 0.0
C1888 C 0.59834 0.27547 0.12454 0.0
C1889 C 0.60969 0.28096 0.09161 0.0
C1890 C 0.6077 0.2753 0.16073 0.0
C1891 C 0.62898 0.28069 0.16621 0.0
C1892 C 0.64028 0.28638 0.13312 0.0
C1893 C 0.63091 0.28644 0.09684 0.0
C1894 C 0.67028 0.27498 0.24635 0.0
C1895 C 0.65889 0.27835 0.27994 0.0
C1896 C 0.66078 0.27577 0.21036 0.0
C1897 C 0.63926 0.28008 0.20566 0.0
C1898 C 0.62785 0.28353 0.23942 0.0
C1899 C 0.6374 0.28263 0.27557 0.0
H1900 H 0.187 0.53297 0.11954 0.0
H1901 H 0.12865 0.51122 0.07135 0.0
H1902 H 0.1716 0.53278 0.18192 0.0
H1903 H 0.11319 0.51029 0.13416 0.0
H1904 H 0.08447 0.53156 0.24755 0.0
H1905 H 0.1 0.53073 0.18535 0.0
H1906 H 0.15925 0.51308 0.23465 0.0
H1907 H 0.14361 0.51465 0.29734 0.0
C1908 C 0.17085 0.52791 0.12211 0.0
C1909 C 0.15924 0.52212 0.08963 0.0
C1910 C 0.16192 0.52763 0.15844 0.0
C1911 C 0.14088 0.5215 0.16429 0.0
C1912 C 0.12929 0.51552 0.13169 0.0
C1913 C 0.13825 0.51586 0.09523 0.0
C1914 C 0.10085 0.52744 0.24538 0.0
C1915 C 0.11261 0.52318 0.27825 0.0
C1916 C 0.10985 0.52678 0.20916 0.0
C1917 C 0.13114 0.52176 0.20376 0.0
C1918 C 0.14292 0.51738 0.23675 0.0
C1919 C 0.13387 0.5181 0.27314 0.0
H1920 H 0.34387 0.19348 0.24778 0.0
H1921 H 0.28446 0.21481 0.20333 0.0
H1922 H 0.33994 0.15453 0.21902 0.0
H1923 H 0.28044 0.17519 0.17422 0.0
H1924 H 0.28439 0.08663 0.15928 0.0
H1925 H 0.28012 0.12628 0.18816 0.0
H1926 H 0.3406 0.14643 0.14731 0.0
H1927 H 0.34477 0.10746 0.11878 0.0
C1928 C 0.32961 0.18958 0.23281 0.0
C1929 C 0.31446 0.20733 0.22808 0.0
C1930 C 0.32745 0.16727 0.21595 0.0
C1931 C 0.31008 0.16183 0.19361 0.0
C1932 C 0.29404 0.17881 0.19118 0.0
C1933 C 0.29624 0.20143 0.20818 0.0
C1934 C 0.29636 0.09991 0.15523 0.0
C1935 C 0.3149 0.09386 0.13653 0.0
C1936 C 0.294 0.12254 0.1721 0.0
C1937 C 0.31022 0.13938 0.17075 0.0
C1938 C 0.32796 0.1338 0.14955 0.0
C1939 C 0.33027 0.11147 0.13281 0.0
H1940 H 0.92233 0.10764 0.23988 0.0
H1941 H 0.98519 0.09031 0.20884 0.0
H1942 H 0.92644 0.14718 0.21357 0.0
H1943 H 0.98939 0.1305 0.18193 0.0
H1944 H 0.98509 0.21781 0.16743 0.0
H1945 H 0.98821 0.17759 0.19464 0.0
H1946 H 0.92912 0.15877 0.1459 0.0
H1947 H 0.92605 0.1984 0.11935 0.0
C1948 C 0.93728 0.11251 0.22828 0.0
C1949 C 0.95342 0.09572 0.22668 0.0
C1950 C 0.93958 0.13518 0.21272 0.0
C1951 C 0.95808 0.14196 0.19469 0.0
C1952 C 0.97489 0.12588 0.19544 0.0
C1953 C 0.97256 0.10291 0.21119 0.0
C1954 C 0.97321 0.20473 0.16137 0.0
C1955 C 0.95537 0.21132 0.14095 0.0
C1956 C 0.97489 0.18174 0.17729 0.0
C1957 C 0.95867 0.16504 0.17328 0.0
C1958 C 0.9417 0.17124 0.15041 0.0
C1959 C 0.94005 0.19395 0.1347 0.0
H1960 H 0.67487 0.85873 0.86108 0.0
H1961 H 0.73009 0.83792 0.92089 0.0
H1962 H 0.67861 0.89916 0.88417 0.0
H1963 H 0.73398 0.87892 0.94456 0.0
H1964 H 0.71074 0.94765 1.01588 0.0
H1965 H 0.71502 0.90727 0.98954 0.0
H1966 H 0.70009 0.93427 0.87932 0.0
H1967 H 0.69553 0.97378 0.90547 0.0
C1968 C 0.68825 0.86304 0.87825 0.0
C1969 C 0.70245 0.84521 0.88829 0.0
C1970 C 0.69038 0.88628 0.89174 0.0
C1971 C 0.70664 0.89252 0.91634 0.0
C1972 C 0.72123 0.87481 0.9258 0.0
C1973 C 0.71925 0.85143 0.91169 0.0
C1974 C 0.70884 0.9449 0.98597 0.0
C1975 C 0.70258 0.96385 0.96283 0.0
C1976 C 0.71127 0.9218 0.9708 0.0
C1977 C 0.70753 0.91731 0.93227 0.0
C1978 C 0.70263 0.93676 0.90915 0.0
C1979 C 0.70011 0.95952 0.92417 0.0
H1980 H 0.09058 0.85838 1.0059 0.0
H1981 H 0.03935 0.8339 0.93835 0.0
H1982 H 0.08571 0.89865 0.98213 0.0
H1983 H 0.03461 0.87446 0.91362 0.0
H1984 H 0.06043 0.94305 0.84385 0.0
H1985 H 0.05628 0.90293 0.87091 0.0
H1986 H 0.06092 0.93267 0.98233 0.0
H1987 H 0.06495 0.97224 0.95544 0.0
C1988 C 0.07779 0.86181 0.98686 0.0
C1989 C 0.06498 0.84305 0.97494 0.0
C1990 C 0.07506 0.88492 0.97295 0.0
C1991 C 0.05975 0.88996 0.94583 0.0
C1992 C 0.04657 0.87128 0.9344 0.0
C1993 C 0.04904 0.84813 0.94906 0.0
C1994 C 0.05981 0.94101 0.87407 0.0
C1995 C 0.06278 0.96084 0.89752 0.0
C1996 C 0.05753 0.91803 0.88965 0.0
C1997 C 0.05849 0.91445 0.92892 0.0
C1998 C 0.06035 0.93459 0.95208 0.0
C1999 C 0.06247 0.95735 0.93663 0.0
H2000 H 0.28452 0.71493 0.70147 0.0
H2001 H 0.34399 0.69434 0.74639 0.0
H2002 H 0.28067 0.67507 0.67316 0.0
H2003 H 0.34021 0.65508 0.71864 0.0
H2004 H 0.34539 0.60601 0.62139 0.0
H2005 H 0.34161 0.6452 0.64924 0.0
H2006 H 0.27969 0.62734 0.68557 0.0
H2007 H 0.28354 0.5875 0.65718 0.0
C2008 C 0.29633 0.70164 0.70664 0.0
C2009 C 0.31452 0.7078 0.72644 0.0
C2010 C 0.29424 0.67889 0.69008 0.0
C2011 C 0.31036 0.66201 0.69285 0.0
C2012 C 0.32768 0.66773 0.71518 0.0
C2013 C 0.32974 0.6902 0.73155 0.0
C2014 C 0.3307 0.61056 0.63433 0.0
C2015 C 0.31476 0.59355 0.63687 0.0
C2016 C 0.32861 0.63302 0.65074 0.0
C2017 C 0.31054 0.63932 0.67051 0.0
C2018 C 0.29385 0.62305 0.67068 0.0
C2019 C 0.29597 0.60031 0.6541 0.0
H2020 H 0.98225 0.71487 0.65528 0.0
H2021 H 0.91854 0.70195 0.62427 0.0
H2022 H 0.98497 0.67358 0.67849 0.0
H2023 H 0.92097 0.6617 0.64759 0.0
H2024 H 0.93188 0.58541 0.65993 0.0
H2025 H 0.93613 0.62454 0.63339 0.0
H2026 H 0.9716 0.64625 0.73045 0.0
H2027 H 0.96789 0.6058 0.75697 0.0
C2028 C 0.96905 0.70307 0.65242 0.0
C2029 C 0.95029 0.71162 0.63718 0.0
C2030 C 0.97047 0.67955 0.66636 0.0
C2031 C 0.95322 0.66406 0.66494 0.0
C2032 C 0.93476 0.67269 0.64872 0.0
C2033 C 0.93335 0.69593 0.63517 0.0
C2034 C 0.94065 0.59839 0.67591 0.0
C2035 C 0.94908 0.59248 0.71118 0.0
C2036 C 0.94307 0.62102 0.66054 0.0
C2037 C 0.95375 0.639 0.68 0.0
C2038 C 0.9632 0.63293 0.71459 0.0
C2039 C 0.961 0.6098 0.72995 0.0
H2040 H 0.6907 0.33257 0.45998 0.0
H2041 H 0.71489 0.35567 0.35319 0.0
H2042 H 0.69482 0.37226 0.48526 0.0
H2043 H 0.71857 0.3964 0.37854 0.0
H2044 H 0.73106 0.46658 0.44754 0.0
H2045 H 0.73486 0.42517 0.42553 0.0
H2046 H 0.67567 0.40798 0.47548 0.0
H2047 H 0.67215 0.44861 0.49723 0.0
C2048 C 0.69699 0.34623 0.44181 0.0
C2049 C 0.70212 0.34095 0.40431 0.0
C2050 C 0.6993 0.36913 0.45636 0.0
C2051 C 0.70658 0.3879 0.43388 0.0
C2052 C 0.7129 0.38246 0.39678 0.0
C2053 C 0.71076 0.35914 0.38215 0.0
C2054 C 0.71929 0.45364 0.45487 0.0
C2055 C 0.70152 0.46078 0.47497 0.0
C2056 C 0.72126 0.43002 0.44165 0.0
C2057 C 0.70561 0.413 0.44868 0.0
C2058 C 0.68827 0.42022 0.46991 0.0
C2059 C 0.68625 0.44363 0.48261 0.0
H2060 H 0.05789 0.36015 0.52174 0.0
H2061 H 0.06761 0.33064 0.41145 0.0
H2062 H 0.05426 0.40008 0.49362 0.0
H2063 H 0.06417 0.36998 0.38361 0.0
H2064 H 0.09381 0.44472 0.36362 0.0
H2065 H 0.08877 0.40459 0.38792 0.0
H2066 H 0.03367 0.42766 0.44627 0.0
H2067 H 0.03859 0.46807 0.42092 0.0
C2068 C 0.05853 0.36205 0.4915 0.0
C2069 C 0.06283 0.3422 0.46879 0.0
C2070 C 0.05657 0.38492 0.47533 0.0
C2071 C 0.05917 0.38836 0.43627 0.0
C2072 C 0.06232 0.36817 0.41371 0.0
C2073 C 0.06411 0.34554 0.42969 0.0
C2074 C 0.0802 0.44106 0.38051 0.0
C2075 C 0.0663 0.45946 0.38938 0.0
C2076 C 0.07736 0.41805 0.39474 0.0
C2077 C 0.0608 0.41276 0.41919 0.0
C2078 C 0.0466 0.43107 0.4276 0.0
C2079 C 0.04921 0.45411 0.41256 0.0
H2080 H 0.80952 0.11125 0.59789 0.0
H2081 H 0.82198 0.08187 0.70735 0.0
H2082 H 0.80535 0.15097 0.62654 0.0
H2083 H 0.81771 0.12089 0.73578 0.0
H2084 H 0.84499 0.19604 0.75706 0.0
H2085 H 0.84052 0.15589 0.73274 0.0
H2086 H 0.78551 0.17814 0.67311 0.0
H2087 H 0.79 0.21866 0.69824 0.0
C2088 C 0.81073 0.11315 0.62808 0.0
C2089 C 0.81605 0.09346 0.65038 0.0
C2090 C 0.8084 0.13587 0.64456 0.0
C2091 C 0.81148 0.13927 0.68353 0.0
C2092 C 0.81556 0.11916 0.70572 0.0
C2093 C 0.81786 0.09671 0.68941 0.0
C2094 C 0.83149 0.19217 0.73992 0.0
C2095 C 0.81753 0.21039 0.73051 0.0
C2096 C 0.82897 0.16914 0.72568 0.0
C2097 C 0.81264 0.16363 0.70083 0.0
C2098 C 0.79829 0.18172 0.69207 0.0
C2099 C 0.80062 0.20482 0.70701 0.0
H2100 H 0.46096 0.19672 0.60194 0.0
H2101 H 0.44139 0.22072 0.71133 0.0
H2102 H 0.46549 0.15615 0.62738 0.0
H2103 H 0.44615 0.18108 0.73656 0.0
H2104 H 0.42323 0.10436 0.75066 0.0
H2105 H 0.4262 0.14515 0.72887 0.0
H2106 H 0.48379 0.12796 0.67321 0.0
H2107 H 0.48064 0.08659 0.69552 0.0
C2108 C 0.45807 0.19348 0.63145 0.0
C2109 C 0.45049 0.21188 0.65444 0.0
C2110 C 0.46066 0.17026 0.64612 0.0
C2111 C 0.45579 0.1651 0.68401 0.0
C2112 C 0.44955 0.18403 0.70714 0.0
C2113 C 0.44687 0.20689 0.69261 0.0
C2114 C 0.43693 0.10945 0.73492 0.0
C2115 C 0.45199 0.09236 0.72585 0.0
C2116 C 0.4386 0.13289 0.72212 0.0
C2117 C 0.45528 0.1401 0.69918 0.0
C2118 C 0.4707 0.12312 0.69068 0.0
C2119 C 0.46914 0.09953 0.70407 0.0
H2120 H 0.17565 0.85675 0.36402 0.0
H2121 H 0.23238 0.83608 0.41906 0.0
H2122 H 0.17986 0.89723 0.38715 0.0
H2123 H 0.23657 0.87696 0.44312 0.0
H2124 H 0.21304 0.94558 0.51678 0.0
H2125 H 0.217 0.90515 0.49038 0.0
H2126 H 0.20274 0.93236 0.38008 0.0
H2127 H 0.1988 0.97203 0.40613 0.0
C2128 C 0.18941 0.86108 0.38017 0.0
C2129 C 0.20397 0.84331 0.38872 0.0
C2130 C 0.19178 0.88432 0.39373 0.0
C2131 C 0.20858 0.89054 0.41713 0.0
C2132 C 0.22343 0.87286 0.42529 0.0
C2133 C 0.22124 0.84954 0.41095 0.0
C2134 C 0.21137 0.94293 0.4868 0.0
C2135 C 0.20556 0.96204 0.46359 0.0
C2136 C 0.21356 0.91977 0.47162 0.0
C2137 C 0.20986 0.91533 0.43306 0.0
C2138 C 0.20535 0.93486 0.40988 0.0
C2139 C 0.20321 0.95771 0.42487 0.0
H2140 H 0.60077 0.85484 0.47733 0.0
H2141 H 0.53526 0.84109 0.4649 0.0
H2142 H 0.5963 0.89406 0.45025 0.0
H2143 H 0.5307 0.88097 0.43713 0.0
H2144 H 0.5366 0.96725 0.41916 0.0
H2145 H 0.53428 0.92712 0.44678 0.0
H2146 H 0.58903 0.90643 0.38522 0.0
H2147 H 0.59141 0.94612 0.35847 0.0
C2148 C 0.58525 0.86038 0.46948 0.0
C2149 C 0.5684 0.84467 0.47338 0.0
C2150 C 0.58272 0.88288 0.45345 0.0
C2151 C 0.56323 0.89058 0.44043 0.0
C2152 C 0.54597 0.87561 0.44661 0.0
C2153 C 0.54854 0.85282 0.46284 0.0
C2154 C 0.54757 0.95376 0.41039 0.0
C2155 C 0.56407 0.95982 0.38623 0.0
C2156 C 0.54639 0.93083 0.42655 0.0
C2157 C 0.56177 0.91362 0.41902 0.0
C2158 C 0.57719 0.9193 0.3925 0.0
C2159 C 0.57839 0.942 0.37661 0.0
H2160 H 0.78734 0.58972 0.15976 0.0
H2161 H 0.85092 0.60559 0.13163 0.0
H2162 H 0.78289 0.6308 0.18319 0.0
H2163 H 0.84656 0.64599 0.15438 0.0
H2164 H 0.82933 0.722 0.15944 0.0
H2165 H 0.82663 0.68198 0.13507 0.0
H2166 H 0.79813 0.65898 0.23843 0.0
H2167 H 0.80082 0.70003 0.2634 0.0
C2168 C 0.80017 0.6021 0.15763 0.0
C2169 C 0.81939 0.59444 0.14306 0.0
C2170 C 0.79773 0.62549 0.17165 0.0
C2171 C 0.81436 0.64183 0.17075 0.0
C2172 C 0.83331 0.63414 0.1553 0.0
C2173 C 0.83581 0.6109 0.142 0.0
C2174 C 0.82226 0.70858 0.17715 0.0
C2175 C 0.81562 0.71432 0.21377 0.0
C2176 C 0.82074 0.6855 0.16302 0.0
C2177 C 0.81253 0.667 0.18487 0.0
C2178 C 0.80457 0.6728 0.22078 0.0
C2179 C 0.80609 0.6963 0.23515 0.0
H2180 H 0.42161 0.6038 0.24486 0.0
H2181 H 0.48271 0.58677 0.20372 0.0
H2182 H 0.42456 0.64367 0.21914 0.0
H2183 H 0.4857 0.62718 0.17723 0.0
H2184 H 0.48132 0.71392 0.16229 0.0
H2185 H 0.48543 0.67384 0.18959 0.0
H2186 H 0.42376 0.65568 0.15198 0.0
H2187 H 0.4197 0.69514 0.12537 0.0
C2188 C 0.436 0.60885 0.23126 0.0
C2189 C 0.45197 0.5921 0.22669 0.0
C2190 C 0.43759 0.63167 0.21599 0.0
C2191 C 0.45516 0.63857 0.19519 0.0
C2192 C 0.47192 0.62248 0.19296 0.0
C2193 C 0.47031 0.5994 0.20848 0.0
C2194 C 0.46898 0.70103 0.15878 0.0
C2195 C 0.45018 0.70777 0.14153 0.0
C2196 C 0.47125 0.67813 0.17474 0.0
C2197 C 0.45471 0.66167 0.1739 0.0
C2198 C 0.43663 0.66801 0.15414 0.0
C2199 C 0.43439 0.69062 0.1384 0.0
H2200 H 0.23079 0.46809 0.93949 0.0
H2201 H 0.18056 0.44338 1.00897 0.0
H2202 H 0.23534 0.42758 0.91438 0.0
H2203 H 0.18528 0.4031 0.98488 0.0
H2204 H 0.20673 0.3296 0.95795 0.0
H2205 H 0.21062 0.36933 0.98429 0.0
H2206 H 0.21315 0.39867 0.87248 0.0
H2207 H 0.20907 0.35836 0.84591 0.0
C2208 C 0.22131 0.45382 0.95055 0.0
C2209 C 0.20575 0.45882 0.97719 0.0
C2210 C 0.22365 0.43069 0.93566 0.0
C2211 C 0.21071 0.41193 0.94755 0.0
C2212 C 0.19574 0.4169 0.97532 0.0
C2213 C 0.19312 0.44 0.98946 0.0
C2214 C 0.20872 0.34444 0.93887 0.0
C2215 C 0.20783 0.34072 0.89979 0.0
C2216 C 0.21075 0.3673 0.95403 0.0
C2217 C 0.21197 0.38738 0.93067 0.0
C2218 C 0.21239 0.38363 0.89138 0.0
C2219 C 0.21018 0.36053 0.87607 0.0
H2220 H 0.56008 0.36126 1.02036 0.0
H2221 H 0.56751 0.33144 0.9097 0.0
H2222 H 0.55536 0.401 0.99224 0.0
H2223 H 0.56271 0.37055 0.88175 0.0
H2224 H 0.58986 0.44538 0.85654 0.0
H2225 H 0.58574 0.40523 0.88099 0.0
H2226 H 0.53427 0.42863 0.94913 0.0
H2227 H 0.53838 0.46915 0.92389 0.0
C2228 C 0.56004 0.36307 0.99008 0.0
C2229 C 0.56404 0.34321 0.96723 0.0
C2230 C 0.5574 0.38583 0.97389 0.0
C2231 C 0.5589 0.38914 0.93461 0.0
C2232 C 0.56176 0.36889 0.91201 0.0
C2233 C 0.56434 0.34638 0.92805 0.0
C2234 C 0.57714 0.44178 0.87561 0.0
C2235 C 0.56407 0.46033 0.88735 0.0
C2236 C 0.57483 0.41873 0.88992 0.0
C2237 C 0.55965 0.41351 0.91719 0.0
C2238 C 0.54615 0.43195 0.92829 0.0
C2239 C 0.54824 0.45507 0.91331 0.0
H2240 H 0.25283 0.94861 1.05377 0.0
H2241 H 0.26405 1.01282 0.99164 0.0
H2242 H 0.22622 0.93682 1.00833 0.0
H2243 H 0.23684 1.00219 0.94731 0.0
H2244 H 0.17993 0.99451 0.88889 0.0
H2245 H 0.21535 0.98152 0.90375 0.0
H2246 H 0.19354 0.95509 1.01085 0.0
H2247 H 0.1587 0.96767 0.99527 0.0
C2248 C 0.25009 0.95966 1.02937 0.0
C2249 C 0.2601 0.98162 1.02597 0.0
C2250 C 0.23482 0.95308 1.00351 0.0
C2251 C 0.22884 0.96892 0.97485 0.0
C2252 C 0.24091 0.98946 0.96888 0.0
C2253 C 0.25647 0.99573 0.99433 0.0
C2254 C 0.18276 0.98483 0.91467 0.0
C2255 C 0.16694 0.98237 0.94138 0.0
C2256 C 0.20299 0.97756 0.92337 0.0
C2257 C 0.2075 0.96783 0.95893 0.0
C2258 C 0.19089 0.96245 0.98318 0.0
C2259 C 0.17085 0.96979 0.9745 0.0
H2260 H 0.11222 0.33205 1.01183 0.0
H2261 H 0.09453 0.31028 0.9003 0.0
H2262 H 0.07722 0.34557 1.0239 0.0
H2263 H 0.05905 0.32421 0.91183 0.0
H2264 H 1.0064 0.29284 0.99324 0.0
H2265 H 0.03507 0.30312 0.95192 0.0
H2266 H 0.04569 0.36719 1.01635 0.0
H2267 H 0.01743 0.35587 0.05857 0.0
C2268 C 0.10087 0.33099 0.98945 0.0
C2269 C 0.10577 0.31964 0.95563 0.0
C2270 C 0.08079 0.33902 0.99605 0.0
C2271 C 0.06512 0.33561 0.969 0.0
C2272 C 0.0707 0.32678 0.9334 0.0
C2273 C 0.09096 0.31888 0.92672 0.0
C2274 C 0.01421 0.30972 0.99711 0.0
C2275 C 0.01012 0.32348 1.02897 0.0
C2276 C 0.03064 0.31575 0.97344 0.0
C2277 C 0.04315 0.33563 0.9816 0.0
C2278 C 0.03668 0.35143 1.00994 0.0
C2279 C 0.02047 0.34514 1.03393 0.0
H2280 H 0.26371 0.31651 0.36034 0.0
H2281 H 0.23323 0.34014 0.25946 0.0
H2282 H 0.23401 0.32914 0.39736 0.0
H2283 H 0.20362 0.35394 0.2963 0.0
H2284 H 0.14882 0.31448 0.35847 0.0
H2285 H 0.1782 0.32843 0.32171 0.0
H2286 H 0.20794 0.35351 0.42331 0.0
H2287 H 0.17871 0.33835 0.45983 0.0
C2288 C 0.25106 0.32563 0.34645 0.0
C2289 C 0.25042 0.32699 0.30725 0.0
C2290 C 0.23395 0.33296 0.36757 0.0
C2291 C 0.21606 0.34199 0.34966 0.0
C2292 C 0.21684 0.34643 0.31085 0.0
C2293 C 0.23381 0.33874 0.28978 0.0
C2294 C 0.16125 0.32393 0.37253 0.0
C2295 C 0.16186 0.32501 0.41175 0.0
C2296 C 0.17816 0.33202 0.35158 0.0
C2297 C 0.1958 0.34155 0.36969 0.0
C2298 C 0.19492 0.34565 0.40859 0.0
C2299 C 0.17817 0.33718 0.42948 0.0
H2300 H 0.03262 0.99458 0.23999 0.0
H2301 H 0.01962 0.96917 0.35157 0.0
H2302 H 0.06946 0.98512 0.24861 0.0
H2303 H 0.05601 0.95975 0.36061 0.0
H2304 H 0.11796 0.95811 0.39039 0.0
H2305 H 0.09037 0.94317 0.34924 0.0
H2306 H 0.09018 1.01037 0.29038 0.0
H2307 H 0.1177 1.0247 0.33125 0.0
C2308 C 0.03755 0.98593 0.26565 0.0
C2309 C 0.0236 0.98302 0.29552 0.0
C2310 C 0.05859 0.98057 0.27066 0.0
C2311 C 0.06578 0.97214 0.30555 0.0
C2312 C 0.05115 0.96615 0.33331 0.0
C2313 C 0.03028 0.97173 0.32841 0.0
C2314 C 0.11276 0.96897 0.36711 0.0
C2315 C 0.1196 0.9925 0.36381 0.0
C2316 C 0.09693 0.96055 0.34371 0.0
C2317 C 0.08768 0.97579 0.31719 0.0
C2318 C 0.09688 0.99807 0.31039 0.0
C2319 C 0.11262 1.00641 0.33381 0.0
H2320 H 0.86917 0.03586 0.08302 0.0
H2321 H 0.8644 0.09864 0.15131 0.0
H2322 H 0.8407 0.04966 1.04388 0.0
H2323 H 0.83592 0.1131 0.11188 0.0
H2324 H 0.76723 0.0811 0.10978 0.0
H2325 H 0.80305 0.0924 0.12086 0.0
H2326 H 0.81802 0.07508 1.00566 0.0
H2327 H 0.78173 0.0637 0.99496 0.0
C2328 C 0.86279 0.05339 0.088 0.0
C2329 C 0.86863 0.06617 0.12001 0.0
C2330 C 0.84648 0.06141 0.06561 0.0
C2331 C 0.83565 0.08222 0.07542 0.0
C2332 C 0.84375 0.0968 0.10404 0.0
C2333 C 0.86009 0.08868 0.12645 0.0
C2334 C 0.77806 0.08062 0.08655 0.0
C2335 C 0.77201 0.07113 1.05188 0.0
C2336 C 0.79858 0.08734 0.09263 0.0
C2337 C 0.81353 0.08431 0.06423 0.0
C2338 C 0.80689 0.07741 1.02815 0.0
C2339 C 0.78618 0.07094 1.02198 0.0
H2340 H 0.01593 0.76175 0.11971 0.0
H2341 H 0.99989 0.70029 1.05401 0.0
H2342 H 0.98628 0.75463 0.16061 0.0
H2343 H 0.97067 0.69211 0.09582 0.0
H2344 H 0.90677 0.73261 0.10127 0.0
H2345 H 0.94118 0.7176 0.08783 0.0
H2346 H 0.96064 0.73531 0.20077 0.0
H2347 H 0.92569 0.75065 0.2138 0.0
C2348 C 1.00677 0.74581 0.11569 0.0
C2349 C 0.00979 0.73171 0.08377 0.0
C2350 C 0.98977 0.74163 0.13909 0.0
C2351 C 0.9757 0.72321 0.13067 0.0
C2352 C 0.98093 0.7068 0.1024 0.0
C2353 C 0.99769 0.71129 0.07866 0.0
C2354 C 0.91827 0.73264 0.12346 0.0
C2355 C 0.91387 0.74315 0.15818 0.0
C2356 C 0.93797 0.72375 0.11606 0.0
C2357 C 0.95381 0.7254 0.1432 0.0
C2358 C 0.94882 0.73394 0.17925 0.0
C2359 C 0.92888 0.74265 0.18675 0.0
H2360 H 0.86985 0.74314 0.76306 0.0
H2361 H 0.84167 0.72691 0.65655 0.0
H2362 H 0.83981 0.7269 0.79551 0.0
H2363 H 0.81179 0.70937 0.68848 0.0
H2364 H 0.78386 0.71197 0.85245 0.0
H2365 H 0.81396 0.70024 0.81513 0.0
H2366 H 0.78521 0.73141 0.71694 0.0
H2367 H 0.75498 0.74182 0.75425 0.0
C2368 C 0.85764 0.73481 0.74678 0.0
C2369 C 0.85774 0.73644 0.70763 0.0
C2370 C 0.84035 0.72542 0.76521 0.0
C2371 C 0.82301 0.71733 0.74457 0.0
C2372 C 0.82456 0.71604 0.70524 0.0
C2373 C 0.84169 0.72583 0.68692 0.0
C2374 C 0.78372 0.71515 0.82246 0.0
C2375 C 0.76742 0.72802 0.80607 0.0
C2376 C 0.80098 0.70869 0.80114 0.0
C2377 C 0.8024 0.71558 0.76328 0.0
C2378 C 0.7848 0.72572 0.74597 0.0
C2379 C 0.76738 0.73177 0.76725 0.0
H2380 H 0.90227 0.06781 0.76556 0.0
H2381 H 0.92649 0.08703 0.65726 0.0
H2382 H 0.93293 0.08428 0.79566 0.0
H2383 H 0.95704 0.10471 0.68694 0.0
H2384 H 0.01456 0.06659 0.74389 0.0
H2385 H 0.98412 0.0808 0.71049 0.0
H2386 H 0.95998 0.11006 0.81403 0.0
H2387 H 0.9903 0.0946 0.84727 0.0
C2388 C 0.91367 0.07694 0.7485 0.0
C2389 C 0.91236 0.07598 0.70937 0.0
C2390 C 0.93133 0.08646 0.76559 0.0
C2391 C 0.94787 0.09525 0.74359 0.0
C2392 C 0.94491 0.09751 0.70463 0.0
C2393 C 0.92738 0.08763 0.68762 0.0
C2394 C 1.00325 0.07719 0.75888 0.0
C2395 C 1.00444 0.07931 0.79793 0.0
C2396 C 0.98569 0.0854 0.73987 0.0
C2397 C 0.96916 0.09595 0.75984 0.0
C2398 C 0.9721 0.10141 0.79801 0.0
C2399 C 0.98951 0.09284 0.81701 0.0
H2400 H 0.2393 0.45834 0.59672 0.0
H2401 H 0.26208 0.48519 0.49153 0.0
H2402 H 0.20876 0.44198 0.56517 0.0
H2403 H 0.23143 0.47008 0.45977 0.0
H2404 H 0.17342 0.46424 0.40932 0.0
H2405 H 0.20395 0.44596 0.43806 0.0
H2406 H 0.18153 0.46759 0.5474 0.0
H2407 H 0.1509 0.48469 0.51826 0.0
C2408 C 0.23816 0.45963 0.56644 0.0
C2409 C 0.2527 0.47311 0.54634 0.0
C2410 C 0.22062 0.45053 0.54839 0.0
C2411 C 0.21717 0.45545 0.51017 0.0
C2412 C 0.23338 0.4659 0.48923 0.0
C2413 C 0.25105 0.47464 0.5073 0.0
C2414 C 0.17462 0.46371 0.43965 0.0
C2415 C 0.16015 0.47592 0.46181 0.0
C2416 C 0.19215 0.4535 0.45613 0.0
C2417 C 0.19565 0.45602 0.49492 0.0
C2418 C 0.17953 0.46524 0.51744 0.0
C2419 C 0.16188 0.47511 0.5009 0.0
H2420 H 0.10873 0.83464 0.49543 0.0
H2421 H 0.09278 0.80627 0.38682 0.0
H2422 H 0.07301 0.84653 0.50533 0.0
H2423 H 0.05659 0.81827 0.39628 0.0
H2424 H 1.00945 0.78267 0.4849 0.0
H2425 H 0.03624 0.79501 0.44107 0.0
H2426 H 0.0389 0.8638 0.49515 0.0
H2427 H 0.01204 0.85081 0.5394 0.0
C2428 C 0.09759 0.83191 0.47303 0.0
C2429 C 0.10316 0.81903 0.44095 0.0
C2430 C 0.07712 0.83895 0.47838 0.0
C2431 C 0.06179 0.83282 0.45191 0.0
C2432 C 0.06801 0.82292 0.41739 0.0
C2433 C 0.08866 0.81606 0.41192 0.0
C2434 C 0.01507 0.80081 0.48593 0.0
C2435 C 1.00914 0.81576 0.51538 0.0
C2436 C 0.03033 0.80804 0.46073 0.0
C2437 C 0.04011 0.83025 0.46523 0.0
C2438 C 0.03187 0.84647 0.4914 0.0
C2439 C 0.01653 0.83915 0.51661 0.0
H2440 H 0.26486 0.81742 0.86519 0.0
H2441 H 0.23765 0.84294 0.76252 0.0
H2442 H 0.23474 0.8311 0.9001 0.0
H2443 H 0.20765 0.85782 0.79722 0.0
H2444 H 0.17818 0.83948 0.95777 0.0
H2445 H 0.20822 0.85556 0.9245 0.0
H2446 H 0.18119 0.83242 0.81936 0.0
H2447 H 0.15102 0.81754 0.85294 0.0
C2448 C 0.25292 0.82731 0.85056 0.0
C2449 C 0.25326 0.8289 0.81138 0.0
C2450 C 0.23555 0.83521 0.87044 0.0
C2451 C 0.21836 0.84498 0.85128 0.0
C2452 C 0.2203 0.84977 0.8127 0.0
C2453 C 0.23752 0.84152 0.79286 0.0
C2454 C 0.17835 0.83908 0.92736 0.0
C2455 C 0.1626 0.82714 0.9077 0.0
C2456 C 0.19559 0.84803 0.90831 0.0
C2457 C 0.19753 0.84461 0.86937 0.0
C2458 C 0.18036 0.83547 0.84934 0.0
C2459 C 0.16298 0.82689 0.86845 0.0
H2460 H 0.09862 0.4573 0.94352 0.0
H2461 H 0.1223 0.49222 0.8451 0.0
H2462 H 0.06893 0.44258 0.90766 0.0
H2463 H 0.09242 0.47887 0.80932 0.0
H2464 H 0.00995 0.48501 0.86625 0.0
H2465 H 0.04124 0.46813 0.89346 0.0
H2466 H 0.06586 0.4563 0.78189 0.0
H2467 H 0.03467 0.4745 0.75534 0.0
C2468 C 0.09788 0.46078 0.91363 0.0
C2469 C 0.11239 0.47601 0.89687 0.0
C2470 C 0.08081 0.45264 0.89317 0.0
C2471 C 0.07776 0.46031 0.85599 0.0
C2472 C 0.09404 0.47259 0.83789 0.0
C2473 C 0.11128 0.48031 0.85828 0.0
C2474 C 0.02171 0.47777 0.84778 0.0
C2475 C 0.02028 0.48123 0.80904 0.0
C2476 C 0.0397 0.46797 0.86319 0.0
C2477 C 0.05646 0.4614 0.83985 0.0
C2478 C 0.05355 0.46177 0.8007 0.0
C2479 C 0.0357 0.47197 0.78544 0.0
H2480 H 0.77753 0.59229 0.56283 0.0
H2481 H 0.73864 0.5471 0.63039 0.0
H2482 H 0.80288 0.59433 0.61318 0.0
H2483 H 0.764 0.5491 0.68153 0.0
H2484 H 0.83083 0.51149 0.68104 0.0
H2485 H 0.79596 0.52614 0.66975 0.0
H2486 H 0.81854 0.59842 0.6763 0.0
H2487 H 0.85374 0.58327 0.68787 0.0
C2488 C 0.77399 0.58382 0.58938 0.0
C2489 C 0.75656 0.56905 0.59262 0.0
C2490 C 0.78842 0.58509 0.61844 0.0
C2491 C 0.78572 0.57127 0.65096 0.0
C2492 C 0.76663 0.5596 0.65647 0.0
C2493 C 0.75208 0.5585 0.62735 0.0
C2494 C 0.82812 0.53049 0.68133 0.0
C2495 C 0.84481 0.54632 0.68437 0.0
C2496 C 0.80811 0.53897 0.67539 0.0
C2497 C 0.80449 0.56351 0.67169 0.0
C2498 C 0.8209 0.57943 0.67882 0.0
C2499 C 0.84098 0.57084 0.68535 0.0
H2500 H 0.0132 0.23468 0.61545 0.0
H2501 H 0.98662 0.20961 0.51188 0.0
H2502 H 0.98291 0.22075 0.64956 0.0
H2503 H 0.95649 0.19436 0.54582 0.0
H2504 H 0.90019 0.23611 0.59956 0.0
H2505 H 0.93009 0.21983 0.56702 0.0
H2506 H 0.95588 0.19706 0.67335 0.0
H2507 H 0.9261 0.21462 0.70552 0.0
C2508 C 1.00134 0.22486 0.60043 0.0
C2509 C 1.00187 0.22353 0.56124 0.0
C2510 C 0.98389 0.21678 0.61987 0.0
C2511 C 0.96682 0.20707 0.60024 0.0
C2512 C 0.96902 0.20241 0.56165 0.0
C2513 C 0.9863 0.2109 0.54223 0.0
C2514 C 0.91177 0.2265 0.61555 0.0
C2515 C 0.91118 0.22678 0.65476 0.0
C2516 C 0.92901 0.2171 0.59704 0.0
C2517 C 0.94584 0.20773 0.6177 0.0
C2518 C 0.94353 0.20475 0.65668 0.0
C2519 C 0.92643 0.21453 0.67511 0.0
H2520 H 0.75842 0.23718 0.2467 0.0
H2521 H 0.78334 0.21666 0.35392 0.0
H2522 H 0.7894 0.22233 0.21569 0.0
H2523 H 0.81422 0.20053 0.32327 0.0
H2524 H 0.87126 0.24015 0.26787 0.0
H2525 H 0.84092 0.22513 0.30066 0.0
H2526 H 0.81673 0.19768 0.19582 0.0
H2527 H 0.84691 0.21401 0.16324 0.0
C2528 C 0.77009 0.22812 0.26326 0.0
C2529 C 0.76882 0.2282 0.30242 0.0
C2530 C 0.78793 0.21952 0.24564 0.0
C2531 C 0.8047 0.21079 0.26712 0.0
C2532 C 0.8019 0.20772 0.30598 0.0
C2533 C 0.78419 0.21669 0.32354 0.0
C2534 C 0.85994 0.2298 0.2524 0.0
C2535 C 0.86108 0.22842 0.21327 0.0
C2536 C 0.84245 0.22112 0.27105 0.0
C2537 C 0.82594 0.2108 0.25066 0.0
C2538 C 0.82882 0.20615 0.21221 0.0
C2539 C 0.84615 0.21522 0.19357 0.0
H2540 H 0.90901 0.52089 0.27419 0.0
H2541 H 0.90094 0.5908 0.22759 0.0
H2542 H 0.93457 0.53618 0.31825 0.0
H2543 H 0.92688 0.60658 0.27167 0.0
H2544 H 1.00049 0.58907 0.2715 0.0
H2545 H 0.96369 0.59549 0.26074 0.0
H2546 H 0.94988 0.56228 0.36728 0.0
H2547 H 0.98707 0.55601 0.37774 0.0
C2548 C 0.91215 0.5398 0.27475 0.0
C2549 C 0.90344 0.5547 0.24756 0.0
C2550 C 0.92664 0.5487 0.30015 0.0
C2551 C 0.93299 0.57259 0.29812 0.0
C2552 C 0.92237 0.58808 0.27372 0.0
C2553 C 0.90758 0.57914 0.24857 0.0
C2554 C 0.98959 0.58433 0.2934 0.0
C2555 C 0.99635 0.57165 0.32494 0.0
C2556 C 0.96848 0.58812 0.28748 0.0
C2557 C 0.95383 0.57883 0.31278 0.0
C2558 C 0.96084 0.56935 0.3471 0.0
C2559 C 0.98207 0.56581 0.35317 0.0
H2560 H 0.73469 0.99185 0.6188 0.0
H2561 H 0.75677 0.97182 0.50931 0.0
H2562 H 0.69952 0.97905 0.60151 0.0
H2563 H 0.72219 0.95943 0.49136 0.0
H2564 H 0.66284 0.95259 0.44776 0.0
H2565 H 0.68998 0.93973 0.49133 0.0
H2566 H 0.6776 1.00136 0.56052 0.0
H2567 H 0.6499 1.01302 0.51784 0.0
C2568 C 0.73211 0.98362 0.5917 0.0
C2569 C 0.74811 0.98295 0.56507 0.0
C2570 C 0.71203 0.97649 0.5816 0.0
C2571 C 0.70783 0.96871 0.54473 0.0
C2572 C 0.72463 0.96518 0.52005 0.0
C2573 C 0.74452 0.97237 0.53012 0.0
C2574 C 0.66534 0.96251 0.47345 0.0
C2575 C 0.65463 0.98378 0.47968 0.0
C2576 C 0.68092 0.95533 0.49826 0.0
C2577 C 0.68649 0.96991 0.52882 0.0
C2578 C 0.67384 0.98959 0.53742 0.0
C2579 C 0.65798 0.99644 0.51296 0.0
H2580 H 0.5296 0.30759 0.62221 0.0
H2581 H 0.51647 0.32976 0.50889 0.0
H2582 H 0.5666 0.31536 0.61208 0.0
H2583 H 0.55311 0.33767 0.49852 0.0
H2584 H 0.61637 0.33817 0.47102 0.0
H2585 H 0.5885 0.35422 0.51056 0.0
H2586 H 0.58516 0.28713 0.56935 0.0
H2587 H 0.61267 0.27149 0.52964 0.0
C2588 C 0.53456 0.31522 0.59579 0.0
C2589 C 0.52048 0.31763 0.56595 0.0
C2590 C 0.55568 0.31965 0.58997 0.0
C2591 C 0.5628 0.32674 0.55435 0.0
C2592 C 0.54819 0.33232 0.52635 0.0
C2593 C 0.52722 0.32758 0.53204 0.0
C2594 C 0.61029 0.32748 0.49378 0.0
C2595 C 0.61625 0.30366 0.49743 0.0
C2596 C 0.59439 0.33657 0.51631 0.0
C2597 C 0.58443 0.32183 0.54265 0.0
C2598 C 0.59255 0.29904 0.54955 0.0
C2599 C 0.6082 0.28996 0.52676 0.0
H2600 H 0.75335 0.34048 0.84797 0.0
H2601 H 0.73751 0.30738 0.7428 0.0
H2602 H 0.71695 0.34821 0.86039 0.0
H2603 H 0.70065 0.31507 0.7548 0.0
H2604 H 0.65717 0.27766 0.84713 0.0
H2605 H 0.68353 0.29091 0.80298 0.0
H2606 H 0.68118 0.36133 0.85156 0.0
H2607 H 0.65469 0.34749 0.89603 0.0
C2608 C 0.742 0.33599 0.82666 0.0
C2609 C 0.74798 0.32304 0.79488 0.0
C2610 C 0.7211 0.3405 0.83354 0.0
C2611 C 0.70581 0.33174 0.80894 0.0
C2612 C 0.71208 0.32173 0.7745 0.0
C2613 C 0.73312 0.31743 0.76749 0.0
C2614 C 0.66164 0.29622 0.84693 0.0
C2615 C 0.65425 0.31158 0.87475 0.0
C2616 C 0.67664 0.30395 0.82156 0.0
C2617 C 0.68473 0.32714 0.82413 0.0
C2618 C 0.67539 0.34331 0.84915 0.0
C2619 C 0.66025 0.3355 0.87446 0.0
H2620 H 0.53104 0.99299 0.73916 0.0
H2621 H 0.51967 0.96791 0.85156 0.0
H2622 H 0.56826 0.98591 0.74751 0.0
H2623 H 0.55652 0.9609 0.8603 0.0
H2624 H 0.61936 0.96371 0.888 0.0
H2625 H 0.592 0.94662 0.84834 0.0
H2626 H 0.58711 1.01345 0.78912 0.0
H2627 H 0.6142 0.03003 0.82875 0.0
C2628 C 0.53644 0.9849 0.76497 0.0
C2629 C 0.52275 0.9815 0.79514 0.0
C2630 C 0.5577 0.98089 0.7698 0.0
C2631 C 0.56542 0.97335 0.80483 0.0
C2632 C 0.55122 0.96669 0.83293 0.0
C2633 C 0.53009 0.97092 0.82818 0.0
C2634 C 0.61313 0.97412 0.86505 0.0
C2635 C 0.61847 0.99814 0.86137 0.0
C2636 C 0.59746 0.96445 0.84248 0.0
C2637 C 0.58706 0.97883 0.81614 0.0
C2638 C 0.59475 1.00179 0.80897 0.0
C2639 C 0.6102 1.01142 0.83173 0.0
H2640 H 0.28166 0.06257 0.49101 0.0
H2641 H 0.26903 0.08374 0.60498 0.0
H2642 H 0.3184 0.07246 0.49975 0.0
H2643 H 0.30535 0.09355 0.61413 0.0
H2644 H 0.36726 0.09517 0.64308 0.0
H2645 H 0.33946 0.11118 0.60348 0.0
H2646 H 0.3396 0.04607 0.53891 0.0
H2647 H 0.36728 0.03067 0.57832 0.0
C2648 C 0.28663 0.07038 0.51733 0.0
C2649 C 0.27283 0.07194 0.5477 0.0
C2650 C 0.30761 0.076 0.52239 0.0
C2651 C 0.31491 0.08333 0.55783 0.0
C2652 C 0.30039 0.08802 0.58639 0.0
C2653 C 0.27957 0.08218 0.58142 0.0
C2654 C 0.36209 0.08507 0.61891 0.0
C2655 C 0.36903 0.06173 0.6136 0.0
C2656 C 0.34615 0.0941 0.59639 0.0
C2657 C 0.33692 0.07965 0.56871 0.0
C2658 C 0.34627 0.05775 0.55989 0.0
C2659 C 0.36211 0.04879 0.58247 0.0
H2660 H 0.399 0.7578 0.59264 0.0
H2661 H 0.41206 0.70035 0.66859 0.0
H2662 H 0.42768 0.74552 0.5527 0.0
H2663 H 0.44036 0.687 0.62797 0.0
H2664 H 0.50536 0.72583 0.61752 0.0
H2665 H 0.47096 0.71114 0.63193 0.0
H2666 H 0.45244 0.72235 0.51644 0.0
H2667 H 0.48738 0.73731 0.50244 0.0
C2668 C 0.40727 0.74158 0.59931 0.0
C2669 C 0.40379 0.73015 0.63359 0.0
C2670 C 0.42369 0.7344 0.57644 0.0
C2671 C 0.43678 0.71572 0.58788 0.0
C2672 C 0.43087 0.70183 0.61896 0.0
C2673 C 0.41467 0.70931 0.6421 0.0
C2674 C 0.4941 0.72432 0.59503 0.0
C2675 C 0.49867 0.73312 0.55926 0.0
C2676 C 0.4744 0.71562 0.60303 0.0
C2677 C 0.45875 0.7159 0.5754 0.0
C2678 C 0.4641 0.72217 0.53838 0.0
C2679 C 0.48402 0.73067 0.53032 0.0
H2680 H 0.33918 0.71419 0.15136 0.0
H2681 H 0.36527 0.73322 0.25847 0.0
H2682 H 0.30921 0.69638 0.18256 0.0
H2683 H 0.33511 0.7168 0.29007 0.0
H2684 H 0.27854 0.70802 0.3444 0.0
H2685 H 0.30818 0.69184 0.31013 0.0
H2686 H 0.28248 0.71994 0.20696 0.0
H2687 H 0.2527 0.73476 0.24143 0.0
C2688 C 0.33876 0.71365 0.18176 0.0
C2689 C 0.35412 0.72532 0.20276 0.0
C2690 C 0.32159 0.70366 0.19965 0.0
C2691 C 0.31926 0.70592 0.23876 0.0
C2692 C 0.33617 0.71467 0.25992 0.0
C2693 C 0.35353 0.72421 0.24195 0.0
C2694 C 0.27884 0.70936 0.31406 0.0
C2695 C 0.26369 0.72274 0.29531 0.0
C2696 C 0.29586 0.70038 0.29445 0.0
C2697 C 0.29822 0.70536 0.25599 0.0
C2698 C 0.2814 0.71572 0.23654 0.0
C2699 C 0.26421 0.72429 0.25617 0.0
H2700 H 0.51434 0.06825 0.24957 0.0
H2701 H 0.48605 0.09479 0.35063 0.0
H2702 H 0.48428 0.08093 0.21342 0.0
H2703 H 0.4561 0.10862 0.31465 0.0
H2704 H 0.39997 0.06791 0.25793 0.0
H2705 H 0.42997 0.08276 0.2922 0.0
H2706 H 0.45794 0.10514 0.18758 0.0
H2707 H 0.42806 0.08914 0.15364 0.0
C2708 C 0.50215 0.0781 0.26357 0.0
C2709 C 0.5022 0.08029 0.30269 0.0
C2710 C 0.48482 0.08542 0.24297 0.0
C2711 C 0.4674 0.09523 0.26132 0.0
C2712 C 0.46896 0.10053 0.29979 0.0
C2713 C 0.48614 0.09287 0.32036 0.0
C2714 C 0.41211 0.07706 0.24265 0.0
C2715 C 0.41202 0.07714 0.20339 0.0
C2716 C 0.42939 0.08563 0.26216 0.0
C2717 C 0.44674 0.09459 0.24253 0.0
C2718 C 0.44515 0.09776 0.20349 0.0
C2719 C 0.42801 0.08885 0.18406 0.0
H2720 H 0.64921 0.48916 1.01246 0.0
H2721 H 0.67526 0.46079 0.91073 0.0
H2722 H 0.67916 0.47529 1.04762 0.0
H2723 H 0.70504 0.44559 0.94577 0.0
H2724 H 0.76272 0.48589 0.99749 0.0
H2725 H 0.73209 0.47064 0.96569 0.0
H2726 H 0.70549 0.45137 0.07305 0.0
H2727 H 0.73601 0.46792 0.10441 0.0
C2728 C 0.66083 0.47861 0.99818 0.0
C2729 C 0.66028 0.47629 0.95911 0.0
C2730 C 0.6781 0.47058 1.0182 0.0
C2731 C 0.69496 0.45993 0.99929 0.0
C2732 C 0.69268 0.45435 0.96101 0.0
C2733 C 0.67558 0.46279 0.94098 0.0
C2734 C 0.75072 0.47732 1.01391 0.0
C2735 C 0.75139 0.47825 1.0531 0.0
C2736 C 0.73308 0.4685 0.99584 0.0
C2737 C 0.71593 0.46034 1.0169 0.0
C2738 C 0.71811 0.45813 1.05603 0.0
C2739 C 0.73561 0.46734 0.07401 0.0
H2740 H 0.61728 0.81524 1.00596 0.0
H2741 H 0.58682 0.83708 0.90407 0.0
H2742 H 0.58755 0.82849 1.0424 0.0
H2743 H 0.55722 0.85159 0.94026 0.0
H2744 H 0.53229 0.83936 0.10456 0.0
H2745 H 0.56172 0.85334 0.06739 0.0
H2746 H 0.53155 0.82717 0.96689 0.0
H2747 H 0.50198 0.81447 1.00425 0.0
C2748 C 0.60461 0.8241 0.99168 0.0
C2749 C 0.604 0.82481 0.95244 0.0
C2750 C 0.58749 0.83178 1.01245 0.0
C2751 C 0.56963 0.84056 0.99416 0.0
C2752 C 0.57042 0.84428 0.95516 0.0
C2753 C 0.58738 0.83619 0.93444 0.0
C2754 C 0.53171 0.83772 0.07426 0.0
C2755 C 0.51519 0.82564 0.05705 0.0
C2756 C 0.54858 0.84549 1.053 0.0
C2757 C 0.54938 0.84073 1.01427 0.0
C2758 C 0.53158 0.83126 0.9966 0.0
C2759 C 0.51455 0.8239 1.01789 0.0
H2760 H 0.6512 0.84282 0.40067 0.0
H2761 H 0.65082 0.78314 0.32519 0.0
H2762 H 0.68006 0.8605 0.36559 0.0
H2763 H 0.67939 0.80034 0.29001 0.0
H2764 H 0.74981 0.83013 0.36508 0.0
H2765 H 0.71367 0.84054 0.37467 0.0
H2766 H 0.70154 0.82907 0.25659 0.0
H2767 H 0.73804 0.81847 0.24735 0.0
C2768 C 0.65654 0.83426 0.3752 0.0
C2769 C 0.64922 0.81161 0.36558 0.0
C2770 C 0.67307 0.84425 0.35523 0.0
C2771 C 0.68238 0.83152 0.32563 0.0
C2772 C 0.67268 0.81068 0.3126 0.0
C2773 C 0.65634 0.80069 0.33274 0.0
C2774 C 0.73954 0.83074 0.34101 0.0
C2775 C 0.74643 0.82292 0.3058 0.0
C2776 C 0.71885 0.837 0.34628 0.0
C2777 C 0.7046 0.83519 0.31645 0.0
C2778 C 0.71213 0.83037 0.28015 0.0
C2779 C 0.73298 0.82432 0.27484 0.0
H2780 H 0.53107 0.48936 0.24188 0.0
H2781 H 0.51681 0.46562 0.3539 0.0
H2782 H 0.56775 0.47982 0.25207 0.0
H2783 H 0.55306 0.45615 0.36449 0.0
H2784 H 0.61474 0.45607 0.39686 0.0
H2785 H 0.58782 0.43998 0.35527 0.0
H2786 H 0.58738 0.50624 0.29382 0.0
H2787 H 0.61418 0.52174 0.33517 0.0
C2788 C 0.53569 0.48102 0.26799 0.0
C2789 C 0.52144 0.4787 0.29755 0.0
C2790 C 0.55663 0.4756 0.27388 0.0
C2791 C 0.56342 0.46776 0.30936 0.0
C2792 C 0.54849 0.46214 0.33679 0.0
C2793 C 0.52771 0.46777 0.33099 0.0
C2794 C 0.60958 0.46649 0.37305 0.0
C2795 C 0.61612 0.49009 0.36904 0.0
C2796 C 0.59418 0.4574 0.34936 0.0
C2797 C 0.58509 0.47202 0.32182 0.0
C2798 C 0.59399 0.4944 0.31459 0.0
C2799 C 0.60928 0.50343 0.33833 0.0
H2800 H 0.36591 0.52567 0.08229 0.0
H2801 H 0.36947 0.59409 0.13574 0.0
H2802 H 0.33954 0.54042 1.0395 0.0
H2803 H 0.343 0.60946 0.09258 0.0
H2804 H 0.27088 0.58894 0.09337 0.0
H2805 H 0.30754 0.59663 0.10283 0.0
H2806 H 0.32095 0.56515 0.99471 0.0
H2807 H 0.28383 0.55739 0.98576 0.0
C2808 C 0.36177 0.54432 0.08327 0.0
C2809 C 0.36936 0.55875 0.11218 0.0
C2810 C 0.34671 0.55291 0.05869 0.0
C2811 C 0.33876 0.57604 0.06317 0.0
C2812 C 0.34859 0.59147 0.0888 0.0
C2813 C 0.36378 0.58279 0.11334 0.0
C2814 C 0.28162 0.58475 0.07094 0.0
C2815 C 0.27478 0.57218 1.03932 0.0
C2816 C 0.30268 0.58929 0.07611 0.0
C2817 C 0.3173 0.58094 1.0499 0.0
C2818 C 0.31008 0.57144 1.01568 0.0
C2819 C 0.28888 0.56708 1.01042 0.0
H2820 H 0.40069 0.23604 0.11292 0.0
H2821 H 0.42992 0.21272 0.21516 0.0
H2822 H 0.43069 0.22292 0.07712 0.0
H2823 H 0.4598 0.19838 0.17956 0.0
H2824 H 0.51536 0.23755 0.11907 0.0
H2825 H 0.48566 0.22351 0.15488 0.0
H2826 H 0.45695 0.19847 1.0523 0.0
H2827 H 0.4865 0.21376 1.01675 0.0
C2828 C 0.41312 0.22686 0.12736 0.0
C2829 C 0.41333 0.22573 0.16659 0.0
C2830 C 0.4304 0.21925 0.10695 0.0
C2831 C 0.44803 0.21017 0.12561 0.0
C2832 C 0.44679 0.20593 0.16444 0.0
C2833 C 0.42966 0.21393 0.1848 0.0
C2834 C 0.50312 0.22802 0.10463 0.0
C2835 C 0.5029 0.22696 0.06541 0.0
C2836 C 0.48601 0.2199 0.12502 0.0
C2837 C 0.46853 0.21042 0.10633 0.0
C2838 C 0.46983 0.20629 0.06746 0.0
C2839 C 0.48679 0.21479 1.04713 0.0
H2840 H 0.36347 0.27506 0.7918 0.0
H2841 H 0.36796 0.21132 0.7256 0.0
H2842 H 0.33607 0.25733 0.82924 0.0
H2843 H 0.34024 0.19309 0.76296 0.0
H2844 H 0.2686 0.21771 0.75853 0.0
H2845 H 0.30526 0.20918 0.75095 0.0
H2846 H 0.31607 0.22856 0.86683 0.0
H2847 H 0.27909 0.23726 0.87404 0.0
C2848 C 0.35927 0.25669 0.78681 0.0
C2849 C 0.36739 0.24457 0.75583 0.0
C2850 C 0.34364 0.24637 0.80831 0.0
C2851 C 0.3356 0.22396 0.79845 0.0
C2852 C 0.34595 0.2105 0.77087 0.0
C2853 C 0.36181 0.22083 0.74959 0.0
C2854 C 0.27872 0.21919 0.78272 0.0
C2855 C 0.27128 0.22877 0.81643 0.0
C2856 C 0.29973 0.21403 0.77863 0.0
C2857 C 0.31369 0.21873 0.80812 0.0
C2858 C 0.3057 0.22507 0.84351 0.0
C2859 C 0.28456 0.23004 0.84765 0.0
H2860 H 0.5027 0.60399 0.80009 0.0
H2861 H 0.51402 0.53791 0.74306 0.0
H2862 H 0.47551 0.61379 0.75465 0.0
H2863 H 0.48626 0.54662 0.69877 0.0
H2864 H 0.42883 0.55344 0.63936 0.0
H2865 H 0.46446 0.56604 0.65378 0.0
H2866 H 0.44298 0.59489 0.75955 0.0
H2867 H 0.40795 0.58263 0.74448 0.0
C2868 C 0.49987 0.5921 0.77671 0.0
C2869 C 0.51012 0.57022 0.77483 0.0
C2870 C 0.48425 0.59753 0.75089 0.0
C2871 C 0.47818 0.58066 0.72377 0.0
C2872 C 0.49041 0.56012 0.71913 0.0
C2873 C 0.5063 0.55498 0.74454 0.0
C2874 C 0.43181 0.56348 0.66476 0.0
C2875 C 0.41597 0.56683 0.69123 0.0
C2876 C 0.45214 0.57054 0.6732 0.0
C2877 C 0.45675 0.58104 0.70818 0.0
C2878 C 0.44022 0.587 0.73226 0.0
C2879 C 0.42008 0.57984 0.72389 0.0
loop_
_geom_bond_atom_site_label_1
_geom_bond_atom_site_label_2
_geom_bond_distance
_geom_bond_site_symmetry_2
_ccdc_geom_bond_type
Co0 N5 2.056 1_545 S
Co0 O17 2.021 . S
Co0 O20 2.062 . S
Co0 O24 2.117 1_545 S
Co0 O25 2.020 . S
C1 O21 1.259 . S
C1 O24 1.258 . S
Co2 N11 2.057 1_565 S
Co2 O18 2.117 1_565 S
Co2 O19 2.020 . S
Co2 O21 2.021 . S
Co2 O26 2.062 1_565 S
C3 N5 1.313 1_545 S
C3 N6 1.347 . S
C3 H8 0.931 . S
C4 N5 1.379 . S
C4 C7 1.350 . S
C4 H9 0.930 . S
N5 Co0 2.056 1_565 S
N5 C3 1.313 1_565 S
N5 C4 1.379 . S
N6 C3 1.347 . S
N6 C7 1.373 1_545 S
C7 C4 1.350 . S
C7 N6 1.373 1_565 S
C7 H28 0.931 . S
H8 C3 0.931 . S
H9 C4 0.930 . S
C10 O17 1.259 . S
C10 O18 1.258 . S
N11 Co2 2.057 1_545 S
N11 C12 1.316 1_545 S
N11 C13 1.375 . S
C12 N11 1.316 1_565 S
C12 N14 1.331 1_564 S
C12 H23 0.931 . S
C13 N11 1.375 . S
C13 C15 1.350 . S
C13 H22 0.930 . S
N14 C12 1.331 1_546 S
N14 C15 1.386 1_556 S
C15 C13 1.350 . S
C15 N14 1.386 1_554 S
C15 H29 0.931 . S
C16 O19 1.261 . S
C16 O20 1.247 1_565 S
O17 Co0 2.021 . S
O17 C10 1.259 . S
O18 Co2 2.117 1_545 S
O18 C10 1.258 . S
O19 Co2 2.020 . S
O19 C16 1.261 . S
O20 Co0 2.062 . S
O20 C16 1.247 1_545 S
O21 C1 1.259 . S
O21 Co2 2.021 . S
H22 C13 0.930 . S
H23 C12 0.931 . S
O24 Co0 2.117 1_565 S
O24 C1 1.258 . S
O25 Co0 2.020 . S
O25 C27 1.256 . S
O26 Co2 2.062 1_545 S
O26 C27 1.255 . S
C27 O25 1.256 . S
C27 O26 1.255 . S
H28 C7 0.931 . S
H29 C15 0.931 . S
Co30 N35 2.057 . S
Co30 O47 2.021 . S
Co30 O50 2.062 . S
Co30 O54 2.117 . S
Co30 O55 2.020 . S
C31 O51 1.259 . S
C31 O54 1.258 . S
Co32 N41 2.057 . S
Co32 O48 2.117 . S
Co32 O49 2.020 . S
Co32 O51 2.021 . S
Co32 O56 2.062 . S
C33 N35 1.316 . S
C33 N36 1.347 . S
C33 H38 0.931 . S
C34 N35 1.375 . S
C34 C37 1.350 . S
C34 H39 0.930 . S
N35 Co30 2.057 . S
N35 C33 1.316 . S
N35 C34 1.375 . S
N36 C33 1.347 . S
N36 C37 1.373 . S
C37 C34 1.350 . S
C37 N36 1.373 . S
C37 H58 0.931 . S
H38 C33 0.931 . S
H39 C34 0.930 . S
C40 O47 1.259 . S
C40 O48 1.258 . S
N41 Co32 2.057 . S
N41 C42 1.316 . S
N41 C43 1.375 . S
C42 N41 1.316 . S
C42 N44 1.339 1_554 S
C42 H53 0.931 . S
C43 N41 1.375 . S
C43 C45 1.350 . S
C43 H52 0.930 . S
N44 C42 1.339 1_556 S
N44 C45 1.369 1_556 S
C45 C43 1.350 . S
C45 N44 1.369 1_554 S
C45 H59 0.931 . S
C46 O49 1.256 . S
C46 O50 1.255 . S
O47 Co30 2.021 . S
O47 C40 1.259 . S
O48 Co32 2.117 . S
O48 C40 1.258 . S
O49 Co32 2.020 . S
O49 C46 1.256 . S
O50 Co30 2.062 . S
O50 C46 1.255 . S
O51 C31 1.259 . S
O51 Co32 2.021 . S
H52 C43 0.930 . S
H53 C42 0.931 . S
O54 Co30 2.117 . S
O54 C31 1.258 . S
O55 Co30 2.020 . S
O55 C57 1.256 . S
O56 Co32 2.062 . S
O56 C57 1.255 . S
C57 O55 1.256 . S
C57 O56 1.255 . S
H58 C37 0.931 . S
H59 C45 0.931 . S
Co60 N65 2.057 . S
Co60 O77 2.021 . S
Co60 O80 2.062 . S
Co60 O84 2.117 . S
Co60 O85 2.020 . S
C61 O81 1.259 . S
C61 O84 1.258 . S
Co62 N71 2.057 . S
Co62 O78 2.117 . S
Co62 O79 2.020 . S
Co62 O81 2.021 . S
Co62 O86 2.062 . S
C63 N65 1.316 . S
C63 N66 1.347 . S
C63 H68 0.931 . S
C64 N65 1.375 . S
C64 C67 1.350 . S
C64 H69 0.930 . S
N65 Co60 2.057 . S
N65 C63 1.316 . S
N65 C64 1.375 . S
N66 C63 1.347 . S
N66 C67 1.373 . S
C67 C64 1.350 . S
C67 N66 1.373 . S
C67 H88 0.931 . S
H68 C63 0.931 . S
H69 C64 0.930 . S
C70 O77 1.259 . S
C70 O78 1.258 . S
N71 Co62 2.057 . S
N71 C72 1.316 . S
N71 C73 1.375 . S
C72 N71 1.316 . S
C72 N74 1.347 . S
C72 H83 0.931 . S
C73 N71 1.375 . S
C73 C75 1.350 . S
C73 H82 0.930 . S
N74 C72 1.347 . S
N74 C75 1.373 . S
C75 C73 1.350 . S
C75 N74 1.373 . S
C75 H89 0.931 . S
C76 O79 1.256 . S
C76 O80 1.255 . S
O77 Co60 2.021 . S
O77 C70 1.259 . S
O78 Co62 2.117 . S
O78 C70 1.258 . S
O79 Co62 2.020 . S
O79 C76 1.256 . S
O80 Co60 2.062 . S
O80 C76 1.255 . S
O81 C61 1.259 . S
O81 Co62 2.021 . S
H82 C73 0.930 . S
H83 C72 0.931 . S
O84 Co60 2.117 . S
O84 C61 1.258 . S
O85 Co60 2.020 . S
O85 C87 1.256 . S
O86 Co62 2.062 . S
O86 C87 1.255 . S
C87 O85 1.256 . S
C87 O86 1.255 . S
H88 C67 0.931 . S
H89 C75 0.931 . S
Co90 N95 2.056 1_545 S
Co90 O107 2.021 . S
Co90 O110 2.062 . S
Co90 O114 2.117 1_545 S
Co90 O115 2.020 . S
C91 O111 1.259 . S
C91 O114 1.258 . S
Co92 N101 2.057 1_565 S
Co92 O108 2.117 1_565 S
Co92 O109 2.020 . S
Co92 O111 2.021 . S
Co92 O116 2.062 1_565 S
C93 N95 1.313 1_545 S
C93 N96 1.347 . S
C93 H98 0.931 . S
C94 N95 1.379 . S
C94 C97 1.350 . S
C94 H99 0.930 . S
N95 Co90 2.056 1_565 S
N95 C93 1.313 1_565 S
N95 C94 1.379 . S
N96 C93 1.347 . S
N96 C97 1.373 1_545 S
C97 C94 1.350 . S
C97 N96 1.373 1_565 S
C97 H118 0.931 . S
H98 C93 0.931 . S
H99 C94 0.930 . S
C100 O107 1.259 . S
C100 O108 1.258 . S
N101 Co92 2.057 1_545 S
N101 C102 1.316 1_545 S
N101 C103 1.375 . S
C102 N101 1.316 1_565 S
C102 N104 1.339 1_565 S
C102 H113 0.931 . S
C103 N101 1.375 . S
C103 C105 1.350 . S
C103 H112 0.930 . S
N104 C102 1.339 1_545 S
N104 C105 1.390 . S
C105 C103 1.350 . S
C105 N104 1.390 . S
C105 H119 0.931 . S
C106 O109 1.261 . S
C106 O110 1.247 1_565 S
O107 Co90 2.021 . S
O107 C100 1.259 . S
O108 Co92 2.117 1_545 S
O108 C100 1.258 . S
O109 Co92 2.020 . S
O109 C106 1.261 . S
O110 Co90 2.062 . S
O110 C106 1.247 1_545 S
O111 C91 1.259 . S
O111 Co92 2.021 . S
H112 C103 0.930 . S
H113 C102 0.931 . S
O114 Co90 2.117 1_565 S
O114 C91 1.258 . S
O115 Co90 2.020 . S
O115 C117 1.256 . S
O116 Co92 2.062 1_545 S
O116 C117 1.255 . S
C117 O115 1.256 . S
C117 O116 1.255 . S
H118 C97 0.931 . S
H119 C105 0.931 . S
Co120 N125 2.057 1_545 S
Co120 O137 2.021 . S
Co120 O140 2.062 1_545 S
Co120 O144 2.117 1_545 S
Co120 O145 2.020 . S
C121 O141 1.259 . S
C121 O144 1.258 . S
Co122 N131 2.056 1_565 S
Co122 O138 2.117 1_565 S
Co122 O139 2.020 . S
Co122 O141 2.021 . S
Co122 O146 2.062 . S
C123 N125 1.316 1_545 S
C123 N126 1.331 1_546 S
C123 H128 0.931 . S
C124 N125 1.375 . S
C124 C127 1.350 . S
C124 H129 0.930 . S
N125 Co120 2.057 1_565 S
N125 C123 1.316 1_565 S
N125 C124 1.375 . S
N126 C123 1.331 1_564 S
N126 C127 1.386 1_554 S
C127 C124 1.350 . S
C127 N126 1.386 1_556 S
C127 H148 0.931 . S
H128 C123 0.931 . S
H129 C124 0.930 . S
C130 O137 1.259 . S
C130 O138 1.258 . S
N131 Co122 2.056 1_545 S
N131 C132 1.313 1_545 S
N131 C133 1.379 . S
C132 N131 1.313 1_565 S
C132 N134 1.347 . S
C132 H143 0.931 . S
C133 N131 1.379 . S
C133 C135 1.350 . S
C133 H142 0.930 . S
N134 C132 1.347 . S
N134 C135 1.373 1_565 S
C135 C133 1.350 . S
C135 N134 1.373 1_545 S
C135 H149 0.931 . S
C136 O139 1.256 . S
C136 O140 1.255 . S
O137 Co120 2.021 . S
O137 C130 1.259 . S
O138 Co122 2.117 1_545 S
O138 C130 1.258 . S
O139 Co122 2.020 . S
O139 C136 1.256 . S
O140 Co120 2.062 1_565 S
O140 C136 1.255 . S
O141 C121 1.259 . S
O141 Co122 2.021 . S
H142 C133 0.930 . S
H143 C132 0.931 . S
O144 Co120 2.117 1_565 S
O144 C121 1.258 . S
O145 Co120 2.020 . S
O145 C147 1.261 . S
O146 Co122 2.062 . S
O146 C147 1.247 1_565 S
C147 O145 1.261 . S
C147 O146 1.247 1_545 S
H148 C127 0.931 . S
H149 C135 0.931 . S
Co150 N155 2.057 . S
Co150 O167 2.021 . S
Co150 O170 2.062 . S
Co150 O174 2.117 . S
Co150 O175 2.020 . S
C151 O171 1.259 . S
C151 O174 1.258 . S
Co152 N161 2.057 . S
Co152 O168 2.117 . S
Co152 O169 2.020 . S
Co152 O171 2.021 . S
Co152 O176 2.062 . S
C153 N155 1.316 . S
C153 N156 1.339 1_556 S
C153 H158 0.931 . S
C154 N155 1.375 . S
C154 C157 1.350 . S
C154 H159 0.930 . S
N155 Co150 2.057 . S
N155 C153 1.316 . S
N155 C154 1.375 . S
N156 C153 1.339 1_554 S
N156 C157 1.369 1_554 S
C157 C154 1.350 . S
C157 N156 1.369 1_556 S
C157 H178 0.931 . S
H158 C153 0.931 . S
H159 C154 0.930 . S
C160 O167 1.259 . S
C160 O168 1.258 . S
N161 Co152 2.057 . S
N161 C162 1.316 . S
N161 C163 1.375 . S
C162 N161 1.316 . S
C162 N164 1.347 . S
C162 H173 0.931 . S
C163 N161 1.375 . S
C163 C165 1.350 . S
C163 H172 0.930 . S
N164 C162 1.347 . S
N164 C165 1.373 . S
C165 C163 1.350 . S
C165 N164 1.373 . S
C165 H179 0.931 . S
C166 O169 1.256 . S
C166 O170 1.255 . S
O167 Co150 2.021 . S
O167 C160 1.259 . S
O168 Co152 2.117 . S
O168 C160 1.258 . S
O169 Co152 2.020 . S
O169 C166 1.256 . S
O170 Co150 2.062 . S
O170 C166 1.255 . S
O171 C151 1.259 . S
O171 Co152 2.021 . S
H172 C163 0.930 . S
H173 C162 0.931 . S
O174 Co150 2.117 . S
O174 C151 1.258 . S
O175 Co150 2.020 . S
O175 C177 1.256 . S
O176 Co152 2.062 . S
O176 C177 1.255 . S
C177 O175 1.256 . S
C177 O176 1.255 . S
H178 C157 0.931 . S
H179 C165 0.931 . S
Co180 N185 2.057 . S
Co180 O197 2.021 . S
Co180 O200 2.062 . S
Co180 O204 2.117 . S
Co180 O205 2.020 . S
C181 O201 1.259 . S
C181 O204 1.258 . S
Co182 N191 2.057 . S
Co182 O198 2.117 . S
Co182 O199 2.020 . S
Co182 O201 2.021 . S
Co182 O206 2.062 . S
C183 N185 1.316 . S
C183 N186 1.347 . S
C183 H188 0.931 . S
C184 N185 1.375 . S
C184 C187 1.350 . S
C184 H189 0.930 . S
N185 Co180 2.057 . S
N185 C183 1.316 . S
N185 C184 1.375 . S
N186 C183 1.347 . S
N186 C187 1.373 . S
C187 C184 1.350 . S
C187 N186 1.373 . S
C187 H208 0.931 . S
H188 C183 0.931 . S
H189 C184 0.930 . S
C190 O197 1.259 . S
C190 O198 1.258 . S
N191 Co182 2.057 . S
N191 C192 1.316 . S
N191 C193 1.375 . S
C192 N191 1.316 . S
C192 N194 1.347 . S
C192 H203 0.931 . S
C193 N191 1.375 . S
C193 C195 1.350 . S
C193 H202 0.930 . S
N194 C192 1.347 . S
N194 C195 1.373 . S
C195 C193 1.350 . S
C195 N194 1.373 . S
C195 H209 0.931 . S
C196 O199 1.256 . S
C196 O200 1.255 . S
O197 Co180 2.021 . S
O197 C190 1.259 . S
O198 Co182 2.117 . S
O198 C190 1.258 . S
O199 Co182 2.020 . S
O199 C196 1.256 . S
O200 Co180 2.062 . S
O200 C196 1.255 . S
O201 C181 1.259 . S
O201 Co182 2.021 . S
H202 C193 0.930 . S
H203 C192 0.931 . S
O204 Co180 2.117 . S
O204 C181 1.258 . S
O205 Co180 2.020 . S
O205 C207 1.256 . S
O206 Co182 2.062 . S
O206 C207 1.255 . S
C207 O205 1.256 . S
C207 O206 1.255 . S
H208 C187 0.931 . S
H209 C195 0.931 . S
Co210 N215 2.057 1_545 S
Co210 O227 2.021 . S
Co210 O230 2.062 1_545 S
Co210 O234 2.117 1_545 S
Co210 O235 2.020 . S
C211 O231 1.259 . S
C211 O234 1.258 . S
Co212 N221 2.056 1_565 S
Co212 O228 2.117 1_565 S
Co212 O229 2.020 . S
Co212 O231 2.021 . S
Co212 O236 2.062 . S
C213 N215 1.316 1_545 S
C213 N216 1.339 1_545 S
C213 H218 0.931 . S
C214 N215 1.375 . S
C214 C217 1.350 . S
C214 H219 0.930 . S
N215 Co210 2.057 1_565 S
N215 C213 1.316 1_565 S
N215 C214 1.375 . S
N216 C213 1.339 1_565 S
N216 C217 1.390 . S
C217 C214 1.350 . S
C217 N216 1.390 . S
C217 H238 0.931 . S
H218 C213 0.931 . S
H219 C214 0.930 . S
C220 O227 1.259 . S
C220 O228 1.258 . S
N221 Co212 2.056 1_545 S
N221 C222 1.313 1_545 S
N221 C223 1.379 . S
C222 N221 1.313 1_565 S
C222 N224 1.347 . S
C222 H233 0.931 . S
C223 N221 1.379 . S
C223 C225 1.350 . S
C223 H232 0.930 . S
N224 C222 1.347 . S
N224 C225 1.373 1_565 S
C225 C223 1.350 . S
C225 N224 1.373 1_545 S
C225 H239 0.931 . S
C226 O229 1.256 . S
C226 O230 1.255 . S
O227 Co210 2.021 . S
O227 C220 1.259 . S
O228 Co212 2.117 1_545 S
O228 C220 1.258 . S
O229 Co212 2.020 . S
O229 C226 1.256 . S
O230 Co210 2.062 1_565 S
O230 C226 1.255 . S
O231 C211 1.259 . S
O231 Co212 2.021 . S
H232 C223 0.930 . S
H233 C222 0.931 . S
O234 Co210 2.117 1_565 S
O234 C211 1.258 . S
O235 Co210 2.020 . S
O235 C237 1.261 . S
O236 Co212 2.062 . S
O236 C237 1.247 1_565 S
C237 O235 1.261 . S
C237 O236 1.247 1_545 S
H238 C217 0.931 . S
H239 C225 0.931 . S
Co240 N245 2.057 . S
Co240 O257 2.021 . S
Co240 O260 2.062 . S
Co240 O264 2.117 . S
Co240 O265 2.020 . S
C241 O261 1.259 . S
C241 O264 1.258 . S
Co242 N251 2.057 . S
Co242 O258 2.117 . S
Co242 O259 2.020 . S
Co242 O261 2.021 . S
Co242 O266 2.062 . S
C243 N245 1.316 . S
C243 N246 1.347 . S
C243 H248 0.931 . S
C244 N245 1.375 . S
C244 C247 1.350 . S
C244 H249 0.930 . S
N245 Co240 2.057 . S
N245 C243 1.316 . S
N245 C244 1.375 . S
N246 C243 1.347 . S
N246 C247 1.373 . S
C247 C244 1.350 . S
C247 N246 1.373 . S
C247 H268 0.931 . S
H248 C243 0.931 . S
H249 C244 0.930 . S
C250 O257 1.259 . S
C250 O258 1.258 . S
N251 Co242 2.057 . S
N251 C252 1.316 . S
N251 C253 1.375 . S
C252 N251 1.316 . S
C252 N254 1.347 . S
C252 H263 0.931 . S
C253 N251 1.375 . S
C253 C255 1.350 . S
C253 H262 0.930 . S
N254 C252 1.347 . S
N254 C255 1.373 . S
C255 C253 1.350 . S
C255 N254 1.373 . S
C255 H269 0.931 . S
C256 O259 1.256 . S
C256 O260 1.255 . S
O257 Co240 2.021 . S
O257 C250 1.259 . S
O258 Co242 2.117 . S
O258 C250 1.258 . S
O259 Co242 2.020 . S
O259 C256 1.256 . S
O260 Co240 2.062 . S
O260 C256 1.255 . S
O261 C241 1.259 . S
O261 Co242 2.021 . S
H262 C253 0.930 . S
H263 C252 0.931 . S
O264 Co240 2.117 . S
O264 C241 1.258 . S
O265 Co240 2.020 . S
O265 C267 1.256 . S
O266 Co242 2.062 . S
O266 C267 1.255 . S
C267 O265 1.256 . S
C267 O266 1.255 . S
H268 C247 0.931 . S
H269 C255 0.931 . S
Co270 N275 2.057 . S
Co270 O287 2.021 . S
Co270 O290 2.062 . S
Co270 O294 2.117 . S
Co270 O295 2.020 . S
C271 O291 1.259 . S
C271 O294 1.258 . S
Co272 N281 2.057 . S
Co272 O288 2.117 . S
Co272 O289 2.020 . S
Co272 O291 2.021 . S
Co272 O296 2.062 . S
C273 N275 1.316 . S
C273 N276 1.347 . S
C273 H278 0.931 . S
C274 N275 1.375 . S
C274 C277 1.350 . S
C274 H279 0.930 . S
N275 Co270 2.057 . S
N275 C273 1.316 . S
N275 C274 1.375 . S
N276 C273 1.347 . S
N276 C277 1.373 . S
C277 C274 1.350 . S
C277 N276 1.373 . S
C277 H298 0.931 . S
H278 C273 0.931 . S
H279 C274 0.930 . S
C280 O287 1.259 . S
C280 O288 1.258 . S
N281 Co272 2.057 . S
N281 C282 1.316 . S
N281 C283 1.375 . S
C282 N281 1.316 . S
C282 N284 1.347 . S
C282 H293 0.931 . S
C283 N281 1.375 . S
C283 C285 1.350 . S
C283 H292 0.930 . S
N284 C282 1.347 . S
N284 C285 1.373 . S
C285 C283 1.350 . S
C285 N284 1.373 . S
C285 H299 0.931 . S
C286 O289 1.256 . S
C286 O290 1.255 . S
O287 Co270 2.021 . S
O287 C280 1.259 . S
O288 Co272 2.117 . S
O288 C280 1.258 . S
O289 Co272 2.020 . S
O289 C286 1.256 . S
O290 Co270 2.062 . S
O290 C286 1.255 . S
O291 C271 1.259 . S
O291 Co272 2.021 . S
H292 C283 0.930 . S
H293 C282 0.931 . S
O294 Co270 2.117 . S
O294 C271 1.258 . S
O295 Co270 2.020 . S
O295 C297 1.256 . S
O296 Co272 2.062 . S
O296 C297 1.255 . S
C297 O295 1.256 . S
C297 O296 1.255 . S
H298 C277 0.931 . S
H299 C285 0.931 . S
Co300 N305 2.057 . S
Co300 O317 2.021 . S
Co300 O320 2.062 . S
Co300 O324 2.117 . S
Co300 O325 2.020 . S
C301 O321 1.259 . S
C301 O324 1.258 . S
Co302 N311 2.057 . S
Co302 O318 2.117 . S
Co302 O319 2.020 . S
Co302 O321 2.021 . S
Co302 O326 2.062 . S
C303 N305 1.316 . S
C303 N306 1.347 . S
C303 H308 0.931 . S
C304 N305 1.375 . S
C304 C307 1.350 . S
C304 H309 0.930 . S
N305 Co300 2.057 . S
N305 C303 1.316 . S
N305 C304 1.375 . S
N306 C303 1.347 . S
N306 C307 1.373 . S
C307 C304 1.350 . S
C307 N306 1.373 . S
C307 H328 0.931 . S
H308 C303 0.931 . S
H309 C304 0.930 . S
C310 O317 1.259 . S
C310 O318 1.258 . S
N311 Co302 2.057 . S
N311 C312 1.316 . S
N311 C313 1.375 . S
C312 N311 1.316 . S
C312 N314 1.347 . S
C312 H323 0.931 . S
C313 N311 1.375 . S
C313 C315 1.350 . S
C313 H322 0.930 . S
N314 C312 1.347 . S
N314 C315 1.373 . S
C315 C313 1.350 . S
C315 N314 1.373 . S
C315 H329 0.931 . S
C316 O319 1.256 . S
C316 O320 1.255 . S
O317 Co300 2.021 . S
O317 C310 1.259 . S
O318 Co302 2.117 . S
O318 C310 1.258 . S
O319 Co302 2.020 . S
O319 C316 1.256 . S
O320 Co300 2.062 . S
O320 C316 1.255 . S
O321 C301 1.259 . S
O321 Co302 2.021 . S
H322 C313 0.930 . S
H323 C312 0.931 . S
O324 Co300 2.117 . S
O324 C301 1.258 . S
O325 Co300 2.020 . S
O325 C327 1.256 . S
O326 Co302 2.062 . S
O326 C327 1.255 . S
C327 O325 1.256 . S
C327 O326 1.255 . S
H328 C307 0.931 . S
H329 C315 0.931 . S
Co330 N335 2.057 . S
Co330 O347 2.021 . S
Co330 O350 2.062 . S
Co330 O354 2.117 . S
Co330 O355 2.020 . S
C331 O351 1.259 . S
C331 O354 1.258 . S
Co332 N341 2.057 . S
Co332 O348 2.117 . S
Co332 O349 2.020 . S
Co332 O351 2.021 . S
Co332 O356 2.062 . S
C333 N335 1.316 . S
C333 N336 1.347 . S
C333 H338 0.931 . S
C334 N335 1.375 . S
C334 C337 1.350 . S
C334 H339 0.930 . S
N335 Co330 2.057 . S
N335 C333 1.316 . S
N335 C334 1.375 . S
N336 C333 1.347 . S
N336 C337 1.373 . S
C337 C334 1.350 . S
C337 N336 1.373 . S
C337 H358 0.931 . S
H338 C333 0.931 . S
H339 C334 0.930 . S
C340 O347 1.259 . S
C340 O348 1.258 . S
N341 Co332 2.057 . S
N341 C342 1.316 . S
N341 C343 1.375 . S
C342 N341 1.316 . S
C342 N344 1.347 . S
C342 H353 0.931 . S
C343 N341 1.375 . S
C343 C345 1.350 . S
C343 H352 0.930 . S
N344 C342 1.347 . S
N344 C345 1.373 . S
C345 C343 1.350 . S
C345 N344 1.373 . S
C345 H359 0.931 . S
C346 O349 1.256 . S
C346 O350 1.255 . S
O347 Co330 2.021 . S
O347 C340 1.259 . S
O348 Co332 2.117 . S
O348 C340 1.258 . S
O349 Co332 2.020 . S
O349 C346 1.256 . S
O350 Co330 2.062 . S
O350 C346 1.255 . S
O351 C331 1.259 . S
O351 Co332 2.021 . S
H352 C343 0.930 . S
H353 C342 0.931 . S
O354 Co330 2.117 . S
O354 C331 1.258 . S
O355 Co330 2.020 . S
O355 C357 1.256 . S
O356 Co332 2.062 . S
O356 C357 1.255 . S
C357 O355 1.256 . S
C357 O356 1.255 . S
H358 C337 0.931 . S
H359 C345 0.931 . S
Co360 N365 2.057 . S
Co360 O377 2.021 . S
Co360 O380 2.062 . S
Co360 O384 2.117 . S
Co360 O385 2.020 . S
C361 O381 1.259 . S
C361 O384 1.258 . S
Co362 N371 2.057 . S
Co362 O378 2.117 . S
Co362 O379 2.020 . S
Co362 O381 2.021 . S
Co362 O386 2.062 . S
C363 N365 1.316 . S
C363 N366 1.347 . S
C363 H368 0.931 . S
C364 N365 1.375 . S
C364 C367 1.350 . S
C364 H369 0.930 . S
N365 Co360 2.057 . S
N365 C363 1.316 . S
N365 C364 1.375 . S
N366 C363 1.347 . S
N366 C367 1.373 . S
C367 C364 1.350 . S
C367 N366 1.373 . S
C367 H388 0.931 . S
H368 C363 0.931 . S
H369 C364 0.930 . S
C370 O377 1.259 . S
C370 O378 1.258 . S
N371 Co362 2.057 . S
N371 C372 1.316 . S
N371 C373 1.375 . S
C372 N371 1.316 . S
C372 N374 1.347 . S
C372 H383 0.931 . S
C373 N371 1.375 . S
C373 C375 1.350 . S
C373 H382 0.930 . S
N374 C372 1.347 . S
N374 C375 1.373 . S
C375 C373 1.350 . S
C375 N374 1.373 . S
C375 H389 0.931 . S
C376 O379 1.256 . S
C376 O380 1.255 . S
O377 Co360 2.021 . S
O377 C370 1.259 . S
O378 Co362 2.117 . S
O378 C370 1.258 . S
O379 Co362 2.020 . S
O379 C376 1.256 . S
O380 Co360 2.062 . S
O380 C376 1.255 . S
O381 C361 1.259 . S
O381 Co362 2.021 . S
H382 C373 0.930 . S
H383 C372 0.931 . S
O384 Co360 2.117 . S
O384 C361 1.258 . S
O385 Co360 2.020 . S
O385 C387 1.256 . S
O386 Co362 2.062 . S
O386 C387 1.255 . S
C387 O385 1.256 . S
C387 O386 1.255 . S
H388 C367 0.931 . S
H389 C375 0.931 . S
Co390 N395 2.057 . S
Co390 O407 2.021 . S
Co390 O410 2.062 . S
Co390 O414 2.117 . S
Co390 O415 2.020 . S
C391 O411 1.259 . S
C391 O414 1.258 . S
Co392 N401 2.057 . S
Co392 O408 2.117 . S
Co392 O409 2.020 . S
Co392 O411 2.021 . S
Co392 O416 2.062 . S
C393 N395 1.316 . S
C393 N396 1.347 . S
C393 H398 0.931 . S
C394 N395 1.375 . S
C394 C397 1.350 . S
C394 H399 0.930 . S
N395 Co390 2.057 . S
N395 C393 1.316 . S
N395 C394 1.375 . S
N396 C393 1.347 . S
N396 C397 1.373 . S
C397 C394 1.350 . S
C397 N396 1.373 . S
C397 H418 0.931 . S
H398 C393 0.931 . S
H399 C394 0.930 . S
C400 O407 1.259 . S
C400 O408 1.258 . S
N401 Co392 2.057 . S
N401 C402 1.316 . S
N401 C403 1.375 . S
C402 N401 1.316 . S
C402 N404 1.347 . S
C402 H413 0.931 . S
C403 N401 1.375 . S
C403 C405 1.350 . S
C403 H412 0.930 . S
N404 C402 1.347 . S
N404 C405 1.373 . S
C405 C403 1.350 . S
C405 N404 1.373 . S
C405 H419 0.931 . S
C406 O409 1.256 . S
C406 O410 1.255 . S
O407 Co390 2.021 . S
O407 C400 1.259 . S
O408 Co392 2.117 . S
O408 C400 1.258 . S
O409 Co392 2.020 . S
O409 C406 1.256 . S
O410 Co390 2.062 . S
O410 C406 1.255 . S
O411 C391 1.259 . S
O411 Co392 2.021 . S
H412 C403 0.930 . S
H413 C402 0.931 . S
O414 Co390 2.117 . S
O414 C391 1.258 . S
O415 Co390 2.020 . S
O415 C417 1.256 . S
O416 Co392 2.062 . S
O416 C417 1.255 . S
C417 O415 1.256 . S
C417 O416 1.255 . S
H418 C397 0.931 . S
H419 C405 0.931 . S
Co420 N425 2.057 . S
Co420 O437 2.021 . S
Co420 O440 2.062 . S
Co420 O444 2.117 . S
Co420 O445 2.020 . S
C421 O441 1.259 . S
C421 O444 1.258 . S
Co422 N431 2.057 . S
Co422 O438 2.117 . S
Co422 O439 2.020 . S
Co422 O441 2.021 . S
Co422 O446 2.062 . S
C423 N425 1.316 . S
C423 N426 1.347 . S
C423 H428 0.931 . S
C424 N425 1.375 . S
C424 C427 1.350 . S
C424 H429 0.930 . S
N425 Co420 2.057 . S
N425 C423 1.316 . S
N425 C424 1.375 . S
N426 C423 1.347 . S
N426 C427 1.373 . S
C427 C424 1.350 . S
C427 N426 1.373 . S
C427 H448 0.931 . S
H428 C423 0.931 . S
H429 C424 0.930 . S
C430 O437 1.259 . S
C430 O438 1.258 . S
N431 Co422 2.057 . S
N431 C432 1.316 . S
N431 C433 1.375 . S
C432 N431 1.316 . S
C432 N434 1.347 . S
C432 H443 0.931 . S
C433 N431 1.375 . S
C433 C435 1.350 . S
C433 H442 0.930 . S
N434 C432 1.347 . S
N434 C435 1.373 . S
C435 C433 1.350 . S
C435 N434 1.373 . S
C435 H449 0.931 . S
C436 O439 1.256 . S
C436 O440 1.255 . S
O437 Co420 2.021 . S
O437 C430 1.259 . S
O438 Co422 2.117 . S
O438 C430 1.258 . S
O439 Co422 2.020 . S
O439 C436 1.256 . S
O440 Co420 2.062 . S
O440 C436 1.255 . S
O441 C421 1.259 . S
O441 Co422 2.021 . S
H442 C433 0.930 . S
H443 C432 0.931 . S
O444 Co420 2.117 . S
O444 C421 1.258 . S
O445 Co420 2.020 . S
O445 C447 1.256 . S
O446 Co422 2.062 . S
O446 C447 1.255 . S
C447 O445 1.256 . S
C447 O446 1.255 . S
H448 C427 0.931 . S
H449 C435 0.931 . S
Co450 N455 2.057 . S
Co450 O467 2.021 . S
Co450 O470 2.062 . S
Co450 O474 2.117 . S
Co450 O475 2.020 . S
C451 O471 1.259 . S
C451 O474 1.258 . S
Co452 N461 2.057 . S
Co452 O468 2.117 . S
Co452 O469 2.020 . S
Co452 O471 2.021 . S
Co452 O476 2.062 . S
C453 N455 1.316 . S
C453 N456 1.347 . S
C453 H458 0.931 . S
C454 N455 1.375 . S
C454 C457 1.350 . S
C454 H459 0.930 . S
N455 Co450 2.057 . S
N455 C453 1.316 . S
N455 C454 1.375 . S
N456 C453 1.347 . S
N456 C457 1.373 . S
C457 C454 1.350 . S
C457 N456 1.373 . S
C457 H478 0.931 . S
H458 C453 0.931 . S
H459 C454 0.930 . S
C460 O467 1.259 . S
C460 O468 1.258 . S
N461 Co452 2.057 . S
N461 C462 1.316 . S
N461 C463 1.375 . S
C462 N461 1.316 . S
C462 N464 1.347 . S
C462 H473 0.931 . S
C463 N461 1.375 . S
C463 C465 1.350 . S
C463 H472 0.930 . S
N464 C462 1.347 . S
N464 C465 1.373 . S
C465 C463 1.350 . S
C465 N464 1.373 . S
C465 H479 0.931 . S
C466 O469 1.256 . S
C466 O470 1.255 . S
O467 Co450 2.021 . S
O467 C460 1.259 . S
O468 Co452 2.117 . S
O468 C460 1.258 . S
O469 Co452 2.020 . S
O469 C466 1.256 . S
O470 Co450 2.062 . S
O470 C466 1.255 . S
O471 C451 1.259 . S
O471 Co452 2.021 . S
H472 C463 0.930 . S
H473 C462 0.931 . S
O474 Co450 2.117 . S
O474 C451 1.258 . S
O475 Co450 2.020 . S
O475 C477 1.256 . S
O476 Co452 2.062 . S
O476 C477 1.255 . S
C477 O475 1.256 . S
C477 O476 1.255 . S
H478 C457 0.931 . S
H479 C465 0.931 . S
Co480 N485 2.056 1_545 S
Co480 O497 2.021 . S
Co480 O500 2.062 . S
Co480 O504 2.117 1_545 S
Co480 O505 2.020 . S
C481 O501 1.259 . S
C481 O504 1.258 . S
Co482 N491 2.057 1_565 S
Co482 O498 2.117 1_565 S
Co482 O499 2.020 . S
Co482 O501 2.021 . S
Co482 O506 2.062 1_565 S
C483 N485 1.313 1_545 S
C483 N486 1.347 . S
C483 H488 0.931 . S
C484 N485 1.379 . S
C484 C487 1.350 . S
C484 H489 0.930 . S
N485 Co480 2.056 1_565 S
N485 C483 1.313 1_565 S
N485 C484 1.379 . S
N486 C483 1.347 . S
N486 C487 1.373 1_545 S
C487 C484 1.350 . S
C487 N486 1.373 1_565 S
C487 H508 0.931 . S
H488 C483 0.931 . S
H489 C484 0.930 . S
C490 O497 1.259 . S
C490 O498 1.258 . S
N491 Co482 2.057 1_545 S
N491 C492 1.316 1_545 S
N491 C493 1.375 . S
C492 N491 1.316 1_565 S
C492 N494 1.339 1_565 S
C492 H503 0.931 . S
C493 N491 1.375 . S
C493 C495 1.350 . S
C493 H502 0.930 . S
N494 C492 1.339 1_545 S
N494 C495 1.390 . S
C495 C493 1.350 . S
C495 N494 1.390 . S
C495 H509 0.931 . S
C496 O499 1.261 . S
C496 O500 1.247 1_565 S
O497 Co480 2.021 . S
O497 C490 1.259 . S
O498 Co482 2.117 1_545 S
O498 C490 1.258 . S
O499 Co482 2.020 . S
O499 C496 1.261 . S
O500 Co480 2.062 . S
O500 C496 1.247 1_545 S
O501 C481 1.259 . S
O501 Co482 2.021 . S
H502 C493 0.930 . S
H503 C492 0.931 . S
O504 Co480 2.117 1_565 S
O504 C481 1.258 . S
O505 Co480 2.020 . S
O505 C507 1.256 . S
O506 Co482 2.062 1_545 S
O506 C507 1.255 . S
C507 O505 1.256 . S
C507 O506 1.255 . S
H508 C487 0.931 . S
H509 C495 0.931 . S
Co510 N515 2.057 . S
Co510 O527 2.021 . S
Co510 O530 2.062 . S
Co510 O534 2.117 . S
Co510 O535 2.020 . S
C511 O531 1.259 . S
C511 O534 1.258 . S
Co512 N521 2.057 . S
Co512 O528 2.117 . S
Co512 O529 2.020 . S
Co512 O531 2.021 . S
Co512 O536 2.062 . S
C513 N515 1.316 . S
C513 N516 1.347 . S
C513 H518 0.931 . S
C514 N515 1.375 . S
C514 C517 1.350 . S
C514 H519 0.930 . S
N515 Co510 2.057 . S
N515 C513 1.316 . S
N515 C514 1.375 . S
N516 C513 1.347 . S
N516 C517 1.373 . S
C517 C514 1.350 . S
C517 N516 1.373 . S
C517 H538 0.931 . S
H518 C513 0.931 . S
H519 C514 0.930 . S
C520 O527 1.259 . S
C520 O528 1.258 . S
N521 Co512 2.057 . S
N521 C522 1.316 . S
N521 C523 1.375 . S
C522 N521 1.316 . S
C522 N524 1.347 . S
C522 H533 0.931 . S
C523 N521 1.375 . S
C523 C525 1.350 . S
C523 H532 0.930 . S
N524 C522 1.347 . S
N524 C525 1.373 . S
C525 C523 1.350 . S
C525 N524 1.373 . S
C525 H539 0.931 . S
C526 O529 1.256 . S
C526 O530 1.255 . S
O527 Co510 2.021 . S
O527 C520 1.259 . S
O528 Co512 2.117 . S
O528 C520 1.258 . S
O529 Co512 2.020 . S
O529 C526 1.256 . S
O530 Co510 2.062 . S
O530 C526 1.255 . S
O531 C511 1.259 . S
O531 Co512 2.021 . S
H532 C523 0.930 . S
H533 C522 0.931 . S
O534 Co510 2.117 . S
O534 C511 1.258 . S
O535 Co510 2.020 . S
O535 C537 1.256 . S
O536 Co512 2.062 . S
O536 C537 1.255 . S
C537 O535 1.256 . S
C537 O536 1.255 . S
H538 C517 0.931 . S
H539 C525 0.931 . S
Co540 N545 2.057 . S
Co540 O557 2.021 . S
Co540 O560 2.062 . S
Co540 O564 2.117 . S
Co540 O565 2.020 . S
C541 O561 1.259 . S
C541 O564 1.258 . S
Co542 N551 2.057 . S
Co542 O558 2.117 . S
Co542 O559 2.020 . S
Co542 O561 2.021 . S
Co542 O566 2.062 . S
C543 N545 1.316 . S
C543 N546 1.347 . S
C543 H548 0.931 . S
C544 N545 1.375 . S
C544 C547 1.350 . S
C544 H549 0.930 . S
N545 Co540 2.057 . S
N545 C543 1.316 . S
N545 C544 1.375 . S
N546 C543 1.347 . S
N546 C547 1.373 . S
C547 C544 1.350 . S
C547 N546 1.373 . S
C547 H568 0.931 . S
H548 C543 0.931 . S
H549 C544 0.930 . S
C550 O557 1.259 . S
C550 O558 1.258 . S
N551 Co542 2.057 . S
N551 C552 1.316 . S
N551 C553 1.375 . S
C552 N551 1.316 . S
C552 N554 1.347 . S
C552 H563 0.931 . S
C553 N551 1.375 . S
C553 C555 1.350 . S
C553 H562 0.930 . S
N554 C552 1.347 . S
N554 C555 1.373 . S
C555 C553 1.350 . S
C555 N554 1.373 . S
C555 H569 0.931 . S
C556 O559 1.256 . S
C556 O560 1.255 . S
O557 Co540 2.021 . S
O557 C550 1.259 . S
O558 Co542 2.117 . S
O558 C550 1.258 . S
O559 Co542 2.020 . S
O559 C556 1.256 . S
O560 Co540 2.062 . S
O560 C556 1.255 . S
O561 C541 1.259 . S
O561 Co542 2.021 . S
H562 C553 0.930 . S
H563 C552 0.931 . S
O564 Co540 2.117 . S
O564 C541 1.258 . S
O565 Co540 2.020 . S
O565 C567 1.256 . S
O566 Co542 2.062 . S
O566 C567 1.255 . S
C567 O565 1.256 . S
C567 O566 1.255 . S
H568 C547 0.931 . S
H569 C555 0.931 . S
Co570 N575 2.056 1_545 S
Co570 O587 2.021 . S
Co570 O590 2.062 . S
Co570 O594 2.117 1_545 S
Co570 O595 2.020 . S
C571 O591 1.259 . S
C571 O594 1.258 . S
Co572 N581 2.057 1_565 S
Co572 O588 2.117 1_565 S
Co572 O589 2.020 . S
Co572 O591 2.021 . S
Co572 O596 2.062 1_565 S
C573 N575 1.313 1_545 S
C573 N576 1.347 . S
C573 H578 0.931 . S
C574 N575 1.379 . S
C574 C577 1.350 . S
C574 H579 0.930 . S
N575 Co570 2.056 1_565 S
N575 C573 1.313 1_565 S
N575 C574 1.379 . S
N576 C573 1.347 . S
N576 C577 1.373 1_545 S
C577 C574 1.350 . S
C577 N576 1.373 1_565 S
C577 H598 0.931 . S
H578 C573 0.931 . S
H579 C574 0.930 . S
C580 O587 1.259 . S
C580 O588 1.258 . S
N581 Co572 2.057 1_545 S
N581 C582 1.316 1_545 S
N581 C583 1.375 . S
C582 N581 1.316 1_565 S
C582 N584 1.339 1_565 S
C582 H593 0.931 . S
C583 N581 1.375 . S
C583 C585 1.350 . S
C583 H592 0.930 . S
N584 C582 1.339 1_545 S
N584 C585 1.390 . S
C585 C583 1.350 . S
C585 N584 1.390 . S
C585 H599 0.931 . S
C586 O589 1.261 . S
C586 O590 1.247 1_565 S
O587 Co570 2.021 . S
O587 C580 1.259 . S
O588 Co572 2.117 1_545 S
O588 C580 1.258 . S
O589 Co572 2.020 . S
O589 C586 1.261 . S
O590 Co570 2.062 . S
O590 C586 1.247 1_545 S
O591 C571 1.259 . S
O591 Co572 2.021 . S
H592 C583 0.930 . S
H593 C582 0.931 . S
O594 Co570 2.117 1_565 S
O594 C571 1.258 . S
O595 Co570 2.020 . S
O595 C597 1.256 . S
O596 Co572 2.062 1_545 S
O596 C597 1.255 . S
C597 O595 1.256 . S
C597 O596 1.255 . S
H598 C577 0.931 . S
H599 C585 0.931 . S
Co600 N605 2.057 1_545 S
Co600 O617 2.021 . S
Co600 O620 2.062 1_545 S
Co600 O624 2.117 1_545 S
Co600 O625 2.020 . S
C601 O621 1.259 . S
C601 O624 1.258 . S
Co602 N611 2.056 1_565 S
Co602 O618 2.117 1_565 S
Co602 O619 2.020 . S
Co602 O621 2.021 . S
Co602 O626 2.062 . S
C603 N605 1.316 1_545 S
C603 N606 1.339 1_545 S
C603 H608 0.931 . S
C604 N605 1.375 . S
C604 C607 1.350 . S
C604 H609 0.930 . S
N605 Co600 2.057 1_565 S
N605 C603 1.316 1_565 S
N605 C604 1.375 . S
N606 C603 1.339 1_565 S
N606 C607 1.390 . S
C607 C604 1.350 . S
C607 N606 1.390 . S
C607 H628 0.931 . S
H608 C603 0.931 . S
H609 C604 0.930 . S
C610 O617 1.259 . S
C610 O618 1.258 . S
N611 Co602 2.056 1_545 S
N611 C612 1.313 1_545 S
N611 C613 1.379 . S
C612 N611 1.313 1_565 S
C612 N614 1.347 . S
C612 H623 0.931 . S
C613 N611 1.379 . S
C613 C615 1.350 . S
C613 H622 0.930 . S
N614 C612 1.347 . S
N614 C615 1.373 1_565 S
C615 C613 1.350 . S
C615 N614 1.373 1_545 S
C615 H629 0.931 . S
C616 O619 1.256 . S
C616 O620 1.255 . S
O617 Co600 2.021 . S
O617 C610 1.259 . S
O618 Co602 2.117 1_545 S
O618 C610 1.258 . S
O619 Co602 2.020 . S
O619 C616 1.256 . S
O620 Co600 2.062 1_565 S
O620 C616 1.255 . S
O621 C601 1.259 . S
O621 Co602 2.021 . S
H622 C613 0.930 . S
H623 C612 0.931 . S
O624 Co600 2.117 1_565 S
O624 C601 1.258 . S
O625 Co600 2.020 . S
O625 C627 1.261 . S
O626 Co602 2.062 . S
O626 C627 1.247 1_565 S
C627 O625 1.261 . S
C627 O626 1.247 1_545 S
H628 C607 0.931 . S
H629 C615 0.931 . S
Co630 N635 2.057 . S
Co630 O647 2.021 . S
Co630 O650 2.062 . S
Co630 O654 2.117 . S
Co630 O655 2.020 . S
C631 O651 1.259 . S
C631 O654 1.258 . S
Co632 N641 2.057 . S
Co632 O648 2.117 . S
Co632 O649 2.020 . S
Co632 O651 2.021 . S
Co632 O656 2.062 . S
C633 N635 1.316 . S
C633 N636 1.347 . S
C633 H638 0.931 . S
C634 N635 1.375 . S
C634 C637 1.350 . S
C634 H639 0.930 . S
N635 Co630 2.057 . S
N635 C633 1.316 . S
N635 C634 1.375 . S
N636 C633 1.347 . S
N636 C637 1.373 . S
C637 C634 1.350 . S
C637 N636 1.373 . S
C637 H658 0.931 . S
H638 C633 0.931 . S
H639 C634 0.930 . S
C640 O647 1.259 . S
C640 O648 1.258 . S
N641 Co632 2.057 . S
N641 C642 1.316 . S
N641 C643 1.375 . S
C642 N641 1.316 . S
C642 N644 1.347 . S
C642 H653 0.931 . S
C643 N641 1.375 . S
C643 C645 1.350 . S
C643 H652 0.930 . S
N644 C642 1.347 . S
N644 C645 1.373 . S
C645 C643 1.350 . S
C645 N644 1.373 . S
C645 H659 0.931 . S
C646 O649 1.256 . S
C646 O650 1.255 . S
O647 Co630 2.021 . S
O647 C640 1.259 . S
O648 Co632 2.117 . S
O648 C640 1.258 . S
O649 Co632 2.020 . S
O649 C646 1.256 . S
O650 Co630 2.062 . S
O650 C646 1.255 . S
O651 C631 1.259 . S
O651 Co632 2.021 . S
H652 C643 0.930 . S
H653 C642 0.931 . S
O654 Co630 2.117 . S
O654 C631 1.258 . S
O655 Co630 2.020 . S
O655 C657 1.256 . S
O656 Co632 2.062 . S
O656 C657 1.255 . S
C657 O655 1.256 . S
C657 O656 1.255 . S
H658 C637 0.931 . S
H659 C645 0.931 . S
Co660 N665 2.057 . S
Co660 O677 2.021 . S
Co660 O680 2.062 . S
Co660 O684 2.117 . S
Co660 O685 2.020 . S
C661 O681 1.259 . S
C661 O684 1.258 . S
Co662 N671 2.057 . S
Co662 O678 2.117 . S
Co662 O679 2.020 . S
Co662 O681 2.021 . S
Co662 O686 2.062 . S
C663 N665 1.316 . S
C663 N666 1.347 . S
C663 H668 0.931 . S
C664 N665 1.375 . S
C664 C667 1.350 . S
C664 H669 0.930 . S
N665 Co660 2.057 . S
N665 C663 1.316 . S
N665 C664 1.375 . S
N666 C663 1.347 . S
N666 C667 1.373 . S
C667 C664 1.350 . S
C667 N666 1.373 . S
C667 H688 0.931 . S
H668 C663 0.931 . S
H669 C664 0.930 . S
C670 O677 1.259 . S
C670 O678 1.258 . S
N671 Co662 2.057 . S
N671 C672 1.316 . S
N671 C673 1.375 . S
C672 N671 1.316 . S
C672 N674 1.347 . S
C672 H683 0.931 . S
C673 N671 1.375 . S
C673 C675 1.350 . S
C673 H682 0.930 . S
N674 C672 1.347 . S
N674 C675 1.373 . S
C675 C673 1.350 . S
C675 N674 1.373 . S
C675 H689 0.931 . S
C676 O679 1.256 . S
C676 O680 1.255 . S
O677 Co660 2.021 . S
O677 C670 1.259 . S
O678 Co662 2.117 . S
O678 C670 1.258 . S
O679 Co662 2.020 . S
O679 C676 1.256 . S
O680 Co660 2.062 . S
O680 C676 1.255 . S
O681 C661 1.259 . S
O681 Co662 2.021 . S
H682 C673 0.930 . S
H683 C672 0.931 . S
O684 Co660 2.117 . S
O684 C661 1.258 . S
O685 Co660 2.020 . S
O685 C687 1.256 . S
O686 Co662 2.062 . S
O686 C687 1.255 . S
C687 O685 1.256 . S
C687 O686 1.255 . S
H688 C667 0.931 . S
H689 C675 0.931 . S
Co690 N695 2.057 1_545 S
Co690 O707 2.021 . S
Co690 O710 2.062 1_545 S
Co690 O714 2.117 1_545 S
Co690 O715 2.020 . S
C691 O711 1.259 . S
C691 O714 1.258 . S
Co692 N701 2.056 1_565 S
Co692 O708 2.117 1_565 S
Co692 O709 2.020 . S
Co692 O711 2.021 . S
Co692 O716 2.062 . S
C693 N695 1.316 1_545 S
C693 N696 1.339 1_545 S
C693 H698 0.931 . S
C694 N695 1.375 . S
C694 C697 1.350 . S
C694 H699 0.930 . S
N695 Co690 2.057 1_565 S
N695 C693 1.316 1_565 S
N695 C694 1.375 . S
N696 C693 1.339 1_565 S
N696 C697 1.390 . S
C697 C694 1.350 . S
C697 N696 1.390 . S
C697 H718 0.931 . S
H698 C693 0.931 . S
H699 C694 0.930 . S
C700 O707 1.259 . S
C700 O708 1.258 . S
N701 Co692 2.056 1_545 S
N701 C702 1.313 1_545 S
N701 C703 1.379 . S
C702 N701 1.313 1_565 S
C702 N704 1.347 . S
C702 H713 0.931 . S
C703 N701 1.379 . S
C703 C705 1.350 . S
C703 H712 0.930 . S
N704 C702 1.347 . S
N704 C705 1.373 1_565 S
C705 C703 1.350 . S
C705 N704 1.373 1_545 S
C705 H719 0.931 . S
C706 O709 1.256 . S
C706 O710 1.255 . S
O707 Co690 2.021 . S
O707 C700 1.259 . S
O708 Co692 2.117 1_545 S
O708 C700 1.258 . S
O709 Co692 2.020 . S
O709 C706 1.256 . S
O710 Co690 2.062 1_565 S
O710 C706 1.255 . S
O711 C691 1.259 . S
O711 Co692 2.021 . S
H712 C703 0.930 . S
H713 C702 0.931 . S
O714 Co690 2.117 1_565 S
O714 C691 1.258 . S
O715 Co690 2.020 . S
O715 C717 1.261 . S
O716 Co692 2.062 . S
O716 C717 1.247 1_565 S
C717 O715 1.261 . S
C717 O716 1.247 1_545 S
H718 C697 0.931 . S
H719 C705 0.931 . S
Co720 N725 2.057 . S
Co720 O737 2.021 . S
Co720 O740 2.062 . S
Co720 O744 2.117 . S
Co720 O745 2.020 . S
C721 O741 1.259 . S
C721 O744 1.258 . S
Co722 N731 2.057 . S
Co722 O738 2.117 . S
Co722 O739 2.020 . S
Co722 O741 2.021 . S
Co722 O746 2.062 . S
C723 N725 1.316 . S
C723 N726 1.347 . S
C723 H728 0.931 . S
C724 N725 1.375 . S
C724 C727 1.350 . S
C724 H729 0.930 . S
N725 Co720 2.057 . S
N725 C723 1.316 . S
N725 C724 1.375 . S
N726 C723 1.347 . S
N726 C727 1.373 . S
C727 C724 1.350 . S
C727 N726 1.373 . S
C727 H748 0.931 . S
H728 C723 0.931 . S
H729 C724 0.930 . S
C730 O737 1.259 . S
C730 O738 1.258 . S
N731 Co722 2.057 . S
N731 C732 1.316 . S
N731 C733 1.375 . S
C732 N731 1.316 . S
C732 N734 1.339 1_554 S
C732 H743 0.931 . S
C733 N731 1.375 . S
C733 C735 1.350 . S
C733 H742 0.930 . S
N734 C732 1.339 1_556 S
N734 C735 1.369 1_556 S
C735 C733 1.350 . S
C735 N734 1.369 1_554 S
C735 H749 0.931 . S
C736 O739 1.256 . S
C736 O740 1.255 . S
O737 Co720 2.021 . S
O737 C730 1.259 . S
O738 Co722 2.117 . S
O738 C730 1.258 . S
O739 Co722 2.020 . S
O739 C736 1.256 . S
O740 Co720 2.062 . S
O740 C736 1.255 . S
O741 C721 1.259 . S
O741 Co722 2.021 . S
H742 C733 0.930 . S
H743 C732 0.931 . S
O744 Co720 2.117 . S
O744 C721 1.258 . S
O745 Co720 2.020 . S
O745 C747 1.256 . S
O746 Co722 2.062 . S
O746 C747 1.255 . S
C747 O745 1.256 . S
C747 O746 1.255 . S
H748 C727 0.931 . S
H749 C735 0.931 . S
Co750 N755 2.057 . S
Co750 O767 2.021 . S
Co750 O770 2.062 . S
Co750 O774 2.117 . S
Co750 O775 2.020 . S
C751 O771 1.259 . S
C751 O774 1.258 . S
Co752 N761 2.057 . S
Co752 O768 2.117 . S
Co752 O769 2.020 . S
Co752 O771 2.021 . S
Co752 O776 2.062 . S
C753 N755 1.316 . S
C753 N756 1.347 . S
C753 H758 0.931 . S
C754 N755 1.375 . S
C754 C757 1.350 . S
C754 H759 0.930 . S
N755 Co750 2.057 . S
N755 C753 1.316 . S
N755 C754 1.375 . S
N756 C753 1.347 . S
N756 C757 1.373 . S
C757 C754 1.350 . S
C757 N756 1.373 . S
C757 H778 0.931 . S
H758 C753 0.931 . S
H759 C754 0.930 . S
C760 O767 1.259 . S
C760 O768 1.258 . S
N761 Co752 2.057 . S
N761 C762 1.316 . S
N761 C763 1.375 . S
C762 N761 1.316 . S
C762 N764 1.339 1_554 S
C762 H773 0.931 . S
C763 N761 1.375 . S
C763 C765 1.350 . S
C763 H772 0.930 . S
N764 C762 1.339 1_556 S
N764 C765 1.369 1_556 S
C765 C763 1.350 . S
C765 N764 1.369 1_554 S
C765 H779 0.931 . S
C766 O769 1.256 . S
C766 O770 1.255 . S
O767 Co750 2.021 . S
O767 C760 1.259 . S
O768 Co752 2.117 . S
O768 C760 1.258 . S
O769 Co752 2.020 . S
O769 C766 1.256 . S
O770 Co750 2.062 . S
O770 C766 1.255 . S
O771 C751 1.259 . S
O771 Co752 2.021 . S
H772 C763 0.930 . S
H773 C762 0.931 . S
O774 Co750 2.117 . S
O774 C751 1.258 . S
O775 Co750 2.020 . S
O775 C777 1.256 . S
O776 Co752 2.062 . S
O776 C777 1.255 . S
C777 O775 1.256 . S
C777 O776 1.255 . S
H778 C757 0.931 . S
H779 C765 0.931 . S
Co780 N785 2.057 . S
Co780 O797 2.021 . S
Co780 O800 2.062 . S
Co780 O804 2.117 . S
Co780 O805 2.020 . S
C781 O801 1.259 . S
C781 O804 1.258 . S
Co782 N791 2.057 . S
Co782 O798 2.117 . S
Co782 O799 2.020 . S
Co782 O801 2.021 . S
Co782 O806 2.062 . S
C783 N785 1.316 . S
C783 N786 1.347 . S
C783 H788 0.931 . S
C784 N785 1.375 . S
C784 C787 1.350 . S
C784 H789 0.930 . S
N785 Co780 2.057 . S
N785 C783 1.316 . S
N785 C784 1.375 . S
N786 C783 1.347 . S
N786 C787 1.373 . S
C787 C784 1.350 . S
C787 N786 1.373 . S
C787 H808 0.931 . S
H788 C783 0.931 . S
H789 C784 0.930 . S
C790 O797 1.259 . S
C790 O798 1.258 . S
N791 Co782 2.057 . S
N791 C792 1.316 . S
N791 C793 1.375 . S
C792 N791 1.316 . S
C792 N794 1.347 . S
C792 H803 0.931 . S
C793 N791 1.375 . S
C793 C795 1.350 . S
C793 H802 0.930 . S
N794 C792 1.347 . S
N794 C795 1.373 . S
C795 C793 1.350 . S
C795 N794 1.373 . S
C795 H809 0.931 . S
C796 O799 1.256 . S
C796 O800 1.255 . S
O797 Co780 2.021 . S
O797 C790 1.259 . S
O798 Co782 2.117 . S
O798 C790 1.258 . S
O799 Co782 2.020 . S
O799 C796 1.256 . S
O800 Co780 2.062 . S
O800 C796 1.255 . S
O801 C781 1.259 . S
O801 Co782 2.021 . S
H802 C793 0.930 . S
H803 C792 0.931 . S
O804 Co780 2.117 . S
O804 C781 1.258 . S
O805 Co780 2.020 . S
O805 C807 1.256 . S
O806 Co782 2.062 . S
O806 C807 1.255 . S
C807 O805 1.256 . S
C807 O806 1.255 . S
H808 C787 0.931 . S
H809 C795 0.931 . S
Co810 N815 2.057 . S
Co810 O827 2.021 . S
Co810 O830 2.062 . S
Co810 O834 2.117 . S
Co810 O835 2.020 . S
C811 O831 1.259 . S
C811 O834 1.258 . S
Co812 N821 2.057 . S
Co812 O828 2.117 . S
Co812 O829 2.020 . S
Co812 O831 2.021 . S
Co812 O836 2.062 . S
C813 N815 1.316 . S
C813 N816 1.347 . S
C813 H818 0.931 . S
C814 N815 1.375 . S
C814 C817 1.350 . S
C814 H819 0.930 . S
N815 Co810 2.057 . S
N815 C813 1.316 . S
N815 C814 1.375 . S
N816 C813 1.347 . S
N816 C817 1.373 . S
C817 C814 1.350 . S
C817 N816 1.373 . S
C817 H838 0.931 . S
H818 C813 0.931 . S
H819 C814 0.930 . S
C820 O827 1.259 . S
C820 O828 1.258 . S
N821 Co812 2.057 . S
N821 C822 1.316 . S
N821 C823 1.375 . S
C822 N821 1.316 . S
C822 N824 1.347 . S
C822 H833 0.931 . S
C823 N821 1.375 . S
C823 C825 1.350 . S
C823 H832 0.930 . S
N824 C822 1.347 . S
N824 C825 1.373 . S
C825 C823 1.350 . S
C825 N824 1.373 . S
C825 H839 0.931 . S
C826 O829 1.256 . S
C826 O830 1.255 . S
O827 Co810 2.021 . S
O827 C820 1.259 . S
O828 Co812 2.117 . S
O828 C820 1.258 . S
O829 Co812 2.020 . S
O829 C826 1.256 . S
O830 Co810 2.062 . S
O830 C826 1.255 . S
O831 C811 1.259 . S
O831 Co812 2.021 . S
H832 C823 0.930 . S
H833 C822 0.931 . S
O834 Co810 2.117 . S
O834 C811 1.258 . S
O835 Co810 2.020 . S
O835 C837 1.256 . S
O836 Co812 2.062 . S
O836 C837 1.255 . S
C837 O835 1.256 . S
C837 O836 1.255 . S
H838 C817 0.931 . S
H839 C825 0.931 . S
Co840 N845 2.057 . S
Co840 O857 2.021 . S
Co840 O860 2.062 . S
Co840 O864 2.117 . S
Co840 O865 2.020 . S
C841 O861 1.259 . S
C841 O864 1.258 . S
Co842 N851 2.057 . S
Co842 O858 2.117 . S
Co842 O859 2.020 . S
Co842 O861 2.021 . S
Co842 O866 2.062 . S
C843 N845 1.316 . S
C843 N846 1.339 1_556 S
C843 H848 0.931 . S
C844 N845 1.375 . S
C844 C847 1.350 . S
C844 H849 0.930 . S
N845 Co840 2.057 . S
N845 C843 1.316 . S
N845 C844 1.375 . S
N846 C843 1.339 1_554 S
N846 C847 1.369 1_554 S
C847 C844 1.350 . S
C847 N846 1.369 1_556 S
C847 H868 0.931 . S
H848 C843 0.931 . S
H849 C844 0.930 . S
C850 O857 1.259 . S
C850 O858 1.258 . S
N851 Co842 2.057 . S
N851 C852 1.316 . S
N851 C853 1.375 . S
C852 N851 1.316 . S
C852 N854 1.347 . S
C852 H863 0.931 . S
C853 N851 1.375 . S
C853 C855 1.350 . S
C853 H862 0.930 . S
N854 C852 1.347 . S
N854 C855 1.373 . S
C855 C853 1.350 . S
C855 N854 1.373 . S
C855 H869 0.931 . S
C856 O859 1.256 . S
C856 O860 1.255 . S
O857 Co840 2.021 . S
O857 C850 1.259 . S
O858 Co842 2.117 . S
O858 C850 1.258 . S
O859 Co842 2.020 . S
O859 C856 1.256 . S
O860 Co840 2.062 . S
O860 C856 1.255 . S
O861 C841 1.259 . S
O861 Co842 2.021 . S
H862 C853 0.930 . S
H863 C852 0.931 . S
O864 Co840 2.117 . S
O864 C841 1.258 . S
O865 Co840 2.020 . S
O865 C867 1.256 . S
O866 Co842 2.062 . S
O866 C867 1.255 . S
C867 O865 1.256 . S
C867 O866 1.255 . S
H868 C847 0.931 . S
H869 C855 0.931 . S
Co870 N875 2.057 . S
Co870 O887 2.021 . S
Co870 O890 2.062 . S
Co870 O894 2.117 . S
Co870 O895 2.020 . S
C871 O891 1.259 . S
C871 O894 1.258 . S
Co872 N881 2.057 . S
Co872 O888 2.117 . S
Co872 O889 2.020 . S
Co872 O891 2.021 . S
Co872 O896 2.062 . S
C873 N875 1.316 . S
C873 N876 1.339 1_556 S
C873 H878 0.931 . S
C874 N875 1.375 . S
C874 C877 1.350 . S
C874 H879 0.930 . S
N875 Co870 2.057 . S
N875 C873 1.316 . S
N875 C874 1.375 . S
N876 C873 1.339 1_554 S
N876 C877 1.369 1_554 S
C877 C874 1.350 . S
C877 N876 1.369 1_556 S
C877 H898 0.931 . S
H878 C873 0.931 . S
H879 C874 0.930 . S
C880 O887 1.259 . S
C880 O888 1.258 . S
N881 Co872 2.057 . S
N881 C882 1.316 . S
N881 C883 1.375 . S
C882 N881 1.316 . S
C882 N884 1.347 . S
C882 H893 0.931 . S
C883 N881 1.375 . S
C883 C885 1.350 . S
C883 H892 0.930 . S
N884 C882 1.347 . S
N884 C885 1.373 . S
C885 C883 1.350 . S
C885 N884 1.373 . S
C885 H899 0.931 . S
C886 O889 1.256 . S
C886 O890 1.255 . S
O887 Co870 2.021 . S
O887 C880 1.259 . S
O888 Co872 2.117 . S
O888 C880 1.258 . S
O889 Co872 2.020 . S
O889 C886 1.256 . S
O890 Co870 2.062 . S
O890 C886 1.255 . S
O891 C871 1.259 . S
O891 Co872 2.021 . S
H892 C883 0.930 . S
H893 C882 0.931 . S
O894 Co870 2.117 . S
O894 C871 1.258 . S
O895 Co870 2.020 . S
O895 C897 1.256 . S
O896 Co872 2.062 . S
O896 C897 1.255 . S
C897 O895 1.256 . S
C897 O896 1.255 . S
H898 C877 0.931 . S
H899 C885 0.931 . S
Co900 N905 2.057 . S
Co900 O917 2.021 . S
Co900 O920 2.062 . S
Co900 O924 2.117 . S
Co900 O925 2.020 . S
C901 O921 1.259 . S
C901 O924 1.258 . S
Co902 N911 2.057 . S
Co902 O918 2.117 . S
Co902 O919 2.020 . S
Co902 O921 2.021 . S
Co902 O926 2.062 . S
C903 N905 1.316 . S
C903 N906 1.347 . S
C903 H908 0.931 . S
C904 N905 1.375 . S
C904 C907 1.350 . S
C904 H909 0.930 . S
N905 Co900 2.057 . S
N905 C903 1.316 . S
N905 C904 1.375 . S
N906 C903 1.347 . S
N906 C907 1.373 . S
C907 C904 1.350 . S
C907 N906 1.373 . S
C907 H928 0.931 . S
H908 C903 0.931 . S
H909 C904 0.930 . S
C910 O917 1.259 . S
C910 O918 1.258 . S
N911 Co902 2.057 . S
N911 C912 1.316 . S
N911 C913 1.375 . S
C912 N911 1.316 . S
C912 N914 1.347 . S
C912 H923 0.931 . S
C913 N911 1.375 . S
C913 C915 1.350 . S
C913 H922 0.930 . S
N914 C912 1.347 . S
N914 C915 1.373 . S
C915 C913 1.350 . S
C915 N914 1.373 . S
C915 H929 0.931 . S
C916 O919 1.256 . S
C916 O920 1.255 . S
O917 Co900 2.021 . S
O917 C910 1.259 . S
O918 Co902 2.117 . S
O918 C910 1.258 . S
O919 Co902 2.020 . S
O919 C916 1.256 . S
O920 Co900 2.062 . S
O920 C916 1.255 . S
O921 C901 1.259 . S
O921 Co902 2.021 . S
H922 C913 0.930 . S
H923 C912 0.931 . S
O924 Co900 2.117 . S
O924 C901 1.258 . S
O925 Co900 2.020 . S
O925 C927 1.256 . S
O926 Co902 2.062 . S
O926 C927 1.255 . S
C927 O925 1.256 . S
C927 O926 1.255 . S
H928 C907 0.931 . S
H929 C915 0.931 . S
Co930 N935 2.057 . S
Co930 O947 2.021 . S
Co930 O950 2.062 . S
Co930 O954 2.117 . S
Co930 O955 2.020 . S
C931 O951 1.259 . S
C931 O954 1.258 . S
Co932 N941 2.057 . S
Co932 O948 2.117 . S
Co932 O949 2.020 . S
Co932 O951 2.021 . S
Co932 O956 2.062 . S
C933 N935 1.316 . S
C933 N936 1.347 . S
C933 H938 0.931 . S
C934 N935 1.375 . S
C934 C937 1.350 . S
C934 H939 0.930 . S
N935 Co930 2.057 . S
N935 C933 1.316 . S
N935 C934 1.375 . S
N936 C933 1.347 . S
N936 C937 1.373 . S
C937 C934 1.350 . S
C937 N936 1.373 . S
C937 H958 0.931 . S
H938 C933 0.931 . S
H939 C934 0.930 . S
C940 O947 1.259 . S
C940 O948 1.258 . S
N941 Co932 2.057 . S
N941 C942 1.316 . S
N941 C943 1.375 . S
C942 N941 1.316 . S
C942 N944 1.347 . S
C942 H953 0.931 . S
C943 N941 1.375 . S
C943 C945 1.350 . S
C943 H952 0.930 . S
N944 C942 1.347 . S
N944 C945 1.373 . S
C945 C943 1.350 . S
C945 N944 1.373 . S
C945 H959 0.931 . S
C946 O949 1.256 . S
C946 O950 1.255 . S
O947 Co930 2.021 . S
O947 C940 1.259 . S
O948 Co932 2.117 . S
O948 C940 1.258 . S
O949 Co932 2.020 . S
O949 C946 1.256 . S
O950 Co930 2.062 . S
O950 C946 1.255 . S
O951 C931 1.259 . S
O951 Co932 2.021 . S
H952 C943 0.930 . S
H953 C942 0.931 . S
O954 Co930 2.117 . S
O954 C931 1.258 . S
O955 Co930 2.020 . S
O955 C957 1.256 . S
O956 Co932 2.062 . S
O956 C957 1.255 . S
C957 O955 1.256 . S
C957 O956 1.255 . S
H958 C937 0.931 . S
H959 C945 0.931 . S
H960 C968 0.950 . S
H961 C973 0.950 . S
H962 C970 0.950 . S
H963 C972 0.950 . S
H964 C974 0.950 . S
H965 C976 0.950 . S
H966 C978 0.950 . S
H967 C979 0.950 . S
C968 H960 0.950 . S
C968 C969 1.386 . S
C968 C970 1.391 . S
C969 C968 1.386 . S
C969 C973 1.393 . S
C970 H962 0.950 . S
C970 C968 1.391 . S
C970 C971 1.400 . S
C971 C970 1.400 . S
C971 C972 1.398 . S
C971 C977 1.491 . S
C972 H963 0.950 . S
C972 C971 1.398 . S
C972 C973 1.391 . S
C973 H961 0.950 . S
C973 C969 1.393 . S
C973 C972 1.391 . S
C974 H964 0.950 . S
C974 C975 1.386 . S
C974 C976 1.391 . S
C975 C974 1.386 . S
C975 C979 1.393 . S
C976 H965 0.950 . S
C976 C974 1.391 . S
C976 C977 1.400 . S
C977 C971 1.491 . S
C977 C976 1.400 . S
C977 C978 1.398 . S
C978 H966 0.950 . S
C978 C977 1.398 . S
C978 C979 1.391 . S
C979 H967 0.950 . S
C979 C975 1.393 . S
C979 C978 1.391 . S
H980 C988 0.950 . S
H981 C993 0.950 . S
H982 C990 0.950 . S
H983 C992 0.950 . S
H984 C994 0.950 . S
H985 C996 0.950 . S
H986 C998 0.950 . S
H987 C999 0.950 . S
C988 H980 0.950 . S
C988 C989 1.386 . S
C988 C990 1.391 . S
C989 C988 1.386 . S
C989 C993 1.393 . S
C990 H982 0.950 . S
C990 C988 1.391 . S
C990 C991 1.400 . S
C991 C990 1.400 . S
C991 C992 1.398 . S
C991 C997 1.491 . S
C992 H983 0.950 . S
C992 C991 1.398 . S
C992 C993 1.391 . S
C993 H981 0.950 . S
C993 C989 1.393 . S
C993 C992 1.391 . S
C994 H984 0.950 . S
C994 C995 1.386 . S
C994 C996 1.391 . S
C995 C994 1.386 . S
C995 C999 1.393 . S
C996 H985 0.950 . S
C996 C994 1.391 . S
C996 C997 1.400 . S
C997 C991 1.491 . S
C997 C996 1.400 . S
C997 C998 1.398 . S
C998 H986 0.950 . S
C998 C997 1.398 . S
C998 C999 1.391 . S
C999 H987 0.950 . S
C999 C995 1.393 . S
C999 C998 1.391 . S
H1000 C1008 0.950 . S
H1001 C1013 0.950 . S
H1002 C1010 0.950 . S
H1003 C1012 0.950 . S
H1004 C1014 0.950 . S
H1005 C1016 0.950 . S
H1006 C1018 0.950 . S
H1007 C1019 0.950 . S
C1008 H1000 0.950 . S
C1008 C1009 1.386 . S
C1008 C1010 1.391 . S
C1009 C1008 1.386 . S
C1009 C1013 1.393 . S
C1010 H1002 0.950 . S
C1010 C1008 1.391 . S
C1010 C1011 1.400 . S
C1011 C1010 1.400 . S
C1011 C1012 1.398 . S
C1011 C1017 1.491 . S
C1012 H1003 0.950 . S
C1012 C1011 1.398 . S
C1012 C1013 1.391 . S
C1013 H1001 0.950 . S
C1013 C1009 1.393 . S
C1013 C1012 1.391 . S
C1014 H1004 0.950 . S
C1014 C1015 1.386 . S
C1014 C1016 1.391 . S
C1015 C1014 1.386 . S
C1015 C1019 1.393 . S
C1016 H1005 0.950 . S
C1016 C1014 1.391 . S
C1016 C1017 1.400 . S
C1017 C1011 1.491 . S
C1017 C1016 1.400 . S
C1017 C1018 1.398 . S
C1018 H1006 0.950 . S
C1018 C1017 1.398 . S
C1018 C1019 1.391 . S
C1019 H1007 0.950 . S
C1019 C1015 1.393 . S
C1019 C1018 1.391 . S
H1020 C1028 0.950 . S
H1021 C1033 0.950 . S
H1022 C1030 0.950 . S
H1023 C1032 0.950 . S
H1024 C1034 0.950 . S
H1025 C1036 0.950 . S
H1026 C1038 0.950 . S
H1027 C1039 0.950 . S
C1028 H1020 0.950 . S
C1028 C1029 1.386 . S
C1028 C1030 1.391 . S
C1029 C1028 1.386 . S
C1029 C1033 1.393 . S
C1030 H1022 0.950 . S
C1030 C1028 1.391 . S
C1030 C1031 1.400 . S
C1031 C1030 1.400 . S
C1031 C1032 1.398 . S
C1031 C1037 1.491 . S
C1032 H1023 0.950 . S
C1032 C1031 1.398 . S
C1032 C1033 1.391 . S
C1033 H1021 0.950 . S
C1033 C1029 1.393 . S
C1033 C1032 1.391 . S
C1034 H1024 0.950 . S
C1034 C1035 1.386 . S
C1034 C1036 1.391 . S
C1035 C1034 1.386 . S
C1035 C1039 1.393 . S
C1036 H1025 0.950 . S
C1036 C1034 1.391 . S
C1036 C1037 1.400 . S
C1037 C1031 1.491 . S
C1037 C1036 1.400 . S
C1037 C1038 1.398 . S
C1038 H1026 0.950 . S
C1038 C1037 1.398 . S
C1038 C1039 1.391 . S
C1039 H1027 0.950 . S
C1039 C1035 1.393 . S
C1039 C1038 1.391 . S
H1040 C1048 0.950 . S
H1041 C1053 0.950 . S
H1042 C1050 0.950 . S
H1043 C1052 0.950 . S
H1044 C1054 0.950 . S
H1045 C1056 0.950 . S
H1046 C1058 0.950 . S
H1047 C1059 0.950 . S
C1048 H1040 0.950 . S
C1048 C1049 1.386 . S
C1048 C1050 1.391 . S
C1049 C1048 1.386 . S
C1049 C1053 1.393 . S
C1050 H1042 0.950 . S
C1050 C1048 1.391 . S
C1050 C1051 1.400 . S
C1051 C1050 1.400 . S
C1051 C1052 1.398 . S
C1051 C1057 1.491 . S
C1052 H1043 0.950 . S
C1052 C1051 1.398 . S
C1052 C1053 1.391 . S
C1053 H1041 0.950 . S
C1053 C1049 1.393 . S
C1053 C1052 1.391 . S
C1054 H1044 0.950 . S
C1054 C1055 1.386 . S
C1054 C1056 1.391 . S
C1055 C1054 1.386 . S
C1055 C1059 1.393 . S
C1056 H1045 0.950 . S
C1056 C1054 1.391 . S
C1056 C1057 1.400 . S
C1057 C1051 1.491 . S
C1057 C1056 1.400 . S
C1057 C1058 1.398 . S
C1058 H1046 0.950 . S
C1058 C1057 1.398 . S
C1058 C1059 1.391 . S
C1059 H1047 0.950 . S
C1059 C1055 1.393 . S
C1059 C1058 1.391 . S
H1060 C1068 0.950 . S
H1061 C1073 0.950 . S
H1062 C1070 0.950 . S
H1063 C1072 0.950 . S
H1064 C1074 0.950 . S
H1065 C1076 0.950 . S
H1066 C1078 0.950 . S
H1067 C1079 0.950 . S
C1068 H1060 0.950 . S
C1068 C1069 1.386 . S
C1068 C1070 1.391 . S
C1069 C1068 1.386 . S
C1069 C1073 1.393 . S
C1070 H1062 0.950 . S
C1070 C1068 1.391 . S
C1070 C1071 1.400 . S
C1071 C1070 1.400 . S
C1071 C1072 1.398 . S
C1071 C1077 1.491 . S
C1072 H1063 0.950 . S
C1072 C1071 1.398 . S
C1072 C1073 1.391 . S
C1073 H1061 0.950 . S
C1073 C1069 1.393 . S
C1073 C1072 1.391 . S
C1074 H1064 0.950 . S
C1074 C1075 1.386 . S
C1074 C1076 1.391 . S
C1075 C1074 1.386 . S
C1075 C1079 1.393 . S
C1076 H1065 0.950 . S
C1076 C1074 1.391 . S
C1076 C1077 1.400 . S
C1077 C1071 1.491 . S
C1077 C1076 1.400 . S
C1077 C1078 1.398 . S
C1078 H1066 0.950 . S
C1078 C1077 1.398 . S
C1078 C1079 1.391 . S
C1079 H1067 0.950 . S
C1079 C1075 1.393 . S
C1079 C1078 1.391 . S
H1080 C1088 0.950 . S
H1081 C1093 0.950 . S
H1082 C1090 0.950 . S
H1083 C1092 0.950 . S
H1084 C1094 0.950 . S
H1085 C1096 0.950 . S
H1086 C1098 0.950 . S
H1087 C1099 0.950 . S
C1088 H1080 0.950 . S
C1088 C1089 1.386 . S
C1088 C1090 1.391 . S
C1089 C1088 1.386 . S
C1089 C1093 1.393 . S
C1090 H1082 0.950 . S
C1090 C1088 1.391 . S
C1090 C1091 1.400 . S
C1091 C1090 1.400 . S
C1091 C1092 1.398 . S
C1091 C1097 1.491 . S
C1092 H1083 0.950 . S
C1092 C1091 1.398 . S
C1092 C1093 1.391 . S
C1093 H1081 0.950 . S
C1093 C1089 1.393 . S
C1093 C1092 1.391 . S
C1094 H1084 0.950 . S
C1094 C1095 1.386 . S
C1094 C1096 1.391 . S
C1095 C1094 1.386 . S
C1095 C1099 1.393 . S
C1096 H1085 0.950 . S
C1096 C1094 1.391 . S
C1096 C1097 1.400 . S
C1097 C1091 1.491 . S
C1097 C1096 1.400 . S
C1097 C1098 1.398 . S
C1098 H1086 0.950 . S
C1098 C1097 1.398 . S
C1098 C1099 1.391 . S
C1099 H1087 0.950 . S
C1099 C1095 1.393 . S
C1099 C1098 1.391 . S
H1100 C1108 0.950 . S
H1101 C1113 0.950 . S
H1102 C1110 0.950 . S
H1103 C1112 0.950 . S
H1104 C1114 0.950 . S
H1105 C1116 0.950 . S
H1106 C1118 0.950 . S
H1107 C1119 0.950 . S
C1108 H1100 0.950 . S
C1108 C1109 1.386 . S
C1108 C1110 1.391 . S
C1109 C1108 1.386 . S
C1109 C1113 1.393 . S
C1110 H1102 0.950 . S
C1110 C1108 1.391 . S
C1110 C1111 1.400 . S
C1111 C1110 1.400 . S
C1111 C1112 1.398 . S
C1111 C1117 1.491 . S
C1112 H1103 0.950 . S
C1112 C1111 1.398 . S
C1112 C1113 1.391 . S
C1113 H1101 0.950 . S
C1113 C1109 1.393 . S
C1113 C1112 1.391 . S
C1114 H1104 0.950 . S
C1114 C1115 1.386 . S
C1114 C1116 1.391 . S
C1115 C1114 1.386 . S
C1115 C1119 1.393 . S
C1116 H1105 0.950 . S
C1116 C1114 1.391 . S
C1116 C1117 1.400 . S
C1117 C1111 1.491 . S
C1117 C1116 1.400 . S
C1117 C1118 1.398 . S
C1118 H1106 0.950 . S
C1118 C1117 1.398 . S
C1118 C1119 1.391 . S
C1119 H1107 0.950 . S
C1119 C1115 1.393 . S
C1119 C1118 1.391 . S
H1120 C1128 0.950 . S
H1121 C1133 0.950 . S
H1122 C1130 0.950 . S
H1123 C1132 0.950 . S
H1124 C1134 0.950 . S
H1125 C1136 0.950 . S
H1126 C1138 0.950 . S
H1127 C1139 0.950 . S
C1128 H1120 0.950 . S
C1128 C1129 1.386 . S
C1128 C1130 1.391 . S
C1129 C1128 1.386 . S
C1129 C1133 1.393 . S
C1130 H1122 0.950 . S
C1130 C1128 1.391 . S
C1130 C1131 1.400 . S
C1131 C1130 1.400 . S
C1131 C1132 1.398 . S
C1131 C1137 1.491 . S
C1132 H1123 0.950 . S
C1132 C1131 1.398 . S
C1132 C1133 1.391 . S
C1133 H1121 0.950 . S
C1133 C1129 1.393 . S
C1133 C1132 1.391 . S
C1134 H1124 0.950 . S
C1134 C1135 1.386 . S
C1134 C1136 1.391 . S
C1135 C1134 1.386 . S
C1135 C1139 1.393 . S
C1136 H1125 0.950 . S
C1136 C1134 1.391 . S
C1136 C1137 1.400 . S
C1137 C1131 1.491 . S
C1137 C1136 1.400 . S
C1137 C1138 1.398 . S
C1138 H1126 0.950 . S
C1138 C1137 1.398 . S
C1138 C1139 1.391 . S
C1139 H1127 0.950 . S
C1139 C1135 1.393 . S
C1139 C1138 1.391 . S
H1140 C1148 0.950 . S
H1141 C1153 0.950 . S
H1142 C1150 0.950 . S
H1143 C1152 0.950 . S
H1144 C1154 0.950 . S
H1145 C1156 0.950 . S
H1146 C1158 0.950 . S
H1147 C1159 0.950 . S
C1148 H1140 0.950 . S
C1148 C1149 1.386 . S
C1148 C1150 1.391 . S
C1149 C1148 1.386 . S
C1149 C1153 1.393 . S
C1150 H1142 0.950 . S
C1150 C1148 1.391 . S
C1150 C1151 1.400 . S
C1151 C1150 1.400 . S
C1151 C1152 1.398 . S
C1151 C1157 1.491 . S
C1152 H1143 0.950 . S
C1152 C1151 1.398 . S
C1152 C1153 1.391 . S
C1153 H1141 0.950 . S
C1153 C1149 1.393 . S
C1153 C1152 1.391 . S
C1154 H1144 0.950 . S
C1154 C1155 1.386 . S
C1154 C1156 1.391 . S
C1155 C1154 1.386 . S
C1155 C1159 1.393 . S
C1156 H1145 0.950 . S
C1156 C1154 1.391 . S
C1156 C1157 1.400 . S
C1157 C1151 1.491 . S
C1157 C1156 1.400 . S
C1157 C1158 1.398 . S
C1158 H1146 0.950 . S
C1158 C1157 1.398 . S
C1158 C1159 1.391 . S
C1159 H1147 0.950 . S
C1159 C1155 1.393 . S
C1159 C1158 1.391 . S
H1160 C1168 0.950 . S
H1161 C1173 0.950 . S
H1162 C1170 0.950 . S
H1163 C1172 0.950 . S
H1164 C1174 0.950 . S
H1165 C1176 0.950 . S
H1166 C1178 0.950 . S
H1167 C1179 0.950 . S
C1168 H1160 0.950 . S
C1168 C1169 1.386 . S
C1168 C1170 1.391 . S
C1169 C1168 1.386 . S
C1169 C1173 1.393 . S
C1170 H1162 0.950 . S
C1170 C1168 1.391 . S
C1170 C1171 1.400 . S
C1171 C1170 1.400 . S
C1171 C1172 1.398 . S
C1171 C1177 1.491 . S
C1172 H1163 0.950 . S
C1172 C1171 1.398 . S
C1172 C1173 1.391 . S
C1173 H1161 0.950 . S
C1173 C1169 1.393 . S
C1173 C1172 1.391 . S
C1174 H1164 0.950 . S
C1174 C1175 1.386 . S
C1174 C1176 1.391 . S
C1175 C1174 1.386 . S
C1175 C1179 1.393 . S
C1176 H1165 0.950 . S
C1176 C1174 1.391 . S
C1176 C1177 1.400 . S
C1177 C1171 1.491 . S
C1177 C1176 1.400 . S
C1177 C1178 1.398 . S
C1178 H1166 0.950 . S
C1178 C1177 1.398 . S
C1178 C1179 1.391 . S
C1179 H1167 0.950 . S
C1179 C1175 1.393 . S
C1179 C1178 1.391 . S
H1180 C1188 0.950 . S
H1181 C1193 0.950 . S
H1182 C1190 0.950 . S
H1183 C1192 0.950 . S
H1184 C1194 0.950 . S
H1185 C1196 0.950 . S
H1186 C1198 0.950 . S
H1187 C1199 0.950 . S
C1188 H1180 0.950 . S
C1188 C1189 1.386 . S
C1188 C1190 1.391 . S
C1189 C1188 1.386 . S
C1189 C1193 1.393 . S
C1190 H1182 0.950 . S
C1190 C1188 1.391 . S
C1190 C1191 1.400 . S
C1191 C1190 1.400 . S
C1191 C1192 1.398 . S
C1191 C1197 1.491 . S
C1192 H1183 0.950 . S
C1192 C1191 1.398 . S
C1192 C1193 1.391 . S
C1193 H1181 0.950 . S
C1193 C1189 1.393 . S
C1193 C1192 1.391 . S
C1194 H1184 0.950 . S
C1194 C1195 1.386 . S
C1194 C1196 1.391 . S
C1195 C1194 1.386 . S
C1195 C1199 1.393 . S
C1196 H1185 0.950 . S
C1196 C1194 1.391 . S
C1196 C1197 1.400 . S
C1197 C1191 1.491 . S
C1197 C1196 1.400 . S
C1197 C1198 1.398 . S
C1198 H1186 0.950 . S
C1198 C1197 1.398 . S
C1198 C1199 1.391 . S
C1199 H1187 0.950 . S
C1199 C1195 1.393 . S
C1199 C1198 1.391 . S
H1200 C1208 0.950 . S
H1201 C1213 0.950 . S
H1202 C1210 0.950 . S
H1203 C1212 0.950 . S
H1204 C1214 0.950 . S
H1205 C1216 0.950 . S
H1206 C1218 0.950 . S
H1207 C1219 0.950 . S
C1208 H1200 0.950 . S
C1208 C1209 1.386 . S
C1208 C1210 1.391 . S
C1209 C1208 1.386 . S
C1209 C1213 1.393 . S
C1210 H1202 0.950 . S
C1210 C1208 1.391 . S
C1210 C1211 1.400 . S
C1211 C1210 1.400 . S
C1211 C1212 1.398 . S
C1211 C1217 1.491 . S
C1212 H1203 0.950 . S
C1212 C1211 1.398 . S
C1212 C1213 1.391 . S
C1213 H1201 0.950 . S
C1213 C1209 1.393 . S
C1213 C1212 1.391 . S
C1214 H1204 0.950 . S
C1214 C1215 1.386 . S
C1214 C1216 1.391 . S
C1215 C1214 1.386 . S
C1215 C1219 1.393 . S
C1216 H1205 0.950 . S
C1216 C1214 1.391 . S
C1216 C1217 1.400 . S
C1217 C1211 1.491 . S
C1217 C1216 1.400 . S
C1217 C1218 1.398 . S
C1218 H1206 0.950 . S
C1218 C1217 1.398 . S
C1218 C1219 1.391 . S
C1219 H1207 0.950 . S
C1219 C1215 1.393 . S
C1219 C1218 1.391 . S
H1220 C1228 0.950 . S
H1221 C1233 0.950 . S
H1222 C1230 0.950 . S
H1223 C1232 0.950 . S
H1224 C1234 0.950 . S
H1225 C1236 0.950 . S
H1226 C1238 0.950 . S
H1227 C1239 0.950 . S
C1228 H1220 0.950 . S
C1228 C1229 1.386 . S
C1228 C1230 1.391 . S
C1229 C1228 1.386 . S
C1229 C1233 1.393 . S
C1230 H1222 0.950 . S
C1230 C1228 1.391 . S
C1230 C1231 1.400 . S
C1231 C1230 1.400 . S
C1231 C1232 1.398 . S
C1231 C1237 1.491 . S
C1232 H1223 0.950 . S
C1232 C1231 1.398 . S
C1232 C1233 1.391 . S
C1233 H1221 0.950 . S
C1233 C1229 1.393 . S
C1233 C1232 1.391 . S
C1234 H1224 0.950 . S
C1234 C1235 1.386 . S
C1234 C1236 1.391 . S
C1235 C1234 1.386 . S
C1235 C1239 1.393 . S
C1236 H1225 0.950 . S
C1236 C1234 1.391 . S
C1236 C1237 1.400 . S
C1237 C1231 1.491 . S
C1237 C1236 1.400 . S
C1237 C1238 1.398 . S
C1238 H1226 0.950 . S
C1238 C1237 1.398 . S
C1238 C1239 1.391 . S
C1239 H1227 0.950 . S
C1239 C1235 1.393 . S
C1239 C1238 1.391 . S
H1240 C1248 0.950 . S
H1241 C1253 0.950 . S
H1242 C1250 0.950 . S
H1243 C1252 0.950 . S
H1244 C1254 0.950 . S
H1245 C1256 0.950 . S
H1246 C1258 0.950 . S
H1247 C1259 0.950 . S
C1248 H1240 0.950 . S
C1248 C1249 1.386 . S
C1248 C1250 1.391 . S
C1249 C1248 1.386 . S
C1249 C1253 1.393 . S
C1250 H1242 0.950 . S
C1250 C1248 1.391 . S
C1250 C1251 1.400 . S
C1251 C1250 1.400 . S
C1251 C1252 1.398 . S
C1251 C1257 1.491 . S
C1252 H1243 0.950 . S
C1252 C1251 1.398 . S
C1252 C1253 1.391 . S
C1253 H1241 0.950 . S
C1253 C1249 1.393 . S
C1253 C1252 1.391 . S
C1254 H1244 0.950 . S
C1254 C1255 1.386 . S
C1254 C1256 1.391 . S
C1255 C1254 1.386 . S
C1255 C1259 1.393 . S
C1256 H1245 0.950 . S
C1256 C1254 1.391 . S
C1256 C1257 1.400 . S
C1257 C1251 1.491 . S
C1257 C1256 1.400 . S
C1257 C1258 1.398 . S
C1258 H1246 0.950 . S
C1258 C1257 1.398 . S
C1258 C1259 1.391 . S
C1259 H1247 0.950 . S
C1259 C1255 1.393 . S
C1259 C1258 1.391 . S
H1260 C1268 0.950 . S
H1261 C1273 0.950 . S
H1262 C1270 0.950 . S
H1263 C1272 0.950 . S
H1264 C1274 0.950 . S
H1265 C1276 0.950 . S
H1266 C1278 0.950 . S
H1267 C1279 0.950 . S
C1268 H1260 0.950 . S
C1268 C1269 1.386 . S
C1268 C1270 1.391 . S
C1269 C1268 1.386 . S
C1269 C1273 1.393 . S
C1270 H1262 0.950 . S
C1270 C1268 1.391 . S
C1270 C1271 1.400 . S
C1271 C1270 1.400 . S
C1271 C1272 1.398 . S
C1271 C1277 1.491 . S
C1272 H1263 0.950 . S
C1272 C1271 1.398 . S
C1272 C1273 1.391 . S
C1273 H1261 0.950 . S
C1273 C1269 1.393 . S
C1273 C1272 1.391 . S
C1274 H1264 0.950 . S
C1274 C1275 1.386 . S
C1274 C1276 1.391 . S
C1275 C1274 1.386 . S
C1275 C1279 1.393 . S
C1276 H1265 0.950 . S
C1276 C1274 1.391 . S
C1276 C1277 1.400 . S
C1277 C1271 1.491 . S
C1277 C1276 1.400 . S
C1277 C1278 1.398 . S
C1278 H1266 0.950 . S
C1278 C1277 1.398 . S
C1278 C1279 1.391 . S
C1279 H1267 0.950 . S
C1279 C1275 1.393 . S
C1279 C1278 1.391 . S
H1280 C1288 0.949 . S
H1281 C1293 0.950 . S
H1282 C1290 0.950 . S
H1283 C1292 0.954 . S
H1284 C1294 0.950 . S
H1285 C1296 0.950 . S
H1286 C1298 0.954 . S
H1287 C1299 0.950 . S
C1288 H1280 0.949 . S
C1288 C1289 1.386 . S
C1288 C1290 1.391 . S
C1289 C1288 1.386 . S
C1289 C1293 1.392 1_565 S
C1290 H1282 0.950 . S
C1290 C1288 1.391 . S
C1290 C1291 1.400 1_565 S
C1291 C1290 1.400 1_545 S
C1291 C1292 1.398 . S
C1291 C1297 1.491 1_545 S
C1292 H1283 0.954 . S
C1292 C1291 1.398 . S
C1292 C1293 1.390 . S
C1293 H1281 0.950 . S
C1293 C1289 1.392 1_545 S
C1293 C1292 1.390 . S
C1294 H1284 0.950 . S
C1294 C1295 1.386 . S
C1294 C1296 1.391 . S
C1295 C1294 1.386 . S
C1295 C1299 1.392 1_545 S
C1296 H1285 0.950 . S
C1296 C1294 1.391 . S
C1296 C1297 1.400 1_545 S
C1297 C1291 1.491 1_565 S
C1297 C1296 1.400 1_565 S
C1297 C1298 1.398 . S
C1298 H1286 0.954 . S
C1298 C1297 1.398 . S
C1298 C1299 1.390 . S
C1299 H1287 0.950 . S
C1299 C1295 1.392 1_565 S
C1299 C1298 1.390 . S
H1300 C1308 0.950 . S
H1301 C1313 0.950 . S
H1302 C1310 0.950 . S
H1303 C1312 0.950 1_655 S
H1304 C1314 0.950 . S
H1305 C1316 0.950 . S
H1306 C1318 0.950 1_455 S
H1307 C1319 0.950 . S
C1308 H1300 0.950 . S
C1308 C1309 1.386 . S
C1308 C1310 1.391 . S
C1309 C1308 1.386 . S
C1309 C1313 1.393 . S
C1310 H1302 0.950 . S
C1310 C1308 1.391 . S
C1310 C1311 1.400 . S
C1311 C1310 1.400 . S
C1311 C1312 1.398 . S
C1311 C1317 1.491 1_455 S
C1312 H1303 0.950 1_455 S
C1312 C1311 1.398 . S
C1312 C1313 1.391 . S
C1313 H1301 0.950 . S
C1313 C1309 1.393 . S
C1313 C1312 1.391 . S
C1314 H1304 0.950 . S
C1314 C1315 1.386 . S
C1314 C1316 1.391 . S
C1315 C1314 1.386 . S
C1315 C1319 1.393 . S
C1316 H1305 0.950 . S
C1316 C1314 1.391 . S
C1316 C1317 1.400 . S
C1317 C1311 1.491 1_655 S
C1317 C1316 1.400 . S
C1317 C1318 1.398 . S
C1318 H1306 0.950 1_655 S
C1318 C1317 1.398 . S
C1318 C1319 1.391 . S
C1319 H1307 0.950 . S
C1319 C1315 1.393 . S
C1319 C1318 1.391 . S
H1320 C1328 0.950 . S
H1321 C1333 0.950 . S
H1322 C1330 0.950 . S
H1323 C1332 0.950 1_554 S
H1324 C1334 0.950 . S
H1325 C1336 0.950 . S
H1326 C1338 0.950 1_556 S
H1327 C1339 0.950 . S
C1328 H1320 0.950 . S
C1328 C1329 1.386 . S
C1328 C1330 1.391 . S
C1329 C1328 1.386 . S
C1329 C1333 1.393 . S
C1330 H1322 0.950 . S
C1330 C1328 1.391 . S
C1330 C1331 1.400 . S
C1331 C1330 1.400 . S
C1331 C1332 1.398 . S
C1331 C1337 1.491 1_556 S
C1332 H1323 0.950 1_556 S
C1332 C1331 1.398 . S
C1332 C1333 1.391 . S
C1333 H1321 0.950 . S
C1333 C1329 1.393 . S
C1333 C1332 1.391 . S
C1334 H1324 0.950 . S
C1334 C1335 1.386 . S
C1334 C1336 1.391 . S
C1335 C1334 1.386 . S
C1335 C1339 1.393 . S
C1336 H1325 0.950 . S
C1336 C1334 1.391 . S
C1336 C1337 1.400 . S
C1337 C1331 1.491 1_554 S
C1337 C1336 1.400 . S
C1337 C1338 1.398 . S
C1338 H1326 0.950 1_554 S
C1338 C1337 1.398 . S
C1338 C1339 1.391 . S
C1339 H1327 0.950 . S
C1339 C1335 1.393 . S
C1339 C1338 1.391 . S
H1340 C1348 0.948 1_545 S
H1341 C1353 0.950 . S
H1342 C1350 0.953 1_455 S
H1343 C1352 0.950 1_556 S
H1344 C1354 0.948 1_565 S
H1345 C1356 0.953 1_655 S
H1346 C1358 0.950 1_554 S
H1347 C1359 0.950 . S
C1348 H1340 0.948 1_565 S
C1348 C1349 1.386 . S
C1348 C1350 1.390 1_565 S
C1349 C1348 1.386 . S
C1349 C1353 1.393 . S
C1350 H1342 0.953 1_655 S
C1350 C1348 1.390 1_545 S
C1350 C1351 1.398 1_545 S
C1351 C1350 1.398 1_565 S
C1351 C1352 1.403 . S
C1351 C1357 1.488 1_664 S
C1352 H1343 0.950 1_554 S
C1352 C1351 1.403 . S
C1352 C1353 1.391 . S
C1353 H1341 0.950 . S
C1353 C1349 1.393 . S
C1353 C1352 1.391 . S
C1354 H1344 0.948 1_545 S
C1354 C1355 1.386 . S
C1354 C1356 1.390 1_545 S
C1355 C1354 1.386 . S
C1355 C1359 1.393 . S
C1356 H1345 0.953 1_455 S
C1356 C1354 1.390 1_565 S
C1356 C1357 1.398 1_565 S
C1357 C1351 1.488 1_446 S
C1357 C1356 1.398 1_545 S
C1357 C1358 1.403 . S
C1358 H1346 0.950 1_556 S
C1358 C1357 1.403 . S
C1358 C1359 1.391 . S
C1359 H1347 0.950 . S
C1359 C1355 1.393 . S
C1359 C1358 1.391 . S
H1360 C1368 0.950 . S
H1361 C1373 0.950 . S
H1362 C1370 0.950 . S
H1363 C1372 0.950 . S
H1364 C1374 0.950 . S
H1365 C1376 0.950 . S
H1366 C1378 0.950 . S
H1367 C1379 0.950 . S
C1368 H1360 0.950 . S
C1368 C1369 1.374 1_565 S
C1368 C1370 1.391 . S
C1369 C1368 1.374 1_545 S
C1369 C1373 1.404 . S
C1370 H1362 0.950 . S
C1370 C1368 1.391 . S
C1370 C1371 1.400 . S
C1371 C1370 1.400 . S
C1371 C1372 1.399 1_565 S
C1371 C1377 1.491 1_565 S
C1372 H1363 0.950 . S
C1372 C1371 1.399 1_545 S
C1372 C1373 1.391 . S
C1373 H1361 0.950 . S
C1373 C1369 1.404 . S
C1373 C1372 1.391 . S
C1374 H1364 0.950 . S
C1374 C1375 1.374 1_545 S
C1374 C1376 1.391 . S
C1375 C1374 1.374 1_565 S
C1375 C1379 1.404 . S
C1376 H1365 0.950 . S
C1376 C1374 1.391 . S
C1376 C1377 1.400 . S
C1377 C1371 1.491 1_545 S
C1377 C1376 1.400 . S
C1377 C1378 1.399 1_545 S
C1378 H1366 0.950 . S
C1378 C1377 1.399 1_565 S
C1378 C1379 1.391 . S
C1379 H1367 0.950 . S
C1379 C1375 1.404 . S
C1379 C1378 1.391 . S
H1380 C1388 0.950 . S
H1381 C1393 0.950 . S
H1382 C1390 0.950 . S
H1383 C1392 0.950 1_655 S
H1384 C1394 0.950 . S
H1385 C1396 0.950 . S
H1386 C1398 0.950 1_455 S
H1387 C1399 0.950 . S
C1388 H1380 0.950 . S
C1388 C1389 1.386 . S
C1388 C1390 1.391 . S
C1389 C1388 1.386 . S
C1389 C1393 1.393 . S
C1390 H1382 0.950 . S
C1390 C1388 1.391 . S
C1390 C1391 1.400 . S
C1391 C1390 1.400 . S
C1391 C1392 1.398 . S
C1391 C1397 1.491 1_455 S
C1392 H1383 0.950 1_455 S
C1392 C1391 1.398 . S
C1392 C1393 1.391 . S
C1393 H1381 0.950 . S
C1393 C1389 1.393 . S
C1393 C1392 1.391 . S
C1394 H1384 0.950 . S
C1394 C1395 1.386 . S
C1394 C1396 1.391 . S
C1395 C1394 1.386 . S
C1395 C1399 1.393 . S
C1396 H1385 0.950 . S
C1396 C1394 1.391 . S
C1396 C1397 1.400 . S
C1397 C1391 1.491 1_655 S
C1397 C1396 1.400 . S
C1397 C1398 1.398 . S
C1398 H1386 0.950 1_655 S
C1398 C1397 1.398 . S
C1398 C1399 1.391 . S
C1399 H1387 0.950 . S
C1399 C1395 1.393 . S
C1399 C1398 1.391 . S
H1400 C1408 0.950 . S
H1401 C1413 0.950 . S
H1402 C1410 0.950 . S
H1403 C1412 0.950 1_554 S
H1404 C1414 0.950 . S
H1405 C1416 0.950 . S
H1406 C1418 0.950 1_556 S
H1407 C1419 0.950 . S
C1408 H1400 0.950 . S
C1408 C1409 1.386 . S
C1408 C1410 1.391 . S
C1409 C1408 1.386 . S
C1409 C1413 1.393 . S
C1410 H1402 0.950 . S
C1410 C1408 1.391 . S
C1410 C1411 1.400 . S
C1411 C1410 1.400 . S
C1411 C1412 1.398 . S
C1411 C1417 1.491 1_556 S
C1412 H1403 0.950 1_556 S
C1412 C1411 1.398 . S
C1412 C1413 1.391 . S
C1413 H1401 0.950 . S
C1413 C1409 1.393 . S
C1413 C1412 1.391 . S
C1414 H1404 0.950 . S
C1414 C1415 1.386 . S
C1414 C1416 1.391 . S
C1415 C1414 1.386 . S
C1415 C1419 1.393 . S
C1416 H1405 0.950 . S
C1416 C1414 1.391 . S
C1416 C1417 1.400 . S
C1417 C1411 1.491 1_554 S
C1417 C1416 1.400 . S
C1417 C1418 1.398 . S
C1418 H1406 0.950 1_554 S
C1418 C1417 1.398 . S
C1418 C1419 1.391 . S
C1419 H1407 0.950 . S
C1419 C1415 1.393 . S
C1419 C1418 1.391 . S
H1420 C1428 0.950 . S
H1421 C1433 0.950 . S
H1422 C1430 0.950 . S
H1423 C1432 0.950 . S
H1424 C1434 0.950 . S
H1425 C1436 0.950 . S
H1426 C1438 0.950 . S
H1427 C1439 0.950 . S
C1428 H1420 0.950 . S
C1428 C1429 1.386 . S
C1428 C1430 1.391 . S
C1429 C1428 1.386 . S
C1429 C1433 1.393 . S
C1430 H1422 0.950 . S
C1430 C1428 1.391 . S
C1430 C1431 1.400 . S
C1431 C1430 1.400 . S
C1431 C1432 1.398 . S
C1431 C1437 1.491 . S
C1432 H1423 0.950 . S
C1432 C1431 1.398 . S
C1432 C1433 1.391 . S
C1433 H1421 0.950 . S
C1433 C1429 1.393 . S
C1433 C1432 1.391 . S
C1434 H1424 0.950 . S
C1434 C1435 1.386 . S
C1434 C1436 1.391 . S
C1435 C1434 1.386 . S
C1435 C1439 1.393 . S
C1436 H1425 0.950 . S
C1436 C1434 1.391 . S
C1436 C1437 1.400 . S
C1437 C1431 1.491 . S
C1437 C1436 1.400 . S
C1437 C1438 1.398 . S
C1438 H1426 0.950 . S
C1438 C1437 1.398 . S
C1438 C1439 1.391 . S
C1439 H1427 0.950 . S
C1439 C1435 1.393 . S
C1439 C1438 1.391 . S
H1440 C1448 0.950 . S
H1441 C1453 0.950 . S
H1442 C1450 0.950 . S
H1443 C1452 0.950 . S
H1444 C1454 0.950 . S
H1445 C1456 0.950 . S
H1446 C1458 0.950 . S
H1447 C1459 0.950 . S
C1448 H1440 0.950 . S
C1448 C1449 1.386 . S
C1448 C1450 1.391 . S
C1449 C1448 1.386 . S
C1449 C1453 1.393 . S
C1450 H1442 0.950 . S
C1450 C1448 1.391 . S
C1450 C1451 1.400 . S
C1451 C1450 1.400 . S
C1451 C1452 1.398 . S
C1451 C1457 1.491 . S
C1452 H1443 0.950 . S
C1452 C1451 1.398 . S
C1452 C1453 1.391 . S
C1453 H1441 0.950 . S
C1453 C1449 1.393 . S
C1453 C1452 1.391 . S
C1454 H1444 0.950 . S
C1454 C1455 1.386 . S
C1454 C1456 1.391 . S
C1455 C1454 1.386 . S
C1455 C1459 1.393 . S
C1456 H1445 0.950 . S
C1456 C1454 1.391 . S
C1456 C1457 1.400 . S
C1457 C1451 1.491 . S
C1457 C1456 1.400 . S
C1457 C1458 1.398 . S
C1458 H1446 0.950 . S
C1458 C1457 1.398 . S
C1458 C1459 1.391 . S
C1459 H1447 0.950 . S
C1459 C1455 1.393 . S
C1459 C1458 1.391 . S
H1460 C1468 0.950 . S
H1461 C1473 0.950 . S
H1462 C1470 0.950 . S
H1463 C1472 0.950 . S
H1464 C1474 0.950 . S
H1465 C1476 0.950 . S
H1466 C1478 0.950 . S
H1467 C1479 0.950 . S
C1468 H1460 0.950 . S
C1468 C1469 1.386 . S
C1468 C1470 1.391 . S
C1469 C1468 1.386 . S
C1469 C1473 1.393 . S
C1470 H1462 0.950 . S
C1470 C1468 1.391 . S
C1470 C1471 1.400 . S
C1471 C1470 1.400 . S
C1471 C1472 1.398 . S
C1471 C1477 1.491 1_455 S
C1472 H1463 0.950 . S
C1472 C1471 1.398 . S
C1472 C1473 1.391 . S
C1473 H1461 0.950 . S
C1473 C1469 1.393 . S
C1473 C1472 1.391 . S
C1474 H1464 0.950 . S
C1474 C1475 1.386 . S
C1474 C1476 1.391 . S
C1475 C1474 1.386 . S
C1475 C1479 1.393 . S
C1476 H1465 0.950 . S
C1476 C1474 1.391 . S
C1476 C1477 1.400 . S
C1477 C1471 1.491 1_655 S
C1477 C1476 1.400 . S
C1477 C1478 1.398 . S
C1478 H1466 0.950 . S
C1478 C1477 1.398 . S
C1478 C1479 1.391 . S
C1479 H1467 0.950 . S
C1479 C1475 1.393 . S
C1479 C1478 1.391 . S
H1480 C1488 0.950 . S
H1481 C1493 0.950 . S
H1482 C1490 0.950 . S
H1483 C1492 0.950 . S
H1484 C1494 0.950 . S
H1485 C1496 0.950 . S
H1486 C1498 0.950 . S
H1487 C1499 0.950 . S
C1488 H1480 0.950 . S
C1488 C1489 1.386 . S
C1488 C1490 1.391 . S
C1489 C1488 1.386 . S
C1489 C1493 1.393 . S
C1490 H1482 0.950 . S
C1490 C1488 1.391 . S
C1490 C1491 1.400 . S
C1491 C1490 1.400 . S
C1491 C1492 1.398 . S
C1491 C1497 1.491 . S
C1492 H1483 0.950 . S
C1492 C1491 1.398 . S
C1492 C1493 1.391 . S
C1493 H1481 0.950 . S
C1493 C1489 1.393 . S
C1493 C1492 1.391 . S
C1494 H1484 0.950 . S
C1494 C1495 1.386 . S
C1494 C1496 1.391 . S
C1495 C1494 1.386 . S
C1495 C1499 1.393 . S
C1496 H1485 0.950 . S
C1496 C1494 1.391 . S
C1496 C1497 1.400 . S
C1497 C1491 1.491 . S
C1497 C1496 1.400 . S
C1497 C1498 1.398 . S
C1498 H1486 0.950 . S
C1498 C1497 1.398 . S
C1498 C1499 1.391 . S
C1499 H1487 0.950 . S
C1499 C1495 1.393 . S
C1499 C1498 1.391 . S
H1500 C1508 0.950 . S
H1501 C1513 0.950 . S
H1502 C1510 0.950 . S
H1503 C1512 0.950 . S
H1504 C1514 0.950 . S
H1505 C1516 0.950 . S
H1506 C1518 0.950 . S
H1507 C1519 0.950 . S
C1508 H1500 0.950 . S
C1508 C1509 1.386 . S
C1508 C1510 1.391 . S
C1509 C1508 1.386 . S
C1509 C1513 1.393 . S
C1510 H1502 0.950 . S
C1510 C1508 1.391 . S
C1510 C1511 1.400 . S
C1511 C1510 1.400 . S
C1511 C1512 1.398 . S
C1511 C1517 1.491 . S
C1512 H1503 0.950 . S
C1512 C1511 1.398 . S
C1512 C1513 1.391 . S
C1513 H1501 0.950 . S
C1513 C1509 1.393 . S
C1513 C1512 1.391 . S
C1514 H1504 0.950 . S
C1514 C1515 1.386 . S
C1514 C1516 1.391 . S
C1515 C1514 1.386 . S
C1515 C1519 1.393 . S
C1516 H1505 0.950 . S
C1516 C1514 1.391 . S
C1516 C1517 1.400 . S
C1517 C1511 1.491 . S
C1517 C1516 1.400 . S
C1517 C1518 1.398 . S
C1518 H1506 0.950 . S
C1518 C1517 1.398 . S
C1518 C1519 1.391 . S
C1519 H1507 0.950 . S
C1519 C1515 1.393 . S
C1519 C1518 1.391 . S
H1520 C1528 0.950 . S
H1521 C1533 0.950 . S
H1522 C1530 0.950 . S
H1523 C1532 0.950 . S
H1524 C1534 0.950 . S
H1525 C1536 0.950 . S
H1526 C1538 0.950 . S
H1527 C1539 0.950 . S
C1528 H1520 0.950 . S
C1528 C1529 1.386 . S
C1528 C1530 1.391 . S
C1529 C1528 1.386 . S
C1529 C1533 1.393 . S
C1530 H1522 0.950 . S
C1530 C1528 1.391 . S
C1530 C1531 1.400 . S
C1531 C1530 1.400 . S
C1531 C1532 1.398 . S
C1531 C1537 1.491 . S
C1532 H1523 0.950 . S
C1532 C1531 1.398 . S
C1532 C1533 1.391 . S
C1533 H1521 0.950 . S
C1533 C1529 1.393 . S
C1533 C1532 1.391 . S
C1534 H1524 0.950 . S
C1534 C1535 1.386 . S
C1534 C1536 1.391 . S
C1535 C1534 1.386 . S
C1535 C1539 1.393 . S
C1536 H1525 0.950 . S
C1536 C1534 1.391 . S
C1536 C1537 1.400 . S
C1537 C1531 1.491 . S
C1537 C1536 1.400 . S
C1537 C1538 1.398 . S
C1538 H1526 0.950 . S
C1538 C1537 1.398 . S
C1538 C1539 1.391 . S
C1539 H1527 0.950 . S
C1539 C1535 1.393 . S
C1539 C1538 1.391 . S
H1540 C1548 0.950 . S
H1541 C1553 0.950 . S
H1542 C1550 0.950 . S
H1543 C1552 0.950 . S
H1544 C1554 0.950 . S
H1545 C1556 0.950 . S
H1546 C1558 0.950 . S
H1547 C1559 0.950 . S
C1548 H1540 0.950 . S
C1548 C1549 1.386 . S
C1548 C1550 1.391 . S
C1549 C1548 1.386 . S
C1549 C1553 1.393 1_565 S
C1550 H1542 0.950 . S
C1550 C1548 1.391 . S
C1550 C1551 1.400 . S
C1551 C1550 1.400 . S
C1551 C1552 1.398 1_565 S
C1551 C1557 1.491 1_565 S
C1552 H1543 0.950 . S
C1552 C1551 1.398 1_545 S
C1552 C1553 1.391 . S
C1553 H1541 0.950 . S
C1553 C1549 1.393 1_545 S
C1553 C1552 1.391 . S
C1554 H1544 0.950 . S
C1554 C1555 1.386 . S
C1554 C1556 1.391 . S
C1555 C1554 1.386 . S
C1555 C1559 1.393 1_545 S
C1556 H1545 0.950 . S
C1556 C1554 1.391 . S
C1556 C1557 1.400 . S
C1557 C1551 1.491 1_545 S
C1557 C1556 1.400 . S
C1557 C1558 1.398 1_545 S
C1558 H1546 0.950 . S
C1558 C1557 1.398 1_565 S
C1558 C1559 1.391 . S
C1559 H1547 0.950 . S
C1559 C1555 1.393 1_565 S
C1559 C1558 1.391 . S
H1560 C1568 0.950 . S
H1561 C1573 0.950 . S
H1562 C1570 0.950 . S
H1563 C1572 0.950 . S
H1564 C1574 0.950 . S
H1565 C1576 0.950 . S
H1566 C1578 0.950 . S
H1567 C1579 0.950 . S
C1568 H1560 0.950 . S
C1568 C1569 1.386 . S
C1568 C1570 1.391 . S
C1569 C1568 1.386 . S
C1569 C1573 1.393 . S
C1570 H1562 0.950 . S
C1570 C1568 1.391 . S
C1570 C1571 1.400 . S
C1571 C1570 1.400 . S
C1571 C1572 1.398 . S
C1571 C1577 1.491 . S
C1572 H1563 0.950 . S
C1572 C1571 1.398 . S
C1572 C1573 1.391 . S
C1573 H1561 0.950 . S
C1573 C1569 1.393 . S
C1573 C1572 1.391 . S
C1574 H1564 0.950 . S
C1574 C1575 1.386 . S
C1574 C1576 1.391 . S
C1575 C1574 1.386 . S
C1575 C1579 1.393 . S
C1576 H1565 0.950 . S
C1576 C1574 1.391 . S
C1576 C1577 1.400 . S
C1577 C1571 1.491 . S
C1577 C1576 1.400 . S
C1577 C1578 1.398 . S
C1578 H1566 0.950 . S
C1578 C1577 1.398 . S
C1578 C1579 1.391 . S
C1579 H1567 0.950 . S
C1579 C1575 1.393 . S
C1579 C1578 1.391 . S
H1580 C1588 0.950 . S
H1581 C1593 0.950 . S
H1582 C1590 0.950 . S
H1583 C1592 0.950 1_556 S
H1584 C1594 0.950 . S
H1585 C1596 0.950 . S
H1586 C1598 0.950 1_554 S
H1587 C1599 0.950 . S
C1588 H1580 0.950 . S
C1588 C1589 1.386 . S
C1588 C1590 1.391 . S
C1589 C1588 1.386 . S
C1589 C1593 1.393 . S
C1590 H1582 0.950 . S
C1590 C1588 1.391 . S
C1590 C1591 1.400 . S
C1591 C1590 1.400 . S
C1591 C1592 1.398 . S
C1591 C1597 1.491 1_554 S
C1592 H1583 0.950 1_554 S
C1592 C1591 1.398 . S
C1592 C1593 1.391 . S
C1593 H1581 0.950 . S
C1593 C1589 1.393 . S
C1593 C1592 1.391 . S
C1594 H1584 0.950 . S
C1594 C1595 1.386 . S
C1594 C1596 1.391 . S
C1595 C1594 1.386 . S
C1595 C1599 1.393 . S
C1596 H1585 0.950 . S
C1596 C1594 1.391 . S
C1596 C1597 1.400 . S
C1597 C1591 1.491 1_556 S
C1597 C1596 1.400 . S
C1597 C1598 1.398 . S
C1598 H1586 0.950 1_556 S
C1598 C1597 1.398 . S
C1598 C1599 1.391 . S
C1599 H1587 0.950 . S
C1599 C1595 1.393 . S
C1599 C1598 1.391 . S
H1600 C1608 0.950 . S
H1601 C1613 0.950 . S
H1602 C1610 0.950 . S
H1603 C1612 0.950 . S
H1604 C1614 0.950 . S
H1605 C1616 0.950 . S
H1606 C1618 0.950 . S
H1607 C1619 0.950 . S
C1608 H1600 0.950 . S
C1608 C1609 1.386 1_565 S
C1608 C1610 1.391 . S
C1609 C1608 1.386 1_545 S
C1609 C1613 1.393 . S
C1610 H1602 0.950 . S
C1610 C1608 1.391 . S
C1610 C1611 1.400 1_565 S
C1611 C1610 1.400 1_545 S
C1611 C1612 1.398 . S
C1611 C1617 1.491 . S
C1612 H1603 0.950 . S
C1612 C1611 1.398 . S
C1612 C1613 1.391 . S
C1613 H1601 0.950 . S
C1613 C1609 1.393 . S
C1613 C1612 1.391 . S
C1614 H1604 0.950 . S
C1614 C1615 1.386 . S
C1614 C1616 1.391 . S
C1615 C1614 1.386 . S
C1615 C1619 1.393 1_545 S
C1616 H1605 0.950 . S
C1616 C1614 1.391 . S
C1616 C1617 1.400 . S
C1617 C1611 1.491 . S
C1617 C1616 1.400 . S
C1617 C1618 1.398 1_545 S
C1618 H1606 0.950 . S
C1618 C1617 1.398 1_565 S
C1618 C1619 1.391 . S
C1619 H1607 0.950 . S
C1619 C1615 1.393 1_565 S
C1619 C1618 1.391 . S
H1620 C1628 0.950 . S
H1621 C1633 0.950 . S
H1622 C1630 0.950 . S
H1623 C1632 0.950 . S
H1624 C1634 0.950 . S
H1625 C1636 0.950 . S
H1626 C1638 0.950 . S
H1627 C1639 0.950 . S
C1628 H1620 0.950 . S
C1628 C1629 1.386 . S
C1628 C1630 1.391 . S
C1629 C1628 1.386 . S
C1629 C1633 1.393 . S
C1630 H1622 0.950 . S
C1630 C1628 1.391 . S
C1630 C1631 1.400 . S
C1631 C1630 1.400 . S
C1631 C1632 1.398 . S
C1631 C1637 1.491 . S
C1632 H1623 0.950 . S
C1632 C1631 1.398 . S
C1632 C1633 1.391 . S
C1633 H1621 0.950 . S
C1633 C1629 1.393 . S
C1633 C1632 1.391 . S
C1634 H1624 0.950 . S
C1634 C1635 1.386 . S
C1634 C1636 1.391 . S
C1635 C1634 1.386 . S
C1635 C1639 1.393 . S
C1636 H1625 0.950 . S
C1636 C1634 1.391 . S
C1636 C1637 1.400 . S
C1637 C1631 1.491 . S
C1637 C1636 1.400 . S
C1637 C1638 1.398 . S
C1638 H1626 0.950 . S
C1638 C1637 1.398 . S
C1638 C1639 1.391 . S
C1639 H1627 0.950 . S
C1639 C1635 1.393 . S
C1639 C1638 1.391 . S
H1640 C1648 0.950 . S
H1641 C1653 0.950 . S
H1642 C1650 0.950 . S
H1643 C1652 0.950 . S
H1644 C1654 0.950 . S
H1645 C1656 0.950 . S
H1646 C1658 0.950 . S
H1647 C1659 0.950 . S
C1648 H1640 0.950 . S
C1648 C1649 1.386 . S
C1648 C1650 1.391 . S
C1649 C1648 1.386 . S
C1649 C1653 1.393 . S
C1650 H1642 0.950 . S
C1650 C1648 1.391 . S
C1650 C1651 1.400 . S
C1651 C1650 1.400 . S
C1651 C1652 1.398 . S
C1651 C1657 1.491 . S
C1652 H1643 0.950 . S
C1652 C1651 1.398 . S
C1652 C1653 1.391 . S
C1653 H1641 0.950 . S
C1653 C1649 1.393 . S
C1653 C1652 1.391 . S
C1654 H1644 0.950 . S
C1654 C1655 1.386 . S
C1654 C1656 1.391 . S
C1655 C1654 1.386 . S
C1655 C1659 1.393 . S
C1656 H1645 0.950 . S
C1656 C1654 1.391 . S
C1656 C1657 1.400 . S
C1657 C1651 1.491 . S
C1657 C1656 1.400 . S
C1657 C1658 1.398 . S
C1658 H1646 0.950 . S
C1658 C1657 1.398 . S
C1658 C1659 1.391 . S
C1659 H1647 0.950 . S
C1659 C1655 1.393 . S
C1659 C1658 1.391 . S
H1660 C1668 0.950 . S
H1661 C1673 0.950 . S
H1662 C1670 0.950 . S
H1663 C1672 0.950 . S
H1664 C1674 0.950 . S
H1665 C1676 0.950 . S
H1666 C1678 0.950 . S
H1667 C1679 0.950 . S
C1668 H1660 0.950 . S
C1668 C1669 1.386 . S
C1668 C1670 1.391 . S
C1669 C1668 1.386 . S
C1669 C1673 1.393 . S
C1670 H1662 0.950 . S
C1670 C1668 1.391 . S
C1670 C1671 1.400 . S
C1671 C1670 1.400 . S
C1671 C1672 1.398 . S
C1671 C1677 1.491 . S
C1672 H1663 0.950 . S
C1672 C1671 1.398 . S
C1672 C1673 1.391 . S
C1673 H1661 0.950 . S
C1673 C1669 1.393 . S
C1673 C1672 1.391 . S
C1674 H1664 0.950 . S
C1674 C1675 1.386 . S
C1674 C1676 1.391 . S
C1675 C1674 1.386 . S
C1675 C1679 1.393 . S
C1676 H1665 0.950 . S
C1676 C1674 1.391 . S
C1676 C1677 1.400 . S
C1677 C1671 1.491 . S
C1677 C1676 1.400 . S
C1677 C1678 1.398 . S
C1678 H1666 0.950 . S
C1678 C1677 1.398 . S
C1678 C1679 1.391 . S
C1679 H1667 0.950 . S
C1679 C1675 1.393 . S
C1679 C1678 1.391 . S
H1680 C1688 0.950 . S
H1681 C1693 0.950 . S
H1682 C1690 0.950 . S
H1683 C1692 0.950 . S
H1684 C1694 0.950 . S
H1685 C1696 0.950 . S
H1686 C1698 0.950 . S
H1687 C1699 0.950 . S
C1688 H1680 0.950 . S
C1688 C1689 1.386 . S
C1688 C1690 1.391 . S
C1689 C1688 1.386 . S
C1689 C1693 1.393 1_565 S
C1690 H1682 0.950 . S
C1690 C1688 1.391 . S
C1690 C1691 1.400 . S
C1691 C1690 1.400 . S
C1691 C1692 1.398 1_565 S
C1691 C1697 1.491 . S
C1692 H1683 0.950 . S
C1692 C1691 1.398 1_545 S
C1692 C1693 1.391 . S
C1693 H1681 0.950 . S
C1693 C1689 1.393 1_545 S
C1693 C1692 1.391 . S
C1694 H1684 0.950 . S
C1694 C1695 1.386 1_545 S
C1694 C1696 1.391 . S
C1695 C1694 1.386 1_565 S
C1695 C1699 1.393 . S
C1696 H1685 0.950 . S
C1696 C1694 1.391 . S
C1696 C1697 1.400 1_545 S
C1697 C1691 1.491 . S
C1697 C1696 1.400 1_565 S
C1697 C1698 1.398 . S
C1698 H1686 0.950 . S
C1698 C1697 1.398 . S
C1698 C1699 1.391 . S
C1699 H1687 0.950 . S
C1699 C1695 1.393 . S
C1699 C1698 1.391 . S
H1700 C1708 0.950 . S
H1701 C1713 0.950 . S
H1702 C1710 0.950 . S
H1703 C1712 0.950 . S
H1704 C1714 0.950 . S
H1705 C1716 0.950 . S
H1706 C1718 0.950 . S
H1707 C1719 0.950 . S
C1708 H1700 0.950 . S
C1708 C1709 1.386 . S
C1708 C1710 1.391 . S
C1709 C1708 1.386 . S
C1709 C1713 1.393 . S
C1710 H1702 0.950 . S
C1710 C1708 1.391 . S
C1710 C1711 1.400 . S
C1711 C1710 1.400 . S
C1711 C1712 1.398 . S
C1711 C1717 1.491 . S
C1712 H1703 0.950 . S
C1712 C1711 1.398 . S
C1712 C1713 1.391 . S
C1713 H1701 0.950 . S
C1713 C1709 1.393 . S
C1713 C1712 1.391 . S
C1714 H1704 0.950 . S
C1714 C1715 1.386 . S
C1714 C1716 1.391 . S
C1715 C1714 1.386 . S
C1715 C1719 1.393 . S
C1716 H1705 0.950 . S
C1716 C1714 1.391 . S
C1716 C1717 1.400 . S
C1717 C1711 1.491 . S
C1717 C1716 1.400 . S
C1717 C1718 1.398 . S
C1718 H1706 0.950 . S
C1718 C1717 1.398 . S
C1718 C1719 1.391 . S
C1719 H1707 0.950 . S
C1719 C1715 1.393 . S
C1719 C1718 1.391 . S
H1720 C1728 0.950 . S
H1721 C1733 0.950 . S
H1722 C1730 0.950 . S
H1723 C1732 0.950 . S
H1724 C1734 0.950 . S
H1725 C1736 0.950 . S
H1726 C1738 0.950 . S
H1727 C1739 0.950 . S
C1728 H1720 0.950 . S
C1728 C1729 1.386 . S
C1728 C1730 1.391 . S
C1729 C1728 1.386 . S
C1729 C1733 1.393 . S
C1730 H1722 0.950 . S
C1730 C1728 1.391 . S
C1730 C1731 1.400 . S
C1731 C1730 1.400 . S
C1731 C1732 1.398 . S
C1731 C1737 1.491 . S
C1732 H1723 0.950 . S
C1732 C1731 1.398 . S
C1732 C1733 1.391 . S
C1733 H1721 0.950 . S
C1733 C1729 1.393 . S
C1733 C1732 1.391 . S
C1734 H1724 0.950 . S
C1734 C1735 1.386 . S
C1734 C1736 1.391 . S
C1735 C1734 1.386 . S
C1735 C1739 1.393 . S
C1736 H1725 0.950 . S
C1736 C1734 1.391 . S
C1736 C1737 1.400 . S
C1737 C1731 1.491 . S
C1737 C1736 1.400 . S
C1737 C1738 1.398 . S
C1738 H1726 0.950 . S
C1738 C1737 1.398 . S
C1738 C1739 1.391 . S
C1739 H1727 0.950 . S
C1739 C1735 1.393 . S
C1739 C1738 1.391 . S
H1740 C1748 0.950 . S
H1741 C1753 0.950 . S
H1742 C1750 0.950 . S
H1743 C1752 0.950 . S
H1744 C1754 0.950 . S
H1745 C1756 0.950 . S
H1746 C1758 0.950 . S
H1747 C1759 0.950 . S
C1748 H1740 0.950 . S
C1748 C1749 1.386 1_545 S
C1748 C1750 1.391 . S
C1749 C1748 1.386 1_565 S
C1749 C1753 1.393 . S
C1750 H1742 0.950 . S
C1750 C1748 1.391 . S
C1750 C1751 1.400 1_545 S
C1751 C1750 1.400 1_565 S
C1751 C1752 1.398 . S
C1751 C1757 1.491 . S
C1752 H1743 0.950 . S
C1752 C1751 1.398 . S
C1752 C1753 1.391 . S
C1753 H1741 0.950 . S
C1753 C1749 1.393 . S
C1753 C1752 1.391 . S
C1754 H1744 0.950 . S
C1754 C1755 1.386 . S
C1754 C1756 1.391 . S
C1755 C1754 1.386 . S
C1755 C1759 1.393 1_565 S
C1756 H1745 0.950 . S
C1756 C1754 1.391 . S
C1756 C1757 1.400 . S
C1757 C1751 1.491 . S
C1757 C1756 1.400 . S
C1757 C1758 1.398 1_565 S
C1758 H1746 0.950 . S
C1758 C1757 1.398 1_545 S
C1758 C1759 1.391 . S
C1759 H1747 0.950 . S
C1759 C1755 1.393 1_545 S
C1759 C1758 1.391 . S
H1760 C1768 0.950 . S
H1761 C1773 0.950 . S
H1762 C1770 0.950 . S
H1763 C1772 0.950 . S
H1764 C1774 0.950 . S
H1765 C1776 0.950 . S
H1766 C1778 0.950 . S
H1767 C1779 0.950 . S
C1768 H1760 0.950 . S
C1768 C1769 1.386 . S
C1768 C1770 1.391 . S
C1769 C1768 1.386 . S
C1769 C1773 1.393 . S
C1770 H1762 0.950 . S
C1770 C1768 1.391 . S
C1770 C1771 1.400 . S
C1771 C1770 1.400 . S
C1771 C1772 1.398 . S
C1771 C1777 1.491 . S
C1772 H1763 0.950 . S
C1772 C1771 1.398 . S
C1772 C1773 1.391 . S
C1773 H1761 0.950 . S
C1773 C1769 1.393 . S
C1773 C1772 1.391 . S
C1774 H1764 0.950 . S
C1774 C1775 1.386 . S
C1774 C1776 1.391 . S
C1775 C1774 1.386 . S
C1775 C1779 1.393 . S
C1776 H1765 0.950 . S
C1776 C1774 1.391 . S
C1776 C1777 1.400 . S
C1777 C1771 1.491 . S
C1777 C1776 1.400 . S
C1777 C1778 1.398 . S
C1778 H1766 0.950 . S
C1778 C1777 1.398 . S
C1778 C1779 1.391 . S
C1779 H1767 0.950 . S
C1779 C1775 1.393 . S
C1779 C1778 1.391 . S
H1780 C1788 0.950 . S
H1781 C1793 0.950 . S
H1782 C1790 0.950 . S
H1783 C1792 0.950 . S
H1784 C1794 0.950 . S
H1785 C1796 0.950 . S
H1786 C1798 0.950 . S
H1787 C1799 0.950 . S
C1788 H1780 0.950 . S
C1788 C1789 1.386 . S
C1788 C1790 1.391 . S
C1789 C1788 1.386 . S
C1789 C1793 1.393 . S
C1790 H1782 0.950 . S
C1790 C1788 1.391 . S
C1790 C1791 1.400 . S
C1791 C1790 1.400 . S
C1791 C1792 1.398 . S
C1791 C1797 1.491 . S
C1792 H1783 0.950 . S
C1792 C1791 1.398 . S
C1792 C1793 1.391 . S
C1793 H1781 0.950 . S
C1793 C1789 1.393 . S
C1793 C1792 1.391 . S
C1794 H1784 0.950 . S
C1794 C1795 1.386 . S
C1794 C1796 1.391 . S
C1795 C1794 1.386 . S
C1795 C1799 1.393 . S
C1796 H1785 0.950 . S
C1796 C1794 1.391 . S
C1796 C1797 1.400 . S
C1797 C1791 1.491 . S
C1797 C1796 1.400 . S
C1797 C1798 1.398 . S
C1798 H1786 0.950 . S
C1798 C1797 1.398 . S
C1798 C1799 1.391 . S
C1799 H1787 0.950 . S
C1799 C1795 1.393 . S
C1799 C1798 1.391 . S
H1800 C1808 0.950 . S
H1801 C1813 0.950 . S
H1802 C1810 0.950 . S
H1803 C1812 0.950 . S
H1804 C1814 0.950 . S
H1805 C1816 0.950 . S
H1806 C1818 0.950 . S
H1807 C1819 0.950 . S
C1808 H1800 0.950 . S
C1808 C1809 1.386 . S
C1808 C1810 1.391 . S
C1809 C1808 1.386 . S
C1809 C1813 1.393 . S
C1810 H1802 0.950 . S
C1810 C1808 1.391 . S
C1810 C1811 1.400 . S
C1811 C1810 1.400 . S
C1811 C1812 1.398 . S
C1811 C1817 1.491 . S
C1812 H1803 0.950 . S
C1812 C1811 1.398 . S
C1812 C1813 1.391 . S
C1813 H1801 0.950 . S
C1813 C1809 1.393 . S
C1813 C1812 1.391 . S
C1814 H1804 0.950 . S
C1814 C1815 1.386 . S
C1814 C1816 1.391 . S
C1815 C1814 1.386 . S
C1815 C1819 1.393 . S
C1816 H1805 0.950 . S
C1816 C1814 1.391 . S
C1816 C1817 1.400 . S
C1817 C1811 1.491 . S
C1817 C1816 1.400 . S
C1817 C1818 1.398 . S
C1818 H1806 0.950 . S
C1818 C1817 1.398 . S
C1818 C1819 1.391 . S
C1819 H1807 0.950 . S
C1819 C1815 1.393 . S
C1819 C1818 1.391 . S
H1820 C1828 0.950 . S
H1821 C1833 0.950 . S
H1822 C1830 0.950 . S
H1823 C1832 0.950 . S
H1824 C1834 0.950 . S
H1825 C1836 0.950 . S
H1826 C1838 0.950 . S
H1827 C1839 0.950 . S
C1828 H1820 0.950 . S
C1828 C1829 1.386 . S
C1828 C1830 1.391 . S
C1829 C1828 1.386 . S
C1829 C1833 1.393 . S
C1830 H1822 0.950 . S
C1830 C1828 1.391 . S
C1830 C1831 1.400 . S
C1831 C1830 1.400 . S
C1831 C1832 1.398 . S
C1831 C1837 1.491 . S
C1832 H1823 0.950 . S
C1832 C1831 1.398 . S
C1832 C1833 1.391 . S
C1833 H1821 0.950 . S
C1833 C1829 1.393 . S
C1833 C1832 1.391 . S
C1834 H1824 0.950 . S
C1834 C1835 1.386 . S
C1834 C1836 1.391 . S
C1835 C1834 1.386 . S
C1835 C1839 1.393 . S
C1836 H1825 0.950 . S
C1836 C1834 1.391 . S
C1836 C1837 1.400 . S
C1837 C1831 1.491 . S
C1837 C1836 1.400 . S
C1837 C1838 1.398 . S
C1838 H1826 0.950 . S
C1838 C1837 1.398 . S
C1838 C1839 1.391 . S
C1839 H1827 0.950 . S
C1839 C1835 1.393 . S
C1839 C1838 1.391 . S
H1840 C1848 0.950 . S
H1841 C1853 0.950 . S
H1842 C1850 0.950 . S
H1843 C1852 0.950 . S
H1844 C1854 0.950 . S
H1845 C1856 0.950 . S
H1846 C1858 0.950 . S
H1847 C1859 0.950 . S
C1848 H1840 0.950 . S
C1848 C1849 1.386 . S
C1848 C1850 1.391 . S
C1849 C1848 1.386 . S
C1849 C1853 1.393 . S
C1850 H1842 0.950 . S
C1850 C1848 1.391 . S
C1850 C1851 1.400 . S
C1851 C1850 1.400 . S
C1851 C1852 1.398 . S
C1851 C1857 1.491 . S
C1852 H1843 0.950 . S
C1852 C1851 1.398 . S
C1852 C1853 1.391 . S
C1853 H1841 0.950 . S
C1853 C1849 1.393 . S
C1853 C1852 1.391 . S
C1854 H1844 0.950 . S
C1854 C1855 1.386 . S
C1854 C1856 1.391 . S
C1855 C1854 1.386 . S
C1855 C1859 1.393 . S
C1856 H1845 0.950 . S
C1856 C1854 1.391 . S
C1856 C1857 1.400 . S
C1857 C1851 1.491 . S
C1857 C1856 1.400 . S
C1857 C1858 1.398 . S
C1858 H1846 0.950 . S
C1858 C1857 1.398 . S
C1858 C1859 1.391 . S
C1859 H1847 0.950 . S
C1859 C1855 1.393 . S
C1859 C1858 1.391 . S
H1860 C1868 0.950 . S
H1861 C1873 0.950 . S
H1862 C1870 0.950 . S
H1863 C1872 0.950 . S
H1864 C1874 0.950 . S
H1865 C1876 0.950 . S
H1866 C1878 0.950 . S
H1867 C1879 0.950 . S
C1868 H1860 0.950 . S
C1868 C1869 1.386 . S
C1868 C1870 1.391 . S
C1869 C1868 1.386 . S
C1869 C1873 1.393 . S
C1870 H1862 0.950 . S
C1870 C1868 1.391 . S
C1870 C1871 1.400 . S
C1871 C1870 1.400 . S
C1871 C1872 1.398 . S
C1871 C1877 1.491 . S
C1872 H1863 0.950 . S
C1872 C1871 1.398 . S
C1872 C1873 1.391 . S
C1873 H1861 0.950 . S
C1873 C1869 1.393 . S
C1873 C1872 1.391 . S
C1874 H1864 0.950 . S
C1874 C1875 1.386 . S
C1874 C1876 1.391 . S
C1875 C1874 1.386 . S
C1875 C1879 1.393 . S
C1876 H1865 0.950 . S
C1876 C1874 1.391 . S
C1876 C1877 1.400 . S
C1877 C1871 1.491 . S
C1877 C1876 1.400 . S
C1877 C1878 1.398 . S
C1878 H1866 0.950 . S
C1878 C1877 1.398 . S
C1878 C1879 1.391 . S
C1879 H1867 0.950 . S
C1879 C1875 1.393 . S
C1879 C1878 1.391 . S
H1880 C1888 0.950 . S
H1881 C1893 0.950 . S
H1882 C1890 0.950 . S
H1883 C1892 0.950 . S
H1884 C1894 0.950 . S
H1885 C1896 0.950 . S
H1886 C1898 0.950 . S
H1887 C1899 0.950 . S
C1888 H1880 0.950 . S
C1888 C1889 1.386 . S
C1888 C1890 1.391 . S
C1889 C1888 1.386 . S
C1889 C1893 1.393 . S
C1890 H1882 0.950 . S
C1890 C1888 1.391 . S
C1890 C1891 1.400 . S
C1891 C1890 1.400 . S
C1891 C1892 1.398 . S
C1891 C1897 1.491 . S
C1892 H1883 0.950 . S
C1892 C1891 1.398 . S
C1892 C1893 1.391 . S
C1893 H1881 0.950 . S
C1893 C1889 1.393 . S
C1893 C1892 1.391 . S
C1894 H1884 0.950 . S
C1894 C1895 1.386 . S
C1894 C1896 1.391 . S
C1895 C1894 1.386 . S
C1895 C1899 1.393 . S
C1896 H1885 0.950 . S
C1896 C1894 1.391 . S
C1896 C1897 1.400 . S
C1897 C1891 1.491 . S
C1897 C1896 1.400 . S
C1897 C1898 1.398 . S
C1898 H1886 0.950 . S
C1898 C1897 1.398 . S
C1898 C1899 1.391 . S
C1899 H1887 0.950 . S
C1899 C1895 1.393 . S
C1899 C1898 1.391 . S
H1900 C1908 0.950 . S
H1901 C1913 0.950 . S
H1902 C1910 0.950 . S
H1903 C1912 0.950 . S
H1904 C1914 0.950 . S
H1905 C1916 0.950 . S
H1906 C1918 0.950 . S
H1907 C1919 0.950 . S
C1908 H1900 0.950 . S
C1908 C1909 1.386 . S
C1908 C1910 1.391 . S
C1909 C1908 1.386 . S
C1909 C1913 1.393 . S
C1910 H1902 0.950 . S
C1910 C1908 1.391 . S
C1910 C1911 1.400 . S
C1911 C1910 1.400 . S
C1911 C1912 1.398 . S
C1911 C1917 1.491 . S
C1912 H1903 0.950 . S
C1912 C1911 1.398 . S
C1912 C1913 1.391 . S
C1913 H1901 0.950 . S
C1913 C1909 1.393 . S
C1913 C1912 1.391 . S
C1914 H1904 0.950 . S
C1914 C1915 1.386 . S
C1914 C1916 1.391 . S
C1915 C1914 1.386 . S
C1915 C1919 1.393 . S
C1916 H1905 0.950 . S
C1916 C1914 1.391 . S
C1916 C1917 1.400 . S
C1917 C1911 1.491 . S
C1917 C1916 1.400 . S
C1917 C1918 1.398 . S
C1918 H1906 0.950 . S
C1918 C1917 1.398 . S
C1918 C1919 1.391 . S
C1919 H1907 0.950 . S
C1919 C1915 1.393 . S
C1919 C1918 1.391 . S
H1920 C1928 0.950 . S
H1921 C1933 0.950 . S
H1922 C1930 0.950 . S
H1923 C1932 0.950 . S
H1924 C1934 0.950 . S
H1925 C1936 0.950 . S
H1926 C1938 0.950 . S
H1927 C1939 0.950 . S
C1928 H1920 0.950 . S
C1928 C1929 1.386 . S
C1928 C1930 1.391 . S
C1929 C1928 1.386 . S
C1929 C1933 1.393 . S
C1930 H1922 0.950 . S
C1930 C1928 1.391 . S
C1930 C1931 1.400 . S
C1931 C1930 1.400 . S
C1931 C1932 1.398 . S
C1931 C1937 1.491 . S
C1932 H1923 0.950 . S
C1932 C1931 1.398 . S
C1932 C1933 1.391 . S
C1933 H1921 0.950 . S
C1933 C1929 1.393 . S
C1933 C1932 1.391 . S
C1934 H1924 0.950 . S
C1934 C1935 1.386 . S
C1934 C1936 1.391 . S
C1935 C1934 1.386 . S
C1935 C1939 1.393 . S
C1936 H1925 0.950 . S
C1936 C1934 1.391 . S
C1936 C1937 1.400 . S
C1937 C1931 1.491 . S
C1937 C1936 1.400 . S
C1937 C1938 1.398 . S
C1938 H1926 0.950 . S
C1938 C1937 1.398 . S
C1938 C1939 1.391 . S
C1939 H1927 0.950 . S
C1939 C1935 1.393 . S
C1939 C1938 1.391 . S
H1940 C1948 0.950 . S
H1941 C1953 0.950 . S
H1942 C1950 0.950 . S
H1943 C1952 0.950 . S
H1944 C1954 0.950 . S
H1945 C1956 0.950 . S
H1946 C1958 0.950 . S
H1947 C1959 0.950 . S
C1948 H1940 0.950 . S
C1948 C1949 1.386 . S
C1948 C1950 1.391 . S
C1949 C1948 1.386 . S
C1949 C1953 1.393 . S
C1950 H1942 0.950 . S
C1950 C1948 1.391 . S
C1950 C1951 1.400 . S
C1951 C1950 1.400 . S
C1951 C1952 1.398 . S
C1951 C1957 1.491 . S
C1952 H1943 0.950 . S
C1952 C1951 1.398 . S
C1952 C1953 1.391 . S
C1953 H1941 0.950 . S
C1953 C1949 1.393 . S
C1953 C1952 1.391 . S
C1954 H1944 0.950 . S
C1954 C1955 1.386 . S
C1954 C1956 1.391 . S
C1955 C1954 1.386 . S
C1955 C1959 1.393 . S
C1956 H1945 0.950 . S
C1956 C1954 1.391 . S
C1956 C1957 1.400 . S
C1957 C1951 1.491 . S
C1957 C1956 1.400 . S
C1957 C1958 1.398 . S
C1958 H1946 0.950 . S
C1958 C1957 1.398 . S
C1958 C1959 1.391 . S
C1959 H1947 0.950 . S
C1959 C1955 1.393 . S
C1959 C1958 1.391 . S
H1960 C1968 0.950 . S
H1961 C1973 0.950 . S
H1962 C1970 0.950 . S
H1963 C1972 0.950 . S
H1964 C1974 0.950 . S
H1965 C1976 0.950 . S
H1966 C1978 0.950 . S
H1967 C1979 0.950 . S
C1968 H1960 0.950 . S
C1968 C1969 1.386 . S
C1968 C1970 1.391 . S
C1969 C1968 1.386 . S
C1969 C1973 1.393 . S
C1970 H1962 0.950 . S
C1970 C1968 1.391 . S
C1970 C1971 1.400 . S
C1971 C1970 1.400 . S
C1971 C1972 1.398 . S
C1971 C1977 1.491 . S
C1972 H1963 0.950 . S
C1972 C1971 1.398 . S
C1972 C1973 1.391 . S
C1973 H1961 0.950 . S
C1973 C1969 1.393 . S
C1973 C1972 1.391 . S
C1974 H1964 0.950 . S
C1974 C1975 1.386 . S
C1974 C1976 1.391 . S
C1975 C1974 1.386 . S
C1975 C1979 1.393 . S
C1976 H1965 0.950 . S
C1976 C1974 1.391 . S
C1976 C1977 1.400 . S
C1977 C1971 1.491 . S
C1977 C1976 1.400 . S
C1977 C1978 1.398 . S
C1978 H1966 0.950 . S
C1978 C1977 1.398 . S
C1978 C1979 1.391 . S
C1979 H1967 0.950 . S
C1979 C1975 1.393 . S
C1979 C1978 1.391 . S
H1980 C1988 0.950 . S
H1981 C1993 0.950 . S
H1982 C1990 0.950 . S
H1983 C1992 0.950 . S
H1984 C1994 0.950 . S
H1985 C1996 0.950 . S
H1986 C1998 0.950 . S
H1987 C1999 0.950 . S
C1988 H1980 0.950 . S
C1988 C1989 1.386 . S
C1988 C1990 1.391 . S
C1989 C1988 1.386 . S
C1989 C1993 1.393 . S
C1990 H1982 0.950 . S
C1990 C1988 1.391 . S
C1990 C1991 1.400 . S
C1991 C1990 1.400 . S
C1991 C1992 1.398 . S
C1991 C1997 1.491 . S
C1992 H1983 0.950 . S
C1992 C1991 1.398 . S
C1992 C1993 1.391 . S
C1993 H1981 0.950 . S
C1993 C1989 1.393 . S
C1993 C1992 1.391 . S
C1994 H1984 0.950 . S
C1994 C1995 1.386 . S
C1994 C1996 1.391 . S
C1995 C1994 1.386 . S
C1995 C1999 1.393 . S
C1996 H1985 0.950 . S
C1996 C1994 1.391 . S
C1996 C1997 1.400 . S
C1997 C1991 1.491 . S
C1997 C1996 1.400 . S
C1997 C1998 1.398 . S
C1998 H1986 0.950 . S
C1998 C1997 1.398 . S
C1998 C1999 1.391 . S
C1999 H1987 0.950 . S
C1999 C1995 1.393 . S
C1999 C1998 1.391 . S
H2000 C2008 0.950 . S
H2001 C2013 0.950 . S
H2002 C2010 0.950 . S
H2003 C2012 0.950 . S
H2004 C2014 0.950 . S
H2005 C2016 0.950 . S
H2006 C2018 0.950 . S
H2007 C2019 0.950 . S
C2008 H2000 0.950 . S
C2008 C2009 1.386 . S
C2008 C2010 1.391 . S
C2009 C2008 1.386 . S
C2009 C2013 1.393 . S
C2010 H2002 0.950 . S
C2010 C2008 1.391 . S
C2010 C2011 1.400 . S
C2011 C2010 1.400 . S
C2011 C2012 1.398 . S
C2011 C2017 1.491 . S
C2012 H2003 0.950 . S
C2012 C2011 1.398 . S
C2012 C2013 1.391 . S
C2013 H2001 0.950 . S
C2013 C2009 1.393 . S
C2013 C2012 1.391 . S
C2014 H2004 0.950 . S
C2014 C2015 1.386 . S
C2014 C2016 1.391 . S
C2015 C2014 1.386 . S
C2015 C2019 1.393 . S
C2016 H2005 0.950 . S
C2016 C2014 1.391 . S
C2016 C2017 1.400 . S
C2017 C2011 1.491 . S
C2017 C2016 1.400 . S
C2017 C2018 1.398 . S
C2018 H2006 0.950 . S
C2018 C2017 1.398 . S
C2018 C2019 1.391 . S
C2019 H2007 0.950 . S
C2019 C2015 1.393 . S
C2019 C2018 1.391 . S
H2020 C2028 0.950 . S
H2021 C2033 0.950 . S
H2022 C2030 0.950 . S
H2023 C2032 0.950 . S
H2024 C2034 0.950 . S
H2025 C2036 0.950 . S
H2026 C2038 0.950 . S
H2027 C2039 0.950 . S
C2028 H2020 0.950 . S
C2028 C2029 1.386 . S
C2028 C2030 1.391 . S
C2029 C2028 1.386 . S
C2029 C2033 1.393 . S
C2030 H2022 0.950 . S
C2030 C2028 1.391 . S
C2030 C2031 1.400 . S
C2031 C2030 1.400 . S
C2031 C2032 1.398 . S
C2031 C2037 1.491 . S
C2032 H2023 0.950 . S
C2032 C2031 1.398 . S
C2032 C2033 1.391 . S
C2033 H2021 0.950 . S
C2033 C2029 1.393 . S
C2033 C2032 1.391 . S
C2034 H2024 0.950 . S
C2034 C2035 1.386 . S
C2034 C2036 1.391 . S
C2035 C2034 1.386 . S
C2035 C2039 1.393 . S
C2036 H2025 0.950 . S
C2036 C2034 1.391 . S
C2036 C2037 1.400 . S
C2037 C2031 1.491 . S
C2037 C2036 1.400 . S
C2037 C2038 1.398 . S
C2038 H2026 0.950 . S
C2038 C2037 1.398 . S
C2038 C2039 1.391 . S
C2039 H2027 0.950 . S
C2039 C2035 1.393 . S
C2039 C2038 1.391 . S
H2040 C2048 0.950 . S
H2041 C2053 0.950 . S
H2042 C2050 0.950 . S
H2043 C2052 0.950 . S
H2044 C2054 0.950 . S
H2045 C2056 0.950 . S
H2046 C2058 0.950 . S
H2047 C2059 0.950 . S
C2048 H2040 0.950 . S
C2048 C2049 1.386 . S
C2048 C2050 1.391 . S
C2049 C2048 1.386 . S
C2049 C2053 1.393 . S
C2050 H2042 0.950 . S
C2050 C2048 1.391 . S
C2050 C2051 1.400 . S
C2051 C2050 1.400 . S
C2051 C2052 1.398 . S
C2051 C2057 1.491 . S
C2052 H2043 0.950 . S
C2052 C2051 1.398 . S
C2052 C2053 1.391 . S
C2053 H2041 0.950 . S
C2053 C2049 1.393 . S
C2053 C2052 1.391 . S
C2054 H2044 0.950 . S
C2054 C2055 1.386 . S
C2054 C2056 1.391 . S
C2055 C2054 1.386 . S
C2055 C2059 1.393 . S
C2056 H2045 0.950 . S
C2056 C2054 1.391 . S
C2056 C2057 1.400 . S
C2057 C2051 1.491 . S
C2057 C2056 1.400 . S
C2057 C2058 1.398 . S
C2058 H2046 0.950 . S
C2058 C2057 1.398 . S
C2058 C2059 1.391 . S
C2059 H2047 0.950 . S
C2059 C2055 1.393 . S
C2059 C2058 1.391 . S
H2060 C2068 0.950 . S
H2061 C2073 0.950 . S
H2062 C2070 0.950 . S
H2063 C2072 0.950 . S
H2064 C2074 0.950 . S
H2065 C2076 0.950 . S
H2066 C2078 0.950 . S
H2067 C2079 0.950 . S
C2068 H2060 0.950 . S
C2068 C2069 1.386 . S
C2068 C2070 1.391 . S
C2069 C2068 1.386 . S
C2069 C2073 1.393 . S
C2070 H2062 0.950 . S
C2070 C2068 1.391 . S
C2070 C2071 1.400 . S
C2071 C2070 1.400 . S
C2071 C2072 1.398 . S
C2071 C2077 1.491 . S
C2072 H2063 0.950 . S
C2072 C2071 1.398 . S
C2072 C2073 1.391 . S
C2073 H2061 0.950 . S
C2073 C2069 1.393 . S
C2073 C2072 1.391 . S
C2074 H2064 0.950 . S
C2074 C2075 1.386 . S
C2074 C2076 1.391 . S
C2075 C2074 1.386 . S
C2075 C2079 1.393 . S
C2076 H2065 0.950 . S
C2076 C2074 1.391 . S
C2076 C2077 1.400 . S
C2077 C2071 1.491 . S
C2077 C2076 1.400 . S
C2077 C2078 1.398 . S
C2078 H2066 0.950 . S
C2078 C2077 1.398 . S
C2078 C2079 1.391 . S
C2079 H2067 0.950 . S
C2079 C2075 1.393 . S
C2079 C2078 1.391 . S
H2080 C2088 0.950 . S
H2081 C2093 0.950 . S
H2082 C2090 0.950 . S
H2083 C2092 0.950 . S
H2084 C2094 0.950 . S
H2085 C2096 0.950 . S
H2086 C2098 0.950 . S
H2087 C2099 0.950 . S
C2088 H2080 0.950 . S
C2088 C2089 1.386 . S
C2088 C2090 1.391 . S
C2089 C2088 1.386 . S
C2089 C2093 1.393 . S
C2090 H2082 0.950 . S
C2090 C2088 1.391 . S
C2090 C2091 1.400 . S
C2091 C2090 1.400 . S
C2091 C2092 1.398 . S
C2091 C2097 1.491 . S
C2092 H2083 0.950 . S
C2092 C2091 1.398 . S
C2092 C2093 1.391 . S
C2093 H2081 0.950 . S
C2093 C2089 1.393 . S
C2093 C2092 1.391 . S
C2094 H2084 0.950 . S
C2094 C2095 1.386 . S
C2094 C2096 1.391 . S
C2095 C2094 1.386 . S
C2095 C2099 1.393 . S
C2096 H2085 0.950 . S
C2096 C2094 1.391 . S
C2096 C2097 1.400 . S
C2097 C2091 1.491 . S
C2097 C2096 1.400 . S
C2097 C2098 1.398 . S
C2098 H2086 0.950 . S
C2098 C2097 1.398 . S
C2098 C2099 1.391 . S
C2099 H2087 0.950 . S
C2099 C2095 1.393 . S
C2099 C2098 1.391 . S
H2100 C2108 0.950 . S
H2101 C2113 0.950 . S
H2102 C2110 0.950 . S
H2103 C2112 0.950 . S
H2104 C2114 0.950 . S
H2105 C2116 0.950 . S
H2106 C2118 0.950 . S
H2107 C2119 0.950 . S
C2108 H2100 0.950 . S
C2108 C2109 1.386 . S
C2108 C2110 1.391 . S
C2109 C2108 1.386 . S
C2109 C2113 1.393 . S
C2110 H2102 0.950 . S
C2110 C2108 1.391 . S
C2110 C2111 1.400 . S
C2111 C2110 1.400 . S
C2111 C2112 1.398 . S
C2111 C2117 1.491 . S
C2112 H2103 0.950 . S
C2112 C2111 1.398 . S
C2112 C2113 1.391 . S
C2113 H2101 0.950 . S
C2113 C2109 1.393 . S
C2113 C2112 1.391 . S
C2114 H2104 0.950 . S
C2114 C2115 1.386 . S
C2114 C2116 1.391 . S
C2115 C2114 1.386 . S
C2115 C2119 1.393 . S
C2116 H2105 0.950 . S
C2116 C2114 1.391 . S
C2116 C2117 1.400 . S
C2117 C2111 1.491 . S
C2117 C2116 1.400 . S
C2117 C2118 1.398 . S
C2118 H2106 0.950 . S
C2118 C2117 1.398 . S
C2118 C2119 1.391 . S
C2119 H2107 0.950 . S
C2119 C2115 1.393 . S
C2119 C2118 1.391 . S
H2120 C2128 0.950 . S
H2121 C2133 0.950 . S
H2122 C2130 0.950 . S
H2123 C2132 0.950 . S
H2124 C2134 0.950 . S
H2125 C2136 0.950 . S
H2126 C2138 0.950 . S
H2127 C2139 0.950 . S
C2128 H2120 0.950 . S
C2128 C2129 1.386 . S
C2128 C2130 1.391 . S
C2129 C2128 1.386 . S
C2129 C2133 1.393 . S
C2130 H2122 0.950 . S
C2130 C2128 1.391 . S
C2130 C2131 1.400 . S
C2131 C2130 1.400 . S
C2131 C2132 1.398 . S
C2131 C2137 1.491 . S
C2132 H2123 0.950 . S
C2132 C2131 1.398 . S
C2132 C2133 1.391 . S
C2133 H2121 0.950 . S
C2133 C2129 1.393 . S
C2133 C2132 1.391 . S
C2134 H2124 0.950 . S
C2134 C2135 1.386 . S
C2134 C2136 1.391 . S
C2135 C2134 1.386 . S
C2135 C2139 1.393 . S
C2136 H2125 0.950 . S
C2136 C2134 1.391 . S
C2136 C2137 1.400 . S
C2137 C2131 1.491 . S
C2137 C2136 1.400 . S
C2137 C2138 1.398 . S
C2138 H2126 0.950 . S
C2138 C2137 1.398 . S
C2138 C2139 1.391 . S
C2139 H2127 0.950 . S
C2139 C2135 1.393 . S
C2139 C2138 1.391 . S
H2140 C2148 0.950 . S
H2141 C2153 0.950 . S
H2142 C2150 0.950 . S
H2143 C2152 0.950 . S
H2144 C2154 0.950 . S
H2145 C2156 0.950 . S
H2146 C2158 0.950 . S
H2147 C2159 0.950 . S
C2148 H2140 0.950 . S
C2148 C2149 1.386 . S
C2148 C2150 1.391 . S
C2149 C2148 1.386 . S
C2149 C2153 1.393 . S
C2150 H2142 0.950 . S
C2150 C2148 1.391 . S
C2150 C2151 1.400 . S
C2151 C2150 1.400 . S
C2151 C2152 1.398 . S
C2151 C2157 1.491 . S
C2152 H2143 0.950 . S
C2152 C2151 1.398 . S
C2152 C2153 1.391 . S
C2153 H2141 0.950 . S
C2153 C2149 1.393 . S
C2153 C2152 1.391 . S
C2154 H2144 0.950 . S
C2154 C2155 1.386 . S
C2154 C2156 1.391 . S
C2155 C2154 1.386 . S
C2155 C2159 1.393 . S
C2156 H2145 0.950 . S
C2156 C2154 1.391 . S
C2156 C2157 1.400 . S
C2157 C2151 1.491 . S
C2157 C2156 1.400 . S
C2157 C2158 1.398 . S
C2158 H2146 0.950 . S
C2158 C2157 1.398 . S
C2158 C2159 1.391 . S
C2159 H2147 0.950 . S
C2159 C2155 1.393 . S
C2159 C2158 1.391 . S
H2160 C2168 0.950 . S
H2161 C2173 0.950 . S
H2162 C2170 0.950 . S
H2163 C2172 0.950 . S
H2164 C2174 0.950 . S
H2165 C2176 0.950 . S
H2166 C2178 0.950 . S
H2167 C2179 0.950 . S
C2168 H2160 0.950 . S
C2168 C2169 1.386 . S
C2168 C2170 1.391 . S
C2169 C2168 1.386 . S
C2169 C2173 1.393 . S
C2170 H2162 0.950 . S
C2170 C2168 1.391 . S
C2170 C2171 1.400 . S
C2171 C2170 1.400 . S
C2171 C2172 1.398 . S
C2171 C2177 1.491 . S
C2172 H2163 0.950 . S
C2172 C2171 1.398 . S
C2172 C2173 1.391 . S
C2173 H2161 0.950 . S
C2173 C2169 1.393 . S
C2173 C2172 1.391 . S
C2174 H2164 0.950 . S
C2174 C2175 1.386 . S
C2174 C2176 1.391 . S
C2175 C2174 1.386 . S
C2175 C2179 1.393 . S
C2176 H2165 0.950 . S
C2176 C2174 1.391 . S
C2176 C2177 1.400 . S
C2177 C2171 1.491 . S
C2177 C2176 1.400 . S
C2177 C2178 1.398 . S
C2178 H2166 0.950 . S
C2178 C2177 1.398 . S
C2178 C2179 1.391 . S
C2179 H2167 0.950 . S
C2179 C2175 1.393 . S
C2179 C2178 1.391 . S
H2180 C2188 0.950 . S
H2181 C2193 0.950 . S
H2182 C2190 0.950 . S
H2183 C2192 0.950 . S
H2184 C2194 0.950 . S
H2185 C2196 0.950 . S
H2186 C2198 0.950 . S
H2187 C2199 0.950 . S
C2188 H2180 0.950 . S
C2188 C2189 1.386 . S
C2188 C2190 1.391 . S
C2189 C2188 1.386 . S
C2189 C2193 1.393 . S
C2190 H2182 0.950 . S
C2190 C2188 1.391 . S
C2190 C2191 1.400 . S
C2191 C2190 1.400 . S
C2191 C2192 1.398 . S
C2191 C2197 1.491 . S
C2192 H2183 0.950 . S
C2192 C2191 1.398 . S
C2192 C2193 1.391 . S
C2193 H2181 0.950 . S
C2193 C2189 1.393 . S
C2193 C2192 1.391 . S
C2194 H2184 0.950 . S
C2194 C2195 1.386 . S
C2194 C2196 1.391 . S
C2195 C2194 1.386 . S
C2195 C2199 1.393 . S
C2196 H2185 0.950 . S
C2196 C2194 1.391 . S
C2196 C2197 1.400 . S
C2197 C2191 1.491 . S
C2197 C2196 1.400 . S
C2197 C2198 1.398 . S
C2198 H2186 0.950 . S
C2198 C2197 1.398 . S
C2198 C2199 1.391 . S
C2199 H2187 0.950 . S
C2199 C2195 1.393 . S
C2199 C2198 1.391 . S
H2200 C2208 0.950 . S
H2201 C2213 0.950 . S
H2202 C2210 0.950 . S
H2203 C2212 0.950 . S
H2204 C2214 0.950 . S
H2205 C2216 0.950 . S
H2206 C2218 0.950 . S
H2207 C2219 0.950 . S
C2208 H2200 0.950 . S
C2208 C2209 1.386 . S
C2208 C2210 1.391 . S
C2209 C2208 1.386 . S
C2209 C2213 1.393 . S
C2210 H2202 0.950 . S
C2210 C2208 1.391 . S
C2210 C2211 1.400 . S
C2211 C2210 1.400 . S
C2211 C2212 1.398 . S
C2211 C2217 1.491 . S
C2212 H2203 0.950 . S
C2212 C2211 1.398 . S
C2212 C2213 1.391 . S
C2213 H2201 0.950 . S
C2213 C2209 1.393 . S
C2213 C2212 1.391 . S
C2214 H2204 0.950 . S
C2214 C2215 1.386 . S
C2214 C2216 1.391 . S
C2215 C2214 1.386 . S
C2215 C2219 1.393 . S
C2216 H2205 0.950 . S
C2216 C2214 1.391 . S
C2216 C2217 1.400 . S
C2217 C2211 1.491 . S
C2217 C2216 1.400 . S
C2217 C2218 1.398 . S
C2218 H2206 0.950 . S
C2218 C2217 1.398 . S
C2218 C2219 1.391 . S
C2219 H2207 0.950 . S
C2219 C2215 1.393 . S
C2219 C2218 1.391 . S
H2220 C2228 0.950 . S
H2221 C2233 0.950 . S
H2222 C2230 0.950 . S
H2223 C2232 0.950 . S
H2224 C2234 0.950 . S
H2225 C2236 0.950 . S
H2226 C2238 0.950 . S
H2227 C2239 0.950 . S
C2228 H2220 0.950 . S
C2228 C2229 1.386 . S
C2228 C2230 1.391 . S
C2229 C2228 1.386 . S
C2229 C2233 1.393 . S
C2230 H2222 0.950 . S
C2230 C2228 1.391 . S
C2230 C2231 1.400 . S
C2231 C2230 1.400 . S
C2231 C2232 1.398 . S
C2231 C2237 1.491 . S
C2232 H2223 0.950 . S
C2232 C2231 1.398 . S
C2232 C2233 1.391 . S
C2233 H2221 0.950 . S
C2233 C2229 1.393 . S
C2233 C2232 1.391 . S
C2234 H2224 0.950 . S
C2234 C2235 1.386 . S
C2234 C2236 1.391 . S
C2235 C2234 1.386 . S
C2235 C2239 1.393 . S
C2236 H2225 0.950 . S
C2236 C2234 1.391 . S
C2236 C2237 1.400 . S
C2237 C2231 1.491 . S
C2237 C2236 1.400 . S
C2237 C2238 1.398 . S
C2238 H2226 0.950 . S
C2238 C2237 1.398 . S
C2238 C2239 1.391 . S
C2239 H2227 0.950 . S
C2239 C2235 1.393 . S
C2239 C2238 1.391 . S
H2240 C2248 0.950 1_554 S
H2241 C2253 0.950 . S
H2242 C2250 0.950 . S
H2243 C2252 0.950 . S
H2244 C2254 0.950 . S
H2245 C2256 0.950 . S
H2246 C2258 0.950 . S
H2247 C2259 0.950 . S
C2248 H2240 0.950 1_556 S
C2248 C2249 1.386 . S
C2248 C2250 1.391 . S
C2249 C2248 1.386 . S
C2249 C2253 1.393 1_565 S
C2250 H2242 0.950 . S
C2250 C2248 1.391 . S
C2250 C2251 1.400 . S
C2251 C2250 1.400 . S
C2251 C2252 1.398 1_565 S
C2251 C2257 1.491 . S
C2252 H2243 0.950 . S
C2252 C2251 1.398 1_545 S
C2252 C2253 1.391 . S
C2253 H2241 0.950 . S
C2253 C2249 1.393 1_545 S
C2253 C2252 1.391 . S
C2254 H2244 0.950 . S
C2254 C2255 1.386 1_545 S
C2254 C2256 1.391 . S
C2255 C2254 1.386 1_565 S
C2255 C2259 1.393 . S
C2256 H2245 0.950 . S
C2256 C2254 1.391 . S
C2256 C2257 1.400 1_545 S
C2257 C2251 1.491 . S
C2257 C2256 1.400 1_565 S
C2257 C2258 1.398 . S
C2258 H2246 0.950 . S
C2258 C2257 1.398 . S
C2258 C2259 1.391 . S
C2259 H2247 0.950 . S
C2259 C2255 1.393 . S
C2259 C2258 1.391 . S
H2260 C2268 0.950 . S
H2261 C2273 0.950 . S
H2262 C2270 0.950 . S
H2263 C2272 0.950 . S
H2264 C2274 0.949 . S
H2265 C2276 0.950 . S
H2266 C2278 0.950 . S
H2267 C2279 0.950 1_554 S
C2268 H2260 0.950 . S
C2268 C2269 1.386 . S
C2268 C2270 1.391 . S
C2269 C2268 1.386 . S
C2269 C2273 1.393 . S
C2270 H2262 0.950 . S
C2270 C2268 1.391 . S
C2270 C2271 1.400 . S
C2271 C2270 1.400 . S
C2271 C2272 1.398 . S
C2271 C2277 1.491 . S
C2272 H2263 0.950 . S
C2272 C2271 1.398 . S
C2272 C2273 1.391 . S
C2273 H2261 0.950 . S
C2273 C2269 1.393 . S
C2273 C2272 1.391 . S
C2274 H2264 0.949 . S
C2274 C2275 1.385 . S
C2274 C2276 1.392 1_655 S
C2275 C2274 1.385 . S
C2275 C2279 1.393 1_655 S
C2276 H2265 0.950 . S
C2276 C2274 1.392 1_455 S
C2276 C2277 1.400 . S
C2277 C2271 1.491 . S
C2277 C2276 1.400 . S
C2277 C2278 1.398 . S
C2278 H2266 0.950 . S
C2278 C2277 1.398 . S
C2278 C2279 1.391 . S
C2279 H2267 0.950 1_556 S
C2279 C2275 1.393 1_455 S
C2279 C2278 1.391 . S
H2280 C2288 0.950 . S
H2281 C2293 0.950 . S
H2282 C2290 0.950 . S
H2283 C2292 0.950 . S
H2284 C2294 0.950 . S
H2285 C2296 0.950 . S
H2286 C2298 0.950 . S
H2287 C2299 0.950 . S
C2288 H2280 0.950 . S
C2288 C2289 1.386 . S
C2288 C2290 1.391 . S
C2289 C2288 1.386 . S
C2289 C2293 1.393 . S
C2290 H2282 0.950 . S
C2290 C2288 1.391 . S
C2290 C2291 1.400 . S
C2291 C2290 1.400 . S
C2291 C2292 1.398 . S
C2291 C2297 1.491 . S
C2292 H2283 0.950 . S
C2292 C2291 1.398 . S
C2292 C2293 1.391 . S
C2293 H2281 0.950 . S
C2293 C2289 1.393 . S
C2293 C2292 1.391 . S
C2294 H2284 0.950 . S
C2294 C2295 1.386 . S
C2294 C2296 1.391 . S
C2295 C2294 1.386 . S
C2295 C2299 1.393 . S
C2296 H2285 0.950 . S
C2296 C2294 1.391 . S
C2296 C2297 1.400 . S
C2297 C2291 1.491 . S
C2297 C2296 1.400 . S
C2297 C2298 1.398 . S
C2298 H2286 0.950 . S
C2298 C2297 1.398 . S
C2298 C2299 1.391 . S
C2299 H2287 0.950 . S
C2299 C2295 1.393 . S
C2299 C2298 1.391 . S
H2300 C2308 0.950 . S
H2301 C2313 0.950 . S
H2302 C2310 0.950 . S
H2303 C2312 0.950 . S
H2304 C2314 0.950 . S
H2305 C2316 0.950 . S
H2306 C2318 0.950 . S
H2307 C2319 0.950 . S
C2308 H2300 0.950 . S
C2308 C2309 1.386 1_445 S
C2308 C2310 1.391 . S
C2309 C2308 1.386 1_665 S
C2309 C2313 1.393 . S
C2310 H2302 0.950 . S
C2310 C2308 1.391 . S
C2310 C2311 1.400 1_545 S
C2311 C2310 1.400 1_565 S
C2311 C2312 1.398 . S
C2311 C2317 1.491 . S
C2312 H2303 0.950 . S
C2312 C2311 1.398 . S
C2312 C2313 1.391 1_455 S
C2313 H2301 0.950 . S
C2313 C2309 1.393 . S
C2313 C2312 1.391 1_655 S
C2314 H2304 0.950 . S
C2314 C2315 1.386 . S
C2314 C2316 1.391 . S
C2315 C2314 1.386 . S
C2315 C2319 1.393 1_565 S
C2316 H2305 0.950 . S
C2316 C2314 1.391 . S
C2316 C2317 1.400 . S
C2317 C2311 1.491 . S
C2317 C2316 1.400 . S
C2317 C2318 1.398 1_565 S
C2318 H2306 0.950 . S
C2318 C2317 1.398 1_545 S
C2318 C2319 1.391 . S
C2319 H2307 0.950 . S
C2319 C2315 1.393 1_545 S
C2319 C2318 1.391 . S
H2320 C2328 0.950 . S
H2321 C2333 0.950 . S
H2322 C2330 0.950 . S
H2323 C2332 0.950 . S
H2324 C2334 0.950 . S
H2325 C2336 0.950 . S
H2326 C2338 0.950 . S
H2327 C2339 0.950 1_556 S
C2328 H2320 0.950 . S
C2328 C2329 1.386 1_565 S
C2328 C2330 1.391 . S
C2329 C2328 1.386 1_545 S
C2329 C2333 1.393 . S
C2330 H2322 0.950 . S
C2330 C2328 1.391 . S
C2330 C2331 1.400 1_565 S
C2331 C2330 1.400 1_545 S
C2331 C2332 1.398 . S
C2331 C2337 1.491 . S
C2332 H2323 0.950 . S
C2332 C2331 1.398 . S
C2332 C2333 1.391 . S
C2333 H2321 0.950 . S
C2333 C2329 1.393 . S
C2333 C2332 1.391 . S
C2334 H2324 0.950 . S
C2334 C2335 1.386 . S
C2334 C2336 1.391 . S
C2335 C2334 1.386 . S
C2335 C2339 1.393 1_545 S
C2336 H2325 0.950 . S
C2336 C2334 1.391 . S
C2336 C2337 1.400 . S
C2337 C2331 1.491 . S
C2337 C2336 1.400 . S
C2337 C2338 1.398 1_545 S
C2338 H2326 0.950 . S
C2338 C2337 1.398 1_565 S
C2338 C2339 1.391 . S
C2339 H2327 0.950 1_554 S
C2339 C2335 1.393 1_565 S
C2339 C2338 1.391 . S
H2340 C2348 0.950 1_455 S
H2341 C2353 0.949 1_556 S
H2342 C2350 0.950 . S
H2343 C2352 0.950 . S
H2344 C2354 0.950 . S
H2345 C2356 0.950 . S
H2346 C2358 0.950 . S
H2347 C2359 0.950 . S
C2348 H2340 0.950 1_655 S
C2348 C2349 1.386 1_655 S
C2348 C2350 1.391 . S
C2349 C2348 1.386 1_455 S
C2349 C2353 1.393 1_455 S
C2350 H2342 0.950 . S
C2350 C2348 1.391 . S
C2350 C2351 1.400 . S
C2351 C2350 1.400 . S
C2351 C2352 1.398 . S
C2351 C2357 1.491 . S
C2352 H2343 0.950 . S
C2352 C2351 1.398 . S
C2352 C2353 1.391 . S
C2353 H2341 0.949 1_554 S
C2353 C2349 1.393 1_655 S
C2353 C2352 1.391 . S
C2354 H2344 0.950 . S
C2354 C2355 1.386 . S
C2354 C2356 1.391 . S
C2355 C2354 1.386 . S
C2355 C2359 1.393 . S
C2356 H2345 0.950 . S
C2356 C2354 1.391 . S
C2356 C2357 1.400 . S
C2357 C2351 1.491 . S
C2357 C2356 1.400 . S
C2357 C2358 1.398 . S
C2358 H2346 0.950 . S
C2358 C2357 1.398 . S
C2358 C2359 1.391 . S
C2359 H2347 0.950 . S
C2359 C2355 1.393 . S
C2359 C2358 1.391 . S
H2360 C2368 0.950 . S
H2361 C2373 0.950 . S
H2362 C2370 0.950 . S
H2363 C2372 0.950 . S
H2364 C2374 0.950 . S
H2365 C2376 0.950 . S
H2366 C2378 0.950 . S
H2367 C2379 0.950 . S
C2368 H2360 0.950 . S
C2368 C2369 1.386 . S
C2368 C2370 1.391 . S
C2369 C2368 1.386 . S
C2369 C2373 1.393 . S
C2370 H2362 0.950 . S
C2370 C2368 1.391 . S
C2370 C2371 1.400 . S
C2371 C2370 1.400 . S
C2371 C2372 1.398 . S
C2371 C2377 1.491 . S
C2372 H2363 0.950 . S
C2372 C2371 1.398 . S
C2372 C2373 1.391 . S
C2373 H2361 0.950 . S
C2373 C2369 1.393 . S
C2373 C2372 1.391 . S
C2374 H2364 0.950 . S
C2374 C2375 1.386 . S
C2374 C2376 1.391 . S
C2375 C2374 1.386 . S
C2375 C2379 1.393 . S
C2376 H2365 0.950 . S
C2376 C2374 1.391 . S
C2376 C2377 1.400 . S
C2377 C2371 1.491 . S
C2377 C2376 1.400 . S
C2377 C2378 1.398 . S
C2378 H2366 0.950 . S
C2378 C2377 1.398 . S
C2378 C2379 1.391 . S
C2379 H2367 0.950 . S
C2379 C2375 1.393 . S
C2379 C2378 1.391 . S
H2380 C2388 0.950 . S
H2381 C2393 0.950 . S
H2382 C2390 0.950 . S
H2383 C2392 0.939 1_565 S
H2384 C2394 0.942 1_565 S
H2385 C2396 0.950 . S
H2386 C2398 0.950 . S
H2387 C2399 0.950 . S
C2388 H2380 0.950 . S
C2388 C2389 1.386 . S
C2388 C2390 1.391 . S
C2389 C2388 1.386 . S
C2389 C2393 1.393 . S
C2390 H2382 0.950 . S
C2390 C2388 1.391 . S
C2390 C2391 1.400 . S
C2391 C2390 1.400 . S
C2391 C2392 1.398 . S
C2391 C2397 1.491 . S
C2392 H2383 0.939 1_545 S
C2392 C2391 1.398 . S
C2392 C2393 1.391 . S
C2393 H2381 0.950 . S
C2393 C2389 1.393 . S
C2393 C2392 1.391 . S
C2394 H2384 0.942 1_545 S
C2394 C2395 1.386 . S
C2394 C2396 1.391 1_455 S
C2395 C2394 1.386 . S
C2395 C2399 1.393 1_455 S
C2396 H2385 0.950 . S
C2396 C2394 1.391 1_655 S
C2396 C2397 1.400 . S
C2397 C2391 1.491 . S
C2397 C2396 1.400 . S
C2397 C2398 1.398 . S
C2398 H2386 0.950 . S
C2398 C2397 1.398 . S
C2398 C2399 1.391 . S
C2399 H2387 0.950 . S
C2399 C2395 1.393 1_655 S
C2399 C2398 1.391 . S
H2400 C2408 0.950 . S
H2401 C2413 0.950 . S
H2402 C2410 0.950 . S
H2403 C2412 0.950 . S
H2404 C2414 0.950 . S
H2405 C2416 0.950 . S
H2406 C2418 0.950 . S
H2407 C2419 0.950 . S
C2408 H2400 0.950 . S
C2408 C2409 1.386 . S
C2408 C2410 1.391 . S
C2409 C2408 1.386 . S
C2409 C2413 1.393 . S
C2410 H2402 0.950 . S
C2410 C2408 1.391 . S
C2410 C2411 1.400 . S
C2411 C2410 1.400 . S
C2411 C2412 1.398 . S
C2411 C2417 1.491 . S
C2412 H2403 0.950 . S
C2412 C2411 1.398 . S
C2412 C2413 1.391 . S
C2413 H2401 0.950 . S
C2413 C2409 1.393 . S
C2413 C2412 1.391 . S
C2414 H2404 0.950 . S
C2414 C2415 1.386 . S
C2414 C2416 1.391 . S
C2415 C2414 1.386 . S
C2415 C2419 1.393 . S
C2416 H2405 0.950 . S
C2416 C2414 1.391 . S
C2416 C2417 1.400 . S
C2417 C2411 1.491 . S
C2417 C2416 1.400 . S
C2417 C2418 1.398 . S
C2418 H2406 0.950 . S
C2418 C2417 1.398 . S
C2418 C2419 1.391 . S
C2419 H2407 0.950 . S
C2419 C2415 1.393 . S
C2419 C2418 1.391 . S
H2420 C2428 0.950 . S
H2421 C2433 0.950 . S
H2422 C2430 0.950 . S
H2423 C2432 0.950 . S
H2424 C2434 0.950 1_655 S
H2425 C2436 0.950 . S
H2426 C2438 0.950 . S
H2427 C2439 0.952 . S
C2428 H2420 0.950 . S
C2428 C2429 1.386 . S
C2428 C2430 1.391 . S
C2429 C2428 1.386 . S
C2429 C2433 1.393 . S
C2430 H2422 0.950 . S
C2430 C2428 1.391 . S
C2430 C2431 1.400 . S
C2431 C2430 1.400 . S
C2431 C2432 1.398 . S
C2431 C2437 1.491 . S
C2432 H2423 0.950 . S
C2432 C2431 1.398 . S
C2432 C2433 1.391 . S
C2433 H2421 0.950 . S
C2433 C2429 1.393 . S
C2433 C2432 1.391 . S
C2434 H2424 0.950 1_455 S
C2434 C2435 1.386 1_455 S
C2434 C2436 1.391 . S
C2435 C2434 1.386 1_655 S
C2435 C2439 1.393 1_655 S
C2436 H2425 0.950 . S
C2436 C2434 1.391 . S
C2436 C2437 1.400 . S
C2437 C2431 1.491 . S
C2437 C2436 1.400 . S
C2437 C2438 1.398 . S
C2438 H2426 0.950 . S
C2438 C2437 1.398 . S
C2438 C2439 1.391 . S
C2439 H2427 0.952 . S
C2439 C2435 1.393 1_455 S
C2439 C2438 1.391 . S
H2440 C2448 0.950 . S
H2441 C2453 0.950 . S
H2442 C2450 0.950 . S
H2443 C2452 0.950 . S
H2444 C2454 0.950 . S
H2445 C2456 0.950 . S
H2446 C2458 0.950 . S
H2447 C2459 0.950 . S
C2448 H2440 0.950 . S
C2448 C2449 1.386 . S
C2448 C2450 1.391 . S
C2449 C2448 1.386 . S
C2449 C2453 1.393 . S
C2450 H2442 0.950 . S
C2450 C2448 1.391 . S
C2450 C2451 1.400 . S
C2451 C2450 1.400 . S
C2451 C2452 1.398 . S
C2451 C2457 1.491 . S
C2452 H2443 0.950 . S
C2452 C2451 1.398 . S
C2452 C2453 1.391 . S
C2453 H2441 0.950 . S
C2453 C2449 1.393 . S
C2453 C2452 1.391 . S
C2454 H2444 0.950 . S
C2454 C2455 1.386 . S
C2454 C2456 1.391 . S
C2455 C2454 1.386 . S
C2455 C2459 1.393 . S
C2456 H2445 0.950 . S
C2456 C2454 1.391 . S
C2456 C2457 1.400 . S
C2457 C2451 1.491 . S
C2457 C2456 1.400 . S
C2457 C2458 1.398 . S
C2458 H2446 0.950 . S
C2458 C2457 1.398 . S
C2458 C2459 1.391 . S
C2459 H2447 0.950 . S
C2459 C2455 1.393 . S
C2459 C2458 1.391 . S
H2460 C2468 0.950 . S
H2461 C2473 0.950 . S
H2462 C2470 0.950 . S
H2463 C2472 0.950 . S
H2464 C2474 0.950 1_655 S
H2465 C2476 0.950 . S
H2466 C2478 0.950 . S
H2467 C2479 0.950 1_655 S
C2468 H2460 0.950 . S
C2468 C2469 1.386 . S
C2468 C2470 1.391 . S
C2469 C2468 1.386 . S
C2469 C2473 1.393 . S
C2470 H2462 0.950 . S
C2470 C2468 1.391 . S
C2470 C2471 1.400 . S
C2471 C2470 1.400 . S
C2471 C2472 1.398 . S
C2471 C2477 1.491 . S
C2472 H2463 0.950 . S
C2472 C2471 1.398 . S
C2472 C2473 1.391 . S
C2473 H2461 0.950 . S
C2473 C2469 1.393 . S
C2473 C2472 1.391 . S
C2474 H2464 0.950 1_455 S
C2474 C2475 1.386 1_455 S
C2474 C2476 1.391 . S
C2475 C2474 1.386 1_655 S
C2475 C2479 1.393 1_655 S
C2476 H2465 0.950 . S
C2476 C2474 1.391 . S
C2476 C2477 1.400 . S
C2477 C2471 1.491 . S
C2477 C2476 1.400 . S
C2477 C2478 1.398 . S
C2478 H2466 0.950 . S
C2478 C2477 1.398 . S
C2478 C2479 1.391 . S
C2479 H2467 0.950 1_455 S
C2479 C2475 1.393 1_455 S
C2479 C2478 1.391 . S
H2480 C2488 0.950 . S
H2481 C2493 0.950 . S
H2482 C2490 0.950 . S
H2483 C2492 0.950 . S
H2484 C2494 0.950 . S
H2485 C2496 0.950 . S
H2486 C2498 0.950 . S
H2487 C2499 0.950 . S
C2488 H2480 0.950 . S
C2488 C2489 1.386 . S
C2488 C2490 1.391 . S
C2489 C2488 1.386 . S
C2489 C2493 1.393 . S
C2490 H2482 0.950 . S
C2490 C2488 1.391 . S
C2490 C2491 1.400 . S
C2491 C2490 1.400 . S
C2491 C2492 1.398 . S
C2491 C2497 1.491 . S
C2492 H2483 0.950 . S
C2492 C2491 1.398 . S
C2492 C2493 1.391 . S
C2493 H2481 0.950 . S
C2493 C2489 1.393 . S
C2493 C2492 1.391 . S
C2494 H2484 0.950 . S
C2494 C2495 1.386 . S
C2494 C2496 1.391 . S
C2495 C2494 1.386 . S
C2495 C2499 1.393 . S
C2496 H2485 0.950 . S
C2496 C2494 1.391 . S
C2496 C2497 1.400 . S
C2497 C2491 1.491 . S
C2497 C2496 1.400 . S
C2497 C2498 1.398 . S
C2498 H2486 0.950 . S
C2498 C2497 1.398 . S
C2498 C2499 1.391 . S
C2499 H2487 0.950 . S
C2499 C2495 1.393 . S
C2499 C2498 1.391 . S
H2500 C2508 0.950 . S
H2501 C2513 0.950 . S
H2502 C2510 0.950 . S
H2503 C2512 0.950 . S
H2504 C2514 0.950 . S
H2505 C2516 0.950 . S
H2506 C2518 0.950 . S
H2507 C2519 0.950 . S
C2508 H2500 0.950 . S
C2508 C2509 1.386 . S
C2508 C2510 1.391 1_455 S
C2509 C2508 1.386 . S
C2509 C2513 1.393 1_455 S
C2510 H2502 0.950 . S
C2510 C2508 1.391 1_655 S
C2510 C2511 1.400 . S
C2511 C2510 1.400 . S
C2511 C2512 1.398 . S
C2511 C2517 1.491 . S
C2512 H2503 0.950 . S
C2512 C2511 1.398 . S
C2512 C2513 1.391 . S
C2513 H2501 0.950 . S
C2513 C2509 1.393 1_655 S
C2513 C2512 1.391 . S
C2514 H2504 0.950 . S
C2514 C2515 1.386 . S
C2514 C2516 1.391 . S
C2515 C2514 1.386 . S
C2515 C2519 1.393 . S
C2516 H2505 0.950 . S
C2516 C2514 1.391 . S
C2516 C2517 1.400 . S
C2517 C2511 1.491 . S
C2517 C2516 1.400 . S
C2517 C2518 1.398 . S
C2518 H2506 0.950 . S
C2518 C2517 1.398 . S
C2518 C2519 1.391 . S
C2519 H2507 0.950 . S
C2519 C2515 1.393 . S
C2519 C2518 1.391 . S
H2520 C2528 0.950 . S
H2521 C2533 0.950 . S
H2522 C2530 0.950 . S
H2523 C2532 0.950 . S
H2524 C2534 0.950 . S
H2525 C2536 0.950 . S
H2526 C2538 0.950 . S
H2527 C2539 0.950 . S
C2528 H2520 0.950 . S
C2528 C2529 1.386 . S
C2528 C2530 1.391 . S
C2529 C2528 1.386 . S
C2529 C2533 1.393 . S
C2530 H2522 0.950 . S
C2530 C2528 1.391 . S
C2530 C2531 1.400 . S
C2531 C2530 1.400 . S
C2531 C2532 1.398 . S
C2531 C2537 1.491 . S
C2532 H2523 0.950 . S
C2532 C2531 1.398 . S
C2532 C2533 1.391 . S
C2533 H2521 0.950 . S
C2533 C2529 1.393 . S
C2533 C2532 1.391 . S
C2534 H2524 0.950 . S
C2534 C2535 1.386 . S
C2534 C2536 1.391 . S
C2535 C2534 1.386 . S
C2535 C2539 1.393 . S
C2536 H2525 0.950 . S
C2536 C2534 1.391 . S
C2536 C2537 1.400 . S
C2537 C2531 1.491 . S
C2537 C2536 1.400 . S
C2537 C2538 1.398 . S
C2538 H2526 0.950 . S
C2538 C2537 1.398 . S
C2538 C2539 1.391 . S
C2539 H2527 0.950 . S
C2539 C2535 1.393 . S
C2539 C2538 1.391 . S
H2540 C2548 0.950 . S
H2541 C2553 0.950 . S
H2542 C2550 0.950 . S
H2543 C2552 0.950 . S
H2544 C2554 0.950 . S
H2545 C2556 0.950 . S
H2546 C2558 0.950 . S
H2547 C2559 0.950 . S
C2548 H2540 0.950 . S
C2548 C2549 1.386 . S
C2548 C2550 1.391 . S
C2549 C2548 1.386 . S
C2549 C2553 1.393 . S
C2550 H2542 0.950 . S
C2550 C2548 1.391 . S
C2550 C2551 1.400 . S
C2551 C2550 1.400 . S
C2551 C2552 1.398 . S
C2551 C2557 1.491 . S
C2552 H2543 0.950 . S
C2552 C2551 1.398 . S
C2552 C2553 1.391 . S
C2553 H2541 0.950 . S
C2553 C2549 1.393 . S
C2553 C2552 1.391 . S
C2554 H2544 0.950 . S
C2554 C2555 1.386 . S
C2554 C2556 1.391 1_455 S
C2555 C2554 1.386 . S
C2555 C2559 1.393 1_455 S
C2556 H2545 0.950 . S
C2556 C2554 1.391 1_655 S
C2556 C2557 1.400 . S
C2557 C2551 1.491 . S
C2557 C2556 1.400 . S
C2557 C2558 1.398 . S
C2558 H2546 0.950 . S
C2558 C2557 1.398 . S
C2558 C2559 1.391 . S
C2559 H2547 0.950 . S
C2559 C2555 1.393 1_655 S
C2559 C2558 1.391 . S
H2560 C2568 0.950 . S
H2561 C2573 0.950 . S
H2562 C2570 0.950 . S
H2563 C2572 0.950 . S
H2564 C2574 0.950 . S
H2565 C2576 0.950 . S
H2566 C2578 0.950 . S
H2567 C2579 0.950 . S
C2568 H2560 0.950 . S
C2568 C2569 1.386 1_545 S
C2568 C2570 1.391 . S
C2569 C2568 1.386 1_565 S
C2569 C2573 1.393 . S
C2570 H2562 0.950 . S
C2570 C2568 1.391 . S
C2570 C2571 1.400 1_545 S
C2571 C2570 1.400 1_565 S
C2571 C2572 1.398 . S
C2571 C2577 1.491 . S
C2572 H2563 0.950 . S
C2572 C2571 1.398 . S
C2572 C2573 1.391 . S
C2573 H2561 0.950 . S
C2573 C2569 1.393 . S
C2573 C2572 1.391 . S
C2574 H2564 0.950 . S
C2574 C2575 1.386 . S
C2574 C2576 1.391 . S
C2575 C2574 1.386 . S
C2575 C2579 1.393 1_565 S
C2576 H2565 0.950 . S
C2576 C2574 1.391 . S
C2576 C2577 1.400 . S
C2577 C2571 1.491 . S
C2577 C2576 1.400 . S
C2577 C2578 1.398 1_565 S
C2578 H2566 0.950 . S
C2578 C2577 1.398 1_545 S
C2578 C2579 1.391 . S
C2579 H2567 0.950 . S
C2579 C2575 1.393 1_545 S
C2579 C2578 1.391 . S
H2580 C2588 0.950 . S
H2581 C2593 0.950 . S
H2582 C2590 0.950 . S
H2583 C2592 0.950 . S
H2584 C2594 0.950 . S
H2585 C2596 0.950 . S
H2586 C2598 0.950 . S
H2587 C2599 0.950 . S
C2588 H2580 0.950 . S
C2588 C2589 1.386 . S
C2588 C2590 1.391 . S
C2589 C2588 1.386 . S
C2589 C2593 1.393 . S
C2590 H2582 0.950 . S
C2590 C2588 1.391 . S
C2590 C2591 1.400 . S
C2591 C2590 1.400 . S
C2591 C2592 1.398 . S
C2591 C2597 1.491 . S
C2592 H2583 0.950 . S
C2592 C2591 1.398 . S
C2592 C2593 1.391 . S
C2593 H2581 0.950 . S
C2593 C2589 1.393 . S
C2593 C2592 1.391 . S
C2594 H2584 0.950 . S
C2594 C2595 1.386 . S
C2594 C2596 1.391 . S
C2595 C2594 1.386 . S
C2595 C2599 1.393 . S
C2596 H2585 0.950 . S
C2596 C2594 1.391 . S
C2596 C2597 1.400 . S
C2597 C2591 1.491 . S
C2597 C2596 1.400 . S
C2597 C2598 1.398 . S
C2598 H2586 0.950 . S
C2598 C2597 1.398 . S
C2598 C2599 1.391 . S
C2599 H2587 0.950 . S
C2599 C2595 1.393 . S
C2599 C2598 1.391 . S
H2600 C2608 0.950 . S
H2601 C2613 0.950 . S
H2602 C2610 0.950 . S
H2603 C2612 0.950 . S
H2604 C2614 0.950 . S
H2605 C2616 0.950 . S
H2606 C2618 0.950 . S
H2607 C2619 0.950 . S
C2608 H2600 0.950 . S
C2608 C2609 1.386 . S
C2608 C2610 1.391 . S
C2609 C2608 1.386 . S
C2609 C2613 1.393 . S
C2610 H2602 0.950 . S
C2610 C2608 1.391 . S
C2610 C2611 1.400 . S
C2611 C2610 1.400 . S
C2611 C2612 1.398 . S
C2611 C2617 1.491 . S
C2612 H2603 0.950 . S
C2612 C2611 1.398 . S
C2612 C2613 1.391 . S
C2613 H2601 0.950 . S
C2613 C2609 1.393 . S
C2613 C2612 1.391 . S
C2614 H2604 0.950 . S
C2614 C2615 1.386 . S
C2614 C2616 1.391 . S
C2615 C2614 1.386 . S
C2615 C2619 1.393 . S
C2616 H2605 0.950 . S
C2616 C2614 1.391 . S
C2616 C2617 1.400 . S
C2617 C2611 1.491 . S
C2617 C2616 1.400 . S
C2617 C2618 1.398 . S
C2618 H2606 0.950 . S
C2618 C2617 1.398 . S
C2618 C2619 1.391 . S
C2619 H2607 0.950 . S
C2619 C2615 1.393 . S
C2619 C2618 1.391 . S
H2620 C2628 0.950 . S
H2621 C2633 0.950 . S
H2622 C2630 0.950 . S
H2623 C2632 0.950 . S
H2624 C2634 0.950 . S
H2625 C2636 0.950 . S
H2626 C2638 0.950 . S
H2627 C2639 0.950 . S
C2628 H2620 0.950 . S
C2628 C2629 1.386 1_545 S
C2628 C2630 1.391 . S
C2629 C2628 1.386 1_565 S
C2629 C2633 1.393 . S
C2630 H2622 0.950 . S
C2630 C2628 1.391 . S
C2630 C2631 1.400 1_545 S
C2631 C2630 1.400 1_565 S
C2631 C2632 1.398 . S
C2631 C2637 1.491 . S
C2632 H2623 0.950 . S
C2632 C2631 1.398 . S
C2632 C2633 1.391 . S
C2633 H2621 0.950 . S
C2633 C2629 1.393 . S
C2633 C2632 1.391 . S
C2634 H2624 0.950 . S
C2634 C2635 1.386 . S
C2634 C2636 1.391 . S
C2635 C2634 1.386 . S
C2635 C2639 1.393 1_565 S
C2636 H2625 0.950 . S
C2636 C2634 1.391 . S
C2636 C2637 1.400 . S
C2637 C2631 1.491 . S
C2637 C2636 1.400 . S
C2637 C2638 1.398 1_565 S
C2638 H2626 0.950 . S
C2638 C2637 1.398 1_545 S
C2638 C2639 1.391 . S
C2639 H2627 0.950 . S
C2639 C2635 1.393 1_545 S
C2639 C2638 1.391 . S
H2640 C2648 0.950 . S
H2641 C2653 0.950 . S
H2642 C2650 0.950 . S
H2643 C2652 0.950 . S
H2644 C2654 0.950 . S
H2645 C2656 0.950 . S
H2646 C2658 0.950 . S
H2647 C2659 0.950 . S
C2648 H2640 0.950 . S
C2648 C2649 1.386 1_565 S
C2648 C2650 1.391 . S
C2649 C2648 1.386 1_545 S
C2649 C2653 1.393 . S
C2650 H2642 0.950 . S
C2650 C2648 1.391 . S
C2650 C2651 1.400 1_565 S
C2651 C2650 1.400 1_545 S
C2651 C2652 1.398 . S
C2651 C2657 1.491 . S
C2652 H2643 0.950 . S
C2652 C2651 1.398 . S
C2652 C2653 1.391 . S
C2653 H2641 0.950 . S
C2653 C2649 1.393 . S
C2653 C2652 1.391 . S
C2654 H2644 0.950 . S
C2654 C2655 1.386 . S
C2654 C2656 1.391 . S
C2655 C2654 1.386 . S
C2655 C2659 1.393 1_545 S
C2656 H2645 0.950 . S
C2656 C2654 1.391 . S
C2656 C2657 1.400 . S
C2657 C2651 1.491 . S
C2657 C2656 1.400 . S
C2657 C2658 1.398 1_545 S
C2658 H2646 0.950 . S
C2658 C2657 1.398 1_565 S
C2658 C2659 1.391 . S
C2659 H2647 0.950 . S
C2659 C2655 1.393 1_565 S
C2659 C2658 1.391 . S
H2660 C2668 0.950 . S
H2661 C2673 0.950 . S
H2662 C2670 0.950 . S
H2663 C2672 0.950 . S
H2664 C2674 0.950 . S
H2665 C2676 0.950 . S
H2666 C2678 0.950 . S
H2667 C2679 0.950 . S
C2668 H2660 0.950 . S
C2668 C2669 1.386 . S
C2668 C2670 1.391 . S
C2669 C2668 1.386 . S
C2669 C2673 1.393 . S
C2670 H2662 0.950 . S
C2670 C2668 1.391 . S
C2670 C2671 1.400 . S
C2671 C2670 1.400 . S
C2671 C2672 1.398 . S
C2671 C2677 1.491 . S
C2672 H2663 0.950 . S
C2672 C2671 1.398 . S
C2672 C2673 1.391 . S
C2673 H2661 0.950 . S
C2673 C2669 1.393 . S
C2673 C2672 1.391 . S
C2674 H2664 0.950 . S
C2674 C2675 1.386 . S
C2674 C2676 1.391 . S
C2675 C2674 1.386 . S
C2675 C2679 1.393 . S
C2676 H2665 0.950 . S
C2676 C2674 1.391 . S
C2676 C2677 1.400 . S
C2677 C2671 1.491 . S
C2677 C2676 1.400 . S
C2677 C2678 1.398 . S
C2678 H2666 0.950 . S
C2678 C2677 1.398 . S
C2678 C2679 1.391 . S
C2679 H2667 0.950 . S
C2679 C2675 1.393 . S
C2679 C2678 1.391 . S
H2680 C2688 0.950 . S
H2681 C2693 0.950 . S
H2682 C2690 0.950 . S
H2683 C2692 0.950 . S
H2684 C2694 0.950 . S
H2685 C2696 0.950 . S
H2686 C2698 0.950 . S
H2687 C2699 0.950 . S
C2688 H2680 0.950 . S
C2688 C2689 1.386 . S
C2688 C2690 1.391 . S
C2689 C2688 1.386 . S
C2689 C2693 1.393 . S
C2690 H2682 0.950 . S
C2690 C2688 1.391 . S
C2690 C2691 1.400 . S
C2691 C2690 1.400 . S
C2691 C2692 1.398 . S
C2691 C2697 1.491 . S
C2692 H2683 0.950 . S
C2692 C2691 1.398 . S
C2692 C2693 1.391 . S
C2693 H2681 0.950 . S
C2693 C2689 1.393 . S
C2693 C2692 1.391 . S
C2694 H2684 0.950 . S
C2694 C2695 1.386 . S
C2694 C2696 1.391 . S
C2695 C2694 1.386 . S
C2695 C2699 1.393 . S
C2696 H2685 0.950 . S
C2696 C2694 1.391 . S
C2696 C2697 1.400 . S
C2697 C2691 1.491 . S
C2697 C2696 1.400 . S
C2697 C2698 1.398 . S
C2698 H2686 0.950 . S
C2698 C2697 1.398 . S
C2698 C2699 1.391 . S
C2699 H2687 0.950 . S
C2699 C2695 1.393 . S
C2699 C2698 1.391 . S
H2700 C2708 0.950 . S
H2701 C2713 0.950 . S
H2702 C2710 0.950 . S
H2703 C2712 0.950 . S
H2704 C2714 0.950 . S
H2705 C2716 0.950 . S
H2706 C2718 0.950 . S
H2707 C2719 0.969 . S
C2708 H2700 0.950 . S
C2708 C2709 1.386 1_565 S
C2708 C2710 1.391 . S
C2709 C2708 1.386 1_545 S
C2709 C2713 1.393 . S
C2710 H2702 0.950 . S
C2710 C2708 1.391 . S
C2710 C2711 1.400 1_565 S
C2711 C2710 1.400 1_545 S
C2711 C2712 1.398 . S
C2711 C2717 1.491 . S
C2712 H2703 0.950 . S
C2712 C2711 1.398 . S
C2712 C2713 1.391 . S
C2713 H2701 0.950 . S
C2713 C2709 1.393 . S
C2713 C2712 1.391 . S
C2714 H2704 0.950 . S
C2714 C2715 1.386 . S
C2714 C2716 1.391 . S
C2715 C2714 1.386 . S
C2715 C2719 1.373 1_545 S
C2716 H2705 0.950 . S
C2716 C2714 1.391 . S
C2716 C2717 1.400 . S
C2717 C2711 1.491 . S
C2717 C2716 1.400 . S
C2717 C2718 1.398 1_545 S
C2718 H2706 0.950 . S
C2718 C2717 1.398 1_565 S
C2718 C2719 1.393 . S
C2719 H2707 0.969 . S
C2719 C2715 1.373 1_565 S
C2719 C2718 1.393 . S
H2720 C2728 0.950 . S
H2721 C2733 0.950 . S
H2722 C2730 0.950 . S
H2723 C2732 0.950 . S
H2724 C2734 0.950 . S
H2725 C2736 0.950 . S
H2726 C2738 0.950 1_554 S
H2727 C2739 0.950 . S
C2728 H2720 0.950 . S
C2728 C2729 1.386 . S
C2728 C2730 1.391 . S
C2729 C2728 1.386 . S
C2729 C2733 1.393 . S
C2730 H2722 0.950 . S
C2730 C2728 1.391 . S
C2730 C2731 1.400 . S
C2731 C2730 1.400 . S
C2731 C2732 1.398 . S
C2731 C2737 1.491 . S
C2732 H2723 0.950 . S
C2732 C2731 1.398 . S
C2732 C2733 1.391 . S
C2733 H2721 0.950 . S
C2733 C2729 1.393 . S
C2733 C2732 1.391 . S
C2734 H2724 0.950 . S
C2734 C2735 1.386 . S
C2734 C2736 1.391 . S
C2735 C2734 1.386 . S
C2735 C2739 1.393 1_556 S
C2736 H2725 0.950 . S
C2736 C2734 1.391 . S
C2736 C2737 1.400 . S
C2737 C2731 1.491 . S
C2737 C2736 1.400 . S
C2737 C2738 1.398 . S
C2738 H2726 0.950 1_556 S
C2738 C2737 1.398 . S
C2738 C2739 1.391 1_556 S
C2739 H2727 0.950 . S
C2739 C2735 1.393 1_554 S
C2739 C2738 1.391 1_554 S
H2740 C2748 0.950 . S
H2741 C2753 0.950 . S
H2742 C2750 0.950 . S
H2743 C2752 0.950 . S
H2744 C2754 0.950 . S
H2745 C2756 0.950 . S
H2746 C2758 0.950 . S
H2747 C2759 0.950 . S
C2748 H2740 0.950 . S
C2748 C2749 1.386 . S
C2748 C2750 1.391 . S
C2749 C2748 1.386 . S
C2749 C2753 1.393 . S
C2750 H2742 0.950 . S
C2750 C2748 1.391 . S
C2750 C2751 1.400 . S
C2751 C2750 1.400 . S
C2751 C2752 1.398 . S
C2751 C2757 1.491 . S
C2752 H2743 0.950 . S
C2752 C2751 1.398 . S
C2752 C2753 1.391 . S
C2753 H2741 0.950 . S
C2753 C2749 1.393 . S
C2753 C2752 1.391 . S
C2754 H2744 0.950 . S
C2754 C2755 1.386 . S
C2754 C2756 1.391 . S
C2755 C2754 1.386 . S
C2755 C2759 1.393 . S
C2756 H2745 0.950 . S
C2756 C2754 1.391 . S
C2756 C2757 1.400 . S
C2757 C2751 1.491 . S
C2757 C2756 1.400 . S
C2757 C2758 1.398 . S
C2758 H2746 0.950 . S
C2758 C2757 1.398 . S
C2758 C2759 1.391 . S
C2759 H2747 0.950 . S
C2759 C2755 1.393 . S
C2759 C2758 1.391 . S
H2760 C2768 0.950 . S
H2761 C2773 0.950 . S
H2762 C2770 0.950 . S
H2763 C2772 0.950 . S
H2764 C2774 0.950 . S
H2765 C2776 0.950 . S
H2766 C2778 0.950 . S
H2767 C2779 0.950 . S
C2768 H2760 0.950 . S
C2768 C2769 1.386 . S
C2768 C2770 1.391 . S
C2769 C2768 1.386 . S
C2769 C2773 1.393 . S
C2770 H2762 0.950 . S
C2770 C2768 1.391 . S
C2770 C2771 1.400 . S
C2771 C2770 1.400 . S
C2771 C2772 1.398 . S
C2771 C2777 1.491 . S
C2772 H2763 0.950 . S
C2772 C2771 1.398 . S
C2772 C2773 1.391 . S
C2773 H2761 0.950 . S
C2773 C2769 1.393 . S
C2773 C2772 1.391 . S
C2774 H2764 0.950 . S
C2774 C2775 1.386 . S
C2774 C2776 1.391 . S
C2775 C2774 1.386 . S
C2775 C2779 1.393 . S
C2776 H2765 0.950 . S
C2776 C2774 1.391 . S
C2776 C2777 1.400 . S
C2777 C2771 1.491 . S
C2777 C2776 1.400 . S
C2777 C2778 1.398 . S
C2778 H2766 0.950 . S
C2778 C2777 1.398 . S
C2778 C2779 1.391 . S
C2779 H2767 0.950 . S
C2779 C2775 1.393 . S
C2779 C2778 1.391 . S
H2780 C2788 0.950 . S
H2781 C2793 0.950 . S
H2782 C2790 0.950 . S
H2783 C2792 0.950 . S
H2784 C2794 0.950 . S
H2785 C2796 0.950 . S
H2786 C2798 0.950 . S
H2787 C2799 0.950 . S
C2788 H2780 0.950 . S
C2788 C2789 1.386 . S
C2788 C2790 1.391 . S
C2789 C2788 1.386 . S
C2789 C2793 1.393 . S
C2790 H2782 0.950 . S
C2790 C2788 1.391 . S
C2790 C2791 1.400 . S
C2791 C2790 1.400 . S
C2791 C2792 1.398 . S
C2791 C2797 1.491 . S
C2792 H2783 0.950 . S
C2792 C2791 1.398 . S
C2792 C2793 1.391 . S
C2793 H2781 0.950 . S
C2793 C2789 1.393 . S
C2793 C2792 1.391 . S
C2794 H2784 0.950 . S
C2794 C2795 1.386 . S
C2794 C2796 1.391 . S
C2795 C2794 1.386 . S
C2795 C2799 1.393 . S
C2796 H2785 0.950 . S
C2796 C2794 1.391 . S
C2796 C2797 1.400 . S
C2797 C2791 1.491 . S
C2797 C2796 1.400 . S
C2797 C2798 1.398 . S
C2798 H2786 0.950 . S
C2798 C2797 1.398 . S
C2798 C2799 1.391 . S
C2799 H2787 0.950 . S
C2799 C2795 1.393 . S
C2799 C2798 1.391 . S
H2800 C2808 0.950 . S
H2801 C2813 0.950 . S
H2802 C2810 0.950 . S
H2803 C2812 0.950 . S
H2804 C2814 0.950 . S
H2805 C2816 0.950 . S
H2806 C2818 0.950 . S
H2807 C2819 0.950 1_556 S
C2808 H2800 0.950 . S
C2808 C2809 1.386 . S
C2808 C2810 1.391 . S
C2809 C2808 1.386 . S
C2809 C2813 1.393 . S
C2810 H2802 0.950 . S
C2810 C2808 1.391 . S
C2810 C2811 1.400 . S
C2811 C2810 1.400 . S
C2811 C2812 1.398 . S
C2811 C2817 1.491 . S
C2812 H2803 0.950 . S
C2812 C2811 1.398 . S
C2812 C2813 1.391 . S
C2813 H2801 0.950 . S
C2813 C2809 1.393 . S
C2813 C2812 1.391 . S
C2814 H2804 0.950 . S
C2814 C2815 1.386 . S
C2814 C2816 1.391 . S
C2815 C2814 1.386 . S
C2815 C2819 1.393 . S
C2816 H2805 0.950 . S
C2816 C2814 1.391 . S
C2816 C2817 1.400 . S
C2817 C2811 1.491 . S
C2817 C2816 1.400 . S
C2817 C2818 1.398 . S
C2818 H2806 0.950 . S
C2818 C2817 1.398 . S
C2818 C2819 1.391 . S
C2819 H2807 0.950 1_554 S
C2819 C2815 1.393 . S
C2819 C2818 1.391 . S
H2820 C2828 0.950 . S
H2821 C2833 0.950 . S
H2822 C2830 0.950 . S
H2823 C2832 0.950 . S
H2824 C2834 0.950 . S
H2825 C2836 0.950 . S
H2826 C2838 0.950 1_556 S
H2827 C2839 0.950 . S
C2828 H2820 0.950 . S
C2828 C2829 1.386 . S
C2828 C2830 1.391 . S
C2829 C2828 1.386 . S
C2829 C2833 1.393 . S
C2830 H2822 0.950 . S
C2830 C2828 1.391 . S
C2830 C2831 1.400 . S
C2831 C2830 1.400 . S
C2831 C2832 1.398 . S
C2831 C2837 1.491 . S
C2832 H2823 0.950 . S
C2832 C2831 1.398 . S
C2832 C2833 1.391 . S
C2833 H2821 0.950 . S
C2833 C2829 1.393 . S
C2833 C2832 1.391 . S
C2834 H2824 0.950 . S
C2834 C2835 1.386 . S
C2834 C2836 1.391 . S
C2835 C2834 1.386 . S
C2835 C2839 1.393 1_554 S
C2836 H2825 0.950 . S
C2836 C2834 1.391 . S
C2836 C2837 1.400 . S
C2837 C2831 1.491 . S
C2837 C2836 1.400 . S
C2837 C2838 1.398 . S
C2838 H2826 0.950 1_554 S
C2838 C2837 1.398 . S
C2838 C2839 1.391 1_554 S
C2839 H2827 0.950 . S
C2839 C2835 1.393 1_556 S
C2839 C2838 1.391 1_556 S
H2840 C2848 0.950 . S
H2841 C2853 0.950 . S
H2842 C2850 0.950 . S
H2843 C2852 0.950 . S
H2844 C2854 0.950 . S
H2845 C2856 0.950 . S
H2846 C2858 0.950 . S
H2847 C2859 0.950 . S
C2848 H2840 0.950 . S
C2848 C2849 1.386 . S
C2848 C2850 1.391 . S
C2849 C2848 1.386 . S
C2849 C2853 1.393 . S
C2850 H2842 0.950 . S
C2850 C2848 1.391 . S
C2850 C2851 1.400 . S
C2851 C2850 1.400 . S
C2851 C2852 1.398 . S
C2851 C2857 1.491 . S
C2852 H2843 0.950 . S
C2852 C2851 1.398 . S
C2852 C2853 1.391 . S
C2853 H2841 0.950 . S
C2853 C2849 1.393 . S
C2853 C2852 1.391 . S
C2854 H2844 0.950 . S
C2854 C2855 1.386 . S
C2854 C2856 1.391 . S
C2855 C2854 1.386 . S
C2855 C2859 1.393 . S
C2856 H2845 0.950 . S
C2856 C2854 1.391 . S
C2856 C2857 1.400 . S
C2857 C2851 1.491 . S
C2857 C2856 1.400 . S
C2857 C2858 1.398 . S
C2858 H2846 0.950 . S
C2858 C2857 1.398 . S
C2858 C2859 1.391 . S
C2859 H2847 0.950 . S
C2859 C2855 1.393 . S
C2859 C2858 1.391 . S
H2860 C2868 0.950 . S
H2861 C2873 0.950 . S
H2862 C2870 0.950 . S
H2863 C2872 0.950 . S
H2864 C2874 0.950 . S
H2865 C2876 0.950 . S
H2866 C2878 0.950 . S
H2867 C2879 0.950 . S
C2868 H2860 0.950 . S
C2868 C2869 1.386 . S
C2868 C2870 1.391 . S
C2869 C2868 1.386 . S
C2869 C2873 1.393 . S
C2870 H2862 0.950 . S
C2870 C2868 1.391 . S
C2870 C2871 1.400 . S
C2871 C2870 1.400 . S
C2871 C2872 1.398 . S
C2871 C2877 1.491 . S
C2872 H2863 0.950 . S
C2872 C2871 1.398 . S
C2872 C2873 1.391 . S
C2873 H2861 0.950 . S
C2873 C2869 1.393 . S
C2873 C2872 1.391 . S
C2874 H2864 0.950 . S
C2874 C2875 1.386 . S
C2874 C2876 1.391 . S
C2875 C2874 1.386 . S
C2875 C2879 1.393 . S
C2876 H2865 0.950 . S
C2876 C2874 1.391 . S
C2876 C2877 1.400 . S
C2877 C2871 1.491 . S
C2877 C2876 1.400 . S
C2877 C2878 1.398 . S
C2878 H2866 0.950 . S
C2878 C2877 1.398 . S
C2878 C2879 1.391 . S
C2879 H2867 0.950 . S
C2879 C2875 1.393 . S
C2879 C2878 1.391 . S
C969 C751 2.070 . S
C975 C1 2.068 . S
C989 C721 2.078 . S
C995 C31 2.077 . S
C1009 C811 2.075 . S
C1015 C61 2.078 . S
C1029 C781 2.068 . S
C1035 C91 2.069 . S
C1049 C130 2.068 . S
C1055 C880 2.068 . S
C1069 C160 2.077 . S
C1075 C850 2.075 . S
C1089 C190 2.074 . S
C1095 C940 2.071 . S
C1109 C910 2.071 . S
C1115 C220 2.074 . S
C1129 C511 2.069 . S
C1135 C241 2.068 . S
C1149 C481 2.078 . S
C1155 C271 2.079 . S
C1169 C571 2.074 . S
C1175 C301 2.071 . S
C1189 C541 2.079 . S
C1195 C331 2.078 . S
C1209 C370 2.079 . S
C1215 C640 2.077 . S
C1229 C610 2.078 . S
C1235 C400 2.077 . S
C1249 C430 2.078 . S
C1255 C700 2.079 . S
C1269 C670 2.079 . S
C1275 C460 2.078 . S
C1289 C16 2.701 . S
C1295 C627 2.701 . S
C1309 C417 2.701 . S
C1315 C46 2.701 . S
C1329 C927 2.703 . S
C1335 C76 2.703 . S
C1349 C106 2.707 . S
C1355 C237 2.707 . S
C1369 C147 2.704 . S
C1375 C496 2.704 . S
C1389 C177 2.704 . S
C1395 C286 2.704 . S
C1409 C207 2.701 . S
C1415 C796 2.701 . S
C1429 C867 2.706 . S
C1435 C256 2.706 . S
C1449 C687 2.699 . S
C1455 C316 2.699 . S
C1469 C477 2.698 . S
C1475 C346 2.698 . S
C1489 C736 2.698 . S
C1495 C387 2.698 . S
C1509 C447 2.705 . S
C1515 C556 2.705 . S
C1529 C897 2.707 . S
C1535 C526 2.707 . S
C1549 C586 2.707 . S
C1555 C717 2.707 . S
C1569 C766 2.698 . S
C1575 C657 2.698 . S
C1589 C826 2.708 . S
C1595 C957 2.708 . S
C1609 C27 2.321 1_556 S
C1615 C597 2.324 . S
C1629 C57 2.321 1_556 S
C1635 C567 2.324 . S
C1649 C87 2.321 . S
C1655 C537 2.324 . S
C1669 C117 2.326 . S
C1675 C507 2.323 . S
C1689 C136 2.322 1_554 S
C1695 C706 2.322 . S
C1709 C166 2.322 1_554 S
C1715 C676 2.321 . S
C1729 C196 2.327 . S
C1735 C646 2.325 . S
C1749 C226 2.327 . S
C1755 C616 2.325 . S
C1769 C267 2.323 . S
C1775 C837 2.326 . S
C1789 C297 2.322 . S
C1795 C807 2.325 . S
C1809 C327 2.322 . S
C1815 C777 2.325 1_556 S
C1829 C357 2.327 . S
C1835 C747 2.325 1_556 S
C1849 C946 2.325 . S
C1855 C376 2.322 . S
C1869 C916 2.321 . S
C1875 C406 2.323 . S
C1889 C886 2.323 1_554 S
C1895 C436 2.327 . S
C1909 C856 2.327 1_554 S
C1915 C466 2.327 . S
C1929 C70 1.418 . S
C1935 C10 1.429 . S
C1949 C100 1.420 . S
C1955 C40 1.430 . S
C1969 C181 1.413 . S
C1975 C121 1.414 . S
C1989 C151 1.419 . S
C1995 C211 1.411 . S
C2009 C310 1.421 . S
C2015 C250 1.411 . S
C2029 C280 1.415 . S
C2035 C340 1.412 . S
C2049 C421 1.419 . S
C2055 C361 1.411 . S
C2069 C391 1.430 . S
C2075 C451 1.424 . S
C2089 C490 1.414 . S
C2095 C550 1.413 . S
C2109 C520 1.411 . S
C2115 C580 1.419 . S
C2129 C661 1.411 . S
C2135 C601 1.419 . S
C2149 C631 1.427 . S
C2155 C691 1.414 . S
C2169 C730 1.416 . S
C2175 C790 1.411 . S
C2189 C820 1.429 . S
C2195 C760 1.425 . S
C2209 C841 1.429 . S
C2215 C901 1.425 . S
C2229 C871 1.421 . S
C2235 C931 1.430 . S
C2249 N14 0.557 1_565 S
C2255 N224 0.595 . S
C2269 N914 0.584 . S
C2275 N44 0.565 . S
C2289 N74 0.617 . S
C2295 N404 0.581 . S
C2309 N104 0.590 1_565 S
C2315 N614 0.630 . S
C2329 N96 0.560 . S
C2335 N126 0.578 1_545 S
C2349 N156 0.568 . S
C2355 N786 0.576 . S
C2369 N276 0.575 . S
C2375 N186 0.558 . S
C2389 N486 0.571 . S
C2395 N216 0.601 1_545 S
C2409 N254 0.563 . S
C2415 N464 0.620 . S
C2429 N674 0.577 . S
C2435 N284 0.557 . S
C2449 N314 0.605 . S
C2455 N164 0.627 . S
C2469 N854 0.573 . S
C2475 N344 0.559 . S
C2489 N366 0.617 . S
C2495 N336 0.613 . S
C2509 N396 0.557 . S
C2515 N546 0.612 . S
C2529 N426 0.553 . S
C2535 N36 0.602 . S
C2549 N726 0.560 . S
C2555 N456 0.597 . S
C2569 N494 0.590 1_565 S
C2575 N704 0.630 . S
C2589 N524 0.597 . S
C2595 N434 0.630 . S
C2609 N554 0.575 . S
C2615 N884 0.560 . S
C2629 N584 0.584 1_565 S
C2635 N134 0.631 . S
C2649 N606 0.586 1_545 S
C2655 N576 0.560 . S
C2669 N306 0.561 . S
C2675 N636 0.572 . S
C2689 N756 0.595 . S
C2695 N666 0.552 . S
C2709 N696 0.545 1_545 S
C2715 N6 0.601 . S
C2729 N944 0.624 . S
C2735 N734 0.580 . S
C2749 N194 0.623 . S
C2755 N764 0.623 . S
C2769 N644 0.574 . S
C2775 N794 0.558 . S
C2789 N824 0.589 . S
C2795 N374 0.631 . S
C2809 N816 0.561 . S
C2815 N846 0.584 . S
C2829 N66 0.578 . S
C2835 N876 0.627 . S
C2849 N516 0.562 . S
C2855 N906 0.571 . S
C2869 N936 0.619 . S
C2875 N246 0.608 . S
