# Generated by pormake.
# Topology ofo, (3)-cn, num edge types: 1
# Building blocks:
#     Node 0, Type 0, BuildingBlock: OLANEW_clean_sbu_2, # of connection points: 3
#     Node 1, Type 0, BuildingBlock: OLANEW_clean_sbu_2, # of connection points: 3
#     Node 2, Type 0, BuildingBlock: OLANEW_clean_sbu_2, # of connection points: 3
#     Node 3, Type 0, BuildingBlock: OLANEW_clean_sbu_2, # of connection points: 3
#     Node 4, Type 0, BuildingBlock: OLANEW_clean_sbu_2, # of connection points: 3
#     Node 5, Type 0, BuildingBlock: OLANEW_clean_sbu_2, # of connection points: 3
#     Node 6, Type 0, BuildingBlock: OLANEW_clean_sbu_2, # of connection points: 3
#     Node 7, Type 0, BuildingBlock: OLANEW_clean_sbu_2, # of connection points: 3
#     Node 8, Type 0, BuildingBlock: OLANEW_clean_sbu_2, # of connection points: 3
#     Node 9, Type 0, BuildingBlock: OLANEW_clean_sbu_2, # of connection points: 3
#     Node 10, Type 0, BuildingBlock: OLANEW_clean_sbu_2, # of connection points: 3
#     Node 11, Type 0, BuildingBlock: OLANEW_clean_sbu_2, # of connection points: 3
#     Edge 12, Type (0, 0), BuildingBlock: XUDNAN_clean_linker_2, # of connection points: 2
#     Edge 13, Type (0, 0), BuildingBlock: XUDNAN_clean_linker_2, # of connection points: 2
#     Edge 14, Type (0, 0), BuildingBlock: XUDNAN_clean_linker_2, # of connection points: 2
#     Edge 15, Type (0, 0), BuildingBlock: XUDNAN_clean_linker_2, # of connection points: 2
#     Edge 16, Type (0, 0), BuildingBlock: XUDNAN_clean_linker_2, # of connection points: 2
#     Edge 17, Type (0, 0), BuildingBlock: XUDNAN_clean_linker_2, # of connection points: 2
#     Edge 18, Type (0, 0), BuildingBlock: XUDNAN_clean_linker_2, # of connection points: 2
#     Edge 19, Type (0, 0), BuildingBlock: XUDNAN_clean_linker_2, # of connection points: 2
#     Edge 20, Type (0, 0), BuildingBlock: XUDNAN_clean_linker_2, # of connection points: 2
#     Edge 21, Type (0, 0), BuildingBlock: XUDNAN_clean_linker_2, # of connection points: 2
#     Edge 22, Type (0, 0), BuildingBlock: XUDNAN_clean_linker_2, # of connection points: 2
#     Edge 23, Type (0, 0), BuildingBlock: XUDNAN_clean_linker_2, # of connection points: 2
#     Edge 24, Type (0, 0), BuildingBlock: XUDNAN_clean_linker_2, # of connection points: 2
#     Edge 25, Type (0, 0), BuildingBlock: XUDNAN_clean_linker_2, # of connection points: 2
#     Edge 26, Type (0, 0), BuildingBlock: XUDNAN_clean_linker_2, # of connection points: 2
#     Edge 27, Type (0, 0), BuildingBlock: XUDNAN_clean_linker_2, # of connection points: 2
#     Edge 28, Type (0, 0), BuildingBlock: XUDNAN_clean_linker_2, # of connection points: 2
#     Edge 29, Type (0, 0), BuildingBlock: XUDNAN_clean_linker_2, # of connection points: 2
# Relax obj value: 0.000
# Max RMSD: 0.044
# Mean RMSD: 0.044
data_MOF--net-ofo--node1-OLANEW_clean_sbu_2--edge1-XUDNAN_clean_linker_2
_symmetry_space_group_name_H-M    P1
_symmetry_Int_Tables_number       1
_symmetry_cell_setting            triclinic
loop_
_symmetry_equiv_pos_as_xyz
'x, y, z'
_cell_length_a     23.003329
_cell_length_b     23.025997
_cell_length_c     79.954733
_cell_angle_alpha  89.872364
_cell_angle_beta   90.006122
_cell_angle_gamma 120.10557
loop_
_atom_site_label
_atom_site_type_symbol
_atom_site_fract_x
_atom_site_fract_y
_atom_site_fract_z
_atom_type_partial_charge
O0 O 0.47269 0.25153 0.02252 0.0
Cd1 Cd 0.45676 0.34744 0.02776 0.0
O2 O 0.40774 0.19167 0.04338 0.0
Cd3 Cd 0.40097 0.27475 0.05459 0.0
O4 O 0.42295 0.33867 0.07665 0.0
C5 C 0.45602 0.40248 0.07632 0.0
O6 O 0.47516 0.4335 0.06184 0.0
C7 C 0.44382 0.19691 0.03077 0.0
C8 C 0.34828 0.33888 0.00989 0.0
O9 O 0.40603 0.36131 0.00305 0.0
O10 O 0.3415 0.32028 0.02524 0.0
O11 O 0.2056 0.36672 0.72194 0.0
Cd12 Cd 0.08978 0.32759 0.71316 0.0
O13 O 0.16986 0.37417 0.74667 0.0
Cd14 Cd 0.16974 0.40371 0.77268 0.0
O15 O 0.13979 0.42579 0.79674 0.0
C16 C 0.12311 0.47068 0.79738 0.0
O17 O 0.12591 0.5035 0.78366 0.0
C18 C 0.21838 0.38363 0.73721 0.0
C19 C 0.03755 0.23365 0.6874 0.0
O20 O 0.07452 0.29644 0.68422 0.0
O21 O 0.02719 0.21508 0.70277 0.0
O22 O 0.8324 0.21652 0.37308 0.0
Cd23 Cd 0.7362 0.10244 0.37187 0.0
O24 O 0.79524 0.24583 0.39504 0.0
Cd25 Cd 0.70903 0.14885 0.4018 0.0
O26 O 0.64559 0.10353 0.42382 0.0
C27 C 0.67678 0.11021 0.43746 0.0
O28 O 0.74254 0.1381 0.43702 0.0
C29 C 0.83854 0.26086 0.3835 0.0
C30 C 0.74584 0.0361 0.34372 0.0
O31 O 0.72326 0.07675 0.34261 0.0
O32 O 0.76325 0.026 0.35818 0.0
O33 O 0.5728 0.81466 0.03559 0.0
Cd34 Cd 0.60037 0.7362 0.04932 0.0
O35 O 0.48524 0.78399 0.05197 0.0
Cd36 Cd 0.48975 0.70337 0.06531 0.0
O37 O 0.45441 0.62416 0.08423 0.0
C38 C 0.47292 0.6394 0.09934 0.0
O39 O 0.51707 0.70198 0.10298 0.0
C40 C 0.52375 0.82137 0.04037 0.0
C41 C 0.67644 0.69815 0.02988 0.0
O42 O 0.61295 0.659 0.03157 0.0
O43 O 0.70368 0.75536 0.03715 0.0
O44 O 0.69899 0.75458 0.74338 0.0
Cd45 Cd 0.79787 0.86687 0.7419 0.0
O46 O 0.7371 0.72545 0.76501 0.0
Cd47 Cd 0.74331 0.66494 0.78539 0.0
O48 O 0.78003 0.63436 0.80708 0.0
C49 C 0.79148 0.58582 0.80645 0.0
O50 O 0.77935 0.5516 0.7925 0.0
C51 C 0.69038 0.7113 0.75447 0.0
C52 C 0.89798 0.87928 0.72011 0.0
O53 O 0.90216 0.87144 0.73586 0.0
O54 O 0.84599 0.88002 0.71465 0.0
O55 O 0.24912 0.76393 0.39498 0.0
Cd56 Cd 0.32582 0.87935 0.40381 0.0
O57 O 0.17492 0.75043 0.4142 0.0
Cd58 Cd 0.24523 0.84004 0.42807 0.0
O59 O 0.31558 0.88387 0.44885 0.0
C60 C 0.36899 0.88047 0.44823 0.0
O61 O 0.38119 0.85596 0.43471 0.0
C62 C 0.19132 0.72847 0.40152 0.0
C63 C 0.313 0.96665 0.38193 0.0
O64 O 0.35904 0.95149 0.37981 0.0
O65 O 0.274 0.94166 0.3946 0.0
O66 O 0.84861 0.61006 0.24629 0.0
Cd67 Cd 0.76751 0.64385 0.23794 0.0
O68 O 0.85146 0.57025 0.22148 0.0
Cd69 Cd 0.78445 0.5983 0.2089 0.0
O70 O 0.72282 0.60198 0.18847 0.0
C71 C 0.66921 0.54815 0.18469 0.0
O72 O 0.65124 0.49421 0.19382 0.0
C73 C 0.87015 0.58097 0.23669 0.0
C74 C 0.7729 0.74573 0.25795 0.0
O75 O 0.7413 0.6844 0.26281 0.0
O76 O 0.80241 0.7591 0.2437 0.0
O77 O 0.23184 0.77305 0.95512 0.0
Cd78 Cd 0.12594 0.67579 0.94586 0.0
O79 O 0.2042 0.84364 0.94404 0.0
Cd80 Cd 0.1257 0.76473 0.9287 0.0
O81 O 0.08386 0.6823 0.91066 0.0
C82 C 0.07665 0.69328 0.89543 0.0
O83 O 0.09027 0.7538 0.89097 0.0
C84 C 0.24367 0.8328 0.95295 0.0
C85 C 0.01663 0.65744 0.96524 0.0
O86 O 0.0431 0.62064 0.96762 0.0
O87 O 0.04146 0.70237 0.9538 0.0
O88 O 0.50048 0.18264 0.63881 0.0
Cd89 Cd 0.45548 0.07052 0.65089 0.0
O90 O 0.49275 0.13695 0.61437 0.0
Cd91 Cd 0.49462 0.12957 0.58708 0.0
O92 O 0.49712 0.11174 0.56032 0.0
C93 C 0.54884 0.11352 0.55411 0.0
O94 O 0.59969 0.12664 0.56397 0.0
C95 C 0.5086 0.18907 0.62306 0.0
C96 C 0.32304 0.0176 0.66168 0.0
O97 O 0.37238 0.05003 0.67172 0.0
O98 O 0.33638 0.01019 0.64653 0.0
O99 O 0.04352 0.2646 0.27728 0.0
Cd100 Cd 0.04902 0.16131 0.27676 0.0
O101 O 0.08857 0.28444 0.25235 0.0
Cd102 Cd 0.12972 0.33664 0.2286 0.0
O103 O 0.17651 0.36691 0.2039 0.0
C104 C 0.2354 0.41691 0.20208 0.0
O105 O 0.2679 0.45218 0.21528 0.0
C106 C 0.06306 0.30107 0.26423 0.0
C107 C 0.13321 0.15122 0.3002 0.0
O108 O 0.15549 0.17795 0.28582 0.0
O109 O 0.07152 0.13103 0.30366 0.0
O110 O 0.72814 0.26241 0.96614 0.0
Cd111 Cd 0.83979 0.35837 0.95968 0.0
O112 O 0.72523 0.19684 0.94576 0.0
Cd113 Cd 0.81138 0.27987 0.93324 0.0
O114 O 0.85416 0.36345 0.91541 0.0
C115 C 0.85257 0.35067 0.8999 0.0
O116 O 0.83017 0.28828 0.89526 0.0
C117 C 0.69878 0.20601 0.95872 0.0
C118 C 0.94923 0.34047 0.96656 0.0
O119 O 0.92224 0.35753 0.97814 0.0
O120 O 0.9238 0.33068 0.95187 0.0
O121 O 0.60198 0.66893 0.5996 0.0
Cd122 Cd 0.60631 0.77687 0.59705 0.0
O123 O 0.64724 0.67547 0.57494 0.0
Cd124 Cd 0.64541 0.76632 0.56773 0.0
O125 O 0.61334 0.82686 0.55358 0.0
C126 C 0.62695 0.83505 0.53804 0.0
O127 O 0.66282 0.81064 0.53162 0.0
C128 C 0.62361 0.64436 0.58866 0.0
C129 C 0.71902 0.88043 0.61275 0.0
O130 O 0.66505 0.8427 0.62096 0.0
O131 O 0.71986 0.86909 0.59709 0.0
H132 H 0.4363 0.35144 0.10809 0.0
H133 H 0.53409 0.53901 0.08038 0.0
H134 H 0.5882 0.59972 0.10641 0.0
H135 H 0.41484 0.41974 0.14893 0.0
H136 H 0.43288 0.36338 0.16038 0.0
H137 H 0.39223 0.33897 0.14026 0.0
H138 H 0.48728 0.31653 0.13047 0.0
H139 H 0.52848 0.34361 0.15037 0.0
H140 H 0.57345 0.38369 0.13144 0.0
H141 H 0.64162 0.63801 0.13478 0.0
H142 H 0.69381 0.64944 0.16251 0.0
H143 H 0.56271 0.43611 0.17126 0.0
C144 C 0.46741 0.40556 0.10754 0.0
C145 C 0.4806 0.44045 0.09218 0.0
C146 C 0.52293 0.51113 0.092 0.0
C147 C 0.55379 0.5461 0.10674 0.0
C148 C 0.54106 0.50986 0.1216 0.0
C149 C 0.49861 0.4411 0.12211 0.0
C150 C 0.49981 0.41258 0.1391 0.0
C151 C 0.4308 0.38182 0.14766 0.0
C152 C 0.52371 0.36111 0.13775 0.0
C153 C 0.55105 0.47569 0.14794 0.0
C154 C 0.57336 0.53152 0.13778 0.0
C155 C 0.62391 0.59475 0.14291 0.0
C156 C 0.65332 0.60073 0.15868 0.0
C157 C 0.63241 0.54369 0.16908 0.0
C158 C 0.57952 0.48083 0.16371 0.0
H159 H 0.10835 0.57903 0.80425 0.0
H160 H 0.0914 0.39946 0.82676 0.0
H161 H 0.06173 0.4297 0.8538 0.0
H162 H 0.18863 0.68489 0.83805 0.0
H163 H 0.14735 0.73342 0.83566 0.0
H164 H 0.15893 0.69301 0.8178 0.0
H165 H 0.03172 0.63397 0.81215 0.0
H166 H 0.01744 0.67068 0.83048 0.0
H167 H 0.97346 0.58089 0.82792 0.0
H168 H 0.04589 0.48536 0.87892 0.0
H169 H 0.05008 0.56427 0.90036 0.0
H170 H 0.07607 0.70694 0.86139 0.0
C171 C 0.09731 0.54543 0.81479 0.0
C172 C 0.10207 0.4868 0.81339 0.0
C173 C 0.08818 0.44471 0.82755 0.0
C174 C 0.07093 0.46127 0.84293 0.0
C175 C 0.06776 0.52005 0.84394 0.0
C176 C 0.08058 0.56148 0.83024 0.0
C177 C 0.07924 0.62446 0.83493 0.0
C178 C 0.14759 0.68764 0.83141 0.0
C179 C 0.02206 0.62771 0.82584 0.0
C180 C 0.0656 0.61294 0.85352 0.0
C181 C 0.05814 0.55197 0.85843 0.0
C182 C 0.05089 0.53287 0.8752 0.0
C183 C 0.05349 0.57815 0.8873 0.0
C184 C 0.06341 0.64185 0.88257 0.0
C185 C 0.06757 0.65836 0.86541 0.0
H186 H 0.73131 0.12453 0.46863 0.0
H187 H 0.54288 0.06473 0.44318 0.0
H188 H 0.48804 0.05438 0.47045 0.0
H189 H 0.65955 0.01473 0.50563 0.0
H190 H 0.72088 0.07749 0.51928 0.0
H191 H 0.74186 0.07356 0.49774 0.0
H192 H 0.77561 0.19904 0.49433 0.0
H193 H 0.75232 0.2016 0.51568 0.0
H194 H 0.71478 0.22426 0.49899 0.0
H195 H 0.45649 0.06029 0.50038 0.0
H196 H 0.44885 0.07505 0.53073 0.0
H197 H 0.65739 0.12788 0.53646 0.0
C198 C 0.67815 0.10791 0.46877 0.0
C199 C 0.64141 0.09545 0.45374 0.0
C200 C 0.57206 0.07433 0.45451 0.0
C201 C 0.54043 0.06821 0.46996 0.0
C202 C 0.5785 0.08212 0.48451 0.0
C203 C 0.64566 0.10072 0.48405 0.0
C204 C 0.67623 0.116 0.50138 0.0
C205 C 0.7011 0.06756 0.50628 0.0
C206 C 0.73307 0.18959 0.50266 0.0
C207 C 0.61586 0.10353 0.51167 0.0
C208 C 0.56006 0.08439 0.50172 0.0
C209 C 0.49956 0.07413 0.50833 0.0
C210 C 0.49579 0.08288 0.52558 0.0
C211 C 0.55239 0.10226 0.53601 0.0
C212 C 0.61296 0.11228 0.52889 0.0
H213 H 0.35264 0.53025 0.19307 0.0
H214 H 0.18922 0.3447 0.17311 0.0
H215 H 0.24 0.37625 0.14498 0.0
H216 H 0.36383 0.63321 0.15941 0.0
H217 H 0.45409 0.68478 0.16002 0.0
H218 H 0.40835 0.64431 0.17878 0.0
H219 H 0.48152 0.5893 0.18249 0.0
H220 H 0.52656 0.62716 0.1634 0.0
H221 H 0.48455 0.53736 0.16612 0.0
H222 H 0.30451 0.43084 0.11877 0.0
H223 H 0.373 0.50811 0.09617 0.0
H224 H 0.49387 0.65855 0.13315 0.0
C225 C 0.32791 0.49584 0.18283 0.0
C226 C 0.26696 0.43495 0.18531 0.0
C227 C 0.23588 0.39167 0.17152 0.0
C228 C 0.26451 0.40898 0.15551 0.0
C229 C 0.32422 0.46969 0.15347 0.0
C230 C 0.35557 0.51249 0.16674 0.0
C231 C 0.41709 0.57663 0.16101 0.0
C232 C 0.41039 0.63835 0.16504 0.0
C233 C 0.48127 0.583 0.16871 0.0
C234 C 0.41413 0.56414 0.14236 0.0
C235 C 0.36092 0.50166 0.1383 0.0
C236 C 0.34632 0.4799 0.12179 0.0
C237 C 0.3855 0.52421 0.10904 0.0
C238 C 0.43833 0.5897 0.11287 0.0
C239 C 0.45382 0.60891 0.12979 0.0
H240 H 0.79675 0.47074 0.81157 0.0
H241 H 0.84249 0.65844 0.83522 0.0
H242 H 0.8785 0.62454 0.86074 0.0
H243 H 0.72474 0.36919 0.84648 0.0
H244 H 0.7575 0.31406 0.84235 0.0
H245 H 0.74381 0.35701 0.82535 0.0
H246 H 0.86776 0.40689 0.81635 0.0
H247 H 0.88317 0.3658 0.8336 0.0
H248 H 0.93385 0.45537 0.83102 0.0
H249 H 0.89674 0.56497 0.88467 0.0
H250 H 0.89362 0.48349 0.90528 0.0
H251 H 0.83727 0.33516 0.86595 0.0
C252 C 0.81537 0.50522 0.822 0.0
C253 C 0.81677 0.56724 0.82139 0.0
C254 C 0.84074 0.61056 0.83541 0.0
C255 C 0.86164 0.5919 0.84994 0.0
C256 C 0.85835 0.52982 0.85025 0.0
C257 C 0.83593 0.48717 0.83663 0.0
C258 C 0.83249 0.42119 0.8406 0.0
C259 C 0.76036 0.3619 0.83858 0.0
C260 C 0.88228 0.41175 0.82975 0.0
C261 C 0.85397 0.43237 0.85876 0.0
C262 C 0.8697 0.49574 0.86402 0.0
C263 C 0.88543 0.51554 0.88065 0.0
C264 C 0.88343 0.46883 0.89228 0.0
C265 C 0.86526 0.40288 0.88725 0.0
C266 C 0.8522 0.38537 0.87017 0.0
H267 H 0.63082 0.84082 0.50389 0.0
H268 H 0.54997 0.89057 0.54705 0.0
H269 H 0.48466 0.92186 0.52827 0.0
H270 H 0.63853 0.9721 0.47555 0.0
H271 H 0.61354 0.91777 0.45762 0.0
H272 H 0.66109 0.90792 0.4742 0.0
H273 H 0.5695 0.78336 0.47779 0.0
H274 H 0.52179 0.7919 0.46115 0.0
H275 H 0.48363 0.76204 0.48138 0.0
H276 H 0.41323 0.92738 0.50514 0.0
H277 H 0.35084 0.9195 0.47932 0.0
H278 H 0.48135 0.86938 0.45134 0.0
C279 C 0.60061 0.85973 0.50942 0.0
C280 C 0.59534 0.863 0.52695 0.0
C281 C 0.55471 0.88749 0.53366 0.0
C282 C 0.51742 0.90538 0.52308 0.0
C283 C 0.52163 0.89879 0.50586 0.0
C284 C 0.56301 0.8775 0.49907 0.0
C285 C 0.55528 0.87036 0.48027 0.0
C286 C 0.62102 0.91999 0.47138 0.0
C287 C 0.53109 0.79761 0.47484 0.0
C288 C 0.50149 0.88884 0.47758 0.0
C289 C 0.48275 0.90519 0.49247 0.0
C290 C 0.42893 0.91684 0.49333 0.0
C291 C 0.39357 0.91192 0.4786 0.0
C292 C 0.4116 0.8945 0.46325 0.0
C293 C 0.46707 0.88407 0.46278 0.0
H294 H 0.37907 0.06896 0.04336 0.0
H295 H 0.53927 0.20025 0.00951 0.0
H296 H 0.56989 0.11239 0.00577 0.0
H297 H 0.4672 0.00673 0.06407 0.0
H298 H 0.3976 0.92249 0.06656 0.0
H299 H 0.38231 0.99149 0.06471 0.0
H300 H 0.30327 0.9335 0.03951 0.0
H301 H 0.31811 0.86395 0.04132 0.0
H302 H 0.33377 0.90844 0.02175 0.0
H303 H 0.59054 0.01481 0.00808 0.0
H304 H 0.60032 0.91687 0.01676 0.0
H305 H 0.42587 0.85024 0.04885 0.0
C306 C 0.41948 0.07872 0.0348 0.0
C307 C 0.45648 0.14143 0.02666 0.0
C308 C 0.50967 0.15239 0.01576 0.0
C309 C 0.52737 0.10272 0.01351 0.0
C310 C 0.49058 0.04191 0.02197 0.0
C311 C 0.43738 0.02961 0.0323 0.0
C312 C 0.40952 0.96263 0.0411 0.0
C313 C 0.41451 0.97141 0.06024 0.0
C314 C 0.33686 0.91427 0.03559 0.0
C315 C 0.45693 0.94026 0.03462 0.0
C316 C 0.50279 0.98608 0.02341 0.0
C317 C 0.55429 0.97812 0.01667 0.0
C318 C 0.55947 0.92233 0.02168 0.0
C319 C 0.51383 0.87567 0.03347 0.0
C320 C 0.46126 0.88447 0.0397 0.0
H321 H 0.33049 0.45876 0.71853 0.0
H322 H 0.26579 0.38885 0.76921 0.0
H323 H 0.38344 0.45619 0.77894 0.0
H324 H 0.49404 0.46527 0.72068 0.0
H325 H 0.53496 0.54043 0.70811 0.0
H326 H 0.44708 0.48087 0.70502 0.0
H327 H 0.41833 0.57501 0.70978 0.0
H328 H 0.5059 0.6347 0.71283 0.0
H329 H 0.44568 0.62374 0.72873 0.0
H330 H 0.50805 0.53933 0.7833 0.0
H331 H 0.62505 0.63416 0.78209 0.0
H332 H 0.60634 0.64801 0.72847 0.0
C333 C 0.34115 0.45648 0.73163 0.0
C334 C 0.28888 0.41903 0.74315 0.0
C335 C 0.30482 0.41827 0.76022 0.0
C336 C 0.37165 0.45572 0.76582 0.0
C337 C 0.42191 0.4933 0.75415 0.0
C338 C 0.40724 0.49377 0.7374 0.0
C339 C 0.46893 0.54229 0.72755 0.0
C340 C 0.48733 0.50496 0.71457 0.0
C341 C 0.4591 0.59717 0.71925 0.0
C342 C 0.5204 0.57058 0.74143 0.0
C343 C 0.49288 0.54099 0.75666 0.0
C344 C 0.53035 0.56198 0.7714 0.0
C345 C 0.59705 0.61554 0.77058 0.0
C346 C 0.62517 0.64777 0.75515 0.0
C347 C 0.58646 0.62388 0.74042 0.0
H348 H 0.06673 0.63834 0.41368 0.0
H349 H 0.20939 0.66457 0.3747 0.0
H350 H 0.13276 0.54882 0.36495 0.0
H351 H 0.01862 0.47121 0.42386 0.0
H352 H 0.93174 0.44552 0.42764 0.0
H353 H -0.00416 0.53164 0.43077 0.0
H354 H 0.93455 0.57048 0.41031 0.0
H355 H 0.87004 0.48441 0.40716 0.0
H356 H 0.91497 0.53624 0.38947 0.0
H357 H 0.0418 0.42748 0.36037 0.0
H358 H 0.94451 0.31186 0.36131 0.0
H359 H 0.86345 0.36715 0.40347 0.0
C360 C 0.08175 0.62019 0.40297 0.0
C361 C 0.14411 0.66068 0.39494 0.0
C362 C 0.16183 0.6346 0.38104 0.0
C363 C 0.1186 0.56891 0.37541 0.0
C364 C 0.05786 0.5301 0.38377 0.0
C365 C 0.03942 0.55498 0.39722 0.0
C366 C 0.97262 0.50266 0.40444 0.0
C367 C 0.9802 0.48683 0.42276 0.0
C368 C 0.91994 0.52478 0.40273 0.0
C369 C 0.95667 0.44404 0.39312 0.0
C370 C 0.00609 0.46076 0.3812 0.0
C371 C 0.00262 0.41399 0.3696 0.0
C372 C 0.94722 0.34842 0.37024 0.0
C373 C 0.89627 0.33029 0.38246 0.0
C374 C 0.90134 0.37918 0.39394 0.0
H375 H 0.91955 0.51101 0.21991 0.0
H376 H 0.91705 0.59163 0.26877 0.0
H377 H 0.97901 0.53916 0.28051 0.0
H378 H 0.8873 0.35525 0.23368 0.0
H379 H 0.94098 0.34629 0.21875 0.0
H380 H 0.90485 0.39763 0.21375 0.0
H381 H 0.02375 0.49875 0.20801 0.0
H382 H 0.06035 0.44759 0.21305 0.0
H383 H 0.08744 0.52543 0.22396 0.0
H384 H 0.0281 0.46633 0.28762 0.0
H385 H 0.0621 0.38025 0.2894 0.0
H386 H 0.0332 0.34808 0.23593 0.0
C387 C 0.93328 0.51897 0.23301 0.0
C388 C 0.91351 0.55569 0.2434 0.0
C389 C 0.93178 0.564 0.26053 0.0
C390 C 0.96717 0.5345 0.26731 0.0
C391 C 0.98452 0.49739 0.25678 0.0
C392 C 0.96864 0.49 0.23996 0.0
C393 C 0.98838 0.44339 0.23161 0.0
C394 C 0.9267 0.38202 0.22401 0.0
C395 C 0.04325 0.48106 0.21837 0.0
C396 C 0.01572 0.42384 0.24647 0.0
C397 C 0.01378 0.45611 0.26085 0.0
C398 C 0.03123 0.44189 0.27639 0.0
C399 C 0.05031 0.39286 0.27729 0.0
C400 C 0.052 0.3588 0.26274 0.0
C401 C 0.03529 0.37529 0.24713 0.0
H402 H 0.63781 0.06951 0.95467 0.0
H403 H 0.60377 0.22676 0.97328 0.0
H404 H 0.48351 0.14405 0.97714 0.0
H405 H 0.49511 0.98578 0.93152 0.0
H406 H 0.47741 0.90184 0.9362 0.0
H407 H 0.56229 0.97074 0.93722 0.0
H408 H 0.57226 0.94091 0.96814 0.0
H409 H 0.48785 0.87053 0.96673 0.0
H410 H 0.50937 0.93168 0.98305 0.0
H411 H 0.36552 0.04947 0.97446 0.0
H412 H 0.25876 0.94749 0.9669 0.0
H413 H 0.36915 0.84868 0.95245 0.0
C414 C 0.60535 0.08597 0.96007 0.0
C415 C 0.63008 0.15439 0.96376 0.0
C416 C 0.58604 0.17443 0.97056 0.0
C417 C 0.5176 0.12783 0.97277 0.0
C418 C 0.49446 0.06092 0.96874 0.0
C419 C 0.53721 0.03967 0.96284 0.0
C420 C 0.49868 0.9659 0.95825 0.0
C421 C 0.50899 0.95552 0.9397 0.0
C422 C 0.51825 0.92485 0.96973 0.0
C423 C 0.42737 0.94995 0.96166 0.0
C424 C 0.42605 0.00533 0.96784 0.0
C425 C 0.36586 0.00519 0.9701 0.0
C426 C 0.30558 0.9473 0.96573 0.0
C427 C 0.30599 0.89015 0.95944 0.0
C428 C 0.36752 0.89109 0.95774 0.0
H429 H 0.564 0.5586 0.61517 0.0
H430 H 0.66946 0.57948 0.56851 0.0
H431 H 0.65402 0.46618 0.57249 0.0
H432 H 0.62883 0.46589 0.63779 0.0
H433 H 0.55044 0.41334 0.64845 0.0
H434 H 0.5728 0.49732 0.64228 0.0
H435 H 0.46091 0.45036 0.62593 0.0
H436 H 0.43835 0.36625 0.63197 0.0
H437 H 0.44071 0.38723 0.61015 0.0
H438 H 0.62426 0.34894 0.58125 0.0
H439 H 0.58326 0.23766 0.59425 0.0
H440 H 0.49475 0.29278 0.63468 0.0
C441 C 0.58457 0.53979 0.60586 0.0
C442 C 0.61815 0.57815 0.59154 0.0
C443 C 0.64368 0.55119 0.5796 0.0
C444 C 0.63517 0.48685 0.58175 0.0
C445 C 0.60105 0.45009 0.5959 0.0
C446 C 0.57636 0.47568 0.60778 0.0
C447 C 0.53992 0.42531 0.62163 0.0
C448 C 0.57512 0.45207 0.63853 0.0
C449 C 0.46557 0.40617 0.62246 0.0
C450 C 0.54748 0.36715 0.61562 0.0
C451 C 0.58302 0.38242 0.60078 0.0
C452 C 0.5959 0.33627 0.5928 0.0
C453 C 0.57155 0.27276 0.60015 0.0
C454 C 0.53426 0.25584 0.61523 0.0
C455 C 0.52285 0.30413 0.62309 0.0
H456 H 0.00236 0.33606 -0.00297 0.0
H457 H 0.03256 0.33225 0.94353 0.0
H458 H 0.13643 0.32864 0.94883 0.0
H459 H 0.17367 0.4406 0.00815 0.0
H460 H 0.16812 0.39627 0.02723 0.0
H461 H 0.09504 0.39658 0.01929 0.0
H462 H 0.0289 0.26649 0.01933 0.0
H463 H 0.10176 0.26576 0.02733 0.0
H464 H 0.06249 0.22156 0.00831 0.0
H465 H 0.24082 0.33319 0.95986 0.0
H466 H 0.33471 0.33771 0.97595 0.0
H467 H 0.23396 0.33263 0.02228 0.0
C468 C 0.0306 0.33404 0.98643 0.0
C469 C 0.00942 0.33459 0.96986 0.0
C470 C 0.04767 0.33167 0.95634 0.0
C471 C 0.10683 0.32975 0.95921 0.0
C472 C 0.12664 0.32992 0.97568 0.0
C473 C 0.08934 0.33121 0.98908 0.0
C474 C 0.12185 0.33104 0.00555 0.0
C475 C 0.1408 0.39493 0.01564 0.0
C476 C 0.07602 0.26742 0.01573 0.0
C477 C 0.18378 0.33049 -0.00068 0.0
C478 C 0.18572 0.33017 0.98205 0.0
C479 C 0.2395 0.33267 0.97339 0.0
C480 C 0.29267 0.33546 0.98263 0.0
C481 C 0.29137 0.33501 0.00034 0.0
C482 C 0.23591 0.33211 0.00875 0.0
H483 H 0.7409 0.90324 0.6464 0.0
H484 H 0.83021 0.98402 0.59792 0.0
H485 H 0.9259 0.08029 0.61183 0.0
H486 H 0.78368 0.05645 0.66581 0.0
H487 H 0.80198 0.03367 0.6859 0.0
H488 H 0.74275 0.96955 0.67213 0.0
H489 H 0.81176 0.90884 0.67358 0.0
H490 H 0.87192 0.97321 0.68721 0.0
H491 H 0.89955 0.95396 0.66799 0.0
H492 H 0.00701 0.17234 0.63102 0.0
H493 H 0.06911 0.25078 0.65404 0.0
H494 H 0.92914 0.10684 0.68991 0.0
C495 C 0.78081 0.94089 0.6387 0.0
C496 C 0.77803 0.93624 0.62107 0.0
C497 C 0.83138 0.98647 0.61145 0.0
C498 C 0.88593 0.04132 0.61924 0.0
C499 C 0.88677 0.0447 0.63664 0.0
C500 C 0.8359 0.99548 0.64626 0.0
C501 C 0.84812 0.0115 0.66472 0.0
C502 C 0.79073 0.01821 0.67259 0.0
C503 C 0.85841 0.95871 0.67392 0.0
C504 C 0.91276 0.07839 0.66398 0.0
C505 C 0.93445 0.09663 0.64769 0.0
C506 C 0.99103 0.15814 0.64384 0.0
C507 C 0.0259 0.20237 0.65699 0.0
C508 C 0.00431 0.18464 0.67377 0.0
C509 C 0.94756 0.12137 0.67725 0.0
H510 H 0.74441 0.91649 0.3421 0.0
H511 H 0.76163 0.08011 0.31144 0.0
H512 H 0.77449 0.02551 0.28624 0.0
H513 H 0.86162 0.88553 0.31934 0.0
H514 H 0.81199 0.79558 0.32149 0.0
H515 H 0.80732 0.84902 0.33721 0.0
H516 H 0.67823 0.79019 0.3333 0.0
H517 H 0.68246 0.73646 0.31761 0.0
H518 H 0.64427 0.7863 0.31274 0.0
H519 H 0.78872 0.95461 0.26453 0.0
H520 H 0.79179 0.86687 0.2474 0.0
H521 H 0.7565 0.74537 0.29191 0.0
C522 C 0.75126 0.94093 0.33008 0.0
C523 C 0.75255 0.00272 0.32869 0.0
C524 C 0.76048 0.03272 0.31275 0.0
C525 C 0.76811 0.00225 0.29839 0.0
C526 C 0.76664 0.94131 0.30018 0.0
C527 C 0.75751 0.91049 0.31558 0.0
C528 C 0.75438 0.84344 0.31395 0.0
C529 C 0.81229 0.84343 0.32357 0.0
C530 C 0.68575 0.78569 0.31974 0.0
C531 C 0.76327 0.84142 0.29523 0.0
C532 C 0.77128 0.89882 0.28755 0.0
C533 C 0.78203 0.90923 0.27038 0.0
C534 C 0.78392 0.85928 0.26077 0.0
C535 C 0.77393 0.79927 0.26833 0.0
C536 C 0.76363 0.79049 0.28578 0.0
H537 H 0.79205 0.77904 0.01267 0.0
H538 H 0.65346 0.57081 0.02521 0.0
H539 H 0.72599 0.53694 0.01023 0.0
H540 H 0.82781 0.74523 0.97072 0.0
H541 H 0.91439 0.81149 0.97135 0.0
H542 H 0.85197 0.81879 0.98329 0.0
H543 H 0.92154 0.83693 0.01026 0.0
H544 H 0.98396 0.82932 -0.00158 0.0
H545 H 0.94441 0.77545 0.01621 0.0
H546 H 0.81868 0.52752 -0.0045 0.0
H547 H 0.91661 0.54155 0.9792 0.0
H548 H 0.98813 0.75448 0.97424 0.0
C549 C 0.777 0.72632 0.01223 0.0
C550 C 0.71758 0.67749 0.02017 0.0
C551 C 0.69885 0.6089 0.01916 0.0
C552 C 0.73983 0.58929 0.01075 0.0
C553 C 0.79853 0.63882 0.00316 0.0
C554 C 0.81637 0.70578 0.00355 0.0
C555 C 0.88061 0.74888 0.9939 0.0
C556 C 0.8679 0.78309 0.97892 0.0
C557 C 0.93588 0.80068 0.00539 0.0
C558 C 0.89675 0.69591 0.98821 0.0
C559 C 0.84935 0.63283 0.99385 0.0
C560 C 0.85559 0.57654 0.99083 0.0
C561 C 0.91139 0.58496 0.98165 0.0
C562 C 0.95927 0.6489 0.97537 0.0
C563 C 0.95164 0.70486 0.9787 0.0
H564 H 0.27821 0.01189 0.69375 0.0
H565 H 0.20905 0.96061 0.6425 0.0
H566 H 0.09198 0.91603 0.65198 0.0
H567 H 0.13884 0.86591 0.71294 0.0
H568 H 0.1364 0.91163 0.73095 0.0
H569 H 0.21461 0.93866 0.72014 0.0
H570 H 0.2292 0.05698 0.71604 0.0
H571 H 0.15118 0.03037 0.72687 0.0
H572 H 0.16327 0.06504 0.70608 0.0
H573 H 0.98281 0.88095 0.66696 0.0
H574 H 0.8896 0.85586 0.68648 0.0
H575 H 0.03015 0.92768 0.72789 0.0
C576 C 0.23848 0.99114 0.68451 0.0
C577 C 0.25279 0.98981 0.66737 0.0
C578 C 0.19929 0.96206 0.6557 0.0
C579 C 0.13263 0.93662 0.66096 0.0
C580 C 0.12032 0.93883 0.67794 0.0
C581 C 0.17171 0.9651 0.68955 0.0
C582 C 0.1451 0.96199 0.70704 0.0
C583 C 0.1596 0.91685 0.71844 0.0
C584 C 0.1739 0.0328 0.71444 0.0
C585 C 0.07074 0.9304 0.70345 0.0
C586 C 0.05744 0.91753 0.68659 0.0
C587 C 0.9926 0.89049 0.6802 0.0
C588 C 0.94009 0.87672 0.69135 0.0
C589 C 0.95279 0.88995 0.70864 0.0
C590 C 0.01887 0.91636 0.71475 0.0
H591 H 0.20386 0.98355 0.37881 0.0
H592 H 0.39879 0.04369 0.35697 0.0
H593 H 0.3782 0.10718 0.3351 0.0
H594 H 0.11786 0.95344 0.341 0.0
H595 H 0.06312 0.98381 0.34772 0.0
H596 H 0.09652 0.95022 0.36281 0.0
H597 H 0.14643 0.06076 0.37976 0.0
H598 H 0.113 0.09472 0.36472 0.0
H599 H 0.20145 0.13953 0.36954 0.0
H600 H 0.33278 0.15652 0.3144 0.0
H601 H 0.26468 0.18507 0.29593 0.0
H602 H 0.09849 0.09074 0.33103 0.0
C603 C 0.24284 0.01124 0.36964 0.0
C604 C 0.30317 0.00913 0.36966 0.0
C605 C 0.35231 0.04484 0.35723 0.0
C606 C 0.34116 0.08122 0.34479 0.0
C607 C 0.28063 0.08133 0.34496 0.0
C608 C 0.23228 0.04729 0.35707 0.0
C609 C 0.16941 0.05095 0.3537 0.0
C610 C 0.10814 0.98042 0.35115 0.0
C611 C 0.15686 0.08876 0.36777 0.0
C612 C 0.18934 0.09105 0.33759 0.0
C613 C 0.254 0.10887 0.33288 0.0
C614 C 0.28234 0.14346 0.31804 0.0
C615 C 0.24323 0.15941 0.30763 0.0
C616 C 0.1763 0.14031 0.31204 0.0
C617 C 0.14964 0.10657 0.32736 0.0
loop_
_geom_bond_atom_site_label_1
_geom_bond_atom_site_label_2
_geom_bond_distance
_geom_bond_site_symmetry_2
_ccdc_geom_bond_type
O0 Cd1 2.300 . S
O0 C7 1.275 . S
Cd1 O0 2.300 . S
Cd1 O9 2.381 . S
Cd1 O10 2.378 . S
O2 Cd3 2.385 . S
O2 C7 1.255 . S
Cd3 O2 2.385 . S
Cd3 O4 2.317 . S
O4 Cd3 2.317 . S
O4 C5 1.232 . S
C5 O4 1.232 . S
C5 O6 1.218 . S
O6 C5 1.218 . S
C7 O0 1.275 . S
C7 O2 1.255 . S
C8 O9 1.258 . S
C8 O10 1.256 . S
O9 Cd1 2.381 . S
O9 C8 1.258 . S
O10 Cd1 2.378 . S
O10 C8 1.256 . S
O11 Cd12 2.300 . S
O11 C18 1.275 . S
Cd12 O11 2.300 . S
Cd12 O20 2.381 . S
Cd12 O21 2.378 . S
O13 Cd14 2.385 . S
O13 C18 1.255 . S
Cd14 O13 2.385 . S
Cd14 O15 2.317 . S
O15 Cd14 2.317 . S
O15 C16 1.232 . S
C16 O15 1.232 . S
C16 O17 1.218 . S
O17 C16 1.218 . S
C18 O11 1.275 . S
C18 O13 1.255 . S
C19 O20 1.258 . S
C19 O21 1.256 . S
O20 Cd12 2.381 . S
O20 C19 1.258 . S
O21 Cd12 2.378 . S
O21 C19 1.256 . S
O22 Cd23 2.300 . S
O22 C29 1.275 . S
Cd23 O22 2.300 . S
Cd23 O31 2.381 . S
Cd23 O32 2.378 . S
O24 Cd25 2.385 . S
O24 C29 1.255 . S
Cd25 O24 2.385 . S
Cd25 O26 2.317 . S
O26 Cd25 2.317 . S
O26 C27 1.232 . S
C27 O26 1.232 . S
C27 O28 1.218 . S
O28 C27 1.218 . S
C29 O22 1.275 . S
C29 O24 1.255 . S
C30 O31 1.258 . S
C30 O32 1.256 . S
O31 Cd23 2.381 . S
O31 C30 1.258 . S
O32 Cd23 2.378 . S
O32 C30 1.256 . S
O33 Cd34 2.300 . S
O33 C40 1.275 . S
Cd34 O33 2.300 . S
Cd34 O42 2.381 . S
Cd34 O43 2.378 . S
O35 Cd36 2.385 . S
O35 C40 1.255 . S
Cd36 O35 2.385 . S
Cd36 O37 2.317 . S
O37 Cd36 2.317 . S
O37 C38 1.232 . S
C38 O37 1.232 . S
C38 O39 1.218 . S
O39 C38 1.218 . S
C40 O33 1.275 . S
C40 O35 1.255 . S
C41 O42 1.258 . S
C41 O43 1.256 . S
O42 Cd34 2.381 . S
O42 C41 1.258 . S
O43 Cd34 2.378 . S
O43 C41 1.256 . S
O44 Cd45 2.300 . S
O44 C51 1.275 . S
Cd45 O44 2.300 . S
Cd45 O53 2.381 . S
Cd45 O54 2.378 . S
O46 Cd47 2.385 . S
O46 C51 1.255 . S
Cd47 O46 2.385 . S
Cd47 O48 2.317 . S
O48 Cd47 2.317 . S
O48 C49 1.232 . S
C49 O48 1.232 . S
C49 O50 1.218 . S
O50 C49 1.218 . S
C51 O44 1.275 . S
C51 O46 1.255 . S
C52 O53 1.258 . S
C52 O54 1.256 . S
O53 Cd45 2.381 . S
O53 C52 1.258 . S
O54 Cd45 2.378 . S
O54 C52 1.256 . S
O55 Cd56 2.300 . S
O55 C62 1.275 . S
Cd56 O55 2.300 . S
Cd56 O64 2.381 . S
Cd56 O65 2.378 . S
O57 Cd58 2.385 . S
O57 C62 1.255 . S
Cd58 O57 2.385 . S
Cd58 O59 2.317 . S
O59 Cd58 2.317 . S
O59 C60 1.232 . S
C60 O59 1.232 . S
C60 O61 1.218 . S
O61 C60 1.218 . S
C62 O55 1.275 . S
C62 O57 1.255 . S
C63 O64 1.258 . S
C63 O65 1.256 . S
O64 Cd56 2.381 . S
O64 C63 1.258 . S
O65 Cd56 2.378 . S
O65 C63 1.256 . S
O66 Cd67 2.300 . S
O66 C73 1.275 . S
Cd67 O66 2.300 . S
Cd67 O75 2.381 . S
Cd67 O76 2.378 . S
O68 Cd69 2.385 . S
O68 C73 1.255 . S
Cd69 O68 2.385 . S
Cd69 O70 2.317 . S
O70 Cd69 2.317 . S
O70 C71 1.232 . S
C71 O70 1.232 . S
C71 O72 1.218 . S
O72 C71 1.218 . S
C73 O66 1.275 . S
C73 O68 1.255 . S
C74 O75 1.258 . S
C74 O76 1.256 . S
O75 Cd67 2.381 . S
O75 C74 1.258 . S
O76 Cd67 2.378 . S
O76 C74 1.256 . S
O77 Cd78 2.300 . S
O77 C84 1.275 . S
Cd78 O77 2.300 . S
Cd78 O86 2.381 . S
Cd78 O87 2.378 . S
O79 Cd80 2.385 . S
O79 C84 1.255 . S
Cd80 O79 2.385 . S
Cd80 O81 2.317 . S
O81 Cd80 2.317 . S
O81 C82 1.232 . S
C82 O81 1.232 . S
C82 O83 1.218 . S
O83 C82 1.218 . S
C84 O77 1.275 . S
C84 O79 1.255 . S
C85 O86 1.258 . S
C85 O87 1.256 . S
O86 Cd78 2.381 . S
O86 C85 1.258 . S
O87 Cd78 2.378 . S
O87 C85 1.256 . S
O88 Cd89 2.300 . S
O88 C95 1.275 . S
Cd89 O88 2.300 . S
Cd89 O97 2.381 . S
Cd89 O98 2.378 . S
O90 Cd91 2.385 . S
O90 C95 1.255 . S
Cd91 O90 2.385 . S
Cd91 O92 2.317 . S
O92 Cd91 2.317 . S
O92 C93 1.232 . S
C93 O92 1.232 . S
C93 O94 1.218 . S
O94 C93 1.218 . S
C95 O88 1.275 . S
C95 O90 1.255 . S
C96 O97 1.258 . S
C96 O98 1.256 . S
O97 Cd89 2.381 . S
O97 C96 1.258 . S
O98 Cd89 2.378 . S
O98 C96 1.256 . S
O99 Cd100 2.300 . S
O99 C106 1.275 . S
Cd100 O99 2.300 . S
Cd100 O108 2.381 . S
Cd100 O109 2.378 . S
O101 Cd102 2.385 . S
O101 C106 1.255 . S
Cd102 O101 2.385 . S
Cd102 O103 2.317 . S
O103 Cd102 2.317 . S
O103 C104 1.232 . S
C104 O103 1.232 . S
C104 O105 1.218 . S
O105 C104 1.218 . S
C106 O99 1.275 . S
C106 O101 1.255 . S
C107 O108 1.258 . S
C107 O109 1.256 . S
O108 Cd100 2.381 . S
O108 C107 1.258 . S
O109 Cd100 2.378 . S
O109 C107 1.256 . S
O110 Cd111 2.300 . S
O110 C117 1.275 . S
Cd111 O110 2.300 . S
Cd111 O119 2.381 . S
Cd111 O120 2.378 . S
O112 Cd113 2.385 . S
O112 C117 1.255 . S
Cd113 O112 2.385 . S
Cd113 O114 2.317 . S
O114 Cd113 2.317 . S
O114 C115 1.232 . S
C115 O114 1.232 . S
C115 O116 1.218 . S
O116 C115 1.218 . S
C117 O110 1.275 . S
C117 O112 1.255 . S
C118 O119 1.258 . S
C118 O120 1.256 . S
O119 Cd111 2.381 . S
O119 C118 1.258 . S
O120 Cd111 2.378 . S
O120 C118 1.256 . S
O121 Cd122 2.300 . S
O121 C128 1.275 . S
Cd122 O121 2.300 . S
Cd122 O130 2.381 . S
Cd122 O131 2.378 . S
O123 Cd124 2.385 . S
O123 C128 1.255 . S
Cd124 O123 2.385 . S
Cd124 O125 2.317 . S
O125 Cd124 2.317 . S
O125 C126 1.232 . S
C126 O125 1.232 . S
C126 O127 1.218 . S
O127 C126 1.218 . S
C128 O121 1.275 . S
C128 O123 1.255 . S
C129 O130 1.258 . S
C129 O131 1.256 . S
O130 Cd122 2.381 . S
O130 C129 1.258 . S
O131 Cd122 2.378 . S
O131 C129 1.256 . S
H132 C144 0.930 . S
H133 C146 0.930 . S
H134 C147 0.930 . S
H135 C151 0.959 . S
H136 C151 0.959 . S
H137 C151 0.961 . S
H138 C152 0.960 . S
H139 C152 0.961 . S
H140 C152 0.959 . S
H141 C155 0.929 . S
H142 C156 0.931 . S
H143 C158 0.930 . S
C144 H132 0.930 . S
C144 C145 1.399 . S
C144 C149 1.399 . S
C145 C144 1.399 . S
C145 C146 1.376 . S
C146 H133 0.930 . S
C146 C145 1.376 . S
C146 C147 1.388 . S
C147 H134 0.930 . S
C147 C146 1.388 . S
C147 C148 1.390 . S
C148 C147 1.390 . S
C148 C149 1.394 . S
C148 C154 1.465 . S
C149 C144 1.399 . S
C149 C148 1.394 . S
C149 C150 1.516 . S
C150 C149 1.516 . S
C150 C151 1.502 . S
C150 C152 1.561 . S
C150 C153 1.526 . S
C151 H135 0.959 . S
C151 H136 0.959 . S
C151 H137 0.961 . S
C151 C150 1.502 . S
C152 H138 0.960 . S
C152 H139 0.961 . S
C152 H140 0.959 . S
C152 C150 1.561 . S
C153 C150 1.526 . S
C153 C154 1.396 . S
C153 C158 1.390 . S
C154 C148 1.465 . S
C154 C153 1.396 . S
C154 C155 1.399 . S
C155 H141 0.929 . S
C155 C154 1.399 . S
C155 C156 1.385 . S
C156 H142 0.931 . S
C156 C155 1.385 . S
C156 C157 1.389 . S
C157 C156 1.389 . S
C157 C158 1.387 . S
C158 H143 0.930 . S
C158 C153 1.390 . S
C158 C157 1.387 . S
H159 C171 0.930 . S
H160 C173 0.930 . S
H161 C174 0.930 . S
H162 C178 0.959 . S
H163 C178 0.959 . S
H164 C178 0.961 . S
H165 C179 0.960 . S
H166 C179 0.961 . S
H167 C179 0.959 . S
H168 C182 0.929 . S
H169 C183 0.931 . S
H170 C185 0.930 . S
C171 H159 0.930 . S
C171 C172 1.399 . S
C171 C176 1.399 . S
C172 C171 1.399 . S
C172 C173 1.376 . S
C173 H160 0.930 . S
C173 C172 1.376 . S
C173 C174 1.388 . S
C174 H161 0.930 . S
C174 C173 1.388 . S
C174 C175 1.390 . S
C175 C174 1.390 . S
C175 C176 1.394 . S
C175 C181 1.465 . S
C176 C171 1.399 . S
C176 C175 1.394 . S
C176 C177 1.516 . S
C177 C176 1.516 . S
C177 C178 1.502 . S
C177 C179 1.561 . S
C177 C180 1.526 . S
C178 H162 0.959 . S
C178 H163 0.959 . S
C178 H164 0.961 . S
C178 C177 1.502 . S
C179 H165 0.960 . S
C179 H166 0.961 . S
C179 H167 0.959 . S
C179 C177 1.561 . S
C180 C177 1.526 . S
C180 C181 1.396 . S
C180 C185 1.390 . S
C181 C175 1.465 . S
C181 C180 1.396 . S
C181 C182 1.399 . S
C182 H168 0.929 . S
C182 C181 1.399 . S
C182 C183 1.385 . S
C183 H169 0.931 . S
C183 C182 1.385 . S
C183 C184 1.389 . S
C184 C183 1.389 . S
C184 C185 1.387 . S
C185 H170 0.930 . S
C185 C180 1.390 . S
C185 C184 1.387 . S
H186 C198 0.930 . S
H187 C200 0.930 . S
H188 C201 0.930 . S
H189 C205 0.959 . S
H190 C205 0.959 . S
H191 C205 0.961 . S
H192 C206 0.960 . S
H193 C206 0.961 . S
H194 C206 0.959 . S
H195 C209 0.929 . S
H196 C210 0.931 . S
H197 C212 0.930 . S
C198 H186 0.930 . S
C198 C199 1.399 . S
C198 C203 1.399 . S
C199 C198 1.399 . S
C199 C200 1.376 . S
C200 H187 0.930 . S
C200 C199 1.376 . S
C200 C201 1.388 . S
C201 H188 0.930 . S
C201 C200 1.388 . S
C201 C202 1.390 . S
C202 C201 1.390 . S
C202 C203 1.394 . S
C202 C208 1.465 . S
C203 C198 1.399 . S
C203 C202 1.394 . S
C203 C204 1.516 . S
C204 C203 1.516 . S
C204 C205 1.502 . S
C204 C206 1.561 . S
C204 C207 1.526 . S
C205 H189 0.959 . S
C205 H190 0.959 . S
C205 H191 0.961 . S
C205 C204 1.502 . S
C206 H192 0.960 . S
C206 H193 0.961 . S
C206 H194 0.959 . S
C206 C204 1.561 . S
C207 C204 1.526 . S
C207 C208 1.396 . S
C207 C212 1.390 . S
C208 C202 1.465 . S
C208 C207 1.396 . S
C208 C209 1.399 . S
C209 H195 0.929 . S
C209 C208 1.399 . S
C209 C210 1.385 . S
C210 H196 0.931 . S
C210 C209 1.385 . S
C210 C211 1.389 . S
C211 C210 1.389 . S
C211 C212 1.387 . S
C212 H197 0.930 . S
C212 C207 1.390 . S
C212 C211 1.387 . S
H213 C225 0.930 . S
H214 C227 0.930 . S
H215 C228 0.930 . S
H216 C232 0.959 . S
H217 C232 0.959 . S
H218 C232 0.961 . S
H219 C233 0.960 . S
H220 C233 0.961 . S
H221 C233 0.959 . S
H222 C236 0.929 . S
H223 C237 0.931 . S
H224 C239 0.930 . S
C225 H213 0.930 . S
C225 C226 1.399 . S
C225 C230 1.399 . S
C226 C225 1.399 . S
C226 C227 1.376 . S
C227 H214 0.930 . S
C227 C226 1.376 . S
C227 C228 1.388 . S
C228 H215 0.930 . S
C228 C227 1.388 . S
C228 C229 1.390 . S
C229 C228 1.390 . S
C229 C230 1.394 . S
C229 C235 1.465 . S
C230 C225 1.399 . S
C230 C229 1.394 . S
C230 C231 1.516 . S
C231 C230 1.516 . S
C231 C232 1.502 . S
C231 C233 1.561 . S
C231 C234 1.526 . S
C232 H216 0.959 . S
C232 H217 0.959 . S
C232 H218 0.961 . S
C232 C231 1.502 . S
C233 H219 0.960 . S
C233 H220 0.961 . S
C233 H221 0.959 . S
C233 C231 1.561 . S
C234 C231 1.526 . S
C234 C235 1.396 . S
C234 C239 1.390 . S
C235 C229 1.465 . S
C235 C234 1.396 . S
C235 C236 1.399 . S
C236 H222 0.929 . S
C236 C235 1.399 . S
C236 C237 1.385 . S
C237 H223 0.931 . S
C237 C236 1.385 . S
C237 C238 1.389 . S
C238 C237 1.389 . S
C238 C239 1.387 . S
C239 H224 0.930 . S
C239 C234 1.390 . S
C239 C238 1.387 . S
H240 C252 0.930 . S
H241 C254 0.930 . S
H242 C255 0.930 . S
H243 C259 0.959 . S
H244 C259 0.959 . S
H245 C259 0.961 . S
H246 C260 0.960 . S
H247 C260 0.961 . S
H248 C260 0.959 . S
H249 C263 0.929 . S
H250 C264 0.931 . S
H251 C266 0.930 . S
C252 H240 0.930 . S
C252 C253 1.399 . S
C252 C257 1.399 . S
C253 C252 1.399 . S
C253 C254 1.376 . S
C254 H241 0.930 . S
C254 C253 1.376 . S
C254 C255 1.388 . S
C255 H242 0.930 . S
C255 C254 1.388 . S
C255 C256 1.390 . S
C256 C255 1.390 . S
C256 C257 1.394 . S
C256 C262 1.465 . S
C257 C252 1.399 . S
C257 C256 1.394 . S
C257 C258 1.516 . S
C258 C257 1.516 . S
C258 C259 1.502 . S
C258 C260 1.561 . S
C258 C261 1.526 . S
C259 H243 0.959 . S
C259 H244 0.959 . S
C259 H245 0.961 . S
C259 C258 1.502 . S
C260 H246 0.960 . S
C260 H247 0.961 . S
C260 H248 0.959 . S
C260 C258 1.561 . S
C261 C258 1.526 . S
C261 C262 1.396 . S
C261 C266 1.390 . S
C262 C256 1.465 . S
C262 C261 1.396 . S
C262 C263 1.399 . S
C263 H249 0.929 . S
C263 C262 1.399 . S
C263 C264 1.385 . S
C264 H250 0.931 . S
C264 C263 1.385 . S
C264 C265 1.389 . S
C265 C264 1.389 . S
C265 C266 1.387 . S
C266 H251 0.930 . S
C266 C261 1.390 . S
C266 C265 1.387 . S
H267 C279 0.930 . S
H268 C281 0.930 . S
H269 C282 0.930 . S
H270 C286 0.959 . S
H271 C286 0.959 . S
H272 C286 0.961 . S
H273 C287 0.960 . S
H274 C287 0.961 . S
H275 C287 0.959 . S
H276 C290 0.929 . S
H277 C291 0.931 . S
H278 C293 0.930 . S
C279 H267 0.930 . S
C279 C280 1.399 . S
C279 C284 1.399 . S
C280 C279 1.399 . S
C280 C281 1.376 . S
C281 H268 0.930 . S
C281 C280 1.376 . S
C281 C282 1.388 . S
C282 H269 0.930 . S
C282 C281 1.388 . S
C282 C283 1.390 . S
C283 C282 1.390 . S
C283 C284 1.394 . S
C283 C289 1.465 . S
C284 C279 1.399 . S
C284 C283 1.394 . S
C284 C285 1.516 . S
C285 C284 1.516 . S
C285 C286 1.502 . S
C285 C287 1.561 . S
C285 C288 1.526 . S
C286 H270 0.959 . S
C286 H271 0.959 . S
C286 H272 0.961 . S
C286 C285 1.502 . S
C287 H273 0.960 . S
C287 H274 0.961 . S
C287 H275 0.959 . S
C287 C285 1.561 . S
C288 C285 1.526 . S
C288 C289 1.396 . S
C288 C293 1.390 . S
C289 C283 1.465 . S
C289 C288 1.396 . S
C289 C290 1.399 . S
C290 H276 0.929 . S
C290 C289 1.399 . S
C290 C291 1.385 . S
C291 H277 0.931 . S
C291 C290 1.385 . S
C291 C292 1.389 . S
C292 C291 1.389 . S
C292 C293 1.387 . S
C293 H278 0.930 . S
C293 C288 1.390 . S
C293 C292 1.387 . S
H294 C306 0.930 . S
H295 C308 0.930 . S
H296 C309 0.930 . S
H297 C313 0.959 . S
H298 C313 0.959 . S
H299 C313 0.961 . S
H300 C314 0.960 1_545 S
H301 C314 0.961 . S
H302 C314 0.959 . S
H303 C317 0.929 . S
H304 C318 0.931 . S
H305 C320 0.930 . S
C306 H294 0.930 . S
C306 C307 1.399 . S
C306 C311 1.399 . S
C307 C306 1.399 . S
C307 C308 1.376 . S
C308 H295 0.930 . S
C308 C307 1.376 . S
C308 C309 1.388 . S
C309 H296 0.930 . S
C309 C308 1.388 . S
C309 C310 1.390 . S
C310 C309 1.390 . S
C310 C311 1.394 . S
C310 C316 1.465 1_545 S
C311 C306 1.399 . S
C311 C310 1.394 . S
C311 C312 1.516 . S
C312 C311 1.516 . S
C312 C313 1.502 . S
C312 C314 1.561 1_545 S
C312 C315 1.526 1_545 S
C313 H297 0.959 . S
C313 H298 0.959 . S
C313 H299 0.961 . S
C313 C312 1.502 . S
C314 H300 0.960 1_565 S
C314 H301 0.961 . S
C314 H302 0.959 . S
C314 C312 1.561 1_565 S
C315 C312 1.526 1_565 S
C315 C316 1.396 . S
C315 C320 1.390 . S
C316 C310 1.465 1_565 S
C316 C315 1.396 . S
C316 C317 1.399 . S
C317 H303 0.929 . S
C317 C316 1.399 . S
C317 C318 1.385 . S
C318 H304 0.931 . S
C318 C317 1.385 . S
C318 C319 1.389 . S
C319 C318 1.389 . S
C319 C320 1.387 . S
C320 H305 0.930 . S
C320 C315 1.390 . S
C320 C319 1.387 . S
H321 C333 0.930 . S
H322 C335 0.930 . S
H323 C336 0.930 . S
H324 C340 0.959 . S
H325 C340 0.959 . S
H326 C340 0.961 . S
H327 C341 0.960 . S
H328 C341 0.961 . S
H329 C341 0.959 . S
H330 C344 0.929 . S
H331 C345 0.931 . S
H332 C347 0.930 . S
C333 H321 0.930 . S
C333 C334 1.399 . S
C333 C338 1.399 . S
C334 C333 1.399 . S
C334 C335 1.376 . S
C335 H322 0.930 . S
C335 C334 1.376 . S
C335 C336 1.388 . S
C336 H323 0.930 . S
C336 C335 1.388 . S
C336 C337 1.390 . S
C337 C336 1.390 . S
C337 C338 1.394 . S
C337 C343 1.465 . S
C338 C333 1.399 . S
C338 C337 1.394 . S
C338 C339 1.516 . S
C339 C338 1.516 . S
C339 C340 1.502 . S
C339 C341 1.561 . S
C339 C342 1.526 . S
C340 H324 0.959 . S
C340 H325 0.959 . S
C340 H326 0.961 . S
C340 C339 1.502 . S
C341 H327 0.960 . S
C341 H328 0.961 . S
C341 H329 0.959 . S
C341 C339 1.561 . S
C342 C339 1.526 . S
C342 C343 1.396 . S
C342 C347 1.390 . S
C343 C337 1.465 . S
C343 C342 1.396 . S
C343 C344 1.399 . S
C344 H330 0.929 . S
C344 C343 1.399 . S
C344 C345 1.385 . S
C345 H331 0.931 . S
C345 C344 1.385 . S
C345 C346 1.389 . S
C346 C345 1.389 . S
C346 C347 1.387 . S
C347 H332 0.930 . S
C347 C342 1.390 . S
C347 C346 1.387 . S
H348 C360 0.930 . S
H349 C362 0.930 . S
H350 C363 0.930 . S
H351 C367 0.959 . S
H352 C367 0.959 1_655 S
H353 C367 0.961 . S
H354 C368 0.960 . S
H355 C368 0.961 . S
H356 C368 0.959 . S
H357 C371 0.929 . S
H358 C372 0.931 . S
H359 C374 0.930 . S
C360 H348 0.930 . S
C360 C361 1.399 . S
C360 C365 1.399 . S
C361 C360 1.399 . S
C361 C362 1.376 . S
C362 H349 0.930 . S
C362 C361 1.376 . S
C362 C363 1.388 . S
C363 H350 0.930 . S
C363 C362 1.388 . S
C363 C364 1.390 . S
C364 C363 1.390 . S
C364 C365 1.394 . S
C364 C370 1.465 1_455 S
C365 C360 1.399 . S
C365 C364 1.394 . S
C365 C366 1.516 1_455 S
C366 C365 1.516 1_655 S
C366 C367 1.502 1_655 S
C366 C368 1.561 . S
C366 C369 1.526 . S
C367 H351 0.959 . S
C367 H352 0.959 1_455 S
C367 H353 0.961 . S
C367 C366 1.502 1_455 S
C368 H354 0.960 . S
C368 H355 0.961 . S
C368 H356 0.959 . S
C368 C366 1.561 . S
C369 C366 1.526 . S
C369 C370 1.396 . S
C369 C374 1.390 . S
C370 C364 1.465 1_655 S
C370 C369 1.396 . S
C370 C371 1.399 . S
C371 H357 0.929 . S
C371 C370 1.399 . S
C371 C372 1.385 . S
C372 H358 0.931 . S
C372 C371 1.385 . S
C372 C373 1.389 . S
C373 C372 1.389 . S
C373 C374 1.387 . S
C374 H359 0.930 . S
C374 C369 1.390 . S
C374 C373 1.387 . S
H375 C387 0.930 . S
H376 C389 0.930 . S
H377 C390 0.930 1_455 S
H378 C394 0.959 . S
H379 C394 0.959 . S
H380 C394 0.961 . S
H381 C395 0.960 . S
H382 C395 0.961 1_455 S
H383 C395 0.959 1_455 S
H384 C398 0.929 . S
H385 C399 0.931 . S
H386 C401 0.930 . S
C387 H375 0.930 . S
C387 C388 1.399 . S
C387 C392 1.399 . S
C388 C387 1.399 . S
C388 C389 1.376 . S
C389 H376 0.930 . S
C389 C388 1.376 . S
C389 C390 1.388 . S
C390 H377 0.930 1_655 S
C390 C389 1.388 . S
C390 C391 1.390 . S
C391 C390 1.390 . S
C391 C392 1.394 . S
C391 C397 1.465 1_655 S
C392 C387 1.399 . S
C392 C391 1.394 . S
C392 C393 1.516 . S
C393 C392 1.516 . S
C393 C394 1.502 . S
C393 C395 1.561 . S
C393 C396 1.526 1_655 S
C394 H378 0.959 . S
C394 H379 0.959 . S
C394 H380 0.961 . S
C394 C393 1.502 . S
C395 H381 0.960 . S
C395 H382 0.961 1_655 S
C395 H383 0.959 1_655 S
C395 C393 1.561 . S
C396 C393 1.526 1_455 S
C396 C397 1.396 . S
C396 C401 1.390 . S
C397 C391 1.465 1_455 S
C397 C396 1.396 . S
C397 C398 1.399 . S
C398 H384 0.929 . S
C398 C397 1.399 . S
C398 C399 1.385 . S
C399 H385 0.931 . S
C399 C398 1.385 . S
C399 C400 1.389 . S
C400 C399 1.389 . S
C400 C401 1.387 . S
C401 H386 0.930 . S
C401 C396 1.390 . S
C401 C400 1.387 . S
H402 C414 0.930 . S
H403 C416 0.930 . S
H404 C417 0.930 . S
H405 C421 0.959 . S
H406 C421 0.959 . S
H407 C421 0.961 . S
H408 C422 0.960 . S
H409 C422 0.961 . S
H410 C422 0.959 . S
H411 C425 0.929 1_545 S
H412 C426 0.931 . S
H413 C428 0.930 . S
C414 H402 0.930 . S
C414 C415 1.399 . S
C414 C419 1.399 . S
C415 C414 1.399 . S
C415 C416 1.376 . S
C416 H403 0.930 . S
C416 C415 1.376 . S
C416 C417 1.388 . S
C417 H404 0.930 . S
C417 C416 1.388 . S
C417 C418 1.390 . S
C418 C417 1.390 . S
C418 C419 1.394 . S
C418 C424 1.465 1_545 S
C419 C414 1.399 . S
C419 C418 1.394 . S
C419 C420 1.516 1_545 S
C420 C419 1.516 1_565 S
C420 C421 1.502 . S
C420 C422 1.561 . S
C420 C423 1.526 . S
C421 H405 0.959 . S
C421 H406 0.959 . S
C421 H407 0.961 . S
C421 C420 1.502 . S
C422 H408 0.960 . S
C422 H409 0.961 . S
C422 H410 0.959 . S
C422 C420 1.561 . S
C423 C420 1.526 . S
C423 C424 1.396 . S
C423 C428 1.390 . S
C424 C418 1.465 1_565 S
C424 C423 1.396 . S
C424 C425 1.399 . S
C425 H411 0.929 1_565 S
C425 C424 1.399 . S
C425 C426 1.385 . S
C426 H412 0.931 . S
C426 C425 1.385 . S
C426 C427 1.389 . S
C427 C426 1.389 . S
C427 C428 1.387 . S
C428 H413 0.930 . S
C428 C423 1.390 . S
C428 C427 1.387 . S
H429 C441 0.930 . S
H430 C443 0.930 . S
H431 C444 0.930 . S
H432 C448 0.959 . S
H433 C448 0.959 . S
H434 C448 0.961 . S
H435 C449 0.960 . S
H436 C449 0.961 . S
H437 C449 0.959 . S
H438 C452 0.929 . S
H439 C453 0.931 . S
H440 C455 0.930 . S
C441 H429 0.930 . S
C441 C442 1.399 . S
C441 C446 1.399 . S
C442 C441 1.399 . S
C442 C443 1.376 . S
C443 H430 0.930 . S
C443 C442 1.376 . S
C443 C444 1.388 . S
C444 H431 0.930 . S
C444 C443 1.388 . S
C444 C445 1.390 . S
C445 C444 1.390 . S
C445 C446 1.394 . S
C445 C451 1.465 . S
C446 C441 1.399 . S
C446 C445 1.394 . S
C446 C447 1.516 . S
C447 C446 1.516 . S
C447 C448 1.502 . S
C447 C449 1.561 . S
C447 C450 1.526 . S
C448 H432 0.959 . S
C448 H433 0.959 . S
C448 H434 0.961 . S
C448 C447 1.502 . S
C449 H435 0.960 . S
C449 H436 0.961 . S
C449 H437 0.959 . S
C449 C447 1.561 . S
C450 C447 1.526 . S
C450 C451 1.396 . S
C450 C455 1.390 . S
C451 C445 1.465 . S
C451 C450 1.396 . S
C451 C452 1.399 . S
C452 H438 0.929 . S
C452 C451 1.399 . S
C452 C453 1.385 . S
C453 H439 0.931 . S
C453 C452 1.385 . S
C453 C454 1.389 . S
C454 C453 1.389 . S
C454 C455 1.387 . S
C455 H440 0.930 . S
C455 C450 1.390 . S
C455 C454 1.387 . S
H456 C468 0.930 1_655 S
H457 C470 0.930 . S
H458 C471 0.930 . S
H459 C475 0.959 . S
H460 C475 0.959 . S
H461 C475 0.961 1_655 S
H462 C476 0.960 1_655 S
H463 C476 0.961 . S
H464 C476 0.959 1_556 S
H465 C479 0.882 1_556 S
H466 C480 0.931 . S
H467 C482 0.930 . S
C468 H456 0.930 1_455 S
C468 C469 1.399 . S
C468 C473 1.399 . S
C469 C468 1.399 . S
C469 C470 1.376 . S
C470 H457 0.930 . S
C470 C469 1.376 . S
C470 C471 1.388 . S
C471 H458 0.930 . S
C471 C470 1.388 . S
C471 C472 1.390 . S
C472 C471 1.390 . S
C472 C473 1.394 . S
C472 C478 1.443 1_556 S
C473 C468 1.399 . S
C473 C472 1.394 . S
C473 C474 1.516 1_556 S
C474 C473 1.516 1_554 S
C474 C475 1.502 . S
C474 C476 1.561 . S
C474 C477 1.526 . S
C475 H459 0.959 . S
C475 H460 0.959 . S
C475 H461 0.961 1_455 S
C475 C474 1.502 . S
C476 H462 0.960 1_455 S
C476 H463 0.961 . S
C476 H464 0.959 1_554 S
C476 C474 1.561 . S
C477 C474 1.526 . S
C477 C478 1.421 . S
C477 C482 1.390 . S
C478 C472 1.443 1_554 S
C478 C477 1.421 . S
C478 C479 1.398 . S
C479 H465 0.882 1_554 S
C479 C478 1.398 . S
C479 C480 1.437 . S
C480 H466 0.931 . S
C480 C479 1.437 . S
C480 C481 1.389 . S
C481 C480 1.389 . S
C481 C482 1.387 . S
C482 H467 0.930 . S
C482 C477 1.390 . S
C482 C481 1.387 . S
H483 C495 0.930 1_565 S
H484 C497 0.930 . S
H485 C498 0.930 . S
H486 C502 0.959 . S
H487 C502 0.959 . S
H488 C502 0.961 . S
H489 C503 0.960 1_565 S
H490 C503 0.961 . S
H491 C503 0.959 . S
H492 C506 0.929 . S
H493 C507 0.931 . S
H494 C509 0.930 . S
C495 H483 0.930 1_545 S
C495 C496 1.399 . S
C495 C500 1.399 . S
C496 C495 1.399 . S
C496 C497 1.376 . S
C497 H484 0.930 . S
C497 C496 1.376 . S
C497 C498 1.388 . S
C498 H485 0.930 . S
C498 C497 1.388 . S
C498 C499 1.390 . S
C499 C498 1.390 . S
C499 C500 1.394 . S
C499 C505 1.465 . S
C500 C495 1.399 . S
C500 C499 1.394 . S
C500 C501 1.516 . S
C501 C500 1.516 . S
C501 C502 1.502 . S
C501 C503 1.561 . S
C501 C504 1.526 . S
C502 H486 0.959 . S
C502 H487 0.959 . S
C502 H488 0.961 . S
C502 C501 1.502 . S
C503 H489 0.960 1_545 S
C503 H490 0.961 . S
C503 H491 0.959 . S
C503 C501 1.561 . S
C504 C501 1.526 . S
C504 C505 1.396 . S
C504 C509 1.390 . S
C505 C499 1.465 . S
C505 C504 1.396 . S
C505 C506 1.399 . S
C506 H492 0.929 . S
C506 C505 1.399 . S
C506 C507 1.385 1_655 S
C507 H493 0.931 . S
C507 C506 1.385 1_455 S
C507 C508 1.389 1_455 S
C508 C507 1.389 1_655 S
C508 C509 1.387 . S
C509 H494 0.930 . S
C509 C504 1.390 . S
C509 C508 1.387 . S
H510 C522 0.930 . S
H511 C524 0.930 1_545 S
H512 C525 0.930 . S
H513 C529 0.959 . S
H514 C529 0.959 . S
H515 C529 0.961 . S
H516 C530 0.960 . S
H517 C530 0.961 . S
H518 C530 0.959 . S
H519 C533 0.929 . S
H520 C534 0.931 . S
H521 C536 0.930 . S
C522 H510 0.930 . S
C522 C523 1.399 . S
C522 C527 1.399 . S
C523 C522 1.399 . S
C523 C524 1.376 . S
C524 H511 0.930 1_565 S
C524 C523 1.376 . S
C524 C525 1.388 . S
C525 H512 0.930 . S
C525 C524 1.388 . S
C525 C526 1.390 . S
C526 C525 1.390 . S
C526 C527 1.394 . S
C526 C532 1.465 . S
C527 C522 1.399 . S
C527 C526 1.394 . S
C527 C528 1.516 . S
C528 C527 1.516 . S
C528 C529 1.502 . S
C528 C530 1.561 . S
C528 C531 1.526 . S
C529 H513 0.959 . S
C529 H514 0.959 . S
C529 H515 0.961 . S
C529 C528 1.502 . S
C530 H516 0.960 . S
C530 H517 0.961 . S
C530 H518 0.959 . S
C530 C528 1.561 . S
C531 C528 1.526 . S
C531 C532 1.396 . S
C531 C536 1.390 . S
C532 C526 1.465 . S
C532 C531 1.396 . S
C532 C533 1.399 . S
C533 H519 0.929 . S
C533 C532 1.399 . S
C533 C534 1.385 . S
C534 H520 0.931 . S
C534 C533 1.385 . S
C534 C535 1.389 . S
C535 C534 1.389 . S
C535 C536 1.387 . S
C536 H521 0.930 . S
C536 C531 1.390 . S
C536 C535 1.387 . S
H537 C549 0.930 . S
H538 C551 0.930 . S
H539 C552 0.930 . S
H540 C556 0.959 . S
H541 C556 0.959 . S
H542 C556 0.961 . S
H543 C557 0.960 . S
H544 C557 0.961 1_455 S
H545 C557 0.959 . S
H546 C560 0.929 . S
H547 C561 0.931 . S
H548 C563 0.930 . S
C549 H537 0.930 . S
C549 C550 1.399 . S
C549 C554 1.399 . S
C550 C549 1.399 . S
C550 C551 1.376 . S
C551 H538 0.930 . S
C551 C550 1.376 . S
C551 C552 1.388 . S
C552 H539 0.930 . S
C552 C551 1.388 . S
C552 C553 1.390 . S
C553 C552 1.390 . S
C553 C554 1.394 . S
C553 C559 1.465 1_554 S
C554 C549 1.399 . S
C554 C553 1.394 . S
C554 C555 1.516 1_554 S
C555 C554 1.516 1_556 S
C555 C556 1.502 . S
C555 C557 1.561 1_556 S
C555 C558 1.526 . S
C556 H540 0.959 . S
C556 H541 0.959 . S
C556 H542 0.961 . S
C556 C555 1.502 . S
C557 H543 0.960 . S
C557 H544 0.961 1_655 S
C557 H545 0.959 . S
C557 C555 1.561 1_554 S
C558 C555 1.526 . S
C558 C559 1.396 . S
C558 C563 1.390 . S
C559 C553 1.465 1_556 S
C559 C558 1.396 . S
C559 C560 1.399 . S
C560 H546 0.929 . S
C560 C559 1.399 . S
C560 C561 1.385 . S
C561 H547 0.931 . S
C561 C560 1.385 . S
C561 C562 1.389 . S
C562 C561 1.389 . S
C562 C563 1.387 . S
C563 H548 0.930 . S
C563 C558 1.390 . S
C563 C562 1.387 . S
H564 C576 0.930 . S
H565 C578 0.930 . S
H566 C579 0.930 . S
H567 C583 0.959 . S
H568 C583 0.959 . S
H569 C583 0.961 . S
H570 C584 0.960 . S
H571 C584 0.961 . S
H572 C584 0.959 . S
H573 C587 0.929 . S
H574 C588 0.931 . S
H575 C590 0.930 . S
C576 H564 0.930 . S
C576 C577 1.399 . S
C576 C581 1.399 . S
C577 C576 1.399 . S
C577 C578 1.376 1_565 S
C578 H565 0.930 . S
C578 C577 1.376 1_545 S
C578 C579 1.388 1_545 S
C579 H566 0.930 . S
C579 C578 1.388 1_565 S
C579 C580 1.390 . S
C580 C579 1.390 . S
C580 C581 1.394 . S
C580 C586 1.465 . S
C581 C576 1.399 . S
C581 C580 1.394 . S
C581 C582 1.516 . S
C582 C581 1.516 . S
C582 C583 1.502 . S
C582 C584 1.561 . S
C582 C585 1.526 . S
C583 H567 0.959 . S
C583 H568 0.959 . S
C583 H569 0.961 . S
C583 C582 1.502 . S
C584 H570 0.960 . S
C584 H571 0.961 . S
C584 H572 0.959 . S
C584 C582 1.561 . S
C585 C582 1.526 . S
C585 C586 1.396 . S
C585 C590 1.390 . S
C586 C580 1.465 . S
C586 C585 1.396 . S
C586 C587 1.399 . S
C587 H573 0.929 . S
C587 C586 1.399 . S
C587 C588 1.385 1_455 S
C588 H574 0.931 . S
C588 C587 1.385 1_655 S
C588 C589 1.389 1_655 S
C589 C588 1.389 1_455 S
C589 C590 1.387 . S
C590 H575 0.930 . S
C590 C585 1.390 . S
C590 C589 1.387 . S
H591 C603 0.930 . S
H592 C605 0.930 . S
H593 C606 0.930 . S
H594 C610 0.959 . S
H595 C610 0.959 . S
H596 C610 0.961 . S
H597 C611 0.960 . S
H598 C611 0.961 . S
H599 C611 0.959 . S
H600 C614 0.929 . S
H601 C615 0.931 . S
H602 C617 0.930 . S
C603 H591 0.930 . S
C603 C604 1.399 . S
C603 C608 1.399 . S
C604 C603 1.399 . S
C604 C605 1.376 . S
C605 H592 0.930 . S
C605 C604 1.376 . S
C605 C606 1.388 . S
C606 H593 0.930 . S
C606 C605 1.388 . S
C606 C607 1.390 . S
C607 C606 1.390 . S
C607 C608 1.394 . S
C607 C613 1.465 . S
C608 C603 1.399 . S
C608 C607 1.394 . S
C608 C609 1.516 . S
C609 C608 1.516 . S
C609 C610 1.502 . S
C609 C611 1.561 . S
C609 C612 1.526 . S
C610 H594 0.959 . S
C610 H595 0.959 . S
C610 H596 0.961 . S
C610 C609 1.502 . S
C611 H597 0.960 . S
C611 H598 0.961 . S
C611 H599 0.959 . S
C611 C609 1.561 . S
C612 C609 1.526 . S
C612 C613 1.396 . S
C612 C617 1.390 . S
C613 C607 1.465 . S
C613 C612 1.396 . S
C613 C614 1.399 . S
C614 H600 0.929 . S
C614 C613 1.399 . S
C614 C615 1.385 . S
C615 H601 0.931 . S
C615 C614 1.385 . S
C615 C616 1.389 . S
C616 C615 1.389 . S
C616 C617 1.387 . S
C617 H602 0.930 . S
C617 C612 1.390 . S
C617 C616 1.387 . S
C145 C5 1.324 . S
C157 C71 1.190 . S
C172 C16 1.240 . S
C184 C82 1.335 . S
C199 C27 1.330 . S
C211 C93 1.251 . S
C226 C104 1.236 . S
C238 C38 1.337 . S
C253 C49 1.267 . S
C265 C115 1.319 . S
C280 C126 1.336 . S
C292 C60 1.241 . S
C307 C7 1.418 . S
C319 C40 1.464 . S
C334 C18 1.461 . S
C346 C51 1.462 . S
C361 C62 1.432 . S
C373 C29 1.447 . S
C388 C73 1.413 . S
C400 C106 1.472 . S
C415 C117 1.479 . S
C427 C84 1.412 . S
C442 C128 1.479 . S
C454 C95 1.442 . S
C469 C118 1.484 1_455 S
C481 C8 1.512 . S
C496 C129 1.471 1_545 S
C508 C19 1.502 1_655 S
C523 C30 1.512 1_565 S
C535 C74 1.489 . S
C550 C41 1.496 . S
C562 C85 1.511 1_655 S
C577 C96 1.478 1_565 S
C589 C52 1.475 1_455 S
C604 C63 1.508 1_545 S
C616 C107 1.504 . S
