# Generated by pormake.
# Topology dia, (4)-cn, num edge types: 1
# Building blocks:
#     Node 0, Type 0, BuildingBlock: GALJAG_clean_sbu_0, # of connection points: 4
#     Node 1, Type 0, BuildingBlock: GALJAG_clean_sbu_0, # of connection points: 4
#     Node 2, Type 0, BuildingBlock: GALJAG_clean_sbu_0, # of connection points: 4
#     Node 3, Type 0, BuildingBlock: GALJAG_clean_sbu_0, # of connection points: 4
#     Node 4, Type 0, BuildingBlock: GALJAG_clean_sbu_0, # of connection points: 4
#     Node 5, Type 0, BuildingBlock: GALJAG_clean_sbu_0, # of connection points: 4
#     Node 6, Type 0, BuildingBlock: GALJAG_clean_sbu_0, # of connection points: 4
#     Node 7, Type 0, BuildingBlock: GALJAG_clean_sbu_0, # of connection points: 4
#     Edge 8, Type (0, 0), BuildingBlock: XUDNAN_clean_linker_2, # of connection points: 2
#     Edge 9, Type (0, 0), BuildingBlock: XUDNAN_clean_linker_2, # of connection points: 2
#     Edge 10, Type (0, 0), BuildingBlock: XUDNAN_clean_linker_2, # of connection points: 2
#     Edge 11, Type (0, 0), BuildingBlock: XUDNAN_clean_linker_2, # of connection points: 2
#     Edge 12, Type (0, 0), BuildingBlock: XUDNAN_clean_linker_2, # of connection points: 2
#     Edge 13, Type (0, 0), BuildingBlock: XUDNAN_clean_linker_2, # of connection points: 2
#     Edge 14, Type (0, 0), BuildingBlock: XUDNAN_clean_linker_2, # of connection points: 2
#     Edge 15, Type (0, 0), BuildingBlock: XUDNAN_clean_linker_2, # of connection points: 2
#     Edge 16, Type (0, 0), BuildingBlock: XUDNAN_clean_linker_2, # of connection points: 2
#     Edge 17, Type (0, 0), BuildingBlock: XUDNAN_clean_linker_2, # of connection points: 2
#     Edge 18, Type (0, 0), BuildingBlock: XUDNAN_clean_linker_2, # of connection points: 2
#     Edge 19, Type (0, 0), BuildingBlock: XUDNAN_clean_linker_2, # of connection points: 2
#     Edge 20, Type (0, 0), BuildingBlock: XUDNAN_clean_linker_2, # of connection points: 2
#     Edge 21, Type (0, 0), BuildingBlock: XUDNAN_clean_linker_2, # of connection points: 2
#     Edge 22, Type (0, 0), BuildingBlock: XUDNAN_clean_linker_2, # of connection points: 2
#     Edge 23, Type (0, 0), BuildingBlock: XUDNAN_clean_linker_2, # of connection points: 2
# Relax obj value: 0.058
# Max RMSD: 0.096
# Mean RMSD: 0.096
data_MOF--net-dia--node1-GALJAG_clean_sbu_0--edge1-XUDNAN_clean_linker_2
_symmetry_space_group_name_H-M    P1
_symmetry_Int_Tables_number       1
_symmetry_cell_setting            triclinic
loop_
_symmetry_equiv_pos_as_xyz
'x, y, z'
_cell_length_a     22.77246
_cell_length_b     39.524548
_cell_length_c     39.521502
_cell_angle_alpha  90.111758
_cell_angle_beta   90.245698
_cell_angle_gamma 90.243756
loop_
_atom_site_label
_atom_site_type_symbol
_atom_site_fract_x
_atom_site_fract_y
_atom_site_fract_z
_atom_type_partial_charge
In0 In 0.10538 0.12941 0.61314 0.0
O1 O 0.19604 0.14233 0.5917 0.0
O2 O 0.12169 0.16669 0.57033 0.0
C3 C 0.1321 0.08802 0.66528 0.0
C4 C 0.05875 0.18179 0.64771 0.0
C5 C 0.04572 0.086 0.57243 0.0
O6 O 0.08051 0.09691 0.658 0.0
O7 O 0.17122 0.09977 0.64591 0.0
O8 O 0.02125 0.10882 0.58961 0.0
O9 O 0.10085 0.08505 0.57548 0.0
C10 C 0.17663 0.16307 0.57013 0.0
O11 O 0.03123 0.16601 0.62476 0.0
O12 O 0.11038 0.17149 0.65299 0.0
In13 In 0.89518 0.3862 0.86952 0.0
O14 O 0.96127 0.35487 0.83853 0.0
O15 O 0.87341 0.35897 0.82071 0.0
C16 C 0.96418 0.42102 0.91328 0.0
C17 C 0.84105 0.43963 0.84089 0.0
C18 C 0.83856 0.33952 0.90729 0.0
O19 O 0.985 0.40662 0.88739 0.0
O20 O 0.90965 0.41734 0.91696 0.0
O21 O 0.81244 0.36083 0.889 0.0
O22 O 0.89387 0.34145 0.90653 0.0
C23 C 0.92393 0.34704 0.81601 0.0
O24 O 0.81856 0.42235 0.86435 0.0
O25 O 0.89139 0.43008 0.83172 0.0
In26 In 0.65031 0.13147 0.11856 0.0
O27 O 0.58496 0.1635 0.148 0.0
O28 O 0.67728 0.17027 0.15719 0.0
C29 C 0.61037 0.0865 0.07359 0.0
C30 C 0.68333 0.17517 0.07098 0.0
C31 C 0.67408 0.08402 0.1644 0.0
O32 O 0.57544 0.10502 0.09044 0.0
O33 O 0.6645 0.09102 0.07971 0.0
O34 O 0.71539 0.09846 0.14816 0.0
O35 O 0.62276 0.09402 0.15731 0.0
C36 C 0.62527 0.17895 0.16429 0.0
O37 O 0.72144 0.15839 0.08756 0.0
O38 O 0.63038 0.16968 0.07896 0.0
In39 In 0.84109 0.86717 0.37368 0.0
O40 O 0.7638 0.89095 0.34676 0.0
O41 O 0.84906 0.90656 0.3313 0.0
C42 C 0.78313 0.8267 0.417 0.0
C43 C 0.88501 0.81849 0.33314 0.0
C44 C 0.87933 0.91385 0.41859 0.0
O45 O 0.75777 0.8443 0.39472 0.0
O46 O 0.83848 0.82947 0.41764 0.0
O47 O 0.91548 0.89572 0.40236 0.0
O48 O 0.82613 0.90796 0.41196 0.0
C49 C 0.79416 0.90953 0.32763 0.0
O50 O 0.91882 0.838 0.3498 0.0
O51 O 0.8311 0.82416 0.33698 0.0
In52 In 0.14144 0.62444 0.13355 0.0
O53 O 0.20353 0.66251 0.10784 0.0
O54 O 0.1117 0.66537 0.09776 0.0
C55 C 0.20716 0.58744 0.17642 0.0
C56 C 0.07394 0.65696 0.1789 0.0
C57 C 0.11874 0.57749 0.08554 0.0
O58 O 0.22821 0.61223 0.16016 0.0
O59 O 0.15341 0.58164 0.17102 0.0
O60 O 0.07923 0.58846 0.10508 0.0
O61 O 0.16904 0.59012 0.09044 0.0
C62 C 0.16221 0.67735 0.09235 0.0
O63 O 0.05366 0.63427 0.15937 0.0
O64 O 0.12822 0.66275 0.17579 0.0
In65 In 0.40968 0.37346 0.37809 0.0
O66 O 0.49705 0.35519 0.3571 0.0
O67 O 0.41772 0.3383 0.33322 0.0
C68 C 0.42876 0.41299 0.43228 0.0
C69 C 0.37514 0.42228 0.33519 0.0
C70 C 0.36848 0.32051 0.41331 0.0
O71 O 0.47087 0.40141 0.41491 0.0
O72 O 0.3781 0.40465 0.42204 0.0
O73 O 0.33418 0.33927 0.39631 0.0
O74 O 0.42214 0.32852 0.41188 0.0
C75 C 0.47321 0.33752 0.33398 0.0
O76 O 0.33941 0.3998 0.34543 0.0
O77 O 0.42673 0.41967 0.34665 0.0
In78 In 0.33607 0.88994 0.88144 0.0
O79 O 0.40198 0.86016 0.84951 0.0
O80 O 0.31112 0.84931 0.84325 0.0
C81 C 0.40983 0.92902 0.91847 0.0
C82 C 0.2808 0.93589 0.84215 0.0
C83 C 0.28594 0.85065 0.92934 0.0
O84 O 0.42785 0.90696 0.89788 0.0
O85 O 0.35475 0.9314 0.92027 0.0
O86 O 0.25757 0.87205 0.91226 0.0
O87 O 0.33992 0.84916 0.92248 0.0
C88 C 0.36304 0.84287 0.83447 0.0
O89 O 0.25569 0.92047 0.86602 0.0
O90 O 0.33418 0.92849 0.8383 0.0
In91 In 0.58831 0.63188 0.63987 0.0
O92 O 0.50225 0.65321 0.65892 0.0
O93 O 0.58113 0.67854 0.67368 0.0
C94 C 0.54377 0.57865 0.60529 0.0
C95 C 0.6223 0.6735 0.58956 0.0
C96 C 0.6452 0.60011 0.69064 0.0
O97 O 0.51309 0.59712 0.62428 0.0
O98 O 0.59742 0.58666 0.60409 0.0
O99 O 0.67228 0.61015 0.66461 0.0
O100 O 0.59098 0.6061 0.69056 0.0
C101 C 0.52573 0.67719 0.67536 0.0
O102 O 0.65874 0.66275 0.61127 0.0
O103 O 0.57045 0.66311 0.59352 0.0
H104 H 0.25533 0.30386 0.43222 0.0
H105 H 0.43726 0.27331 0.44344 0.0
H106 H 0.40743 0.22836 0.48288 0.0
H107 H 0.21624 0.2924 0.51806 0.0
H108 H 0.14355 0.27626 0.50941 0.0
H109 H 0.17816 0.30463 0.47994 0.0
H110 H 0.1637 0.26072 0.43182 0.0
H111 H 0.12872 0.23226 0.46114 0.0
H112 H 0.19135 0.21838 0.43717 0.0
H113 H 0.35952 0.189 0.52365 0.0
H114 H 0.29533 0.15675 0.56232 0.0
H115 H 0.14432 0.21226 0.52503 0.0
C116 C 0.28865 0.28734 0.44258 0.0
C117 C 0.34858 0.29203 0.43468 0.0
C118 C 0.39106 0.2702 0.44911 0.0
C119 C 0.3746 0.24453 0.47153 0.0
C120 C 0.31541 0.2409 0.4793 0.0
C121 C 0.27296 0.26153 0.4652 0.0
C122 C 0.21268 0.25295 0.47897 0.0
C123 C 0.18612 0.28337 0.49771 0.0
C124 C 0.1717 0.24032 0.45058 0.0
C125 C 0.22816 0.22466 0.50326 0.0
C126 C 0.28764 0.21805 0.50295 0.0
C127 C 0.31275 0.19372 0.52395 0.0
C128 C 0.27602 0.17559 0.54587 0.0
C129 C 0.21493 0.18192 0.5466 0.0
C130 C 0.19085 0.20672 0.52489 0.0
H131 H 0.75063 0.56572 0.69167 0.0
H132 H 0.60107 0.59288 0.75364 0.0
H133 H 0.64005 0.55848 0.80034 0.0
H134 H 0.75625 0.48083 0.71705 0.0
H135 H 0.83518 0.47758 0.71751 0.0
H136 H 0.79988 0.50756 0.68999 0.0
H137 H 0.86141 0.55617 0.7165 0.0
H138 H 0.89718 0.52627 0.74403 0.0
H139 H 0.8604 0.5625 0.76168 0.0
H140 H 0.68833 0.5174 0.838 0.0
H141 H 0.74533 0.47213 0.86541 0.0
H142 H 0.8651 0.47078 0.78027 0.0
C143 C 0.72698 0.56497 0.71537 0.0
C144 C 0.673 0.58206 0.71914 0.0
C145 C 0.64252 0.57998 0.75023 0.0
C146 C 0.66437 0.5606 0.77697 0.0
C147 C 0.71687 0.54342 0.7723 0.0
C148 C 0.7481 0.54544 0.74243 0.0
C149 C 0.80127 0.52242 0.74347 0.0
C150 C 0.79791 0.49551 0.71534 0.0
C151 C 0.85846 0.54308 0.7413 0.0
C152 C 0.79405 0.50669 0.77822 0.0
C153 C 0.74524 0.51942 0.79441 0.0
C154 C 0.72718 0.50753 0.82585 0.0
C155 C 0.75968 0.48174 0.84115 0.0
C156 C 0.80974 0.46816 0.82506 0.0
C157 C 0.82749 0.48109 0.79335 0.0
H158 H 0.4968 0.07004 0.05532 0.0
H159 H 0.67906 0.04564 0.03509 0.0
H160 H 0.64754 1.00304 0.99315 0.0
H161 H 0.44113 0.98483 0.0486 0.0
H162 H 0.37349 0.99704 0.02826 0.0
H163 H 0.4102 0.02597 0.05665 0.0
H164 H 0.41258 0.07144 0.00952 0.0
H165 H 0.37589 0.04264 0.98098 0.0
H166 H 0.44515 0.06139 0.96925 0.0
H167 H 0.59694 0.96302 0.95359 0.0
H168 H 0.52977 0.9279 0.91889 0.0
H169 H 0.38031 0.97792 0.96455 0.0
C170 C 0.53001 0.05574 0.04202 0.0
C171 C 0.59038 0.06117 0.04846 0.0
C172 C 0.63254 0.04193 0.03058 0.0
C173 C 0.61511 0.01766 0.00669 0.0
C174 C 0.55535 0.01288 1.00092 0.0
C175 C 0.51336 0.03132 0.01803 0.0
C176 C 0.45199 0.02102 0.00705 0.0
C177 C 0.41717 0.00634 0.03692 0.0
C178 C 0.41951 0.0509 0.99072 0.0
C179 C 0.46618 0.99395 0.98117 0.0
C180 C 0.52606 0.98968 0.97803 0.0
C181 C 0.54992 0.96611 0.95578 0.0
C182 C 0.51146 0.9463 0.93619 0.0
C183 C 0.44993 0.95021 0.93903 0.0
C184 C 0.42717 0.97439 0.96183 0.0
H185 H 0.99797 0.80392 0.3116 0.0
H186 H 0.81661 0.77018 0.30417 0.0
H187 H 0.84602 0.72424 0.26597 0.0
H188 H 0.03387 0.78846 0.2248 0.0
H189 H 0.10732 0.77388 0.23338 0.0
H190 H 0.07297 0.80351 0.26166 0.0
H191 H 0.09083 0.76274 0.31189 0.0
H192 H 0.12524 0.73297 0.28373 0.0
H193 H 0.064 0.71983 0.30936 0.0
H194 H 0.89318 0.68294 0.22743 0.0
H195 H 0.95635 0.64907 0.18984 0.0
H196 H 0.1075 0.7089 0.22112 0.0
C197 C 0.96468 0.78667 0.30211 0.0
C198 C 0.90502 0.79065 0.31094 0.0
C199 C 0.8626 0.76773 0.29777 0.0
C200 C 0.87881 0.74143 0.27607 0.0
C201 C 0.93771 0.73827 0.26764 0.0
C202 C 0.98012 0.76018 0.28013 0.0
C203 C 0.04006 0.75152 0.26599 0.0
C204 C 0.06501 0.7811 0.24522 0.0
C205 C 0.08253 0.74114 0.29445 0.0
C206 C 0.02437 0.72159 0.24352 0.0
C207 C 0.96511 0.71432 0.24503 0.0
C208 C 0.93977 0.68824 0.2261 0.0
C209 C 0.97597 0.66914 0.20483 0.0
C210 C 0.03677 0.67626 0.20261 0.0
C211 C 0.06119 0.70274 0.22242 0.0
H212 H 0.32448 0.97058 0.78748 0.0
H213 H 0.16605 0.95482 0.84621 0.0
H214 H 0.11188 0.99281 0.80781 0.0
H215 H 0.29933 0.05943 0.76864 0.0
H216 H 0.32829 0.05647 0.72636 0.0
H217 H 0.35528 0.02878 0.75902 0.0
H218 H 0.32897 0.97672 0.72194 0.0
H219 H 0.30173 0.00422 0.68922 0.0
H220 H 0.25493 0.97165 0.70635 0.0
H221 H 0.074 0.03047 0.76236 0.0
H222 H 0.05481 0.06702 0.71316 0.0
H223 H 0.23774 0.05935 0.68368 0.0
C224 C 0.2785 0.97534 0.79238 0.0
C225 C 0.24942 0.9598 0.81985 0.0
C226 C 0.18919 0.9665 0.82535 0.0
C227 C 0.15805 0.98802 0.80369 0.0
C228 C 0.18782 1.00271 0.77669 0.0
C229 C 0.2467 0.99683 0.77099 0.0
C230 C 0.26782 0.01547 0.73977 0.0
C231 C 0.3155 0.04159 0.74901 0.0
C232 C 0.28964 0.99052 0.71272 0.0
C233 C 0.21144 0.03256 0.72873 0.0
C234 C 0.16592 0.02478 0.75043 0.0
C235 C 0.10932 0.0369 0.74527 0.0
C236 C 0.09886 0.05758 0.71719 0.0
C237 C 0.14479 0.06607 0.69463 0.0
C238 C 0.20186 0.05341 0.70058 0.0
H239 H 0.9247 0.45646 0.96783 0.0
H240 H 0.08325 0.43254 0.91233 0.0
H241 H 0.14083 0.46886 0.95154 0.0
H242 H 0.95867 0.54299 0.98311 0.0
H243 H 0.92688 0.54367 0.02479 0.0
H244 H 0.89903 0.5147 0.99332 0.0
H245 H 0.91776 0.46439 0.03385 0.0
H246 H 0.94558 0.4932 0.0655 0.0
H247 H 0.99012 0.45834 0.05145 0.0
H248 H 0.18011 0.50916 0.996 0.0
H249 H 0.19849 0.55028 0.04199 0.0
H250 H 0.01355 0.54785 0.068 0.0
C251 C 0.97163 0.45862 0.96403 0.0
C252 C -0.00035 0.44161 0.9371 0.0
C253 C 0.06101 0.4453 0.93286 0.0
C254 C 0.09399 0.46584 0.95499 0.0
C255 C 0.06482 0.48245 0.98116 0.0
C256 C 0.00501 0.47901 0.98575 0.0
C257 C 0.98384 0.50017 0.01524 0.0
C258 C 0.93949 0.52697 1.00339 0.0
C259 C 0.9578 0.47767 0.04316 0.0
C260 C 0.04106 0.51629 0.02649 0.0
C261 C 0.08729 0.50567 0.00658 0.0
C262 C 0.14428 0.51753 0.01181 0.0
C263 C 0.15425 0.5409 0.03799 0.0
C264 C 0.10745 0.55222 0.0586 0.0
C265 C 0.05022 0.53958 0.05275 0.0
H266 H 0.43017 0.29465 0.28538 0.0
H267 H 0.59278 0.33349 0.32835 0.0
H268 H 0.6492 0.29794 0.28858 0.0
H269 H 0.4786 0.20959 0.27394 0.0
H270 H 0.43944 0.20342 0.23466 0.0
H271 H 0.41197 0.23269 0.26571 0.0
H272 H 0.41231 0.28054 0.22097 0.0
H273 H 0.43975 0.25141 0.18976 0.0
H274 H 0.47912 0.29012 0.19857 0.0
H275 H 0.68757 0.2576 0.24502 0.0
H276 H 0.70588 0.21483 0.20088 0.0
H277 H 0.51802 0.20188 0.18641 0.0
C278 C 0.47766 0.29582 0.28632 0.0
C279 C 0.50721 0.31687 0.30988 0.0
C280 C 0.56934 0.31756 0.31046 0.0
C281 C 0.6017 0.2975 0.28798 0.0
C282 C 0.57117 0.27693 0.26516 0.0
C283 C 0.51057 0.27593 0.26416 0.0
C284 C 0.48846 0.25115 0.23765 0.0
C285 C 0.45251 0.22252 0.25398 0.0
C286 C 0.45281 0.2694 0.2101 0.0
C287 C 0.54617 0.23823 0.22395 0.0
C288 C 0.5933 0.25352 0.24012 0.0
C289 C 0.65104 0.24552 0.23213 0.0
C290 C 0.66096 0.22117 0.20702 0.0
C291 C 0.61337 0.20504 0.19019 0.0
C292 C 0.55526 0.21383 0.19877 0.0
H293 H 0.82554 0.78878 0.47026 0.0
H294 H 0.6656 0.81469 0.41612 0.0
H295 H 0.60861 0.77808 0.45425 0.0
H296 H 0.78786 0.70122 0.48607 0.0
H297 H 0.8198 0.70056 0.52787 0.0
H298 H 0.84893 0.72866 0.4962 0.0
H299 H 0.83304 0.77972 0.53626 0.0
H300 H 0.80387 0.75179 0.56806 0.0
H301 H 0.7611 0.78722 0.55354 0.0
H302 H 0.56872 0.73931 0.4972 0.0
H303 H 0.54682 0.70043 0.54392 0.0
H304 H 0.73149 0.69908 0.57194 0.0
C305 C 0.77855 0.78666 0.46647 0.0
C306 C 0.74995 0.80455 0.44021 0.0
C307 C 0.68842 0.80125 0.43606 0.0
C308 C 0.65564 0.7805 0.45757 0.0
C309 C 0.68499 0.76325 0.48317 0.0
C310 C 0.74494 0.76606 0.48787 0.0
C311 C 0.76508 0.74484 0.51772 0.0
C312 C 0.80795 0.71718 0.50627 0.0
C313 C 0.79238 0.76723 0.54554 0.0
C314 C 0.70697 0.72976 0.52896 0.0
C315 C 0.66157 0.74076 0.5085 0.0
C316 C 0.60381 0.73049 0.51345 0.0
C317 C 0.59189 0.70836 0.54009 0.0
C318 C 0.63743 0.69672 0.56161 0.0
C319 C 0.69581 0.70759 0.55593 0.0
H320 H 0.17037 0.53235 0.2127 0.0
H321 H 0.32328 0.59511 0.19294 0.0
H322 H 0.38207 0.5597 0.23176 0.0
H323 H 0.1997 0.51823 0.30134 0.0
H324 H 0.17391 0.47506 0.30063 0.0
H325 H 0.14371 0.50544 0.27151 0.0
H326 H 0.17143 0.46672 0.22114 0.0
H327 H 0.20175 0.43622 0.25008 0.0
H328 H 0.2464 0.45306 0.21648 0.0
H329 H 0.42405 0.51764 0.27209 0.0
H330 H 0.44758 0.47151 0.31151 0.0
H331 H 0.26746 0.43542 0.30538 0.0
C332 C 0.21622 0.53869 0.21658 0.0
C333 C 0.24236 0.56651 0.19983 0.0
C334 C 0.30243 0.57394 0.20552 0.0
C335 C 0.33611 0.55399 0.22751 0.0
C336 C 0.309 0.52673 0.24357 0.0
C337 C 0.25046 0.51903 0.23842 0.0
C338 C 0.23219 0.48818 0.25868 0.0
C339 C 0.18456 0.49728 0.28458 0.0
C340 C 0.21175 0.45934 0.23518 0.0
C341 C 0.28974 0.47966 0.276 0.0
C342 C 0.33334 0.5023 0.2669 0.0
C343 C 0.3903 0.49978 0.27942 0.0
C344 C 0.40317 0.47343 0.30182 0.0
C345 C 0.35935 0.44982 0.31155 0.0
C346 C 0.30183 0.45306 0.29843 0.0
H347 H 0.88344 0.29454 0.95392 0.0
H348 H 0.72058 0.32914 0.90835 0.0
H349 H 0.66486 0.28971 0.94426 0.0
H350 H 0.84033 0.20594 0.96251 0.0
H351 H 0.87649 0.20076 1.00282 0.0
H352 H 0.90454 0.23086 0.97268 0.0
H353 H 0.89725 0.27845 0.01761 0.0
H354 H 0.86909 0.24853 0.04786 0.0
H355 H 0.82797 0.28616 0.03808 0.0
H356 H 0.62633 0.24869 0.98543 0.0
H357 H 0.60591 0.20738 0.03018 0.0
H358 H 0.79284 0.19809 0.0504 0.0
C359 C 0.83609 0.29357 0.95137 0.0
C360 C 0.80628 0.31485 0.92829 0.0
C361 C 0.74431 0.31308 0.92582 0.0
C362 C 0.71226 0.29074 0.94608 0.0
C363 C 0.74278 0.27032 0.9687 0.0
C364 C 0.80323 0.27138 0.97154 0.0
C365 C 0.82463 0.24709 0.99863 0.0
C366 C 0.86381 0.21952 0.98323 0.0
C367 C 0.85662 0.2662 0.02724 0.0
C368 C 0.76663 0.23247 0.01065 0.0
C369 C 0.72021 0.24629 0.99286 0.0
C370 C 0.66224 0.23755 0.99948 0.0
C371 C 0.65117 0.21406 0.02505 0.0
C372 C 0.69778 0.19946 0.04382 0.0
C373 C 0.75638 0.20872 0.03639 0.0
H374 H 0.84876 0.95393 0.28382 0.0
H375 H 0.67749 0.91937 0.31763 0.0
H376 H 0.62988 0.96006 0.27945 0.0
H377 H 0.81162 0.04202 0.27677 0.0
H378 H 0.85428 0.04918 0.23912 0.0
H379 H 0.87596 0.01689 0.26869 0.0
H380 H 0.87345 0.9722 0.22068 0.0
H381 H 0.8519 0.00438 0.19093 0.0
H382 H 0.80748 0.96686 0.19582 0.0
H383 H 0.60028 0.00429 0.2394 0.0
H384 H 0.58912 0.04976 0.19777 0.0
H385 H 0.7788 0.05687 0.18808 0.0
C386 C 0.80127 0.95488 0.28301 0.0
C387 C 0.76678 0.93346 0.30368 0.0
C388 C 0.70478 0.93548 0.30202 0.0
C389 C 0.67728 0.95853 0.28043 0.0
C390 C 0.71235 0.97938 0.26057 0.0
C391 C 0.7729 0.97783 0.26144 0.0
C392 C 0.79976 1.00344 0.23734 0.0
C393 C 0.83764 0.02942 0.25664 0.0
C394 C 0.83524 0.98565 0.20954 0.0
C395 C 0.74469 0.01962 0.22297 0.0
C396 C 0.69497 0.00522 0.2369 0.0
C397 C 0.6388 0.01575 0.2282 0.0
C398 C 0.63302 0.04168 0.20451 0.0
C399 C 0.68309 0.0569 0.1896 0.0
C400 C 0.73976 0.04569 0.199 0.0
H401 H 0.99077 0.93549 0.43854 0.0
H402 H 0.80459 0.95252 0.45475 0.0
H403 H 0.8278 0.99767 0.49532 0.0
H404 H 0.03579 0.95017 0.5258 0.0
H405 H 0.10293 0.97174 0.5148 0.0
H406 H 0.07256 0.94015 0.48675 0.0
H407 H 0.07187 0.98365 0.43782 0.0
H408 H 0.10213 0.01538 0.46574 0.0
H409 H 0.03448 0.02339 0.44337 0.0
H410 H 0.8688 0.04129 0.53303 0.0
H411 H 0.92699 0.08105 0.56767 0.0
H412 H 0.08776 0.03694 0.52902 0.0
C413 C 0.95507 0.9487 0.45075 0.0
C414 C 0.89585 0.94042 0.44338 0.0
C415 C 0.85031 0.95833 0.45986 0.0
C416 C 0.86295 0.98409 0.48301 0.0
C417 C 0.92144 0.99179 0.48962 0.0
C418 C 0.96694 0.97471 0.47419 0.0
C419 C 0.02588 0.9885 0.48616 0.0
C420 C 0.06138 0.961 0.50447 0.0
C421 C 0.06063 1.00363 0.4565 0.0
C422 C 0.00602 0.01587 0.51058 0.0
C423 C 0.94551 0.01724 0.512 0.0
C424 C 0.91627 0.04048 0.53228 0.0
C425 C 0.94973 0.063 0.55183 0.0
C426 C 0.01183 0.06209 0.55108 0.0
C427 C 0.04031 0.03816 0.53015 0.0
H428 H 0.02507 0.31114 0.80258 0.0
H429 H 0.85147 0.33353 0.76288 0.0
H430 H 0.86938 0.29587 0.71437 0.0
H431 H 0.09909 0.3057 0.72066 0.0
H432 H 0.14524 0.27101 0.73343 0.0
H433 H 0.12037 0.30119 0.76441 0.0
H434 H 0.07594 0.25247 0.79997 0.0
H435 H 0.10063 0.22218 0.76912 0.0
H436 H 0.02414 0.22371 0.78054 0.0
H437 H 0.90332 0.25424 0.67165 0.0
H438 H 0.95174 0.21055 0.63708 0.0
H439 H 0.10379 0.21452 0.70364 0.0
C440 C 0.99116 0.30834 0.78347 0.0
C441 C 0.93692 0.32533 0.78647 0.0
C442 C 0.89337 0.32079 0.76113 0.0
C443 C 0.90313 0.2995 0.73341 0.0
C444 C 0.95673 0.28289 0.73129 0.0
C445 C 0.00013 0.28701 0.75554 0.0
C446 C 0.05294 0.26515 0.74761 0.0
C447 C 0.10765 0.28708 0.74114 0.0
C448 C 0.06404 0.23935 0.776 0.0
C449 C 0.03199 0.24787 0.7154 0.0
C450 C 0.97647 0.25866 0.70642 0.0
C451 C 0.94698 0.24573 0.67825 0.0
C452 C 0.97482 0.2209 0.6588 0.0
C453 C 0.03156 0.20925 0.66759 0.0
C454 C 0.0606 0.22316 0.69614 0.0
H455 H 0.56646 0.72729 0.71768 0.0
H456 H 0.40642 0.68056 0.67957 0.0
H457 H 0.34767 0.71876 0.71531 0.0
H458 H 0.51838 0.73726 0.80286 0.0
H459 H 0.55423 0.77755 0.80916 0.0
H460 H 0.58391 0.74754 0.77953 0.0
H461 H 0.57906 0.79249 0.73197 0.0
H462 H 0.54952 0.82269 0.76148 0.0
H463 H 0.5103 0.81309 0.72291 0.0
H464 H 0.30641 0.76062 0.75604 0.0
H465 H 0.28494 0.80397 0.79917 0.0
H466 H 0.47159 0.82359 0.81132 0.0
C467 C 0.51905 0.7253 0.71667 0.0
C468 C 0.49092 0.70104 0.69581 0.0
C469 C 0.42884 0.69901 0.69535 0.0
C470 C 0.39509 0.72059 0.71553 0.0
C471 C 0.42414 0.74404 0.73602 0.0
C472 C 0.48466 0.74661 0.73674 0.0
C473 C 0.50485 0.77352 0.76162 0.0
C474 C 0.54256 0.75803 0.78997 0.0
C475 C 0.53787 0.80214 0.7434 0.0
C476 C 0.44619 0.7855 0.77491 0.0
C477 C 0.40026 0.76819 0.75971 0.0
C478 C 0.34197 0.77444 0.76805 0.0
C479 C 0.33024 0.79908 0.7926 0.0
C480 C 0.37658 0.81713 0.80855 0.0
C481 C 0.43527 0.81022 0.7995 0.0
H482 H 0.26615 0.70173 0.06603 0.0
H483 H 0.07781 0.71829 0.06653 0.0
H484 H 0.08989 0.76567 0.02677 0.0
H485 H 0.30953 0.7906 0.06005 0.0
H486 H 0.36981 0.78226 0.03186 0.0
H487 H 0.34711 0.75058 0.06188 0.0
H488 H 0.33319 0.70735 0.0131 0.0
H489 H 0.35577 0.73888 0.98296 0.0
H490 H 0.28593 0.71779 0.97795 0.0
H491 H 0.12107 0.81002 0.98605 0.0
H492 H 0.16978 0.8482 0.94551 0.0
H493 H 0.33799 0.80285 0.96996 0.0
C494 C 0.22763 0.71559 0.058 0.0
C495 C 0.17106 0.70642 0.06945 0.0
C496 C 0.12157 0.72486 0.05808 0.0
C497 C 0.12795 0.75188 0.03555 0.0
C498 C 0.18412 0.76014 0.02449 0.0
C499 C 0.23316 0.74258 0.03521 0.0
C500 C 0.28819 0.75599 0.01829 0.0
C501 C 0.33119 0.77074 0.04459 0.0
C502 C 0.31748 0.72835 0.9968 0.0
C503 C 0.2622 0.78356 0.99625 0.0
C504 C 0.20214 0.78562 1.00045 0.0
C505 C 0.16812 0.80876 0.98258 0.0
C506 C 0.19619 0.83033 0.95963 0.0
C507 C 0.25761 0.82851 0.95461 0.0
C508 C 0.29097 0.80488 0.97333 0.0
H509 H 0.53059 0.44372 0.45466 0.0
H510 H 0.34518 0.43213 0.4772 0.0
H511 H 0.35631 0.47043 0.52607 0.0
H512 H 0.58218 0.44886 0.54257 0.0
H513 H 0.63699 0.48052 0.53335 0.0
H514 H 0.61567 0.45028 0.50134 0.0
H515 H 0.59006 0.49928 0.46045 0.0
H516 H 0.61129 0.52962 0.49229 0.0
H517 H 0.53893 0.53133 0.47372 0.0
H518 H 0.38552 0.51192 0.57041 0.0
H519 H 0.43118 0.55515 0.60728 0.0
H520 H 0.59777 0.54053 0.5564 0.0
C521 C 0.49258 0.44895 0.47017 0.0
C522 C 0.43707 0.43489 0.46224 0.0
C523 C 0.38814 0.44263 0.48282 0.0
C524 C 0.39402 0.46427 0.5107 0.0
C525 C 0.44912 0.47799 0.51769 0.0
C526 C 0.49761 0.47071 0.49809 0.0
C527 C 0.55115 0.49022 0.51028 0.0
C528 C 0.59934 0.46602 0.52262 0.0
C529 C 0.57419 0.51402 0.48253 0.0
C530 C 0.52486 0.50989 0.53945 0.0
C531 C 0.46604 0.50222 0.54339 0.0
C532 C 0.43167 0.51797 0.5678 0.0
C533 C 0.45797 0.5425 0.58858 0.0
C534 C 0.518 0.55106 0.58478 0.0
C535 C 0.55192 0.53424 0.5601 0.0
loop_
_geom_bond_atom_site_label_1
_geom_bond_atom_site_label_2
_geom_bond_distance
_geom_bond_site_symmetry_2
_ccdc_geom_bond_type
In0 O1 2.294 . S
In0 O2 2.326 . S
In0 O6 2.266 . S
In0 O7 2.326 . S
In0 O8 2.266 . S
In0 O9 2.326 . S
In0 O11 2.294 . S
In0 O12 2.326 . S
O1 In0 2.294 . S
O1 C10 1.240 . S
O2 In0 2.326 . S
O2 C10 1.252 . S
C3 O6 1.252 . S
C3 O7 1.260 . S
C4 O11 1.240 . S
C4 O12 1.252 . S
C5 O8 1.252 . S
C5 O9 1.260 . S
O6 In0 2.266 . S
O6 C3 1.252 . S
O7 In0 2.326 . S
O7 C3 1.260 . S
O8 In0 2.266 . S
O8 C5 1.252 . S
O9 In0 2.326 . S
O9 C5 1.260 . S
C10 O1 1.240 . S
C10 O2 1.252 . S
O11 In0 2.294 . S
O11 C4 1.240 . S
O12 In0 2.326 . S
O12 C4 1.252 . S
In13 O14 2.294 . S
In13 O15 2.326 . S
In13 O19 2.266 . S
In13 O20 2.326 . S
In13 O21 2.266 . S
In13 O22 2.326 . S
In13 O24 2.294 . S
In13 O25 2.326 . S
O14 In13 2.294 . S
O14 C23 1.240 . S
O15 In13 2.326 . S
O15 C23 1.252 . S
C16 O19 1.252 . S
C16 O20 1.260 . S
C17 O24 1.240 . S
C17 O25 1.252 . S
C18 O21 1.252 . S
C18 O22 1.260 . S
O19 In13 2.266 . S
O19 C16 1.252 . S
O20 In13 2.326 . S
O20 C16 1.260 . S
O21 In13 2.266 . S
O21 C18 1.252 . S
O22 In13 2.326 . S
O22 C18 1.260 . S
C23 O14 1.240 . S
C23 O15 1.252 . S
O24 In13 2.294 . S
O24 C17 1.240 . S
O25 In13 2.326 . S
O25 C17 1.252 . S
In26 O27 2.294 . S
In26 O28 2.326 . S
In26 O32 2.266 . S
In26 O33 2.326 . S
In26 O34 2.266 . S
In26 O35 2.326 . S
In26 O37 2.294 . S
In26 O38 2.326 . S
O27 In26 2.294 . S
O27 C36 1.240 . S
O28 In26 2.326 . S
O28 C36 1.252 . S
C29 O32 1.252 . S
C29 O33 1.260 . S
C30 O37 1.240 . S
C30 O38 1.252 . S
C31 O34 1.252 . S
C31 O35 1.260 . S
O32 In26 2.266 . S
O32 C29 1.252 . S
O33 In26 2.326 . S
O33 C29 1.260 . S
O34 In26 2.266 . S
O34 C31 1.252 . S
O35 In26 2.326 . S
O35 C31 1.260 . S
C36 O27 1.240 . S
C36 O28 1.252 . S
O37 In26 2.294 . S
O37 C30 1.240 . S
O38 In26 2.326 . S
O38 C30 1.252 . S
In39 O40 2.294 . S
In39 O41 2.326 . S
In39 O45 2.266 . S
In39 O46 2.326 . S
In39 O47 2.266 . S
In39 O48 2.326 . S
In39 O50 2.294 . S
In39 O51 2.326 . S
O40 In39 2.294 . S
O40 C49 1.240 . S
O41 In39 2.326 . S
O41 C49 1.252 . S
C42 O45 1.252 . S
C42 O46 1.260 . S
C43 O50 1.240 . S
C43 O51 1.252 . S
C44 O47 1.252 . S
C44 O48 1.260 . S
O45 In39 2.266 . S
O45 C42 1.252 . S
O46 In39 2.326 . S
O46 C42 1.260 . S
O47 In39 2.266 . S
O47 C44 1.252 . S
O48 In39 2.326 . S
O48 C44 1.260 . S
C49 O40 1.240 . S
C49 O41 1.252 . S
O50 In39 2.294 . S
O50 C43 1.240 . S
O51 In39 2.326 . S
O51 C43 1.252 . S
In52 O53 2.294 . S
In52 O54 2.326 . S
In52 O58 2.266 . S
In52 O59 2.326 . S
In52 O60 2.266 . S
In52 O61 2.326 . S
In52 O63 2.294 . S
In52 O64 2.326 . S
O53 In52 2.294 . S
O53 C62 1.240 . S
O54 In52 2.326 . S
O54 C62 1.252 . S
C55 O58 1.252 . S
C55 O59 1.260 . S
C56 O63 1.240 . S
C56 O64 1.252 . S
C57 O60 1.252 . S
C57 O61 1.260 . S
O58 In52 2.266 . S
O58 C55 1.252 . S
O59 In52 2.326 . S
O59 C55 1.260 . S
O60 In52 2.266 . S
O60 C57 1.252 . S
O61 In52 2.326 . S
O61 C57 1.260 . S
C62 O53 1.240 . S
C62 O54 1.252 . S
O63 In52 2.294 . S
O63 C56 1.240 . S
O64 In52 2.326 . S
O64 C56 1.252 . S
In65 O66 2.294 . S
In65 O67 2.326 . S
In65 O71 2.266 . S
In65 O72 2.326 . S
In65 O73 2.266 . S
In65 O74 2.326 . S
In65 O76 2.294 . S
In65 O77 2.326 . S
O66 In65 2.294 . S
O66 C75 1.240 . S
O67 In65 2.326 . S
O67 C75 1.252 . S
C68 O71 1.252 . S
C68 O72 1.260 . S
C69 O76 1.240 . S
C69 O77 1.252 . S
C70 O73 1.252 . S
C70 O74 1.260 . S
O71 In65 2.266 . S
O71 C68 1.252 . S
O72 In65 2.326 . S
O72 C68 1.260 . S
O73 In65 2.266 . S
O73 C70 1.252 . S
O74 In65 2.326 . S
O74 C70 1.260 . S
C75 O66 1.240 . S
C75 O67 1.252 . S
O76 In65 2.294 . S
O76 C69 1.240 . S
O77 In65 2.326 . S
O77 C69 1.252 . S
In78 O79 2.294 . S
In78 O80 2.326 . S
In78 O84 2.266 . S
In78 O85 2.326 . S
In78 O86 2.266 . S
In78 O87 2.326 . S
In78 O89 2.294 . S
In78 O90 2.326 . S
O79 In78 2.294 . S
O79 C88 1.240 . S
O80 In78 2.326 . S
O80 C88 1.252 . S
C81 O84 1.252 . S
C81 O85 1.260 . S
C82 O89 1.240 . S
C82 O90 1.252 . S
C83 O86 1.252 . S
C83 O87 1.260 . S
O84 In78 2.266 . S
O84 C81 1.252 . S
O85 In78 2.326 . S
O85 C81 1.260 . S
O86 In78 2.266 . S
O86 C83 1.252 . S
O87 In78 2.326 . S
O87 C83 1.260 . S
C88 O79 1.240 . S
C88 O80 1.252 . S
O89 In78 2.294 . S
O89 C82 1.240 . S
O90 In78 2.326 . S
O90 C82 1.252 . S
In91 O92 2.294 . S
In91 O93 2.326 . S
In91 O97 2.266 . S
In91 O98 2.326 . S
In91 O99 2.266 . S
In91 O100 2.326 . S
In91 O102 2.294 . S
In91 O103 2.326 . S
O92 In91 2.294 . S
O92 C101 1.240 . S
O93 In91 2.326 . S
O93 C101 1.252 . S
C94 O97 1.252 . S
C94 O98 1.260 . S
C95 O102 1.240 . S
C95 O103 1.252 . S
C96 O99 1.252 . S
C96 O100 1.260 . S
O97 In91 2.266 . S
O97 C94 1.252 . S
O98 In91 2.326 . S
O98 C94 1.260 . S
O99 In91 2.266 . S
O99 C96 1.252 . S
O100 In91 2.326 . S
O100 C96 1.260 . S
C101 O92 1.240 . S
C101 O93 1.252 . S
O102 In91 2.294 . S
O102 C95 1.240 . S
O103 In91 2.326 . S
O103 C95 1.252 . S
H104 C116 0.930 . S
H105 C118 0.930 . S
H106 C119 0.930 . S
H107 C123 0.959 . S
H108 C123 0.959 . S
H109 C123 0.961 . S
H110 C124 0.960 . S
H111 C124 0.961 . S
H112 C124 0.959 . S
H113 C127 0.929 . S
H114 C128 0.931 . S
H115 C130 0.930 . S
C116 H104 0.930 . S
C116 C117 1.399 . S
C116 C121 1.399 . S
C117 C116 1.399 . S
C117 C118 1.376 . S
C118 H105 0.930 . S
C118 C117 1.376 . S
C118 C119 1.388 . S
C119 H106 0.930 . S
C119 C118 1.388 . S
C119 C120 1.390 . S
C120 C119 1.390 . S
C120 C121 1.394 . S
C120 C126 1.465 . S
C121 C116 1.399 . S
C121 C120 1.394 . S
C121 C122 1.516 . S
C122 C121 1.516 . S
C122 C123 1.502 . S
C122 C124 1.561 . S
C122 C125 1.526 . S
C123 H107 0.959 . S
C123 H108 0.959 . S
C123 H109 0.961 . S
C123 C122 1.502 . S
C124 H110 0.960 . S
C124 H111 0.961 . S
C124 H112 0.959 . S
C124 C122 1.561 . S
C125 C122 1.526 . S
C125 C126 1.396 . S
C125 C130 1.390 . S
C126 C120 1.465 . S
C126 C125 1.396 . S
C126 C127 1.399 . S
C127 H113 0.929 . S
C127 C126 1.399 . S
C127 C128 1.385 . S
C128 H114 0.931 . S
C128 C127 1.385 . S
C128 C129 1.389 . S
C129 C128 1.389 . S
C129 C130 1.387 . S
C130 H115 0.930 . S
C130 C125 1.390 . S
C130 C129 1.387 . S
H131 C143 0.930 . S
H132 C145 0.930 . S
H133 C146 0.930 . S
H134 C150 0.959 . S
H135 C150 0.959 . S
H136 C150 0.961 . S
H137 C151 0.960 . S
H138 C151 0.961 . S
H139 C151 0.959 . S
H140 C154 0.929 . S
H141 C155 0.931 . S
H142 C157 0.930 . S
C143 H131 0.930 . S
C143 C144 1.399 . S
C143 C148 1.399 . S
C144 C143 1.399 . S
C144 C145 1.376 . S
C145 H132 0.930 . S
C145 C144 1.376 . S
C145 C146 1.388 . S
C146 H133 0.930 . S
C146 C145 1.388 . S
C146 C147 1.390 . S
C147 C146 1.390 . S
C147 C148 1.394 . S
C147 C153 1.465 . S
C148 C143 1.399 . S
C148 C147 1.394 . S
C148 C149 1.516 . S
C149 C148 1.516 . S
C149 C150 1.502 . S
C149 C151 1.561 . S
C149 C152 1.526 . S
C150 H134 0.959 . S
C150 H135 0.959 . S
C150 H136 0.961 . S
C150 C149 1.502 . S
C151 H137 0.960 . S
C151 H138 0.961 . S
C151 H139 0.959 . S
C151 C149 1.561 . S
C152 C149 1.526 . S
C152 C153 1.396 . S
C152 C157 1.390 . S
C153 C147 1.465 . S
C153 C152 1.396 . S
C153 C154 1.399 . S
C154 H140 0.929 . S
C154 C153 1.399 . S
C154 C155 1.385 . S
C155 H141 0.931 . S
C155 C154 1.385 . S
C155 C156 1.389 . S
C156 C155 1.389 . S
C156 C157 1.387 . S
C157 H142 0.930 . S
C157 C152 1.390 . S
C157 C156 1.387 . S
H158 C170 0.930 . S
H159 C172 0.930 . S
H160 C173 0.930 . S
H161 C177 0.959 . S
H162 C177 0.959 . S
H163 C177 0.961 . S
H164 C178 0.960 . S
H165 C178 0.961 . S
H166 C178 0.959 . S
H167 C181 0.929 . S
H168 C182 0.931 . S
H169 C184 0.930 . S
C170 H158 0.930 . S
C170 C171 1.399 . S
C170 C175 1.399 . S
C171 C170 1.399 . S
C171 C172 1.376 . S
C172 H159 0.930 . S
C172 C171 1.376 . S
C172 C173 1.388 1_545 S
C173 H160 0.930 . S
C173 C172 1.388 1_565 S
C173 C174 1.390 . S
C174 C173 1.390 . S
C174 C175 1.394 1_565 S
C174 C180 1.465 . S
C175 C170 1.399 . S
C175 C174 1.394 1_545 S
C175 C176 1.516 1_554 S
C176 C175 1.516 1_556 S
C176 C177 1.502 . S
C176 C178 1.561 . S
C176 C179 1.526 1_545 S
C177 H161 0.959 . S
C177 H162 0.959 . S
C177 H163 0.961 . S
C177 C176 1.502 . S
C178 H164 0.960 . S
C178 H165 0.961 . S
C178 H166 0.959 . S
C178 C176 1.561 . S
C179 C176 1.526 1_565 S
C179 C180 1.396 1_556 S
C179 C184 1.390 . S
C180 C174 1.465 . S
C180 C179 1.396 1_554 S
C180 C181 1.399 . S
C181 H167 0.929 . S
C181 C180 1.399 . S
C181 C182 1.385 1_554 S
C182 H168 0.931 . S
C182 C181 1.385 1_556 S
C182 C183 1.389 . S
C183 C182 1.389 . S
C183 C184 1.387 . S
C184 H169 0.930 . S
C184 C179 1.390 . S
C184 C183 1.387 . S
H185 C197 0.930 . S
H186 C199 0.930 . S
H187 C200 0.930 . S
H188 C204 0.959 1_655 S
H189 C204 0.959 . S
H190 C204 0.961 . S
H191 C205 0.960 . S
H192 C205 0.961 . S
H193 C205 0.959 . S
H194 C208 0.929 . S
H195 C209 0.931 . S
H196 C211 0.930 . S
C197 H185 0.930 . S
C197 C198 1.399 . S
C197 C202 1.398 . S
C198 C197 1.399 . S
C198 C199 1.376 . S
C199 H186 0.930 . S
C199 C198 1.376 . S
C199 C200 1.388 . S
C200 H187 0.930 . S
C200 C199 1.388 . S
C200 C201 1.390 . S
C201 C200 1.390 . S
C201 C202 1.393 . S
C201 C207 1.466 . S
C202 C197 1.398 . S
C202 C201 1.393 . S
C202 C203 1.518 1_655 S
C203 C202 1.518 1_455 S
C203 C204 1.502 . S
C203 C205 1.561 . S
C203 C206 1.526 . S
C204 H188 0.959 1_455 S
C204 H189 0.959 . S
C204 H190 0.961 . S
C204 C203 1.502 . S
C205 H191 0.960 . S
C205 H192 0.961 . S
C205 H193 0.959 . S
C205 C203 1.561 . S
C206 C203 1.526 . S
C206 C207 1.394 1_455 S
C206 C211 1.390 . S
C207 C201 1.466 . S
C207 C206 1.394 1_655 S
C207 C208 1.399 . S
C208 H194 0.929 . S
C208 C207 1.399 . S
C208 C209 1.385 1_655 S
C209 H195 0.931 . S
C209 C208 1.385 1_455 S
C209 C210 1.389 . S
C210 C209 1.389 . S
C210 C211 1.387 . S
C211 H196 0.930 . S
C211 C206 1.390 . S
C211 C210 1.387 . S
H212 C224 0.930 . S
H213 C226 0.930 . S
H214 C227 0.930 1_545 S
H215 C231 0.959 . S
H216 C231 0.959 . S
H217 C231 0.961 . S
H218 C232 0.960 . S
H219 C232 0.961 . S
H220 C232 0.959 . S
H221 C235 0.929 . S
H222 C236 0.931 . S
H223 C238 0.930 . S
C224 H212 0.930 . S
C224 C225 1.399 . S
C224 C229 1.399 . S
C225 C224 1.399 . S
C225 C226 1.376 . S
C226 H213 0.930 . S
C226 C225 1.376 . S
C226 C227 1.388 . S
C227 H214 0.930 1_565 S
C227 C226 1.388 . S
C227 C228 1.390 . S
C228 C227 1.390 . S
C228 C229 1.394 . S
C228 C234 1.465 1_565 S
C229 C224 1.399 . S
C229 C228 1.394 . S
C229 C230 1.516 . S
C230 C229 1.516 . S
C230 C231 1.502 . S
C230 C232 1.561 . S
C230 C233 1.526 1_565 S
C231 H215 0.959 . S
C231 H216 0.959 . S
C231 H217 0.961 . S
C231 C230 1.502 . S
C232 H218 0.960 . S
C232 H219 0.961 . S
C232 H220 0.959 . S
C232 C230 1.561 . S
C233 C230 1.526 1_545 S
C233 C234 1.396 . S
C233 C238 1.390 . S
C234 C228 1.465 1_545 S
C234 C233 1.396 . S
C234 C235 1.399 . S
C235 H221 0.929 . S
C235 C234 1.399 . S
C235 C236 1.385 . S
C236 H222 0.931 . S
C236 C235 1.385 . S
C236 C237 1.389 . S
C237 C236 1.389 . S
C237 C238 1.387 . S
C238 H223 0.930 . S
C238 C233 1.390 . S
C238 C237 1.387 . S
H239 C251 0.930 . S
H240 C253 0.930 . S
H241 C254 0.930 . S
H242 C258 0.959 . S
H243 C258 0.959 . S
H244 C258 0.961 . S
H245 C259 0.960 . S
H246 C259 0.961 . S
H247 C259 0.959 . S
H248 C262 0.929 . S
H249 C263 0.931 . S
H250 C265 0.930 1_655 S
C251 H239 0.930 . S
C251 C252 1.399 . S
C251 C256 1.399 . S
C252 C251 1.399 . S
C252 C253 1.378 1_655 S
C253 H240 0.930 . S
C253 C252 1.378 1_455 S
C253 C254 1.387 . S
C254 H241 0.930 . S
C254 C253 1.387 . S
C254 C255 1.390 . S
C255 C254 1.390 . S
C255 C256 1.394 1_455 S
C255 C261 1.465 1_556 S
C256 C251 1.399 . S
C256 C255 1.394 1_655 S
C256 C257 1.516 1_556 S
C257 C256 1.516 1_554 S
C257 C258 1.502 1_554 S
C257 C259 1.561 . S
C257 C260 1.526 . S
C258 H242 0.959 . S
C258 H243 0.959 . S
C258 H244 0.961 . S
C258 C257 1.502 1_556 S
C259 H245 0.960 . S
C259 H246 0.961 . S
C259 H247 0.959 . S
C259 C257 1.561 . S
C260 C257 1.526 . S
C260 C261 1.396 1_655 S
C260 C265 1.390 1_655 S
C261 C255 1.465 1_554 S
C261 C260 1.396 1_455 S
C261 C262 1.399 . S
C262 H248 0.929 . S
C262 C261 1.399 . S
C262 C263 1.385 . S
C263 H249 0.931 . S
C263 C262 1.385 . S
C263 C264 1.389 . S
C264 C263 1.389 . S
C264 C265 1.387 . S
C265 H250 0.930 1_455 S
C265 C260 1.390 1_455 S
C265 C264 1.387 . S
H266 C278 0.930 . S
H267 C280 0.930 . S
H268 C281 0.930 . S
H269 C285 0.959 . S
H270 C285 0.959 . S
H271 C285 0.961 . S
H272 C286 0.960 . S
H273 C286 0.961 . S
H274 C286 0.959 . S
H275 C289 0.929 . S
H276 C290 0.931 . S
H277 C292 0.930 . S
C278 H266 0.930 . S
C278 C279 1.399 . S
C278 C283 1.399 . S
C279 C278 1.399 . S
C279 C280 1.376 . S
C280 H267 0.930 . S
C280 C279 1.376 . S
C280 C281 1.388 . S
C281 H268 0.930 . S
C281 C280 1.388 . S
C281 C282 1.390 . S
C282 C281 1.390 . S
C282 C283 1.394 . S
C282 C288 1.465 . S
C283 C278 1.399 . S
C283 C282 1.394 . S
C283 C284 1.516 . S
C284 C283 1.516 . S
C284 C285 1.502 . S
C284 C286 1.561 . S
C284 C287 1.526 . S
C285 H269 0.959 . S
C285 H270 0.959 . S
C285 H271 0.961 . S
C285 C284 1.502 . S
C286 H272 0.960 . S
C286 H273 0.961 . S
C286 H274 0.959 . S
C286 C284 1.561 . S
C287 C284 1.526 . S
C287 C288 1.396 . S
C287 C292 1.390 . S
C288 C282 1.465 . S
C288 C287 1.396 . S
C288 C289 1.399 . S
C289 H275 0.929 . S
C289 C288 1.399 . S
C289 C290 1.385 . S
C290 H276 0.931 . S
C290 C289 1.385 . S
C290 C291 1.389 . S
C291 C290 1.389 . S
C291 C292 1.387 . S
C292 H277 0.930 . S
C292 C287 1.390 . S
C292 C291 1.387 . S
H293 C305 0.930 . S
H294 C307 0.930 . S
H295 C308 0.930 . S
H296 C312 0.959 . S
H297 C312 0.959 . S
H298 C312 0.961 . S
H299 C313 0.960 . S
H300 C313 0.961 . S
H301 C313 0.959 . S
H302 C316 0.929 . S
H303 C317 0.931 . S
H304 C319 0.930 . S
C305 H293 0.930 . S
C305 C306 1.399 . S
C305 C310 1.399 . S
C306 C305 1.399 . S
C306 C307 1.376 . S
C307 H294 0.930 . S
C307 C306 1.376 . S
C307 C308 1.388 . S
C308 H295 0.930 . S
C308 C307 1.388 . S
C308 C309 1.390 . S
C309 C308 1.390 . S
C309 C310 1.394 . S
C309 C315 1.465 . S
C310 C305 1.399 . S
C310 C309 1.394 . S
C310 C311 1.516 . S
C311 C310 1.516 . S
C311 C312 1.502 . S
C311 C313 1.561 . S
C311 C314 1.526 . S
C312 H296 0.959 . S
C312 H297 0.959 . S
C312 H298 0.961 . S
C312 C311 1.502 . S
C313 H299 0.960 . S
C313 H300 0.961 . S
C313 H301 0.959 . S
C313 C311 1.561 . S
C314 C311 1.526 . S
C314 C315 1.396 . S
C314 C319 1.390 . S
C315 C309 1.465 . S
C315 C314 1.396 . S
C315 C316 1.399 . S
C316 H302 0.929 . S
C316 C315 1.399 . S
C316 C317 1.385 . S
C317 H303 0.931 . S
C317 C316 1.385 . S
C317 C318 1.389 . S
C318 C317 1.389 . S
C318 C319 1.387 . S
C319 H304 0.930 . S
C319 C314 1.390 . S
C319 C318 1.387 . S
H320 C332 0.930 . S
H321 C334 0.930 . S
H322 C335 0.930 . S
H323 C339 0.959 . S
H324 C339 0.959 . S
H325 C339 0.961 . S
H326 C340 0.960 . S
H327 C340 0.961 . S
H328 C340 0.959 . S
H329 C343 0.929 . S
H330 C344 0.931 . S
H331 C346 0.930 . S
C332 H320 0.930 . S
C332 C333 1.399 . S
C332 C337 1.399 . S
C333 C332 1.399 . S
C333 C334 1.376 . S
C334 H321 0.930 . S
C334 C333 1.376 . S
C334 C335 1.388 . S
C335 H322 0.930 . S
C335 C334 1.388 . S
C335 C336 1.390 . S
C336 C335 1.390 . S
C336 C337 1.394 . S
C336 C342 1.465 . S
C337 C332 1.399 . S
C337 C336 1.394 . S
C337 C338 1.516 . S
C338 C337 1.516 . S
C338 C339 1.502 . S
C338 C340 1.561 . S
C338 C341 1.526 . S
C339 H323 0.959 . S
C339 H324 0.959 . S
C339 H325 0.961 . S
C339 C338 1.502 . S
C340 H326 0.960 . S
C340 H327 0.961 . S
C340 H328 0.959 . S
C340 C338 1.561 . S
C341 C338 1.526 . S
C341 C342 1.396 . S
C341 C346 1.390 . S
C342 C336 1.465 . S
C342 C341 1.396 . S
C342 C343 1.399 . S
C343 H329 0.929 . S
C343 C342 1.399 . S
C343 C344 1.385 . S
C344 H330 0.931 . S
C344 C343 1.385 . S
C344 C345 1.389 . S
C345 C344 1.389 . S
C345 C346 1.387 . S
C346 H331 0.930 . S
C346 C341 1.390 . S
C346 C345 1.387 . S
H347 C359 0.930 . S
H348 C361 0.930 . S
H349 C362 0.930 . S
H350 C366 0.959 . S
H351 C366 0.959 . S
H352 C366 0.961 . S
H353 C367 0.960 . S
H354 C367 0.961 . S
H355 C367 0.959 . S
H356 C370 0.929 . S
H357 C371 0.931 . S
H358 C373 0.930 . S
C359 H347 0.930 . S
C359 C360 1.399 . S
C359 C364 1.399 . S
C360 C359 1.399 . S
C360 C361 1.376 . S
C361 H348 0.930 . S
C361 C360 1.376 . S
C361 C362 1.388 1_556 S
C362 H349 0.930 . S
C362 C361 1.388 1_554 S
C362 C363 1.390 . S
C363 C362 1.390 . S
C363 C364 1.394 1_554 S
C363 C369 1.465 . S
C364 C359 1.399 . S
C364 C363 1.394 1_556 S
C364 C365 1.516 . S
C365 C364 1.516 . S
C365 C366 1.502 . S
C365 C367 1.561 . S
C365 C368 1.526 1_556 S
C366 H350 0.959 . S
C366 H351 0.959 . S
C366 H352 0.961 . S
C366 C365 1.502 . S
C367 H353 0.960 . S
C367 H354 0.961 . S
C367 H355 0.959 . S
C367 C365 1.561 . S
C368 C365 1.526 1_554 S
C368 C369 1.396 . S
C368 C373 1.390 . S
C369 C363 1.465 . S
C369 C368 1.396 . S
C369 C370 1.399 . S
C370 H356 0.929 . S
C370 C369 1.399 . S
C370 C371 1.385 . S
C371 H357 0.931 . S
C371 C370 1.385 . S
C371 C372 1.389 . S
C372 C371 1.389 . S
C372 C373 1.387 . S
C373 H358 0.930 . S
C373 C368 1.390 . S
C373 C372 1.387 . S
H374 C386 0.930 . S
H375 C388 0.930 . S
H376 C389 0.930 1_545 S
H377 C393 0.959 . S
H378 C393 0.959 . S
H379 C393 0.961 . S
H380 C394 0.960 . S
H381 C394 0.961 . S
H382 C394 0.959 . S
H383 C397 0.929 . S
H384 C398 0.931 . S
H385 C400 0.930 . S
C386 H374 0.930 . S
C386 C387 1.399 . S
C386 C391 1.399 . S
C387 C386 1.399 . S
C387 C388 1.376 . S
C388 H375 0.930 . S
C388 C387 1.376 . S
C388 C389 1.388 . S
C389 H376 0.930 1_565 S
C389 C388 1.388 . S
C389 C390 1.390 . S
C390 C389 1.390 . S
C390 C391 1.394 . S
C390 C396 1.465 1_565 S
C391 C386 1.399 . S
C391 C390 1.394 . S
C391 C392 1.516 . S
C392 C391 1.516 . S
C392 C393 1.502 . S
C392 C394 1.561 . S
C392 C395 1.526 1_565 S
C393 H377 0.959 . S
C393 H378 0.959 . S
C393 H379 0.961 . S
C393 C392 1.502 . S
C394 H380 0.960 . S
C394 H381 0.961 . S
C394 H382 0.959 . S
C394 C392 1.561 . S
C395 C392 1.526 1_545 S
C395 C396 1.396 . S
C395 C400 1.390 . S
C396 C390 1.465 1_545 S
C396 C395 1.396 . S
C396 C397 1.399 . S
C397 H383 0.929 . S
C397 C396 1.399 . S
C397 C398 1.385 . S
C398 H384 0.931 . S
C398 C397 1.385 . S
C398 C399 1.389 . S
C399 C398 1.389 . S
C399 C400 1.387 . S
C400 H385 0.930 . S
C400 C395 1.390 . S
C400 C399 1.387 . S
H401 C413 0.930 . S
H402 C415 0.930 . S
H403 C416 0.930 . S
H404 C420 0.959 1_565 S
H405 C420 0.959 . S
H406 C420 0.961 . S
H407 C421 0.960 . S
H408 C421 0.961 1_455 S
H409 C421 0.959 . S
H410 C424 0.909 1_565 S
H411 C425 0.931 . S
H412 C427 0.930 . S
C413 H401 0.930 . S
C413 C414 1.399 . S
C413 C418 1.399 . S
C414 C413 1.399 . S
C414 C415 1.376 . S
C415 H402 0.930 . S
C415 C414 1.376 . S
C415 C416 1.388 . S
C416 H403 0.930 . S
C416 C415 1.388 . S
C416 C417 1.390 . S
C417 C416 1.390 . S
C417 C418 1.394 . S
C417 C423 1.481 . S
C418 C413 1.399 . S
C418 C417 1.394 . S
C418 C419 1.516 1_665 S
C419 C418 1.516 1_445 S
C419 C420 1.502 . S
C419 C421 1.561 1_455 S
C419 C422 1.526 . S
C420 H404 0.959 1_545 S
C420 H405 0.959 . S
C420 H406 0.961 . S
C420 C419 1.502 . S
C421 H407 0.960 . S
C421 H408 0.961 1_655 S
C421 H409 0.959 . S
C421 C419 1.561 1_655 S
C422 C419 1.526 . S
C422 C423 1.379 1_445 S
C422 C427 1.390 . S
C423 C417 1.481 . S
C423 C422 1.379 1_665 S
C423 C424 1.397 1_565 S
C424 H410 0.909 1_545 S
C424 C423 1.397 1_545 S
C424 C425 1.408 1_655 S
C425 H411 0.931 . S
C425 C424 1.408 1_455 S
C425 C426 1.389 . S
C426 C425 1.389 . S
C426 C427 1.387 . S
C427 H412 0.930 . S
C427 C422 1.390 . S
C427 C426 1.387 . S
H428 C440 0.930 1_455 S
H429 C442 0.930 . S
H430 C443 0.930 . S
H431 C447 0.959 . S
H432 C447 0.959 . S
H433 C447 0.961 . S
H434 C448 0.960 . S
H435 C448 0.961 . S
H436 C448 0.959 1_655 S
H437 C451 0.929 . S
H438 C452 0.931 1_655 S
H439 C454 0.930 . S
C440 H428 0.930 1_655 S
C440 C441 1.399 . S
C440 C445 1.399 . S
C441 C440 1.399 . S
C441 C442 1.376 . S
C442 H429 0.930 . S
C442 C441 1.376 . S
C442 C443 1.388 . S
C443 H430 0.930 . S
C443 C442 1.388 . S
C443 C444 1.390 . S
C444 C443 1.390 . S
C444 C445 1.394 . S
C444 C450 1.465 . S
C445 C440 1.399 . S
C445 C444 1.394 . S
C445 C446 1.516 1_655 S
C446 C445 1.516 1_455 S
C446 C447 1.502 . S
C446 C448 1.561 . S
C446 C449 1.526 . S
C447 H431 0.959 . S
C447 H432 0.959 . S
C447 H433 0.961 . S
C447 C446 1.502 . S
C448 H434 0.960 . S
C448 H435 0.961 . S
C448 H436 0.959 1_455 S
C448 C446 1.561 . S
C449 C446 1.526 . S
C449 C450 1.396 1_455 S
C449 C454 1.390 . S
C450 C444 1.465 . S
C450 C449 1.396 1_655 S
C450 C451 1.399 . S
C451 H437 0.929 . S
C451 C450 1.399 . S
C451 C452 1.385 1_655 S
C452 H438 0.931 1_455 S
C452 C451 1.385 1_455 S
C452 C453 1.389 . S
C453 C452 1.389 . S
C453 C454 1.387 . S
C454 H439 0.930 . S
C454 C449 1.390 . S
C454 C453 1.387 . S
H455 C467 0.930 . S
H456 C469 0.930 . S
H457 C470 0.930 . S
H458 C474 0.959 . S
H459 C474 0.959 . S
H460 C474 0.961 . S
H461 C475 0.960 . S
H462 C475 0.961 . S
H463 C475 0.959 . S
H464 C478 0.929 . S
H465 C479 0.931 . S
H466 C481 0.930 . S
C467 H455 0.930 . S
C467 C468 1.399 . S
C467 C472 1.399 . S
C468 C467 1.399 . S
C468 C469 1.376 . S
C469 H456 0.930 . S
C469 C468 1.376 . S
C469 C470 1.388 . S
C470 H457 0.930 . S
C470 C469 1.388 . S
C470 C471 1.390 . S
C471 C470 1.390 . S
C471 C472 1.394 . S
C471 C477 1.465 . S
C472 C467 1.399 . S
C472 C471 1.394 . S
C472 C473 1.516 . S
C473 C472 1.516 . S
C473 C474 1.502 . S
C473 C475 1.561 . S
C473 C476 1.526 . S
C474 H458 0.959 . S
C474 H459 0.959 . S
C474 H460 0.961 . S
C474 C473 1.502 . S
C475 H461 0.960 . S
C475 H462 0.961 . S
C475 H463 0.959 . S
C475 C473 1.561 . S
C476 C473 1.526 . S
C476 C477 1.396 . S
C476 C481 1.390 . S
C477 C471 1.465 . S
C477 C476 1.396 . S
C477 C478 1.399 . S
C478 H464 0.929 . S
C478 C477 1.399 . S
C478 C479 1.385 . S
C479 H465 0.931 . S
C479 C478 1.385 . S
C479 C480 1.389 . S
C480 C479 1.389 . S
C480 C481 1.387 . S
C481 H466 0.930 . S
C481 C476 1.390 . S
C481 C480 1.387 . S
H482 C494 0.930 . S
H483 C496 0.930 . S
H484 C497 0.930 1_556 S
H485 C501 0.959 . S
H486 C501 0.959 . S
H487 C501 0.961 . S
H488 C502 0.960 . S
H489 C502 0.961 . S
H490 C502 0.959 . S
H491 C505 0.929 . S
H492 C506 0.931 . S
H493 C508 0.930 . S
C494 H482 0.930 . S
C494 C495 1.399 . S
C494 C499 1.399 . S
C495 C494 1.399 . S
C495 C496 1.376 . S
C496 H483 0.930 . S
C496 C495 1.376 . S
C496 C497 1.388 . S
C497 H484 0.930 1_554 S
C497 C496 1.388 . S
C497 C498 1.390 . S
C498 C497 1.390 . S
C498 C499 1.394 . S
C498 C504 1.465 1_554 S
C499 C494 1.399 . S
C499 C498 1.394 . S
C499 C500 1.516 . S
C500 C499 1.516 . S
C500 C501 1.502 . S
C500 C502 1.561 . S
C500 C503 1.526 1_554 S
C501 H485 0.959 . S
C501 H486 0.959 . S
C501 H487 0.961 . S
C501 C500 1.502 . S
C502 H488 0.960 . S
C502 H489 0.961 . S
C502 H490 0.959 . S
C502 C500 1.561 . S
C503 C500 1.526 1_556 S
C503 C504 1.396 . S
C503 C508 1.390 . S
C504 C498 1.465 1_556 S
C504 C503 1.396 . S
C504 C505 1.399 . S
C505 H491 0.929 . S
C505 C504 1.399 . S
C505 C506 1.385 . S
C506 H492 0.931 . S
C506 C505 1.385 . S
C506 C507 1.389 . S
C507 C506 1.389 . S
C507 C508 1.387 . S
C508 H493 0.930 . S
C508 C503 1.390 . S
C508 C507 1.387 . S
H509 C521 0.930 . S
H510 C523 0.930 . S
H511 C524 0.930 . S
H512 C528 0.959 . S
H513 C528 0.959 . S
H514 C528 0.961 . S
H515 C529 0.960 . S
H516 C529 0.961 . S
H517 C529 0.959 . S
H518 C532 0.929 . S
H519 C533 0.931 . S
H520 C535 0.930 . S
C521 H509 0.930 . S
C521 C522 1.399 . S
C521 C526 1.399 . S
C522 C521 1.399 . S
C522 C523 1.376 . S
C523 H510 0.930 . S
C523 C522 1.376 . S
C523 C524 1.388 . S
C524 H511 0.930 . S
C524 C523 1.388 . S
C524 C525 1.390 . S
C525 C524 1.390 . S
C525 C526 1.394 . S
C525 C531 1.465 . S
C526 C521 1.399 . S
C526 C525 1.394 . S
C526 C527 1.516 . S
C527 C526 1.516 . S
C527 C528 1.502 . S
C527 C529 1.561 . S
C527 C530 1.526 . S
C528 H512 0.959 . S
C528 H513 0.959 . S
C528 H514 0.961 . S
C528 C527 1.502 . S
C529 H515 0.960 . S
C529 H516 0.961 . S
C529 H517 0.959 . S
C529 C527 1.561 . S
C530 C527 1.526 . S
C530 C531 1.396 . S
C530 C535 1.390 . S
C531 C525 1.465 . S
C531 C530 1.396 . S
C531 C532 1.399 . S
C532 H518 0.929 . S
C532 C531 1.399 . S
C532 C533 1.385 . S
C533 H519 0.931 . S
C533 C532 1.385 . S
C533 C534 1.389 . S
C534 C533 1.389 . S
C534 C535 1.387 . S
C535 H520 0.930 . S
C535 C530 1.390 . S
C535 C534 1.387 . S
C117 C70 1.501 . S
C129 C10 1.506 . S
C144 C96 1.503 . S
C156 C17 1.505 . S
C171 C29 1.509 . S
C183 C81 1.514 . S
C198 C43 1.504 . S
C210 C56 1.506 . S
C225 C82 1.506 . S
C237 C3 1.501 . S
C252 C16 1.514 . S
C264 C57 1.508 . S
C279 C75 1.509 . S
C291 C36 1.506 . S
C306 C42 1.513 . S
C318 C95 1.510 . S
C333 C55 1.504 . S
C345 C69 1.505 . S
C360 C18 1.510 . S
C372 C30 1.511 . S
C387 C49 1.506 . S
C399 C31 1.501 . S
C414 C44 1.508 . S
C426 C5 1.514 . S
C441 C23 1.506 . S
C453 C4 1.510 . S
C468 C101 1.506 . S
C480 C88 1.504 . S
C495 C62 1.506 . S
C507 C83 1.501 . S
C522 C68 1.508 . S
C534 C94 1.514 . S
