# Generated by pormake.
# Topology ukf, (4)-cn, num edge types: 1
# Building blocks:
#     Node 0, Type 0, BuildingBlock: QUQFOY_clean_sbu_3, # of connection points: 4
#     Node 1, Type 0, BuildingBlock: QUQFOY_clean_sbu_3, # of connection points: 4
#     Node 2, Type 0, BuildingBlock: QUQFOY_clean_sbu_3, # of connection points: 4
#     Node 3, Type 0, BuildingBlock: QUQFOY_clean_sbu_3, # of connection points: 4
#     Node 4, Type 0, BuildingBlock: QUQFOY_clean_sbu_3, # of connection points: 4
#     Node 5, Type 0, BuildingBlock: QUQFOY_clean_sbu_3, # of connection points: 4
#     Node 6, Type 0, BuildingBlock: QUQFOY_clean_sbu_3, # of connection points: 4
#     Node 7, Type 0, BuildingBlock: QUQFOY_clean_sbu_3, # of connection points: 4
#     Node 8, Type 0, BuildingBlock: QUQFOY_clean_sbu_3, # of connection points: 4
#     Node 9, Type 0, BuildingBlock: QUQFOY_clean_sbu_3, # of connection points: 4
#     Node 10, Type 0, BuildingBlock: QUQFOY_clean_sbu_3, # of connection points: 4
#     Node 11, Type 0, BuildingBlock: QUQFOY_clean_sbu_3, # of connection points: 4
#     Edge 12, Type (0, 0), BuildingBlock: EYOCIG_clean_linker_4, # of connection points: 2
#     Edge 13, Type (0, 0), BuildingBlock: EYOCIG_clean_linker_4, # of connection points: 2
#     Edge 14, Type (0, 0), BuildingBlock: EYOCIG_clean_linker_4, # of connection points: 2
#     Edge 15, Type (0, 0), BuildingBlock: EYOCIG_clean_linker_4, # of connection points: 2
#     Edge 16, Type (0, 0), BuildingBlock: EYOCIG_clean_linker_4, # of connection points: 2
#     Edge 17, Type (0, 0), BuildingBlock: EYOCIG_clean_linker_4, # of connection points: 2
#     Edge 18, Type (0, 0), BuildingBlock: EYOCIG_clean_linker_4, # of connection points: 2
#     Edge 19, Type (0, 0), BuildingBlock: EYOCIG_clean_linker_4, # of connection points: 2
#     Edge 20, Type (0, 0), BuildingBlock: EYOCIG_clean_linker_4, # of connection points: 2
#     Edge 21, Type (0, 0), BuildingBlock: EYOCIG_clean_linker_4, # of connection points: 2
#     Edge 22, Type (0, 0), BuildingBlock: EYOCIG_clean_linker_4, # of connection points: 2
#     Edge 23, Type (0, 0), BuildingBlock: EYOCIG_clean_linker_4, # of connection points: 2
#     Edge 24, Type (0, 0), BuildingBlock: EYOCIG_clean_linker_4, # of connection points: 2
#     Edge 25, Type (0, 0), BuildingBlock: EYOCIG_clean_linker_4, # of connection points: 2
#     Edge 26, Type (0, 0), BuildingBlock: EYOCIG_clean_linker_4, # of connection points: 2
#     Edge 27, Type (0, 0), BuildingBlock: EYOCIG_clean_linker_4, # of connection points: 2
#     Edge 28, Type (0, 0), BuildingBlock: EYOCIG_clean_linker_4, # of connection points: 2
#     Edge 29, Type (0, 0), BuildingBlock: EYOCIG_clean_linker_4, # of connection points: 2
#     Edge 30, Type (0, 0), BuildingBlock: EYOCIG_clean_linker_4, # of connection points: 2
#     Edge 31, Type (0, 0), BuildingBlock: EYOCIG_clean_linker_4, # of connection points: 2
#     Edge 32, Type (0, 0), BuildingBlock: EYOCIG_clean_linker_4, # of connection points: 2
#     Edge 33, Type (0, 0), BuildingBlock: EYOCIG_clean_linker_4, # of connection points: 2
#     Edge 34, Type (0, 0), BuildingBlock: EYOCIG_clean_linker_4, # of connection points: 2
#     Edge 35, Type (0, 0), BuildingBlock: EYOCIG_clean_linker_4, # of connection points: 2
# Relax obj value: 0.130
# Max RMSD: 0.097
# Mean RMSD: 0.097
data_MOF--net-ukf--node1-QUQFOY_clean_sbu_3--edge1-EYOCIG_clean_linker_4
_symmetry_space_group_name_H-M    P1
_symmetry_Int_Tables_number       1
_symmetry_cell_setting            triclinic
loop_
_symmetry_equiv_pos_as_xyz
'x, y, z'
_cell_length_a     26.303956
_cell_length_b     26.306339
_cell_length_c     56.279132
_cell_angle_alpha  89.96859
_cell_angle_beta   90.014942
_cell_angle_gamma 119.91981
loop_
_atom_site_label
_atom_site_type_symbol
_atom_site_fract_x
_atom_site_fract_y
_atom_site_fract_z
_atom_type_partial_charge
C0 C 0.2702 0.11354 0.00022 0.0
O1 O 0.28232 0.15356 -0.01499 0.0
Cd2 Cd 0.35709 0.2543 -0.01036 0.0
O3 O 0.29433 0.1249 0.02059 0.0
Cd4 Cd 0.36498 0.21168 0.04351 0.0
C5 C 0.4679 0.22623 0.00393 0.0
O6 O 0.34948 0.28936 0.02764 0.0
O7 O 0.43038 0.31541 0.04683 0.0
O8 O 0.30312 0.18276 0.07909 0.0
C9 C 0.39769 0.33 0.03582 0.0
O10 O 0.44609 0.24751 -0.01048 0.0
C11 C 0.34156 0.18168 0.09239 0.0
O12 O 0.44548 0.2066 0.02429 0.0
O13 O 0.39008 0.19337 0.08301 0.0
C14 C 0.13058 0.28355 0.33394 0.0
O15 O 0.10298 0.29557 0.31853 0.0
Cd16 Cd 0.07607 0.36989 0.32262 0.0
O17 O 0.14282 0.30775 0.3543 0.0
Cd18 Cd 0.12591 0.37847 0.37684 0.0
C19 C 0.21407 0.48147 0.33715 0.0
O20 O 0.03303 0.36236 0.36049 0.0
O21 O 0.08671 0.44326 0.37981 0.0
O22 O 0.0925 0.31691 0.41252 0.0
C23 C 0.04001 0.41047 0.36854 0.0
O24 O 0.17131 0.45929 0.32261 0.0
C25 C 0.13176 0.35538 0.42584 0.0
O26 O 0.21117 0.45925 0.35757 0.0
O27 O 0.16866 0.40383 0.41645 0.0
C28 C 0.82088 0.14309 0.66746 0.0
O29 O 0.78124 0.11475 0.65218 0.0
Cd30 Cd 0.68004 0.08802 0.65629 0.0
O31 O 0.80893 0.15607 0.68768 0.0
Cd32 Cd 0.72146 0.13974 0.71016 0.0
C33 C 0.70631 0.22652 0.66982 0.0
O34 O 0.64444 0.04635 0.69437 0.0
O35 O 0.61764 0.10106 0.71325 0.0
O36 O 0.7502 0.1075 0.74601 0.0
C37 C 0.60349 0.05387 0.70231 0.0
O38 O 0.68571 0.18326 0.65555 0.0
C39 C 0.75114 0.14722 0.75912 0.0
O40 O 0.72574 0.22434 0.69031 0.0
O41 O 0.73936 0.18382 0.74953 0.0
C42 C 0.65051 0.83309 0.0005 0.0
O43 O 0.63922 0.79325 -0.01469 0.0
Cd44 Cd 0.56532 0.69212 -0.01034 0.0
O45 O 0.6258 0.82142 0.02076 0.0
Cd46 Cd 0.55495 0.73403 0.04337 0.0
C47 C 0.45304 0.7185 0.00303 0.0
O48 O 0.57221 0.65724 0.02781 0.0
O49 O 0.49038 0.63013 0.04643 0.0
O50 O 0.61515 0.76288 0.07941 0.0
C51 C 0.52393 0.61617 0.03575 0.0
O52 O 0.47564 0.69766 -0.01117 0.0
C53 C 0.57591 0.76329 0.0924 0.0
O54 O 0.47469 0.73817 0.02348 0.0
O55 O 0.5277 0.75136 0.08265 0.0
C56 C 0.79246 0.66536 0.33366 0.0
O57 O 0.8201 0.65327 0.3183 0.0
Cd58 Cd 0.84632 0.57848 0.3224 0.0
O59 O 0.77954 0.64073 0.35394 0.0
Cd60 Cd 0.79486 0.56894 0.37649 0.0
C61 C 0.70776 0.46683 0.33626 0.0
O62 O 0.88831 0.58585 0.3605 0.0
O63 O 0.83485 0.50478 0.37975 0.0
O64 O 0.82648 0.6296 0.41239 0.0
C65 C 0.88163 0.53787 0.36858 0.0
O66 O 0.75091 0.48922 0.32192 0.0
C67 C 0.78684 0.59068 0.42546 0.0
O68 O 0.71018 0.48864 0.35672 0.0
O69 O 0.75053 0.54237 0.41583 0.0
C70 C 0.10054 0.8039 0.66703 0.0
O71 O 0.14026 0.83238 0.65179 0.0
Cd72 Cd 0.24141 0.85939 0.65608 0.0
O73 O 0.11241 0.79109 0.68731 0.0
Cd74 Cd 0.19986 0.80808 0.71 0.0
C75 C 0.21482 0.72085 0.6699 0.0
O76 O 0.2764 0.90163 0.69412 0.0
O77 O 0.30383 0.84752 0.71309 0.0
O78 O 0.17032 0.84006 0.74569 0.0
C79 C 0.3176 0.89464 0.70214 0.0
O80 O 0.23549 0.76402 0.65557 0.0
C81 C 0.17008 0.80089 0.75894 0.0
O82 O 0.19552 0.72327 0.69039 0.0
O83 O 0.18257 0.76466 0.74951 0.0
C84 C 0.82075 0.66329 0.63413 0.0
O85 O 0.7813 0.6515 0.64958 0.0
Cd86 Cd 0.68006 0.57772 0.64552 0.0
O87 O 0.80858 0.63911 0.61377 0.0
Cd88 Cd 0.72064 0.56867 0.59135 0.0
C89 C 0.70581 0.46559 0.63101 0.0
O90 O 0.64446 0.58585 0.60771 0.0
O91 O 0.61659 0.50464 0.58853 0.0
O92 O 0.74904 0.62983 0.55554 0.0
C93 C 0.60308 0.53793 0.59968 0.0
O94 O 0.68544 0.48797 0.64556 0.0
C95 C 0.74916 0.59086 0.54229 0.0
O96 O 0.725 0.48771 0.61057 0.0
O97 O 0.73716 0.54235 0.55178 0.0
C98 C 0.13046 0.83381 0.96749 0.0
O99 O 0.10293 0.79433 0.98293 0.0
Cd100 Cd 0.07607 0.69313 0.97892 0.0
O101 O 0.14266 0.82169 0.94714 0.0
Cd102 Cd 0.12581 0.73403 0.92468 0.0
C103 C 0.21402 0.71922 0.96437 0.0
O104 O 0.03302 0.65734 0.94107 0.0
O105 O 0.08679 0.63013 0.92173 0.0
O106 O 0.09264 0.76227 0.88895 0.0
C107 C 0.04012 0.61623 0.93304 0.0
O108 O 0.1713 0.69877 0.97892 0.0
C109 C 0.13206 0.76305 0.87569 0.0
O110 O 0.21109 0.73848 0.94394 0.0
O111 O 0.16888 0.7514 0.88514 0.0
C112 C 0.27064 0.14358 0.30117 0.0
O113 O 0.28277 0.1159 0.3165 0.0
Cd114 Cd 0.35735 0.08939 0.3122 0.0
O115 O 0.29479 0.15602 0.2808 0.0
Cd116 Cd 0.3655 0.13941 0.2581 0.0
C117 C 0.46853 0.22766 0.2977 0.0
O118 O 0.3498 0.04656 0.27429 0.0
O119 O 0.43066 0.10068 0.25499 0.0
O120 O 0.30364 0.10582 0.22254 0.0
C121 C 0.39798 0.0538 0.26617 0.0
O122 O 0.44654 0.18482 0.31219 0.0
C123 C 0.34195 0.1451 0.20916 0.0
O124 O 0.4462 0.2248 0.2773 0.0
O125 O 0.39043 0.18213 0.21848 0.0
C126 C 0.10075 0.28338 0.63478 0.0
O127 O 0.14065 0.29554 0.65006 0.0
Cd128 Cd 0.24155 0.37012 0.64558 0.0
O129 O 0.11226 0.30749 0.6144 0.0
Cd130 Cd 0.19914 0.37821 0.59151 0.0
C131 C 0.214 0.48121 0.63115 0.0
O132 O 0.27656 0.36261 0.60758 0.0
O133 O 0.30295 0.4433 0.58818 0.0
O134 O 0.17032 0.31662 0.55585 0.0
C135 C 0.31734 0.41075 0.59941 0.0
O136 O 0.23505 0.45927 0.6456 0.0
C137 C 0.16915 0.3551 0.54261 0.0
O138 O 0.19441 0.45885 0.61079 0.0
O139 O 0.18082 0.40355 0.55204 0.0
C140 C 0.79075 0.11285 0.96754 0.0
O141 O 0.81888 0.15217 0.98295 0.0
Cd142 Cd 0.84587 0.25338 0.97911 0.0
O143 O 0.77826 0.12521 0.9473 0.0
Cd144 Cd 0.79548 0.21326 0.92499 0.0
C145 C 0.7075 0.22701 0.9651 0.0
O146 O 0.88876 0.28939 0.94124 0.0
O147 O 0.83493 0.31729 0.92234 0.0
O148 O 0.82806 0.18479 0.88917 0.0
C149 C 0.88186 0.33078 0.93338 0.0
O150 O 0.75043 0.24734 0.97954 0.0
C151 C 0.78904 0.18484 0.87592 0.0
O152 O 0.71028 0.20829 0.94455 0.0
O153 O 0.75264 0.19702 0.88541 0.0
C154 C 0.65231 0.80514 0.30116 0.0
O155 O 0.64016 0.83266 0.31655 0.0
Cd156 Cd 0.5655 0.85906 0.31249 0.0
O157 O 0.6277 0.79232 0.28088 0.0
Cd158 Cd 0.5557 0.80779 0.25853 0.0
C159 C 0.45354 0.72074 0.29873 0.0
O160 O 0.57287 0.9014 0.27445 0.0
O161 O 0.49133 0.84753 0.25557 0.0
O162 O 0.61552 0.83966 0.22239 0.0
C163 C 0.52475 0.89461 0.26648 0.0
O164 O 0.47597 0.76388 0.31306 0.0
C165 C 0.57635 0.8 0.20941 0.0
O166 O 0.4754 0.7231 0.27829 0.0
O167 O 0.52838 0.76346 0.21922 0.0
C168 C 0.17387 0.94435 0.97992 0.0
C169 C 0.15417 0.89395 0.97413 0.0
C170 C 0.20329 0.00334 -0.01268 0.0
C171 C 0.23386 0.05364 -0.00674 0.0
C172 C 0.17411 0.21652 0.32136 0.0
C173 C 0.15436 0.24717 0.32722 0.0
C174 C 0.20361 0.187 0.31391 0.0
C175 C 0.23425 0.16727 0.308 0.0
C176 C 0.93143 0.18669 0.65494 0.0
C177 C 0.88099 0.16686 0.66073 0.0
C178 C -0.00954 0.21628 0.64757 0.0
C179 C 0.04079 0.24694 0.64168 0.0
C180 C 0.71708 0.94335 -0.01241 0.0
C181 C 0.68664 0.89307 -0.00641 0.0
C182 C 0.74661 0.00224 0.98005 0.0
C183 C 0.76659 0.05264 0.97418 0.0
C184 C 0.72035 0.76274 0.3137 0.0
C185 C 0.68924 0.782 0.30787 0.0
C186 C 0.74994 0.73327 0.32109 0.0
C187 C 0.76926 0.70222 0.32691 0.0
C188 C 0.93122 0.73003 0.6467 0.0
C189 C 0.88089 0.69949 0.6408 0.0
C190 C -0.00987 0.75969 0.65421 0.0
C191 C 0.04048 0.77977 0.66016 0.0
C192 C 0.61112 0.22357 0.98007 0.0
C193 C 0.65436 0.22444 0.97261 0.0
C194 C 0.56133 0.22331 -0.0107 0.0
C195 C 0.5187 0.22384 -0.00334 0.0
C196 C 0.31025 0.57512 0.32264 0.0
C197 C 0.26711 0.5324 0.32991 0.0
C198 C 0.36 0.62485 0.31355 0.0
C199 C 0.40267 0.6679 0.30619 0.0
C200 C 0.70853 0.32226 0.65476 0.0
C201 C 0.70821 0.27929 0.66223 0.0
C202 C 0.70842 0.37192 0.64556 0.0
C203 C 0.70797 0.41464 0.63826 0.0
C204 C 0.31012 0.72138 0.97884 0.0
C205 C 0.26703 0.72114 0.97158 0.0
C206 C 0.35975 0.72114 -0.01203 0.0
C207 C 0.40231 0.72059 -0.0046 0.0
C208 C 0.56206 0.32387 0.31223 0.0
C209 C 0.51939 0.28075 0.30494 0.0
C210 C 0.61177 0.37354 0.32138 0.0
C211 C 0.65485 0.41609 0.32878 0.0
C212 C 0.21142 0.57485 0.64571 0.0
C213 C 0.21181 0.53213 0.63839 0.0
C214 C 0.21169 0.62467 0.65491 0.0
C215 C 0.21243 0.66784 0.66236 0.0
C216 C 0.32679 0.15977 0.13838 0.0
C217 C 0.33154 0.16949 0.11733 0.0
C218 C 0.3269 0.15153 0.16315 0.0
C219 C 0.33179 0.14689 0.18421 0.0
C220 C 0.13853 0.3406 0.47187 0.0
C221 C 0.13375 0.34538 0.4508 0.0
C222 C 0.14696 0.34051 0.49663 0.0
C223 C 0.15682 0.3452 0.51767 0.0
C224 C 0.78179 0.16356 0.82987 0.0
C225 C 0.78672 0.17298 0.85094 0.0
C226 C 0.77326 0.15512 0.80511 0.0
C227 C 0.76343 0.14993 0.78407 0.0
C228 C 0.58904 0.7843 0.13849 0.0
C229 C 0.58474 0.77496 0.11741 0.0
C230 C 0.58914 0.79242 0.16328 0.0
C231 C 0.58502 0.79736 0.18438 0.0
C232 C 0.77027 0.6048 0.49622 0.0
C233 C 0.76093 0.6004 0.5173 0.0
C234 C 0.77866 0.60463 0.47146 0.0
C235 C 0.78391 0.60003 0.45042 0.0
C236 C 0.13934 0.78479 0.82968 0.0
C237 C 0.13432 0.77515 0.85073 0.0
C238 C 0.14792 0.79327 0.80492 0.0
C239 C 0.15774 0.79835 0.78388 0.0
C240 C 0.47791 0.50393 0.02725 0.0
C241 C 0.50312 0.55612 0.03007 0.0
C242 C 0.44498 0.4424 0.02727 0.0
C243 C 0.41937 0.39021 0.03012 0.0
C244 C 0.94696 0.49113 0.35937 0.0
C245 C 0.92035 0.51667 0.36246 0.0
C246 C -0.02479 0.45782 0.35934 0.0
C247 C 0.00156 0.43202 0.36242 0.0
C248 C 0.49129 -0.01114 0.69344 0.0
C249 C 0.54344 0.01533 0.69642 0.0
C250 C 0.42976 0.96044 0.69339 0.0
C251 C 0.37759 0.93364 0.6963 0.0
C252 C 0.49104 0.49178 0.60862 0.0
C253 C 0.5432 0.51715 0.60568 0.0
C254 C 0.42953 0.45854 0.60852 0.0
C255 C 0.37741 0.43267 0.60545 0.0
C256 C -0.02434 0.50424 0.94239 0.0
C257 C 0.00188 0.55632 0.93924 0.0
C258 C 0.94746 0.44273 0.94246 0.0
C259 C 0.92081 0.39062 0.93943 0.0
C260 C 0.47862 0.96063 0.27531 0.0
C261 C 0.50393 0.93375 0.27237 0.0
C262 C 0.44548 -0.01094 0.27524 0.0
C263 C 0.41971 0.01545 0.27219 0.0
loop_
_geom_bond_atom_site_label_1
_geom_bond_atom_site_label_2
_geom_bond_distance
_geom_bond_site_symmetry_2
_ccdc_geom_bond_type
C0 O1 1.306 . S
C0 O3 1.160 . S
O1 C0 1.306 . S
O1 Cd2 2.228 1_554 S
Cd2 O1 2.228 1_556 S
Cd2 O6 2.273 1_556 S
Cd2 O10 2.277 1_556 S
O3 C0 1.160 . S
O3 Cd4 2.203 . S
Cd4 O3 2.203 . S
Cd4 O6 2.411 . S
Cd4 O7 2.333 . S
Cd4 O8 2.352 . S
Cd4 O12 2.277 . S
Cd4 O13 2.356 . S
C5 O10 1.209 . S
C5 O12 1.226 . S
O6 Cd2 2.273 1_554 S
O6 Cd4 2.411 . S
O6 C9 1.320 . S
O7 Cd4 2.333 . S
O7 C9 1.214 . S
O8 Cd4 2.352 . S
O8 C11 1.258 . S
C9 O6 1.320 . S
C9 O7 1.214 . S
O10 Cd2 2.277 1_554 S
O10 C5 1.209 . S
C11 O8 1.258 . S
C11 O13 1.282 . S
O12 Cd4 2.277 . S
O12 C5 1.226 . S
O13 Cd4 2.356 . S
O13 C11 1.282 . S
C14 O15 1.306 . S
C14 O17 1.160 . S
O15 C14 1.306 . S
O15 Cd16 2.228 . S
Cd16 O15 2.228 . S
Cd16 O20 2.273 . S
Cd16 O24 2.277 . S
O17 C14 1.160 . S
O17 Cd18 2.203 . S
Cd18 O17 2.203 . S
Cd18 O20 2.411 . S
Cd18 O21 2.333 . S
Cd18 O22 2.352 . S
Cd18 O26 2.277 . S
Cd18 O27 2.356 . S
C19 O24 1.209 . S
C19 O26 1.226 . S
O20 Cd16 2.273 . S
O20 Cd18 2.411 . S
O20 C23 1.320 . S
O21 Cd18 2.333 . S
O21 C23 1.214 . S
O22 Cd18 2.352 . S
O22 C25 1.258 . S
C23 O20 1.320 . S
C23 O21 1.214 . S
O24 Cd16 2.277 . S
O24 C19 1.209 . S
C25 O22 1.258 . S
C25 O27 1.282 . S
O26 Cd18 2.277 . S
O26 C19 1.226 . S
O27 Cd18 2.356 . S
O27 C25 1.282 . S
C28 O29 1.306 . S
C28 O31 1.160 . S
O29 C28 1.306 . S
O29 Cd30 2.228 . S
Cd30 O29 2.228 . S
Cd30 O34 2.273 . S
Cd30 O38 2.277 . S
O31 C28 1.160 . S
O31 Cd32 2.203 . S
Cd32 O31 2.203 . S
Cd32 O34 2.411 . S
Cd32 O35 2.333 . S
Cd32 O36 2.352 . S
Cd32 O40 2.277 . S
Cd32 O41 2.356 . S
C33 O38 1.209 . S
C33 O40 1.226 . S
O34 Cd30 2.273 . S
O34 Cd32 2.411 . S
O34 C37 1.320 . S
O35 Cd32 2.333 . S
O35 C37 1.214 . S
O36 Cd32 2.352 . S
O36 C39 1.258 . S
C37 O34 1.320 . S
C37 O35 1.214 . S
O38 Cd30 2.277 . S
O38 C33 1.209 . S
C39 O36 1.258 . S
C39 O41 1.282 . S
O40 Cd32 2.277 . S
O40 C33 1.226 . S
O41 Cd32 2.356 . S
O41 C39 1.282 . S
C42 O43 1.306 . S
C42 O45 1.160 . S
O43 C42 1.306 . S
O43 Cd44 2.228 1_554 S
Cd44 O43 2.228 1_556 S
Cd44 O48 2.273 1_556 S
Cd44 O52 2.277 1_556 S
O45 C42 1.160 . S
O45 Cd46 2.203 . S
Cd46 O45 2.203 . S
Cd46 O48 2.411 . S
Cd46 O49 2.333 . S
Cd46 O50 2.352 . S
Cd46 O54 2.277 . S
Cd46 O55 2.356 . S
C47 O52 1.209 . S
C47 O54 1.226 . S
O48 Cd44 2.273 1_554 S
O48 Cd46 2.411 . S
O48 C51 1.320 . S
O49 Cd46 2.333 . S
O49 C51 1.214 . S
O50 Cd46 2.352 . S
O50 C53 1.258 . S
C51 O48 1.320 . S
C51 O49 1.214 . S
O52 Cd44 2.277 1_554 S
O52 C47 1.209 . S
C53 O50 1.258 . S
C53 O55 1.282 . S
O54 Cd46 2.277 . S
O54 C47 1.226 . S
O55 Cd46 2.356 . S
O55 C53 1.282 . S
C56 O57 1.306 . S
C56 O59 1.160 . S
O57 C56 1.306 . S
O57 Cd58 2.228 . S
Cd58 O57 2.228 . S
Cd58 O62 2.273 . S
Cd58 O66 2.277 . S
O59 C56 1.160 . S
O59 Cd60 2.203 . S
Cd60 O59 2.203 . S
Cd60 O62 2.411 . S
Cd60 O63 2.333 . S
Cd60 O64 2.352 . S
Cd60 O68 2.277 . S
Cd60 O69 2.356 . S
C61 O66 1.209 . S
C61 O68 1.226 . S
O62 Cd58 2.273 . S
O62 Cd60 2.411 . S
O62 C65 1.320 . S
O63 Cd60 2.333 . S
O63 C65 1.214 . S
O64 Cd60 2.352 . S
O64 C67 1.258 . S
C65 O62 1.320 . S
C65 O63 1.214 . S
O66 Cd58 2.277 . S
O66 C61 1.209 . S
C67 O64 1.258 . S
C67 O69 1.282 . S
O68 Cd60 2.277 . S
O68 C61 1.226 . S
O69 Cd60 2.356 . S
O69 C67 1.282 . S
C70 O71 1.306 . S
C70 O73 1.160 . S
O71 C70 1.306 . S
O71 Cd72 2.228 . S
Cd72 O71 2.228 . S
Cd72 O76 2.273 . S
Cd72 O80 2.277 . S
O73 C70 1.160 . S
O73 Cd74 2.203 . S
Cd74 O73 2.203 . S
Cd74 O76 2.411 . S
Cd74 O77 2.333 . S
Cd74 O78 2.352 . S
Cd74 O82 2.277 . S
Cd74 O83 2.356 . S
C75 O80 1.209 . S
C75 O82 1.226 . S
O76 Cd72 2.273 . S
O76 Cd74 2.411 . S
O76 C79 1.320 . S
O77 Cd74 2.333 . S
O77 C79 1.214 . S
O78 Cd74 2.352 . S
O78 C81 1.258 . S
C79 O76 1.320 . S
C79 O77 1.214 . S
O80 Cd72 2.277 . S
O80 C75 1.209 . S
C81 O78 1.258 . S
C81 O83 1.282 . S
O82 Cd74 2.277 . S
O82 C75 1.226 . S
O83 Cd74 2.356 . S
O83 C81 1.282 . S
C84 O85 1.306 . S
C84 O87 1.160 . S
O85 C84 1.306 . S
O85 Cd86 2.228 . S
Cd86 O85 2.228 . S
Cd86 O90 2.273 . S
Cd86 O94 2.277 . S
O87 C84 1.160 . S
O87 Cd88 2.203 . S
Cd88 O87 2.203 . S
Cd88 O90 2.411 . S
Cd88 O91 2.333 . S
Cd88 O92 2.352 . S
Cd88 O96 2.277 . S
Cd88 O97 2.356 . S
C89 O94 1.209 . S
C89 O96 1.226 . S
O90 Cd86 2.273 . S
O90 Cd88 2.411 . S
O90 C93 1.320 . S
O91 Cd88 2.333 . S
O91 C93 1.214 . S
O92 Cd88 2.352 . S
O92 C95 1.258 . S
C93 O90 1.320 . S
C93 O91 1.214 . S
O94 Cd86 2.277 . S
O94 C89 1.209 . S
C95 O92 1.258 . S
C95 O97 1.282 . S
O96 Cd88 2.277 . S
O96 C89 1.226 . S
O97 Cd88 2.356 . S
O97 C95 1.282 . S
C98 O99 1.306 . S
C98 O101 1.160 . S
O99 C98 1.306 . S
O99 Cd100 2.228 1_556 S
Cd100 O99 2.228 1_554 S
Cd100 O104 2.273 1_554 S
Cd100 O108 2.277 1_554 S
O101 C98 1.160 . S
O101 Cd102 2.203 . S
Cd102 O101 2.203 . S
Cd102 O104 2.411 . S
Cd102 O105 2.333 . S
Cd102 O106 2.352 . S
Cd102 O110 2.277 . S
Cd102 O111 2.356 . S
C103 O108 1.209 . S
C103 O110 1.226 . S
O104 Cd100 2.273 1_556 S
O104 Cd102 2.411 . S
O104 C107 1.320 . S
O105 Cd102 2.333 . S
O105 C107 1.214 . S
O106 Cd102 2.352 . S
O106 C109 1.258 . S
C107 O104 1.320 . S
C107 O105 1.214 . S
O108 Cd100 2.277 1_556 S
O108 C103 1.209 . S
C109 O106 1.258 . S
C109 O111 1.282 . S
O110 Cd102 2.277 . S
O110 C103 1.226 . S
O111 Cd102 2.356 . S
O111 C109 1.282 . S
C112 O113 1.306 . S
C112 O115 1.160 . S
O113 C112 1.306 . S
O113 Cd114 2.228 . S
Cd114 O113 2.228 . S
Cd114 O118 2.273 . S
Cd114 O122 2.277 . S
O115 C112 1.160 . S
O115 Cd116 2.203 . S
Cd116 O115 2.203 . S
Cd116 O118 2.411 . S
Cd116 O119 2.333 . S
Cd116 O120 2.352 . S
Cd116 O124 2.277 . S
Cd116 O125 2.356 . S
C117 O122 1.209 . S
C117 O124 1.226 . S
O118 Cd114 2.273 . S
O118 Cd116 2.411 . S
O118 C121 1.320 . S
O119 Cd116 2.333 . S
O119 C121 1.214 . S
O120 Cd116 2.352 . S
O120 C123 1.258 . S
C121 O118 1.320 . S
C121 O119 1.214 . S
O122 Cd114 2.277 . S
O122 C117 1.209 . S
C123 O120 1.258 . S
C123 O125 1.282 . S
O124 Cd116 2.277 . S
O124 C117 1.226 . S
O125 Cd116 2.356 . S
O125 C123 1.282 . S
C126 O127 1.306 . S
C126 O129 1.160 . S
O127 C126 1.306 . S
O127 Cd128 2.228 . S
Cd128 O127 2.228 . S
Cd128 O132 2.273 . S
Cd128 O136 2.277 . S
O129 C126 1.160 . S
O129 Cd130 2.203 . S
Cd130 O129 2.203 . S
Cd130 O132 2.411 . S
Cd130 O133 2.333 . S
Cd130 O134 2.352 . S
Cd130 O138 2.277 . S
Cd130 O139 2.356 . S
C131 O136 1.209 . S
C131 O138 1.226 . S
O132 Cd128 2.273 . S
O132 Cd130 2.411 . S
O132 C135 1.320 . S
O133 Cd130 2.333 . S
O133 C135 1.214 . S
O134 Cd130 2.352 . S
O134 C137 1.258 . S
C135 O132 1.320 . S
C135 O133 1.214 . S
O136 Cd128 2.277 . S
O136 C131 1.209 . S
C137 O134 1.258 . S
C137 O139 1.282 . S
O138 Cd130 2.277 . S
O138 C131 1.226 . S
O139 Cd130 2.356 . S
O139 C137 1.282 . S
C140 O141 1.306 . S
C140 O143 1.160 . S
O141 C140 1.306 . S
O141 Cd142 2.228 1_556 S
Cd142 O141 2.228 1_554 S
Cd142 O146 2.273 1_554 S
Cd142 O150 2.277 1_554 S
O143 C140 1.160 . S
O143 Cd144 2.203 . S
Cd144 O143 2.203 . S
Cd144 O146 2.411 . S
Cd144 O147 2.333 . S
Cd144 O148 2.352 . S
Cd144 O152 2.277 . S
Cd144 O153 2.356 . S
C145 O150 1.209 . S
C145 O152 1.226 . S
O146 Cd142 2.273 1_556 S
O146 Cd144 2.411 . S
O146 C149 1.320 . S
O147 Cd144 2.333 . S
O147 C149 1.214 . S
O148 Cd144 2.352 . S
O148 C151 1.258 . S
C149 O146 1.320 . S
C149 O147 1.214 . S
O150 Cd142 2.277 1_556 S
O150 C145 1.209 . S
C151 O148 1.258 . S
C151 O153 1.282 . S
O152 Cd144 2.277 . S
O152 C145 1.226 . S
O153 Cd144 2.356 . S
O153 C151 1.282 . S
C154 O155 1.306 . S
C154 O157 1.160 . S
O155 C154 1.306 . S
O155 Cd156 2.228 . S
Cd156 O155 2.228 . S
Cd156 O160 2.273 . S
Cd156 O164 2.277 . S
O157 C154 1.160 . S
O157 Cd158 2.203 . S
Cd158 O157 2.203 . S
Cd158 O160 2.411 . S
Cd158 O161 2.333 . S
Cd158 O162 2.352 . S
Cd158 O166 2.277 . S
Cd158 O167 2.356 . S
C159 O164 1.209 . S
C159 O166 1.226 . S
O160 Cd156 2.273 . S
O160 Cd158 2.411 . S
O160 C163 1.320 . S
O161 Cd158 2.333 . S
O161 C163 1.214 . S
O162 Cd158 2.352 . S
O162 C165 1.258 . S
C163 O160 1.320 . S
C163 O161 1.214 . S
O164 Cd156 2.277 . S
O164 C159 1.209 . S
C165 O162 1.258 . S
C165 O167 1.282 . S
O166 Cd158 2.277 . S
O166 C159 1.226 . S
O167 Cd158 2.356 . S
O167 C165 1.282 . S
C168 C169 1.170 . S
C168 C170 1.380 1_566 S
C169 C168 1.170 . S
C170 C168 1.380 1_544 S
C170 C171 1.170 . S
C171 C170 1.170 . S
C172 C173 1.170 . S
C172 C174 1.380 . S
C173 C172 1.170 . S
C174 C172 1.380 . S
C174 C175 1.170 . S
C175 C174 1.170 . S
C176 C177 1.170 . S
C176 C178 1.380 1_655 S
C177 C176 1.170 . S
C178 C176 1.380 1_455 S
C178 C179 1.170 . S
C179 C178 1.170 . S
C180 C181 1.170 . S
C180 C182 1.380 1_564 S
C181 C180 1.170 . S
C182 C180 1.380 1_546 S
C182 C183 1.170 . S
C183 C182 1.170 . S
C184 C185 1.170 . S
C184 C186 1.380 . S
C185 C184 1.170 . S
C186 C184 1.380 . S
C186 C187 1.170 . S
C187 C186 1.170 . S
C188 C189 1.170 . S
C188 C190 1.380 1_655 S
C189 C188 1.170 . S
C190 C188 1.380 1_455 S
C190 C191 1.170 . S
C191 C190 1.170 . S
C192 C193 1.170 . S
C192 C194 1.380 1_556 S
C193 C192 1.170 . S
C194 C192 1.380 1_554 S
C194 C195 1.170 . S
C195 C194 1.170 . S
C196 C197 1.170 . S
C196 C198 1.380 . S
C197 C196 1.170 . S
C198 C196 1.380 . S
C198 C199 1.170 . S
C199 C198 1.170 . S
C200 C201 1.170 . S
C200 C202 1.380 . S
C201 C200 1.170 . S
C202 C200 1.380 . S
C202 C203 1.170 . S
C203 C202 1.170 . S
C204 C205 1.170 . S
C204 C206 1.380 1_556 S
C205 C204 1.170 . S
C206 C204 1.380 1_554 S
C206 C207 1.170 . S
C207 C206 1.170 . S
C208 C209 1.170 . S
C208 C210 1.380 . S
C209 C208 1.170 . S
C210 C208 1.380 . S
C210 C211 1.170 . S
C211 C210 1.170 . S
C212 C213 1.170 . S
C212 C214 1.380 . S
C213 C212 1.170 . S
C214 C212 1.380 . S
C214 C215 1.170 . S
C215 C214 1.170 . S
C216 C217 1.170 . S
C216 C218 1.380 . S
C217 C216 1.170 . S
C218 C216 1.380 . S
C218 C219 1.170 . S
C219 C218 1.170 . S
C220 C221 1.170 . S
C220 C222 1.380 . S
C221 C220 1.170 . S
C222 C220 1.380 . S
C222 C223 1.170 . S
C223 C222 1.170 . S
C224 C225 1.170 . S
C224 C226 1.380 . S
C225 C224 1.170 . S
C226 C224 1.380 . S
C226 C227 1.170 . S
C227 C226 1.170 . S
C228 C229 1.170 . S
C228 C230 1.380 . S
C229 C228 1.170 . S
C230 C228 1.380 . S
C230 C231 1.170 . S
C231 C230 1.170 . S
C232 C233 1.170 . S
C232 C234 1.380 . S
C233 C232 1.170 . S
C234 C232 1.380 . S
C234 C235 1.170 . S
C235 C234 1.170 . S
C236 C237 1.170 . S
C236 C238 1.380 . S
C237 C236 1.170 . S
C238 C236 1.380 . S
C238 C239 1.170 . S
C239 C238 1.170 . S
C240 C241 1.170 . S
C240 C242 1.380 . S
C241 C240 1.170 . S
C242 C240 1.380 . S
C242 C243 1.170 . S
C243 C242 1.170 . S
C244 C245 1.170 . S
C244 C246 1.380 1_655 S
C245 C244 1.170 . S
C246 C244 1.380 1_455 S
C246 C247 1.170 . S
C247 C246 1.170 . S
C248 C249 1.170 . S
C248 C250 1.380 1_545 S
C249 C248 1.170 . S
C250 C248 1.380 1_565 S
C250 C251 1.170 . S
C251 C250 1.170 . S
C252 C253 1.170 . S
C252 C254 1.380 . S
C253 C252 1.170 . S
C254 C252 1.380 . S
C254 C255 1.170 . S
C255 C254 1.170 . S
C256 C257 1.170 . S
C256 C258 1.380 1_455 S
C257 C256 1.170 . S
C258 C256 1.380 1_655 S
C258 C259 1.170 . S
C259 C258 1.170 . S
C260 C261 1.170 . S
C260 C262 1.380 1_565 S
C261 C260 1.170 . S
C262 C260 1.380 1_545 S
C262 C263 1.170 . S
C263 C262 1.170 . S
C169 C98 1.413 . S
C171 C0 1.397 . S
C173 C14 1.403 . S
C175 C112 1.403 . S
C177 C28 1.414 . S
C179 C126 1.397 . S
C181 C42 1.399 . S
C183 C140 1.408 . S
C185 C154 1.424 . S
C187 C56 1.424 . S
C189 C84 1.409 . S
C191 C70 1.398 . S
C193 C145 1.459 . S
C195 C5 1.441 . S
C197 C19 1.447 . S
C199 C159 1.456 . S
C201 C33 1.458 . S
C203 C89 1.444 . S
C205 C103 1.445 . S
C207 C47 1.458 . S
C209 C117 1.443 . S
C211 C61 1.459 . S
C213 C131 1.442 . S
C215 C75 1.460 . S
C217 C11 1.686 . S
C219 C123 1.693 . S
C221 C25 1.693 . S
C223 C137 1.682 . S
C225 C151 1.693 . S
C227 C39 1.680 . S
C229 C53 1.671 . S
C231 C165 1.677 . S
C233 C95 1.693 . S
C235 C67 1.681 . S
C237 C109 1.690 . S
C239 C81 1.690 . S
C241 C51 1.421 . S
C243 C9 1.407 . S
C245 C65 1.450 . S
C247 C23 1.424 . S
C249 C37 1.408 . S
C251 C79 1.442 . S
C253 C93 1.445 . S
C255 C135 1.411 . S
C257 C107 1.423 . S
C259 C149 1.450 . S
C261 C163 1.442 . S
C263 C121 1.409 . S
