# Generated by pormake.
# Topology uob, (4)-cn, num edge types: 1
# Building blocks:
#     Node 0, Type 0, BuildingBlock: QUQFOY_clean_sbu_1, # of connection points: 4
#     Node 1, Type 0, BuildingBlock: QUQFOY_clean_sbu_1, # of connection points: 4
#     Node 2, Type 0, BuildingBlock: QUQFOY_clean_sbu_1, # of connection points: 4
#     Node 3, Type 0, BuildingBlock: QUQFOY_clean_sbu_1, # of connection points: 4
#     Node 4, Type 0, BuildingBlock: QUQFOY_clean_sbu_1, # of connection points: 4
#     Node 5, Type 0, BuildingBlock: QUQFOY_clean_sbu_1, # of connection points: 4
#     Node 6, Type 0, BuildingBlock: QUQFOY_clean_sbu_1, # of connection points: 4
#     Node 7, Type 0, BuildingBlock: QUQFOY_clean_sbu_1, # of connection points: 4
#     Node 8, Type 0, BuildingBlock: QUQFOY_clean_sbu_1, # of connection points: 4
#     Node 9, Type 0, BuildingBlock: QUQFOY_clean_sbu_1, # of connection points: 4
#     Node 10, Type 0, BuildingBlock: QUQFOY_clean_sbu_1, # of connection points: 4
#     Node 11, Type 0, BuildingBlock: QUQFOY_clean_sbu_1, # of connection points: 4
#     Node 12, Type 0, BuildingBlock: QUQFOY_clean_sbu_1, # of connection points: 4
#     Node 13, Type 0, BuildingBlock: QUQFOY_clean_sbu_1, # of connection points: 4
#     Node 14, Type 0, BuildingBlock: QUQFOY_clean_sbu_1, # of connection points: 4
#     Node 15, Type 0, BuildingBlock: QUQFOY_clean_sbu_1, # of connection points: 4
#     Edge 16, Type (0, 0), BuildingBlock: EZIPEK_clean_linker_0, # of connection points: 2
#     Edge 17, Type (0, 0), BuildingBlock: EZIPEK_clean_linker_0, # of connection points: 2
#     Edge 18, Type (0, 0), BuildingBlock: EZIPEK_clean_linker_0, # of connection points: 2
#     Edge 19, Type (0, 0), BuildingBlock: EZIPEK_clean_linker_0, # of connection points: 2
#     Edge 20, Type (0, 0), BuildingBlock: EZIPEK_clean_linker_0, # of connection points: 2
#     Edge 21, Type (0, 0), BuildingBlock: EZIPEK_clean_linker_0, # of connection points: 2
#     Edge 22, Type (0, 0), BuildingBlock: EZIPEK_clean_linker_0, # of connection points: 2
#     Edge 23, Type (0, 0), BuildingBlock: EZIPEK_clean_linker_0, # of connection points: 2
#     Edge 24, Type (0, 0), BuildingBlock: EZIPEK_clean_linker_0, # of connection points: 2
#     Edge 25, Type (0, 0), BuildingBlock: EZIPEK_clean_linker_0, # of connection points: 2
#     Edge 26, Type (0, 0), BuildingBlock: EZIPEK_clean_linker_0, # of connection points: 2
#     Edge 27, Type (0, 0), BuildingBlock: EZIPEK_clean_linker_0, # of connection points: 2
#     Edge 28, Type (0, 0), BuildingBlock: EZIPEK_clean_linker_0, # of connection points: 2
#     Edge 29, Type (0, 0), BuildingBlock: EZIPEK_clean_linker_0, # of connection points: 2
#     Edge 30, Type (0, 0), BuildingBlock: EZIPEK_clean_linker_0, # of connection points: 2
#     Edge 31, Type (0, 0), BuildingBlock: EZIPEK_clean_linker_0, # of connection points: 2
#     Edge 32, Type (0, 0), BuildingBlock: EZIPEK_clean_linker_0, # of connection points: 2
#     Edge 33, Type (0, 0), BuildingBlock: EZIPEK_clean_linker_0, # of connection points: 2
#     Edge 34, Type (0, 0), BuildingBlock: EZIPEK_clean_linker_0, # of connection points: 2
#     Edge 35, Type (0, 0), BuildingBlock: EZIPEK_clean_linker_0, # of connection points: 2
#     Edge 36, Type (0, 0), BuildingBlock: EZIPEK_clean_linker_0, # of connection points: 2
#     Edge 37, Type (0, 0), BuildingBlock: EZIPEK_clean_linker_0, # of connection points: 2
#     Edge 38, Type (0, 0), BuildingBlock: EZIPEK_clean_linker_0, # of connection points: 2
#     Edge 39, Type (0, 0), BuildingBlock: EZIPEK_clean_linker_0, # of connection points: 2
#     Edge 40, Type (0, 0), BuildingBlock: EZIPEK_clean_linker_0, # of connection points: 2
#     Edge 41, Type (0, 0), BuildingBlock: EZIPEK_clean_linker_0, # of connection points: 2
#     Edge 42, Type (0, 0), BuildingBlock: EZIPEK_clean_linker_0, # of connection points: 2
#     Edge 43, Type (0, 0), BuildingBlock: EZIPEK_clean_linker_0, # of connection points: 2
#     Edge 44, Type (0, 0), BuildingBlock: EZIPEK_clean_linker_0, # of connection points: 2
#     Edge 45, Type (0, 0), BuildingBlock: EZIPEK_clean_linker_0, # of connection points: 2
#     Edge 46, Type (0, 0), BuildingBlock: EZIPEK_clean_linker_0, # of connection points: 2
#     Edge 47, Type (0, 0), BuildingBlock: EZIPEK_clean_linker_0, # of connection points: 2
# Relax obj value: 0.039
# Max RMSD: 0.118
# Mean RMSD: 0.118
data_MOF--net-uob--node1-QUQFOY_clean_sbu_1--edge1-EZIPEK_clean_linker_0
_symmetry_space_group_name_H-M    P1
_symmetry_Int_Tables_number       1
_symmetry_cell_setting            triclinic
loop_
_symmetry_equiv_pos_as_xyz
'x, y, z'
_cell_length_a     41.335078
_cell_length_b     41.202428
_cell_length_c     20.782925
_cell_angle_alpha  90.28707
_cell_angle_beta   90.109242
_cell_angle_gamma 90.11774
loop_
_atom_site_label
_atom_site_type_symbol
_atom_site_fract_x
_atom_site_fract_y
_atom_site_fract_z
_atom_type_partial_charge
O0 O 0.13391 0.09665 0.45335 0.0
Cd1 Cd 0.13954 0.05686 0.39558 0.0
Cd2 Cd 0.11698 0.1056 0.30914 0.0
O3 O 0.13066 0.13668 0.38347 0.0
O4 O 0.16837 0.03011 0.4522 0.0
O5 O 0.18413 0.05037 0.35896 0.0
C6 C 0.19156 0.03654 0.41277 0.0
C7 C 0.12437 0.1185 0.20063 0.0
C8 C 0.13331 0.12676 0.44107 0.0
C9 C 0.07307 0.048 0.34479 0.0
O10 O 0.07645 0.07658 0.32284 0.0
O11 O 0.09678 0.0331 0.37067 0.0
O12 O 0.10329 0.13348 0.23527 0.0
O13 O 0.14307 0.09776 0.22856 0.0
O14 O 0.9491 0.63115 0.69172 0.0
Cd15 Cd 0.98576 0.64082 0.63019 0.0
Cd16 Cd 0.93724 0.62524 0.54639 0.0
O17 O 0.90999 0.64257 0.62294 0.0
O18 O 0.01625 0.66911 0.68054 0.0
O19 O 0.98384 0.68704 0.6038 0.0
C20 C 1.0031 0.69338 0.65151 0.0
C21 C 0.92475 0.63494 0.43864 0.0
C22 C 0.91987 0.63848 0.68032 0.0
C23 C 0.99114 0.57714 0.57176 0.0
O24 O 0.96156 0.58168 0.55784 0.0
O25 O 1.00858 0.60041 0.59274 0.0
O26 O 0.90793 0.61494 0.47244 0.0
O27 O 0.94696 0.65171 0.46753 0.0
O28 O 0.39348 0.4564 0.95098 0.0
Cd29 Cd 0.38289 0.4868 0.87682 0.0
Cd30 Cd 0.40324 0.43548 0.81488 0.0
O31 O 0.38057 0.41362 0.89364 0.0
O32 O 0.34888 0.5149 0.91544 0.0
O33 O 0.33964 0.48 0.83562 0.0
C34 C 0.32846 0.4991 0.87996 0.0
C35 C 0.40133 0.41681 0.70867 0.0
C36 C 0.38481 0.42693 0.94839 0.0
C37 C 0.44756 0.4931 0.8335 0.0
O38 O 0.4452 0.46231 0.83115 0.0
O39 O 0.42245 0.51057 0.84065 0.0
O40 O 0.41668 0.4009 0.75244 0.0
O41 O 0.38434 0.44159 0.72639 0.0
O42 O 0.58319 0.88632 0.15668 0.0
Cd43 Cd 0.54667 0.87767 0.09309 0.0
Cd44 Cd 0.59885 0.89806 1.01649 0.0
O45 O 0.62722 0.89151 0.0974 0.0
O46 O 0.51482 0.85606 0.15212 0.0
O47 O 0.53938 0.82989 0.07332 0.0
C48 C 0.52155 0.82891 0.12427 0.0
C49 C 0.61257 0.88082 0.91278 0.0
C50 C 0.6136 0.88936 0.15202 0.0
C51 C 0.54194 0.94392 0.03677 0.0
O52 O 0.57103 0.93953 0.01932 0.0
O53 O 0.52545 0.92081 0.06124 0.0
O54 O 0.62658 0.90549 0.93932 0.0
O55 O 0.59243 0.86435 0.94724 0.0
O56 O 0.12986 0.45412 0.89263 0.0
Cd57 Cd 0.14004 0.48497 0.9673 0.0
Cd58 Cd 0.12251 0.4331 0.02904 0.0
O59 O 0.1443 0.41169 0.94869 0.0
O60 O 0.17371 0.51378 0.92959 0.0
O61 O 0.1834 0.47869 1.0081 0.0
C62 C 0.19434 0.49811 0.96439 0.0
C63 C 0.12912 0.41702 0.13541 0.0
C64 C 0.13956 0.42498 0.89437 0.0
C65 C 0.07604 0.48917 1.01625 0.0
O66 O 0.07945 0.45848 1.01741 0.0
O67 O 0.10032 0.50752 1.00652 0.0
O68 O 0.11174 0.40009 0.09598 0.0
O69 O 0.14525 0.44139 0.11297 0.0
O70 O 0.57814 0.64923 0.18712 0.0
Cd71 Cd 0.53866 0.65098 0.24495 0.0
Cd72 Cd 0.58883 0.63016 0.33116 0.0
O73 O 0.61776 0.64873 0.25841 0.0
O74 O 0.50847 0.67767 0.1909 0.0
O75 O 0.529 0.69513 0.28213 0.0
C76 C 0.51219 0.70133 0.23112 0.0
C77 C 0.60459 0.6343 0.43944 0.0
C78 C 0.60797 0.65138 0.20065 0.0
C79 C 0.53508 0.58268 0.28878 0.0
O80 O 0.56317 0.58773 0.31193 0.0
O81 O 0.51842 0.60589 0.26548 0.0
O82 O 0.6194 0.61534 0.39993 0.0
O83 O 0.58173 0.65238 0.41713 0.0
O84 O 0.39093 0.06372 0.43755 0.0
Cd85 Cd 0.37845 0.03983 0.51921 0.0
Cd86 Cd 0.407 0.0946 0.5666 0.0
O87 O 0.39884 0.1132 0.47564 0.0
O88 O 0.34426 1.00964 0.48504 0.0
O89 O 0.33392 0.05095 0.55056 0.0
C90 C 0.32335 0.02857 0.51187 0.0
C91 C 0.40065 0.12569 0.66165 0.0
C92 C 0.3959 0.09371 0.42834 0.0
C93 C 0.44419 0.03119 0.57017 0.0
O94 O 0.44469 0.06201 0.57032 0.0
O95 O 0.41773 0.01579 0.56054 0.0
O96 O 0.42335 0.13128 0.62084 0.0
O97 O 0.38058 0.10273 0.64693 0.0
O98 O 0.96491 0.89962 0.66295 0.0
Cd99 Cd 0.99073 0.88393 0.74085 0.0
Cd100 Cd 0.93845 0.90028 0.79019 0.0
O101 O 0.92262 0.87695 0.70537 0.0
O102 O 0.0196 0.84904 0.70631 0.0
O103 O 0.97923 0.83929 0.7738 0.0
C104 C 1.00155 0.82829 0.73598 0.0
C105 C 0.91926 0.89618 0.89499 0.0
C106 C 0.93747 0.88664 0.65532 0.0
C107 C 0.99352 0.94729 0.78902 0.0
O108 O 0.96327 0.94381 0.77985 0.0
O109 O 1.01196 0.92255 0.78839 0.0
O110 O 0.90258 0.9108 0.85125 0.0
O111 O 0.94493 0.88057 0.87753 0.0
O112 O 0.62886 0.588 0.95913 0.0
Cd113 Cd 0.6404 0.55613 0.88724 0.0
Cd114 Cd 0.62003 0.60604 0.82175 0.0
O115 O 0.63967 0.63081 0.90075 0.0
O116 O 0.67335 0.52872 0.93071 0.0
O117 O 0.68453 0.56123 0.84882 0.0
C118 C 0.69463 0.54314 0.89545 0.0
C119 C 0.62553 0.62034 0.7141 0.0
C120 C 0.63581 0.6179 0.95571 0.0
C121 C 0.57649 0.54767 0.83975 0.0
O122 O 0.5785 0.5784 0.83544 0.0
O123 O 0.6016 0.53079 0.85082 0.0
O124 O 0.60696 0.63668 0.75207 0.0
O125 O 0.64348 0.59788 0.73868 0.0
O126 O 0.46031 0.12987 0.16941 0.0
Cd127 Cd 0.4912 0.143 0.09805 0.0
Cd128 Cd 0.43909 0.11974 0.03249 0.0
O129 O 0.41377 0.12551 0.11753 0.0
O130 O 0.52052 0.17451 0.14427 0.0
O131 O 0.48553 0.18916 0.06901 0.0
C132 C 0.50557 0.19737 0.11419 0.0
C133 C 0.42165 0.13553 0.93053 0.0
C134 C 0.42983 0.12636 0.16978 0.0
C135 C 0.49944 0.07798 0.04123 0.0
O136 O 0.46919 0.07995 0.03143 0.0
O137 O 0.51557 0.10276 0.06019 0.0
O138 O 0.40924 0.11067 0.95888 0.0
O139 O 0.44207 0.15312 0.96258 0.0
O140 O 0.88916 0.93952 0.42354 0.0
Cd141 Cd 0.87762 0.98006 0.37344 0.0
Cd142 Cd 0.90451 0.93486 0.2776 0.0
O143 O 0.89481 0.90139 0.34912 0.0
O144 O 0.85067 1.00337 0.43973 0.0
O145 O 0.83071 0.98412 0.34838 0.0
C146 C 0.82576 0.99662 0.40471 0.0
C147 C 0.90109 0.92 0.16812 0.0
C148 C 0.89296 0.91004 0.40781 0.0
C149 C 0.94324 0.99476 0.32533 0.0
O150 O 0.94195 0.96693 0.29847 0.0
O151 O 0.91825 1.00748 0.35113 0.0
O152 O 0.92303 0.9082 0.20515 0.0
O153 O 0.88007 0.93939 0.19333 0.0
O154 O 0.08919 0.38421 0.66207 0.0
Cd155 Cd 0.04754 0.37831 0.61023 0.0
Cd156 Cd 0.0959 0.40264 0.51817 0.0
O157 O 0.1281 0.3901 0.59036 0.0
O158 O 0.02207 0.35411 0.67657 0.0
O159 O 0.03636 0.33257 0.58324 0.0
C160 C 0.02481 0.32877 0.6405 0.0
C161 C 0.11091 0.39941 0.40956 0.0
C162 C 0.11896 0.38656 0.64824 0.0
C163 C 0.03816 0.44497 0.5621 0.0
O164 O 0.06597 0.44191 0.53672 0.0
O165 O 0.02392 0.42109 0.58868 0.0
O166 O 0.1235 0.42063 0.44775 0.0
O167 O 0.09085 0.37865 0.43338 0.0
O168 O 0.63773 0.95339 0.42716 0.0
Cd169 Cd 0.64242 0.97692 0.51283 0.0
Cd170 Cd 0.61642 0.91856 0.54986 0.0
O171 O 0.62642 0.90339 0.45667 0.0
O172 O 0.67439 1.01063 0.4853 0.0
O173 O 0.6864 0.97045 0.55174 0.0
C174 C 0.69608 0.99336 0.51384 0.0
C175 C 0.62671 0.88765 0.64266 0.0
C176 C 0.63279 0.92388 0.41283 0.0
C177 C 0.57421 0.97854 0.55915 0.0
O178 O 0.57645 0.9478 0.55852 0.0
O179 O 0.59903 0.99632 0.54871 0.0
O180 O 0.60455 0.87977 0.60181 0.0
O181 O 0.64438 0.91254 0.62855 0.0
O182 O 0.07045 0.14028 0.68196 0.0
Cd183 Cd 0.03754 0.14653 0.75384 0.0
Cd184 Cd 0.08973 0.1307 0.81945 0.0
O185 O 0.11169 0.15443 0.74233 0.0
O186 O 1.00865 0.17943 0.71384 0.0
O187 O 0.03913 0.18922 0.7997 0.0
C188 C 0.02183 0.20023 0.75268 0.0
C189 C 0.10685 0.13504 0.92602 0.0
C190 C 0.09933 0.15031 0.68683 0.0
C191 C 0.03661 0.08087 0.79679 0.0
O192 O 0.06677 0.08635 0.80317 0.0
O193 O 0.01705 0.10401 0.7855 0.0
O194 O 0.12406 0.11999 0.88368 0.0
O195 O 0.08129 0.15022 0.90678 0.0
O196 O 0.89308 0.58046 0.92291 0.0
Cd197 Cd 0.88156 0.54965 0.99562 0.0
Cd198 Cd 0.90477 0.59984 0.059 0.0
O199 O 0.88469 0.62419 0.98082 0.0
O200 O 0.84681 0.52352 0.95398 0.0
O201 O 0.83837 0.55665 0.03685 0.0
C202 C 0.82677 0.5391 0.99034 0.0
C203 C 0.90406 0.61933 0.16456 0.0
C204 C 0.8875 0.61062 0.92607 0.0
C205 C 0.94615 0.53978 0.03622 0.0
O206 O 0.94489 0.57051 0.04226 0.0
O207 O 0.92041 0.52332 0.02759 0.0
O208 O 0.92171 0.63293 0.12124 0.0
O209 O 0.88466 0.5963 0.14693 0.0
O210 O 0.44084 0.38835 0.18026 0.0
Cd211 Cd 0.48089 0.38178 0.2362 0.0
Cd212 Cd 0.43323 0.40525 0.32505 0.0
O213 O 0.40155 0.392 0.25178 0.0
O214 O 0.50687 0.35248 0.17832 0.0
O215 O 0.48679 0.33667 0.27164 0.0
C216 C 0.50033 0.32917 0.21747 0.0
C217 C 0.42029 0.39896 0.43415 0.0
C218 C 0.41096 0.38964 0.19372 0.0
C219 C 0.49023 0.44893 0.28481 0.0
O220 O 0.46207 0.44562 0.30857 0.0
O221 O 0.50496 0.42488 0.25928 0.0
O222 O 0.40568 0.41999 0.39898 0.0
O223 O 0.44093 0.37989 0.4067 0.0
C224 C 0.27966 0.05759 0.45161 0.0
C225 C 0.28958 0.02978 0.48651 0.0
C226 C 0.23731 1.00376 0.46154 0.0
C227 C 0.22603 0.03321 0.43398 0.0
N228 N 0.23516 0.09065 0.41612 0.0
N229 N 0.2771 0.9772 0.52979 0.0
C230 C 0.24687 0.06076 0.43237 0.0
C231 C 0.26821 1.00299 0.49273 0.0
N232 N 0.30182 0.08065 0.43426 0.0
N233 N 0.21897 0.97626 0.45589 0.0
H234 H 0.29953 0.97596 0.55276 0.0
H235 H 0.26146 0.95837 0.54188 0.0
H236 H 0.19676 0.97585 0.43197 0.0
H237 H 0.227 0.95336 0.46944 0.0
H238 H 0.2966 0.0993 0.40219 0.0
H239 H 0.32626 0.07942 0.44623 0.0
H240 H 0.2485 0.11196 0.42191 0.0
H241 H 0.21122 0.09502 0.40344 0.0
C242 C 1.01144 0.7688 0.76197 0.0
C243 C 1.00277 0.79325 0.71772 0.0
C244 C 1.00356 0.75323 0.6308 0.0
C245 C 1.00709 0.72759 0.67538 0.0
N246 N 1.00542 0.71218 0.78864 0.0
N247 N 0.97637 0.80401 0.61697 0.0
C248 C 1.00893 0.73552 0.74269 0.0
C249 C 0.99501 0.78428 0.65382 0.0
N250 N 0.02159 0.77714 0.82234 0.0
N251 N 1.00821 0.74827 0.56652 0.0
H252 H 0.96471 0.82399 0.63716 0.0
H253 H 0.96839 0.79745 0.57103 0.0
H254 H 0.01696 0.72643 0.54791 0.0
H255 H 1.0072 0.7672 0.5334 0.0
H256 H 0.03115 0.76033 0.85449 0.0
H257 H 0.02285 0.80122 0.83799 0.0
H258 H 1.00367 0.71767 0.83752 0.0
H259 H 1.00007 0.68803 0.77868 0.0
C260 C 0.27813 0.46888 0.91286 0.0
C261 C 0.29351 0.49882 0.89764 0.0
C262 C 0.24571 0.52827 0.93729 0.0
C263 C 0.22928 0.49835 0.94653 0.0
N264 N 0.22827 0.43996 0.93013 0.0
N265 N 0.28993 0.55678 0.88531 0.0
C266 C 0.24505 0.46862 0.93095 0.0
C267 C 0.27672 0.52849 0.90715 0.0
N268 N 0.29528 0.4405 0.91328 0.0
N269 N 0.23218 0.55641 0.95942 0.0
H270 H 0.31216 0.55765 0.86169 0.0
H271 H 0.27757 0.57878 0.8849 0.0
H272 H 0.20996 0.55699 0.98315 0.0
H273 H 0.24426 0.57861 0.95996 0.0
H274 H 0.28644 0.41909 0.93321 0.0
H275 H 0.31941 0.43858 0.90007 0.0
H276 H 0.23738 0.41867 0.90993 0.0
H277 H 0.20417 0.43764 0.94326 0.0
C278 C 0.49517 0.77317 0.12195 0.0
C279 C 0.51303 0.79744 0.15563 0.0
C280 C 0.51511 0.76195 0.25038 0.0
C281 C 0.50345 0.73569 0.21281 0.0
N282 N 0.46795 0.72071 0.12587 0.0
N283 N 0.54374 0.81296 0.25051 0.0
C284 C 0.48922 0.74252 0.152 0.0
C285 C 0.52353 0.79154 0.21988 0.0
N286 N 0.48443 0.77927 0.06097 0.0
N287 N 0.51641 0.75927 0.31577 0.0
H288 H 0.55229 0.83423 0.22958 0.0
H289 H 0.55486 0.80788 0.29435 0.0
H290 H 0.50674 0.73929 0.33972 0.0
H291 H 0.52234 0.77859 0.34614 0.0
H292 H 0.47472 0.76166 0.03049 0.0
H293 H 0.48643 0.80203 0.03957 0.0
H294 H 0.45511 0.72446 0.08349 0.0
H295 H 0.45999 0.70044 0.15127 0.0
C296 C 0.74553 0.57196 0.93141 0.0
C297 C 0.72936 0.54246 0.91491 0.0
C298 C 0.77476 0.51128 0.95976 0.0
C299 C 0.79193 0.54055 0.97182 0.0
N300 N 0.79503 0.59916 0.9622 0.0
N301 N 0.73078 0.48435 0.90307 0.0
C302 C 0.77761 0.57099 0.95625 0.0
C303 C 0.74461 0.5122 0.92639 0.0
N304 N 0.72994 0.60112 0.92599 0.0
N305 N 0.78681 0.48265 0.98242 0.0
H306 H 0.70919 0.48429 0.87695 0.0
H307 H 0.7421 0.46181 0.90398 0.0
H308 H 0.80837 0.48131 1.00846 0.0
H309 H 0.77408 0.46083 0.98106 0.0
H310 H 0.73828 0.62253 0.94706 0.0
H311 H 0.70714 0.60402 0.90574 0.0
H312 H 0.78793 0.62111 0.94205 0.0
H313 H 0.81815 0.60064 0.98168 0.0
C314 C 0.47473 0.27472 0.19418 0.0
C315 C 0.50295 0.29459 0.19545 0.0
C316 C 0.53297 0.25134 0.13862 0.0
C317 C 0.50527 0.23097 0.14146 0.0
N318 N 0.45249 0.22053 0.18666 0.0
N319 N 0.56029 0.29995 0.17803 0.0
C320 C 0.477 0.24187 0.17361 0.0
C321 C 0.5325 0.28236 0.1701 0.0
N322 N 0.44514 0.28753 0.20888 0.0
N323 N 0.55937 0.24135 0.10447 0.0
H324 H 0.56078 0.32231 0.20181 0.0
H325 H 0.58316 0.29127 0.16627 0.0
H326 H 0.56045 0.21873 0.08178 0.0
H327 H 0.57913 0.25621 0.09467 0.0
H328 H 0.42346 0.27518 0.20097 0.0
H329 H 0.44159 0.31156 0.22274 0.0
H330 H 0.43318 0.22612 0.2169 0.0
H331 H 0.45286 0.19622 0.17266 0.0
C332 C 0.7786 0.02547 0.45834 0.0
C333 C 0.79277 0.99657 0.43377 0.0
C334 C 0.74354 0.96626 0.46065 0.0
C335 C 0.73023 0.99438 0.4905 0.0
N336 N 0.73678 0.04981 0.52531 0.0
N337 N 0.79197 0.93794 0.42867 0.0
C338 C 0.74828 0.02379 0.49145 0.0
C339 C 0.7762 0.96655 0.43996 0.0
N340 N 0.79359 0.05457 0.44824 0.0
N341 N 0.7246 0.93968 0.44819 0.0
H342 H 0.8162 0.93663 0.41509 0.0
H343 H 0.782 0.91538 0.43959 0.0
H344 H 0.70018 0.93822 0.45987 0.0
H345 H 0.7323 0.92025 0.41981 0.0
H346 H 0.78312 0.07688 0.45908 0.0
H347 H 0.81565 0.05649 0.42422 0.0
H348 H 0.75002 0.07098 0.53323 0.0
H349 H 0.7149 0.04913 0.55022 0.0
C350 C 0.05223 0.27943 0.68331 0.0
C351 C 0.02291 0.296 0.67014 0.0
C352 C 0.99234 0.25138 0.72001 0.0
C353 C 0.02189 0.23542 0.73522 0.0
N354 N 0.08045 0.2394 0.74568 0.0
N355 N 0.96535 0.30063 0.68414 0.0
C356 C 0.05189 0.2511 0.72183 0.0
C357 C 0.99301 0.2829 0.69131 0.0
N358 N 0.08075 0.29015 0.65766 0.0
N359 N 0.96363 0.23624 0.73273 0.0
H360 H 0.96493 0.32293 0.66058 0.0
H361 H 0.94325 0.29424 0.70438 0.0
H362 H 0.94135 0.24439 0.71603 0.0
H363 H 0.96225 0.21466 0.75866 0.0
H364 H 0.10161 0.276 0.65624 0.0
H365 H 0.0834 0.31206 0.63356 0.0
H366 H 0.10193 0.25269 0.74494 0.0
H367 H 0.08302 0.21792 0.77088 0.0
C368 C 0.02185 0.02814 0.39748 0.0
C369 C 0.04042 0.03275 0.34084 0.0
C370 C 0.9932 0.01803 0.2747 0.0
C371 C 0.97552 1.01062 0.33122 0.0
N372 N 0.97516 1.00263 0.44637 0.0
N373 N 0.04586 0.02635 0.22618 0.0
C374 C 0.99037 1.01413 0.39271 0.0
C375 C 0.02662 0.02612 0.27956 0.0
N376 N 0.03378 0.03813 0.45571 0.0
N377 N 0.97777 0.01811 0.21646 0.0
H378 H 0.07064 0.03095 0.22869 0.0
H379 H 0.0381 0.0188 0.18081 0.0
H380 H 0.9532 1.01281 0.21144 0.0
H381 H 0.98844 0.02634 0.17421 0.0
H382 H 0.01991 0.03892 0.49749 0.0
H383 H 0.05683 0.04809 0.46146 0.0
H384 H 0.98638 1.00106 0.49117 0.0
H385 H 0.95223 0.99204 0.44535 0.0
C386 C 1.00721 0.5275 0.50905 0.0
C387 C 1.004 0.54357 0.56926 0.0
C388 C 0.02293 0.49476 0.62503 0.0
C389 C 0.02393 0.47796 0.56523 0.0
N390 N 1.01264 0.47631 0.45156 0.0
N391 N 1.0028 0.54097 0.68527 0.0
C392 C 0.01484 0.4938 0.5075 0.0
C393 C 1.01022 0.52679 0.6275 0.0
N394 N 1.0039 0.54474 0.4534 0.0
N395 N 0.03541 0.48069 0.67912 0.0
H396 H 0.99365 0.56445 0.68942 0.0
H397 H 1.00314 0.52854 0.72878 0.0
H398 H 0.04475 0.4572 0.67976 0.0
H399 H 0.03891 0.49317 0.72229 0.0
H400 H 1.00915 0.53541 0.40798 0.0
H401 H 0.99838 0.56943 0.45296 0.0
H402 H 1.00322 0.48551 0.40892 0.0
H403 H 0.01771 0.45153 0.44913 0.0
C404 C 0.50038 0.50516 0.77939 0.0
C405 C 0.48018 0.50803 0.83428 0.0
C406 C 0.52318 0.53704 0.8924 0.0
C407 C 0.54406 0.53237 0.83895 0.0
N408 N 0.55468 0.50829 0.73527 0.0
N409 N 0.47389 0.52116 0.94689 0.0
C410 C 0.53332 0.51519 0.78356 0.0
C411 C 0.49192 0.52262 0.89181 0.0
N412 N 0.48766 0.49397 0.72265 0.0
N413 N 0.53321 0.55538 0.94378 0.0
H414 H 0.45091 0.51072 0.94879 0.0
H415 H 0.48264 0.52784 0.99207 0.0
H416 H 0.55669 0.56443 0.94845 0.0
H417 H 0.5178 0.56323 0.98022 0.0
H418 H 0.50008 0.49413 0.67914 0.0
H419 H 0.4635 0.48696 0.71779 0.0
H420 H 0.54935 0.49308 0.69654 0.0
H421 H 0.57878 0.51582 0.73634 0.0
C422 C 0.52187 0.99378 0.97959 0.0
C423 C 0.52974 0.97789 0.03801 0.0
C424 C 0.52034 0.0286 0.09814 0.0
C425 C 0.51406 0.04497 0.03938 0.0
N426 N 0.51271 0.04478 0.92371 0.0
N427 N 0.54217 0.98121 0.15139 0.0
C428 C 0.51594 0.02795 0.97989 0.0
C429 C 0.53054 0.9956 0.09687 0.0
N430 N 0.51929 0.97592 0.92418 0.0
N431 N 0.51511 0.04411 0.15553 0.0
H432 H 0.54903 0.95689 0.15334 0.0
H433 H 0.54731 0.99392 0.19363 0.0
H434 H 0.50862 0.06849 0.15906 0.0
H435 H 0.51498 0.0323 0.1997 0.0
H436 H 0.51074 0.9851 0.88084 0.0
H437 H 0.52352 0.95097 0.92266 0.0
H438 H 0.51658 0.03477 0.87832 0.0
H439 H 0.50861 0.06976 0.9227 0.0
C440 C 0.03236 0.5171 0.07922 0.0
C441 C 0.04303 0.50287 0.02074 0.0
C442 C 0.98976 0.51248 0.97204 0.0
C443 C 0.97835 0.52419 0.03224 0.0
N444 N 0.98658 0.53216 0.14587 0.0
N445 N 0.03138 0.48343 0.91338 0.0
C446 C 0.99908 0.52497 0.08666 0.0
C447 C 0.02149 0.49935 0.96781 0.0
N448 N 0.05413 0.52358 0.12719 0.0
N449 N 0.97095 0.51549 0.91816 0.0
H450 H 0.05504 0.47539 0.90652 0.0
H451 H 0.01571 0.47651 0.87647 0.0
H452 H 0.94752 0.5248 0.91901 0.0
H453 H 0.97936 0.51112 0.87173 0.0
H454 H 0.04847 0.53676 0.16851 0.0
H455 H 0.07868 0.51821 0.12319 0.0
H456 H 0.99964 0.53019 0.18855 0.0
H457 H 0.96209 0.5371 0.15293 0.0
C458 C 0.50774 0.49948 0.2261 0.0
C459 C 0.50466 0.48213 0.28473 0.0
C460 C 0.51724 0.53196 0.34555 0.0
C461 C 0.52271 0.54868 0.28698 0.0
N462 N 0.52893 0.5469 0.17157 0.0
N463 N 0.51192 0.48012 0.39959 0.0
C464 C 0.51954 0.53204 0.22721 0.0
C465 C 0.511 0.49793 0.3443 0.0
N466 N 0.49805 0.48541 0.16952 0.0
N467 N 0.51684 0.54891 0.40226 0.0
H468 H 0.5081 0.45509 0.39998 0.0
H469 H 0.51944 0.48942 0.44383 0.0
H470 H 0.52063 0.57393 0.40472 0.0
H471 H 0.50988 0.53888 0.44599 0.0
H472 H 0.49602 0.49809 0.12648 0.0
H473 H 0.48963 0.46158 0.16632 0.0
H474 H 0.53074 0.53483 0.12758 0.0
H475 H 0.53746 0.57073 0.17013 0.0
C476 C 0.48744 0.99974 0.51263 0.0
C477 C 0.47596 1.01417 0.57048 0.0
C478 C 0.53024 1.00877 0.61883 0.0
C479 C 0.5411 0.99271 0.56233 0.0
N480 N 0.52925 0.96915 0.45816 0.0
N481 N 0.48461 0.02883 0.68136 0.0
C482 C 0.51938 0.98698 0.51025 0.0
C483 C 0.49694 0.01771 0.62437 0.0
N484 N 0.46858 1.00004 0.45842 0.0
N485 N 0.55185 0.01561 0.66693 0.0
H486 H 0.46031 0.03508 0.68683 0.0
H487 H 0.4975 0.02944 0.72438 0.0
H488 H 0.57604 1.00851 0.66501 0.0
H489 H 0.54654 0.03001 0.70678 0.0
H490 H 0.47715 0.99421 0.41274 0.0
H491 H 0.44484 1.00845 0.45759 0.0
H492 H 0.51348 0.96014 0.42324 0.0
H493 H 0.55306 0.96164 0.45136 0.0
C494 C 0.02 0.03133 0.73498 0.0
C495 C 0.02522 0.04675 0.79532 0.0
C496 C 0.01455 0.99536 0.85123 0.0
C497 C 1.00702 0.98063 0.79116 0.0
N498 N 0.99977 0.9845 0.67621 0.0
N499 N 0.02563 0.04514 0.91109 0.0
C500 C 1.009 0.99861 0.73313 0.0
C501 C 0.02215 0.02917 0.85361 0.0
N502 N 0.02682 0.04761 0.67936 0.0
N503 N 0.01448 0.97689 0.90573 0.0
H504 H 0.03134 0.06978 0.91422 0.0
H505 H 0.021 0.0348 0.95568 0.0
H506 H 1.00825 0.95233 0.90553 0.0
H507 H 0.02239 0.98507 0.9505 0.0
H508 H 0.02733 0.0367 0.63411 0.0
H509 H 0.0343 0.07181 0.67853 0.0
H510 H 0.99644 0.9973 0.63367 0.0
H511 H 0.99374 0.96 0.67196 0.0
C512 C 0.14699 0.1437 0.61129 0.0
C513 C 0.11674 0.15806 0.62631 0.0
C514 C 0.10619 0.16786 0.51188 0.0
C515 C 0.13385 0.14917 0.49707 0.0
N516 N 0.18721 0.13344 0.52849 0.0
N517 N 0.07517 0.19553 0.59436 0.0
C518 C 0.15669 0.14233 0.54583 0.0
C519 C 0.0991 0.1744 0.57747 0.0
N520 N 0.16513 0.12915 0.65787 0.0
N521 N 0.08547 0.1771 0.46417 0.0
H522 H 0.06968 0.20031 0.64234 0.0
H523 H 0.0631 0.21033 0.56174 0.0
H524 H 0.09099 0.1746 0.41555 0.0
H525 H 0.06258 0.18667 0.47279 0.0
H526 H 0.18522 0.1148 0.64784 0.0
H527 H 0.1595 0.13021 0.70658 0.0
H528 H 0.20598 0.12992 0.5612 0.0
H529 H 0.19415 0.13327 0.48026 0.0
C530 C 0.90866 0.66409 0.78494 0.0
C531 C 0.89837 0.64239 0.73613 0.0
C532 C 0.86637 0.61258 0.81416 0.0
C533 C 0.88394 0.62833 0.86443 0.0
N534 N 0.91954 0.67201 0.89832 0.0
N535 N 0.86392 0.59877 0.70069 0.0
C536 C 0.90356 0.65577 0.85037 0.0
C537 C 0.87519 0.61819 0.7493 0.0
N538 N 0.92437 0.69194 0.76791 0.0
N539 N 0.8421 0.59141 0.82894 0.0
H540 H 0.86892 0.60327 0.65242 0.0
H541 H 0.85048 0.57772 0.70806 0.0
H542 H 0.83626 0.58576 0.87618 0.0
H543 H 0.82629 0.58147 0.79509 0.0
H544 H 0.93057 0.71028 0.80033 0.0
H545 H 0.92838 0.69784 0.71973 0.0
H546 H 0.93755 0.68916 0.88988 0.0
H547 H 0.91575 0.66775 0.94698 0.0
C548 C 0.39327 0.36838 0.08855 0.0
C549 C 0.38826 0.3911 0.13861 0.0
C550 C 0.36413 0.4281 0.06106 0.0
C551 C 0.37869 0.40995 1.0103 0.0
N552 N 0.40571 0.36053 0.9761 0.0
N553 N 0.36466 0.44142 0.17463 0.0
C554 C 0.39196 0.37887 0.02361 0.0
C555 C 0.37141 0.42019 0.12585 0.0
N556 N 0.4004 0.3371 0.10406 0.0
N557 N 0.34379 0.45318 0.04709 0.0
H558 H 0.36768 0.43561 0.22296 0.0
H559 H 0.3569 0.46513 0.16707 0.0
H560 H 0.33823 0.45971 1.00007 0.0
H561 H 0.33015 0.46536 0.08166 0.0
H562 H 0.40233 0.31844 0.07027 0.0
H563 H 0.40058 0.32959 0.15193 0.0
H564 H 0.41925 0.33976 0.98531 0.0
H565 H 0.40528 0.36665 0.92769 0.0
C566 C 0.64655 0.88541 0.32082 0.0
C567 C 0.63242 0.91482 0.34349 0.0
C568 C 0.62332 0.93131 0.23218 0.0
C569 C 0.63032 0.89956 0.21119 0.0
N570 N 0.64747 0.84525 0.23478 0.0
N571 N 0.59955 0.96198 0.31819 0.0
C572 C 0.6419 0.87624 0.25524 0.0
C573 C 0.61902 0.93706 0.29848 0.0
N574 N 0.66512 0.86691 0.36069 0.0
N575 N 0.61872 0.95543 0.18831 0.0
H576 H 0.59197 0.96506 0.36557 0.0
H577 H 0.58728 0.97698 0.28616 0.0
H578 H 0.62126 0.95148 0.13891 0.0
H579 H 0.61575 0.97969 0.20153 0.0
H580 H 0.6779 0.84664 0.34476 0.0
H581 H 0.67052 0.8737 0.40788 0.0
H582 H 0.65243 0.82621 0.26608 0.0
H583 H 0.64554 0.83859 0.18637 0.0
C584 C 0.1568 0.4186 0.71741 0.0
C585 C 0.14169 0.38864 0.70325 0.0
C586 C 0.13591 0.37669 0.81763 0.0
C587 C 0.14709 0.40858 0.83215 0.0
N588 N 0.18056 0.4536 0.79851 0.0
N589 N 0.13235 0.33409 0.73651 0.0
C590 C 0.1619 0.42735 0.78278 0.0
C591 C 0.13703 0.36583 0.75275 0.0
N592 N 0.16403 0.43967 0.66901 0.0
N593 N 0.1218 0.35782 0.8636 0.0
H594 H 0.134 0.32651 0.68861 0.0
H595 H 0.13066 0.31546 0.77008 0.0
H596 H 0.11991 0.36453 0.91171 0.0
H597 H 0.10999 0.33607 0.85303 0.0
H598 H 0.17043 0.46384 0.67682 0.0
H599 H 0.16299 0.43305 0.62063 0.0
H600 H 0.19437 0.46637 0.76524 0.0
H601 H 0.1847 0.46068 0.84592 0.0
C602 C 0.65209 0.6286 0.13235 0.0
C603 C 0.63048 0.65425 0.14561 0.0
C604 C 0.62352 0.66501 0.03081 0.0
C605 C 0.64069 0.63592 1.0172 0.0
N606 N 0.68057 0.59698 0.05208 0.0
N607 N 0.608 0.70482 0.112 0.0
C608 C 0.65835 0.62027 0.06719 0.0
C609 C 0.62098 0.67546 0.09587 0.0
N610 N 0.6645 0.61068 0.18167 0.0
N611 N 0.60724 0.68097 0.98328 0.0
H612 H 0.60578 0.71206 0.16006 0.0
H613 H 0.6025 0.72279 0.07868 0.0
H614 H 0.60851 0.67458 0.93489 0.0
H615 H 0.59109 0.69982 0.9921 0.0
H616 H 0.67616 0.58853 0.17549 0.0
H617 H 0.66304 0.61809 0.22953 0.0
H618 H 0.69663 0.58693 0.08502 0.0
H619 H 0.68457 0.58934 1.00508 0.0
C620 C 0.42661 0.08532 0.32766 0.0
C621 C 0.4035 0.1039 0.36205 0.0
C622 C 0.39447 0.13729 0.26631 0.0
C623 C 0.41531 0.11645 0.23124 0.0
N624 N 0.44322 0.06527 0.22374 0.0
N625 N 0.3612 0.14422 0.36162 0.0
C626 C 0.42859 0.0886 0.26045 0.0
C627 C 0.38611 0.12903 0.33077 0.0
N628 N 0.44799 0.06584 0.35957 0.0
N629 N 0.38366 0.16531 0.23898 0.0
H630 H 0.3545 0.13868 0.40866 0.0
H631 H 0.34571 0.16047 0.33892 0.0
H632 H 0.38873 0.1714 0.19137 0.0
H633 H 0.37134 0.18323 0.26455 0.0
H634 H 0.46707 0.05398 0.33672 0.0
H635 H 0.44916 0.06473 0.40966 0.0
H636 H 0.45093 0.04314 0.24237 0.0
H637 H 0.44438 0.06663 0.17363 0.0
C638 C 0.94599 0.8777 0.53576 0.0
C639 C 0.9242 0.88296 0.58857 0.0
C640 C 0.87936 0.8851 0.511 0.0
C641 C 0.90177 0.88794 0.46048 0.0
N642 N 0.95648 0.88525 0.42221 0.0
N643 N 0.86939 0.89584 0.62313 0.0
C644 C 0.93498 0.88268 0.47188 0.0
C645 C 0.89046 0.8869 0.57564 0.0
N646 N 0.9773 0.86817 0.54569 0.0
N647 N 0.84727 0.88259 0.49643 0.0
H648 H 0.87617 0.90099 0.67024 0.0
H649 H 0.84536 0.90195 0.61417 0.0
H650 H 0.83929 0.88166 0.44871 0.0
H651 H 0.82947 0.87796 0.53065 0.0
H652 H 0.99221 0.85983 0.50883 0.0
H653 H 0.98809 0.86547 0.59043 0.0
H654 H 0.98138 0.88759 0.42861 0.0
H655 H 0.94927 0.88642 0.37422 0.0
C656 C 0.10985 0.09944 0.02319 0.0
C657 C 0.11363 0.13078 0.99574 0.0
C658 C 0.13002 0.15271 0.10122 0.0
C659 C 0.12375 0.12203 0.12943 0.0
N660 N 0.1037 0.06716 0.11941 0.0
N661 N 0.12504 0.18782 1.00792 0.0
C662 C 0.11303 0.09553 0.09085 0.0
C663 C 0.12306 0.15762 0.03462 0.0
N664 N 0.10269 0.07333 0.98469 0.0
N665 N 0.1436 0.1768 0.13791 0.0
H666 H 0.12178 0.19193 0.95885 0.0
H667 H 0.1282 0.20906 0.03449 0.0
H668 H 0.14925 0.17372 0.18646 0.0
H669 H 0.15166 0.19883 0.11962 0.0
H670 H 0.10433 0.04935 0.99991 0.0
H671 H 0.09661 0.0752 0.93618 0.0
H672 H 0.09137 0.04859 0.09561 0.0
H673 H 0.10609 0.06283 0.16847 0.0
C674 C 0.88992 0.64321 0.34027 0.0
C675 C 0.9206 0.63566 0.36744 0.0
C676 C 0.94021 0.61809 0.2613 0.0
C677 C 0.90986 0.62644 0.23382 0.0
N678 N 0.85756 0.65138 0.24366 0.0
N679 N 0.97666 0.6205 0.35237 0.0
C680 C 0.88515 0.64024 0.2724 0.0
C681 C 0.94634 0.62488 0.32737 0.0
N682 N 0.86529 0.653 0.37962 0.0
N683 N 0.96251 0.60153 0.22528 0.0
H684 H 0.98211 0.6221 0.40115 0.0
H685 H 0.99719 0.61729 0.32414 0.0
H686 H 0.95932 0.59596 0.17673 0.0
H687 H 0.98314 0.59078 0.2444 0.0
H688 H 0.84133 0.65506 0.36477 0.0
H689 H 0.86861 0.65801 0.42844 0.0
H690 H 0.83977 0.66457 0.26752 0.0
H691 H 0.85348 0.64948 0.19422 0.0
C692 C 0.37997 0.40007 0.5993 0.0
C693 C 0.40643 0.4093 0.63917 0.0
C694 C 0.44228 0.41022 0.54471 0.0
C695 C 0.41615 0.39969 0.50528 0.0
N696 N 0.36163 0.37981 0.49519 0.0
N697 N 0.46385 0.41939 0.65158 0.0
C698 C 0.38537 0.39331 0.53268 0.0
C699 C 0.43794 0.41287 0.61245 0.0
N700 N 0.34964 0.39798 0.62512 0.0
N701 N 0.47067 0.41999 0.51694 0.0
H702 H 0.46186 0.4251 0.70026 0.0
H703 H 0.48779 0.41747 0.63656 0.0
H704 H 0.47513 0.41848 0.46771 0.0
H705 H 0.48903 0.43208 0.54171 0.0
H706 H 0.32868 0.39523 0.59781 0.0
H707 H 0.34515 0.40059 0.67423 0.0
H708 H 0.33956 0.37161 0.51286 0.0
H709 H 0.36502 0.37435 0.44658 0.0
C710 C 0.59903 0.85996 0.73519 0.0
C711 C 0.62783 0.87279 0.70857 0.0
C712 C 0.65032 0.87578 0.81803 0.0
C713 C 0.61845 0.87323 0.84344 0.0
N714 N 0.56099 0.86624 0.82154 0.0
N715 N 0.68417 0.8853 0.72437 0.0
C716 C 0.59237 0.86565 0.80109 0.0
C717 C 0.65464 0.8782 0.75004 0.0
N718 N 0.57838 0.84179 0.69849 0.0
N719 N 0.67631 0.87482 0.85869 0.0
H720 H 0.68889 0.88262 0.67532 0.0
H721 H 0.70368 0.89383 0.75137 0.0
H722 H 0.67385 0.87124 0.9081 0.0
H723 H 0.70021 0.87418 0.8431 0.0
H724 H 0.55792 0.83055 0.7175 0.0
H725 H 0.58452 0.83372 0.65249 0.0
H726 H 0.54151 0.86371 0.78991 0.0
H727 H 0.55399 0.87284 0.86782 0.0
C728 C 0.13521 0.38072 0.30432 0.0
C729 C 0.11529 0.40265 0.33904 0.0
C730 C 0.10682 0.43495 0.24154 0.0
C731 C 0.12561 0.41228 0.2059 0.0
N732 N 0.15462 0.36174 0.20024 0.0
N733 N 0.07755 0.44719 0.33971 0.0
C734 C 0.13885 0.38452 0.2364 0.0
C735 C 0.09995 0.4289 0.30739 0.0
N736 N 0.15142 0.35696 0.33676 0.0
N737 N 0.09538 0.46233 0.21233 0.0
H738 H 0.07175 0.44357 0.38796 0.0
H739 H 0.06261 0.46419 0.31782 0.0
H740 H 0.09736 0.46654 0.16313 0.0
H741 H 0.08546 0.48188 0.23724 0.0
H742 H 0.16895 0.34218 0.31599 0.0
H743 H 0.14871 0.35328 0.38609 0.0
H744 H 0.16188 0.33928 0.21774 0.0
H745 H 0.15897 0.3646 0.15116 0.0
C746 C 0.60686 0.59836 0.60766 0.0
C747 C 0.62209 0.62377 0.64318 0.0
C748 C 0.62711 0.65603 0.54421 0.0
C749 C 0.61039 0.63135 0.50973 0.0
N750 N 0.57997 0.58136 0.50923 0.0
N751 N 0.64408 0.67791 0.64792 0.0
C752 C 0.59928 0.60304 0.54156 0.0
C753 C 0.6314 0.653 0.61217 0.0
N754 N 0.59931 0.56973 0.63726 0.0
N755 N 0.63976 0.68179 0.51149 0.0
H756 H 0.64925 0.6758 0.69687 0.0
H757 H 0.64805 0.70115 0.63019 0.0
H758 H 0.63657 0.68484 0.46207 0.0
H759 H 0.65507 0.69905 0.53203 0.0
H760 H 0.59244 0.54877 0.61259 0.0
H761 H 0.60147 0.56606 0.68662 0.0
H762 H 0.56767 0.56234 0.53114 0.0
H763 H 0.57394 0.58373 0.46075 0.0
C764 C 0.3754 0.13614 0.7717 0.0
C765 C 0.40124 0.14088 0.72771 0.0
C766 C 0.43891 0.1491 0.81678 0.0
C767 C 0.41393 0.142 0.86159 0.0
N768 N 0.35659 0.14009 0.88238 0.0
N769 N 0.45032 0.17176 0.71247 0.0
C770 C 0.38147 0.13903 0.83923 0.0
C771 C 0.43066 0.15396 0.75143 0.0
N772 N 0.34513 0.12946 0.74888 0.0
N773 N 0.47076 0.14885 0.83451 0.0
H774 H 0.44301 0.17924 0.66685 0.0
H775 H 0.47121 0.18326 0.7293 0.0
H776 H 0.47884 0.14287 0.88037 0.0
H777 H 0.48945 0.15102 0.80116 0.0
H778 H 0.32621 0.12125 0.77756 0.0
H779 H 0.33903 0.13249 0.70054 0.0
H780 H 0.33228 0.14043 0.86925 0.0
H781 H 0.36033 0.1439 0.9315 0.0
C782 C 0.91561 0.93928 0.05771 0.0
C783 C 0.90277 0.91447 0.0974 0.0
C784 C 0.9012 0.87699 1.00468 0.0
C785 C 0.91254 0.9023 0.9644 0.0
N786 N 0.92804 0.95845 0.95049 0.0
N787 N 0.87956 0.86125 0.10892 0.0
C788 C 0.91876 0.93377 0.99031 0.0
C789 C 0.89453 0.8837 0.07091 0.0
N790 N 0.92657 0.96754 0.08513 0.0
N791 N 0.89723 0.84649 0.97966 0.0
H792 H 0.87448 0.86552 0.1574 0.0
H793 H 0.87005 0.83945 0.09188 0.0
H794 H 0.90053 0.8412 0.93098 0.0
H795 H 0.89241 0.82606 1.00728 0.0
H796 H 0.94008 0.98489 0.06076 0.0
H797 H 0.92421 0.97286 0.13399 0.0
H798 H 0.92866 0.98275 0.9644 0.0
H799 H 0.93364 0.95515 0.90204 0.0
loop_
_geom_bond_atom_site_label_1
_geom_bond_atom_site_label_2
_geom_bond_distance
_geom_bond_site_symmetry_2
_ccdc_geom_bond_type
O0 Cd1 2.223 . S
O0 C8 1.315 . S
Cd1 O0 2.223 . S
Cd1 O4 2.297 . S
Cd1 O5 2.439 . S
Cd1 O11 2.240 . S
Cd2 O3 2.240 . S
Cd2 O10 2.223 . S
Cd2 O12 2.297 . S
Cd2 O13 2.439 . S
O3 Cd2 2.240 . S
O3 C8 1.279 . S
O4 Cd1 2.297 . S
O4 C6 1.247 . S
O5 Cd1 2.439 . S
O5 C6 1.208 . S
C6 O4 1.247 . S
C6 O5 1.208 . S
C7 O12 1.247 . S
C7 O13 1.208 . S
C8 O0 1.315 . S
C8 O3 1.279 . S
C9 O10 1.315 . S
C9 O11 1.279 . S
O10 Cd2 2.223 . S
O10 C9 1.315 . S
O11 Cd1 2.240 . S
O11 C9 1.279 . S
O12 Cd2 2.297 . S
O12 C7 1.247 . S
O13 Cd2 2.439 . S
O13 C7 1.208 . S
O14 Cd15 2.223 . S
O14 C22 1.315 . S
Cd15 O14 2.223 . S
Cd15 O18 2.297 . S
Cd15 O19 2.439 . S
Cd15 O25 2.240 . S
Cd16 O17 2.240 . S
Cd16 O24 2.223 . S
Cd16 O26 2.297 . S
Cd16 O27 2.439 . S
O17 Cd16 2.240 . S
O17 C22 1.279 . S
O18 Cd15 2.297 . S
O18 C20 1.247 . S
O19 Cd15 2.439 . S
O19 C20 1.208 . S
C20 O18 1.247 . S
C20 O19 1.208 . S
C21 O26 1.247 . S
C21 O27 1.208 . S
C22 O14 1.315 . S
C22 O17 1.279 . S
C23 O24 1.315 . S
C23 O25 1.279 . S
O24 Cd16 2.223 . S
O24 C23 1.315 . S
O25 Cd15 2.240 . S
O25 C23 1.279 . S
O26 Cd16 2.297 . S
O26 C21 1.247 . S
O27 Cd16 2.439 . S
O27 C21 1.208 . S
O28 Cd29 2.223 . S
O28 C36 1.315 . S
Cd29 O28 2.223 . S
Cd29 O32 2.297 . S
Cd29 O33 2.439 . S
Cd29 O39 2.240 . S
Cd30 O31 2.240 . S
Cd30 O38 2.223 . S
Cd30 O40 2.297 . S
Cd30 O41 2.439 . S
O31 Cd30 2.240 . S
O31 C36 1.279 . S
O32 Cd29 2.297 . S
O32 C34 1.247 . S
O33 Cd29 2.439 . S
O33 C34 1.208 . S
C34 O32 1.247 . S
C34 O33 1.208 . S
C35 O40 1.247 . S
C35 O41 1.208 . S
C36 O28 1.315 . S
C36 O31 1.279 . S
C37 O38 1.315 . S
C37 O39 1.279 . S
O38 Cd30 2.223 . S
O38 C37 1.315 . S
O39 Cd29 2.240 . S
O39 C37 1.279 . S
O40 Cd30 2.297 . S
O40 C35 1.247 . S
O41 Cd30 2.439 . S
O41 C35 1.208 . S
O42 Cd43 2.223 . S
O42 C50 1.315 . S
Cd43 O42 2.223 . S
Cd43 O46 2.297 . S
Cd43 O47 2.439 . S
Cd43 O53 2.240 . S
Cd44 O45 2.240 . S
Cd44 O52 2.223 . S
Cd44 O54 2.297 1_554 S
Cd44 O55 2.439 1_554 S
O45 Cd44 2.240 . S
O45 C50 1.279 . S
O46 Cd43 2.297 . S
O46 C48 1.247 . S
O47 Cd43 2.439 . S
O47 C48 1.208 . S
C48 O46 1.247 . S
C48 O47 1.208 . S
C49 O54 1.247 . S
C49 O55 1.208 . S
C50 O42 1.315 . S
C50 O45 1.279 . S
C51 O52 1.315 . S
C51 O53 1.279 . S
O52 Cd44 2.223 . S
O52 C51 1.315 . S
O53 Cd43 2.240 . S
O53 C51 1.279 . S
O54 Cd44 2.297 1_556 S
O54 C49 1.247 . S
O55 Cd44 2.439 1_556 S
O55 C49 1.208 . S
O56 Cd57 2.223 . S
O56 C64 1.315 . S
Cd57 O56 2.223 . S
Cd57 O60 2.297 . S
Cd57 O61 2.439 . S
Cd57 O67 2.240 1_556 S
Cd58 O59 2.240 1_554 S
Cd58 O66 2.223 . S
Cd58 O68 2.297 . S
Cd58 O69 2.439 . S
O59 Cd58 2.240 1_556 S
O59 C64 1.279 . S
O60 Cd57 2.297 . S
O60 C62 1.247 . S
O61 Cd57 2.439 . S
O61 C62 1.208 . S
C62 O60 1.247 . S
C62 O61 1.208 . S
C63 O68 1.247 . S
C63 O69 1.208 . S
C64 O56 1.315 . S
C64 O59 1.279 . S
C65 O66 1.315 . S
C65 O67 1.279 . S
O66 Cd58 2.223 . S
O66 C65 1.315 . S
O67 Cd57 2.240 1_554 S
O67 C65 1.279 . S
O68 Cd58 2.297 . S
O68 C63 1.247 . S
O69 Cd58 2.439 . S
O69 C63 1.208 . S
O70 Cd71 2.223 . S
O70 C78 1.315 . S
Cd71 O70 2.223 . S
Cd71 O74 2.297 . S
Cd71 O75 2.439 . S
Cd71 O81 2.240 . S
Cd72 O73 2.240 . S
Cd72 O80 2.223 . S
Cd72 O82 2.297 . S
Cd72 O83 2.439 . S
O73 Cd72 2.240 . S
O73 C78 1.279 . S
O74 Cd71 2.297 . S
O74 C76 1.247 . S
O75 Cd71 2.439 . S
O75 C76 1.208 . S
C76 O74 1.247 . S
C76 O75 1.208 . S
C77 O82 1.247 . S
C77 O83 1.208 . S
C78 O70 1.315 . S
C78 O73 1.279 . S
C79 O80 1.315 . S
C79 O81 1.279 . S
O80 Cd72 2.223 . S
O80 C79 1.315 . S
O81 Cd71 2.240 . S
O81 C79 1.279 . S
O82 Cd72 2.297 . S
O82 C77 1.247 . S
O83 Cd72 2.439 . S
O83 C77 1.208 . S
O84 Cd85 2.223 . S
O84 C92 1.315 . S
Cd85 O84 2.223 . S
Cd85 O88 2.297 . S
Cd85 O89 2.439 . S
Cd85 O95 2.240 . S
Cd86 O87 2.240 . S
Cd86 O94 2.223 . S
Cd86 O96 2.297 . S
Cd86 O97 2.439 . S
O87 Cd86 2.240 . S
O87 C92 1.279 . S
O88 Cd85 2.297 . S
O88 C90 1.247 . S
O89 Cd85 2.439 . S
O89 C90 1.208 . S
C90 O88 1.247 . S
C90 O89 1.208 . S
C91 O96 1.247 . S
C91 O97 1.208 . S
C92 O84 1.315 . S
C92 O87 1.279 . S
C93 O94 1.315 . S
C93 O95 1.279 . S
O94 Cd86 2.223 . S
O94 C93 1.315 . S
O95 Cd85 2.240 . S
O95 C93 1.279 . S
O96 Cd86 2.297 . S
O96 C91 1.247 . S
O97 Cd86 2.439 . S
O97 C91 1.208 . S
O98 Cd99 2.223 . S
O98 C106 1.315 . S
Cd99 O98 2.223 . S
Cd99 O102 2.297 . S
Cd99 O103 2.439 . S
Cd99 O109 2.240 . S
Cd100 O101 2.240 . S
Cd100 O108 2.223 . S
Cd100 O110 2.297 . S
Cd100 O111 2.439 . S
O101 Cd100 2.240 . S
O101 C106 1.279 . S
O102 Cd99 2.297 . S
O102 C104 1.247 . S
O103 Cd99 2.439 . S
O103 C104 1.208 . S
C104 O102 1.247 . S
C104 O103 1.208 . S
C105 O110 1.247 . S
C105 O111 1.208 . S
C106 O98 1.315 . S
C106 O101 1.279 . S
C107 O108 1.315 . S
C107 O109 1.279 . S
O108 Cd100 2.223 . S
O108 C107 1.315 . S
O109 Cd99 2.240 . S
O109 C107 1.279 . S
O110 Cd100 2.297 . S
O110 C105 1.247 . S
O111 Cd100 2.439 . S
O111 C105 1.208 . S
O112 Cd113 2.223 . S
O112 C120 1.315 . S
Cd113 O112 2.223 . S
Cd113 O116 2.297 . S
Cd113 O117 2.439 . S
Cd113 O123 2.240 . S
Cd114 O115 2.240 . S
Cd114 O122 2.223 . S
Cd114 O124 2.297 . S
Cd114 O125 2.439 . S
O115 Cd114 2.240 . S
O115 C120 1.279 . S
O116 Cd113 2.297 . S
O116 C118 1.247 . S
O117 Cd113 2.439 . S
O117 C118 1.208 . S
C118 O116 1.247 . S
C118 O117 1.208 . S
C119 O124 1.247 . S
C119 O125 1.208 . S
C120 O112 1.315 . S
C120 O115 1.279 . S
C121 O122 1.315 . S
C121 O123 1.279 . S
O122 Cd114 2.223 . S
O122 C121 1.315 . S
O123 Cd113 2.240 . S
O123 C121 1.279 . S
O124 Cd114 2.297 . S
O124 C119 1.247 . S
O125 Cd114 2.439 . S
O125 C119 1.208 . S
O126 Cd127 2.223 . S
O126 C134 1.315 . S
Cd127 O126 2.223 . S
Cd127 O130 2.297 . S
Cd127 O131 2.439 . S
Cd127 O137 2.240 . S
Cd128 O129 2.240 . S
Cd128 O136 2.223 . S
Cd128 O138 2.297 1_554 S
Cd128 O139 2.439 1_554 S
O129 Cd128 2.240 . S
O129 C134 1.279 . S
O130 Cd127 2.297 . S
O130 C132 1.247 . S
O131 Cd127 2.439 . S
O131 C132 1.208 . S
C132 O130 1.247 . S
C132 O131 1.208 . S
C133 O138 1.247 . S
C133 O139 1.208 . S
C134 O126 1.315 . S
C134 O129 1.279 . S
C135 O136 1.315 . S
C135 O137 1.279 . S
O136 Cd128 2.223 . S
O136 C135 1.315 . S
O137 Cd127 2.240 . S
O137 C135 1.279 . S
O138 Cd128 2.297 1_556 S
O138 C133 1.247 . S
O139 Cd128 2.439 1_556 S
O139 C133 1.208 . S
O140 Cd141 2.223 . S
O140 C148 1.315 . S
Cd141 O140 2.223 . S
Cd141 O144 2.297 . S
Cd141 O145 2.439 . S
Cd141 O151 2.240 . S
Cd142 O143 2.240 . S
Cd142 O150 2.223 . S
Cd142 O152 2.297 . S
Cd142 O153 2.439 . S
O143 Cd142 2.240 . S
O143 C148 1.279 . S
O144 Cd141 2.297 . S
O144 C146 1.247 . S
O145 Cd141 2.439 . S
O145 C146 1.208 . S
C146 O144 1.247 . S
C146 O145 1.208 . S
C147 O152 1.247 . S
C147 O153 1.208 . S
C148 O140 1.315 . S
C148 O143 1.279 . S
C149 O150 1.315 . S
C149 O151 1.279 . S
O150 Cd142 2.223 . S
O150 C149 1.315 . S
O151 Cd141 2.240 . S
O151 C149 1.279 . S
O152 Cd142 2.297 . S
O152 C147 1.247 . S
O153 Cd142 2.439 . S
O153 C147 1.208 . S
O154 Cd155 2.223 . S
O154 C162 1.315 . S
Cd155 O154 2.223 . S
Cd155 O158 2.297 . S
Cd155 O159 2.439 . S
Cd155 O165 2.240 . S
Cd156 O157 2.240 . S
Cd156 O164 2.223 . S
Cd156 O166 2.297 . S
Cd156 O167 2.439 . S
O157 Cd156 2.240 . S
O157 C162 1.279 . S
O158 Cd155 2.297 . S
O158 C160 1.247 . S
O159 Cd155 2.439 . S
O159 C160 1.208 . S
C160 O158 1.247 . S
C160 O159 1.208 . S
C161 O166 1.247 . S
C161 O167 1.208 . S
C162 O154 1.315 . S
C162 O157 1.279 . S
C163 O164 1.315 . S
C163 O165 1.279 . S
O164 Cd156 2.223 . S
O164 C163 1.315 . S
O165 Cd155 2.240 . S
O165 C163 1.279 . S
O166 Cd156 2.297 . S
O166 C161 1.247 . S
O167 Cd156 2.439 . S
O167 C161 1.208 . S
O168 Cd169 2.223 . S
O168 C176 1.315 . S
Cd169 O168 2.223 . S
Cd169 O172 2.297 . S
Cd169 O173 2.439 . S
Cd169 O179 2.240 . S
Cd170 O171 2.240 . S
Cd170 O178 2.223 . S
Cd170 O180 2.297 . S
Cd170 O181 2.439 . S
O171 Cd170 2.240 . S
O171 C176 1.279 . S
O172 Cd169 2.297 . S
O172 C174 1.247 . S
O173 Cd169 2.439 . S
O173 C174 1.208 . S
C174 O172 1.247 . S
C174 O173 1.208 . S
C175 O180 1.247 . S
C175 O181 1.208 . S
C176 O168 1.315 . S
C176 O171 1.279 . S
C177 O178 1.315 . S
C177 O179 1.279 . S
O178 Cd170 2.223 . S
O178 C177 1.315 . S
O179 Cd169 2.240 . S
O179 C177 1.279 . S
O180 Cd170 2.297 . S
O180 C175 1.247 . S
O181 Cd170 2.439 . S
O181 C175 1.208 . S
O182 Cd183 2.223 . S
O182 C190 1.315 . S
Cd183 O182 2.223 . S
Cd183 O186 2.297 . S
Cd183 O187 2.439 . S
Cd183 O193 2.240 . S
Cd184 O185 2.240 . S
Cd184 O192 2.223 . S
Cd184 O194 2.297 . S
Cd184 O195 2.439 . S
O185 Cd184 2.240 . S
O185 C190 1.279 . S
O186 Cd183 2.297 . S
O186 C188 1.247 . S
O187 Cd183 2.439 . S
O187 C188 1.208 . S
C188 O186 1.247 . S
C188 O187 1.208 . S
C189 O194 1.247 . S
C189 O195 1.208 . S
C190 O182 1.315 . S
C190 O185 1.279 . S
C191 O192 1.315 . S
C191 O193 1.279 . S
O192 Cd184 2.223 . S
O192 C191 1.315 . S
O193 Cd183 2.240 . S
O193 C191 1.279 . S
O194 Cd184 2.297 . S
O194 C189 1.247 . S
O195 Cd184 2.439 . S
O195 C189 1.208 . S
O196 Cd197 2.223 . S
O196 C204 1.315 . S
Cd197 O196 2.223 . S
Cd197 O200 2.297 . S
Cd197 O201 2.439 . S
Cd197 O207 2.240 1_556 S
Cd198 O199 2.240 1_554 S
Cd198 O206 2.223 . S
Cd198 O208 2.297 . S
Cd198 O209 2.439 . S
O199 Cd198 2.240 1_556 S
O199 C204 1.279 . S
O200 Cd197 2.297 . S
O200 C202 1.247 . S
O201 Cd197 2.439 . S
O201 C202 1.208 . S
C202 O200 1.247 . S
C202 O201 1.208 . S
C203 O208 1.247 . S
C203 O209 1.208 . S
C204 O196 1.315 . S
C204 O199 1.279 . S
C205 O206 1.315 . S
C205 O207 1.279 . S
O206 Cd198 2.223 . S
O206 C205 1.315 . S
O207 Cd197 2.240 1_554 S
O207 C205 1.279 . S
O208 Cd198 2.297 . S
O208 C203 1.247 . S
O209 Cd198 2.439 . S
O209 C203 1.208 . S
O210 Cd211 2.223 . S
O210 C218 1.315 . S
Cd211 O210 2.223 . S
Cd211 O214 2.297 . S
Cd211 O215 2.439 . S
Cd211 O221 2.240 . S
Cd212 O213 2.240 . S
Cd212 O220 2.223 . S
Cd212 O222 2.297 . S
Cd212 O223 2.439 . S
O213 Cd212 2.240 . S
O213 C218 1.279 . S
O214 Cd211 2.297 . S
O214 C216 1.247 . S
O215 Cd211 2.439 . S
O215 C216 1.208 . S
C216 O214 1.247 . S
C216 O215 1.208 . S
C217 O222 1.247 . S
C217 O223 1.208 . S
C218 O210 1.315 . S
C218 O213 1.279 . S
C219 O220 1.315 . S
C219 O221 1.279 . S
O220 Cd212 2.223 . S
O220 C219 1.315 . S
O221 Cd211 2.240 . S
O221 C219 1.279 . S
O222 Cd212 2.297 . S
O222 C217 1.247 . S
O223 Cd212 2.439 . S
O223 C217 1.208 . S
C224 C225 1.363 . S
C224 C230 1.379 . S
C224 N232 1.356 . S
C225 C224 1.363 . S
C225 C231 1.363 . S
C226 C227 1.363 . S
C226 C231 1.379 . S
C226 N233 1.356 . S
C227 C226 1.363 . S
C227 C230 1.363 . S
N228 C230 1.356 . S
N228 H240 0.984 . S
N228 H241 0.985 . S
N229 C231 1.356 . S
N229 H234 0.984 . S
N229 H235 0.985 1_545 S
C230 C224 1.379 . S
C230 C227 1.363 . S
C230 N228 1.356 . S
C231 C225 1.363 . S
C231 C226 1.379 . S
C231 N229 1.356 . S
N232 C224 1.356 . S
N232 H238 0.984 . S
N232 H239 0.984 . S
N233 C226 1.356 . S
N233 H236 0.984 . S
N233 H237 0.985 1_545 S
H234 N229 0.984 . S
H235 N229 0.985 1_565 S
H236 N233 0.984 . S
H237 N233 0.985 1_565 S
H238 N232 0.984 . S
H239 N232 0.984 . S
H240 N228 0.984 . S
H241 N228 0.985 . S
C242 C243 1.363 . S
C242 C248 1.379 . S
C242 N250 1.356 . S
C243 C242 1.363 . S
C243 C249 1.363 . S
C244 C245 1.363 . S
C244 C249 1.379 . S
C244 N251 1.356 . S
C245 C244 1.363 . S
C245 C248 1.363 . S
N246 C248 1.356 . S
N246 H258 0.984 . S
N246 H259 0.985 . S
N247 C249 1.356 . S
N247 H252 0.984 . S
N247 H253 0.985 . S
C248 C242 1.379 . S
C248 C245 1.363 . S
C248 N246 1.356 . S
C249 C243 1.363 . S
C249 C244 1.379 . S
C249 N247 1.356 . S
N250 C242 1.356 . S
N250 H256 0.984 . S
N250 H257 0.984 . S
N251 C244 1.356 . S
N251 H254 0.984 . S
N251 H255 0.985 . S
H252 N247 0.984 . S
H253 N247 0.985 . S
H254 N251 0.984 . S
H255 N251 0.985 . S
H256 N250 0.984 . S
H257 N250 0.984 . S
H258 N246 0.984 . S
H259 N246 0.985 . S
C260 C261 1.363 . S
C260 C266 1.379 . S
C260 N268 1.356 . S
C261 C260 1.363 . S
C261 C267 1.363 . S
C262 C263 1.363 . S
C262 C267 1.379 . S
C262 N269 1.356 . S
C263 C262 1.363 . S
C263 C266 1.363 . S
N264 C266 1.356 . S
N264 H276 0.984 . S
N264 H277 0.985 . S
N265 C267 1.356 . S
N265 H270 0.984 . S
N265 H271 0.985 . S
C266 C260 1.379 . S
C266 C263 1.363 . S
C266 N264 1.356 . S
C267 C261 1.363 . S
C267 C262 1.379 . S
C267 N265 1.356 . S
N268 C260 1.356 . S
N268 H274 0.984 . S
N268 H275 0.984 . S
N269 C262 1.356 . S
N269 H272 0.984 1_556 S
N269 H273 0.985 1_556 S
H270 N265 0.984 . S
H271 N265 0.985 . S
H272 N269 0.984 1_554 S
H273 N269 0.985 1_554 S
H274 N268 0.984 . S
H275 N268 0.984 . S
H276 N264 0.984 . S
H277 N264 0.985 . S
C278 C279 1.363 . S
C278 C284 1.379 . S
C278 N286 1.356 . S
C279 C278 1.363 . S
C279 C285 1.363 . S
C280 C281 1.363 . S
C280 C285 1.379 . S
C280 N287 1.356 . S
C281 C280 1.363 . S
C281 C284 1.363 . S
N282 C284 1.356 . S
N282 H294 0.984 . S
N282 H295 0.985 . S
N283 C285 1.356 . S
N283 H288 0.984 . S
N283 H289 0.985 . S
C284 C278 1.379 . S
C284 C281 1.363 . S
C284 N282 1.356 . S
C285 C279 1.363 . S
C285 C280 1.379 . S
C285 N283 1.356 . S
N286 C278 1.356 . S
N286 H292 0.984 . S
N286 H293 0.984 . S
N287 C280 1.356 . S
N287 H290 0.984 . S
N287 H291 0.985 . S
H288 N283 0.984 . S
H289 N283 0.985 . S
H290 N287 0.984 . S
H291 N287 0.985 . S
H292 N286 0.984 . S
H293 N286 0.984 . S
H294 N282 0.984 . S
H295 N282 0.985 . S
C296 C297 1.363 . S
C296 C302 1.379 . S
C296 N304 1.356 . S
C297 C296 1.363 . S
C297 C303 1.363 . S
C298 C299 1.363 . S
C298 C303 1.379 . S
C298 N305 1.356 . S
C299 C298 1.363 . S
C299 C302 1.363 . S
N300 C302 1.356 . S
N300 H312 0.984 . S
N300 H313 0.985 . S
N301 C303 1.356 . S
N301 H306 0.984 . S
N301 H307 0.985 . S
C302 C296 1.379 . S
C302 C299 1.363 . S
C302 N300 1.356 . S
C303 C297 1.363 . S
C303 C298 1.379 . S
C303 N301 1.356 . S
N304 C296 1.356 . S
N304 H310 0.984 . S
N304 H311 0.984 . S
N305 C298 1.356 . S
N305 H308 0.984 1_556 S
N305 H309 0.985 1_556 S
H306 N301 0.984 . S
H307 N301 0.985 . S
H308 N305 0.984 1_554 S
H309 N305 0.985 1_554 S
H310 N304 0.984 . S
H311 N304 0.984 . S
H312 N300 0.984 . S
H313 N300 0.985 . S
C314 C315 1.363 . S
C314 C320 1.379 . S
C314 N322 1.356 . S
C315 C314 1.363 . S
C315 C321 1.363 . S
C316 C317 1.363 . S
C316 C321 1.379 . S
C316 N323 1.356 . S
C317 C316 1.363 . S
C317 C320 1.363 . S
N318 C320 1.356 . S
N318 H330 0.984 . S
N318 H331 0.985 . S
N319 C321 1.356 . S
N319 H324 0.984 . S
N319 H325 0.985 . S
C320 C314 1.379 . S
C320 C317 1.363 . S
C320 N318 1.356 . S
C321 C315 1.363 . S
C321 C316 1.379 . S
C321 N319 1.356 . S
N322 C314 1.356 . S
N322 H328 0.984 . S
N322 H329 0.984 . S
N323 C316 1.356 . S
N323 H326 0.984 . S
N323 H327 0.985 . S
H324 N319 0.984 . S
H325 N319 0.985 . S
H326 N323 0.984 . S
H327 N323 0.985 . S
H328 N322 0.984 . S
H329 N322 0.984 . S
H330 N318 0.984 . S
H331 N318 0.985 . S
C332 C333 1.363 . S
C332 C338 1.379 . S
C332 N340 1.356 . S
C333 C332 1.363 . S
C333 C339 1.363 . S
C334 C335 1.363 . S
C334 C339 1.379 . S
C334 N341 1.356 . S
C335 C334 1.363 . S
C335 C338 1.363 . S
N336 C338 1.356 . S
N336 H348 0.984 1_565 S
N336 H349 0.985 . S
N337 C339 1.356 . S
N337 H342 0.984 . S
N337 H343 0.985 . S
C338 C332 1.379 . S
C338 C335 1.363 . S
C338 N336 1.356 . S
C339 C333 1.363 . S
C339 C334 1.379 . S
C339 N337 1.356 . S
N340 C332 1.356 . S
N340 H346 0.984 1_565 S
N340 H347 0.984 . S
N341 C334 1.356 . S
N341 H344 0.984 . S
N341 H345 0.985 . S
H342 N337 0.984 . S
H343 N337 0.985 . S
H344 N341 0.984 . S
H345 N341 0.985 . S
H346 N340 0.984 1_545 S
H347 N340 0.984 . S
H348 N336 0.984 1_545 S
H349 N336 0.985 . S
C350 C351 1.363 . S
C350 C356 1.379 . S
C350 N358 1.356 . S
C351 C350 1.363 . S
C351 C357 1.363 . S
C352 C353 1.363 . S
C352 C357 1.379 . S
C352 N359 1.356 . S
C353 C352 1.363 . S
C353 C356 1.363 . S
N354 C356 1.356 . S
N354 H366 0.984 . S
N354 H367 0.985 . S
N355 C357 1.356 . S
N355 H360 0.984 . S
N355 H361 0.985 . S
C356 C350 1.379 . S
C356 C353 1.363 . S
C356 N354 1.356 . S
C357 C351 1.363 . S
C357 C352 1.379 . S
C357 N355 1.356 . S
N358 C350 1.356 . S
N358 H364 0.984 . S
N358 H365 0.984 . S
N359 C352 1.356 . S
N359 H362 0.984 . S
N359 H363 0.985 . S
H360 N355 0.984 . S
H361 N355 0.985 . S
H362 N359 0.984 . S
H363 N359 0.985 . S
H364 N358 0.984 . S
H365 N358 0.984 . S
H366 N354 0.984 . S
H367 N354 0.985 . S
C368 C369 1.363 1_565 S
C368 C374 1.379 1_455 S
C368 N376 1.356 . S
C369 C368 1.363 1_545 S
C369 C375 1.363 . S
C370 C371 1.363 1_545 S
C370 C375 1.379 1_655 S
C370 N377 1.356 . S
C371 C370 1.363 1_565 S
C371 C374 1.363 . S
N372 C374 1.356 . S
N372 H384 0.984 . S
N372 H385 0.985 . S
N373 C375 1.356 . S
N373 H378 0.984 . S
N373 H379 0.985 . S
C374 C368 1.379 1_655 S
C374 C371 1.363 . S
C374 N372 1.356 . S
C375 C369 1.363 . S
C375 C370 1.379 1_455 S
C375 N373 1.356 . S
N376 C368 1.356 . S
N376 H382 0.984 . S
N376 H383 0.984 . S
N377 C370 1.356 . S
N377 H380 0.984 . S
N377 H381 0.985 . S
H378 N373 0.984 . S
H379 N373 0.985 . S
H380 N377 0.984 . S
H381 N377 0.985 . S
H382 N376 0.984 . S
H383 N376 0.984 . S
H384 N372 0.984 . S
H385 N372 0.985 . S
C386 C387 1.363 . S
C386 C392 1.379 . S
C386 N394 1.356 . S
C387 C386 1.363 . S
C387 C393 1.363 1_655 S
C388 C389 1.363 . S
C388 C393 1.379 . S
C388 N395 1.356 . S
C389 C388 1.363 . S
C389 C392 1.363 1_455 S
N390 C392 1.356 . S
N390 H402 0.984 . S
N390 H403 0.985 . S
N391 C393 1.356 . S
N391 H396 0.984 . S
N391 H397 0.985 . S
C392 C386 1.379 . S
C392 C389 1.363 1_655 S
C392 N390 1.356 . S
C393 C387 1.363 1_455 S
C393 C388 1.379 . S
C393 N391 1.356 . S
N394 C386 1.356 . S
N394 H400 0.984 . S
N394 H401 0.984 . S
N395 C388 1.356 . S
N395 H398 0.984 . S
N395 H399 0.985 . S
H396 N391 0.984 . S
H397 N391 0.985 . S
H398 N395 0.984 . S
H399 N395 0.985 . S
H400 N394 0.984 . S
H401 N394 0.984 . S
H402 N390 0.984 . S
H403 N390 0.985 . S
C404 C405 1.363 . S
C404 C410 1.379 . S
C404 N412 1.356 . S
C405 C404 1.363 . S
C405 C411 1.363 . S
C406 C407 1.363 . S
C406 C411 1.379 . S
C406 N413 1.356 . S
C407 C406 1.363 . S
C407 C410 1.363 . S
N408 C410 1.356 . S
N408 H420 0.984 . S
N408 H421 0.985 . S
N409 C411 1.356 . S
N409 H414 0.984 . S
N409 H415 0.985 . S
C410 C404 1.379 . S
C410 C407 1.363 . S
C410 N408 1.356 . S
C411 C405 1.363 . S
C411 C406 1.379 . S
C411 N409 1.356 . S
N412 C404 1.356 . S
N412 H418 0.984 . S
N412 H419 0.984 . S
N413 C406 1.356 . S
N413 H416 0.984 . S
N413 H417 0.985 . S
H414 N409 0.984 . S
H415 N409 0.985 . S
H416 N413 0.984 . S
H417 N413 0.985 . S
H418 N412 0.984 . S
H419 N412 0.984 . S
H420 N408 0.984 . S
H421 N408 0.985 . S
C422 C423 1.363 . S
C422 C428 1.379 1_565 S
C422 N430 1.356 1_554 S
C423 C422 1.363 . S
C423 C429 1.363 . S
C424 C425 1.363 . S
C424 C429 1.379 1_545 S
C424 N431 1.356 . S
C425 C424 1.363 . S
C425 C428 1.363 . S
N426 C428 1.356 1_556 S
N426 H438 0.984 . S
N426 H439 0.985 1_556 S
N427 C429 1.356 . S
N427 H432 0.984 . S
N427 H433 0.985 . S
C428 C422 1.379 1_545 S
C428 C425 1.363 . S
C428 N426 1.356 1_554 S
C429 C423 1.363 . S
C429 C424 1.379 1_565 S
C429 N427 1.356 . S
N430 C422 1.356 1_556 S
N430 H436 0.984 . S
N430 H437 0.984 1_556 S
N431 C424 1.356 . S
N431 H434 0.984 . S
N431 H435 0.985 . S
H432 N427 0.984 . S
H433 N427 0.985 . S
H434 N431 0.984 . S
H435 N431 0.985 . S
H436 N430 0.984 . S
H437 N430 0.984 1_554 S
H438 N426 0.984 . S
H439 N426 0.985 1_554 S
C440 C441 1.363 1_554 S
C440 C446 1.379 1_455 S
C440 N448 1.356 . S
C441 C440 1.363 1_556 S
C441 C447 1.363 . S
C442 C443 1.363 . S
C442 C447 1.379 1_655 S
C442 N449 1.356 . S
C443 C442 1.363 . S
C443 C446 1.363 1_556 S
N444 C446 1.356 . S
N444 H456 0.984 . S
N444 H457 0.985 . S
N445 C447 1.356 . S
N445 H450 0.984 . S
N445 H451 0.985 . S
C446 C440 1.379 1_655 S
C446 C443 1.363 1_554 S
C446 N444 1.356 . S
C447 C441 1.363 . S
C447 C442 1.379 1_455 S
C447 N445 1.356 . S
N448 C440 1.356 . S
N448 H454 0.984 . S
N448 H455 0.984 . S
N449 C442 1.356 . S
N449 H452 0.984 . S
N449 H453 0.985 . S
H450 N445 0.984 . S
H451 N445 0.985 . S
H452 N449 0.984 . S
H453 N449 0.985 . S
H454 N448 0.984 . S
H455 N448 0.984 . S
H456 N444 0.984 . S
H457 N444 0.985 . S
C458 C459 1.363 . S
C458 C464 1.379 . S
C458 N466 1.356 . S
C459 C458 1.363 . S
C459 C465 1.363 . S
C460 C461 1.363 . S
C460 C465 1.379 . S
C460 N467 1.356 . S
C461 C460 1.363 . S
C461 C464 1.363 . S
N462 C464 1.356 . S
N462 H474 0.984 . S
N462 H475 0.985 . S
N463 C465 1.356 . S
N463 H468 0.984 . S
N463 H469 0.985 . S
C464 C458 1.379 . S
C464 C461 1.363 . S
C464 N462 1.356 . S
C465 C459 1.363 . S
C465 C460 1.379 . S
C465 N463 1.356 . S
N466 C458 1.356 . S
N466 H472 0.984 . S
N466 H473 0.984 . S
N467 C460 1.356 . S
N467 H470 0.984 . S
N467 H471 0.985 . S
H468 N463 0.984 . S
H469 N463 0.985 . S
H470 N467 0.984 . S
H471 N467 0.985 . S
H472 N466 0.984 . S
H473 N466 0.984 . S
H474 N462 0.984 . S
H475 N462 0.985 . S
C476 C477 1.363 1_565 S
C476 C482 1.379 . S
C476 N484 1.356 . S
C477 C476 1.363 1_545 S
C477 C483 1.363 . S
C478 C479 1.363 1_545 S
C478 C483 1.379 . S
C478 N485 1.356 . S
C479 C478 1.363 1_565 S
C479 C482 1.363 . S
N480 C482 1.356 . S
N480 H492 0.984 . S
N480 H493 0.985 . S
N481 C483 1.356 . S
N481 H486 0.984 . S
N481 H487 0.985 . S
C482 C476 1.379 . S
C482 C479 1.363 . S
C482 N480 1.356 . S
C483 C477 1.363 . S
C483 C478 1.379 . S
C483 N481 1.356 . S
N484 C476 1.356 . S
N484 H490 0.984 . S
N484 H491 0.984 . S
N485 C478 1.356 . S
N485 H488 0.984 . S
N485 H489 0.985 . S
H486 N481 0.984 . S
H487 N481 0.985 . S
H488 N485 0.984 . S
H489 N485 0.985 . S
H490 N484 0.984 . S
H491 N484 0.984 . S
H492 N480 0.984 . S
H493 N480 0.985 . S
C494 C495 1.363 1_655 S
C494 C500 1.379 1_545 S
C494 N502 1.356 . S
C495 C494 1.363 1_455 S
C495 C501 1.363 . S
C496 C497 1.363 1_455 S
C496 C501 1.379 1_565 S
C496 N503 1.356 . S
C497 C496 1.363 1_655 S
C497 C500 1.363 . S
N498 C500 1.356 . S
N498 H510 0.984 . S
N498 H511 0.985 . S
N499 C501 1.356 . S
N499 H504 0.984 . S
N499 H505 0.985 . S
C500 C494 1.379 1_565 S
C500 C497 1.363 . S
C500 N498 1.356 . S
C501 C495 1.363 . S
C501 C496 1.379 1_545 S
C501 N499 1.356 . S
N502 C494 1.356 . S
N502 H508 0.984 . S
N502 H509 0.984 . S
N503 C496 1.356 . S
N503 H506 0.984 . S
N503 H507 0.985 . S
H504 N499 0.984 . S
H505 N499 0.985 . S
H506 N503 0.984 . S
H507 N503 0.985 . S
H508 N502 0.984 . S
H509 N502 0.984 . S
H510 N498 0.984 . S
H511 N498 0.985 . S
C512 C513 1.363 . S
C512 C518 1.379 . S
C512 N520 1.356 . S
C513 C512 1.363 . S
C513 C519 1.363 . S
C514 C515 1.363 . S
C514 C519 1.379 . S
C514 N521 1.356 . S
C515 C514 1.363 . S
C515 C518 1.363 . S
N516 C518 1.356 . S
N516 H528 0.984 . S
N516 H529 0.985 . S
N517 C519 1.356 . S
N517 H522 0.984 . S
N517 H523 0.985 . S
C518 C512 1.379 . S
C518 C515 1.363 . S
C518 N516 1.356 . S
C519 C513 1.363 . S
C519 C514 1.379 . S
C519 N517 1.356 . S
N520 C512 1.356 . S
N520 H526 0.984 . S
N520 H527 0.984 . S
N521 C514 1.356 . S
N521 H524 0.984 . S
N521 H525 0.985 . S
H522 N517 0.984 . S
H523 N517 0.985 . S
H524 N521 0.984 . S
H525 N521 0.985 . S
H526 N520 0.984 . S
H527 N520 0.984 . S
H528 N516 0.984 . S
H529 N516 0.985 . S
C530 C531 1.363 . S
C530 C536 1.379 . S
C530 N538 1.356 . S
C531 C530 1.363 . S
C531 C537 1.363 . S
C532 C533 1.363 . S
C532 C537 1.379 . S
C532 N539 1.356 . S
C533 C532 1.363 . S
C533 C536 1.363 . S
N534 C536 1.356 . S
N534 H546 0.984 . S
N534 H547 0.985 . S
N535 C537 1.356 . S
N535 H540 0.984 . S
N535 H541 0.985 . S
C536 C530 1.379 . S
C536 C533 1.363 . S
C536 N534 1.356 . S
C537 C531 1.363 . S
C537 C532 1.379 . S
C537 N535 1.356 . S
N538 C530 1.356 . S
N538 H544 0.984 . S
N538 H545 0.984 . S
N539 C532 1.356 . S
N539 H542 0.984 . S
N539 H543 0.985 . S
H540 N535 0.984 . S
H541 N535 0.985 . S
H542 N539 0.984 . S
H543 N539 0.985 . S
H544 N538 0.984 . S
H545 N538 0.984 . S
H546 N534 0.984 . S
H547 N534 0.985 . S
C548 C549 1.363 . S
C548 C554 1.364 1_554 S
C548 N556 1.356 . S
C549 C548 1.363 . S
C549 C555 1.363 . S
C550 C551 1.363 1_554 S
C550 C555 1.379 . S
C550 N557 1.356 1_554 S
C551 C550 1.363 1_556 S
C551 C554 1.369 . S
N552 C554 1.368 . S
N552 H564 0.984 . S
N552 H565 0.985 . S
N553 C555 1.356 . S
N553 H558 0.984 . S
N553 H559 0.985 . S
C554 C548 1.364 1_556 S
C554 C551 1.369 . S
C554 N552 1.368 . S
C555 C549 1.363 . S
C555 C550 1.379 . S
C555 N553 1.356 . S
N556 C548 1.356 . S
N556 H562 0.984 . S
N556 H563 0.984 . S
N557 C550 1.356 1_556 S
N557 H560 0.984 . S
N557 H561 0.985 . S
H558 N553 0.984 . S
H559 N553 0.985 . S
H560 N557 0.984 . S
H561 N557 0.985 . S
H562 N556 0.984 . S
H563 N556 0.984 . S
H564 N552 0.984 . S
H565 N552 0.985 . S
C566 C567 1.363 . S
C566 C572 1.379 . S
C566 N574 1.356 . S
C567 C566 1.363 . S
C567 C573 1.363 . S
C568 C569 1.363 . S
C568 C573 1.379 . S
C568 N575 1.356 . S
C569 C568 1.363 . S
C569 C572 1.363 . S
N570 C572 1.356 . S
N570 H582 0.984 . S
N570 H583 0.985 . S
N571 C573 1.356 . S
N571 H576 0.984 . S
N571 H577 0.985 . S
C572 C566 1.379 . S
C572 C569 1.363 . S
C572 N570 1.356 . S
C573 C567 1.363 . S
C573 C568 1.379 . S
C573 N571 1.356 . S
N574 C566 1.356 . S
N574 H580 0.984 . S
N574 H581 0.984 . S
N575 C568 1.356 . S
N575 H578 0.984 . S
N575 H579 0.985 . S
H576 N571 0.984 . S
H577 N571 0.985 . S
H578 N575 0.984 . S
H579 N575 0.985 . S
H580 N574 0.984 . S
H581 N574 0.984 . S
H582 N570 0.984 . S
H583 N570 0.985 . S
C584 C585 1.363 . S
C584 C590 1.379 . S
C584 N592 1.356 . S
C585 C584 1.363 . S
C585 C591 1.363 . S
C586 C587 1.363 . S
C586 C591 1.379 . S
C586 N593 1.356 . S
C587 C586 1.363 . S
C587 C590 1.363 . S
N588 C590 1.356 . S
N588 H600 0.984 . S
N588 H601 0.985 . S
N589 C591 1.356 . S
N589 H594 0.984 . S
N589 H595 0.985 . S
C590 C584 1.379 . S
C590 C587 1.363 . S
C590 N588 1.356 . S
C591 C585 1.363 . S
C591 C586 1.379 . S
C591 N589 1.356 . S
N592 C584 1.356 . S
N592 H598 0.984 . S
N592 H599 0.984 . S
N593 C586 1.356 . S
N593 H596 0.984 . S
N593 H597 0.985 . S
H594 N589 0.984 . S
H595 N589 0.985 . S
H596 N593 0.984 . S
H597 N593 0.985 . S
H598 N592 0.984 . S
H599 N592 0.984 . S
H600 N588 0.984 . S
H601 N588 0.985 . S
C602 C603 1.363 . S
C602 C608 1.379 . S
C602 N610 1.356 . S
C603 C602 1.363 . S
C603 C609 1.363 . S
C604 C605 1.369 . S
C604 C609 1.364 1_556 S
C604 N611 1.368 . S
C605 C604 1.369 . S
C605 C608 1.363 1_556 S
N606 C608 1.356 1_556 S
N606 H618 0.984 . S
N606 H619 0.985 . S
N607 C609 1.356 . S
N607 H612 0.984 . S
N607 H613 0.985 . S
C608 C602 1.379 . S
C608 C605 1.363 1_554 S
C608 N606 1.356 1_554 S
C609 C603 1.363 . S
C609 C604 1.364 1_554 S
C609 N607 1.356 . S
N610 C602 1.356 . S
N610 H616 0.984 . S
N610 H617 0.984 . S
N611 C604 1.368 . S
N611 H614 0.984 . S
N611 H615 0.985 . S
H612 N607 0.984 . S
H613 N607 0.985 . S
H614 N611 0.984 . S
H615 N611 0.985 . S
H616 N610 0.984 . S
H617 N610 0.984 . S
H618 N606 0.984 . S
H619 N606 0.985 . S
C620 C621 1.363 . S
C620 C626 1.379 . S
C620 N628 1.356 . S
C621 C620 1.363 . S
C621 C627 1.363 . S
C622 C623 1.363 . S
C622 C627 1.379 . S
C622 N629 1.356 . S
C623 C622 1.363 . S
C623 C626 1.363 . S
N624 C626 1.356 . S
N624 H636 0.984 . S
N624 H637 0.985 . S
N625 C627 1.356 . S
N625 H630 0.984 . S
N625 H631 0.985 . S
C626 C620 1.379 . S
C626 C623 1.363 . S
C626 N624 1.356 . S
C627 C621 1.363 . S
C627 C622 1.379 . S
C627 N625 1.356 . S
N628 C620 1.356 . S
N628 H634 0.984 . S
N628 H635 0.984 . S
N629 C622 1.356 . S
N629 H632 0.984 . S
N629 H633 0.985 . S
H630 N625 0.984 . S
H631 N625 0.985 . S
H632 N629 0.984 . S
H633 N629 0.985 . S
H634 N628 0.984 . S
H635 N628 0.984 . S
H636 N624 0.984 . S
H637 N624 0.985 . S
C638 C639 1.363 . S
C638 C644 1.379 . S
C638 N646 1.356 . S
C639 C638 1.363 . S
C639 C645 1.363 . S
C640 C641 1.363 . S
C640 C645 1.379 . S
C640 N647 1.356 . S
C641 C640 1.363 . S
C641 C644 1.363 . S
N642 C644 1.356 . S
N642 H654 0.984 . S
N642 H655 0.985 . S
N643 C645 1.356 . S
N643 H648 0.984 . S
N643 H649 0.985 . S
C644 C638 1.379 . S
C644 C641 1.363 . S
C644 N642 1.356 . S
C645 C639 1.363 . S
C645 C640 1.379 . S
C645 N643 1.356 . S
N646 C638 1.356 . S
N646 H652 0.984 . S
N646 H653 0.984 . S
N647 C640 1.356 . S
N647 H650 0.984 . S
N647 H651 0.985 . S
H648 N643 0.984 . S
H649 N643 0.985 . S
H650 N647 0.984 . S
H651 N647 0.985 . S
H652 N646 0.984 . S
H653 N646 0.984 . S
H654 N642 0.984 . S
H655 N642 0.985 . S
C656 C657 1.360 1_554 S
C656 C662 1.385 . S
C656 N664 1.351 1_554 S
C657 C656 1.360 1_556 S
C657 C663 1.363 1_556 S
C658 C659 1.363 . S
C658 C663 1.379 . S
C658 N665 1.356 . S
C659 C658 1.363 . S
C659 C662 1.363 . S
N660 C662 1.356 . S
N660 H672 0.984 . S
N660 H673 0.985 . S
N661 C663 1.356 1_556 S
N661 H666 0.984 . S
N661 H667 0.985 . S
C662 C656 1.385 . S
C662 C659 1.363 . S
C662 N660 1.356 . S
C663 C657 1.363 1_554 S
C663 C658 1.379 . S
C663 N661 1.356 1_554 S
N664 C656 1.351 1_556 S
N664 H670 0.984 . S
N664 H671 0.984 . S
N665 C658 1.356 . S
N665 H668 0.984 . S
N665 H669 0.985 . S
H666 N661 0.984 . S
H667 N661 0.985 . S
H668 N665 0.984 . S
H669 N665 0.985 . S
H670 N664 0.984 . S
H671 N664 0.984 . S
H672 N660 0.984 . S
H673 N660 0.985 . S
C674 C675 1.363 . S
C674 C680 1.379 . S
C674 N682 1.356 . S
C675 C674 1.363 . S
C675 C681 1.363 . S
C676 C677 1.363 . S
C676 C681 1.379 . S
C676 N683 1.356 . S
C677 C676 1.363 . S
C677 C680 1.363 . S
N678 C680 1.356 . S
N678 H690 0.984 . S
N678 H691 0.985 . S
N679 C681 1.356 . S
N679 H684 0.984 . S
N679 H685 0.985 . S
C680 C674 1.379 . S
C680 C677 1.363 . S
C680 N678 1.356 . S
C681 C675 1.363 . S
C681 C676 1.379 . S
C681 N679 1.356 . S
N682 C674 1.356 . S
N682 H688 0.984 . S
N682 H689 0.984 . S
N683 C676 1.356 . S
N683 H686 0.984 . S
N683 H687 0.985 . S
H684 N679 0.984 . S
H685 N679 0.985 . S
H686 N683 0.984 . S
H687 N683 0.985 . S
H688 N682 0.984 . S
H689 N682 0.984 . S
H690 N678 0.984 . S
H691 N678 0.985 . S
C692 C693 1.363 . S
C692 C698 1.379 . S
C692 N700 1.356 . S
C693 C692 1.363 . S
C693 C699 1.363 . S
C694 C695 1.363 . S
C694 C699 1.379 . S
C694 N701 1.356 . S
C695 C694 1.363 . S
C695 C698 1.363 . S
N696 C698 1.356 . S
N696 H708 0.984 . S
N696 H709 0.985 . S
N697 C699 1.356 . S
N697 H702 0.984 . S
N697 H703 0.985 . S
C698 C692 1.379 . S
C698 C695 1.363 . S
C698 N696 1.356 . S
C699 C693 1.363 . S
C699 C694 1.379 . S
C699 N697 1.356 . S
N700 C692 1.356 . S
N700 H706 0.984 . S
N700 H707 0.984 . S
N701 C694 1.356 . S
N701 H704 0.984 . S
N701 H705 0.985 . S
H702 N697 0.984 . S
H703 N697 0.985 . S
H704 N701 0.984 . S
H705 N701 0.985 . S
H706 N700 0.984 . S
H707 N700 0.984 . S
H708 N696 0.984 . S
H709 N696 0.985 . S
C710 C711 1.363 . S
C710 C716 1.379 . S
C710 N718 1.356 . S
C711 C710 1.363 . S
C711 C717 1.363 . S
C712 C713 1.363 . S
C712 C717 1.379 . S
C712 N719 1.356 . S
C713 C712 1.363 . S
C713 C716 1.363 . S
N714 C716 1.356 . S
N714 H726 0.984 . S
N714 H727 0.985 . S
N715 C717 1.356 . S
N715 H720 0.984 . S
N715 H721 0.985 . S
C716 C710 1.379 . S
C716 C713 1.363 . S
C716 N714 1.356 . S
C717 C711 1.363 . S
C717 C712 1.379 . S
C717 N715 1.356 . S
N718 C710 1.356 . S
N718 H724 0.984 . S
N718 H725 0.984 . S
N719 C712 1.356 . S
N719 H722 0.984 . S
N719 H723 0.985 . S
H720 N715 0.984 . S
H721 N715 0.985 . S
H722 N719 0.984 . S
H723 N719 0.985 . S
H724 N718 0.984 . S
H725 N718 0.984 . S
H726 N714 0.984 . S
H727 N714 0.985 . S
C728 C729 1.363 . S
C728 C734 1.379 . S
C728 N736 1.356 . S
C729 C728 1.363 . S
C729 C735 1.363 . S
C730 C731 1.363 . S
C730 C735 1.379 . S
C730 N737 1.356 . S
C731 C730 1.363 . S
C731 C734 1.363 . S
N732 C734 1.356 . S
N732 H744 0.984 . S
N732 H745 0.985 . S
N733 C735 1.356 . S
N733 H738 0.984 . S
N733 H739 0.985 . S
C734 C728 1.379 . S
C734 C731 1.363 . S
C734 N732 1.356 . S
C735 C729 1.363 . S
C735 C730 1.379 . S
C735 N733 1.356 . S
N736 C728 1.356 . S
N736 H742 0.984 . S
N736 H743 0.984 . S
N737 C730 1.356 . S
N737 H740 0.984 . S
N737 H741 0.985 . S
H738 N733 0.984 . S
H739 N733 0.985 . S
H740 N737 0.984 . S
H741 N737 0.985 . S
H742 N736 0.984 . S
H743 N736 0.984 . S
H744 N732 0.984 . S
H745 N732 0.985 . S
C746 C747 1.363 . S
C746 C752 1.379 . S
C746 N754 1.356 . S
C747 C746 1.363 . S
C747 C753 1.363 . S
C748 C749 1.363 . S
C748 C753 1.379 . S
C748 N755 1.356 . S
C749 C748 1.363 . S
C749 C752 1.363 . S
N750 C752 1.356 . S
N750 H762 0.984 . S
N750 H763 0.985 . S
N751 C753 1.356 . S
N751 H756 0.984 . S
N751 H757 0.985 . S
C752 C746 1.379 . S
C752 C749 1.363 . S
C752 N750 1.356 . S
C753 C747 1.363 . S
C753 C748 1.379 . S
C753 N751 1.356 . S
N754 C746 1.356 . S
N754 H760 0.984 . S
N754 H761 0.984 . S
N755 C748 1.356 . S
N755 H758 0.984 . S
N755 H759 0.985 . S
H756 N751 0.984 . S
H757 N751 0.985 . S
H758 N755 0.984 . S
H759 N755 0.985 . S
H760 N754 0.984 . S
H761 N754 0.984 . S
H762 N750 0.984 . S
H763 N750 0.985 . S
C764 C765 1.363 . S
C764 C770 1.379 . S
C764 N772 1.356 . S
C765 C764 1.363 . S
C765 C771 1.363 . S
C766 C767 1.363 . S
C766 C771 1.379 . S
C766 N773 1.356 . S
C767 C766 1.363 . S
C767 C770 1.363 . S
N768 C770 1.356 . S
N768 H780 0.984 . S
N768 H781 0.985 . S
N769 C771 1.356 . S
N769 H774 0.984 . S
N769 H775 0.985 . S
C770 C764 1.379 . S
C770 C767 1.363 . S
C770 N768 1.356 . S
C771 C765 1.363 . S
C771 C766 1.379 . S
C771 N769 1.356 . S
N772 C764 1.356 . S
N772 H778 0.984 . S
N772 H779 0.984 . S
N773 C766 1.356 . S
N773 H776 0.984 . S
N773 H777 0.985 . S
H774 N769 0.984 . S
H775 N769 0.985 . S
H776 N773 0.984 . S
H777 N773 0.985 . S
H778 N772 0.984 . S
H779 N772 0.984 . S
H780 N768 0.984 . S
H781 N768 0.985 . S
C782 C783 1.363 . S
C782 C788 1.379 1_554 S
C782 N790 1.356 . S
C783 C782 1.363 . S
C783 C789 1.363 . S
C784 C785 1.363 1_554 S
C784 C789 1.379 . S
C784 N791 1.356 1_554 S
C785 C784 1.363 1_556 S
C785 C788 1.363 . S
N786 C788 1.356 . S
N786 H798 0.984 . S
N786 H799 0.985 . S
N787 C789 1.356 . S
N787 H792 0.984 . S
N787 H793 0.985 . S
C788 C782 1.379 1_556 S
C788 C785 1.363 . S
C788 N786 1.356 . S
C789 C783 1.363 . S
C789 C784 1.379 . S
C789 N787 1.356 . S
N790 C782 1.356 . S
N790 H796 0.984 . S
N790 H797 0.984 . S
N791 C784 1.356 1_556 S
N791 H794 0.984 . S
N791 H795 0.985 . S
H792 N787 0.984 . S
H793 N787 0.985 . S
H794 N791 0.984 . S
H795 N791 0.985 . S
H796 N790 0.984 . S
H797 N790 0.984 . S
H798 N786 0.984 . S
H799 N786 0.985 . S
C225 C90 1.433 . S
C227 C6 1.433 . S
C243 C104 1.432 . S
C245 C20 1.433 . S
C261 C34 1.433 . S
C263 C62 1.433 . S
C279 C48 1.433 . S
C281 C76 1.433 . S
C297 C118 1.433 . S
C299 C202 1.433 . S
C315 C216 1.433 . S
C317 C132 1.433 . S
C333 C146 1.433 . S
C335 C174 1.433 . S
C351 C160 1.433 . S
C353 C188 1.432 . S
C369 C9 1.369 . S
C371 C149 1.369 . S
C387 C23 1.369 . S
C389 C163 1.369 . S
C405 C37 1.369 . S
C407 C121 1.369 . S
C423 C51 1.369 . S
C425 C135 1.369 . S
C441 C65 1.369 1_556 S
C443 C205 1.369 1_556 S
C459 C219 1.369 . S
C461 C79 1.369 . S
C477 C93 1.369 . S
C479 C177 1.369 . S
C495 C191 1.369 . S
C497 C107 1.369 . S
C513 C190 1.033 . S
C515 C8 1.033 . S
C531 C22 1.033 . S
C533 C204 1.033 . S
C549 C218 1.033 . S
C551 C36 1.033 . S
C567 C176 1.033 . S
C569 C50 1.033 . S
C585 C162 1.033 . S
C587 C64 1.033 . S
C603 C78 1.033 . S
C605 C120 1.033 . S
C621 C92 1.033 . S
C623 C134 1.033 . S
C639 C106 1.033 . S
C641 C148 1.033 . S
C657 C189 1.509 . S
C659 C7 1.509 . S
C675 C21 1.509 . S
C677 C203 1.509 . S
C693 C35 1.508 . S
C695 C217 1.508 . S
C711 C175 1.509 . S
C713 C49 1.509 . S
C729 C161 1.509 . S
C731 C63 1.509 . S
C747 C119 1.508 . S
C749 C77 1.508 . S
C765 C91 1.509 . S
C767 C133 1.509 . S
C783 C147 1.509 . S
C785 C105 1.509 . S
