# Generated by pormake.
# Topology ukn, (4)-cn, num edge types: 1
# Building blocks:
#     Node 0, Type 0, BuildingBlock: GALJAG_clean_sbu_0, # of connection points: 4
#     Node 1, Type 0, BuildingBlock: GALJAG_clean_sbu_0, # of connection points: 4
#     Node 2, Type 0, BuildingBlock: GALJAG_clean_sbu_0, # of connection points: 4
#     Node 3, Type 0, BuildingBlock: GALJAG_clean_sbu_0, # of connection points: 4
#     Node 4, Type 0, BuildingBlock: GALJAG_clean_sbu_0, # of connection points: 4
#     Node 5, Type 0, BuildingBlock: GALJAG_clean_sbu_0, # of connection points: 4
#     Node 6, Type 0, BuildingBlock: GALJAG_clean_sbu_0, # of connection points: 4
#     Node 7, Type 0, BuildingBlock: GALJAG_clean_sbu_0, # of connection points: 4
#     Node 8, Type 0, BuildingBlock: GALJAG_clean_sbu_0, # of connection points: 4
#     Node 9, Type 0, BuildingBlock: GALJAG_clean_sbu_0, # of connection points: 4
#     Node 10, Type 0, BuildingBlock: GALJAG_clean_sbu_0, # of connection points: 4
#     Node 11, Type 0, BuildingBlock: GALJAG_clean_sbu_0, # of connection points: 4
#     Node 12, Type 0, BuildingBlock: GALJAG_clean_sbu_0, # of connection points: 4
#     Node 13, Type 0, BuildingBlock: GALJAG_clean_sbu_0, # of connection points: 4
#     Node 14, Type 0, BuildingBlock: GALJAG_clean_sbu_0, # of connection points: 4
#     Node 15, Type 0, BuildingBlock: GALJAG_clean_sbu_0, # of connection points: 4
#     Node 16, Type 0, BuildingBlock: GALJAG_clean_sbu_0, # of connection points: 4
#     Node 17, Type 0, BuildingBlock: GALJAG_clean_sbu_0, # of connection points: 4
#     Node 18, Type 0, BuildingBlock: GALJAG_clean_sbu_0, # of connection points: 4
#     Node 19, Type 0, BuildingBlock: GALJAG_clean_sbu_0, # of connection points: 4
#     Node 20, Type 0, BuildingBlock: GALJAG_clean_sbu_0, # of connection points: 4
#     Node 21, Type 0, BuildingBlock: GALJAG_clean_sbu_0, # of connection points: 4
#     Node 22, Type 0, BuildingBlock: GALJAG_clean_sbu_0, # of connection points: 4
#     Node 23, Type 0, BuildingBlock: GALJAG_clean_sbu_0, # of connection points: 4
#     Node 24, Type 0, BuildingBlock: GALJAG_clean_sbu_0, # of connection points: 4
#     Node 25, Type 0, BuildingBlock: GALJAG_clean_sbu_0, # of connection points: 4
#     Node 26, Type 0, BuildingBlock: GALJAG_clean_sbu_0, # of connection points: 4
#     Node 27, Type 0, BuildingBlock: GALJAG_clean_sbu_0, # of connection points: 4
#     Node 28, Type 0, BuildingBlock: GALJAG_clean_sbu_0, # of connection points: 4
#     Node 29, Type 0, BuildingBlock: GALJAG_clean_sbu_0, # of connection points: 4
#     Node 30, Type 0, BuildingBlock: GALJAG_clean_sbu_0, # of connection points: 4
#     Node 31, Type 0, BuildingBlock: GALJAG_clean_sbu_0, # of connection points: 4
#     Node 32, Type 0, BuildingBlock: GALJAG_clean_sbu_0, # of connection points: 4
#     Node 33, Type 0, BuildingBlock: GALJAG_clean_sbu_0, # of connection points: 4
#     Node 34, Type 0, BuildingBlock: GALJAG_clean_sbu_0, # of connection points: 4
#     Node 35, Type 0, BuildingBlock: GALJAG_clean_sbu_0, # of connection points: 4
#     Edge 36, Type (0, 0), BuildingBlock: OJICUG_clean_linker_0, # of connection points: 2
#     Edge 37, Type (0, 0), BuildingBlock: OJICUG_clean_linker_0, # of connection points: 2
#     Edge 38, Type (0, 0), BuildingBlock: OJICUG_clean_linker_0, # of connection points: 2
#     Edge 39, Type (0, 0), BuildingBlock: OJICUG_clean_linker_0, # of connection points: 2
#     Edge 40, Type (0, 0), BuildingBlock: OJICUG_clean_linker_0, # of connection points: 2
#     Edge 41, Type (0, 0), BuildingBlock: OJICUG_clean_linker_0, # of connection points: 2
#     Edge 42, Type (0, 0), BuildingBlock: OJICUG_clean_linker_0, # of connection points: 2
#     Edge 43, Type (0, 0), BuildingBlock: OJICUG_clean_linker_0, # of connection points: 2
#     Edge 44, Type (0, 0), BuildingBlock: OJICUG_clean_linker_0, # of connection points: 2
#     Edge 45, Type (0, 0), BuildingBlock: OJICUG_clean_linker_0, # of connection points: 2
#     Edge 46, Type (0, 0), BuildingBlock: OJICUG_clean_linker_0, # of connection points: 2
#     Edge 47, Type (0, 0), BuildingBlock: OJICUG_clean_linker_0, # of connection points: 2
#     Edge 48, Type (0, 0), BuildingBlock: OJICUG_clean_linker_0, # of connection points: 2
#     Edge 49, Type (0, 0), BuildingBlock: OJICUG_clean_linker_0, # of connection points: 2
#     Edge 50, Type (0, 0), BuildingBlock: OJICUG_clean_linker_0, # of connection points: 2
#     Edge 51, Type (0, 0), BuildingBlock: OJICUG_clean_linker_0, # of connection points: 2
#     Edge 52, Type (0, 0), BuildingBlock: OJICUG_clean_linker_0, # of connection points: 2
#     Edge 53, Type (0, 0), BuildingBlock: OJICUG_clean_linker_0, # of connection points: 2
#     Edge 54, Type (0, 0), BuildingBlock: OJICUG_clean_linker_0, # of connection points: 2
#     Edge 55, Type (0, 0), BuildingBlock: OJICUG_clean_linker_0, # of connection points: 2
#     Edge 56, Type (0, 0), BuildingBlock: OJICUG_clean_linker_0, # of connection points: 2
#     Edge 57, Type (0, 0), BuildingBlock: OJICUG_clean_linker_0, # of connection points: 2
#     Edge 58, Type (0, 0), BuildingBlock: OJICUG_clean_linker_0, # of connection points: 2
#     Edge 59, Type (0, 0), BuildingBlock: OJICUG_clean_linker_0, # of connection points: 2
#     Edge 60, Type (0, 0), BuildingBlock: OJICUG_clean_linker_0, # of connection points: 2
#     Edge 61, Type (0, 0), BuildingBlock: OJICUG_clean_linker_0, # of connection points: 2
#     Edge 62, Type (0, 0), BuildingBlock: OJICUG_clean_linker_0, # of connection points: 2
#     Edge 63, Type (0, 0), BuildingBlock: OJICUG_clean_linker_0, # of connection points: 2
#     Edge 64, Type (0, 0), BuildingBlock: OJICUG_clean_linker_0, # of connection points: 2
#     Edge 65, Type (0, 0), BuildingBlock: OJICUG_clean_linker_0, # of connection points: 2
#     Edge 66, Type (0, 0), BuildingBlock: OJICUG_clean_linker_0, # of connection points: 2
#     Edge 67, Type (0, 0), BuildingBlock: OJICUG_clean_linker_0, # of connection points: 2
#     Edge 68, Type (0, 0), BuildingBlock: OJICUG_clean_linker_0, # of connection points: 2
#     Edge 69, Type (0, 0), BuildingBlock: OJICUG_clean_linker_0, # of connection points: 2
#     Edge 70, Type (0, 0), BuildingBlock: OJICUG_clean_linker_0, # of connection points: 2
#     Edge 71, Type (0, 0), BuildingBlock: OJICUG_clean_linker_0, # of connection points: 2
#     Edge 72, Type (0, 0), BuildingBlock: OJICUG_clean_linker_0, # of connection points: 2
#     Edge 73, Type (0, 0), BuildingBlock: OJICUG_clean_linker_0, # of connection points: 2
#     Edge 74, Type (0, 0), BuildingBlock: OJICUG_clean_linker_0, # of connection points: 2
#     Edge 75, Type (0, 0), BuildingBlock: OJICUG_clean_linker_0, # of connection points: 2
#     Edge 76, Type (0, 0), BuildingBlock: OJICUG_clean_linker_0, # of connection points: 2
#     Edge 77, Type (0, 0), BuildingBlock: OJICUG_clean_linker_0, # of connection points: 2
#     Edge 78, Type (0, 0), BuildingBlock: OJICUG_clean_linker_0, # of connection points: 2
#     Edge 79, Type (0, 0), BuildingBlock: OJICUG_clean_linker_0, # of connection points: 2
#     Edge 80, Type (0, 0), BuildingBlock: OJICUG_clean_linker_0, # of connection points: 2
#     Edge 81, Type (0, 0), BuildingBlock: OJICUG_clean_linker_0, # of connection points: 2
#     Edge 82, Type (0, 0), BuildingBlock: OJICUG_clean_linker_0, # of connection points: 2
#     Edge 83, Type (0, 0), BuildingBlock: OJICUG_clean_linker_0, # of connection points: 2
#     Edge 84, Type (0, 0), BuildingBlock: OJICUG_clean_linker_0, # of connection points: 2
#     Edge 85, Type (0, 0), BuildingBlock: OJICUG_clean_linker_0, # of connection points: 2
#     Edge 86, Type (0, 0), BuildingBlock: OJICUG_clean_linker_0, # of connection points: 2
#     Edge 87, Type (0, 0), BuildingBlock: OJICUG_clean_linker_0, # of connection points: 2
#     Edge 88, Type (0, 0), BuildingBlock: OJICUG_clean_linker_0, # of connection points: 2
#     Edge 89, Type (0, 0), BuildingBlock: OJICUG_clean_linker_0, # of connection points: 2
#     Edge 90, Type (0, 0), BuildingBlock: OJICUG_clean_linker_0, # of connection points: 2
#     Edge 91, Type (0, 0), BuildingBlock: OJICUG_clean_linker_0, # of connection points: 2
#     Edge 92, Type (0, 0), BuildingBlock: OJICUG_clean_linker_0, # of connection points: 2
#     Edge 93, Type (0, 0), BuildingBlock: OJICUG_clean_linker_0, # of connection points: 2
#     Edge 94, Type (0, 0), BuildingBlock: OJICUG_clean_linker_0, # of connection points: 2
#     Edge 95, Type (0, 0), BuildingBlock: OJICUG_clean_linker_0, # of connection points: 2
#     Edge 96, Type (0, 0), BuildingBlock: OJICUG_clean_linker_0, # of connection points: 2
#     Edge 97, Type (0, 0), BuildingBlock: OJICUG_clean_linker_0, # of connection points: 2
#     Edge 98, Type (0, 0), BuildingBlock: OJICUG_clean_linker_0, # of connection points: 2
#     Edge 99, Type (0, 0), BuildingBlock: OJICUG_clean_linker_0, # of connection points: 2
#     Edge 100, Type (0, 0), BuildingBlock: OJICUG_clean_linker_0, # of connection points: 2
#     Edge 101, Type (0, 0), BuildingBlock: OJICUG_clean_linker_0, # of connection points: 2
#     Edge 102, Type (0, 0), BuildingBlock: OJICUG_clean_linker_0, # of connection points: 2
#     Edge 103, Type (0, 0), BuildingBlock: OJICUG_clean_linker_0, # of connection points: 2
#     Edge 104, Type (0, 0), BuildingBlock: OJICUG_clean_linker_0, # of connection points: 2
#     Edge 105, Type (0, 0), BuildingBlock: OJICUG_clean_linker_0, # of connection points: 2
#     Edge 106, Type (0, 0), BuildingBlock: OJICUG_clean_linker_0, # of connection points: 2
#     Edge 107, Type (0, 0), BuildingBlock: OJICUG_clean_linker_0, # of connection points: 2
# Relax obj value: 0.060
# Max RMSD: 0.091
# Mean RMSD: 0.091
data_MOF--net-ukn--node1-GALJAG_clean_sbu_0--edge1-OJICUG_clean_linker_0
_symmetry_space_group_name_H-M    P1
_symmetry_Int_Tables_number       1
_symmetry_cell_setting            triclinic
loop_
_symmetry_equiv_pos_as_xyz
'x, y, z'
_cell_length_a     76.407762
_cell_length_b     76.591605
_cell_length_c     20.316911
_cell_angle_alpha  89.940443
_cell_angle_beta   89.997366
_cell_angle_gamma 119.92192
loop_
_atom_site_label
_atom_site_type_symbol
_atom_site_fract_x
_atom_site_fract_y
_atom_site_fract_z
_atom_type_partial_charge
In0 In 0.07086 0.29426 0.08697 0.0
O1 O 0.08361 0.27294 0.09958 0.0
O2 O 0.10258 0.30443 0.11803 0.0
C3 C 0.03246 0.27019 0.04925 0.0
C4 C 0.06959 0.30974 0.20493 0.0
C5 C 0.08333 0.31265 0.96932 0.0
O6 O 0.04369 0.26291 0.06324 0.0
O7 O 0.04037 0.28887 0.05822 0.0
O8 O 0.07564 0.31865 0.01243 0.0
O9 O 0.08546 0.29801 0.98636 0.0
C10 C 0.10088 0.28717 0.11624 0.0
O11 O 0.07767 0.32061 0.15476 0.0
O12 O 0.06159 0.29101 0.19498 0.0
In13 In 0.69539 0.77524 0.09564 0.0
O14 O 0.71556 0.80968 0.10635 0.0
O15 O 0.68359 0.79605 0.11656 0.0
C16 C 0.71802 0.75842 0.06941 0.0
C17 C 0.68044 0.75938 0.21467 0.0
C18 C 0.67874 0.76884 0.9751 0.0
O19 O 0.72605 0.77733 0.07639 0.0
O20 O 0.6992 0.74855 0.07887 0.0
O21 O 0.66844 0.75995 0.02564 0.0
O22 O 0.69716 0.78102 0.98584 0.0
C23 C 0.70049 0.81201 0.1168 0.0
O24 O 0.66969 0.75422 0.16319 0.0
O25 O 0.69887 0.7722 0.2057 0.0
In26 In 0.21588 0.91294 0.08036 0.0
O27 O 0.23564 0.90583 0.14647 0.0
O28 O 0.22069 0.92017 0.18979 0.0
C29 C 0.22083 0.90131 0.96006 0.0
C30 C 0.17787 0.88389 0.10584 0.0
C31 C 0.23363 0.95232 0.05238 0.0
O32 O 0.22999 0.90007 0.01011 0.0
O33 O 0.20902 0.90799 0.97119 0.0
O34 O 0.21486 0.94198 0.06365 0.0
O35 O 0.24321 0.94293 0.05846 0.0
C36 C 0.23192 0.91259 0.19815 0.0
O37 O 0.18193 0.90174 0.09376 0.0
O38 O 0.19277 0.88109 0.10435 0.0
In39 In 0.29574 0.07299 0.92397 0.0
O40 O 0.32261 0.0801 0.85786 0.0
O41 O 0.29331 0.0657 0.81458 0.0
C42 C 0.3123 0.08469 0.04427 0.0
C43 C 0.2867 0.10197 0.89833 0.0
C44 C 0.2742 0.03361 0.9521 0.0
O45 O 0.32272 0.08595 0.99423 0.0
O46 O 0.2938 0.07795 0.03313 0.0
O47 O 0.26571 0.04389 0.94062 0.0
O48 O 0.29316 0.04305 0.94616 0.0
C49 C 0.31212 0.07329 0.80621 0.0
O50 O 0.27294 0.08413 0.9107 0.0
O51 O 0.30441 0.10479 0.8996 0.0
In52 In 0.91322 0.21093 0.9103 0.0
O53 O 0.90849 0.23193 0.8428 0.0
O54 O 0.91985 0.21408 0.8003 0.0
C55 C 0.90285 0.2172 0.03084 0.0
C56 C 0.88165 0.17413 0.88866 0.0
C57 C 0.95267 0.22785 0.93674 0.0
O58 O 0.90147 0.22613 0.98034 0.0
O59 O 0.90912 0.20505 0.02005 0.0
O60 O 0.94186 0.20894 0.92941 0.0
O61 O 0.94367 0.23767 0.92751 0.0
C62 C 0.91416 0.22685 0.79133 0.0
O63 O 0.89905 0.17651 0.89946 0.0
O64 O 0.88066 0.19007 0.88884 0.0
In65 In 0.76969 0.69205 0.91805 0.0
O66 O 0.80377 0.71336 0.90544 0.0
O67 O 0.79123 0.68187 0.88691 0.0
C68 C 0.75542 0.71613 0.9562 0.0
C69 C 0.75291 0.67661 0.80008 0.0
C70 C 0.76379 0.67363 0.03564 0.0
O71 O 0.7739 0.72341 0.94186 0.0
O72 O 0.74462 0.69744 0.94729 0.0
O73 O 0.75009 0.66765 0.99256 0.0
O74 O 0.78056 0.68826 0.01858 0.0
C75 C 0.80679 0.69913 0.88873 0.0
O76 O 0.75012 0.66573 0.85022 0.0
O77 O 0.76365 0.69534 0.81007 0.0
In78 In 0.91157 0.69216 0.91814 0.0
O79 O 0.90482 0.66584 0.85033 0.0
O80 O 0.92088 0.69545 0.81015 0.0
C81 C 0.89908 0.67378 0.03577 0.0
C82 C 0.88151 0.69919 0.88883 0.0
C83 C 0.94993 0.71624 0.95619 0.0
O84 O 0.90675 0.66777 0.99266 0.0
O85 O 0.89697 0.68844 0.01873 0.0
O86 O 0.93874 0.72353 0.94173 0.0
O87 O 0.94201 0.69754 0.94745 0.0
C88 C 0.9129 0.67672 0.80018 0.0
O89 O 0.89876 0.71344 0.90552 0.0
O90 O 0.87984 0.68195 0.88703 0.0
In91 In 0.2868 0.21065 0.91011 0.0
O92 O 0.26663 0.17621 0.89936 0.0
O93 O 0.29858 0.18985 0.88886 0.0
C94 C 0.26421 0.22752 0.93639 0.0
C95 C 0.30174 0.22653 0.79109 0.0
C96 C 0.30345 0.21699 0.03065 0.0
O97 O 0.25615 0.20861 0.9293 0.0
O98 O 0.28304 0.23736 0.92702 0.0
O99 O 0.31374 0.22591 0.98012 0.0
O100 O 0.28503 0.20481 0.01989 0.0
C101 C 0.28169 0.17388 0.88867 0.0
O102 O 0.3125 0.23167 0.84256 0.0
O103 O 0.2833 0.21372 0.80008 0.0
In104 In 0.76683 0.07308 0.92356 0.0
O105 O 0.74702 0.08011 0.85743 0.0
O106 O 0.76197 0.06576 0.81418 0.0
C107 C 0.76196 0.08478 0.04385 0.0
C108 C 0.80483 0.10211 0.89789 0.0
C109 C 0.74904 0.03371 0.95184 0.0
O110 O 0.7528 0.08603 0.99381 0.0
O111 O 0.77374 0.07806 0.0327 0.0
O112 O 0.7678 0.044 0.94028 0.0
O113 O 0.73949 0.04313 0.94588 0.0
C114 C 0.75072 0.07331 0.80579 0.0
O115 O 0.80079 0.08428 0.91032 0.0
O116 O 0.78992 0.10489 0.8991 0.0
In117 In 0.68676 0.91311 0.0808 0.0
O118 O 0.65991 0.90606 0.14692 0.0
O119 O 0.68921 0.92037 0.19021 0.0
C120 C 0.67017 0.90149 0.9605 0.0
C121 C 0.69565 0.88402 0.1064 0.0
C122 C 0.7084 0.95249 0.05268 0.0
O123 O 0.65978 0.90027 0.01056 0.0
O124 O 0.68867 0.90815 0.97163 0.0
O125 O 0.71683 0.94215 0.06389 0.0
O126 O 0.68944 0.94311 0.05891 0.0
C127 C 0.6704 0.91282 0.19858 0.0
O128 O 0.70947 0.90186 0.09431 0.0
O129 O 0.67796 0.88126 0.10483 0.0
In130 In 0.06916 0.77526 0.09471 0.0
O131 O 0.08352 0.80971 0.10545 0.0
O132 O 0.10179 0.796 0.11553 0.0
C133 C 0.0297 0.75852 0.06874 0.0
C134 C 0.06824 0.75941 0.21375 0.0
C135 C 0.07934 0.76879 0.97414 0.0
O136 O 0.04062 0.77743 0.07552 0.0
O137 O 0.03861 0.74861 0.07824 0.0
O138 O 0.08072 0.7599 0.02469 0.0
O139 O 0.07315 0.78101 0.98488 0.0
C140 C 0.1009 0.81199 0.11583 0.0
O141 O 0.07379 0.75421 0.16225 0.0
O142 O 0.06268 0.77227 0.20479 0.0
In143 In 0.21257 0.29402 0.0868 0.0
O144 O 0.23216 0.32036 0.15458 0.0
O145 O 0.21857 0.29075 0.19482 0.0
C146 C 0.21845 0.31237 0.9691 0.0
C147 C 0.1755 0.28704 0.11614 0.0
C148 C 0.22683 0.26991 0.04896 0.0
O149 O 0.23215 0.3184 0.0122 0.0
O150 O 0.20169 0.29772 0.98619 0.0
O151 O 0.20834 0.26265 0.06321 0.0
O152 O 0.23763 0.2886 0.05776 0.0
C153 C 0.22934 0.30948 0.20476 0.0
O154 O 0.17848 0.27277 0.09951 0.0
O155 O 0.19108 0.30428 0.11787 0.0
In156 In 0.73738 0.62743 0.42105 0.0
O157 O 0.74411 0.65376 0.48882 0.0
O158 O 0.72805 0.62415 0.52901 0.0
C159 C 0.74987 0.6458 0.3034 0.0
C160 C 0.76745 0.62042 0.45035 0.0
C161 C 0.69903 0.60331 0.38298 0.0
O162 O 0.74217 0.6518 0.34647 0.0
O163 O 0.752 0.63116 0.32048 0.0
O164 O 0.71021 0.59603 0.39769 0.0
O165 O 0.70694 0.62202 0.39147 0.0
C166 C 0.73603 0.64288 0.53898 0.0
O167 O 0.7502 0.60617 0.43362 0.0
O168 O 0.7691 0.63766 0.45219 0.0
In169 In 0.36198 0.1085 0.42739 0.0
O170 O 0.38214 0.14294 0.43819 0.0
O171 O 0.35018 0.12928 0.44864 0.0
C172 C 0.38462 0.09169 0.40098 0.0
C173 C 0.34704 0.0926 0.54641 0.0
C174 C 0.34532 0.10215 0.30686 0.0
O175 O 0.39265 0.1106 0.40817 0.0
O176 O 0.36579 0.08182 0.41034 0.0
O177 O 0.33504 0.09322 0.35738 0.0
O178 O 0.36374 0.11435 0.31763 0.0
C179 C 0.36707 0.14525 0.44885 0.0
O180 O 0.33629 0.08746 0.49494 0.0
O181 O 0.36548 0.10542 0.53742 0.0
In182 In 0.88239 0.24632 0.41375 0.0
O183 O 0.84843 0.23509 0.42703 0.0
O184 O 0.85932 0.2145 0.43813 0.0
C185 C 0.90012 0.28569 0.38554 0.0
C186 C 0.89849 0.24609 0.53152 0.0
C187 C 0.88727 0.23463 0.29346 0.0
O188 O 0.88136 0.27537 0.39707 0.0
O189 O 0.9097 0.2763 0.39149 0.0
O190 O 0.89645 0.23341 0.34349 0.0
O191 O 0.87548 0.24133 0.30462 0.0
C192 C 0.8444 0.21726 0.43939 0.0
O193 O 0.90222 0.23931 0.47988 0.0
O194 O 0.88722 0.25362 0.52314 0.0
In195 In 0.96222 0.40635 0.25713 0.0
O196 O 0.98907 0.41345 0.19099 0.0
O197 O 0.95978 0.3991 0.1477 0.0
C198 C 0.97879 0.41798 0.37744 0.0
C199 C 0.95322 0.43537 0.23175 0.0
C200 C 0.94065 0.36696 0.28512 0.0
O201 O 0.9892 0.41927 0.32735 0.0
O202 O 0.96029 0.41125 0.36634 0.0
O203 O 0.93218 0.37726 0.27382 0.0
O204 O 0.95961 0.37638 0.27906 0.0
C205 C 0.97858 0.40667 0.13933 0.0
O206 O 0.93944 0.41753 0.24396 0.0
O207 O 0.97092 0.43817 0.23303 0.0
In208 In 0.57971 0.54414 0.24529 0.0
O209 O 0.56535 0.50969 0.23436 0.0
O210 O 0.54707 0.52339 0.22468 0.0
C211 C 0.61919 0.56089 0.27098 0.0
C212 C 0.58057 0.55998 0.12627 0.0
C213 C 0.5696 0.55065 0.36588 0.0
O214 O 0.60825 0.54197 0.2645 0.0
O215 O 0.61028 0.5708 0.26136 0.0
O216 O 0.56819 0.55953 0.31532 0.0
O217 O 0.57578 0.53843 0.35515 0.0
C218 C 0.54796 0.50741 0.22414 0.0
O219 O 0.57503 0.56516 0.1778 0.0
O220 O 0.58616 0.54713 0.13519 0.0
In221 In 0.43649 0.02546 0.25006 0.0
O222 O 0.47057 0.04679 0.23742 0.0
O223 O 0.45805 0.0153 0.21896 0.0
C224 C 0.42215 0.0495 0.28797 0.0
C225 C 0.41975 0.01 0.13208 0.0
C226 C 0.4306 0.00707 0.3677 0.0
O227 O 0.44065 0.0568 0.27386 0.0
O228 O 0.41138 0.03081 0.27898 0.0
O229 O 0.41691 0.00105 0.32457 0.0
O230 O 0.44736 0.02173 0.35067 0.0
C231 C 0.47361 0.03256 0.22075 0.0
O232 O 0.41696 -0.00087 0.18224 0.0
O233 O 0.43048 0.02873 0.14205 0.0
In234 In 0.57836 0.02557 0.24988 0.0
O235 O 0.56558 0.04687 0.23726 0.0
O236 O 0.54664 0.01537 0.21886 0.0
C237 C 0.61677 0.04955 0.28762 0.0
C238 C 0.57964 0.01013 0.13187 0.0
C239 C 0.56588 0.00719 0.36753 0.0
O240 O 0.60558 0.05688 0.2737 0.0
O241 O 0.60883 0.03087 0.27856 0.0
O242 O 0.57348 0.00113 0.32432 0.0
O243 O 0.56385 0.0219 0.35059 0.0
C244 C 0.54832 0.03262 0.22063 0.0
O245 O 0.57158 -0.00075 0.18203 0.0
O246 O 0.58761 0.02886 0.14185 0.0
In247 In 0.95335 0.54408 0.24407 0.0
O248 O 0.97906 0.56509 0.17654 0.0
O249 O 0.94987 0.54715 0.13404 0.0
C250 C 0.97 0.55046 0.36462 0.0
C251 C 0.94825 0.50732 0.22263 0.0
C252 C 0.93076 0.56095 0.27027 0.0
O253 O 0.98029 0.55936 0.31409 0.0
O254 O 0.95158 0.53827 0.35386 0.0
O255 O 0.92271 0.54203 0.26335 0.0
O256 O 0.94958 0.5708 0.26078 0.0
C257 C 0.96831 0.55996 0.12507 0.0
O258 O 0.93319 0.50964 0.23318 0.0
O259 O 0.96515 0.52329 0.22296 0.0
In260 In 0.43301 0.40629 0.25786 0.0
O261 O 0.41325 0.41337 0.19171 0.0
O262 O 0.42831 0.39914 0.14836 0.0
C263 C 0.42798 0.41782 0.3782 0.0
C264 C 0.47103 0.43542 0.23286 0.0
C265 C 0.41526 0.36688 0.28557 0.0
O266 O 0.41887 0.41911 0.32809 0.0
O267 O 0.43977 0.41112 0.36711 0.0
O268 O 0.43404 0.37723 0.27442 0.0
O269 O 0.40568 0.37628 0.27951 0.0
C270 C 0.41703 0.40667 0.14001 0.0
O271 O 0.46699 0.41756 0.24474 0.0
O272 O 0.4561 0.43817 0.23425 0.0
In273 In 0.35305 0.24617 0.41352 0.0
O274 O 0.37584 0.23501 0.42679 0.0
O275 O 0.34436 0.21436 0.43787 0.0
C276 C 0.37462 0.28555 0.38542 0.0
C277 C 0.33667 0.24586 0.53129 0.0
C278 C 0.33648 0.23447 0.29323 0.0
O279 O 0.38309 0.27526 0.39692 0.0
O280 O 0.35565 0.27612 0.39132 0.0
O281 O 0.32607 0.23323 0.34327 0.0
O282 O 0.35498 0.2412 0.30437 0.0
C283 C 0.36207 0.21717 0.43915 0.0
O284 O 0.32618 0.23907 0.47964 0.0
O285 O 0.35548 0.25345 0.52292 0.0
In286 In 0.73597 0.10845 0.42701 0.0
O287 O 0.75018 0.14287 0.43792 0.0
O288 O 0.76854 0.12928 0.44841 0.0
C289 C 0.69653 0.09164 0.40046 0.0
C290 C 0.73501 0.09252 0.54598 0.0
C291 C 0.74634 0.10217 0.30648 0.0
O292 O 0.70739 0.11053 0.40786 0.0
O293 O 0.70549 0.08176 0.40969 0.0
O294 O 0.74768 0.09322 0.35696 0.0
O295 O 0.74011 0.11436 0.31728 0.0
C296 C 0.76757 0.14523 0.44865 0.0
O297 O 0.74065 0.08742 0.49451 0.0
O298 O 0.72935 0.10531 0.53701 0.0
In299 In 0.87926 0.62753 0.42113 0.0
O300 O 0.89883 0.65386 0.48893 0.0
O301 O 0.8853 0.62426 0.52912 0.0
C302 C 0.88517 0.64594 0.30352 0.0
C303 C 0.84216 0.62047 0.45043 0.0
C304 C 0.89347 0.60339 0.3831 0.0
O305 O 0.89888 0.6519 0.34656 0.0
O306 O 0.86839 0.63133 0.32062 0.0
O307 O 0.875 0.59614 0.39746 0.0
O308 O 0.90429 0.62208 0.39191 0.0
C309 C 0.89604 0.64299 0.53908 0.0
O310 O 0.84518 0.60624 0.43373 0.0
O311 O 0.85773 0.63772 0.45227 0.0
In312 In 0.40417 0.9608 0.75304 0.0
O313 O 0.41092 0.98713 0.82083 0.0
O314 O 0.39486 0.95753 0.86103 0.0
C315 C 0.41665 0.9792 0.63542 0.0
C316 C 0.43422 0.95376 0.78229 0.0
C317 C 0.36582 0.93664 0.71504 0.0
O318 O 0.4089 0.98516 0.67847 0.0
O319 O 0.41884 0.9646 0.65252 0.0
O320 O 0.37703 0.92939 0.72955 0.0
O321 O 0.3737 0.95534 0.72368 0.0
C322 C 0.40285 0.97625 0.87099 0.0
O323 O 0.41698 0.93952 0.76551 0.0
O324 O 0.43589 0.971 0.78421 0.0
In325 In 0.02849 0.44186 0.76055 0.0
O326 O 0.0486 0.4763 0.77147 0.0
O327 O 0.01663 0.46261 0.78154 0.0
C328 C 0.05121 0.42512 0.73446 0.0
C329 C 0.01353 0.42597 0.87956 0.0
C330 C 0.01184 0.43543 0.63999 0.0
O331 O 0.05919 0.44403 0.74135 0.0
O332 O 0.03239 0.41521 0.74391 0.0
O333 O 0.00156 0.42651 0.69052 0.0
O334 O 0.03025 0.44766 0.65075 0.0
C335 C 0.03351 0.47859 0.78193 0.0
O336 O 0.00279 0.42081 0.82806 0.0
O337 O 0.03197 0.43881 0.87061 0.0
In338 In 0.549 0.57973 0.7487 0.0
O339 O 0.56875 0.57264 0.81487 0.0
O340 O 0.55372 0.5869 0.85819 0.0
C341 C 0.55403 0.56817 0.62839 0.0
C342 C 0.51098 0.55062 0.77376 0.0
C343 C 0.56679 0.61912 0.72083 0.0
O344 O 0.56314 0.56689 0.6785 0.0
O345 O 0.54223 0.57487 0.63947 0.0
O346 O 0.54801 0.6088 0.73201 0.0
O347 O 0.57635 0.60972 0.72696 0.0
C348 C 0.56499 0.57936 0.86655 0.0
O349 O 0.51503 0.56847 0.76185 0.0
O350 O 0.52591 0.54786 0.77235 0.0
In351 In 0.62913 0.73976 0.59222 0.0
O352 O 0.65599 0.74681 0.52611 0.0
O353 O 0.62669 0.73249 0.48281 0.0
C354 C 0.6457 0.75141 0.71252 0.0
C355 C 0.62024 0.76885 0.5666 0.0
C356 C 0.60749 0.70039 0.62039 0.0
O357 O 0.6561 0.75263 0.66248 0.0
O358 O 0.62721 0.74473 0.70137 0.0
O359 O 0.59905 0.71072 0.60898 0.0
O360 O 0.62646 0.70978 0.61432 0.0
C361 C 0.6455 0.74004 0.47445 0.0
O362 O 0.60642 0.75101 0.57875 0.0
O363 O 0.63792 0.77161 0.5681 0.0
In364 In 0.24654 0.87732 0.57694 0.0
O365 O 0.24186 0.89834 0.50939 0.0
O366 O 0.25303 0.88032 0.46686 0.0
C367 C 0.23636 0.88378 0.69751 0.0
C368 C 0.21483 0.84057 0.5558 0.0
C369 C 0.28601 0.89416 0.60281 0.0
O370 O 0.23493 0.89265 0.64695 0.0
O371 O 0.24258 0.87159 0.68678 0.0
O372 O 0.27512 0.87524 0.59608 0.0
O373 O 0.27706 0.90402 0.59333 0.0
C374 C 0.24743 0.89317 0.4579 0.0
O375 O 0.23221 0.84287 0.56627 0.0
O376 O 0.21393 0.85655 0.55604 0.0
In377 In 0.10316 0.35891 0.58401 0.0
O378 O 0.08359 0.33259 0.51618 0.0
O379 O 0.09717 0.3622 0.476 0.0
C380 C 0.09728 0.34053 0.70163 0.0
C381 C 0.14024 0.36593 0.55471 0.0
C382 C 0.08882 0.38294 0.62195 0.0
O383 O 0.0836 0.33449 0.65848 0.0
O384 O 0.11403 0.35521 0.68464 0.0
O385 O 0.10731 0.39026 0.60764 0.0
O386 O 0.07806 0.36425 0.61314 0.0
C387 C 0.08642 0.34348 0.46602 0.0
O388 O 0.13725 0.38018 0.5714 0.0
O389 O 0.12466 0.34869 0.5529 0.0
In390 In 0.24486 0.35867 0.58382 0.0
O391 O 0.23212 0.38001 0.57136 0.0
O392 O 0.21316 0.34854 0.5526 0.0
C393 C 0.28319 0.38279 0.62215 0.0
C394 C 0.2462 0.34322 0.46586 0.0
C395 C 0.23233 0.34021 0.70134 0.0
O396 O 0.27199 0.39006 0.60751 0.0
O397 O 0.2753 0.3641 0.61341 0.0
O398 O 0.24012 0.33429 0.65831 0.0
O399 O 0.23012 0.3548 0.68426 0.0
C400 C 0.21486 0.3658 0.55455 0.0
O401 O 0.23809 0.33235 0.51599 0.0
O402 O 0.25422 0.36195 0.47586 0.0
In403 In 0.62048 0.87763 0.57737 0.0
O404 O 0.60032 0.84319 0.56677 0.0
O405 O 0.63228 0.85682 0.55648 0.0
C406 C 0.59783 0.89446 0.60321 0.0
C407 C 0.63546 0.89348 0.45835 0.0
C408 C 0.63712 0.88407 0.69795 0.0
O409 O 0.58981 0.87554 0.59635 0.0
O410 O 0.61666 0.90433 0.59388 0.0
O411 O 0.64742 0.89294 0.6474 0.0
O412 O 0.6187 0.87189 0.68721 0.0
C413 C 0.61538 0.84085 0.5563 0.0
O414 O 0.6462 0.89864 0.50985 0.0
O415 O 0.61702 0.88065 0.4673 0.0
In416 In 0.09984 0.73967 0.59128 0.0
O417 O 0.13379 0.75083 0.57795 0.0
O418 O 0.12298 0.7715 0.56719 0.0
C419 C 0.082 0.70028 0.61927 0.0
C420 C 0.0838 0.74003 0.47351 0.0
C421 C 0.09491 0.75132 0.71159 0.0
O422 O 0.10078 0.71058 0.60798 0.0
O423 O 0.07247 0.70971 0.6132 0.0
O424 O 0.08578 0.75259 0.66152 0.0
O425 O 0.10669 0.74459 0.70047 0.0
C426 C 0.13787 0.76868 0.56578 0.0
O427 O 0.08011 0.74681 0.52518 0.0
O428 O 0.09501 0.73243 0.48186 0.0
In429 In 0.0196 0.57961 0.74749 0.0
O430 O 0.04234 0.56839 0.76071 0.0
O431 O 0.01085 0.54777 0.77154 0.0
C432 C 0.04124 0.61899 0.71946 0.0
C433 C 0.00324 0.5793 0.86529 0.0
C434 C 0.00303 0.56797 0.62719 0.0
O435 O 0.04968 0.60866 0.73087 0.0
O436 O 0.02228 0.6096 0.72543 0.0
O437 O -0.00737 0.56673 0.67724 0.0
O438 O 0.02153 0.57467 0.63832 0.0
C439 C 0.02854 0.55054 0.77287 0.0
O440 O -0.00725 0.57255 0.81362 0.0
O441 O 0.02205 0.58685 0.85692 0.0
In442 In 0.40232 0.4419 0.76128 0.0
O443 O 0.407 0.42087 0.82878 0.0
O444 O 0.39584 0.43889 0.87136 0.0
C445 C 0.41246 0.43539 0.64071 0.0
C446 C 0.43406 0.47863 0.78249 0.0
C447 C 0.36286 0.42514 0.73534 0.0
O448 O 0.41385 0.4265 0.69128 0.0
O449 O 0.40629 0.44762 0.65143 0.0
O450 O 0.3738 0.44406 0.74186 0.0
O451 O 0.37176 0.41524 0.7451 0.0
C452 C 0.40144 0.42605 0.88029 0.0
O453 O 0.41667 0.47634 0.77228 0.0
O454 O 0.43496 0.46265 0.78191 0.0
In455 In 0.54605 0.96092 0.75283 0.0
O456 O 0.56559 0.98726 0.82061 0.0
O457 O 0.55209 0.95766 0.86082 0.0
C458 C 0.55194 0.97931 0.63521 0.0
C459 C 0.50894 0.95383 0.78214 0.0
C460 C 0.56034 0.93683 0.71497 0.0
O461 O 0.56564 0.9853 0.67829 0.0
O462 O 0.53517 0.96468 0.65228 0.0
O463 O 0.54186 0.92955 0.72936 0.0
O464 O 0.57112 0.95554 0.72363 0.0
C465 C 0.56281 0.9764 0.87077 0.0
O466 O 0.51197 0.9396 0.76535 0.0
O467 O 0.5245 0.97108 0.78403 0.0
C468 C 0.13584 0.30055 0.15635 0.0
C469 C 0.11858 0.28469 0.12722 0.0
H470 H 0.16725 0.31344 0.17653 0.0
C471 C 0.11942 0.26798 0.10258 0.0
H472 H 0.13556 0.31349 0.17658 0.0
C473 C 0.13777 0.26795 0.10256 0.0
C474 C 0.15535 0.28463 0.12717 0.0
H475 H 0.10628 0.25556 0.07994 0.0
H476 H 0.13844 0.25551 0.07989 0.0
C477 C 0.15401 0.30051 0.15632 0.0
C478 C 0.71802 0.84961 0.10029 0.0
C479 C 0.70165 0.83168 0.12455 0.0
H480 H 0.72903 0.88071 0.07543 0.0
C481 C 0.6848 0.83205 0.15025 0.0
H482 H 0.73118 0.84967 0.08021 0.0
C483 C 0.68356 0.8495 0.14736 0.0
C484 C 0.69916 0.86707 0.11883 0.0
H485 H 0.67209 0.81854 0.17019 0.0
H486 H 0.66995 0.84899 0.16525 0.0
C487 C 0.71678 0.86729 0.09748 0.0
C488 C 0.12107 0.84958 0.09952 0.0
C489 C 0.11945 0.83163 0.12365 0.0
H490 H 0.14122 0.88069 0.07487 0.0
C491 C 0.13664 0.83192 0.14931 0.0
H492 H 0.10799 0.8497 0.07947 0.0
C493 C 0.15536 0.84935 0.14653 0.0
C494 C 0.15738 0.86696 0.11814 0.0
H495 H 0.1358 0.81838 0.16915 0.0
H496 H 0.16843 0.84878 0.16439 0.0
C497 C 0.14001 0.86724 0.09681 0.0
C498 C 0.29861 0.13644 0.85715 0.0
C499 C 0.2831 0.11888 0.88601 0.0
H500 H 0.30999 0.16738 0.83427 0.0
C501 C 0.26552 0.11864 0.90787 0.0
H502 H 0.3122 0.13697 0.83887 0.0
C503 C 0.26424 0.1363 0.90525 0.0
C504 C 0.28053 0.15422 0.88068 0.0
H505 H 0.25333 0.10522 0.93019 0.0
H506 H 0.25111 0.13622 0.92574 0.0
C507 C 0.29733 0.15387 0.85445 0.0
C508 C 0.82734 0.13658 0.8567 0.0
C509 C 0.82532 0.11904 0.88563 0.0
H510 H 0.84686 0.16754 0.8339 0.0
C511 C 0.84268 0.11885 0.90765 0.0
H512 H 0.81428 0.13707 0.83831 0.0
C513 C 0.86159 0.13655 0.90515 0.0
C514 C 0.86319 0.15445 0.88053 0.0
H515 H 0.84147 0.10545 0.93002 0.0
H516 H 0.87464 0.13651 0.92577 0.0
C517 C 0.84603 0.15405 0.85412 0.0
C518 C 0.82836 0.68574 0.84856 0.0
C519 C 0.82696 0.70159 0.87774 0.0
H520 H 0.84687 0.67283 0.82833 0.0
C521 C 0.84452 0.71828 0.90243 0.0
H522 H 0.81513 0.67281 0.82828 0.0
C523 C 0.86289 0.7183 0.90246 0.0
C524 C 0.86378 0.70162 0.8778 0.0
H525 H 0.84381 0.73071 0.92512 0.0
H526 H 0.87601 0.73073 0.92517 0.0
C527 C 0.84655 0.68575 0.84858 0.0
C528 C 0.82061 0.63388 0.49054 0.0
C529 C 0.822 0.61802 0.46141 0.0
H530 H 0.8021 0.6468 0.51073 0.0
C531 C 0.80444 0.60132 0.43677 0.0
H532 H 0.83383 0.64682 0.51077 0.0
C533 C 0.78607 0.60131 0.43674 0.0
C534 C 0.78518 0.618 0.46136 0.0
H535 H 0.80514 0.58889 0.41412 0.0
H536 H 0.77294 0.58887 0.41408 0.0
C537 C 0.80241 0.63387 0.49052 0.0
C538 C 0.38452 0.18284 0.43233 0.0
C539 C 0.36822 0.16491 0.45683 0.0
H540 H 0.39544 0.21392 0.40745 0.0
C541 C 0.35141 0.16525 0.48297 0.0
H542 H 0.39766 0.18292 0.41191 0.0
C543 C 0.35013 0.18269 0.48026 0.0
C544 C 0.36565 0.20026 0.45147 0.0
H545 H 0.33874 0.15174 0.50308 0.0
H546 H 0.33653 0.18215 0.49847 0.0
C547 C 0.38324 0.2005 0.4297 0.0
C548 C 0.80655 0.20051 0.42981 0.0
C549 C 0.82392 0.20031 0.45163 0.0
H550 H 0.77457 0.18288 0.41186 0.0
C551 C 0.82191 0.18275 0.48036 0.0
H552 H 0.80775 0.21393 0.40759 0.0
C553 C 0.80322 0.16528 0.48296 0.0
C554 C 0.78605 0.16491 0.45676 0.0
H555 H 0.83498 0.18225 0.49861 0.0
H556 H 0.8024 0.15178 0.50303 0.0
C557 C 0.78764 0.18282 0.43232 0.0
C558 C 0.96392 0.48734 0.18841 0.0
C559 C 0.9471 0.48766 0.21453 0.0
H560 H 0.97879 0.47044 0.17277 0.0
C561 C 0.93078 0.46972 0.23888 0.0
H562 H 0.9766 0.50086 0.16841 0.0
C563 C 0.93205 0.45205 0.24136 0.0
C564 C 0.94965 0.4523 0.2196 0.0
H565 H 0.91764 0.46963 0.25928 0.0
H566 H 0.91984 0.43862 0.26349 0.0
C567 C 0.96519 0.46989 0.19097 0.0
C568 C 0.52782 0.46978 0.23985 0.0
C569 C 0.52943 0.48777 0.21611 0.0
H570 H 0.50768 0.43862 0.26384 0.0
C571 C 0.51224 0.4875 0.19052 0.0
H572 H 0.54089 0.46964 0.25982 0.0
C573 C 0.49353 0.47005 0.19295 0.0
C574 C 0.49152 0.4524 0.22093 0.0
H575 H 0.51307 0.50106 0.17098 0.0
H576 H 0.48047 0.47063 0.17514 0.0
C577 C 0.50889 0.45211 0.24221 0.0
C578 C 0.52971 0.05173 0.2344 0.0
C579 C 0.5306 0.03507 0.20964 0.0
H580 H 0.51062 0.06413 0.2572 0.0
C581 C 0.51337 0.01921 0.18038 0.0
H582 H 0.54283 0.06416 0.25714 0.0
C583 C 0.49518 0.0192 0.18041 0.0
C584 C 0.49378 0.03503 0.2097 0.0
H585 H 0.51369 0.0063 0.16005 0.0
H586 H 0.48195 0.00627 0.1601 0.0
C587 C 0.51133 0.05172 0.23442 0.0
C588 C 0.45284 0.93466 0.76847 0.0
C589 C 0.45195 0.95133 0.79325 0.0
H590 H 0.47193 0.92227 0.74565 0.0
C591 C 0.46918 0.96718 0.82252 0.0
H592 H 0.43973 0.92224 0.74572 0.0
C593 C 0.48737 0.9672 0.82248 0.0
C594 C 0.48877 0.95136 0.79318 0.0
H595 H 0.46886 0.9801 0.84286 0.0
H596 H 0.5006 0.98012 0.84279 0.0
C597 C 0.47122 0.93468 0.76843 0.0
C598 C 0.0165 0.51598 0.81332 0.0
C599 C 0.03209 0.53359 0.78497 0.0
H600 H 0.00506 0.48499 0.83565 0.0
C601 C 0.04971 0.53386 0.76345 0.0
H602 H 0.00288 0.51542 0.83133 0.0
C603 C 0.05098 0.5162 0.76591 0.0
C604 C 0.03464 0.49823 0.78999 0.0
H605 H 0.06196 0.54732 0.74153 0.0
H606 H 0.06416 0.51631 0.74571 0.0
C607 C 0.01777 0.49853 0.81586 0.0
C608 C 0.46977 0.49855 0.81621 0.0
C609 C 0.45259 0.49827 0.79056 0.0
H610 H 0.50154 0.51542 0.83162 0.0
C611 C 0.45419 0.51625 0.76676 0.0
H612 H 0.46894 0.48499 0.83579 0.0
C613 C 0.47313 0.53393 0.76439 0.0
C614 C 0.49049 0.53364 0.78572 0.0
H615 H 0.44113 0.51639 0.74674 0.0
H616 H 0.47433 0.54741 0.74271 0.0
C617 C 0.48848 0.516 0.81376 0.0
C618 C 0.59787 0.80326 0.57284 0.0
C619 C 0.61422 0.82119 0.54854 0.0
H620 H 0.58686 0.77216 0.59769 0.0
C621 C 0.63107 0.82082 0.52279 0.0
H622 H 0.58471 0.8032 0.59296 0.0
C623 C 0.63231 0.80337 0.52565 0.0
C624 C 0.61672 0.7858 0.55421 0.0
H625 H 0.64378 0.83433 0.50283 0.0
H626 H 0.64592 0.80388 0.50772 0.0
C627 C 0.59911 0.78558 0.57562 0.0
C628 C 0.16041 0.80318 0.52482 0.0
C629 C 0.15837 0.7856 0.55345 0.0
H630 H 0.17997 0.83413 0.50202 0.0
C631 C 0.17572 0.78533 0.57502 0.0
H632 H 0.14734 0.80373 0.50677 0.0
C633 C 0.19467 0.80298 0.57232 0.0
C634 C 0.1963 0.82092 0.54795 0.0
H635 H 0.1745 0.7719 0.59715 0.0
H636 H 0.20773 0.80288 0.59256 0.0
C637 C 0.17913 0.82061 0.52203 0.0
C638 C 0.19632 0.38497 0.56837 0.0
C639 C 0.19717 0.36828 0.54359 0.0
H640 H 0.17729 0.39743 0.59119 0.0
C641 C 0.17992 0.35246 0.51432 0.0
H642 H 0.20945 0.39737 0.59113 0.0
C643 C 0.16175 0.35249 0.51435 0.0
C644 C 0.16039 0.36835 0.54366 0.0
H645 H 0.1802 0.33952 0.49397 0.0
H646 H 0.14851 0.33958 0.49403 0.0
C647 C 0.17797 0.38501 0.5684 0.0
C648 C 0.00223 0.23754 0.01259 0.0
C649 C 0.01222 0.25861 0.01949 0.0
H650 H 0.97525 0.211 0.98025 0.0
C651 C 0.00298 0.26921 0.99534 0.0
H652 H 0.00913 0.22904 0.03028 0.0
C653 C 0.98405 0.25909 0.96621 0.0
C654 C 0.97369 0.23803 0.96077 0.0
H655 H 0.01036 0.28547 0.99891 0.0
H656 H 0.97738 0.26786 0.94907 0.0
C657 C 0.98299 0.22727 0.98356 0.0
C658 C 0.7578 0.74879 0.99259 0.0
C659 C 0.7468 0.7277 0.9863 0.0
H660 H 0.75732 0.77534 0.02456 0.0
C661 C 0.72706 0.71708 0.01134 0.0
H662 H 0.77312 0.75731 0.97422 0.0
C663 C 0.71828 0.72719 0.04065 0.0
C664 C 0.72889 0.74827 0.0454 0.0
H665 H 0.71824 0.7008 0.00829 0.0
H666 H 0.70291 0.7184 0.05845 0.0
C667 C 0.74885 0.75905 0.0218 0.0
C668 C 0.26448 0.98331 0.01543 0.0
C669 C 0.24367 0.97332 0.0286 0.0
H670 H 0.29025 0.00996 0.98016 0.0
C671 C 0.2327 0.98316 0.01521 0.0
H672 H 0.27335 0.9761 0.02485 0.0
C673 C 0.24245 0.0027 0.98907 0.0
C674 C 0.26329 0.01262 0.97593 0.0
H675 H 0.2166 0.97572 0.02448 0.0
H676 H 0.23375 0.01008 0.97959 0.0
C677 C 0.27416 0.0027 0.98938 0.0
C678 C 0.98028 0.74892 0.99205 0.0
C679 C 0.97013 0.72782 0.98622 0.0
H680 H 0.00739 0.77547 0.02348 0.0
C681 C 0.97919 0.71718 0.01157 0.0
H682 H 0.97352 0.75744 0.97343 0.0
C683 C -0.00189 0.7273 0.04071 0.0
C684 C 0.00865 0.74838 0.04496 0.0
H685 H 0.97168 0.7009 0.00888 0.0
H686 H 0.00466 0.7185 0.05874 0.0
C687 C -0.00048 0.75918 0.02109 0.0
C688 C 0.23337 0.22694 0.98365 0.0
C689 C 0.25336 0.2377 0.96033 0.0
H690 H 0.20907 0.22873 0.03083 0.0
C691 C 0.26401 0.25877 0.9652 0.0
H692 H 0.22487 0.21066 0.98078 0.0
C693 C 0.25523 0.26891 0.99434 0.0
C694 C 0.23546 0.25831 0.01908 0.0
H695 H 0.27941 0.26754 0.94763 0.0
H696 H 0.26408 0.28518 0.99749 0.0
C697 C 0.22442 0.23723 0.0127 0.0
C698 C 0.74992 0.00283 0.98892 0.0
C699 C 0.73898 0.01273 0.97581 0.0
H700 H 0.74882 0.97588 0.02444 0.0
C701 C 0.71821 0.00282 0.98944 0.0
H702 H 0.76599 0.0102 0.97931 0.0
C703 C 0.70852 0.98345 0.01564 0.0
C704 C 0.71934 0.97347 0.02878 0.0
H705 H 0.70937 0.01008 0.98025 0.0
H706 H 0.69244 0.97625 0.02519 0.0
C707 C 0.74015 0.9833 0.01521 0.0
C708 C 0.64937 0.56028 0.31881 0.0
C709 C 0.64026 0.57105 0.29456 0.0
H710 H 0.67538 0.56208 0.36666 0.0
C711 C 0.65084 0.59214 0.29823 0.0
H712 H 0.64147 0.54398 0.31686 0.0
C713 C 0.66978 0.6023 0.32722 0.0
C714 C 0.67882 0.5917 0.353 0.0
H715 H 0.64431 0.60092 0.27987 0.0
H716 H 0.67732 0.61859 0.32948 0.0
C717 C 0.66863 0.57058 0.3477 0.0
C718 C 0.39369 0.05041 0.34248 0.0
C719 C 0.41348 0.06105 0.31793 0.0
H720 H 0.36945 0.05169 0.38917 0.0
C721 C 0.4245 0.08212 0.32459 0.0
H722 H 0.38485 0.03414 0.33911 0.0
C723 C 0.4155 0.09236 0.35375 0.0
C724 C 0.3955 0.08156 0.37691 0.0
H725 H 0.43986 0.09065 0.3066 0.0
H726 H 0.42399 0.10864 0.35685 0.0
C727 C 0.38487 0.06049 0.37174 0.0
C728 C 0.93094 0.31664 0.34817 0.0
C729 C 0.91015 0.30667 0.36167 0.0
H730 H 0.95668 0.34326 0.31262 0.0
C731 C 0.89918 0.31654 0.34853 0.0
H732 H 0.9398 0.30941 0.35738 0.0
C733 C 0.90892 0.33608 0.32235 0.0
C734 C 0.92974 0.34596 0.30891 0.0
H735 H 0.8831 0.30913 0.35805 0.0
H736 H 0.90023 0.34348 0.31309 0.0
C737 C 0.9406 0.33602 0.32208 0.0
C738 C 0.66512 0.06047 0.37067 0.0
C739 C 0.67553 0.08152 0.37632 0.0
H740 H 0.6388 0.03415 0.33773 0.0
C741 C 0.66628 0.09233 0.35363 0.0
H742 H 0.67176 0.05165 0.38771 0.0
C743 C 0.64705 0.08213 0.32452 0.0
C744 C 0.63702 0.06107 0.31743 0.0
H745 H 0.67405 0.10861 0.3571 0.0
H746 H 0.64019 0.09068 0.30694 0.0
C747 C 0.64621 0.05041 0.34146 0.0
C748 C 0.89103 0.57069 0.34694 0.0
C749 C 0.90207 0.59178 0.35309 0.0
H750 H 0.89147 0.5441 0.31517 0.0
C751 C 0.9218 0.60237 0.32802 0.0
H752 H 0.87571 0.5622 0.36534 0.0
C753 C 0.93056 0.59221 0.29881 0.0
C754 C 0.91992 0.57114 0.2942 0.0
H755 H 0.93064 0.61864 0.33097 0.0
H756 H 0.94593 0.60098 0.28099 0.0
C757 C 0.89996 0.56039 0.31783 0.0
C758 C 0.41617 0.33603 0.32264 0.0
C759 C 0.4052 0.34587 0.30919 0.0
H760 H 0.41509 0.30909 0.35821 0.0
C761 C 0.38438 0.33587 0.32217 0.0
H762 H 0.43227 0.34347 0.31351 0.0
C763 C 0.37468 0.31647 0.34812 0.0
C764 C 0.38554 0.30655 0.36165 0.0
H765 H 0.37552 0.34308 0.3127 0.0
H766 H 0.35858 0.3092 0.3572 0.0
C767 C 0.40639 0.31646 0.34867 0.0
C768 C 0.31757 0.92543 0.63061 0.0
C769 C 0.30707 0.90434 0.6265 0.0
H770 H 0.34398 0.95188 0.66225 0.0
C771 C 0.31625 0.8936 0.65042 0.0
H772 H 0.31099 0.93419 0.61253 0.0
C773 C 0.3355 0.90391 0.67938 0.0
C774 C 0.34561 0.92502 0.68508 0.0
H775 H 0.3084 0.8773 0.64814 0.0
H776 H 0.3423 0.89543 0.69805 0.0
C777 C 0.3365 0.9356 0.65966 0.0
C778 C 0.08209 0.42582 0.68703 0.0
C779 C 0.06213 0.41501 0.71061 0.0
H780 H 0.10642 0.42413 0.63964 0.0
C781 C 0.05158 0.39393 0.70605 0.0
H782 H 0.09052 0.44211 0.68966 0.0
C783 C 0.06041 0.38384 0.67693 0.0
C784 C 0.08015 0.39449 0.6519 0.0
H785 H 0.03621 0.38512 0.72385 0.0
H786 H 0.05163 0.36756 0.67402 0.0
C787 C 0.0911 0.41559 0.65801 0.0
C788 C 0.56592 0.64999 0.6836 0.0
C789 C 0.57686 0.64012 0.69705 0.0
H790 H 0.56703 0.67694 0.64789 0.0
C791 C 0.59767 0.65008 0.68389 0.0
H792 H 0.54982 0.64259 0.69285 0.0
C793 C 0.60738 0.66946 0.65779 0.0
C794 C 0.59654 0.67941 0.64427 0.0
H795 H 0.60651 0.64284 0.69335 0.0
H796 H 0.62347 0.67669 0.64858 0.0
C797 C 0.57571 0.66954 0.65741 0.0
C798 C 0.33126 0.39391 0.70759 0.0
C799 C 0.34182 0.415 0.71149 0.0
H800 H 0.30484 0.36748 0.67587 0.0
C801 C 0.33273 0.42578 0.68713 0.0
H802 H 0.33777 0.38512 0.72601 0.0
C803 C 0.31352 0.41549 0.65793 0.0
C804 C 0.30335 0.39439 0.65241 0.0
H805 H 0.34062 0.44208 0.68924 0.0
H806 H 0.30679 0.42401 0.63891 0.0
C807 C 0.31237 0.38377 0.67829 0.0
C808 C 0.59752 0.92571 0.63119 0.0
C809 C 0.58694 0.90462 0.62684 0.0
H810 H 0.59751 0.95213 0.66289 0.0
C811 C 0.56698 0.89386 0.65041 0.0
H812 H 0.6129 0.93448 0.61339 0.0
C813 C 0.558 0.90414 0.67925 0.0
C814 C 0.56898 0.92524 0.68517 0.0
H815 H 0.55853 0.87756 0.64794 0.0
H816 H 0.54268 0.89564 0.69764 0.0
C817 C 0.58871 0.93585 0.66012 0.0
C818 C 0.04139 0.64996 0.68229 0.0
C819 C 0.0522 0.63998 0.69568 0.0
H820 H 0.04228 0.6766 0.64688 0.0
C821 C 0.07304 0.64984 0.6825 0.0
H822 H 0.0253 0.64274 0.69154 0.0
C823 C 0.08284 0.66939 0.65637 0.0
C824 C 0.07191 0.67929 0.64304 0.0
H825 H 0.0817 0.64242 0.69193 0.0
H826 H 0.09893 0.67678 0.64707 0.0
C827 C 0.05111 0.66935 0.65626 0.0
C828 C 0.07602 0.32945 0.80237 0.0
C829 C 0.09351 0.3327 0.76924 0.0
H830 H 0.05956 0.32129 0.89334 0.0
C831 C 0.10796 0.32987 0.80276 0.0
H832 H 0.06484 0.33185 0.77755 0.0
C833 C 0.10469 0.32334 0.86823 0.0
C834 C 0.08739 0.32048 0.90172 0.0
H835 H 0.12163 0.33248 0.77806 0.0
H836 H 0.11576 0.32075 0.89296 0.0
C837 C 0.07315 0.32371 0.86855 0.0
C838 C 0.64924 0.75432 0.89827 0.0
C839 C 0.67021 0.76491 0.90805 0.0
H840 H 0.62505 0.742 0.82842 0.0
C841 C 0.6831 0.77145 0.85302 0.0
H842 H 0.63898 0.74914 0.93979 0.0
C843 C 0.67516 0.76716 0.78933 0.0
C844 C 0.6542 0.75652 0.77954 0.0
H845 H 0.69935 0.77961 0.85915 0.0
H846 H 0.68543 0.77214 0.74782 0.0
C847 C 0.6413 0.7503 0.83455 0.0
C848 C 0.23452 0.88553 0.88328 0.0
C849 C 0.2242 0.89618 0.89305 0.0
H850 H 0.24622 0.87304 0.81347 0.0
C851 C 0.21752 0.90239 0.83803 0.0
H852 H 0.23981 0.88056 0.9248 0.0
C853 C 0.22142 0.89834 0.77432 0.0
C854 C 0.23178 0.88774 0.76455 0.0
H855 H 0.20958 0.9107 0.84415 0.0
H856 H 0.21633 0.90351 0.73279 0.0
C857 C 0.23814 0.88121 0.81959 0.0
C858 C 0.34176 0.10052 0.12109 0.0
C859 C 0.32079 0.08983 0.11129 0.0
H860 H 0.36594 0.11302 0.19093 0.0
C861 C 0.3079 0.08357 0.1663 0.0
H862 H 0.35203 0.10553 0.07959 0.0
C863 C 0.31583 0.0876 0.23002 0.0
C864 C 0.3368 0.09824 0.23982 0.0
H865 H 0.29165 0.07523 0.16016 0.0
H866 H 0.30556 0.08238 0.27154 0.0
C867 C 0.34969 0.10482 0.18479 0.0
C868 C 0.90094 0.21884 0.21662 0.0
C869 C 0.89062 0.22949 0.22644 0.0
H870 H 0.91266 0.20639 0.14676 0.0
C871 C 0.88394 0.23571 0.17144 0.0
H872 H 0.90623 0.21386 0.25811 0.0
C873 C 0.88785 0.23169 0.10771 0.0
C874 C 0.89822 0.2211 0.0979 0.0
H875 H 0.876 0.24402 0.1776 0.0
H876 H 0.88277 0.23688 0.0662 0.0
C877 C 0.90457 0.21455 0.15291 0.0
C878 C 0.77121 0.65645 0.20226 0.0
C879 C 0.75392 0.65361 0.23576 0.0
H880 H 0.78813 0.66556 0.11205 0.0
C881 C 0.73967 0.65684 0.2026 0.0
H882 H 0.78228 0.65386 0.22698 0.0
C883 C 0.74254 0.66256 0.13641 0.0
C884 C 0.76002 0.6658 0.10325 0.0
H885 H 0.72609 0.65444 0.22741 0.0
H886 H 0.73136 0.66497 0.1116 0.0
C887 C 0.77447 0.66297 0.13676 0.0
C888 C 0.87776 0.66316 0.13696 0.0
C889 C 0.89503 0.66597 0.1034 0.0
H890 H 0.86086 0.65407 0.22721 0.0
C891 C 0.90926 0.6627 0.1365 0.0
H892 H 0.8667 0.66577 0.11229 0.0
C893 C 0.9064 0.65697 0.20269 0.0
C894 C 0.88894 0.65376 0.2359 0.0
H895 H 0.92283 0.66508 0.11165 0.0
H896 H 0.91757 0.65454 0.22745 0.0
C897 C 0.8745 0.65663 0.20245 0.0
C898 C 0.29909 0.21435 0.15272 0.0
C899 C 0.31198 0.22091 0.0977 0.0
H900 H 0.29675 0.21366 0.25793 0.0
C901 C 0.33294 0.23153 0.10749 0.0
H902 H 0.28284 0.20617 0.14659 0.0
C903 C 0.34088 0.23556 0.1712 0.0
C904 C 0.32799 0.22932 0.22622 0.0
H905 H 0.34321 0.23672 0.06596 0.0
H906 H 0.35713 0.24388 0.17734 0.0
C907 C 0.30702 0.21866 0.21642 0.0
C908 C 0.76524 0.08365 0.16588 0.0
C909 C 0.75861 0.08992 0.11088 0.0
H910 H 0.76637 0.08245 0.27112 0.0
C911 C 0.74832 0.10059 0.1207 0.0
H912 H 0.77316 0.07532 0.15972 0.0
C913 C 0.74468 0.10488 0.18441 0.0
C914 C 0.75098 0.09828 0.23942 0.0
H915 H 0.74306 0.1056 0.0792 0.0
H916 H 0.73661 0.11306 0.19056 0.0
C917 C 0.76132 0.08766 0.2296 0.0
C918 C 0.63277 0.88148 0.82003 0.0
C919 C 0.64565 0.888 0.76499 0.0
H920 H 0.63044 0.88079 0.92524 0.0
C921 C 0.66662 0.89858 0.77476 0.0
H922 H 0.61652 0.87333 0.81391 0.0
C923 C 0.67456 0.90259 0.83847 0.0
C924 C 0.66167 0.89638 0.8935 0.0
H925 H 0.67688 0.90374 0.73323 0.0
H926 H 0.69081 0.91088 0.84459 0.0
C927 C 0.6407 0.88576 0.88372 0.0
C928 C 0.08125 0.76712 0.78838 0.0
C929 C 0.09154 0.75644 0.7786 0.0
H930 H 0.06956 0.77961 0.85818 0.0
C931 C 0.09817 0.75018 0.83362 0.0
H932 H 0.07599 0.77213 0.74686 0.0
C933 C 0.09426 0.75421 0.89733 0.0
C934 C 0.08392 0.76485 0.9071 0.0
H935 H 0.10608 0.74185 0.8275 0.0
H936 H 0.09931 0.74901 0.93886 0.0
C937 C 0.07762 0.77142 0.85207 0.0
C938 C 0.23972 0.3235 0.86836 0.0
C939 C 0.2222 0.32018 0.90147 0.0
H940 H 0.25619 0.3317 0.7774 0.0
C941 C 0.20771 0.32294 0.8679 0.0
H942 H 0.25093 0.32117 0.89321 0.0
C943 C 0.21096 0.32946 0.80241 0.0
C944 C 0.22829 0.33238 0.76896 0.0
H945 H 0.19402 0.32029 0.89258 0.0
H946 H 0.19986 0.33199 0.77766 0.0
C947 C 0.24257 0.32923 0.80217 0.0
C948 C 0.98234 0.42085 0.56318 0.0
C949 C 0.00331 0.4315 0.57295 0.0
H950 H 0.95815 0.40848 0.49335 0.0
C951 C 0.01619 0.43809 0.51791 0.0
H952 H 0.97208 0.41563 0.60471 0.0
C953 C 0.00826 0.43379 0.45422 0.0
C954 C 0.98729 0.4231 0.44445 0.0
H955 H 0.03245 0.4463 0.52403 0.0
H956 H 0.01852 0.43882 0.4127 0.0
C957 C 0.9744 0.41682 0.49947 0.0
C958 C 0.57136 0.54807 0.48797 0.0
C959 C 0.56503 0.55463 0.43292 0.0
H960 H 0.57299 0.54739 0.59318 0.0
C961 C 0.5547 0.56526 0.44266 0.0
H962 H 0.57942 0.53988 0.48187 0.0
C963 C 0.55079 0.56931 0.50636 0.0
C964 C 0.55743 0.56306 0.5614 0.0
H965 H 0.54964 0.57046 0.40112 0.0
H966 H 0.54287 0.57764 0.51246 0.0
C967 C 0.56773 0.55239 0.55165 0.0
C968 C 0.43803 0.98993 0.53437 0.0
C969 C 0.42071 0.98703 0.56781 0.0
H970 H 0.45499 -0.0009 0.44423 0.0
C971 C 0.40644 0.99021 0.53458 0.0
H972 H 0.44912 0.98738 0.55914 0.0
C973 C 0.40931 -0.00406 0.46839 0.0
C974 C 0.42683 -0.00076 0.43531 0.0
H975 H 0.39283 0.98776 0.55933 0.0
H976 H 0.39811 -0.0017 0.44353 0.0
C977 C 0.4413 -0.00354 0.46889 0.0
C978 C 0.57315 0.9903 0.53436 0.0
C979 C 0.55571 0.98714 0.5676 0.0
H980 H 0.58957 -0.00161 0.4433 0.0
C981 C 0.5413 0.99006 0.5342 0.0
H982 H 0.5843 0.98783 0.55909 0.0
C983 C 0.54456 -0.00341 0.46872 0.0
C984 C 0.56182 -0.00064 0.43513 0.0
H985 H 0.52767 0.98752 0.55899 0.0
H986 H 0.53353 -0.00075 0.44408 0.0
C987 C 0.57602 -0.00396 0.46818 0.0
C988 C 0.96563 0.54785 0.4867 0.0
C989 C 0.97852 0.5544 0.43167 0.0
H990 H 0.9633 0.54718 0.5919 0.0
C991 C -0.00051 0.56501 0.44145 0.0
H992 H 0.94938 0.53967 0.48057 0.0
C993 C 0.00743 0.56906 0.50517 0.0
C994 C -0.00547 0.56283 0.56018 0.0
H995 H 0.00975 0.5702 0.39993 0.0
H996 H 0.02367 0.57738 0.5113 0.0
C997 C 0.97357 0.55217 0.55039 0.0
C998 C 0.41431 0.43363 0.45495 0.0
C999 C 0.42459 0.42294 0.4452 0.0
H1000 H 0.40265 0.44617 0.52473 0.0
C1001 C 0.43122 0.41669 0.50023 0.0
H1002 H 0.40905 0.43863 0.41342 0.0
C1003 C 0.42733 0.42074 0.56393 0.0
C1004 C 0.41702 0.4314 0.57368 0.0
H1005 H 0.43912 0.40834 0.49413 0.0
H1006 H 0.43239 0.41555 0.60547 0.0
C1007 C 0.4107 0.43796 0.51863 0.0
C1008 C 0.0645 0.30572 0.32698 0.0
C1009 C 0.07132 0.31834 0.27142 0.0
H1010 H 0.06383 0.30379 0.43223 0.0
C1011 C 0.08138 0.33932 0.28053 0.0
H1012 H 0.05667 0.28949 0.32157 0.0
C1013 C 0.08543 0.34751 0.34395 0.0
C1014 C 0.07956 0.33489 0.39951 0.0
H1015 H 0.08677 0.34944 0.2387 0.0
H1016 H 0.09386 0.36374 0.34936 0.0
C1017 C 0.06861 0.31391 0.39039 0.0
C1018 C 0.6423 0.73535 0.35226 0.0
C1019 C 0.65463 0.74269 0.40834 0.0
H1020 H 0.64083 0.73472 0.24697 0.0
C1021 C 0.67568 0.75409 0.40015 0.0
H1022 H 0.62603 0.7265 0.35698 0.0
C1023 C 0.68415 0.75887 0.33709 0.0
C1024 C 0.67175 0.75229 0.28101 0.0
H1025 H 0.68557 0.75995 0.44243 0.0
H1026 H 0.70038 0.76826 0.33233 0.0
C1027 C 0.65078 0.74007 0.28923 0.0
C1028 C 0.23339 0.91725 0.32035 0.0
C1029 C 0.23837 0.90991 0.26425 0.0
H1030 H 0.23254 0.91787 0.42563 0.0
C1031 C 0.24799 0.89848 0.27243 0.0
H1032 H 0.226 0.92613 0.31564 0.0
C1033 C 0.25166 0.89367 0.33549 0.0
C1034 C 0.24585 0.90026 0.39157 0.0
H1035 H 0.25202 0.89262 0.23015 0.0
H1036 H 0.25847 0.88426 0.34023 0.0
C1037 C 0.23713 0.91252 0.38337 0.0
C1038 C 0.35077 0.09212 0.66882 0.0
C1039 C 0.33837 0.08551 0.61275 0.0
H1040 H 0.3522 0.09322 0.77416 0.0
C1041 C 0.3174 0.07328 0.62099 0.0
H1042 H 0.36699 0.10151 0.66405 0.0
C1043 C 0.30892 0.06857 0.68403 0.0
C1044 C 0.32125 0.07594 0.7401 0.0
H1045 H 0.30744 0.06791 0.57874 0.0
H1046 H 0.29265 0.05971 0.68876 0.0
C1047 C 0.3423 0.08734 0.7319 0.0
C1048 C 0.91842 0.22738 0.66893 0.0
C1049 C 0.91256 0.23393 0.725 0.0
H1050 H 0.91878 0.22631 0.56359 0.0
C1051 C 0.90375 0.2461 0.71676 0.0
H1052 H 0.92531 0.21804 0.6737 0.0
C1053 C 0.89997 0.25078 0.65371 0.0
C1054 C 0.90499 0.24347 0.59764 0.0
H1055 H 0.89911 0.25141 0.759 0.0
H1056 H 0.8925 0.25959 0.64898 0.0
C1057 C 0.91471 0.23214 0.60585 0.0
C1058 C 0.75188 0.68064 0.67803 0.0
C1059 C 0.74604 0.66802 0.73358 0.0
H1060 H 0.75317 0.68258 0.57277 0.0
C1061 C 0.73509 0.64704 0.72445 0.0
H1062 H 0.7603 0.69687 0.68345 0.0
C1063 C 0.73096 0.63885 0.66103 0.0
C1064 C 0.73775 0.65148 0.60548 0.0
H1065 H 0.73033 0.63692 0.76629 0.0
H1066 H 0.72314 0.62262 0.65562 0.0
C1067 C 0.7478 0.67246 0.6146 0.0
C1068 C 0.89708 0.63896 0.66114 0.0
C1069 C 0.90291 0.65158 0.60558 0.0
H1070 H 0.89579 0.63703 0.76639 0.0
C1071 C 0.91385 0.67256 0.6147 0.0
H1072 H 0.88867 0.62273 0.65572 0.0
C1073 C 0.91797 0.68075 0.67812 0.0
C1074 C 0.91118 0.66813 0.73367 0.0
H1075 H 0.9186 0.68268 0.57286 0.0
H1076 H 0.92577 0.69698 0.68353 0.0
C1077 C 0.90115 0.64715 0.72455 0.0
C1078 C 0.29802 0.22702 0.66867 0.0
C1079 C 0.31042 0.23362 0.72475 0.0
H1080 H 0.29659 0.22593 0.56334 0.0
C1081 C 0.33139 0.24585 0.71652 0.0
H1082 H 0.2818 0.21763 0.67344 0.0
C1083 C 0.33987 0.25056 0.65348 0.0
C1084 C 0.32754 0.24321 0.5974 0.0
H1085 H 0.34135 0.25121 0.75877 0.0
H1086 H 0.35614 0.25943 0.64875 0.0
C1087 C 0.30649 0.23181 0.6056 0.0
C1088 C 0.74921 0.06859 0.6836 0.0
C1089 C 0.74421 0.07592 0.73968 0.0
H1090 H 0.75004 0.06793 0.57831 0.0
C1091 C 0.7345 0.08726 0.73147 0.0
H1092 H 0.75667 0.05977 0.68833 0.0
C1093 C 0.73078 0.09201 0.6684 0.0
C1094 C 0.73661 0.08544 0.61232 0.0
H1095 H 0.73045 0.09311 0.77373 0.0
H1096 H 0.7239 0.10136 0.66363 0.0
C1097 C 0.74541 0.07327 0.62056 0.0
C1098 C 0.64023 0.89878 0.27288 0.0
C1099 C 0.66128 0.91017 0.26469 0.0
H1100 H 0.61552 0.88461 0.34069 0.0
C1101 C 0.6736 0.9175 0.32078 0.0
H1102 H 0.63033 0.89293 0.2306 0.0
C1103 C 0.66512 0.91278 0.38381 0.0
C1104 C 0.64415 0.90056 0.39202 0.0
H1105 H 0.68987 0.92635 0.31607 0.0
H1106 H 0.67507 0.91812 0.42607 0.0
C1107 C 0.63175 0.89399 0.33594 0.0
C1108 C 0.08229 0.73533 0.35132 0.0
C1109 C 0.07734 0.7427 0.40741 0.0
H1110 H 0.08311 0.73468 0.24603 0.0
C1111 C 0.06773 0.75414 0.39923 0.0
H1112 H 0.08967 0.72644 0.35603 0.0
C1113 C 0.06405 0.75894 0.33617 0.0
C1114 C 0.06983 0.75232 0.28008 0.0
H1115 H 0.06373 0.76003 0.44151 0.0
H1116 H 0.05725 0.76836 0.33143 0.0
C1117 C 0.07853 0.74005 0.28829 0.0
C1118 C 0.23035 0.30546 0.32683 0.0
C1119 C 0.23621 0.31808 0.27127 0.0
H1120 H 0.22904 0.30352 0.43208 0.0
C1121 C 0.24717 0.33906 0.28038 0.0
H1122 H 0.22193 0.28923 0.32142 0.0
C1123 C 0.25129 0.34725 0.3438 0.0
C1124 C 0.24448 0.33462 0.39936 0.0
H1125 H 0.25194 0.34918 0.23854 0.0
H1126 H 0.25912 0.36348 0.34921 0.0
C1127 C 0.23442 0.31365 0.39024 0.0
C1128 C 0.01724 0.42549 1.00198 0.0
C1129 C 0.00484 0.41889 0.94589 0.0
H1130 H 0.01866 0.42658 0.10731 0.0
C1131 C 0.98387 0.40667 0.95411 0.0
H1132 H 0.03347 0.43487 0.99723 0.0
C1133 C 0.97539 0.40197 0.01714 0.0
C1134 C 0.98771 0.40932 0.07322 0.0
H1135 H 0.97392 0.40132 0.91185 0.0
H1136 H 0.95912 0.39312 0.02185 0.0
C1137 C 0.00876 0.42071 0.06504 0.0
C1138 C 0.58479 0.56049 0.00386 0.0
C1139 C 0.57896 0.56706 0.05996 0.0
H1140 H 0.58515 0.55945 0.89853 0.0
C1141 C 0.5702 0.57927 0.05178 0.0
H1142 H 0.59163 0.55112 0.00859 0.0
C1143 C 0.56643 0.584 0.98876 0.0
C1144 C 0.57144 0.57668 0.93266 0.0
H1145 H 0.56559 0.58461 0.09406 0.0
H1146 H 0.55901 0.59285 0.98407 0.0
C1147 C 0.5811 0.56529 0.94081 0.0
C1148 C 0.40194 0.98042 0.05648 0.0
C1149 C 0.41288 0.0014 0.06558 0.0
H1150 H 0.38999 0.956 0.98766 0.0
C1151 C 0.4187 0.01402 0.01002 0.0
H1152 H 0.39719 0.9703 0.09832 0.0
C1153 C 0.41462 0.00583 0.94661 0.0
C1154 C 0.40458 0.98485 0.9375 0.0
H1155 H 0.42712 0.03025 0.01543 0.0
H1156 H 0.41998 0.01595 0.90477 0.0
C1157 C 0.3978 0.97223 0.99306 0.0
C1158 C 0.56385 0.97237 0.99283 0.0
C1159 C 0.56967 0.985 0.93727 0.0
H1160 H 0.56256 0.97044 0.09808 0.0
C1161 C 0.58057 0.00598 0.94639 0.0
H1162 H 0.55546 0.95614 0.98741 0.0
C1163 C 0.58468 0.01417 0.0098 0.0
C1164 C 0.57791 0.00154 0.06536 0.0
H1165 H 0.58531 0.0161 0.90455 0.0
H1166 H 0.59247 0.03039 0.01522 0.0
C1167 C 0.56791 0.98056 0.05624 0.0
C1168 C 0.00644 0.58397 0.98748 0.0
C1169 C -0.00588 0.57665 0.9314 0.0
H1170 H 0.00792 0.58459 0.09277 0.0
C1171 C 0.97306 0.56527 0.93959 0.0
H1172 H 0.02272 0.59282 0.98276 0.0
C1173 C 0.96459 0.56048 0.00266 0.0
C1174 C 0.97699 0.56705 0.05874 0.0
H1175 H 0.96317 0.55942 0.89732 0.0
H1176 H 0.94836 0.55111 0.00742 0.0
C1177 C -0.00203 0.57926 0.05052 0.0
C1178 C 0.40091 0.42073 0.06576 0.0
C1179 C 0.41058 0.40935 0.07391 0.0
H1180 H 0.39037 0.4349 0.99798 0.0
C1181 C 0.41558 0.40203 0.0178 0.0
H1182 H 0.39686 0.42657 0.10805 0.0
C1183 C 0.41181 0.40675 0.95479 0.0
C1184 C 0.40305 0.41896 0.94661 0.0
H1185 H 0.42301 0.39318 0.0225 0.0
H1186 H 0.41643 0.40142 0.91251 0.0
C1187 C 0.39722 0.42552 0.00271 0.0
loop_
_geom_bond_atom_site_label_1
_geom_bond_atom_site_label_2
_geom_bond_distance
_geom_bond_site_symmetry_2
_ccdc_geom_bond_type
In0 O1 2.294 . S
In0 O2 2.326 . S
In0 O6 2.266 . S
In0 O7 2.326 . S
In0 O8 2.266 . S
In0 O9 2.326 1_554 S
In0 O11 2.294 . S
In0 O12 2.326 . S
O1 In0 2.294 . S
O1 C10 1.240 . S
O2 In0 2.326 . S
O2 C10 1.252 . S
C3 O6 1.252 . S
C3 O7 1.260 . S
C4 O11 1.240 . S
C4 O12 1.252 . S
C5 O8 1.252 1_556 S
C5 O9 1.260 . S
O6 In0 2.266 . S
O6 C3 1.252 . S
O7 In0 2.326 . S
O7 C3 1.260 . S
O8 In0 2.266 . S
O8 C5 1.252 1_554 S
O9 In0 2.326 1_556 S
O9 C5 1.260 . S
C10 O1 1.240 . S
C10 O2 1.252 . S
O11 In0 2.294 . S
O11 C4 1.240 . S
O12 In0 2.326 . S
O12 C4 1.252 . S
In13 O14 2.294 . S
In13 O15 2.326 . S
In13 O19 2.266 . S
In13 O20 2.326 . S
In13 O21 2.266 . S
In13 O22 2.326 1_554 S
In13 O24 2.294 . S
In13 O25 2.326 . S
O14 In13 2.294 . S
O14 C23 1.240 . S
O15 In13 2.326 . S
O15 C23 1.252 . S
C16 O19 1.252 . S
C16 O20 1.260 . S
C17 O24 1.240 . S
C17 O25 1.252 . S
C18 O21 1.252 1_556 S
C18 O22 1.260 . S
O19 In13 2.266 . S
O19 C16 1.252 . S
O20 In13 2.326 . S
O20 C16 1.260 . S
O21 In13 2.266 . S
O21 C18 1.252 1_554 S
O22 In13 2.326 1_556 S
O22 C18 1.260 . S
C23 O14 1.240 . S
C23 O15 1.252 . S
O24 In13 2.294 . S
O24 C17 1.240 . S
O25 In13 2.326 . S
O25 C17 1.252 . S
In26 O27 2.294 . S
In26 O28 2.326 . S
In26 O32 2.266 . S
In26 O33 2.326 1_554 S
In26 O34 2.266 . S
In26 O35 2.326 . S
In26 O37 2.294 . S
In26 O38 2.326 . S
O27 In26 2.294 . S
O27 C36 1.240 . S
O28 In26 2.326 . S
O28 C36 1.252 . S
C29 O32 1.252 1_556 S
C29 O33 1.260 . S
C30 O37 1.240 . S
C30 O38 1.252 . S
C31 O34 1.252 . S
C31 O35 1.260 . S
O32 In26 2.266 . S
O32 C29 1.252 1_554 S
O33 In26 2.326 1_556 S
O33 C29 1.260 . S
O34 In26 2.266 . S
O34 C31 1.252 . S
O35 In26 2.326 . S
O35 C31 1.260 . S
C36 O27 1.240 . S
C36 O28 1.252 . S
O37 In26 2.294 . S
O37 C30 1.240 . S
O38 In26 2.326 . S
O38 C30 1.252 . S
In39 O40 2.294 . S
In39 O41 2.326 . S
In39 O45 2.266 . S
In39 O46 2.326 1_556 S
In39 O47 2.266 . S
In39 O48 2.326 . S
In39 O50 2.294 . S
In39 O51 2.326 . S
O40 In39 2.294 . S
O40 C49 1.240 . S
O41 In39 2.326 . S
O41 C49 1.252 . S
C42 O45 1.252 1_554 S
C42 O46 1.260 . S
C43 O50 1.240 . S
C43 O51 1.252 . S
C44 O47 1.252 . S
C44 O48 1.260 . S
O45 In39 2.266 . S
O45 C42 1.252 1_556 S
O46 In39 2.326 1_554 S
O46 C42 1.260 . S
O47 In39 2.266 . S
O47 C44 1.252 . S
O48 In39 2.326 . S
O48 C44 1.260 . S
C49 O40 1.240 . S
C49 O41 1.252 . S
O50 In39 2.294 . S
O50 C43 1.240 . S
O51 In39 2.326 . S
O51 C43 1.252 . S
In52 O53 2.294 . S
In52 O54 2.326 . S
In52 O58 2.266 . S
In52 O59 2.326 1_556 S
In52 O60 2.266 . S
In52 O61 2.326 . S
In52 O63 2.294 . S
In52 O64 2.326 . S
O53 In52 2.294 . S
O53 C62 1.240 . S
O54 In52 2.326 . S
O54 C62 1.252 . S
C55 O58 1.252 1_554 S
C55 O59 1.260 . S
C56 O63 1.240 . S
C56 O64 1.252 . S
C57 O60 1.252 . S
C57 O61 1.260 . S
O58 In52 2.266 . S
O58 C55 1.252 1_556 S
O59 In52 2.326 1_554 S
O59 C55 1.260 . S
O60 In52 2.266 . S
O60 C57 1.252 . S
O61 In52 2.326 . S
O61 C57 1.260 . S
C62 O53 1.240 . S
C62 O54 1.252 . S
O63 In52 2.294 . S
O63 C56 1.240 . S
O64 In52 2.326 . S
O64 C56 1.252 . S
In65 O66 2.294 . S
In65 O67 2.326 . S
In65 O71 2.266 . S
In65 O72 2.326 . S
In65 O73 2.266 . S
In65 O74 2.326 1_556 S
In65 O76 2.294 . S
In65 O77 2.326 . S
O66 In65 2.294 . S
O66 C75 1.240 . S
O67 In65 2.326 . S
O67 C75 1.252 . S
C68 O71 1.252 . S
C68 O72 1.260 . S
C69 O76 1.240 . S
C69 O77 1.252 . S
C70 O73 1.252 1_554 S
C70 O74 1.260 . S
O71 In65 2.266 . S
O71 C68 1.252 . S
O72 In65 2.326 . S
O72 C68 1.260 . S
O73 In65 2.266 . S
O73 C70 1.252 1_556 S
O74 In65 2.326 1_554 S
O74 C70 1.260 . S
C75 O66 1.240 . S
C75 O67 1.252 . S
O76 In65 2.294 . S
O76 C69 1.240 . S
O77 In65 2.326 . S
O77 C69 1.252 . S
In78 O79 2.294 . S
In78 O80 2.326 . S
In78 O84 2.266 . S
In78 O85 2.326 1_556 S
In78 O86 2.266 . S
In78 O87 2.326 . S
In78 O89 2.294 . S
In78 O90 2.326 . S
O79 In78 2.294 . S
O79 C88 1.240 . S
O80 In78 2.326 . S
O80 C88 1.252 . S
C81 O84 1.252 1_554 S
C81 O85 1.260 . S
C82 O89 1.240 . S
C82 O90 1.252 . S
C83 O86 1.252 . S
C83 O87 1.260 . S
O84 In78 2.266 . S
O84 C81 1.252 1_556 S
O85 In78 2.326 1_554 S
O85 C81 1.260 . S
O86 In78 2.266 . S
O86 C83 1.252 . S
O87 In78 2.326 . S
O87 C83 1.260 . S
C88 O79 1.240 . S
C88 O80 1.252 . S
O89 In78 2.294 . S
O89 C82 1.240 . S
O90 In78 2.326 . S
O90 C82 1.252 . S
In91 O92 2.294 . S
In91 O93 2.326 . S
In91 O97 2.266 . S
In91 O98 2.326 . S
In91 O99 2.266 . S
In91 O100 2.326 1_556 S
In91 O102 2.294 . S
In91 O103 2.326 . S
O92 In91 2.294 . S
O92 C101 1.240 . S
O93 In91 2.326 . S
O93 C101 1.252 . S
C94 O97 1.252 . S
C94 O98 1.260 . S
C95 O102 1.240 . S
C95 O103 1.252 . S
C96 O99 1.252 1_554 S
C96 O100 1.260 . S
O97 In91 2.266 . S
O97 C94 1.252 . S
O98 In91 2.326 . S
O98 C94 1.260 . S
O99 In91 2.266 . S
O99 C96 1.252 1_556 S
O100 In91 2.326 1_554 S
O100 C96 1.260 . S
C101 O92 1.240 . S
C101 O93 1.252 . S
O102 In91 2.294 . S
O102 C95 1.240 . S
O103 In91 2.326 . S
O103 C95 1.252 . S
In104 O105 2.294 . S
In104 O106 2.326 . S
In104 O110 2.266 . S
In104 O111 2.326 1_556 S
In104 O112 2.266 . S
In104 O113 2.326 . S
In104 O115 2.294 . S
In104 O116 2.326 . S
O105 In104 2.294 . S
O105 C114 1.240 . S
O106 In104 2.326 . S
O106 C114 1.252 . S
C107 O110 1.252 1_554 S
C107 O111 1.260 . S
C108 O115 1.240 . S
C108 O116 1.252 . S
C109 O112 1.252 . S
C109 O113 1.260 . S
O110 In104 2.266 . S
O110 C107 1.252 1_556 S
O111 In104 2.326 1_554 S
O111 C107 1.260 . S
O112 In104 2.266 . S
O112 C109 1.252 . S
O113 In104 2.326 . S
O113 C109 1.260 . S
C114 O105 1.240 . S
C114 O106 1.252 . S
O115 In104 2.294 . S
O115 C108 1.240 . S
O116 In104 2.326 . S
O116 C108 1.252 . S
In117 O118 2.294 . S
In117 O119 2.326 . S
In117 O123 2.266 . S
In117 O124 2.326 1_554 S
In117 O125 2.266 . S
In117 O126 2.326 . S
In117 O128 2.294 . S
In117 O129 2.326 . S
O118 In117 2.294 . S
O118 C127 1.240 . S
O119 In117 2.326 . S
O119 C127 1.252 . S
C120 O123 1.252 1_556 S
C120 O124 1.260 . S
C121 O128 1.240 . S
C121 O129 1.252 . S
C122 O125 1.252 . S
C122 O126 1.260 . S
O123 In117 2.266 . S
O123 C120 1.252 1_554 S
O124 In117 2.326 1_556 S
O124 C120 1.260 . S
O125 In117 2.266 . S
O125 C122 1.252 . S
O126 In117 2.326 . S
O126 C122 1.260 . S
C127 O118 1.240 . S
C127 O119 1.252 . S
O128 In117 2.294 . S
O128 C121 1.240 . S
O129 In117 2.326 . S
O129 C121 1.252 . S
In130 O131 2.294 . S
In130 O132 2.326 . S
In130 O136 2.266 . S
In130 O137 2.326 . S
In130 O138 2.266 . S
In130 O139 2.326 1_554 S
In130 O141 2.294 . S
In130 O142 2.326 . S
O131 In130 2.294 . S
O131 C140 1.240 . S
O132 In130 2.326 . S
O132 C140 1.252 . S
C133 O136 1.252 . S
C133 O137 1.260 . S
C134 O141 1.240 . S
C134 O142 1.252 . S
C135 O138 1.252 1_556 S
C135 O139 1.260 . S
O136 In130 2.266 . S
O136 C133 1.252 . S
O137 In130 2.326 . S
O137 C133 1.260 . S
O138 In130 2.266 . S
O138 C135 1.252 1_554 S
O139 In130 2.326 1_556 S
O139 C135 1.260 . S
C140 O131 1.240 . S
C140 O132 1.252 . S
O141 In130 2.294 . S
O141 C134 1.240 . S
O142 In130 2.326 . S
O142 C134 1.252 . S
In143 O144 2.294 . S
In143 O145 2.326 . S
In143 O149 2.266 . S
In143 O150 2.326 1_554 S
In143 O151 2.266 . S
In143 O152 2.326 . S
In143 O154 2.294 . S
In143 O155 2.326 . S
O144 In143 2.294 . S
O144 C153 1.240 . S
O145 In143 2.326 . S
O145 C153 1.252 . S
C146 O149 1.252 1_556 S
C146 O150 1.260 . S
C147 O154 1.240 . S
C147 O155 1.252 . S
C148 O151 1.252 . S
C148 O152 1.260 . S
O149 In143 2.266 . S
O149 C146 1.252 1_554 S
O150 In143 2.326 1_556 S
O150 C146 1.260 . S
O151 In143 2.266 . S
O151 C148 1.252 . S
O152 In143 2.326 . S
O152 C148 1.260 . S
C153 O144 1.240 . S
C153 O145 1.252 . S
O154 In143 2.294 . S
O154 C147 1.240 . S
O155 In143 2.326 . S
O155 C147 1.252 . S
In156 O157 2.294 . S
In156 O158 2.326 . S
In156 O162 2.266 . S
In156 O163 2.326 . S
In156 O164 2.266 . S
In156 O165 2.326 . S
In156 O167 2.294 . S
In156 O168 2.326 . S
O157 In156 2.294 . S
O157 C166 1.240 . S
O158 In156 2.326 . S
O158 C166 1.252 . S
C159 O162 1.252 . S
C159 O163 1.260 . S
C160 O167 1.240 . S
C160 O168 1.252 . S
C161 O164 1.252 . S
C161 O165 1.260 . S
O162 In156 2.266 . S
O162 C159 1.252 . S
O163 In156 2.326 . S
O163 C159 1.260 . S
O164 In156 2.266 . S
O164 C161 1.252 . S
O165 In156 2.326 . S
O165 C161 1.260 . S
C166 O157 1.240 . S
C166 O158 1.252 . S
O167 In156 2.294 . S
O167 C160 1.240 . S
O168 In156 2.326 . S
O168 C160 1.252 . S
In169 O170 2.294 . S
In169 O171 2.326 . S
In169 O175 2.266 . S
In169 O176 2.326 . S
In169 O177 2.266 . S
In169 O178 2.326 . S
In169 O180 2.294 . S
In169 O181 2.326 . S
O170 In169 2.294 . S
O170 C179 1.240 . S
O171 In169 2.326 . S
O171 C179 1.252 . S
C172 O175 1.252 . S
C172 O176 1.260 . S
C173 O180 1.240 . S
C173 O181 1.252 . S
C174 O177 1.252 . S
C174 O178 1.260 . S
O175 In169 2.266 . S
O175 C172 1.252 . S
O176 In169 2.326 . S
O176 C172 1.260 . S
O177 In169 2.266 . S
O177 C174 1.252 . S
O178 In169 2.326 . S
O178 C174 1.260 . S
C179 O170 1.240 . S
C179 O171 1.252 . S
O180 In169 2.294 . S
O180 C173 1.240 . S
O181 In169 2.326 . S
O181 C173 1.252 . S
In182 O183 2.294 . S
In182 O184 2.326 . S
In182 O188 2.266 . S
In182 O189 2.326 . S
In182 O190 2.266 . S
In182 O191 2.326 . S
In182 O193 2.294 . S
In182 O194 2.326 . S
O183 In182 2.294 . S
O183 C192 1.240 . S
O184 In182 2.326 . S
O184 C192 1.252 . S
C185 O188 1.252 . S
C185 O189 1.260 . S
C186 O193 1.240 . S
C186 O194 1.252 . S
C187 O190 1.252 . S
C187 O191 1.260 . S
O188 In182 2.266 . S
O188 C185 1.252 . S
O189 In182 2.326 . S
O189 C185 1.260 . S
O190 In182 2.266 . S
O190 C187 1.252 . S
O191 In182 2.326 . S
O191 C187 1.260 . S
C192 O183 1.240 . S
C192 O184 1.252 . S
O193 In182 2.294 . S
O193 C186 1.240 . S
O194 In182 2.326 . S
O194 C186 1.252 . S
In195 O196 2.294 . S
In195 O197 2.326 . S
In195 O201 2.266 . S
In195 O202 2.326 . S
In195 O203 2.266 . S
In195 O204 2.326 . S
In195 O206 2.294 . S
In195 O207 2.326 . S
O196 In195 2.294 . S
O196 C205 1.240 . S
O197 In195 2.326 . S
O197 C205 1.252 . S
C198 O201 1.252 . S
C198 O202 1.260 . S
C199 O206 1.240 . S
C199 O207 1.252 . S
C200 O203 1.252 . S
C200 O204 1.260 . S
O201 In195 2.266 . S
O201 C198 1.252 . S
O202 In195 2.326 . S
O202 C198 1.260 . S
O203 In195 2.266 . S
O203 C200 1.252 . S
O204 In195 2.326 . S
O204 C200 1.260 . S
C205 O196 1.240 . S
C205 O197 1.252 . S
O206 In195 2.294 . S
O206 C199 1.240 . S
O207 In195 2.326 . S
O207 C199 1.252 . S
In208 O209 2.294 . S
In208 O210 2.326 . S
In208 O214 2.266 . S
In208 O215 2.326 . S
In208 O216 2.266 . S
In208 O217 2.326 . S
In208 O219 2.294 . S
In208 O220 2.326 . S
O209 In208 2.294 . S
O209 C218 1.240 . S
O210 In208 2.326 . S
O210 C218 1.252 . S
C211 O214 1.252 . S
C211 O215 1.260 . S
C212 O219 1.240 . S
C212 O220 1.252 . S
C213 O216 1.252 . S
C213 O217 1.260 . S
O214 In208 2.266 . S
O214 C211 1.252 . S
O215 In208 2.326 . S
O215 C211 1.260 . S
O216 In208 2.266 . S
O216 C213 1.252 . S
O217 In208 2.326 . S
O217 C213 1.260 . S
C218 O209 1.240 . S
C218 O210 1.252 . S
O219 In208 2.294 . S
O219 C212 1.240 . S
O220 In208 2.326 . S
O220 C212 1.252 . S
In221 O222 2.294 . S
In221 O223 2.326 . S
In221 O227 2.266 . S
In221 O228 2.326 . S
In221 O229 2.266 . S
In221 O230 2.326 . S
In221 O232 2.294 . S
In221 O233 2.326 . S
O222 In221 2.294 . S
O222 C231 1.240 . S
O223 In221 2.326 . S
O223 C231 1.252 . S
C224 O227 1.252 . S
C224 O228 1.260 . S
C225 O232 1.240 . S
C225 O233 1.252 . S
C226 O229 1.252 . S
C226 O230 1.260 . S
O227 In221 2.266 . S
O227 C224 1.252 . S
O228 In221 2.326 . S
O228 C224 1.260 . S
O229 In221 2.266 . S
O229 C226 1.252 . S
O230 In221 2.326 . S
O230 C226 1.260 . S
C231 O222 1.240 . S
C231 O223 1.252 . S
O232 In221 2.294 . S
O232 C225 1.240 . S
O233 In221 2.326 . S
O233 C225 1.252 . S
In234 O235 2.294 . S
In234 O236 2.326 . S
In234 O240 2.266 . S
In234 O241 2.326 . S
In234 O242 2.266 . S
In234 O243 2.326 . S
In234 O245 2.294 . S
In234 O246 2.326 . S
O235 In234 2.294 . S
O235 C244 1.240 . S
O236 In234 2.326 . S
O236 C244 1.252 . S
C237 O240 1.252 . S
C237 O241 1.260 . S
C238 O245 1.240 . S
C238 O246 1.252 . S
C239 O242 1.252 . S
C239 O243 1.260 . S
O240 In234 2.266 . S
O240 C237 1.252 . S
O241 In234 2.326 . S
O241 C237 1.260 . S
O242 In234 2.266 . S
O242 C239 1.252 . S
O243 In234 2.326 . S
O243 C239 1.260 . S
C244 O235 1.240 . S
C244 O236 1.252 . S
O245 In234 2.294 . S
O245 C238 1.240 . S
O246 In234 2.326 . S
O246 C238 1.252 . S
In247 O248 2.294 . S
In247 O249 2.326 . S
In247 O253 2.266 . S
In247 O254 2.326 . S
In247 O255 2.266 . S
In247 O256 2.326 . S
In247 O258 2.294 . S
In247 O259 2.326 . S
O248 In247 2.294 . S
O248 C257 1.240 . S
O249 In247 2.326 . S
O249 C257 1.252 . S
C250 O253 1.252 . S
C250 O254 1.260 . S
C251 O258 1.240 . S
C251 O259 1.252 . S
C252 O255 1.252 . S
C252 O256 1.260 . S
O253 In247 2.266 . S
O253 C250 1.252 . S
O254 In247 2.326 . S
O254 C250 1.260 . S
O255 In247 2.266 . S
O255 C252 1.252 . S
O256 In247 2.326 . S
O256 C252 1.260 . S
C257 O248 1.240 . S
C257 O249 1.252 . S
O258 In247 2.294 . S
O258 C251 1.240 . S
O259 In247 2.326 . S
O259 C251 1.252 . S
In260 O261 2.294 . S
In260 O262 2.326 . S
In260 O266 2.266 . S
In260 O267 2.326 . S
In260 O268 2.266 . S
In260 O269 2.326 . S
In260 O271 2.294 . S
In260 O272 2.326 . S
O261 In260 2.294 . S
O261 C270 1.240 . S
O262 In260 2.326 . S
O262 C270 1.252 . S
C263 O266 1.252 . S
C263 O267 1.260 . S
C264 O271 1.240 . S
C264 O272 1.252 . S
C265 O268 1.252 . S
C265 O269 1.260 . S
O266 In260 2.266 . S
O266 C263 1.252 . S
O267 In260 2.326 . S
O267 C263 1.260 . S
O268 In260 2.266 . S
O268 C265 1.252 . S
O269 In260 2.326 . S
O269 C265 1.260 . S
C270 O261 1.240 . S
C270 O262 1.252 . S
O271 In260 2.294 . S
O271 C264 1.240 . S
O272 In260 2.326 . S
O272 C264 1.252 . S
In273 O274 2.294 . S
In273 O275 2.326 . S
In273 O279 2.266 . S
In273 O280 2.326 . S
In273 O281 2.266 . S
In273 O282 2.326 . S
In273 O284 2.294 . S
In273 O285 2.326 . S
O274 In273 2.294 . S
O274 C283 1.240 . S
O275 In273 2.326 . S
O275 C283 1.252 . S
C276 O279 1.252 . S
C276 O280 1.260 . S
C277 O284 1.240 . S
C277 O285 1.252 . S
C278 O281 1.252 . S
C278 O282 1.260 . S
O279 In273 2.266 . S
O279 C276 1.252 . S
O280 In273 2.326 . S
O280 C276 1.260 . S
O281 In273 2.266 . S
O281 C278 1.252 . S
O282 In273 2.326 . S
O282 C278 1.260 . S
C283 O274 1.240 . S
C283 O275 1.252 . S
O284 In273 2.294 . S
O284 C277 1.240 . S
O285 In273 2.326 . S
O285 C277 1.252 . S
In286 O287 2.294 . S
In286 O288 2.326 . S
In286 O292 2.266 . S
In286 O293 2.326 . S
In286 O294 2.266 . S
In286 O295 2.326 . S
In286 O297 2.294 . S
In286 O298 2.326 . S
O287 In286 2.294 . S
O287 C296 1.240 . S
O288 In286 2.326 . S
O288 C296 1.252 . S
C289 O292 1.252 . S
C289 O293 1.260 . S
C290 O297 1.240 . S
C290 O298 1.252 . S
C291 O294 1.252 . S
C291 O295 1.260 . S
O292 In286 2.266 . S
O292 C289 1.252 . S
O293 In286 2.326 . S
O293 C289 1.260 . S
O294 In286 2.266 . S
O294 C291 1.252 . S
O295 In286 2.326 . S
O295 C291 1.260 . S
C296 O287 1.240 . S
C296 O288 1.252 . S
O297 In286 2.294 . S
O297 C290 1.240 . S
O298 In286 2.326 . S
O298 C290 1.252 . S
In299 O300 2.294 . S
In299 O301 2.326 . S
In299 O305 2.266 . S
In299 O306 2.326 . S
In299 O307 2.266 . S
In299 O308 2.326 . S
In299 O310 2.294 . S
In299 O311 2.326 . S
O300 In299 2.294 . S
O300 C309 1.240 . S
O301 In299 2.326 . S
O301 C309 1.252 . S
C302 O305 1.252 . S
C302 O306 1.260 . S
C303 O310 1.240 . S
C303 O311 1.252 . S
C304 O307 1.252 . S
C304 O308 1.260 . S
O305 In299 2.266 . S
O305 C302 1.252 . S
O306 In299 2.326 . S
O306 C302 1.260 . S
O307 In299 2.266 . S
O307 C304 1.252 . S
O308 In299 2.326 . S
O308 C304 1.260 . S
C309 O300 1.240 . S
C309 O301 1.252 . S
O310 In299 2.294 . S
O310 C303 1.240 . S
O311 In299 2.326 . S
O311 C303 1.252 . S
In312 O313 2.294 . S
In312 O314 2.326 . S
In312 O318 2.266 . S
In312 O319 2.326 . S
In312 O320 2.266 . S
In312 O321 2.326 . S
In312 O323 2.294 . S
In312 O324 2.326 . S
O313 In312 2.294 . S
O313 C322 1.240 . S
O314 In312 2.326 . S
O314 C322 1.252 . S
C315 O318 1.252 . S
C315 O319 1.260 . S
C316 O323 1.240 . S
C316 O324 1.252 . S
C317 O320 1.252 . S
C317 O321 1.260 . S
O318 In312 2.266 . S
O318 C315 1.252 . S
O319 In312 2.326 . S
O319 C315 1.260 . S
O320 In312 2.266 . S
O320 C317 1.252 . S
O321 In312 2.326 . S
O321 C317 1.260 . S
C322 O313 1.240 . S
C322 O314 1.252 . S
O323 In312 2.294 . S
O323 C316 1.240 . S
O324 In312 2.326 . S
O324 C316 1.252 . S
In325 O326 2.294 . S
In325 O327 2.326 . S
In325 O331 2.266 . S
In325 O332 2.326 . S
In325 O333 2.266 . S
In325 O334 2.326 . S
In325 O336 2.294 . S
In325 O337 2.326 . S
O326 In325 2.294 . S
O326 C335 1.240 . S
O327 In325 2.326 . S
O327 C335 1.252 . S
C328 O331 1.252 . S
C328 O332 1.260 . S
C329 O336 1.240 . S
C329 O337 1.252 . S
C330 O333 1.252 . S
C330 O334 1.260 . S
O331 In325 2.266 . S
O331 C328 1.252 . S
O332 In325 2.326 . S
O332 C328 1.260 . S
O333 In325 2.266 . S
O333 C330 1.252 . S
O334 In325 2.326 . S
O334 C330 1.260 . S
C335 O326 1.240 . S
C335 O327 1.252 . S
O336 In325 2.294 . S
O336 C329 1.240 . S
O337 In325 2.326 . S
O337 C329 1.252 . S
In338 O339 2.294 . S
In338 O340 2.326 . S
In338 O344 2.266 . S
In338 O345 2.326 . S
In338 O346 2.266 . S
In338 O347 2.326 . S
In338 O349 2.294 . S
In338 O350 2.326 . S
O339 In338 2.294 . S
O339 C348 1.240 . S
O340 In338 2.326 . S
O340 C348 1.252 . S
C341 O344 1.252 . S
C341 O345 1.260 . S
C342 O349 1.240 . S
C342 O350 1.252 . S
C343 O346 1.252 . S
C343 O347 1.260 . S
O344 In338 2.266 . S
O344 C341 1.252 . S
O345 In338 2.326 . S
O345 C341 1.260 . S
O346 In338 2.266 . S
O346 C343 1.252 . S
O347 In338 2.326 . S
O347 C343 1.260 . S
C348 O339 1.240 . S
C348 O340 1.252 . S
O349 In338 2.294 . S
O349 C342 1.240 . S
O350 In338 2.326 . S
O350 C342 1.252 . S
In351 O352 2.294 . S
In351 O353 2.326 . S
In351 O357 2.266 . S
In351 O358 2.326 . S
In351 O359 2.266 . S
In351 O360 2.326 . S
In351 O362 2.294 . S
In351 O363 2.326 . S
O352 In351 2.294 . S
O352 C361 1.240 . S
O353 In351 2.326 . S
O353 C361 1.252 . S
C354 O357 1.252 . S
C354 O358 1.260 . S
C355 O362 1.240 . S
C355 O363 1.252 . S
C356 O359 1.252 . S
C356 O360 1.260 . S
O357 In351 2.266 . S
O357 C354 1.252 . S
O358 In351 2.326 . S
O358 C354 1.260 . S
O359 In351 2.266 . S
O359 C356 1.252 . S
O360 In351 2.326 . S
O360 C356 1.260 . S
C361 O352 1.240 . S
C361 O353 1.252 . S
O362 In351 2.294 . S
O362 C355 1.240 . S
O363 In351 2.326 . S
O363 C355 1.252 . S
In364 O365 2.294 . S
In364 O366 2.326 . S
In364 O370 2.266 . S
In364 O371 2.326 . S
In364 O372 2.266 . S
In364 O373 2.326 . S
In364 O375 2.294 . S
In364 O376 2.326 . S
O365 In364 2.294 . S
O365 C374 1.240 . S
O366 In364 2.326 . S
O366 C374 1.252 . S
C367 O370 1.252 . S
C367 O371 1.260 . S
C368 O375 1.240 . S
C368 O376 1.252 . S
C369 O372 1.252 . S
C369 O373 1.260 . S
O370 In364 2.266 . S
O370 C367 1.252 . S
O371 In364 2.326 . S
O371 C367 1.260 . S
O372 In364 2.266 . S
O372 C369 1.252 . S
O373 In364 2.326 . S
O373 C369 1.260 . S
C374 O365 1.240 . S
C374 O366 1.252 . S
O375 In364 2.294 . S
O375 C368 1.240 . S
O376 In364 2.326 . S
O376 C368 1.252 . S
In377 O378 2.294 . S
In377 O379 2.326 . S
In377 O383 2.266 . S
In377 O384 2.326 . S
In377 O385 2.266 . S
In377 O386 2.326 . S
In377 O388 2.294 . S
In377 O389 2.326 . S
O378 In377 2.294 . S
O378 C387 1.240 . S
O379 In377 2.326 . S
O379 C387 1.252 . S
C380 O383 1.252 . S
C380 O384 1.260 . S
C381 O388 1.240 . S
C381 O389 1.252 . S
C382 O385 1.252 . S
C382 O386 1.260 . S
O383 In377 2.266 . S
O383 C380 1.252 . S
O384 In377 2.326 . S
O384 C380 1.260 . S
O385 In377 2.266 . S
O385 C382 1.252 . S
O386 In377 2.326 . S
O386 C382 1.260 . S
C387 O378 1.240 . S
C387 O379 1.252 . S
O388 In377 2.294 . S
O388 C381 1.240 . S
O389 In377 2.326 . S
O389 C381 1.252 . S
In390 O391 2.294 . S
In390 O392 2.326 . S
In390 O396 2.266 . S
In390 O397 2.326 . S
In390 O398 2.266 . S
In390 O399 2.326 . S
In390 O401 2.294 . S
In390 O402 2.326 . S
O391 In390 2.294 . S
O391 C400 1.240 . S
O392 In390 2.326 . S
O392 C400 1.252 . S
C393 O396 1.252 . S
C393 O397 1.260 . S
C394 O401 1.240 . S
C394 O402 1.252 . S
C395 O398 1.252 . S
C395 O399 1.260 . S
O396 In390 2.266 . S
O396 C393 1.252 . S
O397 In390 2.326 . S
O397 C393 1.260 . S
O398 In390 2.266 . S
O398 C395 1.252 . S
O399 In390 2.326 . S
O399 C395 1.260 . S
C400 O391 1.240 . S
C400 O392 1.252 . S
O401 In390 2.294 . S
O401 C394 1.240 . S
O402 In390 2.326 . S
O402 C394 1.252 . S
In403 O404 2.294 . S
In403 O405 2.326 . S
In403 O409 2.266 . S
In403 O410 2.326 . S
In403 O411 2.266 . S
In403 O412 2.326 . S
In403 O414 2.294 . S
In403 O415 2.326 . S
O404 In403 2.294 . S
O404 C413 1.240 . S
O405 In403 2.326 . S
O405 C413 1.252 . S
C406 O409 1.252 . S
C406 O410 1.260 . S
C407 O414 1.240 . S
C407 O415 1.252 . S
C408 O411 1.252 . S
C408 O412 1.260 . S
O409 In403 2.266 . S
O409 C406 1.252 . S
O410 In403 2.326 . S
O410 C406 1.260 . S
O411 In403 2.266 . S
O411 C408 1.252 . S
O412 In403 2.326 . S
O412 C408 1.260 . S
C413 O404 1.240 . S
C413 O405 1.252 . S
O414 In403 2.294 . S
O414 C407 1.240 . S
O415 In403 2.326 . S
O415 C407 1.252 . S
In416 O417 2.294 . S
In416 O418 2.326 . S
In416 O422 2.266 . S
In416 O423 2.326 . S
In416 O424 2.266 . S
In416 O425 2.326 . S
In416 O427 2.294 . S
In416 O428 2.326 . S
O417 In416 2.294 . S
O417 C426 1.240 . S
O418 In416 2.326 . S
O418 C426 1.252 . S
C419 O422 1.252 . S
C419 O423 1.260 . S
C420 O427 1.240 . S
C420 O428 1.252 . S
C421 O424 1.252 . S
C421 O425 1.260 . S
O422 In416 2.266 . S
O422 C419 1.252 . S
O423 In416 2.326 . S
O423 C419 1.260 . S
O424 In416 2.266 . S
O424 C421 1.252 . S
O425 In416 2.326 . S
O425 C421 1.260 . S
C426 O417 1.240 . S
C426 O418 1.252 . S
O427 In416 2.294 . S
O427 C420 1.240 . S
O428 In416 2.326 . S
O428 C420 1.252 . S
In429 O430 2.294 . S
In429 O431 2.326 . S
In429 O435 2.266 . S
In429 O436 2.326 . S
In429 O437 2.266 . S
In429 O438 2.326 . S
In429 O440 2.294 . S
In429 O441 2.326 . S
O430 In429 2.294 . S
O430 C439 1.240 . S
O431 In429 2.326 . S
O431 C439 1.252 . S
C432 O435 1.252 . S
C432 O436 1.260 . S
C433 O440 1.240 . S
C433 O441 1.252 . S
C434 O437 1.252 . S
C434 O438 1.260 . S
O435 In429 2.266 . S
O435 C432 1.252 . S
O436 In429 2.326 . S
O436 C432 1.260 . S
O437 In429 2.266 . S
O437 C434 1.252 . S
O438 In429 2.326 . S
O438 C434 1.260 . S
C439 O430 1.240 . S
C439 O431 1.252 . S
O440 In429 2.294 . S
O440 C433 1.240 . S
O441 In429 2.326 . S
O441 C433 1.252 . S
In442 O443 2.294 . S
In442 O444 2.326 . S
In442 O448 2.266 . S
In442 O449 2.326 . S
In442 O450 2.266 . S
In442 O451 2.326 . S
In442 O453 2.294 . S
In442 O454 2.326 . S
O443 In442 2.294 . S
O443 C452 1.240 . S
O444 In442 2.326 . S
O444 C452 1.252 . S
C445 O448 1.252 . S
C445 O449 1.260 . S
C446 O453 1.240 . S
C446 O454 1.252 . S
C447 O450 1.252 . S
C447 O451 1.260 . S
O448 In442 2.266 . S
O448 C445 1.252 . S
O449 In442 2.326 . S
O449 C445 1.260 . S
O450 In442 2.266 . S
O450 C447 1.252 . S
O451 In442 2.326 . S
O451 C447 1.260 . S
C452 O443 1.240 . S
C452 O444 1.252 . S
O453 In442 2.294 . S
O453 C446 1.240 . S
O454 In442 2.326 . S
O454 C446 1.252 . S
In455 O456 2.294 . S
In455 O457 2.326 . S
In455 O461 2.266 . S
In455 O462 2.326 . S
In455 O463 2.266 . S
In455 O464 2.326 . S
In455 O466 2.294 . S
In455 O467 2.326 . S
O456 In455 2.294 . S
O456 C465 1.240 . S
O457 In455 2.326 . S
O457 C465 1.252 . S
C458 O461 1.252 . S
C458 O462 1.260 . S
C459 O466 1.240 . S
C459 O467 1.252 . S
C460 O463 1.252 . S
C460 O464 1.260 . S
O461 In455 2.266 . S
O461 C458 1.252 . S
O462 In455 2.326 . S
O462 C458 1.260 . S
O463 In455 2.266 . S
O463 C460 1.252 . S
O464 In455 2.326 . S
O464 C460 1.260 . S
C465 O456 1.240 . S
C465 O457 1.252 . S
O466 In455 2.294 . S
O466 C459 1.240 . S
O467 In455 2.326 . S
O467 C459 1.252 . S
C468 C469 1.387 . S
C468 H472 0.950 . S
C468 C477 1.390 . S
C469 C468 1.387 . S
C469 C471 1.387 . S
H470 C477 0.950 . S
C471 C469 1.387 . S
C471 C473 1.390 . S
C471 H475 0.950 . S
H472 C468 0.950 . S
C473 C471 1.390 . S
C473 C474 1.387 . S
C473 H476 0.950 . S
C474 C473 1.387 . S
C474 C477 1.387 . S
H475 C471 0.950 . S
H476 C473 0.950 . S
C477 C468 1.390 . S
C477 H470 0.950 . S
C477 C474 1.387 . S
C478 C479 1.387 . S
C478 H482 0.950 . S
C478 C487 1.390 . S
C479 C478 1.387 . S
C479 C481 1.387 . S
H480 C487 0.950 . S
C481 C479 1.387 . S
C481 C483 1.390 . S
C481 H485 0.950 . S
H482 C478 0.950 . S
C483 C481 1.390 . S
C483 C484 1.387 . S
C483 H486 0.950 . S
C484 C483 1.387 . S
C484 C487 1.387 . S
H485 C481 0.950 . S
H486 C483 0.950 . S
C487 C478 1.390 . S
C487 H480 0.950 . S
C487 C484 1.387 . S
C488 C489 1.387 . S
C488 H492 0.950 . S
C488 C497 1.390 . S
C489 C488 1.387 . S
C489 C491 1.387 . S
H490 C497 0.950 . S
C491 C489 1.387 . S
C491 C493 1.390 . S
C491 H495 0.950 . S
H492 C488 0.950 . S
C493 C491 1.390 . S
C493 C494 1.387 . S
C493 H496 0.950 . S
C494 C493 1.387 . S
C494 C497 1.387 . S
H495 C491 0.950 . S
H496 C493 0.950 . S
C497 C488 1.390 . S
C497 H490 0.950 . S
C497 C494 1.387 . S
C498 C499 1.387 . S
C498 H502 0.950 . S
C498 C507 1.390 . S
C499 C498 1.387 . S
C499 C501 1.387 . S
H500 C507 0.950 . S
C501 C499 1.387 . S
C501 C503 1.390 . S
C501 H505 0.950 . S
H502 C498 0.950 . S
C503 C501 1.390 . S
C503 C504 1.387 . S
C503 H506 0.950 . S
C504 C503 1.387 . S
C504 C507 1.387 . S
H505 C501 0.950 . S
H506 C503 0.950 . S
C507 C498 1.390 . S
C507 H500 0.950 . S
C507 C504 1.387 . S
C508 C509 1.387 . S
C508 H512 0.950 . S
C508 C517 1.390 . S
C509 C508 1.387 . S
C509 C511 1.387 . S
H510 C517 0.950 . S
C511 C509 1.387 . S
C511 C513 1.390 . S
C511 H515 0.950 . S
H512 C508 0.950 . S
C513 C511 1.390 . S
C513 C514 1.387 . S
C513 H516 0.950 . S
C514 C513 1.387 . S
C514 C517 1.387 . S
H515 C511 0.950 . S
H516 C513 0.950 . S
C517 C508 1.390 . S
C517 H510 0.950 . S
C517 C514 1.387 . S
C518 C519 1.387 . S
C518 H522 0.950 . S
C518 C527 1.390 . S
C519 C518 1.387 . S
C519 C521 1.387 . S
H520 C527 0.950 . S
C521 C519 1.387 . S
C521 C523 1.390 . S
C521 H525 0.950 . S
H522 C518 0.950 . S
C523 C521 1.390 . S
C523 C524 1.387 . S
C523 H526 0.950 . S
C524 C523 1.387 . S
C524 C527 1.387 . S
H525 C521 0.950 . S
H526 C523 0.950 . S
C527 C518 1.390 . S
C527 H520 0.950 . S
C527 C524 1.387 . S
C528 C529 1.387 . S
C528 H532 0.950 . S
C528 C537 1.390 . S
C529 C528 1.387 . S
C529 C531 1.387 . S
H530 C537 0.950 . S
C531 C529 1.387 . S
C531 C533 1.390 . S
C531 H535 0.950 . S
H532 C528 0.950 . S
C533 C531 1.390 . S
C533 C534 1.387 . S
C533 H536 0.950 . S
C534 C533 1.387 . S
C534 C537 1.387 . S
H535 C531 0.950 . S
H536 C533 0.950 . S
C537 C528 1.390 . S
C537 H530 0.950 . S
C537 C534 1.387 . S
C538 C539 1.387 . S
C538 H542 0.950 . S
C538 C547 1.390 . S
C539 C538 1.387 . S
C539 C541 1.387 . S
H540 C547 0.950 . S
C541 C539 1.387 . S
C541 C543 1.390 . S
C541 H545 0.950 . S
H542 C538 0.950 . S
C543 C541 1.390 . S
C543 C544 1.387 . S
C543 H546 0.950 . S
C544 C543 1.387 . S
C544 C547 1.387 . S
H545 C541 0.950 . S
H546 C543 0.950 . S
C547 C538 1.390 . S
C547 H540 0.950 . S
C547 C544 1.387 . S
C548 C549 1.387 . S
C548 H552 0.950 . S
C548 C557 1.390 . S
C549 C548 1.387 . S
C549 C551 1.387 . S
H550 C557 0.950 . S
C551 C549 1.387 . S
C551 C553 1.390 . S
C551 H555 0.950 . S
H552 C548 0.950 . S
C553 C551 1.390 . S
C553 C554 1.387 . S
C553 H556 0.950 . S
C554 C553 1.387 . S
C554 C557 1.387 . S
H555 C551 0.950 . S
H556 C553 0.950 . S
C557 C548 1.390 . S
C557 H550 0.950 . S
C557 C554 1.387 . S
C558 C559 1.387 . S
C558 H562 0.950 . S
C558 C567 1.390 . S
C559 C558 1.387 . S
C559 C561 1.387 . S
H560 C567 0.950 . S
C561 C559 1.387 . S
C561 C563 1.390 . S
C561 H565 0.950 . S
H562 C558 0.950 . S
C563 C561 1.390 . S
C563 C564 1.387 . S
C563 H566 0.950 . S
C564 C563 1.387 . S
C564 C567 1.387 . S
H565 C561 0.950 . S
H566 C563 0.950 . S
C567 C558 1.390 . S
C567 H560 0.950 . S
C567 C564 1.387 . S
C568 C569 1.387 . S
C568 H572 0.950 . S
C568 C577 1.390 . S
C569 C568 1.387 . S
C569 C571 1.387 . S
H570 C577 0.950 . S
C571 C569 1.387 . S
C571 C573 1.390 . S
C571 H575 0.950 . S
H572 C568 0.950 . S
C573 C571 1.390 . S
C573 C574 1.387 . S
C573 H576 0.950 . S
C574 C573 1.387 . S
C574 C577 1.387 . S
H575 C571 0.950 . S
H576 C573 0.950 . S
C577 C568 1.390 . S
C577 H570 0.950 . S
C577 C574 1.387 . S
C578 C579 1.387 . S
C578 H582 0.950 . S
C578 C587 1.390 . S
C579 C578 1.387 . S
C579 C581 1.387 . S
H580 C587 0.950 . S
C581 C579 1.387 . S
C581 C583 1.390 . S
C581 H585 0.950 . S
H582 C578 0.950 . S
C583 C581 1.390 . S
C583 C584 1.387 . S
C583 H586 0.950 . S
C584 C583 1.387 . S
C584 C587 1.387 . S
H585 C581 0.950 . S
H586 C583 0.950 . S
C587 C578 1.390 . S
C587 H580 0.950 . S
C587 C584 1.387 . S
C588 C589 1.387 . S
C588 H592 0.950 . S
C588 C597 1.390 . S
C589 C588 1.387 . S
C589 C591 1.387 . S
H590 C597 0.950 . S
C591 C589 1.387 . S
C591 C593 1.390 . S
C591 H595 0.950 . S
H592 C588 0.950 . S
C593 C591 1.390 . S
C593 C594 1.387 . S
C593 H596 0.950 . S
C594 C593 1.387 . S
C594 C597 1.387 . S
H595 C591 0.950 . S
H596 C593 0.950 . S
C597 C588 1.390 . S
C597 H590 0.950 . S
C597 C594 1.387 . S
C598 C599 1.387 . S
C598 H602 0.950 . S
C598 C607 1.390 . S
C599 C598 1.387 . S
C599 C601 1.387 . S
H600 C607 0.950 . S
C601 C599 1.387 . S
C601 C603 1.390 . S
C601 H605 0.950 . S
H602 C598 0.950 . S
C603 C601 1.390 . S
C603 C604 1.387 . S
C603 H606 0.950 . S
C604 C603 1.387 . S
C604 C607 1.387 . S
H605 C601 0.950 . S
H606 C603 0.950 . S
C607 C598 1.390 . S
C607 H600 0.950 . S
C607 C604 1.387 . S
C608 C609 1.387 . S
C608 H612 0.950 . S
C608 C617 1.390 . S
C609 C608 1.387 . S
C609 C611 1.387 . S
H610 C617 0.950 . S
C611 C609 1.387 . S
C611 C613 1.390 . S
C611 H615 0.950 . S
H612 C608 0.950 . S
C613 C611 1.390 . S
C613 C614 1.387 . S
C613 H616 0.950 . S
C614 C613 1.387 . S
C614 C617 1.387 . S
H615 C611 0.950 . S
H616 C613 0.950 . S
C617 C608 1.390 . S
C617 H610 0.950 . S
C617 C614 1.387 . S
C618 C619 1.387 . S
C618 H622 0.950 . S
C618 C627 1.390 . S
C619 C618 1.387 . S
C619 C621 1.387 . S
H620 C627 0.950 . S
C621 C619 1.387 . S
C621 C623 1.390 . S
C621 H625 0.950 . S
H622 C618 0.950 . S
C623 C621 1.390 . S
C623 C624 1.387 . S
C623 H626 0.950 . S
C624 C623 1.387 . S
C624 C627 1.387 . S
H625 C621 0.950 . S
H626 C623 0.950 . S
C627 C618 1.390 . S
C627 H620 0.950 . S
C627 C624 1.387 . S
C628 C629 1.387 . S
C628 H632 0.950 . S
C628 C637 1.390 . S
C629 C628 1.387 . S
C629 C631 1.387 . S
H630 C637 0.950 . S
C631 C629 1.387 . S
C631 C633 1.390 . S
C631 H635 0.950 . S
H632 C628 0.950 . S
C633 C631 1.390 . S
C633 C634 1.387 . S
C633 H636 0.950 . S
C634 C633 1.387 . S
C634 C637 1.387 . S
H635 C631 0.950 . S
H636 C633 0.950 . S
C637 C628 1.390 . S
C637 H630 0.950 . S
C637 C634 1.387 . S
C638 C639 1.387 . S
C638 H642 0.950 . S
C638 C647 1.390 . S
C639 C638 1.387 . S
C639 C641 1.387 . S
H640 C647 0.950 . S
C641 C639 1.387 . S
C641 C643 1.390 . S
C641 H645 0.950 . S
H642 C638 0.950 . S
C643 C641 1.390 . S
C643 C644 1.387 . S
C643 H646 0.950 . S
C644 C643 1.387 . S
C644 C647 1.387 . S
H645 C641 0.950 . S
H646 C643 0.950 . S
C647 C638 1.390 . S
C647 H640 0.950 . S
C647 C644 1.387 . S
C648 C649 1.387 . S
C648 H652 0.950 . S
C648 C657 1.390 1_455 S
C649 C648 1.387 . S
C649 C651 1.387 1_554 S
H650 C657 0.950 . S
C651 C649 1.387 1_556 S
C651 C653 1.390 1_455 S
C651 H655 0.950 . S
H652 C648 0.950 . S
C653 C651 1.390 1_655 S
C653 C654 1.387 . S
C653 H656 0.950 . S
C654 C653 1.387 . S
C654 C657 1.387 1_556 S
H655 C651 0.950 . S
H656 C653 0.950 . S
C657 C648 1.390 1_655 S
C657 H650 0.950 . S
C657 C654 1.387 1_554 S
C658 C659 1.387 1_554 S
C658 H662 0.950 . S
C658 C667 1.390 . S
C659 C658 1.387 1_556 S
C659 C661 1.387 . S
H660 C667 0.950 . S
C661 C659 1.387 . S
C661 C663 1.390 . S
C661 H665 0.950 . S
H662 C658 0.950 . S
C663 C661 1.390 . S
C663 C664 1.387 1_556 S
C663 H666 0.950 . S
C664 C663 1.387 1_554 S
C664 C667 1.387 . S
H665 C661 0.950 . S
H666 C663 0.950 . S
C667 C658 1.390 . S
C667 H660 0.950 . S
C667 C664 1.387 . S
C668 C669 1.387 . S
C668 H672 0.950 . S
C668 C677 1.390 1_564 S
C669 C668 1.387 . S
C669 C671 1.387 . S
H670 C677 0.950 . S
C671 C669 1.387 . S
C671 C673 1.390 1_564 S
C671 H675 0.950 . S
H672 C668 0.950 . S
C673 C671 1.390 1_546 S
C673 C674 1.387 . S
C673 H676 0.950 . S
C674 C673 1.387 . S
C674 C677 1.387 . S
H675 C671 0.950 . S
H676 C673 0.950 . S
C677 C668 1.390 1_546 S
C677 H670 0.950 . S
C677 C674 1.387 . S
C678 C679 1.387 . S
C678 H682 0.950 . S
C678 C687 1.390 1_655 S
C679 C678 1.387 . S
C679 C681 1.387 1_556 S
H680 C687 0.950 . S
C681 C679 1.387 1_554 S
C681 C683 1.390 1_655 S
C681 H685 0.950 . S
H682 C678 0.950 . S
C683 C681 1.390 1_455 S
C683 C684 1.387 . S
C683 H686 0.950 . S
C684 C683 1.387 . S
C684 C687 1.387 1_554 S
H685 C681 0.950 . S
H686 C683 0.950 . S
C687 C678 1.390 1_455 S
C687 H680 0.950 . S
C687 C684 1.387 1_556 S
C688 C689 1.387 1_554 S
C688 H692 0.950 . S
C688 C697 1.390 . S
C689 C688 1.387 1_556 S
C689 C691 1.387 . S
H690 C697 0.950 . S
C691 C689 1.387 . S
C691 C693 1.390 . S
C691 H695 0.950 . S
H692 C688 0.950 . S
C693 C691 1.390 . S
C693 C694 1.387 1_556 S
C693 H696 0.950 . S
C694 C693 1.387 1_554 S
C694 C697 1.387 . S
H695 C691 0.950 . S
H696 C693 0.950 . S
C697 C688 1.390 . S
C697 H690 0.950 . S
C697 C694 1.387 . S
C698 C699 1.387 . S
C698 H702 0.950 . S
C698 C707 1.390 1_546 S
C699 C698 1.387 . S
C699 C701 1.387 . S
H700 C707 0.950 . S
C701 C699 1.387 . S
C701 C703 1.390 1_546 S
C701 H705 0.950 . S
H702 C698 0.950 . S
C703 C701 1.390 1_564 S
C703 C704 1.387 . S
C703 H706 0.950 . S
C704 C703 1.387 . S
C704 C707 1.387 . S
H705 C701 0.950 . S
H706 C703 0.950 . S
C707 C698 1.390 1_564 S
C707 H700 0.950 . S
C707 C704 1.387 . S
C708 C709 1.387 . S
C708 H712 0.950 . S
C708 C717 1.390 . S
C709 C708 1.387 . S
C709 C711 1.387 . S
H710 C717 0.950 . S
C711 C709 1.387 . S
C711 C713 1.390 . S
C711 H715 0.950 . S
H712 C708 0.950 . S
C713 C711 1.390 . S
C713 C714 1.387 . S
C713 H716 0.950 . S
C714 C713 1.387 . S
C714 C717 1.387 . S
H715 C711 0.950 . S
H716 C713 0.950 . S
C717 C708 1.390 . S
C717 H710 0.950 . S
C717 C714 1.387 . S
C718 C719 1.387 . S
C718 H722 0.950 . S
C718 C727 1.390 . S
C719 C718 1.387 . S
C719 C721 1.387 . S
H720 C727 0.950 . S
C721 C719 1.387 . S
C721 C723 1.390 . S
C721 H725 0.950 . S
H722 C718 0.950 . S
C723 C721 1.390 . S
C723 C724 1.387 . S
C723 H726 0.950 . S
C724 C723 1.387 . S
C724 C727 1.387 . S
H725 C721 0.950 . S
H726 C723 0.950 . S
C727 C718 1.390 . S
C727 H720 0.950 . S
C727 C724 1.387 . S
C728 C729 1.387 . S
C728 H732 0.950 . S
C728 C737 1.390 . S
C729 C728 1.387 . S
C729 C731 1.387 . S
H730 C737 0.950 . S
C731 C729 1.387 . S
C731 C733 1.390 . S
C731 H735 0.950 . S
H732 C728 0.950 . S
C733 C731 1.390 . S
C733 C734 1.387 . S
C733 H736 0.950 . S
C734 C733 1.387 . S
C734 C737 1.387 . S
H735 C731 0.950 . S
H736 C733 0.950 . S
C737 C728 1.390 . S
C737 H730 0.950 . S
C737 C734 1.387 . S
C738 C739 1.387 . S
C738 H742 0.950 . S
C738 C747 1.390 . S
C739 C738 1.387 . S
C739 C741 1.387 . S
H740 C747 0.950 . S
C741 C739 1.387 . S
C741 C743 1.390 . S
C741 H745 0.950 . S
H742 C738 0.950 . S
C743 C741 1.390 . S
C743 C744 1.387 . S
C743 H746 0.950 . S
C744 C743 1.387 . S
C744 C747 1.387 . S
H745 C741 0.950 . S
H746 C743 0.950 . S
C747 C738 1.390 . S
C747 H740 0.950 . S
C747 C744 1.387 . S
C748 C749 1.387 . S
C748 H752 0.950 . S
C748 C757 1.390 . S
C749 C748 1.387 . S
C749 C751 1.387 . S
H750 C757 0.950 . S
C751 C749 1.387 . S
C751 C753 1.390 . S
C751 H755 0.950 . S
H752 C748 0.950 . S
C753 C751 1.390 . S
C753 C754 1.387 . S
C753 H756 0.950 . S
C754 C753 1.387 . S
C754 C757 1.387 . S
H755 C751 0.950 . S
H756 C753 0.950 . S
C757 C748 1.390 . S
C757 H750 0.950 . S
C757 C754 1.387 . S
C758 C759 1.387 . S
C758 H762 0.950 . S
C758 C767 1.390 . S
C759 C758 1.387 . S
C759 C761 1.387 . S
H760 C767 0.950 . S
C761 C759 1.387 . S
C761 C763 1.390 . S
C761 H765 0.950 . S
H762 C758 0.950 . S
C763 C761 1.390 . S
C763 C764 1.387 . S
C763 H766 0.950 . S
C764 C763 1.387 . S
C764 C767 1.387 . S
H765 C761 0.950 . S
H766 C763 0.950 . S
C767 C758 1.390 . S
C767 H760 0.950 . S
C767 C764 1.387 . S
C768 C769 1.387 . S
C768 H772 0.950 . S
C768 C777 1.390 . S
C769 C768 1.387 . S
C769 C771 1.387 . S
H770 C777 0.950 . S
C771 C769 1.387 . S
C771 C773 1.390 . S
C771 H775 0.950 . S
H772 C768 0.950 . S
C773 C771 1.390 . S
C773 C774 1.387 . S
C773 H776 0.950 . S
C774 C773 1.387 . S
C774 C777 1.387 . S
H775 C771 0.950 . S
H776 C773 0.950 . S
C777 C768 1.390 . S
C777 H770 0.950 . S
C777 C774 1.387 . S
C778 C779 1.387 . S
C778 H782 0.950 . S
C778 C787 1.390 . S
C779 C778 1.387 . S
C779 C781 1.387 . S
H780 C787 0.950 . S
C781 C779 1.387 . S
C781 C783 1.390 . S
C781 H785 0.950 . S
H782 C778 0.950 . S
C783 C781 1.390 . S
C783 C784 1.387 . S
C783 H786 0.950 . S
C784 C783 1.387 . S
C784 C787 1.387 . S
H785 C781 0.950 . S
H786 C783 0.950 . S
C787 C778 1.390 . S
C787 H780 0.950 . S
C787 C784 1.387 . S
C788 C789 1.387 . S
C788 H792 0.950 . S
C788 C797 1.390 . S
C789 C788 1.387 . S
C789 C791 1.387 . S
H790 C797 0.950 . S
C791 C789 1.387 . S
C791 C793 1.390 . S
C791 H795 0.950 . S
H792 C788 0.950 . S
C793 C791 1.390 . S
C793 C794 1.387 . S
C793 H796 0.950 . S
C794 C793 1.387 . S
C794 C797 1.387 . S
H795 C791 0.950 . S
H796 C793 0.950 . S
C797 C788 1.390 . S
C797 H790 0.950 . S
C797 C794 1.387 . S
C798 C799 1.387 . S
C798 H802 0.950 . S
C798 C807 1.390 . S
C799 C798 1.387 . S
C799 C801 1.387 . S
H800 C807 0.950 . S
C801 C799 1.387 . S
C801 C803 1.390 . S
C801 H805 0.950 . S
H802 C798 0.950 . S
C803 C801 1.390 . S
C803 C804 1.387 . S
C803 H806 0.950 . S
C804 C803 1.387 . S
C804 C807 1.387 . S
H805 C801 0.950 . S
H806 C803 0.950 . S
C807 C798 1.390 . S
C807 H800 0.950 . S
C807 C804 1.387 . S
C808 C809 1.387 . S
C808 H812 0.950 . S
C808 C817 1.390 . S
C809 C808 1.387 . S
C809 C811 1.387 . S
H810 C817 0.950 . S
C811 C809 1.387 . S
C811 C813 1.390 . S
C811 H815 0.950 . S
H812 C808 0.950 . S
C813 C811 1.390 . S
C813 C814 1.387 . S
C813 H816 0.950 . S
C814 C813 1.387 . S
C814 C817 1.387 . S
H815 C811 0.950 . S
H816 C813 0.950 . S
C817 C808 1.390 . S
C817 H810 0.950 . S
C817 C814 1.387 . S
C818 C819 1.387 . S
C818 H822 0.950 . S
C818 C827 1.390 . S
C819 C818 1.387 . S
C819 C821 1.387 . S
H820 C827 0.950 . S
C821 C819 1.387 . S
C821 C823 1.390 . S
C821 H825 0.950 . S
H822 C818 0.950 . S
C823 C821 1.390 . S
C823 C824 1.387 . S
C823 H826 0.950 . S
C824 C823 1.387 . S
C824 C827 1.387 . S
H825 C821 0.950 . S
H826 C823 0.950 . S
C827 C818 1.390 . S
C827 H820 0.950 . S
C827 C824 1.387 . S
C828 C829 1.387 . S
C828 H832 0.950 . S
C828 C837 1.390 . S
C829 C828 1.387 . S
C829 C831 1.387 . S
H830 C837 0.950 . S
C831 C829 1.387 . S
C831 C833 1.390 . S
C831 H835 0.950 . S
H832 C828 0.950 . S
C833 C831 1.390 . S
C833 C834 1.387 . S
C833 H836 0.950 . S
C834 C833 1.387 . S
C834 C837 1.387 . S
H835 C831 0.950 . S
H836 C833 0.950 . S
C837 C828 1.390 . S
C837 H830 0.950 . S
C837 C834 1.387 . S
C838 C839 1.387 . S
C838 H842 0.950 . S
C838 C847 1.390 . S
C839 C838 1.387 . S
C839 C841 1.387 . S
H840 C847 0.950 . S
C841 C839 1.387 . S
C841 C843 1.390 . S
C841 H845 0.950 . S
H842 C838 0.950 . S
C843 C841 1.390 . S
C843 C844 1.387 . S
C843 H846 0.950 . S
C844 C843 1.387 . S
C844 C847 1.387 . S
H845 C841 0.950 . S
H846 C843 0.950 . S
C847 C838 1.390 . S
C847 H840 0.950 . S
C847 C844 1.387 . S
C848 C849 1.387 . S
C848 H852 0.950 . S
C848 C857 1.390 . S
C849 C848 1.387 . S
C849 C851 1.387 . S
H850 C857 0.950 . S
C851 C849 1.387 . S
C851 C853 1.390 . S
C851 H855 0.950 . S
H852 C848 0.950 . S
C853 C851 1.390 . S
C853 C854 1.387 . S
C853 H856 0.950 . S
C854 C853 1.387 . S
C854 C857 1.387 . S
H855 C851 0.950 . S
H856 C853 0.950 . S
C857 C848 1.390 . S
C857 H850 0.950 . S
C857 C854 1.387 . S
C858 C859 1.387 . S
C858 H862 0.950 . S
C858 C867 1.390 . S
C859 C858 1.387 . S
C859 C861 1.387 . S
H860 C867 0.950 . S
C861 C859 1.387 . S
C861 C863 1.390 . S
C861 H865 0.950 . S
H862 C858 0.950 . S
C863 C861 1.390 . S
C863 C864 1.387 . S
C863 H866 0.950 . S
C864 C863 1.387 . S
C864 C867 1.387 . S
H865 C861 0.950 . S
H866 C863 0.950 . S
C867 C858 1.390 . S
C867 H860 0.950 . S
C867 C864 1.387 . S
C868 C869 1.387 . S
C868 H872 0.950 . S
C868 C877 1.390 . S
C869 C868 1.387 . S
C869 C871 1.387 . S
H870 C877 0.950 . S
C871 C869 1.387 . S
C871 C873 1.390 . S
C871 H875 0.950 . S
H872 C868 0.950 . S
C873 C871 1.390 . S
C873 C874 1.387 . S
C873 H876 0.950 . S
C874 C873 1.387 . S
C874 C877 1.387 . S
H875 C871 0.950 . S
H876 C873 0.950 . S
C877 C868 1.390 . S
C877 H870 0.950 . S
C877 C874 1.387 . S
C878 C879 1.387 . S
C878 H882 0.950 . S
C878 C887 1.390 . S
C879 C878 1.387 . S
C879 C881 1.387 . S
H880 C887 0.950 . S
C881 C879 1.387 . S
C881 C883 1.390 . S
C881 H885 0.950 . S
H882 C878 0.950 . S
C883 C881 1.390 . S
C883 C884 1.387 . S
C883 H886 0.950 . S
C884 C883 1.387 . S
C884 C887 1.387 . S
H885 C881 0.950 . S
H886 C883 0.950 . S
C887 C878 1.390 . S
C887 H880 0.950 . S
C887 C884 1.387 . S
C888 C889 1.387 . S
C888 H892 0.950 . S
C888 C897 1.390 . S
C889 C888 1.387 . S
C889 C891 1.387 . S
H890 C897 0.950 . S
C891 C889 1.387 . S
C891 C893 1.390 . S
C891 H895 0.950 . S
H892 C888 0.950 . S
C893 C891 1.390 . S
C893 C894 1.387 . S
C893 H896 0.950 . S
C894 C893 1.387 . S
C894 C897 1.387 . S
H895 C891 0.950 . S
H896 C893 0.950 . S
C897 C888 1.390 . S
C897 H890 0.950 . S
C897 C894 1.387 . S
C898 C899 1.387 . S
C898 H902 0.950 . S
C898 C907 1.390 . S
C899 C898 1.387 . S
C899 C901 1.387 . S
H900 C907 0.950 . S
C901 C899 1.387 . S
C901 C903 1.390 . S
C901 H905 0.950 . S
H902 C898 0.950 . S
C903 C901 1.390 . S
C903 C904 1.387 . S
C903 H906 0.950 . S
C904 C903 1.387 . S
C904 C907 1.387 . S
H905 C901 0.950 . S
H906 C903 0.950 . S
C907 C898 1.390 . S
C907 H900 0.950 . S
C907 C904 1.387 . S
C908 C909 1.387 . S
C908 H912 0.950 . S
C908 C917 1.390 . S
C909 C908 1.387 . S
C909 C911 1.387 . S
H910 C917 0.950 . S
C911 C909 1.387 . S
C911 C913 1.390 . S
C911 H915 0.950 . S
H912 C908 0.950 . S
C913 C911 1.390 . S
C913 C914 1.387 . S
C913 H916 0.950 . S
C914 C913 1.387 . S
C914 C917 1.387 . S
H915 C911 0.950 . S
H916 C913 0.950 . S
C917 C908 1.390 . S
C917 H910 0.950 . S
C917 C914 1.387 . S
C918 C919 1.387 . S
C918 H922 0.950 . S
C918 C927 1.390 . S
C919 C918 1.387 . S
C919 C921 1.387 . S
H920 C927 0.950 . S
C921 C919 1.387 . S
C921 C923 1.390 . S
C921 H925 0.950 . S
H922 C918 0.950 . S
C923 C921 1.390 . S
C923 C924 1.387 . S
C923 H926 0.950 . S
C924 C923 1.387 . S
C924 C927 1.387 . S
H925 C921 0.950 . S
H926 C923 0.950 . S
C927 C918 1.390 . S
C927 H920 0.950 . S
C927 C924 1.387 . S
C928 C929 1.387 . S
C928 H932 0.950 . S
C928 C937 1.390 . S
C929 C928 1.387 . S
C929 C931 1.387 . S
H930 C937 0.950 . S
C931 C929 1.387 . S
C931 C933 1.390 . S
C931 H935 0.950 . S
H932 C928 0.950 . S
C933 C931 1.390 . S
C933 C934 1.387 . S
C933 H936 0.950 . S
C934 C933 1.387 . S
C934 C937 1.387 . S
H935 C931 0.950 . S
H936 C933 0.950 . S
C937 C928 1.390 . S
C937 H930 0.950 . S
C937 C934 1.387 . S
C938 C939 1.387 . S
C938 H942 0.950 . S
C938 C947 1.390 . S
C939 C938 1.387 . S
C939 C941 1.387 . S
H940 C947 0.950 . S
C941 C939 1.387 . S
C941 C943 1.390 . S
C941 H945 0.950 . S
H942 C938 0.950 . S
C943 C941 1.390 . S
C943 C944 1.387 . S
C943 H946 0.950 . S
C944 C943 1.387 . S
C944 C947 1.387 . S
H945 C941 0.950 . S
H946 C943 0.950 . S
C947 C938 1.390 . S
C947 H940 0.950 . S
C947 C944 1.387 . S
C948 C949 1.387 1_655 S
C948 H952 0.950 . S
C948 C957 1.390 . S
C949 C948 1.387 1_455 S
C949 C951 1.387 . S
H950 C957 0.950 . S
C951 C949 1.387 . S
C951 C953 1.390 . S
C951 H955 0.950 . S
H952 C948 0.950 . S
C953 C951 1.390 . S
C953 C954 1.387 1_455 S
C953 H956 0.950 . S
C954 C953 1.387 1_655 S
C954 C957 1.387 . S
H955 C951 0.950 . S
H956 C953 0.950 . S
C957 C948 1.390 . S
C957 H950 0.950 . S
C957 C954 1.387 . S
C958 C959 1.387 . S
C958 H962 0.950 . S
C958 C967 1.390 . S
C959 C958 1.387 . S
C959 C961 1.387 . S
H960 C967 0.950 . S
C961 C959 1.387 . S
C961 C963 1.390 . S
C961 H965 0.950 . S
H962 C958 0.950 . S
C963 C961 1.390 . S
C963 C964 1.387 . S
C963 H966 0.950 . S
C964 C963 1.387 . S
C964 C967 1.387 . S
H965 C961 0.950 . S
H966 C963 0.950 . S
C967 C958 1.390 . S
C967 H960 0.950 . S
C967 C964 1.387 . S
C968 C969 1.387 . S
C968 H972 0.950 . S
C968 C977 1.390 1_565 S
C969 C968 1.387 . S
C969 C971 1.387 . S
H970 C977 0.950 . S
C971 C969 1.387 . S
C971 C973 1.390 1_565 S
C971 H975 0.950 . S
H972 C968 0.950 . S
C973 C971 1.390 1_545 S
C973 C974 1.387 . S
C973 H976 0.950 . S
C974 C973 1.387 . S
C974 C977 1.387 . S
H975 C971 0.950 . S
H976 C973 0.950 . S
C977 C968 1.390 1_545 S
C977 H970 0.950 . S
C977 C974 1.387 . S
C978 C979 1.387 . S
C978 H982 0.950 . S
C978 C987 1.390 1_565 S
C979 C978 1.387 . S
C979 C981 1.387 . S
H980 C987 0.950 . S
C981 C979 1.387 . S
C981 C983 1.390 1_565 S
C981 H985 0.950 . S
H982 C978 0.950 . S
C983 C981 1.390 1_545 S
C983 C984 1.387 . S
C983 H986 0.950 . S
C984 C983 1.387 . S
C984 C987 1.387 . S
H985 C981 0.950 . S
H986 C983 0.950 . S
C987 C978 1.390 1_545 S
C987 H980 0.950 . S
C987 C984 1.387 . S
C988 C989 1.387 . S
C988 H992 0.950 . S
C988 C997 1.390 . S
C989 C988 1.387 . S
C989 C991 1.387 1_655 S
H990 C997 0.950 . S
C991 C989 1.387 1_455 S
C991 C993 1.390 . S
C991 H995 0.950 . S
H992 C988 0.950 . S
C993 C991 1.390 . S
C993 C994 1.387 . S
C993 H996 0.950 . S
C994 C993 1.387 . S
C994 C997 1.387 1_455 S
H995 C991 0.950 . S
H996 C993 0.950 . S
C997 C988 1.390 . S
C997 H990 0.950 . S
C997 C994 1.387 1_655 S
C998 C999 1.387 . S
C998 H1002 0.950 . S
C998 C1007 1.390 . S
C999 C998 1.387 . S
C999 C1001 1.387 . S
H1000 C1007 0.950 . S
C1001 C999 1.387 . S
C1001 C1003 1.390 . S
C1001 H1005 0.950 . S
H1002 C998 0.950 . S
C1003 C1001 1.390 . S
C1003 C1004 1.387 . S
C1003 H1006 0.950 . S
C1004 C1003 1.387 . S
C1004 C1007 1.387 . S
H1005 C1001 0.950 . S
H1006 C1003 0.950 . S
C1007 C998 1.390 . S
C1007 H1000 0.950 . S
C1007 C1004 1.387 . S
C1008 C1009 1.387 . S
C1008 H1012 0.950 . S
C1008 C1017 1.390 . S
C1009 C1008 1.387 . S
C1009 C1011 1.387 . S
H1010 C1017 0.950 . S
C1011 C1009 1.387 . S
C1011 C1013 1.390 . S
C1011 H1015 0.950 . S
H1012 C1008 0.950 . S
C1013 C1011 1.390 . S
C1013 C1014 1.387 . S
C1013 H1016 0.950 . S
C1014 C1013 1.387 . S
C1014 C1017 1.387 . S
H1015 C1011 0.950 . S
H1016 C1013 0.950 . S
C1017 C1008 1.390 . S
C1017 H1010 0.950 . S
C1017 C1014 1.387 . S
C1018 C1019 1.387 . S
C1018 H1022 0.950 . S
C1018 C1027 1.390 . S
C1019 C1018 1.387 . S
C1019 C1021 1.387 . S
H1020 C1027 0.950 . S
C1021 C1019 1.387 . S
C1021 C1023 1.390 . S
C1021 H1025 0.950 . S
H1022 C1018 0.950 . S
C1023 C1021 1.390 . S
C1023 C1024 1.387 . S
C1023 H1026 0.950 . S
C1024 C1023 1.387 . S
C1024 C1027 1.387 . S
H1025 C1021 0.950 . S
H1026 C1023 0.950 . S
C1027 C1018 1.390 . S
C1027 H1020 0.950 . S
C1027 C1024 1.387 . S
C1028 C1029 1.387 . S
C1028 H1032 0.950 . S
C1028 C1037 1.390 . S
C1029 C1028 1.387 . S
C1029 C1031 1.387 . S
H1030 C1037 0.950 . S
C1031 C1029 1.387 . S
C1031 C1033 1.390 . S
C1031 H1035 0.950 . S
H1032 C1028 0.950 . S
C1033 C1031 1.390 . S
C1033 C1034 1.387 . S
C1033 H1036 0.950 . S
C1034 C1033 1.387 . S
C1034 C1037 1.387 . S
H1035 C1031 0.950 . S
H1036 C1033 0.950 . S
C1037 C1028 1.390 . S
C1037 H1030 0.950 . S
C1037 C1034 1.387 . S
C1038 C1039 1.387 . S
C1038 H1042 0.950 . S
C1038 C1047 1.390 . S
C1039 C1038 1.387 . S
C1039 C1041 1.387 . S
H1040 C1047 0.950 . S
C1041 C1039 1.387 . S
C1041 C1043 1.390 . S
C1041 H1045 0.950 . S
H1042 C1038 0.950 . S
C1043 C1041 1.390 . S
C1043 C1044 1.387 . S
C1043 H1046 0.950 . S
C1044 C1043 1.387 . S
C1044 C1047 1.387 . S
H1045 C1041 0.950 . S
H1046 C1043 0.950 . S
C1047 C1038 1.390 . S
C1047 H1040 0.950 . S
C1047 C1044 1.387 . S
C1048 C1049 1.387 . S
C1048 H1052 0.950 . S
C1048 C1057 1.390 . S
C1049 C1048 1.387 . S
C1049 C1051 1.387 . S
H1050 C1057 0.950 . S
C1051 C1049 1.387 . S
C1051 C1053 1.390 . S
C1051 H1055 0.950 . S
H1052 C1048 0.950 . S
C1053 C1051 1.390 . S
C1053 C1054 1.387 . S
C1053 H1056 0.950 . S
C1054 C1053 1.387 . S
C1054 C1057 1.387 . S
H1055 C1051 0.950 . S
H1056 C1053 0.950 . S
C1057 C1048 1.390 . S
C1057 H1050 0.950 . S
C1057 C1054 1.387 . S
C1058 C1059 1.387 . S
C1058 H1062 0.950 . S
C1058 C1067 1.390 . S
C1059 C1058 1.387 . S
C1059 C1061 1.387 . S
H1060 C1067 0.950 . S
C1061 C1059 1.387 . S
C1061 C1063 1.390 . S
C1061 H1065 0.950 . S
H1062 C1058 0.950 . S
C1063 C1061 1.390 . S
C1063 C1064 1.387 . S
C1063 H1066 0.950 . S
C1064 C1063 1.387 . S
C1064 C1067 1.387 . S
H1065 C1061 0.950 . S
H1066 C1063 0.950 . S
C1067 C1058 1.390 . S
C1067 H1060 0.950 . S
C1067 C1064 1.387 . S
C1068 C1069 1.387 . S
C1068 H1072 0.950 . S
C1068 C1077 1.390 . S
C1069 C1068 1.387 . S
C1069 C1071 1.387 . S
H1070 C1077 0.950 . S
C1071 C1069 1.387 . S
C1071 C1073 1.390 . S
C1071 H1075 0.950 . S
H1072 C1068 0.950 . S
C1073 C1071 1.390 . S
C1073 C1074 1.387 . S
C1073 H1076 0.950 . S
C1074 C1073 1.387 . S
C1074 C1077 1.387 . S
H1075 C1071 0.950 . S
H1076 C1073 0.950 . S
C1077 C1068 1.390 . S
C1077 H1070 0.950 . S
C1077 C1074 1.387 . S
C1078 C1079 1.387 . S
C1078 H1082 0.950 . S
C1078 C1087 1.390 . S
C1079 C1078 1.387 . S
C1079 C1081 1.387 . S
H1080 C1087 0.950 . S
C1081 C1079 1.387 . S
C1081 C1083 1.390 . S
C1081 H1085 0.950 . S
H1082 C1078 0.950 . S
C1083 C1081 1.390 . S
C1083 C1084 1.387 . S
C1083 H1086 0.950 . S
C1084 C1083 1.387 . S
C1084 C1087 1.387 . S
H1085 C1081 0.950 . S
H1086 C1083 0.950 . S
C1087 C1078 1.390 . S
C1087 H1080 0.950 . S
C1087 C1084 1.387 . S
C1088 C1089 1.387 . S
C1088 H1092 0.950 . S
C1088 C1097 1.390 . S
C1089 C1088 1.387 . S
C1089 C1091 1.387 . S
H1090 C1097 0.950 . S
C1091 C1089 1.387 . S
C1091 C1093 1.390 . S
C1091 H1095 0.950 . S
H1092 C1088 0.950 . S
C1093 C1091 1.390 . S
C1093 C1094 1.387 . S
C1093 H1096 0.950 . S
C1094 C1093 1.387 . S
C1094 C1097 1.387 . S
H1095 C1091 0.950 . S
H1096 C1093 0.950 . S
C1097 C1088 1.390 . S
C1097 H1090 0.950 . S
C1097 C1094 1.387 . S
C1098 C1099 1.387 . S
C1098 H1102 0.950 . S
C1098 C1107 1.390 . S
C1099 C1098 1.387 . S
C1099 C1101 1.387 . S
H1100 C1107 0.950 . S
C1101 C1099 1.387 . S
C1101 C1103 1.390 . S
C1101 H1105 0.950 . S
H1102 C1098 0.950 . S
C1103 C1101 1.390 . S
C1103 C1104 1.387 . S
C1103 H1106 0.950 . S
C1104 C1103 1.387 . S
C1104 C1107 1.387 . S
H1105 C1101 0.950 . S
H1106 C1103 0.950 . S
C1107 C1098 1.390 . S
C1107 H1100 0.950 . S
C1107 C1104 1.387 . S
C1108 C1109 1.387 . S
C1108 H1112 0.950 . S
C1108 C1117 1.390 . S
C1109 C1108 1.387 . S
C1109 C1111 1.387 . S
H1110 C1117 0.950 . S
C1111 C1109 1.387 . S
C1111 C1113 1.390 . S
C1111 H1115 0.950 . S
H1112 C1108 0.950 . S
C1113 C1111 1.390 . S
C1113 C1114 1.387 . S
C1113 H1116 0.950 . S
C1114 C1113 1.387 . S
C1114 C1117 1.387 . S
H1115 C1111 0.950 . S
H1116 C1113 0.950 . S
C1117 C1108 1.390 . S
C1117 H1110 0.950 . S
C1117 C1114 1.387 . S
C1118 C1119 1.387 . S
C1118 H1122 0.950 . S
C1118 C1127 1.390 . S
C1119 C1118 1.387 . S
C1119 C1121 1.387 . S
H1120 C1127 0.950 . S
C1121 C1119 1.387 . S
C1121 C1123 1.390 . S
C1121 H1125 0.950 . S
H1122 C1118 0.950 . S
C1123 C1121 1.390 . S
C1123 C1124 1.387 . S
C1123 H1126 0.950 . S
C1124 C1123 1.387 . S
C1124 C1127 1.387 . S
H1125 C1121 0.950 . S
H1126 C1123 0.950 . S
C1127 C1118 1.390 . S
C1127 H1120 0.950 . S
C1127 C1124 1.387 . S
C1128 C1129 1.387 . S
C1128 H1132 0.950 . S
C1128 C1137 1.390 1_556 S
C1129 C1128 1.387 . S
C1129 C1131 1.387 1_455 S
H1130 C1137 0.950 . S
C1131 C1129 1.387 1_655 S
C1131 C1133 1.390 1_556 S
C1131 H1135 0.950 . S
H1132 C1128 0.950 . S
C1133 C1131 1.390 1_554 S
C1133 C1134 1.387 . S
C1133 H1136 0.950 . S
C1134 C1133 1.387 . S
C1134 C1137 1.387 1_655 S
H1135 C1131 0.950 . S
H1136 C1133 0.950 . S
C1137 C1128 1.390 1_554 S
C1137 H1130 0.950 . S
C1137 C1134 1.387 1_455 S
C1138 C1139 1.387 . S
C1138 H1142 0.950 . S
C1138 C1147 1.390 1_554 S
C1139 C1138 1.387 . S
C1139 C1141 1.387 . S
H1140 C1147 0.950 . S
C1141 C1139 1.387 . S
C1141 C1143 1.390 1_554 S
C1141 H1145 0.950 . S
H1142 C1138 0.950 . S
C1143 C1141 1.390 1_556 S
C1143 C1144 1.387 . S
C1143 H1146 0.950 . S
C1144 C1143 1.387 . S
C1144 C1147 1.387 . S
H1145 C1141 0.950 . S
H1146 C1143 0.950 . S
C1147 C1138 1.390 1_556 S
C1147 H1140 0.950 . S
C1147 C1144 1.387 . S
C1148 C1149 1.387 . S
C1148 H1152 0.950 . S
C1148 C1157 1.390 1_544 S
C1149 C1148 1.387 . S
C1149 C1151 1.387 . S
H1150 C1157 0.950 . S
C1151 C1149 1.387 . S
C1151 C1153 1.390 1_544 S
C1151 H1155 0.950 . S
H1152 C1148 0.950 . S
C1153 C1151 1.390 1_566 S
C1153 C1154 1.387 . S
C1153 H1156 0.950 . S
C1154 C1153 1.387 . S
C1154 C1157 1.387 . S
H1155 C1151 0.950 . S
H1156 C1153 0.950 . S
C1157 C1148 1.390 1_566 S
C1157 H1150 0.950 . S
C1157 C1154 1.387 . S
C1158 C1159 1.387 . S
C1158 H1162 0.950 . S
C1158 C1167 1.390 1_566 S
C1159 C1158 1.387 . S
C1159 C1161 1.387 . S
H1160 C1167 0.950 . S
C1161 C1159 1.387 . S
C1161 C1163 1.390 1_566 S
C1161 H1165 0.950 . S
H1162 C1158 0.950 . S
C1163 C1161 1.390 1_544 S
C1163 C1164 1.387 . S
C1163 H1166 0.950 . S
C1164 C1163 1.387 . S
C1164 C1167 1.387 . S
H1165 C1161 0.950 . S
H1166 C1163 0.950 . S
C1167 C1158 1.390 1_544 S
C1167 H1160 0.950 . S
C1167 C1164 1.387 . S
C1168 C1169 1.387 . S
C1168 H1172 0.950 . S
C1168 C1177 1.390 1_556 S
C1169 C1168 1.387 . S
C1169 C1171 1.387 1_455 S
H1170 C1177 0.950 . S
C1171 C1169 1.387 1_655 S
C1171 C1173 1.390 1_556 S
C1171 H1175 0.950 . S
H1172 C1168 0.950 . S
C1173 C1171 1.390 1_554 S
C1173 C1174 1.387 . S
C1173 H1176 0.950 . S
C1174 C1173 1.387 . S
C1174 C1177 1.387 1_655 S
H1175 C1171 0.950 . S
H1176 C1173 0.950 . S
C1177 C1168 1.390 1_554 S
C1177 H1170 0.950 . S
C1177 C1174 1.387 1_455 S
C1178 C1179 1.387 . S
C1178 H1182 0.950 . S
C1178 C1187 1.390 1_554 S
C1179 C1178 1.387 . S
C1179 C1181 1.387 . S
H1180 C1187 0.950 . S
C1181 C1179 1.387 . S
C1181 C1183 1.390 1_554 S
C1181 H1185 0.950 . S
H1182 C1178 0.950 . S
C1183 C1181 1.390 1_556 S
C1183 C1184 1.387 . S
C1183 H1186 0.950 . S
C1184 C1183 1.387 . S
C1184 C1187 1.387 . S
H1185 C1181 0.950 . S
H1186 C1183 0.950 . S
C1187 C1178 1.390 1_556 S
C1187 H1180 0.950 . S
C1187 C1184 1.387 . S
C469 C10 1.482 . S
C474 C147 1.483 . S
C479 C23 1.482 . S
C484 C121 1.483 . S
C489 C140 1.483 . S
C494 C30 1.482 . S
C499 C43 1.483 . S
C504 C101 1.482 . S
C509 C108 1.482 . S
C514 C56 1.483 . S
C519 C75 1.482 . S
C524 C82 1.483 . S
C529 C303 1.482 . S
C534 C160 1.482 . S
C539 C179 1.482 . S
C544 C283 1.483 . S
C549 C192 1.482 . S
C554 C296 1.483 . S
C559 C251 1.482 . S
C564 C199 1.483 . S
C569 C218 1.482 . S
C574 C264 1.483 . S
C579 C244 1.482 . S
C584 C231 1.482 . S
C589 C316 1.483 . S
C594 C459 1.482 . S
C599 C439 1.482 . S
C604 C335 1.483 . S
C609 C446 1.482 . S
C614 C342 1.483 . S
C619 C413 1.483 . S
C624 C355 1.482 . S
C629 C426 1.482 . S
C634 C368 1.483 . S
C639 C400 1.482 . S
C644 C381 1.483 . S
C649 C3 1.432 . S
C654 C57 1.431 . S
C659 C68 1.431 . S
C664 C16 1.431 . S
C669 C31 1.433 . S
C674 C44 1.433 . S
C679 C83 1.432 . S
C684 C133 1.433 . S
C689 C94 1.433 . S
C694 C148 1.432 . S
C699 C109 1.433 . S
C704 C122 1.433 . S
C709 C211 1.431 . S
C714 C161 1.432 . S
C719 C224 1.432 . S
C724 C172 1.433 . S
C729 C185 1.433 . S
C734 C200 1.433 . S
C739 C289 1.431 . S
C744 C237 1.431 . S
C749 C304 1.433 . S
C754 C252 1.433 . S
C759 C265 1.433 . S
C764 C276 1.433 . S
C769 C369 1.433 . S
C774 C317 1.432 . S
C779 C328 1.431 . S
C784 C382 1.432 . S
C789 C343 1.431 . S
C794 C356 1.431 . S
C799 C447 1.431 . S
C804 C393 1.432 . S
C809 C406 1.431 . S
C814 C460 1.431 . S
C819 C432 1.431 . S
C824 C419 1.431 . S
C829 C380 1.368 . S
C834 C5 1.368 . S
C839 C18 1.368 . S
C844 C354 1.368 . S
C849 C29 1.369 . S
C854 C367 1.368 . S
C859 C42 1.369 . S
C864 C174 1.368 . S
C869 C187 1.369 . S
C874 C55 1.369 . S
C879 C159 1.369 . S
C884 C70 1.369 . S
C889 C81 1.368 . S
C894 C302 1.368 . S
C899 C96 1.368 . S
C904 C278 1.368 . S
C909 C107 1.369 . S
C914 C291 1.368 . S
C919 C408 1.368 . S
C924 C120 1.368 . S
C929 C421 1.368 . S
C934 C135 1.368 . S
C939 C146 1.369 . S
C944 C395 1.369 . S
C949 C330 1.368 . S
C954 C198 1.368 . S
C959 C213 1.368 . S
C964 C341 1.369 . S
C969 C315 1.369 . S
C974 C226 1.369 . S
C979 C458 1.369 . S
C984 C239 1.369 . S
C989 C250 1.368 . S
C994 C434 1.368 . S
C999 C263 1.368 . S
C1004 C445 1.368 . S
C1009 C4 1.525 . S
C1014 C387 1.525 . S
C1019 C361 1.525 . S
C1024 C17 1.525 . S
C1029 C36 1.525 . S
C1034 C374 1.525 . S
C1039 C173 1.525 . S
C1044 C49 1.525 . S
C1049 C62 1.525 . S
C1054 C186 1.525 . S
C1059 C69 1.525 . S
C1064 C166 1.525 . S
C1069 C309 1.525 . S
C1074 C88 1.525 . S
C1079 C95 1.525 . S
C1084 C277 1.525 . S
C1089 C114 1.525 . S
C1094 C290 1.525 . S
C1099 C127 1.525 . S
C1104 C407 1.525 . S
C1109 C420 1.525 . S
C1114 C134 1.525 . S
C1119 C153 1.525 . S
C1124 C394 1.525 . S
C1129 C329 1.525 . S
C1134 C205 1.525 . S
C1139 C212 1.525 . S
C1144 C348 1.525 . S
C1149 C225 1.525 . S
C1154 C322 1.525 . S
C1159 C465 1.525 . S
C1164 C238 1.525 . S
C1169 C433 1.525 . S
C1174 C257 1.525 . S
C1179 C270 1.525 . S
C1184 C452 1.525 . S
