# Generated by pormake.
# Topology umh, (4)-cn, num edge types: 1
# Building blocks:
#     Node 0, Type 0, BuildingBlock: NAWXER_clean_sbu_0, # of connection points: 4
#     Node 1, Type 0, BuildingBlock: NAWXER_clean_sbu_0, # of connection points: 4
#     Node 2, Type 0, BuildingBlock: NAWXER_clean_sbu_0, # of connection points: 4
#     Node 3, Type 0, BuildingBlock: NAWXER_clean_sbu_0, # of connection points: 4
#     Node 4, Type 0, BuildingBlock: NAWXER_clean_sbu_0, # of connection points: 4
#     Node 5, Type 0, BuildingBlock: NAWXER_clean_sbu_0, # of connection points: 4
#     Node 6, Type 0, BuildingBlock: NAWXER_clean_sbu_0, # of connection points: 4
#     Node 7, Type 0, BuildingBlock: NAWXER_clean_sbu_0, # of connection points: 4
#     Node 8, Type 0, BuildingBlock: NAWXER_clean_sbu_0, # of connection points: 4
#     Node 9, Type 0, BuildingBlock: NAWXER_clean_sbu_0, # of connection points: 4
#     Node 10, Type 0, BuildingBlock: NAWXER_clean_sbu_0, # of connection points: 4
#     Node 11, Type 0, BuildingBlock: NAWXER_clean_sbu_0, # of connection points: 4
#     Node 12, Type 0, BuildingBlock: NAWXER_clean_sbu_0, # of connection points: 4
#     Node 13, Type 0, BuildingBlock: NAWXER_clean_sbu_0, # of connection points: 4
#     Node 14, Type 0, BuildingBlock: NAWXER_clean_sbu_0, # of connection points: 4
#     Node 15, Type 0, BuildingBlock: NAWXER_clean_sbu_0, # of connection points: 4
#     Edge 16, Type (0, 0), BuildingBlock: CIFDUS_clean_linker_0, # of connection points: 2
#     Edge 17, Type (0, 0), BuildingBlock: CIFDUS_clean_linker_0, # of connection points: 2
#     Edge 18, Type (0, 0), BuildingBlock: CIFDUS_clean_linker_0, # of connection points: 2
#     Edge 19, Type (0, 0), BuildingBlock: CIFDUS_clean_linker_0, # of connection points: 2
#     Edge 20, Type (0, 0), BuildingBlock: CIFDUS_clean_linker_0, # of connection points: 2
#     Edge 21, Type (0, 0), BuildingBlock: CIFDUS_clean_linker_0, # of connection points: 2
#     Edge 22, Type (0, 0), BuildingBlock: CIFDUS_clean_linker_0, # of connection points: 2
#     Edge 23, Type (0, 0), BuildingBlock: CIFDUS_clean_linker_0, # of connection points: 2
#     Edge 24, Type (0, 0), BuildingBlock: CIFDUS_clean_linker_0, # of connection points: 2
#     Edge 25, Type (0, 0), BuildingBlock: CIFDUS_clean_linker_0, # of connection points: 2
#     Edge 26, Type (0, 0), BuildingBlock: CIFDUS_clean_linker_0, # of connection points: 2
#     Edge 27, Type (0, 0), BuildingBlock: CIFDUS_clean_linker_0, # of connection points: 2
#     Edge 28, Type (0, 0), BuildingBlock: CIFDUS_clean_linker_0, # of connection points: 2
#     Edge 29, Type (0, 0), BuildingBlock: CIFDUS_clean_linker_0, # of connection points: 2
#     Edge 30, Type (0, 0), BuildingBlock: CIFDUS_clean_linker_0, # of connection points: 2
#     Edge 31, Type (0, 0), BuildingBlock: CIFDUS_clean_linker_0, # of connection points: 2
#     Edge 32, Type (0, 0), BuildingBlock: CIFDUS_clean_linker_0, # of connection points: 2
#     Edge 33, Type (0, 0), BuildingBlock: CIFDUS_clean_linker_0, # of connection points: 2
#     Edge 34, Type (0, 0), BuildingBlock: CIFDUS_clean_linker_0, # of connection points: 2
#     Edge 35, Type (0, 0), BuildingBlock: CIFDUS_clean_linker_0, # of connection points: 2
#     Edge 36, Type (0, 0), BuildingBlock: CIFDUS_clean_linker_0, # of connection points: 2
#     Edge 37, Type (0, 0), BuildingBlock: CIFDUS_clean_linker_0, # of connection points: 2
#     Edge 38, Type (0, 0), BuildingBlock: CIFDUS_clean_linker_0, # of connection points: 2
#     Edge 39, Type (0, 0), BuildingBlock: CIFDUS_clean_linker_0, # of connection points: 2
#     Edge 40, Type (0, 0), BuildingBlock: CIFDUS_clean_linker_0, # of connection points: 2
#     Edge 41, Type (0, 0), BuildingBlock: CIFDUS_clean_linker_0, # of connection points: 2
#     Edge 42, Type (0, 0), BuildingBlock: CIFDUS_clean_linker_0, # of connection points: 2
#     Edge 43, Type (0, 0), BuildingBlock: CIFDUS_clean_linker_0, # of connection points: 2
#     Edge 44, Type (0, 0), BuildingBlock: CIFDUS_clean_linker_0, # of connection points: 2
#     Edge 45, Type (0, 0), BuildingBlock: CIFDUS_clean_linker_0, # of connection points: 2
#     Edge 46, Type (0, 0), BuildingBlock: CIFDUS_clean_linker_0, # of connection points: 2
#     Edge 47, Type (0, 0), BuildingBlock: CIFDUS_clean_linker_0, # of connection points: 2
# Relax obj value: 0.044
# Max RMSD: 0.109
# Mean RMSD: 0.109
data_MOF--net-umh--node1-NAWXER_clean_sbu_0--edge1-CIFDUS_clean_linker_0
_symmetry_space_group_name_H-M    P1
_symmetry_Int_Tables_number       1
_symmetry_cell_setting            triclinic
loop_
_symmetry_equiv_pos_as_xyz
'x, y, z'
_cell_length_a     35.870674
_cell_length_b     35.36972
_cell_length_c     46.822849
_cell_angle_alpha  90.00649
_cell_angle_beta   90.071801
_cell_angle_gamma 90.622318
loop_
_atom_site_label
_atom_site_type_symbol
_atom_site_fract_x
_atom_site_fract_y
_atom_site_fract_z
_atom_type_partial_charge
C0 C 0.31185 0.09109 0.09725 0.0
C1 C 0.29089 0.0704 0.19908 0.0
O2 O 0.33598 0.10766 0.11329 0.0
Zn3 Zn 0.34689 0.11577 0.15775 0.0
O4 O 0.28469 0.07323 0.10855 0.0
Zn5 Zn 0.29917 0.08221 0.1481 0.0
O6 O 0.2884 0.14144 0.15382 0.0
O7 O 0.34241 0.16927 0.16295 0.0
O8 O 0.27044 0.05905 0.17853 0.0
O9 O 0.31929 0.0916 0.19398 0.0
O10 O 0.39539 0.09475 0.16168 0.0
O11 O 0.35148 0.05248 0.15151 0.0
C12 C 0.30745 0.17149 0.15929 0.0
C13 C 0.38574 0.06064 0.15693 0.0
C14 C 0.37547 0.32504 0.70833 0.0
C15 C 0.36561 0.38213 0.61381 0.0
O16 O 0.35554 0.35326 0.70175 0.0
Zn17 Zn 0.37243 0.3581 0.66239 0.0
O18 O 0.39923 0.31235 0.69048 0.0
Zn19 Zn 0.41683 0.32271 0.6478 0.0
O20 O 0.46744 0.34232 0.65066 0.0
O21 O 0.42625 0.38365 0.66544 0.0
O22 O 0.39169 0.35776 0.61602 0.0
O23 O 0.34693 0.39118 0.63583 0.0
O24 O 0.35669 0.30381 0.6456 0.0
O25 O 0.40708 0.27254 0.63229 0.0
C26 C 0.46016 0.37502 0.66026 0.0
C27 C 0.37184 0.27423 0.63519 0.0
C28 C 0.20926 0.45431 0.19647 0.0
C29 C 0.16189 0.42983 0.10104 0.0
O30 O 0.17918 0.43433 0.19699 0.0
Zn31 Zn 0.14077 0.4104 0.16617 0.0
O32 O 0.22289 0.46489 0.17273 0.0
Zn33 Zn 0.18547 0.44202 0.14895 0.0
O34 O 0.13618 0.47379 0.15857 0.0
O35 O 0.09459 0.43368 0.1761 0.0
O36 O 0.19056 0.44874 0.10852 0.0
O37 O 0.14133 0.41427 0.12022 0.0
O38 O 0.1448 0.35687 0.17255 0.0
O39 O 0.19602 0.38272 0.15483 0.0
C40 C 0.10359 0.46712 0.16879 0.0
C41 C 0.17817 0.35353 0.16399 0.0
C42 C 0.08125 0.08369 0.68199 0.0
C43 C 0.2004 0.14803 0.669 0.0
O44 O 0.07724 0.11582 0.66972 0.0
Zn45 Zn 0.11293 0.16258 0.65797 0.0
O46 O 0.11322 0.07442 0.69105 0.0
Zn47 Zn 0.14056 0.11835 0.67828 0.0
O48 O 0.12383 0.1635 0.70674 0.0
O49 O 0.09661 0.20557 0.6793 0.0
O50 O 0.19407 0.11798 0.68312 0.0
O51 O 0.17305 0.16709 0.65905 0.0
O52 O 0.10457 0.16464 0.61794 0.0
O53 O 0.13621 0.11451 0.63164 0.0
C54 C 0.10761 0.19546 0.70382 0.0
C55 C 0.12178 0.13456 0.61166 0.0
C56 C 0.28665 0.45275 0.35391 0.0
C57 C 0.33527 0.42131 0.44789 0.0
O58 O 0.31203 0.42755 0.35289 0.0
Zn59 Zn 0.34639 0.39726 0.3823 0.0
O60 O 0.27669 0.46626 0.37782 0.0
Zn61 Zn 0.31051 0.43711 0.40091 0.0
O62 O 0.36538 0.45853 0.38842 0.0
O63 O 0.39556 0.41035 0.36988 0.0
O64 O 0.30994 0.44483 0.44186 0.0
O65 O 0.35055 0.40236 0.42779 0.0
O66 O 0.33049 0.3458 0.37691 0.0
O67 O 0.28692 0.38081 0.39639 0.0
C68 C 0.3949 0.44503 0.37685 0.0
C69 C 0.29771 0.34875 0.38679 0.0
C70 C 0.07232 0.42208 0.87037 0.0
C71 C 0.18391 0.34971 0.89461 0.0
O72 O 0.06478 0.38993 0.88175 0.0
Zn73 Zn 0.0942 0.34181 0.8971 0.0
O74 O 0.10605 0.43067 0.86489 0.0
Zn75 Zn 0.12891 0.38483 0.87969 0.0
O76 O 0.11356 0.34029 0.84994 0.0
O77 O 0.07831 0.29992 0.87393 0.0
O78 O 0.18334 0.3808 0.88091 0.0
O79 O 0.15309 0.33313 0.90103 0.0
O80 O 0.08014 0.34105 0.93665 0.0
O81 O 0.11751 0.38868 0.92511 0.0
C82 C 0.09454 0.30932 0.85091 0.0
C83 C 0.09897 0.37012 0.94402 0.0
C84 C 0.11099 0.03658 0.39452 0.0
C85 C 0.19257 0.14847 0.38899 0.0
O86 O 0.14515 0.03014 0.40071 0.0
Zn87 Zn 0.19693 0.0601 0.40432 0.0
O88 O 0.1011 0.07 0.38811 0.0
Zn89 Zn 0.14977 0.09387 0.392 0.0
O90 O 0.17932 0.0683 0.35775 0.0
O91 O 0.22694 0.03625 0.37506 0.0
O92 O 0.15747 0.1479 0.38497 0.0
O93 O 0.20922 0.11805 0.39613 0.0
O94 O 0.20855 0.0547 0.44484 0.0
O95 O 0.1592 0.08971 0.43656 0.0
C96 C 0.20776 0.04736 0.35382 0.0
C97 C 0.18175 0.07443 0.45423 0.0
C98 C 0.37316 0.24314 0.90714 0.0
C99 C 0.46149 0.1411 0.88757 0.0
O100 O 0.40851 0.24649 0.90891 0.0
Zn101 Zn 0.41886 0.1943 0.89752 0.0
O102 O 0.35828 0.21153 0.8998 0.0
Zn103 Zn 0.37345 0.15592 0.8868 0.0
O104 O 0.34967 0.12608 0.91689 0.0
O105 O 0.3962 0.16236 0.93212 0.0
O106 O 0.42729 0.13131 0.88408 0.0
O107 O 0.46935 0.17507 0.89446 0.0
O108 O 0.39962 0.19806 0.85505 0.0
O109 O 0.35485 0.15584 0.84741 0.0
C110 C 0.37047 0.13782 0.93717 0.0
C111 C 0.37519 0.18312 0.83857 0.0
C112 C 0.65813 0.9224 0.94554 0.0
C113 C 0.69285 0.95486 0.84673 0.0
O114 O 0.68449 0.94438 0.93765 0.0
Zn115 Zn 0.67717 0.93989 0.89637 0.0
O116 O 0.6378 0.90621 0.92655 0.0
Zn117 Zn 0.63308 0.90379 0.88119 0.0
O118 O 0.64369 0.85074 0.87324 0.0
O119 O 0.69316 0.88296 0.88774 0.0
O120 O 0.66487 0.93218 0.84878 0.0
O121 O 0.70926 0.96656 0.86926 0.0
O122 O 0.62471 0.96729 0.88983 0.0
O123 O 0.58387 0.92463 0.8748 0.0
C124 C 0.67838 0.85192 0.879 0.0
C125 C 0.59156 0.95869 0.88162 0.0
C126 C 0.61673 0.64209 0.43891 0.0
C127 C 0.59091 0.70517 0.34807 0.0
O128 O 0.60149 0.67394 0.4348 0.0
Zn129 Zn 0.60291 0.67292 0.39379 0.0
O130 O 0.62591 0.62179 0.41732 0.0
Zn131 Zn 0.62327 0.6262 0.37088 0.0
O132 O 0.67562 0.62295 0.36063 0.0
O133 O 0.66211 0.67288 0.38687 0.0
O134 O 0.60393 0.67191 0.3442 0.0
O135 O 0.58637 0.71719 0.37335 0.0
O136 O 0.56195 0.62982 0.38453 0.0
O137 O 0.59046 0.58459 0.36098 0.0
C138 C 0.68616 0.65234 0.37413 0.0
C139 C 0.56093 0.59747 0.37214 0.0
C140 C 0.83688 0.69509 0.86776 0.0
C141 C 0.9305 0.59476 0.86399 0.0
O142 O 0.87027 0.69767 0.85875 0.0
Zn143 Zn 0.88483 0.64579 0.86602 0.0
O144 O 0.82492 0.66347 0.87773 0.0
Zn145 Zn 0.84569 0.60746 0.88471 0.0
O146 O 0.84368 0.60263 0.92614 0.0
O147 O 0.88575 0.64421 0.91168 0.0
O148 O 0.89918 0.58384 0.87456 0.0
O149 O 0.9347 0.62905 0.85635 0.0
O150 O 0.85074 0.6145 0.83631 0.0
O151 O 0.81206 0.57791 0.86082 0.0
C152 C 0.86899 0.62685 0.93207 0.0
C153 C 0.82423 0.58988 0.83692 0.0
C154 C 0.86308 0.77404 0.39954 0.0
C155 C 0.94404 0.88516 0.38901 0.0
O156 O 0.84644 0.80367 0.39082 0.0
Zn157 Zn 0.8581 0.86107 0.38078 0.0
O158 O 0.89775 0.77514 0.4053 0.0
Zn159 Zn 0.90517 0.82829 0.39505 0.0
O160 O 0.87549 0.85664 0.42791 0.0
O161 O 0.82831 0.88787 0.4096 0.0
O162 O 0.95369 0.85246 0.39743 0.0
O163 O 0.90995 0.89111 0.3823 0.0
O164 O 0.84591 0.86074 0.34001 0.0
O165 O 0.89544 0.82674 0.35021 0.0
C166 C 0.84734 0.87814 0.43134 0.0
C167 C 0.87232 0.8395 0.33183 0.0
C168 C 0.6955 0.57109 0.70086 0.0
C169 C 0.64827 0.60387 0.60575 0.0
O170 O 0.70907 0.561 0.67698 0.0
Zn171 Zn 0.6721 0.58517 0.65292 0.0
O172 O 0.66602 0.59123 0.70146 0.0
Zn173 Zn 0.62845 0.61708 0.6719 0.0
O174 O 0.58144 0.59272 0.68055 0.0
O175 O 0.62197 0.55351 0.6617 0.0
O176 O 0.62922 0.61766 0.62631 0.0
O177 O 0.67569 0.58258 0.61135 0.0
O178 O 0.68497 0.6436 0.66116 0.0
O179 O 0.63559 0.67042 0.68024 0.0
C180 C 0.58954 0.55964 0.67214 0.0
C181 C 0.6691 0.67288 0.67149 0.0
C182 C 0.91534 0.71999 0.19283 0.0
C183 C 0.8979 0.65788 0.10024 0.0
O184 O 0.93293 0.72749 0.16992 0.0
Zn185 Zn 0.91139 0.68679 0.147 0.0
O186 O 0.89433 0.69051 0.19421 0.0
Zn187 Zn 0.87611 0.64552 0.16622 0.0
O188 O 0.89747 0.60002 0.18119 0.0
O189 O 0.93949 0.63742 0.16128 0.0
O190 O 0.88122 0.64057 0.12069 0.0
O191 O 0.91881 0.68618 0.10591 0.0
O192 O 0.85314 0.70018 0.14997 0.0
O193 O 0.82334 0.65147 0.16958 0.0
C194 C 0.93101 0.60639 0.17396 0.0
C195 C 0.82298 0.68471 0.1592 0.0
C196 C 0.83072 0.91883 0.59939 0.0
C197 C 0.7972 0.95002 0.69848 0.0
O198 O 0.80415 0.93989 0.60734 0.0
Zn199 Zn 0.8126 0.93504 0.64871 0.0
O200 O 0.85129 0.90328 0.61836 0.0
Zn201 Zn 0.85626 0.90018 0.66376 0.0
O202 O 0.84728 0.84748 0.67138 0.0
O203 O 0.79682 0.87696 0.65684 0.0
O204 O 0.825 0.92777 0.69642 0.0
O205 O 0.78078 0.96122 0.67595 0.0
O206 O 0.86624 0.96309 0.65514 0.0
O207 O 0.90536 0.91985 0.67061 0.0
C208 C 0.81274 0.84667 0.66538 0.0
C209 C 0.899 0.95391 0.66372 0.0
C210 C 0.55656 0.91969 0.17027 0.0
C211 C 0.66228 0.83646 0.16401 0.0
O212 O 0.58994 0.92607 0.17805 0.0
Zn213 Zn 0.61001 0.87801 0.16748 0.0
O214 O 0.54761 0.88734 0.15981 0.0
Zn215 Zn 0.5747 0.83558 0.14983 0.0
O216 O 0.55159 0.79797 0.17442 0.0
O217 O 0.5872 0.83835 0.19817 0.0
O218 O 0.63198 0.82116 0.15493 0.0
O219 O 0.66244 0.87038 0.17302 0.0
O220 O 0.60711 0.87795 0.1214 0.0
O221 O 0.56872 0.83183 0.10877 0.0
C222 C 0.56602 0.80886 0.19789 0.0
C223 C 0.59062 0.85878 0.10175 0.0
H224 H 0.30789 0.10705 0.96247 0.0
H225 H 0.42238 0.13949 0.97884 0.0
H226 H 0.41449 0.12588 0.02927 0.0
H227 H 0.37473 0.10933 0.06915 0.0
H228 H 0.25989 0.07714 0.05494 0.0
H229 H 0.26832 0.08575 1.00327 0.0
C230 C 0.33115 0.11056 0.97707 0.0
C231 C 0.36555 0.12466 0.96692 0.0
C232 C 0.32633 0.10309 1.00644 0.0
C233 C 0.39547 0.12916 0.9861 0.0
C234 C 0.39104 0.12138 1.01499 0.0
C235 C 0.35144 0.10408 0.05482 0.0
C236 C 0.31661 0.09314 0.06589 0.0
C237 C 0.35646 0.10918 0.02546 0.0
C238 C 0.28699 0.08577 0.04693 0.0
C239 C 0.29179 0.09078 1.01741 0.0
H240 H 0.3009 0.44396 0.49722 0.0
H241 H 0.39677 0.38411 0.46559 0.0
H242 H 0.41561 0.3694 0.51414 0.0
H243 H 0.40354 0.37025 0.56502 0.0
H244 H 0.30724 0.42774 0.59807 0.0
H245 H 0.29019 0.44706 0.54951 0.0
C246 C 0.32605 0.42797 0.50102 0.0
C247 C 0.3472 0.41492 0.47774 0.0
C248 C 0.33665 0.41912 0.52919 0.0
C249 C 0.37973 0.39422 0.48302 0.0
C250 C 0.39062 0.3858 0.51081 0.0
C251 C 0.37888 0.38721 0.56177 0.0
C252 C 0.35656 0.39729 0.58517 0.0
C253 C 0.36903 0.3976 0.53397 0.0
C254 C 0.3249 0.41954 0.58043 0.0
C255 C 0.31508 0.43047 0.55266 0.0
H256 H 0.14721 0.42111 0.9671 0.0
H257 H 0.0596 0.3419 0.98949 0.0
H258 H 0.07033 0.35477 0.04015 0.0
H259 H 0.10691 0.38584 0.078 0.0
H260 H 0.19599 0.46324 0.05528 0.0
H261 H 0.18227 0.45365 1.00474 0.0
C262 C 0.13011 0.40695 0.98301 0.0
C263 C 0.10265 0.38055 0.97449 0.0
C264 C 0.13691 0.4139 1.01204 0.0
C265 C 0.08095 0.36231 0.99545 0.0
C266 C 0.08714 0.36958 0.02443 0.0
C267 C 0.12321 0.4008 0.06202 0.0
C268 C 0.15256 0.4251 0.07045 0.0
C269 C 0.11544 0.39487 0.03296 0.0
C270 C 0.17338 0.44423 0.04942 0.0
C271 C 0.16553 0.4388 1.02049 0.0
H272 H 0.17345 0.08707 0.58901 0.0
H273 H 0.08179 0.15935 0.56625 0.0
H274 H 0.09227 0.14637 0.51584 0.0
H275 H 0.12815 0.11658 0.47841 0.0
H276 H 0.22107 0.04527 0.49969 0.0
H277 H 0.20943 0.05594 0.55067 0.0
C278 C 0.15555 0.09962 0.573 0.0
C279 C 0.12683 0.12411 0.58137 0.0
C280 C 0.16212 0.09251 0.54388 0.0
C281 C 0.10413 0.1405 0.56039 0.0
C282 C 0.11012 0.13314 0.53155 0.0
C283 C 0.14596 0.1032 0.49408 0.0
C284 C 0.17553 0.08019 0.48519 0.0
C285 C 0.13922 0.10955 0.52309 0.0
C286 C 0.19819 0.0632 0.50594 0.0
C287 C 0.1915 0.06925 0.53507 0.0
H288 H 0.64216 0.90829 0.07994 0.0
H289 H 0.55637 0.82844 0.05467 0.0
H290 H 0.56974 0.84132 1.00447 0.0
H291 H 0.60594 0.87458 0.96778 0.0
H292 H 0.69243 0.95386 0.99256 0.0
H293 H 0.67861 0.94174 0.04295 0.0
C294 C 0.62624 0.89378 0.06348 0.0
C295 C 0.59818 0.86743 0.07119 0.0
C296 C 0.63428 0.90111 0.03456 0.0
C297 C 0.57807 0.84881 0.04947 0.0
C298 C 0.58573 0.85616 1.02071 0.0
C299 C 0.62185 0.88931 0.98414 0.0
C300 C 0.65025 0.91516 0.97627 0.0
C301 C 0.61382 0.88214 1.01302 0.0
C302 C 0.67049 0.93382 0.9979 0.0
C303 C 0.66255 0.92691 0.02675 0.0
H304 H 0.6725 0.57195 0.55573 0.0
H305 H 0.60185 0.65974 0.58886 0.0
H306 H 0.5857 0.67888 0.54059 0.0
H307 H 0.59194 0.67167 0.4889 0.0
H308 H 0.66098 0.58323 0.45499 0.0
H309 H 0.67717 0.56342 0.50342 0.0
C310 C 0.65358 0.59523 0.55235 0.0
C311 C 0.63853 0.61434 0.57598 0.0
C312 C 0.64399 0.60605 0.52433 0.0
C313 C 0.61383 0.64435 0.57117 0.0
C314 C 0.60456 0.65545 0.54351 0.0
C315 C 0.61047 0.648 0.49206 0.0
C316 C 0.62525 0.62908 0.46831 0.0
C317 C 0.61951 0.63661 0.51994 0.0
C318 C 0.64907 0.59829 0.47287 0.0
C319 C 0.65846 0.58698 0.50059 0.0
H320 H 0.84399 0.59273 0.98105 0.0
H321 H 0.91717 0.68167 0.95066 0.0
H322 H 0.93353 0.69829 0.99958 0.0
H323 H 0.92611 0.68889 0.05124 0.0
H324 H 0.85323 0.59982 0.0818 0.0
H325 H 0.83809 0.58202 0.03282 0.0
C326 C 0.86356 0.6157 0.98512 0.0
C327 C 0.87914 0.63593 0.96209 0.0
C328 C 0.87304 0.62518 1.01345 0.0
C329 C 0.90463 0.66553 0.96787 0.0
C330 C 0.91406 0.67514 0.99591 0.0
C331 C 0.90709 0.66544 0.04721 0.0
C332 C 0.89083 0.64587 0.07028 0.0
C333 C 0.89832 0.65532 1.0189 0.0
C334 C 0.86622 0.6155 0.06454 0.0
C335 C 0.85743 0.60528 0.03648 0.0
H336 H 0.88834 0.86723 0.47882 0.0
H337 H 0.78596 0.91791 0.45037 0.0
H338 H 0.7718 0.93633 0.49979 0.0
H339 H 0.78833 0.93623 0.55173 0.0
H340 H 0.89144 0.8843 0.57787 0.0
H341 H 0.90527 0.86837 0.52875 0.0
C342 C 0.86282 0.88232 0.48322 0.0
C343 C 0.83817 0.89093 0.4608 0.0
C344 C 0.85494 0.89263 0.51145 0.0
C345 C 0.80545 0.91082 0.46716 0.0
C346 C 0.79735 0.92132 0.49546 0.0
C347 C 0.81388 0.92162 0.5466 0.0
C348 C 0.83864 0.91137 0.56871 0.0
C349 C 0.82184 0.91215 0.51789 0.0
C350 C 0.87163 0.8924 0.56156 0.0
C351 C 0.87969 0.88322 0.53336 0.0
H352 H 0.25222 0.34008 0.1605 0.0
H353 H 0.1455 0.2836 0.16869 0.0
H354 H 0.17617 0.22219 0.16802 0.0
H355 H 0.23323 0.18464 0.16429 0.0
H356 H 0.33999 0.24152 0.15776 0.0
H357 H 0.30928 0.30275 0.15867 0.0
C358 C 0.23564 0.31434 0.16211 0.0
C359 C 0.19663 0.31638 0.16443 0.0
C360 C 0.25344 0.27924 0.16201 0.0
C361 C 0.17559 0.28279 0.16688 0.0
C362 C 0.19309 0.24768 0.16644 0.0
C363 C 0.24978 0.21044 0.16307 0.0
C364 C 0.28882 0.20851 0.1608 0.0
C365 C 0.23198 0.24558 0.16388 0.0
C366 C 0.3099 0.2422 0.15954 0.0
C367 C 0.29237 0.27724 0.16 0.0
H368 H 0.36382 0.21342 0.66891 0.0
H369 H 0.32267 0.26554 0.59218 0.0
H370 H 0.26592 0.22673 0.59449 0.0
H371 H 0.22391 0.18721 0.62309 0.0
H372 H 0.26293 0.13741 0.70153 0.0
H373 H 0.32468 0.16619 0.69411 0.0
C374 C 0.34309 0.21485 0.65207 0.0
C375 C 0.34737 0.24161 0.63013 0.0
C376 C 0.30974 0.19392 0.65448 0.0
C377 C 0.32007 0.24439 0.60883 0.0
C378 C 0.28742 0.22272 0.61047 0.0
C379 C 0.24609 0.18233 0.6384 0.0
C380 C 0.23882 0.16104 0.66314 0.0
C381 C 0.28122 0.19894 0.63399 0.0
C382 C 0.2679 0.15408 0.68248 0.0
C383 C 0.30313 0.1705 0.67822 0.0
H384 H 0.31475 0.27598 0.37473 0.0
H385 H 0.22319 0.34673 0.39982 0.0
H386 H 0.18155 0.2915 0.40099 0.0
H387 H 0.17167 0.22222 0.3963 0.0
H388 H 0.26481 0.15238 0.37318 0.0
H389 H 0.30502 0.20802 0.36958 0.0
C390 C 0.28567 0.27943 0.38037 0.0
C391 C 0.27221 0.31546 0.38722 0.0
C392 C 0.26204 0.24759 0.38131 0.0
C393 C 0.2344 0.31928 0.39456 0.0
C394 C 0.21051 0.2877 0.39518 0.0
C395 C 0.20066 0.21937 0.39021 0.0
C396 C 0.21524 0.18325 0.38508 0.0
C397 C 0.22406 0.25161 0.38876 0.0
C398 C 0.25297 0.17986 0.37746 0.0
C399 C 0.27603 0.21166 0.37538 0.0
H400 H 0.31116 0.2442 0.93821 0.0
H401 H 0.37729 0.31214 0.88084 0.0
H402 H 0.32436 0.35455 0.87326 0.0
H403 H 0.25606 0.36587 0.87754 0.0
H404 H 0.19111 0.29434 0.93389 0.0
H405 H 0.24652 0.26 0.94724 0.0
C406 C 0.31432 0.26915 0.92487 0.0
C407 C 0.34791 0.27536 0.9103 0.0
C408 C 0.28356 0.29222 0.91984 0.0
C409 C 0.35179 0.30735 0.89275 0.0
C410 C 0.32131 0.33115 0.88803 0.0
C411 C 0.25422 0.34309 0.89298 0.0
C412 C 0.21922 0.33222 0.90414 0.0
C413 C 0.28652 0.32288 0.90055 0.0
C414 C 0.21741 0.30286 0.9244 0.0
C415 C 0.24918 0.28323 0.93225 0.0
H416 H 0.75327 0.85131 0.87179 0.0
H417 H 0.65741 0.77707 0.87808 0.0
H418 H 0.69805 0.72196 0.87478 0.0
H419 H 0.76112 0.69506 0.87164 0.0
H420 H 0.85643 0.76977 0.86333 0.0
H421 H 0.81562 0.82458 0.86577 0.0
C422 C 0.74121 0.82306 0.87244 0.0
C423 C 0.70235 0.8183 0.87549 0.0
C424 C 0.76466 0.79164 0.87017 0.0
C425 C 0.68718 0.78152 0.87579 0.0
C426 C 0.71044 0.75003 0.87397 0.0
C427 C 0.77297 0.72334 0.8703 0.0
C428 C 0.81188 0.72828 0.86754 0.0
C429 C 0.74926 0.75476 0.87141 0.0
C430 C 0.82667 0.76512 0.86545 0.0
C431 C 0.80333 0.79649 0.86694 0.0
H432 H 0.72316 0.67616 0.42078 0.0
H433 H 0.73738 0.65361 0.33105 0.0
H434 H 0.79932 0.68376 0.33235 0.0
H435 H 0.84385 0.72603 0.35752 0.0
H436 H 0.82898 0.74846 0.44712 0.0
H437 H 0.77329 0.70785 0.44781 0.0
C438 C 0.74025 0.67721 0.40168 0.0
C439 C 0.72578 0.66345 0.37575 0.0
C440 C 0.77565 0.69437 0.4027 0.0
C441 C 0.7481 0.66426 0.35118 0.0
C442 C 0.78336 0.68159 0.35193 0.0
C443 C 0.82932 0.72044 0.37741 0.0
C444 C 0.84053 0.73951 0.40236 0.0
C445 C 0.79679 0.69794 0.37735 0.0
C446 C 0.82114 0.73323 0.42791 0.0
C447 C 0.78902 0.71055 0.42815 0.0
H448 H 0.73738 0.83834 0.66946 0.0
H449 H 0.83946 0.7749 0.66708 0.0
H450 H 0.80387 0.71576 0.66938 0.0
H451 H 0.74396 0.68206 0.67068 0.0
H452 H 0.64164 0.74478 0.67496 0.0
H453 H 0.67716 0.80433 0.67354 0.0
C454 C 0.75181 0.81156 0.66945 0.0
C455 C 0.79101 0.81101 0.66785 0.0
C456 C 0.73116 0.77761 0.67116 0.0
C457 C 0.80934 0.77611 0.66828 0.0
C458 C 0.789 0.74228 0.66954 0.0
C459 C 0.72939 0.70876 0.67135 0.0
C460 C 0.6902 0.70903 0.67265 0.0
C461 C 0.74995 0.7427 0.67077 0.0
C462 C 0.67178 0.74383 0.67396 0.0
C463 C 0.69208 0.77785 0.67304 0.0
H464 H 0.81956 0.76041 0.16158 0.0
H465 H 0.75072 0.65958 0.15943 0.0
H466 H 0.6946 0.69837 0.161 0.0
H467 H 0.66578 0.76058 0.16248 0.0
H468 H 0.73465 0.86135 0.16654 0.0
H469 H 0.79073 0.82256 0.16497 0.0
C470 C 0.79224 0.74693 0.16121 0.0
C471 C 0.78901 0.70733 0.15994 0.0
C472 C 0.76045 0.76925 0.16262 0.0
C473 C 0.75366 0.69008 0.16023 0.0
C474 C 0.72172 0.71219 0.16113 0.0
C475 C 0.69307 0.77411 0.16293 0.0
C476 C 0.69626 0.81372 0.1643 0.0
C477 C 0.72488 0.75175 0.16224 0.0
C478 C 0.73166 0.83087 0.16544 0.0
C479 C 0.76361 0.80877 0.16444 0.0
H480 H 0.2776 0.0501 0.33222 0.0
H481 H 0.16274 0.02999 0.30925 0.0
H482 H 0.17904 0.03109 0.25857 0.0
H483 H 0.22463 0.04577 0.22093 0.0
H484 H 0.33851 0.07159 0.24424 0.0
H485 H 0.3241 0.06026 0.29441 0.0
C486 C 0.25645 0.04488 0.31606 0.0
C487 C 0.21917 0.03976 0.32425 0.0
C488 C 0.26575 0.04735 0.28698 0.0
C489 C 0.1917 0.03387 0.30326 0.0
C490 C 0.20095 0.03475 0.27433 0.0
C491 C 0.24635 0.04839 0.23697 0.0
C492 C 0.28242 0.0599 0.22893 0.0
C493 C 0.23767 0.04277 0.26592 0.0
C494 C 0.31033 0.06327 0.24994 0.0
C495 C 0.30218 0.05668 0.27865 0.0
H496 H 0.37523 0.24954 0.71446 0.0
H497 H 0.3613 0.35313 0.76162 0.0
H498 H 0.35673 0.31704 0.8063 0.0
H499 H 0.36213 0.25659 0.83186 0.0
H500 H 0.37329 0.15269 0.78471 0.0
H501 H 0.37277 0.18829 0.73958 0.0
C502 C 0.371 0.26413 0.73455 0.0
C503 C 0.36935 0.30389 0.73504 0.0
C504 C 0.36778 0.24317 0.75986 0.0
C505 C 0.36294 0.32258 0.76093 0.0
C506 C 0.36039 0.30197 0.78636 0.0
C507 C 0.36385 0.24178 0.8116 0.0
C508 C 0.36807 0.20228 0.81131 0.0
C509 C 0.36352 0.26238 0.78607 0.0
C510 C 0.36991 0.18308 0.78521 0.0
C511 C 0.36992 0.20346 0.75956 0.0
H512 H 0.17932 0.46492 0.24889 0.0
H513 H 0.28412 0.46088 0.20399 0.0
H514 H 0.31792 0.46385 0.24931 0.0
H515 H 0.3172 0.4602 0.3017 0.0
H516 H 0.21283 0.46718 0.34681 0.0
H517 H 0.17916 0.47114 0.30137 0.0
C518 C 0.20956 0.46525 0.2491 0.0
C519 C 0.22929 0.46213 0.22331 0.0
C520 C 0.22877 0.46737 0.27519 0.0
C521 C 0.26842 0.4632 0.22365 0.0
C522 C 0.28773 0.46471 0.24953 0.0
C523 C 0.28714 0.46333 0.3015 0.0
C524 C 0.26735 0.46298 0.32735 0.0
C525 C 0.26814 0.46573 0.27541 0.0
C526 C 0.22853 0.46749 0.32706 0.0
C527 C 0.20931 0.46943 0.30113 0.0
H528 H 0.09887 0.17727 0.75999 0.0
H529 H 0.10758 0.2722 0.70251 0.0
H530 H 0.10438 0.31599 0.74276 0.0
H531 H 0.10074 0.32742 0.79459 0.0
H532 H 0.08698 0.23273 0.85177 0.0
H533 H 0.09027 0.18889 0.81153 0.0
C534 C 0.09996 0.20755 0.75635 0.0
C535 C 0.10372 0.22148 0.72837 0.0
C536 C 0.09717 0.23265 0.77956 0.0
C537 C 0.1046 0.26078 0.72386 0.0
C538 C 0.10289 0.28586 0.74687 0.0
C539 C 0.09829 0.29719 0.79817 0.0
C540 C 0.09383 0.28334 0.82611 0.0
C541 C 0.0994 0.27214 0.77484 0.0
C542 C 0.09027 0.24413 0.83043 0.0
C543 C 0.09231 0.21901 0.80745 0.0
H544 H 0.76487 0.96458 0.82997 0.0
H545 H 0.65181 0.96465 0.79872 0.0
H546 H 0.67422 0.96865 0.74955 0.0
H547 H 0.72593 0.96399 0.71519 0.0
H548 H 0.83875 0.95784 0.74656 0.0
H549 H 0.81675 0.96476 0.79559 0.0
C550 C 0.74525 0.96645 0.81239 0.0
C551 C 0.70681 0.96437 0.8179 0.0
C552 C 0.75836 0.96718 0.78407 0.0
C553 C 0.68159 0.96612 0.79494 0.0
C554 C 0.69437 0.96828 0.76681 0.0
C555 C 0.74567 0.96502 0.73275 0.0
C556 C 0.78384 0.96031 0.7273 0.0
C557 C 0.73269 0.96761 0.76105 0.0
C558 C 0.80915 0.96118 0.75026 0.0
C559 C 0.79661 0.96508 0.77833 0.0
H560 H 0.57059 0.68403 0.2942 0.0
H561 H 0.59348 0.78211 0.34634 0.0
H562 H 0.58556 0.82322 0.30486 0.0
H563 H 0.57609 0.831 0.25309 0.0
H564 H 0.54976 0.73339 0.20134 0.0
H565 H 0.55444 0.69257 0.2433 0.0
C566 C 0.5736 0.71443 0.29648 0.0
C567 C 0.58302 0.72995 0.32326 0.0
C568 C 0.5683 0.73802 0.27259 0.0
C569 C 0.58628 0.76943 0.32598 0.0
C570 C 0.58184 0.79297 0.30224 0.0
C571 C 0.57085 0.80086 0.25107 0.0
C572 C 0.56279 0.78529 0.22405 0.0
C573 C 0.57336 0.77755 0.27536 0.0
C574 C 0.55581 0.74619 0.22187 0.0
C575 C 0.55878 0.72276 0.24585 0.0
H576 H 0.75217 0.56833 0.82771 0.0
H577 H 0.85735 0.58567 0.78494 0.0
H578 H 0.82745 0.5752 0.73867 0.0
H579 H 0.77014 0.56897 0.71006 0.0
H580 H 0.66415 0.55812 0.75269 0.0
H581 H 0.6954 0.55755 0.79912 0.0
C582 C 0.7686 0.56901 0.80828 0.0
C583 C 0.80684 0.57786 0.8097 0.0
C584 C 0.75094 0.56436 0.78163 0.0
C585 C 0.82778 0.57914 0.78434 0.0
C586 C 0.8107 0.57319 0.75788 0.0
C587 C 0.75406 0.56549 0.72951 0.0
C588 C 0.71498 0.56348 0.72803 0.0
C589 C 0.77211 0.56688 0.75619 0.0
C590 C 0.69432 0.55973 0.75337 0.0
C591 C 0.71215 0.55957 0.77992 0.0
H592 H 0.93481 0.81973 0.30334 0.0
H593 H 0.81541 0.82637 0.29418 0.0
H594 H 0.81863 0.79078 0.24938 0.0
H595 H 0.85488 0.75226 0.21558 0.0
H596 H 0.97447 0.74833 0.22317 0.0
H597 H 0.9719 0.78839 0.266 0.0
C598 C 0.90958 0.81397 0.29124 0.0
C599 C 0.87486 0.82541 0.30213 0.0
C600 C 0.91171 0.79355 0.26554 0.0
C601 C 0.84243 0.81808 0.28616 0.0
C602 C 0.84425 0.79741 0.26071 0.0
C603 C 0.88035 0.76056 0.22655 0.0
C604 C 0.9148 0.74709 0.21672 0.0
C605 C 0.87861 0.78411 0.25066 0.0
C606 C 0.94773 0.75834 0.23058 0.0
C607 C 0.9462 0.78113 0.25502 0.0
H608 H 0.45767 0.06584 0.17517 0.0
H609 H 0.3759 0.98687 0.14177 0.0
H610 H 0.42121 0.93616 0.14413 0.0
H611 H 0.48398 0.91444 0.15481 0.0
H612 H 0.56621 0.99286 0.18821 0.0
H613 H 0.5205 0.04357 0.18697 0.0
C614 C 0.44979 0.03756 0.16835 0.0
C615 C 0.41352 0.03022 0.15819 0.0
C616 C 0.47593 0.00842 0.16989 0.0
C617 C 0.40365 0.99334 0.14965 0.0
C618 C 0.42952 0.96428 0.15101 0.0
C619 C 0.49194 0.94256 0.16198 0.0
C620 C 0.52848 0.94986 0.17152 0.0
C621 C 0.46571 0.97153 0.16102 0.0
C622 C 0.53824 0.98647 0.18077 0.0
C623 C 0.51217 0.0155 0.17998 0.0
H624 H 0.59948 0.48571 0.65808 0.0
H625 H 0.51695 0.56321 0.6897 0.0
H626 H 0.47043 0.51233 0.69025 0.0
H627 H 0.45249 0.44676 0.67991 0.0
H628 H 0.53458 0.36919 0.6478 0.0
H629 H 0.58207 0.41925 0.64957 0.0
C630 C 0.57135 0.49151 0.66521 0.0
C631 C 0.56173 0.52837 0.67368 0.0
C632 C 0.54467 0.46213 0.6654 0.0
C633 C 0.52517 0.53521 0.68298 0.0
C634 C 0.49851 0.50611 0.6833 0.0
C635 C 0.48082 0.44061 0.67348 0.0
C636 C 0.48986 0.40421 0.66362 0.0
C637 C 0.50786 0.46958 0.67429 0.0
C638 C 0.52679 0.39689 0.65547 0.0
C639 C 0.55395 0.42556 0.65639 0.0
H640 H 0.0322 0.46307 0.18849 0.0
H641 H 0.11402 0.54092 0.15385 0.0
H642 H 0.06836 0.59137 0.15423 0.0
H643 H 0.0046 0.61251 0.16175 0.0
H644 H 0.9221 0.53497 0.19571 0.0
H645 H 0.96886 0.48538 0.1985 0.0
C646 C 0.04012 0.49113 0.1812 0.0
C647 C 0.0764 0.49808 0.17095 0.0
C648 C 0.01364 0.52006 0.1813 0.0
C649 C 0.08624 0.53467 0.16171 0.0
C650 C 0.06015 0.56359 0.1619 0.0
C651 C 0.99683 0.58487 0.16998 0.0
C652 C 0.95984 0.5774 0.1783 0.0
C653 C 0.02367 0.55645 0.17125 0.0
C654 C 0.95037 0.54147 0.18907 0.0
C655 C 0.97706 0.51305 0.1906 0.0
H656 H 0.96745 0.94656 0.68814 0.0
H657 H 0.89774 0.02682 0.64444 0.0
H658 H 0.94722 0.07459 0.6476 0.0
H659 H 0.01089 0.09302 0.66145 0.0
H660 H 0.08055 0.01274 0.7052 0.0
H661 H 0.03028 0.96574 0.70357 0.0
C662 C 0.96304 0.97449 0.67928 0.0
C663 C 0.92897 0.98295 0.6659 0.0
C664 C 0.99155 1.00192 0.68128 0.0
C665 C 0.92369 0.01944 0.65479 0.0
C666 C 0.95197 0.04683 0.6566 0.0
C667 C 0.01502 0.06537 0.67087 0.0
C668 C 0.04956 0.05647 0.68337 0.0
C669 C 0.98609 0.03832 0.66966 0.0
C670 C 0.05432 0.02043 0.69544 0.0
C671 C 0.0256 0.99344 0.69443 0.0
H672 H 0.55056 0.52476 0.35405 0.0
H673 H 0.49257 0.61903 0.39128 0.0
H674 H 0.43593 0.58068 0.39518 0.0
H675 H 0.40343 0.5197 0.38991 0.0
H676 H 0.46155 0.42508 0.3533 0.0
H677 H 0.51735 0.46428 0.34727 0.0
C678 C 0.52547 0.53703 0.3628 0.0
C679 C 0.52596 0.57472 0.37243 0.0
C680 C 0.49296 0.51469 0.36526 0.0
C681 C 0.49312 0.59008 0.38377 0.0
C682 C 0.46065 0.56815 0.38606 0.0
C683 C 0.42823 0.50765 0.3805 0.0
C684 C 0.42824 0.46941 0.37221 0.0
C685 C 0.46037 0.5303 0.37719 0.0
C686 C 0.46069 0.45438 0.35998 0.0
C687 C 0.49269 0.47678 0.3565 0.0
H688 H 0.07773 0.49756 0.8568 0.0
H689 H 0.99785 0.40845 0.87471 0.0
H690 H 0.94734 0.45368 0.87327 0.0
H691 H 0.92585 0.51867 0.86977 0.0
H692 H 0.00443 0.6088 0.85199 0.0
H693 H 0.05523 0.56308 0.85041 0.0
C694 C 0.04923 0.48799 0.86002 0.0
C695 C 0.04178 0.44957 0.86603 0.0
C696 C 0.02002 0.51438 0.85943 0.0
C697 C 0.00459 0.43777 0.87021 0.0
C698 C 0.97557 0.46367 0.86945 0.0
C699 C 0.95405 0.52843 0.86546 0.0
C700 C 0.96129 0.56722 0.86128 0.0
C701 C 0.98301 0.50208 0.8646 0.0
C702 C 0.99802 0.57914 0.85538 0.0
C703 C 0.02711 0.55299 0.85451 0.0
H704 H 0.01762 0.88475 0.40371 0.0
H705 H 0.93134 0.95728 0.37117 0.0
H706 H 0.97496 0.01049 0.37006 0.0
H707 H 0.03761 0.03693 0.37876 0.0
H708 H 0.12378 0.96414 0.41121 0.0
H709 H 0.08027 0.91093 0.41191 0.0
C710 C 0.00839 0.91214 0.39628 0.0
C711 C 0.97125 0.91689 0.38758 0.0
C712 C 0.0336 0.9428 0.39574 0.0
C713 C 0.95977 0.95269 0.37804 0.0
C714 C 0.9847 0.98326 0.37741 0.0
C715 C 0.04684 0.00945 0.38601 0.0
C716 C 0.08391 1.00469 0.39493 0.0
C717 C 0.02166 0.97872 0.38632 0.0
C718 C 0.09541 0.96876 0.40418 0.0
C719 C 0.07055 0.93819 0.40461 0.0
H720 H 0.60151 0.03415 0.89068 0.0
H721 H 0.51712 0.95084 0.86929 0.0
H722 H 0.46999 1.00024 0.86809 0.0
H723 H 0.45247 0.0666 0.87441 0.0
H724 H 0.53678 0.14988 0.89605 0.0
H725 H 0.58429 0.10084 0.89561 0.0
C726 C 0.57282 0.02669 0.88572 0.0
C727 C 0.5629 0.98867 0.88023 0.0
C728 C 0.54587 0.05524 0.88505 0.0
C729 C 0.52559 0.97976 0.87367 0.0
C730 C 0.4986 0.00802 0.87297 0.0
C731 C 0.48127 0.07419 0.87887 0.0
C732 C 0.49094 0.11201 0.88532 0.0
C733 C 0.5084 0.04581 0.87879 0.0
C734 C 0.52846 0.12112 0.89101 0.0
C735 C 0.55566 0.09304 0.89084 0.0
loop_
_geom_bond_atom_site_label_1
_geom_bond_atom_site_label_2
_geom_bond_distance
_geom_bond_site_symmetry_2
_ccdc_geom_bond_type
C0 O2 1.247 . S
C0 O4 1.258 . S
C1 O8 1.247 . S
C1 O9 1.258 . S
O2 C0 1.247 . S
O2 Zn3 2.028 . S
Zn3 O2 2.028 . S
Zn3 O7 2.035 . S
Zn3 O9 2.035 . S
Zn3 O10 2.028 . S
O4 C0 1.258 . S
O4 Zn5 2.035 . S
Zn5 O4 2.035 . S
Zn5 O6 2.028 . S
Zn5 O8 2.028 . S
Zn5 O11 2.035 . S
O6 Zn5 2.028 . S
O6 C12 1.247 . S
O7 Zn3 2.035 . S
O7 C12 1.258 . S
O8 C1 1.247 . S
O8 Zn5 2.028 . S
O9 C1 1.258 . S
O9 Zn3 2.035 . S
O10 Zn3 2.028 . S
O10 C13 1.247 . S
O11 Zn5 2.035 . S
O11 C13 1.258 . S
C12 O6 1.247 . S
C12 O7 1.258 . S
C13 O10 1.247 . S
C13 O11 1.258 . S
C14 O16 1.247 . S
C14 O18 1.258 . S
C15 O22 1.247 . S
C15 O23 1.258 . S
O16 C14 1.247 . S
O16 Zn17 2.028 . S
Zn17 O16 2.028 . S
Zn17 O21 2.035 . S
Zn17 O23 2.035 . S
Zn17 O24 2.028 . S
O18 C14 1.258 . S
O18 Zn19 2.035 . S
Zn19 O18 2.035 . S
Zn19 O20 2.028 . S
Zn19 O22 2.028 . S
Zn19 O25 2.035 . S
O20 Zn19 2.028 . S
O20 C26 1.247 . S
O21 Zn17 2.035 . S
O21 C26 1.258 . S
O22 C15 1.247 . S
O22 Zn19 2.028 . S
O23 C15 1.258 . S
O23 Zn17 2.035 . S
O24 Zn17 2.028 . S
O24 C27 1.247 . S
O25 Zn19 2.035 . S
O25 C27 1.258 . S
C26 O20 1.247 . S
C26 O21 1.258 . S
C27 O24 1.247 . S
C27 O25 1.258 . S
C28 O30 1.247 . S
C28 O32 1.258 . S
C29 O36 1.247 . S
C29 O37 1.258 . S
O30 C28 1.247 . S
O30 Zn31 2.028 . S
Zn31 O30 2.028 . S
Zn31 O35 2.035 . S
Zn31 O37 2.035 . S
Zn31 O38 2.028 . S
O32 C28 1.258 . S
O32 Zn33 2.035 . S
Zn33 O32 2.035 . S
Zn33 O34 2.028 . S
Zn33 O36 2.028 . S
Zn33 O39 2.035 . S
O34 Zn33 2.028 . S
O34 C40 1.247 . S
O35 Zn31 2.035 . S
O35 C40 1.258 . S
O36 C29 1.247 . S
O36 Zn33 2.028 . S
O37 C29 1.258 . S
O37 Zn31 2.035 . S
O38 Zn31 2.028 . S
O38 C41 1.247 . S
O39 Zn33 2.035 . S
O39 C41 1.258 . S
C40 O34 1.247 . S
C40 O35 1.258 . S
C41 O38 1.247 . S
C41 O39 1.258 . S
C42 O44 1.247 . S
C42 O46 1.258 . S
C43 O50 1.247 . S
C43 O51 1.258 . S
O44 C42 1.247 . S
O44 Zn45 2.028 . S
Zn45 O44 2.028 . S
Zn45 O49 2.035 . S
Zn45 O51 2.035 . S
Zn45 O52 2.028 . S
O46 C42 1.258 . S
O46 Zn47 2.035 . S
Zn47 O46 2.035 . S
Zn47 O48 2.028 . S
Zn47 O50 2.028 . S
Zn47 O53 2.035 . S
O48 Zn47 2.028 . S
O48 C54 1.247 . S
O49 Zn45 2.035 . S
O49 C54 1.258 . S
O50 C43 1.247 . S
O50 Zn47 2.028 . S
O51 C43 1.258 . S
O51 Zn45 2.035 . S
O52 Zn45 2.028 . S
O52 C55 1.247 . S
O53 Zn47 2.035 . S
O53 C55 1.258 . S
C54 O48 1.247 . S
C54 O49 1.258 . S
C55 O52 1.247 . S
C55 O53 1.258 . S
C56 O58 1.247 . S
C56 O60 1.258 . S
C57 O64 1.247 . S
C57 O65 1.258 . S
O58 C56 1.247 . S
O58 Zn59 2.028 . S
Zn59 O58 2.028 . S
Zn59 O63 2.035 . S
Zn59 O65 2.035 . S
Zn59 O66 2.028 . S
O60 C56 1.258 . S
O60 Zn61 2.035 . S
Zn61 O60 2.035 . S
Zn61 O62 2.028 . S
Zn61 O64 2.028 . S
Zn61 O67 2.035 . S
O62 Zn61 2.028 . S
O62 C68 1.247 . S
O63 Zn59 2.035 . S
O63 C68 1.258 . S
O64 C57 1.247 . S
O64 Zn61 2.028 . S
O65 C57 1.258 . S
O65 Zn59 2.035 . S
O66 Zn59 2.028 . S
O66 C69 1.247 . S
O67 Zn61 2.035 . S
O67 C69 1.258 . S
C68 O62 1.247 . S
C68 O63 1.258 . S
C69 O66 1.247 . S
C69 O67 1.258 . S
C70 O72 1.247 . S
C70 O74 1.258 . S
C71 O78 1.247 . S
C71 O79 1.258 . S
O72 C70 1.247 . S
O72 Zn73 2.028 . S
Zn73 O72 2.028 . S
Zn73 O77 2.035 . S
Zn73 O79 2.035 . S
Zn73 O80 2.028 . S
O74 C70 1.258 . S
O74 Zn75 2.035 . S
Zn75 O74 2.035 . S
Zn75 O76 2.028 . S
Zn75 O78 2.028 . S
Zn75 O81 2.035 . S
O76 Zn75 2.028 . S
O76 C82 1.247 . S
O77 Zn73 2.035 . S
O77 C82 1.258 . S
O78 C71 1.247 . S
O78 Zn75 2.028 . S
O79 C71 1.258 . S
O79 Zn73 2.035 . S
O80 Zn73 2.028 . S
O80 C83 1.247 . S
O81 Zn75 2.035 . S
O81 C83 1.258 . S
C82 O76 1.247 . S
C82 O77 1.258 . S
C83 O80 1.247 . S
C83 O81 1.258 . S
C84 O86 1.247 . S
C84 O88 1.258 . S
C85 O92 1.247 . S
C85 O93 1.258 . S
O86 C84 1.247 . S
O86 Zn87 2.028 . S
Zn87 O86 2.028 . S
Zn87 O91 2.035 . S
Zn87 O93 2.035 . S
Zn87 O94 2.028 . S
O88 C84 1.258 . S
O88 Zn89 2.035 . S
Zn89 O88 2.035 . S
Zn89 O90 2.028 . S
Zn89 O92 2.028 . S
Zn89 O95 2.035 . S
O90 Zn89 2.028 . S
O90 C96 1.247 . S
O91 Zn87 2.035 . S
O91 C96 1.258 . S
O92 C85 1.247 . S
O92 Zn89 2.028 . S
O93 C85 1.258 . S
O93 Zn87 2.035 . S
O94 Zn87 2.028 . S
O94 C97 1.247 . S
O95 Zn89 2.035 . S
O95 C97 1.258 . S
C96 O90 1.247 . S
C96 O91 1.258 . S
C97 O94 1.247 . S
C97 O95 1.258 . S
C98 O100 1.247 . S
C98 O102 1.258 . S
C99 O106 1.247 . S
C99 O107 1.258 . S
O100 C98 1.247 . S
O100 Zn101 2.028 . S
Zn101 O100 2.028 . S
Zn101 O105 2.035 . S
Zn101 O107 2.035 . S
Zn101 O108 2.028 . S
O102 C98 1.258 . S
O102 Zn103 2.035 . S
Zn103 O102 2.035 . S
Zn103 O104 2.028 . S
Zn103 O106 2.028 . S
Zn103 O109 2.035 . S
O104 Zn103 2.028 . S
O104 C110 1.247 . S
O105 Zn101 2.035 . S
O105 C110 1.258 . S
O106 C99 1.247 . S
O106 Zn103 2.028 . S
O107 C99 1.258 . S
O107 Zn101 2.035 . S
O108 Zn101 2.028 . S
O108 C111 1.247 . S
O109 Zn103 2.035 . S
O109 C111 1.258 . S
C110 O104 1.247 . S
C110 O105 1.258 . S
C111 O108 1.247 . S
C111 O109 1.258 . S
C112 O114 1.247 . S
C112 O116 1.258 . S
C113 O120 1.247 . S
C113 O121 1.258 . S
O114 C112 1.247 . S
O114 Zn115 2.028 . S
Zn115 O114 2.028 . S
Zn115 O119 2.035 . S
Zn115 O121 2.035 . S
Zn115 O122 2.028 . S
O116 C112 1.258 . S
O116 Zn117 2.035 . S
Zn117 O116 2.035 . S
Zn117 O118 2.028 . S
Zn117 O120 2.028 . S
Zn117 O123 2.035 . S
O118 Zn117 2.028 . S
O118 C124 1.247 . S
O119 Zn115 2.035 . S
O119 C124 1.258 . S
O120 C113 1.247 . S
O120 Zn117 2.028 . S
O121 C113 1.258 . S
O121 Zn115 2.035 . S
O122 Zn115 2.028 . S
O122 C125 1.247 . S
O123 Zn117 2.035 . S
O123 C125 1.258 . S
C124 O118 1.247 . S
C124 O119 1.258 . S
C125 O122 1.247 . S
C125 O123 1.258 . S
C126 O128 1.247 . S
C126 O130 1.258 . S
C127 O134 1.247 . S
C127 O135 1.258 . S
O128 C126 1.247 . S
O128 Zn129 2.028 . S
Zn129 O128 2.028 . S
Zn129 O133 2.035 . S
Zn129 O135 2.035 . S
Zn129 O136 2.028 . S
O130 C126 1.258 . S
O130 Zn131 2.035 . S
Zn131 O130 2.035 . S
Zn131 O132 2.028 . S
Zn131 O134 2.028 . S
Zn131 O137 2.035 . S
O132 Zn131 2.028 . S
O132 C138 1.247 . S
O133 Zn129 2.035 . S
O133 C138 1.258 . S
O134 C127 1.247 . S
O134 Zn131 2.028 . S
O135 C127 1.258 . S
O135 Zn129 2.035 . S
O136 Zn129 2.028 . S
O136 C139 1.247 . S
O137 Zn131 2.035 . S
O137 C139 1.258 . S
C138 O132 1.247 . S
C138 O133 1.258 . S
C139 O136 1.247 . S
C139 O137 1.258 . S
C140 O142 1.247 . S
C140 O144 1.258 . S
C141 O148 1.247 . S
C141 O149 1.258 . S
O142 C140 1.247 . S
O142 Zn143 2.028 . S
Zn143 O142 2.028 . S
Zn143 O147 2.035 . S
Zn143 O149 2.035 . S
Zn143 O150 2.028 . S
O144 C140 1.258 . S
O144 Zn145 2.035 . S
Zn145 O144 2.035 . S
Zn145 O146 2.028 . S
Zn145 O148 2.028 . S
Zn145 O151 2.035 . S
O146 Zn145 2.028 . S
O146 C152 1.247 . S
O147 Zn143 2.035 . S
O147 C152 1.258 . S
O148 C141 1.247 . S
O148 Zn145 2.028 . S
O149 C141 1.258 . S
O149 Zn143 2.035 . S
O150 Zn143 2.028 . S
O150 C153 1.247 . S
O151 Zn145 2.035 . S
O151 C153 1.258 . S
C152 O146 1.247 . S
C152 O147 1.258 . S
C153 O150 1.247 . S
C153 O151 1.258 . S
C154 O156 1.247 . S
C154 O158 1.258 . S
C155 O162 1.247 . S
C155 O163 1.258 . S
O156 C154 1.247 . S
O156 Zn157 2.028 . S
Zn157 O156 2.028 . S
Zn157 O161 2.035 . S
Zn157 O163 2.035 . S
Zn157 O164 2.028 . S
O158 C154 1.258 . S
O158 Zn159 2.035 . S
Zn159 O158 2.035 . S
Zn159 O160 2.028 . S
Zn159 O162 2.028 . S
Zn159 O165 2.035 . S
O160 Zn159 2.028 . S
O160 C166 1.247 . S
O161 Zn157 2.035 . S
O161 C166 1.258 . S
O162 C155 1.247 . S
O162 Zn159 2.028 . S
O163 C155 1.258 . S
O163 Zn157 2.035 . S
O164 Zn157 2.028 . S
O164 C167 1.247 . S
O165 Zn159 2.035 . S
O165 C167 1.258 . S
C166 O160 1.247 . S
C166 O161 1.258 . S
C167 O164 1.247 . S
C167 O165 1.258 . S
C168 O170 1.247 . S
C168 O172 1.258 . S
C169 O176 1.247 . S
C169 O177 1.258 . S
O170 C168 1.247 . S
O170 Zn171 2.028 . S
Zn171 O170 2.028 . S
Zn171 O175 2.035 . S
Zn171 O177 2.035 . S
Zn171 O178 2.028 . S
O172 C168 1.258 . S
O172 Zn173 2.035 . S
Zn173 O172 2.035 . S
Zn173 O174 2.028 . S
Zn173 O176 2.028 . S
Zn173 O179 2.035 . S
O174 Zn173 2.028 . S
O174 C180 1.247 . S
O175 Zn171 2.035 . S
O175 C180 1.258 . S
O176 C169 1.247 . S
O176 Zn173 2.028 . S
O177 C169 1.258 . S
O177 Zn171 2.035 . S
O178 Zn171 2.028 . S
O178 C181 1.247 . S
O179 Zn173 2.035 . S
O179 C181 1.258 . S
C180 O174 1.247 . S
C180 O175 1.258 . S
C181 O178 1.247 . S
C181 O179 1.258 . S
C182 O184 1.247 . S
C182 O186 1.258 . S
C183 O190 1.247 . S
C183 O191 1.258 . S
O184 C182 1.247 . S
O184 Zn185 2.028 . S
Zn185 O184 2.028 . S
Zn185 O189 2.035 . S
Zn185 O191 2.035 . S
Zn185 O192 2.028 . S
O186 C182 1.258 . S
O186 Zn187 2.035 . S
Zn187 O186 2.035 . S
Zn187 O188 2.028 . S
Zn187 O190 2.028 . S
Zn187 O193 2.035 . S
O188 Zn187 2.028 . S
O188 C194 1.247 . S
O189 Zn185 2.035 . S
O189 C194 1.258 . S
O190 C183 1.247 . S
O190 Zn187 2.028 . S
O191 C183 1.258 . S
O191 Zn185 2.035 . S
O192 Zn185 2.028 . S
O192 C195 1.247 . S
O193 Zn187 2.035 . S
O193 C195 1.258 . S
C194 O188 1.247 . S
C194 O189 1.258 . S
C195 O192 1.247 . S
C195 O193 1.258 . S
C196 O198 1.247 . S
C196 O200 1.258 . S
C197 O204 1.247 . S
C197 O205 1.258 . S
O198 C196 1.247 . S
O198 Zn199 2.028 . S
Zn199 O198 2.028 . S
Zn199 O203 2.035 . S
Zn199 O205 2.035 . S
Zn199 O206 2.028 . S
O200 C196 1.258 . S
O200 Zn201 2.035 . S
Zn201 O200 2.035 . S
Zn201 O202 2.028 . S
Zn201 O204 2.028 . S
Zn201 O207 2.035 . S
O202 Zn201 2.028 . S
O202 C208 1.247 . S
O203 Zn199 2.035 . S
O203 C208 1.258 . S
O204 C197 1.247 . S
O204 Zn201 2.028 . S
O205 C197 1.258 . S
O205 Zn199 2.035 . S
O206 Zn199 2.028 . S
O206 C209 1.247 . S
O207 Zn201 2.035 . S
O207 C209 1.258 . S
C208 O202 1.247 . S
C208 O203 1.258 . S
C209 O206 1.247 . S
C209 O207 1.258 . S
C210 O212 1.247 . S
C210 O214 1.258 . S
C211 O218 1.247 . S
C211 O219 1.258 . S
O212 C210 1.247 . S
O212 Zn213 2.028 . S
Zn213 O212 2.028 . S
Zn213 O217 2.035 . S
Zn213 O219 2.035 . S
Zn213 O220 2.028 . S
O214 C210 1.258 . S
O214 Zn215 2.035 . S
Zn215 O214 2.035 . S
Zn215 O216 2.028 . S
Zn215 O218 2.028 . S
Zn215 O221 2.035 . S
O216 Zn215 2.028 . S
O216 C222 1.247 . S
O217 Zn213 2.035 . S
O217 C222 1.258 . S
O218 C211 1.247 . S
O218 Zn215 2.028 . S
O219 C211 1.258 . S
O219 Zn213 2.035 . S
O220 Zn213 2.028 . S
O220 C223 1.247 . S
O221 Zn215 2.035 . S
O221 C223 1.258 . S
C222 O216 1.247 . S
C222 O217 1.258 . S
C223 O220 1.247 . S
C223 O221 1.258 . S
H224 C230 0.930 . S
H225 C233 0.930 . S
H226 C234 0.930 1_554 S
H227 C235 0.930 . S
H228 C238 0.930 . S
H229 C239 0.930 1_556 S
C230 H224 0.930 . S
C230 C231 1.355 . S
C230 C232 1.415 . S
C231 C230 1.355 . S
C231 C233 1.419 . S
C232 C230 1.415 . S
C232 C237 1.425 1_556 S
C232 C239 1.409 1_556 S
C233 H225 0.930 . S
C233 C231 1.419 . S
C233 C234 1.362 . S
C234 H226 0.930 1_556 S
C234 C233 1.362 . S
C234 C237 1.409 1_556 S
C235 H227 0.930 . S
C235 C236 1.355 . S
C235 C237 1.415 . S
C236 C235 1.355 . S
C236 C238 1.419 . S
C237 C232 1.425 1_554 S
C237 C234 1.409 1_554 S
C237 C235 1.415 . S
C238 H228 0.930 . S
C238 C236 1.419 . S
C238 C239 1.362 . S
C239 H229 0.930 1_554 S
C239 C232 1.409 1_554 S
C239 C238 1.362 . S
H240 C246 0.930 . S
H241 C249 0.930 . S
H242 C250 0.930 . S
H243 C251 0.930 . S
H244 C254 0.930 . S
H245 C255 0.930 . S
C246 H240 0.930 . S
C246 C247 1.355 . S
C246 C248 1.415 . S
C247 C246 1.355 . S
C247 C249 1.419 . S
C248 C246 1.415 . S
C248 C253 1.425 . S
C248 C255 1.409 . S
C249 H241 0.930 . S
C249 C247 1.419 . S
C249 C250 1.362 . S
C250 H242 0.930 . S
C250 C249 1.362 . S
C250 C253 1.409 . S
C251 H243 0.930 . S
C251 C252 1.355 . S
C251 C253 1.415 . S
C252 C251 1.355 . S
C252 C254 1.419 . S
C253 C248 1.425 . S
C253 C250 1.409 . S
C253 C251 1.415 . S
C254 H244 0.930 . S
C254 C252 1.419 . S
C254 C255 1.362 . S
C255 H245 0.930 . S
C255 C248 1.409 . S
C255 C254 1.362 . S
H256 C262 0.930 . S
H257 C265 0.930 . S
H258 C266 0.930 1_554 S
H259 C267 0.930 . S
H260 C270 0.930 . S
H261 C271 0.930 1_556 S
C262 H256 0.930 . S
C262 C263 1.355 . S
C262 C264 1.415 . S
C263 C262 1.355 . S
C263 C265 1.419 . S
C264 C262 1.415 . S
C264 C269 1.425 1_556 S
C264 C271 1.409 1_556 S
C265 H257 0.930 . S
C265 C263 1.419 . S
C265 C266 1.362 . S
C266 H258 0.930 1_556 S
C266 C265 1.362 . S
C266 C269 1.409 1_556 S
C267 H259 0.930 . S
C267 C268 1.355 . S
C267 C269 1.415 . S
C268 C267 1.355 . S
C268 C270 1.419 . S
C269 C264 1.425 1_554 S
C269 C266 1.409 1_554 S
C269 C267 1.415 . S
C270 H260 0.930 . S
C270 C268 1.419 . S
C270 C271 1.362 . S
C271 H261 0.930 1_554 S
C271 C264 1.409 1_554 S
C271 C270 1.362 . S
H272 C278 0.930 . S
H273 C281 0.930 . S
H274 C282 0.930 . S
H275 C283 0.930 . S
H276 C286 0.930 . S
H277 C287 0.930 . S
C278 H272 0.930 . S
C278 C279 1.355 . S
C278 C280 1.415 . S
C279 C278 1.355 . S
C279 C281 1.419 . S
C280 C278 1.415 . S
C280 C285 1.425 . S
C280 C287 1.409 . S
C281 H273 0.930 . S
C281 C279 1.419 . S
C281 C282 1.362 . S
C282 H274 0.930 . S
C282 C281 1.362 . S
C282 C285 1.409 . S
C283 H275 0.930 . S
C283 C284 1.355 . S
C283 C285 1.415 . S
C284 C283 1.355 . S
C284 C286 1.419 . S
C285 C280 1.425 . S
C285 C282 1.409 . S
C285 C283 1.415 . S
C286 H276 0.930 . S
C286 C284 1.419 . S
C286 C287 1.362 . S
C287 H277 0.930 . S
C287 C280 1.409 . S
C287 C286 1.362 . S
H288 C294 0.930 . S
H289 C297 0.930 . S
H290 C298 0.930 1_556 S
H291 C299 0.930 . S
H292 C302 0.930 . S
H293 C303 0.930 1_554 S
C294 H288 0.930 . S
C294 C295 1.355 . S
C294 C296 1.415 . S
C295 C294 1.355 . S
C295 C297 1.419 . S
C296 C294 1.415 . S
C296 C301 1.425 1_554 S
C296 C303 1.409 1_554 S
C297 H289 0.930 . S
C297 C295 1.419 . S
C297 C298 1.362 . S
C298 H290 0.930 1_554 S
C298 C297 1.362 . S
C298 C301 1.409 1_554 S
C299 H291 0.930 . S
C299 C300 1.355 . S
C299 C301 1.415 . S
C300 C299 1.355 . S
C300 C302 1.419 . S
C301 C296 1.425 1_556 S
C301 C298 1.409 1_556 S
C301 C299 1.415 . S
C302 H292 0.930 . S
C302 C300 1.419 . S
C302 C303 1.362 . S
C303 H293 0.930 1_556 S
C303 C296 1.409 1_556 S
C303 C302 1.362 . S
H304 C310 0.930 . S
H305 C313 0.930 . S
H306 C314 0.930 . S
H307 C315 0.930 . S
H308 C318 0.930 . S
H309 C319 0.930 . S
C310 H304 0.930 . S
C310 C311 1.355 . S
C310 C312 1.415 . S
C311 C310 1.355 . S
C311 C313 1.419 . S
C312 C310 1.415 . S
C312 C317 1.425 . S
C312 C319 1.409 . S
C313 H305 0.930 . S
C313 C311 1.419 . S
C313 C314 1.362 . S
C314 H306 0.930 . S
C314 C313 1.362 . S
C314 C317 1.409 . S
C315 H307 0.930 . S
C315 C316 1.355 . S
C315 C317 1.415 . S
C316 C315 1.355 . S
C316 C318 1.419 . S
C317 C312 1.425 . S
C317 C314 1.409 . S
C317 C315 1.415 . S
C318 H308 0.930 . S
C318 C316 1.419 . S
C318 C319 1.362 . S
C319 H309 0.930 . S
C319 C312 1.409 . S
C319 C318 1.362 . S
H320 C326 0.930 . S
H321 C329 0.930 . S
H322 C330 0.930 . S
H323 C331 0.930 . S
H324 C334 0.930 . S
H325 C335 0.930 . S
C326 H320 0.930 . S
C326 C327 1.355 . S
C326 C328 1.423 . S
C327 C326 1.355 . S
C327 C329 1.419 . S
C328 C326 1.423 . S
C328 C333 1.425 1_556 S
C328 C335 1.401 1_556 S
C329 H321 0.930 . S
C329 C327 1.419 . S
C329 C330 1.362 . S
C330 H322 0.930 . S
C330 C329 1.362 . S
C330 C333 1.401 1_556 S
C331 H323 0.930 . S
C331 C332 1.355 . S
C331 C333 1.423 . S
C332 C331 1.355 . S
C332 C334 1.419 . S
C333 C328 1.425 1_554 S
C333 C330 1.401 1_554 S
C333 C331 1.423 . S
C334 H324 0.930 . S
C334 C332 1.419 . S
C334 C335 1.362 . S
C335 H325 0.930 . S
C335 C328 1.401 1_554 S
C335 C334 1.362 . S
H336 C342 0.930 . S
H337 C345 0.930 . S
H338 C346 0.930 . S
H339 C347 0.930 . S
H340 C350 0.930 . S
H341 C351 0.930 . S
C342 H336 0.930 . S
C342 C343 1.355 . S
C342 C344 1.415 . S
C343 C342 1.355 . S
C343 C345 1.419 . S
C344 C342 1.415 . S
C344 C349 1.425 . S
C344 C351 1.409 . S
C345 H337 0.930 . S
C345 C343 1.419 . S
C345 C346 1.362 . S
C346 H338 0.930 . S
C346 C345 1.362 . S
C346 C349 1.409 . S
C347 H339 0.930 . S
C347 C348 1.355 . S
C347 C349 1.415 . S
C348 C347 1.355 . S
C348 C350 1.419 . S
C349 C344 1.425 . S
C349 C346 1.409 . S
C349 C347 1.415 . S
C350 H340 0.930 . S
C350 C348 1.419 . S
C350 C351 1.362 . S
C351 H341 0.930 . S
C351 C344 1.409 . S
C351 C350 1.362 . S
H352 C358 0.930 . S
H353 C361 0.930 . S
H354 C362 0.930 . S
H355 C363 0.930 . S
H356 C366 0.930 . S
H357 C367 0.930 . S
C358 H352 0.930 . S
C358 C359 1.355 . S
C358 C360 1.415 . S
C359 C358 1.355 . S
C359 C361 1.419 . S
C360 C358 1.415 . S
C360 C365 1.425 . S
C360 C367 1.409 . S
C361 H353 0.930 . S
C361 C359 1.419 . S
C361 C362 1.362 . S
C362 H354 0.930 . S
C362 C361 1.362 . S
C362 C365 1.409 . S
C363 H355 0.930 . S
C363 C364 1.355 . S
C363 C365 1.415 . S
C364 C363 1.355 . S
C364 C366 1.419 . S
C365 C360 1.425 . S
C365 C362 1.409 . S
C365 C363 1.415 . S
C366 H356 0.930 . S
C366 C364 1.419 . S
C366 C367 1.362 . S
C367 H357 0.930 . S
C367 C360 1.409 . S
C367 C366 1.362 . S
H368 C374 0.930 . S
H369 C377 0.930 . S
H370 C378 0.930 . S
H371 C379 0.930 . S
H372 C382 0.930 . S
H373 C383 0.930 . S
C374 H368 0.930 . S
C374 C375 1.355 . S
C374 C376 1.415 . S
C375 C374 1.355 . S
C375 C377 1.419 . S
C376 C374 1.415 . S
C376 C381 1.425 . S
C376 C383 1.409 . S
C377 H369 0.930 . S
C377 C375 1.419 . S
C377 C378 1.362 . S
C378 H370 0.930 . S
C378 C377 1.362 . S
C378 C381 1.409 . S
C379 H371 0.930 . S
C379 C380 1.355 . S
C379 C381 1.415 . S
C380 C379 1.355 . S
C380 C382 1.419 . S
C381 C376 1.425 . S
C381 C378 1.409 . S
C381 C379 1.415 . S
C382 H372 0.930 . S
C382 C380 1.419 . S
C382 C383 1.362 . S
C383 H373 0.930 . S
C383 C376 1.409 . S
C383 C382 1.362 . S
H384 C390 0.930 . S
H385 C393 0.930 . S
H386 C394 0.930 . S
H387 C395 0.930 . S
H388 C398 0.930 . S
H389 C399 0.930 . S
C390 H384 0.930 . S
C390 C391 1.355 . S
C390 C392 1.415 . S
C391 C390 1.355 . S
C391 C393 1.419 . S
C392 C390 1.415 . S
C392 C397 1.425 . S
C392 C399 1.409 . S
C393 H385 0.930 . S
C393 C391 1.419 . S
C393 C394 1.362 . S
C394 H386 0.930 . S
C394 C393 1.362 . S
C394 C397 1.409 . S
C395 H387 0.930 . S
C395 C396 1.355 . S
C395 C397 1.415 . S
C396 C395 1.355 . S
C396 C398 1.419 . S
C397 C392 1.425 . S
C397 C394 1.409 . S
C397 C395 1.415 . S
C398 H388 0.930 . S
C398 C396 1.419 . S
C398 C399 1.362 . S
C399 H389 0.930 . S
C399 C392 1.409 . S
C399 C398 1.362 . S
H400 C406 0.930 . S
H401 C409 0.930 . S
H402 C410 0.930 . S
H403 C411 0.930 . S
H404 C414 0.930 . S
H405 C415 0.930 . S
C406 H400 0.930 . S
C406 C407 1.355 . S
C406 C408 1.415 . S
C407 C406 1.355 . S
C407 C409 1.419 . S
C408 C406 1.415 . S
C408 C413 1.425 . S
C408 C415 1.409 . S
C409 H401 0.930 . S
C409 C407 1.419 . S
C409 C410 1.362 . S
C410 H402 0.930 . S
C410 C409 1.362 . S
C410 C413 1.409 . S
C411 H403 0.930 . S
C411 C412 1.355 . S
C411 C413 1.415 . S
C412 C411 1.355 . S
C412 C414 1.419 . S
C413 C408 1.425 . S
C413 C410 1.409 . S
C413 C411 1.415 . S
C414 H404 0.930 . S
C414 C412 1.419 . S
C414 C415 1.362 . S
C415 H405 0.930 . S
C415 C408 1.409 . S
C415 C414 1.362 . S
H416 C422 0.930 . S
H417 C425 0.930 . S
H418 C426 0.930 . S
H419 C427 0.930 . S
H420 C430 0.930 . S
H421 C431 0.930 . S
C422 H416 0.930 . S
C422 C423 1.355 . S
C422 C424 1.415 . S
C423 C422 1.355 . S
C423 C425 1.419 . S
C424 C422 1.415 . S
C424 C429 1.425 . S
C424 C431 1.409 . S
C425 H417 0.930 . S
C425 C423 1.419 . S
C425 C426 1.362 . S
C426 H418 0.930 . S
C426 C425 1.362 . S
C426 C429 1.409 . S
C427 H419 0.930 . S
C427 C428 1.355 . S
C427 C429 1.415 . S
C428 C427 1.355 . S
C428 C430 1.419 . S
C429 C424 1.425 . S
C429 C426 1.409 . S
C429 C427 1.415 . S
C430 H420 0.930 . S
C430 C428 1.419 . S
C430 C431 1.362 . S
C431 H421 0.930 . S
C431 C424 1.409 . S
C431 C430 1.362 . S
H432 C438 0.930 . S
H433 C441 0.930 . S
H434 C442 0.930 . S
H435 C443 0.930 . S
H436 C446 0.930 . S
H437 C447 0.930 . S
C438 H432 0.930 . S
C438 C439 1.355 . S
C438 C440 1.415 . S
C439 C438 1.355 . S
C439 C441 1.419 . S
C440 C438 1.415 . S
C440 C445 1.425 . S
C440 C447 1.409 . S
C441 H433 0.930 . S
C441 C439 1.419 . S
C441 C442 1.362 . S
C442 H434 0.930 . S
C442 C441 1.362 . S
C442 C445 1.409 . S
C443 H435 0.930 . S
C443 C444 1.355 . S
C443 C445 1.415 . S
C444 C443 1.355 . S
C444 C446 1.419 . S
C445 C440 1.425 . S
C445 C442 1.409 . S
C445 C443 1.415 . S
C446 H436 0.930 . S
C446 C444 1.419 . S
C446 C447 1.362 . S
C447 H437 0.930 . S
C447 C440 1.409 . S
C447 C446 1.362 . S
H448 C454 0.930 . S
H449 C457 0.930 . S
H450 C458 0.930 . S
H451 C459 0.930 . S
H452 C462 0.930 . S
H453 C463 0.930 . S
C454 H448 0.930 . S
C454 C455 1.355 . S
C454 C456 1.415 . S
C455 C454 1.355 . S
C455 C457 1.419 . S
C456 C454 1.415 . S
C456 C461 1.425 . S
C456 C463 1.409 . S
C457 H449 0.930 . S
C457 C455 1.419 . S
C457 C458 1.362 . S
C458 H450 0.930 . S
C458 C457 1.362 . S
C458 C461 1.409 . S
C459 H451 0.930 . S
C459 C460 1.355 . S
C459 C461 1.415 . S
C460 C459 1.355 . S
C460 C462 1.419 . S
C461 C456 1.425 . S
C461 C458 1.409 . S
C461 C459 1.415 . S
C462 H452 0.930 . S
C462 C460 1.419 . S
C462 C463 1.362 . S
C463 H453 0.930 . S
C463 C456 1.409 . S
C463 C462 1.362 . S
H464 C470 0.930 . S
H465 C473 0.930 . S
H466 C474 0.930 . S
H467 C475 0.930 . S
H468 C478 0.930 . S
H469 C479 0.930 . S
C470 H464 0.930 . S
C470 C471 1.355 . S
C470 C472 1.415 . S
C471 C470 1.355 . S
C471 C473 1.419 . S
C472 C470 1.415 . S
C472 C477 1.425 . S
C472 C479 1.409 . S
C473 H465 0.930 . S
C473 C471 1.419 . S
C473 C474 1.362 . S
C474 H466 0.930 . S
C474 C473 1.362 . S
C474 C477 1.409 . S
C475 H467 0.930 . S
C475 C476 1.355 . S
C475 C477 1.415 . S
C476 C475 1.355 . S
C476 C478 1.419 . S
C477 C472 1.425 . S
C477 C474 1.409 . S
C477 C475 1.415 . S
C478 H468 0.930 . S
C478 C476 1.419 . S
C478 C479 1.362 . S
C479 H469 0.930 . S
C479 C472 1.409 . S
C479 C478 1.362 . S
H480 C486 0.930 . S
H481 C489 0.930 . S
H482 C490 0.930 . S
H483 C491 0.930 . S
H484 C494 0.930 . S
H485 C495 0.930 . S
C486 H480 0.930 . S
C486 C487 1.355 . S
C486 C488 1.415 . S
C487 C486 1.355 . S
C487 C489 1.419 . S
C488 C486 1.415 . S
C488 C493 1.425 . S
C488 C495 1.409 . S
C489 H481 0.930 . S
C489 C487 1.419 . S
C489 C490 1.362 . S
C490 H482 0.930 . S
C490 C489 1.362 . S
C490 C493 1.409 . S
C491 H483 0.930 . S
C491 C492 1.355 . S
C491 C493 1.415 . S
C492 C491 1.355 . S
C492 C494 1.419 . S
C493 C488 1.425 . S
C493 C490 1.409 . S
C493 C491 1.415 . S
C494 H484 0.930 . S
C494 C492 1.419 . S
C494 C495 1.362 . S
C495 H485 0.930 . S
C495 C488 1.409 . S
C495 C494 1.362 . S
H496 C502 0.930 . S
H497 C505 0.930 . S
H498 C506 0.930 . S
H499 C507 0.930 . S
H500 C510 0.930 . S
H501 C511 0.930 . S
C502 H496 0.930 . S
C502 C503 1.355 . S
C502 C504 1.415 . S
C503 C502 1.355 . S
C503 C505 1.419 . S
C504 C502 1.415 . S
C504 C509 1.425 . S
C504 C511 1.409 . S
C505 H497 0.930 . S
C505 C503 1.419 . S
C505 C506 1.362 . S
C506 H498 0.930 . S
C506 C505 1.362 . S
C506 C509 1.409 . S
C507 H499 0.930 . S
C507 C508 1.355 . S
C507 C509 1.415 . S
C508 C507 1.355 . S
C508 C510 1.419 . S
C509 C504 1.425 . S
C509 C506 1.409 . S
C509 C507 1.415 . S
C510 H500 0.930 . S
C510 C508 1.419 . S
C510 C511 1.362 . S
C511 H501 0.930 . S
C511 C504 1.409 . S
C511 C510 1.362 . S
H512 C518 0.930 . S
H513 C521 0.930 . S
H514 C522 0.930 . S
H515 C523 0.930 . S
H516 C526 0.930 . S
H517 C527 0.930 . S
C518 H512 0.930 . S
C518 C519 1.355 . S
C518 C520 1.415 . S
C519 C518 1.355 . S
C519 C521 1.419 . S
C520 C518 1.415 . S
C520 C525 1.425 . S
C520 C527 1.409 . S
C521 H513 0.930 . S
C521 C519 1.419 . S
C521 C522 1.362 . S
C522 H514 0.930 . S
C522 C521 1.362 . S
C522 C525 1.409 . S
C523 H515 0.930 . S
C523 C524 1.355 . S
C523 C525 1.415 . S
C524 C523 1.355 . S
C524 C526 1.419 . S
C525 C520 1.425 . S
C525 C522 1.409 . S
C525 C523 1.415 . S
C526 H516 0.930 . S
C526 C524 1.419 . S
C526 C527 1.362 . S
C527 H517 0.930 . S
C527 C520 1.409 . S
C527 C526 1.362 . S
H528 C534 0.930 . S
H529 C537 0.930 . S
H530 C538 0.930 . S
H531 C539 0.930 . S
H532 C542 0.930 . S
H533 C543 0.930 . S
C534 H528 0.930 . S
C534 C535 1.355 . S
C534 C536 1.415 . S
C535 C534 1.355 . S
C535 C537 1.419 . S
C536 C534 1.415 . S
C536 C541 1.425 . S
C536 C543 1.409 . S
C537 H529 0.930 . S
C537 C535 1.419 . S
C537 C538 1.362 . S
C538 H530 0.930 . S
C538 C537 1.362 . S
C538 C541 1.409 . S
C539 H531 0.930 . S
C539 C540 1.355 . S
C539 C541 1.415 . S
C540 C539 1.355 . S
C540 C542 1.419 . S
C541 C536 1.425 . S
C541 C538 1.409 . S
C541 C539 1.415 . S
C542 H532 0.930 . S
C542 C540 1.419 . S
C542 C543 1.362 . S
C543 H533 0.930 . S
C543 C536 1.409 . S
C543 C542 1.362 . S
H544 C550 0.930 . S
H545 C553 0.930 . S
H546 C554 0.930 . S
H547 C555 0.930 . S
H548 C558 0.930 . S
H549 C559 0.930 . S
C550 H544 0.930 . S
C550 C551 1.355 . S
C550 C552 1.415 . S
C551 C550 1.355 . S
C551 C553 1.419 . S
C552 C550 1.415 . S
C552 C557 1.425 . S
C552 C559 1.409 . S
C553 H545 0.930 . S
C553 C551 1.419 . S
C553 C554 1.362 . S
C554 H546 0.930 . S
C554 C553 1.362 . S
C554 C557 1.409 . S
C555 H547 0.930 . S
C555 C556 1.355 . S
C555 C557 1.415 . S
C556 C555 1.355 . S
C556 C558 1.419 . S
C557 C552 1.425 . S
C557 C554 1.409 . S
C557 C555 1.415 . S
C558 H548 0.930 . S
C558 C556 1.419 . S
C558 C559 1.362 . S
C559 H549 0.930 . S
C559 C552 1.409 . S
C559 C558 1.362 . S
H560 C566 0.930 . S
H561 C569 0.930 . S
H562 C570 0.930 . S
H563 C571 0.930 . S
H564 C574 0.930 . S
H565 C575 0.930 . S
C566 H560 0.930 . S
C566 C567 1.355 . S
C566 C568 1.415 . S
C567 C566 1.355 . S
C567 C569 1.419 . S
C568 C566 1.415 . S
C568 C573 1.425 . S
C568 C575 1.409 . S
C569 H561 0.930 . S
C569 C567 1.419 . S
C569 C570 1.362 . S
C570 H562 0.930 . S
C570 C569 1.362 . S
C570 C573 1.409 . S
C571 H563 0.930 . S
C571 C572 1.355 . S
C571 C573 1.415 . S
C572 C571 1.355 . S
C572 C574 1.419 . S
C573 C568 1.425 . S
C573 C570 1.409 . S
C573 C571 1.415 . S
C574 H564 0.930 . S
C574 C572 1.419 . S
C574 C575 1.362 . S
C575 H565 0.930 . S
C575 C568 1.409 . S
C575 C574 1.362 . S
H576 C582 0.930 . S
H577 C585 0.930 . S
H578 C586 0.930 . S
H579 C587 0.930 . S
H580 C590 0.930 . S
H581 C591 0.930 . S
C582 H576 0.930 . S
C582 C583 1.355 . S
C582 C584 1.415 . S
C583 C582 1.355 . S
C583 C585 1.419 . S
C584 C582 1.415 . S
C584 C589 1.425 . S
C584 C591 1.409 . S
C585 H577 0.930 . S
C585 C583 1.419 . S
C585 C586 1.362 . S
C586 H578 0.930 . S
C586 C585 1.362 . S
C586 C589 1.409 . S
C587 H579 0.930 . S
C587 C588 1.355 . S
C587 C589 1.415 . S
C588 C587 1.355 . S
C588 C590 1.419 . S
C589 C584 1.425 . S
C589 C586 1.409 . S
C589 C587 1.415 . S
C590 H580 0.930 . S
C590 C588 1.419 . S
C590 C591 1.362 . S
C591 H581 0.930 . S
C591 C584 1.409 . S
C591 C590 1.362 . S
H592 C598 0.930 . S
H593 C601 0.930 . S
H594 C602 0.930 . S
H595 C603 0.930 . S
H596 C606 0.930 . S
H597 C607 0.930 . S
C598 H592 0.930 . S
C598 C599 1.355 . S
C598 C600 1.415 . S
C599 C598 1.355 . S
C599 C601 1.419 . S
C600 C598 1.415 . S
C600 C605 1.425 . S
C600 C607 1.409 . S
C601 H593 0.930 . S
C601 C599 1.419 . S
C601 C602 1.362 . S
C602 H594 0.930 . S
C602 C601 1.362 . S
C602 C605 1.409 . S
C603 H595 0.930 . S
C603 C604 1.355 . S
C603 C605 1.415 . S
C604 C603 1.355 . S
C604 C606 1.419 . S
C605 C600 1.425 . S
C605 C602 1.409 . S
C605 C603 1.415 . S
C606 H596 0.930 . S
C606 C604 1.419 . S
C606 C607 1.362 . S
C607 H597 0.930 . S
C607 C600 1.409 . S
C607 C606 1.362 . S
H608 C614 0.930 1_545 S
H609 C617 0.930 . S
H610 C618 0.930 . S
H611 C619 0.930 . S
H612 C622 0.930 . S
H613 C623 0.930 . S
C614 H608 0.930 1_565 S
C614 C615 1.355 . S
C614 C616 1.415 . S
C615 C614 1.355 . S
C615 C617 1.419 . S
C616 C614 1.415 . S
C616 C621 1.425 . S
C616 C623 1.409 . S
C617 H609 0.930 . S
C617 C615 1.419 . S
C617 C618 1.362 . S
C618 H610 0.930 . S
C618 C617 1.362 . S
C618 C621 1.409 . S
C619 H611 0.930 . S
C619 C620 1.355 . S
C619 C621 1.415 . S
C620 C619 1.355 . S
C620 C622 1.419 . S
C621 C616 1.425 . S
C621 C618 1.409 . S
C621 C619 1.415 . S
C622 H612 0.930 . S
C622 C620 1.419 . S
C622 C623 1.362 . S
C623 H613 0.930 . S
C623 C616 1.409 . S
C623 C622 1.362 . S
H624 C630 0.930 . S
H625 C633 0.930 . S
H626 C634 0.930 . S
H627 C635 0.930 . S
H628 C638 0.930 . S
H629 C639 0.930 . S
C630 H624 0.930 . S
C630 C631 1.355 . S
C630 C632 1.415 . S
C631 C630 1.355 . S
C631 C633 1.419 . S
C632 C630 1.415 . S
C632 C637 1.425 . S
C632 C639 1.409 . S
C633 H625 0.930 . S
C633 C631 1.419 . S
C633 C634 1.362 . S
C634 H626 0.930 . S
C634 C633 1.362 . S
C634 C637 1.409 . S
C635 H627 0.930 . S
C635 C636 1.355 . S
C635 C637 1.415 . S
C636 C635 1.355 . S
C636 C638 1.419 . S
C637 C632 1.425 . S
C637 C634 1.409 . S
C637 C635 1.415 . S
C638 H628 0.930 . S
C638 C636 1.419 . S
C638 C639 1.362 . S
C639 H629 0.930 . S
C639 C632 1.409 . S
C639 C638 1.362 . S
H640 C646 0.930 . S
H641 C649 0.930 . S
H642 C650 0.930 . S
H643 C651 0.930 . S
H644 C654 0.930 . S
H645 C655 0.930 . S
C646 H640 0.930 . S
C646 C647 1.355 . S
C646 C648 1.415 . S
C647 C646 1.355 . S
C647 C649 1.419 . S
C648 C646 1.415 . S
C648 C653 1.425 . S
C648 C655 1.409 . S
C649 H641 0.930 . S
C649 C647 1.419 . S
C649 C650 1.362 . S
C650 H642 0.930 . S
C650 C649 1.362 . S
C650 C653 1.409 . S
C651 H643 0.930 . S
C651 C652 1.342 1_455 S
C651 C653 1.415 . S
C652 C651 1.342 1_655 S
C652 C654 1.424 . S
C653 C648 1.425 . S
C653 C650 1.409 . S
C653 C651 1.415 . S
C654 H644 0.930 . S
C654 C652 1.424 . S
C654 C655 1.362 1_655 S
C655 H645 0.930 . S
C655 C648 1.409 . S
C655 C654 1.362 1_455 S
H656 C662 0.930 1_565 S
H657 C665 0.930 . S
H658 C666 0.930 . S
H659 C667 0.930 . S
H660 C670 0.930 . S
H661 C671 0.930 1_455 S
C662 H656 0.930 1_545 S
C662 C663 1.355 . S
C662 C664 1.415 . S
C663 C662 1.355 . S
C663 C665 1.419 . S
C664 C662 1.415 . S
C664 C669 1.425 . S
C664 C671 1.409 . S
C665 H657 0.930 . S
C665 C663 1.419 . S
C665 C666 1.362 . S
C666 H658 0.930 . S
C666 C665 1.362 . S
C666 C669 1.409 . S
C667 H659 0.930 . S
C667 C668 1.351 . S
C667 C669 1.415 . S
C668 C667 1.351 . S
C668 C670 1.421 1_655 S
C669 C664 1.425 . S
C669 C666 1.409 . S
C669 C667 1.415 . S
C670 H660 0.930 . S
C670 C668 1.421 1_455 S
C670 C671 1.362 1_455 S
C671 H661 0.930 1_655 S
C671 C664 1.409 . S
C671 C670 1.362 1_655 S
H672 C678 0.930 . S
H673 C681 0.930 . S
H674 C682 0.930 . S
H675 C683 0.930 . S
H676 C686 0.930 . S
H677 C687 0.930 . S
C678 H672 0.930 . S
C678 C679 1.355 . S
C678 C680 1.415 . S
C679 C678 1.355 . S
C679 C681 1.419 . S
C680 C678 1.415 . S
C680 C685 1.425 . S
C680 C687 1.409 . S
C681 H673 0.930 . S
C681 C679 1.419 . S
C681 C682 1.362 . S
C682 H674 0.930 . S
C682 C681 1.362 . S
C682 C685 1.409 . S
C683 H675 0.930 . S
C683 C684 1.355 . S
C683 C685 1.415 . S
C684 C683 1.355 . S
C684 C686 1.419 . S
C685 C680 1.425 . S
C685 C682 1.409 . S
C685 C683 1.415 . S
C686 H676 0.930 . S
C686 C684 1.419 . S
C686 C687 1.362 . S
C687 H677 0.930 . S
C687 C680 1.409 . S
C687 C686 1.362 . S
H688 C694 0.930 1_455 S
H689 C697 0.930 . S
H690 C698 0.930 . S
H691 C699 0.930 . S
H692 C702 0.930 . S
H693 C703 0.930 . S
C694 H688 0.930 1_655 S
C694 C695 1.355 . S
C694 C696 1.415 . S
C695 C694 1.355 . S
C695 C697 1.419 . S
C696 C694 1.415 . S
C696 C701 1.425 . S
C696 C703 1.409 . S
C697 H689 0.930 . S
C697 C695 1.419 . S
C697 C698 1.362 . S
C698 H690 0.930 . S
C698 C697 1.362 . S
C698 C701 1.409 . S
C699 H691 0.930 . S
C699 C700 1.355 . S
C699 C701 1.415 . S
C700 C699 1.355 . S
C700 C702 1.419 . S
C701 C696 1.425 . S
C701 C698 1.409 . S
C701 C699 1.415 . S
C702 H692 0.930 . S
C702 C700 1.419 . S
C702 C703 1.362 . S
C703 H693 0.930 . S
C703 C696 1.409 . S
C703 C702 1.362 . S
H704 C710 0.930 . S
H705 C713 0.930 . S
H706 C714 0.930 1_655 S
H707 C715 0.930 1_545 S
H708 C718 0.930 . S
H709 C719 0.930 . S
C710 H704 0.930 . S
C710 C711 1.337 1_455 S
C710 C712 1.415 . S
C711 C710 1.337 1_655 S
C711 C713 1.426 . S
C712 C710 1.415 . S
C712 C717 1.425 . S
C712 C719 1.409 . S
C713 H705 0.930 . S
C713 C711 1.426 . S
C713 C714 1.362 1_655 S
C714 H706 0.930 1_455 S
C714 C713 1.362 1_455 S
C714 C717 1.409 . S
C715 H707 0.930 1_565 S
C715 C716 1.355 . S
C715 C717 1.415 . S
C716 C715 1.355 . S
C716 C718 1.419 . S
C717 C712 1.425 . S
C717 C714 1.409 . S
C717 C715 1.415 . S
C718 H708 0.930 . S
C718 C716 1.419 . S
C718 C719 1.362 . S
C719 H709 0.930 . S
C719 C712 1.409 . S
C719 C718 1.362 . S
H720 C726 0.930 . S
H721 C729 0.930 . S
H722 C730 0.930 . S
H723 C731 0.930 . S
H724 C734 0.930 . S
H725 C735 0.930 . S
C726 H720 0.930 . S
C726 C727 1.356 . S
C726 C728 1.415 . S
C727 C726 1.356 . S
C727 C729 1.419 1_545 S
C728 C726 1.415 . S
C728 C733 1.425 . S
C728 C735 1.409 . S
C729 H721 0.930 . S
C729 C727 1.419 1_565 S
C729 C730 1.362 1_565 S
C730 H722 0.930 . S
C730 C729 1.362 1_545 S
C730 C733 1.409 . S
C731 H723 0.930 . S
C731 C732 1.355 . S
C731 C733 1.415 . S
C732 C731 1.355 . S
C732 C734 1.419 . S
C733 C728 1.425 . S
C733 C730 1.409 . S
C733 C731 1.415 . S
C734 H724 0.930 . S
C734 C732 1.419 . S
C734 C735 1.362 . S
C735 H725 0.930 . S
C735 C728 1.409 . S
C735 C734 1.362 . S
C231 C110 1.567 . S
C236 C0 1.591 . S
C247 C57 1.583 . S
C252 C15 1.571 . S
C263 C83 1.581 . S
C268 C29 1.576 . S
C279 C55 1.563 . S
C284 C97 1.593 . S
C295 C223 1.577 . S
C300 C112 1.581 . S
C311 C169 1.563 . S
C316 C126 1.592 . S
C327 C152 1.574 . S
C332 C183 1.580 . S
C343 C166 1.562 . S
C348 C196 1.594 . S
C359 C41 1.424 . S
C364 C12 1.431 . S
C375 C27 1.455 . S
C380 C43 1.468 . S
C391 C69 1.472 . S
C396 C85 1.461 . S
C407 C98 1.477 . S
C412 C71 1.474 . S
C423 C124 1.450 . S
C428 C140 1.436 . S
C439 C138 1.424 . S
C444 C154 1.426 . S
C455 C208 1.442 . S
C460 C181 1.458 . S
C471 C195 1.462 . S
C476 C211 1.447 . S
C487 C96 1.594 . S
C492 C1 1.596 . S
C503 C14 1.601 . S
C508 C111 1.599 . S
C519 C28 1.585 . S
C524 C56 1.587 . S
C535 C54 1.590 . S
C540 C82 1.594 . S
C551 C113 1.602 . S
C556 C197 1.601 . S
C567 C127 1.597 . S
C572 C222 1.599 . S
C583 C153 1.601 . S
C588 C168 1.600 . S
C599 C167 1.601 . S
C604 C182 1.599 . S
C615 C13 1.550 1_565 S
C620 C210 1.543 . S
C631 C180 1.539 . S
C636 C26 1.554 . S
C647 C40 1.553 . S
C652 C194 1.550 . S
C663 C209 1.549 1_545 S
C668 C42 1.548 1_655 S
C679 C139 1.552 . S
C684 C68 1.543 . S
C695 C70 1.557 1_655 S
C700 C141 1.538 . S
C711 C155 1.551 . S
C716 C84 1.556 1_565 S
C727 C125 1.535 1_545 S
C732 C99 1.558 . S
