# Generated by pormake.
# Topology sod, (4)-cn, num edge types: 1
# Building blocks:
#     Node 0, Type 0, BuildingBlock: QUQFOY_clean_sbu_1, # of connection points: 4
#     Node 1, Type 0, BuildingBlock: QUQFOY_clean_sbu_1, # of connection points: 4
#     Node 2, Type 0, BuildingBlock: QUQFOY_clean_sbu_1, # of connection points: 4
#     Node 3, Type 0, BuildingBlock: QUQFOY_clean_sbu_1, # of connection points: 4
#     Node 4, Type 0, BuildingBlock: QUQFOY_clean_sbu_1, # of connection points: 4
#     Node 5, Type 0, BuildingBlock: QUQFOY_clean_sbu_1, # of connection points: 4
#     Node 6, Type 0, BuildingBlock: QUQFOY_clean_sbu_1, # of connection points: 4
#     Node 7, Type 0, BuildingBlock: QUQFOY_clean_sbu_1, # of connection points: 4
#     Node 8, Type 0, BuildingBlock: QUQFOY_clean_sbu_1, # of connection points: 4
#     Node 9, Type 0, BuildingBlock: QUQFOY_clean_sbu_1, # of connection points: 4
#     Node 10, Type 0, BuildingBlock: QUQFOY_clean_sbu_1, # of connection points: 4
#     Node 11, Type 0, BuildingBlock: QUQFOY_clean_sbu_1, # of connection points: 4
#     Edge 12, Type (0, 0), BuildingBlock: CIFDUS_clean_linker_0, # of connection points: 2
#     Edge 13, Type (0, 0), BuildingBlock: CIFDUS_clean_linker_0, # of connection points: 2
#     Edge 14, Type (0, 0), BuildingBlock: CIFDUS_clean_linker_0, # of connection points: 2
#     Edge 15, Type (0, 0), BuildingBlock: CIFDUS_clean_linker_0, # of connection points: 2
#     Edge 16, Type (0, 0), BuildingBlock: CIFDUS_clean_linker_0, # of connection points: 2
#     Edge 17, Type (0, 0), BuildingBlock: CIFDUS_clean_linker_0, # of connection points: 2
#     Edge 18, Type (0, 0), BuildingBlock: CIFDUS_clean_linker_0, # of connection points: 2
#     Edge 19, Type (0, 0), BuildingBlock: CIFDUS_clean_linker_0, # of connection points: 2
#     Edge 20, Type (0, 0), BuildingBlock: CIFDUS_clean_linker_0, # of connection points: 2
#     Edge 21, Type (0, 0), BuildingBlock: CIFDUS_clean_linker_0, # of connection points: 2
#     Edge 22, Type (0, 0), BuildingBlock: CIFDUS_clean_linker_0, # of connection points: 2
#     Edge 23, Type (0, 0), BuildingBlock: CIFDUS_clean_linker_0, # of connection points: 2
#     Edge 24, Type (0, 0), BuildingBlock: CIFDUS_clean_linker_0, # of connection points: 2
#     Edge 25, Type (0, 0), BuildingBlock: CIFDUS_clean_linker_0, # of connection points: 2
#     Edge 26, Type (0, 0), BuildingBlock: CIFDUS_clean_linker_0, # of connection points: 2
#     Edge 27, Type (0, 0), BuildingBlock: CIFDUS_clean_linker_0, # of connection points: 2
#     Edge 28, Type (0, 0), BuildingBlock: CIFDUS_clean_linker_0, # of connection points: 2
#     Edge 29, Type (0, 0), BuildingBlock: CIFDUS_clean_linker_0, # of connection points: 2
#     Edge 30, Type (0, 0), BuildingBlock: CIFDUS_clean_linker_0, # of connection points: 2
#     Edge 31, Type (0, 0), BuildingBlock: CIFDUS_clean_linker_0, # of connection points: 2
#     Edge 32, Type (0, 0), BuildingBlock: CIFDUS_clean_linker_0, # of connection points: 2
#     Edge 33, Type (0, 0), BuildingBlock: CIFDUS_clean_linker_0, # of connection points: 2
#     Edge 34, Type (0, 0), BuildingBlock: CIFDUS_clean_linker_0, # of connection points: 2
#     Edge 35, Type (0, 0), BuildingBlock: CIFDUS_clean_linker_0, # of connection points: 2
# Relax obj value: 0.195
# Max RMSD: 0.257
# Mean RMSD: 0.228
data_MOF--net-sod--node1-QUQFOY_clean_sbu_1--edge1-CIFDUS_clean_linker_0
_symmetry_space_group_name_H-M    P1
_symmetry_Int_Tables_number       1
_symmetry_cell_setting            triclinic
loop_
_symmetry_equiv_pos_as_xyz
'x, y, z'
_cell_length_a     39.059287
_cell_length_b     39.052005
_cell_length_c     38.945039
_cell_angle_alpha  93.536637
_cell_angle_beta   89.324304
_cell_angle_gamma 97.335808
loop_
_atom_site_label
_atom_site_type_symbol
_atom_site_fract_x
_atom_site_fract_y
_atom_site_fract_z
_atom_type_partial_charge
O0 O 0.02875 0.23575 0.47183 0.0
Cd1 Cd 0.07257 0.27116 0.46916 0.0
Cd2 Cd 0.03766 0.30976 0.51512 0.0
O3 O 0.00955 0.26169 0.51878 0.0
O4 O 0.11229 0.24504 0.45868 0.0
O5 O 0.10507 0.27361 0.50873 0.0
C6 C 0.12246 0.25346 0.48986 0.0
C7 C 0.0415 0.34494 0.5663 0.0
C8 C 0.00792 0.23588 0.49711 0.0
C9 C 0.05264 0.33439 0.44274 0.0
O10 O 0.03555 0.3361 0.47067 0.0
O11 O 0.07255 0.31132 0.43738 0.0
O12 O 0.01352 0.33908 0.54863 0.0
O13 O 0.06781 0.33064 0.55497 0.0
O14 O 0.76306 0.06136 0.58485 0.0
Cd15 Cd 0.79214 0.05366 0.54087 0.0
Cd16 Cd 0.82918 0.02515 0.58767 0.0
O17 O 0.78721 0.0287 0.61923 0.0
O18 O 0.76326 0.06814 0.50391 0.0
O19 O 0.77457 0.01441 0.50698 0.0
C20 C 0.75911 0.0365 0.49169 0.0
C21 C 0.84877 0.97222 0.57485 0.0
C22 C 0.76372 0.04717 0.61332 0.0
C23 C 0.86424 0.0873 0.55558 0.0
O24 O 0.86393 0.06883 0.58135 0.0
O25 O 0.83927 0.08303 0.53451 0.0
O26 O 0.85523 0.98894 0.60417 0.0
O27 O 0.83023 0.98534 0.55301 0.0
O28 O 0.06479 0.83723 0.52162 0.0
Cd29 Cd 0.02158 0.8025 0.53065 0.0
Cd30 Cd 0.06887 0.77172 0.56199 0.0
O31 O 0.0954 0.82092 0.56342 0.0
O32 O 0.98258 0.82684 0.51732 0.0
O33 O 0.99127 0.81386 0.57077 0.0
C34 C 0.97359 0.82835 0.54926 0.0
C35 C 0.06297 0.74118 0.61169 0.0
C36 C 0.09087 0.84241 0.54127 0.0
C37 C 0.03847 0.73697 0.4974 0.0
O38 O 0.06546 0.7418 0.5159 0.0
O39 O 0.01474 0.75607 0.50244 0.0
O40 O 0.09183 0.74524 0.59509 0.0
O41 O 0.0375 0.75547 0.60053 0.0
O42 O 0.23551 0.03397 0.57575 0.0
Cd43 Cd 0.27024 0.07787 0.56932 0.0
Cd44 Cd 0.30511 0.03213 0.53486 0.0
O45 O 0.2576 0.00265 0.53411 0.0
O46 O 0.2444 0.11844 0.5766 0.0
O47 O 0.26675 0.10293 0.52633 0.0
C48 C 0.24911 0.12349 0.54436 0.0
C49 C 0.33949 0.03184 0.48548 0.0
C50 C 0.23377 0.00678 0.55583 0.0
C51 C 0.33426 0.0644 0.60181 0.0
O52 O 0.33272 0.03853 0.58022 0.0
O53 O 0.31341 0.0866 0.5999 0.0
O54 O 0.33469 0.00563 0.50427 0.0
O55 O 0.32365 0.0582 0.49411 0.0
O56 O 0.52426 0.99478 0.24778 0.0
Cd57 Cd 0.52326 0.03658 0.28292 0.0
Cd58 Cd 0.55916 0.99618 0.32101 0.0
O59 O 0.55992 0.96673 0.27535 0.0
O60 O 0.5077 0.07344 0.25604 0.0
O61 O 0.55989 0.0773 0.27855 0.0
C62 C 0.53796 0.09052 0.26044 0.0
C63 C 0.61053 0.01182 0.35111 0.0
C64 C 0.54227 0.96993 0.24882 0.0
C65 C 0.49015 0.01213 0.34826 0.0
O66 O 0.51444 0.99354 0.35016 0.0
O67 O 0.48994 0.03277 0.32433 0.0
O68 O 0.59462 0.98077 0.35079 0.0
O69 O 0.59751 0.03404 0.33357 0.0
O70 O 0.01862 0.57965 0.33583 0.0
Cd71 Cd 0.00802 0.53721 0.30246 0.0
Cd72 Cd 0.06077 0.57471 0.26379 0.0
O73 O 0.06549 0.604 0.31028 0.0
O74 O 0.98262 0.50203 0.33117 0.0
O75 O 0.03383 0.49647 0.30817 0.0
C76 C 0.00855 0.48472 0.32766 0.0
C77 C 0.11088 0.5731 0.23034 0.0
C78 C 0.04443 0.60291 0.33546 0.0
C79 C 0.98674 0.55918 0.23553 0.0
O80 O 0.01758 0.57382 0.23305 0.0
O81 O 0.97714 0.54182 0.2612 0.0
O82 O 0.09594 0.60057 0.23461 0.0
O83 O 0.09816 0.54638 0.24639 0.0
O84 O 0.5255 0.08483 0.83637 0.0
Cd85 Cd 0.51879 0.04085 0.80296 0.0
Cd86 Cd 0.55207 0.09177 0.76049 0.0
O87 O 0.55288 0.12396 0.80377 0.0
O88 O 0.49378 0.00758 0.83394 0.0
O89 O 0.54509 0.00068 0.81258 0.0
C90 C 0.51941 0.98991 0.83194 0.0
C91 C 0.60214 0.0889 0.7283 0.0
C92 C 0.53973 0.11551 0.83243 0.0
C93 C 0.48267 0.05743 0.73837 0.0
O94 O 0.50655 0.08207 0.73433 0.0
O95 O 0.48398 0.03714 0.76249 0.0
O96 O 0.58502 0.11497 0.72757 0.0
O97 O 0.59112 0.06448 0.74818 0.0
O98 O -0.00033 0.49954 0.73057 0.0
Cd99 Cd 0.00031 0.54119 0.76606 0.0
Cd100 Cd 0.04087 0.49769 0.80151 0.0
O101 O 0.03882 0.47184 0.75348 0.0
O102 O 0.97867 0.57566 0.74077 0.0
O103 O 0.03321 0.58395 0.75718 0.0
C104 C 0.00809 0.59479 0.74145 0.0
C105 C 0.09277 0.50288 0.83196 0.0
C106 C 0.01876 0.47544 0.72886 0.0
C107 C 0.97332 0.51523 0.83351 0.0
O108 O 0.99736 0.49607 0.83262 0.0
O109 O 0.97139 0.53661 0.81053 0.0
O110 O 0.07328 0.47375 0.82785 0.0
O111 O 0.08324 0.52924 0.8179 0.0
O112 O 0.35589 0.55431 0.04849 0.0
Cd113 Cd 0.31965 0.51217 0.05766 0.0
Cd114 Cd 0.27762 0.5535 0.01991 0.0
O115 O 0.32473 0.58313 0.01623 0.0
O116 O 0.34741 0.47901 0.07772 0.0
O117 O 0.32212 0.46908 0.02695 0.0
C118 C 0.3416 0.45933 0.0501 0.0
C119 C 0.24164 0.54862 0.97165 0.0
C120 C 0.35318 0.57974 0.03026 0.0
C121 C 0.25634 0.53573 0.09257 0.0
O122 O 0.25256 0.55316 0.06669 0.0
O123 O 0.28022 0.51649 0.0932 0.0
O124 O 0.24749 0.57701 0.99046 0.0
O125 O 0.25664 0.52271 0.97997 0.0
O126 O 0.57357 0.33833 0.04496 0.0
Cd127 Cd 0.52978 0.30316 0.03868 0.0
Cd128 Cd 0.56889 0.26364 0.07653 0.0
O129 O 0.60475 0.30719 0.07463 0.0
O130 O 0.49512 0.32993 0.01949 0.0
O131 O 0.48973 0.30849 0.07081 0.0
C132 C 0.4779 0.32621 0.04772 0.0
C133 C 0.55719 0.23752 0.12829 0.0
C134 C 0.60134 0.33493 0.06032 0.0
C135 C 0.54534 0.23454 0.00639 0.0
O136 O 0.56178 0.2304 0.03343 0.0
O137 O 0.53085 0.26156 0.00352 0.0
O138 O 0.58596 0.23566 0.11215 0.0
O139 O 0.53534 0.25551 0.11562 0.0
O140 O 0.73025 0.53698 0.07124 0.0
Cd141 Cd 0.76587 0.5807 0.07403 0.0
Cd142 Cd 0.80636 0.53733 0.03736 0.0
O143 O 0.76243 0.50237 0.04236 0.0
O144 O 0.73909 0.62032 0.08406 0.0
O145 O 0.76669 0.61192 0.03486 0.0
C146 C 0.74667 0.62963 0.05338 0.0
C147 C 0.83651 0.53612 0.98509 0.0
C148 C 0.73418 0.50754 0.05712 0.0
C149 C 0.83192 0.56907 0.10685 0.0
O150 O 0.83705 0.55041 0.07989 0.0
O151 O 0.80479 0.58385 0.11016 0.0
O152 O 0.83673 0.51209 0.00625 0.0
O153 O 0.81826 0.5608 0.99318 0.0
O154 O 0.52001 0.73878 0.98738 0.0
Cd155 Cd 0.56432 0.77405 0.98344 0.0
Cd156 Cd 0.52418 0.81683 0.02235 0.0
O157 O 0.48978 0.77257 0.01984 0.0
O158 O 0.60335 0.74663 0.97351 0.0
O159 O 0.59767 0.77714 0.02266 0.0
C160 C 0.61442 0.75613 0.00416 0.0
C161 C 0.52367 0.85218 0.07314 0.0
C162 C 0.49266 0.74369 0.00401 0.0
C163 C 0.54933 0.83816 0.9516 0.0
O164 O 0.53155 0.84316 0.97851 0.0
O165 O 0.56626 0.8124 0.94828 0.0
O166 O 0.49889 0.84916 0.05129 0.0
O167 O 0.54903 0.83457 0.06652 0.0
H168 H 0.99883 0.37034 0.43538 0.0
H169 H 0.09757 0.35421 0.39088 0.0
H170 H 0.0919 0.39803 0.3496 0.0
H171 H 0.06001 0.44327 0.32839 0.0
H172 H 0.96058 0.45747 0.37284 0.0
H173 H 0.9653 0.41181 0.41157 0.0
C174 C 0.01912 0.37636 0.41662 0.0
C175 C 0.04877 0.35941 0.41648 0.0
C176 C 0.01554 0.40121 0.39288 0.0
C177 C 0.07453 0.36703 0.3916 0.0
C178 C 0.07132 0.3921 0.36803 0.0
C179 C 0.03923 0.43608 0.34628 0.0
C180 C 0.01013 0.45403 0.34784 0.0
C181 C 0.04209 0.40967 0.36871 0.0
C182 C 0.98335 0.44426 0.37109 0.0
C183 C 0.98604 0.41818 0.3934 0.0
H184 H 0.73028 0.07831 0.45037 0.0
H185 H 0.73467 0.97081 0.46749 0.0
H186 H 0.69047 0.95362 0.42365 0.0
H187 H 0.64754 0.96935 0.38383 0.0
H188 H 0.64326 0.07691 0.36678 0.0
H189 H 0.69072 0.09384 0.40712 0.0
C190 C 0.72182 0.05109 0.44431 0.0
C191 C 0.7355 0.02588 0.46242 0.0
C192 C 0.69631 0.04143 0.41924 0.0
C193 C 0.72451 0.99073 0.45399 0.0
C194 C 0.69914 0.98089 0.42902 0.0
C195 C 0.65717 0.9965 0.3887 0.0
C196 C 0.64163 0.02186 0.37258 0.0
C197 C 0.68437 0.00605 0.41201 0.0
C198 C 0.65467 0.05687 0.37891 0.0
C199 C 0.68175 0.06658 0.40206 0.0
H200 H 0.99583 0.62251 0.37967 0.0
H201 H 0.10471 0.64149 0.35689 0.0
H202 H 0.113 0.68327 0.40657 0.0
H203 H 0.08886 0.71491 0.45619 0.0
H204 H 0.97921 0.6986 0.47558 0.0
H205 H 0.97163 0.65495 0.42768 0.0
C206 C 0.02141 0.63571 0.38562 0.0
C207 C 0.04964 0.62883 0.36479 0.0
C208 C 0.02581 0.66005 0.41368 0.0
C209 C 0.08255 0.64647 0.37252 0.0
C210 C 0.08731 0.67023 0.40097 0.0
C211 C 0.06341 0.70152 0.45001 0.0
C212 C 0.03465 0.70965 0.46941 0.0
C213 C 0.0591 0.67723 0.42173 0.0
C214 C 0.00169 0.69268 0.46092 0.0
C215 C 0.99734 0.66778 0.43357 0.0
H216 H 0.3836 0.98522 0.46939 0.0
H217 H 0.35071 0.07919 0.43612 0.0
H218 H 0.39365 0.08065 0.38974 0.0
H219 H 0.44189 0.0562 0.36006 0.0
H220 H 0.47583 0.96347 0.39544 0.0
H221 H 0.43102 0.96062 0.43965 0.0
C222 C 0.38558 0.00592 0.45186 0.0
C223 C 0.36393 0.03203 0.45617 0.0
C224 C 0.41064 0.00691 0.42575 0.0
C225 C 0.36707 0.05878 0.43336 0.0
C226 C 0.39164 0.05964 0.40688 0.0
C227 C 0.43937 0.03525 0.37731 0.0
C228 C 0.46225 0.01009 0.37441 0.0
C229 C 0.41378 0.034 0.40304 0.0
C230 C 0.45871 0.98326 0.39715 0.0
C231 C 0.43305 0.98157 0.42243 0.0
H232 H 0.06879 0.63123 0.72254 0.0
H233 H 0.95832 0.62962 0.71705 0.0
H234 H 0.96569 0.67746 0.67909 0.0
H235 H 0.00319 0.7159 0.64298 0.0
H236 H 0.11354 0.71544 0.64605 0.0
H237 H 0.10655 0.67265 0.68953 0.0
C238 C 0.04637 0.64174 0.71349 0.0
C239 C 0.01308 0.62673 0.72244 0.0
C240 C 0.05075 0.66875 0.69094 0.0
C241 C 0.98426 0.64054 0.71036 0.0
C242 C 0.98843 0.66788 0.68858 0.0
C243 C 0.02574 0.70683 0.65354 0.0
C244 C 0.05879 0.71868 0.6411 0.0
C245 C 0.02151 0.68161 0.67801 0.0
C246 C 0.08775 0.70657 0.655 0.0
C247 C 0.0838 0.68204 0.67986 0.0
H248 H 0.45378 0.10743 0.70897 0.0
H249 H 0.44533 0.9968 0.71514 0.0
H250 H 0.39841 0.98909 0.67304 0.0
H251 H 0.36114 0.01401 0.63322 0.0
H252 H 0.3668 0.12485 0.63064 0.0
H253 H 0.41349 0.13242 0.67281 0.0
C254 C 0.44158 0.08165 0.70109 0.0
C255 C 0.45311 0.05268 0.71469 0.0
C256 C 0.41425 0.07753 0.67759 0.0
C257 C 0.4368 0.01944 0.70489 0.0
C258 C 0.41011 0.01504 0.6808 0.0
C259 C 0.37261 0.03978 0.642 0.0
C260 C 0.36092 0.06885 0.6287 0.0
C261 C 0.39885 0.04391 0.66677 0.0
C262 C 0.37546 0.10214 0.6406 0.0
C263 C 0.40218 0.10646 0.66458 0.0
H264 H 0.99397 0.38567 0.58915 0.0
H265 H 0.0922 0.35498 0.6154 0.0
H266 H 0.09342 0.39191 0.66868 0.0
H267 H 0.06646 0.43319 0.70761 0.0
H268 H 0.96915 0.4649 0.67946 0.0
H269 H 0.96769 0.42714 0.62714 0.0
C270 C 0.01567 0.38695 0.60652 0.0
C271 C 0.0429 0.36749 0.59837 0.0
C272 C 0.01633 0.4084 0.6368 0.0
C273 C 0.07092 0.36973 0.62105 0.0
C274 C 0.07159 0.39079 0.65154 0.0
C275 C 0.04486 0.43169 0.6901 0.0
C276 C 0.01789 0.45179 0.69755 0.0
C277 C 0.0444 0.41024 0.65969 0.0
C278 C 0.99028 0.44981 0.67438 0.0
C279 C 0.98939 0.42819 0.64444 0.0
H280 H 0.649 0.04278 0.72925 0.0
H281 H 0.62356 0.13029 0.67661 0.0
H282 H 0.67162 0.12546 0.637 0.0
H283 H 0.71959 0.09543 0.61596 0.0
H284 H 0.74659 0.00885 0.66894 0.0
H285 H 0.69935 0.01443 0.70983 0.0
C286 C 0.65409 0.06085 0.70919 0.0
C287 C 0.6326 0.08671 0.7058 0.0
C288 C 0.682 0.05809 0.6865 0.0
C289 C 0.63968 0.11012 0.67984 0.0
C290 C 0.66713 0.10736 0.65707 0.0
C291 C 0.71521 0.0778 0.63648 0.0
C292 C 0.7364 0.05161 0.63922 0.0
C293 C 0.68823 0.08128 0.65997 0.0
C294 C 0.73063 0.02925 0.66624 0.0
C295 C 0.70357 0.03236 0.68958 0.0
H296 H 0.43709 0.34847 0.00017 0.0
H297 H 0.45028 0.34493 0.10966 0.0
H298 H 0.40616 0.38354 0.12024 0.0
H299 H 0.36908 0.42356 0.09813 0.0
H300 H 0.35504 0.42617 0.98865 0.0
H301 H 0.3939 0.38222 0.97827 0.0
C302 C 0.42992 0.35575 0.02635 0.0
C303 C 0.44725 0.34433 0.05411 0.0
C304 C 0.40457 0.37792 0.0322 0.0
C305 C 0.43737 0.35348 0.08788 0.0
C306 C 0.41228 0.3757 0.09393 0.0
C307 C 0.37411 0.41408 0.07202 0.0
C308 C 0.35963 0.42842 0.04417 0.0
C309 C 0.3965 0.38889 0.06627 0.0
C310 C 0.36593 0.41559 0.01051 0.0
C311 C 0.38832 0.39062 0.00456 0.0
H312 H 0.35236 0.64623 0.01507 0.0
H313 H 0.42167 0.57207 0.03447 0.0
H314 H 0.47136 0.61562 0.02534 0.0
H315 H 0.49504 0.67552 0.01304 0.0
H316 H 0.42499 0.75026 0.9988 0.0
H317 H 0.37563 0.70572 0.00429 0.0
C318 C 0.37835 0.63954 0.01716 0.0
C319 C 0.38335 0.60598 0.02528 0.0
C320 C 0.40664 0.66482 0.01265 0.0
C321 C 0.41716 0.59781 0.02837 0.0
C322 C 0.44556 0.62265 0.02303 0.0
C323 C 0.46892 0.68179 0.01079 0.0
C324 C 0.46348 0.71589 0.00522 0.0
C325 C 0.44062 0.65629 0.01524 0.0
C326 C 0.42964 0.72408 0.00302 0.0
C327 C 0.40147 0.69869 0.0062 0.0
H328 H 0.59691 0.40338 0.05809 0.0
H329 H 0.67019 0.33017 0.06407 0.0
H330 H 0.71798 0.37712 0.06256 0.0
H331 H 0.73885 0.43902 0.05892 0.0
H332 H 0.66538 0.51251 0.0574 0.0
H333 H 0.61767 0.46544 0.05774 0.0
C334 C 0.62336 0.39775 0.05906 0.0
C335 C 0.63009 0.36342 0.06094 0.0
C336 C 0.65061 0.4249 0.05892 0.0
C337 C 0.66442 0.35646 0.0627 0.0
C338 C 0.69172 0.38325 0.06171 0.0
C339 C 0.71237 0.44463 0.05858 0.0
C340 C 0.70555 0.47905 0.05784 0.0
C341 C 0.68511 0.41755 0.05968 0.0
C342 C 0.67119 0.48615 0.05799 0.0
C343 C 0.64394 0.45928 0.05813 0.0
H344 H 0.7131 0.67784 0.08834 0.0
H345 H 0.74213 0.6436 0.98586 0.0
H346 H 0.70603 0.68257 0.96142 0.0
H347 H 0.66114 0.72125 0.96915 0.0
H348 H 0.6325 0.75584 0.07163 0.0
H349 H 0.67383 0.72219 0.09605 0.0
C350 C 0.71195 0.67929 0.06066 0.0
C351 C 0.72992 0.65749 0.03895 0.0
C352 C 0.69099 0.70162 0.04677 0.0
C353 C 0.7285 0.66 0.00316 0.0
C354 C 0.70769 0.68216 0.98915 0.0
C355 C 0.6643 0.72183 0.99682 0.0
C356 C 0.64342 0.74064 0.01855 0.0
C357 C 0.68803 0.7023 0.01069 0.0
C358 C 0.64815 0.7415 0.05432 0.0
C359 C 0.67167 0.72211 0.06832 0.0
H360 H 0.49811 0.87501 0.93874 0.0
H361 H 0.59899 0.8557 0.90253 0.0
H362 H 0.59838 0.90022 0.8606 0.0
H363 H 0.56995 0.94729 0.83693 0.0
H364 H 0.46835 0.964 0.87416 0.0
H365 H 0.46852 0.91774 0.91287 0.0
C366 C 0.52002 0.88044 0.92164 0.0
C367 C 0.54877 0.86251 0.92404 0.0
C368 C 0.51936 0.9057 0.89782 0.0
C369 C 0.57659 0.8693 0.90122 0.0
C370 C 0.57627 0.89481 0.87737 0.0
C371 C 0.54778 0.94055 0.85331 0.0
C372 C 0.51934 0.95943 0.85282 0.0
C373 C 0.54793 0.91359 0.87581 0.0
C374 C 0.49072 0.9502 0.87408 0.0
C375 C 0.49073 0.9237 0.89633 0.0
H376 H 0.21272 0.49016 0.93569 0.0
H377 H 0.2156 0.60121 0.94223 0.0
H378 H 0.17192 0.59713 0.89742 0.0
H379 H 0.12991 0.56186 0.85916 0.0
H380 H 0.12503 0.45067 0.85457 0.0
H381 H 0.17251 0.45501 0.89544 0.0
C382 C 0.20406 0.51347 0.92703 0.0
C383 C 0.21731 0.54589 0.94242 0.0
C384 C 0.17839 0.51093 0.90163 0.0
C385 C 0.20569 0.57587 0.93099 0.0
C386 C 0.18068 0.57359 0.90533 0.0
C387 C 0.13955 0.53862 0.86676 0.0
C388 C 0.12386 0.50602 0.8539 0.0
C389 C 0.16641 0.54124 0.89088 0.0
C390 C 0.13652 0.47611 0.8642 0.0
C391 C 0.16367 0.47854 0.88762 0.0
H392 H 0.5402 0.10503 0.90062 0.0
H393 H 0.54105 0.18496 0.8288 0.0
H394 H 0.54128 0.22875 0.87644 0.0
H395 H 0.5417 0.24435 0.93848 0.0
H396 H 0.54558 0.1652 0.0103 0.0
H397 H 0.54298 0.12098 0.96274 0.0
C398 C 0.54035 0.13204 0.89547 0.0
C399 C 0.54044 0.1418 0.86134 0.0
C400 C 0.54133 0.15715 0.92295 0.0
C401 C 0.5411 0.17689 0.85492 0.0
C402 C 0.54114 0.2019 0.88211 0.0
C403 C 0.5418 0.21738 0.94365 0.0
C404 C 0.54356 0.20792 0.97773 0.0
C405 C 0.54128 0.19233 0.91621 0.0
C406 C 0.54427 0.17302 0.98419 0.0
C407 C 0.54273 0.14777 0.95705 0.0
H408 H 0.92454 0.55809 0.84915 0.0
H409 H 0.96516 0.46791 0.88265 0.0
H410 H 0.92534 0.46572 0.93133 0.0
H411 H 0.88062 0.49033 0.96553 0.0
H412 H 0.84069 0.58138 0.93361 0.0
H413 H 0.87853 0.58214 0.88303 0.0
C414 C 0.92456 0.53782 0.86697 0.0
C415 C 0.94794 0.51325 0.8622 0.0
C416 C 0.90178 0.53688 0.89523 0.0
C417 C 0.94761 0.48725 0.88567 0.0
C418 C 0.92481 0.48594 0.91356 0.0
C419 C 0.87997 0.51026 0.94744 0.0
C420 C 0.85785 0.53579 0.95339 0.0
C421 C 0.90203 0.51078 0.91874 0.0
C422 C 0.85747 0.56144 0.92967 0.0
C423 C 0.87914 0.56191 0.90077 0.0
H424 H 0.49497 0.13157 0.2343 0.0
H425 H 0.60284 0.12163 0.24658 0.0
H426 H 0.61862 0.16923 0.20917 0.0
H427 H 0.60132 0.20887 0.16784 0.0
H428 H 0.49347 0.21916 0.156 0.0
H429 H 0.47814 0.17654 0.19881 0.0
C430 C 0.52196 0.14015 0.22917 0.0
C431 C 0.54769 0.12278 0.24275 0.0
C432 C 0.53082 0.16743 0.20758 0.0
C433 C 0.58255 0.13449 0.23633 0.0
C434 C 0.59158 0.16159 0.2148 0.0
C435 C 0.57449 0.20217 0.17502 0.0
C436 C 0.54852 0.21677 0.15842 0.0
C437 C 0.56587 0.17753 0.1995 0.0
C438 C 0.51394 0.20822 0.16832 0.0
C439 C 0.50514 0.1837 0.19265 0.0
H440 H 0.91863 0.56606 0.24205 0.0
H441 H 9e-05 0.55968 0.16712 0.0
H442 H 0.95945 0.56323 0.12058 0.0
H443 H 0.90049 0.56629 0.10118 0.0
H444 H 0.81959 0.57704 0.17587 0.0
H445 H 0.86033 0.57422 0.22266 0.0
C446 C 0.92734 0.56544 0.2155 0.0
C447 C 0.96208 0.56218 0.20785 0.0
C448 C 0.90404 0.56851 0.18896 0.0
C449 C 0.97339 0.56208 0.1735 0.0
C450 C 0.9502 0.5641 0.14693 0.0
C451 C 0.89187 0.56829 0.12773 0.0
C452 C 0.85712 0.57161 0.13514 0.0
C453 C 0.91546 0.5671 0.15436 0.0
C454 C 0.8463 0.57461 0.16959 0.0
C455 C 0.86951 0.57276 0.19631 0.0
H456 H 0.56587 0.85797 0.12928 0.0
H457 H 0.47935 0.8995 0.08684 0.0
H458 H 0.47751 0.9393 0.13722 0.0
H459 H 0.50044 0.96278 0.19304 0.0
H460 H 0.58596 0.92087 0.2369 0.0
H461 H 0.58808 0.88078 0.18641 0.0
C462 C 0.54665 0.87574 0.13111 0.0
C463 C 0.52286 0.87576 0.10428 0.0
C464 C 0.54548 0.8985 0.16043 0.0
C465 C 0.49795 0.89883 0.10712 0.0
C466 C 0.49687 0.92168 0.13592 0.0
C467 C 0.51957 0.9449 0.19162 0.0
C468 C 0.54305 0.94496 0.21869 0.0
C469 C 0.52051 0.9218 0.16269 0.0
C470 C 0.5675 0.92138 0.21646 0.0
C471 C 0.56879 0.89846 0.18755 0.0
H472 H 0.22021 0.58853 0.11061 0.0
H473 H 0.23893 0.48821 0.14087 0.0
H474 H 0.19635 0.49114 0.18737 0.0
H475 H 0.15161 0.52142 0.21761 0.0
H476 H 0.13542 0.62274 0.18746 0.0
H477 H 0.17931 0.62022 0.14298 0.0
C478 C 0.21504 0.5673 0.12741 0.0
C479 C 0.23237 0.53804 0.12207 0.0
C480 C 0.19094 0.56934 0.15416 0.0
C481 C 0.22584 0.51102 0.14444 0.0
C482 C 0.20145 0.51265 0.17095 0.0
C483 C 0.15793 0.54303 0.20148 0.0
C484 C 0.14001 0.57209 0.20577 0.0
C485 C 0.18352 0.54156 0.17582 0.0
C486 C 0.14868 0.59999 0.18478 0.0
C487 C 0.17376 0.59859 0.15919 0.0
H488 H 0.88194 0.93491 0.61743 0.0
H489 H 0.85111 0.93812 0.5117 0.0
H490 H 0.88432 0.89081 0.49506 0.0
H491 H 0.92705 0.85319 0.50952 0.0
H492 H 0.95843 0.85023 0.61507 0.0
H493 H 0.91959 0.89246 0.63289 0.0
C494 C 0.88213 0.92497 0.59081 0.0
C495 C 0.8645 0.94036 0.56575 0.0
C496 C 0.90149 0.89795 0.58137 0.0
C497 C 0.86461 0.92689 0.53146 0.0
C498 C 0.8837 0.8999 0.5219 0.0
C499 C 0.92505 0.86141 0.53651 0.0
C500 C 0.94595 0.84897 0.56088 0.0
C501 C 0.903 0.88595 0.54648 0.0
C502 C 0.94272 0.85951 0.59578 0.0
C503 C 0.92066 0.8838 0.60596 0.0
H504 H 0.98432 0.21147 0.55742 0.0
H505 H 0.97344 0.19289 0.44757 0.0
H506 H 0.92773 0.14497 0.45599 0.0
H507 H 0.88971 0.10969 0.49483 0.0
H508 H 0.90393 0.12555 0.60458 0.0
H509 H 0.94973 0.17321 0.59606 0.0
C510 C 0.97192 0.19686 0.53536 0.0
C511 C 0.98179 0.20583 0.50195 0.0
C512 C 0.94636 0.16897 0.54043 0.0
C513 C 0.96612 0.18639 0.47352 0.0
C514 C 0.93998 0.15912 0.47833 0.0
C515 C 0.90295 0.12358 0.51683 0.0
C516 C 0.89332 0.11448 0.55028 0.0
C517 C 0.9297 0.15039 0.51168 0.0
C518 C 0.91097 0.13217 0.5786 0.0
C519 C 0.93703 0.15945 0.57374 0.0
H520 H 0.12027 0.885 0.59296 0.0
H521 H 0.11734 0.869 0.48249 0.0
H522 H 0.16144 0.91896 0.47708 0.0
H523 H 0.20211 0.96597 0.50408 0.0
H524 H 0.20108 0.98542 0.61424 0.0
H525 H 0.1569 0.93554 0.61965 0.0
C526 C 0.12935 0.89261 0.56777 0.0
C527 C 0.11616 0.87333 0.53816 0.0
C528 C 0.1538 0.92193 0.56489 0.0
C529 C 0.12739 0.88358 0.50557 0.0
C530 C 0.15255 0.91203 0.5025 0.0
C531 C 0.19199 0.95933 0.52921 0.0
C532 C 0.20489 0.97895 0.55876 0.0
C533 C 0.16612 0.93121 0.532 0.0
C534 C 0.19136 0.9706 0.59117 0.0
C535 C 0.16629 0.94204 0.59427 0.0
H536 H 0.1656 0.21344 0.45587 0.0
H537 H 0.14297 0.25699 0.55692 0.0
H538 H 0.18293 0.22266 0.58249 0.0
H539 H 0.21918 0.17569 0.57674 0.0
H540 H 0.24154 0.13176 0.47581 0.0
H541 H 0.20703 0.17109 0.4496 0.0
C542 C 0.16978 0.21583 0.48344 0.0
C543 C 0.15096 0.23742 0.50448 0.0
C544 C 0.19251 0.19571 0.49803 0.0
C545 C 0.15698 0.24047 0.54012 0.0
C546 C 0.17971 0.22071 0.5548 0.0
C547 C 0.21685 0.17499 0.54897 0.0
C548 C 0.2325 0.15049 0.52829 0.0
C549 C 0.1968 0.1975 0.5341 0.0
C550 C 0.22962 0.15024 0.49234 0.0
C551 C 0.20978 0.17264 0.47733 0.0
loop_
_geom_bond_atom_site_label_1
_geom_bond_atom_site_label_2
_geom_bond_distance
_geom_bond_site_symmetry_2
_ccdc_geom_bond_type
O0 Cd1 2.223 . S
O0 C8 1.315 1_455 S
Cd1 O0 2.223 . S
Cd1 O4 2.297 . S
Cd1 O5 2.439 . S
Cd1 O11 2.240 . S
Cd2 O3 2.240 1_655 S
Cd2 O10 2.223 . S
Cd2 O12 2.297 1_655 S
Cd2 O13 2.439 1_655 S
O3 Cd2 2.240 1_455 S
O3 C8 1.279 1_455 S
O4 Cd1 2.297 . S
O4 C6 1.247 . S
O5 Cd1 2.439 . S
O5 C6 1.208 . S
C6 O4 1.247 . S
C6 O5 1.208 . S
C7 O12 1.247 . S
C7 O13 1.208 . S
C8 O0 1.315 1_655 S
C8 O3 1.279 1_655 S
C9 O10 1.315 1_455 S
C9 O11 1.279 . S
O10 Cd2 2.223 . S
O10 C9 1.315 1_655 S
O11 Cd1 2.240 . S
O11 C9 1.279 . S
O12 Cd2 2.297 1_455 S
O12 C7 1.247 . S
O13 Cd2 2.439 1_455 S
O13 C7 1.208 . S
O14 Cd15 2.223 . S
O14 C22 1.315 . S
Cd15 O14 2.223 . S
Cd15 O18 2.297 . S
Cd15 O19 2.439 . S
Cd15 O25 2.240 . S
Cd16 O17 2.240 . S
Cd16 O24 2.223 . S
Cd16 O26 2.296 1_545 S
Cd16 O27 2.431 1_545 S
O17 Cd16 2.240 . S
O17 C22 1.279 . S
O18 Cd15 2.297 . S
O18 C20 1.247 . S
O19 Cd15 2.439 . S
O19 C20 1.208 . S
C20 O18 1.247 . S
C20 O19 1.208 . S
C21 O26 1.248 . S
C21 O27 1.217 . S
C22 O14 1.315 . S
C22 O17 1.279 . S
C23 O24 1.315 . S
C23 O25 1.279 . S
O24 Cd16 2.223 . S
O24 C23 1.315 . S
O25 Cd15 2.240 . S
O25 C23 1.279 . S
O26 Cd16 2.296 1_565 S
O26 C21 1.248 . S
O27 Cd16 2.431 1_565 S
O27 C21 1.217 . S
O28 Cd29 2.223 . S
O28 C36 1.315 . S
Cd29 O28 2.223 . S
Cd29 O32 2.297 1_455 S
Cd29 O33 2.439 1_455 S
Cd29 O39 2.240 . S
Cd30 O31 2.240 . S
Cd30 O38 2.223 . S
Cd30 O40 2.297 . S
Cd30 O41 2.439 . S
O31 Cd30 2.240 . S
O31 C36 1.279 . S
O32 Cd29 2.297 1_655 S
O32 C34 1.247 . S
O33 Cd29 2.439 1_655 S
O33 C34 1.208 . S
C34 O32 1.247 . S
C34 O33 1.208 . S
C35 O40 1.247 . S
C35 O41 1.208 . S
C36 O28 1.315 . S
C36 O31 1.279 . S
C37 O38 1.315 . S
C37 O39 1.279 . S
O38 Cd30 2.223 . S
O38 C37 1.315 . S
O39 Cd29 2.240 . S
O39 C37 1.279 . S
O40 Cd30 2.297 . S
O40 C35 1.247 . S
O41 Cd30 2.439 . S
O41 C35 1.208 . S
O42 Cd43 2.223 . S
O42 C50 1.315 1_545 S
Cd43 O42 2.223 . S
Cd43 O46 2.297 . S
Cd43 O47 2.439 . S
Cd43 O53 2.240 . S
Cd44 O45 2.240 . S
Cd44 O52 2.223 1_545 S
Cd44 O54 2.297 . S
Cd44 O55 2.439 . S
O45 Cd44 2.240 . S
O45 C50 1.279 1_545 S
O46 Cd43 2.297 . S
O46 C48 1.247 . S
O47 Cd43 2.439 . S
O47 C48 1.208 . S
C48 O46 1.247 . S
C48 O47 1.208 . S
C49 O54 1.247 . S
C49 O55 1.208 . S
C50 O42 1.315 1_565 S
C50 O45 1.279 1_565 S
C51 O52 1.315 1_545 S
C51 O53 1.279 . S
O52 Cd44 2.223 1_565 S
O52 C51 1.315 1_565 S
O53 Cd43 2.240 . S
O53 C51 1.279 . S
O54 Cd44 2.297 . S
O54 C49 1.247 . S
O55 Cd44 2.439 . S
O55 C49 1.208 . S
O56 Cd57 2.223 . S
O56 C64 1.315 . S
Cd57 O56 2.223 . S
Cd57 O60 2.297 . S
Cd57 O61 2.439 . S
Cd57 O67 2.240 . S
Cd58 O59 2.240 . S
Cd58 O66 2.223 . S
Cd58 O68 2.297 . S
Cd58 O69 2.439 . S
O59 Cd58 2.240 . S
O59 C64 1.279 . S
O60 Cd57 2.297 . S
O60 C62 1.247 . S
O61 Cd57 2.439 . S
O61 C62 1.208 . S
C62 O60 1.247 . S
C62 O61 1.208 . S
C63 O68 1.247 . S
C63 O69 1.208 . S
C64 O56 1.315 . S
C64 O59 1.279 . S
C65 O66 1.315 . S
C65 O67 1.279 . S
O66 Cd58 2.223 . S
O66 C65 1.315 . S
O67 Cd57 2.240 . S
O67 C65 1.279 . S
O68 Cd58 2.297 . S
O68 C63 1.247 . S
O69 Cd58 2.439 . S
O69 C63 1.208 . S
O70 Cd71 2.221 1_655 S
O70 C78 1.315 1_655 S
Cd71 O70 2.221 1_455 S
Cd71 O74 2.299 . S
Cd71 O75 2.444 . S
Cd71 O81 2.241 . S
Cd72 O73 2.240 . S
Cd72 O80 2.223 . S
Cd72 O82 2.297 . S
Cd72 O83 2.439 . S
O73 Cd72 2.240 . S
O73 C78 1.279 . S
O74 Cd71 2.299 . S
O74 C76 1.247 . S
O75 Cd71 2.444 . S
O75 C76 1.208 . S
C76 O74 1.247 . S
C76 O75 1.208 . S
C77 O82 1.247 . S
C77 O83 1.208 . S
C78 O70 1.315 1_455 S
C78 O73 1.279 . S
C79 O80 1.308 1_655 S
C79 O81 1.274 1_655 S
O80 Cd72 2.223 . S
O80 C79 1.308 1_455 S
O81 Cd71 2.241 . S
O81 C79 1.274 1_455 S
O82 Cd72 2.297 . S
O82 C77 1.247 . S
O83 Cd72 2.439 . S
O83 C77 1.208 . S
O84 Cd85 2.223 . S
O84 C92 1.315 . S
Cd85 O84 2.223 . S
Cd85 O88 2.297 1_545 S
Cd85 O89 2.439 1_545 S
Cd85 O95 2.240 . S
Cd86 O87 2.240 . S
Cd86 O94 2.223 . S
Cd86 O96 2.297 . S
Cd86 O97 2.439 . S
O87 Cd86 2.240 . S
O87 C92 1.279 . S
O88 Cd85 2.297 1_565 S
O88 C90 1.247 . S
O89 Cd85 2.439 1_565 S
O89 C90 1.208 . S
C90 O88 1.247 . S
C90 O89 1.208 . S
C91 O96 1.247 . S
C91 O97 1.208 . S
C92 O84 1.315 . S
C92 O87 1.279 . S
C93 O94 1.315 . S
C93 O95 1.279 . S
O94 Cd86 2.223 . S
O94 C93 1.315 . S
O95 Cd85 2.240 . S
O95 C93 1.279 . S
O96 Cd86 2.297 . S
O96 C91 1.247 . S
O97 Cd86 2.439 . S
O97 C91 1.208 . S
O98 Cd99 2.223 1_655 S
O98 C106 1.315 1_655 S
Cd99 O98 2.223 1_455 S
Cd99 O102 2.297 . S
Cd99 O103 2.439 . S
Cd99 O109 2.240 . S
Cd100 O101 2.240 . S
Cd100 O108 2.223 . S
Cd100 O110 2.297 . S
Cd100 O111 2.439 . S
O101 Cd100 2.240 . S
O101 C106 1.279 . S
O102 Cd99 2.297 . S
O102 C104 1.247 . S
O103 Cd99 2.439 . S
O103 C104 1.208 . S
C104 O102 1.247 . S
C104 O103 1.208 . S
C105 O110 1.247 . S
C105 O111 1.208 . S
C106 O98 1.315 1_455 S
C106 O101 1.279 . S
C107 O108 1.315 . S
C107 O109 1.279 . S
O108 Cd100 2.223 . S
O108 C107 1.315 . S
O109 Cd99 2.240 . S
O109 C107 1.279 . S
O110 Cd100 2.297 . S
O110 C105 1.247 . S
O111 Cd100 2.439 . S
O111 C105 1.208 . S
O112 Cd113 2.223 . S
O112 C120 1.315 . S
Cd113 O112 2.223 . S
Cd113 O116 2.297 . S
Cd113 O117 2.439 . S
Cd113 O123 2.240 . S
Cd114 O115 2.240 . S
Cd114 O122 2.223 . S
Cd114 O124 2.297 1_554 S
Cd114 O125 2.439 1_554 S
O115 Cd114 2.240 . S
O115 C120 1.279 . S
O116 Cd113 2.297 . S
O116 C118 1.247 . S
O117 Cd113 2.439 . S
O117 C118 1.208 . S
C118 O116 1.247 . S
C118 O117 1.208 . S
C119 O124 1.247 . S
C119 O125 1.208 . S
C120 O112 1.315 . S
C120 O115 1.279 . S
C121 O122 1.315 . S
C121 O123 1.279 . S
O122 Cd114 2.223 . S
O122 C121 1.315 . S
O123 Cd113 2.240 . S
O123 C121 1.279 . S
O124 Cd114 2.297 1_556 S
O124 C119 1.247 . S
O125 Cd114 2.439 1_556 S
O125 C119 1.208 . S
O126 Cd127 2.223 . S
O126 C134 1.315 1_556 S
Cd127 O126 2.223 . S
Cd127 O130 2.297 . S
Cd127 O131 2.439 1_556 S
Cd127 O137 2.240 . S
Cd128 O129 2.240 . S
Cd128 O136 2.236 . S
Cd128 O138 2.297 . S
Cd128 O139 2.439 . S
O129 Cd128 2.240 . S
O129 C134 1.279 . S
O130 Cd127 2.297 . S
O130 C132 1.247 1_556 S
O131 Cd127 2.439 1_554 S
O131 C132 1.208 . S
C132 O130 1.247 1_554 S
C132 O131 1.208 . S
C133 O138 1.247 . S
C133 O139 1.208 . S
C134 O126 1.315 1_554 S
C134 O129 1.279 . S
C135 O136 1.306 1_556 S
C135 O137 1.279 . S
O136 Cd128 2.236 . S
O136 C135 1.306 1_554 S
O137 Cd127 2.240 . S
O137 C135 1.279 . S
O138 Cd128 2.297 . S
O138 C133 1.247 . S
O139 Cd128 2.439 . S
O139 C133 1.208 . S
O140 Cd141 2.223 . S
O140 C148 1.315 . S
Cd141 O140 2.223 . S
Cd141 O144 2.297 . S
Cd141 O145 2.439 . S
Cd141 O151 2.240 . S
Cd142 O143 2.240 . S
Cd142 O150 2.223 . S
Cd142 O152 2.297 1_554 S
Cd142 O153 2.439 1_554 S
O143 Cd142 2.240 . S
O143 C148 1.279 . S
O144 Cd141 2.297 . S
O144 C146 1.247 . S
O145 Cd141 2.439 . S
O145 C146 1.208 . S
C146 O144 1.247 . S
C146 O145 1.208 . S
C147 O152 1.247 . S
C147 O153 1.208 . S
C148 O140 1.315 . S
C148 O143 1.279 . S
C149 O150 1.315 . S
C149 O151 1.279 . S
O150 Cd142 2.223 . S
O150 C149 1.315 . S
O151 Cd141 2.240 . S
O151 C149 1.279 . S
O152 Cd142 2.297 1_556 S
O152 C147 1.247 . S
O153 Cd142 2.439 1_556 S
O153 C147 1.208 . S
O154 Cd155 2.223 . S
O154 C162 1.315 . S
Cd155 O154 2.223 . S
Cd155 O158 2.297 . S
Cd155 O159 2.439 . S
Cd155 O165 2.240 . S
Cd156 O157 2.240 . S
Cd156 O164 2.223 . S
Cd156 O166 2.297 . S
Cd156 O167 2.439 . S
O157 Cd156 2.240 . S
O157 C162 1.279 . S
O158 Cd155 2.297 . S
O158 C160 1.247 . S
O159 Cd155 2.439 . S
O159 C160 1.208 . S
C160 O158 1.247 . S
C160 O159 1.208 . S
C161 O166 1.247 . S
C161 O167 1.208 . S
C162 O154 1.315 . S
C162 O157 1.279 . S
C163 O164 1.315 . S
C163 O165 1.279 . S
O164 Cd156 2.223 . S
O164 C163 1.315 . S
O165 Cd155 2.240 . S
O165 C163 1.279 . S
O166 Cd156 2.297 . S
O166 C161 1.247 . S
O167 Cd156 2.439 . S
O167 C161 1.208 . S
H168 C174 0.930 1_655 S
H169 C177 0.930 . S
H170 C178 0.930 . S
H171 C179 0.930 . S
H172 C182 0.930 1_655 S
H173 C183 0.930 . S
C174 H168 0.930 1_455 S
C174 C175 1.355 . S
C174 C176 1.415 . S
C175 C174 1.355 . S
C175 C177 1.419 . S
C176 C174 1.415 . S
C176 C181 1.425 . S
C176 C183 1.409 1_455 S
C177 H169 0.930 . S
C177 C175 1.419 . S
C177 C178 1.362 . S
C178 H170 0.930 . S
C178 C177 1.362 . S
C178 C181 1.409 . S
C179 H171 0.930 . S
C179 C180 1.355 . S
C179 C181 1.415 . S
C180 C179 1.355 . S
C180 C182 1.419 . S
C181 C176 1.425 . S
C181 C178 1.409 . S
C181 C179 1.415 . S
C182 H172 0.930 1_455 S
C182 C180 1.419 . S
C182 C183 1.362 1_455 S
C183 H173 0.930 . S
C183 C176 1.409 1_655 S
C183 C182 1.362 1_655 S
H184 C190 0.930 . S
H185 C193 0.930 . S
H186 C194 0.930 . S
H187 C195 0.930 . S
H188 C198 0.930 . S
H189 C199 0.930 . S
C190 H184 0.930 . S
C190 C191 1.355 . S
C190 C192 1.415 . S
C191 C190 1.355 . S
C191 C193 1.419 . S
C192 C190 1.415 . S
C192 C197 1.425 . S
C192 C199 1.409 . S
C193 H185 0.930 . S
C193 C191 1.419 . S
C193 C194 1.362 . S
C194 H186 0.930 . S
C194 C193 1.362 . S
C194 C197 1.409 . S
C195 H187 0.930 . S
C195 C196 1.355 . S
C195 C197 1.415 . S
C196 C195 1.355 . S
C196 C198 1.419 . S
C197 C192 1.425 . S
C197 C194 1.409 . S
C197 C195 1.415 . S
C198 H188 0.930 . S
C198 C196 1.419 . S
C198 C199 1.362 . S
C199 H189 0.930 . S
C199 C192 1.409 . S
C199 C198 1.362 . S
H200 C206 0.930 . S
H201 C209 0.930 . S
H202 C210 0.930 . S
H203 C211 0.930 . S
H204 C214 0.930 . S
H205 C215 0.930 . S
C206 H200 0.930 . S
C206 C207 1.355 . S
C206 C208 1.415 . S
C207 C206 1.355 . S
C207 C209 1.419 . S
C208 C206 1.415 . S
C208 C213 1.425 . S
C208 C215 1.409 . S
C209 H201 0.930 . S
C209 C207 1.419 . S
C209 C210 1.362 . S
C210 H202 0.930 . S
C210 C209 1.362 . S
C210 C213 1.409 . S
C211 H203 0.930 . S
C211 C212 1.355 . S
C211 C213 1.415 . S
C212 C211 1.355 . S
C212 C214 1.419 . S
C213 C208 1.425 . S
C213 C210 1.409 . S
C213 C211 1.415 . S
C214 H204 0.930 . S
C214 C212 1.419 . S
C214 C215 1.362 . S
C215 H205 0.930 . S
C215 C208 1.409 . S
C215 C214 1.362 . S
H216 C222 0.930 . S
H217 C225 0.930 . S
H218 C226 0.930 . S
H219 C227 0.930 . S
H220 C230 0.930 . S
H221 C231 0.930 . S
C222 H216 0.930 . S
C222 C223 1.355 . S
C222 C224 1.415 . S
C223 C222 1.355 . S
C223 C225 1.419 . S
C224 C222 1.415 . S
C224 C229 1.425 . S
C224 C231 1.409 1_545 S
C225 H217 0.930 . S
C225 C223 1.419 . S
C225 C226 1.362 . S
C226 H218 0.930 . S
C226 C225 1.362 . S
C226 C229 1.409 . S
C227 H219 0.930 . S
C227 C228 1.355 . S
C227 C229 1.415 . S
C228 C227 1.355 . S
C228 C230 1.419 1_545 S
C229 C224 1.425 . S
C229 C226 1.409 . S
C229 C227 1.415 . S
C230 H220 0.930 . S
C230 C228 1.419 1_565 S
C230 C231 1.362 . S
C231 H221 0.930 . S
C231 C224 1.409 1_565 S
C231 C230 1.362 . S
H232 C238 0.930 . S
H233 C241 0.930 . S
H234 C242 0.930 1_655 S
H235 C243 0.930 . S
H236 C246 0.930 . S
H237 C247 0.930 . S
C238 H232 0.930 . S
C238 C239 1.355 . S
C238 C240 1.415 . S
C239 C238 1.355 . S
C239 C241 1.419 . S
C240 C238 1.415 . S
C240 C245 1.425 . S
C240 C247 1.409 . S
C241 H233 0.930 . S
C241 C239 1.419 . S
C241 C242 1.362 . S
C242 H234 0.930 1_455 S
C242 C241 1.362 . S
C242 C245 1.409 . S
C243 H235 0.930 . S
C243 C244 1.355 . S
C243 C245 1.415 . S
C244 C243 1.355 . S
C244 C246 1.419 . S
C245 C240 1.425 . S
C245 C242 1.409 . S
C245 C243 1.415 . S
C246 H236 0.930 . S
C246 C244 1.419 . S
C246 C247 1.362 . S
C247 H237 0.930 . S
C247 C240 1.409 . S
C247 C246 1.362 . S
H248 C254 0.930 . S
H249 C257 0.930 1_565 S
H250 C258 0.930 . S
H251 C259 0.930 1_565 S
H252 C262 0.930 . S
H253 C263 0.930 . S
C254 H248 0.930 . S
C254 C255 1.355 . S
C254 C256 1.415 . S
C255 C254 1.355 . S
C255 C257 1.419 . S
C256 C254 1.415 . S
C256 C261 1.425 . S
C256 C263 1.409 . S
C257 H249 0.930 1_545 S
C257 C255 1.419 . S
C257 C258 1.362 1_545 S
C258 H250 0.930 . S
C258 C257 1.362 1_565 S
C258 C261 1.409 1_565 S
C259 H251 0.930 1_545 S
C259 C260 1.355 . S
C259 C261 1.415 . S
C260 C259 1.355 . S
C260 C262 1.419 . S
C261 C256 1.425 . S
C261 C258 1.409 1_545 S
C261 C259 1.415 . S
C262 H252 0.930 . S
C262 C260 1.419 . S
C262 C263 1.362 . S
C263 H253 0.930 . S
C263 C256 1.409 . S
C263 C262 1.362 . S
H264 C270 0.930 . S
H265 C273 0.930 . S
H266 C274 0.930 . S
H267 C275 0.930 . S
H268 C278 0.930 . S
H269 C279 0.930 . S
C270 H264 0.930 . S
C270 C271 1.355 . S
C270 C272 1.415 . S
C271 C270 1.355 . S
C271 C273 1.419 . S
C272 C270 1.415 . S
C272 C277 1.425 . S
C272 C279 1.409 1_455 S
C273 H265 0.930 . S
C273 C271 1.419 . S
C273 C274 1.362 . S
C274 H266 0.930 . S
C274 C273 1.362 . S
C274 C277 1.409 . S
C275 H267 0.930 . S
C275 C276 1.355 . S
C275 C277 1.415 . S
C276 C275 1.355 . S
C276 C278 1.419 1_455 S
C277 C272 1.425 . S
C277 C274 1.409 . S
C277 C275 1.415 . S
C278 H268 0.930 . S
C278 C276 1.419 1_655 S
C278 C279 1.362 . S
C279 H269 0.930 . S
C279 C272 1.409 1_655 S
C279 C278 1.362 . S
H280 C286 0.930 . S
H281 C289 0.930 . S
H282 C290 0.930 . S
H283 C291 0.930 . S
H284 C294 0.930 . S
H285 C295 0.930 . S
C286 H280 0.930 . S
C286 C287 1.355 . S
C286 C288 1.415 . S
C287 C286 1.355 . S
C287 C289 1.419 . S
C288 C286 1.415 . S
C288 C293 1.425 . S
C288 C295 1.409 . S
C289 H281 0.930 . S
C289 C287 1.419 . S
C289 C290 1.362 . S
C290 H282 0.930 . S
C290 C289 1.362 . S
C290 C293 1.409 . S
C291 H283 0.930 . S
C291 C292 1.355 . S
C291 C293 1.415 . S
C292 C291 1.355 . S
C292 C294 1.419 . S
C293 C288 1.425 . S
C293 C290 1.409 . S
C293 C291 1.415 . S
C294 H284 0.930 . S
C294 C292 1.419 . S
C294 C295 1.362 . S
C295 H285 0.930 . S
C295 C288 1.409 . S
C295 C294 1.362 . S
H296 C302 0.930 . S
H297 C305 0.930 . S
H298 C306 0.930 . S
H299 C307 0.930 . S
H300 C310 0.930 . S
H301 C311 0.930 . S
C302 H296 0.930 . S
C302 C303 1.355 . S
C302 C304 1.415 . S
C303 C302 1.355 . S
C303 C305 1.419 . S
C304 C302 1.415 . S
C304 C309 1.425 . S
C304 C311 1.409 . S
C305 H297 0.930 . S
C305 C303 1.419 . S
C305 C306 1.362 . S
C306 H298 0.930 . S
C306 C305 1.362 . S
C306 C309 1.409 . S
C307 H299 0.930 . S
C307 C308 1.355 . S
C307 C309 1.415 . S
C308 C307 1.355 . S
C308 C310 1.419 . S
C309 C304 1.425 . S
C309 C306 1.409 . S
C309 C307 1.415 . S
C310 H300 0.930 . S
C310 C308 1.419 . S
C310 C311 1.362 . S
C311 H301 0.930 . S
C311 C304 1.409 . S
C311 C310 1.362 . S
H312 C318 0.930 . S
H313 C321 0.930 . S
H314 C322 0.930 . S
H315 C323 0.930 . S
H316 C326 0.930 . S
H317 C327 0.930 . S
C318 H312 0.930 . S
C318 C319 1.355 . S
C318 C320 1.415 . S
C319 C318 1.355 . S
C319 C321 1.419 . S
C320 C318 1.415 . S
C320 C325 1.425 . S
C320 C327 1.409 . S
C321 H313 0.930 . S
C321 C319 1.419 . S
C321 C322 1.362 . S
C322 H314 0.930 . S
C322 C321 1.362 . S
C322 C325 1.409 . S
C323 H315 0.930 . S
C323 C324 1.355 . S
C323 C325 1.415 . S
C324 C323 1.355 . S
C324 C326 1.419 . S
C325 C320 1.425 . S
C325 C322 1.409 . S
C325 C323 1.415 . S
C326 H316 0.930 . S
C326 C324 1.419 . S
C326 C327 1.362 . S
C327 H317 0.930 . S
C327 C320 1.409 . S
C327 C326 1.362 . S
H328 C334 0.930 . S
H329 C337 0.930 1_556 S
H330 C338 0.930 . S
H331 C339 0.930 . S
H332 C342 0.930 . S
H333 C343 0.930 . S
C334 H328 0.930 . S
C334 C335 1.355 . S
C334 C336 1.415 . S
C335 C334 1.355 . S
C335 C337 1.419 . S
C336 C334 1.415 . S
C336 C341 1.425 . S
C336 C343 1.409 . S
C337 H329 0.930 1_554 S
C337 C335 1.419 . S
C337 C338 1.362 . S
C338 H330 0.930 . S
C338 C337 1.362 . S
C338 C341 1.409 . S
C339 H331 0.930 . S
C339 C340 1.355 . S
C339 C341 1.415 . S
C340 C339 1.355 . S
C340 C342 1.419 . S
C341 C336 1.425 . S
C341 C338 1.409 . S
C341 C339 1.415 . S
C342 H332 0.930 . S
C342 C340 1.419 . S
C342 C343 1.362 . S
C343 H333 0.930 . S
C343 C336 1.409 . S
C343 C342 1.362 . S
H344 C350 0.930 . S
H345 C353 0.930 . S
H346 C354 0.930 . S
H347 C355 0.930 . S
H348 C358 0.930 . S
H349 C359 0.930 . S
C350 H344 0.930 . S
C350 C351 1.355 . S
C350 C352 1.415 . S
C351 C350 1.355 . S
C351 C353 1.419 . S
C352 C350 1.415 . S
C352 C357 1.425 . S
C352 C359 1.409 . S
C353 H345 0.930 . S
C353 C351 1.419 . S
C353 C354 1.362 . S
C354 H346 0.930 . S
C354 C353 1.362 . S
C354 C357 1.409 . S
C355 H347 0.930 . S
C355 C356 1.355 . S
C355 C357 1.415 . S
C356 C355 1.355 . S
C356 C358 1.419 . S
C357 C352 1.425 . S
C357 C354 1.409 . S
C357 C355 1.415 . S
C358 H348 0.930 . S
C358 C356 1.419 . S
C358 C359 1.362 . S
C359 H349 0.930 . S
C359 C352 1.409 . S
C359 C358 1.362 . S
H360 C366 0.930 . S
H361 C369 0.930 1_554 S
H362 C370 0.930 . S
H363 C371 0.930 . S
H364 C374 0.930 . S
H365 C375 0.930 . S
C366 H360 0.930 . S
C366 C367 1.355 . S
C366 C368 1.415 . S
C367 C366 1.355 . S
C367 C369 1.419 . S
C368 C366 1.415 . S
C368 C373 1.425 . S
C368 C375 1.409 . S
C369 H361 0.930 1_556 S
C369 C367 1.419 . S
C369 C370 1.362 . S
C370 H362 0.930 . S
C370 C369 1.362 . S
C370 C373 1.409 . S
C371 H363 0.930 . S
C371 C372 1.355 . S
C371 C373 1.415 . S
C372 C371 1.355 . S
C372 C374 1.419 . S
C373 C368 1.425 . S
C373 C370 1.409 . S
C373 C371 1.415 . S
C374 H364 0.930 . S
C374 C372 1.419 . S
C374 C375 1.362 . S
C375 H365 0.930 . S
C375 C368 1.409 . S
C375 C374 1.362 . S
H376 C382 0.930 . S
H377 C385 0.907 1_554 S
H378 C386 0.930 . S
H379 C387 0.930 . S
H380 C390 0.930 . S
H381 C391 0.930 . S
C382 H376 0.930 . S
C382 C383 1.355 . S
C382 C384 1.415 . S
C383 C382 1.355 . S
C383 C385 1.419 . S
C384 C382 1.415 . S
C384 C389 1.425 . S
C384 C391 1.409 . S
C385 H377 0.907 1_556 S
C385 C383 1.419 . S
C385 C386 1.362 . S
C386 H378 0.930 . S
C386 C385 1.362 . S
C386 C389 1.409 . S
C387 H379 0.930 . S
C387 C388 1.355 . S
C387 C389 1.415 . S
C388 C387 1.355 . S
C388 C390 1.419 . S
C389 C384 1.425 . S
C389 C386 1.409 . S
C389 C387 1.415 . S
C390 H380 0.930 . S
C390 C388 1.419 . S
C390 C391 1.362 . S
C391 H381 0.930 . S
C391 C384 1.409 . S
C391 C390 1.362 . S
H392 C398 0.930 . S
H393 C401 0.930 . S
H394 C402 0.930 . S
H395 C403 0.930 . S
H396 C406 0.930 . S
H397 C407 0.930 . S
C398 H392 0.930 . S
C398 C399 1.355 . S
C398 C400 1.415 . S
C399 C398 1.355 . S
C399 C401 1.419 . S
C400 C398 1.415 . S
C400 C405 1.425 . S
C400 C407 1.409 . S
C401 H393 0.930 . S
C401 C399 1.419 . S
C401 C402 1.362 . S
C402 H394 0.930 . S
C402 C401 1.362 . S
C402 C405 1.409 . S
C403 H395 0.930 . S
C403 C404 1.355 . S
C403 C405 1.415 . S
C404 C403 1.355 . S
C404 C406 1.419 . S
C405 C400 1.425 . S
C405 C402 1.409 . S
C405 C403 1.415 . S
C406 H396 0.930 . S
C406 C404 1.419 . S
C406 C407 1.362 . S
C407 H397 0.930 . S
C407 C400 1.409 . S
C407 C406 1.362 . S
H408 C414 0.930 . S
H409 C417 0.930 1_455 S
H410 C418 0.930 . S
H411 C419 0.930 . S
H412 C422 0.930 . S
H413 C423 0.930 . S
C414 H408 0.930 . S
C414 C415 1.355 . S
C414 C416 1.415 . S
C415 C414 1.355 . S
C415 C417 1.419 . S
C416 C414 1.415 . S
C416 C421 1.425 . S
C416 C423 1.409 . S
C417 H409 0.930 1_655 S
C417 C415 1.419 . S
C417 C418 1.362 . S
C418 H410 0.930 . S
C418 C417 1.362 . S
C418 C421 1.409 . S
C419 H411 0.930 . S
C419 C420 1.355 . S
C419 C421 1.415 . S
C420 C419 1.355 . S
C420 C422 1.419 . S
C421 C416 1.425 . S
C421 C418 1.409 . S
C421 C419 1.415 . S
C422 H412 0.930 . S
C422 C420 1.419 . S
C422 C423 1.362 . S
C423 H413 0.930 . S
C423 C416 1.409 . S
C423 C422 1.362 . S
H424 C430 0.930 . S
H425 C433 0.930 . S
H426 C434 0.930 . S
H427 C435 0.930 . S
H428 C438 0.930 . S
H429 C439 0.930 . S
C430 H424 0.930 . S
C430 C431 1.355 . S
C430 C432 1.415 . S
C431 C430 1.355 . S
C431 C433 1.419 . S
C432 C430 1.415 . S
C432 C437 1.425 . S
C432 C439 1.409 . S
C433 H425 0.930 . S
C433 C431 1.419 . S
C433 C434 1.362 . S
C434 H426 0.930 . S
C434 C433 1.362 . S
C434 C437 1.409 . S
C435 H427 0.930 . S
C435 C436 1.355 . S
C435 C437 1.415 . S
C436 C435 1.355 . S
C436 C438 1.419 . S
C437 C432 1.425 . S
C437 C434 1.409 . S
C437 C435 1.415 . S
C438 H428 0.930 . S
C438 C436 1.419 . S
C438 C439 1.362 . S
C439 H429 0.930 . S
C439 C432 1.409 . S
C439 C438 1.362 . S
H440 C446 0.930 . S
H441 C449 0.930 . S
H442 C450 0.930 . S
H443 C451 0.930 . S
H444 C454 0.930 . S
H445 C455 0.930 . S
C446 H440 0.930 . S
C446 C447 1.355 . S
C446 C448 1.415 . S
C447 C446 1.355 . S
C447 C449 1.419 . S
C448 C446 1.415 . S
C448 C453 1.425 . S
C448 C455 1.409 . S
C449 H441 0.930 . S
C449 C447 1.419 . S
C449 C450 1.362 . S
C450 H442 0.930 . S
C450 C449 1.362 . S
C450 C453 1.409 . S
C451 H443 0.930 . S
C451 C452 1.355 . S
C451 C453 1.415 . S
C452 C451 1.355 . S
C452 C454 1.419 . S
C453 C448 1.425 . S
C453 C450 1.409 . S
C453 C451 1.415 . S
C454 H444 0.930 . S
C454 C452 1.419 . S
C454 C455 1.362 . S
C455 H445 0.930 . S
C455 C448 1.409 . S
C455 C454 1.362 . S
H456 C462 0.930 . S
H457 C465 0.930 . S
H458 C466 0.930 . S
H459 C467 0.930 1_545 S
H460 C470 0.930 . S
H461 C471 0.930 . S
C462 H456 0.930 . S
C462 C463 1.355 . S
C462 C464 1.415 . S
C463 C462 1.355 . S
C463 C465 1.419 . S
C464 C462 1.415 . S
C464 C469 1.425 . S
C464 C471 1.409 . S
C465 H457 0.930 . S
C465 C463 1.419 . S
C465 C466 1.362 . S
C466 H458 0.930 . S
C466 C465 1.362 . S
C466 C469 1.409 . S
C467 H459 0.930 1_565 S
C467 C468 1.355 . S
C467 C469 1.415 . S
C468 C467 1.355 . S
C468 C470 1.419 . S
C469 C464 1.425 . S
C469 C466 1.409 . S
C469 C467 1.415 . S
C470 H460 0.930 . S
C470 C468 1.419 . S
C470 C471 1.362 . S
C471 H461 0.930 . S
C471 C464 1.409 . S
C471 C470 1.362 . S
H472 C478 0.930 . S
H473 C481 0.930 . S
H474 C482 0.930 . S
H475 C483 0.930 . S
H476 C486 0.930 . S
H477 C487 0.930 . S
C478 H472 0.930 . S
C478 C479 1.355 . S
C478 C480 1.415 . S
C479 C478 1.355 . S
C479 C481 1.419 . S
C480 C478 1.415 . S
C480 C485 1.425 . S
C480 C487 1.409 . S
C481 H473 0.930 . S
C481 C479 1.419 . S
C481 C482 1.362 . S
C482 H474 0.930 . S
C482 C481 1.362 . S
C482 C485 1.409 . S
C483 H475 0.930 . S
C483 C484 1.355 . S
C483 C485 1.415 . S
C484 C483 1.355 . S
C484 C486 1.419 . S
C485 C480 1.425 . S
C485 C482 1.409 . S
C485 C483 1.415 . S
C486 H476 0.930 . S
C486 C484 1.419 . S
C486 C487 1.362 . S
C487 H477 0.930 . S
C487 C480 1.409 . S
C487 C486 1.362 . S
H488 C494 0.930 . S
H489 C497 0.930 . S
H490 C498 0.930 . S
H491 C499 0.930 . S
H492 C502 0.930 1_455 S
H493 C503 0.930 . S
C494 H488 0.930 . S
C494 C495 1.355 . S
C494 C496 1.415 . S
C495 C494 1.355 . S
C495 C497 1.419 . S
C496 C494 1.415 . S
C496 C501 1.425 . S
C496 C503 1.409 . S
C497 H489 0.930 . S
C497 C495 1.419 . S
C497 C498 1.362 . S
C498 H490 0.930 . S
C498 C497 1.362 . S
C498 C501 1.409 . S
C499 H491 0.930 . S
C499 C500 1.355 . S
C499 C501 1.415 . S
C500 C499 1.355 . S
C500 C502 1.419 . S
C501 C496 1.425 . S
C501 C498 1.409 . S
C501 C499 1.415 . S
C502 H492 0.930 1_655 S
C502 C500 1.419 . S
C502 C503 1.362 . S
C503 H493 0.930 . S
C503 C496 1.409 . S
C503 C502 1.362 . S
H504 C510 0.930 . S
H505 C513 0.930 . S
H506 C514 0.930 . S
H507 C515 0.930 . S
H508 C518 0.930 . S
H509 C519 0.930 . S
C510 H504 0.930 . S
C510 C511 1.355 . S
C510 C512 1.415 . S
C511 C510 1.355 . S
C511 C513 1.419 . S
C512 C510 1.415 . S
C512 C517 1.425 . S
C512 C519 1.409 . S
C513 H505 0.930 . S
C513 C511 1.419 . S
C513 C514 1.362 . S
C514 H506 0.930 . S
C514 C513 1.362 . S
C514 C517 1.409 . S
C515 H507 0.930 . S
C515 C516 1.355 . S
C515 C517 1.415 . S
C516 C515 1.355 . S
C516 C518 1.419 . S
C517 C512 1.425 . S
C517 C514 1.409 . S
C517 C515 1.415 . S
C518 H508 0.930 . S
C518 C516 1.419 . S
C518 C519 1.362 . S
C519 H509 0.930 . S
C519 C512 1.409 . S
C519 C518 1.362 . S
H520 C526 0.930 . S
H521 C529 0.930 . S
H522 C530 0.930 . S
H523 C531 0.930 . S
H524 C534 0.930 . S
H525 C535 0.930 . S
C526 H520 0.930 . S
C526 C527 1.355 . S
C526 C528 1.415 . S
C527 C526 1.355 . S
C527 C529 1.419 . S
C528 C526 1.415 . S
C528 C533 1.425 . S
C528 C535 1.409 . S
C529 H521 0.930 . S
C529 C527 1.419 . S
C529 C530 1.362 . S
C530 H522 0.930 . S
C530 C529 1.362 . S
C530 C533 1.409 . S
C531 H523 0.930 . S
C531 C532 1.355 . S
C531 C533 1.415 . S
C532 C531 1.355 . S
C532 C534 1.419 . S
C533 C528 1.425 . S
C533 C530 1.409 . S
C533 C531 1.415 . S
C534 H524 0.930 . S
C534 C532 1.419 . S
C534 C535 1.362 . S
C535 H525 0.930 . S
C535 C528 1.409 . S
C535 C534 1.362 . S
H536 C542 0.930 . S
H537 C545 0.930 . S
H538 C546 0.930 . S
H539 C547 0.930 . S
H540 C550 0.930 . S
H541 C551 0.930 . S
C542 H536 0.930 . S
C542 C543 1.355 . S
C542 C544 1.415 . S
C543 C542 1.355 . S
C543 C545 1.419 . S
C544 C542 1.415 . S
C544 C549 1.425 . S
C544 C551 1.409 . S
C545 H537 0.930 . S
C545 C543 1.419 . S
C545 C546 1.362 . S
C546 H538 0.930 . S
C546 C545 1.362 . S
C546 C549 1.409 . S
C547 H539 0.930 . S
C547 C548 1.355 . S
C547 C549 1.415 . S
C548 C547 1.355 . S
C548 C550 1.419 . S
C549 C544 1.425 . S
C549 C546 1.409 . S
C549 C547 1.415 . S
C550 H540 0.930 . S
C550 C548 1.419 . S
C550 C551 1.362 . S
C551 H541 0.930 . S
C551 C544 1.409 . S
C551 C550 1.362 . S
C175 C9 1.856 . S
C180 C76 1.790 . S
C191 C20 1.083 . S
C196 C63 1.068 . S
C207 C78 1.815 . S
C212 C37 1.817 . S
C223 C49 1.452 . S
C228 C65 1.477 . S
C239 C104 1.192 . S
C244 C35 1.186 . S
C255 C93 2.019 . S
C260 C51 2.005 . S
C271 C7 1.281 . S
C276 C106 1.298 . S
C287 C91 1.623 . S
C292 C22 1.716 . S
C303 C132 1.435 . S
C308 C118 1.427 . S
C319 C120 1.350 . S
C324 C162 1.399 . S
C335 C134 1.682 . S
C340 C148 1.642 . S
C351 C146 1.629 . S
C356 C160 1.614 . S
C367 C163 1.854 1_556 S
C372 C90 1.791 . S
C383 C119 1.059 . S
C388 C105 1.042 . S
C399 C92 1.848 . S
C404 C135 1.791 . S
C415 C107 1.431 1_655 S
C420 C147 1.408 . S
C431 C62 1.268 . S
C436 C133 1.268 . S
C447 C79 2.021 . S
C452 C149 2.042 . S
C463 C161 1.215 . S
C468 C64 1.302 1_565 S
C479 C121 1.680 . S
C484 C77 1.588 . S
C495 C21 1.428 . S
C500 C34 1.444 . S
C511 C8 1.361 . S
C516 C23 1.409 . S
C527 C36 1.653 . S
C532 C50 1.684 . S
C543 C6 1.651 . S
C548 C48 1.663 . S
