# Generated by pormake.
# Topology dft, (4)-cn, num edge types: 1
# Building blocks:
#     Node 0, Type 0, BuildingBlock: CEKHIL_clean_sbu_0, # of connection points: 4
#     Node 1, Type 0, BuildingBlock: CEKHIL_clean_sbu_0, # of connection points: 4
#     Node 2, Type 0, BuildingBlock: CEKHIL_clean_sbu_0, # of connection points: 4
#     Node 3, Type 0, BuildingBlock: CEKHIL_clean_sbu_0, # of connection points: 4
#     Node 4, Type 0, BuildingBlock: CEKHIL_clean_sbu_0, # of connection points: 4
#     Node 5, Type 0, BuildingBlock: CEKHIL_clean_sbu_0, # of connection points: 4
#     Node 6, Type 0, BuildingBlock: CEKHIL_clean_sbu_0, # of connection points: 4
#     Node 7, Type 0, BuildingBlock: CEKHIL_clean_sbu_0, # of connection points: 4
#     Edge 8, Type (0, 0), BuildingBlock: UVAHIK_clean_linker_0, # of connection points: 2
#     Edge 9, Type (0, 0), BuildingBlock: UVAHIK_clean_linker_0, # of connection points: 2
#     Edge 10, Type (0, 0), BuildingBlock: UVAHIK_clean_linker_0, # of connection points: 2
#     Edge 11, Type (0, 0), BuildingBlock: UVAHIK_clean_linker_0, # of connection points: 2
#     Edge 12, Type (0, 0), BuildingBlock: UVAHIK_clean_linker_0, # of connection points: 2
#     Edge 13, Type (0, 0), BuildingBlock: UVAHIK_clean_linker_0, # of connection points: 2
#     Edge 14, Type (0, 0), BuildingBlock: UVAHIK_clean_linker_0, # of connection points: 2
#     Edge 15, Type (0, 0), BuildingBlock: UVAHIK_clean_linker_0, # of connection points: 2
#     Edge 16, Type (0, 0), BuildingBlock: UVAHIK_clean_linker_0, # of connection points: 2
#     Edge 17, Type (0, 0), BuildingBlock: UVAHIK_clean_linker_0, # of connection points: 2
#     Edge 18, Type (0, 0), BuildingBlock: UVAHIK_clean_linker_0, # of connection points: 2
#     Edge 19, Type (0, 0), BuildingBlock: UVAHIK_clean_linker_0, # of connection points: 2
#     Edge 20, Type (0, 0), BuildingBlock: UVAHIK_clean_linker_0, # of connection points: 2
#     Edge 21, Type (0, 0), BuildingBlock: UVAHIK_clean_linker_0, # of connection points: 2
#     Edge 22, Type (0, 0), BuildingBlock: UVAHIK_clean_linker_0, # of connection points: 2
#     Edge 23, Type (0, 0), BuildingBlock: UVAHIK_clean_linker_0, # of connection points: 2
# Relax obj value: 0.182
# Max RMSD: 0.172
# Mean RMSD: 0.172
data_MOF--net-dft--node1-CEKHIL_clean_sbu_0--edge1-UVAHIK_clean_linker_0
_symmetry_space_group_name_H-M    P1
_symmetry_Int_Tables_number       1
_symmetry_cell_setting            triclinic
loop_
_symmetry_equiv_pos_as_xyz
'x, y, z'
_cell_length_a     44.125669
_cell_length_b     44.071778
_cell_length_c     52.907267
_cell_angle_alpha  90.118819
_cell_angle_beta   89.957814
_cell_angle_gamma 89.994945
loop_
_atom_site_label
_atom_site_type_symbol
_atom_site_fract_x
_atom_site_fract_y
_atom_site_fract_z
_atom_type_partial_charge
Co0 Co 0.33524 0.03302 0.18364 0.0
O1 O 0.37368 0.01272 0.18262 0.0
O2 O 0.36749 0.06177 0.1903 0.0
C3 C 0.31179 -0.00255 0.20695 0.0
O4 O 0.29886 0.06142 0.18765 0.0
Co5 Co 0.27772 0.00295 0.16046 0.0
O6 O 0.25671 0.03345 0.18195 0.0
C7 C 0.32746 0.02445 0.12781 0.0
C8 C 0.38582 0.03881 0.18776 0.0
C9 C 0.27 0.05746 0.1896 0.0
O10 O 0.33811 0.04059 0.14607 0.0
O11 O 0.30544 0.00579 0.13046 0.0
O12 O 0.32814 0.01808 0.2181 0.0
O13 O 0.3121 -0.00203 0.18264 0.0
Co14 Co 0.05429 0.33311 0.67743 0.0
O15 O 0.07614 0.37076 0.67656 0.0
O16 O 0.02778 0.36612 0.68719 0.0
C17 C 0.0907 0.30677 0.6973 0.0
O18 O 0.02466 0.29793 0.68206 0.0
Co19 Co 0.07881 0.27549 0.65026 0.0
O20 O 0.04874 0.25457 0.67208 0.0
C21 C 0.05619 0.32756 0.62087 0.0
C22 C 0.05116 0.38366 0.68381 0.0
C23 C 0.0266 0.26875 0.68215 0.0
O24 O 0.04311 0.33841 0.64069 0.0
O25 O 0.07376 0.30444 0.62138 0.0
O26 O 0.07197 0.32331 0.71043 0.0
O27 O 0.08806 0.30847 0.67313 0.0
Co28 Co 0.76019 0.06073 0.17255 0.0
O29 O 0.72286 0.08322 0.17406 0.0
O30 O 0.72821 0.03515 0.18542 0.0
C31 C 0.78943 0.09739 0.18924 0.0
O32 O 0.79508 0.03042 0.17508 0.0
Co33 Co 0.81483 0.08279 0.14032 0.0
O34 O 0.83753 0.05163 0.15964 0.0
C35 C 0.75858 0.06151 0.11605 0.0
C36 C 0.71054 0.05854 0.18263 0.0
C37 C 0.824 0.03058 0.1717 0.0
O38 O 0.75041 0.04845 0.1367 0.0
O39 O 0.78188 0.07872 0.11446 0.0
O40 O 0.7741 0.0796 0.20413 0.0
O41 O 0.78487 0.0937 0.16542 0.0
Co42 Co 0.04337 0.75994 0.67659 0.0
O43 O 0.02025 0.72299 0.6742 0.0
O44 O 0.06714 0.72632 0.68892 0.0
C45 C 0.00601 0.78841 0.69302 0.0
O46 O 0.07386 0.79401 0.68358 0.0
Co47 Co 0.02593 0.81825 0.64712 0.0
O48 O 0.0519 0.83809 0.67276 0.0
C49 C 0.05304 0.76628 0.62009 0.0
C50 C 0.0438 0.70945 0.68362 0.0
C51 C 0.07236 0.82323 0.68435 0.0
O52 O 0.05878 0.75289 0.64114 0.0
O53 O 0.03891 0.79156 0.61846 0.0
O54 O 0.02205 0.77099 0.70766 0.0
O55 O 0.01154 0.78622 0.66915 0.0
Co56 Co 0.33559 0.05809 0.81227 0.0
O57 O 0.37379 0.07894 0.81092 0.0
O58 O 0.36728 0.03006 0.80268 0.0
C59 C 0.30914 0.0937 0.79152 0.0
O60 O 0.29969 0.02902 0.81021 0.0
Co61 Co 0.27995 0.0858 0.83996 0.0
O62 O 0.25723 0.05364 0.82166 0.0
C63 C 0.3324 0.06333 0.86891 0.0
C64 C 0.3856 0.05311 0.8044 0.0
C65 C 0.27063 0.03075 0.81198 0.0
O66 O 0.34234 0.04916 0.84927 0.0
O67 O 0.30973 0.08145 0.86834 0.0
O68 O 0.32461 0.07368 0.77882 0.0
O69 O 0.31196 0.09277 0.81571 0.0
Co70 Co 0.0365 0.33668 0.30599 0.0
O71 O 0.0168 0.37541 0.30621 0.0
O72 O 0.06619 0.36868 0.30122 0.0
C73 C 0.00246 0.31435 0.2806 0.0
O74 O 0.06438 0.29973 0.30317 0.0
Co75 Co 0.00366 0.27954 0.32688 0.0
O76 O 0.03468 0.25836 0.30605 0.0
C77 C 0.02394 0.32819 0.36129 0.0
C78 C 0.04332 0.3873 0.30264 0.0
C79 C 0.05958 0.27112 0.3 0.0
O80 O 0.04122 0.33906 0.3439 0.0
O81 O 0.00525 0.30642 0.35751 0.0
O82 O 0.02439 0.33008 0.27072 0.0
O83 O 0.00089 0.31436 0.30488 0.0
Co84 Co 0.75963 0.03631 0.80881 0.0
O85 O 0.72286 0.01318 0.80666 0.0
O86 O 0.72664 0.06231 0.79839 0.0
C87 C 0.78928 0.00234 0.78898 0.0
O88 O 0.79413 0.06723 0.80754 0.0
Co89 Co 0.81484 0.01158 0.83906 0.0
O90 O 0.83675 0.04459 0.82126 0.0
C91 C 0.75863 0.0293 0.86493 0.0
C92 C 0.70968 0.03822 0.79995 0.0
C93 C 0.82314 0.06659 0.81049 0.0
O94 O 0.75068 0.04497 0.84556 0.0
O95 O 0.78177 0.0118 0.8651 0.0
O96 O 0.77272 0.0209 0.77576 0.0
O97 O 0.78518 0.00332 0.81306 0.0
Co98 Co 0.05013 0.76389 0.31582 0.0
O99 O 0.07358 0.72747 0.32029 0.0
O100 O 0.02867 0.72962 0.3017 0.0
C101 C 0.08893 0.79272 0.30248 0.0
O102 O 0.01993 0.79739 0.30629 0.0
Co103 Co 0.06305 0.82258 0.34652 0.0
O104 O 0.03978 0.84183 0.31895 0.0
C105 C 0.03409 0.77009 0.37128 0.0
C106 C 0.05161 0.7133 0.30902 0.0
C107 C 0.02094 0.82664 0.30581 0.0
O108 O 0.03071 0.75678 0.34981 0.0
O109 O 0.04766 0.79554 0.37405 0.0
O110 O 0.07488 0.775 0.28666 0.0
O111 O 0.08054 0.79077 0.32578 0.0
C112 C 0.34523 0.00018 0.08818 0.0
C113 C 0.34114 0.02668 0.10251 0.0
C114 C 0.35507 0.00182 0.06319 0.0
C115 C 0.38327 0.05516 0.0133 0.0
H116 H 0.33928 0.00014 0.96932 0.0
C117 C 0.34641 0.08135 0.91189 0.0
C118 C 0.34668 0.05808 0.89371 0.0
C119 C 0.35575 0.07571 0.93659 0.0
C120 C 0.35232 0.01522 0.98131 0.0
H121 H 0.34534 0.07557 0.10259 0.0
H122 H 0.36092 0.0788 0.05831 0.0
H123 H 0.33604 0.99384 0.01468 0.0
H124 H 0.35859 0.01114 0.88661 0.0
H125 H 0.37421 0.00095 0.93031 0.0
H126 H 0.39754 0.07782 0.97946 0.0
C127 C 0.35748 0.05658 0.0665 0.0
C128 C 0.35053 0.01163 0.00744 0.0
C129 C 0.34835 0.05484 0.09183 0.0
C130 C 0.35813 0.02945 0.9003 0.0
C131 C 0.36699 0.02362 0.92524 0.0
C132 C 0.38467 0.05901 0.98708 0.0
C133 C 0.36019 0.03008 0.05166 0.0
C134 C 0.36542 0.03194 0.02386 0.0
C135 C 0.36513 0.04655 0.94372 0.0
C136 C 0.36864 0.03945 0.9709 0.0
H137 H 0.34034 0.97812 0.09622 0.0
H138 H 0.35784 0.98086 0.05272 0.0
H139 H 0.39556 0.07086 0.02526 0.0
H140 H 0.33797 0.10374 0.90722 0.0
H141 H 0.35381 0.09372 0.95046 0.0
C142 C 0.02243 0.35344 0.58945 0.0
C143 C 0.05095 0.3418 0.59609 0.0
C144 C 0.01688 0.36281 0.56459 0.0
C145 C 0.05305 0.38255 0.50369 0.0
H146 H 0.98931 0.33383 0.47387 0.0
C147 C 0.05266 0.34863 0.39842 0.0
C148 C 0.02503 0.34121 0.38691 0.0
C149 C 0.05339 0.35724 0.42391 0.0
C150 C 0.0067 0.34837 0.48174 0.0
H151 H 0.09664 0.33315 0.5828 0.0
H152 H 0.08712 0.34995 0.53974 0.0
H153 H 0.99439 0.33592 0.51941 0.0
H154 H 0.97636 0.33952 0.39198 0.0
H155 H 0.97733 0.3561 0.43581 0.0
H156 H 0.06573 0.39466 0.46599 0.0
C157 C 0.06899 0.35163 0.5535 0.0
C158 C 0.00958 0.34948 0.50797 0.0
C159 C 0.07434 0.34172 0.57807 0.0
C160 C -0.00197 0.34456 0.40065 0.0
C161 C -0.00135 0.35389 0.42582 0.0
C162 C 0.04989 0.38184 0.47739 0.0
C163 C 0.04 0.36135 0.5463 0.0
C164 C 0.03334 0.36577 0.51915 0.0
C165 C 0.02639 0.35923 0.43812 0.0
C166 C 0.02726 0.36393 0.46603 0.0
H167 H 0.00406 0.35375 0.60304 0.0
H168 H 0.99432 0.37024 0.55944 0.0
H169 H 0.0715 0.3954 0.51193 0.0
H170 H 0.07377 0.3462 0.38814 0.0
H171 H 0.07524 0.36085 0.43269 0.0
C172 C 0.73228 0.00393 0.90035 0.0
C173 C 0.74061 0.03093 0.88823 0.0
C174 C 0.71959 0.00464 0.92448 0.0
C175 C 0.6937 0.05681 0.97637 0.0
H176 H 0.73403 -0.00295 0.01826 0.0
C177 C 0.73999 0.07985 0.07456 0.0
C178 C 0.74091 0.05672 0.09276 0.0
C179 C 0.72705 0.07465 0.05096 0.0
C180 C 0.72183 0.01343 0.0069 0.0
H181 H 0.74077 0.07988 0.8908 0.0
H182 H 0.72021 0.08133 0.93368 0.0
H183 H 0.73541 0.9917 0.97282 0.0
H184 H 0.72714 0.0107 0.10132 0.0
H185 H 0.70509 0.00119 0.05942 0.0
H186 H 0.6824 0.07974 0.0109 0.0
C187 C 0.72243 0.05953 0.92439 0.0
C188 C 0.72259 0.0104 0.98068 0.0
C189 C 0.73442 0.05881 0.89988 0.0
C190 C 0.72685 0.02883 0.08753 0.0
C191 C 0.71428 0.02342 0.06363 0.0
C192 C 0.69324 0.05999 0.00268 0.0
C193 C 0.71593 0.03235 0.93735 0.0
C194 C 0.70955 0.03266 0.96501 0.0
C195 C 0.71507 0.04606 0.0449 0.0
C196 C 0.70835 0.03894 0.01812 0.0
H197 H 0.73649 0.98217 0.89145 0.0
H198 H 0.714 0.98332 0.93348 0.0
H199 H 0.6828 0.07399 0.96494 0.0
H200 H 0.75028 0.10174 0.07825 0.0
H201 H 0.72833 0.09244 0.0369 0.0
C202 C 0.01316 0.76973 0.41485 0.0
C203 C 0.02581 0.75377 0.39447 0.0
C204 C 0.01289 0.75697 0.43896 0.0
C205 C 0.01059 0.71885 0.48787 0.0
H206 H 0.09535 0.71751 0.50743 0.0
C207 C 0.04779 0.72133 0.59205 0.0
C208 C 0.05961 0.7505 0.59624 0.0
C209 C 0.04598 0.7097 0.56746 0.0
C210 C 0.07163 0.71691 0.50217 0.0
H211 H 0.04649 0.71143 0.38273 0.0
H212 H 0.0472 0.68955 0.42535 0.0
H213 H 0.0817 0.71773 0.46257 0.0
H214 H 0.08099 0.78936 0.5788 0.0
H215 H 0.07927 0.76841 0.536 0.0
H216 H 0.0006 0.71976 0.5275 0.0
C217 C 0.0368 0.71154 0.42247 0.0
C218 C 0.0638 0.71695 0.47659 0.0
C219 C 0.03625 0.72398 0.39816 0.0
C220 C 0.07208 0.7667 0.57597 0.0
C221 C 0.07109 0.75471 0.55157 0.0
C222 C 0.0184 0.71809 0.51345 0.0
C223 C 0.02604 0.7284 0.44314 0.0
C224 C 0.03329 0.71935 0.46929 0.0
C225 C 0.05684 0.72676 0.54699 0.0
C226 C 0.049 0.71853 0.52075 0.0
H227 H 0.0052 0.79281 0.41243 0.0
H228 H 0.00477 0.77052 0.45468 0.0
H229 H 0.98695 0.72094 0.48262 0.0
H230 H 0.03762 0.70869 0.60742 0.0
H231 H 0.0347 0.6882 0.56425 0.0
C232 C 0.43311 0.07031 0.19119 0.0
C233 C 0.41903 0.04176 0.19032 0.0
C234 C 0.46474 0.07253 0.19252 0.0
C235 C 0.53397 0.0274 0.17941 0.0
H236 H 0.57414 0.08983 0.21877 0.0
C237 C 0.66349 0.02892 0.19223 0.0
C238 C 0.67762 0.05692 0.1876 0.0
C239 C 0.632 0.02721 0.19478 0.0
C240 C 0.56318 0.07236 0.20762 0.0
H241 H 0.42689 0.99317 0.19107 0.0
H242 H 0.48164 -0.003 0.19401 0.0
H243 H 0.51881 0.08684 0.21883 0.0
H244 H 0.67001 0.10523 0.183 0.0
H245 H 0.61509 0.10222 0.18759 0.0
H246 H 0.57826 0.01283 0.1683 0.0
C247 C 0.46853 0.01773 0.19296 0.0
C248 C 0.53151 0.07071 0.20757 0.0
C249 C 0.43707 0.01554 0.19142 0.0
C250 C 0.65977 0.0833 0.18648 0.0
C251 C 0.62832 0.08162 0.18925 0.0
C252 C 0.56555 0.02891 0.17963 0.0
C253 C 0.48284 0.04622 0.19317 0.0
C254 C 0.51651 0.0482 0.19343 0.0
C255 C 0.61406 0.0535 0.19299 0.0
C256 C 0.58051 0.05142 0.19369 0.0
H257 H 0.41976 0.09091 0.19033 0.0
H258 H 0.47502 0.09484 0.19241 0.0
H259 H 0.52323 0.01017 0.16786 0.0
H260 H 0.67666 0.00822 0.19323 0.0
H261 H 0.62163 0.00527 0.19794 0.0
C262 C 0.02182 0.43212 0.68867 0.0
C263 C 0.04971 0.41686 0.68746 0.0
C264 C 0.02093 0.46382 0.6905 0.0
C265 C 0.06912 0.53137 0.67845 0.0
H266 H 0.00689 0.57378 0.71636 0.0
C267 C 0.07141 0.66106 0.69277 0.0
C268 C 0.04421 0.67622 0.68728 0.0
C269 C 0.07199 0.62944 0.69476 0.0
C270 C 0.02433 0.56219 0.70563 0.0
H271 H 0.09851 0.42259 0.68837 0.0
H272 H 0.09702 0.47747 0.6924 0.0
H273 H 0.00805 0.51834 0.71649 0.0
H274 H -0.00387 0.67027 0.68032 0.0
H275 H -0.00286 0.61507 0.68403 0.0
H276 H 0.08553 0.57522 0.66781 0.0
C277 C 0.07577 0.46528 0.69108 0.0
C278 C 0.02494 0.53044 0.7056 0.0
C279 C 0.07664 0.43374 0.68894 0.0
C280 C 0.01746 0.65922 0.6845 0.0
C281 C 0.01799 0.62764 0.68677 0.0
C282 C 0.06868 0.56303 0.6787 0.0
C283 C 0.04794 0.48082 0.69142 0.0
C284 C 0.04732 0.51462 0.69194 0.0
C285 C 0.04532 0.6124 0.69158 0.0
C286 C 0.04623 0.57878 0.69221 0.0
H287 H 0.0007 0.41967 0.6875 0.0
H288 H -0.00092 0.475 0.69046 0.0
H289 H 0.08628 0.52006 0.66723 0.0
H290 H 0.09238 0.67355 0.69503 0.0
H291 H 0.09334 0.61827 0.6987 0.0
C292 C 0.66124 0.06683 0.79317 0.0
C293 C 0.67667 0.03911 0.79542 0.0
C294 C 0.62965 0.06737 0.79086 0.0
C295 C 0.56249 0.02019 0.80496 0.0
H296 H 0.52034 0.07978 0.76423 0.0
C297 C 0.43202 0.02173 0.79624 0.0
C298 C 0.41848 0.05029 0.79968 0.0
C299 C 0.4634 0.01929 0.79297 0.0
C300 C 0.53183 0.06307 0.77575 0.0
H301 H 0.67133 0.99018 0.79592 0.0
H302 H 0.61652 0.99108 0.79134 0.0
H303 H 0.57564 0.07765 0.76327 0.0
H304 H 0.42702 0.09872 0.80171 0.0
H305 H 0.48161 0.09444 0.79602 0.0
H306 H 0.51872 0.00575 0.81754 0.0
C307 C 0.62859 0.01246 0.79199 0.0
C308 C 0.56349 0.0619 0.77526 0.0
C309 C 0.66006 0.01194 0.79447 0.0
C310 C 0.43679 0.07637 0.79917 0.0
C311 C 0.46805 0.07395 0.79572 0.0
C312 C 0.53087 0.02126 0.80533 0.0
C313 C 0.61292 0.04017 0.79062 0.0
C314 C 0.57922 0.04063 0.79006 0.0
C315 C 0.48175 0.04539 0.79286 0.0
C316 C 0.51521 0.04291 0.79095 0.0
H317 H 0.67345 0.08814 0.79391 0.0
H318 H 0.6183 0.08913 0.79011 0.0
H319 H 0.57383 0.00387 0.81695 0.0
H320 H 0.41848 0.00124 0.79649 0.0
H321 H 0.47332 -0.00301 0.79059 0.0
C322 C 0.02073 0.43844 0.29657 0.0
C323 C 0.04662 0.42056 0.30059 0.0
C324 C 0.02279 0.46996 0.29594 0.0
C325 C 0.07645 0.53429 0.28968 0.0
H326 H 0.01059 0.57853 0.32147 0.0
C327 C 0.07896 0.66364 0.31102 0.0
C328 C 0.05242 0.68002 0.30555 0.0
C329 C 0.07943 0.63202 0.30898 0.0
C330 C 0.02899 0.56652 0.31229 0.0
H331 H 0.09516 0.42164 0.30656 0.0
H332 H 0.09877 0.47714 0.3061 0.0
H333 H 0.00987 0.52339 0.32122 0.0
H334 H 0.00575 0.67619 0.29321 0.0
H335 H 0.00648 0.62088 0.28987 0.0
H336 H 0.09579 0.57781 0.28133 0.0
C337 C 0.07689 0.46665 0.30304 0.0
C338 C 0.02859 0.53487 0.31209 0.0
C339 C 0.07485 0.43489 0.30341 0.0
C340 C 0.02651 0.6642 0.29759 0.0
C341 C 0.02689 0.63255 0.29579 0.0
C342 C 0.07697 0.56606 0.2901 0.0
C343 C 0.05075 0.48456 0.29965 0.0
C344 C 0.05212 0.51831 0.30054 0.0
C345 C 0.05327 0.61612 0.30169 0.0
C346 C 0.05308 0.58247 0.30121 0.0
H347 H -0.00131 0.42807 0.29399 0.0
H348 H 0.00233 0.4829 0.29258 0.0
H349 H 0.0948 0.5223 0.28043 0.0
H350 H 0.09933 0.67521 0.31716 0.0
H351 H 0.1 0.61995 0.31382 0.0
C352 C 0.1139 0.25515 0.29406 0.0
C353 C 0.0831 0.25209 0.28796 0.0
C354 C 0.13547 0.23552 0.28336 0.0
C355 C 0.14 0.16114 0.24889 0.0
H356 H 0.22374 0.18456 0.23888 0.0
C357 C 0.22713 0.07234 0.21751 0.0
C358 C 0.2512 0.08108 0.20181 0.0
C359 C 0.20847 0.09407 0.22877 0.0
C360 C 0.20037 0.17768 0.24118 0.0
H361 H 0.05085 0.2277 0.26477 0.0
H362 H 0.08819 0.19507 0.24495 0.0
H363 H 0.18772 0.22144 0.25533 0.0
H364 H 0.27498 0.1194 0.18575 0.0
H365 H 0.24122 0.15759 0.20414 0.0
H366 H 0.15182 0.11824 0.23326 0.0
C367 C 0.09592 0.21116 0.25901 0.0
C368 C 0.17969 0.19879 0.25109 0.0
C369 C 0.07441 0.23009 0.27021 0.0
C370 C 0.25654 0.1121 0.19782 0.0
C371 C 0.23725 0.13396 0.20855 0.0
C372 C 0.16038 0.14038 0.23848 0.0
C373 C 0.12674 0.21297 0.26583 0.0
C374 C 0.14915 0.19081 0.25515 0.0
C375 C 0.21269 0.12523 0.22402 0.0
C376 C 0.191 0.14811 0.23468 0.0
H377 H 0.12114 0.27199 0.30772 0.0
H378 H 0.15881 0.2376 0.28938 0.0
H379 H 0.11701 0.15358 0.25218 0.0
H380 H 0.22289 0.04857 0.22133 0.0
H381 H 0.19069 0.08621 0.24125 0.0
C382 C 0.00929 0.22095 0.70306 0.0
C383 C 0.00293 0.25078 0.69529 0.0
C384 C 0.98802 0.20431 0.71678 0.0
C385 C 0.90785 0.19458 0.72953 0.0
H386 H 0.93562 0.15557 0.79093 0.0
C387 C 0.82872 0.11804 0.79005 0.0
C388 C 0.84194 0.0916 0.80002 0.0
C389 C 0.8468 0.14059 0.77897 0.0
C390 C 0.92749 0.16599 0.7737 0.0
H391 H 0.96883 0.28624 0.69544 0.0
H392 H 0.93117 0.25658 0.71901 0.0
H393 H 0.96989 0.18841 0.76748 0.0
H394 H 0.88468 0.06827 0.80603 0.0
H395 H 0.91573 0.10672 0.78634 0.0
H396 H 0.86586 0.17109 0.73505 0.0
C397 C 0.95287 0.24639 0.71456 0.0
C398 C 0.94713 0.18495 0.76036 0.0
C399 C 0.97444 0.26333 0.70115 0.0
C400 C 0.87362 0.08842 0.79884 0.0
C401 C 0.89156 0.1107 0.78762 0.0
C402 C 0.88824 0.17518 0.7427 0.0
C403 C 0.95967 0.21687 0.7228 0.0
C404 C 0.93771 0.19902 0.73793 0.0
C405 C 0.87849 0.1371 0.77746 0.0
C406 C 0.89803 0.16015 0.76472 0.0
H407 H 0.03103 0.21059 0.69902 0.0
H408 H 0.99373 0.18149 0.72269 0.0
H409 H 0.90008 0.2051 0.71222 0.0
H410 H 0.8044 0.12128 0.79066 0.0
H411 H 0.83592 0.16074 0.77162 0.0
C412 C 0.00751 0.87314 0.28165 0.0
C413 C -0.00054 0.84395 0.28985 0.0
C414 C 0.9872 0.89083 0.26794 0.0
C415 C 0.91545 0.88921 0.23108 0.0
H416 H 0.91744 0.97542 0.24595 0.0
C417 C 0.82917 0.97977 0.19317 0.0
C418 C 0.84262 0.00611 0.18313 0.0
C419 C 0.84688 0.95781 0.20537 0.0
C420 C 0.9167 0.95142 0.24151 0.0
H421 H 0.96397 0.80999 0.28939 0.0
H422 H 0.92778 0.84144 0.26593 0.0
H423 H 0.95028 0.94115 0.26914 0.0
H424 H 0.88542 0.02956 0.1777 0.0
H425 H 0.91596 0.99162 0.19921 0.0
H426 H 0.8811 0.89995 0.20369 0.0
C427 C 0.95012 0.85045 0.26984 0.0
C428 C 0.93566 0.93172 0.2547 0.0
C429 C 0.97078 0.83245 0.28335 0.0
C430 C 0.87421 0.00962 0.18515 0.0
C431 C 0.89175 0.98796 0.1976 0.0
C432 C 0.89609 0.90902 0.21804 0.0
C433 C 0.95794 0.88012 0.26236 0.0
C434 C 0.93585 0.90042 0.24932 0.0
C435 C 0.87827 0.96202 0.2081 0.0
C436 C 0.89701 0.94039 0.22282 0.0
H437 H 0.02966 0.88247 0.28588 0.0
H438 H -0.0055 0.91309 0.2618 0.0
H439 H 0.91502 0.86531 0.22634 0.0
H440 H 0.80492 0.97629 0.19189 0.0
H441 H 0.83593 0.93804 0.21337 0.0
C442 C 0.08764 0.87031 0.70731 0.0
C443 C 0.09474 0.84067 0.6994 0.0
C444 C 0.10809 0.88714 0.72171 0.0
C445 C 0.18796 0.89762 0.73519 0.0
H446 H 0.15832 0.94114 0.79401 0.0
C447 C 0.26513 0.97821 0.79363 0.0
C448 C 0.25183 0.00552 0.80188 0.0
C449 C 0.24729 0.95504 0.78323 0.0
C450 C 0.16696 0.9294 0.77751 0.0
H451 H 0.12908 0.8055 0.70038 0.0
H452 H 0.1654 0.83549 0.72525 0.0
H453 H 0.12489 0.9062 0.77172 0.0
H454 H 0.20922 0.02977 0.80549 0.0
H455 H 0.17846 0.98999 0.78695 0.0
H456 H 0.22963 0.92177 0.74025 0.0
C457 C 0.14374 0.84541 0.72033 0.0
C458 C 0.14782 0.90924 0.76485 0.0
C459 C 0.12296 0.82826 0.7062 0.0
C460 C 0.22028 0.00898 0.7996 0.0
C461 C 0.20254 0.98599 0.78906 0.0
C462 C 0.20708 0.9181 0.74771 0.0
C463 C 0.13636 0.87495 0.72834 0.0
C464 C 0.15792 0.89358 0.74329 0.0
C465 C 0.21575 0.9587 0.78069 0.0
C466 C 0.1966 0.93473 0.76874 0.0
H467 H 0.06605 0.88053 0.70259 0.0
H468 H 0.10192 0.90996 0.72739 0.0
H469 H 0.19624 0.88598 0.71851 0.0
H470 H 0.28936 0.97471 0.79515 0.0
H471 H 0.25823 0.93423 0.77726 0.0
C472 C 0.83022 0.96414 0.79384 0.0
C473 C 0.81246 0.98231 0.77786 0.0
C474 C 0.85199 0.94466 0.78387 0.0
C475 C 0.87208 0.90292 0.72649 0.0
H476 H 0.95 0.89456 0.75972 0.0
C477 C 0.96805 0.82919 0.68572 0.0
C478 C 0.98434 0.81102 0.70276 0.0
C479 C 0.94756 0.85082 0.69452 0.0
C480 C 0.92823 0.89643 0.75041 0.0
H481 H 0.80364 0.99452 0.7389 0.0
H482 H 0.84202 0.96021 0.7213 0.0
H483 H 0.91378 0.93215 0.77504 0.0
H484 H 0.99202 0.80117 0.74235 0.0
H485 H 0.95584 0.83897 0.75784 0.0
H486 H 0.88644 0.86702 0.70198 0.0
C487 C 0.83884 0.96104 0.74159 0.0
C488 C 0.90754 0.918 0.75912 0.0
C489 C 0.81701 0.98072 0.75163 0.0
C490 C 0.97977 0.8149 0.72881 0.0
C491 C 0.95922 0.83663 0.73765 0.0
C492 C 0.89278 0.88134 0.71778 0.0
C493 C 0.85651 0.94282 0.75766 0.0
C494 C 0.87916 0.9213 0.74737 0.0
C495 C 0.94288 0.85476 0.72056 0.0
C496 C 0.921 0.87777 0.72974 0.0
H497 H 0.8272 0.96474 0.81415 0.0
H498 H 0.86488 0.93055 0.79671 0.0
H499 H 0.85022 0.90463 0.7173 0.0
H500 H 0.97115 0.82679 0.6655 0.0
H501 H 0.93563 0.86472 0.68091 0.0
C502 C 0.28681 0.97815 0.24653 0.0
C503 C 0.29243 0.97564 0.22049 0.0
C504 C 0.26724 0.95762 0.25848 0.0
C505 C 0.23216 0.88201 0.24994 0.0
H506 H 0.16752 0.91341 0.29221 0.0
C507 C 0.12374 0.81405 0.26972 0.0
C508 C 0.11285 0.81403 0.29463 0.0
C509 C 0.14731 0.83348 0.26277 0.0
C510 C 0.18568 0.90427 0.2807 0.0
H511 H 0.28253 0.94955 0.18662 0.0
H512 H 0.24866 0.91423 0.20726 0.0
H513 H 0.20736 0.94758 0.27739 0.0
H514 H 0.11768 0.83456 0.33175 0.0
H515 H 0.15874 0.8685 0.31955 0.0
H516 H 0.21016 0.8389 0.25269 0.0
C517 C 0.25941 0.93166 0.21861 0.0
C518 C 0.20852 0.92378 0.27233 0.0
C519 C 0.27866 0.95211 0.20674 0.0
C520 C 0.12561 0.83408 0.31237 0.0
C521 C 0.14904 0.8536 0.3054 0.0
C522 C 0.20933 0.86256 0.25823 0.0
C523 C 0.25337 0.93419 0.24456 0.0
C524 C 0.2316 0.91296 0.25639 0.0
C525 C 0.16029 0.85333 0.28059 0.0
C526 C 0.18553 0.87362 0.27326 0.0
H527 H 0.29712 -0.00386 0.25753 0.0
H528 H 0.26299 0.96002 0.27855 0.0
H529 H 0.24998 0.87292 0.23804 0.0
H530 H 0.11429 0.79887 0.25566 0.0
H531 H 0.15527 0.83312 0.2434 0.0
C532 C 0.13904 0.2786 0.69507 0.0
C533 C 0.11262 0.2857 0.70856 0.0
C534 C 0.15928 0.25704 0.7042 0.0
C535 C 0.18022 0.21392 0.76177 0.0
H536 H 0.22463 0.16573 0.71275 0.0
C537 C 0.28224 0.14286 0.79195 0.0
C538 C 0.28782 0.11507 0.77988 0.0
C539 C 0.26027 0.16258 0.78272 0.0
C540 C 0.21216 0.1786 0.72676 0.0
H541 H 0.08635 0.27605 0.74213 0.0
H542 H 0.12121 0.23721 0.75787 0.0
H543 H 0.18614 0.20093 0.69839 0.0
H544 H 0.27514 0.08589 0.74871 0.0
H545 H 0.23559 0.11988 0.73293 0.0
H546 H 0.20508 0.19045 0.79022 0.0
C547 C 0.12683 0.24894 0.74053 0.0
C548 C 0.19037 0.19927 0.71849 0.0
C549 C 0.10681 0.27112 0.73157 0.0
C550 C 0.27138 0.10741 0.75813 0.0
C551 C 0.24879 0.12693 0.74915 0.0
C552 C 0.20158 0.19283 0.77007 0.0
C553 C 0.15322 0.24145 0.7268 0.0
C554 C 0.1746 0.21772 0.73584 0.0
C555 C 0.24274 0.15465 0.76154 0.0
C556 C 0.21835 0.17538 0.75266 0.0
H557 H 0.14412 0.28978 0.67733 0.0
H558 H 0.17974 0.25272 0.69348 0.0
H559 H 0.16871 0.22775 0.77572 0.0
H560 H 0.29488 0.14935 0.80866 0.0
H561 H 0.25707 0.18407 0.79231 0.0
C562 C 0.99152 0.27606 0.24694 0.0
C563 C 0.98128 0.29589 0.26587 0.0
C564 C 0.97152 0.25496 0.23625 0.0
C565 C 0.89168 0.23921 0.22481 0.0
H566 H 0.91157 0.15394 0.23263 0.0
C567 C 0.82062 0.14318 0.18162 0.0
C568 C 0.81157 0.11997 0.19815 0.0
C569 C 0.84194 0.16461 0.18912 0.0
C570 C 0.90581 0.17768 0.23041 0.0
H571 H 0.94252 0.3104 0.28791 0.0
H572 H 0.90737 0.27456 0.2685 0.0
H573 H 0.94875 0.19284 0.24471 0.0
H574 H 0.81788 0.10068 0.2354 0.0
H575 H 0.856 0.13831 0.24853 0.0
H576 H 0.84884 0.22423 0.21054 0.0
C577 C 0.9307 0.27496 0.26211 0.0
C578 C 0.92711 0.19982 0.23698 0.0
C579 C 0.95074 0.2954 0.27317 0.0
C580 C 0.82439 0.11847 0.22239 0.0
C581 C 0.84625 0.13977 0.22979 0.0
C582 C 0.87064 0.21714 0.21786 0.0
C583 C 0.94103 0.25413 0.24399 0.0
C584 C 0.92004 0.23073 0.23446 0.0
C585 C 0.85501 0.16308 0.2132 0.0
C586 C 0.87741 0.18622 0.22083 0.0
H587 H 0.01517 0.27583 0.24142 0.0
H588 H 0.97988 0.23902 0.22227 0.0
H589 H 0.88575 0.26294 0.22282 0.0
H590 H 0.81109 0.14491 0.16281 0.0
H591 H 0.84848 0.18225 0.17597 0.0
loop_
_geom_bond_atom_site_label_1
_geom_bond_atom_site_label_2
_geom_bond_distance
_geom_bond_site_symmetry_2
_ccdc_geom_bond_type
Co0 O1 2.216 . S
Co0 O2 2.091 . S
Co0 O4 2.004 . S
Co0 O10 2.021 . S
Co0 O12 2.137 . S
Co0 O13 2.244 . S
O1 Co0 2.216 . S
O1 C8 1.247 . S
O2 Co0 2.091 . S
O2 C8 1.261 . S
C3 O12 1.247 1_565 S
C3 O13 1.272 1_565 S
O4 Co0 2.004 . S
O4 C9 1.259 . S
Co5 O6 2.061 . S
Co5 O11 2.052 . S
Co5 O13 2.135 . S
O6 Co5 2.061 . S
O6 C9 1.235 . S
C7 O10 1.238 . S
C7 O11 1.241 . S
C8 O1 1.247 . S
C8 O2 1.261 . S
C9 O4 1.259 . S
C9 O6 1.235 . S
O10 Co0 2.021 . S
O10 C7 1.238 . S
O11 Co5 2.052 . S
O11 C7 1.241 . S
O12 Co0 2.137 . S
O12 C3 1.247 1_545 S
O13 Co0 2.244 . S
O13 C3 1.272 1_545 S
O13 Co5 2.135 . S
Co14 O15 2.216 . S
Co14 O16 2.091 . S
Co14 O18 2.004 . S
Co14 O24 2.021 . S
Co14 O26 2.137 . S
Co14 O27 2.244 . S
O15 Co14 2.216 . S
O15 C22 1.247 . S
O16 Co14 2.091 . S
O16 C22 1.261 . S
C17 O26 1.247 . S
C17 O27 1.272 . S
O18 Co14 2.004 . S
O18 C23 1.259 . S
Co19 O20 2.061 . S
Co19 O25 2.052 . S
Co19 O27 2.135 . S
O20 Co19 2.061 . S
O20 C23 1.235 . S
C21 O24 1.238 . S
C21 O25 1.241 . S
C22 O15 1.247 . S
C22 O16 1.261 . S
C23 O18 1.259 . S
C23 O20 1.235 . S
O24 Co14 2.021 . S
O24 C21 1.238 . S
O25 Co19 2.052 . S
O25 C21 1.241 . S
O26 Co14 2.137 . S
O26 C17 1.247 . S
O27 Co14 2.244 . S
O27 C17 1.272 . S
O27 Co19 2.135 . S
Co28 O29 2.216 . S
Co28 O30 2.091 . S
Co28 O32 2.004 . S
Co28 O38 2.021 . S
Co28 O40 2.137 . S
Co28 O41 2.244 . S
O29 Co28 2.216 . S
O29 C36 1.247 . S
O30 Co28 2.091 . S
O30 C36 1.261 . S
C31 O40 1.247 . S
C31 O41 1.272 . S
O32 Co28 2.004 . S
O32 C37 1.259 . S
Co33 O34 2.061 . S
Co33 O39 2.052 . S
Co33 O41 2.135 . S
O34 Co33 2.061 . S
O34 C37 1.235 . S
C35 O38 1.238 . S
C35 O39 1.241 . S
C36 O29 1.247 . S
C36 O30 1.261 . S
C37 O32 1.259 . S
C37 O34 1.235 . S
O38 Co28 2.021 . S
O38 C35 1.238 . S
O39 Co33 2.052 . S
O39 C35 1.241 . S
O40 Co28 2.137 . S
O40 C31 1.247 . S
O41 Co28 2.244 . S
O41 C31 1.272 . S
O41 Co33 2.135 . S
Co42 O43 2.216 . S
Co42 O44 2.091 . S
Co42 O46 2.004 . S
Co42 O52 2.021 . S
Co42 O54 2.137 . S
Co42 O55 2.244 . S
O43 Co42 2.216 . S
O43 C50 1.247 . S
O44 Co42 2.091 . S
O44 C50 1.261 . S
C45 O54 1.247 1_655 S
C45 O55 1.272 1_655 S
O46 Co42 2.004 . S
O46 C51 1.259 . S
Co47 O48 2.061 . S
Co47 O53 2.052 . S
Co47 O55 2.135 . S
O48 Co47 2.061 . S
O48 C51 1.235 . S
C49 O52 1.238 . S
C49 O53 1.241 . S
C50 O43 1.247 . S
C50 O44 1.261 . S
C51 O46 1.259 . S
C51 O48 1.235 . S
O52 Co42 2.021 . S
O52 C49 1.238 . S
O53 Co47 2.052 . S
O53 C49 1.241 . S
O54 Co42 2.137 . S
O54 C45 1.247 1_455 S
O55 Co42 2.244 . S
O55 C45 1.272 1_455 S
O55 Co47 2.135 . S
Co56 O57 2.216 . S
Co56 O58 2.091 . S
Co56 O60 2.004 . S
Co56 O66 2.021 . S
Co56 O68 2.137 . S
Co56 O69 2.244 . S
O57 Co56 2.216 . S
O57 C64 1.247 . S
O58 Co56 2.091 . S
O58 C64 1.261 . S
C59 O68 1.247 . S
C59 O69 1.272 . S
O60 Co56 2.004 . S
O60 C65 1.259 . S
Co61 O62 2.061 . S
Co61 O67 2.052 . S
Co61 O69 2.135 . S
O62 Co61 2.061 . S
O62 C65 1.235 . S
C63 O66 1.238 . S
C63 O67 1.241 . S
C64 O57 1.247 . S
C64 O58 1.261 . S
C65 O60 1.259 . S
C65 O62 1.235 . S
O66 Co56 2.021 . S
O66 C63 1.238 . S
O67 Co61 2.052 . S
O67 C63 1.241 . S
O68 Co56 2.137 . S
O68 C59 1.247 . S
O69 Co56 2.244 . S
O69 C59 1.272 . S
O69 Co61 2.135 . S
Co70 O71 2.216 . S
Co70 O72 2.091 . S
Co70 O74 2.004 . S
Co70 O80 2.021 . S
Co70 O82 2.137 . S
Co70 O83 2.244 . S
O71 Co70 2.216 . S
O71 C78 1.247 . S
O72 Co70 2.091 . S
O72 C78 1.261 . S
C73 O82 1.247 1_655 S
C73 O83 1.272 1_655 S
O74 Co70 2.004 . S
O74 C79 1.259 . S
Co75 O76 2.061 . S
Co75 O81 2.052 . S
Co75 O83 2.135 . S
O76 Co75 2.061 . S
O76 C79 1.235 . S
C77 O80 1.238 . S
C77 O81 1.241 . S
C78 O71 1.247 . S
C78 O72 1.261 . S
C79 O74 1.259 . S
C79 O76 1.235 . S
O80 Co70 2.021 . S
O80 C77 1.238 . S
O81 Co75 2.052 . S
O81 C77 1.241 . S
O82 Co70 2.137 . S
O82 C73 1.247 1_455 S
O83 Co70 2.244 . S
O83 C73 1.272 1_455 S
O83 Co75 2.135 . S
Co84 O85 2.216 . S
Co84 O86 2.091 . S
Co84 O88 2.004 . S
Co84 O94 2.021 . S
Co84 O96 2.137 . S
Co84 O97 2.244 . S
O85 Co84 2.216 . S
O85 C92 1.247 . S
O86 Co84 2.091 . S
O86 C92 1.261 . S
C87 O96 1.247 1_565 S
C87 O97 1.272 1_565 S
O88 Co84 2.004 . S
O88 C93 1.259 . S
Co89 O90 2.061 . S
Co89 O95 2.052 . S
Co89 O97 2.135 . S
O90 Co89 2.061 . S
O90 C93 1.235 . S
C91 O94 1.238 . S
C91 O95 1.241 . S
C92 O85 1.247 . S
C92 O86 1.261 . S
C93 O88 1.259 . S
C93 O90 1.235 . S
O94 Co84 2.021 . S
O94 C91 1.238 . S
O95 Co89 2.052 . S
O95 C91 1.241 . S
O96 Co84 2.137 . S
O96 C87 1.247 1_545 S
O97 Co84 2.244 . S
O97 C87 1.272 1_545 S
O97 Co89 2.135 . S
Co98 O99 2.216 . S
Co98 O100 2.091 . S
Co98 O102 2.004 . S
Co98 O108 2.021 . S
Co98 O110 2.137 . S
Co98 O111 2.244 . S
O99 Co98 2.216 . S
O99 C106 1.247 . S
O100 Co98 2.091 . S
O100 C106 1.261 . S
C101 O110 1.247 . S
C101 O111 1.272 . S
O102 Co98 2.004 . S
O102 C107 1.259 . S
Co103 O104 2.061 . S
Co103 O109 2.052 . S
Co103 O111 2.135 . S
O104 Co103 2.061 . S
O104 C107 1.235 . S
C105 O108 1.238 . S
C105 O109 1.241 . S
C106 O99 1.247 . S
C106 O100 1.261 . S
C107 O102 1.259 . S
C107 O104 1.235 . S
O108 Co98 2.021 . S
O108 C105 1.238 . S
O109 Co103 2.052 . S
O109 C105 1.241 . S
O110 Co98 2.137 . S
O110 C101 1.247 . S
O111 Co98 2.244 . S
O111 C101 1.272 . S
O111 Co103 2.135 . S
C112 C113 1.349 . S
C112 C114 1.327 . S
C112 H137 0.950 . S
C113 C112 1.349 . S
C113 C129 1.349 . S
C114 C112 1.327 . S
C114 C133 1.429 . S
C114 H138 0.950 . S
C115 C132 1.574 1_554 S
C115 C134 1.368 . S
C115 H139 0.949 . S
H116 C120 0.949 . S
C117 C118 1.349 . S
C117 C119 1.327 . S
C117 H140 0.950 . S
C118 C117 1.349 . S
C118 C130 1.349 . S
C119 C117 1.327 . S
C119 C135 1.429 . S
C119 H141 0.950 . S
C120 H116 0.949 . S
C120 C128 1.574 1_556 S
C120 C136 1.368 . S
H121 C129 0.950 . S
H122 C127 0.950 . S
H123 C128 0.949 . S
H124 C130 0.950 . S
H125 C131 0.950 . S
H126 C132 0.949 . S
C127 H122 0.950 . S
C127 C129 1.327 . S
C127 C133 1.429 . S
C128 C120 1.574 1_554 S
C128 H123 0.949 . S
C128 C134 1.368 . S
C129 C113 1.349 . S
C129 H121 0.950 . S
C129 C127 1.327 . S
C130 C118 1.349 . S
C130 H124 0.950 . S
C130 C131 1.327 . S
C131 H125 0.950 . S
C131 C130 1.327 . S
C131 C135 1.429 . S
C132 C115 1.574 1_556 S
C132 H126 0.949 . S
C132 C136 1.368 . S
C133 C114 1.429 . S
C133 C127 1.429 . S
C133 C134 1.523 . S
C134 C115 1.368 . S
C134 C128 1.368 . S
C134 C133 1.523 . S
C135 C119 1.429 . S
C135 C131 1.429 . S
C135 C136 1.523 . S
C136 C120 1.368 . S
C136 C132 1.368 . S
C136 C135 1.523 . S
H137 C112 0.950 . S
H138 C114 0.950 . S
H139 C115 0.949 . S
H140 C117 0.950 . S
H141 C119 0.950 . S
C142 C143 1.349 . S
C142 C144 1.327 . S
C142 H167 0.950 . S
C143 C142 1.349 . S
C143 C159 1.349 . S
C144 C142 1.327 . S
C144 C163 1.429 . S
C144 H168 0.950 . S
C145 C162 1.574 . S
C145 C164 1.368 . S
C145 H169 0.949 . S
H146 C150 0.949 . S
C147 C148 1.349 . S
C147 C149 1.327 . S
C147 H170 0.950 . S
C148 C147 1.349 . S
C148 C160 1.349 . S
C149 C147 1.327 . S
C149 C165 1.429 . S
C149 H171 0.950 . S
C150 H146 0.949 . S
C150 C158 1.574 . S
C150 C166 1.368 . S
H151 C159 0.950 . S
H152 C157 0.950 . S
H153 C158 0.949 . S
H154 C160 0.950 . S
H155 C161 0.950 . S
H156 C162 0.949 . S
C157 H152 0.950 . S
C157 C159 1.327 . S
C157 C163 1.429 . S
C158 C150 1.574 . S
C158 H153 0.949 . S
C158 C164 1.368 . S
C159 C143 1.349 . S
C159 H151 0.950 . S
C159 C157 1.327 . S
C160 C148 1.349 . S
C160 H154 0.950 . S
C160 C161 1.327 . S
C161 H155 0.950 . S
C161 C160 1.327 . S
C161 C165 1.429 . S
C162 C145 1.574 . S
C162 H156 0.949 . S
C162 C166 1.368 . S
C163 C144 1.429 . S
C163 C157 1.429 . S
C163 C164 1.523 . S
C164 C145 1.368 . S
C164 C158 1.368 . S
C164 C163 1.523 . S
C165 C149 1.429 . S
C165 C161 1.429 . S
C165 C166 1.523 . S
C166 C150 1.368 . S
C166 C162 1.368 . S
C166 C165 1.523 . S
H167 C142 0.950 . S
H168 C144 0.950 . S
H169 C145 0.949 . S
H170 C147 0.950 . S
H171 C149 0.950 . S
C172 C173 1.349 . S
C172 C174 1.327 . S
C172 H197 0.950 . S
C173 C172 1.349 . S
C173 C189 1.349 . S
C174 C172 1.327 . S
C174 C193 1.429 . S
C174 H198 0.950 . S
C175 C192 1.574 1_556 S
C175 C194 1.368 . S
C175 H199 0.949 . S
H176 C180 0.949 . S
C177 C178 1.349 . S
C177 C179 1.327 . S
C177 H200 0.950 . S
C178 C177 1.349 . S
C178 C190 1.349 . S
C179 C177 1.327 . S
C179 C195 1.429 . S
C179 H201 0.950 . S
C180 H176 0.949 . S
C180 C188 1.574 1_554 S
C180 C196 1.368 . S
H181 C189 0.950 . S
H182 C187 0.950 . S
H183 C188 0.949 . S
H184 C190 0.950 . S
H185 C191 0.950 . S
H186 C192 0.949 . S
C187 H182 0.950 . S
C187 C189 1.327 . S
C187 C193 1.429 . S
C188 C180 1.574 1_556 S
C188 H183 0.949 . S
C188 C194 1.368 . S
C189 C173 1.349 . S
C189 H181 0.950 . S
C189 C187 1.327 . S
C190 C178 1.349 . S
C190 H184 0.950 . S
C190 C191 1.327 . S
C191 H185 0.950 . S
C191 C190 1.327 . S
C191 C195 1.429 . S
C192 C175 1.574 1_554 S
C192 H186 0.949 . S
C192 C196 1.368 . S
C193 C174 1.429 . S
C193 C187 1.429 . S
C193 C194 1.523 . S
C194 C175 1.368 . S
C194 C188 1.368 . S
C194 C193 1.523 . S
C195 C179 1.429 . S
C195 C191 1.429 . S
C195 C196 1.523 . S
C196 C180 1.368 . S
C196 C192 1.368 . S
C196 C195 1.523 . S
H197 C172 0.950 . S
H198 C174 0.950 . S
H199 C175 0.949 . S
H200 C177 0.950 . S
H201 C179 0.950 . S
C202 C203 1.349 . S
C202 C204 1.327 . S
C202 H227 0.950 . S
C203 C202 1.349 . S
C203 C219 1.349 . S
C204 C202 1.327 . S
C204 C223 1.429 . S
C204 H228 0.950 . S
C205 C222 1.574 . S
C205 C224 1.368 . S
C205 H229 0.949 . S
H206 C210 0.949 . S
C207 C208 1.349 . S
C207 C209 1.327 . S
C207 H230 0.950 . S
C208 C207 1.349 . S
C208 C220 1.349 . S
C209 C207 1.327 . S
C209 C225 1.429 . S
C209 H231 0.950 . S
C210 H206 0.949 . S
C210 C218 1.574 . S
C210 C226 1.368 . S
H211 C219 0.950 . S
H212 C217 0.950 . S
H213 C218 0.949 . S
H214 C220 0.950 . S
H215 C221 0.950 . S
H216 C222 0.949 . S
C217 H212 0.950 . S
C217 C219 1.327 . S
C217 C223 1.429 . S
C218 C210 1.574 . S
C218 H213 0.949 . S
C218 C224 1.368 . S
C219 C203 1.349 . S
C219 H211 0.950 . S
C219 C217 1.327 . S
C220 C208 1.349 . S
C220 H214 0.950 . S
C220 C221 1.327 . S
C221 H215 0.950 . S
C221 C220 1.327 . S
C221 C225 1.429 . S
C222 C205 1.574 . S
C222 H216 0.949 . S
C222 C226 1.368 . S
C223 C204 1.429 . S
C223 C217 1.429 . S
C223 C224 1.523 . S
C224 C205 1.368 . S
C224 C218 1.368 . S
C224 C223 1.523 . S
C225 C209 1.429 . S
C225 C221 1.429 . S
C225 C226 1.523 . S
C226 C210 1.368 . S
C226 C222 1.368 . S
C226 C225 1.523 . S
H227 C202 0.950 . S
H228 C204 0.950 . S
H229 C205 0.949 . S
H230 C207 0.950 . S
H231 C209 0.950 . S
C232 C233 1.349 . S
C232 C234 1.327 . S
C232 H257 0.950 . S
C233 C232 1.349 . S
C233 C249 1.349 . S
C234 C232 1.327 . S
C234 C253 1.429 . S
C234 H258 0.950 . S
C235 C252 1.574 . S
C235 C254 1.368 . S
C235 H259 0.949 . S
H236 C240 0.949 . S
C237 C238 1.349 . S
C237 C239 1.327 . S
C237 H260 0.950 . S
C238 C237 1.349 . S
C238 C250 1.349 . S
C239 C237 1.327 . S
C239 C255 1.429 . S
C239 H261 0.950 . S
C240 H236 0.949 . S
C240 C248 1.574 . S
C240 C256 1.368 . S
H241 C249 0.950 . S
H242 C247 0.950 . S
H243 C248 0.949 . S
H244 C250 0.950 . S
H245 C251 0.950 . S
H246 C252 0.949 . S
C247 H242 0.950 . S
C247 C249 1.327 . S
C247 C253 1.429 . S
C248 C240 1.574 . S
C248 H243 0.949 . S
C248 C254 1.368 . S
C249 C233 1.349 . S
C249 H241 0.950 . S
C249 C247 1.327 . S
C250 C238 1.349 . S
C250 H244 0.950 . S
C250 C251 1.327 . S
C251 H245 0.950 . S
C251 C250 1.327 . S
C251 C255 1.429 . S
C252 C235 1.574 . S
C252 H246 0.949 . S
C252 C256 1.368 . S
C253 C234 1.429 . S
C253 C247 1.429 . S
C253 C254 1.523 . S
C254 C235 1.368 . S
C254 C248 1.368 . S
C254 C253 1.523 . S
C255 C239 1.429 . S
C255 C251 1.429 . S
C255 C256 1.523 . S
C256 C240 1.368 . S
C256 C252 1.368 . S
C256 C255 1.523 . S
H257 C232 0.950 . S
H258 C234 0.950 . S
H259 C235 0.949 . S
H260 C237 0.950 . S
H261 C239 0.950 . S
C262 C263 1.349 . S
C262 C264 1.327 . S
C262 H287 0.950 . S
C263 C262 1.349 . S
C263 C279 1.349 . S
C264 C262 1.327 . S
C264 C283 1.429 . S
C264 H288 0.950 . S
C265 C282 1.574 . S
C265 C284 1.368 . S
C265 H289 0.949 . S
H266 C270 0.949 . S
C267 C268 1.349 . S
C267 C269 1.327 . S
C267 H290 0.950 . S
C268 C267 1.349 . S
C268 C280 1.349 . S
C269 C267 1.327 . S
C269 C285 1.429 . S
C269 H291 0.950 . S
C270 H266 0.949 . S
C270 C278 1.574 . S
C270 C286 1.368 . S
H271 C279 0.950 . S
H272 C277 0.950 . S
H273 C278 0.949 . S
H274 C280 0.950 . S
H275 C281 0.950 . S
H276 C282 0.949 . S
C277 H272 0.950 . S
C277 C279 1.327 . S
C277 C283 1.429 . S
C278 C270 1.574 . S
C278 H273 0.949 . S
C278 C284 1.368 . S
C279 C263 1.349 . S
C279 H271 0.950 . S
C279 C277 1.327 . S
C280 C268 1.349 . S
C280 H274 0.950 . S
C280 C281 1.327 . S
C281 H275 0.950 . S
C281 C280 1.327 . S
C281 C285 1.429 . S
C282 C265 1.574 . S
C282 H276 0.949 . S
C282 C286 1.368 . S
C283 C264 1.429 . S
C283 C277 1.429 . S
C283 C284 1.523 . S
C284 C265 1.368 . S
C284 C278 1.368 . S
C284 C283 1.523 . S
C285 C269 1.429 . S
C285 C281 1.429 . S
C285 C286 1.523 . S
C286 C270 1.368 . S
C286 C282 1.368 . S
C286 C285 1.523 . S
H287 C262 0.950 . S
H288 C264 0.950 . S
H289 C265 0.949 . S
H290 C267 0.950 . S
H291 C269 0.950 . S
C292 C293 1.349 . S
C292 C294 1.327 . S
C292 H317 0.950 . S
C293 C292 1.349 . S
C293 C309 1.349 . S
C294 C292 1.327 . S
C294 C313 1.429 . S
C294 H318 0.950 . S
C295 C312 1.574 . S
C295 C314 1.368 . S
C295 H319 0.949 . S
H296 C300 0.949 . S
C297 C298 1.349 . S
C297 C299 1.327 . S
C297 H320 0.950 . S
C298 C297 1.349 . S
C298 C310 1.349 . S
C299 C297 1.327 . S
C299 C315 1.429 . S
C299 H321 0.950 . S
C300 H296 0.949 . S
C300 C308 1.574 . S
C300 C316 1.368 . S
H301 C309 0.950 . S
H302 C307 0.950 . S
H303 C308 0.949 . S
H304 C310 0.950 . S
H305 C311 0.950 . S
H306 C312 0.949 . S
C307 H302 0.950 . S
C307 C309 1.327 . S
C307 C313 1.429 . S
C308 C300 1.574 . S
C308 H303 0.949 . S
C308 C314 1.368 . S
C309 C293 1.349 . S
C309 H301 0.950 . S
C309 C307 1.327 . S
C310 C298 1.349 . S
C310 H304 0.950 . S
C310 C311 1.327 . S
C311 H305 0.950 . S
C311 C310 1.327 . S
C311 C315 1.429 . S
C312 C295 1.574 . S
C312 H306 0.949 . S
C312 C316 1.368 . S
C313 C294 1.429 . S
C313 C307 1.429 . S
C313 C314 1.523 . S
C314 C295 1.368 . S
C314 C308 1.368 . S
C314 C313 1.523 . S
C315 C299 1.429 . S
C315 C311 1.429 . S
C315 C316 1.523 . S
C316 C300 1.368 . S
C316 C312 1.368 . S
C316 C315 1.523 . S
H317 C292 0.950 . S
H318 C294 0.950 . S
H319 C295 0.949 . S
H320 C297 0.950 . S
H321 C299 0.950 . S
C322 C323 1.349 . S
C322 C324 1.327 . S
C322 H347 0.950 . S
C323 C322 1.349 . S
C323 C339 1.349 . S
C324 C322 1.327 . S
C324 C343 1.429 . S
C324 H348 0.950 . S
C325 C342 1.574 . S
C325 C344 1.368 . S
C325 H349 0.949 . S
H326 C330 0.949 . S
C327 C328 1.349 . S
C327 C329 1.327 . S
C327 H350 0.950 . S
C328 C327 1.349 . S
C328 C340 1.349 . S
C329 C327 1.327 . S
C329 C345 1.429 . S
C329 H351 0.950 . S
C330 H326 0.949 . S
C330 C338 1.574 . S
C330 C346 1.368 . S
H331 C339 0.950 . S
H332 C337 0.950 . S
H333 C338 0.949 . S
H334 C340 0.950 . S
H335 C341 0.950 . S
H336 C342 0.949 . S
C337 H332 0.950 . S
C337 C339 1.327 . S
C337 C343 1.429 . S
C338 C330 1.574 . S
C338 H333 0.949 . S
C338 C344 1.368 . S
C339 C323 1.349 . S
C339 H331 0.950 . S
C339 C337 1.327 . S
C340 C328 1.349 . S
C340 H334 0.950 . S
C340 C341 1.327 . S
C341 H335 0.950 . S
C341 C340 1.327 . S
C341 C345 1.429 . S
C342 C325 1.574 . S
C342 H336 0.949 . S
C342 C346 1.368 . S
C343 C324 1.429 . S
C343 C337 1.429 . S
C343 C344 1.523 . S
C344 C325 1.368 . S
C344 C338 1.368 . S
C344 C343 1.523 . S
C345 C329 1.429 . S
C345 C341 1.429 . S
C345 C346 1.523 . S
C346 C330 1.368 . S
C346 C342 1.368 . S
C346 C345 1.523 . S
H347 C322 0.950 . S
H348 C324 0.950 . S
H349 C325 0.949 . S
H350 C327 0.950 . S
H351 C329 0.950 . S
C352 C353 1.349 . S
C352 C354 1.327 . S
C352 H377 0.950 . S
C353 C352 1.349 . S
C353 C369 1.349 . S
C354 C352 1.327 . S
C354 C373 1.429 . S
C354 H378 0.950 . S
C355 C372 1.574 . S
C355 C374 1.368 . S
C355 H379 0.949 . S
H356 C360 0.949 . S
C357 C358 1.349 . S
C357 C359 1.327 . S
C357 H380 0.950 . S
C358 C357 1.349 . S
C358 C370 1.349 . S
C359 C357 1.327 . S
C359 C375 1.429 . S
C359 H381 0.950 . S
C360 H356 0.949 . S
C360 C368 1.574 . S
C360 C376 1.368 . S
H361 C369 0.950 . S
H362 C367 0.950 . S
H363 C368 0.949 . S
H364 C370 0.950 . S
H365 C371 0.950 . S
H366 C372 0.949 . S
C367 H362 0.950 . S
C367 C369 1.327 . S
C367 C373 1.429 . S
C368 C360 1.574 . S
C368 H363 0.949 . S
C368 C374 1.368 . S
C369 C353 1.349 . S
C369 H361 0.950 . S
C369 C367 1.327 . S
C370 C358 1.349 . S
C370 H364 0.950 . S
C370 C371 1.327 . S
C371 H365 0.950 . S
C371 C370 1.327 . S
C371 C375 1.429 . S
C372 C355 1.574 . S
C372 H366 0.949 . S
C372 C376 1.368 . S
C373 C354 1.429 . S
C373 C367 1.429 . S
C373 C374 1.523 . S
C374 C355 1.368 . S
C374 C368 1.368 . S
C374 C373 1.523 . S
C375 C359 1.429 . S
C375 C371 1.429 . S
C375 C376 1.523 . S
C376 C360 1.368 . S
C376 C372 1.368 . S
C376 C375 1.523 . S
H377 C352 0.950 . S
H378 C354 0.950 . S
H379 C355 0.949 . S
H380 C357 0.950 . S
H381 C359 0.950 . S
C382 C383 1.350 . S
C382 C384 1.351 . S
C382 H407 0.926 1_655 S
C383 C382 1.350 . S
C383 C399 1.349 . S
C384 C382 1.351 . S
C384 C403 1.429 . S
C384 H408 0.950 . S
C385 C402 1.574 . S
C385 C404 1.368 . S
C385 H409 0.949 . S
H386 C390 0.949 . S
C387 C388 1.349 . S
C387 C389 1.327 . S
C387 H410 0.950 . S
C388 C387 1.349 . S
C388 C400 1.349 . S
C389 C387 1.327 . S
C389 C405 1.429 . S
C389 H411 0.950 . S
C390 H386 0.949 . S
C390 C398 1.574 . S
C390 C406 1.368 . S
H391 C399 0.950 . S
H392 C397 0.950 . S
H393 C398 0.949 . S
H394 C400 0.950 . S
H395 C401 0.950 . S
H396 C402 0.949 . S
C397 H392 0.950 . S
C397 C399 1.327 . S
C397 C403 1.429 . S
C398 C390 1.574 . S
C398 H393 0.949 . S
C398 C404 1.368 . S
C399 C383 1.349 . S
C399 H391 0.950 . S
C399 C397 1.327 . S
C400 C388 1.349 . S
C400 H394 0.950 . S
C400 C401 1.327 . S
C401 H395 0.950 . S
C401 C400 1.327 . S
C401 C405 1.429 . S
C402 C385 1.574 . S
C402 H396 0.949 . S
C402 C406 1.368 . S
C403 C384 1.429 . S
C403 C397 1.429 . S
C403 C404 1.523 . S
C404 C385 1.368 . S
C404 C398 1.368 . S
C404 C403 1.523 . S
C405 C389 1.429 . S
C405 C401 1.429 . S
C405 C406 1.523 . S
C406 C390 1.368 . S
C406 C402 1.368 . S
C406 C405 1.523 . S
H407 C382 0.926 1_455 S
H408 C384 0.950 . S
H409 C385 0.949 . S
H410 C387 0.950 . S
H411 C389 0.950 . S
C412 C413 1.349 1_455 S
C412 C414 1.327 1_455 S
C412 H437 0.950 . S
C413 C412 1.349 1_655 S
C413 C429 1.349 . S
C414 C412 1.327 1_655 S
C414 C433 1.429 . S
C414 H438 0.950 . S
C415 C432 1.574 . S
C415 C434 1.368 . S
C415 H439 0.949 . S
H416 C420 0.949 . S
C417 C418 1.349 . S
C417 C419 1.327 . S
C417 H440 0.950 . S
C418 C417 1.349 . S
C418 C430 1.349 . S
C419 C417 1.327 . S
C419 C435 1.429 . S
C419 H441 0.950 . S
C420 H416 0.949 . S
C420 C428 1.574 . S
C420 C436 1.368 . S
H421 C429 0.950 . S
H422 C427 0.950 . S
H423 C428 0.949 . S
H424 C430 0.932 1_545 S
H425 C431 0.950 . S
H426 C432 0.949 . S
C427 H422 0.950 . S
C427 C429 1.327 . S
C427 C433 1.429 . S
C428 C420 1.574 . S
C428 H423 0.949 . S
C428 C434 1.368 . S
C429 C413 1.349 . S
C429 H421 0.950 . S
C429 C427 1.327 . S
C430 C418 1.349 . S
C430 H424 0.932 1_565 S
C430 C431 1.344 . S
C431 H425 0.950 . S
C431 C430 1.344 . S
C431 C435 1.429 . S
C432 C415 1.574 . S
C432 H426 0.949 . S
C432 C436 1.368 . S
C433 C414 1.429 . S
C433 C427 1.429 . S
C433 C434 1.523 . S
C434 C415 1.368 . S
C434 C428 1.368 . S
C434 C433 1.523 . S
C435 C419 1.429 . S
C435 C431 1.429 . S
C435 C436 1.523 . S
C436 C420 1.368 . S
C436 C432 1.368 . S
C436 C435 1.523 . S
H437 C412 0.950 . S
H438 C414 0.950 . S
H439 C415 0.949 . S
H440 C417 0.950 . S
H441 C419 0.950 . S
C442 C443 1.349 . S
C442 C444 1.327 . S
C442 H467 0.950 . S
C443 C442 1.349 . S
C443 C459 1.349 . S
C444 C442 1.327 . S
C444 C463 1.429 . S
C444 H468 0.950 . S
C445 C462 1.574 . S
C445 C464 1.368 . S
C445 H469 0.949 . S
H446 C450 0.949 . S
C447 C448 1.349 . S
C447 C449 1.327 . S
C447 H470 0.950 . S
C448 C447 1.349 . S
C448 C460 1.349 1_565 S
C449 C447 1.327 . S
C449 C465 1.429 . S
C449 H471 0.950 . S
C450 H446 0.949 . S
C450 C458 1.574 . S
C450 C466 1.368 . S
H451 C459 0.950 . S
H452 C457 0.950 . S
H453 C458 0.949 . S
H454 C460 0.950 . S
H455 C461 0.950 . S
H456 C462 0.949 . S
C457 H452 0.950 . S
C457 C459 1.327 . S
C457 C463 1.429 . S
C458 C450 1.574 . S
C458 H453 0.949 . S
C458 C464 1.368 . S
C459 C443 1.349 . S
C459 H451 0.950 . S
C459 C457 1.327 . S
C460 C448 1.349 1_545 S
C460 H454 0.950 . S
C460 C461 1.327 1_545 S
C461 H455 0.950 . S
C461 C460 1.327 1_565 S
C461 C465 1.429 . S
C462 C445 1.574 . S
C462 H456 0.949 . S
C462 C466 1.368 . S
C463 C444 1.429 . S
C463 C457 1.429 . S
C463 C464 1.523 . S
C464 C445 1.368 . S
C464 C458 1.368 . S
C464 C463 1.523 . S
C465 C449 1.429 . S
C465 C461 1.429 . S
C465 C466 1.523 . S
C466 C450 1.368 . S
C466 C462 1.368 . S
C466 C465 1.523 . S
H467 C442 0.950 . S
H468 C444 0.950 . S
H469 C445 0.949 . S
H470 C447 0.950 . S
H471 C449 0.950 . S
C472 C473 1.349 . S
C472 C474 1.327 . S
C472 H497 0.950 . S
C473 C472 1.349 . S
C473 C489 1.349 . S
C474 C472 1.327 . S
C474 C493 1.429 . S
C474 H498 0.950 . S
C475 C492 1.574 . S
C475 C494 1.368 . S
C475 H499 0.949 . S
H476 C480 0.949 . S
C477 C478 1.349 . S
C477 C479 1.327 . S
C477 H500 0.950 . S
C478 C477 1.349 . S
C478 C490 1.349 . S
C479 C477 1.327 . S
C479 C495 1.429 . S
C479 H501 0.950 . S
C480 H476 0.949 . S
C480 C488 1.574 . S
C480 C496 1.368 . S
H481 C489 0.950 . S
H482 C487 0.950 . S
H483 C488 0.949 . S
H484 C490 0.950 1_455 S
H485 C491 0.950 . S
H486 C492 0.949 . S
C487 H482 0.950 . S
C487 C489 1.327 . S
C487 C493 1.429 . S
C488 C480 1.574 . S
C488 H483 0.949 . S
C488 C494 1.368 . S
C489 C473 1.349 . S
C489 H481 0.950 . S
C489 C487 1.327 . S
C490 C478 1.349 . S
C490 H484 0.950 1_655 S
C490 C491 1.327 . S
C491 H485 0.950 . S
C491 C490 1.327 . S
C491 C495 1.429 . S
C492 C475 1.574 . S
C492 H486 0.949 . S
C492 C496 1.368 . S
C493 C474 1.429 . S
C493 C487 1.429 . S
C493 C494 1.523 . S
C494 C475 1.368 . S
C494 C488 1.368 . S
C494 C493 1.523 . S
C495 C479 1.429 . S
C495 C491 1.429 . S
C495 C496 1.523 . S
C496 C480 1.368 . S
C496 C492 1.368 . S
C496 C495 1.523 . S
H497 C472 0.950 . S
H498 C474 0.950 . S
H499 C475 0.949 . S
H500 C477 0.950 . S
H501 C479 0.950 . S
C502 C503 1.349 . S
C502 C504 1.327 . S
C502 H527 0.916 1_565 S
C503 C502 1.349 . S
C503 C519 1.349 . S
C504 C502 1.327 . S
C504 C523 1.429 . S
C504 H528 0.950 . S
C505 C522 1.574 . S
C505 C524 1.368 . S
C505 H529 0.949 . S
H506 C510 0.949 . S
C507 C508 1.349 . S
C507 C509 1.327 . S
C507 H530 0.950 . S
C508 C507 1.349 . S
C508 C520 1.349 . S
C509 C507 1.327 . S
C509 C525 1.429 . S
C509 H531 0.950 . S
C510 H506 0.949 . S
C510 C518 1.574 . S
C510 C526 1.368 . S
H511 C519 0.950 . S
H512 C517 0.950 . S
H513 C518 0.949 . S
H514 C520 0.950 . S
H515 C521 0.950 . S
H516 C522 0.949 . S
C517 H512 0.950 . S
C517 C519 1.327 . S
C517 C523 1.429 . S
C518 C510 1.574 . S
C518 H513 0.949 . S
C518 C524 1.368 . S
C519 C503 1.349 . S
C519 H511 0.950 . S
C519 C517 1.327 . S
C520 C508 1.349 . S
C520 H514 0.950 . S
C520 C521 1.327 . S
C521 H515 0.950 . S
C521 C520 1.327 . S
C521 C525 1.429 . S
C522 C505 1.574 . S
C522 H516 0.949 . S
C522 C526 1.368 . S
C523 C504 1.429 . S
C523 C517 1.429 . S
C523 C524 1.523 . S
C524 C505 1.368 . S
C524 C518 1.368 . S
C524 C523 1.523 . S
C525 C509 1.429 . S
C525 C521 1.429 . S
C525 C526 1.523 . S
C526 C510 1.368 . S
C526 C522 1.368 . S
C526 C525 1.523 . S
H527 C502 0.916 1_545 S
H528 C504 0.950 . S
H529 C505 0.949 . S
H530 C507 0.950 . S
H531 C509 0.950 . S
C532 C533 1.349 . S
C532 C534 1.327 . S
C532 H557 0.950 . S
C533 C532 1.349 . S
C533 C549 1.349 . S
C534 C532 1.327 . S
C534 C553 1.429 . S
C534 H558 0.950 . S
C535 C552 1.574 . S
C535 C554 1.368 . S
C535 H559 0.949 . S
H536 C540 0.949 . S
C537 C538 1.349 . S
C537 C539 1.327 . S
C537 H560 0.950 . S
C538 C537 1.349 . S
C538 C550 1.349 . S
C539 C537 1.327 . S
C539 C555 1.429 . S
C539 H561 0.950 . S
C540 H536 0.949 . S
C540 C548 1.574 . S
C540 C556 1.368 . S
H541 C549 0.950 . S
H542 C547 0.950 . S
H543 C548 0.949 . S
H544 C550 0.950 . S
H545 C551 0.950 . S
H546 C552 0.949 . S
C547 H542 0.950 . S
C547 C549 1.327 . S
C547 C553 1.429 . S
C548 C540 1.574 . S
C548 H543 0.949 . S
C548 C554 1.368 . S
C549 C533 1.349 . S
C549 H541 0.950 . S
C549 C547 1.327 . S
C550 C538 1.349 . S
C550 H544 0.950 . S
C550 C551 1.327 . S
C551 H545 0.950 . S
C551 C550 1.327 . S
C551 C555 1.429 . S
C552 C535 1.574 . S
C552 H546 0.949 . S
C552 C556 1.368 . S
C553 C534 1.429 . S
C553 C547 1.429 . S
C553 C554 1.523 . S
C554 C535 1.368 . S
C554 C548 1.368 . S
C554 C553 1.523 . S
C555 C539 1.429 . S
C555 C551 1.429 . S
C555 C556 1.523 . S
C556 C540 1.368 . S
C556 C552 1.368 . S
C556 C555 1.523 . S
H557 C532 0.950 . S
H558 C534 0.950 . S
H559 C535 0.949 . S
H560 C537 0.950 . S
H561 C539 0.950 . S
C562 C563 1.349 . S
C562 C564 1.327 . S
C562 H587 0.950 1_655 S
C563 C562 1.349 . S
C563 C579 1.349 . S
C564 C562 1.327 . S
C564 C583 1.429 . S
C564 H588 0.950 . S
C565 C582 1.574 . S
C565 C584 1.368 . S
C565 H589 0.949 . S
H566 C570 0.949 . S
C567 C568 1.349 . S
C567 C569 1.327 . S
C567 H590 0.950 . S
C568 C567 1.349 . S
C568 C580 1.349 . S
C569 C567 1.327 . S
C569 C585 1.429 . S
C569 H591 0.950 . S
C570 H566 0.949 . S
C570 C578 1.574 . S
C570 C586 1.368 . S
H571 C579 0.950 . S
H572 C577 0.950 . S
H573 C578 0.949 . S
H574 C580 0.950 . S
H575 C581 0.950 . S
H576 C582 0.949 . S
C577 H572 0.950 . S
C577 C579 1.327 . S
C577 C583 1.429 . S
C578 C570 1.574 . S
C578 H573 0.949 . S
C578 C584 1.368 . S
C579 C563 1.349 . S
C579 H571 0.950 . S
C579 C577 1.327 . S
C580 C568 1.349 . S
C580 H574 0.950 . S
C580 C581 1.327 . S
C581 H575 0.950 . S
C581 C580 1.327 . S
C581 C585 1.429 . S
C582 C565 1.574 . S
C582 H576 0.949 . S
C582 C586 1.368 . S
C583 C564 1.429 . S
C583 C577 1.429 . S
C583 C584 1.523 . S
C584 C565 1.368 . S
C584 C578 1.368 . S
C584 C583 1.523 . S
C585 C569 1.429 . S
C585 C581 1.429 . S
C585 C586 1.523 . S
C586 C570 1.368 . S
C586 C582 1.368 . S
C586 C585 1.523 . S
H587 C562 0.950 1_455 S
H588 C564 0.950 . S
H589 C565 0.949 . S
H590 C567 0.950 . S
H591 C569 0.950 . S
C113 C7 1.563 . S
C118 C63 1.563 . S
C143 C21 1.563 . S
C148 C77 1.563 . S
C173 C91 1.563 . S
C178 C35 1.563 . S
C203 C105 1.563 . S
C208 C49 1.563 . S
C233 C8 1.182 . S
C238 C36 1.182 . S
C263 C22 1.182 . S
C268 C50 1.182 . S
C293 C92 1.182 . S
C298 C64 1.182 . S
C323 C78 1.182 . S
C328 C106 1.182 . S
C353 C79 1.481 . S
C358 C9 1.481 . S
C383 C23 1.481 1_655 S
C388 C93 1.481 . S
C413 C107 1.481 1_655 S
C418 C37 1.481 1_565 S
C443 C51 1.481 . S
C448 C65 1.481 1_565 S
C473 C87 1.029 . S
C478 C45 1.029 . S
C503 C3 1.029 . S
C508 C101 1.029 . S
C533 C17 1.029 . S
C538 C59 1.029 . S
C563 C73 1.029 . S
C568 C31 1.029 . S
