# Generated by pormake.
# Topology ulh, (4)-cn, num edge types: 1
# Building blocks:
#     Node 0, Type 0, BuildingBlock: CEKHIL_clean_sbu_0, # of connection points: 4
#     Node 1, Type 0, BuildingBlock: CEKHIL_clean_sbu_0, # of connection points: 4
#     Node 2, Type 0, BuildingBlock: CEKHIL_clean_sbu_0, # of connection points: 4
#     Node 3, Type 0, BuildingBlock: CEKHIL_clean_sbu_0, # of connection points: 4
#     Node 4, Type 0, BuildingBlock: CEKHIL_clean_sbu_0, # of connection points: 4
#     Node 5, Type 0, BuildingBlock: CEKHIL_clean_sbu_0, # of connection points: 4
#     Node 6, Type 0, BuildingBlock: CEKHIL_clean_sbu_0, # of connection points: 4
#     Node 7, Type 0, BuildingBlock: CEKHIL_clean_sbu_0, # of connection points: 4
#     Node 8, Type 0, BuildingBlock: CEKHIL_clean_sbu_0, # of connection points: 4
#     Node 9, Type 0, BuildingBlock: CEKHIL_clean_sbu_0, # of connection points: 4
#     Node 10, Type 0, BuildingBlock: CEKHIL_clean_sbu_0, # of connection points: 4
#     Node 11, Type 0, BuildingBlock: CEKHIL_clean_sbu_0, # of connection points: 4
#     Node 12, Type 0, BuildingBlock: CEKHIL_clean_sbu_0, # of connection points: 4
#     Node 13, Type 0, BuildingBlock: CEKHIL_clean_sbu_0, # of connection points: 4
#     Node 14, Type 0, BuildingBlock: CEKHIL_clean_sbu_0, # of connection points: 4
#     Node 15, Type 0, BuildingBlock: CEKHIL_clean_sbu_0, # of connection points: 4
#     Node 16, Type 0, BuildingBlock: CEKHIL_clean_sbu_0, # of connection points: 4
#     Node 17, Type 0, BuildingBlock: CEKHIL_clean_sbu_0, # of connection points: 4
#     Node 18, Type 0, BuildingBlock: CEKHIL_clean_sbu_0, # of connection points: 4
#     Node 19, Type 0, BuildingBlock: CEKHIL_clean_sbu_0, # of connection points: 4
#     Node 20, Type 0, BuildingBlock: CEKHIL_clean_sbu_0, # of connection points: 4
#     Node 21, Type 0, BuildingBlock: CEKHIL_clean_sbu_0, # of connection points: 4
#     Node 22, Type 0, BuildingBlock: CEKHIL_clean_sbu_0, # of connection points: 4
#     Node 23, Type 0, BuildingBlock: CEKHIL_clean_sbu_0, # of connection points: 4
#     Node 24, Type 0, BuildingBlock: CEKHIL_clean_sbu_0, # of connection points: 4
#     Node 25, Type 0, BuildingBlock: CEKHIL_clean_sbu_0, # of connection points: 4
#     Node 26, Type 0, BuildingBlock: CEKHIL_clean_sbu_0, # of connection points: 4
#     Node 27, Type 0, BuildingBlock: CEKHIL_clean_sbu_0, # of connection points: 4
#     Node 28, Type 0, BuildingBlock: CEKHIL_clean_sbu_0, # of connection points: 4
#     Node 29, Type 0, BuildingBlock: CEKHIL_clean_sbu_0, # of connection points: 4
#     Node 30, Type 0, BuildingBlock: CEKHIL_clean_sbu_0, # of connection points: 4
#     Node 31, Type 0, BuildingBlock: CEKHIL_clean_sbu_0, # of connection points: 4
#     Node 32, Type 0, BuildingBlock: CEKHIL_clean_sbu_0, # of connection points: 4
#     Node 33, Type 0, BuildingBlock: CEKHIL_clean_sbu_0, # of connection points: 4
#     Node 34, Type 0, BuildingBlock: CEKHIL_clean_sbu_0, # of connection points: 4
#     Node 35, Type 0, BuildingBlock: CEKHIL_clean_sbu_0, # of connection points: 4
#     Node 36, Type 0, BuildingBlock: CEKHIL_clean_sbu_0, # of connection points: 4
#     Node 37, Type 0, BuildingBlock: CEKHIL_clean_sbu_0, # of connection points: 4
#     Node 38, Type 0, BuildingBlock: CEKHIL_clean_sbu_0, # of connection points: 4
#     Node 39, Type 0, BuildingBlock: CEKHIL_clean_sbu_0, # of connection points: 4
#     Node 40, Type 0, BuildingBlock: CEKHIL_clean_sbu_0, # of connection points: 4
#     Node 41, Type 0, BuildingBlock: CEKHIL_clean_sbu_0, # of connection points: 4
#     Node 42, Type 0, BuildingBlock: CEKHIL_clean_sbu_0, # of connection points: 4
#     Node 43, Type 0, BuildingBlock: CEKHIL_clean_sbu_0, # of connection points: 4
#     Node 44, Type 0, BuildingBlock: CEKHIL_clean_sbu_0, # of connection points: 4
#     Node 45, Type 0, BuildingBlock: CEKHIL_clean_sbu_0, # of connection points: 4
#     Node 46, Type 0, BuildingBlock: CEKHIL_clean_sbu_0, # of connection points: 4
#     Node 47, Type 0, BuildingBlock: CEKHIL_clean_sbu_0, # of connection points: 4
#     Node 48, Type 0, BuildingBlock: CEKHIL_clean_sbu_0, # of connection points: 4
#     Node 49, Type 0, BuildingBlock: CEKHIL_clean_sbu_0, # of connection points: 4
#     Node 50, Type 0, BuildingBlock: CEKHIL_clean_sbu_0, # of connection points: 4
#     Node 51, Type 0, BuildingBlock: CEKHIL_clean_sbu_0, # of connection points: 4
#     Node 52, Type 0, BuildingBlock: CEKHIL_clean_sbu_0, # of connection points: 4
#     Node 53, Type 0, BuildingBlock: CEKHIL_clean_sbu_0, # of connection points: 4
#     Node 54, Type 0, BuildingBlock: CEKHIL_clean_sbu_0, # of connection points: 4
#     Node 55, Type 0, BuildingBlock: CEKHIL_clean_sbu_0, # of connection points: 4
#     Node 56, Type 0, BuildingBlock: CEKHIL_clean_sbu_0, # of connection points: 4
#     Node 57, Type 0, BuildingBlock: CEKHIL_clean_sbu_0, # of connection points: 4
#     Node 58, Type 0, BuildingBlock: CEKHIL_clean_sbu_0, # of connection points: 4
#     Node 59, Type 0, BuildingBlock: CEKHIL_clean_sbu_0, # of connection points: 4
#     Node 60, Type 0, BuildingBlock: CEKHIL_clean_sbu_0, # of connection points: 4
#     Node 61, Type 0, BuildingBlock: CEKHIL_clean_sbu_0, # of connection points: 4
#     Node 62, Type 0, BuildingBlock: CEKHIL_clean_sbu_0, # of connection points: 4
#     Node 63, Type 0, BuildingBlock: CEKHIL_clean_sbu_0, # of connection points: 4
#     Node 64, Type 0, BuildingBlock: CEKHIL_clean_sbu_0, # of connection points: 4
#     Node 65, Type 0, BuildingBlock: CEKHIL_clean_sbu_0, # of connection points: 4
#     Node 66, Type 0, BuildingBlock: CEKHIL_clean_sbu_0, # of connection points: 4
#     Node 67, Type 0, BuildingBlock: CEKHIL_clean_sbu_0, # of connection points: 4
#     Node 68, Type 0, BuildingBlock: CEKHIL_clean_sbu_0, # of connection points: 4
#     Node 69, Type 0, BuildingBlock: CEKHIL_clean_sbu_0, # of connection points: 4
#     Node 70, Type 0, BuildingBlock: CEKHIL_clean_sbu_0, # of connection points: 4
#     Node 71, Type 0, BuildingBlock: CEKHIL_clean_sbu_0, # of connection points: 4
#     Node 72, Type 0, BuildingBlock: CEKHIL_clean_sbu_0, # of connection points: 4
#     Node 73, Type 0, BuildingBlock: CEKHIL_clean_sbu_0, # of connection points: 4
#     Node 74, Type 0, BuildingBlock: CEKHIL_clean_sbu_0, # of connection points: 4
#     Node 75, Type 0, BuildingBlock: CEKHIL_clean_sbu_0, # of connection points: 4
#     Node 76, Type 0, BuildingBlock: CEKHIL_clean_sbu_0, # of connection points: 4
#     Node 77, Type 0, BuildingBlock: CEKHIL_clean_sbu_0, # of connection points: 4
#     Node 78, Type 0, BuildingBlock: CEKHIL_clean_sbu_0, # of connection points: 4
#     Node 79, Type 0, BuildingBlock: CEKHIL_clean_sbu_0, # of connection points: 4
#     Node 80, Type 0, BuildingBlock: CEKHIL_clean_sbu_0, # of connection points: 4
#     Node 81, Type 0, BuildingBlock: CEKHIL_clean_sbu_0, # of connection points: 4
#     Node 82, Type 0, BuildingBlock: CEKHIL_clean_sbu_0, # of connection points: 4
#     Node 83, Type 0, BuildingBlock: CEKHIL_clean_sbu_0, # of connection points: 4
#     Node 84, Type 0, BuildingBlock: CEKHIL_clean_sbu_0, # of connection points: 4
#     Node 85, Type 0, BuildingBlock: CEKHIL_clean_sbu_0, # of connection points: 4
#     Node 86, Type 0, BuildingBlock: CEKHIL_clean_sbu_0, # of connection points: 4
#     Node 87, Type 0, BuildingBlock: CEKHIL_clean_sbu_0, # of connection points: 4
#     Node 88, Type 0, BuildingBlock: CEKHIL_clean_sbu_0, # of connection points: 4
#     Node 89, Type 0, BuildingBlock: CEKHIL_clean_sbu_0, # of connection points: 4
#     Node 90, Type 0, BuildingBlock: CEKHIL_clean_sbu_0, # of connection points: 4
#     Node 91, Type 0, BuildingBlock: CEKHIL_clean_sbu_0, # of connection points: 4
#     Node 92, Type 0, BuildingBlock: CEKHIL_clean_sbu_0, # of connection points: 4
#     Node 93, Type 0, BuildingBlock: CEKHIL_clean_sbu_0, # of connection points: 4
#     Node 94, Type 0, BuildingBlock: CEKHIL_clean_sbu_0, # of connection points: 4
#     Node 95, Type 0, BuildingBlock: CEKHIL_clean_sbu_0, # of connection points: 4
#     Edge 96, Type (0, 0), BuildingBlock: TEMPAE_clean_linker_10, # of connection points: 2
#     Edge 97, Type (0, 0), BuildingBlock: TEMPAE_clean_linker_10, # of connection points: 2
#     Edge 98, Type (0, 0), BuildingBlock: TEMPAE_clean_linker_10, # of connection points: 2
#     Edge 99, Type (0, 0), BuildingBlock: TEMPAE_clean_linker_10, # of connection points: 2
#     Edge 100, Type (0, 0), BuildingBlock: TEMPAE_clean_linker_10, # of connection points: 2
#     Edge 101, Type (0, 0), BuildingBlock: TEMPAE_clean_linker_10, # of connection points: 2
#     Edge 102, Type (0, 0), BuildingBlock: TEMPAE_clean_linker_10, # of connection points: 2
#     Edge 103, Type (0, 0), BuildingBlock: TEMPAE_clean_linker_10, # of connection points: 2
#     Edge 104, Type (0, 0), BuildingBlock: TEMPAE_clean_linker_10, # of connection points: 2
#     Edge 105, Type (0, 0), BuildingBlock: TEMPAE_clean_linker_10, # of connection points: 2
#     Edge 106, Type (0, 0), BuildingBlock: TEMPAE_clean_linker_10, # of connection points: 2
#     Edge 107, Type (0, 0), BuildingBlock: TEMPAE_clean_linker_10, # of connection points: 2
#     Edge 108, Type (0, 0), BuildingBlock: TEMPAE_clean_linker_10, # of connection points: 2
#     Edge 109, Type (0, 0), BuildingBlock: TEMPAE_clean_linker_10, # of connection points: 2
#     Edge 110, Type (0, 0), BuildingBlock: TEMPAE_clean_linker_10, # of connection points: 2
#     Edge 111, Type (0, 0), BuildingBlock: TEMPAE_clean_linker_10, # of connection points: 2
#     Edge 112, Type (0, 0), BuildingBlock: TEMPAE_clean_linker_10, # of connection points: 2
#     Edge 113, Type (0, 0), BuildingBlock: TEMPAE_clean_linker_10, # of connection points: 2
#     Edge 114, Type (0, 0), BuildingBlock: TEMPAE_clean_linker_10, # of connection points: 2
#     Edge 115, Type (0, 0), BuildingBlock: TEMPAE_clean_linker_10, # of connection points: 2
#     Edge 116, Type (0, 0), BuildingBlock: TEMPAE_clean_linker_10, # of connection points: 2
#     Edge 117, Type (0, 0), BuildingBlock: TEMPAE_clean_linker_10, # of connection points: 2
#     Edge 118, Type (0, 0), BuildingBlock: TEMPAE_clean_linker_10, # of connection points: 2
#     Edge 119, Type (0, 0), BuildingBlock: TEMPAE_clean_linker_10, # of connection points: 2
#     Edge 120, Type (0, 0), BuildingBlock: TEMPAE_clean_linker_10, # of connection points: 2
#     Edge 121, Type (0, 0), BuildingBlock: TEMPAE_clean_linker_10, # of connection points: 2
#     Edge 122, Type (0, 0), BuildingBlock: TEMPAE_clean_linker_10, # of connection points: 2
#     Edge 123, Type (0, 0), BuildingBlock: TEMPAE_clean_linker_10, # of connection points: 2
#     Edge 124, Type (0, 0), BuildingBlock: TEMPAE_clean_linker_10, # of connection points: 2
#     Edge 125, Type (0, 0), BuildingBlock: TEMPAE_clean_linker_10, # of connection points: 2
#     Edge 126, Type (0, 0), BuildingBlock: TEMPAE_clean_linker_10, # of connection points: 2
#     Edge 127, Type (0, 0), BuildingBlock: TEMPAE_clean_linker_10, # of connection points: 2
#     Edge 128, Type (0, 0), BuildingBlock: TEMPAE_clean_linker_10, # of connection points: 2
#     Edge 129, Type (0, 0), BuildingBlock: TEMPAE_clean_linker_10, # of connection points: 2
#     Edge 130, Type (0, 0), BuildingBlock: TEMPAE_clean_linker_10, # of connection points: 2
#     Edge 131, Type (0, 0), BuildingBlock: TEMPAE_clean_linker_10, # of connection points: 2
#     Edge 132, Type (0, 0), BuildingBlock: TEMPAE_clean_linker_10, # of connection points: 2
#     Edge 133, Type (0, 0), BuildingBlock: TEMPAE_clean_linker_10, # of connection points: 2
#     Edge 134, Type (0, 0), BuildingBlock: TEMPAE_clean_linker_10, # of connection points: 2
#     Edge 135, Type (0, 0), BuildingBlock: TEMPAE_clean_linker_10, # of connection points: 2
#     Edge 136, Type (0, 0), BuildingBlock: TEMPAE_clean_linker_10, # of connection points: 2
#     Edge 137, Type (0, 0), BuildingBlock: TEMPAE_clean_linker_10, # of connection points: 2
#     Edge 138, Type (0, 0), BuildingBlock: TEMPAE_clean_linker_10, # of connection points: 2
#     Edge 139, Type (0, 0), BuildingBlock: TEMPAE_clean_linker_10, # of connection points: 2
#     Edge 140, Type (0, 0), BuildingBlock: TEMPAE_clean_linker_10, # of connection points: 2
#     Edge 141, Type (0, 0), BuildingBlock: TEMPAE_clean_linker_10, # of connection points: 2
#     Edge 142, Type (0, 0), BuildingBlock: TEMPAE_clean_linker_10, # of connection points: 2
#     Edge 143, Type (0, 0), BuildingBlock: TEMPAE_clean_linker_10, # of connection points: 2
#     Edge 144, Type (0, 0), BuildingBlock: TEMPAE_clean_linker_10, # of connection points: 2
#     Edge 145, Type (0, 0), BuildingBlock: TEMPAE_clean_linker_10, # of connection points: 2
#     Edge 146, Type (0, 0), BuildingBlock: TEMPAE_clean_linker_10, # of connection points: 2
#     Edge 147, Type (0, 0), BuildingBlock: TEMPAE_clean_linker_10, # of connection points: 2
#     Edge 148, Type (0, 0), BuildingBlock: TEMPAE_clean_linker_10, # of connection points: 2
#     Edge 149, Type (0, 0), BuildingBlock: TEMPAE_clean_linker_10, # of connection points: 2
#     Edge 150, Type (0, 0), BuildingBlock: TEMPAE_clean_linker_10, # of connection points: 2
#     Edge 151, Type (0, 0), BuildingBlock: TEMPAE_clean_linker_10, # of connection points: 2
#     Edge 152, Type (0, 0), BuildingBlock: TEMPAE_clean_linker_10, # of connection points: 2
#     Edge 153, Type (0, 0), BuildingBlock: TEMPAE_clean_linker_10, # of connection points: 2
#     Edge 154, Type (0, 0), BuildingBlock: TEMPAE_clean_linker_10, # of connection points: 2
#     Edge 155, Type (0, 0), BuildingBlock: TEMPAE_clean_linker_10, # of connection points: 2
#     Edge 156, Type (0, 0), BuildingBlock: TEMPAE_clean_linker_10, # of connection points: 2
#     Edge 157, Type (0, 0), BuildingBlock: TEMPAE_clean_linker_10, # of connection points: 2
#     Edge 158, Type (0, 0), BuildingBlock: TEMPAE_clean_linker_10, # of connection points: 2
#     Edge 159, Type (0, 0), BuildingBlock: TEMPAE_clean_linker_10, # of connection points: 2
#     Edge 160, Type (0, 0), BuildingBlock: TEMPAE_clean_linker_10, # of connection points: 2
#     Edge 161, Type (0, 0), BuildingBlock: TEMPAE_clean_linker_10, # of connection points: 2
#     Edge 162, Type (0, 0), BuildingBlock: TEMPAE_clean_linker_10, # of connection points: 2
#     Edge 163, Type (0, 0), BuildingBlock: TEMPAE_clean_linker_10, # of connection points: 2
#     Edge 164, Type (0, 0), BuildingBlock: TEMPAE_clean_linker_10, # of connection points: 2
#     Edge 165, Type (0, 0), BuildingBlock: TEMPAE_clean_linker_10, # of connection points: 2
#     Edge 166, Type (0, 0), BuildingBlock: TEMPAE_clean_linker_10, # of connection points: 2
#     Edge 167, Type (0, 0), BuildingBlock: TEMPAE_clean_linker_10, # of connection points: 2
#     Edge 168, Type (0, 0), BuildingBlock: TEMPAE_clean_linker_10, # of connection points: 2
#     Edge 169, Type (0, 0), BuildingBlock: TEMPAE_clean_linker_10, # of connection points: 2
#     Edge 170, Type (0, 0), BuildingBlock: TEMPAE_clean_linker_10, # of connection points: 2
#     Edge 171, Type (0, 0), BuildingBlock: TEMPAE_clean_linker_10, # of connection points: 2
#     Edge 172, Type (0, 0), BuildingBlock: TEMPAE_clean_linker_10, # of connection points: 2
#     Edge 173, Type (0, 0), BuildingBlock: TEMPAE_clean_linker_10, # of connection points: 2
#     Edge 174, Type (0, 0), BuildingBlock: TEMPAE_clean_linker_10, # of connection points: 2
#     Edge 175, Type (0, 0), BuildingBlock: TEMPAE_clean_linker_10, # of connection points: 2
#     Edge 176, Type (0, 0), BuildingBlock: TEMPAE_clean_linker_10, # of connection points: 2
#     Edge 177, Type (0, 0), BuildingBlock: TEMPAE_clean_linker_10, # of connection points: 2
#     Edge 178, Type (0, 0), BuildingBlock: TEMPAE_clean_linker_10, # of connection points: 2
#     Edge 179, Type (0, 0), BuildingBlock: TEMPAE_clean_linker_10, # of connection points: 2
#     Edge 180, Type (0, 0), BuildingBlock: TEMPAE_clean_linker_10, # of connection points: 2
#     Edge 181, Type (0, 0), BuildingBlock: TEMPAE_clean_linker_10, # of connection points: 2
#     Edge 182, Type (0, 0), BuildingBlock: TEMPAE_clean_linker_10, # of connection points: 2
#     Edge 183, Type (0, 0), BuildingBlock: TEMPAE_clean_linker_10, # of connection points: 2
#     Edge 184, Type (0, 0), BuildingBlock: TEMPAE_clean_linker_10, # of connection points: 2
#     Edge 185, Type (0, 0), BuildingBlock: TEMPAE_clean_linker_10, # of connection points: 2
#     Edge 186, Type (0, 0), BuildingBlock: TEMPAE_clean_linker_10, # of connection points: 2
#     Edge 187, Type (0, 0), BuildingBlock: TEMPAE_clean_linker_10, # of connection points: 2
#     Edge 188, Type (0, 0), BuildingBlock: TEMPAE_clean_linker_10, # of connection points: 2
#     Edge 189, Type (0, 0), BuildingBlock: TEMPAE_clean_linker_10, # of connection points: 2
#     Edge 190, Type (0, 0), BuildingBlock: TEMPAE_clean_linker_10, # of connection points: 2
#     Edge 191, Type (0, 0), BuildingBlock: TEMPAE_clean_linker_10, # of connection points: 2
#     Edge 192, Type (0, 0), BuildingBlock: TEMPAE_clean_linker_10, # of connection points: 2
#     Edge 193, Type (0, 0), BuildingBlock: TEMPAE_clean_linker_10, # of connection points: 2
#     Edge 194, Type (0, 0), BuildingBlock: TEMPAE_clean_linker_10, # of connection points: 2
#     Edge 195, Type (0, 0), BuildingBlock: TEMPAE_clean_linker_10, # of connection points: 2
#     Edge 196, Type (0, 0), BuildingBlock: TEMPAE_clean_linker_10, # of connection points: 2
#     Edge 197, Type (0, 0), BuildingBlock: TEMPAE_clean_linker_10, # of connection points: 2
#     Edge 198, Type (0, 0), BuildingBlock: TEMPAE_clean_linker_10, # of connection points: 2
#     Edge 199, Type (0, 0), BuildingBlock: TEMPAE_clean_linker_10, # of connection points: 2
#     Edge 200, Type (0, 0), BuildingBlock: TEMPAE_clean_linker_10, # of connection points: 2
#     Edge 201, Type (0, 0), BuildingBlock: TEMPAE_clean_linker_10, # of connection points: 2
#     Edge 202, Type (0, 0), BuildingBlock: TEMPAE_clean_linker_10, # of connection points: 2
#     Edge 203, Type (0, 0), BuildingBlock: TEMPAE_clean_linker_10, # of connection points: 2
#     Edge 204, Type (0, 0), BuildingBlock: TEMPAE_clean_linker_10, # of connection points: 2
#     Edge 205, Type (0, 0), BuildingBlock: TEMPAE_clean_linker_10, # of connection points: 2
#     Edge 206, Type (0, 0), BuildingBlock: TEMPAE_clean_linker_10, # of connection points: 2
#     Edge 207, Type (0, 0), BuildingBlock: TEMPAE_clean_linker_10, # of connection points: 2
#     Edge 208, Type (0, 0), BuildingBlock: TEMPAE_clean_linker_10, # of connection points: 2
#     Edge 209, Type (0, 0), BuildingBlock: TEMPAE_clean_linker_10, # of connection points: 2
#     Edge 210, Type (0, 0), BuildingBlock: TEMPAE_clean_linker_10, # of connection points: 2
#     Edge 211, Type (0, 0), BuildingBlock: TEMPAE_clean_linker_10, # of connection points: 2
#     Edge 212, Type (0, 0), BuildingBlock: TEMPAE_clean_linker_10, # of connection points: 2
#     Edge 213, Type (0, 0), BuildingBlock: TEMPAE_clean_linker_10, # of connection points: 2
#     Edge 214, Type (0, 0), BuildingBlock: TEMPAE_clean_linker_10, # of connection points: 2
#     Edge 215, Type (0, 0), BuildingBlock: TEMPAE_clean_linker_10, # of connection points: 2
#     Edge 216, Type (0, 0), BuildingBlock: TEMPAE_clean_linker_10, # of connection points: 2
#     Edge 217, Type (0, 0), BuildingBlock: TEMPAE_clean_linker_10, # of connection points: 2
#     Edge 218, Type (0, 0), BuildingBlock: TEMPAE_clean_linker_10, # of connection points: 2
#     Edge 219, Type (0, 0), BuildingBlock: TEMPAE_clean_linker_10, # of connection points: 2
#     Edge 220, Type (0, 0), BuildingBlock: TEMPAE_clean_linker_10, # of connection points: 2
#     Edge 221, Type (0, 0), BuildingBlock: TEMPAE_clean_linker_10, # of connection points: 2
#     Edge 222, Type (0, 0), BuildingBlock: TEMPAE_clean_linker_10, # of connection points: 2
#     Edge 223, Type (0, 0), BuildingBlock: TEMPAE_clean_linker_10, # of connection points: 2
#     Edge 224, Type (0, 0), BuildingBlock: TEMPAE_clean_linker_10, # of connection points: 2
#     Edge 225, Type (0, 0), BuildingBlock: TEMPAE_clean_linker_10, # of connection points: 2
#     Edge 226, Type (0, 0), BuildingBlock: TEMPAE_clean_linker_10, # of connection points: 2
#     Edge 227, Type (0, 0), BuildingBlock: TEMPAE_clean_linker_10, # of connection points: 2
#     Edge 228, Type (0, 0), BuildingBlock: TEMPAE_clean_linker_10, # of connection points: 2
#     Edge 229, Type (0, 0), BuildingBlock: TEMPAE_clean_linker_10, # of connection points: 2
#     Edge 230, Type (0, 0), BuildingBlock: TEMPAE_clean_linker_10, # of connection points: 2
#     Edge 231, Type (0, 0), BuildingBlock: TEMPAE_clean_linker_10, # of connection points: 2
#     Edge 232, Type (0, 0), BuildingBlock: TEMPAE_clean_linker_10, # of connection points: 2
#     Edge 233, Type (0, 0), BuildingBlock: TEMPAE_clean_linker_10, # of connection points: 2
#     Edge 234, Type (0, 0), BuildingBlock: TEMPAE_clean_linker_10, # of connection points: 2
#     Edge 235, Type (0, 0), BuildingBlock: TEMPAE_clean_linker_10, # of connection points: 2
#     Edge 236, Type (0, 0), BuildingBlock: TEMPAE_clean_linker_10, # of connection points: 2
#     Edge 237, Type (0, 0), BuildingBlock: TEMPAE_clean_linker_10, # of connection points: 2
#     Edge 238, Type (0, 0), BuildingBlock: TEMPAE_clean_linker_10, # of connection points: 2
#     Edge 239, Type (0, 0), BuildingBlock: TEMPAE_clean_linker_10, # of connection points: 2
#     Edge 240, Type (0, 0), BuildingBlock: TEMPAE_clean_linker_10, # of connection points: 2
#     Edge 241, Type (0, 0), BuildingBlock: TEMPAE_clean_linker_10, # of connection points: 2
#     Edge 242, Type (0, 0), BuildingBlock: TEMPAE_clean_linker_10, # of connection points: 2
#     Edge 243, Type (0, 0), BuildingBlock: TEMPAE_clean_linker_10, # of connection points: 2
#     Edge 244, Type (0, 0), BuildingBlock: TEMPAE_clean_linker_10, # of connection points: 2
#     Edge 245, Type (0, 0), BuildingBlock: TEMPAE_clean_linker_10, # of connection points: 2
#     Edge 246, Type (0, 0), BuildingBlock: TEMPAE_clean_linker_10, # of connection points: 2
#     Edge 247, Type (0, 0), BuildingBlock: TEMPAE_clean_linker_10, # of connection points: 2
#     Edge 248, Type (0, 0), BuildingBlock: TEMPAE_clean_linker_10, # of connection points: 2
#     Edge 249, Type (0, 0), BuildingBlock: TEMPAE_clean_linker_10, # of connection points: 2
#     Edge 250, Type (0, 0), BuildingBlock: TEMPAE_clean_linker_10, # of connection points: 2
#     Edge 251, Type (0, 0), BuildingBlock: TEMPAE_clean_linker_10, # of connection points: 2
#     Edge 252, Type (0, 0), BuildingBlock: TEMPAE_clean_linker_10, # of connection points: 2
#     Edge 253, Type (0, 0), BuildingBlock: TEMPAE_clean_linker_10, # of connection points: 2
#     Edge 254, Type (0, 0), BuildingBlock: TEMPAE_clean_linker_10, # of connection points: 2
#     Edge 255, Type (0, 0), BuildingBlock: TEMPAE_clean_linker_10, # of connection points: 2
#     Edge 256, Type (0, 0), BuildingBlock: TEMPAE_clean_linker_10, # of connection points: 2
#     Edge 257, Type (0, 0), BuildingBlock: TEMPAE_clean_linker_10, # of connection points: 2
#     Edge 258, Type (0, 0), BuildingBlock: TEMPAE_clean_linker_10, # of connection points: 2
#     Edge 259, Type (0, 0), BuildingBlock: TEMPAE_clean_linker_10, # of connection points: 2
#     Edge 260, Type (0, 0), BuildingBlock: TEMPAE_clean_linker_10, # of connection points: 2
#     Edge 261, Type (0, 0), BuildingBlock: TEMPAE_clean_linker_10, # of connection points: 2
#     Edge 262, Type (0, 0), BuildingBlock: TEMPAE_clean_linker_10, # of connection points: 2
#     Edge 263, Type (0, 0), BuildingBlock: TEMPAE_clean_linker_10, # of connection points: 2
#     Edge 264, Type (0, 0), BuildingBlock: TEMPAE_clean_linker_10, # of connection points: 2
#     Edge 265, Type (0, 0), BuildingBlock: TEMPAE_clean_linker_10, # of connection points: 2
#     Edge 266, Type (0, 0), BuildingBlock: TEMPAE_clean_linker_10, # of connection points: 2
#     Edge 267, Type (0, 0), BuildingBlock: TEMPAE_clean_linker_10, # of connection points: 2
#     Edge 268, Type (0, 0), BuildingBlock: TEMPAE_clean_linker_10, # of connection points: 2
#     Edge 269, Type (0, 0), BuildingBlock: TEMPAE_clean_linker_10, # of connection points: 2
#     Edge 270, Type (0, 0), BuildingBlock: TEMPAE_clean_linker_10, # of connection points: 2
#     Edge 271, Type (0, 0), BuildingBlock: TEMPAE_clean_linker_10, # of connection points: 2
#     Edge 272, Type (0, 0), BuildingBlock: TEMPAE_clean_linker_10, # of connection points: 2
#     Edge 273, Type (0, 0), BuildingBlock: TEMPAE_clean_linker_10, # of connection points: 2
#     Edge 274, Type (0, 0), BuildingBlock: TEMPAE_clean_linker_10, # of connection points: 2
#     Edge 275, Type (0, 0), BuildingBlock: TEMPAE_clean_linker_10, # of connection points: 2
#     Edge 276, Type (0, 0), BuildingBlock: TEMPAE_clean_linker_10, # of connection points: 2
#     Edge 277, Type (0, 0), BuildingBlock: TEMPAE_clean_linker_10, # of connection points: 2
#     Edge 278, Type (0, 0), BuildingBlock: TEMPAE_clean_linker_10, # of connection points: 2
#     Edge 279, Type (0, 0), BuildingBlock: TEMPAE_clean_linker_10, # of connection points: 2
#     Edge 280, Type (0, 0), BuildingBlock: TEMPAE_clean_linker_10, # of connection points: 2
#     Edge 281, Type (0, 0), BuildingBlock: TEMPAE_clean_linker_10, # of connection points: 2
#     Edge 282, Type (0, 0), BuildingBlock: TEMPAE_clean_linker_10, # of connection points: 2
#     Edge 283, Type (0, 0), BuildingBlock: TEMPAE_clean_linker_10, # of connection points: 2
#     Edge 284, Type (0, 0), BuildingBlock: TEMPAE_clean_linker_10, # of connection points: 2
#     Edge 285, Type (0, 0), BuildingBlock: TEMPAE_clean_linker_10, # of connection points: 2
#     Edge 286, Type (0, 0), BuildingBlock: TEMPAE_clean_linker_10, # of connection points: 2
#     Edge 287, Type (0, 0), BuildingBlock: TEMPAE_clean_linker_10, # of connection points: 2
# Relax obj value: 0.198
# Max RMSD: 0.230
# Mean RMSD: 0.230
data_MOF--net-ulh--node1-CEKHIL_clean_sbu_0--edge1-TEMPAE_clean_linker_10
_symmetry_space_group_name_H-M    P1
_symmetry_Int_Tables_number       1
_symmetry_cell_setting            triclinic
loop_
_symmetry_equiv_pos_as_xyz
'x, y, z'
_cell_length_a     80.953079
_cell_length_b     80.964056
_cell_length_c     80.959509
_cell_angle_alpha  90.001335
_cell_angle_beta   89.998742
_cell_angle_gamma 89.997986
loop_
_atom_site_label
_atom_site_type_symbol
_atom_site_fract_x
_atom_site_fract_y
_atom_site_fract_z
_atom_type_partial_charge
Co0 Co 0.03546 0.31451 0.08739 0.0
O1 O 0.01901 0.29968 0.09555 0.0
O2 O 0.0429 0.29187 0.08458 0.0
C3 C 0.0359 0.33168 0.10933 0.0
O4 O 0.05544 0.3268 0.07823 0.0
Co5 Co 0.02537 0.35102 0.08066 0.0
O6 O 0.04969 0.354 0.07972 0.0
C7 C 0.01582 0.32509 0.05692 0.0
C8 C 0.029 0.28783 0.09158 0.0
C9 C 0.05975 0.3421 0.07733 0.0
O10 O 0.02463 0.3145 0.06488 0.0
O11 O 0.01342 0.33988 0.062 0.0
O12 O 0.04405 0.31789 0.10963 0.0
O13 O 0.02616 0.33352 0.09681 0.0
Co14 Co 0.93574 0.28885 0.33773 0.0
O15 O 0.94947 0.27125 0.34544 0.0
O16 O 0.95881 0.29523 0.33603 0.0
C17 C 0.91796 0.28876 0.35918 0.0
O18 O 0.92485 0.31002 0.32928 0.0
Co19 Co 0.89876 0.28196 0.32961 0.0
O20 O 0.89736 0.30631 0.33127 0.0
C21 C 0.92458 0.27325 0.30525 0.0
C22 C 0.96195 0.28082 0.34242 0.0
C23 C 0.90991 0.31556 0.32913 0.0
O24 O 0.93595 0.27912 0.3147 0.0
O25 O 0.90928 0.27271 0.30921 0.0
O26 O 0.93203 0.29635 0.36032 0.0
O27 O 0.91598 0.28 0.34598 0.0
Co28 Co 0.96226 0.18748 0.58729 0.0
O29 O 0.97873 0.20214 0.59568 0.0
O30 O 0.95488 0.21019 0.58482 0.0
C31 C 0.96189 0.17002 0.609 0.0
O32 O 0.94226 0.17531 0.57793 0.0
Co33 Co 0.97226 0.15099 0.58013 0.0
O34 O 0.94793 0.14808 0.5791 0.0
C35 C 0.98213 0.17728 0.55691 0.0
C36 C 0.9688 0.21408 0.59187 0.0
C37 C 0.93791 0.16003 0.57683 0.0
O38 O 0.97315 0.18777 0.56481 0.0
O39 O 0.98451 0.16245 0.56188 0.0
O40 O 0.95367 0.18377 0.6095 0.0
O41 O 0.97157 0.16836 0.59641 0.0
Co42 Co 0.06228 0.20997 0.8388 0.0
O43 O 0.04801 0.22703 0.84665 0.0
O44 O 0.0394 0.20345 0.83563 0.0
C45 C 0.07907 0.20902 0.86104 0.0
O46 O 0.07391 0.18949 0.82986 0.0
Co47 Co 0.09929 0.21862 0.83267 0.0
O48 O 0.10129 0.19421 0.8317 0.0
C49 C 0.07412 0.22928 0.8086 0.0
C50 C 0.03582 0.21754 0.8425 0.0
C51 C 0.08906 0.18461 0.82914 0.0
O52 O 0.06308 0.22074 0.81625 0.0
O53 O 0.08888 0.23117 0.814 0.0
O54 O 0.065 0.20135 0.86117 0.0
O55 O 0.08146 0.21856 0.84846 0.0
Co56 Co 0.03735 0.68516 0.91169 0.0
O57 O 0.02077 0.69977 0.90346 0.0
O58 O 0.04451 0.70788 0.91451 0.0
C59 C 0.03805 0.66792 0.88983 0.0
O60 O 0.05745 0.67317 0.92094 0.0
Co61 Co 0.02772 0.64854 0.9185 0.0
O62 O 0.05208 0.6459 0.91945 0.0
C63 C 0.01769 0.67442 0.94208 0.0
C64 C 0.03059 0.71176 0.90747 0.0
C65 C 0.06197 0.65793 0.92183 0.0
O66 O 0.02643 0.68509 0.93417 0.0
O67 O 0.01549 0.65959 0.93702 0.0
O68 O 0.04606 0.68179 0.88948 0.0
O69 O 0.02829 0.66603 0.90233 0.0
Co70 Co 0.56518 0.28729 0.16003 0.0
O71 O 0.55131 0.27009 0.15178 0.0
O72 O 0.54216 0.29372 0.16223 0.0
C73 C 0.58287 0.28806 0.13852 0.0
O74 O 0.57636 0.30791 0.16924 0.0
Co75 Co 0.60196 0.27897 0.16774 0.0
O76 O 0.60382 0.30341 0.1681 0.0
C77 C 0.57589 0.26844 0.19093 0.0
C78 C 0.5389 0.27952 0.15541 0.0
C79 C 0.59144 0.31294 0.17021 0.0
O80 O 0.56509 0.27672 0.18268 0.0
O81 O 0.59089 0.2667 0.18622 0.0
O82 O 0.56881 0.29572 0.13773 0.0
O83 O 0.58476 0.27864 0.15126 0.0
Co84 Co 0.96239 0.81417 0.41057 0.0
O85 O 0.97895 0.79948 0.40245 0.0
O86 O 0.95502 0.79148 0.41319 0.0
C87 C 0.96209 0.83154 0.3888 0.0
O88 O 0.94229 0.82634 0.41967 0.0
Co89 Co 0.97239 0.85064 0.41768 0.0
O90 O 0.94806 0.85355 0.41843 0.0
C91 C 0.98194 0.82451 0.44117 0.0
C92 C 0.96902 0.78755 0.40633 0.0
C93 C 0.93797 0.84164 0.42062 0.0
O94 O 0.97307 0.81401 0.43316 0.0
O95 O 0.98439 0.83933 0.43619 0.0
O96 O 0.95395 0.81774 0.38829 0.0
O97 O 0.97173 0.83325 0.40141 0.0
Co98 Co 0.43572 0.21149 0.66169 0.0
O99 O 0.45055 0.22766 0.65304 0.0
O100 O 0.45835 0.20383 0.66411 0.0
C101 C 0.41813 0.21109 0.64009 0.0
O102 O 0.42334 0.19177 0.67133 0.0
Co103 Co 0.39945 0.22219 0.66893 0.0
O104 O 0.39619 0.19791 0.67022 0.0
C105 C 0.42601 0.23195 0.69185 0.0
C106 C 0.46238 0.2176 0.65687 0.0
C107 C 0.40798 0.1877 0.67251 0.0
O108 O 0.43628 0.22261 0.68407 0.0
O109 O 0.41123 0.2346 0.68687 0.0
O110 O 0.43177 0.20269 0.6396 0.0
O111 O 0.4167 0.22096 0.65256 0.0
Co112 Co 0.08916 0.03779 0.31512 0.0
O113 O 0.09743 0.02121 0.30051 0.0
O114 O 0.08672 0.0451 0.29239 0.0
C115 C 0.11081 0.03816 0.33265 0.0
O116 O 0.07995 0.05793 0.32715 0.0
Co117 Co 0.0818 0.02801 0.3516 0.0
O118 O 0.08095 0.05235 0.3544 0.0
C119 C 0.05856 0.01818 0.32533 0.0
C120 C 0.09367 0.03112 0.28852 0.0
C121 C 0.07886 0.06236 0.34241 0.0
O122 O 0.06658 0.02705 0.31483 0.0
O123 O 0.06346 0.01585 0.3402 0.0
O124 O 0.11142 0.04626 0.31883 0.0
O125 O 0.09818 0.02853 0.3343 0.0
Co126 Co 0.21196 0.34015 0.56333 0.0
O127 O 0.22831 0.34878 0.54867 0.0
O128 O 0.20462 0.33759 0.54059 0.0
C129 C 0.21125 0.36177 0.58089 0.0
O130 O 0.19212 0.33047 0.57551 0.0
Co131 Co 0.2223 0.33306 0.59975 0.0
O132 O 0.19801 0.33154 0.60271 0.0
C133 C 0.23225 0.30995 0.57342 0.0
C134 C 0.21846 0.34481 0.53671 0.0
C135 C 0.18792 0.3292 0.59083 0.0
O136 O 0.22314 0.31779 0.56298 0.0
O137 O 0.23468 0.31495 0.58823 0.0
O138 O 0.20302 0.36223 0.56714 0.0
O139 O 0.22117 0.34936 0.58243 0.0
Co140 Co 0.9127 0.46358 0.81355 0.0
O141 O 0.90464 0.48032 0.79901 0.0
O142 O 0.91512 0.45636 0.79079 0.0
C143 C 0.89095 0.46333 0.83097 0.0
O144 O 0.92166 0.44329 0.82553 0.0
Co145 Co 0.91996 0.47312 0.85013 0.0
O146 O 0.92057 0.44877 0.8528 0.0
C147 C 0.94342 0.48285 0.82402 0.0
C148 C 0.90828 0.47041 0.78698 0.0
C149 C 0.92263 0.43879 0.84077 0.0
O150 O 0.93539 0.4741 0.81343 0.0
O151 O 0.93845 0.48518 0.83886 0.0
O152 O 0.89035 0.45531 0.81711 0.0
O153 O 0.90366 0.47283 0.83275 0.0
Co154 Co 0.78842 0.16077 0.06359 0.0
O155 O 0.77176 0.15275 0.04894 0.0
O156 O 0.79558 0.16369 0.04087 0.0
C157 C 0.78897 0.13874 0.08065 0.0
O158 O 0.80859 0.1698 0.07568 0.0
Co159 Co 0.77879 0.16729 0.10029 0.0
O160 O 0.80315 0.16813 0.10294 0.0
C161 C 0.76886 0.19113 0.0746 0.0
C162 C 0.7816 0.15676 0.03698 0.0
C163 C 0.81308 0.17056 0.09094 0.0
O164 O 0.77765 0.18333 0.06387 0.0
O165 O 0.76658 0.1859 0.08936 0.0
O166 O 0.79699 0.13847 0.06677 0.0
O167 O 0.77931 0.15129 0.08264 0.0
Co168 Co 0.08319 0.96266 0.68526 0.0
O169 O 0.09141 0.97942 0.69968 0.0
O170 O 0.08088 0.95554 0.70805 0.0
C171 C 0.10485 0.96224 0.66771 0.0
O172 O 0.07409 0.94236 0.67344 0.0
Co173 Co 0.07572 0.97206 0.64871 0.0
O174 O 0.07523 0.94769 0.64615 0.0
C175 C 0.0524 0.98192 0.67492 0.0
C176 C 0.08781 0.96957 0.71176 0.0
C177 C 0.07316 0.93778 0.65822 0.0
O178 O 0.06055 0.97327 0.6855 0.0
O179 O 0.05723 0.98411 0.66001 0.0
O180 O 0.10548 0.95427 0.6816 0.0
O181 O 0.09217 0.97178 0.66595 0.0
Co182 Co 0.28693 0.33687 0.9339 0.0
O183 O 0.26886 0.34398 0.94737 0.0
O184 O 0.29284 0.33493 0.95705 0.0
C185 C 0.28679 0.35863 0.91648 0.0
O186 O 0.30855 0.32907 0.92342 0.0
Co187 Co 0.28119 0.32922 0.89665 0.0
O188 O 0.30553 0.33136 0.89587 0.0
C189 C 0.27238 0.30421 0.92182 0.0
C190 C 0.27825 0.341 0.95999 0.0
C191 C 0.31449 0.32923 0.90864 0.0
O192 O 0.27774 0.31361 0.93349 0.0
O193 O 0.27211 0.30844 0.90658 0.0
O194 O 0.29399 0.35968 0.93075 0.0
O195 O 0.27839 0.34527 0.91405 0.0
Co196 Co 0.91212 0.53711 0.18642 0.0
O197 O 0.90364 0.52073 0.20113 0.0
O198 O 0.91453 0.54461 0.20909 0.0
C199 C 0.89051 0.5375 0.16883 0.0
O200 O 0.92154 0.55705 0.17426 0.0
Co201 Co 0.91947 0.52697 0.15003 0.0
O202 O 0.92047 0.55128 0.14704 0.0
C203 C 0.94259 0.51718 0.17644 0.0
C204 C 0.90743 0.53073 0.21304 0.0
C205 C 0.92266 0.56136 0.15896 0.0
O206 O 0.9346 0.52616 0.18687 0.0
O207 O 0.93772 0.51481 0.16158 0.0
O208 O 0.88995 0.54575 0.18256 0.0
O209 O 0.90306 0.52775 0.16729 0.0
Co210 Co 0.71127 0.16141 0.43407 0.0
O211 O 0.72785 0.15338 0.44881 0.0
O212 O 0.70387 0.16405 0.45676 0.0
C213 C 0.71111 0.1396 0.41675 0.0
O214 O 0.69116 0.17041 0.42186 0.0
Co215 Co 0.72123 0.16841 0.39754 0.0
O216 O 0.6969 0.16927 0.39464 0.0
C217 C 0.7309 0.19189 0.42365 0.0
C218 C 0.71789 0.15724 0.46072 0.0
C219 C 0.68682 0.17142 0.40657 0.0
O220 O 0.7219 0.18403 0.43416 0.0
O221 O 0.73339 0.18679 0.40888 0.0
O222 O 0.70293 0.13907 0.43052 0.0
O223 O 0.72068 0.15226 0.41504 0.0
Co224 Co 0.31238 0.08837 0.04071 0.0
O225 O 0.29723 0.09775 0.02526 0.0
O226 O 0.28991 0.08549 0.04869 0.0
C227 C 0.33002 0.10989 0.04169 0.0
O228 O 0.32517 0.0779 0.05974 0.0
Co229 Co 0.34843 0.08159 0.02899 0.0
O230 O 0.35219 0.07931 0.05311 0.0
C231 C 0.32174 0.05888 0.01907 0.0
C232 C 0.28562 0.09335 0.03534 0.0
C233 C 0.34061 0.07658 0.06345 0.0
O234 O 0.31159 0.06648 0.02868 0.0
O235 O 0.33652 0.06388 0.0164 0.0
O236 O 0.31655 0.11005 0.05039 0.0
O237 O 0.33121 0.09788 0.03125 0.0
Co238 Co 0.81537 0.9129 0.46098 0.0
O239 O 0.8014 0.90523 0.47839 0.0
O240 O 0.79237 0.91543 0.4546 0.0
C241 C 0.83253 0.89095 0.46054 0.0
O242 O 0.82662 0.92144 0.44009 0.0
Co243 Co 0.85242 0.9198 0.46875 0.0
O244 O 0.85407 0.91945 0.44431 0.0
C245 C 0.82704 0.94392 0.47906 0.0
C246 C 0.78904 0.90884 0.46889 0.0
C247 C 0.84167 0.92176 0.43486 0.0
O248 O 0.81588 0.93572 0.47121 0.0
O249 O 0.84198 0.9389 0.48057 0.0
O250 O 0.81843 0.89037 0.45293 0.0
O251 O 0.83479 0.90383 0.46969 0.0
Co252 Co 0.33682 0.06447 0.71227 0.0
O253 O 0.34497 0.04976 0.72881 0.0
O254 O 0.33447 0.04177 0.70478 0.0
C255 C 0.35851 0.08196 0.7122 0.0
O256 O 0.32775 0.0767 0.69219 0.0
Co257 Co 0.32946 0.10086 0.72243 0.0
O258 O 0.32878 0.10389 0.69812 0.0
C259 C 0.30606 0.07454 0.7317 0.0
C260 C 0.34132 0.03784 0.71879 0.0
C261 C 0.3267 0.09202 0.68795 0.0
O262 O 0.31417 0.06411 0.72282 0.0
O263 O 0.31097 0.08936 0.73426 0.0
O264 O 0.35914 0.06822 0.70399 0.0
O265 O 0.34582 0.08355 0.72176 0.0
Co266 Co 0.18481 0.58806 0.96267 0.0
O267 O 0.19859 0.5955 0.98035 0.0
O268 O 0.20788 0.58577 0.95648 0.0
C269 C 0.16761 0.60998 0.9625 0.0
O270 O 0.1739 0.57984 0.94144 0.0
Co271 Co 0.14754 0.5811 0.96935 0.0
O272 O 0.1464 0.58218 0.94493 0.0
C273 C 0.17262 0.55627 0.97896 0.0
C274 C 0.21106 0.5922 0.97087 0.0
C275 C 0.159 0.57982 0.93579 0.0
O276 O 0.18423 0.56505 0.97249 0.0
O277 O 0.15755 0.56103 0.97976 0.0
O278 O 0.18177 0.61073 0.95502 0.0
O279 O 0.16524 0.59689 0.9713 0.0
Co280 Co 0.15976 0.93868 0.21031 0.0
O281 O 0.15176 0.95348 0.22682 0.0
O282 O 0.16263 0.96135 0.20291 0.0
C283 C 0.13776 0.92158 0.21002 0.0
O284 O 0.1688 0.92628 0.19032 0.0
Co285 Co 0.16637 0.9022 0.22079 0.0
O286 O 0.16772 0.89913 0.19649 0.0
C287 C 0.18975 0.92822 0.23058 0.0
C288 C 0.15576 0.96536 0.21689 0.0
C289 C 0.16993 0.91091 0.18625 0.0
O290 O 0.18234 0.93857 0.22104 0.0
O291 O 0.18434 0.91364 0.23347 0.0
O292 O 0.13742 0.93535 0.20184 0.0
O293 O 0.15034 0.91978 0.21967 0.0
Co294 Co 0.68538 0.9109 0.03776 0.0
O295 O 0.70002 0.90268 0.02119 0.0
O296 O 0.70809 0.91358 0.04503 0.0
C297 C 0.66807 0.88909 0.03826 0.0
O298 O 0.67332 0.9201 0.05787 0.0
Co299 Co 0.64878 0.91781 0.02803 0.0
O300 O 0.64605 0.91881 0.05238 0.0
C301 C 0.67479 0.94125 0.01801 0.0
C302 C 0.71198 0.90657 0.03108 0.0
C303 C 0.65806 0.92109 0.06233 0.0
O304 O 0.6854 0.93343 0.02692 0.0
O305 O 0.65999 0.93615 0.0157 0.0
O306 O 0.68189 0.88866 0.04636 0.0
O307 O 0.66628 0.90165 0.02858 0.0
Co308 Co 0.33975 0.43663 0.78842 0.0
O309 O 0.34827 0.45113 0.77186 0.0
O310 O 0.33694 0.45943 0.79541 0.0
C311 C 0.3616 0.41934 0.78939 0.0
O312 O 0.33014 0.42472 0.80844 0.0
Co313 Co 0.3331 0.39994 0.77885 0.0
O314 O 0.33187 0.39742 0.80321 0.0
C315 C 0.30967 0.42581 0.76836 0.0
C316 C 0.34416 0.46318 0.78155 0.0
C317 C 0.32924 0.40949 0.813 0.0
O318 O 0.31741 0.43655 0.7772 0.0
O319 O 0.31481 0.41099 0.76629 0.0
O320 O 0.36187 0.4332 0.79744 0.0
O321 O 0.34918 0.41748 0.77954 0.0
Co322 Co 0.66167 0.06463 0.2856 0.0
O323 O 0.65338 0.05007 0.26899 0.0
O324 O 0.66424 0.04187 0.29278 0.0
C325 C 0.63994 0.08205 0.28615 0.0
O326 O 0.67094 0.07662 0.30573 0.0
Co327 Co 0.66881 0.10117 0.27591 0.0
O328 O 0.66961 0.10388 0.30026 0.0
C329 C 0.69217 0.07507 0.26594 0.0
C330 C 0.65723 0.03804 0.27882 0.0
C331 C 0.67187 0.09187 0.31022 0.0
O332 O 0.6842 0.06449 0.27476 0.0
O333 O 0.68721 0.08992 0.26367 0.0
O334 O 0.63945 0.0682 0.29421 0.0
O335 O 0.6525 0.08381 0.27646 0.0
Co336 Co 0.03557 0.81273 0.58968 0.0
O337 O 0.01894 0.79817 0.59793 0.0
O338 O 0.0429 0.78998 0.58741 0.0
C339 C 0.03571 0.83029 0.61131 0.0
O340 O 0.05573 0.82474 0.58049 0.0
Co341 Co 0.02589 0.84929 0.58236 0.0
O342 O 0.05025 0.85201 0.58174 0.0
C343 C 0.01616 0.82301 0.55903 0.0
C344 C 0.0289 0.78617 0.59435 0.0
C345 C 0.0602 0.83999 0.57953 0.0
O346 O 0.02495 0.81243 0.56704 0.0
O347 O 0.01382 0.83786 0.56398 0.0
O348 O 0.04392 0.81654 0.61199 0.0
O349 O 0.02621 0.8319 0.5986 0.0
Co350 Co 0.93934 0.78891 0.84225 0.0
O351 O 0.95489 0.7732 0.85046 0.0
O352 O 0.96164 0.79693 0.83844 0.0
C353 C 0.92282 0.78951 0.86469 0.0
O354 O 0.92617 0.80817 0.83283 0.0
Co355 Co 0.90296 0.77744 0.83702 0.0
O356 O 0.8992 0.80157 0.83489 0.0
C357 C 0.92848 0.76777 0.81293 0.0
C358 C 0.9663 0.78338 0.84574 0.0
C359 C 0.91072 0.81192 0.83194 0.0
O360 O 0.93897 0.77736 0.82009 0.0
O361 O 0.914 0.76495 0.81867 0.0
O362 O 0.93635 0.7981 0.86434 0.0
O363 O 0.92095 0.77936 0.85252 0.0
Co364 Co 0.96252 0.68561 0.09005 0.0
O365 O 0.97885 0.70039 0.09851 0.0
O366 O 0.95504 0.70827 0.08741 0.0
C367 C 0.96203 0.66821 0.11179 0.0
O368 O 0.94267 0.67333 0.08058 0.0
Co369 Co 0.97283 0.64916 0.08314 0.0
O370 O 0.94853 0.64614 0.08186 0.0
C371 C 0.98259 0.67535 0.05978 0.0
C372 C 0.96887 0.71226 0.09457 0.0
C373 C 0.93844 0.65802 0.07948 0.0
O374 O 0.97355 0.68585 0.06762 0.0
O375 O 0.98505 0.66056 0.06485 0.0
O376 O 0.95375 0.68193 0.1122 0.0
O377 O 0.97186 0.6666 0.09932 0.0
Co378 Co 0.06397 0.7112 0.33963 0.0
O379 O 0.04958 0.72814 0.34758 0.0
O380 O 0.04116 0.70403 0.33761 0.0
C381 C 0.08165 0.71134 0.36117 0.0
O382 O 0.07571 0.69067 0.33082 0.0
Co383 Co 0.10066 0.72002 0.33186 0.0
O384 O 0.10305 0.69569 0.33224 0.0
C385 C 0.07461 0.72815 0.30765 0.0
C386 C 0.03748 0.71822 0.3442 0.0
C387 C 0.0909 0.6859 0.33009 0.0
O388 O 0.06354 0.72131 0.31678 0.0
O389 O 0.08982 0.7295 0.31173 0.0
O390 O 0.06779 0.70334 0.36208 0.0
O391 O 0.08334 0.72056 0.34824 0.0
Co392 Co 0.03938 0.18763 0.40992 0.0
O393 O 0.0233 0.20246 0.40109 0.0
O394 O 0.04696 0.21025 0.41257 0.0
C395 C 0.04011 0.17006 0.38832 0.0
O396 O 0.05899 0.17526 0.41979 0.0
Co397 Co 0.02867 0.15131 0.41692 0.0
O398 O 0.05292 0.14811 0.41862 0.0
C399 C 0.01864 0.17776 0.43985 0.0
C400 C 0.03326 0.21428 0.40519 0.0
C401 C 0.06308 0.15992 0.42105 0.0
O402 O 0.02795 0.18811 0.43214 0.0
O403 O 0.01614 0.16297 0.43484 0.0
O404 O 0.0485 0.18371 0.38794 0.0
O405 O 0.03006 0.16862 0.40063 0.0
Co406 Co 0.56765 0.78566 0.66147 0.0
O407 O 0.5533 0.76899 0.65289 0.0
O408 O 0.54483 0.79272 0.66367 0.0
C409 C 0.58539 0.78644 0.64001 0.0
O410 O 0.57934 0.80585 0.67096 0.0
Co411 Co 0.60416 0.77623 0.66912 0.0
O412 O 0.60667 0.80059 0.67018 0.0
C413 C 0.57781 0.76612 0.69214 0.0
C414 C 0.54118 0.7788 0.65651 0.0
C415 C 0.59454 0.81044 0.67225 0.0
O416 O 0.56725 0.77479 0.68398 0.0
O417 O 0.59275 0.76397 0.6874 0.0
O418 O 0.57147 0.79435 0.63934 0.0
O419 O 0.58705 0.7767 0.65255 0.0
Co420 Co 0.9615 0.3138 0.9087 0.0
O421 O 0.97771 0.29883 0.90034 0.0
O422 O 0.9538 0.29124 0.91141 0.0
C423 C 0.96117 0.33118 0.88694 0.0
O424 O 0.94172 0.32625 0.91805 0.0
Co425 Co 0.97205 0.35019 0.91557 0.0
O426 O 0.94778 0.3534 0.91688 0.0
C427 C 0.9816 0.32397 0.93898 0.0
C428 C 0.96762 0.28708 0.90432 0.0
C429 C 0.93759 0.34159 0.91918 0.0
O430 O 0.97247 0.31354 0.93116 0.0
O431 O 0.9842 0.33872 0.93387 0.0
O432 O 0.95281 0.31751 0.88651 0.0
O433 O 0.971 0.33273 0.89941 0.0
Co434 Co 0.43601 0.7118 0.16125 0.0
O435 O 0.45033 0.72873 0.15317 0.0
O436 O 0.45888 0.70489 0.16363 0.0
C437 C 0.41859 0.71141 0.13949 0.0
O438 O 0.4243 0.69138 0.17024 0.0
Co439 Co 0.39926 0.72085 0.1684 0.0
O440 O 0.39695 0.69644 0.16893 0.0
C441 C 0.42521 0.73088 0.19195 0.0
C442 C 0.46249 0.71899 0.15679 0.0
C443 C 0.40912 0.68667 0.17113 0.0
O444 O 0.43597 0.7223 0.18395 0.0
O445 O 0.41036 0.73303 0.18691 0.0
O446 O 0.43251 0.70349 0.13887 0.0
O447 O 0.41673 0.72084 0.15222 0.0
Co448 Co 0.09076 0.53939 0.81229 0.0
O449 O 0.09921 0.52328 0.79729 0.0
O450 O 0.08767 0.54698 0.78972 0.0
C451 C 0.11277 0.54002 0.82938 0.0
O452 O 0.0812 0.55902 0.8249 0.0
Co453 Co 0.08447 0.5286 0.84872 0.0
O454 O 0.08275 0.55283 0.85201 0.0
C455 C 0.06091 0.51876 0.82275 0.0
C456 C 0.09492 0.53324 0.78554 0.0
C457 C 0.08014 0.56303 0.84028 0.0
O458 O 0.06847 0.52805 0.81227 0.0
O459 O 0.06622 0.51619 0.83743 0.0
O460 O 0.11287 0.5484 0.81572 0.0
O461 O 0.10043 0.53004 0.8311 0.0
Co462 Co 0.2125 0.83987 0.06366 0.0
O463 O 0.22933 0.84826 0.04941 0.0
O464 O 0.2058 0.83715 0.04076 0.0
C465 C 0.2114 0.86168 0.08098 0.0
O466 O 0.19224 0.83046 0.0753 0.0
Co467 Co 0.22163 0.83304 0.10043 0.0
O468 O 0.19723 0.83207 0.10265 0.0
C469 C 0.23218 0.80958 0.07465 0.0
C470 C 0.21979 0.84426 0.0372 0.0
C471 C 0.18752 0.8296 0.09049 0.0
O472 O 0.22353 0.81744 0.06385 0.0
O473 O 0.23415 0.81465 0.08951 0.0
O474 O 0.2036 0.86204 0.06698 0.0
O475 O 0.22118 0.84922 0.08296 0.0
Co476 Co 0.91143 0.96111 0.31166 0.0
O477 O 0.9032 0.97732 0.29663 0.0
O478 O 0.91446 0.9535 0.28908 0.0
C479 C 0.88934 0.9607 0.32866 0.0
O480 O 0.92073 0.94134 0.32425 0.0
Co481 Co 0.91764 0.97166 0.34817 0.0
O482 O 0.91907 0.94741 0.35138 0.0
C483 C 0.94133 0.9815 0.32231 0.0
C484 C 0.90734 0.96728 0.28488 0.0
C485 C 0.92165 0.93724 0.33962 0.0
O486 O 0.93383 0.97223 0.31176 0.0
O487 O 0.93593 0.98406 0.33696 0.0
O488 O 0.88921 0.95232 0.315 0.0
O489 O 0.90179 0.97052 0.33045 0.0
Co490 Co 0.78703 0.66174 0.5658 0.0
O491 O 0.77053 0.65362 0.55102 0.0
O492 O 0.79454 0.66424 0.54313 0.0
C493 C 0.78715 0.63993 0.58314 0.0
O494 O 0.80706 0.67083 0.57812 0.0
Co495 Co 0.77679 0.66879 0.60224 0.0
O496 O 0.8011 0.66964 0.6053 0.0
C497 C 0.76765 0.69246 0.57609 0.0
C498 C 0.78057 0.65735 0.53914 0.0
C499 C 0.81126 0.67186 0.59346 0.0
O500 O 0.77645 0.68437 0.56558 0.0
O501 O 0.76508 0.68746 0.59089 0.0
O502 O 0.79538 0.63942 0.5694 0.0
O503 O 0.77755 0.65258 0.58482 0.0
Co504 Co 0.08896 0.45853 0.18948 0.0
O505 O 0.09777 0.47427 0.20468 0.0
O506 O 0.08579 0.45071 0.21198 0.0
C507 C 0.11095 0.45772 0.17238 0.0
O508 O 0.079 0.43927 0.17659 0.0
Co509 Co 0.08288 0.47001 0.15322 0.0
O510 O 0.08082 0.44586 0.14959 0.0
C511 C 0.05951 0.47989 0.17935 0.0
C512 C 0.09336 0.46422 0.21631 0.0
C513 C 0.07796 0.43552 0.16114 0.0
O514 O 0.06689 0.4703 0.18969 0.0
O515 O 0.06487 0.48258 0.16471 0.0
O516 O 0.11088 0.44913 0.18591 0.0
O517 O 0.09881 0.46795 0.1708 0.0
Co518 Co 0.28648 0.84034 0.43714 0.0
O519 O 0.26994 0.84875 0.45172 0.0
O520 O 0.29364 0.83767 0.45993 0.0
C521 C 0.28716 0.86214 0.41978 0.0
O522 O 0.30648 0.83088 0.42501 0.0
Co523 Co 0.27641 0.83353 0.40057 0.0
O524 O 0.30071 0.832 0.39778 0.0
C525 C 0.26643 0.81013 0.42662 0.0
C526 C 0.27972 0.84478 0.46374 0.0
C527 C 0.31075 0.82964 0.4097 0.0
O528 O 0.27545 0.81789 0.43719 0.0
O529 O 0.26402 0.81528 0.41186 0.0
O530 O 0.29527 0.86253 0.4336 0.0
O531 O 0.27737 0.84966 0.41805 0.0
Co532 Co 0.90733 0.04319 0.6874 0.0
O533 O 0.89727 0.02815 0.70253 0.0
O534 O 0.9106 0.05097 0.7099 0.0
C535 C 0.88588 0.04511 0.66976 0.0
O536 O 0.91858 0.06177 0.67465 0.0
Co537 Co 0.91358 0.03127 0.65132 0.0
O538 O 0.91662 0.05533 0.64763 0.0
C539 C 0.93594 0.02039 0.67792 0.0
C540 C 0.90212 0.03799 0.71416 0.0
C541 C 0.91984 0.06551 0.65922 0.0
O542 O 0.92873 0.03024 0.68814 0.0
O543 O 0.93081 0.01798 0.66315 0.0
O544 O 0.88608 0.05382 0.68321 0.0
O545 O 0.89742 0.03416 0.66858 0.0
Co546 Co 0.71064 0.66025 0.93673 0.0
O547 O 0.72849 0.65271 0.95025 0.0
O548 O 0.70455 0.66195 0.95987 0.0
C549 C 0.71067 0.63871 0.91905 0.0
O550 O 0.68925 0.66851 0.92611 0.0
Co551 Co 0.71691 0.66822 0.89962 0.0
O552 O 0.69255 0.66633 0.89858 0.0
C553 C 0.72584 0.69279 0.92518 0.0
C554 C 0.71905 0.65566 0.96283 0.0
C555 C 0.68348 0.66851 0.91125 0.0
O556 O 0.72021 0.68337 0.9367 0.0
O557 O 0.72618 0.68873 0.9099 0.0
O558 O 0.70326 0.63758 0.93321 0.0
O559 O 0.71929 0.65198 0.91689 0.0
Co560 Co 0.31591 0.58919 0.53577 0.0
O561 O 0.30137 0.59689 0.51885 0.0
O562 O 0.29315 0.58614 0.5427 0.0
C563 C 0.33271 0.61142 0.53623 0.0
O564 O 0.32781 0.58049 0.5562 0.0
Co565 Co 0.3528 0.58291 0.52686 0.0
O566 O 0.35512 0.58252 0.55125 0.0
C567 C 0.32753 0.55859 0.5169 0.0
C568 C 0.28933 0.59289 0.52861 0.0
C569 C 0.34299 0.58001 0.56099 0.0
O570 O 0.31651 0.56654 0.5252 0.0
O571 O 0.34234 0.56384 0.51499 0.0
O572 O 0.31875 0.61162 0.5441 0.0
O573 O 0.33499 0.59874 0.52678 0.0
Co574 Co 0.81347 0.41076 0.95957 0.0
O575 O 0.79864 0.40198 0.97568 0.0
O576 O 0.7908 0.41363 0.95213 0.0
C577 C 0.83082 0.389 0.95869 0.0
O578 O 0.82587 0.42064 0.93997 0.0
Co579 Co 0.8499 0.41736 0.97021 0.0
O580 O 0.85303 0.4191 0.94595 0.0
C581 C 0.82368 0.44046 0.98047 0.0
C582 C 0.78679 0.40619 0.96581 0.0
C583 C 0.84122 0.42174 0.93585 0.0
O584 O 0.81324 0.43294 0.97111 0.0
O585 O 0.83842 0.43527 0.98293 0.0
O586 O 0.81714 0.3888 0.95033 0.0
O587 O 0.83242 0.40126 0.96877 0.0
Co588 Co 0.33932 0.56355 0.21194 0.0
O589 O 0.34751 0.54887 0.22849 0.0
O590 O 0.33671 0.54082 0.20462 0.0
C591 C 0.36118 0.58085 0.21156 0.0
O592 O 0.33014 0.57576 0.19187 0.0
Co593 Co 0.33245 0.60009 0.22198 0.0
O594 O 0.3314 0.60297 0.19766 0.0
C595 C 0.30887 0.57407 0.23163 0.0
C596 C 0.34369 0.53692 0.21858 0.0
C597 C 0.32911 0.59107 0.18759 0.0
O598 O 0.31675 0.5635 0.22271 0.0
O599 O 0.314 0.58883 0.23409 0.0
O600 O 0.36161 0.56705 0.20341 0.0
O601 O 0.34859 0.5826 0.22122 0.0
Co602 Co 0.1857 0.08937 0.46326 0.0
O603 O 0.20027 0.09768 0.47986 0.0
O604 O 0.20848 0.08655 0.45619 0.0
C605 C 0.16851 0.11128 0.46249 0.0
O606 O 0.17368 0.08003 0.44318 0.0
Co607 Co 0.14901 0.08279 0.47292 0.0
O608 O 0.1464 0.08158 0.44856 0.0
C609 C 0.17483 0.05924 0.4832 0.0
C610 C 0.2123 0.09366 0.47011 0.0
C611 C 0.15842 0.0791 0.43868 0.0
O612 O 0.18555 0.06694 0.47429 0.0
O613 O 0.16006 0.06446 0.48541 0.0
O614 O 0.18237 0.11157 0.45445 0.0
O615 O 0.16661 0.09882 0.47227 0.0
Co616 Co 0.16145 0.43457 0.71317 0.0
O617 O 0.15326 0.44892 0.73001 0.0
O618 O 0.16375 0.45741 0.70615 0.0
C619 C 0.13983 0.41699 0.71278 0.0
O620 O 0.17054 0.4228 0.69282 0.0
Co621 Co 0.16894 0.39798 0.7225 0.0
O622 O 0.16966 0.39549 0.69812 0.0
C623 C 0.1922 0.42418 0.73243 0.0
C624 C 0.15688 0.46106 0.72023 0.0
C625 C 0.17167 0.40759 0.68823 0.0
O626 O 0.18411 0.43477 0.72373 0.0
O627 O 0.18732 0.4093 0.73468 0.0
O628 O 0.13912 0.43089 0.70483 0.0
O629 O 0.15254 0.41526 0.72228 0.0
Co630 Co 0.68547 0.40983 0.53892 0.0
O631 O 0.69914 0.40253 0.5211 0.0
O632 O 0.70855 0.4118 0.54512 0.0
C633 C 0.66801 0.3881 0.53875 0.0
O634 O 0.67474 0.4179 0.5603 0.0
Co635 Co 0.6483 0.41748 0.53264 0.0
O636 O 0.64723 0.41562 0.55699 0.0
C637 C 0.67363 0.44238 0.52399 0.0
C638 C 0.71164 0.40563 0.5306 0.0
C639 C 0.6599 0.41787 0.56606 0.0
O640 O 0.68523 0.43299 0.52949 0.0
O641 O 0.65838 0.43822 0.52363 0.0
O642 O 0.68217 0.38709 0.54617 0.0
O643 O 0.66572 0.40139 0.5302 0.0
Co644 Co 0.33754 0.9333 0.28694 0.0
O645 O 0.34556 0.94714 0.26959 0.0
O646 O 0.3352 0.95632 0.29325 0.0
C647 C 0.35928 0.91589 0.28766 0.0
O648 O 0.32865 0.92227 0.30779 0.0
Co649 Co 0.33025 0.8963 0.27937 0.0
O650 O 0.33029 0.89477 0.30383 0.0
C651 C 0.3065 0.92189 0.26872 0.0
C652 C 0.342 0.95956 0.27904 0.0
C653 C 0.32805 0.90728 0.31314 0.0
O654 O 0.31482 0.93302 0.2765 0.0
O655 O 0.31132 0.90688 0.2674 0.0
O656 O 0.35994 0.93001 0.29522 0.0
O657 O 0.34646 0.91373 0.27841 0.0
Co658 Co 0.66016 0.56397 0.78824 0.0
O659 O 0.65176 0.54972 0.77142 0.0
O660 O 0.66255 0.5411 0.7951 0.0
C661 C 0.63853 0.58151 0.78903 0.0
O662 O 0.66952 0.57558 0.80854 0.0
Co663 Co 0.6675 0.60063 0.77911 0.0
O664 O 0.66828 0.60294 0.8035 0.0
C665 C 0.69074 0.57452 0.76878 0.0
C666 C 0.65549 0.53755 0.7811 0.0
C667 C 0.67052 0.59076 0.81326 0.0
O668 O 0.68269 0.56384 0.7774 0.0
O669 O 0.68587 0.58944 0.76677 0.0
O670 O 0.63795 0.56756 0.79689 0.0
O671 O 0.65112 0.58334 0.77938 0.0
Co672 Co 0.53686 0.31354 0.58878 0.0
O673 O 0.51956 0.29956 0.59668 0.0
O674 O 0.54304 0.29054 0.5858 0.0
C675 C 0.53792 0.33038 0.61097 0.0
O676 O 0.5576 0.32477 0.57985 0.0
Co677 Co 0.52914 0.35071 0.58255 0.0
O678 O 0.55359 0.35221 0.5822 0.0
C679 C 0.51829 0.32575 0.55822 0.0
C680 C 0.5289 0.2872 0.59271 0.0
C681 C 0.5629 0.33979 0.57949 0.0
O682 O 0.52612 0.31441 0.5662 0.0
O683 O 0.51702 0.34063 0.56343 0.0
O684 O 0.54545 0.31624 0.61115 0.0
O685 O 0.5285 0.33289 0.59833 0.0
Co686 Co 0.43682 0.2884 0.83935 0.0
O687 O 0.45141 0.27164 0.84727 0.0
O688 O 0.45958 0.29544 0.8364 0.0
C689 C 0.41989 0.28888 0.86149 0.0
O690 O 0.42479 0.30868 0.83042 0.0
Co691 Co 0.40004 0.27902 0.833 0.0
O692 O 0.39751 0.30337 0.83214 0.0
C693 C 0.42556 0.26895 0.80901 0.0
C694 C 0.46342 0.28143 0.84329 0.0
C695 C 0.40954 0.31325 0.82969 0.0
O696 O 0.43641 0.27764 0.81678 0.0
O697 O 0.4108 0.26683 0.8143 0.0
O698 O 0.43377 0.29688 0.86172 0.0
O699 O 0.41779 0.27934 0.84887 0.0
Co700 Co 0.46198 0.18397 0.09012 0.0
O701 O 0.47829 0.19884 0.09846 0.0
O702 O 0.45427 0.20657 0.0877 0.0
C703 C 0.46185 0.16636 0.11169 0.0
O704 O 0.44209 0.1716 0.08085 0.0
Co705 Co 0.47249 0.14771 0.08267 0.0
O706 O 0.44821 0.14446 0.08168 0.0
C707 C 0.48181 0.17421 0.05952 0.0
C708 C 0.46818 0.21065 0.09466 0.0
C709 C 0.43797 0.15627 0.07965 0.0
O710 O 0.47274 0.18451 0.06757 0.0
O711 O 0.48445 0.15939 0.06437 0.0
O712 O 0.45352 0.18005 0.11234 0.0
O713 O 0.47156 0.16493 0.09911 0.0
Co714 Co 0.56233 0.21097 0.3378 0.0
O715 O 0.54733 0.22701 0.34641 0.0
O716 O 0.53973 0.20332 0.33489 0.0
C717 C 0.57962 0.21029 0.35962 0.0
O718 O 0.57494 0.19141 0.32809 0.0
Co719 Co 0.59867 0.22196 0.33128 0.0
O720 O 0.60203 0.19774 0.32948 0.0
C721 C 0.57246 0.23186 0.30806 0.0
C722 C 0.53556 0.21703 0.34221 0.0
C723 C 0.59034 0.18748 0.32693 0.0
O724 O 0.56211 0.22237 0.31555 0.0
O725 O 0.58713 0.23455 0.31334 0.0
O726 O 0.56599 0.20186 0.35983 0.0
O727 O 0.58117 0.22036 0.34734 0.0
Co728 Co 0.54076 0.68898 0.41064 0.0
O729 O 0.52502 0.70404 0.40161 0.0
O730 O 0.54855 0.71151 0.41357 0.0
C731 C 0.54166 0.67151 0.38896 0.0
O732 O 0.56002 0.67632 0.42077 0.0
Co733 Co 0.52937 0.6528 0.41731 0.0
O734 O 0.55356 0.64927 0.41934 0.0
C735 C 0.51927 0.6793 0.44011 0.0
C736 C 0.53504 0.71573 0.40595 0.0
C737 C 0.56385 0.66091 0.42199 0.0
O738 O 0.52899 0.68948 0.4327 0.0
O739 O 0.51653 0.6646 0.43494 0.0
O740 O 0.5502 0.68507 0.3888 0.0
O741 O 0.53138 0.67013 0.40109 0.0
Co742 Co 0.06511 0.2865 0.66105 0.0
O743 O 0.05069 0.26988 0.65254 0.0
O744 O 0.04228 0.29348 0.66363 0.0
C745 C 0.08254 0.2874 0.63933 0.0
O746 O 0.07695 0.3066 0.67058 0.0
Co747 Co 0.10173 0.27695 0.66808 0.0
O748 O 0.10426 0.30131 0.66924 0.0
C749 C 0.07567 0.26656 0.69131 0.0
C750 C 0.03858 0.27958 0.65644 0.0
C751 C 0.09218 0.31115 0.67162 0.0
O752 O 0.06503 0.27542 0.68346 0.0
O753 O 0.09053 0.26442 0.6863 0.0
O754 O 0.06865 0.29538 0.63893 0.0
O755 O 0.08436 0.27759 0.65179 0.0
Co756 Co 0.46235 0.81697 0.91007 0.0
O757 O 0.47883 0.80251 0.90134 0.0
O758 O 0.45513 0.79418 0.91232 0.0
C759 C 0.46159 0.83479 0.88868 0.0
O760 O 0.44237 0.82887 0.91977 0.0
Co761 Co 0.47231 0.85336 0.91771 0.0
O762 O 0.44798 0.85613 0.91896 0.0
C763 C 0.48238 0.82682 0.94052 0.0
C764 C 0.46901 0.79045 0.90512 0.0
C765 C 0.43799 0.84413 0.9211 0.0
O766 O 0.47343 0.81641 0.93247 0.0
O767 O 0.48468 0.84173 0.93577 0.0
O768 O 0.45349 0.82098 0.88801 0.0
O769 O 0.47146 0.83626 0.90114 0.0
Co770 Co 0.93736 0.20888 0.16056 0.0
O771 O 0.95106 0.22657 0.15303 0.0
O772 O 0.96042 0.20245 0.16208 0.0
C773 C 0.91952 0.20924 0.13916 0.0
O774 O 0.92649 0.18761 0.16877 0.0
Co775 Co 0.9004 0.21566 0.16885 0.0
O776 O 0.899 0.19134 0.1668 0.0
C777 C 0.92627 0.22405 0.19325 0.0
C778 C 0.96353 0.21695 0.15587 0.0
C779 C 0.91156 0.18206 0.16882 0.0
O780 O 0.93763 0.21832 0.18371 0.0
O781 O 0.91095 0.22461 0.18936 0.0
O782 O 0.93359 0.20165 0.13789 0.0
O783 O 0.91758 0.21784 0.15247 0.0
Co784 Co 0.58936 0.04108 0.81328 0.0
O785 O 0.5978 0.02479 0.79845 0.0
O786 O 0.58678 0.04865 0.79063 0.0
C787 C 0.61106 0.0414 0.83075 0.0
O788 O 0.57991 0.06091 0.82565 0.0
Co789 Co 0.58233 0.0306 0.84967 0.0
O790 O 0.58104 0.05487 0.85281 0.0
C791 C 0.55904 0.021 0.82336 0.0
C792 C 0.59388 0.0348 0.78661 0.0
C793 C 0.57874 0.06504 0.84099 0.0
O794 O 0.56689 0.03011 0.81294 0.0
O795 O 0.56409 0.01843 0.83813 0.0
O796 O 0.61154 0.04976 0.81708 0.0
O797 O 0.59854 0.03163 0.83227 0.0
Co798 Co 0.71418 0.33953 0.06497 0.0
O799 O 0.73112 0.34786 0.05081 0.0
O800 O 0.7075 0.3371 0.04203 0.0
C801 C 0.71331 0.3612 0.08247 0.0
O802 O 0.69379 0.33023 0.07652 0.0
Co803 Co 0.72321 0.33226 0.10168 0.0
O804 O 0.69882 0.33133 0.10389 0.0
C805 C 0.73354 0.30893 0.0757 0.0
C806 C 0.72155 0.34411 0.03855 0.0
C807 C 0.68907 0.32913 0.0917 0.0
O808 O 0.72496 0.31696 0.06497 0.0
O809 O 0.73556 0.31385 0.0906 0.0
O810 O 0.70554 0.36176 0.06847 0.0
O811 O 0.72294 0.34861 0.08436 0.0
Co812 Co 0.41234 0.46239 0.31365 0.0
O813 O 0.40384 0.47905 0.29925 0.0
O814 O 0.41501 0.4555 0.29079 0.0
C815 C 0.39054 0.4614 0.33098 0.0
O816 O 0.42186 0.44226 0.32549 0.0
Co817 Co 0.41916 0.47188 0.35033 0.0
O818 O 0.42025 0.44751 0.35279 0.0
C819 C 0.44246 0.48245 0.32439 0.0
C820 C 0.4078 0.4694 0.28713 0.0
C821 C 0.42274 0.43769 0.34072 0.0
O822 O 0.43472 0.47356 0.31369 0.0
O823 O 0.43736 0.48452 0.33923 0.0
O824 O 0.39021 0.45343 0.31708 0.0
O825 O 0.40298 0.47123 0.33286 0.0
Co826 Co 0.28745 0.16203 0.56389 0.0
O827 O 0.27106 0.15364 0.54914 0.0
O828 O 0.29492 0.16454 0.5412 0.0
C829 C 0.28783 0.14035 0.58136 0.0
O830 O 0.30736 0.1714 0.57617 0.0
Co831 Co 0.27709 0.16917 0.60028 0.0
O832 O 0.30139 0.17023 0.60334 0.0
C833 C 0.26749 0.19245 0.57396 0.0
C834 C 0.28103 0.15748 0.53724 0.0
C835 C 0.31155 0.17248 0.5915 0.0
O836 O 0.27653 0.18452 0.56354 0.0
O837 O 0.26498 0.18748 0.58877 0.0
O838 O 0.29609 0.13985 0.56764 0.0
O839 O 0.27806 0.15287 0.58294 0.0
Co840 Co 0.58989 0.96008 0.18725 0.0
O841 O 0.5984 0.97634 0.20206 0.0
O842 O 0.58735 0.9525 0.2099 0.0
C843 C 0.61154 0.95972 0.16972 0.0
O844 O 0.58036 0.9403 0.1749 0.0
Co845 Co 0.58278 0.97061 0.15089 0.0
O846 O 0.58149 0.94633 0.14773 0.0
C847 C 0.55961 0.98027 0.17728 0.0
C848 C 0.59448 0.96635 0.21391 0.0
C849 C 0.57917 0.93617 0.15955 0.0
O850 O 0.56747 0.97113 0.18767 0.0
O851 O 0.56461 0.98282 0.16249 0.0
O852 O 0.61203 0.95134 0.18338 0.0
O853 O 0.59905 0.96953 0.16824 0.0
Co854 Co 0.78756 0.33917 0.43464 0.0
O855 O 0.77113 0.34762 0.44931 0.0
O856 O 0.79477 0.33624 0.45733 0.0
C857 C 0.78844 0.36104 0.41742 0.0
O858 O 0.80749 0.32966 0.42253 0.0
Co859 Co 0.77768 0.33258 0.39802 0.0
O860 O 0.80201 0.33126 0.39528 0.0
C861 C 0.76735 0.30915 0.42393 0.0
C862 C 0.78093 0.34345 0.46124 0.0
C863 C 0.81193 0.32872 0.40727 0.0
O864 O 0.77633 0.31685 0.43458 0.0
O865 O 0.76514 0.31432 0.40914 0.0
O866 O 0.79655 0.36127 0.43125 0.0
O867 O 0.77853 0.34866 0.41558 0.0
Co868 Co 0.41144 0.54136 0.68596 0.0
O869 O 0.40367 0.52359 0.69943 0.0
O870 O 0.4127 0.54758 0.7091 0.0
C871 C 0.39028 0.54123 0.66783 0.0
O872 O 0.41988 0.56266 0.67531 0.0
Co873 Co 0.42025 0.53461 0.6491 0.0
O874 O 0.41828 0.55895 0.64778 0.0
C875 C 0.44414 0.52586 0.67528 0.0
C876 C 0.40643 0.53307 0.71202 0.0
C877 C 0.42014 0.56821 0.66037 0.0
O878 O 0.43455 0.53184 0.68647 0.0
O879 O 0.44045 0.52524 0.65992 0.0
O880 O 0.38885 0.5487 0.68193 0.0
O881 O 0.40357 0.53257 0.66602 0.0
Co882 Co 0.21059 0.15812 0.93436 0.0
O883 O 0.2287 0.15031 0.94735 0.0
O884 O 0.20505 0.15946 0.95768 0.0
C885 C 0.21019 0.13691 0.9163 0.0
O886 O 0.18899 0.16656 0.9243 0.0
Co887 Co 0.21623 0.16679 0.89731 0.0
O888 O 0.19188 0.16471 0.8967 0.0
C889 C 0.22542 0.19095 0.92312 0.0
C890 C 0.21961 0.1531 0.96022 0.0
C891 C 0.18299 0.16669 0.90954 0.0
O892 O 0.22014 0.18123 0.93455 0.0
O893 O 0.22543 0.18726 0.90775 0.0
O894 O 0.20309 0.13554 0.93061 0.0
O895 O 0.21881 0.15018 0.91421 0.0
Co896 Co 0.81376 0.0915 0.53606 0.0
O897 O 0.799 0.09947 0.51948 0.0
O898 O 0.7911 0.08917 0.54363 0.0
C899 C 0.83135 0.11308 0.53599 0.0
O900 O 0.82604 0.08269 0.55621 0.0
Co901 Co 0.85006 0.0839 0.52571 0.0
O902 O 0.85319 0.08304 0.55002 0.0
C903 C 0.82352 0.061 0.5162 0.0
C904 C 0.78711 0.09585 0.52955 0.0
C905 C 0.84138 0.0814 0.56034 0.0
O906 O 0.81338 0.06874 0.52571 0.0
O907 O 0.8382 0.06607 0.51322 0.0
O908 O 0.81756 0.11389 0.54414 0.0
O909 O 0.83284 0.10036 0.52647 0.0
Co910 Co 0.31323 0.91209 0.96153 0.0
O911 O 0.29827 0.90314 0.97741 0.0
O912 O 0.29067 0.91469 0.95372 0.0
C913 C 0.33088 0.89055 0.96086 0.0
O914 O 0.32577 0.92212 0.9421 0.0
Co915 Co 0.3494 0.91922 0.97264 0.0
O916 O 0.35287 0.92109 0.94845 0.0
C917 C 0.32276 0.94207 0.98239 0.0
C918 C 0.28652 0.90724 0.96735 0.0
C919 C 0.34115 0.92353 0.93819 0.0
O920 O 0.31253 0.93426 0.97304 0.0
O921 O 0.33758 0.93716 0.98499 0.0
O922 O 0.3173 0.89018 0.95235 0.0
O923 O 0.3322 0.90282 0.97098 0.0
Co924 Co 0.83977 0.06094 0.20985 0.0
O925 O 0.84764 0.04619 0.22649 0.0
O926 O 0.83655 0.03823 0.20272 0.0
C927 C 0.86209 0.07764 0.2093 0.0
O928 O 0.83083 0.07323 0.18973 0.0
Co929 Co 0.83388 0.09771 0.21967 0.0
O930 O 0.83282 0.10044 0.19534 0.0
C931 C 0.80971 0.07236 0.22963 0.0
C932 C 0.84349 0.03426 0.21668 0.0
C933 C 0.83018 0.08854 0.18535 0.0
O934 O 0.81725 0.06154 0.22072 0.0
O935 O 0.81522 0.087 0.23197 0.0
O936 O 0.86211 0.06379 0.20124 0.0
O937 O 0.84957 0.07981 0.21896 0.0
Co938 Co 0.68599 0.58853 0.46263 0.0
O939 O 0.6997 0.59586 0.48042 0.0
O940 O 0.70908 0.58673 0.45635 0.0
C941 C 0.66844 0.61017 0.46288 0.0
O942 O 0.67514 0.5805 0.44128 0.0
Co943 Co 0.64889 0.58072 0.46917 0.0
O944 O 0.64765 0.58278 0.44485 0.0
C945 C 0.67436 0.55588 0.47752 0.0
C946 C 0.71219 0.59292 0.47086 0.0
C947 C 0.66023 0.58061 0.43564 0.0
O948 O 0.68589 0.56534 0.472 0.0
O949 O 0.65909 0.55996 0.47798 0.0
O950 O 0.68259 0.61125 0.45543 0.0
O951 O 0.66625 0.59689 0.47147 0.0
Co952 Co 0.66083 0.93547 0.71406 0.0
O953 O 0.65226 0.94952 0.73098 0.0
O954 O 0.663 0.95844 0.7074 0.0
C955 C 0.63941 0.91768 0.71316 0.0
O956 O 0.67037 0.92407 0.69372 0.0
Co957 Co 0.66846 0.89879 0.72302 0.0
O958 O 0.66953 0.89666 0.69861 0.0
C959 C 0.69141 0.92505 0.73354 0.0
C960 C 0.65591 0.96183 0.72144 0.0
C961 C 0.67166 0.90893 0.68894 0.0
O962 O 0.68335 0.93572 0.72491 0.0
O963 O 0.68659 0.91011 0.73555 0.0
O964 O 0.63866 0.93166 0.70534 0.0
O965 O 0.652 0.91598 0.72281 0.0
Co966 Co 0.18275 0.91115 0.53849 0.0
O967 O 0.19736 0.90289 0.52191 0.0
O968 O 0.20554 0.91369 0.54572 0.0
C969 C 0.16537 0.88938 0.5389 0.0
O970 O 0.17054 0.92043 0.55854 0.0
Co971 Co 0.14629 0.91822 0.5283 0.0
O972 O 0.14335 0.9192 0.55261 0.0
C973 C 0.17246 0.94167 0.51875 0.0
C974 C 0.20938 0.90673 0.53174 0.0
C975 C 0.1552 0.92148 0.56275 0.0
O976 O 0.18294 0.93369 0.52768 0.0
O977 O 0.15765 0.93668 0.51627 0.0
O978 O 0.17917 0.8889 0.54704 0.0
O979 O 0.16366 0.90195 0.52922 0.0
Co980 Co 0.83925 0.43717 0.28742 0.0
O981 O 0.84717 0.45201 0.2709 0.0
O982 O 0.83612 0.45982 0.29474 0.0
C983 C 0.86146 0.42033 0.2879 0.0
O984 O 0.83028 0.42483 0.30746 0.0
Co985 Co 0.8331 0.40052 0.2774 0.0
O986 O 0.83197 0.39764 0.30172 0.0
C987 C 0.80907 0.42608 0.26764 0.0
C988 C 0.84305 0.46387 0.28081 0.0
C989 C 0.82947 0.40951 0.31177 0.0
O990 O 0.81673 0.43678 0.27659 0.0
O991 O 0.81446 0.4114 0.26521 0.0
O992 O 0.86158 0.43415 0.29601 0.0
O993 O 0.84894 0.41829 0.2782 0.0
Co994 Co 0.15808 0.06186 0.78627 0.0
O995 O 0.1497 0.04716 0.76983 0.0
O996 O 0.16088 0.03918 0.79356 0.0
C997 C 0.13619 0.0791 0.78697 0.0
O998 O 0.1675 0.07402 0.80621 0.0
Co999 Co 0.16472 0.09846 0.77632 0.0
O1000 O 0.16608 0.10126 0.80063 0.0
C1001 C 0.18824 0.07252 0.76624 0.0
C1002 C 0.15371 0.03524 0.77972 0.0
C1003 C 0.16854 0.0893 0.81059 0.0
O1004 O 0.18049 0.06189 0.77519 0.0
O1005 O 0.18306 0.0873 0.76394 0.0
O1006 O 0.13591 0.06529 0.7951 0.0
O1007 O 0.14864 0.08092 0.77715 0.0
Co1008 Co 0.53731 0.81382 0.08845 0.0
O1009 O 0.52065 0.79921 0.09657 0.0
O1010 O 0.54446 0.79106 0.08569 0.0
C1011 C 0.53785 0.83098 0.11039 0.0
O1012 O 0.55746 0.8259 0.07934 0.0
Co1013 Co 0.5276 0.85048 0.0818 0.0
O1014 O 0.55195 0.85316 0.08083 0.0
C1015 C 0.51769 0.82467 0.05808 0.0
C1016 C 0.53049 0.78721 0.09266 0.0
C1017 C 0.56191 0.84118 0.07846 0.0
O1018 O 0.52651 0.81397 0.0659 0.0
O1019 O 0.51539 0.83944 0.06328 0.0
O1020 O 0.54589 0.81712 0.11073 0.0
O1021 O 0.52817 0.83289 0.09784 0.0
Co1022 Co 0.43367 0.78567 0.34017 0.0
O1023 O 0.44795 0.76897 0.34877 0.0
O1024 O 0.45655 0.79249 0.33765 0.0
C1025 C 0.4161 0.78676 0.36177 0.0
O1026 O 0.42201 0.80583 0.33057 0.0
Co1027 Co 0.39707 0.77626 0.33289 0.0
O1028 O 0.39468 0.80064 0.33174 0.0
C1029 C 0.42318 0.7659 0.30972 0.0
C1030 C 0.46015 0.77857 0.34485 0.0
C1031 C 0.4068 0.81044 0.32945 0.0
O1032 O 0.43382 0.77458 0.31776 0.0
O1033 O 0.40826 0.76385 0.31457 0.0
O1034 O 0.43007 0.79461 0.36226 0.0
O1035 O 0.4143 0.7769 0.34934 0.0
Co1036 Co 0.46201 0.6886 0.58745 0.0
O1037 O 0.47914 0.70276 0.59532 0.0
O1038 O 0.45548 0.71152 0.58459 0.0
C1039 C 0.46126 0.67167 0.6096 0.0
O1040 O 0.44142 0.67703 0.57859 0.0
Co1041 Co 0.47052 0.65163 0.581 0.0
O1042 O 0.4461 0.64966 0.58063 0.0
C1043 C 0.48088 0.67694 0.55688 0.0
C1044 C 0.46962 0.71501 0.59142 0.0
C1045 C 0.43649 0.66189 0.5781 0.0
O1046 O 0.47264 0.68799 0.56483 0.0
O1047 O 0.48262 0.66209 0.56207 0.0
O1048 O 0.45357 0.68573 0.60986 0.0
O1049 O 0.47067 0.66934 0.59692 0.0
Co1050 Co 0.5628 0.71173 0.84023 0.0
O1051 O 0.54824 0.72858 0.84801 0.0
O1052 O 0.54001 0.7049 0.83692 0.0
C1053 C 0.57947 0.71095 0.86257 0.0
O1054 O 0.57485 0.69145 0.83136 0.0
Co1055 Co 0.59968 0.72113 0.83436 0.0
O1056 O 0.60212 0.69676 0.83326 0.0
C1057 C 0.57452 0.7312 0.81006 0.0
C1058 C 0.5362 0.71894 0.84377 0.0
C1059 C 0.5901 0.6869 0.83066 0.0
O1060 O 0.56359 0.7225 0.81768 0.0
O1061 O 0.58919 0.73341 0.81557 0.0
O1062 O 0.56549 0.70312 0.86261 0.0
O1063 O 0.58178 0.72059 0.85006 0.0
Co1064 Co 0.53719 0.18757 0.91194 0.0
O1065 O 0.52097 0.20253 0.90361 0.0
O1066 O 0.54473 0.21016 0.91497 0.0
C1067 C 0.53782 0.17052 0.88992 0.0
O1068 O 0.55695 0.1751 0.92135 0.0
Co1069 Co 0.52676 0.15105 0.91822 0.0
O1070 O 0.55104 0.14794 0.91966 0.0
C1071 C 0.51689 0.1769 0.94191 0.0
C1072 C 0.53096 0.21431 0.90777 0.0
C1073 C 0.56114 0.15976 0.92227 0.0
O1074 O 0.526 0.1875 0.93429 0.0
O1075 O 0.51444 0.1622 0.93661 0.0
O1076 O 0.54611 0.18423 0.8898 0.0
O1077 O 0.52789 0.16871 0.90229 0.0
Co1078 Co 0.06543 0.78863 0.16147 0.0
O1079 O 0.05187 0.77067 0.1543 0.0
O1080 O 0.0423 0.79463 0.16353 0.0
C1081 C 0.08276 0.78853 0.13964 0.0
O1082 O 0.07607 0.81011 0.16939 0.0
Co1083 Co 0.10272 0.7826 0.16886 0.0
O1084 O 0.1036 0.80697 0.16703 0.0
C1085 C 0.07759 0.7737 0.19391 0.0
C1086 C 0.03929 0.78008 0.15739 0.0
C1087 C 0.09088 0.81597 0.16929 0.0
O1088 O 0.06591 0.77929 0.18465 0.0
O1089 O 0.09279 0.77329 0.18953 0.0
O1090 O 0.06854 0.79584 0.13868 0.0
O1091 O 0.08518 0.78003 0.15294 0.0
Co1092 Co 0.46146 0.31321 0.41029 0.0
O1093 O 0.47832 0.29888 0.40209 0.0
O1094 O 0.4543 0.29034 0.41212 0.0
C1095 C 0.46149 0.3311 0.38891 0.0
O1096 O 0.44112 0.32502 0.41934 0.0
Co1097 Co 0.47118 0.34959 0.4184 0.0
O1098 O 0.4468 0.35229 0.41898 0.0
C1099 C 0.48087 0.32287 0.44109 0.0
C1100 C 0.46846 0.28673 0.40539 0.0
C1101 C 0.43673 0.34028 0.42068 0.0
O1102 O 0.47172 0.31262 0.43308 0.0
O1103 O 0.48359 0.3377 0.43629 0.0
O1104 O 0.45343 0.31729 0.38791 0.0
O1105 O 0.47082 0.33256 0.40177 0.0
Co1106 Co 0.93414 0.71284 0.66449 0.0
O1107 O 0.94853 0.72971 0.65642 0.0
O1108 O 0.95697 0.70578 0.66678 0.0
C1109 C 0.91665 0.71254 0.64281 0.0
O1110 O 0.92233 0.69244 0.67343 0.0
Co1111 Co 0.89754 0.72214 0.67192 0.0
O1112 O 0.89502 0.69776 0.67228 0.0
C1113 C 0.92365 0.73179 0.69543 0.0
C1114 C 0.96064 0.71988 0.65998 0.0
C1115 C 0.9071 0.68784 0.67432 0.0
O1116 O 0.93429 0.72329 0.6872 0.0
O1117 O 0.90874 0.73397 0.6906 0.0
O1118 O 0.93055 0.70461 0.64213 0.0
O1119 O 0.91485 0.722 0.65555 0.0
Co1120 Co 0.58977 0.53999 0.31343 0.0
O1121 O 0.59776 0.52341 0.29867 0.0
O1122 O 0.58687 0.54728 0.29073 0.0
C1123 C 0.61183 0.54038 0.33045 0.0
O1124 O 0.5808 0.5601 0.32572 0.0
Co1125 Co 0.58325 0.52998 0.35002 0.0
O1126 O 0.58231 0.5543 0.35291 0.0
C1127 C 0.55951 0.52016 0.32423 0.0
C1128 C 0.59377 0.53331 0.28676 0.0
C1129 C 0.57997 0.5644 0.34104 0.0
O1130 O 0.5672 0.5292 0.31363 0.0
O1131 O 0.5648 0.51769 0.33894 0.0
O1132 O 0.61211 0.54848 0.31663 0.0
O1133 O 0.59925 0.53074 0.33239 0.0
Co1134 Co 0.71492 0.8411 0.56557 0.0
O1135 O 0.73132 0.84972 0.55096 0.0
O1136 O 0.70765 0.83851 0.54284 0.0
C1137 C 0.71411 0.86278 0.58307 0.0
O1138 O 0.69505 0.83142 0.57768 0.0
Co1139 Co 0.72506 0.83407 0.60205 0.0
O1140 O 0.70077 0.83242 0.60491 0.0
C1141 C 0.73496 0.81079 0.57585 0.0
C1142 C 0.72148 0.84576 0.53898 0.0
C1143 C 0.69077 0.83005 0.59296 0.0
O1144 O 0.72606 0.81874 0.56531 0.0
O1145 O 0.7373 0.81576 0.59069 0.0
O1146 O 0.70598 0.86318 0.56926 0.0
O1147 O 0.72402 0.85037 0.58472 0.0
Co1148 Co 0.41095 0.96631 0.81504 0.0
O1149 O 0.40242 0.98275 0.80043 0.0
O1150 O 0.41333 0.95896 0.79231 0.0
C1151 C 0.38939 0.96572 0.83266 0.0
O1152 O 0.42043 0.94633 0.82714 0.0
Co1153 Co 0.41835 0.97645 0.85142 0.0
O1154 O 0.41952 0.95214 0.85435 0.0
C1155 C 0.44143 0.98624 0.82501 0.0
C1156 C 0.40619 0.97284 0.78845 0.0
C1157 C 0.42166 0.94205 0.84244 0.0
O1158 O 0.43341 0.97726 0.8146 0.0
O1159 O 0.43657 0.98865 0.83987 0.0
O1160 O 0.38882 0.95759 0.81886 0.0
O1161 O 0.40188 0.97554 0.83423 0.0
Co1162 Co 0.28754 0.66145 0.06454 0.0
O1163 O 0.2708 0.65316 0.05014 0.0
O1164 O 0.29457 0.6639 0.04171 0.0
C1165 C 0.28816 0.63974 0.08198 0.0
O1166 O 0.30779 0.67069 0.07639 0.0
Co1167 Co 0.27804 0.66862 0.10115 0.0
O1168 O 0.30241 0.66948 0.10368 0.0
C1169 C 0.26802 0.692 0.07508 0.0
C1170 C 0.28057 0.65688 0.03804 0.0
C1171 C 0.31232 0.6717 0.09163 0.0
O1172 O 0.27678 0.68402 0.06445 0.0
O1173 O 0.26579 0.68702 0.08993 0.0
O1174 O 0.29612 0.63921 0.06809 0.0
O1175 O 0.27851 0.65233 0.08379 0.0
Co1176 Co 0.58839 0.46106 0.68606 0.0
O1177 O 0.59575 0.47848 0.70019 0.0
O1178 O 0.58536 0.45469 0.70898 0.0
C1179 C 0.61078 0.46061 0.66945 0.0
O1180 O 0.58007 0.4401 0.6747 0.0
Co1181 Co 0.58239 0.46838 0.64876 0.0
O1182 O 0.58299 0.44399 0.64732 0.0
C1183 C 0.55696 0.47768 0.67329 0.0
C1184 C 0.59191 0.46895 0.71246 0.0
C1185 C 0.58018 0.43469 0.65971 0.0
O1186 O 0.56558 0.47129 0.68505 0.0
O1187 O 0.56185 0.47839 0.65826 0.0
O1188 O 0.61098 0.45306 0.68358 0.0
O1189 O 0.59792 0.4697 0.66679 0.0
Co1190 Co 0.78952 0.83799 0.93628 0.0
O1191 O 0.7715 0.84544 0.94961 0.0
O1192 O 0.79557 0.83676 0.95944 0.0
C1193 C 0.78919 0.85923 0.91822 0.0
O1194 O 0.8111 0.82994 0.9259 0.0
Co1195 Co 0.78358 0.82916 0.89932 0.0
O1196 O 0.8079 0.83144 0.89832 0.0
C1197 C 0.77493 0.80497 0.9253 0.0
C1198 C 0.78095 0.84284 0.96227 0.0
C1199 C 0.81695 0.82972 0.91108 0.0
O1200 O 0.78035 0.81472 0.93664 0.0
O1201 O 0.77462 0.80866 0.90993 0.0
O1202 O 0.79649 0.86072 0.93241 0.0
O1203 O 0.78084 0.84576 0.91623 0.0
Co1204 Co 0.41172 0.03533 0.18649 0.0
O1205 O 0.4032 0.01901 0.20123 0.0
O1206 O 0.41413 0.04289 0.20914 0.0
C1207 C 0.39012 0.03572 0.16892 0.0
O1208 O 0.42119 0.05522 0.17425 0.0
Co1209 Co 0.41904 0.02504 0.15013 0.0
O1210 O 0.42013 0.04934 0.14705 0.0
C1211 C 0.44214 0.01534 0.17658 0.0
C1212 C 0.40698 0.02904 0.21311 0.0
C1213 C 0.42235 0.05945 0.15894 0.0
O1214 O 0.43417 0.02438 0.18697 0.0
O1215 O 0.43725 0.01287 0.16173 0.0
O1216 O 0.38958 0.044 0.18262 0.0
O1217 O 0.40264 0.02594 0.16739 0.0
Co1218 Co 0.21351 0.66115 0.43438 0.0
O1219 O 0.23042 0.65303 0.44868 0.0
O1220 O 0.20648 0.66332 0.45721 0.0
C1221 C 0.21325 0.63956 0.41676 0.0
O1222 O 0.19309 0.67018 0.42272 0.0
Co1223 Co 0.22262 0.66884 0.39779 0.0
O1224 O 0.19823 0.66936 0.39537 0.0
C1225 C 0.23236 0.69218 0.42403 0.0
C1226 C 0.2206 0.65652 0.46082 0.0
C1227 C 0.18841 0.67132 0.40754 0.0
O1228 O 0.22389 0.68389 0.43465 0.0
O1229 O 0.23453 0.68742 0.40909 0.0
O1230 O 0.20533 0.63879 0.43067 0.0
O1231 O 0.22263 0.65236 0.415 0.0
Co1232 Co 0.81552 0.58767 0.0378 0.0
O1233 O 0.80099 0.59605 0.0212 0.0
O1234 O 0.79275 0.58507 0.04494 0.0
C1235 C 0.8329 0.60942 0.03845 0.0
O1236 O 0.82753 0.5783 0.0579 0.0
Co1237 Co 0.8521 0.58067 0.02808 0.0
O1238 O 0.8548 0.57965 0.05242 0.0
C1239 C 0.82602 0.55731 0.01798 0.0
C1240 C 0.78896 0.59215 0.031 0.0
C1241 C 0.8428 0.5773 0.06236 0.0
O1242 O 0.81542 0.56522 0.02682 0.0
O1243 O 0.84088 0.56231 0.01578 0.0
O1244 O 0.81906 0.60985 0.04652 0.0
O1245 O 0.83469 0.5969 0.02871 0.0
Co1246 Co 0.31354 0.41081 0.46066 0.0
O1247 O 0.29877 0.40274 0.47719 0.0
O1248 O 0.29084 0.41357 0.45329 0.0
C1249 C 0.33076 0.38889 0.46035 0.0
O1250 O 0.32589 0.41988 0.44066 0.0
Co1251 Co 0.35003 0.41754 0.47103 0.0
O1252 O 0.35305 0.41871 0.44672 0.0
C1253 C 0.32399 0.44103 0.48067 0.0
C1254 C 0.28686 0.40668 0.46726 0.0
C1255 C 0.34124 0.42095 0.43652 0.0
O1256 O 0.31356 0.43339 0.47139 0.0
O1257 O 0.33865 0.43575 0.48343 0.0
O1258 O 0.31699 0.38849 0.45217 0.0
O1259 O 0.3325 0.40146 0.47003 0.0
Co1260 Co 0.83829 0.56304 0.71255 0.0
O1261 O 0.84682 0.54826 0.72884 0.0
O1262 O 0.83573 0.54038 0.70503 0.0
C1263 C 0.86001 0.5805 0.7121 0.0
O1264 O 0.82874 0.57533 0.69274 0.0
Co1265 Co 0.83131 0.59947 0.7229 0.0
O1266 O 0.83005 0.60252 0.69861 0.0
C1267 C 0.8081 0.57317 0.73277 0.0
C1268 C 0.84292 0.53639 0.71885 0.0
C1269 C 0.82765 0.59064 0.68852 0.0
O1270 O 0.81589 0.56271 0.72365 0.0
O1271 O 0.81316 0.58796 0.73524 0.0
O1272 O 0.86043 0.56682 0.70376 0.0
O1273 O 0.84752 0.58206 0.72192 0.0
Co1274 Co 0.68445 0.08953 0.96327 0.0
O1275 O 0.6988 0.09763 0.98016 0.0
O1276 O 0.70729 0.08718 0.95628 0.0
C1277 C 0.66696 0.1112 0.9629 0.0
O1278 O 0.67272 0.08054 0.94286 0.0
Co1279 Co 0.64779 0.08216 0.97242 0.0
O1280 O 0.64538 0.08168 0.94803 0.0
C1281 C 0.67389 0.0588 0.98242 0.0
C1282 C 0.71094 0.094 0.97038 0.0
C1283 C 0.65752 0.07961 0.93819 0.0
O1284 O 0.68454 0.06685 0.97378 0.0
O1285 O 0.65901 0.06372 0.9846 0.0
O1286 O 0.68087 0.11188 0.95498 0.0
O1287 O 0.66515 0.09847 0.97236 0.0
Co1288 Co 0.66066 0.43558 0.21292 0.0
O1289 O 0.65242 0.44982 0.22983 0.0
O1290 O 0.66311 0.45848 0.20613 0.0
C1291 C 0.63893 0.41814 0.21225 0.0
O1292 O 0.66988 0.42391 0.19256 0.0
Co1293 Co 0.66786 0.39888 0.22208 0.0
O1294 O 0.66878 0.39656 0.1977 0.0
C1295 C 0.69127 0.42486 0.23225 0.0
C1296 C 0.65616 0.46203 0.22019 0.0
C1297 C 0.67098 0.40871 0.1879 0.0
O1298 O 0.68326 0.43557 0.22363 0.0
O1299 O 0.6863 0.40999 0.23436 0.0
O1300 O 0.63837 0.4321 0.2044 0.0
O1301 O 0.65158 0.41625 0.2218 0.0
Co1302 Co 0.1861 0.40992 0.04053 0.0
O1303 O 0.2 0.40183 0.02327 0.0
O1304 O 0.20902 0.4107 0.04759 0.0
C1305 C 0.1675 0.38919 0.0399 0.0
O1306 O 0.1748 0.41861 0.06135 0.0
Co1307 Co 0.14983 0.41959 0.03187 0.0
O1308 O 0.14743 0.41854 0.05623 0.0
C1309 C 0.17707 0.4422 0.02331 0.0
C1310 C 0.21229 0.40435 0.03318 0.0
C1311 C 0.15964 0.41975 0.06611 0.0
O1312 O 0.18746 0.433 0.03106 0.0
O1313 O 0.16183 0.43851 0.02129 0.0
O1314 O 0.18134 0.38745 0.0478 0.0
O1315 O 0.16635 0.40243 0.03105 0.0
Co1316 Co 0.83987 0.93436 0.78741 0.0
O1317 O 0.84848 0.94776 0.77002 0.0
O1318 O 0.83783 0.95758 0.79326 0.0
C1319 C 0.86122 0.91654 0.7888 0.0
O1320 O 0.83036 0.92358 0.80814 0.0
Co1321 Co 0.83197 0.89752 0.77944 0.0
O1322 O 0.83158 0.89607 0.80391 0.0
C1323 C 0.80904 0.92359 0.76844 0.0
C1324 C 0.84491 0.96044 0.77909 0.0
C1325 C 0.82941 0.90854 0.8133 0.0
O1326 O 0.81733 0.93442 0.77663 0.0
O1327 O 0.81366 0.90854 0.76687 0.0
O1328 O 0.86204 0.93074 0.79618 0.0
O1329 O 0.8486 0.91457 0.77924 0.0
Co1330 Co 0.16097 0.56349 0.28708 0.0
O1331 O 0.15243 0.54929 0.27029 0.0
O1332 O 0.16367 0.54055 0.29369 0.0
C1333 C 0.13914 0.58076 0.2883 0.0
O1334 O 0.17056 0.57515 0.30729 0.0
Co1335 Co 0.16773 0.60026 0.27791 0.0
O1336 O 0.16889 0.6025 0.3023 0.0
C1337 C 0.19119 0.57449 0.26727 0.0
C1338 C 0.15641 0.53704 0.27977 0.0
C1339 C 0.17147 0.59035 0.31199 0.0
O1340 O 0.18333 0.56368 0.27589 0.0
O1341 O 0.18613 0.58937 0.26537 0.0
O1342 O 0.13887 0.56678 0.29612 0.0
O1343 O 0.15155 0.58279 0.27846 0.0
C1344 C 0.01668 0.30803 0.03104 0.0
C1345 C 0.00928 0.32062 0.0404 0.0
C1346 C 0.01232 0.30554 0.0144 0.0
C1347 C 0.00019 0.31577 0.00705 0.0
C1348 C 0.99191 0.32771 0.01678 0.0
C1349 C 0.99661 0.33005 0.03328 0.0
C1350 C 0.02144 0.29267 0.00446 0.0
C1351 C 0.9787 0.33871 0.00951 0.0
C1352 C 0.00153 0.3284 0.96208 0.0
C1353 C 0.98823 0.3195 0.95545 0.0
C1354 C 0.00624 0.32643 0.97862 0.0
C1355 C 0.99733 0.31542 0.98888 0.0
C1356 C 0.98457 0.30561 0.98201 0.0
C1357 C 0.98022 0.3077 0.96532 0.0
C1358 C 0.02012 0.33692 0.98536 0.0
C1359 C 0.97479 0.29373 0.99253 0.0
H1360 H 0.02649 0.30068 0.03643 0.0
H1361 H 0.99067 0.33965 0.04048 0.0
H1362 H 0.01271 0.28531 0.9969 0.0
H1363 H 0.03008 0.2989 0.99583 0.0
H1364 H 0.02867 0.28417 0.01244 0.0
H1365 H 0.97233 0.3462 0.01909 0.0
H1366 H 0.98435 0.34724 0.00039 0.0
H1367 H 0.96936 0.3312 0.00288 0.0
H1368 H 0.00792 0.33737 0.95447 0.0
H1369 H 0.96991 0.30079 0.9603 0.0
H1370 H 0.02899 0.32919 0.99239 0.0
H1371 H 0.01503 0.34624 0.99402 0.0
H1372 H 0.02694 0.3435 0.97543 0.0
H1373 H 0.98312 0.28626 0.00043 0.0
H1374 H 0.96711 0.28527 0.98493 0.0
H1375 H 0.9665 0.30081 0.00084 0.0
C1376 C 0.92188 0.22366 0.22347 0.0
C1377 C 0.9307 0.22976 0.20992 0.0
C1378 C 0.92409 0.23033 0.23927 0.0
C1379 C 0.93501 0.24382 0.24146 0.0
C1380 C 0.94459 0.2495 0.22793 0.0
C1381 C 0.94246 0.24223 0.21228 0.0
C1382 C 0.91394 0.22359 0.2534 0.0
C1383 C 0.95614 0.26401 0.22969 0.0
C1384 C 0.91914 0.27186 0.27519 0.0
C1385 C 0.92902 0.26731 0.28862 0.0
C1386 C 0.92184 0.26519 0.25947 0.0
C1387 C 0.93443 0.25325 0.25724 0.0
C1388 C 0.94492 0.2491 0.27064 0.0
C1389 C 0.94221 0.25638 0.2862 0.0
C1390 C 0.91063 0.27031 0.24546 0.0
C1391 C 0.95827 0.23623 0.26882 0.0
H1392 H 0.9129 0.21389 0.22159 0.0
H1393 H 0.94922 0.24695 0.20173 0.0
H1394 H 0.9218 0.22166 0.26446 0.0
H1395 H 0.90421 0.23264 0.25677 0.0
H1396 H 0.90787 0.21172 0.25018 0.0
H1397 H 0.96452 0.26524 0.21889 0.0
H1398 H 0.94879 0.27553 0.2308 0.0
H1399 H 0.9637 0.26287 0.24106 0.0
H1400 H 0.90906 0.2805 0.27707 0.0
H1401 H 0.94982 0.25287 0.29664 0.0
H1402 H 0.90231 0.25992 0.2422 0.0
H1403 H 0.91799 0.27335 0.23431 0.0
H1404 H 0.9029 0.28117 0.24872 0.0
H1405 H 0.95249 0.22384 0.26777 0.0
H1406 H 0.96681 0.23614 0.27956 0.0
H1407 H 0.96552 0.23833 0.2574 0.0
C1408 C 0.00201 0.17274 0.53377 0.0
C1409 C 0.98897 0.18191 0.54056 0.0
C1410 C 0.00701 0.17509 0.51737 0.0
C1411 C 0.99866 0.1868 0.5074 0.0
C1412 C 0.98618 0.19683 0.51445 0.0
C1413 C 0.98153 0.19432 0.531 0.0
C1414 C 0.02058 0.16432 0.51043 0.0
C1415 C 0.97701 0.20944 0.50425 0.0
C1416 C 0.01923 0.19454 0.46592 0.0
C1417 C 0.01162 0.18244 0.45611 0.0
C1418 C 0.01451 0.19688 0.48247 0.0
C1419 C 0.00179 0.18698 0.48927 0.0
C1420 C 0.99324 0.17566 0.47904 0.0
C1421 C 0.99831 0.17347 0.46263 0.0
C1422 C 0.02388 0.20911 0.49295 0.0
C1423 C 0.97941 0.16504 0.4857 0.0
H1424 H 0.00799 0.16329 0.54114 0.0
H1425 H 0.97144 0.20146 0.53615 0.0
H1426 H 0.01527 0.15558 0.50131 0.0
H1427 H 0.02987 0.17197 0.50388 0.0
H1428 H 0.02695 0.15707 0.52019 0.0
H1429 H 0.9696 0.21795 0.51205 0.0
H1430 H 0.98573 0.21683 0.49668 0.0
H1431 H 0.96853 0.20301 0.49562 0.0
H1432 H 0.02953 0.20153 0.46097 0.0
H1433 H 0.9922 0.16427 0.45507 0.0
H1434 H 0.03225 0.20233 0.50144 0.0
H1435 H 0.0153 0.21648 0.50068 0.0
H1436 H 0.03145 0.21765 0.48533 0.0
H1437 H 0.98451 0.15594 0.49459 0.0
H1438 H 0.97288 0.1582 0.47576 0.0
H1439 H 0.9703 0.17273 0.49245 0.0
C1440 C 0.07986 0.24903 0.78561 0.0
C1441 C 0.07022 0.23619 0.79209 0.0
C1442 C 0.07806 0.25417 0.76917 0.0
C1443 C 0.06646 0.24613 0.75884 0.0
C1444 C 0.05605 0.23376 0.76552 0.0
C1445 C 0.05799 0.22899 0.78212 0.0
C1446 C 0.08922 0.26763 0.76264 0.0
C1447 C 0.04359 0.22486 0.7549 0.0
C1448 C 0.05913 0.26723 0.71751 0.0
C1449 C 0.07118 0.25961 0.70765 0.0
C1450 C 0.05679 0.26244 0.73405 0.0
C1451 C 0.06659 0.2496 0.74076 0.0
C1452 C 0.07794 0.24112 0.7305 0.0
C1453 C 0.08018 0.2463 0.71413 0.0
C1454 C 0.04462 0.27183 0.74459 0.0
C1455 C 0.08843 0.22715 0.73707 0.0
H1456 H 0.0892 0.2548 0.79329 0.0
H1457 H 0.0505 0.21902 0.78701 0.0
H1458 H 0.09806 0.26229 0.75363 0.0
H1459 H 0.08187 0.27714 0.75605 0.0
H1460 H 0.09637 0.27375 0.77263 0.0
H1461 H 0.03497 0.21722 0.76237 0.0
H1462 H 0.03629 0.23378 0.74749 0.0
H1463 H 0.05015 0.21665 0.7461 0.0
H1464 H 0.05215 0.27756 0.71261 0.0
H1465 H 0.08937 0.24021 0.70652 0.0
H1466 H 0.05145 0.27976 0.75344 0.0
H1467 H 0.03691 0.2632 0.75193 0.0
H1468 H 0.03638 0.27982 0.73707 0.0
H1469 H 0.09747 0.23207 0.74612 0.0
H1470 H 0.09533 0.22072 0.7271 0.0
H1471 H 0.08062 0.21799 0.74362 0.0
C1472 C 0.98124 0.69155 0.03341 0.0
C1473 C 0.98926 0.67981 0.04333 0.0
C1474 C 0.98566 0.69364 0.01673 0.0
C1475 C 0.99852 0.6839 0.00995 0.0
C1476 C 0.00744 0.67295 0.02027 0.0
C1477 C 0.00263 0.67097 0.03678 0.0
C1478 C 0.97585 0.70543 0.00615 0.0
C1479 C 0.02143 0.66254 0.01362 0.0
C1480 C 0.99829 0.66932 0.96553 0.0
C1481 C 0.01095 0.67884 0.95854 0.0
C1482 C 0.99342 0.6716 0.98199 0.0
C1483 C 0.00153 0.6836 0.9918 0.0
C1484 C 0.01365 0.69393 0.98456 0.0
C1485 C 0.01817 0.69149 0.96796 0.0
C1486 C 0.98023 0.6605 0.98914 0.0
C1487 C 0.02258 0.70685 0.9946 0.0
H1488 H 0.97086 0.69841 0.03837 0.0
H1489 H 0.00903 0.66203 0.04444 0.0
H1490 H 0.98417 0.71297 0.99829 0.0
H1491 H 0.96768 0.69829 0.99778 0.0
H1492 H 0.96806 0.71384 0.01369 0.0
H1493 H 0.02821 0.65599 0.02359 0.0
H1494 H 0.01645 0.6532 0.00491 0.0
H1495 H 0.0303 0.67033 0.00666 0.0
H1496 H 0.99249 0.65967 0.95828 0.0
H1497 H 0.02797 0.69891 0.96267 0.0
H1498 H 0.97079 0.66793 0.99572 0.0
H1499 H 0.98587 0.65198 0.99828 0.0
H1500 H 0.97398 0.653 0.9795 0.0
H1501 H 0.01371 0.71418 0.00206 0.0
H1502 H 0.02984 0.7154 0.98669 0.0
H1503 H 0.03116 0.70069 0.00333 0.0
C1504 C 0.58128 0.24959 0.21476 0.0
C1505 C 0.57128 0.26162 0.20731 0.0
C1506 C 0.57859 0.24459 0.23111 0.0
C1507 C 0.56566 0.25188 0.24036 0.0
C1508 C 0.55494 0.26337 0.23267 0.0
C1509 C 0.55784 0.26806 0.21619 0.0
C1510 C 0.59017 0.23211 0.23876 0.0
C1511 C 0.54103 0.27142 0.2421 0.0
C1512 C 0.55718 0.23033 0.28118 0.0
C1513 C 0.56803 0.23879 0.29172 0.0
C1514 C 0.55545 0.23503 0.26454 0.0
C1515 C 0.56462 0.24863 0.25844 0.0
C1516 C 0.57453 0.25798 0.26939 0.0
C1517 C 0.57621 0.25288 0.28585 0.0
C1518 C 0.54477 0.22473 0.25327 0.0
C1519 C 0.58426 0.27276 0.26349 0.0
H1520 H 0.59157 0.24438 0.20795 0.0
H1521 H 0.55004 0.27737 0.21054 0.0
H1522 H 0.59777 0.2382 0.24841 0.0
H1523 H 0.58306 0.2221 0.24483 0.0
H1524 H 0.59861 0.22649 0.2295 0.0
H1525 H 0.53244 0.2782 0.23382 0.0
H1526 H 0.53391 0.26207 0.24915 0.0
H1527 H 0.54622 0.28028 0.25117 0.0
H1528 H 0.55084 0.21941 0.28563 0.0
H1529 H 0.58445 0.2596 0.294 0.0
H1530 H 0.55278 0.21713 0.24514 0.0
H1531 H 0.53711 0.23271 0.24518 0.0
H1532 H 0.53651 0.21631 0.26029 0.0
H1533 H 0.5944 0.26858 0.25526 0.0
H1534 H 0.58977 0.27983 0.27389 0.0
H1535 H 0.57626 0.28118 0.25621 0.0
C1536 C 0.01755 0.80671 0.53271 0.0
C1537 C 0.00957 0.81855 0.54255 0.0
C1538 C 0.01324 0.80463 0.51601 0.0
C1539 C 0.00055 0.8145 0.50909 0.0
C1540 C 0.99167 0.82557 0.51932 0.0
C1541 C 0.99635 0.82752 0.53587 0.0
C1542 C 0.02299 0.7927 0.50552 0.0
C1543 C 0.97787 0.83613 0.51254 0.0
C1544 C 0.00131 0.8292 0.46474 0.0
C1545 C 0.98853 0.8199 0.45763 0.0
C1546 C 0.00606 0.82677 0.48121 0.0
C1547 C 0.99772 0.81485 0.49092 0.0
C1548 C 0.9855 0.80472 0.48357 0.0
C1549 C 0.9811 0.80731 0.46696 0.0
C1550 C 0.01935 0.83766 0.48847 0.0
C1551 C 0.97634 0.79188 0.4935 0.0
H1552 H 0.02781 0.79975 0.53778 0.0
H1553 H 0.98998 0.83653 0.54346 0.0
H1554 H 0.01466 0.78529 0.49757 0.0
H1555 H 0.03137 0.79972 0.49726 0.0
H1556 H 0.03058 0.78418 0.51315 0.0
H1557 H 0.97107 0.84278 0.52244 0.0
H1558 H 0.98303 0.8454 0.50386 0.0
H1559 H 0.96896 0.82845 0.50552 0.0
H1560 H 0.00728 0.8388 0.45756 0.0
H1561 H 0.97122 0.80006 0.46158 0.0
H1562 H 0.02863 0.83008 0.49512 0.0
H1563 H 0.01377 0.84625 0.49758 0.0
H1564 H 0.02579 0.84508 0.4789 0.0
H1565 H 0.98505 0.78445 0.50103 0.0
H1566 H 0.96907 0.78342 0.4855 0.0
H1567 H 0.96773 0.79812 0.50215 0.0
C1568 C 0.44172 0.23028 0.71847 0.0
C1569 C 0.43075 0.23883 0.70813 0.0
C1570 C 0.44386 0.23502 0.73505 0.0
C1571 C 0.435 0.24876 0.74129 0.0
C1572 C 0.42494 0.25817 0.73051 0.0
C1573 C 0.42283 0.25301 0.71412 0.0
C1574 C 0.45465 0.22463 0.74614 0.0
C1575 C 0.41552 0.2731 0.73656 0.0
C1576 C 0.41944 0.25007 0.78537 0.0
C1577 C 0.42972 0.26205 0.79253 0.0
C1578 C 0.42165 0.24501 0.76896 0.0
C1579 C 0.43442 0.25213 0.75937 0.0
C1580 C 0.44544 0.26353 0.76676 0.0
C1581 C 0.443 0.26833 0.78329 0.0
C1582 C 0.40973 0.23265 0.76165 0.0
C1583 C 0.45923 0.27136 0.75696 0.0
H1584 H 0.44785 0.21927 0.71393 0.0
H1585 H 0.41449 0.25978 0.70611 0.0
H1586 H 0.46262 0.23256 0.75397 0.0
H1587 H 0.44673 0.21723 0.75452 0.0
H1588 H 0.46261 0.21604 0.73898 0.0
H1589 H 0.40985 0.28017 0.72625 0.0
H1590 H 0.40554 0.26908 0.74505 0.0
H1591 H 0.42379 0.28146 0.74359 0.0
H1592 H 0.40928 0.24497 0.79245 0.0
H1593 H 0.45103 0.27757 0.7887 0.0
H1594 H 0.41657 0.22252 0.75546 0.0
H1595 H 0.40199 0.23879 0.75215 0.0
H1596 H 0.40143 0.22718 0.77112 0.0
H1597 H 0.46609 0.26188 0.74984 0.0
H1598 H 0.46806 0.27812 0.765 0.0
H1599 H 0.45393 0.28021 0.74794 0.0
C1600 C 0.9639 0.00197 0.32696 0.0
C1601 C 0.95775 0.98843 0.31809 0.0
C1602 C 0.98036 0.00706 0.32525 0.0
C1603 C 0.99104 0.99827 0.31454 0.0
C1604 C 0.98466 0.98525 0.30475 0.0
C1605 C 0.96803 0.98052 0.30658 0.0
C1606 C 0.98657 0.02121 0.33571 0.0
C1607 C 0.99563 0.97558 0.2932 0.0
C1608 C 0.03294 0.01845 0.3078 0.0
C1609 C 0.04221 0.01135 0.32064 0.0
C1610 C 0.01645 0.01374 0.30503 0.0
C1611 C 0.00914 0.00155 0.31523 0.0
C1612 C 0.01879 0.99359 0.32745 0.0
C1613 C 0.03515 0.99863 0.33005 0.0
C1614 C 0.00658 0.0225 0.29187 0.0
C1615 C 0.01157 0.98035 0.33844 0.0
H1616 H 0.95597 0.00829 0.33571 0.0
H1617 H 0.96338 0.97003 0.29969 0.0
H1618 H 0.99515 0.01641 0.34527 0.0
H1619 H 0.99355 0.03014 0.32803 0.0
H1620 H 0.97636 0.02787 0.34201 0.0
H1621 H 0.98838 0.96762 0.28469 0.0
H1622 H 0.00348 0.98401 0.28577 0.0
H1623 H 0.004 0.96758 0.30053 0.0
H1624 H 0.03829 0.0283 0.30047 0.0
H1625 H 0.04228 0.99291 0.33984 0.0
H1626 H 0.9976 0.03098 0.29782 0.0
H1627 H 0.9994 0.01353 0.28441 0.0
H1628 H 0.01457 0.02985 0.28348 0.0
H1629 H 0.00215 0.98589 0.34671 0.0
H1630 H 0.02112 0.97427 0.34621 0.0
H1631 H 0.00531 0.97077 0.3309 0.0
C1632 C 0.25221 0.28689 0.57791 0.0
C1633 C 0.23907 0.29359 0.56882 0.0
C1634 C 0.25708 0.27041 0.57577 0.0
C1635 C 0.2485 0.26029 0.56437 0.0
C1636 C 0.23594 0.26725 0.55438 0.0
C1637 C 0.23141 0.28387 0.55667 0.0
C1638 C 0.27074 0.26358 0.58648 0.0
C1639 C 0.22652 0.25689 0.54208 0.0
C1640 C 0.26842 0.2184 0.557 0.0
C1641 C 0.2608 0.20886 0.56932 0.0
C1642 C 0.26393 0.235 0.55453 0.0
C1643 C 0.25146 0.24213 0.56451 0.0
C1644 C 0.24294 0.2322 0.57611 0.0
C1645 C 0.24776 0.21574 0.57843 0.0
C1646 C 0.27329 0.24517 0.54202 0.0
C1647 C 0.22937 0.23922 0.58683 0.0
H1648 H 0.25834 0.29437 0.58716 0.0
H1649 H 0.22124 0.28895 0.5496 0.0
H1650 H 0.26548 0.25472 0.59552 0.0
H1651 H 0.27985 0.25676 0.57885 0.0
H1652 H 0.27733 0.27343 0.59341 0.0
H1653 H 0.21906 0.2646 0.53352 0.0
H1654 H 0.23508 0.24912 0.53472 0.0
H1655 H 0.21806 0.24845 0.54879 0.0
H1656 H 0.27851 0.21319 0.5499 0.0
H1657 H 0.24165 0.20839 0.58781 0.0
H1658 H 0.28177 0.25373 0.54855 0.0
H1659 H 0.26469 0.25281 0.53457 0.0
H1660 H 0.28072 0.23733 0.53355 0.0
H1661 H 0.23471 0.24825 0.59565 0.0
H1662 H 0.22285 0.2295 0.59398 0.0
H1663 H 0.22019 0.2459 0.57915 0.0
C1664 C 0.96938 0.48203 0.80705 0.0
C1665 C 0.95988 0.48951 0.81947 0.0
C1666 C 0.98598 0.48656 0.80455 0.0
C1667 C 0.99312 0.49898 0.8146 0.0
C1668 C 0.98323 0.50732 0.82636 0.0
C1669 C 0.96678 0.50243 0.82871 0.0
C1670 C 0.9961 0.47737 0.79189 0.0
C1671 C 0.99026 0.52082 0.83716 0.0
C1672 C 0.03806 0.49858 0.82745 0.0
C1673 C 0.04452 0.51184 0.81837 0.0
C1674 C 0.0216 0.49356 0.82548 0.0
C1675 C 0.01125 0.50211 0.81427 0.0
C1676 C 0.01796 0.51482 0.8043 0.0
C1677 C 0.03457 0.51949 0.8064 0.0
C1678 C 0.01504 0.47974 0.83617 0.0
C1679 C 0.00735 0.52422 0.7922 0.0
H1680 H 0.96415 0.47201 0.79986 0.0
H1681 H 0.95946 0.50844 0.83818 0.0
H1682 H 0.00356 0.48609 0.78439 0.0
H1683 H 0.00484 0.46897 0.79829 0.0
H1684 H 0.98826 0.46989 0.78348 0.0
H1685 H 0.98057 0.52717 0.84451 0.0
H1686 H 0.99944 0.51546 0.84581 0.0
H1687 H 0.99677 0.53014 0.82951 0.0
H1688 H 0.04573 0.49245 0.83656 0.0
H1689 H 0.03945 0.52976 0.79933 0.0
H1690 H 0.00819 0.47064 0.82856 0.0
H1691 H 0.00626 0.48485 0.84537 0.0
H1692 H 0.02505 0.47319 0.8429 0.0
H1693 H 0.99961 0.51564 0.78483 0.0
H1694 H 0.01487 0.53188 0.78364 0.0
H1695 H 0.99887 0.5325 0.79909 0.0
C1696 C 0.76998 0.21759 0.0585 0.0
C1697 C 0.76219 0.20766 0.07039 0.0
C1698 C 0.76549 0.23426 0.05646 0.0
C1699 C 0.7528 0.24104 0.06641 0.0
C1700 C 0.74414 0.23073 0.07758 0.0
C1701 C 0.74901 0.21423 0.07951 0.0
C1702 C 0.77505 0.24483 0.04445 0.0
C1703 C 0.73032 0.23737 0.08822 0.0
C1704 C 0.75309 0.28558 0.08066 0.0
C1705 C 0.74027 0.29247 0.07126 0.0
C1706 C 0.75796 0.26911 0.07844 0.0
C1707 C 0.7497 0.25918 0.06665 0.0
C1708 C 0.73739 0.2663 0.05645 0.0
C1709 C 0.73288 0.28292 0.05882 0.0
C1710 C 0.77135 0.2621 0.08938 0.0
C1711 C 0.72827 0.25613 0.04378 0.0
H1712 H 0.78021 0.21262 0.05142 0.0
H1713 H 0.74279 0.20658 0.08857 0.0
H1714 H 0.76655 0.25253 0.03695 0.0
H1715 H 0.78322 0.25336 0.05142 0.0
H1716 H 0.78283 0.2373 0.03602 0.0
H1717 H 0.72371 0.22741 0.09495 0.0
H1718 H 0.73543 0.24616 0.09741 0.0
H1719 H 0.72127 0.24424 0.08056 0.0
H1720 H 0.759 0.29293 0.09016 0.0
H1721 H 0.72294 0.28814 0.05152 0.0
H1722 H 0.7807 0.25549 0.08185 0.0
H1723 H 0.76588 0.25302 0.09807 0.0
H1724 H 0.77769 0.27182 0.0967 0.0
H1725 H 0.73703 0.24866 0.03634 0.0
H1726 H 0.72081 0.26394 0.03531 0.0
H1727 H 0.71985 0.2474 0.05017 0.0
C1728 C 0.02886 0.00129 0.6701 0.0
C1729 C 0.03603 0.98871 0.67962 0.0
C1730 C 0.01253 0.00638 0.67281 0.0
C1731 C 0.00301 0.99863 0.68526 0.0
C1732 C 0.01042 0.98654 0.69552 0.0
C1733 C 0.02688 0.98177 0.69262 0.0
C1734 C 0.00522 0.01951 0.66173 0.0
C1735 C 0.00069 0.97799 0.70892 0.0
C1736 C 0.96243 0.02054 0.69399 0.0
C1737 C 0.95194 0.01279 0.68257 0.0
C1738 C 0.97893 0.0154 0.69587 0.0
C1739 C 0.98496 0.0021 0.68623 0.0
C1740 C 0.97401 0.99338 0.67574 0.0
C1741 C 0.95768 0.99889 0.67397 0.0
C1742 C 0.99018 0.025 0.70721 0.0
C1743 C 0.97982 0.97894 0.66546 0.0
H1744 H 0.03589 0.00688 0.66017 0.0
H1745 H 0.03231 0.97203 0.70005 0.0
H1746 H 0.99555 0.01394 0.65377 0.0
H1747 H 0.99923 0.02928 0.66924 0.0
H1748 H 0.01465 0.02535 0.65366 0.0
H1749 H 0.00876 0.9707 0.71729 0.0
H1750 H 0.99366 0.98709 0.71637 0.0
H1751 H 0.99158 0.96949 0.7032 0.0
H1752 H 0.9581 0.03131 0.70068 0.0
H1753 H 0.94958 0.99269 0.66529 0.0
H1754 H 0.99849 0.0329 0.69971 0.0
H1755 H 0.99807 0.01653 0.71455 0.0
H1756 H 0.98313 0.03305 0.7158 0.0
H1757 H 0.98824 0.98344 0.65562 0.0
H1758 H 0.96939 0.97228 0.65953 0.0
H1759 H 0.98687 0.97008 0.67318 0.0
C1760 C 0.22399 0.22124 0.91957 0.0
C1761 C 0.23107 0.20764 0.92755 0.0
C1762 C 0.2304 0.23716 0.92175 0.0
C1763 C 0.24459 0.23944 0.93171 0.0
C1764 C 0.25132 0.22581 0.94044 0.0
C1765 C 0.24432 0.21003 0.9384 0.0
C1766 C 0.22256 0.25136 0.91254 0.0
C1767 C 0.2666 0.22767 0.95095 0.0
C1768 C 0.27078 0.27436 0.91515 0.0
C1769 C 0.26671 0.28735 0.92583 0.0
C1770 C 0.26452 0.25844 0.91767 0.0
C1771 C 0.25352 0.2555 0.93095 0.0
C1772 C 0.24985 0.26844 0.94218 0.0
C1773 C 0.25669 0.28423 0.93959 0.0
C1774 C 0.26912 0.24493 0.90564 0.0
C1775 C 0.23797 0.26588 0.9563 0.0
H1776 H 0.21364 0.21933 0.91129 0.0
H1777 H 0.24979 0.19943 0.94449 0.0
H1778 H 0.2209 0.26213 0.92085 0.0
H1779 H 0.23078 0.25527 0.90229 0.0
H1780 H 0.21036 0.24798 0.90724 0.0
H1781 H 0.26878 0.21664 0.95882 0.0
H1782 H 0.27749 0.22941 0.94282 0.0
H1783 H 0.26567 0.23873 0.95898 0.0
H1784 H 0.27875 0.27672 0.90465 0.0
H1785 H 0.25355 0.2943 0.94784 0.0
H1786 H 0.2582 0.24164 0.89803 0.0
H1787 H 0.27301 0.23365 0.91237 0.0
H1788 H 0.27927 0.24873 0.89721 0.0
H1789 H 0.22526 0.26454 0.95134 0.0
H1790 H 0.23811 0.27639 0.96512 0.0
H1791 H 0.24093 0.25436 0.96309 0.0
C1792 C 0.03288 0.479 0.19519 0.0
C1793 C 0.04321 0.48698 0.18377 0.0
C1794 C 0.01629 0.48384 0.1971 0.0
C1795 C 0.01001 0.49706 0.18751 0.0
C1796 C 0.02076 0.50594 0.17695 0.0
C1797 C 0.03718 0.50074 0.17515 0.0
C1798 C 0.00525 0.47408 0.20851 0.0
C1799 C 0.01467 0.52029 0.16671 0.0
C1800 C 0.96601 0.49765 0.17172 0.0
C1801 C 0.9589 0.51028 0.18121 0.0
C1802 C 0.98234 0.49256 0.17436 0.0
C1803 C 0.99192 0.50037 0.18675 0.0
C1804 C 0.98454 0.51243 0.19704 0.0
C1805 C 0.96807 0.51722 0.19419 0.0
C1806 C 0.98963 0.47945 0.16325 0.0
C1807 C 0.99432 0.52101 0.2104 0.0
H1808 H 0.03743 0.46835 0.2019 0.0
H1809 H 0.04516 0.5071 0.16648 0.0
H1810 H 0.99734 0.48243 0.21595 0.0
H1811 H 0.99694 0.46613 0.20105 0.0
H1812 H 0.01245 0.46605 0.21699 0.0
H1813 H 0.02494 0.52702 0.16059 0.0
H1814 H 0.00612 0.5157 0.15703 0.0
H1815 H 0.00768 0.52912 0.17451 0.0
H1816 H 0.95895 0.49204 0.16181 0.0
H1817 H 0.96269 0.52698 0.20161 0.0
H1818 H 0.99579 0.46976 0.17072 0.0
H1819 H 0.99915 0.48508 0.15515 0.0
H1820 H 0.98015 0.47351 0.15531 0.0
H1821 H 0.0015 0.51193 0.21773 0.0
H1822 H 0.98624 0.52817 0.21888 0.0
H1823 H 0.00328 0.52963 0.20464 0.0
C1824 C 0.75088 0.21493 0.41917 0.0
C1825 C 0.73763 0.20831 0.42814 0.0
C1826 C 0.75585 0.23136 0.42137 0.0
C1827 C 0.74723 0.24154 0.43269 0.0
C1828 C 0.73448 0.23468 0.44251 0.0
C1829 C 0.72987 0.21809 0.44018 0.0
C1830 C 0.76972 0.23809 0.41085 0.0
C1831 C 0.72499 0.24512 0.4547 0.0
C1832 C 0.76762 0.28307 0.44068 0.0
C1833 C 0.76035 0.29281 0.42832 0.0
C1834 C 0.76286 0.26651 0.44295 0.0
C1835 C 0.75044 0.25965 0.43272 0.0
C1836 C 0.74226 0.26979 0.42106 0.0
C1837 C 0.74737 0.28619 0.41894 0.0
C1838 C 0.77188 0.25612 0.45553 0.0
C1839 C 0.72876 0.26305 0.41008 0.0
H1840 H 0.75709 0.20738 0.41001 0.0
H1841 H 0.7196 0.21307 0.44716 0.0
H1842 H 0.76467 0.24708 0.40182 0.0
H1843 H 0.77883 0.24474 0.41864 0.0
H1844 H 0.77625 0.2282 0.40393 0.0
H1845 H 0.71723 0.23748 0.46305 0.0
H1846 H 0.73353 0.25269 0.46227 0.0
H1847 H 0.71681 0.25375 0.44788 0.0
H1848 H 0.77767 0.28808 0.44798 0.0
H1849 H 0.74152 0.2937 0.40952 0.0
H1850 H 0.78029 0.24745 0.44905 0.0
H1851 H 0.76305 0.24858 0.46281 0.0
H1852 H 0.77933 0.26377 0.46414 0.0
H1853 H 0.73411 0.25403 0.40125 0.0
H1854 H 0.72247 0.27292 0.40292 0.0
H1855 H 0.71939 0.25641 0.41756 0.0
C1856 C 0.30533 0.96773 0.98197 0.0
C1857 C 0.31788 0.9583 0.98935 0.0
C1858 C 0.30264 0.98424 0.98666 0.0
C1859 C 0.31267 0.9914 0.99908 0.0
C1860 C 0.3245 0.98156 0.00738 0.0
C1861 C 0.327 0.96517 0.00238 0.0
C1862 C 0.28985 0.9943 0.97756 0.0
C1863 C 0.33527 0.98861 0.02089 0.0
C1864 C 0.32576 0.03622 0.99855 0.0
C1865 C 0.31693 0.0427 0.01197 0.0
C1866 C 0.32357 0.01982 0.99348 0.0
C1867 C 0.31238 0.00954 0.00214 0.0
C1868 C 0.30256 0.01631 0.01494 0.0
C1869 C 0.3049 0.03286 0.01967 0.0
C1870 C 0.3341 0.01319 0.97957 0.0
C1871 C 0.29043 0.00579 0.02441 0.0
H1872 H 0.2982 0.96252 0.9719 0.0
H1873 H 0.33656 0.95791 0.00832 0.0
H1874 H 0.28252 0.00189 0.9863 0.0
H1875 H 0.29614 0.00289 0.96894 0.0
H1876 H 0.28131 0.98638 0.97031 0.0
H1877 H 0.34265 0.97893 0.02723 0.0
H1878 H 0.34391 0.99781 0.01552 0.0
H1879 H 0.32762 0.9951 0.03021 0.0
H1880 H 0.3349 0.04381 0.99237 0.0
H1881 H 0.298 0.03776 0.03005 0.0
H1882 H 0.32636 0.00638 0.97054 0.0
H1883 H 0.3433 0.00436 0.9846 0.0
H1884 H 0.34082 0.02316 0.97295 0.0
H1885 H 0.28311 0.99793 0.01591 0.0
H1886 H 0.28184 0.0134 0.03194 0.0
H1887 H 0.2973 0.99744 0.03283 0.0
C1888 C 0.82484 0.03956 0.49418 0.0
C1889 C 0.81883 0.04466 0.50958 0.0
C1890 C 0.82309 0.02314 0.48892 0.0
C1891 C 0.81557 0.01145 0.49953 0.0
C1892 C 0.80857 0.01676 0.51467 0.0
C1893 C 0.81012 0.03339 0.51944 0.0
C1894 C 0.83035 0.01811 0.47249 0.0
C1895 C 0.80061 0.00467 0.52642 0.0
C1896 C 0.80819 0.96857 0.48155 0.0
C1897 C 0.82294 0.9605 0.48584 0.0
C1898 C 0.80523 0.985 0.48644 0.0
C1899 C 0.81729 0.9935 0.49584 0.0
C1900 C 0.83182 0.98515 0.50083 0.0
C1901 C 0.83446 0.96881 0.49578 0.0
C1902 C 0.78958 0.99348 0.48092 0.0
C1903 C 0.84497 0.9937 0.51097 0.0
H1904 H 0.83143 0.04831 0.48647 0.0
H1905 H 0.80554 0.03729 0.53141 0.0
H1906 H 0.84171 0.01073 0.47459 0.0
H1907 H 0.82154 0.01024 0.46555 0.0
H1908 H 0.83361 0.02896 0.46475 0.0
H1909 H 0.79362 0.01102 0.53637 0.0
H1910 H 0.79213 0.99625 0.51972 0.0
H1911 H 0.81033 0.99694 0.53221 0.0
H1912 H 0.79919 0.96228 0.4739 0.0
H1913 H 0.84582 0.96269 0.49934 0.0
H1914 H 0.79262 0.00303 0.47158 0.0
H1915 H 0.78358 0.99985 0.49146 0.0
H1916 H 0.78061 0.98468 0.47539 0.0
H1917 H 0.85055 0.00385 0.50366 0.0
H1918 H 0.85497 0.98514 0.51483 0.0
H1919 H 0.83942 0.99928 0.52219 0.0
C1920 C 0.28249 0.07893 0.75111 0.0
C1921 C 0.28958 0.06984 0.73818 0.0
C1922 C 0.26601 0.07646 0.7558 0.0
C1923 C 0.25627 0.06473 0.74724 0.0
C1924 C 0.26359 0.05481 0.73483 0.0
C1925 C 0.28022 0.05743 0.73049 0.0
C1926 C 0.25877 0.08711 0.7693 0.0
C1927 C 0.25363 0.04218 0.72542 0.0
C1928 C 0.21458 0.05621 0.76713 0.0
C1929 C 0.2047 0.06822 0.75946 0.0
C1930 C 0.23126 0.0542 0.76266 0.0
C1931 C 0.2381 0.06432 0.75014 0.0
C1932 C 0.22782 0.07556 0.74154 0.0
C1933 C 0.2113 0.07743 0.74636 0.0
C1934 C 0.24179 0.04207 0.77211 0.0
C1935 C 0.23453 0.08639 0.7279 0.0
H1936 H 0.2897 0.08839 0.75727 0.0
H1937 H 0.28559 0.05035 0.72048 0.0
H1938 H 0.24964 0.09579 0.7639 0.0
H1939 H 0.25215 0.07937 0.77847 0.0
H1940 H 0.26836 0.09443 0.77585 0.0
H1941 H 0.2616 0.03385 0.71797 0.0
H1942 H 0.24608 0.03461 0.73397 0.0
H1943 H 0.24499 0.04862 0.71694 0.0
H1944 H 0.20959 0.04904 0.77728 0.0
H1945 H 0.20368 0.08658 0.74022 0.0
H1946 H 0.25013 0.04892 0.78056 0.0
H1947 H 0.24967 0.0348 0.76358 0.0
H1948 H 0.2342 0.03342 0.77959 0.0
H1949 H 0.24322 0.09557 0.7332 0.0
H1950 H 0.22459 0.09315 0.72128 0.0
H1951 H 0.24152 0.07887 0.71883 0.0
C1952 C 0.18704 0.46105 0.00122 0.0
C1953 C 0.18234 0.45858 0.01765 0.0
C1954 C 0.18873 0.4771 0.99484 0.0
C1955 C 0.18533 0.49087 0.00512 0.0
C1956 C 0.18167 0.48832 0.02205 0.0
C1957 C 0.18019 0.47216 0.0281 0.0
C1958 C 0.1928 0.47927 0.97678 0.0
C1959 C 0.1779 0.5026 0.03343 0.0
C1960 C 0.19242 0.53505 0.99027 0.0
C1961 C 0.17643 0.53949 0.98523 0.0
C1962 C 0.19567 0.51918 0.99663 0.0
C1963 C 0.18268 0.50749 0.9977 0.0
C1964 C 0.16666 0.51182 0.9922 0.0
C1965 C 0.16373 0.52774 0.98616 0.0
C1966 C 0.21286 0.51502 0.00249 0.0
C1967 C 0.15248 0.49969 0.9929 0.0
H1968 H 0.18856 0.45045 0.99317 0.0
H1969 H 0.1764 0.47012 0.04079 0.0
H1970 H 0.18142 0.48266 0.96994 0.0
H1971 H 0.20185 0.48941 0.97502 0.0
H1972 H 0.19789 0.46777 0.97128 0.0
H1973 H 0.17765 0.49875 0.0466 0.0
H1974 H 0.18717 0.51257 0.03191 0.0
H1975 H 0.16564 0.50785 0.03024 0.0
H1976 H 0.20228 0.54408 0.98958 0.0
H1977 H 0.1514 0.53095 0.98204 0.0
H1978 H 0.21725 0.5035 0.99651 0.0
H1979 H 0.21269 0.51276 0.016 0.0
H1980 H 0.22182 0.52508 0.99985 0.0
H1981 H 0.1557 0.48827 0.98604 0.0
H1982 H 0.14092 0.50483 0.98759 0.0
H1983 H 0.15005 0.49611 0.0059 0.0
C1984 C 0.28135 0.91453 0.25234 0.0
C1985 C 0.29002 0.92618 0.26181 0.0
C1986 C 0.26511 0.91747 0.24713 0.0
C1987 C 0.25723 0.93246 0.25147 0.0
C1988 C 0.26609 0.94461 0.26043 0.0
C1989 C 0.2824 0.94134 0.26549 0.0
C1990 C 0.25618 0.90422 0.23749 0.0
C1991 C 0.25811 0.96075 0.26525 0.0
C1992 C 0.21789 0.94033 0.22719 0.0
C1993 C 0.20618 0.93248 0.23725 0.0
C1994 C 0.23453 0.94134 0.23207 0.0
C1995 C 0.23941 0.9347 0.2475 0.0
C1996 C 0.22731 0.92805 0.25826 0.0
C1997 C 0.21088 0.92679 0.25289 0.0
C1998 C 0.24706 0.9483 0.22014 0.0
C1999 C 0.23189 0.92122 0.275 0.0
H2000 H 0.28711 0.90284 0.24927 0.0
H2001 H 0.28896 0.95045 0.27277 0.0
H2002 H 0.24577 0.89931 0.24494 0.0
H2003 H 0.25087 0.90947 0.226 0.0
H2004 H 0.2644 0.89376 0.23414 0.0
H2005 H 0.26712 0.96955 0.27069 0.0
H2006 H 0.25222 0.96663 0.25436 0.0
H2007 H 0.24822 0.95839 0.27444 0.0
H2008 H 0.21429 0.94462 0.21503 0.0
H2009 H 0.20179 0.92083 0.26071 0.0
H2010 H 0.25448 0.93804 0.21487 0.0
H2011 H 0.25572 0.95674 0.22657 0.0
H2012 H 0.2411 0.95508 0.2098 0.0
H2013 H 0.23882 0.9095 0.27341 0.0
H2014 H 0.22083 0.9187 0.28273 0.0
H2015 H 0.24005 0.92995 0.28169 0.0
C2016 C 0.69117 0.96755 0.01895 0.0
C2017 C 0.67919 0.95768 0.01122 0.0
C2018 C 0.69332 0.98418 0.01437 0.0
C2019 C 0.68339 0.99097 0.00167 0.0
C2020 C 0.67216 0.9807 0.99305 0.0
C2021 C 0.67013 0.96423 0.998 0.0
C2022 C 0.70542 0.99471 0.02386 0.0
C2023 C 0.66152 0.98736 0.97924 0.0
C2024 C 0.6691 0.03547 0.00202 0.0
C2025 C 0.6784 0.04236 0.98913 0.0
C2026 C 0.67139 0.01902 0.00691 0.0
C2027 C 0.68316 0.00911 0.99859 0.0
C2028 C 0.69327 0.01623 0.98622 0.0
C2029 C 0.69083 0.03283 0.98169 0.0
C2030 C 0.66052 0.01201 0.02036 0.0
C2031 C 0.70594 0.00608 0.97706 0.0
H2032 H 0.69821 0.96259 0.0292 0.0
H2033 H 0.66101 0.95662 0.99182 0.0
H2034 H 0.71286 0.00244 0.01534 0.0
H2035 H 0.69852 0.0032 0.03213 0.0
H2036 H 0.71391 0.98714 0.03154 0.0
H2037 H 0.65476 0.9774 0.97265 0.0
H2038 H 0.65235 0.99616 0.98436 0.0
H2039 H 0.66919 0.9942 0.97018 0.0
H2040 H 0.65962 0.04281 0.00798 0.0
H2041 H 0.69807 0.03805 0.9717 0.0
H2042 H 0.66811 0.00542 0.02967 0.0
H2043 H 0.65182 0.00291 0.01494 0.0
H2044 H 0.65322 0.02172 0.02673 0.0
H2045 H 0.71337 0.99858 0.98579 0.0
H2046 H 0.7144 0.0139 0.96962 0.0
H2047 H 0.69953 0.99738 0.96862 0.0
C2048 C 0.28679 0.42083 0.7483 0.0
C2049 C 0.29327 0.43009 0.76142 0.0
C2050 C 0.27033 0.42273 0.74328 0.0
C2051 C 0.25998 0.43403 0.75172 0.0
C2052 C 0.2667 0.44416 0.76431 0.0
C2053 C 0.28333 0.44213 0.76896 0.0
C2054 C 0.26376 0.41189 0.72959 0.0
C2055 C 0.25609 0.45632 0.77362 0.0
C2056 C 0.21815 0.44114 0.73155 0.0
C2057 C 0.20862 0.42878 0.73911 0.0
C2058 C 0.23474 0.44365 0.73608 0.0
C2059 C 0.24185 0.4337 0.74858 0.0
C2060 C 0.23194 0.42201 0.75701 0.0
C2061 C 0.21551 0.41963 0.75211 0.0
C2062 C 0.24489 0.45622 0.72678 0.0
C2063 C 0.23895 0.41132 0.77061 0.0
H2064 H 0.29446 0.41166 0.74227 0.0
H2065 H 0.28823 0.44932 0.77914 0.0
H2066 H 0.25498 0.40275 0.7348 0.0
H2067 H 0.2569 0.41941 0.72041 0.0
H2068 H 0.27376 0.40509 0.7231 0.0
H2069 H 0.2636 0.46493 0.78122 0.0
H2070 H 0.24837 0.46363 0.76497 0.0
H2071 H 0.24759 0.4495 0.78193 0.0
H2072 H 0.21293 0.44825 0.72147 0.0
H2073 H 0.20817 0.41021 0.75817 0.0
H2074 H 0.25365 0.44973 0.71848 0.0
H2075 H 0.25232 0.4638 0.73544 0.0
H2076 H 0.23707 0.46455 0.71919 0.0
H2077 H 0.2481 0.40259 0.76532 0.0
H2078 H 0.22924 0.40406 0.77703 0.0
H2079 H 0.24549 0.41903 0.77985 0.0
C2080 C 0.71542 0.07972 0.24618 0.0
C2081 C 0.70855 0.07048 0.25913 0.0
C2082 C 0.7318 0.07727 0.24114 0.0
C2083 C 0.74169 0.06541 0.24936 0.0
C2084 C 0.73458 0.05538 0.26181 0.0
C2085 C 0.71804 0.05797 0.26649 0.0
C2086 C 0.7388 0.08804 0.2276 0.0
C2087 C 0.74471 0.04263 0.27089 0.0
C2088 C 0.783 0.05662 0.22875 0.0
C2089 C 0.79315 0.0684 0.23642 0.0
C2090 C 0.76634 0.05484 0.23338 0.0
C2091 C 0.75979 0.06494 0.24608 0.0
C2092 C 0.77031 0.07601 0.2546 0.0
C2093 C 0.78681 0.07768 0.2496 0.0
C2094 C 0.75553 0.04292 0.22398 0.0
C2095 C 0.76392 0.08682 0.2684 0.0
H2096 H 0.70811 0.08926 0.24027 0.0
H2097 H 0.71285 0.05078 0.27652 0.0
H2098 H 0.74805 0.09665 0.23291 0.0
H2099 H 0.74522 0.08038 0.21823 0.0
H2100 H 0.72909 0.09544 0.22132 0.0
H2101 H 0.73688 0.03432 0.27851 0.0
H2102 H 0.75196 0.03504 0.26208 0.0
H2103 H 0.75363 0.04896 0.27914 0.0
H2104 H 0.78779 0.04943 0.21853 0.0
H2105 H 0.79463 0.08666 0.25573 0.0
H2106 H 0.74702 0.04995 0.21585 0.0
H2107 H 0.74781 0.03555 0.23258 0.0
H2108 H 0.76289 0.03435 0.21618 0.0
H2109 H 0.75518 0.09607 0.26331 0.0
H2110 H 0.77402 0.0935 0.27487 0.0
H2111 H 0.75706 0.0793 0.27757 0.0
C2112 C 0.94318 0.76933 0.78574 0.0
C2113 C 0.93249 0.76089 0.79646 0.0
C2114 C 0.94461 0.76466 0.76907 0.0
C2115 C 0.93531 0.7511 0.76309 0.0
C2116 C 0.92552 0.74178 0.77419 0.0
C2117 C 0.92413 0.74686 0.79069 0.0
C2118 C 0.95515 0.77494 0.75764 0.0
C2119 C 0.91564 0.72704 0.76842 0.0
C2120 C 0.91832 0.75036 0.71951 0.0
C2121 C 0.92828 0.73839 0.71191 0.0
C2122 C 0.92108 0.75521 0.73591 0.0
C2123 C 0.93405 0.74783 0.74503 0.0
C2124 C 0.94469 0.73637 0.7372 0.0
C2125 C 0.94172 0.73182 0.72069 0.0
C2126 C 0.90956 0.76765 0.7437 0.0
C2127 C 0.95865 0.72824 0.74651 0.0
H2128 H 0.94966 0.78021 0.7901 0.0
H2129 H 0.916 0.74016 0.79897 0.0
H2130 H 0.96274 0.76694 0.74951 0.0
H2131 H 0.94704 0.78247 0.74955 0.0
H2132 H 0.96346 0.78341 0.76453 0.0
H2133 H 0.91026 0.72 0.77889 0.0
H2134 H 0.90542 0.73127 0.76033 0.0
H2135 H 0.92351 0.7186 0.76103 0.0
H2136 H 0.90804 0.75567 0.71279 0.0
H2137 H 0.94949 0.72255 0.71493 0.0
H2138 H 0.91673 0.77766 0.74972 0.0
H2139 H 0.90208 0.76154 0.75342 0.0
H2140 H 0.90101 0.77328 0.73455 0.0
H2141 H 0.96593 0.73757 0.75341 0.0
H2142 H 0.96708 0.72133 0.73817 0.0
H2143 H 0.95349 0.71948 0.7557 0.0
C2144 C 0.06075 0.74792 0.2885 0.0
C2145 C 0.07012 0.73361 0.29096 0.0
C2146 C 0.05899 0.75467 0.27258 0.0
C2147 C 0.06662 0.74672 0.25895 0.0
C2148 C 0.07506 0.73159 0.26137 0.0
C2149 C 0.07689 0.72534 0.2774 0.0
C2150 C 0.05006 0.7709 0.27055 0.0
C2151 C 0.08314 0.72255 0.2472 0.0
C2152 C 0.05911 0.75923 0.2142 0.0
C2153 C 0.07365 0.768 0.21078 0.0
C2154 C 0.05627 0.75262 0.23004 0.0
C2155 C 0.06805 0.75524 0.24272 0.0
C2156 C 0.08227 0.76489 0.23948 0.0
C2157 C 0.08498 0.77096 0.22352 0.0
C2158 C 0.0411 0.74219 0.23297 0.0
C2159 C 0.09499 0.76831 0.25271 0.0
H2160 H 0.05562 0.7543 0.2991 0.0
H2161 H 0.08411 0.71424 0.27943 0.0
H2162 H 0.05923 0.78086 0.26838 0.0
H2163 H 0.04174 0.77055 0.25968 0.0
H2164 H 0.0427 0.77412 0.28168 0.0
H2165 H 0.08716 0.70992 0.25076 0.0
H2166 H 0.07453 0.72159 0.23658 0.0
H2167 H 0.09414 0.72955 0.24298 0.0
H2168 H 0.05034 0.75695 0.20434 0.0
H2169 H 0.09609 0.77799 0.22096 0.0
H2170 H 0.03469 0.74613 0.24442 0.0
H2171 H 0.04484 0.72912 0.23469 0.0
H2172 H 0.03227 0.74286 0.22249 0.0
H2173 H 0.08892 0.77316 0.264 0.0
H2174 H 0.10446 0.77735 0.2486 0.0
H2175 H 0.10133 0.75665 0.25613 0.0
C2176 C 0.56055 0.76691 0.71789 0.0
C2177 C 0.5731 0.75944 0.70854 0.0
C2178 C 0.55791 0.76244 0.73448 0.0
C2179 C 0.56794 0.7501 0.74178 0.0
C2180 C 0.57983 0.74176 0.73205 0.0
C2181 C 0.58234 0.74659 0.7156 0.0
C2182 C 0.54513 0.77165 0.74444 0.0
C2183 C 0.5906 0.72833 0.73925 0.0
C2184 C 0.58001 0.75089 0.78696 0.0
C2185 C 0.57067 0.73781 0.79342 0.0
C2186 C 0.57843 0.75568 0.77039 0.0
C2187 C 0.56739 0.74704 0.75992 0.0
C2188 C 0.55724 0.73445 0.76658 0.0
C2189 C 0.55892 0.73004 0.78331 0.0
C2190 C 0.58928 0.76939 0.76388 0.0
C2191 C 0.54537 0.72491 0.75582 0.0
H2192 H 0.55337 0.77687 0.71255 0.0
H2193 H 0.59192 0.74061 0.70841 0.0
H2194 H 0.53751 0.76294 0.75178 0.0
H2195 H 0.55143 0.78001 0.75329 0.0
H2196 H 0.53685 0.77918 0.7365 0.0
H2197 H 0.59803 0.72192 0.72965 0.0
H2198 H 0.59918 0.73376 0.74845 0.0
H2199 H 0.58292 0.71904 0.74577 0.0
H2200 H 0.58897 0.75709 0.79475 0.0
H2201 H 0.55169 0.71989 0.78819 0.0
H2202 H 0.5818 0.77847 0.75686 0.0
H2203 H 0.59858 0.76418 0.75527 0.0
H2204 H 0.5959 0.77599 0.77393 0.0
H2205 H 0.53804 0.73341 0.74797 0.0
H2206 H 0.53677 0.7172 0.76323 0.0
H2207 H 0.55245 0.71668 0.74745 0.0
C2208 C 0.42051 0.75075 0.21503 0.0
C2209 C 0.42948 0.73746 0.20849 0.0
C2210 C 0.42233 0.7555 0.23158 0.0
C2211 C 0.43324 0.7466 0.24196 0.0
C2212 C 0.44307 0.73379 0.23521 0.0
C2213 C 0.44115 0.72943 0.21849 0.0
C2214 C 0.41183 0.76944 0.23818 0.0
C2215 C 0.4548 0.72398 0.24586 0.0
C2216 C 0.4405 0.76629 0.28399 0.0
C2217 C 0.42778 0.75909 0.29333 0.0
C2218 C 0.44308 0.76175 0.26741 0.0
C2219 C 0.43282 0.7496 0.26011 0.0
C2220 C 0.42076 0.7415 0.26985 0.0
C2221 C 0.41833 0.7464 0.28628 0.0
C2222 C 0.45605 0.77069 0.25746 0.0
C2223 C 0.40973 0.72828 0.26265 0.0
H2224 H 0.41161 0.75714 0.20732 0.0
H2225 H 0.44809 0.71911 0.21353 0.0
H2226 H 0.40245 0.76442 0.24683 0.0
H2227 H 0.41954 0.77833 0.24519 0.0
H2228 H 0.40531 0.77621 0.22818 0.0
H2229 H 0.46325 0.71618 0.23837 0.0
H2230 H 0.46229 0.7323 0.25376 0.0
H2231 H 0.44761 0.71581 0.25419 0.0
H2232 H 0.44786 0.77613 0.28932 0.0
H2233 H 0.40862 0.74062 0.29347 0.0
H2234 H 0.44993 0.77925 0.24867 0.0
H2235 H 0.46344 0.76183 0.25006 0.0
H2236 H 0.46453 0.77797 0.26541 0.0
H2237 H 0.40124 0.73389 0.25348 0.0
H2238 H 0.40221 0.722 0.27225 0.0
H2239 H 0.41722 0.71886 0.25609 0.0
C2240 C 0.24816 0.71514 0.07968 0.0
C2241 C 0.26132 0.70845 0.07061 0.0
C2242 C 0.24326 0.7316 0.07752 0.0
C2243 C 0.25186 0.74175 0.06615 0.0
C2244 C 0.26452 0.73483 0.05626 0.0
C2245 C 0.26905 0.7182 0.05854 0.0
C2246 C 0.22948 0.73839 0.08811 0.0
C2247 C 0.27401 0.74523 0.04405 0.0
C2248 C 0.23168 0.7834 0.05805 0.0
C2249 C 0.23905 0.79315 0.07035 0.0
C2250 C 0.23631 0.76678 0.05588 0.0
C2251 C 0.2487 0.75988 0.06611 0.0
C2252 C 0.25696 0.77002 0.07772 0.0
C2253 C 0.25197 0.78647 0.07977 0.0
C2254 C 0.22719 0.75638 0.04338 0.0
C2255 C 0.27045 0.76324 0.08869 0.0
H2256 H 0.24198 0.70762 0.08889 0.0
H2257 H 0.27925 0.71314 0.05151 0.0
H2258 H 0.23461 0.74735 0.09713 0.0
H2259 H 0.22037 0.7451 0.08038 0.0
H2260 H 0.22293 0.72853 0.09506 0.0
H2261 H 0.28176 0.73758 0.0357 0.0
H2262 H 0.26547 0.75279 0.03646 0.0
H2263 H 0.2822 0.75387 0.05084 0.0
H2264 H 0.22167 0.78844 0.05074 0.0
H2265 H 0.25788 0.79399 0.08915 0.0
H2266 H 0.21881 0.74773 0.04993 0.0
H2267 H 0.23595 0.74883 0.03604 0.0
H2268 H 0.21968 0.76404 0.03482 0.0
H2269 H 0.26507 0.75429 0.09756 0.0
H2270 H 0.2768 0.77311 0.0958 0.0
H2271 H 0.27977 0.75654 0.08121 0.0
C2272 C 0.74848 0.71618 0.58069 0.0
C2273 C 0.76138 0.70906 0.57158 0.0
C2274 C 0.74408 0.73278 0.57849 0.0
C2275 C 0.75292 0.74261 0.56703 0.0
C2276 C 0.76529 0.73527 0.55708 0.0
C2277 C 0.76933 0.71853 0.55941 0.0
C2278 C 0.7306 0.74003 0.58916 0.0
C2279 C 0.77499 0.74532 0.54474 0.0
C2280 C 0.73382 0.78476 0.55907 0.0
C2281 C 0.74153 0.7943 0.57133 0.0
C2282 C 0.73802 0.76805 0.55682 0.0
C2283 C 0.75032 0.76082 0.56694 0.0
C2284 C 0.75897 0.77075 0.57845 0.0
C2285 C 0.75441 0.78732 0.58056 0.0
C2286 C 0.72852 0.7579 0.5444 0.0
C2287 C 0.77238 0.76362 0.58929 0.0
H2288 H 0.74214 0.7089 0.58996 0.0
H2289 H 0.77933 0.71314 0.55233 0.0
H2290 H 0.73607 0.74889 0.59808 0.0
H2291 H 0.72163 0.74696 0.58146 0.0
H2292 H 0.72382 0.73041 0.59622 0.0
H2293 H 0.78238 0.73739 0.53632 0.0
H2294 H 0.76664 0.75317 0.53723 0.0
H2295 H 0.78355 0.75368 0.55143 0.0
H2296 H 0.72383 0.79005 0.55188 0.0
H2297 H 0.76058 0.79467 0.58991 0.0
H2298 H 0.71988 0.74957 0.55102 0.0
H2299 H 0.73699 0.75002 0.53707 0.0
H2300 H 0.72124 0.76576 0.53583 0.0
H2301 H 0.76684 0.75486 0.59826 0.0
H2302 H 0.77909 0.77332 0.5963 0.0
H2303 H 0.78142 0.75661 0.58174 0.0
C2304 C 0.2514 0.71599 0.41931 0.0
C2305 C 0.23881 0.70868 0.4287 0.0
C2306 C 0.25604 0.73248 0.42186 0.0
C2307 C 0.24778 0.742 0.43398 0.0
C2308 C 0.23571 0.73445 0.44415 0.0
C2309 C 0.23142 0.71783 0.44144 0.0
C2310 C 0.26919 0.73995 0.41092 0.0
C2311 C 0.2266 0.74418 0.45718 0.0
C2312 C 0.26776 0.78361 0.4426 0.0
C2313 C 0.25975 0.79364 0.43095 0.0
C2314 C 0.2634 0.7669 0.44447 0.0
C2315 C 0.25062 0.76017 0.4346 0.0
C2316 C 0.24168 0.77059 0.42376 0.0
C2317 C 0.24641 0.78715 0.422 0.0
C2318 C 0.27322 0.75621 0.45616 0.0
C2319 C 0.22776 0.76401 0.41322 0.0
H2320 H 0.25733 0.70895 0.40958 0.0
H2321 H 0.22166 0.71229 0.44875 0.0
H2322 H 0.26348 0.74919 0.40255 0.0
H2323 H 0.27855 0.74648 0.41849 0.0
H2324 H 0.27555 0.73051 0.40325 0.0
H2325 H 0.21939 0.73606 0.46557 0.0
H2326 H 0.23534 0.75163 0.46466 0.0
H2327 H 0.21795 0.75291 0.45111 0.0
H2328 H 0.2781 0.78853 0.44954 0.0
H2329 H 0.24002 0.79488 0.41313 0.0
H2330 H 0.2815 0.74801 0.44894 0.0
H2331 H 0.26493 0.74818 0.46354 0.0
H2332 H 0.28092 0.76369 0.46472 0.0
H2333 H 0.23283 0.75552 0.40373 0.0
H2334 H 0.2209 0.77404 0.40684 0.0
H2335 H 0.21894 0.75683 0.42087 0.0
C2336 C 0.72719 0.72277 0.91929 0.0
C2337 C 0.73174 0.7095 0.92939 0.0
C2338 C 0.73386 0.73854 0.92172 0.0
C2339 C 0.74579 0.741 0.93427 0.0
C2340 C 0.74994 0.72778 0.94499 0.0
C2341 C 0.74266 0.71216 0.94254 0.0
C2342 C 0.72874 0.75235 0.91027 0.0
C2343 C 0.76279 0.72982 0.95832 0.0
C2344 C 0.77532 0.77468 0.92125 0.0
C2345 C 0.76918 0.78833 0.92989 0.0
C2346 C 0.76868 0.75889 0.92369 0.0
C2347 C 0.75518 0.75682 0.93462 0.0
C2348 C 0.74944 0.77047 0.94398 0.0
C2349 C 0.7567 0.78611 0.94165 0.0
C2350 C 0.77549 0.74462 0.91378 0.0
C2351 C 0.73491 0.76885 0.95553 0.0
H2352 H 0.71855 0.72073 0.90924 0.0
H2353 H 0.74619 0.70185 0.95032 0.0
H2354 H 0.72566 0.76362 0.91744 0.0
H2355 H 0.73915 0.75549 0.90192 0.0
H2356 H 0.7179 0.74895 0.90257 0.0
H2357 H 0.76286 0.71924 0.96706 0.0
H2358 H 0.77518 0.73076 0.95254 0.0
H2359 H 0.76068 0.74138 0.96537 0.0
H2360 H 0.78511 0.77644 0.91228 0.0
H2361 H 0.75195 0.79674 0.94826 0.0
H2362 H 0.76647 0.74106 0.90409 0.0
H2363 H 0.77745 0.7337 0.92182 0.0
H2364 H 0.78736 0.74778 0.90767 0.0
H2365 H 0.72342 0.76755 0.94817 0.0
H2366 H 0.73361 0.77979 0.96371 0.0
H2367 H 0.73609 0.75763 0.9633 0.0
C2368 C 0.30924 0.53349 0.5154 0.0
C2369 C 0.32341 0.54201 0.51016 0.0
C2370 C 0.30644 0.517 0.51065 0.0
C2371 C 0.31805 0.5089 0.50037 0.0
C2372 C 0.3319 0.51773 0.49436 0.0
C2373 C 0.33442 0.53412 0.49933 0.0
C2374 C 0.29152 0.50802 0.51729 0.0
C2375 C 0.3445 0.50963 0.48322 0.0
C2376 C 0.32679 0.46302 0.50204 0.0
C2377 C 0.31967 0.45751 0.48726 0.0
C2378 C 0.32524 0.47952 0.50709 0.0
C2379 C 0.31668 0.49088 0.49691 0.0
C2380 C 0.30864 0.48518 0.48245 0.0
C2381 C 0.3101 0.46848 0.47787 0.0
C2382 C 0.33368 0.48498 0.5228 0.0
C2383 C 0.29954 0.49691 0.47118 0.0
H2384 H 0.30064 0.53945 0.52375 0.0
H2385 H 0.34531 0.54061 0.49503 0.0
H2386 H 0.28499 0.50143 0.50721 0.0
H2387 H 0.29556 0.49859 0.52638 0.0
H2388 H 0.2827 0.51652 0.52347 0.0
H2389 H 0.35383 0.51855 0.47856 0.0
H2390 H 0.35103 0.49973 0.49009 0.0
H2391 H 0.3383 0.50378 0.47249 0.0
H2392 H 0.33406 0.45452 0.50941 0.0
H2393 H 0.30465 0.46429 0.46638 0.0
H2394 H 0.32519 0.49259 0.53041 0.0
H2395 H 0.34452 0.49277 0.5197 0.0
H2396 H 0.33798 0.47435 0.53033 0.0
H2397 H 0.29132 0.50517 0.47839 0.0
H2398 H 0.29203 0.49026 0.46181 0.0
H2399 H 0.3086 0.50485 0.46463 0.0
C2400 C 0.80791 0.46709 0.97949 0.0
C2401 C 0.81921 0.45672 0.98757 0.0
C2402 C 0.80599 0.48366 0.98433 0.0
C2403 C 0.81543 0.48988 0.99769 0.0
C2404 C 0.82586 0.47908 0.00667 0.0
C2405 C 0.8277 0.46268 0.00143 0.0
C2406 C 0.79476 0.49477 0.97443 0.0
C2407 C 0.83592 0.48511 0.02118 0.0
C2408 C 0.83119 0.53388 0.99858 0.0
C2409 C 0.82146 0.54097 0.01104 0.0
C2410 C 0.82867 0.51754 0.99347 0.0
C2411 C 0.81617 0.50795 0.00106 0.0
C2412 C 0.80566 0.51529 0.01297 0.0
C2413 C 0.80839 0.53177 0.01778 0.0
C2414 C 0.84 0.51027 0.98054 0.0
C2415 C 0.7922 0.50549 0.02133 0.0
H2416 H 0.80133 0.46257 0.96874 0.0
H2417 H 0.83629 0.45467 0.00787 0.0
H2418 H 0.78718 0.50263 0.9827 0.0
H2419 H 0.80236 0.50312 0.96666 0.0
H2420 H 0.78641 0.48762 0.96622 0.0
H2421 H 0.8419 0.4748 0.02798 0.0
H2422 H 0.8457 0.49362 0.01674 0.0
H2423 H 0.82801 0.49212 0.02991 0.0
H2424 H 0.84117 0.54095 0.99314 0.0
H2425 H 0.80079 0.53714 0.02741 0.0
H2426 H 0.8327 0.50411 0.97071 0.0
H2427 H 0.84801 0.50075 0.98629 0.0
H2428 H 0.84804 0.51976 0.97474 0.0
H2429 H 0.78496 0.49837 0.01213 0.0
H2430 H 0.78364 0.51352 0.02844 0.0
H2431 H 0.79784 0.49647 0.02996 0.0
C2432 C 0.28581 0.57853 0.25159 0.0
C2433 C 0.29237 0.56968 0.23823 0.0
C2434 C 0.2693 0.57652 0.25642 0.0
C2435 C 0.25898 0.56554 0.24752 0.0
C2436 C 0.26576 0.55586 0.23463 0.0
C2437 C 0.28243 0.55796 0.23019 0.0
C2438 C 0.26266 0.58688 0.27045 0.0
C2439 C 0.25517 0.54406 0.22482 0.0
C2440 C 0.21718 0.55757 0.26744 0.0
C2441 C 0.2076 0.57018 0.26035 0.0
C2442 C 0.23377 0.55527 0.26279 0.0
C2443 C 0.24084 0.56571 0.25066 0.0
C2444 C 0.23089 0.57767 0.24268 0.0
C2445 C 0.21444 0.57982 0.24768 0.0
C2446 C 0.24397 0.5424 0.2716 0.0
C2447 C 0.23785 0.58888 0.22949 0.0
H2448 H 0.29347 0.58745 0.258 0.0
H2449 H 0.28739 0.55111 0.21981 0.0
H2450 H 0.25386 0.59617 0.26552 0.0
H2451 H 0.25581 0.57904 0.27935 0.0
H2452 H 0.27263 0.59349 0.27718 0.0
H2453 H 0.26269 0.53577 0.21688 0.0
H2454 H 0.24745 0.5364 0.23315 0.0
H2455 H 0.24666 0.5512 0.21679 0.0
H2456 H 0.21201 0.55008 0.27725 0.0
H2457 H 0.20707 0.58944 0.24199 0.0
H2458 H 0.25274 0.54861 0.28011 0.0
H2459 H 0.25139 0.53514 0.26266 0.0
H2460 H 0.23618 0.53379 0.27892 0.0
H2461 H 0.24695 0.59746 0.2351 0.0
H2462 H 0.22811 0.59631 0.22332 0.0
H2463 H 0.24445 0.58154 0.21998 0.0
C2464 C 0.18968 0.96746 0.51952 0.0
C2465 C 0.17709 0.9581 0.51211 0.0
C2466 C 0.19232 0.98403 0.51501 0.0
C2467 C 0.18224 0.99132 0.50271 0.0
C2468 C 0.17029 0.98159 0.49444 0.0
C2469 C 0.16781 0.96516 0.49929 0.0
C2470 C 0.20518 0.99399 0.52412 0.0
C2471 C 0.15945 0.98879 0.48106 0.0
C2472 C 0.16996 0.03641 0.50333 0.0
C2473 C 0.17906 0.0428 0.49005 0.0
C2474 C 0.17175 0.01992 0.50829 0.0
C2475 C 0.18276 0.00945 0.49962 0.0
C2476 C 0.19275 0.01607 0.48687 0.0
C2477 C 0.19085 0.03272 0.48228 0.0
C2478 C 0.16108 0.01345 0.52216 0.0
C2479 C 0.20462 0.00533 0.47732 0.0
H2480 H 0.19691 0.96212 0.52944 0.0
H2481 H 0.15821 0.95796 0.49334 0.0
H2482 H 0.2127 0.00136 0.51536 0.0
H2483 H 0.19895 0.00279 0.53258 0.0
H2484 H 0.21355 0.98603 0.53153 0.0
H2485 H 0.15193 0.97921 0.47474 0.0
H2486 H 0.15095 0.99805 0.48654 0.0
H2487 H 0.16709 0.99525 0.4717 0.0
H2488 H 0.16099 0.04418 0.50953 0.0
H2489 H 0.19791 0.03756 0.47198 0.0
H2490 H 0.16868 0.00648 0.53118 0.0
H2491 H 0.15173 0.00481 0.5171 0.0
H2492 H 0.15453 0.02353 0.5288 0.0
H2493 H 0.21198 0.99749 0.48582 0.0
H2494 H 0.21319 0.01275 0.46959 0.0
H2495 H 0.19754 0.99694 0.46911 0.0
C2496 C 0.66936 0.52575 0.47687 0.0
C2497 C 0.67853 0.53905 0.483 0.0
C2498 C 0.67156 0.50978 0.48311 0.0
C2499 C 0.68284 0.50714 0.49622 0.0
C2500 C 0.69268 0.52044 0.50199 0.0
C2501 C 0.69055 0.53627 0.49512 0.0
C2502 C 0.66113 0.4959 0.47628 0.0
C2503 C 0.7046 0.51821 0.51614 0.0
C2504 C 0.66792 0.47242 0.52361 0.0
C2505 C 0.67774 0.4592 0.51836 0.0
C2506 C 0.67034 0.48836 0.51735 0.0
C2507 C 0.68255 0.49104 0.50511 0.0
C2508 C 0.69295 0.47783 0.50021 0.0
C2509 C 0.69056 0.46203 0.5071 0.0
C2510 C 0.65925 0.50215 0.52327 0.0
C2511 C 0.70587 0.48011 0.48698 0.0
H2512 H 0.66018 0.52793 0.46735 0.0
H2513 H 0.69759 0.54663 0.49987 0.0
H2514 H 0.66887 0.48488 0.47373 0.0
H2515 H 0.65169 0.49227 0.48553 0.0
H2516 H 0.65467 0.4995 0.46472 0.0
H2517 H 0.71294 0.52901 0.51759 0.0
H2518 H 0.69754 0.51658 0.52778 0.0
H2519 H 0.7122 0.50695 0.51437 0.0
H2520 H 0.65813 0.47022 0.53249 0.0
H2521 H 0.69812 0.45175 0.50304 0.0
H2522 H 0.6506 0.50571 0.51325 0.0
H2523 H 0.66667 0.51323 0.52644 0.0
H2524 H 0.65187 0.49851 0.53426 0.0
H2525 H 0.69968 0.4817 0.47485 0.0
H2526 H 0.71435 0.46935 0.48615 0.0
H2527 H 0.71326 0.4914 0.48931 0.0
C2528 C 0.71414 0.57952 0.7493 0.0
C2529 C 0.70712 0.56997 0.76194 0.0
C2530 C 0.73055 0.57712 0.74433 0.0
C2531 C 0.7403 0.56499 0.75231 0.0
C2532 C 0.73303 0.55464 0.7644 0.0
C2533 C 0.71648 0.5572 0.76903 0.0
C2534 C 0.73772 0.58826 0.73119 0.0
C2535 C 0.74301 0.54157 0.77318 0.0
C2536 C 0.78169 0.55701 0.73159 0.0
C2537 C 0.79173 0.56866 0.7396 0.0
C2538 C 0.76506 0.55492 0.73618 0.0
C2539 C 0.75843 0.56457 0.74919 0.0
C2540 C 0.76888 0.5754 0.75809 0.0
C2541 C 0.78534 0.57739 0.75313 0.0
C2542 C 0.75433 0.54324 0.72638 0.0
C2543 C 0.76241 0.58572 0.77223 0.0
H2544 H 0.70693 0.58926 0.7436 0.0
H2545 H 0.71116 0.54977 0.77881 0.0
H2546 H 0.74697 0.59665 0.73683 0.0
H2547 H 0.74417 0.58084 0.72164 0.0
H2548 H 0.72811 0.5959 0.72505 0.0
H2549 H 0.73506 0.53302 0.78039 0.0
H2550 H 0.75039 0.53428 0.76423 0.0
H2551 H 0.7518 0.5476 0.78179 0.0
H2552 H 0.78652 0.55023 0.7211 0.0
H2553 H 0.79309 0.58625 0.75952 0.0
H2554 H 0.74596 0.55048 0.7183 0.0
H2555 H 0.74649 0.5357 0.73471 0.0
H2556 H 0.76178 0.53484 0.71849 0.0
H2557 H 0.75373 0.59517 0.76741 0.0
H2558 H 0.77248 0.59212 0.77901 0.0
H2559 H 0.75546 0.57789 0.78108 0.0
C2560 C 0.51496 0.30696 0.53361 0.0
C2561 C 0.51132 0.3219 0.54165 0.0
C2562 C 0.50993 0.30417 0.51719 0.0
C2563 C 0.50105 0.3166 0.50866 0.0
C2564 C 0.49671 0.33136 0.51696 0.0
C2565 C 0.50188 0.33382 0.5333 0.0
C2566 C 0.51475 0.28826 0.50877 0.0
C2567 C 0.48714 0.3449 0.50838 0.0
C2568 C 0.50293 0.32366 0.46251 0.0
C2569 C 0.48734 0.31813 0.45747 0.0
C2570 C 0.50812 0.32191 0.47894 0.0
C2571 C 0.49723 0.31493 0.49073 0.0
C2572 C 0.48183 0.30848 0.4855 0.0
C2573 C 0.47714 0.30997 0.46884 0.0
C2574 C 0.52483 0.32856 0.48389 0.0
C2575 C 0.46975 0.30118 0.49769 0.0
H2576 H 0.52221 0.29765 0.53992 0.0
H2577 H 0.49883 0.34535 0.53938 0.0
H2578 H 0.50389 0.28263 0.50259 0.0
H2579 H 0.52406 0.29087 0.49905 0.0
H2580 H 0.52005 0.27915 0.51756 0.0
H2581 H 0.48373 0.35509 0.51691 0.0
H2582 H 0.49468 0.35012 0.4982 0.0
H2583 H 0.47569 0.33983 0.50282 0.0
H2584 H 0.51086 0.32987 0.45368 0.0
H2585 H 0.46501 0.30581 0.46497 0.0
H2586 H 0.53144 0.31955 0.49182 0.0
H2587 H 0.52319 0.34005 0.49119 0.0
H2588 H 0.53267 0.33143 0.473 0.0
H2589 H 0.47607 0.29246 0.50615 0.0
H2590 H 0.45945 0.29462 0.49142 0.0
H2591 H 0.46445 0.31122 0.50537 0.0
C2592 C 0.51779 0.19307 0.96835 0.0
C2593 C 0.51008 0.18116 0.95838 0.0
C2594 C 0.51327 0.19502 0.98502 0.0
C2595 C 0.50067 0.18493 0.99177 0.0
C2596 C 0.49205 0.17378 0.98141 0.0
C2597 C 0.49692 0.17198 0.96489 0.0
C2598 C 0.52273 0.20706 0.99564 0.0
C2599 C 0.47835 0.16298 0.98801 0.0
C2600 C 0.5014 0.17 0.03605 0.0
C2601 C 0.48843 0.17905 0.04313 0.0
C2602 C 0.50619 0.1726 0.01962 0.0
C2603 C 0.49771 0.18443 0.00992 0.0
C2604 C 0.48529 0.19432 0.01726 0.0
C2605 C 0.48084 0.19157 0.03383 0.0
C2606 C 0.5197 0.16196 0.01237 0.0
C2607 C 0.47598 0.20707 0.00734 0.0
H2608 H 0.52798 0.20022 0.96343 0.0
H2609 H 0.49075 0.16291 0.9572 0.0
H2610 H 0.51421 0.21429 0.00357 0.0
H2611 H 0.53116 0.20013 0.00394 0.0
H2612 H 0.53024 0.21575 0.98812 0.0
H2613 H 0.47174 0.15629 0.97802 0.0
H2614 H 0.48358 0.15374 0.99668 0.0
H2615 H 0.46927 0.1705 0.995 0.0
H2616 H 0.50749 0.16047 0.04321 0.0
H2617 H 0.4708 0.19863 0.03919 0.0
H2618 H 0.52892 0.16972 0.00585 0.0
H2619 H 0.51432 0.15335 0.00316 0.0
H2620 H 0.52619 0.15457 0.02194 0.0
H2621 H 0.4846 0.21464 0.99986 0.0
H2622 H 0.46857 0.21539 0.01535 0.0
H2623 H 0.46749 0.20074 0.99865 0.0
C2624 C 0.52105 0.69399 0.46725 0.0
C2625 C 0.51215 0.68394 0.4563 0.0
C2626 C 0.51605 0.69573 0.4838 0.0
C2627 C 0.50166 0.68747 0.48937 0.0
C2628 C 0.49191 0.67847 0.47797 0.0
C2629 C 0.49737 0.67666 0.46162 0.0
C2630 C 0.52683 0.70536 0.49556 0.0
C2631 C 0.47629 0.66977 0.48328 0.0
C2632 C 0.49901 0.67023 0.53278 0.0
C2633 C 0.48778 0.68104 0.54037 0.0
C2634 C 0.50418 0.67268 0.51645 0.0
C2635 C 0.49794 0.68625 0.50735 0.0
C2636 C 0.48723 0.69768 0.51514 0.0
C2637 C 0.48231 0.69497 0.53159 0.0
C2638 C 0.51578 0.66028 0.50869 0.0
C2639 C 0.48033 0.7123 0.50586 0.0
H2640 H 0.53253 0.69959 0.46321 0.0
H2641 H 0.49035 0.66904 0.45314 0.0
H2642 H 0.51924 0.71347 0.50358 0.0
H2643 H 0.53354 0.69664 0.50373 0.0
H2644 H 0.53606 0.71306 0.48894 0.0
H2645 H 0.46905 0.66515 0.47257 0.0
H2646 H 0.47949 0.6591 0.49126 0.0
H2647 H 0.46837 0.67819 0.49064 0.0
H2648 H 0.50348 0.65954 0.53949 0.0
H2649 H 0.47364 0.70341 0.53733 0.0
H2650 H 0.52645 0.66669 0.50296 0.0
H2651 H 0.50925 0.65347 0.49875 0.0
H2652 H 0.52052 0.65118 0.51779 0.0
H2653 H 0.49031 0.71896 0.49925 0.0
H2654 H 0.47388 0.72112 0.51418 0.0
H2655 H 0.47141 0.70791 0.49643 0.0
C2656 C 0.48173 0.80951 0.96624 0.0
C2657 C 0.48921 0.822 0.95683 0.0
C2658 C 0.48629 0.80687 0.9828 0.0
C2659 C 0.49873 0.81685 0.99 0.0
C2660 C 0.50712 0.82863 0.98017 0.0
C2661 C 0.50221 0.83112 0.96376 0.0
C2662 C 0.47706 0.79418 0.99285 0.0
C2663 C 0.52065 0.83934 0.98727 0.0
C2664 C 0.49791 0.82961 0.03496 0.0
C2665 C 0.51102 0.82042 0.04156 0.0
C2666 C 0.4931 0.82773 0.01844 0.0
C2667 C 0.50173 0.81652 0.00816 0.0
C2668 C 0.51432 0.80647 0.01498 0.0
C2669 C 0.51877 0.80848 0.03166 0.0
C2670 C 0.4794 0.8385 0.01174 0.0
C2671 C 0.52382 0.79439 0.00444 0.0
H2672 H 0.47166 0.80241 0.96099 0.0
H2673 H 0.50821 0.84064 0.9565 0.0
H2674 H 0.48573 0.78669 0.00036 0.0
H2675 H 0.46859 0.80057 0.00154 0.0
H2676 H 0.46963 0.78578 0.98495 0.0
H2677 H 0.52712 0.84662 0.97759 0.0
H2678 H 0.51529 0.84807 0.99638 0.0
H2679 H 0.52988 0.83166 0.99387 0.0
H2680 H 0.49171 0.83871 0.04259 0.0
H2681 H 0.52894 0.80135 0.03666 0.0
H2682 H 0.4703 0.83092 0.00484 0.0
H2683 H 0.48463 0.84764 0.00298 0.0
H2684 H 0.47281 0.84529 0.02168 0.0
H2685 H 0.51531 0.78705 0.9966 0.0
H2686 H 0.53139 0.78581 0.01201 0.0
H2687 H 0.53219 0.80129 0.99606 0.0
C2688 C 0.46709 0.9856 0.8076 0.0
C2689 C 0.45779 0.99297 0.82024 0.0
C2690 C 0.48367 0.99008 0.80493 0.0
C2691 C 0.49102 0.00231 0.81505 0.0
C2692 C 0.48131 0.01061 0.827 0.0
C2693 C 0.46487 0.00579 0.8295 0.0
C2694 C 0.49358 0.98098 0.79203 0.0
C2695 C 0.48857 0.02392 0.83788 0.0
C2696 C 0.53597 0.00103 0.82772 0.0
C2697 C 0.5426 0.01434 0.81883 0.0
C2698 C 0.51944 0.99629 0.82572 0.0
C2699 C 0.50919 0.00517 0.81468 0.0
C2700 C 0.51606 0.01792 0.80486 0.0
C2701 C 0.53274 0.02231 0.80699 0.0
C2702 C 0.5127 0.98243 0.83624 0.0
C2703 C 0.50556 0.02766 0.79294 0.0
H2704 H 0.46172 0.97569 0.80037 0.0
H2705 H 0.45771 0.01172 0.83914 0.0
H2706 H 0.50113 0.98971 0.78465 0.0
H2707 H 0.5022 0.97231 0.79822 0.0
H2708 H 0.48556 0.97378 0.78353 0.0
H2709 H 0.47899 0.03032 0.84534 0.0
H2710 H 0.49772 0.01835 0.84644 0.0
H2711 H 0.49517 0.03322 0.8303 0.0
H2712 H 0.54356 0.99466 0.83672 0.0
H2713 H 0.53777 0.03261 0.80008 0.0
H2714 H 0.5057 0.97353 0.82851 0.0
H2715 H 0.504 0.98753 0.84552 0.0
H2716 H 0.52262 0.97564 0.84286 0.0
H2717 H 0.49758 0.01933 0.78555 0.0
H2718 H 0.51318 0.03522 0.78439 0.0
H2719 H 0.49733 0.03606 0.79997 0.0
C2720 C 0.53314 0.52089 0.3079 0.0
C2721 C 0.54309 0.51328 0.3199 0.0
C2722 C 0.51659 0.51609 0.30568 0.0
C2723 C 0.50992 0.50328 0.31555 0.0
C2724 C 0.52026 0.49483 0.32685 0.0
C2725 C 0.53665 0.49999 0.32895 0.0
C2726 C 0.50598 0.52541 0.29351 0.0
C2727 C 0.51375 0.48091 0.33744 0.0
C2728 C 0.46526 0.50262 0.32937 0.0
C2729 C 0.45877 0.48957 0.32001 0.0
C2730 C 0.48162 0.50789 0.32725 0.0
C2731 C 0.49184 0.49981 0.31558 0.0
C2732 C 0.4851 0.4873 0.30538 0.0
C2733 C 0.46858 0.48237 0.30766 0.0
C2734 C 0.48822 0.52149 0.33819 0.0
C2735 C 0.49559 0.47838 0.29282 0.0
H2736 H 0.53801 0.53119 0.30086 0.0
H2737 H 0.54432 0.4939 0.33809 0.0
H2738 H 0.49853 0.51676 0.28594 0.0
H2739 H 0.49721 0.53344 0.30035 0.0
H2740 H 0.51346 0.53331 0.28515 0.0
H2741 H 0.52375 0.47453 0.34435 0.0
H2742 H 0.50472 0.48586 0.34648 0.0
H2743 H 0.5072 0.47169 0.32971 0.0
H2744 H 0.4577 0.5084 0.33879 0.0
H2745 H 0.46367 0.47227 0.30037 0.0
H2746 H 0.49472 0.53093 0.33069 0.0
H2747 H 0.49732 0.51626 0.34701 0.0
H2748 H 0.47828 0.52765 0.34537 0.0
H2749 H 0.50297 0.48728 0.28547 0.0
H2750 H 0.48801 0.47078 0.28427 0.0
H2751 H 0.5044 0.47013 0.2993 0.0
C2752 C 0.53649 0.00018 0.1729 0.0
C2753 C 0.54323 0.98702 0.18192 0.0
C2754 C 0.52 0.005 0.17507 0.0
C2755 C 0.50991 0.99634 0.18643 0.0
C2756 C 0.51691 0.98376 0.19637 0.0
C2757 C 0.53354 0.97928 0.19405 0.0
C2758 C 0.51312 0.01868 0.16441 0.0
C2759 C 0.50658 0.97427 0.20864 0.0
C2760 C 0.46797 0.01617 0.19371 0.0
C2761 C 0.4585 0.0086 0.18131 0.0
C2762 C 0.48456 0.01167 0.19626 0.0
C2763 C 0.49174 0.99922 0.18628 0.0
C2764 C 0.48186 0.99073 0.17461 0.0
C2765 C 0.46541 0.99557 0.17222 0.0
C2766 C 0.49467 0.02098 0.20885 0.0
C2767 C 0.48893 0.97719 0.1639 0.0
H2768 H 0.54395 0.00638 0.16367 0.0
H2769 H 0.53865 0.9691 0.20107 0.0
H2770 H 0.50427 0.01343 0.15536 0.0
H2771 H 0.50628 0.02774 0.17208 0.0
H2772 H 0.52295 0.02532 0.1575 0.0
H2773 H 0.51432 0.96686 0.21721 0.0
H2774 H 0.49873 0.98276 0.21599 0.0
H2775 H 0.49822 0.96575 0.2019 0.0
H2776 H 0.46273 0.02624 0.20081 0.0
H2777 H 0.45811 0.98949 0.16278 0.0
H2778 H 0.50318 0.02956 0.20239 0.0
H2779 H 0.50235 0.01238 0.21625 0.0
H2780 H 0.48678 0.02831 0.21736 0.0
H2781 H 0.49796 0.98256 0.1551 0.0
H2782 H 0.47923 0.97066 0.15671 0.0
H2783 H 0.49562 0.96802 0.17157 0.0
C2784 C 0.5367 0.4924 0.69161 0.0
C2785 C 0.54022 0.48397 0.6769 0.0
C2786 C 0.52102 0.49946 0.69426 0.0
C2787 C 0.50856 0.49764 0.68209 0.0
C2788 C 0.51189 0.48839 0.66762 0.0
C2789 C 0.52771 0.48188 0.66512 0.0
C2790 C 0.51803 0.50948 0.70969 0.0
C2791 C 0.49889 0.4858 0.65448 0.0
C2792 C 0.4628 0.5055 0.68891 0.0
C2793 C 0.4607 0.52013 0.67995 0.0
C2794 C 0.47858 0.49843 0.69068 0.0
C2795 C 0.49246 0.5064 0.68354 0.0
C2796 C 0.49041 0.52184 0.67558 0.0
C2797 C 0.4745 0.52839 0.67366 0.0
C2798 C 0.48019 0.48186 0.69905 0.0
C2799 C 0.50487 0.53093 0.66808 0.0
H2800 H 0.54638 0.49403 0.70072 0.0
H2801 H 0.53034 0.47513 0.65385 0.0
H2802 H 0.51658 0.52269 0.70632 0.0
H2803 H 0.50641 0.50555 0.71579 0.0
H2804 H 0.52835 0.50837 0.71866 0.0
H2805 H 0.503 0.47703 0.64475 0.0
H2806 H 0.48735 0.48099 0.6601 0.0
H2807 H 0.49589 0.49777 0.64853 0.0
H2808 H 0.45202 0.49911 0.69364 0.0
H2809 H 0.47276 0.53974 0.66675 0.0
H2810 H 0.49089 0.48174 0.70759 0.0
H2811 H 0.48241 0.47221 0.68956 0.0
H2812 H 0.46887 0.47853 0.70606 0.0
H2813 H 0.51538 0.53134 0.67687 0.0
H2814 H 0.5016 0.54377 0.66452 0.0
H2815 H 0.50912 0.5243 0.65686 0.0
C2816 C 0.71439 0.92064 0.75358 0.0
C2817 C 0.70783 0.92953 0.74025 0.0
C2818 C 0.73092 0.92259 0.75836 0.0
C2819 C 0.74124 0.93353 0.74943 0.0
C2820 C 0.73444 0.94331 0.73662 0.0
C2821 C 0.71775 0.94127 0.73223 0.0
C2822 C 0.73757 0.91215 0.77232 0.0
C2823 C 0.74504 0.95507 0.72678 0.0
C2824 C 0.78334 0.9409 0.76889 0.0
C2825 C 0.79265 0.92816 0.76169 0.0
C2826 C 0.76674 0.94344 0.76443 0.0
C2827 C 0.7594 0.93314 0.75236 0.0
C2828 C 0.7691 0.92106 0.74424 0.0
C2829 C 0.78556 0.91865 0.74908 0.0
C2830 C 0.75681 0.95641 0.7734 0.0
C2831 C 0.76185 0.91 0.73107 0.0
H2832 H 0.70673 0.91169 0.75995 0.0
H2833 H 0.71277 0.94815 0.72188 0.0
H2834 H 0.74619 0.90275 0.7673 0.0
H2835 H 0.74462 0.9199 0.78115 0.0
H2836 H 0.72759 0.90567 0.77916 0.0
H2837 H 0.7375 0.96353 0.71903 0.0
H2838 H 0.75297 0.96256 0.73507 0.0
H2839 H 0.75333 0.9479 0.71855 0.0
H2840 H 0.78873 0.94829 0.77868 0.0
H2841 H 0.79273 0.90893 0.7433 0.0
H2842 H 0.74812 0.95029 0.78206 0.0
H2843 H 0.74931 0.96374 0.76459 0.0
H2844 H 0.7648 0.96495 0.78059 0.0
H2845 H 0.75272 0.9015 0.73675 0.0
H2846 H 0.77144 0.90247 0.72476 0.0
H2847 H 0.75524 0.91746 0.72167 0.0
C2848 C 0.78258 0.44214 0.26868 0.0
C2849 C 0.79253 0.43022 0.26096 0.0
C2850 C 0.76592 0.44415 0.26416 0.0
C2851 C 0.75916 0.43414 0.25151 0.0
C2852 C 0.76948 0.42293 0.24292 0.0
C2853 C 0.78598 0.42104 0.24781 0.0
C2854 C 0.75532 0.45621 0.27364 0.0
C2855 C 0.76285 0.41222 0.22915 0.0
C2856 C 0.7146 0.41995 0.25182 0.0
C2857 C 0.70773 0.42929 0.23895 0.0
C2858 C 0.73107 0.42217 0.2567 0.0
C2859 C 0.74102 0.4339 0.24838 0.0
C2860 C 0.73393 0.44404 0.23601 0.0
C2861 C 0.71731 0.44168 0.2315 0.0
C2862 C 0.73805 0.41129 0.27015 0.0
C2863 C 0.74413 0.45665 0.22683 0.0
H2864 H 0.78753 0.44928 0.27888 0.0
H2865 H 0.79364 0.41196 0.24164 0.0
H2866 H 0.74767 0.46369 0.26508 0.0
H2867 H 0.74676 0.4493 0.2818 0.0
H2868 H 0.76284 0.46467 0.2814 0.0
H2869 H 0.77282 0.40544 0.2226 0.0
H2870 H 0.75405 0.40306 0.2343 0.0
H2871 H 0.756 0.41983 0.22005 0.0
H2872 H 0.70723 0.41049 0.25779 0.0
H2873 H 0.71211 0.44893 0.22152 0.0
H2874 H 0.74466 0.41886 0.27947 0.0
H2875 H 0.74714 0.40257 0.26474 0.0
H2876 H 0.72832 0.404 0.27651 0.0
H2877 H 0.75159 0.46413 0.23556 0.0
H2878 H 0.73634 0.46507 0.2193 0.0
H2879 H 0.75287 0.4502 0.21847 0.0
C2880 C 0.00888 0.26524 0.09455 0.0
C2881 C 0.02502 0.27092 0.09678 0.0
C2882 C 0.00269 0.2522 0.10404 0.0
C2883 C 0.01283 0.24499 0.11637 0.0
C2884 C 0.02974 0.24942 0.11731 0.0
C2885 C 0.0357 0.26238 0.10738 0.0
C2886 C 0.98471 0.24758 0.10223 0.0
C2887 C 0.04105 0.24184 0.13001 0.0
C2888 C 0.9849 0.23834 0.15267 0.0
C2889 C 0.98 0.22198 0.15017 0.0
C2890 C 0.99732 0.24543 0.14296 0.0
C2891 C 0.00465 0.23601 0.13016 0.0
C2892 C 0.00106 0.21893 0.12887 0.0
C2893 C 0.98873 0.21205 0.13901 0.0
C2894 C 0.00108 0.26358 0.14515 0.0
C2895 C 0.00881 0.20836 0.11564 0.0
H2896 H 0.00068 0.27188 0.08628 0.0
H2897 H 0.04819 0.26689 0.10917 0.0
H2898 H 0.98317 0.23397 0.1024 0.0
H2899 H 0.97759 0.25273 0.11276 0.0
H2900 H 0.9793 0.25246 0.09059 0.0
H2901 H 0.0542 0.24285 0.1262 0.0
H2902 H 0.03956 0.24848 0.1419 0.0
H2903 H 0.03803 0.22865 0.13215 0.0
H2904 H 0.97813 0.24595 0.16137 0.0
H2905 H 0.98483 0.19939 0.13703 0.0
H2906 H 0.99529 0.27069 0.13496 0.0
H2907 H 0.01459 0.26581 0.14465 0.0
H2908 H 0.99627 0.26842 0.15706 0.0
H2909 H 0.00172 0.20982 0.104 0.0
H2910 H 0.00858 0.19509 0.11911 0.0
H2911 H 0.02175 0.21212 0.11318 0.0
C2912 C 0.98855 0.28665 0.35687 0.0
C2913 C 0.97852 0.27577 0.34789 0.0
C2914 C 0.00173 0.2806 0.36648 0.0
C2915 C 0.00486 0.26339 0.36688 0.0
C2916 C 0.99589 0.25273 0.35627 0.0
C2917 C 0.98273 0.25905 0.34703 0.0
C2918 C 0.01116 0.29244 0.37733 0.0
C2919 C 0.99902 0.23433 0.35592 0.0
C2920 C 0.03849 0.23843 0.38718 0.0
C2921 C 0.02934 0.23116 0.39993 0.0
C2922 C 0.03141 0.25079 0.37722 0.0
C2923 C 0.01493 0.25584 0.38028 0.0
C2924 C 0.00668 0.25012 0.39462 0.0
C2925 C 0.01392 0.23765 0.40415 0.0
C2926 C 0.04079 0.25686 0.36233 0.0
C2927 C 0.98928 0.2555 0.39867 0.0
H2928 H 0.98523 0.2996 0.35757 0.0
H2929 H 0.97502 0.25069 0.33995 0.0
H2930 H 0.00536 0.29275 0.38974 0.0
H2931 H 0.0242 0.28852 0.37888 0.0
H2932 H 0.01089 0.30517 0.37221 0.0
H2933 H 0.99242 0.22816 0.34559 0.0
H2934 H 0.01241 0.23174 0.3547 0.0
H2935 H 0.99475 0.22875 0.3677 0.0
H2936 H 0.05039 0.23326 0.38385 0.0
H2937 H 0.00689 0.23192 0.41402 0.0
H2938 H 0.03789 0.26998 0.35963 0.0
H2939 H 0.03718 0.24943 0.35139 0.0
H2940 H 0.05434 0.25553 0.36409 0.0
H2941 H 0.98792 0.26904 0.39716 0.0
H2942 H 0.98574 0.25211 0.41149 0.0
H2943 H 0.98052 0.24942 0.39004 0.0
C2944 C 0.98878 0.23682 0.59414 0.0
C2945 C 0.97289 0.23088 0.5973 0.0
C2946 C 0.99567 0.24928 0.60394 0.0
C2947 C 0.98653 0.25559 0.61748 0.0
C2948 C 0.96973 0.25109 0.61938 0.0
C2949 C 0.96304 0.23872 0.60916 0.0
C2950 C 0.01349 0.25405 0.6011 0.0
C2951 C 0.95942 0.25781 0.63335 0.0
C2952 C 0.01677 0.2588 0.65243 0.0
C2953 C 0.02179 0.27525 0.65109 0.0
C2954 C 0.00376 0.25269 0.64284 0.0
C2955 C 0.99582 0.26328 0.63137 0.0
C2956 C 0.99961 0.28036 0.63136 0.0
C2957 C 0.01262 0.28621 0.64132 0.0
C2958 C 0.99988 0.23445 0.64366 0.0
C2959 C 0.99122 0.29215 0.61963 0.0
H2960 H 0.99635 0.23071 0.58493 0.0
H2961 H 0.95075 0.234 0.61166 0.0
H2962 H 0.01511 0.2676 0.60222 0.0
H2963 H 0.02136 0.24808 0.6106 0.0
H2964 H 0.01793 0.2501 0.58872 0.0
H2965 H 0.94602 0.25702 0.63048 0.0
H2966 H 0.96178 0.25042 0.64465 0.0
H2967 H 0.96265 0.27084 0.6361 0.0
H2968 H 0.02387 0.25038 0.66007 0.0
H2969 H 0.01659 0.29895 0.64023 0.0
H2970 H 0.00473 0.22825 0.63243 0.0
H2971 H 0.98634 0.2324 0.64404 0.0
H2972 H 0.00551 0.22847 0.65465 0.0
H2973 H 0.99771 0.29187 0.60756 0.0
H2974 H 0.99167 0.30502 0.62438 0.0
H2975 H 0.97816 0.28863 0.61748 0.0
C2976 C 0.98733 0.26408 0.90227 0.0
C2977 C 0.97147 0.27013 0.89919 0.0
C2978 C 0.99383 0.25111 0.89287 0.0
C2979 C 0.98432 0.2444 0.87978 0.0
C2980 C 0.96758 0.24915 0.87797 0.0
C2981 C 0.96128 0.26203 0.8878 0.0
C2982 C 0.0116 0.24613 0.89562 0.0
C2983 C 0.9569 0.24205 0.86446 0.0
C2984 C 0.01422 0.23876 0.84494 0.0
C2985 C 0.01898 0.22233 0.84725 0.0
C2986 C 0.00128 0.24559 0.85412 0.0
C2987 C 0.9932 0.23579 0.86618 0.0
C2988 C 0.99666 0.21867 0.86712 0.0
C2989 C 0.00959 0.21207 0.85754 0.0
C2990 C 0.99772 0.26382 0.85232 0.0
C2991 C 0.98808 0.2077 0.87947 0.0
H2992 H 0.99515 0.2704 0.91114 0.0
H2993 H 0.94902 0.26684 0.88536 0.0
H2994 H 0.01293 0.23251 0.89518 0.0
H2995 H 0.0194 0.25142 0.88567 0.0
H2996 H 0.01637 0.25062 0.90768 0.0
H2997 H 0.94357 0.24313 0.86759 0.0
H2998 H 0.9591 0.249 0.85286 0.0
H2999 H 0.95989 0.22889 0.86213 0.0
H3000 H 0.02151 0.24662 0.83691 0.0
H3001 H 0.01337 0.19935 0.85937 0.0
H3002 H 0.00286 0.27056 0.8631 0.0
H3003 H 0.98422 0.26611 0.85202 0.0
H3004 H 0.0033 0.26904 0.84092 0.0
H3005 H 0.99455 0.20857 0.89153 0.0
H3006 H 0.98833 0.19458 0.87547 0.0
H3007 H 0.97507 0.21155 0.88139 0.0
C3008 C 0.03776 0.73847 0.89389 0.0
C3009 C 0.02634 0.72868 0.90246 0.0
C3010 C 0.03237 0.75199 0.88437 0.0
C3011 C 0.01527 0.75564 0.8836 0.0
C3012 C 0.00409 0.74694 0.89392 0.0
C3013 C 0.00978 0.73348 0.90311 0.0
C3014 C 0.04476 0.76119 0.87396 0.0
C3015 C 0.98579 0.75061 0.89389 0.0
C3016 C 0.99072 0.78922 0.8631 0.0
C3017 C 0.98344 0.77997 0.85043 0.0
C3018 C 0.0032 0.78227 0.87299 0.0
C3019 C 0.00829 0.76581 0.86998 0.0
C3020 C 0.00272 0.75756 0.85558 0.0
C3021 C 0.99015 0.76469 0.84608 0.0
C3022 C 0.00924 0.79171 0.88785 0.0
C3023 C 0.0082 0.7402 0.85154 0.0
H3024 H 0.0506 0.7347 0.89338 0.0
H3025 H 0.00102 0.72593 0.90988 0.0
H3026 H 0.04575 0.75512 0.86172 0.0
H3027 H 0.04099 0.77421 0.87195 0.0
H3028 H 0.05719 0.76098 0.87977 0.0
H3029 H 0.97918 0.74404 0.90396 0.0
H3030 H 0.98356 0.76405 0.89528 0.0
H3031 H 0.98035 0.7467 0.88192 0.0
H3032 H 0.98541 0.80104 0.86649 0.0
H3033 H 0.98444 0.75758 0.83626 0.0
H3034 H 0.02229 0.78866 0.89071 0.0
H3035 H 0.00164 0.78834 0.89875 0.0
H3036 H 0.00812 0.80525 0.88592 0.0
H3037 H 0.02173 0.73888 0.85317 0.0
H3038 H 0.00495 0.73669 0.83867 0.0
H3039 H 0.00207 0.7314 0.86008 0.0
C3040 C 0.51789 0.25781 0.15218 0.0
C3041 C 0.52221 0.27442 0.15043 0.0
C3042 C 0.50474 0.25108 0.14323 0.0
C3043 C 0.49593 0.26121 0.13198 0.0
C3044 C 0.49911 0.27841 0.13153 0.0
C3045 C 0.51228 0.28488 0.14087 0.0
C3046 C 0.50156 0.23273 0.14448 0.0
C3047 C 0.48981 0.2897 0.12001 0.0
C3048 C 0.48775 0.23383 0.09566 0.0
C3049 C 0.4722 0.22756 0.09973 0.0
C3050 C 0.49478 0.24667 0.10486 0.0
C3051 C 0.48617 0.25299 0.11874 0.0
C3052 C 0.46963 0.24805 0.12162 0.0
C3053 C 0.46277 0.23532 0.11198 0.0
C3054 C 0.51227 0.25187 0.101 0.0
C3055 C 0.4599 0.25472 0.13602 0.0
H3056 H 0.52556 0.24979 0.15969 0.0
H3057 H 0.51571 0.29775 0.13948 0.0
H3058 H 0.48813 0.23022 0.14555 0.0
H3059 H 0.50607 0.22653 0.13311 0.0
H3060 H 0.50792 0.22712 0.15526 0.0
H3061 H 0.49009 0.30267 0.12447 0.0
H3062 H 0.4957 0.28934 0.10764 0.0
H3063 H 0.47677 0.28574 0.11857 0.0
H3064 H 0.49499 0.22775 0.08616 0.0
H3065 H 0.45076 0.23033 0.11518 0.0
H3066 H 0.52081 0.24626 0.11015 0.0
H3067 H 0.51358 0.26548 0.10186 0.0
H3068 H 0.51616 0.24786 0.08847 0.0
H3069 H 0.46319 0.24769 0.14732 0.0
H3070 H 0.4464 0.25338 0.13396 0.0
H3071 H 0.46279 0.26792 0.1383 0.0
C3072 C 0.98947 0.76521 0.40412 0.0
C3073 C 0.97331 0.77064 0.40141 0.0
C3074 C 0.9961 0.75221 0.39487 0.0
C3075 C 0.9864 0.74477 0.38233 0.0
C3076 C 0.96944 0.74889 0.38096 0.0
C3077 C 0.96303 0.76186 0.39061 0.0
C3078 C 0.01412 0.74793 0.39714 0.0
C3079 C 0.95856 0.74101 0.36807 0.0
C3080 C 0.01536 0.73889 0.34675 0.0
C3081 C 0.02072 0.72271 0.34945 0.0
C3082 C 0.00248 0.74562 0.3561 0.0
C3083 C 0.9951 0.73599 0.36873 0.0
C3084 C 0.99918 0.71903 0.37015 0.0
C3085 C 0.012 0.71252 0.36038 0.0
C3086 C 0.99823 0.76364 0.35378 0.0
C3087 C 0.99137 0.70824 0.38316 0.0
H3088 H 0.99735 0.77203 0.41254 0.0
H3089 H 0.95053 0.76616 0.38847 0.0
H3090 H 0.01592 0.73436 0.39711 0.0
H3091 H 0.02139 0.75313 0.38674 0.0
H3092 H 0.01916 0.75299 0.40886 0.0
H3093 H 0.94533 0.7417 0.37165 0.0
H3094 H 0.96009 0.74767 0.35619 0.0
H3095 H 0.96196 0.72789 0.36601 0.0
H3096 H 0.02212 0.7467 0.33821 0.0
H3097 H 0.01625 0.7 0.3625 0.0
H3098 H 0.0035 0.77093 0.36413 0.0
H3099 H 0.98466 0.76546 0.35386 0.0
H3100 H 0.00325 0.76862 0.34201 0.0
H3101 H 0.99815 0.70981 0.39497 0.0
H3102 H 0.99199 0.69499 0.37965 0.0
H3103 H 0.97829 0.71169 0.38533 0.0
C3104 C 0.50737 0.2661 0.59676 0.0
C3105 C 0.52403 0.27048 0.59785 0.0
C3106 C 0.50099 0.25309 0.60616 0.0
C3107 C 0.51152 0.24449 0.6172 0.0
C3108 C 0.52873 0.24768 0.61696 0.0
C3109 C 0.53484 0.2607 0.60717 0.0
C3110 C 0.48261 0.24987 0.60563 0.0
C3111 C 0.54044 0.23861 0.62824 0.0
C3112 C 0.48559 0.23705 0.65475 0.0
C3113 C 0.47919 0.22141 0.65128 0.0
C3114 C 0.49802 0.24391 0.64488 0.0
C3115 C 0.50381 0.23502 0.63095 0.0
C3116 C 0.49881 0.21841 0.62865 0.0
C3117 C 0.4865 0.21174 0.63894 0.0
C3118 C 0.50332 0.2615 0.64814 0.0
C3119 C 0.50492 0.20838 0.6142 0.0
H3120 H 0.49907 0.27367 0.58945 0.0
H3121 H 0.54774 0.26417 0.60808 0.0
H3122 H 0.48009 0.23642 0.60496 0.0
H3123 H 0.4768 0.25464 0.6171 0.0
H3124 H 0.47662 0.25598 0.5949 0.0
H3125 H 0.55325 0.23884 0.62334 0.0
H3126 H 0.54049 0.24471 0.64052 0.0
H3127 H 0.53657 0.22558 0.63004 0.0
H3128 H 0.47986 0.2445 0.66431 0.0
H3129 H 0.48139 0.19966 0.63618 0.0
H3130 H 0.49733 0.26982 0.63903 0.0
H3131 H 0.51688 0.26282 0.64673 0.0
H3132 H 0.49978 0.26566 0.66073 0.0
H3133 H 0.4974 0.21136 0.60314 0.0
H3134 H 0.50376 0.19492 0.61664 0.0
H3135 H 0.518 0.21128 0.61129 0.0
C3136 C 0.1086 0.03781 0.26246 0.0
C3137 C 0.09883 0.02688 0.27165 0.0
C3138 C 0.11823 0.03199 0.24919 0.0
C3139 C 0.11787 0.01496 0.24516 0.0
C3140 C 0.10639 0.00444 0.25318 0.0
C3141 C 0.09715 0.01051 0.26645 0.0
C3142 C 0.12998 0.04371 0.24074 0.0
C3143 C 0.1052 0.98627 0.24905 0.0
C3144 C 0.13894 0.99043 0.21165 0.0
C3145 C 0.15087 0.98228 0.22117 0.0
C3146 C 0.12912 0.00293 0.21868 0.0
C3147 C 0.13144 0.0072 0.23549 0.0
C3148 C 0.14507 0.00056 0.24427 0.0
C3149 C 0.15449 0.98801 0.23703 0.0
C3150 C 0.11506 0.01003 0.20874 0.0
C3151 C 0.14835 0.00505 0.26207 0.0
H3152 H 0.10994 0.05049 0.26656 0.0
H3153 H 0.08949 0.00213 0.27356 0.0
H3154 H 0.14217 0.04314 0.24697 0.0
H3155 H 0.1318 0.04035 0.22758 0.0
H3156 H 0.12546 0.05665 0.24148 0.0
H3157 H 0.09424 0.98038 0.25484 0.0
H3158 H 0.10449 0.98444 0.2355 0.0
H3159 H 0.11644 0.97983 0.25355 0.0
H3160 H 0.13607 0.98587 0.19938 0.0
H3161 H 0.16375 0.98164 0.24434 0.0
H3162 H 0.11259 0.02306 0.2122 0.0
H3163 H 0.10368 0.00279 0.21122 0.0
H3164 H 0.11766 0.00938 0.19529 0.0
H3165 H 0.14748 0.01859 0.2639 0.0
H3166 H 0.16074 0.00084 0.26621 0.0
H3167 H 0.13891 0.99913 0.27007 0.0
C3168 C 0.21237 0.36064 0.51107 0.0
C3169 C 0.22272 0.34988 0.51982 0.0
C3170 C 0.2187 0.37035 0.4981 0.0
C3171 C 0.23565 0.36909 0.49394 0.0
C3172 C 0.24546 0.35663 0.50139 0.0
C3173 C 0.23889 0.34732 0.51438 0.0
C3174 C 0.2077 0.38313 0.4902 0.0
C3175 C 0.26349 0.35448 0.49709 0.0
C3176 C 0.26123 0.39076 0.46148 0.0
C3177 C 0.26992 0.4018 0.47158 0.0
C3178 C 0.24836 0.38109 0.46806 0.0
C3179 C 0.24424 0.38267 0.485 0.0
C3180 C 0.25157 0.39544 0.49449 0.0
C3181 C 0.26446 0.40472 0.48768 0.0
C3182 C 0.24056 0.36797 0.45739 0.0
C3183 C 0.24731 0.39794 0.51248 0.0
H3184 H 0.19985 0.36268 0.51539 0.0
H3185 H 0.24684 0.33893 0.52118 0.0
H3186 H 0.20911 0.39502 0.49687 0.0
H3187 H 0.21109 0.38522 0.47709 0.0
H3188 H 0.1945 0.37943 0.49089 0.0
H3189 H 0.26866 0.34287 0.50227 0.0
H3190 H 0.26525 0.35437 0.48351 0.0
H3191 H 0.27067 0.36502 0.50214 0.0
H3192 H 0.26556 0.38844 0.44902 0.0
H3193 H 0.27122 0.41332 0.49543 0.0
H3194 H 0.22746 0.36587 0.46083 0.0
H3195 H 0.24731 0.35617 0.4591 0.0
H3196 H 0.24121 0.37135 0.4441 0.0
H3197 H 0.23373 0.39781 0.5143 0.0
H3198 H 0.25227 0.40978 0.51734 0.0
H3199 H 0.25261 0.38769 0.51988 0.0
C3200 C 0.85981 0.51159 0.71252 0.0
C3201 C 0.84838 0.51955 0.72278 0.0
C3202 C 0.87012 0.4991 0.71886 0.0
C3203 C 0.86876 0.49463 0.73572 0.0
C3204 C 0.85562 0.5011 0.74533 0.0
C3205 C 0.84571 0.51365 0.73877 0.0
C3206 C 0.88363 0.4922 0.70806 0.0
C3207 C 0.85335 0.49638 0.76324 0.0
C3208 C 0.89275 0.46378 0.76129 0.0
C3209 C 0.90287 0.47464 0.77019 0.0
C3210 C 0.88264 0.4697 0.74843 0.0
C3211 C 0.88286 0.48675 0.74453 0.0
C3212 C 0.89471 0.49719 0.7521 0.0
C3213 C 0.90445 0.49102 0.76497 0.0
C3214 C 0.87053 0.45806 0.74039 0.0
C3215 C 0.89576 0.51538 0.74805 0.0
H3216 H 0.86192 0.51627 0.70015 0.0
H3217 H 0.83682 0.51985 0.74664 0.0
H3218 H 0.89504 0.49957 0.70986 0.0
H3219 H 0.88645 0.47919 0.7113 0.0
H3220 H 0.8802 0.49287 0.69479 0.0
H3221 H 0.84123 0.50055 0.76814 0.0
H3222 H 0.85428 0.48282 0.76483 0.0
H3223 H 0.86326 0.50217 0.77076 0.0
H3224 H 0.89149 0.4511 0.7654 0.0
H3225 H 0.91237 0.49935 0.77185 0.0
H3226 H 0.86812 0.46156 0.72736 0.0
H3227 H 0.85863 0.45855 0.74717 0.0
H3228 H 0.87509 0.44512 0.74078 0.0
H3229 H 0.89577 0.51732 0.7345 0.0
H3230 H 0.90703 0.52117 0.75331 0.0
H3231 H 0.88481 0.52183 0.75319 0.0
C3232 C 0.76149 0.15518 0.01428 0.0
C3233 C 0.77735 0.15168 0.02011 0.0
C3234 C 0.75443 0.14571 0.00166 0.0
C3235 C 0.76334 0.13214 0.9951 0.0
C3236 C 0.78013 0.1299 0.99953 0.0
C3237 C 0.787 0.1398 0.01205 0.0
C3238 C 0.73666 0.14892 0.99698 0.0
C3239 C 0.79019 0.11586 0.99258 0.0
C3240 C 0.73265 0.09765 0.99134 0.0
C3241 C 0.72772 0.09925 0.97488 0.0
C3242 C 0.74574 0.10701 0.99762 0.0
C3243 C 0.75384 0.11853 0.98721 0.0
C3244 C 0.75009 0.11884 0.97012 0.0
C3245 C 0.73701 0.10908 0.96409 0.0
C3246 C 0.74956 0.10589 0.01586 0.0
C3247 C 0.75863 0.13064 0.95853 0.0
H3248 H 0.75408 0.1644 0.02058 0.0
H3249 H 0.79926 0.13704 0.0167 0.0
H3250 H 0.73498 0.14799 0.98342 0.0
H3251 H 0.72863 0.13947 0.00285 0.0
H3252 H 0.73244 0.16131 0.0011 0.0
H3253 H 0.80363 0.11846 0.99346 0.0
H3254 H 0.78759 0.10447 0.99974 0.0
H3255 H 0.78694 0.11342 0.97949 0.0
H3256 H 0.72545 0.08995 0.99962 0.0
H3257 H 0.7331 0.11038 0.95135 0.0
H3258 H 0.74484 0.11709 0.02221 0.0
H3259 H 0.76309 0.10531 0.01793 0.0
H3260 H 0.74378 0.09488 0.02167 0.0
H3261 H 0.7523 0.14279 0.95901 0.0
H3262 H 0.75813 0.12612 0.94558 0.0
H3263 H 0.77172 0.13257 0.96209 0.0
C3264 C 0.15086 0.01255 0.75976 0.0
C3265 C 0.14824 0.01842 0.77577 0.0
C3266 C 0.1409 3e-05 0.7532 0.0
C3267 C 0.12775 0.99361 0.76281 0.0
C3268 C 0.12644 0.99805 0.77969 0.0
C3269 C 0.13681 0.01047 0.78603 0.0
C3270 C 0.14313 0.99533 0.73529 0.0
C3271 C 0.11289 0.99122 0.79048 0.0
C3272 C 0.09195 0.99022 0.73367 0.0
C3273 C 0.09337 0.97382 0.7285 0.0
C3274 C 0.1018 0.99634 0.74648 0.0
C3275 C 0.1136 0.98583 0.75402 0.0
C3276 C 0.11367 0.96876 0.75015 0.0
C3277 C 0.10344 0.9629 0.73737 0.0
C3278 C 0.10091 0.01455 0.75049 0.0
C3279 C 0.12574 0.95705 0.75815 0.0
H3280 H 0.15975 0.01874 0.75188 0.0
H3281 H 0.13473 0.01514 0.79842 0.0
H3282 H 0.14207 0.98177 0.73367 0.0
H3283 H 0.13328 0.00121 0.72777 0.0
H3284 H 0.15529 0.99939 0.73039 0.0
H3285 H 0.1163 0.99191 0.80376 0.0
H3286 H 0.1015 0.9986 0.78864 0.0
H3287 H 0.11004 0.9782 0.78727 0.0
H3288 H 0.08406 0.9986 0.72681 0.0
H3289 H 0.10458 0.95019 0.73329 0.0
H3290 H 0.11189 0.02091 0.74528 0.0
H3291 H 0.10098 0.01653 0.76404 0.0
H3292 H 0.08966 0.02042 0.74527 0.0
H3293 H 0.13761 0.95745 0.75132 0.0
H3294 H 0.12109 0.94415 0.7578 0.0
H3295 H 0.12824 0.96055 0.77116 0.0
C3296 C 0.23475 0.40248 0.01281 0.0
C3297 C 0.22871 0.39834 0.02843 0.0
C3298 C 0.24683 0.39277 0.00514 0.0
C3299 C 0.25259 0.37831 0.01316 0.0
C3300 C 0.24786 0.37516 0.02971 0.0
C3301 C 0.23594 0.38533 0.03723 0.0
C3302 C 0.25187 0.39692 0.98766 0.0
C3303 C 0.25384 0.36003 0.03877 0.0
C3304 C 0.25615 0.34548 0.98052 0.0
C3305 C 0.27292 0.34639 0.97651 0.0
C3306 C 0.24968 0.35456 0.99373 0.0
C3307 C 0.26023 0.36511 0.0029 0.0
C3308 C 0.27747 0.36482 0.99991 0.0
C3309 C 0.28367 0.35533 0.98672 0.0
C3310 C 0.23127 0.3541 0.99673 0.0
C3311 C 0.28916 0.37571 0.00948 0.0
H3312 H 0.22906 0.41255 0.00604 0.0
H3313 H 0.23108 0.38205 0.04928 0.0
H3314 H 0.26538 0.39533 0.98601 0.0
H3315 H 0.24557 0.38839 0.97897 0.0
H3316 H 0.24849 0.40978 0.98428 0.0
H3317 H 0.25264 0.36154 0.05236 0.0
H3318 H 0.24627 0.34924 0.035 0.0
H3319 H 0.2669 0.35725 0.03572 0.0
H3320 H 0.24789 0.33846 0.97265 0.0
H3321 H 0.29666 0.35609 0.98354 0.0
H3322 H 0.22564 0.36582 0.99238 0.0
H3323 H 0.22859 0.35293 0.01011 0.0
H3324 H 0.22522 0.34371 0.99012 0.0
H3325 H 0.28898 0.38831 0.0041 0.0
H3326 H 0.30203 0.37099 0.00887 0.0
H3327 H 0.28539 0.37673 0.02262 0.0
C3328 C 0.90412 0.5106 0.23553 0.0
C3329 C 0.90199 0.52676 0.22987 0.0
C3330 C 0.89436 0.50436 0.24835 0.0
C3331 C 0.88192 0.51448 0.25538 0.0
C3332 C 0.88112 0.53142 0.25107 0.0
C3333 C 0.89128 0.53742 0.23829 0.0
C3334 C 0.89603 0.48633 0.25286 0.0
C3335 C 0.86837 0.54275 0.25854 0.0
C3336 C 0.84566 0.48632 0.26054 0.0
C3337 C 0.84805 0.48081 0.27671 0.0
C3338 C 0.85529 0.4991 0.25404 0.0
C3339 C 0.86787 0.50624 0.26391 0.0
C3340 C 0.86886 0.50215 0.2809 0.0
C3341 C 0.85884 0.4894 0.28716 0.0
C3342 C 0.85341 0.50338 0.23597 0.0
C3343 C 0.88174 0.50977 0.29197 0.0
H3344 H 0.91249 0.50242 0.229 0.0
H3345 H 0.88959 0.54994 0.23381 0.0
H3346 H 0.89572 0.48469 0.26645 0.0
H3347 H 0.88551 0.47931 0.24756 0.0
H3348 H 0.90769 0.48089 0.24806 0.0
H3349 H 0.87243 0.55584 0.25795 0.0
H3350 H 0.85667 0.54163 0.25149 0.0
H3351 H 0.86577 0.53944 0.27158 0.0
H3352 H 0.83724 0.47964 0.25252 0.0
H3353 H 0.86073 0.48504 0.29969 0.0
H3354 H 0.86378 0.49787 0.22888 0.0
H3355 H 0.85384 0.51694 0.23414 0.0
H3356 H 0.84164 0.49863 0.23077 0.0
H3357 H 0.89346 0.50276 0.29075 0.0
H3358 H 0.87788 0.50929 0.30513 0.0
H3359 H 0.88423 0.52279 0.28851 0.0
C3360 C 0.7647 0.09807 0.50918 0.0
C3361 C 0.7702 0.10084 0.5253 0.0
C3362 C 0.75168 0.1073 0.50257 0.0
C3363 C 0.74427 0.11987 0.51226 0.0
C3364 C 0.74846 0.1213 0.52919 0.0
C3365 C 0.76146 0.11167 0.53557 0.0
C3366 C 0.74733 0.10496 0.48457 0.0
C3367 C 0.74059 0.1342 0.54007 0.0
C3368 C 0.73833 0.15523 0.48309 0.0
C3369 C 0.7222 0.15238 0.47765 0.0
C3370 C 0.74503 0.14605 0.49609 0.0
C3371 C 0.73544 0.13343 0.50353 0.0
C3372 C 0.71849 0.13192 0.49941 0.0
C3373 C 0.71201 0.14151 0.48644 0.0
C3374 C 0.76304 0.14847 0.50037 0.0
C3375 C 0.70771 0.11896 0.50732 0.0
H3376 H 0.77148 0.08961 0.5013 0.0
H3377 H 0.76581 0.11385 0.54806 0.0
H3378 H 0.73374 0.1049 0.48284 0.0
H3379 H 0.75242 0.11539 0.47726 0.0
H3380 H 0.75244 0.09327 0.47952 0.0
H3381 H 0.74126 0.1306 0.55329 0.0
H3382 H 0.7473 0.14606 0.53856 0.0
H3383 H 0.72749 0.1363 0.53666 0.0
H3384 H 0.74614 0.16372 0.47627 0.0
H3385 H 0.69952 0.13926 0.48213 0.0
H3386 H 0.77038 0.1381 0.4952 0.0
H3387 H 0.76483 0.14849 0.51394 0.0
H3388 H 0.76799 0.16021 0.49528 0.0
H3389 H 0.70929 0.1071 0.50065 0.0
H3390 H 0.69446 0.12246 0.50667 0.0
H3391 H 0.71116 0.11692 0.52043 0.0
C3392 C 0.21437 0.14087 0.98818 0.0
C3393 C 0.22536 0.14758 0.97659 0.0
C3394 C 0.22033 0.13194 0.00187 0.0
C3395 C 0.23758 0.12982 0.00391 0.0
C3396 C 0.24863 0.13791 0.99299 0.0
C3397 C 0.24237 0.1466 0.97945 0.0
C3398 C 0.20813 0.12376 0.01333 0.0
C3399 C 0.26716 0.13632 0.9948 0.0
C3400 C 0.26306 0.11345 0.03905 0.0
C3401 C 0.26869 0.09873 0.03193 0.0
C3402 C 0.25093 0.12301 0.03112 0.0
C3403 C 0.24447 0.1176 0.0158 0.0
C3404 C 0.24844 0.10159 0.00994 0.0
C3405 C 0.26073 0.09242 0.01798 0.0
C3406 C 0.24676 0.1398 0.038 0.0
C3407 C 0.24149 0.09509 0.99391 0.0
H3408 H 0.20119 0.14158 0.98594 0.0
H3409 H 0.25086 0.15195 0.97057 0.0
H3410 H 0.20614 0.11082 0.00928 0.0
H3411 H 0.21278 0.12345 0.02621 0.0
H3412 H 0.196 0.13018 0.01312 0.0
H3413 H 0.27395 0.14454 0.98616 0.0
H3414 H 0.27099 0.13937 0.0076 0.0
H3415 H 0.27094 0.12338 0.9923 0.0
H3416 H 0.26941 0.1184 0.04976 0.0
H3417 H 0.26524 0.08108 0.01245 0.0
H3418 H 0.23362 0.14295 0.03573 0.0
H3419 H 0.25447 0.14927 0.03177 0.0
H3420 H 0.24925 0.14046 0.05148 0.0
H3421 H 0.22811 0.09786 0.99294 0.0
H3422 H 0.24331 0.08155 0.99269 0.0
H3423 H 0.24781 0.10124 0.98341 0.0
C3424 C 0.71532 0.86221 0.51382 0.0
C3425 C 0.72561 0.85107 0.52215 0.0
C3426 C 0.72162 0.87214 0.50101 0.0
C3427 C 0.73848 0.87067 0.49654 0.0
C3428 C 0.74818 0.85789 0.50354 0.0
C3429 C 0.74167 0.84839 0.51643 0.0
C3430 C 0.71076 0.88536 0.49366 0.0
C3431 C 0.76609 0.85552 0.49888 0.0
C3432 C 0.76326 0.89294 0.46381 0.0
C3433 C 0.77238 0.90368 0.47386 0.0
C3434 C 0.75062 0.88312 0.4706 0.0
C3435 C 0.74712 0.88429 0.48771 0.0
C3436 C 0.7549 0.89672 0.49728 0.0
C3437 C 0.76759 0.90612 0.49026 0.0
C3438 C 0.74241 0.87029 0.45989 0.0
C3439 C 0.75128 0.89878 0.51547 0.0
H3440 H 0.70291 0.86437 0.51838 0.0
H3441 H 0.74957 0.83974 0.52293 0.0
H3442 H 0.71274 0.8971 0.50044 0.0
H3443 H 0.7138 0.88756 0.48048 0.0
H3444 H 0.69748 0.88204 0.4947 0.0
H3445 H 0.7711 0.84364 0.50358 0.0
H3446 H 0.76763 0.85584 0.48527 0.0
H3447 H 0.77356 0.86573 0.50416 0.0
H3448 H 0.76708 0.89098 0.45112 0.0
H3449 H 0.77466 0.91449 0.49797 0.0
H3450 H 0.72938 0.86826 0.46363 0.0
H3451 H 0.74907 0.85839 0.46121 0.0
H3452 H 0.74276 0.8739 0.44665 0.0
H3453 H 0.73777 0.89871 0.51775 0.0
H3454 H 0.75651 0.91044 0.52046 0.0
H3455 H 0.75674 0.88829 0.52241 0.0
C3456 C 0.35838 0.01304 0.71297 0.0
C3457 C 0.3467 0.02103 0.72292 0.0
C3458 C 0.3686 0.00065 0.71963 0.0
C3459 C 0.3669 0.9963 0.73649 0.0
C3460 C 0.35351 0.00275 0.74575 0.0
C3461 C 0.34369 0.01521 0.73888 0.0
C3462 C 0.38239 0.99375 0.70919 0.0
C3463 C 0.35086 0.99815 0.76363 0.0
C3464 C 0.39086 0.96591 0.7627 0.0
C3465 C 0.40076 0.97694 0.77163 0.0
C3466 C 0.38082 0.97163 0.74969 0.0
C3467 C 0.38088 0.98866 0.74567 0.0
C3468 C 0.39249 0.99929 0.75334 0.0
C3469 C 0.40216 0.99331 0.76635 0.0
C3470 C 0.36896 0.95979 0.74157 0.0
C3471 C 0.39337 0.01747 0.74921 0.0
H3472 H 0.36076 0.01766 0.70062 0.0
H3473 H 0.33459 0.02142 0.74651 0.0
H3474 H 0.39375 0.00112 0.71128 0.0
H3475 H 0.38514 0.98075 0.71253 0.0
H3476 H 0.37931 0.9944 0.69583 0.0
H3477 H 0.33858 0.00222 0.76821 0.0
H3478 H 0.35191 0.9846 0.76536 0.0
H3479 H 0.36052 0.00411 0.77134 0.0
H3480 H 0.38973 0.95323 0.76686 0.0
H3481 H 0.40991 0.00178 0.77327 0.0
H3482 H 0.36664 0.96319 0.7285 0.0
H3483 H 0.35698 0.96014 0.74822 0.0
H3484 H 0.37369 0.94692 0.74208 0.0
H3485 H 0.39362 0.01934 0.73565 0.0
H3486 H 0.40445 0.02347 0.75465 0.0
H3487 H 0.38222 0.0238 0.75409 0.0
C3488 C 0.237 0.60771 0.96521 0.0
C3489 C 0.22762 0.59776 0.97582 0.0
C3490 C 0.24977 0.61771 0.97149 0.0
C3491 C 0.25318 0.61749 0.98866 0.0
C3492 C 0.24501 0.60588 0.99893 0.0
C3493 C 0.23219 0.59631 0.9924 0.0
C3494 C 0.25833 0.62967 0.96007 0.0
C3495 C 0.24851 0.60485 0.01723 0.0
C3496 C 0.28603 0.63943 0.01347 0.0
C3497 C 0.27626 0.65134 0.02133 0.0
C3498 C 0.27925 0.62921 0.00114 0.0
C3499 C 0.26245 0.6312 0.99667 0.0
C3500 C 0.25335 0.64472 0.00307 0.0
C3501 C 0.26032 0.65449 0.01552 0.0
C3502 C 0.28948 0.61518 0.99442 0.0
C3503 C 0.23555 0.64764 0.99834 0.0
H3504 H 0.23337 0.60891 0.95238 0.0
H3505 H 0.22493 0.58853 0.00054 0.0
H3506 H 0.25196 0.64179 0.96066 0.0
H3507 H 0.27139 0.63161 0.96373 0.0
H3508 H 0.25793 0.6253 0.94707 0.0
H3509 H 0.24283 0.59373 0.02293 0.0
H3510 H 0.262 0.60455 0.01956 0.0
H3511 H 0.24344 0.61595 0.02348 0.0
H3512 H 0.29834 0.63691 0.01812 0.0
H3513 H 0.25281 0.66373 0.02167 0.0
H3514 H 0.28637 0.61259 0.98132 0.0
H3515 H 0.28687 0.60384 0.00166 0.0
H3516 H 0.3029 0.61786 0.9954 0.0
H3517 H 0.2339 0.64656 0.98478 0.0
H3518 H 0.23115 0.66002 0.00233 0.0
H3519 H 0.22764 0.63815 0.00428 0.0
C3520 C 0.7367 0.88942 0.03674 0.0
C3521 C 0.7288 0.9013 0.02695 0.0
C3522 C 0.74928 0.87946 0.03005 0.0
C3523 C 0.75396 0.88165 0.01334 0.0
C3524 C 0.7475 0.89517 0.00427 0.0
C3525 C 0.7348 0.90468 0.01113 0.0
C3526 C 0.75604 0.86542 0.04025 0.0
C3527 C 0.75247 0.89832 0.98657 0.0
C3528 C 0.786 0.85862 0.98821 0.0
C3529 C 0.77562 0.8486 0.97864 0.0
C3530 C 0.77944 0.86851 0.00091 0.0
C3531 C 0.76223 0.86811 0.00406 0.0
C3532 C 0.75217 0.85648 0.99568 0.0
C3533 C 0.75898 0.84701 0.98293 0.0
C3534 C 0.79063 0.88053 0.00969 0.0
C3535 C 0.73383 0.85525 0.99892 0.0
H3536 H 0.73191 0.88673 0.04895 0.0
H3537 H 0.72862 0.91389 0.00361 0.0
H3538 H 0.74899 0.85401 0.03743 0.0
H3539 H 0.76922 0.86304 0.03732 0.0
H3540 H 0.75483 0.86797 0.05368 0.0
H3541 H 0.74842 0.9107 0.98224 0.0
H3542 H 0.76606 0.89739 0.98511 0.0
H3543 H 0.74673 0.88885 0.97848 0.0
H3544 H 0.79889 0.8599 0.9848 0.0
H3545 H 0.75102 0.83915 0.97555 0.0
H3546 H 0.78676 0.88238 0.0227 0.0
H3547 H 0.79004 0.89267 0.00337 0.0
H3548 H 0.80368 0.87626 0.00948 0.0
H3549 H 0.73132 0.85481 0.01237 0.0
H3550 H 0.7283 0.84414 0.99306 0.0
H3551 H 0.72755 0.86635 0.99386 0.0
C3552 C 0.34577 0.48578 0.76131 0.0
C3553 C 0.34925 0.48002 0.7772 0.0
C3554 C 0.35502 0.4986 0.75432 0.0
C3555 C 0.36839 0.50545 0.76333 0.0
C3556 C 0.3707 0.50094 0.78008 0.0
C3557 C 0.361 0.48823 0.78689 0.0
C3558 C 0.35177 0.50332 0.73657 0.0
C3559 C 0.38459 0.50811 0.79021 0.0
C3560 C 0.40289 0.51119 0.73287 0.0
C3561 C 0.40086 0.52775 0.72846 0.0
C3562 C 0.39361 0.50422 0.74567 0.0
C3563 C 0.3817 0.51401 0.75398 0.0
C3564 C 0.38084 0.53118 0.7507 0.0
C3565 C 0.39055 0.53792 0.73794 0.0
C3566 C 0.39531 0.48594 0.74901 0.0
C3567 C 0.36853 0.54211 0.75942 0.0
H3568 H 0.33667 0.47935 0.75386 0.0
H3569 H 0.36377 0.48361 0.79915 0.0
H3570 H 0.35235 0.51692 0.73499 0.0
H3571 H 0.36139 0.49777 0.72854 0.0
H3572 H 0.3395 0.49892 0.73227 0.0
H3573 H 0.38211 0.5069 0.80365 0.0
H3574 H 0.39617 0.50133 0.78739 0.0
H3575 H 0.38663 0.52132 0.7872 0.0
H3576 H 0.41095 0.50339 0.72553 0.0
H3577 H 0.38892 0.55074 0.73443 0.0
H3578 H 0.38439 0.47934 0.74399 0.0
H3579 H 0.39581 0.48352 0.76248 0.0
H3580 H 0.40657 0.48067 0.74319 0.0
H3581 H 0.35638 0.54107 0.75317 0.0
H3582 H 0.3724 0.55527 0.75904 0.0
H3583 H 0.36687 0.53832 0.77248 0.0
C3584 C 0.61202 0.96101 0.23843 0.0
C3585 C 0.59967 0.9704 0.23078 0.0
C3586 C 0.62202 0.96802 0.2508 0.0
C3587 C 0.61945 0.9847 0.25544 0.0
C3588 C 0.60545 0.99327 0.24936 0.0
C3589 C 0.59585 0.98607 0.23692 0.0
C3590 C 0.63649 0.95828 0.25732 0.0
C3591 C 0.60189 0.01091 0.25428 0.0
C3592 C 0.64286 0.01167 0.28564 0.0
C3593 C 0.65211 0.02117 0.27451 0.0
C3594 C 0.63325 0.99833 0.27996 0.0
C3595 C 0.63308 0.99455 0.26287 0.0
C3596 C 0.64405 0.0029 0.25207 0.0
C3597 C 0.6533 0.01622 0.25802 0.0
C3598 C 0.62209 0.9895 0.29197 0.0
C3599 C 0.64466 0.99907 0.23382 0.0
H3600 H 0.61503 0.9489 0.23356 0.0
H3601 H 0.58627 0.99328 0.23093 0.0
H3602 H 0.6476 0.96115 0.24984 0.0
H3603 H 0.63922 0.96154 0.27035 0.0
H3604 H 0.63417 0.94478 0.25647 0.0
H3605 H 0.58927 0.01482 0.25055 0.0
H3606 H 0.60315 0.01251 0.26782 0.0
H3607 H 0.61095 0.01923 0.24822 0.0
H3608 H 0.64191 0.01557 0.29842 0.0
H3609 H 0.66057 0.02356 0.24948 0.0
H3610 H 0.62026 0.97639 0.28841 0.0
H3611 H 0.60982 0.99561 0.29204 0.0
H3612 H 0.62713 0.99002 0.30472 0.0
H3613 H 0.64562 0.98556 0.23175 0.0
H3614 H 0.65526 0.0052 0.22761 0.0
H3615 H 0.6331 0.00339 0.22785 0.0
C3616 C 0.03498 0.76141 0.61139 0.0
C3617 C 0.02477 0.76943 0.59996 0.0
C3618 C 0.02857 0.74899 0.62173 0.0
C3619 C 0.01167 0.74462 0.6204 0.0
C3620 C 0.00208 0.75118 0.6073 0.0
C3621 C 0.00871 0.76368 0.59737 0.0
C3622 C 0.03934 0.74204 0.63524 0.0
C3623 C 0.98413 0.74659 0.60506 0.0
C3624 C 0.98628 0.7135 0.64425 0.0
C3625 C 0.97738 0.72425 0.65449 0.0
C3626 C 0.99904 0.71955 0.6341 0.0
C3627 C 0.00288 0.73663 0.63443 0.0
C3628 C 0.9953 0.74695 0.64638 0.0
C3629 C 0.98251 0.74064 0.65614 0.0
C3630 C 0.00706 0.70805 0.62185 0.0
C3631 C 0.99927 0.76515 0.64753 0.0
H3632 H 0.0474 0.76598 0.61345 0.0
H3633 H 0.00086 0.76993 0.58848 0.0
H3634 H 0.03748 0.74934 0.64669 0.0
H3635 H 0.0361 0.72901 0.63798 0.0
H3636 H 0.05262 0.74274 0.63186 0.0
H3637 H 0.97922 0.7508 0.59296 0.0
H3638 H 0.98246 0.73302 0.60598 0.0
H3639 H 0.97667 0.7524 0.61499 0.0
H3640 H 0.98222 0.70081 0.64292 0.0
H3641 H 0.97562 0.74889 0.66414 0.0
H3642 H 0.02011 0.71153 0.61953 0.0
H3643 H 0.00033 0.70876 0.60994 0.0
H3644 H 0.0066 0.69505 0.62622 0.0
H3645 H 0.01282 0.76716 0.64745 0.0
H3646 H 0.99407 0.77083 0.65889 0.0
H3647 H 0.99401 0.77165 0.63667 0.0
C3648 C 0.01868 0.75805 0.15323 0.0
C3649 C 0.02275 0.77478 0.15207 0.0
C3650 C 0.00565 0.75143 0.14401 0.0
C3651 C 0.99671 0.76179 0.13308 0.0
C3652 C 0.99967 0.77904 0.13318 0.0
C3653 C 0.0127 0.78539 0.14279 0.0
C3654 C 0.00267 0.73302 0.1447 0.0
C3655 C 0.99028 0.79056 0.12196 0.0
C3656 C 0.98837 0.73548 0.09599 0.0
C3657 C 0.97283 0.7291 0.09992 0.0
C3658 C 0.99546 0.74801 0.10556 0.0
C3659 C 0.98693 0.7539 0.11967 0.0
C3660 C 0.9704 0.74888 0.12247 0.0
C3661 C 0.96348 0.73648 0.11246 0.0
C3662 C 0.01293 0.75335 0.10178 0.0
C3663 C 0.96075 0.75506 0.13715 0.0
H3664 H 0.02643 0.7499 0.16052 0.0
H3665 H 0.01592 0.79836 0.14184 0.0
H3666 H 0.98928 0.73033 0.14567 0.0
H3667 H 0.00726 0.72722 0.13315 0.0
H3668 H 0.00909 0.72715 0.15531 0.0
H3669 H 0.9905 0.80343 0.12672 0.0
H3670 H 0.99613 0.79052 0.10956 0.0
H3671 H 0.97725 0.78657 0.12046 0.0
H3672 H 0.99558 0.72967 0.08629 0.0
H3673 H 0.95149 0.73137 0.11558 0.0
H3674 H 0.02152 0.74741 0.11067 0.0
H3675 H 0.01425 0.76691 0.10311 0.0
H3676 H 0.01674 0.74977 0.08908 0.0
H3677 H 0.96418 0.74772 0.14821 0.0
H3678 H 0.94724 0.75371 0.13517 0.0
H3679 H 0.96359 0.7682 0.13979 0.0
C3680 C 0.49039 0.73706 0.5935 0.0
C3681 C 0.4743 0.73169 0.59671 0.0
C3682 C 0.49776 0.74925 0.60328 0.0
C3683 C 0.48891 0.75585 0.61688 0.0
C3684 C 0.47197 0.75194 0.61885 0.0
C3685 C 0.46479 0.73986 0.60863 0.0
C3686 C 0.51571 0.7534 0.60037 0.0
C3687 C 0.46199 0.75894 0.63293 0.0
C3688 C 0.51923 0.75826 0.65188 0.0
C3689 C 0.52448 0.77466 0.65075 0.0
C3690 C 0.50619 0.75244 0.64215 0.0
C3691 C 0.4985 0.76324 0.63072 0.0
C3692 C 0.50262 0.78025 0.63079 0.0
C3693 C 0.5156 0.78581 0.64093 0.0
C3694 C 0.50193 0.73428 0.64286 0.0
C3695 C 0.49459 0.79223 0.61902 0.0
H3696 H 0.4977 0.73067 0.58425 0.0
H3697 H 0.45236 0.73556 0.61119 0.0
H3698 H 0.51785 0.76687 0.60163 0.0
H3699 H 0.52343 0.74704 0.60975 0.0
H3700 H 0.51992 0.74943 0.58792 0.0
H3701 H 0.44855 0.75848 0.63022 0.0
H3702 H 0.46432 0.75152 0.64422 0.0
H3703 H 0.46558 0.77189 0.63561 0.0
H3704 H 0.52611 0.74968 0.65954 0.0
H3705 H 0.51978 0.7985 0.63998 0.0
H3706 H 0.50671 0.72803 0.63163 0.0
H3707 H 0.48835 0.73251 0.64316 0.0
H3708 H 0.50739 0.72813 0.65386 0.0
H3709 H 0.50105 0.79168 0.60694 0.0
H3710 H 0.49542 0.80511 0.62369 0.0
H3711 H 0.48142 0.7891 0.61688 0.0
C3712 C 0.48443 0.73977 0.15358 0.0
C3713 C 0.47922 0.72347 0.15137 0.0
C3714 C 0.49716 0.74638 0.14394 0.0
C3715 C 0.50455 0.73651 0.13151 0.0
C3716 C 0.50062 0.71948 0.13056 0.0
C3717 C 0.48794 0.7131 0.14061 0.0
C3718 C 0.50124 0.7645 0.14576 0.0
C3719 C 0.50842 0.70843 0.11776 0.0
C3720 C 0.51008 0.76486 0.09537 0.0
C3721 C 0.52624 0.77037 0.0979 0.0
C3722 C 0.50348 0.7521 0.10497 0.0
C3723 C 0.51321 0.745 0.11768 0.0
C3724 C 0.53015 0.74919 0.11893 0.0
C3725 C 0.53654 0.76189 0.10891 0.0
C3726 C 0.48547 0.74773 0.10283 0.0
C3727 C 0.54106 0.74169 0.13203 0.0
H3728 H 0.47766 0.74773 0.16196 0.0
H3729 H 0.48379 0.70048 0.13883 0.0
H3730 H 0.5148 0.76645 0.14555 0.0
H3731 H 0.49585 0.77146 0.13525 0.0
H3732 H 0.49624 0.76975 0.15742 0.0
H3733 H 0.5079 0.69526 0.12158 0.0
H3734 H 0.50158 0.70969 0.10595 0.0
H3735 H 0.52147 0.7119 0.11545 0.0
H3736 H 0.50218 0.77147 0.0868 0.0
H3737 H 0.54903 0.76627 0.11093 0.0
H3738 H 0.4782 0.75321 0.11309 0.0
H3739 H 0.4837 0.73415 0.10325 0.0
H3740 H 0.48041 0.75244 0.09097 0.0
H3741 H 0.5394 0.74858 0.14376 0.0
H3742 H 0.5543 0.74242 0.1285 0.0
H3743 H 0.53776 0.72859 0.13435 0.0
C3744 C 0.09564 0.51384 0.76223 0.0
C3745 C 0.09989 0.52931 0.76857 0.0
C3746 C 0.10508 0.50651 0.74975 0.0
C3747 C 0.11937 0.51474 0.74384 0.0
C3748 C 0.12238 0.53128 0.74867 0.0
C3749 C 0.11252 0.53844 0.76107 0.0
C3750 C 0.10106 0.48904 0.74461 0.0
C3751 C 0.13717 0.54066 0.74235 0.0
C3752 C 0.15265 0.48255 0.74133 0.0
C3753 C 0.15169 0.47787 0.72475 0.0
C3754 C 0.14347 0.49589 0.74734 0.0
C3755 C 0.13281 0.50457 0.73648 0.0
C3756 C 0.13317 0.50101 0.71935 0.0
C3757 C 0.1427 0.48763 0.71363 0.0
C3758 C 0.14386 0.49947 0.76565 0.0
C3759 C 0.12232 0.51016 0.7073 0.0
H3760 H 0.08585 0.50682 0.76812 0.0
H3761 H 0.11588 0.55039 0.76611 0.0
H3762 H 0.10247 0.48752 0.73107 0.0
H3763 H 0.10977 0.48038 0.75072 0.0
H3764 H 0.08828 0.48549 0.74813 0.0
H3765 H 0.1353 0.55422 0.74344 0.0
H3766 H 0.14817 0.53729 0.7498 0.0
H3767 H 0.13982 0.53754 0.72928 0.0
H3768 H 0.15972 0.47502 0.74987 0.0
H3769 H 0.14192 0.48394 0.70078 0.0
H3770 H 0.13209 0.49537 0.77137 0.0
H3771 H 0.14513 0.51291 0.76791 0.0
H3772 H 0.15419 0.493 0.77196 0.0
H3773 H 0.10996 0.50425 0.70697 0.0
H3774 H 0.12755 0.50973 0.69462 0.0
H3775 H 0.12064 0.52325 0.711 0.0
C3776 C 0.2136 0.85875 0.01076 0.0
C3777 C 0.22443 0.84932 0.02041 0.0
C3778 C 0.21965 0.86841 0.99761 0.0
C3779 C 0.23681 0.86844 0.99419 0.0
C3780 C 0.24732 0.85727 0.00265 0.0
C3781 C 0.241 0.84798 0.01577 0.0
C3782 C 0.20794 0.87978 0.98864 0.0
C3783 C 0.26565 0.85651 0.9992 0.0
C3784 C 0.26208 0.88976 0.96141 0.0
C3785 C 0.2696 0.90196 0.97111 0.0
C3786 C 0.24954 0.87973 0.96807 0.0
C3787 C 0.24459 0.88211 0.98468 0.0
C3788 C 0.2506 0.89596 0.99356 0.0
C3789 C 0.26322 0.90559 0.98672 0.0
C3790 C 0.24314 0.86543 0.95801 0.0
C3791 C 0.24536 0.89931 0.01115 0.0
H3792 H 0.20076 0.85983 0.01442 0.0
H3793 H 0.24932 0.84057 0.02323 0.0
H3794 H 0.20791 0.89201 0.99484 0.0
H3795 H 0.21177 0.88166 0.97562 0.0
H3796 H 0.19512 0.87489 0.98888 0.0
H3797 H 0.27161 0.84576 0.00531 0.0
H3798 H 0.26799 0.85571 0.98573 0.0
H3799 H 0.27165 0.86795 0.0038 0.0
H3800 H 0.26716 0.8869 0.94935 0.0
H3801 H 0.26911 0.91504 0.99416 0.0
H3802 H 0.23003 0.86273 0.96098 0.0
H3803 H 0.2505 0.85423 0.96089 0.0
H3804 H 0.24427 0.86791 0.94456 0.0
H3805 H 0.23177 0.89816 0.01246 0.0
H3806 H 0.24913 0.91183 0.01532 0.0
H3807 H 0.25116 0.89008 0.01946 0.0
C3808 C 0.90461 0.98716 0.26208 0.0
C3809 C 0.90218 0.9711 0.26792 0.0
C3810 C 0.89495 0.99346 0.24921 0.0
C3811 C 0.88229 0.98351 0.24231 0.0
C3812 C 0.88121 0.96662 0.24678 0.0
C3813 C 0.89127 0.96056 0.25961 0.0
C3814 C 0.89693 0.01141 0.24453 0.0
C3815 C 0.86824 0.95547 0.23944 0.0
C3816 C 0.84626 0.01205 0.23719 0.0
C3817 C 0.8485 0.01735 0.22092 0.0
C3818 C 0.85589 0.99929 0.24375 0.0
C3819 C 0.86831 0.99193 0.23383 0.0
C3820 C 0.86918 0.99585 0.2168 0.0
C3821 C 0.85917 0.0086 0.21048 0.0
C3822 C 0.85415 0.99522 0.26188 0.0
C3823 C 0.88189 0.98801 0.20568 0.0
H3824 H 0.91311 0.99526 0.26855 0.0
H3825 H 0.88934 0.94813 0.26422 0.0
H3826 H 0.89653 0.01294 0.23093 0.0
H3827 H 0.88659 0.01867 0.24986 0.0
H3828 H 0.90872 0.01666 0.24919 0.0
H3829 H 0.87201 0.94229 0.24022 0.0
H3830 H 0.85654 0.95694 0.24643 0.0
H3831 H 0.86575 0.95864 0.22634 0.0
H3832 H 0.83795 0.01885 0.2452 0.0
H3833 H 0.86097 0.0128 0.19789 0.0
H3834 H 0.86468 0.00063 0.26879 0.0
H3835 H 0.85438 0.98167 0.26384 0.0
H3836 H 0.84251 0.00021 0.26717 0.0
H3837 H 0.89365 0.99497 0.20667 0.0
H3838 H 0.87787 0.98834 0.19256 0.0
H3839 H 0.88436 0.97502 0.20928 0.0
C3840 C 0.78652 0.64022 0.51443 0.0
C3841 C 0.77654 0.65195 0.52231 0.0
C3842 C 0.77997 0.63008 0.50191 0.0
C3843 C 0.7632 0.63195 0.49727 0.0
C3844 C 0.75392 0.64534 0.5037 0.0
C3845 C 0.76065 0.65504 0.51632 0.0
C3846 C 0.79041 0.61623 0.49514 0.0
C3847 C 0.73613 0.64814 0.4988 0.0
C3848 C 0.73809 0.60863 0.46546 0.0
C3849 C 0.7287 0.59853 0.47592 0.0
C3850 C 0.7508 0.61861 0.47189 0.0
C3851 C 0.75413 0.61823 0.48906 0.0
C3852 C 0.74599 0.60647 0.49918 0.0
C3853 C 0.73323 0.59691 0.4925 0.0
C3854 C 0.75936 0.63071 0.46062 0.0
C3855 C 0.74942 0.60526 0.51748 0.0
H3856 H 0.79879 0.63776 0.5192 0.0
H3857 H 0.75299 0.66414 0.52248 0.0
H3858 H 0.78793 0.60481 0.5023 0.0
H3859 H 0.78741 0.61369 0.48201 0.0
H3860 H 0.80379 0.6191 0.4962 0.0
H3861 H 0.73157 0.66042 0.5029 0.0
H3862 H 0.73464 0.64721 0.48522 0.0
H3863 H 0.72826 0.63849 0.50454 0.0
H3864 H 0.7345 0.60994 0.45262 0.0
H3865 H 0.72599 0.589 0.50053 0.0
H3866 H 0.77238 0.63271 0.46439 0.0
H3867 H 0.7529 0.64278 0.46124 0.0
H3868 H 0.75909 0.62642 0.44758 0.0
H3869 H 0.7629 0.60501 0.51986 0.0
H3870 H 0.74378 0.59405 0.52304 0.0
H3871 H 0.74426 0.61627 0.52383 0.0
C3872 C 0.11213 0.45912 0.23982 0.0
C3873 C 0.09866 0.46776 0.23326 0.0
C3874 C 0.12228 0.46645 0.25187 0.0
C3875 C 0.11872 0.48269 0.25731 0.0
C3876 C 0.1037 0.49029 0.25246 0.0
C3877 C 0.09396 0.4828 0.24028 0.0
C3878 C 0.13788 0.45772 0.25707 0.0
C3879 C 0.0991 0.50739 0.25831 0.0
C3880 C 0.14315 0.51 0.28659 0.0
C3881 C 0.15113 0.52027 0.27516 0.0
C3882 C 0.13357 0.49652 0.28117 0.0
C3883 C 0.13211 0.49338 0.26401 0.0
C3884 C 0.1417 0.50268 0.25268 0.0
C3885 C 0.15098 0.51607 0.25841 0.0
C3886 C 0.12389 0.48671 0.29369 0.0
C3887 C 0.14088 0.49962 0.23428 0.0
H3888 H 0.11585 0.44752 0.23423 0.0
H3889 H 0.08355 0.48947 0.2351 0.0
H3890 H 0.14827 0.46197 0.24921 0.0
H3891 H 0.14104 0.46055 0.2701 0.0
H3892 H 0.13671 0.44412 0.25559 0.0
H3893 H 0.08593 0.51028 0.25575 0.0
H3894 H 0.10137 0.50869 0.27175 0.0
H3895 H 0.10688 0.51664 0.25183 0.0
H3896 H 0.1432 0.51331 0.29957 0.0
H3897 H 0.15728 0.52398 0.24961 0.0
H3898 H 0.12234 0.47368 0.28976 0.0
H3899 H 0.11142 0.49223 0.29506 0.0
H3900 H 0.13 0.48698 0.30598 0.0
H3901 H 0.1426 0.48631 0.23154 0.0
H3902 H 0.15039 0.50674 0.22741 0.0
H3903 H 0.12853 0.50328 0.22957 0.0
C3904 C 0.23532 0.8913 0.53773 0.0
C3905 C 0.22625 0.90172 0.5273 0.0
C3906 C 0.24835 0.88167 0.5314 0.0
C3907 C 0.25227 0.88266 0.51436 0.0
C3908 C 0.24444 0.89476 0.50441 0.0
C3909 C 0.2314 0.90401 0.51099 0.0
C3910 C 0.25664 0.86926 0.54253 0.0
C3911 C 0.24843 0.89661 0.48628 0.0
C3912 C 0.28515 0.86136 0.489 0.0
C3913 C 0.27533 0.84986 0.48059 0.0
C3914 C 0.27837 0.87112 0.5017 0.0
C3915 C 0.26151 0.86916 0.50594 0.0
C3916 C 0.25233 0.856 0.49891 0.0
C3917 C 0.25932 0.84665 0.48617 0.0
C3918 C 0.28871 0.8847 0.50914 0.0
C3919 C 0.23443 0.85311 0.50333 0.0
H3920 H 0.23123 0.88946 0.55035 0.0
H3921 H 0.22437 0.91214 0.50298 0.0
H3922 H 0.25023 0.85719 0.54138 0.0
H3923 H 0.26976 0.8674 0.53905 0.0
H3924 H 0.25599 0.87316 0.55567 0.0
H3925 H 0.24292 0.90798 0.48092 0.0
H3926 H 0.26198 0.89698 0.48432 0.0
H3927 H 0.24352 0.8858 0.4794 0.0
H3928 H 0.29753 0.86392 0.48456 0.0
H3929 H 0.25177 0.83772 0.47961 0.0
H3930 H 0.28538 0.88687 0.52226 0.0
H3931 H 0.2865 0.89634 0.50226 0.0
H3932 H 0.3021 0.88177 0.50834 0.0
H3933 H 0.23267 0.85351 0.5169 0.0
H3934 H 0.22988 0.84103 0.49867 0.0
H3935 H 0.22672 0.86302 0.49782 0.0
C3936 C 0.85586 0.98889 0.78476 0.0
C3937 C 0.85005 0.97702 0.77357 0.0
C3938 C 0.86436 0.00299 0.77908 0.0
C3939 C 0.86698 0.0051 0.76189 0.0
C3940 C 0.85986 0.99377 0.7506 0.0
C3941 C 0.85154 0.97989 0.7566 0.0
C3942 C 0.87148 0.01487 0.79152 0.0
C3943 C 0.86202 0.9956 0.73214 0.0
C3944 C 0.88154 0.04086 0.73635 0.0
C3945 C 0.8968 0.03465 0.73113 0.0
C3946 C 0.87233 0.03258 0.74851 0.0
C3947 C 0.87861 0.01775 0.75534 0.0
C3948 C 0.89507 0.01294 0.7518 0.0
C3949 C 0.90392 0.02136 0.73952 0.0
C3950 C 0.85504 0.0384 0.75227 0.0
C3951 C 0.90246 0.99749 0.75915 0.0
H3952 H 0.85476 0.98664 0.79791 0.0
H3953 H 0.84687 0.97079 0.74795 0.0
H3954 H 0.88449 0.01141 0.79411 0.0
H3955 H 0.87142 0.02773 0.78678 0.0
H3956 H 0.86455 0.01445 0.80336 0.0
H3957 H 0.85471 0.98637 0.72509 0.0
H3958 H 0.8582 0.00812 0.7281 0.0
H3959 H 0.87524 0.99403 0.72886 0.0
H3960 H 0.87598 0.05107 0.72968 0.0
H3961 H 0.91569 0.01652 0.73532 0.0
H3962 H 0.85183 0.03614 0.7654 0.0
H3963 H 0.84615 0.03142 0.74451 0.0
H3964 H 0.85355 0.05176 0.74952 0.0
H3965 H 0.89938 0.99648 0.77245 0.0
H3966 H 0.91611 0.99722 0.75772 0.0
H3967 H 0.89725 0.98652 0.75279 0.0
C3968 C 0.76651 0.59447 0.01067 0.0
C3969 C 0.77215 0.59739 0.02671 0.0
C3970 C 0.75371 0.60392 0.00392 0.0
C3971 C 0.74673 0.61692 0.01336 0.0
C3972 C 0.75111 0.61864 0.03022 0.0
C3973 C 0.76382 0.60875 0.03676 0.0
C3974 C 0.74912 0.60128 0.98603 0.0
C3975 C 0.7438 0.63211 0.0408 0.0
C3976 C 0.74076 0.65219 0.98388 0.0
C3977 C 0.72426 0.65003 0.97928 0.0
C3978 C 0.74775 0.6427 0.99653 0.0
C3979 C 0.73805 0.63046 0.00445 0.0
C3980 C 0.72092 0.62947 0.00103 0.0
C3981 C 0.71416 0.6394 0.98846 0.0
C3982 C 0.76598 0.64456 6e-05 0.0
C3983 C 0.71009 0.61679 0.00933 0.0
H3984 H 0.77301 0.58566 0.00294 0.0
H3985 H 0.76833 0.61109 0.04916 0.0
H3986 H 0.73553 0.60178 0.98439 0.0
H3987 H 0.75461 0.61127 0.9784 0.0
H3988 H 0.75368 0.58924 0.98129 0.0
H3989 H 0.74486 0.6291 0.05414 0.0
H3990 H 0.75058 0.6438 0.03852 0.0
H3991 H 0.73062 0.63424 0.03773 0.0
H3992 H 0.74852 0.66048 0.97676 0.0
H3993 H 0.70139 0.63766 0.98479 0.0
H3994 H 0.77277 0.63392 0.9947 0.0
H3995 H 0.7683 0.64462 0.01355 0.0
H3996 H 0.77111 0.65609 0.99467 0.0
H3997 H 0.71135 0.60482 0.00276 0.0
H3998 H 0.69688 0.62049 0.00895 0.0
H3999 H 0.71381 0.61482 0.02237 0.0
C4000 C 0.24122 0.65349 0.48292 0.0
C4001 C 0.22502 0.65103 0.47752 0.0
C4002 C 0.24788 0.64384 0.49561 0.0
C4003 C 0.23816 0.63113 0.50273 0.0
C4004 C 0.22119 0.62992 0.49863 0.0
C4005 C 0.21475 0.64 0.48601 0.0
C4006 C 0.26592 0.64594 0.4999 0.0
C4007 C 0.21031 0.61681 0.50614 0.0
C4008 C 0.26718 0.59551 0.50798 0.0
C4009 C 0.27247 0.5979 0.52423 0.0
C4010 C 0.25428 0.60494 0.5014 0.0
C4011 C 0.24683 0.61735 0.51126 0.0
C4012 C 0.25081 0.61841 0.52826 0.0
C4013 C 0.26364 0.60856 0.53462 0.0
C4014 C 0.25011 0.60298 0.48332 0.0
C4015 C 0.24294 0.63119 0.53928 0.0
H4016 H 0.2491 0.66209 0.47632 0.0
H4017 H 0.20222 0.63804 0.48171 0.0
H4018 H 0.26774 0.64555 0.51347 0.0
H4019 H 0.27314 0.63566 0.49441 0.0
H4020 H 0.27099 0.65778 0.49514 0.0
H4021 H 0.19708 0.6204 0.50557 0.0
H4022 H 0.21183 0.60513 0.49912 0.0
H4023 H 0.21372 0.61435 0.51918 0.0
H4024 H 0.27404 0.5872 0.50001 0.0
H4025 H 0.26785 0.61047 0.54719 0.0
H4026 H 0.25548 0.61343 0.47626 0.0
H4027 H 0.23655 0.60319 0.48143 0.0
H4028 H 0.25509 0.59128 0.47815 0.0
H4029 H 0.24963 0.64307 0.53789 0.0
H4030 H 0.2436 0.62747 0.55248 0.0
H4031 H 0.22983 0.63332 0.53589 0.0
C4032 C 0.76267 0.38806 0.96093 0.0
C4033 C 0.7699 0.40101 0.96982 0.0
C4034 C 0.75041 0.37813 0.96823 0.0
C4035 C 0.74545 0.38139 0.98469 0.0
C4036 C 0.75111 0.39591 0.99268 0.0
C4037 C 0.76346 0.40543 0.9852 0.0
C4038 C 0.74439 0.36306 0.95912 0.0
C4039 C 0.74583 0.40018 0.01005 0.0
C4040 C 0.71517 0.35805 0.01179 0.0
C4041 C 0.72627 0.3493 0.02179 0.0
C4042 C 0.72096 0.36753 0.99839 0.0
C4043 C 0.73814 0.36806 0.99505 0.0
C4044 C 0.74901 0.35767 0.00402 0.0
C4045 C 0.74294 0.34854 0.01737 0.0
C4046 C 0.7089 0.37812 0.98895 0.0
C4047 C 0.76738 0.35748 0.00069 0.0
H4048 H 0.76781 0.38456 0.94906 0.0
H4049 H 0.76917 0.41544 0.99205 0.0
H4050 H 0.75194 0.35223 0.96282 0.0
H4051 H 0.73131 0.3603 0.96217 0.0
H4052 H 0.74559 0.36463 0.94554 0.0
H4053 H 0.74914 0.41308 0.01337 0.0
H4054 H 0.73231 0.39858 0.01155 0.0
H4055 H 0.75205 0.39174 0.01889 0.0
H4056 H 0.70226 0.35869 0.01528 0.0
H4057 H 0.75146 0.34166 0.02508 0.0
H4058 H 0.71267 0.37954 0.97585 0.0
H4059 H 0.7085 0.3906 0.99459 0.0
H4060 H 0.69624 0.37285 0.98942 0.0
H4061 H 0.76984 0.35605 0.9873 0.0
H4062 H 0.77374 0.34733 0.0074 0.0
H4063 H 0.77288 0.36939 0.00469 0.0
C4064 C 0.34628 0.51442 0.23882 0.0
C4065 C 0.349 0.52009 0.22275 0.0
C4066 C 0.35594 0.50174 0.2455 0.0
C4067 C 0.36892 0.49489 0.23594 0.0
C4068 C 0.37037 0.4992 0.21904 0.0
C4069 C 0.36029 0.51181 0.21258 0.0
C4070 C 0.35358 0.49724 0.26345 0.0
C4071 C 0.38373 0.49193 0.2083 0.0
C4072 C 0.40451 0.49017 0.26519 0.0
C4073 C 0.4025 0.47382 0.27034 0.0
C4074 C 0.39493 0.49666 0.25236 0.0
C4075 C 0.38276 0.48659 0.24478 0.0
C4076 C 0.38204 0.46954 0.24866 0.0
C4077 C 0.39202 0.46329 0.26146 0.0
C4078 C 0.39649 0.51482 0.24836 0.0
C4079 C 0.36955 0.4583 0.24065 0.0
H4080 H 0.3375 0.52087 0.24664 0.0
H4081 H 0.36246 0.51631 0.20015 0.0
H4082 H 0.35418 0.48366 0.26515 0.0
H4083 H 0.36364 0.50283 0.27091 0.0
H4084 H 0.34158 0.50174 0.26834 0.0
H4085 H 0.38039 0.49268 0.19502 0.0
H4086 H 0.39534 0.49898 0.21016 0.0
H4087 H 0.38619 0.47885 0.21157 0.0
H4088 H 0.41268 0.49825 0.27209 0.0
H4089 H 0.3904 0.45065 0.26556 0.0
H4090 H 0.38576 0.52158 0.25357 0.0
H4091 H 0.39648 0.5168 0.2348 0.0
H4092 H 0.40796 0.52026 0.25357 0.0
H4093 H 0.35764 0.4593 0.24735 0.0
H4094 H 0.37362 0.4452 0.24115 0.0
H4095 H 0.36734 0.46179 0.22758 0.0
C4096 C 0.23806 0.10919 0.46378 0.0
C4097 C 0.22915 0.09883 0.4744 0.0
C4098 C 0.25096 0.1191 0.46992 0.0
C4099 C 0.25491 0.11844 0.48696 0.0
C4100 C 0.24732 0.10635 0.49711 0.0
C4101 C 0.2344 0.09682 0.49072 0.0
C4102 C 0.259 0.13149 0.45858 0.0
C4103 C 0.2514 0.10483 0.51525 0.0
C4104 C 0.28711 0.14088 0.51215 0.0
C4105 C 0.27693 0.1522 0.52039 0.0
C4106 C 0.28066 0.13082 0.49952 0.0
C4107 C 0.26377 0.1323 0.49517 0.0
C4108 C 0.25423 0.14532 0.50197 0.0
C4109 C 0.26089 0.15498 0.51465 0.0
C4110 C 0.2914 0.11744 0.49228 0.0
C4111 C 0.23629 0.14771 0.49741 0.0
H4112 H 0.2339 0.1108 0.45115 0.0
H4113 H 0.22749 0.08873 0.49887 0.0
H4114 H 0.25231 0.14342 0.45947 0.0
H4115 H 0.27207 0.13371 0.46207 0.0
H4116 H 0.2585 0.12732 0.44552 0.0
H4117 H 0.24615 0.09341 0.52077 0.0
H4118 H 0.26496 0.10477 0.51717 0.0
H4119 H 0.24628 0.11561 0.522 0.0
H4120 H 0.29951 0.13868 0.5167 0.0
H4121 H 0.25308 0.16379 0.52106 0.0
H4122 H 0.2881 0.11491 0.47922 0.0
H4123 H 0.28958 0.10587 0.4994 0.0
H4124 H 0.30468 0.12081 0.49298 0.0
H4125 H 0.23462 0.1471 0.48383 0.0
H4126 H 0.23142 0.15973 0.5019 0.0
H4127 H 0.2288 0.13768 0.503 0.0
C4128 C 0.7866 0.36022 0.48623 0.0
C4129 C 0.77678 0.34852 0.47812 0.0
C4130 C 0.77992 0.37002 0.49894 0.0
C4131 C 0.76317 0.36785 0.50351 0.0
C4132 C 0.75405 0.35449 0.49681 0.0
C4133 C 0.76091 0.34513 0.484 0.0
C4134 C 0.79018 0.38387 0.50598 0.0
C4135 C 0.7363 0.35138 0.50163 0.0
C4136 C 0.73773 0.39019 0.53572 0.0
C4137 C 0.72821 0.40033 0.52543 0.0
C4138 C 0.7506 0.38054 0.52912 0.0
C4139 C 0.75393 0.3813 0.51196 0.0
C4140 C 0.74563 0.39311 0.50206 0.0
C4141 C 0.73271 0.40234 0.50889 0.0
C4142 C 0.75931 0.36834 0.54017 0.0
C4143 C 0.74906 0.39473 0.48379 0.0
H4144 H 0.79885 0.36291 0.48153 0.0
H4145 H 0.75337 0.33606 0.47765 0.0
H4146 H 0.78758 0.39539 0.49902 0.0
H4147 H 0.78712 0.38615 0.51914 0.0
H4148 H 0.8036 0.38119 0.50491 0.0
H4149 H 0.73189 0.33912 0.4973 0.0
H4150 H 0.73478 0.35203 0.51523 0.0
H4151 H 0.72831 0.36103 0.49606 0.0
H4152 H 0.73415 0.3886 0.54853 0.0
H4153 H 0.72535 0.41028 0.501 0.0
H4154 H 0.77237 0.36661 0.53638 0.0
H4155 H 0.75304 0.35619 0.53929 0.0
H4156 H 0.75896 0.37236 0.55329 0.0
H4157 H 0.76255 0.39519 0.48143 0.0
H4158 H 0.74329 0.40598 0.47844 0.0
H4159 H 0.74405 0.38379 0.47722 0.0
C4160 C 0.38905 0.03485 0.23721 0.0
C4161 C 0.40137 0.02517 0.22989 0.0
C4162 C 0.37871 0.02816 0.24946 0.0
C4163 C 0.38095 0.01152 0.25438 0.0
C4164 C 0.39489 0.00262 0.24862 0.0
C4165 C 0.4048 0.0095 0.23623 0.0
C4166 C 0.36426 0.0382 0.25555 0.0
C4167 C 0.39809 0.98501 0.25386 0.0
C4168 C 0.35678 0.98586 0.28512 0.0
C4169 C 0.34748 0.97617 0.2742 0.0
C4170 C 0.36672 0.99881 0.27913 0.0
C4171 C 0.36712 0.00205 0.26194 0.0
C4172 C 0.35613 0.99355 0.25128 0.0
C4173 C 0.34657 0.98059 0.25754 0.0
C4174 C 0.37797 0.00777 0.29097 0.0
C4175 C 0.35577 0.99684 0.23291 0.0
H4176 H 0.38634 0.04696 0.23215 0.0
H4177 H 0.41435 0.00205 0.23049 0.0
H4178 H 0.35322 0.03525 0.24799 0.0
H4179 H 0.36131 0.03526 0.26861 0.0
H4180 H 0.36672 0.05165 0.25443 0.0
H4181 H 0.41071 0.98085 0.25041 0.0
H4182 H 0.39657 0.98363 0.26741 0.0
H4183 H 0.38901 0.97673 0.24777 0.0
H4184 H 0.35752 0.98236 0.29803 0.0
H4185 H 0.33927 0.97312 0.24916 0.0
H4186 H 0.37992 0.02078 0.28714 0.0
H4187 H 0.39018 0.00155 0.29114 0.0
H4188 H 0.37292 0.00756 0.30373 0.0
H4189 H 0.35517 0.0103 0.23043 0.0
H4190 H 0.34508 0.99079 0.2268 0.0
H4191 H 0.36728 0.99205 0.22719 0.0
C4192 C 0.60766 0.46346 0.7382 0.0
C4193 C 0.59702 0.47371 0.72919 0.0
C4194 C 0.61752 0.47001 0.75092 0.0
C4195 C 0.61647 0.48708 0.75464 0.0
C4196 C 0.60411 0.49684 0.74697 0.0
C4197 C 0.59469 0.49006 0.73417 0.0
C4198 C 0.63029 0.45911 0.75897 0.0
C4199 C 0.60217 0.51498 0.75085 0.0
C4200 C 0.63884 0.51244 0.78683 0.0
C4201 C 0.65002 0.52085 0.77666 0.0
C4202 C 0.62877 0.49985 0.78033 0.0
C4203 C 0.63015 0.49568 0.76339 0.0
C4204 C 0.64297 0.50274 0.75377 0.0
C4205 C 0.65261 0.51542 0.76049 0.0
C4206 C 0.61549 0.49245 0.79109 0.0
C4207 C 0.64525 0.49837 0.73577 0.0
H4208 H 0.60953 0.4508 0.73423 0.0
H4209 H 0.5864 0.49793 0.72716 0.0
H4210 H 0.64222 0.4605 0.75235 0.0
H4211 H 0.63232 0.46263 0.77206 0.0
H4212 H 0.62664 0.4459 0.7584 0.0
H4213 H 0.5905 0.5201 0.74575 0.0
H4214 H 0.60231 0.51708 0.76439 0.0
H4215 H 0.61266 0.52195 0.74543 0.0
H4216 H 0.63677 0.51679 0.79933 0.0
H4217 H 0.6613 0.52198 0.75268 0.0
H4218 H 0.61314 0.47935 0.78781 0.0
H4219 H 0.60382 0.49939 0.78926 0.0
H4220 H 0.61885 0.4932 0.80437 0.0
H4221 H 0.64479 0.4848 0.73399 0.0
H4222 H 0.65717 0.50304 0.73083 0.0
H4223 H 0.63508 0.5039 0.72842 0.0
C4224 C 0.48923 0.2878 0.8587 0.0
C4225 C 0.48027 0.27711 0.84844 0.0
C4226 C 0.50204 0.28168 0.86874 0.0
C4227 C 0.50584 0.2646 0.86832 0.0
C4228 C 0.49824 0.25437 0.8563 0.0
C4229 C 0.48542 0.26074 0.84663 0.0
C4230 C 0.51012 0.29311 0.88102 0.0
C4231 C 0.50217 0.23617 0.85503 0.0
C4232 C 0.53754 0.23927 0.89123 0.0
C4233 C 0.52716 0.23123 0.90251 0.0
C4234 C 0.53134 0.25191 0.88104 0.0
C4235 C 0.5145 0.25648 0.88235 0.0
C4236 C 0.50477 0.24992 0.89536 0.0
C4237 C 0.51119 0.23721 0.90514 0.0
C4238 C 0.54226 0.25889 0.86767 0.0
C4239 C 0.48689 0.25474 0.89759 0.0
H4240 H 0.48516 0.30047 0.86015 0.0
H4241 H 0.47848 0.25255 0.83861 0.0
H4242 H 0.5033 0.29252 0.89289 0.0
H4243 H 0.52312 0.28948 0.88344 0.0
H4244 H 0.50984 0.3061 0.87661 0.0
H4245 H 0.49694 0.23056 0.84365 0.0
H4246 H 0.51571 0.23413 0.85508 0.0
H4247 H 0.49691 0.22961 0.86586 0.0
H4248 H 0.54989 0.23453 0.88914 0.0
H4249 H 0.50322 0.23094 0.91391 0.0
H4250 H 0.53913 0.27196 0.86497 0.0
H4251 H 0.54048 0.25167 0.85616 0.0
H4252 H 0.55551 0.25809 0.87116 0.0
H4253 H 0.4854 0.26833 0.89682 0.0
H4254 H 0.48188 0.25045 0.90962 0.0
H4255 H 0.47938 0.24914 0.88757 0.0
C4256 C 0.51249 0.23668 0.34377 0.0
C4257 C 0.5186 0.22094 0.34729 0.0
C4258 C 0.49979 0.24357 0.35328 0.0
C4259 C 0.49342 0.23459 0.36689 0.0
C4260 C 0.49811 0.21788 0.36913 0.0
C4261 C 0.51074 0.21119 0.35922 0.0
C4262 C 0.49485 0.26127 0.35008 0.0
C4263 C 0.49131 0.20772 0.38317 0.0
C4264 C 0.48952 0.26515 0.40152 0.0
C4265 C 0.47302 0.27 0.39998 0.0
C4266 C 0.49587 0.25216 0.39207 0.0
C4267 C 0.48549 0.24402 0.38056 0.0
C4268 C 0.46836 0.24765 0.38033 0.0
C4269 C 0.46227 0.26067 0.39014 0.0
C4270 C 0.51415 0.24849 0.3931 0.0
C4271 C 0.45677 0.23902 0.36858 0.0
H4272 H 0.51864 0.24418 0.33452 0.0
H4273 H 0.51559 0.19902 0.362 0.0
H4274 H 0.48127 0.26275 0.35101 0.0
H4275 H 0.50059 0.26938 0.35954 0.0
H4276 H 0.4989 0.26556 0.33769 0.0
H4277 H 0.49237 0.19429 0.38056 0.0
H4278 H 0.49845 0.2104 0.39456 0.0
H4279 H 0.47818 0.21078 0.38562 0.0
H4280 H 0.49777 0.27235 0.40924 0.0
H4281 H 0.44949 0.26449 0.3889 0.0
H4282 H 0.5204 0.2532 0.38183 0.0
H4283 H 0.51633 0.23499 0.39374 0.0
H4284 H 0.51999 0.25438 0.40403 0.0
H4285 H 0.45706 0.24541 0.35646 0.0
H4286 H 0.44386 0.23934 0.37323 0.0
H4287 H 0.46048 0.22598 0.36656 0.0
C4288 C 0.48125 0.7573 0.35017 0.0
C4289 C 0.47698 0.77403 0.34997 0.0
C4290 C 0.49496 0.75173 0.35906 0.0
C4291 C 0.50453 0.76321 0.3682 0.0
C4292 C 0.50125 0.78034 0.36669 0.0
C4293 C 0.48744 0.78559 0.35749 0.0
C4294 C 0.49817 0.73336 0.35993 0.0
C4295 C 0.51132 0.79301 0.37589 0.0
C4296 C 0.51652 0.73973 0.40602 0.0
C4297 C 0.53135 0.73267 0.40076 0.0
C4298 C 0.50869 0.75191 0.39655 0.0
C4299 C 0.51573 0.75669 0.38125 0.0
C4300 C 0.53183 0.75125 0.3771 0.0
C4301 C 0.53951 0.73919 0.38697 0.0
C4302 C 0.49178 0.75777 0.40175 0.0
C4303 C 0.54 0.75642 0.36119 0.0
H4304 H 0.47321 0.7484 0.34419 0.0
H4305 H 0.4841 0.79856 0.35737 0.0
H4306 H 0.51141 0.73068 0.3577 0.0
H4307 H 0.49504 0.72874 0.37246 0.0
H4308 H 0.49071 0.72635 0.35079 0.0
H4309 H 0.51085 0.8052 0.36961 0.0
H4310 H 0.50616 0.79456 0.38849 0.0
H4311 H 0.5244 0.78912 0.37713 0.0
H4312 H 0.51023 0.73457 0.41667 0.0
H4313 H 0.55095 0.73357 0.38285 0.0
H4314 H 0.48224 0.75124 0.39437 0.0
H4315 H 0.49038 0.7712 0.39945 0.0
H4316 H 0.48939 0.7553 0.41504 0.0
H4317 H 0.53541 0.74851 0.35098 0.0
H4318 H 0.55363 0.75498 0.36189 0.0
H4319 H 0.53702 0.76943 0.3581 0.0
C4320 C 0.51063 0.71395 0.85992 0.0
C4321 C 0.5193 0.72354 0.84842 0.0
C4322 C 0.49795 0.72102 0.86949 0.0
C4323 C 0.49399 0.73793 0.86732 0.0
C4324 C 0.50123 0.74684 0.8541 0.0
C4325 C 0.51397 0.73958 0.84495 0.0
C4326 C 0.49026 0.71095 0.88314 0.0
C4327 C 0.4971 0.76477 0.85098 0.0
C4328 C 0.46272 0.76471 0.8895 0.0
C4329 C 0.47333 0.77364 0.89986 0.0
C4330 C 0.46882 0.7516 0.87983 0.0
C4331 C 0.4858 0.74745 0.88075 0.0
C4332 C 0.49595 0.75519 0.89275 0.0
C4333 C 0.48961 0.76833 0.90201 0.0
C4334 C 0.4575 0.74347 0.86748 0.0
C4335 C 0.51403 0.75092 0.89452 0.0
H4336 H 0.51488 0.70155 0.86267 0.0
H4337 H 0.52073 0.74694 0.83602 0.0
H4338 H 0.49709 0.71322 0.8948 0.0
H4339 H 0.47718 0.71449 0.88517 0.0
H4340 H 0.4909 0.69752 0.88038 0.0
H4341 H 0.50178 0.76906 0.83882 0.0
H4342 H 0.48355 0.76676 0.85142 0.0
H4343 H 0.50279 0.77251 0.86076 0.0
H4344 H 0.45013 0.76893 0.88777 0.0
H4345 H 0.49775 0.77526 0.91009 0.0
H4346 H 0.4608 0.73031 0.86558 0.0
H4347 H 0.45865 0.74988 0.85542 0.0
H4348 H 0.4444 0.74427 0.87148 0.0
H4349 H 0.51577 0.73735 0.89501 0.0
H4350 H 0.51954 0.75644 0.90582 0.0
H4351 H 0.52092 0.75563 0.88364 0.0
C4352 C 0.64197 0.9886 0.71507 0.0
C4353 C 0.65061 0.97854 0.72619 0.0
C4354 C 0.63249 0.00202 0.72083 0.0
C4355 C 0.63186 0.00531 0.73801 0.0
C4356 C 0.64212 0.99625 0.74893 0.0
C4357 C 0.65124 0.98289 0.74288 0.0
C4358 C 0.62203 0.01154 0.70872 0.0
C4359 C 0.64219 0.99952 0.76732 0.0
C4360 C 0.61212 0.03956 0.76253 0.0
C4361 C 0.59908 0.03076 0.76974 0.0
C4362 C 0.62199 0.0322 0.75027 0.0
C4363 C 0.61858 0.01578 0.74526 0.0
C4364 C 0.60398 0.00792 0.75086 0.0
C4365 C 0.59452 0.01544 0.76324 0.0
C4366 C 0.63718 0.04118 0.74431 0.0
C4367 C 0.59954 0.99062 0.74551 0.0
H4368 H 0.64143 0.98517 0.70213 0.0
H4369 H 0.65805 0.97514 0.75143 0.0
H4370 H 0.60954 0.00593 0.70818 0.0
H4371 H 0.6206 0.02463 0.71254 0.0
H4372 H 0.62742 0.01112 0.69611 0.0
H4373 H 0.65223 0.99271 0.77374 0.0
H4374 H 0.64372 0.01289 0.76982 0.0
H4375 H 0.63021 0.9956 0.77271 0.0
H4376 H 0.61571 0.05138 0.76771 0.0
H4377 H 0.58444 0.00867 0.76891 0.0
H4378 H 0.63989 0.03818 0.73122 0.0
H4379 H 0.64796 0.03729 0.75183 0.0
H4380 H 0.63576 0.05477 0.7456 0.0
H4381 H 0.6012 0.98914 0.732 0.0
H4382 H 0.58658 0.98744 0.74874 0.0
H4383 H 0.60785 0.98167 0.75175 0.0
C4384 C 0.64137 0.48833 0.21402 0.0
C4385 C 0.65095 0.4788 0.22483 0.0
C4386 C 0.63171 0.50148 0.22006 0.0
C4387 C 0.63185 0.50505 0.2372 0.0
C4388 C 0.6431 0.49666 0.24767 0.0
C4389 C 0.65238 0.48352 0.24137 0.0
C4390 C 0.62019 0.51031 0.2084 0.0
C4391 C 0.64403 0.50027 0.26596 0.0
C4392 C 0.61105 0.53852 0.26203 0.0
C4393 C 0.59884 0.52911 0.26988 0.0
C4394 C 0.62093 0.5315 0.24957 0.0
C4395 C 0.61836 0.51481 0.245 0.0
C4396 C 0.60451 0.50617 0.25134 0.0
C4397 C 0.59505 0.51337 0.2639 0.0
C4398 C 0.63529 0.54128 0.24286 0.0
C4399 C 0.60095 0.48851 0.2465 0.0
H4400 H 0.64021 0.48458 0.20121 0.0
H4401 H 0.65988 0.47614 0.24967 0.0
H4402 H 0.60793 0.50421 0.20871 0.0
H4403 H 0.61847 0.52341 0.21204 0.0
H4404 H 0.62485 0.50982 0.1955 0.0
H4405 H 0.65482 0.4942 0.27188 0.0
H4406 H 0.64485 0.51376 0.26818 0.0
H4407 H 0.63264 0.49572 0.2721 0.0
H4408 H 0.61405 0.55067 0.2668 0.0
H4409 H 0.5856 0.50614 0.27005 0.0
H4410 H 0.63776 0.53811 0.22976 0.0
H4411 H 0.64654 0.5383 0.25009 0.0
H4412 H 0.63303 0.55477 0.24386 0.0
H4413 H 0.60203 0.48689 0.23294 0.0
H4414 H 0.58841 0.48456 0.25042 0.0
H4415 H 0.61013 0.48024 0.25245 0.0
C4416 C 0.08635 0.33586 0.06275 0.0
C4417 C 0.07684 0.34643 0.07264 0.0
C4418 C 0.1019 0.34084 0.05682 0.0
C4419 C 0.10808 0.35663 0.06111 0.0
C4420 C 0.0988 0.36704 0.07165 0.0
C4421 C 0.08329 0.36183 0.07723 0.0
C4422 C 0.11143 0.32948 0.04552 0.0
C4423 C 0.10512 0.38382 0.07681 0.0
C4424 C 0.15323 0.36841 0.05761 0.0
C4425 C 0.15297 0.3789 0.04383 0.0
C4426 C 0.13884 0.36037 0.06296 0.0
C4427 C 0.12393 0.36274 0.05416 0.0
C4428 C 0.12384 0.37253 0.03966 0.0
C4429 C 0.13836 0.3806 0.03472 0.0
C4430 C 0.13941 0.35018 0.07856 0.0
C4431 C 0.10819 0.37525 0.02988 0.0
H4432 H 0.08137 0.32397 0.05912 0.0
H4433 H 0.07608 0.36995 0.08508 0.0
H4434 H 0.11247 0.33519 0.0331 0.0
H4435 H 0.12416 0.32767 0.05024 0.0
H4436 H 0.10541 0.31722 0.04421 0.0
H4437 H 0.09607 0.39064 0.08454 0.0
H4438 H 0.11674 0.38238 0.08392 0.0
H4439 H 0.10798 0.39144 0.06578 0.0
H4440 H 0.1645 0.36707 0.06472 0.0
H4441 H 0.13815 0.38863 0.02401 0.0
H4442 H 0.13317 0.33813 0.07668 0.0
H4443 H 0.13269 0.35675 0.08854 0.0
H4444 H 0.15226 0.34789 0.08278 0.0
H4445 H 0.10201 0.36329 0.02734 0.0
H4446 H 0.11058 0.3816 0.01796 0.0
H4447 H 0.09949 0.3829 0.03721 0.0
C4448 C 0.91697 0.34171 0.31411 0.0
C4449 C 0.90664 0.33302 0.32496 0.0
C4450 C 0.91219 0.35718 0.30782 0.0
C4451 C 0.89685 0.36408 0.31268 0.0
C4452 C 0.88699 0.35585 0.32454 0.0
C4453 C 0.89197 0.3404 0.33045 0.0
C4454 C 0.92305 0.36566 0.29528 0.0
C4455 C 0.87066 0.36286 0.33027 0.0
C4456 C 0.88391 0.40846 0.30542 0.0
C4457 C 0.87263 0.40661 0.29239 0.0
C4458 C 0.89275 0.39487 0.31156 0.0
C4459 C 0.89023 0.3791 0.30446 0.0
C4460 C 0.87966 0.37739 0.29062 0.0
C4461 C 0.87099 0.39118 0.28474 0.0
C4462 C 0.9039 0.39719 0.32632 0.0
C4463 C 0.87672 0.36079 0.28264 0.0
H4464 H 0.9283 0.33601 0.30981 0.0
H4465 H 0.88405 0.33378 0.33898 0.0
H4466 H 0.91714 0.36495 0.28293 0.0
H4467 H 0.92452 0.37893 0.29835 0.0
H4468 H 0.93547 0.35988 0.29448 0.0
H4469 H 0.86566 0.35609 0.3411 0.0
H4470 H 0.87194 0.37608 0.33362 0.0
H4471 H 0.86153 0.36204 0.32008 0.0
H4472 H 0.88531 0.42038 0.31134 0.0
H4473 H 0.86239 0.38971 0.27458 0.0
H4474 H 0.91583 0.39071 0.32444 0.0
H4475 H 0.89796 0.39172 0.3374 0.0
H4476 H 0.9064 0.41044 0.32884 0.0
H4477 H 0.88864 0.35458 0.27998 0.0
H4478 H 0.8696 0.36184 0.27096 0.0
H4479 H 0.86972 0.35275 0.29127 0.0
C4480 C 0.86052 0.12211 0.53178 0.0
C4481 C 0.84563 0.12351 0.54047 0.0
C4482 C 0.87486 0.13009 0.53736 0.0
C4483 C 0.87428 0.13956 0.55207 0.0
C4484 C 0.85908 0.14169 0.56042 0.0
C4485 C 0.8449 0.1337 0.55447 0.0
C4486 C 0.89082 0.12763 0.52803 0.0
C4487 C 0.85798 0.15159 0.5762 0.0
C4488 C 0.91433 0.14031 0.57617 0.0
C4489 C 0.92085 0.15578 0.5719 0.0
C4490 C 0.89893 0.13515 0.57021 0.0
C4491 C 0.88987 0.14566 0.55959 0.0
C4492 C 0.89609 0.16154 0.55568 0.0
C4493 C 0.9115 0.16648 0.56199 0.0
C4494 C 0.89259 0.11823 0.57493 0.0
C4495 C 0.88678 0.17303 0.54433 0.0
H4496 H 0.86112 0.11432 0.52091 0.0
H4497 H 0.83341 0.13483 0.56126 0.0
H4498 H 0.897 0.13967 0.52587 0.0
H4499 H 0.89934 0.11992 0.5355 0.0
H4500 H 0.88884 0.12146 0.51594 0.0
H4501 H 0.84499 0.15368 0.5801 0.0
H4502 H 0.86449 0.1449 0.58623 0.0
H4503 H 0.86414 0.16373 0.57471 0.0
H4504 H 0.92142 0.13207 0.584 0.0
H4505 H 0.91653 0.17842 0.55861 0.0
H4506 H 0.8911 0.1105 0.56371 0.0
H4507 H 0.88026 0.1193 0.58081 0.0
H4508 H 0.90101 0.11173 0.58358 0.0
H4509 H 0.88616 0.16756 0.53177 0.0
H4510 H 0.89271 0.18537 0.54343 0.0
H4511 H 0.87389 0.17463 0.5487 0.0
C4512 C 0.11493 0.09179 0.80537 0.0
C4513 C 0.12539 0.09306 0.79161 0.0
C4514 C 0.10656 0.10567 0.81151 0.0
C4515 C 0.10866 0.12112 0.80363 0.0
C4516 C 0.11835 0.12223 0.7891 0.0
C4517 C 0.12664 0.10817 0.78329 0.0
C4518 C 0.09635 0.10399 0.82702 0.0
C4519 C 0.12081 0.13847 0.78028 0.0
C4520 C 0.08209 0.15845 0.81407 0.0
C4521 C 0.09284 0.16744 0.82425 0.0
C4522 C 0.0868 0.14303 0.80762 0.0
C4523 C 0.10253 0.13647 0.81161 0.0
C4524 C 0.11301 0.14512 0.8226 0.0
C4525 C 0.10806 0.1605 0.82873 0.0
C4526 C 0.07531 0.13413 0.79594 0.0
C4527 C 0.12977 0.13844 0.82739 0.0
H4528 H 0.11386 0.08012 0.81183 0.0
H4529 H 0.13461 0.10918 0.77257 0.0
H4530 H 0.10294 0.10995 0.83746 0.0
H4531 H 0.08431 0.11037 0.8256 0.0
H4532 H 0.09405 0.09087 0.83028 0.0
H4533 H 0.12714 0.1369 0.7682 0.0
H4534 H 0.10876 0.14465 0.77817 0.0
H4535 H 0.12839 0.14681 0.78809 0.0
H4536 H 0.07033 0.16379 0.81055 0.0
H4537 H 0.11632 0.16729 0.8368 0.0
H4538 H 0.07384 0.12104 0.79971 0.0
H4539 H 0.08069 0.13416 0.78334 0.0
H4540 H 0.06292 0.14 0.79541 0.0
H4541 H 0.12849 0.12593 0.83284 0.0
H4542 H 0.13617 0.14652 0.83643 0.0
H4543 H 0.13768 0.13729 0.81626 0.0
C4544 C 0.08854 0.66475 0.93622 0.0
C4545 C 0.07912 0.65387 0.92659 0.0
C4546 C 0.10407 0.65999 0.94236 0.0
C4547 C 0.1103 0.64409 0.93859 0.0
C4548 C 0.10116 0.63341 0.92818 0.0
C4549 C 0.08569 0.63842 0.92235 0.0
C4550 C 0.11347 0.67167 0.95344 0.0
C4551 C 0.10753 0.61649 0.92357 0.0
C4552 C 0.15495 0.63115 0.94397 0.0
C4553 C 0.15383 0.62103 0.95799 0.0
C4554 C 0.14104 0.63959 0.93798 0.0
C4555 C 0.12576 0.63795 0.94631 0.0
C4556 C 0.12488 0.62865 0.9611 0.0
C4557 C 0.13892 0.62023 0.96672 0.0
C4558 C 0.14246 0.64934 0.92215 0.0
C4559 C 0.10883 0.62668 0.97041 0.0
H4560 H 0.08349 0.67671 0.93954 0.0
H4561 H 0.07856 0.63007 0.91468 0.0
H4562 H 0.11386 0.66658 0.96616 0.0
H4563 H 0.12643 0.67293 0.94916 0.0
H4564 H 0.10773 0.68412 0.9539 0.0
H4565 H 0.09874 0.6096 0.91562 0.0
H4566 H 0.11944 0.61768 0.91691 0.0
H4567 H 0.10986 0.60907 0.93486 0.0
H4568 H 0.16646 0.63181 0.93717 0.0
H4569 H 0.13805 0.61251 0.97763 0.0
H4570 H 0.13614 0.66143 0.92331 0.0
H4571 H 0.13632 0.64245 0.91201 0.0
H4572 H 0.15554 0.6515 0.9186 0.0
H4573 H 0.10287 0.63887 0.97232 0.0
H4574 H 0.11063 0.62069 0.98262 0.0
H4575 H 0.10019 0.61899 0.96304 0.0
C4576 C 0.60977 0.33754 0.16971 0.0
C4577 C 0.59497 0.3302 0.17491 0.0
C4578 C 0.61465 0.35299 0.17572 0.0
C4579 C 0.60461 0.36121 0.18744 0.0
C4580 C 0.58925 0.35426 0.19213 0.0
C4581 C 0.58453 0.33883 0.18569 0.0
C4582 C 0.63097 0.3601 0.17013 0.0
C4583 C 0.57824 0.36269 0.20459 0.0
C4584 C 0.62991 0.38883 0.21538 0.0
C4585 C 0.62807 0.4042 0.20766 0.0
C4586 C 0.62148 0.37488 0.20952 0.0
C4587 C 0.611 0.37636 0.19559 0.0
C4588 C 0.60832 0.39205 0.18838 0.0
C4589 C 0.61688 0.40581 0.19452 0.0
C4590 C 0.62459 0.35838 0.21763 0.0
C4591 C 0.59727 0.39413 0.1735 0.0
H4592 H 0.61777 0.33097 0.16122 0.0
H4593 H 0.57311 0.33316 0.18977 0.0
H4594 H 0.62955 0.37323 0.1665 0.0
H4595 H 0.63995 0.35963 0.18048 0.0
H4596 H 0.63623 0.3532 0.15952 0.0
H4597 H 0.56592 0.35671 0.20547 0.0
H4598 H 0.58418 0.36225 0.21694 0.0
H4599 H 0.57653 0.37589 0.20135 0.0
H4600 H 0.63844 0.38755 0.22562 0.0
H4601 H 0.61535 0.41769 0.18854 0.0
H4602 H 0.63178 0.35039 0.20913 0.0
H4603 H 0.61273 0.35201 0.22021 0.0
H4604 H 0.63158 0.35961 0.22938 0.0
H4605 H 0.60336 0.38861 0.16252 0.0
H4606 H 0.59466 0.40733 0.17082 0.0
H4607 H 0.58539 0.38755 0.17533 0.0
C4608 C 0.84522 0.86994 0.44186 0.0
C4609 C 0.84628 0.87987 0.45602 0.0
C4610 C 0.85907 0.86135 0.43596 0.0
C4611 C 0.87425 0.86261 0.44454 0.0
C4612 C 0.87507 0.87175 0.45944 0.0
C4613 C 0.86109 0.88035 0.46495 0.0
C4614 C 0.85771 0.85182 0.41999 0.0
C4615 C 0.891 0.8733 0.46901 0.0
C4616 C 0.91107 0.83516 0.4346 0.0
C4617 C 0.92083 0.84596 0.4252 0.0
C4618 C 0.89556 0.84018 0.44061 0.0
C4619 C 0.88971 0.85626 0.43697 0.0
C4620 C 0.89918 0.86686 0.42681 0.0
C4621 C 0.91462 0.86159 0.42108 0.0
C4622 C 0.88579 0.82857 0.45143 0.0
C4623 C 0.89323 0.88398 0.42235 0.0
H4624 H 0.83379 0.86953 0.4349 0.0
H4625 H 0.86192 0.88793 0.47596 0.0
H4626 H 0.86418 0.85868 0.41004 0.0
H4627 H 0.86376 0.83957 0.42112 0.0
H4628 H 0.84466 0.84997 0.41619 0.0
H4629 H 0.88913 0.87921 0.48126 0.0
H4630 H 0.89669 0.86098 0.47089 0.0
H4631 H 0.8999 0.88089 0.46186 0.0
H4632 H 0.91584 0.82307 0.43783 0.0
H4633 H 0.92199 0.86989 0.4136 0.0
H4634 H 0.87287 0.8276 0.44696 0.0
H4635 H 0.88531 0.83352 0.4642 0.0
H4636 H 0.89128 0.816 0.45182 0.0
H4637 H 0.88141 0.88313 0.41549 0.0
H4638 H 0.90229 0.8908 0.41464 0.0
H4639 H 0.89087 0.89128 0.4337 0.0
C4640 C 0.36811 0.1109 0.71676 0.0
C4641 C 0.36931 0.09605 0.70798 0.0
C4642 C 0.37657 0.12506 0.71145 0.0
C4643 C 0.38632 0.12435 0.69694 0.0
C4644 C 0.38826 0.10915 0.68853 0.0
C4645 C 0.37978 0.09515 0.6942 0.0
C4646 C 0.3743 0.14102 0.72084 0.0
C4647 C 0.39845 0.10791 0.67296 0.0
C4648 C 0.38796 0.16442 0.67295 0.0
C4649 C 0.40345 0.17072 0.67743 0.0
C4650 C 0.38252 0.14908 0.67879 0.0
C4651 C 0.39277 0.13986 0.68954 0.0
C4652 C 0.40868 0.14586 0.69367 0.0
C4653 C 0.4139 0.16122 0.68746 0.0
C4654 C 0.3656 0.14297 0.67382 0.0
C4655 C 0.41989 0.13638 0.70516 0.0
H4656 H 0.36011 0.11162 0.72748 0.0
H4657 H 0.38078 0.08368 0.68737 0.0
H4658 H 0.38642 0.14695 0.72319 0.0
H4659 H 0.36685 0.14973 0.71332 0.0
H4660 H 0.36792 0.1391 0.73284 0.0
H4661 H 0.40044 0.09488 0.66912 0.0
H4662 H 0.39205 0.11449 0.66279 0.0
H4663 H 0.41065 0.1139 0.67468 0.0
H4664 H 0.37993 0.17162 0.66501 0.0
H4665 H 0.42586 0.16608 0.691 0.0
H4666 H 0.35769 0.14153 0.68492 0.0
H4667 H 0.36659 0.13067 0.66788 0.0
H4668 H 0.35933 0.15152 0.66513 0.0
H4669 H 0.41429 0.13589 0.71766 0.0
H4670 H 0.43232 0.14209 0.70615 0.0
H4671 H 0.4213 0.12345 0.70084 0.0
C4672 C 0.05928 0.15602 0.36867 0.0
C4673 C 0.04461 0.1558 0.37788 0.0
C4674 C 0.06503 0.14172 0.36075 0.0
C4675 C 0.05579 0.12694 0.36196 0.0
C4676 C 0.04046 0.12694 0.37039 0.0
C4677 C 0.03509 0.14137 0.37834 0.0
C4678 C 0.08148 0.14219 0.35197 0.0
C4679 C 0.03019 0.11144 0.37187 0.0
C4680 C 0.06561 0.08948 0.33533 0.0
C4681 C 0.07431 0.07956 0.34656 0.0
C4682 C 0.05981 0.10518 0.33999 0.0
C4683 C 0.06295 0.11106 0.35616 0.0
C4684 C 0.07233 0.10137 0.36727 0.0
C4685 C 0.07786 0.08576 0.36234 0.0
C4686 C 0.04982 0.11519 0.32784 0.0
C4687 C 0.07621 0.10732 0.38454 0.0
H4688 H 0.06671 0.16716 0.36829 0.0
H4689 H 0.0237 0.14118 0.38537 0.0
H4690 H 0.09075 0.13524 0.3593 0.0
H4691 H 0.08059 0.13613 0.33971 0.0
H4692 H 0.08605 0.15501 0.35024 0.0
H4693 H 0.01779 0.11393 0.37722 0.0
H4694 H 0.02859 0.10557 0.3596 0.0
H4695 H 0.03665 0.10243 0.37993 0.0
H4696 H 0.06281 0.08475 0.32312 0.0
H4697 H 0.0848 0.07826 0.371 0.0
H4698 H 0.05495 0.12784 0.32674 0.0
H4699 H 0.03695 0.11641 0.3324 0.0
H4700 H 0.04952 0.10944 0.31539 0.0
H4701 H 0.08351 0.1189 0.38394 0.0
H4702 H 0.08327 0.09806 0.39177 0.0
H4703 H 0.06462 0.11015 0.39129 0.0
C4704 C 0.16474 0.32782 0.61095 0.0
C4705 C 0.17094 0.32408 0.59522 0.0
C4706 C 0.14947 0.32169 0.61624 0.0
C4707 C 0.14015 0.31147 0.60555 0.0
C4708 C 0.14602 0.30812 0.58941 0.0
C4709 C 0.16136 0.31455 0.58438 0.0
C4710 C 0.14351 0.32582 0.63344 0.0
C4711 C 0.13641 0.29723 0.57772 0.0
C4712 C 0.11135 0.28321 0.62918 0.0
C4713 C 0.09651 0.29209 0.62858 0.0
C4714 C 0.12542 0.28884 0.62079 0.0
C4715 C 0.12466 0.30381 0.61176 0.0
C4716 C 0.10948 0.31236 0.61041 0.0
C4717 C 0.09555 0.30634 0.61878 0.0
C4718 C 0.14136 0.2793 0.62243 0.0
C4719 C 0.10819 0.32841 0.60101 0.0
H4720 H 0.17199 0.33538 0.6193 0.0
H4721 H 0.16612 0.31158 0.57222 0.0
H4722 H 0.13155 0.33248 0.63275 0.0
H4723 H 0.1414 0.31434 0.64061 0.0
H4724 H 0.15247 0.33361 0.6403 0.0
H4725 H 0.14203 0.29683 0.56521 0.0
H4726 H 0.13592 0.28447 0.58271 0.0
H4727 H 0.12349 0.30165 0.57662 0.0
H4728 H 0.11211 0.27212 0.63666 0.0
H4729 H 0.0841 0.31327 0.61826 0.0
H4730 H 0.15017 0.2864 0.63017 0.0
H4731 H 0.14718 0.27755 0.61015 0.0
H4732 H 0.13946 0.267 0.6282 0.0
H4733 H 0.11482 0.33825 0.60787 0.0
H4734 H 0.09516 0.33236 0.5993 0.0
H4735 H 0.11411 0.3273 0.5887 0.0
C4736 C 0.92335 0.4153 0.86061 0.0
C4737 C 0.92706 0.42154 0.84488 0.0
C4738 C 0.92884 0.39967 0.86555 0.0
C4739 C 0.93835 0.39002 0.8545 0.0
C4740 C 0.94161 0.39594 0.83836 0.0
C4741 C 0.93585 0.41165 0.83369 0.0
C4742 C 0.92484 0.39369 0.88277 0.0
C4743 C 0.9517 0.38596 0.82628 0.0
C4744 C 0.96618 0.35986 0.8769 0.0
C4745 C 0.95672 0.34538 0.8764 0.0
C4746 C 0.96081 0.37425 0.8689 0.0
C4747 C 0.94554 0.37418 0.86035 0.0
C4748 C 0.93638 0.35936 0.85908 0.0
C4749 C 0.94213 0.34509 0.86706 0.0
C4750 C 0.971 0.3898 0.87044 0.0
C4751 C 0.92 0.35881 0.85018 0.0
H4752 H 0.91634 0.42278 0.86922 0.0
H4753 H 0.93876 0.41641 0.82153 0.0
H4754 H 0.9178 0.38195 0.88212 0.0
H4755 H 0.93639 0.39116 0.88969 0.0
H4756 H 0.91746 0.40282 0.88987 0.0
H4757 H 0.95202 0.39169 0.81381 0.0
H4758 H 0.96456 0.38483 0.83089 0.0
H4759 H 0.94664 0.37328 0.82518 0.0
H4760 H 0.97751 0.36011 0.88403 0.0
H4761 H 0.93475 0.33392 0.86664 0.0
H4762 H 0.96444 0.3988 0.87843 0.0
H4763 H 0.97267 0.39566 0.85816 0.0
H4764 H 0.98337 0.38737 0.87588 0.0
H4765 H 0.91063 0.36568 0.85745 0.0
H4766 H 0.91552 0.34596 0.8484 0.0
H4767 H 0.92094 0.36488 0.83794 0.0
C4768 C 0.83677 0.17064 0.11049 0.0
C4769 C 0.83024 0.17519 0.09511 0.0
C4770 C 0.85227 0.1763 0.11562 0.0
C4771 C 0.86146 0.18686 0.10516 0.0
C4772 C 0.85525 0.19101 0.08934 0.0
C4773 C 0.8397 0.18502 0.08444 0.0
C4774 C 0.85864 0.17127 0.13243 0.0
C4775 C 0.86471 0.20229 0.07791 0.0
C4776 C 0.89069 0.214 0.1295 0.0
C4777 C 0.90548 0.20511 0.12829 0.0
C4778 C 0.87649 0.20879 0.12107 0.0
C4779 C 0.87708 0.19423 0.11139 0.0
C4780 C 0.89221 0.18571 0.10941 0.0
C4781 C 0.90629 0.19133 0.11784 0.0
C4782 C 0.86059 0.21827 0.12339 0.0
C4783 C 0.89333 0.17009 0.09929 0.0
H4784 H 0.82962 0.16282 0.11867 0.0
H4785 H 0.83467 0.1886 0.07256 0.0
H4786 H 0.87035 0.1643 0.13101 0.0
H4787 H 0.86135 0.18236 0.14001 0.0
H4788 H 0.8497 0.16345 0.13927 0.0
H4789 H 0.85887 0.20319 0.06552 0.0
H4790 H 0.86533 0.21485 0.08336 0.0
H4791 H 0.87759 0.19786 0.07641 0.0
H4792 H 0.89005 0.22473 0.13749 0.0
H4793 H 0.9177 0.1844 0.11687 0.0
H4794 H 0.85192 0.21085 0.13098 0.0
H4795 H 0.85456 0.22055 0.1113 0.0
H4796 H 0.86262 0.23031 0.12965 0.0
H4797 H 0.887 0.15991 0.10595 0.0
H4798 H 0.90633 0.16635 0.09701 0.0
H4799 H 0.88701 0.17166 0.08724 0.0
C4800 C 0.05406 0.84402 0.63195 0.0
C4801 C 0.03986 0.84444 0.62204 0.0
C4802 C 0.05958 0.85824 0.64019 0.0
C4803 C 0.05058 0.87313 0.63856 0.0
C4804 C 0.03566 0.87331 0.62943 0.0
C4805 C 0.03052 0.85897 0.62121 0.0
C4806 C 0.07558 0.85756 0.64974 0.0
C4807 C 0.02565 0.88894 0.62748 0.0
C4808 C 0.05962 0.91078 0.66519 0.0
C4809 C 0.06882 0.9205 0.6542 0.0
C4810 C 0.05393 0.89505 0.6605 0.0
C4811 C 0.05772 0.88894 0.64454 0.0
C4812 C 0.06766 0.89842 0.63374 0.0
C4813 C 0.07305 0.91407 0.63869 0.0
C4814 C 0.04334 0.88527 0.67232 0.0
C4815 C 0.07225 0.89223 0.61674 0.0
H4816 H 0.06134 0.8328 0.63265 0.0
H4817 H 0.01947 0.85931 0.61364 0.0
H4818 H 0.08533 0.86421 0.64277 0.0
H4819 H 0.07425 0.86379 0.66187 0.0
H4820 H 0.07979 0.84466 0.65183 0.0
H4821 H 0.01347 0.88658 0.62163 0.0
H4822 H 0.02362 0.89487 0.63966 0.0
H4823 H 0.03256 0.89784 0.61967 0.0
H4824 H 0.0563 0.91571 0.67719 0.0
H4825 H 0.08041 0.92143 0.63025 0.0
H4826 H 0.04818 0.87252 0.67362 0.0
H4827 H 0.03061 0.8843 0.66733 0.0
H4828 H 0.04274 0.89107 0.68474 0.0
H4829 H 0.07935 0.88056 0.61782 0.0
H4830 H 0.07978 0.90131 0.60975 0.0
H4831 H 0.06095 0.88949 0.60949 0.0
C4832 C 0.34072 0.3147 0.91637 0.0
C4833 C 0.33209 0.32535 0.90579 0.0
C4834 C 0.35638 0.30858 0.91195 0.0
C4835 C 0.36349 0.31339 0.8967 0.0
C4836 C 0.35532 0.32509 0.88662 0.0
C4837 C 0.33971 0.33086 0.89125 0.0
C4838 C 0.36479 0.29623 0.92308 0.0
C4839 C 0.36257 0.33074 0.87036 0.0
C4840 C 0.40795 0.30633 0.88397 0.0
C4841 C 0.40618 0.29328 0.87271 0.0
C4842 C 0.39432 0.31237 0.89282 0.0
C4843 C 0.3786 0.30515 0.89031 0.0
C4844 C 0.377 0.29125 0.87981 0.0
C4845 C 0.39083 0.28548 0.87113 0.0
C4846 C 0.39653 0.32717 0.90394 0.0
C4847 C 0.36046 0.28314 0.87688 0.0
H4848 H 0.33486 0.31039 0.92762 0.0
H4849 H 0.33316 0.33927 0.88314 0.0
H4850 H 0.36405 0.28377 0.91741 0.0
H4851 H 0.37807 0.29928 0.92454 0.0
H4852 H 0.35897 0.2957 0.93549 0.0
H4853 H 0.35563 0.34127 0.86501 0.0
H4854 H 0.37565 0.33449 0.87192 0.0
H4855 H 0.36229 0.32037 0.8614 0.0
H4856 H 0.41983 0.31235 0.88533 0.0
H4857 H 0.38943 0.27528 0.86256 0.0
H4858 H 0.38986 0.32539 0.91578 0.0
H4859 H 0.39123 0.33825 0.89786 0.0
H4860 H 0.40976 0.32963 0.90663 0.0
H4861 H 0.35422 0.28053 0.8888 0.0
H4862 H 0.36162 0.2714 0.86986 0.0
H4863 H 0.35239 0.29165 0.86979 0.0
C4864 C 0.94313 0.65458 0.13198 0.0
C4865 C 0.95757 0.65408 0.12243 0.0
C4866 C 0.93735 0.64041 0.14012 0.0
C4867 C 0.94634 0.62549 0.13878 0.0
C4868 C 0.96148 0.62522 0.13002 0.0
C4869 C 0.96688 0.63951 0.12186 0.0
C4870 C 0.92111 0.64118 0.14925 0.0
C4871 C 0.97149 0.60956 0.12841 0.0
C4872 C 0.93644 0.58829 0.16573 0.0
C4873 C 0.92738 0.57848 0.1547 0.0
C4874 C 0.9424 0.60387 0.16091 0.0
C4875 C 0.93905 0.60976 0.14478 0.0
C4876 C 0.92929 0.60019 0.13388 0.0
C4877 C 0.92361 0.58467 0.13896 0.0
C4878 C 0.95279 0.61375 0.17282 0.0
C4879 C 0.92517 0.60614 0.11668 0.0
H4880 H 0.93587 0.66582 0.13245 0.0
H4881 H 0.9781 0.63912 0.11457 0.0
H4882 H 0.91157 0.63437 0.14215 0.0
H4883 H 0.92217 0.63516 0.16151 0.0
H4884 H 0.91679 0.65408 0.15103 0.0
H4885 H 0.98381 0.61184 0.12281 0.0
H4886 H 0.97324 0.60372 0.14068 0.0
H4887 H 0.96474 0.60061 0.12052 0.0
H4888 H 0.93939 0.58354 0.17789 0.0
H4889 H 0.91639 0.57725 0.13047 0.0
H4890 H 0.94791 0.6265 0.17395 0.0
H4891 H 0.9656 0.61471 0.16803 0.0
H4892 H 0.95321 0.60805 0.1853 0.0
H4893 H 0.91819 0.61792 0.11737 0.0
H4894 H 0.91769 0.59704 0.10967 0.0
H4895 H 0.93667 0.60861 0.10965 0.0
C4896 C 0.66355 0.17237 0.38648 0.0
C4897 C 0.66965 0.17598 0.4023 0.0
C4898 C 0.64799 0.17794 0.38142 0.0
C4899 C 0.63826 0.18742 0.39241 0.0
C4900 C 0.64404 0.19061 0.40861 0.0
C4901 C 0.65968 0.18477 0.41341 0.0
C4902 C 0.64216 0.17401 0.36413 0.0
C4903 C 0.63398 0.2007 0.42064 0.0
C4904 C 0.60824 0.21527 0.36985 0.0
C4905 C 0.59377 0.20581 0.37022 0.0
C4906 C 0.62258 0.2099 0.37795 0.0
C4907 C 0.62246 0.19462 0.38646 0.0
C4908 C 0.60763 0.18543 0.38759 0.0
C4909 C 0.59342 0.19119 0.37951 0.0
C4910 C 0.63813 0.22011 0.37655 0.0
C4911 C 0.60702 0.16904 0.39646 0.0
H4912 H 0.67109 0.16537 0.37791 0.0
H4913 H 0.66434 0.18761 0.42564 0.0
H4914 H 0.63045 0.16691 0.36465 0.0
H4915 H 0.63961 0.1856 0.35726 0.0
H4916 H 0.65138 0.16674 0.35705 0.0
H4917 H 0.63963 0.20101 0.43314 0.0
H4918 H 0.63287 0.21355 0.41602 0.0
H4919 H 0.62129 0.19563 0.42165 0.0
H4920 H 0.60853 0.22663 0.36276 0.0
H4921 H 0.58225 0.18381 0.37983 0.0
H4922 H 0.64719 0.21357 0.3686 0.0
H4923 H 0.64391 0.22174 0.38887 0.0
H4924 H 0.63573 0.23248 0.37113 0.0
H4925 H 0.614 0.15971 0.38924 0.0
H4926 H 0.59417 0.16453 0.39809 0.0
H4927 H 0.61296 0.16998 0.40877 0.0
C4928 C 0.36125 0.07502 0.08617 0.0
C4929 C 0.34546 0.07112 0.08019 0.0
C4930 C 0.36681 0.06892 0.10136 0.0
C4931 C 0.35636 0.05855 0.11079 0.0
C4932 C 0.34024 0.0549 0.10506 0.0
C4933 C 0.33492 0.06134 0.08983 0.0
C4934 C 0.38398 0.07336 0.10717 0.0
C4935 C 0.32883 0.04381 0.11477 0.0
C4936 C 0.38034 0.03104 0.14005 0.0
C4937 C 0.37945 0.04007 0.15478 0.0
C4938 C 0.372 0.03639 0.12583 0.0
C4939 C 0.36272 0.05121 0.12636 0.0
C4940 C 0.36111 0.05992 0.14142 0.0
C4941 C 0.36943 0.05419 0.15549 0.0
C4942 C 0.3739 0.02669 0.11002 0.0
C4943 C 0.35144 0.07584 0.14245 0.0
H4944 H 0.36938 0.08276 0.07886 0.0
H4945 H 0.32273 0.05825 0.08523 0.0
H4946 H 0.3833 0.07985 0.11923 0.0
H4947 H 0.39141 0.062 0.10906 0.0
H4948 H 0.39058 0.08141 0.09825 0.0
H4949 H 0.31639 0.04287 0.10906 0.0
H4950 H 0.33423 0.03123 0.11557 0.0
H4951 H 0.32746 0.04846 0.12758 0.0
H4952 H 0.388 0.02007 0.13948 0.0
H4953 H 0.36869 0.06123 0.16686 0.0
H4954 H 0.38155 0.03383 0.10117 0.0
H4955 H 0.36168 0.02464 0.10417 0.0
H4956 H 0.37989 0.01452 0.11211 0.0
H4957 H 0.35806 0.08565 0.13555 0.0
H4958 H 0.34975 0.08004 0.15541 0.0
H4959 H 0.33911 0.07438 0.13666 0.0
C4960 C 0.87971 0.96479 0.35763 0.0
C4961 C 0.87829 0.95645 0.34255 0.0
C4962 C 0.87119 0.95928 0.37167 0.0
C4963 C 0.86103 0.94508 0.37057 0.0
C4964 C 0.85872 0.93724 0.35512 0.0
C4965 C 0.86739 0.94304 0.34127 0.0
C4966 C 0.8739 0.96805 0.38791 0.0
C4967 C 0.848 0.92208 0.35345 0.0
C4968 C 0.86006 0.92064 0.41031 0.0
C4969 C 0.84517 0.92588 0.41742 0.0
C4970 C 0.86489 0.92613 0.39465 0.0
C4971 C 0.85468 0.93733 0.38595 0.0
C4972 C 0.8392 0.94199 0.39265 0.0
C4973 C 0.83456 0.93612 0.40834 0.0
C4974 C 0.88138 0.92061 0.38784 0.0
C4975 C 0.82797 0.95386 0.38368 0.0
H4976 H 0.888 0.97525 0.35866 0.0
H4977 H 0.86617 0.93657 0.32961 0.0
H4978 H 0.86192 0.97061 0.39403 0.0
H4979 H 0.88117 0.96 0.39629 0.0
H4980 H 0.88066 0.97989 0.38634 0.0
H4981 H 0.8455 0.91898 0.34032 0.0
H4982 H 0.85429 0.9114 0.3593 0.0
H4983 H 0.83605 0.92386 0.35992 0.0
H4984 H 0.86819 0.91254 0.4172 0.0
H4985 H 0.82304 0.94021 0.4138 0.0
H4986 H 0.89009 0.93119 0.38781 0.0
H4987 H 0.88007 0.91632 0.37489 0.0
H4988 H 0.88689 0.91047 0.39524 0.0
H4989 H 0.83358 0.96636 0.38374 0.0
H4990 H 0.81557 0.95462 0.38951 0.0
H4991 H 0.82648 0.95011 0.37059 0.0
C4992 C 0.32617 0.11213 0.66472 0.0
C4993 C 0.32214 0.09642 0.67082 0.0
C4994 C 0.32052 0.11742 0.64926 0.0
C4995 C 0.31053 0.10678 0.63966 0.0
C4996 C 0.30693 0.09066 0.64543 0.0
C4997 C 0.31286 0.08562 0.66096 0.0
C4998 C 0.32492 0.1346 0.64342 0.0
C4999 C 0.29628 0.07902 0.63551 0.0
C5000 C 0.28299 0.13036 0.61011 0.0
C5001 C 0.29221 0.12967 0.59549 0.0
C5002 C 0.28831 0.12205 0.62436 0.0
C5003 C 0.30329 0.11302 0.62398 0.0
C5004 C 0.31221 0.11161 0.60902 0.0
C5005 C 0.3065 0.11989 0.59491 0.0
C5006 C 0.27839 0.12376 0.64006 0.0
C5007 C 0.32829 0.1022 0.60815 0.0
H5008 H 0.33355 0.12044 0.67219 0.0
H5009 H 0.30969 0.07348 0.66564 0.0
H5010 H 0.33182 0.13389 0.63161 0.0
H5011 H 0.31352 0.14185 0.64107 0.0
H5012 H 0.33256 0.1414 0.65255 0.0
H5013 H 0.29567 0.0665 0.64111 0.0
H5014 H 0.28355 0.08404 0.63466 0.0
H5015 H 0.30107 0.0779 0.62272 0.0
H5016 H 0.27189 0.13783 0.61058 0.0
H5017 H 0.31369 0.11932 0.58363 0.0
H5018 H 0.28533 0.13145 0.64904 0.0
H5019 H 0.27643 0.11149 0.64584 0.0
H5020 H 0.26617 0.1296 0.63787 0.0
H5021 H 0.33795 0.10906 0.61503 0.0
H5022 H 0.33257 0.10048 0.59522 0.0
H5023 H 0.32701 0.0899 0.61404 0.0
C5024 C 0.1222 0.53619 0.85847 0.0
C5025 C 0.12371 0.54441 0.84332 0.0
C5026 C 0.13058 0.54186 0.87252 0.0
C5027 C 0.1407 0.55609 0.87138 0.0
C5028 C 0.14311 0.56379 0.85588 0.0
C5029 C 0.13458 0.55785 0.84201 0.0
C5030 C 0.12776 0.53323 0.88882 0.0
C5031 C 0.15379 0.57898 0.85416 0.0
C5032 C 0.14109 0.5809 0.91089 0.0
C5033 C 0.15588 0.57573 0.91827 0.0
C5034 C 0.13649 0.57528 0.89521 0.0
C5035 C 0.14685 0.56404 0.88674 0.0
C5036 C 0.16226 0.55949 0.89368 0.0
C5037 C 0.16665 0.56547 0.90939 0.0
C5038 C 0.12007 0.58067 0.88817 0.0
C5039 C 0.17366 0.5476 0.88495 0.0
H5040 H 0.11394 0.52571 0.85952 0.0
H5041 H 0.13586 0.56422 0.8303 0.0
H5042 H 0.1397 0.53079 0.89507 0.0
H5043 H 0.12038 0.54133 0.89705 0.0
H5044 H 0.12107 0.52135 0.8873 0.0
H5045 H 0.15639 0.58198 0.84102 0.0
H5046 H 0.14741 0.58969 0.85986 0.0
H5047 H 0.16569 0.57731 0.86075 0.0
H5048 H 0.13282 0.58899 0.91762 0.0
H5049 H 0.17809 0.56144 0.91506 0.0
H5050 H 0.11132 0.57012 0.88842 0.0
H5051 H 0.12142 0.58459 0.87511 0.0
H5052 H 0.11456 0.59103 0.89526 0.0
H5053 H 0.16814 0.53506 0.88512 0.0
H5054 H 0.18601 0.547 0.8909 0.0
H5055 H 0.17523 0.55119 0.87182 0.0
C5056 C 0.18407 0.91711 0.15934 0.0
C5057 C 0.17475 0.90635 0.16922 0.0
C5058 C 0.19028 0.91191 0.14397 0.0
C5059 C 0.18692 0.89568 0.13836 0.0
C5060 C 0.17688 0.88508 0.14797 0.0
C5061 C 0.17095 0.89054 0.16326 0.0
C5062 C 0.20097 0.92352 0.13406 0.0
C5063 C 0.17272 0.86779 0.1423 0.0
C5064 C 0.19209 0.88198 0.09388 0.0
C5065 C 0.20651 0.87242 0.0949 0.0
C5066 C 0.18595 0.89035 0.10776 0.0
C5067 C 0.19454 0.88926 0.12294 0.0
C5068 C 0.20963 0.88043 0.12376 0.0
C5069 C 0.21538 0.87203 0.10974 0.0
C5070 C 0.16977 0.89954 0.10641 0.0
C5071 C 0.21921 0.87905 0.1397 0.0
H5072 H 0.18707 0.92933 0.16391 0.0
H5073 H 0.16354 0.88226 0.17073 0.0
H5074 H 0.21377 0.91864 0.13353 0.0
H5075 H 0.19641 0.92436 0.12116 0.0
H5076 H 0.20132 0.93613 0.13945 0.0
H5077 H 0.16526 0.86093 0.15156 0.0
H5078 H 0.16569 0.86833 0.13055 0.0
H5079 H 0.18419 0.86069 0.13989 0.0
H5080 H 0.18515 0.88231 0.08243 0.0
H5081 H 0.22657 0.86472 0.11055 0.0
H5082 H 0.17076 0.91193 0.11217 0.0
H5083 H 0.16004 0.89264 0.11317 0.0
H5084 H 0.16576 0.90103 0.09337 0.0
H5085 H 0.22095 0.89143 0.14531 0.0
H5086 H 0.23152 0.87327 0.13787 0.0
H5087 H 0.21213 0.87144 0.14864 0.0
C5088 C 0.63185 0.94108 0.15589 0.0
C5089 C 0.62213 0.95542 0.15551 0.0
C5090 C 0.63994 0.93544 0.14164 0.0
C5091 C 0.63838 0.94446 0.12675 0.0
C5092 C 0.62946 0.9595 0.1266 0.0
C5093 C 0.62137 0.96477 0.14098 0.0
C5094 C 0.64927 0.91931 0.14228 0.0
C5095 C 0.6276 0.96953 0.11098 0.0
C5096 C 0.66499 0.93488 0.08921 0.0
C5097 C 0.65393 0.92574 0.07951 0.0
C5098 C 0.6603 0.94077 0.10487 0.0
C5099 C 0.64427 0.93725 0.11093 0.0
C5100 C 0.63336 0.92741 0.10147 0.0
C5101 C 0.63831 0.92182 0.08588 0.0
C5102 C 0.67222 0.95126 0.11462 0.0
C5103 C 0.61626 0.92312 0.10761 0.0
H5104 H 0.6325 0.9338 0.16711 0.0
H5105 H 0.61396 0.97592 0.14067 0.0
H5106 H 0.64221 0.9097 0.13552 0.0
H5107 H 0.66146 0.92052 0.13614 0.0
H5108 H 0.65123 0.91499 0.15516 0.0
H5109 H 0.62192 0.9818 0.11335 0.0
H5110 H 0.63979 0.9714 0.10501 0.0
H5111 H 0.61967 0.96273 0.1021 0.0
H5112 H 0.67708 0.93797 0.08433 0.0
H5113 H 0.62979 0.91455 0.07853 0.0
H5114 H 0.67353 0.94639 0.12736 0.0
H5115 H 0.66733 0.96402 0.11564 0.0
H5116 H 0.68464 0.95179 0.1088 0.0
H5117 H 0.61714 0.91621 0.11941 0.0
H5118 H 0.60925 0.91552 0.09861 0.0
H5119 H 0.60913 0.93456 0.11009 0.0
C5120 C 0.28365 0.36804 0.8873 0.0
C5121 C 0.2911 0.36992 0.9028 0.0
C5122 C 0.28932 0.37695 0.87357 0.0
C5123 C 0.30282 0.38793 0.8754 0.0
C5124 C 0.30972 0.39063 0.89123 0.0
C5125 C 0.30374 0.38161 0.90477 0.0
C5126 C 0.28153 0.37382 0.85692 0.0
C5127 C 0.32414 0.40219 0.89368 0.0
C5128 C 0.32948 0.39061 0.83716 0.0
C5129 C 0.32408 0.40541 0.83 0.0
C5130 C 0.32318 0.38523 0.85233 0.0
C5131 C 0.311 0.39477 0.86046 0.0
C5132 C 0.306 0.4101 0.85367 0.0
C5133 C 0.31272 0.41533 0.83852 0.0
C5134 C 0.3291 0.36897 0.85932 0.0
C5135 C 0.29298 0.42055 0.86196 0.0
H5136 H 0.27378 0.35912 0.88574 0.0
H5137 H 0.30952 0.38317 0.91675 0.0
H5138 H 0.2787 0.38567 0.85065 0.0
H5139 H 0.29035 0.36697 0.84897 0.0
H5140 H 0.26998 0.36648 0.8579 0.0
H5141 H 0.32648 0.40476 0.90696 0.0
H5142 H 0.33544 0.39657 0.88831 0.0
H5143 H 0.32199 0.41406 0.88719 0.0
H5144 H 0.33841 0.38303 0.83068 0.0
H5145 H 0.30847 0.42675 0.83296 0.0
H5146 H 0.3187 0.36006 0.85983 0.0
H5147 H 0.33365 0.37071 0.87213 0.0
H5148 H 0.33915 0.36346 0.85182 0.0
H5149 H 0.28087 0.41418 0.86122 0.0
H5150 H 0.29177 0.4329 0.8561 0.0
H5151 H 0.2959 0.42222 0.87524 0.0
C5152 C 0.69284 0.1186 0.40347 0.0
C5153 C 0.7068 0.12882 0.40268 0.0
C5154 C 0.68709 0.11028 0.38939 0.0
C5155 C 0.69561 0.11216 0.37424 0.0
C5156 C 0.71031 0.12162 0.37365 0.0
C5157 C 0.7157 0.1299 0.38788 0.0
C5158 C 0.67134 0.10036 0.39051 0.0
C5159 C 0.71981 0.12382 0.35775 0.0
C5160 C 0.68617 0.08525 0.33689 0.0
C5161 C 0.67648 0.09601 0.32739 0.0
C5162 C 0.69217 0.09011 0.35245 0.0
C5163 C 0.68817 0.10598 0.35864 0.0
C5164 C 0.67771 0.11652 0.34943 0.0
C5165 C 0.67206 0.11144 0.3339 0.0
C5166 C 0.70332 0.07857 0.36194 0.0
C5167 C 0.67291 0.13343 0.35572 0.0
H5168 H 0.68592 0.1177 0.41489 0.0
H5169 H 0.72656 0.1377 0.38724 0.0
H5170 H 0.66128 0.10704 0.38403 0.0
H5171 H 0.67282 0.08822 0.38433 0.0
H5172 H 0.66747 0.09826 0.40351 0.0
H5173 H 0.73191 0.12998 0.35976 0.0
H5174 H 0.72198 0.1117 0.35175 0.0
H5175 H 0.71245 0.13145 0.34905 0.0
H5176 H 0.68965 0.07333 0.33188 0.0
H5177 H 0.66437 0.11971 0.3267 0.0
H5178 H 0.6989 0.07718 0.37483 0.0
H5179 H 0.71595 0.08386 0.36252 0.0
H5180 H 0.70405 0.06615 0.35615 0.0
H5181 H 0.667 0.13238 0.36804 0.0
H5182 H 0.66425 0.13986 0.34726 0.0
H5183 H 0.6841 0.1412 0.3572 0.0
C5184 C 0.13619 0.88013 0.53518 0.0
C5185 C 0.15139 0.87848 0.54326 0.0
C5186 C 0.12219 0.87159 0.54076 0.0
C5187 C 0.12345 0.86119 0.55478 0.0
C5188 C 0.13898 0.85875 0.5624 0.0
C5189 C 0.1528 0.8674 0.55652 0.0
C5190 C 0.10585 0.87443 0.53222 0.0
C5191 C 0.14082 0.84784 0.57741 0.0
C5192 C 0.08415 0.85918 0.57993 0.0
C5193 C 0.07733 0.84412 0.5748 0.0
C5194 C 0.09953 0.86447 0.57407 0.0
C5195 C 0.1082 0.85457 0.56256 0.0
C5196 C 0.10173 0.83901 0.55785 0.0
C5197 C 0.08637 0.83389 0.56415 0.0
C5198 C 0.10613 0.88099 0.57968 0.0
C5199 C 0.11063 0.82817 0.54558 0.0
H5200 H 0.13506 0.88859 0.52486 0.0
H5201 H 0.16455 0.86602 0.56279 0.0
H5202 H 0.0997 0.86247 0.52956 0.0
H5203 H 0.09755 0.88156 0.54048 0.0
H5204 H 0.10728 0.88136 0.52047 0.0
H5205 H 0.15398 0.84552 0.58053 0.0
H5206 H 0.13482 0.85385 0.58817 0.0
H5207 H 0.13456 0.83581 0.57544 0.0
H5208 H 0.07726 0.86703 0.58831 0.0
H5209 H 0.08109 0.82226 0.56012 0.0
H5210 H 0.10583 0.88984 0.56922 0.0
H5211 H 0.11917 0.87986 0.58373 0.0
H5212 H 0.09881 0.88623 0.59001 0.0
H5213 H 0.11051 0.83417 0.53326 0.0
H5214 H 0.10482 0.81578 0.54446 0.0
H5215 H 0.12375 0.82658 0.54921 0.0
C5216 C 0.88984 0.83442 0.83007 0.0
C5217 C 0.90579 0.82865 0.82653 0.0
C5218 C 0.88422 0.84952 0.82383 0.0
C5219 C 0.89478 0.85911 0.81373 0.0
C5220 C 0.91108 0.85365 0.81052 0.0
C5221 C 0.91645 0.83848 0.81705 0.0
C5222 C 0.86686 0.85508 0.82784 0.0
C5223 C 0.92262 0.86353 0.79972 0.0
C5224 C 0.87124 0.88765 0.78511 0.0
C5225 C 0.87174 0.90255 0.79388 0.0
C5226 C 0.87954 0.87362 0.79097 0.0
C5227 C 0.88833 0.87449 0.80607 0.0
C5228 C 0.88945 0.88969 0.81461 0.0
C5229 C 0.88122 0.90359 0.80834 0.0
C5230 C 0.87815 0.85764 0.78145 0.0
C5231 C 0.89855 0.89107 0.83083 0.0
H5232 H 0.88161 0.82698 0.83757 0.0
H5233 H 0.92877 0.83406 0.81424 0.0
H5234 H 0.8673 0.86699 0.8346 0.0
H5235 H 0.85976 0.85719 0.8163 0.0
H5236 H 0.86008 0.84594 0.83549 0.0
H5237 H 0.93521 0.85809 0.79922 0.0
H5238 H 0.91761 0.86413 0.78698 0.0
H5239 H 0.92357 0.8764 0.80432 0.0
H5240 H 0.86398 0.88683 0.77389 0.0
H5241 H 0.8816 0.91508 0.81521 0.0
H5242 H 0.87052 0.84873 0.78854 0.0
H5243 H 0.89053 0.852 0.77975 0.0
H5244 H 0.87239 0.85943 0.76912 0.0
H5245 H 0.89168 0.8842 0.8405 0.0
H5246 H 0.89991 0.9041 0.83491 0.0
H5247 H 0.91099 0.88542 0.82988 0.0
C5248 C 0.8459 0.63029 0.05705 0.0
C5249 C 0.84688 0.62022 0.04298 0.0
C5250 C 0.85985 0.63869 0.06298 0.0
C5251 C 0.87506 0.63708 0.05454 0.0
C5252 C 0.87585 0.62777 0.03974 0.0
C5253 C 0.86175 0.61938 0.03418 0.0
C5254 C 0.85852 0.64841 0.07884 0.0
C5255 C 0.89183 0.62587 0.03031 0.0
C5256 C 0.91191 0.66439 0.06479 0.0
C5257 C 0.92143 0.65366 0.0745 0.0
C5258 C 0.89653 0.65936 0.05847 0.0
C5259 C 0.89054 0.64334 0.06215 0.0
C5260 C 0.89977 0.63279 0.07258 0.0
C5261 C 0.91511 0.63805 0.07857 0.0
C5262 C 0.88702 0.6709 0.04735 0.0
C5263 C 0.89368 0.61573 0.07706 0.0
H5264 H 0.83442 0.631 0.06391 0.0
H5265 H 0.86253 0.6117 0.02324 0.0
H5266 H 0.86505 0.6417 0.08885 0.0
H5267 H 0.86454 0.66065 0.07753 0.0
H5268 H 0.84548 0.65029 0.08267 0.0
H5269 H 0.88996 0.61985 0.01812 0.0
H5270 H 0.89771 0.63808 0.02834 0.0
H5271 H 0.90056 0.61823 0.03761 0.0
H5272 H 0.91677 0.67644 0.06158 0.0
H5273 H 0.92232 0.62979 0.08626 0.0
H5274 H 0.87407 0.67212 0.05167 0.0
H5275 H 0.88659 0.66572 0.03466 0.0
H5276 H 0.89268 0.68339 0.04678 0.0
H5277 H 0.88148 0.61657 0.08324 0.0
H5278 H 0.90235 0.60913 0.08538 0.0
H5279 H 0.89201 0.60821 0.06572 0.0
C5280 C 0.11053 0.66231 0.32925 0.0
C5281 C 0.09488 0.66869 0.32545 0.0
C5282 C 0.11567 0.64701 0.32311 0.0
C5283 C 0.10489 0.63778 0.31292 0.0
C5284 C 0.08877 0.64374 0.30966 0.0
C5285 C 0.0839 0.65916 0.31603 0.0
C5286 C 0.13288 0.64099 0.32712 0.0
C5287 C 0.07696 0.6342 0.29884 0.0
C5288 C 0.12859 0.60944 0.2843 0.0
C5289 C 0.12821 0.59456 0.2931 0.0
C5290 C 0.12003 0.62337 0.29005 0.0
C5291 C 0.11107 0.62239 0.30505 0.0
C5292 C 0.10992 0.60715 0.3135 0.0
C5293 C 0.11845 0.59336 0.30737 0.0
C5294 C 0.12149 0.6394 0.28063 0.0
C5295 C 0.10059 0.60563 0.32957 0.0
H5296 H 0.11898 0.66952 0.33672 0.0
H5297 H 0.07181 0.66406 0.31302 0.0
H5298 H 0.13217 0.62911 0.33391 0.0
H5299 H 0.13992 0.63871 0.31559 0.0
H5300 H 0.13988 0.64998 0.33474 0.0
H5301 H 0.06439 0.63971 0.2988 0.0
H5302 H 0.08168 0.63402 0.28598 0.0
H5303 H 0.07608 0.62119 0.30304 0.0
H5304 H 0.13603 0.61037 0.2732 0.0
H5305 H 0.1181 0.58187 0.31422 0.0
H5306 H 0.12922 0.64819 0.28775 0.0
H5307 H 0.10915 0.64515 0.27902 0.0
H5308 H 0.12718 0.63764 0.26827 0.0
H5309 H 0.10752 0.61208 0.33948 0.0
H5310 H 0.09887 0.59254 0.33332 0.0
H5311 H 0.08829 0.6116 0.32862 0.0
C5312 C 0.15548 0.1318 0.44352 0.0
C5313 C 0.15459 0.12211 0.45785 0.0
C5314 C 0.14153 0.14016 0.43753 0.0
C5315 C 0.12641 0.13891 0.44621 0.0
C5316 C 0.12573 0.13001 0.46126 0.0
C5317 C 0.13982 0.12164 0.46686 0.0
C5318 C 0.14273 0.14943 0.4214 0.0
C5319 C 0.10985 0.1285 0.47093 0.0
C5320 C 0.08972 0.16631 0.43558 0.0
C5321 C 0.08002 0.15544 0.42619 0.0
C5322 C 0.10509 0.16128 0.44192 0.0
C5323 C 0.11089 0.14511 0.43861 0.0
C5324 C 0.10145 0.13438 0.42856 0.0
C5325 C 0.08614 0.13966 0.42252 0.0
C5326 C 0.11482 0.17302 0.45264 0.0
C5327 C 0.10733 0.11713 0.42448 0.0
H5328 H 0.16688 0.13221 0.4365 0.0
H5329 H 0.13911 0.11425 0.478 0.0
H5330 H 0.13603 0.1425 0.41166 0.0
H5331 H 0.13684 0.16175 0.42245 0.0
H5332 H 0.15574 0.15109 0.41736 0.0
H5333 H 0.11183 0.12281 0.48326 0.0
H5334 H 0.10409 0.14081 0.47263 0.0
H5335 H 0.10097 0.12073 0.46395 0.0
H5336 H 0.08502 0.17851 0.43848 0.0
H5337 H 0.07881 0.13129 0.41507 0.0
H5338 H 0.1277 0.17407 0.44807 0.0
H5339 H 0.11544 0.16811 0.46542 0.0
H5340 H 0.10923 0.18554 0.45303 0.0
H5341 H 0.11932 0.11773 0.41787 0.0
H5342 H 0.09837 0.1103 0.41667 0.0
H5343 H 0.10935 0.10999 0.436 0.0
C5344 C 0.62967 0.88881 0.7175 0.0
C5345 C 0.62903 0.90348 0.70836 0.0
C5346 C 0.62181 0.87446 0.71183 0.0
C5347 C 0.61329 0.87477 0.69655 0.0
C5348 C 0.61189 0.88977 0.68769 0.0
C5349 C 0.61972 0.904 0.69376 0.0
C5350 C 0.6235 0.85872 0.72169 0.0
C5351 C 0.60301 0.89058 0.67131 0.0
C5352 C 0.61411 0.83411 0.67354 0.0
C5353 C 0.59843 0.82763 0.67705 0.0
C5354 C 0.61884 0.84968 0.67937 0.0
C5355 C 0.60764 0.85902 0.68901 0.0
C5356 C 0.59156 0.85285 0.69208 0.0
C5357 C 0.5871 0.83722 0.68598 0.0
C5358 C 0.636 0.85595 0.67553 0.0
C5359 C 0.57933 0.86247 0.70234 0.0
H5360 H 0.63679 0.88839 0.72884 0.0
H5361 H 0.61921 0.91531 0.68663 0.0
H5362 H 0.61129 0.85267 0.72318 0.0
H5363 H 0.63162 0.84996 0.71496 0.0
H5364 H 0.62887 0.86094 0.73412 0.0
H5365 H 0.60107 0.90351 0.66713 0.0
H5366 H 0.61041 0.88403 0.66181 0.0
H5367 H 0.59086 0.88431 0.67208 0.0
H5368 H 0.62284 0.82687 0.66642 0.0
H5369 H 0.57497 0.83225 0.68874 0.0
H5370 H 0.64274 0.85873 0.68713 0.0
H5371 H 0.63516 0.86761 0.66838 0.0
H5372 H 0.64335 0.84691 0.66831 0.0
H5373 H 0.58388 0.86338 0.71524 0.0
H5374 H 0.56693 0.8566 0.70249 0.0
H5375 H 0.5781 0.87525 0.69756 0.0
C5376 C 0.91456 0.36191 0.92057 0.0
C5377 C 0.92054 0.34602 0.92401 0.0
C5378 C 0.89908 0.36706 0.92626 0.0
C5379 C 0.88931 0.35607 0.93571 0.0
C5380 C 0.89499 0.33982 0.93878 0.0
C5381 C 0.91055 0.33494 0.93281 0.0
C5382 C 0.89334 0.38441 0.92245 0.0
C5383 C 0.88491 0.32781 0.94886 0.0
C5384 C 0.8594 0.37866 0.96364 0.0
C5385 C 0.84493 0.37838 0.95416 0.0
C5386 C 0.8737 0.37051 0.95825 0.0
C5387 C 0.87354 0.36206 0.94293 0.0
C5388 C 0.85871 0.36102 0.93373 0.0
C5389 C 0.84453 0.36914 0.93951 0.0
C5390 C 0.88925 0.37181 0.96846 0.0
C5391 C 0.85808 0.35222 0.9173 0.0
H5392 H 0.92212 0.37047 0.91356 0.0
H5393 H 0.91513 0.32265 0.93553 0.0
H5394 H 0.88175 0.38396 0.91516 0.0
H5395 H 0.89062 0.39116 0.93406 0.0
H5396 H 0.90268 0.39154 0.91539 0.0
H5397 H 0.89053 0.3153 0.94918 0.0
H5398 H 0.88378 0.33242 0.96172 0.0
H5399 H 0.87222 0.32682 0.94378 0.0
H5400 H 0.85971 0.38571 0.97501 0.0
H5401 H 0.83337 0.36889 0.93212 0.0
H5402 H 0.89833 0.37977 0.96197 0.0
H5403 H 0.89499 0.35946 0.97002 0.0
H5404 H 0.88687 0.37716 0.98087 0.0
H5405 H 0.86511 0.35943 0.90801 0.0
H5406 H 0.84522 0.35068 0.91277 0.0
H5407 H 0.86395 0.33988 0.9182 0.0
C5408 C 0.39004 0.66261 0.171 0.0
C5409 C 0.40522 0.66944 0.17575 0.0
C5410 C 0.38501 0.64712 0.17682 0.0
C5411 C 0.39534 0.63832 0.18784 0.0
C5412 C 0.41102 0.6448 0.19212 0.0
C5413 C 0.41585 0.66029 0.18592 0.0
C5414 C 0.36833 0.64052 0.17169 0.0
C5415 C 0.42233 0.63575 0.20384 0.0
C5416 C 0.3707 0.60988 0.21556 0.0
C5417 C 0.37205 0.59483 0.20716 0.0
C5418 C 0.37912 0.62396 0.20998 0.0
C5419 C 0.38904 0.62293 0.19561 0.0
C5420 C 0.39121 0.60753 0.18764 0.0
C5421 C 0.38272 0.59363 0.19355 0.0
C5422 C 0.37658 0.64014 0.2189 0.0
C5423 C 0.40163 0.60595 0.17226 0.0
H5424 H 0.38188 0.66955 0.16297 0.0
H5425 H 0.42758 0.66556 0.18965 0.0
H5426 H 0.36952 0.62776 0.16684 0.0
H5427 H 0.36002 0.64002 0.18258 0.0
H5428 H 0.36241 0.6483 0.16209 0.0
H5429 H 0.43474 0.64157 0.20459 0.0
H5430 H 0.41679 0.63567 0.21638 0.0
H5431 H 0.4238 0.62269 0.19997 0.0
H5432 H 0.36257 0.61084 0.22616 0.0
H5433 H 0.38386 0.582 0.18702 0.0
H5434 H 0.36915 0.64857 0.21105 0.0
H5435 H 0.38862 0.64625 0.22124 0.0
H5436 H 0.37007 0.6385 0.23087 0.0
H5437 H 0.39522 0.61202 0.16178 0.0
H5438 H 0.40393 0.59284 0.16892 0.0
H5439 H 0.41368 0.61226 0.1739 0.0
C5440 C 0.06523 0.58955 0.83429 0.0
C5441 C 0.0749 0.5799 0.84494 0.0
C5442 C 0.05873 0.60478 0.83956 0.0
C5443 C 0.06216 0.61049 0.85574 0.0
C5444 C 0.07249 0.60109 0.86625 0.0
C5445 C 0.0787 0.58593 0.86073 0.0
C5446 C 0.04771 0.61446 0.82805 0.0
C5447 C 0.07671 0.60686 0.8835 0.0
C5448 C 0.05697 0.655 0.86921 0.0
C5449 C 0.04274 0.65398 0.87903 0.0
C5450 C 0.06302 0.64111 0.8608 0.0
C5451 C 0.05452 0.6259 0.86213 0.0
C5452 C 0.03958 0.62507 0.87121 0.0
C5453 C 0.03391 0.63911 0.87964 0.0
C5454 C 0.07904 0.64248 0.85135 0.0
C5455 C 0.0301 0.60909 0.87283 0.0
H5456 H 0.06221 0.58493 0.8221 0.0
H5457 H 0.08636 0.57863 0.86894 0.0
H5458 H 0.035 0.61493 0.83318 0.0
H5459 H 0.05213 0.62739 0.82699 0.0
H5460 H 0.04717 0.60893 0.8155 0.0
H5461 H 0.08434 0.59773 0.89032 0.0
H5462 H 0.08358 0.6187 0.88288 0.0
H5463 H 0.06526 0.60914 0.89068 0.0
H5464 H 0.06386 0.66647 0.86869 0.0
H5465 H 0.02285 0.63829 0.88715 0.0
H5466 H 0.07786 0.6367 0.83898 0.0
H5467 H 0.08889 0.63574 0.85809 0.0
H5468 H 0.08301 0.65552 0.84976 0.0
H5469 H 0.02827 0.60334 0.86053 0.0
H5470 H 0.01783 0.61093 0.87871 0.0
H5471 H 0.03729 0.60026 0.88046 0.0
C5472 C 0.1634 0.82968 0.10946 0.0
C5473 C 0.17037 0.82477 0.09439 0.0
C5474 C 0.14803 0.82366 0.11456 0.0
C5475 C 0.13944 0.81233 0.1044 0.0
C5476 C 0.14602 0.80788 0.08882 0.0
C5477 C 0.16143 0.81425 0.08393 0.0
C5478 C 0.14127 0.829 0.13112 0.0
C5479 C 0.13721 0.7958 0.0777 0.0
C5480 C 0.11167 0.78468 0.12978 0.0
C5481 C 0.09647 0.79283 0.12841 0.0
C5482 C 0.12555 0.79024 0.12106 0.0
C5483 C 0.12421 0.80438 0.11084 0.0
C5484 C 0.10865 0.81204 0.10862 0.0
C5485 C 0.09493 0.80612 0.11741 0.0
C5486 C 0.14191 0.78166 0.12367 0.0
C5487 C 0.10672 0.82714 0.09787 0.0
H5488 H 0.17018 0.83801 0.11746 0.0
H5489 H 0.16681 0.8104 0.07228 0.0
H5490 H 0.12895 0.83478 0.12948 0.0
H5491 H 0.13963 0.8181 0.13927 0.0
H5492 H 0.14949 0.83795 0.13746 0.0
H5493 H 0.14301 0.79501 0.06529 0.0
H5494 H 0.13743 0.78335 0.08341 0.0
H5495 H 0.12406 0.79936 0.07621 0.0
H5496 H 0.11288 0.77431 0.13818 0.0
H5497 H 0.08318 0.81245 0.11626 0.0
H5498 H 0.15021 0.78977 0.13097 0.0
H5499 H 0.14803 0.77925 0.11165 0.0
H5500 H 0.1405 0.76976 0.13036 0.0
H5501 H 0.11241 0.83793 0.10412 0.0
H5502 H 0.09353 0.83004 0.0954 0.0
H5503 H 0.11319 0.82545 0.08591 0.0
C5504 C 0.96662 0.86036 0.37884 0.0
C5505 C 0.95764 0.8456 0.37805 0.0
C5506 C 0.96118 0.87452 0.37046 0.0
C5507 C 0.94633 0.87391 0.36123 0.0
C5508 C 0.93768 0.8588 0.35971 0.0
C5509 C 0.9435 0.84479 0.36807 0.0
C5510 C 0.97082 0.89039 0.37229 0.0
C5511 C 0.92174 0.85767 0.35009 0.0
C5512 C 0.92263 0.91417 0.35991 0.0
C5513 C 0.92665 0.92027 0.3442 0.0
C5514 C 0.92859 0.89889 0.36536 0.0
C5515 C 0.93891 0.88945 0.35488 0.0
C5516 C 0.94258 0.89524 0.33878 0.0
C5517 C 0.93631 0.91059 0.33357 0.0
C5518 C 0.92413 0.89304 0.38252 0.0
C5519 C 0.9536 0.88552 0.3273 0.0
H5520 H 0.97761 0.86102 0.38647 0.0
H5521 H 0.9365 0.83339 0.36741 0.0
H5522 H 0.97283 0.8962 0.36005 0.0
H5523 H 0.96364 0.89924 0.37991 0.0
H5524 H 0.983 0.88838 0.37828 0.0
H5525 H 0.91766 0.84468 0.34836 0.0
H5526 H 0.91189 0.86444 0.35678 0.0
H5527 H 0.92311 0.86353 0.33778 0.0
H5528 H 0.91496 0.9215 0.36809 0.0
H5529 H 0.9395 0.91528 0.32144 0.0
H5530 H 0.93548 0.89066 0.38982 0.0
H5531 H 0.91721 0.88123 0.38174 0.0
H5532 H 0.91647 0.90217 0.38929 0.0
H5533 H 0.96624 0.88488 0.33254 0.0
H5534 H 0.95432 0.89114 0.31481 0.0
H5535 H 0.94904 0.87265 0.3261 0.0
C5536 C 0.83453 0.67248 0.61351 0.0
C5537 C 0.82829 0.67671 0.59791 0.0
C5538 C 0.8498 0.67848 0.61895 0.0
C5539 C 0.85907 0.68905 0.60857 0.0
C5540 C 0.85317 0.69288 0.59255 0.0
C5541 C 0.83784 0.68657 0.58735 0.0
C5542 C 0.8558 0.67384 0.636 0.0
C5543 C 0.86271 0.70418 0.5812 0.0
C5544 C 0.88775 0.71681 0.63295 0.0
C5545 C 0.90265 0.70807 0.632 0.0
C5546 C 0.87367 0.71131 0.62447 0.0
C5547 C 0.87451 0.69662 0.615 0.0
C5548 C 0.88974 0.68822 0.61333 0.0
C5549 C 0.90367 0.69411 0.62179 0.0
C5550 C 0.85767 0.72068 0.62645 0.0
C5551 C 0.89111 0.67247 0.60345 0.0
H5552 H 0.82729 0.66468 0.62163 0.0
H5553 H 0.83304 0.68992 0.57531 0.0
H5554 H 0.86781 0.6673 0.63511 0.0
H5555 H 0.85783 0.6851 0.64354 0.0
H5556 H 0.84691 0.66577 0.64262 0.0
H5557 H 0.85711 0.70489 0.56869 0.0
H5558 H 0.86307 0.71679 0.58654 0.0
H5559 H 0.87567 0.6999 0.58 0.0
H5560 H 0.88693 0.72766 0.64075 0.0
H5561 H 0.91517 0.6873 0.621 0.0
H5562 H 0.84893 0.71326 0.63397 0.0
H5563 H 0.85181 0.72278 0.61424 0.0
H5564 H 0.85949 0.7328 0.63262 0.0
H5565 H 0.88453 0.66239 0.61002 0.0
H5566 H 0.90416 0.66864 0.60161 0.0
H5567 H 0.88517 0.67392 0.59119 0.0
C5568 C 0.05416 0.34426 0.13074 0.0
C5569 C 0.04037 0.34555 0.12032 0.0
C5570 C 0.06006 0.35801 0.13947 0.0
C5571 C 0.05187 0.37336 0.13785 0.0
C5572 C 0.03735 0.37448 0.12814 0.0
C5573 C 0.03181 0.36056 0.11942 0.0
C5574 C 0.07563 0.35634 0.1496 0.0
C5575 C 0.0282 0.39061 0.1262 0.0
C5576 C 0.06221 0.40932 0.16634 0.0
C5577 C 0.07253 0.41881 0.15617 0.0
C5578 C 0.05556 0.39429 0.1607 0.0
C5579 C 0.05951 0.38862 0.14463 0.0
C5580 C 0.07047 0.39784 0.13461 0.0
C5581 C 0.0768 0.41281 0.14048 0.0
C5582 C 0.04387 0.3848 0.17168 0.0
C5583 C 0.07524 0.39209 0.1175 0.0
H5584 H 0.06082 0.33268 0.13152 0.0
H5585 H 0.02109 0.36159 0.11147 0.0
H5586 H 0.08586 0.36299 0.14336 0.0
H5587 H 0.07399 0.36203 0.16195 0.0
H5588 H 0.07934 0.34323 0.15124 0.0
H5589 H 0.01616 0.389 0.11982 0.0
H5590 H 0.02597 0.39635 0.13845 0.0
H5591 H 0.03584 0.39935 0.11891 0.0
H5592 H 0.05883 0.41395 0.17845 0.0
H5593 H 0.08496 0.41999 0.13265 0.0
H5594 H 0.04798 0.37179 0.17288 0.0
H5595 H 0.03139 0.38461 0.16601 0.0
H5596 H 0.04289 0.3903 0.18421 0.0
H5597 H 0.0815 0.37992 0.11824 0.0
H5598 H 0.08361 0.40093 0.11119 0.0
H5599 H 0.06405 0.39047 0.10976 0.0
C5600 C 0.33393 0.82802 0.38957 0.0
C5601 C 0.32773 0.82445 0.40535 0.0
C5602 C 0.34914 0.82172 0.38429 0.0
C5603 C 0.35843 0.81155 0.39504 0.0
C5604 C 0.35258 0.80838 0.41123 0.0
C5605 C 0.33729 0.81495 0.41624 0.0
C5606 C 0.35506 0.82566 0.36703 0.0
C5607 C 0.36215 0.79755 0.42299 0.0
C5608 C 0.38718 0.78289 0.37177 0.0
C5609 C 0.40207 0.79168 0.37235 0.0
C5610 C 0.37309 0.7887 0.38002 0.0
C5611 C 0.37389 0.80377 0.38889 0.0
C5612 C 0.38911 0.81227 0.39018 0.0
C5613 C 0.40305 0.80606 0.38197 0.0
C5614 C 0.3571 0.77923 0.37843 0.0
C5615 C 0.39045 0.82843 0.39939 0.0
H5616 H 0.32671 0.83554 0.38117 0.0
H5617 H 0.33254 0.81211 0.42843 0.0
H5618 H 0.36681 0.83269 0.36766 0.0
H5619 H 0.35757 0.81412 0.36009 0.0
H5620 H 0.34592 0.83304 0.35996 0.0
H5621 H 0.35653 0.79725 0.43551 0.0
H5622 H 0.36261 0.78476 0.4181 0.0
H5623 H 0.37509 0.80195 0.42406 0.0
H5624 H 0.38639 0.77172 0.36442 0.0
H5625 H 0.41454 0.81292 0.38247 0.0
H5626 H 0.34834 0.78633 0.37063 0.0
H5627 H 0.35126 0.77761 0.39072 0.0
H5628 H 0.35895 0.76688 0.37275 0.0
H5629 H 0.3838 0.83819 0.39243 0.0
H5630 H 0.40349 0.83238 0.40102 0.0
H5631 H 0.38455 0.82746 0.41172 0.0
C5632 C 0.94403 0.15714 0.63056 0.0
C5633 C 0.95759 0.156 0.61984 0.0
C5634 C 0.93824 0.14322 0.6391 0.0
C5635 C 0.9463 0.12786 0.63694 0.0
C5636 C 0.96062 0.12689 0.62693 0.0
C5637 C 0.96607 0.14098 0.61845 0.0
C5638 C 0.92289 0.14474 0.64959 0.0
C5639 C 0.96963 0.11076 0.62442 0.0
C5640 C 0.9362 0.09126 0.66464 0.0
C5641 C 0.92565 0.08212 0.65439 0.0
C5642 C 0.94289 0.10636 0.65927 0.0
C5643 C 0.93868 0.11249 0.64343 0.0
C5644 C 0.92751 0.1036 0.63334 0.0
C5645 C 0.92123 0.08849 0.6389 0.0
C5646 C 0.95484 0.11549 0.67028 0.0
C5647 C 0.92246 0.10986 0.61649 0.0
H5648 H 0.93745 0.16873 0.63173 0.0
H5649 H 0.97663 0.14007 0.61027 0.0
H5650 H 0.91248 0.13835 0.64337 0.0
H5651 H 0.92473 0.13869 0.66174 0.0
H5652 H 0.91933 0.15783 0.65167 0.0
H5653 H 0.98158 0.11246 0.61788 0.0
H5654 H 0.97203 0.10468 0.63647 0.0
H5655 H 0.96182 0.10227 0.61702 0.0
H5656 H 0.93968 0.08634 0.67659 0.0
H5657 H 0.91292 0.08155 0.63102 0.0
H5658 H 0.95079 0.12846 0.67197 0.0
H5659 H 0.9672 0.11583 0.66436 0.0
H5660 H 0.95607 0.1096 0.68262 0.0
H5661 H 0.91706 0.12241 0.61755 0.0
H5662 H 0.9133 0.10166 0.61043 0.0
H5663 H 0.93346 0.11081 0.60837 0.0
C5664 C 0.60866 0.71345 0.87218 0.0
C5665 C 0.59303 0.70622 0.87385 0.0
C5666 C 0.62227 0.70732 0.88096 0.0
C5667 C 0.62018 0.69366 0.89169 0.0
C5668 C 0.60422 0.68701 0.89424 0.0
C5669 C 0.59082 0.69338 0.88527 0.0
C5670 C 0.63909 0.71481 0.87794 0.0
C5671 C 0.60148 0.67247 0.90558 0.0
C5672 C 0.65838 0.66698 0.89371 0.0
C5673 C 0.66597 0.67265 0.9082 0.0
C5674 C 0.64296 0.67299 0.88876 0.0
C5675 C 0.63498 0.68515 0.89846 0.0
C5676 C 0.64204 0.69014 0.91368 0.0
C5677 C 0.65749 0.68374 0.91843 0.0
C5678 C 0.63579 0.66712 0.87256 0.0
C5679 C 0.63382 0.70298 0.9244 0.0
H5680 H 0.61042 0.72348 0.86348 0.0
H5681 H 0.57873 0.68778 0.8867 0.0
H5682 H 0.64532 0.71752 0.88984 0.0
H5683 H 0.64693 0.70586 0.87114 0.0
H5684 H 0.63837 0.72639 0.87061 0.0
H5685 H 0.58816 0.67035 0.90811 0.0
H5686 H 0.60664 0.66116 0.8998 0.0
H5687 H 0.60801 0.67432 0.91749 0.0
H5688 H 0.66484 0.65825 0.88586 0.0
H5689 H 0.66334 0.68818 0.92963 0.0
H5690 H 0.6371 0.67702 0.86317 0.0
H5691 H 0.62243 0.66436 0.87382 0.0
H5692 H 0.64213 0.65588 0.8679 0.0
H5693 H 0.63487 0.71525 0.91839 0.0
H5694 H 0.63957 0.70373 0.93683 0.0
H5695 H 0.62047 0.70025 0.92584 0.0
C5696 C 0.3622 0.58019 0.58496 0.0
C5697 C 0.34694 0.57552 0.57824 0.0
C5698 C 0.36721 0.57455 0.60051 0.0
C5699 C 0.35673 0.5639 0.60957 0.0
C5700 C 0.34099 0.55967 0.6032 0.0
C5701 C 0.33622 0.56562 0.58759 0.0
C5702 C 0.38392 0.57967 0.60705 0.0
C5703 C 0.32953 0.54831 0.61252 0.0
C5704 C 0.38096 0.53669 0.63884 0.0
C5705 C 0.37958 0.54546 0.65368 0.0
C5706 C 0.37264 0.54197 0.62459 0.0
C5707 C 0.36288 0.55648 0.6252 0.0
C5708 C 0.36075 0.56489 0.64037 0.0
C5709 C 0.36907 0.55921 0.65448 0.0
C5710 C 0.37514 0.53261 0.60866 0.0
C5711 C 0.35055 0.58045 0.6415 0.0
H5712 H 0.37041 0.58806 0.5779 0.0
H5713 H 0.32443 0.56195 0.58242 0.0
H5714 H 0.38233 0.58666 0.61872 0.0
H5715 H 0.39152 0.56863 0.60988 0.0
H5716 H 0.39084 0.5875 0.59816 0.0
H5717 H 0.31718 0.54743 0.60661 0.0
H5718 H 0.335 0.53576 0.61309 0.0
H5719 H 0.32796 0.55265 0.62542 0.0
H5720 H 0.38899 0.52599 0.6382 0.0
H5721 H 0.36797 0.56605 0.66594 0.0
H5722 H 0.38273 0.54014 0.60008 0.0
H5723 H 0.36311 0.53027 0.60254 0.0
H5724 H 0.38148 0.5206 0.61065 0.0
H5725 H 0.35722 0.59071 0.63534 0.0
H5726 H 0.34811 0.58408 0.65451 0.0
H5727 H 0.33857 0.57889 0.63503 0.0
C5728 C 0.86119 0.42253 0.91251 0.0
C5729 C 0.84574 0.42698 0.91895 0.0
C5730 C 0.86665 0.42868 0.89731 0.0
C5731 C 0.85648 0.43973 0.88836 0.0
C5732 C 0.84061 0.44385 0.89449 0.0
C5733 C 0.83536 0.43732 0.90971 0.0
C5734 C 0.88352 0.42372 0.89105 0.0
C5735 C 0.82949 0.45566 0.88531 0.0
C5736 C 0.88136 0.46737 0.86 0.0
C5737 C 0.88009 0.45892 0.84496 0.0
C5738 C 0.87286 0.46183 0.87405 0.0
C5739 C 0.86297 0.44743 0.87301 0.0
C5740 C 0.86093 0.43938 0.85763 0.0
C5741 C 0.86947 0.44528 0.84376 0.0
C5742 C 0.87522 0.47083 0.89021 0.0
C5743 C 0.85059 0.42394 0.85605 0.0
H5744 H 0.86918 0.41438 0.91953 0.0
H5745 H 0.82344 0.44085 0.91468 0.0
H5746 H 0.88251 0.41832 0.87849 0.0
H5747 H 0.89159 0.43476 0.89011 0.0
H5748 H 0.88963 0.41458 0.89924 0.0
H5749 H 0.81707 0.45662 0.89106 0.0
H5750 H 0.8352 0.46812 0.88511 0.0
H5751 H 0.82802 0.45166 0.87228 0.0
H5752 H 0.88947 0.47798 0.86096 0.0
H5753 H 0.86841 0.43871 0.83214 0.0
H5754 H 0.88263 0.46306 0.89873 0.0
H5755 H 0.86313 0.47313 0.89622 0.0
H5756 H 0.88168 0.48282 0.88855 0.0
H5757 H 0.85691 0.41357 0.8624 0.0
H5758 H 0.84856 0.42041 0.84294 0.0
H5759 H 0.83842 0.42564 0.8621 0.0
C5760 C 0.28388 0.62969 0.11081 0.0
C5761 C 0.29276 0.62898 0.09598 0.0
C5762 C 0.28945 0.62128 0.1249 0.0
C5763 C 0.30434 0.61213 0.12415 0.0
C5764 C 0.31289 0.61068 0.10898 0.0
C5765 C 0.30694 0.61906 0.09503 0.0
C5766 C 0.27992 0.62303 0.14084 0.0
C5767 C 0.32886 0.60114 0.10771 0.0
C5768 C 0.32821 0.61111 0.16431 0.0
C5769 C 0.32424 0.59543 0.17053 0.0
C5770 C 0.32221 0.61643 0.149 0.0
C5771 C 0.31193 0.60584 0.13965 0.0
C5772 C 0.30837 0.58975 0.14552 0.0
C5773 C 0.31466 0.58468 0.1609 0.0
C5774 C 0.32656 0.63358 0.14304 0.0
C5775 C 0.29741 0.57816 0.13588 0.0
H5776 H 0.27286 0.63726 0.11156 0.0
H5777 H 0.31386 0.61846 0.08359 0.0
H5778 H 0.27803 0.61077 0.14665 0.0
H5779 H 0.28711 0.63069 0.14964 0.0
H5780 H 0.26768 0.62894 0.13893 0.0
H5781 H 0.3328 0.59937 0.09468 0.0
H5782 H 0.33876 0.60793 0.11433 0.0
H5783 H 0.32764 0.58886 0.11365 0.0
H5784 H 0.33582 0.61938 0.17159 0.0
H5785 H 0.31152 0.57257 0.16568 0.0
H5786 H 0.31516 0.64082 0.1407 0.0
H5787 H 0.33341 0.6328 0.1312 0.0
H5788 H 0.33423 0.64044 0.1521 0.0
H5789 H 0.28469 0.58324 0.13539 0.0
H5790 H 0.2969 0.56564 0.14148 0.0
H5791 H 0.30184 0.57705 0.12296 0.0
C5792 C 0.13888 0.07849 0.41498 0.0
C5793 C 0.15429 0.07415 0.4216 0.0
C5794 C 0.13377 0.07252 0.39958 0.0
C5795 C 0.14427 0.06181 0.3906 0.0
C5796 C 0.16011 0.05787 0.39689 0.0
C5797 C 0.165 0.06419 0.41232 0.0
C5798 C 0.1169 0.07728 0.39317 0.0
C5799 C 0.1716 0.04645 0.38766 0.0
C5800 C 0.12026 0.03399 0.36169 0.0
C5801 C 0.12148 0.04263 0.34675 0.0
C5802 C 0.12851 0.03955 0.37587 0.0
C5803 C 0.1381 0.05416 0.3751 0.0
C5804 C 0.14011 0.06242 0.35983 0.0
C5805 C 0.13182 0.05651 0.3458 0.0
C5806 C 0.12618 0.03032 0.39191 0.0
C5807 C 0.15014 0.07808 0.35851 0.0
H5808 H 0.13064 0.08637 0.42201 0.0
H5809 H 0.1769 0.06077 0.41741 0.0
H5810 H 0.118 0.08299 0.38076 0.0
H5811 H 0.10908 0.0661 0.39185 0.0
H5812 H 0.11047 0.08609 0.40148 0.0
H5813 H 0.18399 0.04573 0.39351 0.0
H5814 H 0.1662 0.03386 0.38729 0.0
H5815 H 0.17307 0.05062 0.37469 0.0
H5816 H 0.11237 0.02319 0.36246 0.0
H5817 H 0.13284 0.06324 0.33427 0.0
H5818 H 0.11855 0.03785 0.40045 0.0
H5819 H 0.13826 0.02817 0.398 0.0
H5820 H 0.11995 0.01823 0.39007 0.0
H5821 H 0.14352 0.08828 0.36485 0.0
H5822 H 0.15228 0.08176 0.34546 0.0
H5823 H 0.16226 0.0766 0.36472 0.0
C5824 C 0.19221 0.38177 0.59462 0.0
C5825 C 0.20669 0.37227 0.59509 0.0
C5826 C 0.18635 0.38977 0.60884 0.0
C5827 C 0.19528 0.38833 0.62379 0.0
C5828 C 0.21045 0.37962 0.62405 0.0
C5829 C 0.21593 0.37161 0.60969 0.0
C5830 C 0.17009 0.39887 0.60808 0.0
C5831 C 0.22039 0.37789 0.63973 0.0
C5832 C 0.18525 0.41481 0.66131 0.0
C5833 C 0.17624 0.40363 0.67099 0.0
C5834 C 0.1912 0.41021 0.64565 0.0
C5835 C 0.1879 0.39415 0.63956 0.0
C5836 C 0.17816 0.38312 0.64899 0.0
C5837 C 0.17248 0.38798 0.66458 0.0
C5838 C 0.20157 0.42227 0.63593 0.0
C5839 C 0.17409 0.36597 0.64282 0.0
H5840 H 0.185 0.38232 0.58335 0.0
H5841 H 0.22719 0.36436 0.61008 0.0
H5842 H 0.16053 0.39167 0.61477 0.0
H5843 H 0.17108 0.41106 0.61425 0.0
H5844 H 0.16583 0.40077 0.59518 0.0
H5845 H 0.23274 0.37235 0.63745 0.0
H5846 H 0.22208 0.39011 0.64569 0.0
H5847 H 0.21362 0.3699 0.64858 0.0
H5848 H 0.18821 0.42691 0.66622 0.0
H5849 H 0.1653 0.37937 0.6719 0.0
H5850 H 0.19677 0.42347 0.62315 0.0
H5851 H 0.21442 0.41758 0.63502 0.0
H5852 H 0.20186 0.43471 0.64173 0.0
H5853 H 0.16717 0.36678 0.63102 0.0
H5854 H 0.1666 0.35885 0.65182 0.0
H5855 H 0.18563 0.359 0.64033 0.0
C5856 C 0.66717 0.43323 0.59192 0.0
C5857 C 0.65686 0.42214 0.58353 0.0
C5858 C 0.66248 0.43975 0.60733 0.0
C5859 C 0.64724 0.43491 0.61443 0.0
C5860 C 0.63745 0.42276 0.60654 0.0
C5861 C 0.64234 0.4166 0.59116 0.0
C5862 C 0.67328 0.45259 0.61544 0.0
C5863 C 0.62123 0.41705 0.61378 0.0
C5864 C 0.63381 0.44327 0.65844 0.0
C5865 C 0.62232 0.45602 0.65608 0.0
C5866 C 0.64295 0.43694 0.64514 0.0
C5867 C 0.64051 0.44355 0.62916 0.0
C5868 C 0.62978 0.45719 0.62694 0.0
C5869 C 0.6208 0.46327 0.64045 0.0
C5870 C 0.65431 0.42243 0.64801 0.0
C5871 C 0.62691 0.46467 0.61009 0.0
H5872 H 0.67839 0.43756 0.58604 0.0
H5873 H 0.63444 0.40788 0.58478 0.0
H5874 H 0.66742 0.46491 0.61418 0.0
H5875 H 0.67461 0.45004 0.62884 0.0
H5876 H 0.68577 0.45312 0.60976 0.0
H5877 H 0.61634 0.40598 0.60734 0.0
H5878 H 0.6226 0.41408 0.62708 0.0
H5879 H 0.61197 0.4271 0.61272 0.0
H5880 H 0.63512 0.43768 0.67054 0.0
H5881 H 0.61206 0.47324 0.63859 0.0
H5882 H 0.6662 0.4242 0.64143 0.0
H5883 H 0.6485 0.41107 0.643 0.0
H5884 H 0.65687 0.42047 0.66134 0.0
H5885 H 0.63886 0.46726 0.60391 0.0
H5886 H 0.61969 0.47632 0.61076 0.0
H5887 H 0.62006 0.45577 0.60225 0.0
C5888 C 0.30539 0.88346 0.40691 0.0
C5889 C 0.29175 0.87284 0.40573 0.0
C5890 C 0.31149 0.8917 0.39293 0.0
C5891 C 0.30371 0.88928 0.37747 0.0
C5892 C 0.28929 0.87942 0.37645 0.0
C5893 C 0.28349 0.8713 0.39061 0.0
C5894 C 0.32689 0.9021 0.39451 0.0
C5895 C 0.28056 0.87661 0.36021 0.0
C5896 C 0.31354 0.91498 0.33941 0.0
C5897 C 0.32362 0.90403 0.33055 0.0
C5898 C 0.30742 0.91069 0.35509 0.0
C5899 C 0.31169 0.89521 0.36204 0.0
C5900 C 0.32271 0.88462 0.35356 0.0
C5901 C 0.32845 0.88911 0.33789 0.0
C5902 C 0.29574 0.9223 0.36381 0.0
C5903 C 0.32781 0.86813 0.36065 0.0
H5904 H 0.3118 0.88475 0.41859 0.0
H5905 H 0.27286 0.86322 0.38966 0.0
H5906 H 0.33745 0.89546 0.38882 0.0
H5907 H 0.32543 0.91397 0.38784 0.0
H5908 H 0.32999 0.90474 0.40762 0.0
H5909 H 0.26856 0.87015 0.36182 0.0
H5910 H 0.27832 0.88854 0.35385 0.0
H5911 H 0.2885 0.86902 0.35201 0.0
H5912 H 0.30977 0.92652 0.33376 0.0
H5913 H 0.33642 0.88071 0.33118 0.0
H5914 H 0.29947 0.92395 0.37689 0.0
H5915 H 0.28313 0.91693 0.36381 0.0
H5916 H 0.29523 0.93461 0.35776 0.0
H5917 H 0.33208 0.86954 0.37359 0.0
H5918 H 0.33784 0.86227 0.35338 0.0
H5919 H 0.31703 0.85966 0.36077 0.0
C5920 C 0.67054 0.6098 0.83733 0.0
C5921 C 0.67523 0.59462 0.83045 0.0
C5922 C 0.6764 0.61478 0.85281 0.0
C5923 C 0.68733 0.60436 0.86161 0.0
C5924 C 0.69157 0.58869 0.85509 0.0
C5925 C 0.68537 0.58394 0.83957 0.0
C5926 C 0.67127 0.63142 0.85951 0.0
C5927 C 0.70324 0.5773 0.86412 0.0
C5928 C 0.71489 0.62902 0.89014 0.0
C5929 C 0.7064 0.6277 0.90515 0.0
C5930 C 0.70944 0.6205 0.87608 0.0
C5931 C 0.69507 0.61057 0.87705 0.0
C5932 C 0.68702 0.60843 0.89241 0.0
C5933 C 0.69284 0.61699 0.90633 0.0
C5934 C 0.71844 0.62301 0.85993 0.0
C5935 C 0.67164 0.59801 0.89395 0.0
H5936 H 0.66249 0.61798 0.83043 0.0
H5937 H 0.68905 0.57221 0.83427 0.0
H5938 H 0.66492 0.62981 0.87155 0.0
H5939 H 0.68231 0.63924 0.8617 0.0
H5940 H 0.66286 0.6381 0.851 0.0
H5941 H 0.70398 0.56493 0.85824 0.0
H5942 H 0.71579 0.58281 0.86428 0.0
H5943 H 0.6993 0.57578 0.87716 0.0
H5944 H 0.72545 0.6372 0.88921 0.0
H5945 H 0.68623 0.6159 0.91792 0.0
H5946 H 0.71067 0.63052 0.8515 0.0
H5947 H 0.72073 0.61098 0.8538 0.0
H5948 H 0.73045 0.62944 0.86165 0.0
H5949 H 0.66113 0.60453 0.88805 0.0
H5950 H 0.66838 0.59554 0.90705 0.0
H5951 H 0.67321 0.58605 0.88745 0.0
C5952 C 0.63897 0.37855 0.53495 0.0
C5953 C 0.65424 0.37686 0.5429 0.0
C5954 C 0.62508 0.36979 0.54045 0.0
C5955 C 0.6265 0.35918 0.55429 0.0
C5956 C 0.64212 0.35661 0.56168 0.0
C5957 C 0.65585 0.36546 0.55586 0.0
C5958 C 0.60864 0.37279 0.53215 0.0
C5959 C 0.64415 0.3454 0.57644 0.0
C5960 C 0.5876 0.35798 0.58005 0.0
C5961 C 0.58019 0.34324 0.5748 0.0
C5962 C 0.60304 0.36286 0.57402 0.0
C5963 C 0.61128 0.3528 0.56235 0.0
C5964 C 0.60429 0.33747 0.55761 0.0
C5965 C 0.58881 0.33281 0.56398 0.0
C5966 C 0.61021 0.37914 0.57965 0.0
C5967 C 0.61273 0.32645 0.54518 0.0
H5968 H 0.6377 0.38723 0.52484 0.0
H5969 H 0.66766 0.36404 0.56201 0.0
H5970 H 0.60235 0.3609 0.52954 0.0
H5971 H 0.60054 0.37998 0.54055 0.0
H5972 H 0.60998 0.37975 0.5204 0.0
H5973 H 0.65735 0.34262 0.579 0.0
H5974 H 0.6388 0.35147 0.58751 0.0
H5975 H 0.63743 0.33361 0.57456 0.0
H5976 H 0.58108 0.36596 0.5886 0.0
H5977 H 0.5831 0.32142 0.55986 0.0
H5978 H 0.61163 0.38759 0.56894 0.0
H5979 H 0.62267 0.37718 0.58501 0.0
H5980 H 0.60235 0.38533 0.589 0.0
H5981 H 0.61225 0.33233 0.53281 0.0
H5982 H 0.60679 0.3141 0.54437 0.0
H5983 H 0.62595 0.3248 0.5484 0.0
C5984 C 0.41634 0.3401 0.81569 0.0
C5985 C 0.40539 0.33042 0.825 0.0
C5986 C 0.41148 0.35564 0.80961 0.0
C5987 C 0.39539 0.36159 0.81305 0.0
C5988 C 0.38461 0.35218 0.82308 0.0
C5989 C 0.38974 0.33674 0.82892 0.0
C5990 C 0.42329 0.36535 0.79894 0.0
C5991 C 0.36745 0.35818 0.8273 0.0
C5992 C 0.38214 0.40624 0.80832 0.0
C5993 C 0.37243 0.4054 0.794 0.0
C5994 C 0.39053 0.39227 0.81423 0.0
C5995 C 0.38926 0.37717 0.80551 0.0
C5996 C 0.38032 0.37655 0.79048 0.0
C5997 C 0.37194 0.39067 0.78495 0.0
C5998 C 0.39987 0.39342 0.83032 0.0
C5999 C 0.37872 0.3607 0.78078 0.0
H6000 H 0.42844 0.33527 0.81261 0.0
H6001 H 0.38132 0.32944 0.83633 0.0
H6002 H 0.41845 0.36594 0.78613 0.0
H6003 H 0.42433 0.37824 0.80349 0.0
H6004 H 0.43581 0.35974 0.79864 0.0
H6005 H 0.36038 0.34899 0.83462 0.0
H6006 H 0.36827 0.36982 0.8345 0.0
H6007 H 0.36041 0.36092 0.81587 0.0
H6008 H 0.38258 0.41762 0.81537 0.0
H6009 H 0.36453 0.38999 0.77381 0.0
H6010 H 0.41212 0.38737 0.82925 0.0
H6011 H 0.39289 0.38683 0.84011 0.0
H6012 H 0.40169 0.40642 0.83431 0.0
H6013 H 0.39102 0.35491 0.77902 0.0
H6014 H 0.37299 0.36271 0.76848 0.0
H6015 H 0.37096 0.35183 0.78778 0.0
C6016 C 0.41498 0.13586 0.07839 0.0
C6017 C 0.42084 0.15183 0.07508 0.0
C6018 C 0.39938 0.13076 0.07297 0.0
C6019 C 0.38936 0.14188 0.06395 0.0
C6020 C 0.39494 0.1582 0.06101 0.0
C6021 C 0.41062 0.16303 0.06669 0.0
C6022 C 0.39377 0.11334 0.07662 0.0
C6023 C 0.38458 0.17035 0.05139 0.0
C6024 C 0.35861 0.11999 0.03634 0.0
C6025 C 0.34437 0.12021 0.04616 0.0
C6026 C 0.37312 0.12788 0.04157 0.0
C6027 C 0.3734 0.13601 0.05705 0.0
C6028 C 0.35882 0.13695 0.06664 0.0
C6029 C 0.34443 0.12909 0.06103 0.0
C6030 C 0.38841 0.12669 0.03095 0.0
C6031 C 0.35866 0.14539 0.08327 0.0
H6032 H 0.42271 0.12722 0.08509 0.0
H6033 H 0.41509 0.17537 0.06408 0.0
H6034 H 0.38237 0.11362 0.08421 0.0
H6035 H 0.39076 0.10678 0.06497 0.0
H6036 H 0.4033 0.1061 0.08332 0.0
H6037 H 0.39022 0.18286 0.05105 0.0
H6038 H 0.38303 0.1659 0.03852 0.0
H6039 H 0.37206 0.17131 0.05688 0.0
H6040 H 0.35859 0.1132 0.0248 0.0
H6041 H 0.33344 0.12928 0.06868 0.0
H6042 H 0.39764 0.11863 0.03709 0.0
H6043 H 0.39414 0.13905 0.02942 0.0
H6044 H 0.3857 0.12152 0.01853 0.0
H6045 H 0.366 0.13802 0.09219 0.0
H6046 H 0.34594 0.14679 0.08824 0.0
H6047 H 0.36446 0.15777 0.08245 0.0
C6048 C 0.58438 0.16077 0.31232 0.0
C6049 C 0.59506 0.17058 0.32179 0.0
C6050 C 0.58964 0.14546 0.30601 0.0
C6051 C 0.60586 0.13984 0.30943 0.0
C6052 C 0.61641 0.14942 0.31954 0.0
C6053 C 0.6109 0.16466 0.32555 0.0
C6054 C 0.57809 0.13558 0.29522 0.0
C6055 C 0.63369 0.14374 0.32375 0.0
C6056 C 0.61939 0.09526 0.30496 0.0
C6057 C 0.62916 0.09606 0.29067 0.0
C6058 C 0.61098 0.10924 0.3108 0.0
C6059 C 0.61223 0.1243 0.30202 0.0
C6060 C 0.62126 0.12489 0.28704 0.0
C6061 C 0.62971 0.11077 0.28159 0.0
C6062 C 0.60161 0.10814 0.32689 0.0
C6063 C 0.62279 0.1407 0.27726 0.0
H6064 H 0.57214 0.16531 0.30934 0.0
H6065 H 0.61914 0.17208 0.33306 0.0
H6066 H 0.58317 0.13485 0.28251 0.0
H6067 H 0.57702 0.12275 0.2999 0.0
H6068 H 0.56554 0.14112 0.29461 0.0
H6069 H 0.64048 0.15291 0.33134 0.0
H6070 H 0.63314 0.13191 0.33065 0.0
H6071 H 0.64086 0.14146 0.3123 0.0
H6072 H 0.61893 0.08391 0.31205 0.0
H6073 H 0.63717 0.11141 0.27049 0.0
H6074 H 0.58923 0.11388 0.32567 0.0
H6075 H 0.60839 0.11505 0.33659 0.0
H6076 H 0.60006 0.09517 0.33108 0.0
H6077 H 0.61046 0.14639 0.2754 0.0
H6078 H 0.6286 0.13865 0.26499 0.0
H6079 H 0.63044 0.14967 0.28424 0.0
C6080 C 0.58689 0.64062 0.42285 0.0
C6081 C 0.58067 0.65617 0.42725 0.0
C6082 C 0.60208 0.63504 0.42891 0.0
C6083 C 0.61126 0.64521 0.43976 0.0
C6084 C 0.60534 0.66116 0.44385 0.0
C6085 C 0.59012 0.66652 0.43743 0.0
C6086 C 0.60816 0.61811 0.42393 0.0
C6087 C 0.61478 0.67228 0.45545 0.0
C6088 C 0.63962 0.62016 0.4672 0.0
C6089 C 0.65459 0.62123 0.4586 0.0
C6090 C 0.62564 0.62884 0.4618 0.0
C6091 C 0.62663 0.63863 0.44733 0.0
C6092 C 0.64194 0.64044 0.43911 0.0
C6093 C 0.65579 0.63177 0.4449 0.0
C6094 C 0.60955 0.6267 0.47099 0.0
C6095 C 0.64348 0.65065 0.42358 0.0
H6096 H 0.57974 0.63268 0.41477 0.0
H6097 H 0.58532 0.67853 0.4409 0.0
H6098 H 0.62014 0.61925 0.41738 0.0
H6099 H 0.61028 0.61037 0.43503 0.0
H6100 H 0.5993 0.61159 0.41574 0.0
H6101 H 0.60912 0.68474 0.45645 0.0
H6102 H 0.61514 0.66663 0.46794 0.0
H6103 H 0.62775 0.67364 0.45125 0.0
H6104 H 0.63869 0.6121 0.47785 0.0
H6105 H 0.66734 0.63264 0.43819 0.0
H6106 H 0.60088 0.61932 0.46337 0.0
H6107 H 0.60368 0.63888 0.47327 0.0
H6108 H 0.61127 0.62032 0.48302 0.0
H6109 H 0.63709 0.64425 0.41328 0.0
H6110 H 0.65657 0.65263 0.41999 0.0
H6111 H 0.63745 0.66285 0.42519 0.0
C6112 C 0.11858 0.404 0.69459 0.0
C6113 C 0.1291 0.40292 0.70831 0.0
C6114 C 0.11023 0.39002 0.68865 0.0
C6115 C 0.11238 0.37468 0.69672 0.0
C6116 C 0.12215 0.37377 0.7112 0.0
C6117 C 0.13046 0.38791 0.71679 0.0
C6118 C 0.09998 0.39148 0.67314 0.0
C6119 C 0.12465 0.35765 0.72024 0.0
C6120 C 0.08556 0.33739 0.6867 0.0
C6121 C 0.09623 0.32825 0.67657 0.0
C6122 C 0.09042 0.35281 0.69306 0.0
C6123 C 0.10618 0.35923 0.68898 0.0
C6124 C 0.1166 0.3504 0.67807 0.0
C6125 C 0.11153 0.335 0.67208 0.0
C6126 C 0.07902 0.36188 0.70469 0.0
C6127 C 0.13338 0.35695 0.67316 0.0
H6128 H 0.11746 0.41559 0.68799 0.0
H6129 H 0.13849 0.38705 0.72748 0.0
H6130 H 0.1065 0.38531 0.66278 0.0
H6131 H 0.08791 0.38519 0.6747 0.0
H6132 H 0.09773 0.40456 0.66965 0.0
H6133 H 0.13101 0.35938 0.73227 0.0
H6134 H 0.1126 0.3515 0.72247 0.0
H6135 H 0.1322 0.3492 0.71253 0.0
H6136 H 0.07374 0.33219 0.69024 0.0
H6137 H 0.11972 0.32807 0.66406 0.0
H6138 H 0.07749 0.3749 0.70071 0.0
H6139 H 0.08452 0.36209 0.71724 0.0
H6140 H 0.06665 0.356 0.70545 0.0
H6141 H 0.13215 0.36943 0.66765 0.0
H6142 H 0.1397 0.3488 0.66415 0.0
H6143 H 0.14135 0.35814 0.68425 0.0
C6144 C 0.34468 0.87026 0.94218 0.0
C6145 C 0.34516 0.88009 0.95645 0.0
C6146 C 0.35891 0.86221 0.93643 0.0
C6147 C 0.3739 0.86394 0.94524 0.0
C6148 C 0.37419 0.87299 0.96021 0.0
C6149 C 0.35981 0.88103 0.9656 0.0
C6150 C 0.35812 0.85275 0.92038 0.0
C6151 C 0.38992 0.87502 0.97003 0.0
C6152 C 0.41132 0.83728 0.93534 0.0
C6153 C 0.42088 0.84827 0.92596 0.0
C6154 C 0.39577 0.84202 0.94145 0.0
C6155 C 0.38964 0.85802 0.93789 0.0
C6156 C 0.39894 0.86885 0.92782 0.0
C6157 C 0.41446 0.86387 0.92204 0.0
C6158 C 0.38619 0.83019 0.9522 0.0
C6159 C 0.39272 0.88591 0.92349 0.0
H6160 H 0.33337 0.86947 0.93506 0.0
H6161 H 0.36021 0.88852 0.97669 0.0
H6162 H 0.36483 0.8597 0.91066 0.0
H6163 H 0.36424 0.84056 0.92166 0.0
H6164 H 0.3452 0.85078 0.91617 0.0
H6165 H 0.38767 0.8808 0.98227 0.0
H6166 H 0.39596 0.86287 0.97194 0.0
H6167 H 0.39868 0.88291 0.96305 0.0
H6168 H 0.41626 0.82522 0.93843 0.0
H6169 H 0.4217 0.87233 0.9146 0.0
H6170 H 0.37339 0.82878 0.94752 0.0
H6171 H 0.38533 0.83523 0.96492 0.0
H6172 H 0.39207 0.8178 0.9528 0.0
H6173 H 0.38055 0.88504 0.91725 0.0
H6174 H 0.40137 0.89266 0.91526 0.0
H6175 H 0.39095 0.89329 0.9349 0.0
C6176 C 0.89368 0.15724 0.16701 0.0
C6177 C 0.90828 0.16456 0.17275 0.0
C6178 C 0.8886 0.14176 0.17277 0.0
C6179 C 0.89827 0.13346 0.18473 0.0
C6180 C 0.91357 0.14029 0.1898 0.0
C6181 C 0.91846 0.15579 0.18366 0.0
C6182 C 0.87231 0.13485 0.16682 0.0
C6183 C 0.92426 0.13173 0.20244 0.0
C6184 C 0.87186 0.10669 0.21245 0.0
C6185 C 0.87342 0.09123 0.20485 0.0
C6186 C 0.88074 0.12038 0.20664 0.0
C6187 C 0.89144 0.11852 0.19291 0.0
C6188 C 0.89387 0.10272 0.18588 0.0
C6189 C 0.88482 0.08923 0.19194 0.0
C6190 C 0.87786 0.13703 0.21453 0.0
C6191 C 0.90517 0.10024 0.17126 0.0
H6192 H 0.88587 0.16392 0.15843 0.0
H6193 H 0.92974 0.16144 0.18815 0.0
H6194 H 0.87352 0.1216 0.16358 0.0
H6195 H 0.86302 0.13582 0.17685 0.0
H6196 H 0.86755 0.14159 0.15586 0.0
H6197 H 0.93673 0.13738 0.20331 0.0
H6198 H 0.91827 0.13254 0.21474 0.0
H6199 H 0.92562 0.11843 0.19942 0.0
H6200 H 0.86319 0.10827 0.22252 0.0
H6201 H 0.88616 0.07728 0.18607 0.0
H6202 H 0.87106 0.14512 0.2058 0.0
H6203 H 0.88981 0.14312 0.21734 0.0
H6204 H 0.87058 0.13608 0.22613 0.0
H6205 H 0.89941 0.10571 0.16009 0.0
H6206 H 0.9076 0.08696 0.16882 0.0
H6207 H 0.91713 0.10663 0.17324 0.0
C6208 C 0.53334 0.14184 0.87957 0.0
C6209 C 0.54235 0.15659 0.87905 0.0
C6210 C 0.53888 0.12774 0.87115 0.0
C6211 C 0.55387 0.12842 0.86214 0.0
C6212 C 0.56254 0.14353 0.86085 0.0
C6213 C 0.55662 0.15748 0.86926 0.0
C6214 C 0.52921 0.11187 0.87272 0.0
C6215 C 0.57861 0.14473 0.85146 0.0
C6216 C 0.57755 0.08815 0.86122 0.0
C6217 C 0.57376 0.08204 0.84546 0.0
C6218 C 0.57156 0.10346 0.86654 0.0
C6219 C 0.56142 0.1129 0.85589 0.0
C6220 C 0.55801 0.10711 0.83973 0.0
C6221 C 0.56431 0.09174 0.83465 0.0
C6222 C 0.57573 0.10933 0.88377 0.0
C6223 C 0.5472 0.11685 0.82807 0.0
H6224 H 0.52224 0.14113 0.88703 0.0
H6225 H 0.56365 0.16887 0.86879 0.0
H6226 H 0.52742 0.10611 0.86042 0.0
H6227 H 0.53624 0.10299 0.88044 0.0
H6228 H 0.51691 0.11385 0.87849 0.0
H6229 H 0.58265 0.15774 0.84979 0.0
H6230 H 0.58839 0.138 0.8583 0.0
H6231 H 0.57745 0.13886 0.83913 0.0
H6232 H 0.58504 0.08081 0.86954 0.0
H6233 H 0.5613 0.08705 0.82248 0.0
H6234 H 0.56425 0.1112 0.89102 0.0
H6235 H 0.5822 0.12139 0.88317 0.0
H6236 H 0.58369 0.10043 0.8905 0.0
H6237 H 0.53444 0.11742 0.83305 0.0
H6238 H 0.54676 0.11128 0.81554 0.0
H6239 H 0.55173 0.12974 0.82702 0.0
C6240 C 0.61178 0.28391 0.12871 0.0
C6241 C 0.59689 0.29268 0.1278 0.0
C6242 C 0.62592 0.28952 0.12042 0.0
C6243 C 0.62517 0.30434 0.11116 0.0
C6244 C 0.60993 0.31274 0.10945 0.0
C6245 C 0.59593 0.30675 0.11775 0.0
C6246 C 0.64192 0.28015 0.12247 0.0
C6247 C 0.60864 0.32862 0.09976 0.0
C6248 C 0.6652 0.32842 0.11102 0.0
C6249 C 0.67187 0.32434 0.09556 0.0
C6250 C 0.64975 0.32244 0.11594 0.0
C6251 C 0.64071 0.31207 0.10516 0.0
C6252 C 0.64702 0.30845 0.08925 0.0
C6253 C 0.66255 0.31471 0.08458 0.0
C6254 C 0.64332 0.32686 0.13289 0.0
C6255 C 0.63773 0.2974 0.07747 0.0
H6256 H 0.61254 0.27296 0.13638 0.0
H6257 H 0.58444 0.31358 0.11698 0.0
H6258 H 0.64796 0.27827 0.11031 0.0
H6259 H 0.65052 0.28744 0.13025 0.0
H6260 H 0.64003 0.26791 0.12839 0.0
H6261 H 0.59559 0.3323 0.09762 0.0
H6262 H 0.61489 0.33867 0.10666 0.0
H6263 H 0.61493 0.32743 0.08765 0.0
H6264 H 0.67224 0.33607 0.11945 0.0
H6265 H 0.66767 0.3115 0.07264 0.0
H6266 H 0.64084 0.31551 0.14015 0.0
H6267 H 0.63147 0.33365 0.13173 0.0
H6268 H 0.65214 0.33464 0.13994 0.0
H6269 H 0.63734 0.28465 0.08249 0.0
H6270 H 0.64355 0.29702 0.06504 0.0
H6271 H 0.62476 0.30164 0.07615 0.0
C6272 C 0.46611 0.36021 0.37988 0.0
C6273 C 0.45746 0.34532 0.37821 0.0
C6274 C 0.46096 0.37447 0.37149 0.0
C6275 C 0.44675 0.37382 0.3613 0.0
C6276 C 0.43851 0.3586 0.35886 0.0
C6277 C 0.44401 0.3445 0.36731 0.0
C6278 C 0.47015 0.39045 0.37432 0.0
C6279 C 0.42328 0.35742 0.34816 0.0
C6280 C 0.42257 0.41378 0.35998 0.0
C6281 C 0.4275 0.42054 0.34482 0.0
C6282 C 0.42831 0.39832 0.36515 0.0
C6283 C 0.43939 0.38942 0.35498 0.0
C6284 C 0.44395 0.39587 0.33937 0.0
C6285 C 0.43785 0.41136 0.3344 0.0
C6286 C 0.42289 0.39175 0.38176 0.0
C6287 C 0.4558 0.38674 0.32825 0.0
H6288 H 0.47658 0.36088 0.3882 0.0
H6289 H 0.43729 0.33301 0.36593 0.0
H6290 H 0.47279 0.39664 0.36239 0.0
H6291 H 0.46235 0.39895 0.38173 0.0
H6292 H 0.48198 0.38851 0.381 0.0
H6293 H 0.41966 0.3444 0.34577 0.0
H6294 H 0.41284 0.36374 0.3544 0.0
H6295 H 0.4253 0.36371 0.33616 0.0
H6296 H 0.41438 0.42074 0.36798 0.0
H6297 H 0.44173 0.41658 0.3227 0.0
H6298 H 0.43377 0.39008 0.38993 0.0
H6299 H 0.41698 0.37947 0.38027 0.0
H6300 H 0.41404 0.40013 0.38802 0.0
H6301 H 0.46818 0.38631 0.33412 0.0
H6302 H 0.45701 0.39271 0.31595 0.0
H6303 H 0.45168 0.37379 0.32649 0.0
C6304 C 0.33839 0.18668 0.58524 0.0
C6305 C 0.32862 0.1772 0.59595 0.0
C6306 C 0.35389 0.19267 0.59032 0.0
C6307 C 0.35973 0.18891 0.60638 0.0
C6308 C 0.3502 0.17876 0.61694 0.0
C6309 C 0.33477 0.17307 0.61161 0.0
C6310 C 0.36371 0.20352 0.57878 0.0
C6311 C 0.35611 0.1742 0.63405 0.0
C6312 C 0.40451 0.19273 0.61941 0.0
C6313 C 0.40396 0.20688 0.6294 0.0
C6314 C 0.39038 0.18717 0.61106 0.0
C6315 C 0.37542 0.19608 0.61264 0.0
C6316 C 0.37509 0.21093 0.62188 0.0
C6317 C 0.38936 0.21611 0.63023 0.0
C6318 C 0.39122 0.17124 0.60141 0.0
C6319 C 0.35939 0.22083 0.62377 0.0
H6320 H 0.33367 0.18994 0.57314 0.0
H6321 H 0.32737 0.16555 0.61986 0.0
H6322 H 0.36458 0.21616 0.58399 0.0
H6323 H 0.3765 0.19876 0.5775 0.0
H6324 H 0.35803 0.20431 0.56631 0.0
H6325 H 0.34704 0.16644 0.64078 0.0
H6326 H 0.36796 0.16737 0.63323 0.0
H6327 H 0.35842 0.18552 0.64142 0.0
H6328 H 0.41578 0.18554 0.6187 0.0
H6329 H 0.38891 0.22711 0.63786 0.0
H6330 H 0.3853 0.17271 0.58914 0.0
H6331 H 0.38433 0.16148 0.60813 0.0
H6332 H 0.40413 0.16697 0.5996 0.0
H6333 H 0.35356 0.22293 0.61155 0.0
H6334 H 0.36163 0.23298 0.62974 0.0
H6335 H 0.35046 0.21381 0.63144 0.0
C6336 C 0.55655 0.84384 0.13125 0.0
C6337 C 0.54242 0.84489 0.12127 0.0
C6338 C 0.56253 0.85773 0.13971 0.0
C6339 C 0.55407 0.87296 0.13825 0.0
C6340 C 0.53922 0.8738 0.12904 0.0
C6341 C 0.53361 0.85976 0.12058 0.0
C6342 C 0.57845 0.85635 0.14932 0.0
C6343 C 0.52977 0.88979 0.12729 0.0
C6344 C 0.5645 0.90959 0.1658 0.0
C6345 C 0.57416 0.91918 0.15509 0.0
C6346 C 0.55814 0.89426 0.16068 0.0
C6347 C 0.56172 0.88839 0.14459 0.0
C6348 C 0.57209 0.8977 0.13405 0.0
C6349 C 0.57813 0.91299 0.13941 0.0
C6350 C 0.54708 0.88466 0.17221 0.0
C6351 C 0.57646 0.89175 0.11691 0.0
H6352 H 0.56342 0.83236 0.13185 0.0
H6353 H 0.52263 0.86059 0.11296 0.0
H6354 H 0.58841 0.86295 0.1426 0.0
H6355 H 0.57721 0.86227 0.16161 0.0
H6356 H 0.58231 0.8433 0.15107 0.0
H6357 H 0.51754 0.88795 0.12135 0.0
H6358 H 0.52788 0.89559 0.13956 0.0
H6359 H 0.53703 0.89857 0.11967 0.0
H6360 H 0.56136 0.91435 0.17791 0.0
H6361 H 0.58577 0.92026 0.13116 0.0
H6362 H 0.55143 0.87172 0.17333 0.0
H6363 H 0.53437 0.88425 0.16708 0.0
H6364 H 0.54655 0.89024 0.18474 0.0
H6365 H 0.58266 0.87954 0.11762 0.0
H6366 H 0.58474 0.90047 0.11033 0.0
H6367 H 0.56508 0.89013 0.10945 0.0
C6368 C 0.83561 0.32823 0.38772 0.0
C6369 C 0.829 0.32379 0.40309 0.0
C6370 C 0.85104 0.32236 0.38261 0.0
C6371 C 0.86007 0.31168 0.3931 0.0
C6372 C 0.85377 0.30762 0.4089 0.0
C6373 C 0.8383 0.31382 0.41378 0.0
C6374 C 0.85751 0.32729 0.36581 0.0
C6375 C 0.86305 0.2962 0.42035 0.0
C6376 C 0.88907 0.28426 0.36881 0.0
C6377 C 0.90394 0.293 0.37004 0.0
C6378 C 0.8749 0.28961 0.37722 0.0
C6379 C 0.87562 0.30415 0.38692 0.0
C6380 C 0.89085 0.31249 0.38894 0.0
C6381 C 0.90487 0.30676 0.38052 0.0
C6382 C 0.85892 0.28029 0.37485 0.0
C6383 C 0.8921 0.32808 0.39909 0.0
H6384 H 0.82857 0.33614 0.37952 0.0
H6385 H 0.8332 0.31033 0.42566 0.0
H6386 H 0.86938 0.33399 0.36722 0.0
H6387 H 0.85995 0.31616 0.35821 0.0
H6388 H 0.84874 0.33534 0.35901 0.0
H6389 H 0.85716 0.29537 0.43272 0.0
H6390 H 0.86353 0.28364 0.41489 0.0
H6391 H 0.87598 0.30046 0.42189 0.0
H6392 H 0.88834 0.27354 0.36081 0.0
H6393 H 0.91636 0.31357 0.38152 0.0
H6394 H 0.85035 0.2878 0.36723 0.0
H6395 H 0.85282 0.27808 0.38692 0.0
H6396 H 0.86084 0.26823 0.3686 0.0
H6397 H 0.88587 0.33833 0.39246 0.0
H6398 H 0.90514 0.3317 0.40138 0.0
H6399 H 0.88576 0.32654 0.41114 0.0
C6400 C 0.46376 0.64247 0.61915 0.0
C6401 C 0.45674 0.65817 0.62102 0.0
C6402 C 0.45787 0.62896 0.62825 0.0
C6403 C 0.44467 0.63124 0.63951 0.0
C6404 C 0.43824 0.64726 0.64222 0.0
C6405 C 0.44436 0.66056 0.63292 0.0
C6406 C 0.46511 0.61207 0.62506 0.0
C6407 C 0.42419 0.65019 0.65412 0.0
C6408 C 0.41791 0.5932 0.64283 0.0
C6409 C 0.42412 0.58569 0.65714 0.0
C6410 C 0.42377 0.60858 0.63757 0.0
C6411 C 0.43634 0.61656 0.64673 0.0
C6412 C 0.44189 0.60957 0.66179 0.0
C6413 C 0.43562 0.59419 0.6669 0.0
C6414 C 0.41728 0.61569 0.62158 0.0
C6415 C 0.4552 0.61778 0.67193 0.0
H6416 H 0.47343 0.64058 0.61008 0.0
H6417 H 0.43894 0.6727 0.6345 0.0
H6418 H 0.46826 0.60591 0.63688 0.0
H6419 H 0.45582 0.60425 0.61869 0.0
H6420 H 0.47638 0.61265 0.61725 0.0
H6421 H 0.42226 0.66355 0.65661 0.0
H6422 H 0.41262 0.64507 0.64884 0.0
H6423 H 0.42648 0.64376 0.66599 0.0
H6424 H 0.40889 0.58671 0.63537 0.0
H6425 H 0.44047 0.58837 0.67794 0.0
H6426 H 0.42676 0.61423 0.61179 0.0
H6427 H 0.41467 0.62908 0.62286 0.0
H6428 H 0.40581 0.60941 0.61747 0.0
H6429 H 0.46722 0.61658 0.66547 0.0
H6430 H 0.45638 0.61214 0.68439 0.0
H6431 H 0.45263 0.63117 0.67336 0.0
C6432 C 0.09026 0.19165 0.88399 0.0
C6433 C 0.0926 0.20428 0.87235 0.0
C6434 C 0.10361 0.1853 0.89305 0.0
C6435 C 0.11963 0.19173 0.89037 0.0
C6436 C 0.12186 0.20518 0.87941 0.0
C6437 C 0.1083 0.21132 0.87055 0.0
C6438 C 0.10073 0.171 0.90467 0.0
C6439 C 0.13875 0.21244 0.87623 0.0
C6440 C 0.1571 0.18197 0.91693 0.0
C6441 C 0.16542 0.1707 0.90677 0.0
C6442 C 0.14162 0.18834 0.91226 0.0
C6443 C 0.13436 0.18315 0.8972 0.0
C6444 C 0.14216 0.17077 0.88763 0.0
C6445 C 0.15761 0.16477 0.8925 0.0
C6446 C 0.13359 0.20141 0.92285 0.0
C6447 C 0.13479 0.16468 0.87159 0.0
H6448 H 0.07812 0.18622 0.88552 0.0
H6449 H 0.11015 0.22119 0.86169 0.0
H6450 H 0.10567 0.15952 0.89906 0.0
H6451 H 0.10735 0.17296 0.9165 0.0
H6452 H 0.08739 0.16914 0.90732 0.0
H6453 H 0.13815 0.22389 0.86869 0.0
H6454 H 0.14503 0.2153 0.88807 0.0
H6455 H 0.14649 0.20328 0.86959 0.0
H6456 H 0.16313 0.1866 0.92796 0.0
H6457 H 0.16395 0.1559 0.88472 0.0
H6458 H 0.1202 0.1989 0.92433 0.0
H6459 H 0.13483 0.2136 0.91673 0.0
H6460 H 0.13936 0.20219 0.93528 0.0
H6461 H 0.12147 0.16187 0.87309 0.0
H6462 H 0.14112 0.15343 0.86696 0.0
H6463 H 0.1359 0.17449 0.86207 0.0
C6464 C 0.86884 0.06579 0.6545 0.0
C6465 C 0.87584 0.04997 0.65534 0.0
C6466 C 0.86139 0.07146 0.63991 0.0
C6467 C 0.86075 0.06095 0.62595 0.0
C6468 C 0.86697 0.04463 0.62707 0.0
C6469 C 0.87456 0.03938 0.64173 0.0
C6470 C 0.85508 0.08899 0.63915 0.0
C6471 C 0.86642 0.03301 0.61249 0.0
C6472 C 0.834 0.07102 0.58866 0.0
C6473 C 0.84578 0.07735 0.57764 0.0
C6474 C 0.83856 0.06601 0.60465 0.0
C6475 C 0.85525 0.06746 0.6097 0.0
C6476 C 0.86704 0.07442 0.59884 0.0
C6477 C 0.86217 0.07928 0.58298 0.0
C6478 C 0.82566 0.05872 0.61596 0.0
C6479 C 0.88491 0.07646 0.60385 0.0
H6480 H 0.8699 0.07407 0.66498 0.0
H6481 H 0.87991 0.02712 0.64238 0.0
H6482 H 0.86339 0.09648 0.63124 0.0
H6483 H 0.8426 0.08939 0.63351 0.0
H6484 H 0.85451 0.09482 0.65156 0.0
H6485 H 0.87023 0.02027 0.61587 0.0
H6486 H 0.85378 0.03256 0.60722 0.0
H6487 H 0.8748 0.03759 0.60267 0.0
H6488 H 0.82131 0.06954 0.58465 0.0
H6489 H 0.87132 0.08442 0.57467 0.0
H6490 H 0.82571 0.06523 0.62802 0.0
H6491 H 0.82861 0.04557 0.61843 0.0
H6492 H 0.81305 0.05946 0.61061 0.0
H6493 H 0.88572 0.0845 0.61491 0.0
H6494 H 0.89255 0.08196 0.59387 0.0
H6495 H 0.89027 0.06431 0.60722 0.0
C6496 C 0.36155 0.92521 0.91526 0.0
C6497 C 0.34577 0.92892 0.92137 0.0
C6498 C 0.36694 0.93145 0.90006 0.0
C6499 C 0.35633 0.94177 0.89077 0.0
C6500 C 0.3402 0.94519 0.8966 0.0
C6501 C 0.33505 0.93862 0.91183 0.0
C6502 C 0.38414 0.92725 0.89412 0.0
C6503 C 0.32861 0.95622 0.88703 0.0
C6504 C 0.37978 0.96992 0.86166 0.0
C6505 C 0.37889 0.96107 0.84683 0.0
C6506 C 0.37162 0.96429 0.87587 0.0
C6507 C 0.36253 0.94935 0.87524 0.0
C6508 C 0.36093 0.94079 0.86009 0.0
C6509 C 0.36906 0.94682 0.84602 0.0
C6510 C 0.3735 0.97383 0.89179 0.0
C6511 C 0.35148 0.92476 0.85894 0.0
H6512 H 0.36982 0.91754 0.92248 0.0
H6513 H 0.32286 0.94157 0.91654 0.0
H6514 H 0.38347 0.92082 0.88204 0.0
H6515 H 0.39142 0.93871 0.89225 0.0
H6516 H 0.39089 0.91925 0.90297 0.0
H6517 H 0.31616 0.95689 0.89277 0.0
H6518 H 0.33381 0.96888 0.88639 0.0
H6519 H 0.3273 0.95171 0.87416 0.0
H6520 H 0.38729 0.98099 0.86231 0.0
H6521 H 0.36833 0.9399 0.83458 0.0
H6522 H 0.38126 0.96667 0.90053 0.0
H6523 H 0.36128 0.97568 0.89772 0.0
H6524 H 0.37935 0.98608 0.88982 0.0
H6525 H 0.35828 0.91497 0.86571 0.0
H6526 H 0.34979 0.92067 0.84595 0.0
H6527 H 0.33917 0.92599 0.86481 0.0
C6528 C 0.81526 0.0825 0.15884 0.0
C6529 C 0.82533 0.09295 0.1683 0.0
C6530 C 0.80892 0.08776 0.14353 0.0
C6531 C 0.81291 0.10372 0.13758 0.0
C6532 C 0.82372 0.11395 0.14674 0.0
C6533 C 0.82977 0.10845 0.16197 0.0
C6534 C 0.79742 0.07654 0.13409 0.0
C6535 C 0.82852 0.13096 0.14072 0.0
C6536 C 0.80737 0.11737 0.09316 0.0
C6537 C 0.79352 0.12771 0.09446 0.0
C6538 C 0.81334 0.10869 0.10692 0.0
C6539 C 0.80518 0.11031 0.12229 0.0
C6540 C 0.79059 0.11991 0.1234 0.0
C6541 C 0.78497 0.12856 0.10948 0.0
C6542 C 0.82895 0.09864 0.10523 0.0
C6543 C 0.78147 0.12187 0.13956 0.0
H6544 H 0.81177 0.07053 0.1637 0.0
H6545 H 0.83775 0.11648 0.16912 0.0
H6546 H 0.78482 0.08195 0.13398 0.0
H6547 H 0.80147 0.07541 0.12105 0.0
H6548 H 0.79673 0.06399 0.13961 0.0
H6549 H 0.8369 0.13739 0.14946 0.0
H6550 H 0.83476 0.13003 0.12855 0.0
H6551 H 0.81732 0.13867 0.139 0.0
H6552 H 0.81402 0.11664 0.08156 0.0
H6553 H 0.7742 0.13645 0.11052 0.0
H6554 H 0.82747 0.08638 0.11117 0.0
H6555 H 0.83922 0.10507 0.11164 0.0
H6556 H 0.83251 0.09679 0.09211 0.0
H6557 H 0.77931 0.10964 0.14534 0.0
H6558 H 0.7694 0.12819 0.13796 0.0
H6559 H 0.7891 0.12923 0.14825 0.0
C6560 C 0.63432 0.55774 0.3425 0.0
C6561 C 0.62293 0.54479 0.34426 0.0
C6562 C 0.64314 0.56377 0.35615 0.0
C6563 C 0.64048 0.55666 0.37189 0.0
C6564 C 0.62977 0.54292 0.37352 0.0
C6565 C 0.62112 0.53714 0.35967 0.0
C6566 C 0.65444 0.57843 0.35391 0.0
C6567 C 0.62667 0.53494 0.39009 0.0
C6568 C 0.66723 0.56576 0.4094 0.0
C6569 C 0.65701 0.57668 0.41813 0.0
C6570 C 0.66243 0.55965 0.39386 0.0
C6571 C 0.64717 0.56474 0.38695 0.0
C6572 C 0.63744 0.57668 0.39522 0.0
C6573 C 0.64244 0.58242 0.41073 0.0
C6574 C 0.67315 0.54701 0.38534 0.0
C6575 C 0.6212 0.58265 0.38821 0.0
H6576 H 0.63583 0.56366 0.33059 0.0
H6577 H 0.61244 0.52705 0.36107 0.0
H6578 H 0.64862 0.58954 0.35943 0.0
H6579 H 0.66634 0.57639 0.36039 0.0
H6580 H 0.65699 0.581 0.34067 0.0
H6581 H 0.61939 0.52336 0.38899 0.0
H6582 H 0.63854 0.5321 0.39633 0.0
H6583 H 0.61977 0.54364 0.39813 0.0
H6584 H 0.67848 0.56127 0.4151 0.0
H6585 H 0.6346 0.591 0.41738 0.0
H6586 H 0.6747 0.55014 0.37209 0.0
H6587 H 0.66709 0.53474 0.38596 0.0
H6588 H 0.68555 0.54603 0.39114 0.0
H6589 H 0.62255 0.58602 0.375 0.0
H6590 H 0.61634 0.59353 0.395 0.0
H6591 H 0.61194 0.57258 0.38897 0.0
C6592 C 0.68675 0.91611 0.66286 0.0
C6593 C 0.67665 0.90523 0.67178 0.0
C6594 C 0.69327 0.91152 0.64742 0.0
C6595 C 0.68936 0.89582 0.64076 0.0
C6596 C 0.67843 0.88521 0.64934 0.0
C6597 C 0.67231 0.89 0.66477 0.0
C6598 C 0.7049 0.92312 0.63862 0.0
C6599 C 0.67371 0.86849 0.64253 0.0
C6600 C 0.69566 0.88385 0.59597 0.0
C6601 C 0.70944 0.87341 0.59714 0.0
C6602 C 0.68949 0.89207 0.60993 0.0
C6603 C 0.69737 0.88984 0.62536 0.0
C6604 C 0.71192 0.88016 0.62638 0.0
C6605 C 0.71775 0.87202 0.61225 0.0
C6606 C 0.67393 0.90223 0.60835 0.0
C6607 C 0.72075 0.8776 0.6426 0.0
H6608 H 0.69017 0.92787 0.66827 0.0
H6609 H 0.66434 0.88164 0.67155 0.0
H6610 H 0.71752 0.91778 0.63858 0.0
H6611 H 0.70111 0.9247 0.62555 0.0
H6612 H 0.7054 0.93546 0.6446 0.0
H6613 H 0.66411 0.86233 0.65014 0.0
H6614 H 0.66899 0.8697 0.62972 0.0
H6615 H 0.68475 0.86039 0.64209 0.0
H6616 H 0.6892 0.88502 0.5843 0.0
H6617 H 0.72848 0.86406 0.61319 0.0
H6618 H 0.67532 0.91423 0.6148 0.0
H6619 H 0.66353 0.89556 0.61429 0.0
H6620 H 0.67063 0.9046 0.59524 0.0
H6621 H 0.72281 0.8896 0.64889 0.0
H6622 H 0.73286 0.87134 0.64097 0.0
H6623 H 0.71298 0.8699 0.65087 0.0
C6624 C 0.11468 0.9664 0.63876 0.0
C6625 C 0.11572 0.9578 0.65374 0.0
C6626 C 0.12332 0.96093 0.62476 0.0
C6627 C 0.13306 0.94643 0.62574 0.0
C6628 C 0.1348 0.93818 0.64105 0.0
C6629 C 0.12617 0.94402 0.65489 0.0
C6630 C 0.12122 0.97013 0.60867 0.0
C6631 C 0.14497 0.92262 0.64258 0.0
C6632 C 0.13514 0.92191 0.586 0.0
C6633 C 0.15068 0.92635 0.57976 0.0
C6634 C 0.12953 0.92798 0.60118 0.0
C6635 C 0.13968 0.93884 0.61038 0.0
C6636 C 0.15566 0.94288 0.60449 0.0
C6637 C 0.16103 0.9365 0.58924 0.0
C6638 C 0.11252 0.92311 0.60716 0.0
C6639 C 0.16677 0.95447 0.61395 0.0
H6640 H 0.1067 0.97711 0.63784 0.0
H6641 H 0.12704 0.93731 0.66645 0.0
H6642 H 0.13342 0.97241 0.60285 0.0
H6643 H 0.11388 0.96251 0.59997 0.0
H6644 H 0.11483 0.98215 0.61038 0.0
H6645 H 0.1468 0.91892 0.65567 0.0
H6646 H 0.13863 0.91238 0.63603 0.0
H6647 H 0.15723 0.92426 0.63671 0.0
H6648 H 0.12719 0.91388 0.57882 0.0
H6649 H 0.17302 0.94002 0.58443 0.0
H6650 H 0.10485 0.93427 0.60925 0.0
H6651 H 0.1135 0.91652 0.61913 0.0
H6652 H 0.10599 0.91502 0.59823 0.0
H6653 H 0.16121 0.967 0.61416 0.0
H6654 H 0.17929 0.95534 0.6084 0.0
H6655 H 0.16799 0.95036 0.62696 0.0
C6656 C 0.78422 0.37123 0.38866 0.0
C6657 C 0.79314 0.3718 0.40346 0.0
C6658 C 0.78987 0.37956 0.37456 0.0
C6659 C 0.80488 0.38852 0.37528 0.0
C6660 C 0.81349 0.38984 0.39043 0.0
C6661 C 0.80746 0.38151 0.40438 0.0
C6662 C 0.78029 0.37794 0.35864 0.0
C6663 C 0.82957 0.39919 0.39168 0.0
C6664 C 0.82856 0.38943 0.33501 0.0
C6665 C 0.82464 0.40513 0.32883 0.0
C6666 C 0.82262 0.38413 0.35035 0.0
C6667 C 0.81247 0.39478 0.35978 0.0
C6668 C 0.80899 0.4109 0.35396 0.0
C6669 C 0.8152 0.41594 0.33854 0.0
C6670 C 0.82687 0.36693 0.35624 0.0
C6671 C 0.79819 0.42256 0.36369 0.0
H6672 H 0.77309 0.36382 0.38792 0.0
H6673 H 0.81442 0.382 0.41581 0.0
H6674 H 0.77848 0.39023 0.35287 0.0
H6675 H 0.7874 0.37025 0.34979 0.0
H6676 H 0.76801 0.37212 0.36055 0.0
H6677 H 0.83356 0.40088 0.4047 0.0
H6678 H 0.83937 0.39231 0.38501 0.0
H6679 H 0.82847 0.4115 0.38577 0.0
H6680 H 0.83606 0.38111 0.32768 0.0
H6681 H 0.81211 0.42808 0.3338 0.0
H6682 H 0.81543 0.35974 0.3585 0.0
H6683 H 0.83369 0.36763 0.36811 0.0
H6684 H 0.83456 0.36009 0.34717 0.0
H6685 H 0.78542 0.4176 0.36424 0.0
H6686 H 0.79776 0.4351 0.35813 0.0
H6687 H 0.8027 0.4236 0.37659 0.0
C6688 C 0.1833 0.08266 0.83702 0.0
C6689 C 0.17359 0.09351 0.82763 0.0
C6690 C 0.18967 0.08753 0.85243 0.0
C6691 C 0.18605 0.1035 0.85857 0.0
C6692 C 0.17564 0.11418 0.84945 0.0
C6693 C 0.16958 0.10906 0.8341 0.0
C6694 C 0.20079 0.07588 0.8618 0.0
C6695 C 0.17114 0.13115 0.85577 0.0
C6696 C 0.19146 0.11616 0.9033 0.0
C6697 C 0.20552 0.12622 0.90229 0.0
C6698 C 0.1854 0.10791 0.88932 0.0
C6699 C 0.19376 0.10962 0.87406 0.0
C6700 C 0.20856 0.11891 0.87325 0.0
C6701 C 0.2142 0.12721 0.88737 0.0
C6702 C 0.16951 0.09825 0.89065 0.0
C6703 C 0.21788 0.12095 0.85723 0.0
H6704 H 0.18647 0.07064 0.83204 0.0
H6705 H 0.16187 0.1174 0.827 0.0
H6706 H 0.21347 0.08105 0.8623 0.0
H6707 H 0.19644 0.07451 0.87472 0.0
H6708 H 0.20136 0.06346 0.85599 0.0
H6709 H 0.16402 0.12996 0.86741 0.0
H6710 H 0.18245 0.13837 0.85859 0.0
H6711 H 0.16363 0.13826 0.84676 0.0
H6712 H 0.18467 0.11539 0.91482 0.0
H6713 H 0.22513 0.1349 0.88658 0.0
H6714 H 0.17066 0.08612 0.88439 0.0
H6715 H 0.15945 0.10515 0.8844 0.0
H6716 H 0.16584 0.09615 0.90371 0.0
H6717 H 0.21977 0.10878 0.85121 0.0
H6718 H 0.23011 0.1269 0.85907 0.0
H6719 H 0.21054 0.12869 0.84863 0.0
C6720 C 0.58539 0.861 0.07773 0.0
C6721 C 0.57905 0.84539 0.07372 0.0
C6722 C 0.60082 0.86615 0.0719 0.0
C6723 C 0.61017 0.85545 0.06173 0.0
C6724 C 0.60418 0.8394 0.05815 0.0
C6725 C 0.58867 0.83451 0.06428 0.0
C6726 C 0.6069 0.88326 0.07625 0.0
C6727 C 0.61382 0.82769 0.04733 0.0
C6728 C 0.6393 0.87901 0.03377 0.0
C6729 C 0.65406 0.87831 0.04276 0.0
C6730 C 0.62514 0.87069 0.03928 0.0
C6731 C 0.62575 0.86159 0.05421 0.0
C6732 C 0.64086 0.86011 0.06286 0.0
C6733 C 0.65488 0.86843 0.05698 0.0
C6734 C 0.60927 0.87247 0.02964 0.0
C6735 C 0.642 0.85061 0.07887 0.0
H6736 H 0.57811 0.86938 0.08523 0.0
H6737 H 0.58382 0.82244 0.06112 0.0
H6738 H 0.61891 0.88243 0.08281 0.0
H6739 H 0.60897 0.89056 0.06485 0.0
H6740 H 0.59804 0.89006 0.0842 0.0
H6741 H 0.60815 0.8152 0.04686 0.0
H6742 H 0.61443 0.83268 0.03458 0.0
H6743 H 0.62671 0.82652 0.05185 0.0
H6744 H 0.63865 0.88655 0.02272 0.0
H6745 H 0.66628 0.86783 0.06398 0.0
H6746 H 0.60046 0.8802 0.03674 0.0
H6747 H 0.60341 0.86023 0.02776 0.0
H6748 H 0.61129 0.87832 0.01739 0.0
H6749 H 0.63541 0.8575 0.08872 0.0
H6750 H 0.655 0.84874 0.08285 0.0
H6751 H 0.63595 0.83838 0.07767 0.0
C6752 C 0.36936 0.88707 0.28372 0.0
C6753 C 0.37019 0.90204 0.29234 0.0
C6754 C 0.37777 0.87306 0.28944 0.0
C6755 C 0.38708 0.87403 0.30422 0.0
C6756 C 0.38873 0.88936 0.31245 0.0
C6757 C 0.38031 0.90323 0.30635 0.0
C6758 C 0.37581 0.85695 0.28024 0.0
C6759 C 0.39848 0.8909 0.32827 0.0
C6760 C 0.38741 0.83423 0.32863 0.0
C6761 C 0.40286 0.82757 0.32453 0.0
C6762 C 0.38244 0.84964 0.32259 0.0
C6763 C 0.39316 0.85862 0.31211 0.0
C6764 C 0.40908 0.85232 0.30847 0.0
C6765 C 0.41379 0.83685 0.31482 0.0
C6766 C 0.36549 0.85607 0.32704 0.0
C6767 C 0.42081 0.86156 0.29732 0.0
H6768 H 0.36165 0.88614 0.27281 0.0
H6769 H 0.38101 0.9148 0.31306 0.0
H6770 H 0.388 0.85096 0.2784 0.0
H6771 H 0.3681 0.84837 0.28765 0.0
H6772 H 0.36985 0.85867 0.26801 0.0
H6773 H 0.40062 0.904 0.33174 0.0
H6774 H 0.39161 0.8848 0.33844 0.0
H6775 H 0.41059 0.88459 0.32713 0.0
H6776 H 0.37901 0.82721 0.33636 0.0
H6777 H 0.42574 0.83173 0.3116 0.0
H6778 H 0.35809 0.8581 0.31569 0.0
H6779 H 0.36662 0.86814 0.33342 0.0
H6780 H 0.35862 0.84744 0.33518 0.0
H6781 H 0.41578 0.86176 0.28457 0.0
H6782 H 0.43326 0.85582 0.29701 0.0
H6783 H 0.42204 0.87458 0.30141 0.0
C6784 C 0.36167 0.62147 0.53287 0.0
C6785 C 0.34629 0.62278 0.54069 0.0
C6786 C 0.37535 0.6304 0.53864 0.0
C6787 C 0.37359 0.64083 0.55258 0.0
C6788 C 0.35785 0.64299 0.55986 0.0
C6789 C 0.34436 0.63395 0.5538 0.0
C6790 C 0.39191 0.62785 0.53045 0.0
C6791 C 0.35546 0.654 0.57471 0.0
C6792 C 0.41226 0.64308 0.57862 0.0
C6793 C 0.41928 0.65803 0.57342 0.0
C6794 C 0.39701 0.63777 0.57248 0.0
C6795 C 0.38857 0.6476 0.56075 0.0
C6796 C 0.39513 0.66315 0.55611 0.0
C6797 C 0.41043 0.66824 0.56258 0.0
C6798 C 0.39033 0.62123 0.57797 0.0
C6799 C 0.38644 0.67397 0.54368 0.0
H6800 H 0.36319 0.61296 0.52265 0.0
H6801 H 0.33247 0.63509 0.55985 0.0
H6802 H 0.3979 0.6399 0.5279 0.0
H6803 H 0.40015 0.62087 0.5389 0.0
H6804 H 0.39085 0.62087 0.51868 0.0
H6805 H 0.34218 0.65632 0.57732 0.0
H6806 H 0.36104 0.64805 0.58572 0.0
H6807 H 0.36177 0.66603 0.57291 0.0
H6808 H 0.41896 0.63527 0.58719 0.0
H6809 H 0.41584 0.6798 0.55851 0.0
H6810 H 0.38981 0.61266 0.56728 0.0
H6811 H 0.37756 0.62261 0.58275 0.0
H6812 H 0.39806 0.6155 0.58773 0.0
H6813 H 0.38716 0.66816 0.53129 0.0
H6814 H 0.39202 0.68648 0.54294 0.0
H6815 H 0.37316 0.67523 0.54683 0.0
C6816 C 0.60978 0.66333 0.83005 0.0
C6817 C 0.5943 0.66982 0.82577 0.0
C6818 C 0.61506 0.64805 0.82396 0.0
C6819 C 0.60462 0.63898 0.81327 0.0
C6820 C 0.58868 0.6451 0.80944 0.0
C6821 C 0.58365 0.66046 0.81581 0.0
C6822 C 0.63205 0.64185 0.8286 0.0
C6823 C 0.57725 0.63577 0.79805 0.0
C6824 C 0.6288 0.6105 0.78514 0.0
C6825 C 0.6278 0.59551 0.79371 0.0
C6826 C 0.62041 0.62456 0.79083 0.0
C6827 C 0.61095 0.62359 0.80552 0.0
C6828 C 0.6092 0.60827 0.81373 0.0
C6829 C 0.6176 0.59437 0.80767 0.0
C6830 C 0.6225 0.64067 0.78167 0.0
C6831 C 0.5993 0.60676 0.82946 0.0
H6832 H 0.61796 0.67041 0.83794 0.0
H6833 H 0.57169 0.66544 0.81243 0.0
H6834 H 0.63099 0.62986 0.83516 0.0
H6835 H 0.63955 0.63971 0.81734 0.0
H6836 H 0.63877 0.65068 0.83666 0.0
H6837 H 0.56477 0.64145 0.79744 0.0
H6838 H 0.58256 0.63553 0.78542 0.0
H6839 H 0.57598 0.62276 0.80217 0.0
H6840 H 0.63658 0.6114 0.77428 0.0
H6841 H 0.61676 0.5828 0.81435 0.0
H6842 H 0.63005 0.64927 0.78922 0.0
H6843 H 0.61033 0.64661 0.77961 0.0
H6844 H 0.62869 0.63896 0.76954 0.0
H6845 H 0.60592 0.61313 0.83963 0.0
H6846 H 0.59735 0.59367 0.83309 0.0
H6847 H 0.5871 0.61283 0.82809 0.0
C6848 C 0.58774 0.16602 0.9369 0.0
C6849 C 0.57812 0.15529 0.92729 0.0
C6850 C 0.60313 0.16096 0.94315 0.0
C6851 C 0.60903 0.14489 0.93953 0.0
C6852 C 0.59967 0.1343 0.92926 0.0
C6853 C 0.58433 0.13962 0.9233 0.0
C6854 C 0.61278 0.17254 0.95413 0.0
C6855 C 0.60566 0.11719 0.92484 0.0
C6856 C 0.65374 0.13189 0.94426 0.0
C6857 C 0.65291 0.12194 0.95842 0.0
C6858 C 0.63971 0.14021 0.93839 0.0
C6859 C 0.62459 0.13865 0.94701 0.0
C6860 C 0.62396 0.12946 0.96189 0.0
C6861 C 0.63813 0.12113 0.96736 0.0
C6862 C 0.64085 0.14979 0.92243 0.0
C6863 C 0.60808 0.12761 0.97149 0.0
H6864 H 0.58297 0.17813 0.94005 0.0
H6865 H 0.57706 0.13135 0.91568 0.0
H6866 H 0.61342 0.16737 0.96681 0.0
H6867 H 0.62565 0.17377 0.9496 0.0
H6868 H 0.6071 0.18501 0.95477 0.0
H6869 H 0.59664 0.11036 0.91708 0.0
H6870 H 0.61752 0.11803 0.91803 0.0
H6871 H 0.60797 0.10989 0.93621 0.0
H6872 H 0.66515 0.13256 0.93728 0.0
H6873 H 0.63748 0.11353 0.97837 0.0
H6874 H 0.63487 0.16205 0.92372 0.0
H6875 H 0.63418 0.143 0.91257 0.0
H6876 H 0.65385 0.15161 0.91842 0.0
H6877 H 0.60221 0.13984 0.97344 0.0
H6878 H 0.61008 0.12168 0.98371 0.0
H6879 H 0.59928 0.11992 0.96433 0.0
C6880 C 0.12887 0.89224 0.21319 0.0
C6881 C 0.12678 0.90767 0.20565 0.0
C6882 C 0.12041 0.87829 0.20738 0.0
C6883 C 0.10956 0.87985 0.19374 0.0
C6884 C 0.10657 0.8956 0.18679 0.0
C6885 C 0.11523 0.90935 0.19284 0.0
C6886 C 0.12388 0.86171 0.21518 0.0
C6887 C 0.09509 0.89777 0.17226 0.0
C6888 C 0.1082 0.84122 0.16763 0.0
C6889 C 0.09382 0.83349 0.17338 0.0
C6890 C 0.11292 0.85678 0.17347 0.0
C6891 C 0.10311 0.86474 0.18556 0.0
C6892 C 0.08804 0.85748 0.19069 0.0
C6893 C 0.0835 0.84191 0.18445 0.0
C6894 C 0.12897 0.86417 0.16746 0.0
C6895 C 0.07724 0.86565 0.2035 0.0
H6896 H 0.13767 0.89089 0.2232 0.0
H6897 H 0.11348 0.92127 0.18702 0.0
H6898 H 0.11216 0.85521 0.21803 0.0
H6899 H 0.13089 0.85389 0.20637 0.0
H6900 H 0.13121 0.86285 0.22673 0.0
H6901 H 0.09227 0.91098 0.16985 0.0
H6902 H 0.10091 0.89246 0.16104 0.0
H6903 H 0.08333 0.89105 0.17435 0.0
H6904 H 0.11612 0.8348 0.15894 0.0
H6905 H 0.0724 0.83594 0.18897 0.0
H6906 H 0.1384 0.86321 0.17737 0.0
H6907 H 0.12744 0.87745 0.16447 0.0
H6908 H 0.13374 0.85773 0.15633 0.0
H6909 H 0.08341 0.865 0.21573 0.0
H6910 H 0.06497 0.85959 0.2045 0.0
H6911 H 0.07542 0.8789 0.20054 0.0
C6912 C 0.34372 0.36757 0.4422 0.0
C6913 C 0.34476 0.37803 0.45598 0.0
C6914 C 0.35766 0.35908 0.43638 0.0
C6915 C 0.37295 0.36102 0.44462 0.0
C6916 C 0.37381 0.37074 0.45914 0.0
C6917 C 0.35971 0.37918 0.46462 0.0
C6918 C 0.35625 0.34889 0.42083 0.0
C6919 C 0.38987 0.37303 0.46836 0.0
C6920 C 0.4101 0.33381 0.43512 0.0
C6921 C 0.41953 0.34441 0.42519 0.0
C6922 C 0.39461 0.33881 0.44121 0.0
C6923 C 0.38842 0.35464 0.43705 0.0
C6924 C 0.39754 0.36498 0.4263 0.0
C6925 C 0.41301 0.35978 0.42059 0.0
C6926 C 0.38524 0.32749 0.45267 0.0
C6927 C 0.39124 0.38183 0.42131 0.0
H6928 H 0.33218 0.3666 0.43548 0.0
H6929 H 0.36054 0.38715 0.47534 0.0
H6930 H 0.36262 0.35536 0.41056 0.0
H6931 H 0.36238 0.33674 0.42243 0.0
H6932 H 0.34318 0.34681 0.41719 0.0
H6933 H 0.38808 0.37941 0.48037 0.0
H6934 H 0.39583 0.36091 0.47065 0.0
H6935 H 0.3985 0.38047 0.46074 0.0
H6936 H 0.41514 0.32195 0.43875 0.0
H6937 H 0.42018 0.36791 0.41273 0.0
H6938 H 0.37224 0.32616 0.44853 0.0
H6939 H 0.38496 0.33294 0.46525 0.0
H6940 H 0.39093 0.31503 0.45345 0.0
H6941 H 0.37875 0.38077 0.41578 0.0
H6942 H 0.39951 0.38799 0.41229 0.0
H6943 H 0.39016 0.38985 0.43237 0.0
C6944 C 0.88044 0.59419 0.69349 0.0
C6945 C 0.87073 0.59462 0.70783 0.0
C6946 C 0.8887 0.60837 0.6879 0.0
C6947 C 0.88731 0.62324 0.69697 0.0
C6948 C 0.87838 0.62344 0.71202 0.0
C6949 C 0.87012 0.60913 0.71723 0.0
C6950 C 0.89803 0.60768 0.67177 0.0
C6951 C 0.87669 0.63904 0.72211 0.0
C6952 C 0.91409 0.66073 0.68766 0.0
C6953 C 0.90305 0.67056 0.67863 0.0
C6954 C 0.90936 0.64502 0.69337 0.0
C6955 C 0.89331 0.63904 0.6898 0.0
C6956 C 0.88244 0.64861 0.68003 0.0
C6957 C 0.88743 0.66424 0.67459 0.0
C6958 C 0.92126 0.63513 0.70377 0.0
C6959 C 0.86532 0.64256 0.67568 0.0
H6960 H 0.88096 0.58299 0.68617 0.0
H6961 H 0.86272 0.60948 0.72838 0.0
H6962 H 0.89098 0.61444 0.66215 0.0
H6963 H 0.91023 0.61378 0.67296 0.0
H6964 H 0.89993 0.59479 0.66747 0.0
H6965 H 0.87099 0.63668 0.73436 0.0
H6966 H 0.88894 0.64487 0.72399 0.0
H6967 H 0.86885 0.64802 0.71534 0.0
H6968 H 0.92617 0.66557 0.69083 0.0
H6969 H 0.87894 0.67167 0.66738 0.0
H6970 H 0.9224 0.62238 0.69889 0.0
H6971 H 0.91644 0.63417 0.71656 0.0
H6972 H 0.93373 0.64083 0.70421 0.0
H6973 H 0.86617 0.63087 0.6686 0.0
H6974 H 0.85831 0.65169 0.66823 0.0
H6975 H 0.8582 0.63993 0.68709 0.0
C6976 C 0.56062 0.65765 0.36896 0.0
C6977 C 0.54609 0.65731 0.37839 0.0
C6978 C 0.56627 0.64345 0.36077 0.0
C6979 C 0.55706 0.62864 0.36194 0.0
C6980 C 0.54188 0.62851 0.37064 0.0
C6981 C 0.53661 0.64284 0.37884 0.0
C6982 C 0.58255 0.64407 0.3517 0.0
C6983 C 0.53168 0.61297 0.37211 0.0
C6984 C 0.5665 0.59159 0.33456 0.0
C6985 C 0.57546 0.58155 0.34547 0.0
C6986 C 0.56072 0.6072 0.33957 0.0
C6987 C 0.56414 0.61286 0.35577 0.0
C6988 C 0.57379 0.60305 0.36655 0.0
C6989 C 0.57931 0.58755 0.36126 0.0
C6990 C 0.55046 0.61735 0.32777 0.0
C6991 C 0.57796 0.60874 0.38383 0.0
H6992 H 0.56801 0.66881 0.36858 0.0
H6993 H 0.52533 0.64255 0.38604 0.0
H6994 H 0.59194 0.63696 0.35871 0.0
H6995 H 0.58141 0.63827 0.33935 0.0
H6996 H 0.58712 0.65692 0.35015 0.0
H6997 H 0.51939 0.61535 0.37775 0.0
H6998 H 0.52983 0.60728 0.35979 0.0
H6999 H 0.53833 0.60386 0.3799 0.0
H7000 H 0.56347 0.58702 0.32235 0.0
H7001 H 0.58646 0.57996 0.36967 0.0
H7002 H 0.55555 0.63002 0.32674 0.0
H7003 H 0.53768 0.61848 0.33261 0.0
H7004 H 0.54992 0.61176 0.31525 0.0
H7005 H 0.58527 0.62031 0.38328 0.0
H7006 H 0.58514 0.59935 0.3908 0.0
H7007 H 0.56649 0.61147 0.39082 0.0
C7008 C 0.66464 0.81477 0.58635 0.0
C7009 C 0.67385 0.82463 0.5972 0.0
C7010 C 0.64942 0.80799 0.59126 0.0
C7011 C 0.64326 0.81136 0.60729 0.0
C7012 C 0.65221 0.82189 0.618 0.0
C7013 C 0.66739 0.82835 0.61284 0.0
C7014 C 0.64024 0.79674 0.57957 0.0
C7015 C 0.64593 0.82605 0.63508 0.0
C7016 C 0.59851 0.80544 0.61961 0.0
C7017 C 0.59953 0.79129 0.62955 0.0
C7018 C 0.61251 0.81169 0.61154 0.0
C7019 C 0.62783 0.80347 0.61332 0.0
C7020 C 0.62869 0.78859 0.6225 0.0
C7021 C 0.61453 0.78273 0.63059 0.0
C7022 C 0.61111 0.82764 0.60197 0.0
C7023 C 0.64478 0.7794 0.62458 0.0
H7024 H 0.66962 0.8118 0.57428 0.0
H7025 H 0.67437 0.83615 0.62119 0.0
H7026 H 0.63992 0.78405 0.58473 0.0
H7027 H 0.62725 0.80088 0.57819 0.0
H7028 H 0.64608 0.79628 0.56716 0.0
H7029 H 0.65464 0.83404 0.64201 0.0
H7030 H 0.63386 0.83249 0.63417 0.0
H7031 H 0.64391 0.81459 0.64231 0.0
H7032 H 0.58694 0.81212 0.61874 0.0
H7033 H 0.61534 0.77173 0.63819 0.0
H7034 H 0.61722 0.82649 0.58975 0.0
H7035 H 0.61752 0.83763 0.60882 0.0
H7036 H 0.59805 0.83138 0.60004 0.0
H7037 H 0.65088 0.77763 0.61244 0.0
H7038 H 0.643 0.76713 0.63045 0.0
H7039 H 0.65328 0.78677 0.63241 0.0
C7040 C 0.42302 0.91886 0.86259 0.0
C7041 C 0.42644 0.92494 0.84672 0.0
C7042 C 0.42875 0.90336 0.86765 0.0
C7043 C 0.4382 0.89366 0.85659 0.0
C7044 C 0.44122 0.89943 0.84036 0.0
C7045 C 0.43522 0.91502 0.83557 0.0
C7046 C 0.42497 0.89752 0.88497 0.0
C7047 C 0.45127 0.88941 0.82827 0.0
C7048 C 0.4663 0.86359 0.87882 0.0
C7049 C 0.45691 0.84908 0.87836 0.0
C7050 C 0.46081 0.87798 0.87088 0.0
C7051 C 0.44546 0.87786 0.86248 0.0
C7052 C 0.43631 0.86302 0.86133 0.0
C7053 C 0.4422 0.84876 0.86921 0.0
C7054 C 0.47099 0.89354 0.87228 0.0
C7055 C 0.41982 0.86244 0.85263 0.0
H7056 H 0.41601 0.92636 0.87119 0.0
H7057 H 0.43792 0.91966 0.8233 0.0
H7058 H 0.41773 0.8859 0.88448 0.0
H7059 H 0.4366 0.89482 0.8917 0.0
H7060 H 0.41787 0.90679 0.89216 0.0
H7061 H 0.45157 0.89511 0.81579 0.0
H7062 H 0.46414 0.88825 0.83285 0.0
H7063 H 0.44618 0.87674 0.82721 0.0
H7064 H 0.47772 0.86386 0.88582 0.0
H7065 H 0.43486 0.83757 0.86884 0.0
H7066 H 0.46447 0.90256 0.8803 0.0
H7067 H 0.47254 0.89936 0.85998 0.0
H7068 H 0.4834 0.89115 0.87763 0.0
H7069 H 0.41056 0.86943 0.85994 0.0
H7070 H 0.41527 0.84959 0.85104 0.0
H7071 H 0.42064 0.86838 0.84032 0.0
C7072 C 0.33595 0.67219 0.11125 0.0
C7073 C 0.3295 0.67635 0.09572 0.0
C7074 C 0.35143 0.67796 0.11633 0.0
C7075 C 0.36072 0.6882 0.10564 0.0
C7076 C 0.35462 0.69191 0.08967 0.0
C7077 C 0.33907 0.68585 0.08484 0.0
C7078 C 0.35762 0.67345 0.13335 0.0
C7079 C 0.3642 0.70282 0.07797 0.0
C7080 C 0.38984 0.71597 0.12942 0.0
C7081 C 0.40461 0.707 0.12864 0.0
C7082 C 0.37569 0.71055 0.12102 0.0
C7083 C 0.37631 0.69571 0.11178 0.0
C7084 C 0.39144 0.68709 0.11021 0.0
C7085 C 0.40545 0.69289 0.11861 0.0
C7086 C 0.35981 0.72015 0.12291 0.0
C7087 C 0.39259 0.67118 0.10055 0.0
H7088 H 0.32872 0.66463 0.11961 0.0
H7089 H 0.33412 0.68911 0.07283 0.0
H7090 H 0.36952 0.66672 0.13235 0.0
H7091 H 0.35993 0.68479 0.1407 0.0
H7092 H 0.34872 0.66561 0.14021 0.0
H7093 H 0.35849 0.70331 0.06551 0.0
H7094 H 0.36476 0.71554 0.08302 0.0
H7095 H 0.37709 0.69835 0.07675 0.0
H7096 H 0.38917 0.72694 0.13707 0.0
H7097 H 0.41685 0.6859 0.11795 0.0
H7098 H 0.35103 0.71299 0.13062 0.0
H7099 H 0.35392 0.72211 0.1107 0.0
H7100 H 0.36183 0.73236 0.12885 0.0
H7101 H 0.38611 0.66123 0.10739 0.0
H7102 H 0.4056 0.6673 0.09855 0.0
H7103 H 0.38644 0.67246 0.08837 0.0
C7104 C 0.53437 0.35903 0.6217 0.0
C7105 C 0.54267 0.34387 0.6223 0.0
C7106 C 0.54024 0.37273 0.63053 0.0
C7107 C 0.55482 0.37123 0.64008 0.0
C7108 C 0.56266 0.35567 0.64156 0.0
C7109 C 0.55645 0.34214 0.63267 0.0
C7110 C 0.53148 0.38909 0.62869 0.0
C7111 C 0.57822 0.35356 0.65161 0.0
C7112 C 0.58012 0.41043 0.64092 0.0
C7113 C 0.57565 0.41735 0.65615 0.0
C7114 C 0.57394 0.3951 0.6359 0.0
C7115 C 0.56306 0.38637 0.64642 0.0
C7116 C 0.55924 0.39279 0.66224 0.0
C7117 C 0.56562 0.40825 0.66696 0.0
C7118 C 0.57852 0.38861 0.61901 0.0
C7119 C 0.54775 0.38376 0.67381 0.0
H7120 H 0.52364 0.36039 0.61381 0.0
H7121 H 0.56289 0.33042 0.63324 0.0
H7122 H 0.52957 0.39492 0.64094 0.0
H7123 H 0.53923 0.3976 0.62124 0.0
H7124 H 0.5193 0.38778 0.6225 0.0
H7125 H 0.5812 0.34033 0.65373 0.0
H7126 H 0.58873 0.35934 0.64497 0.0
H7127 H 0.57706 0.35983 0.66373 0.0
H7128 H 0.58808 0.41728 0.63261 0.0
H7129 H 0.56212 0.41354 0.67875 0.0
H7130 H 0.56724 0.38663 0.61148 0.0
H7131 H 0.58483 0.3765 0.62022 0.0
H7132 H 0.58677 0.39719 0.61222 0.0
H7133 H 0.535 0.38417 0.6688 0.0
H7134 H 0.54768 0.38929 0.68636 0.0
H7135 H 0.55132 0.37057 0.6748 0.0
C7136 C 0.84203 0.83105 0.89348 0.0
C7137 C 0.83456 0.82588 0.90822 0.0
C7138 C 0.85767 0.8253 0.88891 0.0
C7139 C 0.86603 0.81399 0.89929 0.0
C7140 C 0.85904 0.80953 0.91471 0.0
C7141 C 0.84335 0.81561 0.91904 0.0
C7142 C 0.86475 0.83054 0.87245 0.0
C7143 C 0.86766 0.79761 0.92614 0.0
C7144 C 0.89386 0.78578 0.87456 0.0
C7145 C 0.90907 0.79392 0.87586 0.0
C7146 C 0.87993 0.79158 0.88306 0.0
C7147 C 0.88128 0.80583 0.89312 0.0
C7148 C 0.89686 0.8134 0.8954 0.0
C7149 C 0.9106 0.80734 0.88672 0.0
C7150 C 0.86353 0.7831 0.88037 0.0
C7151 C 0.89882 0.82856 0.90607 0.0
H7152 H 0.83536 0.83918 0.88518 0.0
H7153 H 0.8376 0.81156 0.93044 0.0
H7154 H 0.87776 0.8346 0.87384 0.0
H7155 H 0.86466 0.81987 0.86385 0.0
H7156 H 0.85759 0.84074 0.86676 0.0
H7157 H 0.86183 0.79726 0.93856 0.0
H7158 H 0.86717 0.78501 0.92077 0.0
H7159 H 0.88088 0.80094 0.92754 0.0
H7160 H 0.89265 0.77531 0.86631 0.0
H7161 H 0.92237 0.81363 0.88788 0.0
H7162 H 0.85533 0.79125 0.87302 0.0
H7163 H 0.85733 0.78076 0.89236 0.0
H7164 H 0.8649 0.77118 0.87372 0.0
H7165 H 0.89326 0.83934 0.8997 0.0
H7166 H 0.912 0.83137 0.90864 0.0
H7167 H 0.89223 0.82698 0.91798 0.0
C7168 C 0.42308 0.08282 0.13899 0.0
C7169 C 0.42716 0.07653 0.1546 0.0
C7170 C 0.42882 0.09829 0.13382 0.0
C7171 C 0.43902 0.10767 0.14448 0.0
C7172 C 0.44274 0.10166 0.16048 0.0
C7173 C 0.43666 0.08616 0.16541 0.0
C7174 C 0.42431 0.10439 0.11676 0.0
C7175 C 0.45362 0.11132 0.17213 0.0
C7176 C 0.46657 0.13741 0.12114 0.0
C7177 C 0.45748 0.15209 0.12219 0.0
C7178 C 0.4612 0.12305 0.12921 0.0
C7179 C 0.4463 0.12338 0.13839 0.0
C7180 C 0.43753 0.13839 0.14017 0.0
C7181 C 0.44328 0.15261 0.13211 0.0
C7182 C 0.47097 0.1073 0.12713 0.0
C7183 C 0.42155 0.13922 0.14975 0.0
H7184 H 0.41554 0.07553 0.13066 0.0
H7185 H 0.43988 0.08131 0.17747 0.0
H7186 H 0.41797 0.11651 0.11764 0.0
H7187 H 0.43564 0.10624 0.10929 0.0
H7188 H 0.41611 0.09565 0.11011 0.0
H7189 H 0.45438 0.10551 0.18454 0.0
H7190 H 0.46627 0.1122 0.16693 0.0
H7191 H 0.44891 0.12411 0.17354 0.0
H7192 H 0.4776 0.13698 0.11356 0.0
H7193 H 0.4362 0.16393 0.13296 0.0
H7194 H 0.46388 0.09851 0.11936 0.0
H7195 H 0.47302 0.10131 0.13928 0.0
H7196 H 0.48314 0.1095 0.12119 0.0
H7197 H 0.41179 0.13245 0.14292 0.0
H7198 H 0.41734 0.15214 0.15167 0.0
H7199 H 0.42293 0.13317 0.16197 0.0
C7200 C 0.16442 0.67163 0.38837 0.0
C7201 C 0.17119 0.67598 0.4037 0.0
C7202 C 0.1489 0.67747 0.38349 0.0
C7203 C 0.13995 0.68804 0.39416 0.0
C7204 C 0.1464 0.69196 0.40994 0.0
C7205 C 0.16195 0.68578 0.41459 0.0
C7206 C 0.14232 0.67272 0.36669 0.0
C7207 C 0.13721 0.70324 0.4216 0.0
C7208 C 0.11067 0.71577 0.37052 0.0
C7209 C 0.09581 0.70701 0.37183 0.0
C7210 C 0.12495 0.71029 0.37866 0.0
C7211 C 0.12434 0.69563 0.38819 0.0
C7212 C 0.10914 0.68728 0.39031 0.0
C7213 C 0.09501 0.69312 0.38215 0.0
C7214 C 0.1409 0.71963 0.37623 0.0
C7215 C 0.108 0.67157 0.40031 0.0
H7216 H 0.17143 0.66385 0.38002 0.0
H7217 H 0.16718 0.68922 0.42643 0.0
H7218 H 0.13021 0.66645 0.36801 0.0
H7219 H 0.14032 0.68394 0.35908 0.0
H7220 H 0.15086 0.66438 0.35993 0.0
H7221 H 0.14315 0.70387 0.43395 0.0
H7222 H 0.13677 0.71588 0.41632 0.0
H7223 H 0.12426 0.69903 0.42313 0.0
H7224 H 0.11131 0.72657 0.36264 0.0
H7225 H 0.08354 0.68631 0.38323 0.0
H7226 H 0.14941 0.7122 0.36847 0.0
H7227 H 0.1471 0.72174 0.38826 0.0
H7228 H 0.13892 0.73175 0.3701 0.0
H7229 H 0.11423 0.66142 0.39354 0.0
H7230 H 0.09499 0.66788 0.40264 0.0
H7231 H 0.11441 0.67301 0.41233 0.0
C7232 C 0.88083 0.53289 0.13993 0.0
C7233 C 0.87983 0.54186 0.15469 0.0
C7234 C 0.87255 0.53827 0.12569 0.0
C7235 C 0.86319 0.55304 0.12622 0.0
C7236 C 0.86142 0.56165 0.14133 0.0
C7237 C 0.86971 0.5559 0.15542 0.0
C7238 C 0.87464 0.52867 0.10983 0.0
C7239 C 0.85163 0.57749 0.14238 0.0
C7240 C 0.86252 0.57669 0.08592 0.0
C7241 C 0.84699 0.5725 0.07948 0.0
C7242 C 0.86766 0.57085 0.10136 0.0
C7243 C 0.85705 0.56048 0.11059 0.0
C7244 C 0.8411 0.55669 0.10448 0.0
C7245 C 0.8362 0.56284 0.08898 0.0
C7246 C 0.88466 0.57543 0.10758 0.0
C7247 C 0.8295 0.54563 0.11399 0.0
H7248 H 0.88855 0.52196 0.13934 0.0
H7249 H 0.86887 0.56289 0.16681 0.0
H7250 H 0.86248 0.5266 0.10385 0.0
H7251 H 0.88234 0.5359 0.1011 0.0
H7252 H 0.88067 0.51652 0.1119 0.0
H7253 H 0.84962 0.58146 0.15536 0.0
H7254 H 0.85838 0.58745 0.13581 0.0
H7255 H 0.83946 0.57607 0.13626 0.0
H7256 H 0.87082 0.58435 0.07873 0.0
H7257 H 0.8242 0.55954 0.08404 0.0
H7258 H 0.89215 0.56413 0.10955 0.0
H7259 H 0.88366 0.58184 0.11965 0.0
H7260 H 0.89137 0.58359 0.09884 0.0
H7261 H 0.83472 0.53297 0.1146 0.0
H7262 H 0.81707 0.54495 0.1082 0.0
H7263 H 0.82813 0.55009 0.12687 0.0
C7264 C 0.33497 0.43495 0.40956 0.0
C7265 C 0.34576 0.42569 0.41946 0.0
C7266 C 0.34012 0.44108 0.39414 0.0
C7267 C 0.35634 0.4377 0.38851 0.0
C7268 C 0.36698 0.42773 0.39815 0.0
C7269 C 0.36156 0.42187 0.41348 0.0
C7270 C 0.32847 0.45168 0.38418 0.0
C7271 C 0.38427 0.42357 0.39247 0.0
C7272 C 0.37009 0.44235 0.34401 0.0
C7273 C 0.37971 0.45673 0.3449 0.0
C7274 C 0.36163 0.43641 0.35793 0.0
C7275 C 0.36271 0.44518 0.373 0.0
C7276 C 0.37158 0.46025 0.37368 0.0
C7277 C 0.38006 0.4658 0.35962 0.0
C7278 C 0.35241 0.42025 0.35673 0.0
C7279 C 0.37294 0.47001 0.38951 0.0
H7280 H 0.32275 0.43797 0.41414 0.0
H7281 H 0.36987 0.4145 0.42096 0.0
H7282 H 0.33333 0.46448 0.38356 0.0
H7283 H 0.3276 0.44703 0.37132 0.0
H7284 H 0.31587 0.45205 0.38961 0.0
H7285 H 0.39117 0.41624 0.40178 0.0
H7286 H 0.38372 0.41643 0.38079 0.0
H7287 H 0.39133 0.43504 0.38993 0.0
H7288 H 0.36978 0.43527 0.33264 0.0
H7289 H 0.38741 0.47697 0.36033 0.0
H7290 H 0.34003 0.42131 0.36251 0.0
H7291 H 0.3593 0.41057 0.36356 0.0
H7292 H 0.35087 0.41613 0.34373 0.0
H7293 H 0.36056 0.47178 0.39512 0.0
H7294 H 0.37869 0.48231 0.38753 0.0
H7295 H 0.38057 0.46306 0.39852 0.0
C7296 C 0.82719 0.61041 0.66504 0.0
C7297 C 0.82265 0.59502 0.67153 0.0
C7298 C 0.82121 0.61575 0.64972 0.0
C7299 C 0.81026 0.60553 0.64073 0.0
C7300 C 0.80608 0.5897 0.64691 0.0
C7301 C 0.81244 0.58456 0.66224 0.0
C7302 C 0.82623 0.63259 0.64342 0.0
C7303 C 0.79439 0.57851 0.63766 0.0
C7304 C 0.78282 0.63032 0.61212 0.0
C7305 C 0.79141 0.62905 0.59715 0.0
C7306 C 0.78825 0.62183 0.62621 0.0
C7307 C 0.80266 0.61195 0.6253 0.0
C7308 C 0.81083 0.60989 0.60999 0.0
C7309 C 0.80505 0.61842 0.59607 0.0
C7310 C 0.77911 0.62422 0.6423 0.0
C7311 C 0.82627 0.59954 0.60854 0.0
H7312 H 0.83525 0.61845 0.67209 0.0
H7313 H 0.80886 0.57268 0.66725 0.0
H7314 H 0.83164 0.63153 0.63087 0.0
H7315 H 0.81521 0.64068 0.64246 0.0
H7316 H 0.83538 0.63867 0.65161 0.0
H7317 H 0.79346 0.56609 0.64343 0.0
H7318 H 0.7819 0.58415 0.63741 0.0
H7319 H 0.79845 0.57705 0.62466 0.0
H7320 H 0.7722 0.63843 0.61298 0.0
H7321 H 0.81172 0.61735 0.58451 0.0
H7322 H 0.78681 0.63165 0.65086 0.0
H7323 H 0.77678 0.61213 0.64831 0.0
H7324 H 0.76713 0.63066 0.64053 0.0
H7325 H 0.83662 0.60589 0.61489 0.0
H7326 H 0.82986 0.59743 0.59546 0.0
H7327 H 0.82455 0.5874 0.61465 0.0
C7328 C 0.6646 0.06589 0.91131 0.0
C7329 C 0.65361 0.07523 0.92089 0.0
C7330 C 0.65997 0.0601 0.8956 0.0
C7331 C 0.64408 0.06394 0.88935 0.0
C7332 C 0.63329 0.07406 0.89866 0.0
C7333 C 0.63816 0.07952 0.91432 0.0
C7334 C 0.67177 0.04932 0.88601 0.0
C7335 C 0.61636 0.07868 0.89232 0.0
C7336 C 0.63173 0.05979 0.8444 0.0
C7337 C 0.62173 0.04566 0.84492 0.0
C7338 C 0.63992 0.06544 0.8586 0.0
C7339 C 0.63813 0.05665 0.8736 0.0
C7340 C 0.6289 0.04179 0.87391 0.0
C7341 C 0.62075 0.0365 0.85957 0.0
C7342 C 0.64959 0.08136 0.85778 0.0
C7343 C 0.62679 0.03199 0.88964 0.0
H7344 H 0.67654 0.06252 0.91635 0.0
H7345 H 0.62971 0.08694 0.92158 0.0
H7346 H 0.66672 0.0366 0.88521 0.0
H7347 H 0.67315 0.05396 0.87319 0.0
H7348 H 0.68417 0.04873 0.89186 0.0
H7349 H 0.60965 0.08693 0.90097 0.0
H7350 H 0.61742 0.08499 0.8802 0.0
H7351 H 0.60883 0.06739 0.8904 0.0
H7352 H 0.63255 0.06692 0.83309 0.0
H7353 H 0.61312 0.02551 0.86 0.0
H7354 H 0.6617 0.07999 0.86403 0.0
H7355 H 0.64268 0.09122 0.86433 0.0
H7356 H 0.65173 0.08543 0.84485 0.0
H7357 H 0.63892 0.02994 0.89566 0.0
H7358 H 0.62085 0.01983 0.88741 0.0
H7359 H 0.61899 0.03907 0.89842 0.0
C7360 C 0.68584 0.41556 0.16158 0.0
C7361 C 0.67589 0.40476 0.17076 0.0
C7362 C 0.69232 0.41073 0.14619 0.0
C7363 C 0.68857 0.39485 0.13987 0.0
C7364 C 0.67785 0.38428 0.14874 0.0
C7365 C 0.67168 0.38936 0.16407 0.0
C7366 C 0.70375 0.4223 0.13707 0.0
C7367 C 0.6733 0.36736 0.14231 0.0
C7368 C 0.69462 0.38216 0.09522 0.0
C7369 C 0.70855 0.37193 0.09644 0.0
C7370 C 0.68845 0.39051 0.1091 0.0
C7371 C 0.69651 0.38868 0.1245 0.0
C7372 C 0.71119 0.37921 0.12555 0.0
C7373 C 0.71699 0.37088 0.11151 0.0
C7374 C 0.67274 0.40043 0.10749 0.0
C7375 C 0.7202 0.37704 0.14173 0.0
H7376 H 0.68917 0.42746 0.16673 0.0
H7377 H 0.66379 0.38106 0.17102 0.0
H7378 H 0.71642 0.41708 0.137 0.0
H7379 H 0.69981 0.4236 0.12401 0.0
H7380 H 0.70418 0.43474 0.14283 0.0
H7381 H 0.66503 0.36059 0.15089 0.0
H7382 H 0.66704 0.3685 0.13018 0.0
H7383 H 0.6846 0.35984 0.1404 0.0
H7384 H 0.68804 0.38305 0.08359 0.0
H7385 H 0.72783 0.36308 0.11248 0.0
H7386 H 0.67402 0.41257 0.11371 0.0
H7387 H 0.66248 0.39374 0.11365 0.0
H7388 H 0.66929 0.40253 0.09438 0.0
H7389 H 0.72217 0.38917 0.14778 0.0
H7390 H 0.73237 0.3709 0.1401 0.0
H7391 H 0.7126 0.36941 0.15021 0.0
C7392 C 0.12078 0.46205 0.14349 0.0
C7393 C 0.12191 0.45341 0.15843 0.0
C7394 C 0.12933 0.45664 0.12943 0.0
C7395 C 0.13921 0.44223 0.13036 0.0
C7396 C 0.14117 0.43402 0.14567 0.0
C7397 C 0.1325 0.43974 0.15955 0.0
C7398 C 0.12701 0.4658 0.11335 0.0
C7399 C 0.15155 0.41861 0.14715 0.0
C7400 C 0.14063 0.41855 0.09016 0.0
C7401 C 0.15581 0.42358 0.08353 0.0
C7402 C 0.13551 0.42388 0.10579 0.0
C7403 C 0.14573 0.43471 0.11493 0.0
C7404 C 0.16145 0.43919 0.10869 0.0
C7405 C 0.16638 0.43346 0.09304 0.0
C7406 C 0.11877 0.41856 0.11211 0.0
C7407 C 0.17267 0.4507 0.11812 0.0
H7408 H 0.11272 0.4727 0.14259 0.0
H7409 H 0.13348 0.43304 0.1711 0.0
H7410 H 0.13913 0.46827 0.10746 0.0
H7411 H 0.11974 0.45805 0.10469 0.0
H7412 H 0.12043 0.47772 0.11507 0.0
H7413 H 0.15366 0.41505 0.16024 0.0
H7414 H 0.14522 0.40823 0.14081 0.0
H7415 H 0.16369 0.42034 0.14104 0.0
H7416 H 0.13252 0.41074 0.08291 0.0
H7417 H 0.17811 0.43741 0.08792 0.0
H7418 H 0.11029 0.42933 0.11227 0.0
H7419 H 0.11972 0.41389 0.12495 0.0
H7420 H 0.11318 0.40877 0.10432 0.0
H7421 H 0.1672 0.46327 0.11829 0.0
H7422 H 0.18517 0.45147 0.11252 0.0
H7423 H 0.1739 0.44662 0.13114 0.0
C7424 C 0.80531 0.88256 0.90604 0.0
C7425 C 0.7932 0.87029 0.90427 0.0
C7426 C 0.81101 0.89152 0.89233 0.0
C7427 C 0.80437 0.88813 0.87652 0.0
C7428 C 0.79139 0.87651 0.87486 0.0
C7429 C 0.78598 0.8677 0.88876 0.0
C7430 C 0.82487 0.90378 0.89461 0.0
C7431 C 0.78391 0.87262 0.85822 0.0
C7432 C 0.81308 0.91481 0.83882 0.0
C7433 C 0.8248 0.90509 0.83059 0.0
C7434 C 0.80668 0.90982 0.85419 0.0
C7435 C 0.81237 0.89496 0.86147 0.0
C7436 C 0.825 0.88574 0.85366 0.0
C7437 C 0.83096 0.89085 0.83826 0.0
C7438 C 0.79319 0.91993 0.86215 0.0
C7439 C 0.83165 0.86999 0.86116 0.0
H7440 H 0.8109 0.88469 0.91803 0.0
H7441 H 0.77652 0.85834 0.88735 0.0
H7442 H 0.83645 0.89856 0.88946 0.0
H7443 H 0.82223 0.91538 0.88782 0.0
H7444 H 0.82697 0.90677 0.90784 0.0
H7445 H 0.77272 0.86476 0.85929 0.0
H7446 H 0.78057 0.88418 0.85166 0.0
H7447 H 0.79312 0.86603 0.8505 0.0
H7448 H 0.80826 0.92578 0.83285 0.0
H7449 H 0.84015 0.88343 0.83197 0.0
H7450 H 0.7959 0.92197 0.87543 0.0
H7451 H 0.78134 0.91309 0.86141 0.0
H7452 H 0.79158 0.9321 0.85603 0.0
H7453 H 0.83529 0.87205 0.87421 0.0
H7454 H 0.84251 0.8652 0.85432 0.0
H7455 H 0.82189 0.86037 0.86108 0.0
C7456 C 0.21684 0.63047 0.38749 0.0
C7457 C 0.20896 0.62862 0.40278 0.0
C7458 C 0.21128 0.62185 0.37353 0.0
C7459 C 0.19746 0.6112 0.3749 0.0
C7460 C 0.19008 0.60854 0.39052 0.0
C7461 C 0.19595 0.61727 0.4043 0.0
C7462 C 0.21957 0.62491 0.35711 0.0
C7463 C 0.1753 0.59735 0.39249 0.0
C7464 C 0.17145 0.60927 0.33615 0.0
C7465 C 0.17656 0.59433 0.32906 0.0
C7466 C 0.17768 0.61451 0.3514 0.0
C7467 C 0.18949 0.60466 0.3597 0.0
C7468 C 0.19421 0.58921 0.35297 0.0
C7469 C 0.18758 0.58415 0.33772 0.0
C7470 C 0.17209 0.63093 0.35831 0.0
C7471 C 0.20681 0.57842 0.36147 0.0
H7472 H 0.22698 0.63913 0.38629 0.0
H7473 H 0.18984 0.61572 0.41611 0.0
H7474 H 0.22225 0.61304 0.3508 0.0
H7475 H 0.21114 0.63206 0.349 0.0
H7476 H 0.23129 0.63194 0.35845 0.0
H7477 H 0.17246 0.59483 0.40567 0.0
H7478 H 0.16433 0.60325 0.38675 0.0
H7479 H 0.17736 0.58543 0.38606 0.0
H7480 H 0.1628 0.61709 0.32957 0.0
H7481 H 0.19161 0.57262 0.33223 0.0
H7482 H 0.18264 0.63968 0.35857 0.0
H7483 H 0.16767 0.62944 0.37119 0.0
H7484 H 0.16202 0.63651 0.35088 0.0
H7485 H 0.21905 0.58456 0.36111 0.0
H7486 H 0.20792 0.56611 0.35552 0.0
H7487 H 0.20351 0.57668 0.37466 0.0
loop_
_geom_bond_atom_site_label_1
_geom_bond_atom_site_label_2
_geom_bond_distance
_geom_bond_site_symmetry_2
_ccdc_geom_bond_type
Co0 O1 2.216 . S
Co0 O2 2.091 . S
Co0 O4 2.004 . S
Co0 O10 2.021 . S
Co0 O12 2.137 . S
Co0 O13 2.244 . S
O1 Co0 2.216 . S
O1 C8 1.247 . S
O2 Co0 2.091 . S
O2 C8 1.261 . S
C3 O12 1.247 . S
C3 O13 1.272 . S
O4 Co0 2.004 . S
O4 C9 1.259 . S
Co5 O6 2.061 . S
Co5 O11 2.052 . S
Co5 O13 2.135 . S
O6 Co5 2.061 . S
O6 C9 1.235 . S
C7 O10 1.238 . S
C7 O11 1.241 . S
C8 O1 1.247 . S
C8 O2 1.261 . S
C9 O4 1.259 . S
C9 O6 1.235 . S
O10 Co0 2.021 . S
O10 C7 1.238 . S
O11 Co5 2.052 . S
O11 C7 1.241 . S
O12 Co0 2.137 . S
O12 C3 1.247 . S
O13 Co0 2.244 . S
O13 C3 1.272 . S
O13 Co5 2.135 . S
Co14 O15 2.216 . S
Co14 O16 2.091 . S
Co14 O18 2.004 . S
Co14 O24 2.021 . S
Co14 O26 2.137 . S
Co14 O27 2.244 . S
O15 Co14 2.216 . S
O15 C22 1.247 . S
O16 Co14 2.091 . S
O16 C22 1.261 . S
C17 O26 1.247 . S
C17 O27 1.272 . S
O18 Co14 2.004 . S
O18 C23 1.259 . S
Co19 O20 2.061 . S
Co19 O25 2.052 . S
Co19 O27 2.135 . S
O20 Co19 2.061 . S
O20 C23 1.235 . S
C21 O24 1.238 . S
C21 O25 1.241 . S
C22 O15 1.247 . S
C22 O16 1.261 . S
C23 O18 1.259 . S
C23 O20 1.235 . S
O24 Co14 2.021 . S
O24 C21 1.238 . S
O25 Co19 2.052 . S
O25 C21 1.241 . S
O26 Co14 2.137 . S
O26 C17 1.247 . S
O27 Co14 2.244 . S
O27 C17 1.272 . S
O27 Co19 2.135 . S
Co28 O29 2.216 . S
Co28 O30 2.091 . S
Co28 O32 2.004 . S
Co28 O38 2.021 . S
Co28 O40 2.137 . S
Co28 O41 2.244 . S
O29 Co28 2.216 . S
O29 C36 1.247 . S
O30 Co28 2.091 . S
O30 C36 1.261 . S
C31 O40 1.247 . S
C31 O41 1.272 . S
O32 Co28 2.004 . S
O32 C37 1.259 . S
Co33 O34 2.061 . S
Co33 O39 2.052 . S
Co33 O41 2.135 . S
O34 Co33 2.061 . S
O34 C37 1.235 . S
C35 O38 1.238 . S
C35 O39 1.241 . S
C36 O29 1.247 . S
C36 O30 1.261 . S
C37 O32 1.259 . S
C37 O34 1.235 . S
O38 Co28 2.021 . S
O38 C35 1.238 . S
O39 Co33 2.052 . S
O39 C35 1.241 . S
O40 Co28 2.137 . S
O40 C31 1.247 . S
O41 Co28 2.244 . S
O41 C31 1.272 . S
O41 Co33 2.135 . S
Co42 O43 2.216 . S
Co42 O44 2.091 . S
Co42 O46 2.004 . S
Co42 O52 2.021 . S
Co42 O54 2.137 . S
Co42 O55 2.244 . S
O43 Co42 2.216 . S
O43 C50 1.247 . S
O44 Co42 2.091 . S
O44 C50 1.261 . S
C45 O54 1.247 . S
C45 O55 1.272 . S
O46 Co42 2.004 . S
O46 C51 1.259 . S
Co47 O48 2.061 . S
Co47 O53 2.052 . S
Co47 O55 2.135 . S
O48 Co47 2.061 . S
O48 C51 1.235 . S
C49 O52 1.238 . S
C49 O53 1.241 . S
C50 O43 1.247 . S
C50 O44 1.261 . S
C51 O46 1.259 . S
C51 O48 1.235 . S
O52 Co42 2.021 . S
O52 C49 1.238 . S
O53 Co47 2.052 . S
O53 C49 1.241 . S
O54 Co42 2.137 . S
O54 C45 1.247 . S
O55 Co42 2.244 . S
O55 C45 1.272 . S
O55 Co47 2.135 . S
Co56 O57 2.216 . S
Co56 O58 2.091 . S
Co56 O60 2.004 . S
Co56 O66 2.021 . S
Co56 O68 2.137 . S
Co56 O69 2.244 . S
O57 Co56 2.216 . S
O57 C64 1.247 . S
O58 Co56 2.091 . S
O58 C64 1.261 . S
C59 O68 1.247 . S
C59 O69 1.272 . S
O60 Co56 2.004 . S
O60 C65 1.259 . S
Co61 O62 2.061 . S
Co61 O67 2.052 . S
Co61 O69 2.135 . S
O62 Co61 2.061 . S
O62 C65 1.235 . S
C63 O66 1.238 . S
C63 O67 1.241 . S
C64 O57 1.247 . S
C64 O58 1.261 . S
C65 O60 1.259 . S
C65 O62 1.235 . S
O66 Co56 2.021 . S
O66 C63 1.238 . S
O67 Co61 2.052 . S
O67 C63 1.241 . S
O68 Co56 2.137 . S
O68 C59 1.247 . S
O69 Co56 2.244 . S
O69 C59 1.272 . S
O69 Co61 2.135 . S
Co70 O71 2.216 . S
Co70 O72 2.091 . S
Co70 O74 2.004 . S
Co70 O80 2.021 . S
Co70 O82 2.137 . S
Co70 O83 2.244 . S
O71 Co70 2.216 . S
O71 C78 1.247 . S
O72 Co70 2.091 . S
O72 C78 1.261 . S
C73 O82 1.247 . S
C73 O83 1.272 . S
O74 Co70 2.004 . S
O74 C79 1.259 . S
Co75 O76 2.061 . S
Co75 O81 2.052 . S
Co75 O83 2.135 . S
O76 Co75 2.061 . S
O76 C79 1.235 . S
C77 O80 1.238 . S
C77 O81 1.241 . S
C78 O71 1.247 . S
C78 O72 1.261 . S
C79 O74 1.259 . S
C79 O76 1.235 . S
O80 Co70 2.021 . S
O80 C77 1.238 . S
O81 Co75 2.052 . S
O81 C77 1.241 . S
O82 Co70 2.137 . S
O82 C73 1.247 . S
O83 Co70 2.244 . S
O83 C73 1.272 . S
O83 Co75 2.135 . S
Co84 O85 2.216 . S
Co84 O86 2.091 . S
Co84 O88 2.004 . S
Co84 O94 2.021 . S
Co84 O96 2.137 . S
Co84 O97 2.244 . S
O85 Co84 2.216 . S
O85 C92 1.247 . S
O86 Co84 2.091 . S
O86 C92 1.261 . S
C87 O96 1.247 . S
C87 O97 1.272 . S
O88 Co84 2.004 . S
O88 C93 1.259 . S
Co89 O90 2.061 . S
Co89 O95 2.052 . S
Co89 O97 2.135 . S
O90 Co89 2.061 . S
O90 C93 1.235 . S
C91 O94 1.238 . S
C91 O95 1.241 . S
C92 O85 1.247 . S
C92 O86 1.261 . S
C93 O88 1.259 . S
C93 O90 1.235 . S
O94 Co84 2.021 . S
O94 C91 1.238 . S
O95 Co89 2.052 . S
O95 C91 1.241 . S
O96 Co84 2.137 . S
O96 C87 1.247 . S
O97 Co84 2.244 . S
O97 C87 1.272 . S
O97 Co89 2.135 . S
Co98 O99 2.216 . S
Co98 O100 2.091 . S
Co98 O102 2.004 . S
Co98 O108 2.021 . S
Co98 O110 2.137 . S
Co98 O111 2.244 . S
O99 Co98 2.216 . S
O99 C106 1.247 . S
O100 Co98 2.091 . S
O100 C106 1.261 . S
C101 O110 1.247 . S
C101 O111 1.272 . S
O102 Co98 2.004 . S
O102 C107 1.259 . S
Co103 O104 2.061 . S
Co103 O109 2.052 . S
Co103 O111 2.135 . S
O104 Co103 2.061 . S
O104 C107 1.235 . S
C105 O108 1.238 . S
C105 O109 1.241 . S
C106 O99 1.247 . S
C106 O100 1.261 . S
C107 O102 1.259 . S
C107 O104 1.235 . S
O108 Co98 2.021 . S
O108 C105 1.238 . S
O109 Co103 2.052 . S
O109 C105 1.241 . S
O110 Co98 2.137 . S
O110 C101 1.247 . S
O111 Co98 2.244 . S
O111 C101 1.272 . S
O111 Co103 2.135 . S
Co112 O113 2.216 . S
Co112 O114 2.091 . S
Co112 O116 2.004 . S
Co112 O122 2.021 . S
Co112 O124 2.137 . S
Co112 O125 2.244 . S
O113 Co112 2.216 . S
O113 C120 1.247 . S
O114 Co112 2.091 . S
O114 C120 1.261 . S
C115 O124 1.247 . S
C115 O125 1.272 . S
O116 Co112 2.004 . S
O116 C121 1.259 . S
Co117 O118 2.061 . S
Co117 O123 2.052 . S
Co117 O125 2.135 . S
O118 Co117 2.061 . S
O118 C121 1.235 . S
C119 O122 1.238 . S
C119 O123 1.241 . S
C120 O113 1.247 . S
C120 O114 1.261 . S
C121 O116 1.259 . S
C121 O118 1.235 . S
O122 Co112 2.021 . S
O122 C119 1.238 . S
O123 Co117 2.052 . S
O123 C119 1.241 . S
O124 Co112 2.137 . S
O124 C115 1.247 . S
O125 Co112 2.244 . S
O125 C115 1.272 . S
O125 Co117 2.135 . S
Co126 O127 2.216 . S
Co126 O128 2.091 . S
Co126 O130 2.004 . S
Co126 O136 2.021 . S
Co126 O138 2.137 . S
Co126 O139 2.244 . S
O127 Co126 2.216 . S
O127 C134 1.247 . S
O128 Co126 2.091 . S
O128 C134 1.261 . S
C129 O138 1.247 . S
C129 O139 1.272 . S
O130 Co126 2.004 . S
O130 C135 1.259 . S
Co131 O132 2.061 . S
Co131 O137 2.052 . S
Co131 O139 2.135 . S
O132 Co131 2.061 . S
O132 C135 1.235 . S
C133 O136 1.238 . S
C133 O137 1.241 . S
C134 O127 1.247 . S
C134 O128 1.261 . S
C135 O130 1.259 . S
C135 O132 1.235 . S
O136 Co126 2.021 . S
O136 C133 1.238 . S
O137 Co131 2.052 . S
O137 C133 1.241 . S
O138 Co126 2.137 . S
O138 C129 1.247 . S
O139 Co126 2.244 . S
O139 C129 1.272 . S
O139 Co131 2.135 . S
Co140 O141 2.216 . S
Co140 O142 2.091 . S
Co140 O144 2.004 . S
Co140 O150 2.021 . S
Co140 O152 2.137 . S
Co140 O153 2.244 . S
O141 Co140 2.216 . S
O141 C148 1.247 . S
O142 Co140 2.091 . S
O142 C148 1.261 . S
C143 O152 1.247 . S
C143 O153 1.272 . S
O144 Co140 2.004 . S
O144 C149 1.259 . S
Co145 O146 2.061 . S
Co145 O151 2.052 . S
Co145 O153 2.135 . S
O146 Co145 2.061 . S
O146 C149 1.235 . S
C147 O150 1.238 . S
C147 O151 1.241 . S
C148 O141 1.247 . S
C148 O142 1.261 . S
C149 O144 1.259 . S
C149 O146 1.235 . S
O150 Co140 2.021 . S
O150 C147 1.238 . S
O151 Co145 2.052 . S
O151 C147 1.241 . S
O152 Co140 2.137 . S
O152 C143 1.247 . S
O153 Co140 2.244 . S
O153 C143 1.272 . S
O153 Co145 2.135 . S
Co154 O155 2.216 . S
Co154 O156 2.091 . S
Co154 O158 2.004 . S
Co154 O164 2.021 . S
Co154 O166 2.137 . S
Co154 O167 2.244 . S
O155 Co154 2.216 . S
O155 C162 1.247 . S
O156 Co154 2.091 . S
O156 C162 1.261 . S
C157 O166 1.247 . S
C157 O167 1.272 . S
O158 Co154 2.004 . S
O158 C163 1.259 . S
Co159 O160 2.061 . S
Co159 O165 2.052 . S
Co159 O167 2.135 . S
O160 Co159 2.061 . S
O160 C163 1.235 . S
C161 O164 1.238 . S
C161 O165 1.241 . S
C162 O155 1.247 . S
C162 O156 1.261 . S
C163 O158 1.259 . S
C163 O160 1.235 . S
O164 Co154 2.021 . S
O164 C161 1.238 . S
O165 Co159 2.052 . S
O165 C161 1.241 . S
O166 Co154 2.137 . S
O166 C157 1.247 . S
O167 Co154 2.244 . S
O167 C157 1.272 . S
O167 Co159 2.135 . S
Co168 O169 2.216 . S
Co168 O170 2.091 . S
Co168 O172 2.004 . S
Co168 O178 2.021 . S
Co168 O180 2.137 . S
Co168 O181 2.244 . S
O169 Co168 2.216 . S
O169 C176 1.247 . S
O170 Co168 2.091 . S
O170 C176 1.261 . S
C171 O180 1.247 . S
C171 O181 1.272 . S
O172 Co168 2.004 . S
O172 C177 1.259 . S
Co173 O174 2.061 . S
Co173 O179 2.052 . S
Co173 O181 2.135 . S
O174 Co173 2.061 . S
O174 C177 1.235 . S
C175 O178 1.238 . S
C175 O179 1.241 . S
C176 O169 1.247 . S
C176 O170 1.261 . S
C177 O172 1.259 . S
C177 O174 1.235 . S
O178 Co168 2.021 . S
O178 C175 1.238 . S
O179 Co173 2.052 . S
O179 C175 1.241 . S
O180 Co168 2.137 . S
O180 C171 1.247 . S
O181 Co168 2.244 . S
O181 C171 1.272 . S
O181 Co173 2.135 . S
Co182 O183 2.216 . S
Co182 O184 2.091 . S
Co182 O186 2.004 . S
Co182 O192 2.021 . S
Co182 O194 2.137 . S
Co182 O195 2.244 . S
O183 Co182 2.216 . S
O183 C190 1.247 . S
O184 Co182 2.091 . S
O184 C190 1.261 . S
C185 O194 1.247 . S
C185 O195 1.272 . S
O186 Co182 2.004 . S
O186 C191 1.259 . S
Co187 O188 2.061 . S
Co187 O193 2.052 . S
Co187 O195 2.135 . S
O188 Co187 2.061 . S
O188 C191 1.235 . S
C189 O192 1.238 . S
C189 O193 1.241 . S
C190 O183 1.247 . S
C190 O184 1.261 . S
C191 O186 1.259 . S
C191 O188 1.235 . S
O192 Co182 2.021 . S
O192 C189 1.238 . S
O193 Co187 2.052 . S
O193 C189 1.241 . S
O194 Co182 2.137 . S
O194 C185 1.247 . S
O195 Co182 2.244 . S
O195 C185 1.272 . S
O195 Co187 2.135 . S
Co196 O197 2.216 . S
Co196 O198 2.091 . S
Co196 O200 2.004 . S
Co196 O206 2.021 . S
Co196 O208 2.137 . S
Co196 O209 2.244 . S
O197 Co196 2.216 . S
O197 C204 1.247 . S
O198 Co196 2.091 . S
O198 C204 1.261 . S
C199 O208 1.247 . S
C199 O209 1.272 . S
O200 Co196 2.004 . S
O200 C205 1.259 . S
Co201 O202 2.061 . S
Co201 O207 2.052 . S
Co201 O209 2.135 . S
O202 Co201 2.061 . S
O202 C205 1.235 . S
C203 O206 1.238 . S
C203 O207 1.241 . S
C204 O197 1.247 . S
C204 O198 1.261 . S
C205 O200 1.259 . S
C205 O202 1.235 . S
O206 Co196 2.021 . S
O206 C203 1.238 . S
O207 Co201 2.052 . S
O207 C203 1.241 . S
O208 Co196 2.137 . S
O208 C199 1.247 . S
O209 Co196 2.244 . S
O209 C199 1.272 . S
O209 Co201 2.135 . S
Co210 O211 2.216 . S
Co210 O212 2.091 . S
Co210 O214 2.004 . S
Co210 O220 2.021 . S
Co210 O222 2.137 . S
Co210 O223 2.244 . S
O211 Co210 2.216 . S
O211 C218 1.247 . S
O212 Co210 2.091 . S
O212 C218 1.261 . S
C213 O222 1.247 . S
C213 O223 1.272 . S
O214 Co210 2.004 . S
O214 C219 1.259 . S
Co215 O216 2.061 . S
Co215 O221 2.052 . S
Co215 O223 2.135 . S
O216 Co215 2.061 . S
O216 C219 1.235 . S
C217 O220 1.238 . S
C217 O221 1.241 . S
C218 O211 1.247 . S
C218 O212 1.261 . S
C219 O214 1.259 . S
C219 O216 1.235 . S
O220 Co210 2.021 . S
O220 C217 1.238 . S
O221 Co215 2.052 . S
O221 C217 1.241 . S
O222 Co210 2.137 . S
O222 C213 1.247 . S
O223 Co210 2.244 . S
O223 C213 1.272 . S
O223 Co215 2.135 . S
Co224 O225 2.216 . S
Co224 O226 2.091 . S
Co224 O228 2.004 . S
Co224 O234 2.021 . S
Co224 O236 2.137 . S
Co224 O237 2.244 . S
O225 Co224 2.216 . S
O225 C232 1.247 . S
O226 Co224 2.091 . S
O226 C232 1.261 . S
C227 O236 1.247 . S
C227 O237 1.272 . S
O228 Co224 2.004 . S
O228 C233 1.259 . S
Co229 O230 2.061 . S
Co229 O235 2.052 . S
Co229 O237 2.135 . S
O230 Co229 2.061 . S
O230 C233 1.235 . S
C231 O234 1.238 . S
C231 O235 1.241 . S
C232 O225 1.247 . S
C232 O226 1.261 . S
C233 O228 1.259 . S
C233 O230 1.235 . S
O234 Co224 2.021 . S
O234 C231 1.238 . S
O235 Co229 2.052 . S
O235 C231 1.241 . S
O236 Co224 2.137 . S
O236 C227 1.247 . S
O237 Co224 2.244 . S
O237 C227 1.272 . S
O237 Co229 2.135 . S
Co238 O239 2.216 . S
Co238 O240 2.091 . S
Co238 O242 2.004 . S
Co238 O248 2.021 . S
Co238 O250 2.137 . S
Co238 O251 2.244 . S
O239 Co238 2.216 . S
O239 C246 1.247 . S
O240 Co238 2.091 . S
O240 C246 1.261 . S
C241 O250 1.247 . S
C241 O251 1.272 . S
O242 Co238 2.004 . S
O242 C247 1.259 . S
Co243 O244 2.061 . S
Co243 O249 2.052 . S
Co243 O251 2.135 . S
O244 Co243 2.061 . S
O244 C247 1.235 . S
C245 O248 1.238 . S
C245 O249 1.241 . S
C246 O239 1.247 . S
C246 O240 1.261 . S
C247 O242 1.259 . S
C247 O244 1.235 . S
O248 Co238 2.021 . S
O248 C245 1.238 . S
O249 Co243 2.052 . S
O249 C245 1.241 . S
O250 Co238 2.137 . S
O250 C241 1.247 . S
O251 Co238 2.244 . S
O251 C241 1.272 . S
O251 Co243 2.135 . S
Co252 O253 2.216 . S
Co252 O254 2.091 . S
Co252 O256 2.004 . S
Co252 O262 2.021 . S
Co252 O264 2.137 . S
Co252 O265 2.244 . S
O253 Co252 2.216 . S
O253 C260 1.247 . S
O254 Co252 2.091 . S
O254 C260 1.261 . S
C255 O264 1.247 . S
C255 O265 1.272 . S
O256 Co252 2.004 . S
O256 C261 1.259 . S
Co257 O258 2.061 . S
Co257 O263 2.052 . S
Co257 O265 2.135 . S
O258 Co257 2.061 . S
O258 C261 1.235 . S
C259 O262 1.238 . S
C259 O263 1.241 . S
C260 O253 1.247 . S
C260 O254 1.261 . S
C261 O256 1.259 . S
C261 O258 1.235 . S
O262 Co252 2.021 . S
O262 C259 1.238 . S
O263 Co257 2.052 . S
O263 C259 1.241 . S
O264 Co252 2.137 . S
O264 C255 1.247 . S
O265 Co252 2.244 . S
O265 C255 1.272 . S
O265 Co257 2.135 . S
Co266 O267 2.216 . S
Co266 O268 2.091 . S
Co266 O270 2.004 . S
Co266 O276 2.021 . S
Co266 O278 2.137 . S
Co266 O279 2.244 . S
O267 Co266 2.216 . S
O267 C274 1.247 . S
O268 Co266 2.091 . S
O268 C274 1.261 . S
C269 O278 1.247 . S
C269 O279 1.272 . S
O270 Co266 2.004 . S
O270 C275 1.259 . S
Co271 O272 2.061 . S
Co271 O277 2.052 . S
Co271 O279 2.135 . S
O272 Co271 2.061 . S
O272 C275 1.235 . S
C273 O276 1.238 . S
C273 O277 1.241 . S
C274 O267 1.247 . S
C274 O268 1.261 . S
C275 O270 1.259 . S
C275 O272 1.235 . S
O276 Co266 2.021 . S
O276 C273 1.238 . S
O277 Co271 2.052 . S
O277 C273 1.241 . S
O278 Co266 2.137 . S
O278 C269 1.247 . S
O279 Co266 2.244 . S
O279 C269 1.272 . S
O279 Co271 2.135 . S
Co280 O281 2.216 . S
Co280 O282 2.091 . S
Co280 O284 2.004 . S
Co280 O290 2.021 . S
Co280 O292 2.137 . S
Co280 O293 2.244 . S
O281 Co280 2.216 . S
O281 C288 1.247 . S
O282 Co280 2.091 . S
O282 C288 1.261 . S
C283 O292 1.247 . S
C283 O293 1.272 . S
O284 Co280 2.004 . S
O284 C289 1.259 . S
Co285 O286 2.061 . S
Co285 O291 2.052 . S
Co285 O293 2.135 . S
O286 Co285 2.061 . S
O286 C289 1.235 . S
C287 O290 1.238 . S
C287 O291 1.241 . S
C288 O281 1.247 . S
C288 O282 1.261 . S
C289 O284 1.259 . S
C289 O286 1.235 . S
O290 Co280 2.021 . S
O290 C287 1.238 . S
O291 Co285 2.052 . S
O291 C287 1.241 . S
O292 Co280 2.137 . S
O292 C283 1.247 . S
O293 Co280 2.244 . S
O293 C283 1.272 . S
O293 Co285 2.135 . S
Co294 O295 2.216 . S
Co294 O296 2.091 . S
Co294 O298 2.004 . S
Co294 O304 2.021 . S
Co294 O306 2.137 . S
Co294 O307 2.244 . S
O295 Co294 2.216 . S
O295 C302 1.247 . S
O296 Co294 2.091 . S
O296 C302 1.261 . S
C297 O306 1.247 . S
C297 O307 1.272 . S
O298 Co294 2.004 . S
O298 C303 1.259 . S
Co299 O300 2.061 . S
Co299 O305 2.052 . S
Co299 O307 2.135 . S
O300 Co299 2.061 . S
O300 C303 1.235 . S
C301 O304 1.238 . S
C301 O305 1.241 . S
C302 O295 1.247 . S
C302 O296 1.261 . S
C303 O298 1.259 . S
C303 O300 1.235 . S
O304 Co294 2.021 . S
O304 C301 1.238 . S
O305 Co299 2.052 . S
O305 C301 1.241 . S
O306 Co294 2.137 . S
O306 C297 1.247 . S
O307 Co294 2.244 . S
O307 C297 1.272 . S
O307 Co299 2.135 . S
Co308 O309 2.216 . S
Co308 O310 2.091 . S
Co308 O312 2.004 . S
Co308 O318 2.021 . S
Co308 O320 2.137 . S
Co308 O321 2.244 . S
O309 Co308 2.216 . S
O309 C316 1.247 . S
O310 Co308 2.091 . S
O310 C316 1.261 . S
C311 O320 1.247 . S
C311 O321 1.272 . S
O312 Co308 2.004 . S
O312 C317 1.259 . S
Co313 O314 2.061 . S
Co313 O319 2.052 . S
Co313 O321 2.135 . S
O314 Co313 2.061 . S
O314 C317 1.235 . S
C315 O318 1.238 . S
C315 O319 1.241 . S
C316 O309 1.247 . S
C316 O310 1.261 . S
C317 O312 1.259 . S
C317 O314 1.235 . S
O318 Co308 2.021 . S
O318 C315 1.238 . S
O319 Co313 2.052 . S
O319 C315 1.241 . S
O320 Co308 2.137 . S
O320 C311 1.247 . S
O321 Co308 2.244 . S
O321 C311 1.272 . S
O321 Co313 2.135 . S
Co322 O323 2.216 . S
Co322 O324 2.091 . S
Co322 O326 2.004 . S
Co322 O332 2.021 . S
Co322 O334 2.137 . S
Co322 O335 2.244 . S
O323 Co322 2.216 . S
O323 C330 1.247 . S
O324 Co322 2.091 . S
O324 C330 1.261 . S
C325 O334 1.247 . S
C325 O335 1.272 . S
O326 Co322 2.004 . S
O326 C331 1.259 . S
Co327 O328 2.061 . S
Co327 O333 2.052 . S
Co327 O335 2.135 . S
O328 Co327 2.061 . S
O328 C331 1.235 . S
C329 O332 1.238 . S
C329 O333 1.241 . S
C330 O323 1.247 . S
C330 O324 1.261 . S
C331 O326 1.259 . S
C331 O328 1.235 . S
O332 Co322 2.021 . S
O332 C329 1.238 . S
O333 Co327 2.052 . S
O333 C329 1.241 . S
O334 Co322 2.137 . S
O334 C325 1.247 . S
O335 Co322 2.244 . S
O335 C325 1.272 . S
O335 Co327 2.135 . S
Co336 O337 2.216 . S
Co336 O338 2.091 . S
Co336 O340 2.004 . S
Co336 O346 2.021 . S
Co336 O348 2.137 . S
Co336 O349 2.244 . S
O337 Co336 2.216 . S
O337 C344 1.247 . S
O338 Co336 2.091 . S
O338 C344 1.261 . S
C339 O348 1.247 . S
C339 O349 1.272 . S
O340 Co336 2.004 . S
O340 C345 1.259 . S
Co341 O342 2.061 . S
Co341 O347 2.052 . S
Co341 O349 2.135 . S
O342 Co341 2.061 . S
O342 C345 1.235 . S
C343 O346 1.238 . S
C343 O347 1.241 . S
C344 O337 1.247 . S
C344 O338 1.261 . S
C345 O340 1.259 . S
C345 O342 1.235 . S
O346 Co336 2.021 . S
O346 C343 1.238 . S
O347 Co341 2.052 . S
O347 C343 1.241 . S
O348 Co336 2.137 . S
O348 C339 1.247 . S
O349 Co336 2.244 . S
O349 C339 1.272 . S
O349 Co341 2.135 . S
Co350 O351 2.216 . S
Co350 O352 2.091 . S
Co350 O354 2.004 . S
Co350 O360 2.021 . S
Co350 O362 2.137 . S
Co350 O363 2.244 . S
O351 Co350 2.216 . S
O351 C358 1.247 . S
O352 Co350 2.091 . S
O352 C358 1.261 . S
C353 O362 1.247 . S
C353 O363 1.272 . S
O354 Co350 2.004 . S
O354 C359 1.259 . S
Co355 O356 2.061 . S
Co355 O361 2.052 . S
Co355 O363 2.135 . S
O356 Co355 2.061 . S
O356 C359 1.235 . S
C357 O360 1.238 . S
C357 O361 1.241 . S
C358 O351 1.247 . S
C358 O352 1.261 . S
C359 O354 1.259 . S
C359 O356 1.235 . S
O360 Co350 2.021 . S
O360 C357 1.238 . S
O361 Co355 2.052 . S
O361 C357 1.241 . S
O362 Co350 2.137 . S
O362 C353 1.247 . S
O363 Co350 2.244 . S
O363 C353 1.272 . S
O363 Co355 2.135 . S
Co364 O365 2.216 . S
Co364 O366 2.091 . S
Co364 O368 2.004 . S
Co364 O374 2.021 . S
Co364 O376 2.137 . S
Co364 O377 2.244 . S
O365 Co364 2.216 . S
O365 C372 1.247 . S
O366 Co364 2.091 . S
O366 C372 1.261 . S
C367 O376 1.247 . S
C367 O377 1.272 . S
O368 Co364 2.004 . S
O368 C373 1.259 . S
Co369 O370 2.061 . S
Co369 O375 2.052 . S
Co369 O377 2.135 . S
O370 Co369 2.061 . S
O370 C373 1.235 . S
C371 O374 1.238 . S
C371 O375 1.241 . S
C372 O365 1.247 . S
C372 O366 1.261 . S
C373 O368 1.259 . S
C373 O370 1.235 . S
O374 Co364 2.021 . S
O374 C371 1.238 . S
O375 Co369 2.052 . S
O375 C371 1.241 . S
O376 Co364 2.137 . S
O376 C367 1.247 . S
O377 Co364 2.244 . S
O377 C367 1.272 . S
O377 Co369 2.135 . S
Co378 O379 2.216 . S
Co378 O380 2.091 . S
Co378 O382 2.004 . S
Co378 O388 2.021 . S
Co378 O390 2.137 . S
Co378 O391 2.244 . S
O379 Co378 2.216 . S
O379 C386 1.247 . S
O380 Co378 2.091 . S
O380 C386 1.261 . S
C381 O390 1.247 . S
C381 O391 1.272 . S
O382 Co378 2.004 . S
O382 C387 1.259 . S
Co383 O384 2.061 . S
Co383 O389 2.052 . S
Co383 O391 2.135 . S
O384 Co383 2.061 . S
O384 C387 1.235 . S
C385 O388 1.238 . S
C385 O389 1.241 . S
C386 O379 1.247 . S
C386 O380 1.261 . S
C387 O382 1.259 . S
C387 O384 1.235 . S
O388 Co378 2.021 . S
O388 C385 1.238 . S
O389 Co383 2.052 . S
O389 C385 1.241 . S
O390 Co378 2.137 . S
O390 C381 1.247 . S
O391 Co378 2.244 . S
O391 C381 1.272 . S
O391 Co383 2.135 . S
Co392 O393 2.216 . S
Co392 O394 2.091 . S
Co392 O396 2.004 . S
Co392 O402 2.021 . S
Co392 O404 2.137 . S
Co392 O405 2.244 . S
O393 Co392 2.216 . S
O393 C400 1.247 . S
O394 Co392 2.091 . S
O394 C400 1.261 . S
C395 O404 1.247 . S
C395 O405 1.272 . S
O396 Co392 2.004 . S
O396 C401 1.259 . S
Co397 O398 2.061 . S
Co397 O403 2.052 . S
Co397 O405 2.135 . S
O398 Co397 2.061 . S
O398 C401 1.235 . S
C399 O402 1.238 . S
C399 O403 1.241 . S
C400 O393 1.247 . S
C400 O394 1.261 . S
C401 O396 1.259 . S
C401 O398 1.235 . S
O402 Co392 2.021 . S
O402 C399 1.238 . S
O403 Co397 2.052 . S
O403 C399 1.241 . S
O404 Co392 2.137 . S
O404 C395 1.247 . S
O405 Co392 2.244 . S
O405 C395 1.272 . S
O405 Co397 2.135 . S
Co406 O407 2.216 . S
Co406 O408 2.091 . S
Co406 O410 2.004 . S
Co406 O416 2.021 . S
Co406 O418 2.137 . S
Co406 O419 2.244 . S
O407 Co406 2.216 . S
O407 C414 1.247 . S
O408 Co406 2.091 . S
O408 C414 1.261 . S
C409 O418 1.247 . S
C409 O419 1.272 . S
O410 Co406 2.004 . S
O410 C415 1.259 . S
Co411 O412 2.061 . S
Co411 O417 2.052 . S
Co411 O419 2.135 . S
O412 Co411 2.061 . S
O412 C415 1.235 . S
C413 O416 1.238 . S
C413 O417 1.241 . S
C414 O407 1.247 . S
C414 O408 1.261 . S
C415 O410 1.259 . S
C415 O412 1.235 . S
O416 Co406 2.021 . S
O416 C413 1.238 . S
O417 Co411 2.052 . S
O417 C413 1.241 . S
O418 Co406 2.137 . S
O418 C409 1.247 . S
O419 Co406 2.244 . S
O419 C409 1.272 . S
O419 Co411 2.135 . S
Co420 O421 2.216 . S
Co420 O422 2.091 . S
Co420 O424 2.004 . S
Co420 O430 2.021 . S
Co420 O432 2.137 . S
Co420 O433 2.244 . S
O421 Co420 2.216 . S
O421 C428 1.247 . S
O422 Co420 2.091 . S
O422 C428 1.261 . S
C423 O432 1.247 . S
C423 O433 1.272 . S
O424 Co420 2.004 . S
O424 C429 1.259 . S
Co425 O426 2.061 . S
Co425 O431 2.052 . S
Co425 O433 2.135 . S
O426 Co425 2.061 . S
O426 C429 1.235 . S
C427 O430 1.238 . S
C427 O431 1.241 . S
C428 O421 1.247 . S
C428 O422 1.261 . S
C429 O424 1.259 . S
C429 O426 1.235 . S
O430 Co420 2.021 . S
O430 C427 1.238 . S
O431 Co425 2.052 . S
O431 C427 1.241 . S
O432 Co420 2.137 . S
O432 C423 1.247 . S
O433 Co420 2.244 . S
O433 C423 1.272 . S
O433 Co425 2.135 . S
Co434 O435 2.216 . S
Co434 O436 2.091 . S
Co434 O438 2.004 . S
Co434 O444 2.021 . S
Co434 O446 2.137 . S
Co434 O447 2.244 . S
O435 Co434 2.216 . S
O435 C442 1.247 . S
O436 Co434 2.091 . S
O436 C442 1.261 . S
C437 O446 1.247 . S
C437 O447 1.272 . S
O438 Co434 2.004 . S
O438 C443 1.259 . S
Co439 O440 2.061 . S
Co439 O445 2.052 . S
Co439 O447 2.135 . S
O440 Co439 2.061 . S
O440 C443 1.235 . S
C441 O444 1.238 . S
C441 O445 1.241 . S
C442 O435 1.247 . S
C442 O436 1.261 . S
C443 O438 1.259 . S
C443 O440 1.235 . S
O444 Co434 2.021 . S
O444 C441 1.238 . S
O445 Co439 2.052 . S
O445 C441 1.241 . S
O446 Co434 2.137 . S
O446 C437 1.247 . S
O447 Co434 2.244 . S
O447 C437 1.272 . S
O447 Co439 2.135 . S
Co448 O449 2.216 . S
Co448 O450 2.091 . S
Co448 O452 2.004 . S
Co448 O458 2.021 . S
Co448 O460 2.137 . S
Co448 O461 2.244 . S
O449 Co448 2.216 . S
O449 C456 1.247 . S
O450 Co448 2.091 . S
O450 C456 1.261 . S
C451 O460 1.247 . S
C451 O461 1.272 . S
O452 Co448 2.004 . S
O452 C457 1.259 . S
Co453 O454 2.061 . S
Co453 O459 2.052 . S
Co453 O461 2.135 . S
O454 Co453 2.061 . S
O454 C457 1.235 . S
C455 O458 1.238 . S
C455 O459 1.241 . S
C456 O449 1.247 . S
C456 O450 1.261 . S
C457 O452 1.259 . S
C457 O454 1.235 . S
O458 Co448 2.021 . S
O458 C455 1.238 . S
O459 Co453 2.052 . S
O459 C455 1.241 . S
O460 Co448 2.137 . S
O460 C451 1.247 . S
O461 Co448 2.244 . S
O461 C451 1.272 . S
O461 Co453 2.135 . S
Co462 O463 2.216 . S
Co462 O464 2.091 . S
Co462 O466 2.004 . S
Co462 O472 2.021 . S
Co462 O474 2.137 . S
Co462 O475 2.244 . S
O463 Co462 2.216 . S
O463 C470 1.247 . S
O464 Co462 2.091 . S
O464 C470 1.261 . S
C465 O474 1.247 . S
C465 O475 1.272 . S
O466 Co462 2.004 . S
O466 C471 1.259 . S
Co467 O468 2.061 . S
Co467 O473 2.052 . S
Co467 O475 2.135 . S
O468 Co467 2.061 . S
O468 C471 1.235 . S
C469 O472 1.238 . S
C469 O473 1.241 . S
C470 O463 1.247 . S
C470 O464 1.261 . S
C471 O466 1.259 . S
C471 O468 1.235 . S
O472 Co462 2.021 . S
O472 C469 1.238 . S
O473 Co467 2.052 . S
O473 C469 1.241 . S
O474 Co462 2.137 . S
O474 C465 1.247 . S
O475 Co462 2.244 . S
O475 C465 1.272 . S
O475 Co467 2.135 . S
Co476 O477 2.216 . S
Co476 O478 2.091 . S
Co476 O480 2.004 . S
Co476 O486 2.021 . S
Co476 O488 2.137 . S
Co476 O489 2.244 . S
O477 Co476 2.216 . S
O477 C484 1.247 . S
O478 Co476 2.091 . S
O478 C484 1.261 . S
C479 O488 1.247 . S
C479 O489 1.272 . S
O480 Co476 2.004 . S
O480 C485 1.259 . S
Co481 O482 2.061 . S
Co481 O487 2.052 . S
Co481 O489 2.135 . S
O482 Co481 2.061 . S
O482 C485 1.235 . S
C483 O486 1.238 . S
C483 O487 1.241 . S
C484 O477 1.247 . S
C484 O478 1.261 . S
C485 O480 1.259 . S
C485 O482 1.235 . S
O486 Co476 2.021 . S
O486 C483 1.238 . S
O487 Co481 2.052 . S
O487 C483 1.241 . S
O488 Co476 2.137 . S
O488 C479 1.247 . S
O489 Co476 2.244 . S
O489 C479 1.272 . S
O489 Co481 2.135 . S
Co490 O491 2.216 . S
Co490 O492 2.091 . S
Co490 O494 2.004 . S
Co490 O500 2.021 . S
Co490 O502 2.137 . S
Co490 O503 2.244 . S
O491 Co490 2.216 . S
O491 C498 1.247 . S
O492 Co490 2.091 . S
O492 C498 1.261 . S
C493 O502 1.247 . S
C493 O503 1.272 . S
O494 Co490 2.004 . S
O494 C499 1.259 . S
Co495 O496 2.061 . S
Co495 O501 2.052 . S
Co495 O503 2.135 . S
O496 Co495 2.061 . S
O496 C499 1.235 . S
C497 O500 1.238 . S
C497 O501 1.241 . S
C498 O491 1.247 . S
C498 O492 1.261 . S
C499 O494 1.259 . S
C499 O496 1.235 . S
O500 Co490 2.021 . S
O500 C497 1.238 . S
O501 Co495 2.052 . S
O501 C497 1.241 . S
O502 Co490 2.137 . S
O502 C493 1.247 . S
O503 Co490 2.244 . S
O503 C493 1.272 . S
O503 Co495 2.135 . S
Co504 O505 2.216 . S
Co504 O506 2.091 . S
Co504 O508 2.004 . S
Co504 O514 2.021 . S
Co504 O516 2.137 . S
Co504 O517 2.244 . S
O505 Co504 2.216 . S
O505 C512 1.247 . S
O506 Co504 2.091 . S
O506 C512 1.261 . S
C507 O516 1.247 . S
C507 O517 1.272 . S
O508 Co504 2.004 . S
O508 C513 1.259 . S
Co509 O510 2.061 . S
Co509 O515 2.052 . S
Co509 O517 2.135 . S
O510 Co509 2.061 . S
O510 C513 1.235 . S
C511 O514 1.238 . S
C511 O515 1.241 . S
C512 O505 1.247 . S
C512 O506 1.261 . S
C513 O508 1.259 . S
C513 O510 1.235 . S
O514 Co504 2.021 . S
O514 C511 1.238 . S
O515 Co509 2.052 . S
O515 C511 1.241 . S
O516 Co504 2.137 . S
O516 C507 1.247 . S
O517 Co504 2.244 . S
O517 C507 1.272 . S
O517 Co509 2.135 . S
Co518 O519 2.216 . S
Co518 O520 2.091 . S
Co518 O522 2.004 . S
Co518 O528 2.021 . S
Co518 O530 2.137 . S
Co518 O531 2.244 . S
O519 Co518 2.216 . S
O519 C526 1.247 . S
O520 Co518 2.091 . S
O520 C526 1.261 . S
C521 O530 1.247 . S
C521 O531 1.272 . S
O522 Co518 2.004 . S
O522 C527 1.259 . S
Co523 O524 2.061 . S
Co523 O529 2.052 . S
Co523 O531 2.135 . S
O524 Co523 2.061 . S
O524 C527 1.235 . S
C525 O528 1.238 . S
C525 O529 1.241 . S
C526 O519 1.247 . S
C526 O520 1.261 . S
C527 O522 1.259 . S
C527 O524 1.235 . S
O528 Co518 2.021 . S
O528 C525 1.238 . S
O529 Co523 2.052 . S
O529 C525 1.241 . S
O530 Co518 2.137 . S
O530 C521 1.247 . S
O531 Co518 2.244 . S
O531 C521 1.272 . S
O531 Co523 2.135 . S
Co532 O533 2.216 . S
Co532 O534 2.091 . S
Co532 O536 2.004 . S
Co532 O542 2.021 . S
Co532 O544 2.137 . S
Co532 O545 2.244 . S
O533 Co532 2.216 . S
O533 C540 1.247 . S
O534 Co532 2.091 . S
O534 C540 1.261 . S
C535 O544 1.247 . S
C535 O545 1.272 . S
O536 Co532 2.004 . S
O536 C541 1.259 . S
Co537 O538 2.061 . S
Co537 O543 2.052 . S
Co537 O545 2.135 . S
O538 Co537 2.061 . S
O538 C541 1.235 . S
C539 O542 1.238 . S
C539 O543 1.241 . S
C540 O533 1.247 . S
C540 O534 1.261 . S
C541 O536 1.259 . S
C541 O538 1.235 . S
O542 Co532 2.021 . S
O542 C539 1.238 . S
O543 Co537 2.052 . S
O543 C539 1.241 . S
O544 Co532 2.137 . S
O544 C535 1.247 . S
O545 Co532 2.244 . S
O545 C535 1.272 . S
O545 Co537 2.135 . S
Co546 O547 2.216 . S
Co546 O548 2.091 . S
Co546 O550 2.004 . S
Co546 O556 2.021 . S
Co546 O558 2.137 . S
Co546 O559 2.244 . S
O547 Co546 2.216 . S
O547 C554 1.247 . S
O548 Co546 2.091 . S
O548 C554 1.261 . S
C549 O558 1.247 . S
C549 O559 1.272 . S
O550 Co546 2.004 . S
O550 C555 1.259 . S
Co551 O552 2.061 . S
Co551 O557 2.052 . S
Co551 O559 2.135 . S
O552 Co551 2.061 . S
O552 C555 1.235 . S
C553 O556 1.238 . S
C553 O557 1.241 . S
C554 O547 1.247 . S
C554 O548 1.261 . S
C555 O550 1.259 . S
C555 O552 1.235 . S
O556 Co546 2.021 . S
O556 C553 1.238 . S
O557 Co551 2.052 . S
O557 C553 1.241 . S
O558 Co546 2.137 . S
O558 C549 1.247 . S
O559 Co546 2.244 . S
O559 C549 1.272 . S
O559 Co551 2.135 . S
Co560 O561 2.216 . S
Co560 O562 2.091 . S
Co560 O564 2.004 . S
Co560 O570 2.021 . S
Co560 O572 2.137 . S
Co560 O573 2.244 . S
O561 Co560 2.216 . S
O561 C568 1.247 . S
O562 Co560 2.091 . S
O562 C568 1.261 . S
C563 O572 1.247 . S
C563 O573 1.272 . S
O564 Co560 2.004 . S
O564 C569 1.259 . S
Co565 O566 2.061 . S
Co565 O571 2.052 . S
Co565 O573 2.135 . S
O566 Co565 2.061 . S
O566 C569 1.235 . S
C567 O570 1.238 . S
C567 O571 1.241 . S
C568 O561 1.247 . S
C568 O562 1.261 . S
C569 O564 1.259 . S
C569 O566 1.235 . S
O570 Co560 2.021 . S
O570 C567 1.238 . S
O571 Co565 2.052 . S
O571 C567 1.241 . S
O572 Co560 2.137 . S
O572 C563 1.247 . S
O573 Co560 2.244 . S
O573 C563 1.272 . S
O573 Co565 2.135 . S
Co574 O575 2.216 . S
Co574 O576 2.091 . S
Co574 O578 2.004 . S
Co574 O584 2.021 . S
Co574 O586 2.137 . S
Co574 O587 2.244 . S
O575 Co574 2.216 . S
O575 C582 1.247 . S
O576 Co574 2.091 . S
O576 C582 1.261 . S
C577 O586 1.247 . S
C577 O587 1.272 . S
O578 Co574 2.004 . S
O578 C583 1.259 . S
Co579 O580 2.061 . S
Co579 O585 2.052 . S
Co579 O587 2.135 . S
O580 Co579 2.061 . S
O580 C583 1.235 . S
C581 O584 1.238 . S
C581 O585 1.241 . S
C582 O575 1.247 . S
C582 O576 1.261 . S
C583 O578 1.259 . S
C583 O580 1.235 . S
O584 Co574 2.021 . S
O584 C581 1.238 . S
O585 Co579 2.052 . S
O585 C581 1.241 . S
O586 Co574 2.137 . S
O586 C577 1.247 . S
O587 Co574 2.244 . S
O587 C577 1.272 . S
O587 Co579 2.135 . S
Co588 O589 2.216 . S
Co588 O590 2.091 . S
Co588 O592 2.004 . S
Co588 O598 2.021 . S
Co588 O600 2.137 . S
Co588 O601 2.244 . S
O589 Co588 2.216 . S
O589 C596 1.247 . S
O590 Co588 2.091 . S
O590 C596 1.261 . S
C591 O600 1.247 . S
C591 O601 1.272 . S
O592 Co588 2.004 . S
O592 C597 1.259 . S
Co593 O594 2.061 . S
Co593 O599 2.052 . S
Co593 O601 2.135 . S
O594 Co593 2.061 . S
O594 C597 1.235 . S
C595 O598 1.238 . S
C595 O599 1.241 . S
C596 O589 1.247 . S
C596 O590 1.261 . S
C597 O592 1.259 . S
C597 O594 1.235 . S
O598 Co588 2.021 . S
O598 C595 1.238 . S
O599 Co593 2.052 . S
O599 C595 1.241 . S
O600 Co588 2.137 . S
O600 C591 1.247 . S
O601 Co588 2.244 . S
O601 C591 1.272 . S
O601 Co593 2.135 . S
Co602 O603 2.216 . S
Co602 O604 2.091 . S
Co602 O606 2.004 . S
Co602 O612 2.021 . S
Co602 O614 2.137 . S
Co602 O615 2.244 . S
O603 Co602 2.216 . S
O603 C610 1.247 . S
O604 Co602 2.091 . S
O604 C610 1.261 . S
C605 O614 1.247 . S
C605 O615 1.272 . S
O606 Co602 2.004 . S
O606 C611 1.259 . S
Co607 O608 2.061 . S
Co607 O613 2.052 . S
Co607 O615 2.135 . S
O608 Co607 2.061 . S
O608 C611 1.235 . S
C609 O612 1.238 . S
C609 O613 1.241 . S
C610 O603 1.247 . S
C610 O604 1.261 . S
C611 O606 1.259 . S
C611 O608 1.235 . S
O612 Co602 2.021 . S
O612 C609 1.238 . S
O613 Co607 2.052 . S
O613 C609 1.241 . S
O614 Co602 2.137 . S
O614 C605 1.247 . S
O615 Co602 2.244 . S
O615 C605 1.272 . S
O615 Co607 2.135 . S
Co616 O617 2.216 . S
Co616 O618 2.091 . S
Co616 O620 2.004 . S
Co616 O626 2.021 . S
Co616 O628 2.137 . S
Co616 O629 2.244 . S
O617 Co616 2.216 . S
O617 C624 1.247 . S
O618 Co616 2.091 . S
O618 C624 1.261 . S
C619 O628 1.247 . S
C619 O629 1.272 . S
O620 Co616 2.004 . S
O620 C625 1.259 . S
Co621 O622 2.061 . S
Co621 O627 2.052 . S
Co621 O629 2.135 . S
O622 Co621 2.061 . S
O622 C625 1.235 . S
C623 O626 1.238 . S
C623 O627 1.241 . S
C624 O617 1.247 . S
C624 O618 1.261 . S
C625 O620 1.259 . S
C625 O622 1.235 . S
O626 Co616 2.021 . S
O626 C623 1.238 . S
O627 Co621 2.052 . S
O627 C623 1.241 . S
O628 Co616 2.137 . S
O628 C619 1.247 . S
O629 Co616 2.244 . S
O629 C619 1.272 . S
O629 Co621 2.135 . S
Co630 O631 2.216 . S
Co630 O632 2.091 . S
Co630 O634 2.004 . S
Co630 O640 2.021 . S
Co630 O642 2.137 . S
Co630 O643 2.244 . S
O631 Co630 2.216 . S
O631 C638 1.247 . S
O632 Co630 2.091 . S
O632 C638 1.261 . S
C633 O642 1.247 . S
C633 O643 1.272 . S
O634 Co630 2.004 . S
O634 C639 1.259 . S
Co635 O636 2.061 . S
Co635 O641 2.052 . S
Co635 O643 2.135 . S
O636 Co635 2.061 . S
O636 C639 1.235 . S
C637 O640 1.238 . S
C637 O641 1.241 . S
C638 O631 1.247 . S
C638 O632 1.261 . S
C639 O634 1.259 . S
C639 O636 1.235 . S
O640 Co630 2.021 . S
O640 C637 1.238 . S
O641 Co635 2.052 . S
O641 C637 1.241 . S
O642 Co630 2.137 . S
O642 C633 1.247 . S
O643 Co630 2.244 . S
O643 C633 1.272 . S
O643 Co635 2.135 . S
Co644 O645 2.216 . S
Co644 O646 2.091 . S
Co644 O648 2.004 . S
Co644 O654 2.021 . S
Co644 O656 2.137 . S
Co644 O657 2.244 . S
O645 Co644 2.216 . S
O645 C652 1.247 . S
O646 Co644 2.091 . S
O646 C652 1.261 . S
C647 O656 1.247 . S
C647 O657 1.272 . S
O648 Co644 2.004 . S
O648 C653 1.259 . S
Co649 O650 2.061 . S
Co649 O655 2.052 . S
Co649 O657 2.135 . S
O650 Co649 2.061 . S
O650 C653 1.235 . S
C651 O654 1.238 . S
C651 O655 1.241 . S
C652 O645 1.247 . S
C652 O646 1.261 . S
C653 O648 1.259 . S
C653 O650 1.235 . S
O654 Co644 2.021 . S
O654 C651 1.238 . S
O655 Co649 2.052 . S
O655 C651 1.241 . S
O656 Co644 2.137 . S
O656 C647 1.247 . S
O657 Co644 2.244 . S
O657 C647 1.272 . S
O657 Co649 2.135 . S
Co658 O659 2.216 . S
Co658 O660 2.091 . S
Co658 O662 2.004 . S
Co658 O668 2.021 . S
Co658 O670 2.137 . S
Co658 O671 2.244 . S
O659 Co658 2.216 . S
O659 C666 1.247 . S
O660 Co658 2.091 . S
O660 C666 1.261 . S
C661 O670 1.247 . S
C661 O671 1.272 . S
O662 Co658 2.004 . S
O662 C667 1.259 . S
Co663 O664 2.061 . S
Co663 O669 2.052 . S
Co663 O671 2.135 . S
O664 Co663 2.061 . S
O664 C667 1.235 . S
C665 O668 1.238 . S
C665 O669 1.241 . S
C666 O659 1.247 . S
C666 O660 1.261 . S
C667 O662 1.259 . S
C667 O664 1.235 . S
O668 Co658 2.021 . S
O668 C665 1.238 . S
O669 Co663 2.052 . S
O669 C665 1.241 . S
O670 Co658 2.137 . S
O670 C661 1.247 . S
O671 Co658 2.244 . S
O671 C661 1.272 . S
O671 Co663 2.135 . S
Co672 O673 2.216 . S
Co672 O674 2.091 . S
Co672 O676 2.004 . S
Co672 O682 2.021 . S
Co672 O684 2.137 . S
Co672 O685 2.244 . S
O673 Co672 2.216 . S
O673 C680 1.247 . S
O674 Co672 2.091 . S
O674 C680 1.261 . S
C675 O684 1.247 . S
C675 O685 1.272 . S
O676 Co672 2.004 . S
O676 C681 1.259 . S
Co677 O678 2.061 . S
Co677 O683 2.052 . S
Co677 O685 2.135 . S
O678 Co677 2.061 . S
O678 C681 1.235 . S
C679 O682 1.238 . S
C679 O683 1.241 . S
C680 O673 1.247 . S
C680 O674 1.261 . S
C681 O676 1.259 . S
C681 O678 1.235 . S
O682 Co672 2.021 . S
O682 C679 1.238 . S
O683 Co677 2.052 . S
O683 C679 1.241 . S
O684 Co672 2.137 . S
O684 C675 1.247 . S
O685 Co672 2.244 . S
O685 C675 1.272 . S
O685 Co677 2.135 . S
Co686 O687 2.216 . S
Co686 O688 2.091 . S
Co686 O690 2.004 . S
Co686 O696 2.021 . S
Co686 O698 2.137 . S
Co686 O699 2.244 . S
O687 Co686 2.216 . S
O687 C694 1.247 . S
O688 Co686 2.091 . S
O688 C694 1.261 . S
C689 O698 1.247 . S
C689 O699 1.272 . S
O690 Co686 2.004 . S
O690 C695 1.259 . S
Co691 O692 2.061 . S
Co691 O697 2.052 . S
Co691 O699 2.135 . S
O692 Co691 2.061 . S
O692 C695 1.235 . S
C693 O696 1.238 . S
C693 O697 1.241 . S
C694 O687 1.247 . S
C694 O688 1.261 . S
C695 O690 1.259 . S
C695 O692 1.235 . S
O696 Co686 2.021 . S
O696 C693 1.238 . S
O697 Co691 2.052 . S
O697 C693 1.241 . S
O698 Co686 2.137 . S
O698 C689 1.247 . S
O699 Co686 2.244 . S
O699 C689 1.272 . S
O699 Co691 2.135 . S
Co700 O701 2.216 . S
Co700 O702 2.091 . S
Co700 O704 2.004 . S
Co700 O710 2.021 . S
Co700 O712 2.137 . S
Co700 O713 2.244 . S
O701 Co700 2.216 . S
O701 C708 1.247 . S
O702 Co700 2.091 . S
O702 C708 1.261 . S
C703 O712 1.247 . S
C703 O713 1.272 . S
O704 Co700 2.004 . S
O704 C709 1.259 . S
Co705 O706 2.061 . S
Co705 O711 2.052 . S
Co705 O713 2.135 . S
O706 Co705 2.061 . S
O706 C709 1.235 . S
C707 O710 1.238 . S
C707 O711 1.241 . S
C708 O701 1.247 . S
C708 O702 1.261 . S
C709 O704 1.259 . S
C709 O706 1.235 . S
O710 Co700 2.021 . S
O710 C707 1.238 . S
O711 Co705 2.052 . S
O711 C707 1.241 . S
O712 Co700 2.137 . S
O712 C703 1.247 . S
O713 Co700 2.244 . S
O713 C703 1.272 . S
O713 Co705 2.135 . S
Co714 O715 2.216 . S
Co714 O716 2.091 . S
Co714 O718 2.004 . S
Co714 O724 2.021 . S
Co714 O726 2.137 . S
Co714 O727 2.244 . S
O715 Co714 2.216 . S
O715 C722 1.247 . S
O716 Co714 2.091 . S
O716 C722 1.261 . S
C717 O726 1.247 . S
C717 O727 1.272 . S
O718 Co714 2.004 . S
O718 C723 1.259 . S
Co719 O720 2.061 . S
Co719 O725 2.052 . S
Co719 O727 2.135 . S
O720 Co719 2.061 . S
O720 C723 1.235 . S
C721 O724 1.238 . S
C721 O725 1.241 . S
C722 O715 1.247 . S
C722 O716 1.261 . S
C723 O718 1.259 . S
C723 O720 1.235 . S
O724 Co714 2.021 . S
O724 C721 1.238 . S
O725 Co719 2.052 . S
O725 C721 1.241 . S
O726 Co714 2.137 . S
O726 C717 1.247 . S
O727 Co714 2.244 . S
O727 C717 1.272 . S
O727 Co719 2.135 . S
Co728 O729 2.216 . S
Co728 O730 2.091 . S
Co728 O732 2.004 . S
Co728 O738 2.021 . S
Co728 O740 2.137 . S
Co728 O741 2.244 . S
O729 Co728 2.216 . S
O729 C736 1.247 . S
O730 Co728 2.091 . S
O730 C736 1.261 . S
C731 O740 1.247 . S
C731 O741 1.272 . S
O732 Co728 2.004 . S
O732 C737 1.259 . S
Co733 O734 2.061 . S
Co733 O739 2.052 . S
Co733 O741 2.135 . S
O734 Co733 2.061 . S
O734 C737 1.235 . S
C735 O738 1.238 . S
C735 O739 1.241 . S
C736 O729 1.247 . S
C736 O730 1.261 . S
C737 O732 1.259 . S
C737 O734 1.235 . S
O738 Co728 2.021 . S
O738 C735 1.238 . S
O739 Co733 2.052 . S
O739 C735 1.241 . S
O740 Co728 2.137 . S
O740 C731 1.247 . S
O741 Co728 2.244 . S
O741 C731 1.272 . S
O741 Co733 2.135 . S
Co742 O743 2.216 . S
Co742 O744 2.091 . S
Co742 O746 2.004 . S
Co742 O752 2.021 . S
Co742 O754 2.137 . S
Co742 O755 2.244 . S
O743 Co742 2.216 . S
O743 C750 1.247 . S
O744 Co742 2.091 . S
O744 C750 1.261 . S
C745 O754 1.247 . S
C745 O755 1.272 . S
O746 Co742 2.004 . S
O746 C751 1.259 . S
Co747 O748 2.061 . S
Co747 O753 2.052 . S
Co747 O755 2.135 . S
O748 Co747 2.061 . S
O748 C751 1.235 . S
C749 O752 1.238 . S
C749 O753 1.241 . S
C750 O743 1.247 . S
C750 O744 1.261 . S
C751 O746 1.259 . S
C751 O748 1.235 . S
O752 Co742 2.021 . S
O752 C749 1.238 . S
O753 Co747 2.052 . S
O753 C749 1.241 . S
O754 Co742 2.137 . S
O754 C745 1.247 . S
O755 Co742 2.244 . S
O755 C745 1.272 . S
O755 Co747 2.135 . S
Co756 O757 2.216 . S
Co756 O758 2.091 . S
Co756 O760 2.004 . S
Co756 O766 2.021 . S
Co756 O768 2.137 . S
Co756 O769 2.244 . S
O757 Co756 2.216 . S
O757 C764 1.247 . S
O758 Co756 2.091 . S
O758 C764 1.261 . S
C759 O768 1.247 . S
C759 O769 1.272 . S
O760 Co756 2.004 . S
O760 C765 1.259 . S
Co761 O762 2.061 . S
Co761 O767 2.052 . S
Co761 O769 2.135 . S
O762 Co761 2.061 . S
O762 C765 1.235 . S
C763 O766 1.238 . S
C763 O767 1.241 . S
C764 O757 1.247 . S
C764 O758 1.261 . S
C765 O760 1.259 . S
C765 O762 1.235 . S
O766 Co756 2.021 . S
O766 C763 1.238 . S
O767 Co761 2.052 . S
O767 C763 1.241 . S
O768 Co756 2.137 . S
O768 C759 1.247 . S
O769 Co756 2.244 . S
O769 C759 1.272 . S
O769 Co761 2.135 . S
Co770 O771 2.216 . S
Co770 O772 2.091 . S
Co770 O774 2.004 . S
Co770 O780 2.021 . S
Co770 O782 2.137 . S
Co770 O783 2.244 . S
O771 Co770 2.216 . S
O771 C778 1.247 . S
O772 Co770 2.091 . S
O772 C778 1.261 . S
C773 O782 1.247 . S
C773 O783 1.272 . S
O774 Co770 2.004 . S
O774 C779 1.259 . S
Co775 O776 2.061 . S
Co775 O781 2.052 . S
Co775 O783 2.135 . S
O776 Co775 2.061 . S
O776 C779 1.235 . S
C777 O780 1.238 . S
C777 O781 1.241 . S
C778 O771 1.247 . S
C778 O772 1.261 . S
C779 O774 1.259 . S
C779 O776 1.235 . S
O780 Co770 2.021 . S
O780 C777 1.238 . S
O781 Co775 2.052 . S
O781 C777 1.241 . S
O782 Co770 2.137 . S
O782 C773 1.247 . S
O783 Co770 2.244 . S
O783 C773 1.272 . S
O783 Co775 2.135 . S
Co784 O785 2.216 . S
Co784 O786 2.091 . S
Co784 O788 2.004 . S
Co784 O794 2.021 . S
Co784 O796 2.137 . S
Co784 O797 2.244 . S
O785 Co784 2.216 . S
O785 C792 1.247 . S
O786 Co784 2.091 . S
O786 C792 1.261 . S
C787 O796 1.247 . S
C787 O797 1.272 . S
O788 Co784 2.004 . S
O788 C793 1.259 . S
Co789 O790 2.061 . S
Co789 O795 2.052 . S
Co789 O797 2.135 . S
O790 Co789 2.061 . S
O790 C793 1.235 . S
C791 O794 1.238 . S
C791 O795 1.241 . S
C792 O785 1.247 . S
C792 O786 1.261 . S
C793 O788 1.259 . S
C793 O790 1.235 . S
O794 Co784 2.021 . S
O794 C791 1.238 . S
O795 Co789 2.052 . S
O795 C791 1.241 . S
O796 Co784 2.137 . S
O796 C787 1.247 . S
O797 Co784 2.244 . S
O797 C787 1.272 . S
O797 Co789 2.135 . S
Co798 O799 2.216 . S
Co798 O800 2.091 . S
Co798 O802 2.004 . S
Co798 O808 2.021 . S
Co798 O810 2.137 . S
Co798 O811 2.244 . S
O799 Co798 2.216 . S
O799 C806 1.247 . S
O800 Co798 2.091 . S
O800 C806 1.261 . S
C801 O810 1.247 . S
C801 O811 1.272 . S
O802 Co798 2.004 . S
O802 C807 1.259 . S
Co803 O804 2.061 . S
Co803 O809 2.052 . S
Co803 O811 2.135 . S
O804 Co803 2.061 . S
O804 C807 1.235 . S
C805 O808 1.238 . S
C805 O809 1.241 . S
C806 O799 1.247 . S
C806 O800 1.261 . S
C807 O802 1.259 . S
C807 O804 1.235 . S
O808 Co798 2.021 . S
O808 C805 1.238 . S
O809 Co803 2.052 . S
O809 C805 1.241 . S
O810 Co798 2.137 . S
O810 C801 1.247 . S
O811 Co798 2.244 . S
O811 C801 1.272 . S
O811 Co803 2.135 . S
Co812 O813 2.216 . S
Co812 O814 2.091 . S
Co812 O816 2.004 . S
Co812 O822 2.021 . S
Co812 O824 2.137 . S
Co812 O825 2.244 . S
O813 Co812 2.216 . S
O813 C820 1.247 . S
O814 Co812 2.091 . S
O814 C820 1.261 . S
C815 O824 1.247 . S
C815 O825 1.272 . S
O816 Co812 2.004 . S
O816 C821 1.259 . S
Co817 O818 2.061 . S
Co817 O823 2.052 . S
Co817 O825 2.135 . S
O818 Co817 2.061 . S
O818 C821 1.235 . S
C819 O822 1.238 . S
C819 O823 1.241 . S
C820 O813 1.247 . S
C820 O814 1.261 . S
C821 O816 1.259 . S
C821 O818 1.235 . S
O822 Co812 2.021 . S
O822 C819 1.238 . S
O823 Co817 2.052 . S
O823 C819 1.241 . S
O824 Co812 2.137 . S
O824 C815 1.247 . S
O825 Co812 2.244 . S
O825 C815 1.272 . S
O825 Co817 2.135 . S
Co826 O827 2.216 . S
Co826 O828 2.091 . S
Co826 O830 2.004 . S
Co826 O836 2.021 . S
Co826 O838 2.137 . S
Co826 O839 2.244 . S
O827 Co826 2.216 . S
O827 C834 1.247 . S
O828 Co826 2.091 . S
O828 C834 1.261 . S
C829 O838 1.247 . S
C829 O839 1.272 . S
O830 Co826 2.004 . S
O830 C835 1.259 . S
Co831 O832 2.061 . S
Co831 O837 2.052 . S
Co831 O839 2.135 . S
O832 Co831 2.061 . S
O832 C835 1.235 . S
C833 O836 1.238 . S
C833 O837 1.241 . S
C834 O827 1.247 . S
C834 O828 1.261 . S
C835 O830 1.259 . S
C835 O832 1.235 . S
O836 Co826 2.021 . S
O836 C833 1.238 . S
O837 Co831 2.052 . S
O837 C833 1.241 . S
O838 Co826 2.137 . S
O838 C829 1.247 . S
O839 Co826 2.244 . S
O839 C829 1.272 . S
O839 Co831 2.135 . S
Co840 O841 2.216 . S
Co840 O842 2.091 . S
Co840 O844 2.004 . S
Co840 O850 2.021 . S
Co840 O852 2.137 . S
Co840 O853 2.244 . S
O841 Co840 2.216 . S
O841 C848 1.247 . S
O842 Co840 2.091 . S
O842 C848 1.261 . S
C843 O852 1.247 . S
C843 O853 1.272 . S
O844 Co840 2.004 . S
O844 C849 1.259 . S
Co845 O846 2.061 . S
Co845 O851 2.052 . S
Co845 O853 2.135 . S
O846 Co845 2.061 . S
O846 C849 1.235 . S
C847 O850 1.238 . S
C847 O851 1.241 . S
C848 O841 1.247 . S
C848 O842 1.261 . S
C849 O844 1.259 . S
C849 O846 1.235 . S
O850 Co840 2.021 . S
O850 C847 1.238 . S
O851 Co845 2.052 . S
O851 C847 1.241 . S
O852 Co840 2.137 . S
O852 C843 1.247 . S
O853 Co840 2.244 . S
O853 C843 1.272 . S
O853 Co845 2.135 . S
Co854 O855 2.216 . S
Co854 O856 2.091 . S
Co854 O858 2.004 . S
Co854 O864 2.021 . S
Co854 O866 2.137 . S
Co854 O867 2.244 . S
O855 Co854 2.216 . S
O855 C862 1.247 . S
O856 Co854 2.091 . S
O856 C862 1.261 . S
C857 O866 1.247 . S
C857 O867 1.272 . S
O858 Co854 2.004 . S
O858 C863 1.259 . S
Co859 O860 2.061 . S
Co859 O865 2.052 . S
Co859 O867 2.135 . S
O860 Co859 2.061 . S
O860 C863 1.235 . S
C861 O864 1.238 . S
C861 O865 1.241 . S
C862 O855 1.247 . S
C862 O856 1.261 . S
C863 O858 1.259 . S
C863 O860 1.235 . S
O864 Co854 2.021 . S
O864 C861 1.238 . S
O865 Co859 2.052 . S
O865 C861 1.241 . S
O866 Co854 2.137 . S
O866 C857 1.247 . S
O867 Co854 2.244 . S
O867 C857 1.272 . S
O867 Co859 2.135 . S
Co868 O869 2.216 . S
Co868 O870 2.091 . S
Co868 O872 2.004 . S
Co868 O878 2.021 . S
Co868 O880 2.137 . S
Co868 O881 2.244 . S
O869 Co868 2.216 . S
O869 C876 1.247 . S
O870 Co868 2.091 . S
O870 C876 1.261 . S
C871 O880 1.247 . S
C871 O881 1.272 . S
O872 Co868 2.004 . S
O872 C877 1.259 . S
Co873 O874 2.061 . S
Co873 O879 2.052 . S
Co873 O881 2.135 . S
O874 Co873 2.061 . S
O874 C877 1.235 . S
C875 O878 1.238 . S
C875 O879 1.241 . S
C876 O869 1.247 . S
C876 O870 1.261 . S
C877 O872 1.259 . S
C877 O874 1.235 . S
O878 Co868 2.021 . S
O878 C875 1.238 . S
O879 Co873 2.052 . S
O879 C875 1.241 . S
O880 Co868 2.137 . S
O880 C871 1.247 . S
O881 Co868 2.244 . S
O881 C871 1.272 . S
O881 Co873 2.135 . S
Co882 O883 2.216 . S
Co882 O884 2.091 . S
Co882 O886 2.004 . S
Co882 O892 2.021 . S
Co882 O894 2.137 . S
Co882 O895 2.244 . S
O883 Co882 2.216 . S
O883 C890 1.247 . S
O884 Co882 2.091 . S
O884 C890 1.261 . S
C885 O894 1.247 . S
C885 O895 1.272 . S
O886 Co882 2.004 . S
O886 C891 1.259 . S
Co887 O888 2.061 . S
Co887 O893 2.052 . S
Co887 O895 2.135 . S
O888 Co887 2.061 . S
O888 C891 1.235 . S
C889 O892 1.238 . S
C889 O893 1.241 . S
C890 O883 1.247 . S
C890 O884 1.261 . S
C891 O886 1.259 . S
C891 O888 1.235 . S
O892 Co882 2.021 . S
O892 C889 1.238 . S
O893 Co887 2.052 . S
O893 C889 1.241 . S
O894 Co882 2.137 . S
O894 C885 1.247 . S
O895 Co882 2.244 . S
O895 C885 1.272 . S
O895 Co887 2.135 . S
Co896 O897 2.216 . S
Co896 O898 2.091 . S
Co896 O900 2.004 . S
Co896 O906 2.021 . S
Co896 O908 2.137 . S
Co896 O909 2.244 . S
O897 Co896 2.216 . S
O897 C904 1.247 . S
O898 Co896 2.091 . S
O898 C904 1.261 . S
C899 O908 1.247 . S
C899 O909 1.272 . S
O900 Co896 2.004 . S
O900 C905 1.259 . S
Co901 O902 2.061 . S
Co901 O907 2.052 . S
Co901 O909 2.135 . S
O902 Co901 2.061 . S
O902 C905 1.235 . S
C903 O906 1.238 . S
C903 O907 1.241 . S
C904 O897 1.247 . S
C904 O898 1.261 . S
C905 O900 1.259 . S
C905 O902 1.235 . S
O906 Co896 2.021 . S
O906 C903 1.238 . S
O907 Co901 2.052 . S
O907 C903 1.241 . S
O908 Co896 2.137 . S
O908 C899 1.247 . S
O909 Co896 2.244 . S
O909 C899 1.272 . S
O909 Co901 2.135 . S
Co910 O911 2.216 . S
Co910 O912 2.091 . S
Co910 O914 2.004 . S
Co910 O920 2.021 . S
Co910 O922 2.137 . S
Co910 O923 2.244 . S
O911 Co910 2.216 . S
O911 C918 1.247 . S
O912 Co910 2.091 . S
O912 C918 1.261 . S
C913 O922 1.247 . S
C913 O923 1.272 . S
O914 Co910 2.004 . S
O914 C919 1.259 . S
Co915 O916 2.061 . S
Co915 O921 2.052 . S
Co915 O923 2.135 . S
O916 Co915 2.061 . S
O916 C919 1.235 . S
C917 O920 1.238 . S
C917 O921 1.241 . S
C918 O911 1.247 . S
C918 O912 1.261 . S
C919 O914 1.259 . S
C919 O916 1.235 . S
O920 Co910 2.021 . S
O920 C917 1.238 . S
O921 Co915 2.052 . S
O921 C917 1.241 . S
O922 Co910 2.137 . S
O922 C913 1.247 . S
O923 Co910 2.244 . S
O923 C913 1.272 . S
O923 Co915 2.135 . S
Co924 O925 2.216 . S
Co924 O926 2.091 . S
Co924 O928 2.004 . S
Co924 O934 2.021 . S
Co924 O936 2.137 . S
Co924 O937 2.244 . S
O925 Co924 2.216 . S
O925 C932 1.247 . S
O926 Co924 2.091 . S
O926 C932 1.261 . S
C927 O936 1.247 . S
C927 O937 1.272 . S
O928 Co924 2.004 . S
O928 C933 1.259 . S
Co929 O930 2.061 . S
Co929 O935 2.052 . S
Co929 O937 2.135 . S
O930 Co929 2.061 . S
O930 C933 1.235 . S
C931 O934 1.238 . S
C931 O935 1.241 . S
C932 O925 1.247 . S
C932 O926 1.261 . S
C933 O928 1.259 . S
C933 O930 1.235 . S
O934 Co924 2.021 . S
O934 C931 1.238 . S
O935 Co929 2.052 . S
O935 C931 1.241 . S
O936 Co924 2.137 . S
O936 C927 1.247 . S
O937 Co924 2.244 . S
O937 C927 1.272 . S
O937 Co929 2.135 . S
Co938 O939 2.216 . S
Co938 O940 2.091 . S
Co938 O942 2.004 . S
Co938 O948 2.021 . S
Co938 O950 2.137 . S
Co938 O951 2.244 . S
O939 Co938 2.216 . S
O939 C946 1.247 . S
O940 Co938 2.091 . S
O940 C946 1.261 . S
C941 O950 1.247 . S
C941 O951 1.272 . S
O942 Co938 2.004 . S
O942 C947 1.259 . S
Co943 O944 2.061 . S
Co943 O949 2.052 . S
Co943 O951 2.135 . S
O944 Co943 2.061 . S
O944 C947 1.235 . S
C945 O948 1.238 . S
C945 O949 1.241 . S
C946 O939 1.247 . S
C946 O940 1.261 . S
C947 O942 1.259 . S
C947 O944 1.235 . S
O948 Co938 2.021 . S
O948 C945 1.238 . S
O949 Co943 2.052 . S
O949 C945 1.241 . S
O950 Co938 2.137 . S
O950 C941 1.247 . S
O951 Co938 2.244 . S
O951 C941 1.272 . S
O951 Co943 2.135 . S
Co952 O953 2.216 . S
Co952 O954 2.091 . S
Co952 O956 2.004 . S
Co952 O962 2.021 . S
Co952 O964 2.137 . S
Co952 O965 2.244 . S
O953 Co952 2.216 . S
O953 C960 1.247 . S
O954 Co952 2.091 . S
O954 C960 1.261 . S
C955 O964 1.247 . S
C955 O965 1.272 . S
O956 Co952 2.004 . S
O956 C961 1.259 . S
Co957 O958 2.061 . S
Co957 O963 2.052 . S
Co957 O965 2.135 . S
O958 Co957 2.061 . S
O958 C961 1.235 . S
C959 O962 1.238 . S
C959 O963 1.241 . S
C960 O953 1.247 . S
C960 O954 1.261 . S
C961 O956 1.259 . S
C961 O958 1.235 . S
O962 Co952 2.021 . S
O962 C959 1.238 . S
O963 Co957 2.052 . S
O963 C959 1.241 . S
O964 Co952 2.137 . S
O964 C955 1.247 . S
O965 Co952 2.244 . S
O965 C955 1.272 . S
O965 Co957 2.135 . S
Co966 O967 2.216 . S
Co966 O968 2.091 . S
Co966 O970 2.004 . S
Co966 O976 2.021 . S
Co966 O978 2.137 . S
Co966 O979 2.244 . S
O967 Co966 2.216 . S
O967 C974 1.247 . S
O968 Co966 2.091 . S
O968 C974 1.261 . S
C969 O978 1.247 . S
C969 O979 1.272 . S
O970 Co966 2.004 . S
O970 C975 1.259 . S
Co971 O972 2.061 . S
Co971 O977 2.052 . S
Co971 O979 2.135 . S
O972 Co971 2.061 . S
O972 C975 1.235 . S
C973 O976 1.238 . S
C973 O977 1.241 . S
C974 O967 1.247 . S
C974 O968 1.261 . S
C975 O970 1.259 . S
C975 O972 1.235 . S
O976 Co966 2.021 . S
O976 C973 1.238 . S
O977 Co971 2.052 . S
O977 C973 1.241 . S
O978 Co966 2.137 . S
O978 C969 1.247 . S
O979 Co966 2.244 . S
O979 C969 1.272 . S
O979 Co971 2.135 . S
Co980 O981 2.216 . S
Co980 O982 2.091 . S
Co980 O984 2.004 . S
Co980 O990 2.021 . S
Co980 O992 2.137 . S
Co980 O993 2.244 . S
O981 Co980 2.216 . S
O981 C988 1.247 . S
O982 Co980 2.091 . S
O982 C988 1.261 . S
C983 O992 1.247 . S
C983 O993 1.272 . S
O984 Co980 2.004 . S
O984 C989 1.259 . S
Co985 O986 2.061 . S
Co985 O991 2.052 . S
Co985 O993 2.135 . S
O986 Co985 2.061 . S
O986 C989 1.235 . S
C987 O990 1.238 . S
C987 O991 1.241 . S
C988 O981 1.247 . S
C988 O982 1.261 . S
C989 O984 1.259 . S
C989 O986 1.235 . S
O990 Co980 2.021 . S
O990 C987 1.238 . S
O991 Co985 2.052 . S
O991 C987 1.241 . S
O992 Co980 2.137 . S
O992 C983 1.247 . S
O993 Co980 2.244 . S
O993 C983 1.272 . S
O993 Co985 2.135 . S
Co994 O995 2.216 . S
Co994 O996 2.091 . S
Co994 O998 2.004 . S
Co994 O1004 2.021 . S
Co994 O1006 2.137 . S
Co994 O1007 2.244 . S
O995 Co994 2.216 . S
O995 C1002 1.247 . S
O996 Co994 2.091 . S
O996 C1002 1.261 . S
C997 O1006 1.247 . S
C997 O1007 1.272 . S
O998 Co994 2.004 . S
O998 C1003 1.259 . S
Co999 O1000 2.061 . S
Co999 O1005 2.052 . S
Co999 O1007 2.135 . S
O1000 Co999 2.061 . S
O1000 C1003 1.235 . S
C1001 O1004 1.238 . S
C1001 O1005 1.241 . S
C1002 O995 1.247 . S
C1002 O996 1.261 . S
C1003 O998 1.259 . S
C1003 O1000 1.235 . S
O1004 Co994 2.021 . S
O1004 C1001 1.238 . S
O1005 Co999 2.052 . S
O1005 C1001 1.241 . S
O1006 Co994 2.137 . S
O1006 C997 1.247 . S
O1007 Co994 2.244 . S
O1007 C997 1.272 . S
O1007 Co999 2.135 . S
Co1008 O1009 2.216 . S
Co1008 O1010 2.091 . S
Co1008 O1012 2.004 . S
Co1008 O1018 2.021 . S
Co1008 O1020 2.137 . S
Co1008 O1021 2.244 . S
O1009 Co1008 2.216 . S
O1009 C1016 1.247 . S
O1010 Co1008 2.091 . S
O1010 C1016 1.261 . S
C1011 O1020 1.247 . S
C1011 O1021 1.272 . S
O1012 Co1008 2.004 . S
O1012 C1017 1.259 . S
Co1013 O1014 2.061 . S
Co1013 O1019 2.052 . S
Co1013 O1021 2.135 . S
O1014 Co1013 2.061 . S
O1014 C1017 1.235 . S
C1015 O1018 1.238 . S
C1015 O1019 1.241 . S
C1016 O1009 1.247 . S
C1016 O1010 1.261 . S
C1017 O1012 1.259 . S
C1017 O1014 1.235 . S
O1018 Co1008 2.021 . S
O1018 C1015 1.238 . S
O1019 Co1013 2.052 . S
O1019 C1015 1.241 . S
O1020 Co1008 2.137 . S
O1020 C1011 1.247 . S
O1021 Co1008 2.244 . S
O1021 C1011 1.272 . S
O1021 Co1013 2.135 . S
Co1022 O1023 2.216 . S
Co1022 O1024 2.091 . S
Co1022 O1026 2.004 . S
Co1022 O1032 2.021 . S
Co1022 O1034 2.137 . S
Co1022 O1035 2.244 . S
O1023 Co1022 2.216 . S
O1023 C1030 1.247 . S
O1024 Co1022 2.091 . S
O1024 C1030 1.261 . S
C1025 O1034 1.247 . S
C1025 O1035 1.272 . S
O1026 Co1022 2.004 . S
O1026 C1031 1.259 . S
Co1027 O1028 2.061 . S
Co1027 O1033 2.052 . S
Co1027 O1035 2.135 . S
O1028 Co1027 2.061 . S
O1028 C1031 1.235 . S
C1029 O1032 1.238 . S
C1029 O1033 1.241 . S
C1030 O1023 1.247 . S
C1030 O1024 1.261 . S
C1031 O1026 1.259 . S
C1031 O1028 1.235 . S
O1032 Co1022 2.021 . S
O1032 C1029 1.238 . S
O1033 Co1027 2.052 . S
O1033 C1029 1.241 . S
O1034 Co1022 2.137 . S
O1034 C1025 1.247 . S
O1035 Co1022 2.244 . S
O1035 C1025 1.272 . S
O1035 Co1027 2.135 . S
Co1036 O1037 2.216 . S
Co1036 O1038 2.091 . S
Co1036 O1040 2.004 . S
Co1036 O1046 2.021 . S
Co1036 O1048 2.137 . S
Co1036 O1049 2.244 . S
O1037 Co1036 2.216 . S
O1037 C1044 1.247 . S
O1038 Co1036 2.091 . S
O1038 C1044 1.261 . S
C1039 O1048 1.247 . S
C1039 O1049 1.272 . S
O1040 Co1036 2.004 . S
O1040 C1045 1.259 . S
Co1041 O1042 2.061 . S
Co1041 O1047 2.052 . S
Co1041 O1049 2.135 . S
O1042 Co1041 2.061 . S
O1042 C1045 1.235 . S
C1043 O1046 1.238 . S
C1043 O1047 1.241 . S
C1044 O1037 1.247 . S
C1044 O1038 1.261 . S
C1045 O1040 1.259 . S
C1045 O1042 1.235 . S
O1046 Co1036 2.021 . S
O1046 C1043 1.238 . S
O1047 Co1041 2.052 . S
O1047 C1043 1.241 . S
O1048 Co1036 2.137 . S
O1048 C1039 1.247 . S
O1049 Co1036 2.244 . S
O1049 C1039 1.272 . S
O1049 Co1041 2.135 . S
Co1050 O1051 2.216 . S
Co1050 O1052 2.091 . S
Co1050 O1054 2.004 . S
Co1050 O1060 2.021 . S
Co1050 O1062 2.137 . S
Co1050 O1063 2.244 . S
O1051 Co1050 2.216 . S
O1051 C1058 1.247 . S
O1052 Co1050 2.091 . S
O1052 C1058 1.261 . S
C1053 O1062 1.247 . S
C1053 O1063 1.272 . S
O1054 Co1050 2.004 . S
O1054 C1059 1.259 . S
Co1055 O1056 2.061 . S
Co1055 O1061 2.052 . S
Co1055 O1063 2.135 . S
O1056 Co1055 2.061 . S
O1056 C1059 1.235 . S
C1057 O1060 1.238 . S
C1057 O1061 1.241 . S
C1058 O1051 1.247 . S
C1058 O1052 1.261 . S
C1059 O1054 1.259 . S
C1059 O1056 1.235 . S
O1060 Co1050 2.021 . S
O1060 C1057 1.238 . S
O1061 Co1055 2.052 . S
O1061 C1057 1.241 . S
O1062 Co1050 2.137 . S
O1062 C1053 1.247 . S
O1063 Co1050 2.244 . S
O1063 C1053 1.272 . S
O1063 Co1055 2.135 . S
Co1064 O1065 2.216 . S
Co1064 O1066 2.091 . S
Co1064 O1068 2.004 . S
Co1064 O1074 2.021 . S
Co1064 O1076 2.137 . S
Co1064 O1077 2.244 . S
O1065 Co1064 2.216 . S
O1065 C1072 1.247 . S
O1066 Co1064 2.091 . S
O1066 C1072 1.261 . S
C1067 O1076 1.247 . S
C1067 O1077 1.272 . S
O1068 Co1064 2.004 . S
O1068 C1073 1.259 . S
Co1069 O1070 2.061 . S
Co1069 O1075 2.052 . S
Co1069 O1077 2.135 . S
O1070 Co1069 2.061 . S
O1070 C1073 1.235 . S
C1071 O1074 1.238 . S
C1071 O1075 1.241 . S
C1072 O1065 1.247 . S
C1072 O1066 1.261 . S
C1073 O1068 1.259 . S
C1073 O1070 1.235 . S
O1074 Co1064 2.021 . S
O1074 C1071 1.238 . S
O1075 Co1069 2.052 . S
O1075 C1071 1.241 . S
O1076 Co1064 2.137 . S
O1076 C1067 1.247 . S
O1077 Co1064 2.244 . S
O1077 C1067 1.272 . S
O1077 Co1069 2.135 . S
Co1078 O1079 2.216 . S
Co1078 O1080 2.091 . S
Co1078 O1082 2.004 . S
Co1078 O1088 2.021 . S
Co1078 O1090 2.137 . S
Co1078 O1091 2.244 . S
O1079 Co1078 2.216 . S
O1079 C1086 1.247 . S
O1080 Co1078 2.091 . S
O1080 C1086 1.261 . S
C1081 O1090 1.247 . S
C1081 O1091 1.272 . S
O1082 Co1078 2.004 . S
O1082 C1087 1.259 . S
Co1083 O1084 2.061 . S
Co1083 O1089 2.052 . S
Co1083 O1091 2.135 . S
O1084 Co1083 2.061 . S
O1084 C1087 1.235 . S
C1085 O1088 1.238 . S
C1085 O1089 1.241 . S
C1086 O1079 1.247 . S
C1086 O1080 1.261 . S
C1087 O1082 1.259 . S
C1087 O1084 1.235 . S
O1088 Co1078 2.021 . S
O1088 C1085 1.238 . S
O1089 Co1083 2.052 . S
O1089 C1085 1.241 . S
O1090 Co1078 2.137 . S
O1090 C1081 1.247 . S
O1091 Co1078 2.244 . S
O1091 C1081 1.272 . S
O1091 Co1083 2.135 . S
Co1092 O1093 2.216 . S
Co1092 O1094 2.091 . S
Co1092 O1096 2.004 . S
Co1092 O1102 2.021 . S
Co1092 O1104 2.137 . S
Co1092 O1105 2.244 . S
O1093 Co1092 2.216 . S
O1093 C1100 1.247 . S
O1094 Co1092 2.091 . S
O1094 C1100 1.261 . S
C1095 O1104 1.247 . S
C1095 O1105 1.272 . S
O1096 Co1092 2.004 . S
O1096 C1101 1.259 . S
Co1097 O1098 2.061 . S
Co1097 O1103 2.052 . S
Co1097 O1105 2.135 . S
O1098 Co1097 2.061 . S
O1098 C1101 1.235 . S
C1099 O1102 1.238 . S
C1099 O1103 1.241 . S
C1100 O1093 1.247 . S
C1100 O1094 1.261 . S
C1101 O1096 1.259 . S
C1101 O1098 1.235 . S
O1102 Co1092 2.021 . S
O1102 C1099 1.238 . S
O1103 Co1097 2.052 . S
O1103 C1099 1.241 . S
O1104 Co1092 2.137 . S
O1104 C1095 1.247 . S
O1105 Co1092 2.244 . S
O1105 C1095 1.272 . S
O1105 Co1097 2.135 . S
Co1106 O1107 2.216 . S
Co1106 O1108 2.091 . S
Co1106 O1110 2.004 . S
Co1106 O1116 2.021 . S
Co1106 O1118 2.137 . S
Co1106 O1119 2.244 . S
O1107 Co1106 2.216 . S
O1107 C1114 1.247 . S
O1108 Co1106 2.091 . S
O1108 C1114 1.261 . S
C1109 O1118 1.247 . S
C1109 O1119 1.272 . S
O1110 Co1106 2.004 . S
O1110 C1115 1.259 . S
Co1111 O1112 2.061 . S
Co1111 O1117 2.052 . S
Co1111 O1119 2.135 . S
O1112 Co1111 2.061 . S
O1112 C1115 1.235 . S
C1113 O1116 1.238 . S
C1113 O1117 1.241 . S
C1114 O1107 1.247 . S
C1114 O1108 1.261 . S
C1115 O1110 1.259 . S
C1115 O1112 1.235 . S
O1116 Co1106 2.021 . S
O1116 C1113 1.238 . S
O1117 Co1111 2.052 . S
O1117 C1113 1.241 . S
O1118 Co1106 2.137 . S
O1118 C1109 1.247 . S
O1119 Co1106 2.244 . S
O1119 C1109 1.272 . S
O1119 Co1111 2.135 . S
Co1120 O1121 2.216 . S
Co1120 O1122 2.091 . S
Co1120 O1124 2.004 . S
Co1120 O1130 2.021 . S
Co1120 O1132 2.137 . S
Co1120 O1133 2.244 . S
O1121 Co1120 2.216 . S
O1121 C1128 1.247 . S
O1122 Co1120 2.091 . S
O1122 C1128 1.261 . S
C1123 O1132 1.247 . S
C1123 O1133 1.272 . S
O1124 Co1120 2.004 . S
O1124 C1129 1.259 . S
Co1125 O1126 2.061 . S
Co1125 O1131 2.052 . S
Co1125 O1133 2.135 . S
O1126 Co1125 2.061 . S
O1126 C1129 1.235 . S
C1127 O1130 1.238 . S
C1127 O1131 1.241 . S
C1128 O1121 1.247 . S
C1128 O1122 1.261 . S
C1129 O1124 1.259 . S
C1129 O1126 1.235 . S
O1130 Co1120 2.021 . S
O1130 C1127 1.238 . S
O1131 Co1125 2.052 . S
O1131 C1127 1.241 . S
O1132 Co1120 2.137 . S
O1132 C1123 1.247 . S
O1133 Co1120 2.244 . S
O1133 C1123 1.272 . S
O1133 Co1125 2.135 . S
Co1134 O1135 2.216 . S
Co1134 O1136 2.091 . S
Co1134 O1138 2.004 . S
Co1134 O1144 2.021 . S
Co1134 O1146 2.137 . S
Co1134 O1147 2.244 . S
O1135 Co1134 2.216 . S
O1135 C1142 1.247 . S
O1136 Co1134 2.091 . S
O1136 C1142 1.261 . S
C1137 O1146 1.247 . S
C1137 O1147 1.272 . S
O1138 Co1134 2.004 . S
O1138 C1143 1.259 . S
Co1139 O1140 2.061 . S
Co1139 O1145 2.052 . S
Co1139 O1147 2.135 . S
O1140 Co1139 2.061 . S
O1140 C1143 1.235 . S
C1141 O1144 1.238 . S
C1141 O1145 1.241 . S
C1142 O1135 1.247 . S
C1142 O1136 1.261 . S
C1143 O1138 1.259 . S
C1143 O1140 1.235 . S
O1144 Co1134 2.021 . S
O1144 C1141 1.238 . S
O1145 Co1139 2.052 . S
O1145 C1141 1.241 . S
O1146 Co1134 2.137 . S
O1146 C1137 1.247 . S
O1147 Co1134 2.244 . S
O1147 C1137 1.272 . S
O1147 Co1139 2.135 . S
Co1148 O1149 2.216 . S
Co1148 O1150 2.091 . S
Co1148 O1152 2.004 . S
Co1148 O1158 2.021 . S
Co1148 O1160 2.137 . S
Co1148 O1161 2.244 . S
O1149 Co1148 2.216 . S
O1149 C1156 1.247 . S
O1150 Co1148 2.091 . S
O1150 C1156 1.261 . S
C1151 O1160 1.247 . S
C1151 O1161 1.272 . S
O1152 Co1148 2.004 . S
O1152 C1157 1.259 . S
Co1153 O1154 2.061 . S
Co1153 O1159 2.052 . S
Co1153 O1161 2.135 . S
O1154 Co1153 2.061 . S
O1154 C1157 1.235 . S
C1155 O1158 1.238 . S
C1155 O1159 1.241 . S
C1156 O1149 1.247 . S
C1156 O1150 1.261 . S
C1157 O1152 1.259 . S
C1157 O1154 1.235 . S
O1158 Co1148 2.021 . S
O1158 C1155 1.238 . S
O1159 Co1153 2.052 . S
O1159 C1155 1.241 . S
O1160 Co1148 2.137 . S
O1160 C1151 1.247 . S
O1161 Co1148 2.244 . S
O1161 C1151 1.272 . S
O1161 Co1153 2.135 . S
Co1162 O1163 2.216 . S
Co1162 O1164 2.091 . S
Co1162 O1166 2.004 . S
Co1162 O1172 2.021 . S
Co1162 O1174 2.137 . S
Co1162 O1175 2.244 . S
O1163 Co1162 2.216 . S
O1163 C1170 1.247 . S
O1164 Co1162 2.091 . S
O1164 C1170 1.261 . S
C1165 O1174 1.247 . S
C1165 O1175 1.272 . S
O1166 Co1162 2.004 . S
O1166 C1171 1.259 . S
Co1167 O1168 2.061 . S
Co1167 O1173 2.052 . S
Co1167 O1175 2.135 . S
O1168 Co1167 2.061 . S
O1168 C1171 1.235 . S
C1169 O1172 1.238 . S
C1169 O1173 1.241 . S
C1170 O1163 1.247 . S
C1170 O1164 1.261 . S
C1171 O1166 1.259 . S
C1171 O1168 1.235 . S
O1172 Co1162 2.021 . S
O1172 C1169 1.238 . S
O1173 Co1167 2.052 . S
O1173 C1169 1.241 . S
O1174 Co1162 2.137 . S
O1174 C1165 1.247 . S
O1175 Co1162 2.244 . S
O1175 C1165 1.272 . S
O1175 Co1167 2.135 . S
Co1176 O1177 2.216 . S
Co1176 O1178 2.091 . S
Co1176 O1180 2.004 . S
Co1176 O1186 2.021 . S
Co1176 O1188 2.137 . S
Co1176 O1189 2.244 . S
O1177 Co1176 2.216 . S
O1177 C1184 1.247 . S
O1178 Co1176 2.091 . S
O1178 C1184 1.261 . S
C1179 O1188 1.247 . S
C1179 O1189 1.272 . S
O1180 Co1176 2.004 . S
O1180 C1185 1.259 . S
Co1181 O1182 2.061 . S
Co1181 O1187 2.052 . S
Co1181 O1189 2.135 . S
O1182 Co1181 2.061 . S
O1182 C1185 1.235 . S
C1183 O1186 1.238 . S
C1183 O1187 1.241 . S
C1184 O1177 1.247 . S
C1184 O1178 1.261 . S
C1185 O1180 1.259 . S
C1185 O1182 1.235 . S
O1186 Co1176 2.021 . S
O1186 C1183 1.238 . S
O1187 Co1181 2.052 . S
O1187 C1183 1.241 . S
O1188 Co1176 2.137 . S
O1188 C1179 1.247 . S
O1189 Co1176 2.244 . S
O1189 C1179 1.272 . S
O1189 Co1181 2.135 . S
Co1190 O1191 2.216 . S
Co1190 O1192 2.091 . S
Co1190 O1194 2.004 . S
Co1190 O1200 2.021 . S
Co1190 O1202 2.137 . S
Co1190 O1203 2.244 . S
O1191 Co1190 2.216 . S
O1191 C1198 1.247 . S
O1192 Co1190 2.091 . S
O1192 C1198 1.261 . S
C1193 O1202 1.247 . S
C1193 O1203 1.272 . S
O1194 Co1190 2.004 . S
O1194 C1199 1.259 . S
Co1195 O1196 2.061 . S
Co1195 O1201 2.052 . S
Co1195 O1203 2.135 . S
O1196 Co1195 2.061 . S
O1196 C1199 1.235 . S
C1197 O1200 1.238 . S
C1197 O1201 1.241 . S
C1198 O1191 1.247 . S
C1198 O1192 1.261 . S
C1199 O1194 1.259 . S
C1199 O1196 1.235 . S
O1200 Co1190 2.021 . S
O1200 C1197 1.238 . S
O1201 Co1195 2.052 . S
O1201 C1197 1.241 . S
O1202 Co1190 2.137 . S
O1202 C1193 1.247 . S
O1203 Co1190 2.244 . S
O1203 C1193 1.272 . S
O1203 Co1195 2.135 . S
Co1204 O1205 2.216 . S
Co1204 O1206 2.091 . S
Co1204 O1208 2.004 . S
Co1204 O1214 2.021 . S
Co1204 O1216 2.137 . S
Co1204 O1217 2.244 . S
O1205 Co1204 2.216 . S
O1205 C1212 1.247 . S
O1206 Co1204 2.091 . S
O1206 C1212 1.261 . S
C1207 O1216 1.247 . S
C1207 O1217 1.272 . S
O1208 Co1204 2.004 . S
O1208 C1213 1.259 . S
Co1209 O1210 2.061 . S
Co1209 O1215 2.052 . S
Co1209 O1217 2.135 . S
O1210 Co1209 2.061 . S
O1210 C1213 1.235 . S
C1211 O1214 1.238 . S
C1211 O1215 1.241 . S
C1212 O1205 1.247 . S
C1212 O1206 1.261 . S
C1213 O1208 1.259 . S
C1213 O1210 1.235 . S
O1214 Co1204 2.021 . S
O1214 C1211 1.238 . S
O1215 Co1209 2.052 . S
O1215 C1211 1.241 . S
O1216 Co1204 2.137 . S
O1216 C1207 1.247 . S
O1217 Co1204 2.244 . S
O1217 C1207 1.272 . S
O1217 Co1209 2.135 . S
Co1218 O1219 2.216 . S
Co1218 O1220 2.091 . S
Co1218 O1222 2.004 . S
Co1218 O1228 2.021 . S
Co1218 O1230 2.137 . S
Co1218 O1231 2.244 . S
O1219 Co1218 2.216 . S
O1219 C1226 1.247 . S
O1220 Co1218 2.091 . S
O1220 C1226 1.261 . S
C1221 O1230 1.247 . S
C1221 O1231 1.272 . S
O1222 Co1218 2.004 . S
O1222 C1227 1.259 . S
Co1223 O1224 2.061 . S
Co1223 O1229 2.052 . S
Co1223 O1231 2.135 . S
O1224 Co1223 2.061 . S
O1224 C1227 1.235 . S
C1225 O1228 1.238 . S
C1225 O1229 1.241 . S
C1226 O1219 1.247 . S
C1226 O1220 1.261 . S
C1227 O1222 1.259 . S
C1227 O1224 1.235 . S
O1228 Co1218 2.021 . S
O1228 C1225 1.238 . S
O1229 Co1223 2.052 . S
O1229 C1225 1.241 . S
O1230 Co1218 2.137 . S
O1230 C1221 1.247 . S
O1231 Co1218 2.244 . S
O1231 C1221 1.272 . S
O1231 Co1223 2.135 . S
Co1232 O1233 2.216 . S
Co1232 O1234 2.091 . S
Co1232 O1236 2.004 . S
Co1232 O1242 2.021 . S
Co1232 O1244 2.137 . S
Co1232 O1245 2.244 . S
O1233 Co1232 2.216 . S
O1233 C1240 1.247 . S
O1234 Co1232 2.091 . S
O1234 C1240 1.261 . S
C1235 O1244 1.247 . S
C1235 O1245 1.272 . S
O1236 Co1232 2.004 . S
O1236 C1241 1.259 . S
Co1237 O1238 2.061 . S
Co1237 O1243 2.052 . S
Co1237 O1245 2.135 . S
O1238 Co1237 2.061 . S
O1238 C1241 1.235 . S
C1239 O1242 1.238 . S
C1239 O1243 1.241 . S
C1240 O1233 1.247 . S
C1240 O1234 1.261 . S
C1241 O1236 1.259 . S
C1241 O1238 1.235 . S
O1242 Co1232 2.021 . S
O1242 C1239 1.238 . S
O1243 Co1237 2.052 . S
O1243 C1239 1.241 . S
O1244 Co1232 2.137 . S
O1244 C1235 1.247 . S
O1245 Co1232 2.244 . S
O1245 C1235 1.272 . S
O1245 Co1237 2.135 . S
Co1246 O1247 2.216 . S
Co1246 O1248 2.091 . S
Co1246 O1250 2.004 . S
Co1246 O1256 2.021 . S
Co1246 O1258 2.137 . S
Co1246 O1259 2.244 . S
O1247 Co1246 2.216 . S
O1247 C1254 1.247 . S
O1248 Co1246 2.091 . S
O1248 C1254 1.261 . S
C1249 O1258 1.247 . S
C1249 O1259 1.272 . S
O1250 Co1246 2.004 . S
O1250 C1255 1.259 . S
Co1251 O1252 2.061 . S
Co1251 O1257 2.052 . S
Co1251 O1259 2.135 . S
O1252 Co1251 2.061 . S
O1252 C1255 1.235 . S
C1253 O1256 1.238 . S
C1253 O1257 1.241 . S
C1254 O1247 1.247 . S
C1254 O1248 1.261 . S
C1255 O1250 1.259 . S
C1255 O1252 1.235 . S
O1256 Co1246 2.021 . S
O1256 C1253 1.238 . S
O1257 Co1251 2.052 . S
O1257 C1253 1.241 . S
O1258 Co1246 2.137 . S
O1258 C1249 1.247 . S
O1259 Co1246 2.244 . S
O1259 C1249 1.272 . S
O1259 Co1251 2.135 . S
Co1260 O1261 2.216 . S
Co1260 O1262 2.091 . S
Co1260 O1264 2.004 . S
Co1260 O1270 2.021 . S
Co1260 O1272 2.137 . S
Co1260 O1273 2.244 . S
O1261 Co1260 2.216 . S
O1261 C1268 1.247 . S
O1262 Co1260 2.091 . S
O1262 C1268 1.261 . S
C1263 O1272 1.247 . S
C1263 O1273 1.272 . S
O1264 Co1260 2.004 . S
O1264 C1269 1.259 . S
Co1265 O1266 2.061 . S
Co1265 O1271 2.052 . S
Co1265 O1273 2.135 . S
O1266 Co1265 2.061 . S
O1266 C1269 1.235 . S
C1267 O1270 1.238 . S
C1267 O1271 1.241 . S
C1268 O1261 1.247 . S
C1268 O1262 1.261 . S
C1269 O1264 1.259 . S
C1269 O1266 1.235 . S
O1270 Co1260 2.021 . S
O1270 C1267 1.238 . S
O1271 Co1265 2.052 . S
O1271 C1267 1.241 . S
O1272 Co1260 2.137 . S
O1272 C1263 1.247 . S
O1273 Co1260 2.244 . S
O1273 C1263 1.272 . S
O1273 Co1265 2.135 . S
Co1274 O1275 2.216 . S
Co1274 O1276 2.091 . S
Co1274 O1278 2.004 . S
Co1274 O1284 2.021 . S
Co1274 O1286 2.137 . S
Co1274 O1287 2.244 . S
O1275 Co1274 2.216 . S
O1275 C1282 1.247 . S
O1276 Co1274 2.091 . S
O1276 C1282 1.261 . S
C1277 O1286 1.247 . S
C1277 O1287 1.272 . S
O1278 Co1274 2.004 . S
O1278 C1283 1.259 . S
Co1279 O1280 2.061 . S
Co1279 O1285 2.052 . S
Co1279 O1287 2.135 . S
O1280 Co1279 2.061 . S
O1280 C1283 1.235 . S
C1281 O1284 1.238 . S
C1281 O1285 1.241 . S
C1282 O1275 1.247 . S
C1282 O1276 1.261 . S
C1283 O1278 1.259 . S
C1283 O1280 1.235 . S
O1284 Co1274 2.021 . S
O1284 C1281 1.238 . S
O1285 Co1279 2.052 . S
O1285 C1281 1.241 . S
O1286 Co1274 2.137 . S
O1286 C1277 1.247 . S
O1287 Co1274 2.244 . S
O1287 C1277 1.272 . S
O1287 Co1279 2.135 . S
Co1288 O1289 2.216 . S
Co1288 O1290 2.091 . S
Co1288 O1292 2.004 . S
Co1288 O1298 2.021 . S
Co1288 O1300 2.137 . S
Co1288 O1301 2.244 . S
O1289 Co1288 2.216 . S
O1289 C1296 1.247 . S
O1290 Co1288 2.091 . S
O1290 C1296 1.261 . S
C1291 O1300 1.247 . S
C1291 O1301 1.272 . S
O1292 Co1288 2.004 . S
O1292 C1297 1.259 . S
Co1293 O1294 2.061 . S
Co1293 O1299 2.052 . S
Co1293 O1301 2.135 . S
O1294 Co1293 2.061 . S
O1294 C1297 1.235 . S
C1295 O1298 1.238 . S
C1295 O1299 1.241 . S
C1296 O1289 1.247 . S
C1296 O1290 1.261 . S
C1297 O1292 1.259 . S
C1297 O1294 1.235 . S
O1298 Co1288 2.021 . S
O1298 C1295 1.238 . S
O1299 Co1293 2.052 . S
O1299 C1295 1.241 . S
O1300 Co1288 2.137 . S
O1300 C1291 1.247 . S
O1301 Co1288 2.244 . S
O1301 C1291 1.272 . S
O1301 Co1293 2.135 . S
Co1302 O1303 2.216 . S
Co1302 O1304 2.091 . S
Co1302 O1306 2.004 . S
Co1302 O1312 2.021 . S
Co1302 O1314 2.137 . S
Co1302 O1315 2.244 . S
O1303 Co1302 2.216 . S
O1303 C1310 1.247 . S
O1304 Co1302 2.091 . S
O1304 C1310 1.261 . S
C1305 O1314 1.247 . S
C1305 O1315 1.272 . S
O1306 Co1302 2.004 . S
O1306 C1311 1.259 . S
Co1307 O1308 2.061 . S
Co1307 O1313 2.052 . S
Co1307 O1315 2.135 . S
O1308 Co1307 2.061 . S
O1308 C1311 1.235 . S
C1309 O1312 1.238 . S
C1309 O1313 1.241 . S
C1310 O1303 1.247 . S
C1310 O1304 1.261 . S
C1311 O1306 1.259 . S
C1311 O1308 1.235 . S
O1312 Co1302 2.021 . S
O1312 C1309 1.238 . S
O1313 Co1307 2.052 . S
O1313 C1309 1.241 . S
O1314 Co1302 2.137 . S
O1314 C1305 1.247 . S
O1315 Co1302 2.244 . S
O1315 C1305 1.272 . S
O1315 Co1307 2.135 . S
Co1316 O1317 2.216 . S
Co1316 O1318 2.091 . S
Co1316 O1320 2.004 . S
Co1316 O1326 2.021 . S
Co1316 O1328 2.137 . S
Co1316 O1329 2.244 . S
O1317 Co1316 2.216 . S
O1317 C1324 1.247 . S
O1318 Co1316 2.091 . S
O1318 C1324 1.261 . S
C1319 O1328 1.247 . S
C1319 O1329 1.272 . S
O1320 Co1316 2.004 . S
O1320 C1325 1.259 . S
Co1321 O1322 2.061 . S
Co1321 O1327 2.052 . S
Co1321 O1329 2.135 . S
O1322 Co1321 2.061 . S
O1322 C1325 1.235 . S
C1323 O1326 1.238 . S
C1323 O1327 1.241 . S
C1324 O1317 1.247 . S
C1324 O1318 1.261 . S
C1325 O1320 1.259 . S
C1325 O1322 1.235 . S
O1326 Co1316 2.021 . S
O1326 C1323 1.238 . S
O1327 Co1321 2.052 . S
O1327 C1323 1.241 . S
O1328 Co1316 2.137 . S
O1328 C1319 1.247 . S
O1329 Co1316 2.244 . S
O1329 C1319 1.272 . S
O1329 Co1321 2.135 . S
Co1330 O1331 2.216 . S
Co1330 O1332 2.091 . S
Co1330 O1334 2.004 . S
Co1330 O1340 2.021 . S
Co1330 O1342 2.137 . S
Co1330 O1343 2.244 . S
O1331 Co1330 2.216 . S
O1331 C1338 1.247 . S
O1332 Co1330 2.091 . S
O1332 C1338 1.261 . S
C1333 O1342 1.247 . S
C1333 O1343 1.272 . S
O1334 Co1330 2.004 . S
O1334 C1339 1.259 . S
Co1335 O1336 2.061 . S
Co1335 O1341 2.052 . S
Co1335 O1343 2.135 . S
O1336 Co1335 2.061 . S
O1336 C1339 1.235 . S
C1337 O1340 1.238 . S
C1337 O1341 1.241 . S
C1338 O1331 1.247 . S
C1338 O1332 1.261 . S
C1339 O1334 1.259 . S
C1339 O1336 1.235 . S
O1340 Co1330 2.021 . S
O1340 C1337 1.238 . S
O1341 Co1335 2.052 . S
O1341 C1337 1.241 . S
O1342 Co1330 2.137 . S
O1342 C1333 1.247 . S
O1343 Co1330 2.244 . S
O1343 C1333 1.272 . S
O1343 Co1335 2.135 . S
C1344 C1345 1.391 . S
C1344 C1346 1.394 . S
C1344 H1360 0.931 . S
C1345 C1344 1.391 . S
C1345 C1349 1.376 . S
C1346 C1344 1.394 . S
C1346 C1347 1.369 . S
C1346 C1350 1.531 . S
C1347 C1346 1.369 . S
C1347 C1348 1.415 . S
C1347 C1355 1.503 1_454 S
C1348 C1347 1.415 . S
C1348 C1349 1.431 . S
C1348 C1351 1.472 1_455 S
C1349 C1345 1.376 . S
C1349 C1348 1.431 . S
C1349 H1361 0.929 . S
C1350 C1346 1.531 . S
C1350 H1362 0.960 1_554 S
C1350 H1363 0.962 1_554 S
C1350 H1364 0.960 . S
C1351 C1348 1.472 1_655 S
C1351 H1365 0.961 . S
C1351 H1366 0.961 . S
C1351 H1367 0.961 . S
C1352 C1353 1.370 . S
C1352 C1354 1.342 1_655 S
C1352 H1368 0.931 . S
C1353 C1352 1.370 . S
C1353 C1357 1.408 . S
C1354 C1352 1.342 1_455 S
C1354 C1355 1.350 1_455 S
C1354 C1358 1.568 . S
C1355 C1347 1.503 1_656 S
C1355 C1354 1.350 1_655 S
C1355 C1356 1.403 . S
C1356 C1355 1.403 . S
C1356 C1357 1.404 . S
C1356 C1359 1.539 1_556 S
C1357 C1353 1.408 . S
C1357 C1356 1.404 . S
C1357 H1369 0.930 . S
C1358 C1354 1.568 . S
C1358 H1370 0.956 . S
C1358 H1371 0.961 . S
C1358 H1372 0.961 . S
C1359 C1356 1.539 1_554 S
C1359 H1373 0.958 . S
C1359 H1374 0.961 . S
C1359 H1375 0.960 . S
H1360 C1344 0.931 . S
H1361 C1349 0.929 . S
H1362 C1350 0.960 1_556 S
H1363 C1350 0.962 1_556 S
H1364 C1350 0.960 . S
H1365 C1351 0.961 . S
H1366 C1351 0.961 . S
H1367 C1351 0.961 . S
H1368 C1352 0.931 . S
H1369 C1357 0.930 . S
H1370 C1358 0.956 . S
H1371 C1358 0.961 . S
H1372 C1358 0.961 . S
H1373 C1359 0.958 . S
H1374 C1359 0.961 . S
H1375 C1359 0.960 . S
C1376 C1377 1.391 . S
C1376 C1378 1.394 . S
C1376 H1392 0.931 . S
C1377 C1376 1.391 . S
C1377 C1381 1.376 . S
C1378 C1376 1.394 . S
C1378 C1379 1.369 . S
C1378 C1382 1.531 . S
C1379 C1378 1.369 . S
C1379 C1380 1.410 . S
C1379 C1387 1.503 . S
C1380 C1379 1.410 . S
C1380 C1381 1.392 . S
C1380 C1383 1.511 . S
C1381 C1377 1.376 . S
C1381 C1380 1.392 . S
C1381 H1393 0.929 . S
C1382 C1378 1.531 . S
C1382 H1394 0.960 . S
C1382 H1395 0.962 . S
C1382 H1396 0.960 . S
C1383 C1380 1.511 . S
C1383 H1397 0.961 . S
C1383 H1398 0.961 . S
C1383 H1399 0.961 . S
C1384 C1385 1.370 . S
C1384 C1386 1.363 . S
C1384 H1400 0.931 . S
C1385 C1384 1.370 . S
C1385 C1389 1.408 . S
C1386 C1384 1.363 . S
C1386 C1387 1.370 . S
C1386 C1390 1.524 . S
C1387 C1379 1.503 . S
C1387 C1386 1.370 . S
C1387 C1388 1.403 . S
C1388 C1387 1.403 . S
C1388 C1389 1.404 . S
C1388 C1391 1.539 . S
C1389 C1385 1.408 . S
C1389 C1388 1.404 . S
C1389 H1401 0.930 . S
C1390 C1386 1.524 . S
C1390 H1402 0.956 . S
C1390 H1403 0.961 . S
C1390 H1404 0.961 . S
C1391 C1388 1.539 . S
C1391 H1405 0.958 . S
C1391 H1406 0.961 . S
C1391 H1407 0.960 . S
H1392 C1376 0.931 . S
H1393 C1381 0.929 . S
H1394 C1382 0.960 . S
H1395 C1382 0.962 . S
H1396 C1382 0.960 . S
H1397 C1383 0.961 . S
H1398 C1383 0.961 . S
H1399 C1383 0.961 . S
H1400 C1384 0.931 . S
H1401 C1389 0.930 . S
H1402 C1390 0.956 . S
H1403 C1390 0.961 . S
H1404 C1390 0.961 . S
H1405 C1391 0.958 . S
H1406 C1391 0.961 . S
H1407 C1391 0.960 . S
C1408 C1409 1.391 . S
C1408 C1410 1.391 . S
C1408 H1424 0.931 . S
C1409 C1408 1.391 . S
C1409 C1413 1.376 . S
C1410 C1408 1.391 . S
C1410 C1411 1.367 . S
C1410 C1414 1.535 1_655 S
C1411 C1410 1.367 . S
C1411 C1412 1.410 . S
C1411 C1419 1.503 1_655 S
C1412 C1411 1.410 . S
C1412 C1413 1.392 . S
C1412 C1415 1.511 . S
C1413 C1409 1.376 . S
C1413 C1412 1.392 . S
C1413 H1425 0.929 . S
C1414 C1410 1.535 1_455 S
C1414 H1426 0.960 . S
C1414 H1427 0.962 . S
C1414 H1428 0.960 . S
C1415 C1412 1.511 . S
C1415 H1429 0.961 . S
C1415 H1430 0.961 . S
C1415 H1431 0.961 . S
C1416 C1417 1.370 . S
C1416 C1418 1.363 . S
C1416 H1432 0.931 . S
C1417 C1416 1.370 . S
C1417 C1421 1.408 . S
C1418 C1416 1.363 . S
C1418 C1419 1.370 . S
C1418 C1422 1.524 . S
C1419 C1411 1.503 1_455 S
C1419 C1418 1.370 . S
C1419 C1420 1.403 . S
C1420 C1419 1.403 . S
C1420 C1421 1.404 . S
C1420 C1423 1.539 1_455 S
C1421 C1417 1.408 . S
C1421 C1420 1.404 . S
C1421 H1433 0.930 . S
C1422 C1418 1.524 . S
C1422 H1434 0.956 . S
C1422 H1435 0.961 . S
C1422 H1436 0.961 . S
C1423 C1420 1.539 1_655 S
C1423 H1437 0.958 . S
C1423 H1438 0.961 . S
C1423 H1439 0.960 . S
H1424 C1408 0.931 . S
H1425 C1413 0.929 . S
H1426 C1414 0.960 . S
H1427 C1414 0.962 . S
H1428 C1414 0.960 . S
H1429 C1415 0.961 . S
H1430 C1415 0.961 . S
H1431 C1415 0.961 . S
H1432 C1416 0.931 . S
H1433 C1421 0.930 . S
H1434 C1422 0.956 . S
H1435 C1422 0.961 . S
H1436 C1422 0.961 . S
H1437 C1423 0.958 . S
H1438 C1423 0.961 . S
H1439 C1423 0.960 . S
C1440 C1441 1.391 . S
C1440 C1442 1.394 . S
C1440 H1456 0.931 . S
C1441 C1440 1.391 . S
C1441 C1445 1.376 . S
C1442 C1440 1.394 . S
C1442 C1443 1.369 . S
C1442 C1446 1.531 . S
C1443 C1442 1.369 . S
C1443 C1444 1.410 . S
C1443 C1451 1.503 . S
C1444 C1443 1.410 . S
C1444 C1445 1.392 . S
C1444 C1447 1.511 . S
C1445 C1441 1.376 . S
C1445 C1444 1.392 . S
C1445 H1457 0.929 . S
C1446 C1442 1.531 . S
C1446 H1458 0.960 . S
C1446 H1459 0.962 . S
C1446 H1460 0.960 . S
C1447 C1444 1.511 . S
C1447 H1461 0.961 . S
C1447 H1462 0.961 . S
C1447 H1463 0.961 . S
C1448 C1449 1.370 . S
C1448 C1450 1.363 . S
C1448 H1464 0.931 . S
C1449 C1448 1.370 . S
C1449 C1453 1.408 . S
C1450 C1448 1.363 . S
C1450 C1451 1.370 . S
C1450 C1454 1.524 . S
C1451 C1443 1.503 . S
C1451 C1450 1.370 . S
C1451 C1452 1.403 . S
C1452 C1451 1.403 . S
C1452 C1453 1.404 . S
C1452 C1455 1.539 . S
C1453 C1449 1.408 . S
C1453 C1452 1.404 . S
C1453 H1465 0.930 . S
C1454 C1450 1.524 . S
C1454 H1466 0.956 . S
C1454 H1467 0.961 . S
C1454 H1468 0.961 . S
C1455 C1452 1.539 . S
C1455 H1469 0.958 . S
C1455 H1470 0.961 . S
C1455 H1471 0.960 . S
H1456 C1440 0.931 . S
H1457 C1445 0.929 . S
H1458 C1446 0.960 . S
H1459 C1446 0.962 . S
H1460 C1446 0.960 . S
H1461 C1447 0.961 . S
H1462 C1447 0.961 . S
H1463 C1447 0.961 . S
H1464 C1448 0.931 . S
H1465 C1453 0.930 . S
H1466 C1454 0.956 . S
H1467 C1454 0.961 . S
H1468 C1454 0.961 . S
H1469 C1455 0.958 . S
H1470 C1455 0.961 . S
H1471 C1455 0.960 . S
C1472 C1473 1.391 . S
C1472 C1474 1.394 . S
C1472 H1488 0.931 . S
C1473 C1472 1.391 . S
C1473 C1477 1.376 . S
C1474 C1472 1.394 . S
C1474 C1475 1.369 . S
C1474 C1478 1.531 1_554 S
C1475 C1474 1.369 . S
C1475 C1476 1.410 1_655 S
C1475 C1483 1.503 1_654 S
C1476 C1475 1.410 1_455 S
C1476 C1477 1.392 1_455 S
C1476 C1479 1.511 . S
C1477 C1473 1.376 . S
C1477 C1476 1.392 1_655 S
C1477 H1489 0.929 . S
C1478 C1474 1.531 1_556 S
C1478 H1490 0.960 . S
C1478 H1491 0.962 . S
C1478 H1492 0.960 . S
C1479 C1476 1.511 . S
C1479 H1493 0.961 . S
C1479 H1494 0.961 . S
C1479 H1495 0.961 . S
C1480 C1481 1.370 . S
C1480 C1482 1.363 . S
C1480 H1496 0.931 . S
C1481 C1480 1.370 . S
C1481 C1485 1.408 . S
C1482 C1480 1.363 . S
C1482 C1483 1.370 . S
C1482 C1486 1.526 . S
C1483 C1475 1.503 1_456 S
C1483 C1482 1.370 . S
C1483 C1484 1.403 . S
C1484 C1483 1.403 . S
C1484 C1485 1.404 . S
C1484 C1487 1.539 1_455 S
C1485 C1481 1.408 . S
C1485 C1484 1.404 . S
C1485 H1497 0.930 . S
C1486 C1482 1.526 . S
C1486 H1498 0.956 1_556 S
C1486 H1499 0.958 1_556 S
C1486 H1500 0.961 . S
C1487 C1484 1.539 1_655 S
C1487 H1501 0.958 . S
C1487 H1502 0.961 1_655 S
C1487 H1503 0.960 . S
H1488 C1472 0.931 . S
H1489 C1477 0.929 . S
H1490 C1478 0.960 . S
H1491 C1478 0.962 . S
H1492 C1478 0.960 . S
H1493 C1479 0.961 . S
H1494 C1479 0.961 . S
H1495 C1479 0.961 . S
H1496 C1480 0.931 . S
H1497 C1485 0.930 . S
H1498 C1486 0.956 1_554 S
H1499 C1486 0.958 1_554 S
H1500 C1486 0.961 . S
H1501 C1487 0.958 . S
H1502 C1487 0.961 1_455 S
H1503 C1487 0.960 . S
C1504 C1505 1.391 . S
C1504 C1506 1.394 . S
C1504 H1520 0.931 . S
C1505 C1504 1.391 . S
C1505 C1509 1.376 . S
C1506 C1504 1.394 . S
C1506 C1507 1.369 . S
C1506 C1510 1.531 . S
C1507 C1506 1.369 . S
C1507 C1508 1.410 . S
C1507 C1515 1.503 . S
C1508 C1507 1.410 . S
C1508 C1509 1.392 . S
C1508 C1511 1.511 . S
C1509 C1505 1.376 . S
C1509 C1508 1.392 . S
C1509 H1521 0.929 . S
C1510 C1506 1.531 . S
C1510 H1522 0.960 . S
C1510 H1523 0.962 . S
C1510 H1524 0.960 . S
C1511 C1508 1.511 . S
C1511 H1525 0.961 . S
C1511 H1526 0.961 . S
C1511 H1527 0.961 . S
C1512 C1513 1.370 . S
C1512 C1514 1.363 . S
C1512 H1528 0.931 . S
C1513 C1512 1.370 . S
C1513 C1517 1.408 . S
C1514 C1512 1.363 . S
C1514 C1515 1.370 . S
C1514 C1518 1.524 . S
C1515 C1507 1.503 . S
C1515 C1514 1.370 . S
C1515 C1516 1.403 . S
C1516 C1515 1.403 . S
C1516 C1517 1.404 . S
C1516 C1519 1.539 . S
C1517 C1513 1.408 . S
C1517 C1516 1.404 . S
C1517 H1529 0.930 . S
C1518 C1514 1.524 . S
C1518 H1530 0.956 . S
C1518 H1531 0.961 . S
C1518 H1532 0.961 . S
C1519 C1516 1.539 . S
C1519 H1533 0.958 . S
C1519 H1534 0.961 . S
C1519 H1535 0.960 . S
H1520 C1504 0.931 . S
H1521 C1509 0.929 . S
H1522 C1510 0.960 . S
H1523 C1510 0.962 . S
H1524 C1510 0.960 . S
H1525 C1511 0.961 . S
H1526 C1511 0.961 . S
H1527 C1511 0.961 . S
H1528 C1512 0.931 . S
H1529 C1517 0.930 . S
H1530 C1518 0.956 . S
H1531 C1518 0.961 . S
H1532 C1518 0.961 . S
H1533 C1519 0.958 . S
H1534 C1519 0.961 . S
H1535 C1519 0.960 . S
C1536 C1537 1.391 . S
C1536 C1538 1.394 . S
C1536 H1552 0.931 . S
C1537 C1536 1.391 . S
C1537 C1541 1.376 . S
C1538 C1536 1.394 . S
C1538 C1539 1.369 . S
C1538 C1542 1.531 . S
C1539 C1538 1.369 . S
C1539 C1540 1.410 1_455 S
C1539 C1547 1.503 1_455 S
C1540 C1539 1.410 1_655 S
C1540 C1541 1.392 1_655 S
C1540 C1543 1.511 . S
C1541 C1537 1.376 . S
C1541 C1540 1.392 1_455 S
C1541 H1553 0.929 . S
C1542 C1538 1.531 . S
C1542 H1554 0.960 . S
C1542 H1555 0.962 . S
C1542 H1556 0.960 . S
C1543 C1540 1.511 . S
C1543 H1557 0.961 . S
C1543 H1558 0.961 . S
C1543 H1559 0.961 . S
C1544 C1545 1.370 . S
C1544 C1546 1.363 . S
C1544 H1560 0.931 . S
C1545 C1544 1.370 . S
C1545 C1549 1.408 . S
C1546 C1544 1.363 . S
C1546 C1547 1.370 . S
C1546 C1550 1.524 1_655 S
C1547 C1539 1.503 1_655 S
C1547 C1546 1.370 . S
C1547 C1548 1.403 . S
C1548 C1547 1.403 . S
C1548 C1549 1.404 . S
C1548 C1551 1.539 . S
C1549 C1545 1.408 . S
C1549 C1548 1.404 . S
C1549 H1561 0.930 . S
C1550 C1546 1.524 1_455 S
C1550 H1562 0.956 . S
C1550 H1563 0.961 . S
C1550 H1564 0.961 . S
C1551 C1548 1.539 . S
C1551 H1565 0.958 . S
C1551 H1566 0.961 . S
C1551 H1567 0.960 . S
H1552 C1536 0.931 . S
H1553 C1541 0.929 . S
H1554 C1542 0.960 . S
H1555 C1542 0.962 . S
H1556 C1542 0.960 . S
H1557 C1543 0.961 . S
H1558 C1543 0.961 . S
H1559 C1543 0.961 . S
H1560 C1544 0.931 . S
H1561 C1549 0.930 . S
H1562 C1550 0.956 . S
H1563 C1550 0.961 . S
H1564 C1550 0.961 . S
H1565 C1551 0.958 . S
H1566 C1551 0.961 . S
H1567 C1551 0.960 . S
C1568 C1569 1.391 . S
C1568 C1570 1.394 . S
C1568 H1584 0.931 . S
C1569 C1568 1.391 . S
C1569 C1573 1.376 . S
C1570 C1568 1.394 . S
C1570 C1571 1.369 . S
C1570 C1574 1.531 . S
C1571 C1570 1.369 . S
C1571 C1572 1.410 . S
C1571 C1579 1.503 . S
C1572 C1571 1.410 . S
C1572 C1573 1.392 . S
C1572 C1575 1.511 . S
C1573 C1569 1.376 . S
C1573 C1572 1.392 . S
C1573 H1585 0.929 . S
C1574 C1570 1.531 . S
C1574 H1586 0.960 . S
C1574 H1587 0.962 . S
C1574 H1588 0.960 . S
C1575 C1572 1.511 . S
C1575 H1589 0.961 . S
C1575 H1590 0.961 . S
C1575 H1591 0.961 . S
C1576 C1577 1.370 . S
C1576 C1578 1.363 . S
C1576 H1592 0.931 . S
C1577 C1576 1.370 . S
C1577 C1581 1.408 . S
C1578 C1576 1.363 . S
C1578 C1579 1.370 . S
C1578 C1582 1.524 . S
C1579 C1571 1.503 . S
C1579 C1578 1.370 . S
C1579 C1580 1.403 . S
C1580 C1579 1.403 . S
C1580 C1581 1.404 . S
C1580 C1583 1.539 . S
C1581 C1577 1.408 . S
C1581 C1580 1.404 . S
C1581 H1593 0.930 . S
C1582 C1578 1.524 . S
C1582 H1594 0.956 . S
C1582 H1595 0.961 . S
C1582 H1596 0.961 . S
C1583 C1580 1.539 . S
C1583 H1597 0.958 . S
C1583 H1598 0.961 . S
C1583 H1599 0.960 . S
H1584 C1568 0.931 . S
H1585 C1573 0.929 . S
H1586 C1574 0.960 . S
H1587 C1574 0.962 . S
H1588 C1574 0.960 . S
H1589 C1575 0.961 . S
H1590 C1575 0.961 . S
H1591 C1575 0.961 . S
H1592 C1576 0.931 . S
H1593 C1581 0.930 . S
H1594 C1582 0.956 . S
H1595 C1582 0.961 . S
H1596 C1582 0.961 . S
H1597 C1583 0.958 . S
H1598 C1583 0.961 . S
H1599 C1583 0.960 . S
C1600 C1601 1.391 . S
C1600 C1602 1.394 1_565 S
C1600 H1616 0.931 . S
C1601 C1600 1.391 . S
C1601 C1605 1.376 . S
C1602 C1600 1.394 1_545 S
C1602 C1603 1.369 1_545 S
C1602 C1606 1.531 . S
C1603 C1602 1.369 1_565 S
C1603 C1604 1.410 . S
C1603 C1611 1.503 1_665 S
C1604 C1603 1.410 . S
C1604 C1605 1.392 . S
C1604 C1607 1.511 1_655 S
C1605 C1601 1.376 . S
C1605 C1604 1.392 . S
C1605 H1617 0.929 . S
C1606 C1602 1.531 . S
C1606 H1618 0.960 . S
C1606 H1619 0.962 . S
C1606 H1620 0.960 . S
C1607 C1604 1.511 1_455 S
C1607 H1621 0.961 . S
C1607 H1622 0.961 . S
C1607 H1623 0.961 . S
C1608 C1609 1.370 . S
C1608 C1610 1.363 . S
C1608 H1624 0.931 . S
C1609 C1608 1.370 . S
C1609 C1613 1.408 . S
C1610 C1608 1.363 . S
C1610 C1611 1.370 . S
C1610 C1614 1.524 1_545 S
C1611 C1603 1.503 1_445 S
C1611 C1610 1.370 . S
C1611 C1612 1.403 . S
C1612 C1611 1.403 . S
C1612 C1613 1.404 . S
C1612 C1615 1.567 . S
C1613 C1609 1.408 . S
C1613 C1612 1.404 . S
C1613 H1625 0.930 . S
C1614 C1610 1.524 1_565 S
C1614 H1626 0.956 . S
C1614 H1627 0.961 . S
C1614 H1628 0.961 . S
C1615 C1612 1.567 . S
C1615 H1629 0.929 1_455 S
C1615 H1630 0.991 . S
C1615 H1631 0.935 1_455 S
H1616 C1600 0.931 . S
H1617 C1605 0.929 . S
H1618 C1606 0.960 . S
H1619 C1606 0.962 . S
H1620 C1606 0.960 . S
H1621 C1607 0.961 . S
H1622 C1607 0.961 . S
H1623 C1607 0.961 . S
H1624 C1608 0.931 . S
H1625 C1613 0.930 . S
H1626 C1614 0.956 . S
H1627 C1614 0.961 . S
H1628 C1614 0.961 . S
H1629 C1615 0.929 1_655 S
H1630 C1615 0.991 . S
H1631 C1615 0.935 1_655 S
C1632 C1633 1.391 . S
C1632 C1634 1.394 . S
C1632 H1648 0.931 . S
C1633 C1632 1.391 . S
C1633 C1637 1.376 . S
C1634 C1632 1.394 . S
C1634 C1635 1.369 . S
C1634 C1638 1.531 . S
C1635 C1634 1.369 . S
C1635 C1636 1.410 . S
C1635 C1643 1.503 . S
C1636 C1635 1.410 . S
C1636 C1637 1.392 . S
C1636 C1639 1.511 . S
C1637 C1633 1.376 . S
C1637 C1636 1.392 . S
C1637 H1649 0.929 . S
C1638 C1634 1.531 . S
C1638 H1650 0.960 . S
C1638 H1651 0.962 . S
C1638 H1652 0.960 . S
C1639 C1636 1.511 . S
C1639 H1653 0.961 . S
C1639 H1654 0.961 . S
C1639 H1655 0.961 . S
C1640 C1641 1.370 . S
C1640 C1642 1.363 . S
C1640 H1656 0.931 . S
C1641 C1640 1.370 . S
C1641 C1645 1.408 . S
C1642 C1640 1.363 . S
C1642 C1643 1.370 . S
C1642 C1646 1.524 . S
C1643 C1635 1.503 . S
C1643 C1642 1.370 . S
C1643 C1644 1.403 . S
C1644 C1643 1.403 . S
C1644 C1645 1.404 . S
C1644 C1647 1.539 . S
C1645 C1641 1.408 . S
C1645 C1644 1.404 . S
C1645 H1657 0.930 . S
C1646 C1642 1.524 . S
C1646 H1658 0.956 . S
C1646 H1659 0.961 . S
C1646 H1660 0.961 . S
C1647 C1644 1.539 . S
C1647 H1661 0.958 . S
C1647 H1662 0.961 . S
C1647 H1663 0.960 . S
H1648 C1632 0.931 . S
H1649 C1637 0.929 . S
H1650 C1638 0.960 . S
H1651 C1638 0.962 . S
H1652 C1638 0.960 . S
H1653 C1639 0.961 . S
H1654 C1639 0.961 . S
H1655 C1639 0.961 . S
H1656 C1640 0.931 . S
H1657 C1645 0.930 . S
H1658 C1646 0.956 . S
H1659 C1646 0.961 . S
H1660 C1646 0.961 . S
H1661 C1647 0.958 . S
H1662 C1647 0.961 . S
H1663 C1647 0.960 . S
C1664 C1665 1.391 . S
C1664 C1666 1.394 . S
C1664 H1680 0.931 . S
C1665 C1664 1.391 . S
C1665 C1669 1.376 . S
C1666 C1664 1.394 . S
C1666 C1667 1.369 . S
C1666 C1670 1.531 1_655 S
C1667 C1666 1.369 . S
C1667 C1668 1.410 . S
C1667 C1675 1.503 1_655 S
C1668 C1667 1.410 . S
C1668 C1669 1.392 . S
C1668 C1671 1.511 . S
C1669 C1665 1.376 . S
C1669 C1668 1.392 . S
C1669 H1681 0.929 . S
C1670 C1666 1.531 1_455 S
C1670 H1682 0.960 . S
C1670 H1683 0.962 . S
C1670 H1684 0.960 . S
C1671 C1668 1.511 . S
C1671 H1685 0.961 . S
C1671 H1686 0.961 . S
C1671 H1687 0.961 . S
C1672 C1673 1.370 . S
C1672 C1674 1.363 . S
C1672 H1688 0.931 . S
C1673 C1672 1.370 . S
C1673 C1677 1.408 . S
C1674 C1672 1.363 . S
C1674 C1675 1.370 . S
C1674 C1678 1.524 . S
C1675 C1667 1.503 1_455 S
C1675 C1674 1.370 . S
C1675 C1676 1.403 . S
C1676 C1675 1.403 . S
C1676 C1677 1.404 . S
C1676 C1679 1.539 . S
C1677 C1673 1.408 . S
C1677 C1676 1.404 . S
C1677 H1689 0.930 . S
C1678 C1674 1.524 . S
C1678 H1690 0.956 . S
C1678 H1691 0.961 1_455 S
C1678 H1692 0.961 . S
C1679 C1676 1.539 . S
C1679 H1693 0.958 . S
C1679 H1694 0.961 . S
C1679 H1695 0.960 1_455 S
H1680 C1664 0.931 . S
H1681 C1669 0.929 . S
H1682 C1670 0.960 . S
H1683 C1670 0.962 . S
H1684 C1670 0.960 . S
H1685 C1671 0.961 . S
H1686 C1671 0.961 . S
H1687 C1671 0.961 . S
H1688 C1672 0.931 . S
H1689 C1677 0.930 . S
H1690 C1678 0.956 . S
H1691 C1678 0.961 1_655 S
H1692 C1678 0.961 . S
H1693 C1679 0.958 . S
H1694 C1679 0.961 . S
H1695 C1679 0.960 1_655 S
C1696 C1697 1.391 . S
C1696 C1698 1.394 . S
C1696 H1712 0.931 . S
C1697 C1696 1.391 . S
C1697 C1701 1.376 . S
C1698 C1696 1.394 . S
C1698 C1699 1.369 . S
C1698 C1702 1.531 . S
C1699 C1698 1.369 . S
C1699 C1700 1.410 . S
C1699 C1707 1.503 . S
C1700 C1699 1.410 . S
C1700 C1701 1.392 . S
C1700 C1703 1.511 . S
C1701 C1697 1.376 . S
C1701 C1700 1.392 . S
C1701 H1713 0.929 . S
C1702 C1698 1.531 . S
C1702 H1714 0.960 . S
C1702 H1715 0.962 . S
C1702 H1716 0.960 . S
C1703 C1700 1.511 . S
C1703 H1717 0.961 . S
C1703 H1718 0.961 . S
C1703 H1719 0.961 . S
C1704 C1705 1.370 . S
C1704 C1706 1.363 . S
C1704 H1720 0.931 . S
C1705 C1704 1.370 . S
C1705 C1709 1.408 . S
C1706 C1704 1.363 . S
C1706 C1707 1.370 . S
C1706 C1710 1.524 . S
C1707 C1699 1.503 . S
C1707 C1706 1.370 . S
C1707 C1708 1.403 . S
C1708 C1707 1.403 . S
C1708 C1709 1.404 . S
C1708 C1711 1.539 . S
C1709 C1705 1.408 . S
C1709 C1708 1.404 . S
C1709 H1721 0.930 . S
C1710 C1706 1.524 . S
C1710 H1722 0.956 . S
C1710 H1723 0.961 . S
C1710 H1724 0.961 . S
C1711 C1708 1.539 . S
C1711 H1725 0.958 . S
C1711 H1726 0.961 . S
C1711 H1727 0.960 . S
H1712 C1696 0.931 . S
H1713 C1701 0.929 . S
H1714 C1702 0.960 . S
H1715 C1702 0.962 . S
H1716 C1702 0.960 . S
H1717 C1703 0.961 . S
H1718 C1703 0.961 . S
H1719 C1703 0.961 . S
H1720 C1704 0.931 . S
H1721 C1709 0.930 . S
H1722 C1710 0.956 . S
H1723 C1710 0.961 . S
H1724 C1710 0.961 . S
H1725 C1711 0.958 . S
H1726 C1711 0.961 . S
H1727 C1711 0.960 . S
C1728 C1729 1.391 . S
C1728 C1730 1.394 . S
C1728 H1744 0.931 . S
C1729 C1728 1.391 . S
C1729 C1733 1.376 . S
C1730 C1728 1.394 . S
C1730 C1731 1.369 . S
C1730 C1734 1.531 . S
C1731 C1730 1.369 . S
C1731 C1732 1.410 . S
C1731 C1739 1.503 1_465 S
C1732 C1731 1.410 . S
C1732 C1733 1.392 . S
C1732 C1735 1.511 . S
C1733 C1729 1.376 . S
C1733 C1732 1.392 . S
C1733 H1745 0.929 . S
C1734 C1730 1.531 . S
C1734 H1746 0.960 1_455 S
C1734 H1747 0.962 . S
C1734 H1748 0.960 . S
C1735 C1732 1.511 . S
C1735 H1749 0.961 . S
C1735 H1750 0.961 1_565 S
C1735 H1751 0.991 . S
C1736 C1737 1.370 . S
C1736 C1738 1.363 . S
C1736 H1752 0.931 . S
C1737 C1736 1.370 . S
C1737 C1741 1.408 . S
C1738 C1736 1.363 . S
C1738 C1739 1.370 . S
C1738 C1742 1.524 1_655 S
C1739 C1731 1.503 1_645 S
C1739 C1738 1.370 . S
C1739 C1740 1.403 1_545 S
C1740 C1739 1.403 1_565 S
C1740 C1741 1.404 1_565 S
C1740 C1743 1.539 . S
C1741 C1737 1.408 . S
C1741 C1740 1.404 1_545 S
C1741 H1753 0.940 . S
C1742 C1738 1.524 1_455 S
C1742 H1754 0.956 . S
C1742 H1755 0.961 . S
C1742 H1756 0.961 . S
C1743 C1740 1.539 . S
C1743 H1757 0.958 . S
C1743 H1758 0.961 . S
C1743 H1759 0.960 . S
H1744 C1728 0.931 . S
H1745 C1733 0.929 . S
H1746 C1734 0.960 1_655 S
H1747 C1734 0.962 . S
H1748 C1734 0.960 . S
H1749 C1735 0.961 . S
H1750 C1735 0.961 1_545 S
H1751 C1735 0.991 . S
H1752 C1736 0.931 . S
H1753 C1741 0.940 . S
H1754 C1742 0.956 . S
H1755 C1742 0.961 . S
H1756 C1742 0.961 . S
H1757 C1743 0.958 . S
H1758 C1743 0.961 . S
H1759 C1743 0.960 . S
C1760 C1761 1.391 . S
C1760 C1762 1.394 . S
C1760 H1776 0.931 . S
C1761 C1760 1.391 . S
C1761 C1765 1.376 . S
C1762 C1760 1.394 . S
C1762 C1763 1.369 . S
C1762 C1766 1.531 . S
C1763 C1762 1.369 . S
C1763 C1764 1.410 . S
C1763 C1771 1.503 . S
C1764 C1763 1.410 . S
C1764 C1765 1.392 . S
C1764 C1767 1.511 . S
C1765 C1761 1.376 . S
C1765 C1764 1.392 . S
C1765 H1777 0.929 . S
C1766 C1762 1.531 . S
C1766 H1778 0.960 . S
C1766 H1779 0.962 . S
C1766 H1780 0.960 . S
C1767 C1764 1.511 . S
C1767 H1781 0.961 . S
C1767 H1782 0.961 . S
C1767 H1783 0.961 . S
C1768 C1769 1.370 . S
C1768 C1770 1.363 . S
C1768 H1784 0.931 . S
C1769 C1768 1.370 . S
C1769 C1773 1.408 . S
C1770 C1768 1.363 . S
C1770 C1771 1.370 . S
C1770 C1774 1.524 . S
C1771 C1763 1.503 . S
C1771 C1770 1.370 . S
C1771 C1772 1.403 . S
C1772 C1771 1.403 . S
C1772 C1773 1.404 . S
C1772 C1775 1.539 . S
C1773 C1769 1.408 . S
C1773 C1772 1.404 . S
C1773 H1785 0.930 . S
C1774 C1770 1.524 . S
C1774 H1786 0.956 . S
C1774 H1787 0.961 . S
C1774 H1788 0.961 . S
C1775 C1772 1.539 . S
C1775 H1789 0.958 . S
C1775 H1790 0.961 . S
C1775 H1791 0.960 . S
H1776 C1760 0.931 . S
H1777 C1765 0.929 . S
H1778 C1766 0.960 . S
H1779 C1766 0.962 . S
H1780 C1766 0.960 . S
H1781 C1767 0.961 . S
H1782 C1767 0.961 . S
H1783 C1767 0.961 . S
H1784 C1768 0.931 . S
H1785 C1773 0.930 . S
H1786 C1774 0.956 . S
H1787 C1774 0.961 . S
H1788 C1774 0.961 . S
H1789 C1775 0.958 . S
H1790 C1775 0.961 . S
H1791 C1775 0.960 . S
C1792 C1793 1.391 . S
C1792 C1794 1.394 . S
C1792 H1808 0.931 . S
C1793 C1792 1.391 . S
C1793 C1797 1.376 . S
C1794 C1792 1.394 . S
C1794 C1795 1.369 . S
C1794 C1798 1.531 1_455 S
C1795 C1794 1.369 . S
C1795 C1796 1.410 . S
C1795 C1803 1.503 1_455 S
C1796 C1795 1.410 . S
C1796 C1797 1.392 . S
C1796 C1799 1.511 . S
C1797 C1793 1.376 . S
C1797 C1796 1.392 . S
C1797 H1809 0.929 . S
C1798 C1794 1.531 1_655 S
C1798 H1810 0.960 . S
C1798 H1811 0.962 . S
C1798 H1812 0.960 . S
C1799 C1796 1.511 . S
C1799 H1813 0.961 . S
C1799 H1814 0.961 . S
C1799 H1815 0.961 . S
C1800 C1801 1.370 . S
C1800 C1802 1.363 . S
C1800 H1816 0.931 . S
C1801 C1800 1.370 . S
C1801 C1805 1.408 . S
C1802 C1800 1.363 . S
C1802 C1803 1.370 . S
C1802 C1806 1.520 . S
C1803 C1795 1.503 1_655 S
C1803 C1802 1.370 . S
C1803 C1804 1.403 . S
C1804 C1803 1.403 . S
C1804 C1805 1.404 . S
C1804 C1807 1.539 . S
C1805 C1801 1.408 . S
C1805 C1804 1.404 . S
C1805 H1817 0.930 . S
C1806 C1802 1.520 . S
C1806 H1818 0.956 1_655 S
C1806 H1819 0.967 1_655 S
C1806 H1820 0.959 . S
C1807 C1804 1.539 . S
C1807 H1821 0.958 . S
C1807 H1822 0.961 . S
C1807 H1823 0.960 . S
H1808 C1792 0.931 . S
H1809 C1797 0.929 . S
H1810 C1798 0.960 . S
H1811 C1798 0.962 . S
H1812 C1798 0.960 . S
H1813 C1799 0.961 . S
H1814 C1799 0.961 . S
H1815 C1799 0.961 . S
H1816 C1800 0.931 . S
H1817 C1805 0.930 . S
H1818 C1806 0.956 1_455 S
H1819 C1806 0.967 1_455 S
H1820 C1806 0.959 . S
H1821 C1807 0.958 . S
H1822 C1807 0.961 . S
H1823 C1807 0.960 . S
C1824 C1825 1.391 . S
C1824 C1826 1.394 . S
C1824 H1840 0.931 . S
C1825 C1824 1.391 . S
C1825 C1829 1.376 . S
C1826 C1824 1.394 . S
C1826 C1827 1.369 . S
C1826 C1830 1.531 . S
C1827 C1826 1.369 . S
C1827 C1828 1.410 . S
C1827 C1835 1.503 . S
C1828 C1827 1.410 . S
C1828 C1829 1.392 . S
C1828 C1831 1.511 . S
C1829 C1825 1.376 . S
C1829 C1828 1.392 . S
C1829 H1841 0.929 . S
C1830 C1826 1.531 . S
C1830 H1842 0.960 . S
C1830 H1843 0.962 . S
C1830 H1844 0.960 . S
C1831 C1828 1.511 . S
C1831 H1845 0.961 . S
C1831 H1846 0.961 . S
C1831 H1847 0.961 . S
C1832 C1833 1.370 . S
C1832 C1834 1.363 . S
C1832 H1848 0.931 . S
C1833 C1832 1.370 . S
C1833 C1837 1.408 . S
C1834 C1832 1.363 . S
C1834 C1835 1.370 . S
C1834 C1838 1.524 . S
C1835 C1827 1.503 . S
C1835 C1834 1.370 . S
C1835 C1836 1.403 . S
C1836 C1835 1.403 . S
C1836 C1837 1.404 . S
C1836 C1839 1.539 . S
C1837 C1833 1.408 . S
C1837 C1836 1.404 . S
C1837 H1849 0.930 . S
C1838 C1834 1.524 . S
C1838 H1850 0.956 . S
C1838 H1851 0.961 . S
C1838 H1852 0.961 . S
C1839 C1836 1.539 . S
C1839 H1853 0.958 . S
C1839 H1854 0.961 . S
C1839 H1855 0.960 . S
H1840 C1824 0.931 . S
H1841 C1829 0.929 . S
H1842 C1830 0.960 . S
H1843 C1830 0.962 . S
H1844 C1830 0.960 . S
H1845 C1831 0.961 . S
H1846 C1831 0.961 . S
H1847 C1831 0.961 . S
H1848 C1832 0.931 . S
H1849 C1837 0.930 . S
H1850 C1838 0.956 . S
H1851 C1838 0.961 . S
H1852 C1838 0.961 . S
H1853 C1839 0.958 . S
H1854 C1839 0.961 . S
H1855 C1839 0.960 . S
C1856 C1857 1.391 . S
C1856 C1858 1.394 . S
C1856 H1872 0.931 . S
C1857 C1856 1.391 . S
C1857 C1861 1.376 . S
C1858 C1856 1.394 . S
C1858 C1859 1.369 . S
C1858 C1862 1.531 1_565 S
C1859 C1858 1.369 . S
C1859 C1860 1.410 1_556 S
C1859 C1867 1.503 1_566 S
C1860 C1859 1.410 1_554 S
C1860 C1861 1.392 1_554 S
C1860 C1863 1.511 . S
C1861 C1857 1.376 . S
C1861 C1860 1.392 1_556 S
C1861 H1873 0.929 . S
C1862 C1858 1.531 1_545 S
C1862 H1874 0.960 . S
C1862 H1875 0.962 . S
C1862 H1876 0.960 1_545 S
C1863 C1860 1.511 . S
C1863 H1877 0.961 . S
C1863 H1878 0.961 . S
C1863 H1879 0.961 . S
C1864 C1865 1.370 . S
C1864 C1866 1.363 . S
C1864 H1880 0.931 . S
C1865 C1864 1.370 . S
C1865 C1869 1.408 . S
C1866 C1864 1.363 . S
C1866 C1867 1.370 . S
C1866 C1870 1.524 1_554 S
C1867 C1859 1.503 1_544 S
C1867 C1866 1.370 . S
C1867 C1868 1.403 . S
C1868 C1867 1.403 . S
C1868 C1869 1.404 . S
C1868 C1871 1.539 1_545 S
C1869 C1865 1.408 . S
C1869 C1868 1.404 . S
C1869 H1881 0.930 . S
C1870 C1866 1.524 1_556 S
C1870 H1882 0.956 . S
C1870 H1883 0.961 . S
C1870 H1884 0.961 . S
C1871 C1868 1.539 1_565 S
C1871 H1885 0.958 . S
C1871 H1886 0.961 . S
C1871 H1887 0.960 . S
H1872 C1856 0.931 . S
H1873 C1861 0.929 . S
H1874 C1862 0.960 . S
H1875 C1862 0.962 . S
H1876 C1862 0.960 1_565 S
H1877 C1863 0.961 . S
H1878 C1863 0.961 . S
H1879 C1863 0.961 . S
H1880 C1864 0.931 . S
H1881 C1869 0.930 . S
H1882 C1870 0.956 . S
H1883 C1870 0.961 . S
H1884 C1870 0.961 . S
H1885 C1871 0.958 . S
H1886 C1871 0.961 . S
H1887 C1871 0.960 . S
C1888 C1889 1.391 . S
C1888 C1890 1.394 . S
C1888 H1904 0.931 . S
C1889 C1888 1.391 . S
C1889 C1893 1.376 . S
C1890 C1888 1.394 . S
C1890 C1891 1.369 . S
C1890 C1894 1.531 . S
C1891 C1890 1.369 . S
C1891 C1892 1.410 . S
C1891 C1899 1.503 1_545 S
C1892 C1891 1.410 . S
C1892 C1893 1.392 . S
C1892 C1895 1.511 1_545 S
C1893 C1889 1.376 . S
C1893 C1892 1.392 . S
C1893 H1905 0.929 . S
C1894 C1890 1.531 . S
C1894 H1906 0.960 . S
C1894 H1907 0.962 . S
C1894 H1908 0.960 . S
C1895 C1892 1.511 1_565 S
C1895 H1909 0.961 . S
C1895 H1910 0.961 . S
C1895 H1911 0.961 . S
C1896 C1897 1.370 . S
C1896 C1898 1.363 . S
C1896 H1912 0.931 . S
C1897 C1896 1.370 . S
C1897 C1901 1.408 . S
C1898 C1896 1.363 . S
C1898 C1899 1.370 . S
C1898 C1902 1.524 . S
C1899 C1891 1.503 1_565 S
C1899 C1898 1.370 . S
C1899 C1900 1.403 . S
C1900 C1899 1.403 . S
C1900 C1901 1.404 . S
C1900 C1903 1.539 1_565 S
C1901 C1897 1.408 . S
C1901 C1900 1.404 . S
C1901 H1913 0.930 . S
C1902 C1898 1.524 . S
C1902 H1914 0.956 . S
C1902 H1915 0.961 . S
C1902 H1916 0.961 . S
C1903 C1900 1.539 1_545 S
C1903 H1917 0.958 . S
C1903 H1918 0.961 1_545 S
C1903 H1919 0.960 . S
H1904 C1888 0.931 . S
H1905 C1893 0.929 . S
H1906 C1894 0.960 . S
H1907 C1894 0.962 . S
H1908 C1894 0.960 . S
H1909 C1895 0.961 . S
H1910 C1895 0.961 . S
H1911 C1895 0.961 . S
H1912 C1896 0.931 . S
H1913 C1901 0.930 . S
H1914 C1902 0.956 . S
H1915 C1902 0.961 . S
H1916 C1902 0.961 . S
H1917 C1903 0.958 . S
H1918 C1903 0.961 1_565 S
H1919 C1903 0.960 . S
C1920 C1921 1.391 . S
C1920 C1922 1.394 . S
C1920 H1936 0.931 . S
C1921 C1920 1.391 . S
C1921 C1925 1.376 . S
C1922 C1920 1.394 . S
C1922 C1923 1.369 . S
C1922 C1926 1.531 . S
C1923 C1922 1.369 . S
C1923 C1924 1.410 . S
C1923 C1931 1.503 . S
C1924 C1923 1.410 . S
C1924 C1925 1.392 . S
C1924 C1927 1.511 . S
C1925 C1921 1.376 . S
C1925 C1924 1.392 . S
C1925 H1937 0.929 . S
C1926 C1922 1.531 . S
C1926 H1938 0.960 . S
C1926 H1939 0.962 . S
C1926 H1940 0.960 . S
C1927 C1924 1.511 . S
C1927 H1941 0.961 . S
C1927 H1942 0.961 . S
C1927 H1943 0.961 . S
C1928 C1929 1.370 . S
C1928 C1930 1.363 . S
C1928 H1944 0.931 . S
C1929 C1928 1.370 . S
C1929 C1933 1.408 . S
C1930 C1928 1.363 . S
C1930 C1931 1.370 . S
C1930 C1934 1.524 . S
C1931 C1923 1.503 . S
C1931 C1930 1.370 . S
C1931 C1932 1.403 . S
C1932 C1931 1.403 . S
C1932 C1933 1.404 . S
C1932 C1935 1.539 . S
C1933 C1929 1.408 . S
C1933 C1932 1.404 . S
C1933 H1945 0.930 . S
C1934 C1930 1.524 . S
C1934 H1946 0.956 . S
C1934 H1947 0.961 . S
C1934 H1948 0.961 . S
C1935 C1932 1.539 . S
C1935 H1949 0.958 . S
C1935 H1950 0.961 . S
C1935 H1951 0.960 . S
H1936 C1920 0.931 . S
H1937 C1925 0.929 . S
H1938 C1926 0.960 . S
H1939 C1926 0.962 . S
H1940 C1926 0.960 . S
H1941 C1927 0.961 . S
H1942 C1927 0.961 . S
H1943 C1927 0.961 . S
H1944 C1928 0.931 . S
H1945 C1933 0.930 . S
H1946 C1934 0.956 . S
H1947 C1934 0.961 . S
H1948 C1934 0.961 . S
H1949 C1935 0.958 . S
H1950 C1935 0.961 . S
H1951 C1935 0.960 . S
C1952 C1953 1.391 . S
C1952 C1954 1.394 1_554 S
C1952 H1968 0.931 . S
C1953 C1952 1.391 . S
C1953 C1957 1.376 . S
C1954 C1952 1.394 1_556 S
C1954 C1955 1.369 1_556 S
C1954 C1958 1.531 . S
C1955 C1954 1.369 1_554 S
C1955 C1956 1.410 . S
C1955 C1963 1.503 1_554 S
C1956 C1955 1.410 . S
C1956 C1957 1.392 . S
C1956 C1959 1.511 . S
C1957 C1953 1.376 . S
C1957 C1956 1.392 . S
C1957 H1969 0.929 . S
C1958 C1954 1.531 . S
C1958 H1970 0.960 . S
C1958 H1971 0.962 . S
C1958 H1972 0.960 . S
C1959 C1956 1.511 . S
C1959 H1973 0.961 . S
C1959 H1974 0.961 . S
C1959 H1975 0.961 . S
C1960 C1961 1.370 . S
C1960 C1962 1.363 . S
C1960 H1976 0.931 . S
C1961 C1960 1.370 . S
C1961 C1965 1.408 . S
C1962 C1960 1.363 . S
C1962 C1963 1.370 . S
C1962 C1966 1.524 1_556 S
C1963 C1955 1.503 1_556 S
C1963 C1962 1.370 . S
C1963 C1964 1.403 . S
C1964 C1963 1.403 . S
C1964 C1965 1.404 . S
C1964 C1967 1.539 . S
C1965 C1961 1.408 . S
C1965 C1964 1.404 . S
C1965 H1977 0.930 . S
C1966 C1962 1.524 1_554 S
C1966 H1978 0.956 . S
C1966 H1979 0.961 . S
C1966 H1980 0.961 . S
C1967 C1964 1.539 . S
C1967 H1981 0.958 . S
C1967 H1982 0.961 . S
C1967 H1983 0.960 . S
H1968 C1952 0.931 . S
H1969 C1957 0.929 . S
H1970 C1958 0.960 . S
H1971 C1958 0.962 . S
H1972 C1958 0.960 . S
H1973 C1959 0.961 . S
H1974 C1959 0.961 . S
H1975 C1959 0.961 . S
H1976 C1960 0.931 . S
H1977 C1965 0.930 . S
H1978 C1966 0.956 . S
H1979 C1966 0.961 . S
H1980 C1966 0.961 . S
H1981 C1967 0.958 . S
H1982 C1967 0.961 . S
H1983 C1967 0.960 . S
C1984 C1985 1.391 . S
C1984 C1986 1.394 . S
C1984 H2000 0.931 . S
C1985 C1984 1.391 . S
C1985 C1989 1.376 . S
C1986 C1984 1.394 . S
C1986 C1987 1.369 . S
C1986 C1990 1.531 . S
C1987 C1986 1.369 . S
C1987 C1988 1.410 . S
C1987 C1995 1.503 . S
C1988 C1987 1.410 . S
C1988 C1989 1.392 . S
C1988 C1991 1.511 . S
C1989 C1985 1.376 . S
C1989 C1988 1.392 . S
C1989 H2001 0.929 . S
C1990 C1986 1.531 . S
C1990 H2002 0.960 . S
C1990 H2003 0.962 . S
C1990 H2004 0.960 . S
C1991 C1988 1.511 . S
C1991 H2005 0.961 . S
C1991 H2006 0.961 . S
C1991 H2007 0.961 . S
C1992 C1993 1.370 . S
C1992 C1994 1.363 . S
C1992 H2008 0.931 . S
C1993 C1992 1.370 . S
C1993 C1997 1.408 . S
C1994 C1992 1.363 . S
C1994 C1995 1.370 . S
C1994 C1998 1.524 . S
C1995 C1987 1.503 . S
C1995 C1994 1.370 . S
C1995 C1996 1.403 . S
C1996 C1995 1.403 . S
C1996 C1997 1.404 . S
C1996 C1999 1.539 . S
C1997 C1993 1.408 . S
C1997 C1996 1.404 . S
C1997 H2009 0.930 . S
C1998 C1994 1.524 . S
C1998 H2010 0.956 . S
C1998 H2011 0.961 . S
C1998 H2012 0.961 . S
C1999 C1996 1.539 . S
C1999 H2013 0.958 . S
C1999 H2014 0.961 . S
C1999 H2015 0.960 . S
H2000 C1984 0.931 . S
H2001 C1989 0.929 . S
H2002 C1990 0.960 . S
H2003 C1990 0.962 . S
H2004 C1990 0.960 . S
H2005 C1991 0.961 . S
H2006 C1991 0.961 . S
H2007 C1991 0.961 . S
H2008 C1992 0.931 . S
H2009 C1997 0.930 . S
H2010 C1998 0.956 . S
H2011 C1998 0.961 . S
H2012 C1998 0.961 . S
H2013 C1999 0.958 . S
H2014 C1999 0.961 . S
H2015 C1999 0.960 . S
C2016 C2017 1.391 . S
C2016 C2018 1.394 . S
C2016 H2032 0.931 . S
C2017 C2016 1.391 . S
C2017 C2021 1.376 . S
C2018 C2016 1.394 . S
C2018 C2019 1.369 . S
C2018 C2022 1.531 . S
C2019 C2018 1.369 . S
C2019 C2020 1.410 . S
C2019 C2027 1.503 1_564 S
C2020 C2019 1.410 . S
C2020 C2021 1.392 . S
C2020 C2023 1.511 1_554 S
C2021 C2017 1.376 . S
C2021 C2020 1.392 . S
C2021 H2033 0.929 . S
C2022 C2018 1.531 . S
C2022 H2034 0.942 1_564 S
C2022 H2035 0.962 1_565 S
C2022 H2036 0.960 . S
C2023 C2020 1.511 1_556 S
C2023 H2037 0.961 . S
C2023 H2038 0.961 . S
C2023 H2039 0.961 . S
C2024 C2025 1.370 . S
C2024 C2026 1.363 1_556 S
C2024 H2040 0.961 . S
C2025 C2024 1.370 . S
C2025 C2029 1.408 . S
C2026 C2024 1.363 1_554 S
C2026 C2027 1.370 1_554 S
C2026 C2030 1.524 . S
C2027 C2019 1.503 1_546 S
C2027 C2026 1.370 1_556 S
C2027 C2028 1.403 . S
C2028 C2027 1.403 . S
C2028 C2029 1.404 . S
C2028 C2031 1.539 1_545 S
C2029 C2025 1.408 . S
C2029 C2028 1.404 . S
C2029 H2041 0.930 . S
C2030 C2026 1.524 . S
C2030 H2042 0.956 . S
C2030 H2043 0.961 . S
C2030 H2044 0.961 . S
C2031 C2028 1.539 1_565 S
C2031 H2045 0.958 . S
C2031 H2046 0.961 . S
C2031 H2047 0.960 . S
H2032 C2016 0.931 . S
H2033 C2021 0.929 . S
H2034 C2022 0.942 1_546 S
H2035 C2022 0.962 1_545 S
H2036 C2022 0.960 . S
H2037 C2023 0.961 . S
H2038 C2023 0.961 . S
H2039 C2023 0.961 . S
H2040 C2024 0.961 . S
H2041 C2029 0.930 . S
H2042 C2030 0.956 . S
H2043 C2030 0.961 . S
H2044 C2030 0.961 . S
H2045 C2031 0.958 . S
H2046 C2031 0.961 . S
H2047 C2031 0.960 . S
C2048 C2049 1.391 . S
C2048 C2050 1.394 . S
C2048 H2064 0.931 . S
C2049 C2048 1.391 . S
C2049 C2053 1.376 . S
C2050 C2048 1.394 . S
C2050 C2051 1.369 . S
C2050 C2054 1.531 . S
C2051 C2050 1.369 . S
C2051 C2052 1.410 . S
C2051 C2059 1.503 . S
C2052 C2051 1.410 . S
C2052 C2053 1.392 . S
C2052 C2055 1.511 . S
C2053 C2049 1.376 . S
C2053 C2052 1.392 . S
C2053 H2065 0.929 . S
C2054 C2050 1.531 . S
C2054 H2066 0.960 . S
C2054 H2067 0.962 . S
C2054 H2068 0.960 . S
C2055 C2052 1.511 . S
C2055 H2069 0.961 . S
C2055 H2070 0.961 . S
C2055 H2071 0.961 . S
C2056 C2057 1.370 . S
C2056 C2058 1.363 . S
C2056 H2072 0.931 . S
C2057 C2056 1.370 . S
C2057 C2061 1.408 . S
C2058 C2056 1.363 . S
C2058 C2059 1.370 . S
C2058 C2062 1.524 . S
C2059 C2051 1.503 . S
C2059 C2058 1.370 . S
C2059 C2060 1.403 . S
C2060 C2059 1.403 . S
C2060 C2061 1.404 . S
C2060 C2063 1.539 . S
C2061 C2057 1.408 . S
C2061 C2060 1.404 . S
C2061 H2073 0.930 . S
C2062 C2058 1.524 . S
C2062 H2074 0.956 . S
C2062 H2075 0.961 . S
C2062 H2076 0.961 . S
C2063 C2060 1.539 . S
C2063 H2077 0.958 . S
C2063 H2078 0.961 . S
C2063 H2079 0.960 . S
H2064 C2048 0.931 . S
H2065 C2053 0.929 . S
H2066 C2054 0.960 . S
H2067 C2054 0.962 . S
H2068 C2054 0.960 . S
H2069 C2055 0.961 . S
H2070 C2055 0.961 . S
H2071 C2055 0.961 . S
H2072 C2056 0.931 . S
H2073 C2061 0.930 . S
H2074 C2062 0.956 . S
H2075 C2062 0.961 . S
H2076 C2062 0.961 . S
H2077 C2063 0.958 . S
H2078 C2063 0.961 . S
H2079 C2063 0.960 . S
C2080 C2081 1.391 . S
C2080 C2082 1.394 . S
C2080 H2096 0.931 . S
C2081 C2080 1.391 . S
C2081 C2085 1.376 . S
C2082 C2080 1.394 . S
C2082 C2083 1.369 . S
C2082 C2086 1.531 . S
C2083 C2082 1.369 . S
C2083 C2084 1.410 . S
C2083 C2091 1.503 . S
C2084 C2083 1.410 . S
C2084 C2085 1.392 . S
C2084 C2087 1.511 . S
C2085 C2081 1.376 . S
C2085 C2084 1.392 . S
C2085 H2097 0.929 . S
C2086 C2082 1.531 . S
C2086 H2098 0.960 . S
C2086 H2099 0.962 . S
C2086 H2100 0.960 . S
C2087 C2084 1.511 . S
C2087 H2101 0.961 . S
C2087 H2102 0.961 . S
C2087 H2103 0.961 . S
C2088 C2089 1.370 . S
C2088 C2090 1.363 . S
C2088 H2104 0.931 . S
C2089 C2088 1.370 . S
C2089 C2093 1.408 . S
C2090 C2088 1.363 . S
C2090 C2091 1.370 . S
C2090 C2094 1.524 . S
C2091 C2083 1.503 . S
C2091 C2090 1.370 . S
C2091 C2092 1.403 . S
C2092 C2091 1.403 . S
C2092 C2093 1.404 . S
C2092 C2095 1.539 . S
C2093 C2089 1.408 . S
C2093 C2092 1.404 . S
C2093 H2105 0.930 . S
C2094 C2090 1.524 . S
C2094 H2106 0.956 . S
C2094 H2107 0.961 . S
C2094 H2108 0.961 . S
C2095 C2092 1.539 . S
C2095 H2109 0.958 . S
C2095 H2110 0.961 . S
C2095 H2111 0.960 . S
H2096 C2080 0.931 . S
H2097 C2085 0.929 . S
H2098 C2086 0.960 . S
H2099 C2086 0.962 . S
H2100 C2086 0.960 . S
H2101 C2087 0.961 . S
H2102 C2087 0.961 . S
H2103 C2087 0.961 . S
H2104 C2088 0.931 . S
H2105 C2093 0.930 . S
H2106 C2094 0.956 . S
H2107 C2094 0.961 . S
H2108 C2094 0.961 . S
H2109 C2095 0.958 . S
H2110 C2095 0.961 . S
H2111 C2095 0.960 . S
C2112 C2113 1.391 . S
C2112 C2114 1.394 . S
C2112 H2128 0.931 . S
C2113 C2112 1.391 . S
C2113 C2117 1.376 . S
C2114 C2112 1.394 . S
C2114 C2115 1.369 . S
C2114 C2118 1.531 . S
C2115 C2114 1.369 . S
C2115 C2116 1.410 . S
C2115 C2123 1.503 . S
C2116 C2115 1.410 . S
C2116 C2117 1.392 . S
C2116 C2119 1.511 . S
C2117 C2113 1.376 . S
C2117 C2116 1.392 . S
C2117 H2129 0.929 . S
C2118 C2114 1.531 . S
C2118 H2130 0.960 . S
C2118 H2131 0.962 . S
C2118 H2132 0.960 . S
C2119 C2116 1.511 . S
C2119 H2133 0.961 . S
C2119 H2134 0.961 . S
C2119 H2135 0.961 . S
C2120 C2121 1.370 . S
C2120 C2122 1.363 . S
C2120 H2136 0.931 . S
C2121 C2120 1.370 . S
C2121 C2125 1.408 . S
C2122 C2120 1.363 . S
C2122 C2123 1.370 . S
C2122 C2126 1.524 . S
C2123 C2115 1.503 . S
C2123 C2122 1.370 . S
C2123 C2124 1.403 . S
C2124 C2123 1.403 . S
C2124 C2125 1.404 . S
C2124 C2127 1.539 . S
C2125 C2121 1.408 . S
C2125 C2124 1.404 . S
C2125 H2137 0.930 . S
C2126 C2122 1.524 . S
C2126 H2138 0.956 . S
C2126 H2139 0.961 . S
C2126 H2140 0.961 . S
C2127 C2124 1.539 . S
C2127 H2141 0.958 . S
C2127 H2142 0.961 . S
C2127 H2143 0.960 . S
H2128 C2112 0.931 . S
H2129 C2117 0.929 . S
H2130 C2118 0.960 . S
H2131 C2118 0.962 . S
H2132 C2118 0.960 . S
H2133 C2119 0.961 . S
H2134 C2119 0.961 . S
H2135 C2119 0.961 . S
H2136 C2120 0.931 . S
H2137 C2125 0.930 . S
H2138 C2126 0.956 . S
H2139 C2126 0.961 . S
H2140 C2126 0.961 . S
H2141 C2127 0.958 . S
H2142 C2127 0.961 . S
H2143 C2127 0.960 . S
C2144 C2145 1.391 . S
C2144 C2146 1.394 . S
C2144 H2160 0.931 . S
C2145 C2144 1.391 . S
C2145 C2149 1.376 . S
C2146 C2144 1.394 . S
C2146 C2147 1.369 . S
C2146 C2150 1.531 . S
C2147 C2146 1.369 . S
C2147 C2148 1.410 . S
C2147 C2155 1.503 . S
C2148 C2147 1.410 . S
C2148 C2149 1.392 . S
C2148 C2151 1.511 . S
C2149 C2145 1.376 . S
C2149 C2148 1.392 . S
C2149 H2161 0.929 . S
C2150 C2146 1.531 . S
C2150 H2162 0.960 . S
C2150 H2163 0.962 . S
C2150 H2164 0.960 . S
C2151 C2148 1.511 . S
C2151 H2165 0.961 . S
C2151 H2166 0.961 . S
C2151 H2167 0.961 . S
C2152 C2153 1.370 . S
C2152 C2154 1.363 . S
C2152 H2168 0.931 . S
C2153 C2152 1.370 . S
C2153 C2157 1.408 . S
C2154 C2152 1.363 . S
C2154 C2155 1.370 . S
C2154 C2158 1.524 . S
C2155 C2147 1.503 . S
C2155 C2154 1.370 . S
C2155 C2156 1.403 . S
C2156 C2155 1.403 . S
C2156 C2157 1.404 . S
C2156 C2159 1.539 . S
C2157 C2153 1.408 . S
C2157 C2156 1.404 . S
C2157 H2169 0.930 . S
C2158 C2154 1.524 . S
C2158 H2170 0.956 . S
C2158 H2171 0.961 . S
C2158 H2172 0.961 . S
C2159 C2156 1.539 . S
C2159 H2173 0.958 . S
C2159 H2174 0.961 . S
C2159 H2175 0.960 . S
H2160 C2144 0.931 . S
H2161 C2149 0.929 . S
H2162 C2150 0.960 . S
H2163 C2150 0.962 . S
H2164 C2150 0.960 . S
H2165 C2151 0.961 . S
H2166 C2151 0.961 . S
H2167 C2151 0.961 . S
H2168 C2152 0.931 . S
H2169 C2157 0.930 . S
H2170 C2158 0.956 . S
H2171 C2158 0.961 . S
H2172 C2158 0.961 . S
H2173 C2159 0.958 . S
H2174 C2159 0.961 . S
H2175 C2159 0.960 . S
C2176 C2177 1.391 . S
C2176 C2178 1.394 . S
C2176 H2192 0.931 . S
C2177 C2176 1.391 . S
C2177 C2181 1.376 . S
C2178 C2176 1.394 . S
C2178 C2179 1.369 . S
C2178 C2182 1.531 . S
C2179 C2178 1.369 . S
C2179 C2180 1.410 . S
C2179 C2187 1.503 . S
C2180 C2179 1.410 . S
C2180 C2181 1.392 . S
C2180 C2183 1.511 . S
C2181 C2177 1.376 . S
C2181 C2180 1.392 . S
C2181 H2193 0.929 . S
C2182 C2178 1.531 . S
C2182 H2194 0.960 . S
C2182 H2195 0.962 . S
C2182 H2196 0.960 . S
C2183 C2180 1.511 . S
C2183 H2197 0.961 . S
C2183 H2198 0.961 . S
C2183 H2199 0.961 . S
C2184 C2185 1.370 . S
C2184 C2186 1.363 . S
C2184 H2200 0.931 . S
C2185 C2184 1.370 . S
C2185 C2189 1.408 . S
C2186 C2184 1.363 . S
C2186 C2187 1.370 . S
C2186 C2190 1.524 . S
C2187 C2179 1.503 . S
C2187 C2186 1.370 . S
C2187 C2188 1.403 . S
C2188 C2187 1.403 . S
C2188 C2189 1.404 . S
C2188 C2191 1.539 . S
C2189 C2185 1.408 . S
C2189 C2188 1.404 . S
C2189 H2201 0.930 . S
C2190 C2186 1.524 . S
C2190 H2202 0.956 . S
C2190 H2203 0.961 . S
C2190 H2204 0.961 . S
C2191 C2188 1.539 . S
C2191 H2205 0.958 . S
C2191 H2206 0.961 . S
C2191 H2207 0.960 . S
H2192 C2176 0.931 . S
H2193 C2181 0.929 . S
H2194 C2182 0.960 . S
H2195 C2182 0.962 . S
H2196 C2182 0.960 . S
H2197 C2183 0.961 . S
H2198 C2183 0.961 . S
H2199 C2183 0.961 . S
H2200 C2184 0.931 . S
H2201 C2189 0.930 . S
H2202 C2190 0.956 . S
H2203 C2190 0.961 . S
H2204 C2190 0.961 . S
H2205 C2191 0.958 . S
H2206 C2191 0.961 . S
H2207 C2191 0.960 . S
C2208 C2209 1.391 . S
C2208 C2210 1.394 . S
C2208 H2224 0.931 . S
C2209 C2208 1.391 . S
C2209 C2213 1.376 . S
C2210 C2208 1.394 . S
C2210 C2211 1.369 . S
C2210 C2214 1.531 . S
C2211 C2210 1.369 . S
C2211 C2212 1.410 . S
C2211 C2219 1.503 . S
C2212 C2211 1.410 . S
C2212 C2213 1.392 . S
C2212 C2215 1.511 . S
C2213 C2209 1.376 . S
C2213 C2212 1.392 . S
C2213 H2225 0.929 . S
C2214 C2210 1.531 . S
C2214 H2226 0.960 . S
C2214 H2227 0.962 . S
C2214 H2228 0.960 . S
C2215 C2212 1.511 . S
C2215 H2229 0.961 . S
C2215 H2230 0.961 . S
C2215 H2231 0.961 . S
C2216 C2217 1.370 . S
C2216 C2218 1.363 . S
C2216 H2232 0.931 . S
C2217 C2216 1.370 . S
C2217 C2221 1.408 . S
C2218 C2216 1.363 . S
C2218 C2219 1.370 . S
C2218 C2222 1.524 . S
C2219 C2211 1.503 . S
C2219 C2218 1.370 . S
C2219 C2220 1.403 . S
C2220 C2219 1.403 . S
C2220 C2221 1.404 . S
C2220 C2223 1.539 . S
C2221 C2217 1.408 . S
C2221 C2220 1.404 . S
C2221 H2233 0.930 . S
C2222 C2218 1.524 . S
C2222 H2234 0.956 . S
C2222 H2235 0.961 . S
C2222 H2236 0.961 . S
C2223 C2220 1.539 . S
C2223 H2237 0.958 . S
C2223 H2238 0.961 . S
C2223 H2239 0.960 . S
H2224 C2208 0.931 . S
H2225 C2213 0.929 . S
H2226 C2214 0.960 . S
H2227 C2214 0.962 . S
H2228 C2214 0.960 . S
H2229 C2215 0.961 . S
H2230 C2215 0.961 . S
H2231 C2215 0.961 . S
H2232 C2216 0.931 . S
H2233 C2221 0.930 . S
H2234 C2222 0.956 . S
H2235 C2222 0.961 . S
H2236 C2222 0.961 . S
H2237 C2223 0.958 . S
H2238 C2223 0.961 . S
H2239 C2223 0.960 . S
C2240 C2241 1.391 . S
C2240 C2242 1.394 . S
C2240 H2256 0.931 . S
C2241 C2240 1.391 . S
C2241 C2245 1.376 . S
C2242 C2240 1.394 . S
C2242 C2243 1.369 . S
C2242 C2246 1.531 . S
C2243 C2242 1.369 . S
C2243 C2244 1.410 . S
C2243 C2251 1.503 . S
C2244 C2243 1.410 . S
C2244 C2245 1.392 . S
C2244 C2247 1.511 . S
C2245 C2241 1.376 . S
C2245 C2244 1.392 . S
C2245 H2257 0.929 . S
C2246 C2242 1.531 . S
C2246 H2258 0.960 . S
C2246 H2259 0.962 . S
C2246 H2260 0.960 . S
C2247 C2244 1.511 . S
C2247 H2261 0.961 . S
C2247 H2262 0.961 . S
C2247 H2263 0.961 . S
C2248 C2249 1.370 . S
C2248 C2250 1.363 . S
C2248 H2264 0.931 . S
C2249 C2248 1.370 . S
C2249 C2253 1.408 . S
C2250 C2248 1.363 . S
C2250 C2251 1.370 . S
C2250 C2254 1.524 . S
C2251 C2243 1.503 . S
C2251 C2250 1.370 . S
C2251 C2252 1.403 . S
C2252 C2251 1.403 . S
C2252 C2253 1.404 . S
C2252 C2255 1.539 . S
C2253 C2249 1.408 . S
C2253 C2252 1.404 . S
C2253 H2265 0.930 . S
C2254 C2250 1.524 . S
C2254 H2266 0.956 . S
C2254 H2267 0.961 . S
C2254 H2268 0.961 . S
C2255 C2252 1.539 . S
C2255 H2269 0.958 . S
C2255 H2270 0.961 . S
C2255 H2271 0.960 . S
H2256 C2240 0.931 . S
H2257 C2245 0.929 . S
H2258 C2246 0.960 . S
H2259 C2246 0.962 . S
H2260 C2246 0.960 . S
H2261 C2247 0.961 . S
H2262 C2247 0.961 . S
H2263 C2247 0.961 . S
H2264 C2248 0.931 . S
H2265 C2253 0.930 . S
H2266 C2254 0.956 . S
H2267 C2254 0.961 . S
H2268 C2254 0.961 . S
H2269 C2255 0.958 . S
H2270 C2255 0.961 . S
H2271 C2255 0.960 . S
C2272 C2273 1.391 . S
C2272 C2274 1.394 . S
C2272 H2288 0.931 . S
C2273 C2272 1.391 . S
C2273 C2277 1.376 . S
C2274 C2272 1.394 . S
C2274 C2275 1.369 . S
C2274 C2278 1.531 . S
C2275 C2274 1.369 . S
C2275 C2276 1.410 . S
C2275 C2283 1.503 . S
C2276 C2275 1.410 . S
C2276 C2277 1.392 . S
C2276 C2279 1.511 . S
C2277 C2273 1.376 . S
C2277 C2276 1.392 . S
C2277 H2289 0.929 . S
C2278 C2274 1.531 . S
C2278 H2290 0.960 . S
C2278 H2291 0.962 . S
C2278 H2292 0.960 . S
C2279 C2276 1.511 . S
C2279 H2293 0.961 . S
C2279 H2294 0.961 . S
C2279 H2295 0.961 . S
C2280 C2281 1.370 . S
C2280 C2282 1.363 . S
C2280 H2296 0.931 . S
C2281 C2280 1.370 . S
C2281 C2285 1.408 . S
C2282 C2280 1.363 . S
C2282 C2283 1.370 . S
C2282 C2286 1.524 . S
C2283 C2275 1.503 . S
C2283 C2282 1.370 . S
C2283 C2284 1.403 . S
C2284 C2283 1.403 . S
C2284 C2285 1.404 . S
C2284 C2287 1.539 . S
C2285 C2281 1.408 . S
C2285 C2284 1.404 . S
C2285 H2297 0.930 . S
C2286 C2282 1.524 . S
C2286 H2298 0.956 . S
C2286 H2299 0.961 . S
C2286 H2300 0.961 . S
C2287 C2284 1.539 . S
C2287 H2301 0.958 . S
C2287 H2302 0.961 . S
C2287 H2303 0.960 . S
H2288 C2272 0.931 . S
H2289 C2277 0.929 . S
H2290 C2278 0.960 . S
H2291 C2278 0.962 . S
H2292 C2278 0.960 . S
H2293 C2279 0.961 . S
H2294 C2279 0.961 . S
H2295 C2279 0.961 . S
H2296 C2280 0.931 . S
H2297 C2285 0.930 . S
H2298 C2286 0.956 . S
H2299 C2286 0.961 . S
H2300 C2286 0.961 . S
H2301 C2287 0.958 . S
H2302 C2287 0.961 . S
H2303 C2287 0.960 . S
C2304 C2305 1.391 . S
C2304 C2306 1.394 . S
C2304 H2320 0.931 . S
C2305 C2304 1.391 . S
C2305 C2309 1.376 . S
C2306 C2304 1.394 . S
C2306 C2307 1.369 . S
C2306 C2310 1.531 . S
C2307 C2306 1.369 . S
C2307 C2308 1.410 . S
C2307 C2315 1.503 . S
C2308 C2307 1.410 . S
C2308 C2309 1.392 . S
C2308 C2311 1.511 . S
C2309 C2305 1.376 . S
C2309 C2308 1.392 . S
C2309 H2321 0.929 . S
C2310 C2306 1.531 . S
C2310 H2322 0.960 . S
C2310 H2323 0.962 . S
C2310 H2324 0.960 . S
C2311 C2308 1.511 . S
C2311 H2325 0.961 . S
C2311 H2326 0.961 . S
C2311 H2327 0.961 . S
C2312 C2313 1.370 . S
C2312 C2314 1.363 . S
C2312 H2328 0.931 . S
C2313 C2312 1.370 . S
C2313 C2317 1.408 . S
C2314 C2312 1.363 . S
C2314 C2315 1.370 . S
C2314 C2318 1.524 . S
C2315 C2307 1.503 . S
C2315 C2314 1.370 . S
C2315 C2316 1.403 . S
C2316 C2315 1.403 . S
C2316 C2317 1.404 . S
C2316 C2319 1.539 . S
C2317 C2313 1.408 . S
C2317 C2316 1.404 . S
C2317 H2329 0.930 . S
C2318 C2314 1.524 . S
C2318 H2330 0.956 . S
C2318 H2331 0.961 . S
C2318 H2332 0.961 . S
C2319 C2316 1.539 . S
C2319 H2333 0.958 . S
C2319 H2334 0.961 . S
C2319 H2335 0.960 . S
H2320 C2304 0.931 . S
H2321 C2309 0.929 . S
H2322 C2310 0.960 . S
H2323 C2310 0.962 . S
H2324 C2310 0.960 . S
H2325 C2311 0.961 . S
H2326 C2311 0.961 . S
H2327 C2311 0.961 . S
H2328 C2312 0.931 . S
H2329 C2317 0.930 . S
H2330 C2318 0.956 . S
H2331 C2318 0.961 . S
H2332 C2318 0.961 . S
H2333 C2319 0.958 . S
H2334 C2319 0.961 . S
H2335 C2319 0.960 . S
C2336 C2337 1.391 . S
C2336 C2338 1.394 . S
C2336 H2352 0.931 . S
C2337 C2336 1.391 . S
C2337 C2341 1.376 . S
C2338 C2336 1.394 . S
C2338 C2339 1.369 . S
C2338 C2342 1.531 . S
C2339 C2338 1.369 . S
C2339 C2340 1.410 . S
C2339 C2347 1.503 . S
C2340 C2339 1.410 . S
C2340 C2341 1.392 . S
C2340 C2343 1.511 . S
C2341 C2337 1.376 . S
C2341 C2340 1.392 . S
C2341 H2353 0.929 . S
C2342 C2338 1.531 . S
C2342 H2354 0.960 . S
C2342 H2355 0.962 . S
C2342 H2356 0.960 . S
C2343 C2340 1.511 . S
C2343 H2357 0.961 . S
C2343 H2358 0.961 . S
C2343 H2359 0.961 . S
C2344 C2345 1.370 . S
C2344 C2346 1.363 . S
C2344 H2360 0.931 . S
C2345 C2344 1.370 . S
C2345 C2349 1.408 . S
C2346 C2344 1.363 . S
C2346 C2347 1.370 . S
C2346 C2350 1.524 . S
C2347 C2339 1.503 . S
C2347 C2346 1.370 . S
C2347 C2348 1.403 . S
C2348 C2347 1.403 . S
C2348 C2349 1.404 . S
C2348 C2351 1.539 . S
C2349 C2345 1.408 . S
C2349 C2348 1.404 . S
C2349 H2361 0.930 . S
C2350 C2346 1.524 . S
C2350 H2362 0.956 . S
C2350 H2363 0.961 . S
C2350 H2364 0.961 . S
C2351 C2348 1.539 . S
C2351 H2365 0.958 . S
C2351 H2366 0.961 . S
C2351 H2367 0.960 . S
H2352 C2336 0.931 . S
H2353 C2341 0.929 . S
H2354 C2342 0.960 . S
H2355 C2342 0.962 . S
H2356 C2342 0.960 . S
H2357 C2343 0.961 . S
H2358 C2343 0.961 . S
H2359 C2343 0.961 . S
H2360 C2344 0.931 . S
H2361 C2349 0.930 . S
H2362 C2350 0.956 . S
H2363 C2350 0.961 . S
H2364 C2350 0.961 . S
H2365 C2351 0.958 . S
H2366 C2351 0.961 . S
H2367 C2351 0.960 . S
C2368 C2369 1.391 . S
C2368 C2370 1.394 . S
C2368 H2384 0.931 . S
C2369 C2368 1.391 . S
C2369 C2373 1.376 . S
C2370 C2368 1.394 . S
C2370 C2371 1.369 . S
C2370 C2374 1.531 . S
C2371 C2370 1.369 . S
C2371 C2372 1.410 . S
C2371 C2379 1.503 . S
C2372 C2371 1.410 . S
C2372 C2373 1.392 . S
C2372 C2375 1.511 . S
C2373 C2369 1.376 . S
C2373 C2372 1.392 . S
C2373 H2385 0.929 . S
C2374 C2370 1.531 . S
C2374 H2386 0.960 . S
C2374 H2387 0.962 . S
C2374 H2388 0.960 . S
C2375 C2372 1.511 . S
C2375 H2389 0.961 . S
C2375 H2390 0.961 . S
C2375 H2391 0.961 . S
C2376 C2377 1.370 . S
C2376 C2378 1.363 . S
C2376 H2392 0.931 . S
C2377 C2376 1.370 . S
C2377 C2381 1.408 . S
C2378 C2376 1.363 . S
C2378 C2379 1.370 . S
C2378 C2382 1.524 . S
C2379 C2371 1.503 . S
C2379 C2378 1.370 . S
C2379 C2380 1.403 . S
C2380 C2379 1.403 . S
C2380 C2381 1.404 . S
C2380 C2383 1.539 . S
C2381 C2377 1.408 . S
C2381 C2380 1.404 . S
C2381 H2393 0.930 . S
C2382 C2378 1.524 . S
C2382 H2394 0.956 . S
C2382 H2395 0.961 . S
C2382 H2396 0.961 . S
C2383 C2380 1.539 . S
C2383 H2397 0.958 . S
C2383 H2398 0.961 . S
C2383 H2399 0.960 . S
H2384 C2368 0.931 . S
H2385 C2373 0.929 . S
H2386 C2374 0.960 . S
H2387 C2374 0.962 . S
H2388 C2374 0.960 . S
H2389 C2375 0.961 . S
H2390 C2375 0.961 . S
H2391 C2375 0.961 . S
H2392 C2376 0.931 . S
H2393 C2381 0.930 . S
H2394 C2382 0.956 . S
H2395 C2382 0.961 . S
H2396 C2382 0.961 . S
H2397 C2383 0.958 . S
H2398 C2383 0.961 . S
H2399 C2383 0.960 . S
C2400 C2401 1.391 . S
C2400 C2402 1.394 . S
C2400 H2416 0.931 . S
C2401 C2400 1.391 . S
C2401 C2405 1.376 . S
C2402 C2400 1.394 . S
C2402 C2403 1.369 . S
C2402 C2406 1.531 . S
C2403 C2402 1.369 . S
C2403 C2404 1.410 1_556 S
C2403 C2411 1.503 1_556 S
C2404 C2403 1.410 1_554 S
C2404 C2405 1.392 1_554 S
C2404 C2407 1.511 . S
C2405 C2401 1.376 . S
C2405 C2404 1.392 1_556 S
C2405 H2417 0.929 . S
C2406 C2402 1.531 . S
C2406 H2418 0.960 . S
C2406 H2419 0.962 . S
C2406 H2420 0.960 . S
C2407 C2404 1.511 . S
C2407 H2421 0.961 . S
C2407 H2422 0.961 . S
C2407 H2423 0.961 . S
C2408 C2409 1.370 . S
C2408 C2410 1.363 . S
C2408 H2424 0.931 . S
C2409 C2408 1.370 . S
C2409 C2413 1.408 . S
C2410 C2408 1.363 . S
C2410 C2411 1.370 . S
C2410 C2414 1.524 . S
C2411 C2403 1.503 1_554 S
C2411 C2410 1.370 . S
C2411 C2412 1.403 . S
C2412 C2411 1.403 . S
C2412 C2413 1.404 . S
C2412 C2415 1.539 1_554 S
C2413 C2409 1.408 . S
C2413 C2412 1.404 . S
C2413 H2425 0.930 . S
C2414 C2410 1.524 . S
C2414 H2426 0.956 . S
C2414 H2427 0.961 . S
C2414 H2428 0.961 . S
C2415 C2412 1.539 1_556 S
C2415 H2429 0.958 . S
C2415 H2430 0.961 . S
C2415 H2431 0.960 . S
H2416 C2400 0.931 . S
H2417 C2405 0.929 . S
H2418 C2406 0.960 . S
H2419 C2406 0.962 . S
H2420 C2406 0.960 . S
H2421 C2407 0.961 . S
H2422 C2407 0.961 . S
H2423 C2407 0.961 . S
H2424 C2408 0.931 . S
H2425 C2413 0.930 . S
H2426 C2414 0.956 . S
H2427 C2414 0.961 . S
H2428 C2414 0.961 . S
H2429 C2415 0.958 . S
H2430 C2415 0.961 . S
H2431 C2415 0.960 . S
C2432 C2433 1.391 . S
C2432 C2434 1.394 . S
C2432 H2448 0.931 . S
C2433 C2432 1.391 . S
C2433 C2437 1.376 . S
C2434 C2432 1.394 . S
C2434 C2435 1.369 . S
C2434 C2438 1.531 . S
C2435 C2434 1.369 . S
C2435 C2436 1.410 . S
C2435 C2443 1.503 . S
C2436 C2435 1.410 . S
C2436 C2437 1.392 . S
C2436 C2439 1.511 . S
C2437 C2433 1.376 . S
C2437 C2436 1.392 . S
C2437 H2449 0.929 . S
C2438 C2434 1.531 . S
C2438 H2450 0.960 . S
C2438 H2451 0.962 . S
C2438 H2452 0.960 . S
C2439 C2436 1.511 . S
C2439 H2453 0.961 . S
C2439 H2454 0.961 . S
C2439 H2455 0.961 . S
C2440 C2441 1.370 . S
C2440 C2442 1.363 . S
C2440 H2456 0.931 . S
C2441 C2440 1.370 . S
C2441 C2445 1.408 . S
C2442 C2440 1.363 . S
C2442 C2443 1.370 . S
C2442 C2446 1.524 . S
C2443 C2435 1.503 . S
C2443 C2442 1.370 . S
C2443 C2444 1.403 . S
C2444 C2443 1.403 . S
C2444 C2445 1.404 . S
C2444 C2447 1.539 . S
C2445 C2441 1.408 . S
C2445 C2444 1.404 . S
C2445 H2457 0.930 . S
C2446 C2442 1.524 . S
C2446 H2458 0.956 . S
C2446 H2459 0.961 . S
C2446 H2460 0.961 . S
C2447 C2444 1.539 . S
C2447 H2461 0.958 . S
C2447 H2462 0.961 . S
C2447 H2463 0.960 . S
H2448 C2432 0.931 . S
H2449 C2437 0.929 . S
H2450 C2438 0.960 . S
H2451 C2438 0.962 . S
H2452 C2438 0.960 . S
H2453 C2439 0.961 . S
H2454 C2439 0.961 . S
H2455 C2439 0.961 . S
H2456 C2440 0.931 . S
H2457 C2445 0.930 . S
H2458 C2446 0.956 . S
H2459 C2446 0.961 . S
H2460 C2446 0.961 . S
H2461 C2447 0.958 . S
H2462 C2447 0.961 . S
H2463 C2447 0.960 . S
C2464 C2465 1.391 . S
C2464 C2466 1.394 . S
C2464 H2480 0.931 . S
C2465 C2464 1.391 . S
C2465 C2469 1.376 . S
C2466 C2464 1.394 . S
C2466 C2467 1.369 . S
C2466 C2470 1.531 . S
C2467 C2466 1.369 . S
C2467 C2468 1.410 . S
C2467 C2475 1.503 1_565 S
C2468 C2467 1.410 . S
C2468 C2469 1.392 . S
C2468 C2471 1.511 . S
C2469 C2465 1.376 . S
C2469 C2468 1.392 . S
C2469 H2481 0.929 . S
C2470 C2466 1.531 . S
C2470 H2482 0.960 . S
C2470 H2483 0.962 . S
C2470 H2484 0.960 . S
C2471 C2468 1.511 . S
C2471 H2485 0.961 . S
C2471 H2486 0.961 1_565 S
C2471 H2487 0.961 . S
C2472 C2473 1.370 . S
C2472 C2474 1.363 . S
C2472 H2488 0.931 . S
C2473 C2472 1.370 . S
C2473 C2477 1.408 . S
C2474 C2472 1.363 . S
C2474 C2475 1.370 . S
C2474 C2478 1.524 . S
C2475 C2467 1.503 1_545 S
C2475 C2474 1.370 . S
C2475 C2476 1.403 . S
C2476 C2475 1.403 . S
C2476 C2477 1.404 . S
C2476 C2479 1.539 1_545 S
C2477 C2473 1.408 . S
C2477 C2476 1.404 . S
C2477 H2489 0.930 . S
C2478 C2474 1.524 . S
C2478 H2490 0.956 . S
C2478 H2491 0.961 . S
C2478 H2492 0.961 . S
C2479 C2476 1.539 1_565 S
C2479 H2493 0.958 . S
C2479 H2494 0.961 . S
C2479 H2495 0.960 . S
H2480 C2464 0.931 . S
H2481 C2469 0.929 . S
H2482 C2470 0.960 . S
H2483 C2470 0.962 . S
H2484 C2470 0.960 . S
H2485 C2471 0.961 . S
H2486 C2471 0.961 1_545 S
H2487 C2471 0.961 . S
H2488 C2472 0.931 . S
H2489 C2477 0.930 . S
H2490 C2478 0.956 . S
H2491 C2478 0.961 . S
H2492 C2478 0.961 . S
H2493 C2479 0.958 . S
H2494 C2479 0.961 . S
H2495 C2479 0.960 . S
C2496 C2497 1.391 . S
C2496 C2498 1.394 . S
C2496 H2512 0.931 . S
C2497 C2496 1.391 . S
C2497 C2501 1.376 . S
C2498 C2496 1.394 . S
C2498 C2499 1.369 . S
C2498 C2502 1.531 . S
C2499 C2498 1.369 . S
C2499 C2500 1.410 . S
C2499 C2507 1.503 . S
C2500 C2499 1.410 . S
C2500 C2501 1.392 . S
C2500 C2503 1.511 . S
C2501 C2497 1.376 . S
C2501 C2500 1.392 . S
C2501 H2513 0.929 . S
C2502 C2498 1.531 . S
C2502 H2514 0.960 . S
C2502 H2515 0.962 . S
C2502 H2516 0.960 . S
C2503 C2500 1.511 . S
C2503 H2517 0.961 . S
C2503 H2518 0.961 . S
C2503 H2519 0.961 . S
C2504 C2505 1.370 . S
C2504 C2506 1.363 . S
C2504 H2520 0.931 . S
C2505 C2504 1.370 . S
C2505 C2509 1.408 . S
C2506 C2504 1.363 . S
C2506 C2507 1.370 . S
C2506 C2510 1.524 . S
C2507 C2499 1.503 . S
C2507 C2506 1.370 . S
C2507 C2508 1.403 . S
C2508 C2507 1.403 . S
C2508 C2509 1.404 . S
C2508 C2511 1.539 . S
C2509 C2505 1.408 . S
C2509 C2508 1.404 . S
C2509 H2521 0.930 . S
C2510 C2506 1.524 . S
C2510 H2522 0.956 . S
C2510 H2523 0.961 . S
C2510 H2524 0.961 . S
C2511 C2508 1.539 . S
C2511 H2525 0.958 . S
C2511 H2526 0.961 . S
C2511 H2527 0.960 . S
H2512 C2496 0.931 . S
H2513 C2501 0.929 . S
H2514 C2502 0.960 . S
H2515 C2502 0.962 . S
H2516 C2502 0.960 . S
H2517 C2503 0.961 . S
H2518 C2503 0.961 . S
H2519 C2503 0.961 . S
H2520 C2504 0.931 . S
H2521 C2509 0.930 . S
H2522 C2510 0.956 . S
H2523 C2510 0.961 . S
H2524 C2510 0.961 . S
H2525 C2511 0.958 . S
H2526 C2511 0.961 . S
H2527 C2511 0.960 . S
C2528 C2529 1.391 . S
C2528 C2530 1.394 . S
C2528 H2544 0.931 . S
C2529 C2528 1.391 . S
C2529 C2533 1.376 . S
C2530 C2528 1.394 . S
C2530 C2531 1.369 . S
C2530 C2534 1.531 . S
C2531 C2530 1.369 . S
C2531 C2532 1.410 . S
C2531 C2539 1.503 . S
C2532 C2531 1.410 . S
C2532 C2533 1.392 . S
C2532 C2535 1.511 . S
C2533 C2529 1.376 . S
C2533 C2532 1.392 . S
C2533 H2545 0.929 . S
C2534 C2530 1.531 . S
C2534 H2546 0.960 . S
C2534 H2547 0.962 . S
C2534 H2548 0.960 . S
C2535 C2532 1.511 . S
C2535 H2549 0.961 . S
C2535 H2550 0.961 . S
C2535 H2551 0.961 . S
C2536 C2537 1.370 . S
C2536 C2538 1.363 . S
C2536 H2552 0.931 . S
C2537 C2536 1.370 . S
C2537 C2541 1.408 . S
C2538 C2536 1.363 . S
C2538 C2539 1.370 . S
C2538 C2542 1.524 . S
C2539 C2531 1.503 . S
C2539 C2538 1.370 . S
C2539 C2540 1.403 . S
C2540 C2539 1.403 . S
C2540 C2541 1.404 . S
C2540 C2543 1.539 . S
C2541 C2537 1.408 . S
C2541 C2540 1.404 . S
C2541 H2553 0.930 . S
C2542 C2538 1.524 . S
C2542 H2554 0.956 . S
C2542 H2555 0.961 . S
C2542 H2556 0.961 . S
C2543 C2540 1.539 . S
C2543 H2557 0.958 . S
C2543 H2558 0.961 . S
C2543 H2559 0.960 . S
H2544 C2528 0.931 . S
H2545 C2533 0.929 . S
H2546 C2534 0.960 . S
H2547 C2534 0.962 . S
H2548 C2534 0.960 . S
H2549 C2535 0.961 . S
H2550 C2535 0.961 . S
H2551 C2535 0.961 . S
H2552 C2536 0.931 . S
H2553 C2541 0.930 . S
H2554 C2542 0.956 . S
H2555 C2542 0.961 . S
H2556 C2542 0.961 . S
H2557 C2543 0.958 . S
H2558 C2543 0.961 . S
H2559 C2543 0.960 . S
C2560 C2561 1.391 . S
C2560 C2562 1.394 . S
C2560 H2576 0.931 . S
C2561 C2560 1.391 . S
C2561 C2565 1.376 . S
C2562 C2560 1.394 . S
C2562 C2563 1.369 . S
C2562 C2566 1.531 . S
C2563 C2562 1.369 . S
C2563 C2564 1.410 . S
C2563 C2571 1.503 . S
C2564 C2563 1.410 . S
C2564 C2565 1.392 . S
C2564 C2567 1.511 . S
C2565 C2561 1.376 . S
C2565 C2564 1.392 . S
C2565 H2577 0.929 . S
C2566 C2562 1.531 . S
C2566 H2578 0.960 . S
C2566 H2579 0.962 . S
C2566 H2580 0.960 . S
C2567 C2564 1.511 . S
C2567 H2581 0.961 . S
C2567 H2582 0.961 . S
C2567 H2583 0.961 . S
C2568 C2569 1.370 . S
C2568 C2570 1.363 . S
C2568 H2584 0.931 . S
C2569 C2568 1.370 . S
C2569 C2573 1.408 . S
C2570 C2568 1.363 . S
C2570 C2571 1.370 . S
C2570 C2574 1.524 . S
C2571 C2563 1.503 . S
C2571 C2570 1.370 . S
C2571 C2572 1.403 . S
C2572 C2571 1.403 . S
C2572 C2573 1.404 . S
C2572 C2575 1.539 . S
C2573 C2569 1.408 . S
C2573 C2572 1.404 . S
C2573 H2585 0.930 . S
C2574 C2570 1.524 . S
C2574 H2586 0.956 . S
C2574 H2587 0.961 . S
C2574 H2588 0.961 . S
C2575 C2572 1.539 . S
C2575 H2589 0.958 . S
C2575 H2590 0.961 . S
C2575 H2591 0.960 . S
H2576 C2560 0.931 . S
H2577 C2565 0.929 . S
H2578 C2566 0.960 . S
H2579 C2566 0.962 . S
H2580 C2566 0.960 . S
H2581 C2567 0.961 . S
H2582 C2567 0.961 . S
H2583 C2567 0.961 . S
H2584 C2568 0.931 . S
H2585 C2573 0.930 . S
H2586 C2574 0.956 . S
H2587 C2574 0.961 . S
H2588 C2574 0.961 . S
H2589 C2575 0.958 . S
H2590 C2575 0.961 . S
H2591 C2575 0.960 . S
C2592 C2593 1.391 . S
C2592 C2594 1.394 . S
C2592 H2608 0.931 . S
C2593 C2592 1.391 . S
C2593 C2597 1.376 . S
C2594 C2592 1.394 . S
C2594 C2595 1.369 . S
C2594 C2598 1.531 1_556 S
C2595 C2594 1.369 . S
C2595 C2596 1.410 . S
C2595 C2603 1.503 1_556 S
C2596 C2595 1.410 . S
C2596 C2597 1.392 . S
C2596 C2599 1.511 . S
C2597 C2593 1.376 . S
C2597 C2596 1.392 . S
C2597 H2609 0.929 . S
C2598 C2594 1.531 1_554 S
C2598 H2610 0.960 . S
C2598 H2611 0.962 . S
C2598 H2612 0.960 . S
C2599 C2596 1.511 . S
C2599 H2613 0.961 . S
C2599 H2614 0.961 . S
C2599 H2615 0.961 . S
C2600 C2601 1.370 . S
C2600 C2602 1.363 . S
C2600 H2616 0.931 . S
C2601 C2600 1.370 . S
C2601 C2605 1.408 . S
C2602 C2600 1.363 . S
C2602 C2603 1.370 . S
C2602 C2606 1.524 . S
C2603 C2595 1.503 1_554 S
C2603 C2602 1.370 . S
C2603 C2604 1.403 . S
C2604 C2603 1.403 . S
C2604 C2605 1.404 . S
C2604 C2607 1.539 . S
C2605 C2601 1.408 . S
C2605 C2604 1.404 . S
C2605 H2617 0.930 . S
C2606 C2602 1.524 . S
C2606 H2618 0.956 . S
C2606 H2619 0.956 1_554 S
C2606 H2620 0.961 . S
C2607 C2604 1.539 . S
C2607 H2621 0.958 . S
C2607 H2622 0.961 . S
C2607 H2623 0.960 1_554 S
H2608 C2592 0.931 . S
H2609 C2597 0.929 . S
H2610 C2598 0.960 . S
H2611 C2598 0.962 . S
H2612 C2598 0.960 . S
H2613 C2599 0.961 . S
H2614 C2599 0.961 . S
H2615 C2599 0.961 . S
H2616 C2600 0.931 . S
H2617 C2605 0.930 . S
H2618 C2606 0.956 . S
H2619 C2606 0.956 1_556 S
H2620 C2606 0.961 . S
H2621 C2607 0.958 . S
H2622 C2607 0.961 . S
H2623 C2607 0.960 1_556 S
C2624 C2625 1.391 . S
C2624 C2626 1.394 . S
C2624 H2640 0.931 . S
C2625 C2624 1.391 . S
C2625 C2629 1.376 . S
C2626 C2624 1.394 . S
C2626 C2627 1.369 . S
C2626 C2630 1.531 . S
C2627 C2626 1.369 . S
C2627 C2628 1.410 . S
C2627 C2635 1.503 . S
C2628 C2627 1.410 . S
C2628 C2629 1.392 . S
C2628 C2631 1.511 . S
C2629 C2625 1.376 . S
C2629 C2628 1.392 . S
C2629 H2641 0.929 . S
C2630 C2626 1.531 . S
C2630 H2642 0.960 . S
C2630 H2643 0.962 . S
C2630 H2644 0.960 . S
C2631 C2628 1.511 . S
C2631 H2645 0.961 . S
C2631 H2646 0.961 . S
C2631 H2647 0.961 . S
C2632 C2633 1.370 . S
C2632 C2634 1.363 . S
C2632 H2648 0.931 . S
C2633 C2632 1.370 . S
C2633 C2637 1.408 . S
C2634 C2632 1.363 . S
C2634 C2635 1.370 . S
C2634 C2638 1.524 . S
C2635 C2627 1.503 . S
C2635 C2634 1.370 . S
C2635 C2636 1.403 . S
C2636 C2635 1.403 . S
C2636 C2637 1.404 . S
C2636 C2639 1.539 . S
C2637 C2633 1.408 . S
C2637 C2636 1.404 . S
C2637 H2649 0.930 . S
C2638 C2634 1.524 . S
C2638 H2650 0.956 . S
C2638 H2651 0.961 . S
C2638 H2652 0.961 . S
C2639 C2636 1.539 . S
C2639 H2653 0.958 . S
C2639 H2654 0.961 . S
C2639 H2655 0.960 . S
H2640 C2624 0.931 . S
H2641 C2629 0.929 . S
H2642 C2630 0.960 . S
H2643 C2630 0.962 . S
H2644 C2630 0.960 . S
H2645 C2631 0.961 . S
H2646 C2631 0.961 . S
H2647 C2631 0.961 . S
H2648 C2632 0.931 . S
H2649 C2637 0.930 . S
H2650 C2638 0.956 . S
H2651 C2638 0.961 . S
H2652 C2638 0.961 . S
H2653 C2639 0.958 . S
H2654 C2639 0.961 . S
H2655 C2639 0.960 . S
C2656 C2657 1.391 . S
C2656 C2658 1.394 . S
C2656 H2672 0.931 . S
C2657 C2656 1.391 . S
C2657 C2661 1.376 . S
C2658 C2656 1.394 . S
C2658 C2659 1.369 . S
C2658 C2662 1.531 . S
C2659 C2658 1.369 . S
C2659 C2660 1.410 . S
C2659 C2667 1.503 1_556 S
C2660 C2659 1.410 . S
C2660 C2661 1.392 . S
C2660 C2663 1.511 . S
C2661 C2657 1.376 . S
C2661 C2660 1.392 . S
C2661 H2673 0.929 . S
C2662 C2658 1.531 . S
C2662 H2674 0.960 . S
C2662 H2675 0.962 . S
C2662 H2676 0.960 . S
C2663 C2660 1.511 . S
C2663 H2677 0.961 . S
C2663 H2678 0.961 1_556 S
C2663 H2679 0.961 . S
C2664 C2665 1.370 . S
C2664 C2666 1.363 . S
C2664 H2680 0.931 . S
C2665 C2664 1.370 . S
C2665 C2669 1.408 . S
C2666 C2664 1.363 . S
C2666 C2667 1.370 . S
C2666 C2670 1.524 . S
C2667 C2659 1.503 1_554 S
C2667 C2666 1.370 . S
C2667 C2668 1.403 . S
C2668 C2667 1.403 . S
C2668 C2669 1.404 . S
C2668 C2671 1.539 1_554 S
C2669 C2665 1.408 . S
C2669 C2668 1.404 . S
C2669 H2681 0.930 . S
C2670 C2666 1.524 . S
C2670 H2682 0.956 . S
C2670 H2683 0.961 . S
C2670 H2684 0.961 . S
C2671 C2668 1.539 1_556 S
C2671 H2685 0.958 . S
C2671 H2686 0.961 . S
C2671 H2687 0.960 . S
H2672 C2656 0.931 . S
H2673 C2661 0.929 . S
H2674 C2662 0.960 . S
H2675 C2662 0.962 . S
H2676 C2662 0.960 . S
H2677 C2663 0.961 . S
H2678 C2663 0.961 1_554 S
H2679 C2663 0.961 . S
H2680 C2664 0.931 . S
H2681 C2669 0.930 . S
H2682 C2670 0.956 . S
H2683 C2670 0.961 . S
H2684 C2670 0.961 . S
H2685 C2671 0.958 . S
H2686 C2671 0.961 . S
H2687 C2671 0.960 . S
C2688 C2689 1.391 . S
C2688 C2690 1.394 . S
C2688 H2704 0.931 . S
C2689 C2688 1.391 . S
C2689 C2693 1.376 . S
C2690 C2688 1.394 . S
C2690 C2691 1.369 . S
C2690 C2694 1.552 . S
C2691 C2690 1.369 . S
C2691 C2692 1.410 . S
C2691 C2699 1.503 1_565 S
C2692 C2691 1.410 . S
C2692 C2693 1.392 . S
C2692 C2695 1.524 . S
C2693 C2689 1.376 . S
C2693 C2692 1.392 . S
C2693 H2705 0.929 . S
C2694 C2690 1.552 . S
C2694 H2706 0.900 1_565 S
C2694 H2707 1.010 . S
C2694 H2708 0.958 . S
C2695 C2692 1.524 . S
C2695 H2709 0.988 . S
C2695 H2710 0.958 1_565 S
C2695 H2711 0.925 1_565 S
C2696 C2697 1.370 . S
C2696 C2698 1.363 1_545 S
C2696 H2712 0.930 . S
C2697 C2696 1.370 . S
C2697 C2701 1.408 . S
C2698 C2696 1.363 1_565 S
C2698 C2699 1.370 1_565 S
C2698 C2702 1.524 . S
C2699 C2691 1.503 1_545 S
C2699 C2698 1.370 1_545 S
C2699 C2700 1.403 . S
C2700 C2699 1.403 . S
C2700 C2701 1.404 . S
C2700 C2703 1.539 . S
C2701 C2697 1.408 . S
C2701 C2700 1.404 . S
C2701 H2713 0.930 . S
C2702 C2698 1.524 . S
C2702 H2714 0.956 . S
C2702 H2715 0.961 . S
C2702 H2716 0.961 . S
C2703 C2700 1.539 . S
C2703 H2717 0.958 . S
C2703 H2718 0.961 . S
C2703 H2719 0.960 . S
H2704 C2688 0.931 . S
H2705 C2693 0.929 . S
H2706 C2694 0.900 1_545 S
H2707 C2694 1.010 . S
H2708 C2694 0.958 . S
H2709 C2695 0.988 . S
H2710 C2695 0.958 1_545 S
H2711 C2695 0.925 1_545 S
H2712 C2696 0.930 . S
H2713 C2701 0.930 . S
H2714 C2702 0.956 . S
H2715 C2702 0.961 . S
H2716 C2702 0.961 . S
H2717 C2703 0.958 . S
H2718 C2703 0.961 . S
H2719 C2703 0.960 . S
C2720 C2721 1.391 . S
C2720 C2722 1.394 . S
C2720 H2736 0.931 . S
C2721 C2720 1.391 . S
C2721 C2725 1.376 . S
C2722 C2720 1.394 . S
C2722 C2723 1.369 . S
C2722 C2726 1.531 . S
C2723 C2722 1.369 . S
C2723 C2724 1.410 . S
C2723 C2731 1.503 . S
C2724 C2723 1.410 . S
C2724 C2725 1.392 . S
C2724 C2727 1.511 . S
C2725 C2721 1.376 . S
C2725 C2724 1.392 . S
C2725 H2737 0.929 . S
C2726 C2722 1.531 . S
C2726 H2738 0.960 . S
C2726 H2739 0.962 . S
C2726 H2740 0.960 . S
C2727 C2724 1.511 . S
C2727 H2741 0.961 . S
C2727 H2742 0.961 . S
C2727 H2743 0.961 . S
C2728 C2729 1.370 . S
C2728 C2730 1.363 . S
C2728 H2744 0.931 . S
C2729 C2728 1.370 . S
C2729 C2733 1.408 . S
C2730 C2728 1.363 . S
C2730 C2731 1.370 . S
C2730 C2734 1.524 . S
C2731 C2723 1.503 . S
C2731 C2730 1.370 . S
C2731 C2732 1.403 . S
C2732 C2731 1.403 . S
C2732 C2733 1.404 . S
C2732 C2735 1.539 . S
C2733 C2729 1.408 . S
C2733 C2732 1.404 . S
C2733 H2745 0.930 . S
C2734 C2730 1.524 . S
C2734 H2746 0.956 . S
C2734 H2747 0.961 . S
C2734 H2748 0.961 . S
C2735 C2732 1.539 . S
C2735 H2749 0.958 . S
C2735 H2750 0.961 . S
C2735 H2751 0.960 . S
H2736 C2720 0.931 . S
H2737 C2725 0.929 . S
H2738 C2726 0.960 . S
H2739 C2726 0.962 . S
H2740 C2726 0.960 . S
H2741 C2727 0.961 . S
H2742 C2727 0.961 . S
H2743 C2727 0.961 . S
H2744 C2728 0.931 . S
H2745 C2733 0.930 . S
H2746 C2734 0.956 . S
H2747 C2734 0.961 . S
H2748 C2734 0.961 . S
H2749 C2735 0.958 . S
H2750 C2735 0.961 . S
H2751 C2735 0.960 . S
C2752 C2753 1.391 . S
C2752 C2754 1.394 1_565 S
C2752 H2768 0.931 . S
C2753 C2752 1.391 . S
C2753 C2757 1.376 . S
C2754 C2752 1.394 1_545 S
C2754 C2755 1.369 1_545 S
C2754 C2758 1.531 . S
C2755 C2754 1.369 1_565 S
C2755 C2756 1.410 . S
C2755 C2763 1.503 1_565 S
C2756 C2755 1.410 . S
C2756 C2757 1.392 . S
C2756 C2759 1.511 . S
C2757 C2753 1.376 . S
C2757 C2756 1.392 . S
C2757 H2769 0.929 . S
C2758 C2754 1.531 . S
C2758 H2770 0.960 . S
C2758 H2771 0.962 . S
C2758 H2772 0.960 . S
C2759 C2756 1.511 . S
C2759 H2773 0.961 . S
C2759 H2774 0.961 . S
C2759 H2775 0.961 . S
C2760 C2761 1.370 . S
C2760 C2762 1.363 . S
C2760 H2776 0.931 . S
C2761 C2760 1.370 . S
C2761 C2765 1.408 . S
C2762 C2760 1.363 . S
C2762 C2763 1.370 . S
C2762 C2766 1.524 . S
C2763 C2755 1.503 1_545 S
C2763 C2762 1.370 . S
C2763 C2764 1.403 . S
C2764 C2763 1.403 . S
C2764 C2765 1.404 . S
C2764 C2767 1.539 1_545 S
C2765 C2761 1.408 . S
C2765 C2764 1.404 . S
C2765 H2777 0.930 . S
C2766 C2762 1.524 . S
C2766 H2778 0.956 . S
C2766 H2779 0.961 1_545 S
C2766 H2780 0.961 . S
C2767 C2764 1.539 1_565 S
C2767 H2781 0.958 1_565 S
C2767 H2782 0.961 . S
C2767 H2783 0.960 . S
H2768 C2752 0.931 . S
H2769 C2757 0.929 . S
H2770 C2758 0.960 . S
H2771 C2758 0.962 . S
H2772 C2758 0.960 . S
H2773 C2759 0.961 . S
H2774 C2759 0.961 . S
H2775 C2759 0.961 . S
H2776 C2760 0.931 . S
H2777 C2765 0.930 . S
H2778 C2766 0.956 . S
H2779 C2766 0.961 1_565 S
H2780 C2766 0.961 . S
H2781 C2767 0.958 1_545 S
H2782 C2767 0.961 . S
H2783 C2767 0.960 . S
C2784 C2785 1.391 . S
C2784 C2786 1.394 . S
C2784 H2800 0.931 . S
C2785 C2784 1.391 . S
C2785 C2789 1.376 . S
C2786 C2784 1.394 . S
C2786 C2787 1.369 . S
C2786 C2790 1.531 . S
C2787 C2786 1.369 . S
C2787 C2788 1.410 . S
C2787 C2795 1.503 . S
C2788 C2787 1.410 . S
C2788 C2789 1.392 . S
C2788 C2791 1.511 . S
C2789 C2785 1.376 . S
C2789 C2788 1.392 . S
C2789 H2801 0.929 . S
C2790 C2786 1.531 . S
C2790 H2802 0.960 . S
C2790 H2803 0.962 . S
C2790 H2804 0.960 . S
C2791 C2788 1.511 . S
C2791 H2805 0.961 . S
C2791 H2806 0.961 . S
C2791 H2807 0.961 . S
C2792 C2793 1.370 . S
C2792 C2794 1.363 . S
C2792 H2808 0.931 . S
C2793 C2792 1.370 . S
C2793 C2797 1.408 . S
C2794 C2792 1.363 . S
C2794 C2795 1.370 . S
C2794 C2798 1.524 . S
C2795 C2787 1.503 . S
C2795 C2794 1.370 . S
C2795 C2796 1.403 . S
C2796 C2795 1.403 . S
C2796 C2797 1.404 . S
C2796 C2799 1.539 . S
C2797 C2793 1.408 . S
C2797 C2796 1.404 . S
C2797 H2809 0.930 . S
C2798 C2794 1.524 . S
C2798 H2810 0.956 . S
C2798 H2811 0.961 . S
C2798 H2812 0.961 . S
C2799 C2796 1.539 . S
C2799 H2813 0.958 . S
C2799 H2814 0.961 . S
C2799 H2815 0.960 . S
H2800 C2784 0.931 . S
H2801 C2789 0.929 . S
H2802 C2790 0.960 . S
H2803 C2790 0.962 . S
H2804 C2790 0.960 . S
H2805 C2791 0.961 . S
H2806 C2791 0.961 . S
H2807 C2791 0.961 . S
H2808 C2792 0.931 . S
H2809 C2797 0.930 . S
H2810 C2798 0.956 . S
H2811 C2798 0.961 . S
H2812 C2798 0.961 . S
H2813 C2799 0.958 . S
H2814 C2799 0.961 . S
H2815 C2799 0.960 . S
C2816 C2817 1.391 . S
C2816 C2818 1.394 . S
C2816 H2832 0.931 . S
C2817 C2816 1.391 . S
C2817 C2821 1.376 . S
C2818 C2816 1.394 . S
C2818 C2819 1.369 . S
C2818 C2822 1.531 . S
C2819 C2818 1.369 . S
C2819 C2820 1.410 . S
C2819 C2827 1.503 . S
C2820 C2819 1.410 . S
C2820 C2821 1.392 . S
C2820 C2823 1.511 . S
C2821 C2817 1.376 . S
C2821 C2820 1.392 . S
C2821 H2833 0.929 . S
C2822 C2818 1.531 . S
C2822 H2834 0.960 . S
C2822 H2835 0.962 . S
C2822 H2836 0.960 . S
C2823 C2820 1.511 . S
C2823 H2837 0.961 . S
C2823 H2838 0.961 . S
C2823 H2839 0.961 . S
C2824 C2825 1.370 . S
C2824 C2826 1.363 . S
C2824 H2840 0.931 . S
C2825 C2824 1.370 . S
C2825 C2829 1.408 . S
C2826 C2824 1.363 . S
C2826 C2827 1.370 . S
C2826 C2830 1.524 . S
C2827 C2819 1.503 . S
C2827 C2826 1.370 . S
C2827 C2828 1.403 . S
C2828 C2827 1.403 . S
C2828 C2829 1.404 . S
C2828 C2831 1.539 . S
C2829 C2825 1.408 . S
C2829 C2828 1.404 . S
C2829 H2841 0.930 . S
C2830 C2826 1.524 . S
C2830 H2842 0.956 . S
C2830 H2843 0.961 . S
C2830 H2844 0.961 . S
C2831 C2828 1.539 . S
C2831 H2845 0.958 . S
C2831 H2846 0.961 . S
C2831 H2847 0.960 . S
H2832 C2816 0.931 . S
H2833 C2821 0.929 . S
H2834 C2822 0.960 . S
H2835 C2822 0.962 . S
H2836 C2822 0.960 . S
H2837 C2823 0.961 . S
H2838 C2823 0.961 . S
H2839 C2823 0.961 . S
H2840 C2824 0.931 . S
H2841 C2829 0.930 . S
H2842 C2830 0.956 . S
H2843 C2830 0.961 . S
H2844 C2830 0.961 . S
H2845 C2831 0.958 . S
H2846 C2831 0.961 . S
H2847 C2831 0.960 . S
C2848 C2849 1.391 . S
C2848 C2850 1.394 . S
C2848 H2864 0.931 . S
C2849 C2848 1.391 . S
C2849 C2853 1.376 . S
C2850 C2848 1.394 . S
C2850 C2851 1.369 . S
C2850 C2854 1.531 . S
C2851 C2850 1.369 . S
C2851 C2852 1.410 . S
C2851 C2859 1.503 . S
C2852 C2851 1.410 . S
C2852 C2853 1.392 . S
C2852 C2855 1.511 . S
C2853 C2849 1.376 . S
C2853 C2852 1.392 . S
C2853 H2865 0.929 . S
C2854 C2850 1.531 . S
C2854 H2866 0.960 . S
C2854 H2867 0.962 . S
C2854 H2868 0.960 . S
C2855 C2852 1.511 . S
C2855 H2869 0.961 . S
C2855 H2870 0.961 . S
C2855 H2871 0.961 . S
C2856 C2857 1.370 . S
C2856 C2858 1.363 . S
C2856 H2872 0.931 . S
C2857 C2856 1.370 . S
C2857 C2861 1.408 . S
C2858 C2856 1.363 . S
C2858 C2859 1.370 . S
C2858 C2862 1.524 . S
C2859 C2851 1.503 . S
C2859 C2858 1.370 . S
C2859 C2860 1.403 . S
C2860 C2859 1.403 . S
C2860 C2861 1.404 . S
C2860 C2863 1.539 . S
C2861 C2857 1.408 . S
C2861 C2860 1.404 . S
C2861 H2873 0.930 . S
C2862 C2858 1.524 . S
C2862 H2874 0.956 . S
C2862 H2875 0.961 . S
C2862 H2876 0.961 . S
C2863 C2860 1.539 . S
C2863 H2877 0.958 . S
C2863 H2878 0.961 . S
C2863 H2879 0.960 . S
H2864 C2848 0.931 . S
H2865 C2853 0.929 . S
H2866 C2854 0.960 . S
H2867 C2854 0.962 . S
H2868 C2854 0.960 . S
H2869 C2855 0.961 . S
H2870 C2855 0.961 . S
H2871 C2855 0.961 . S
H2872 C2856 0.931 . S
H2873 C2861 0.930 . S
H2874 C2862 0.956 . S
H2875 C2862 0.961 . S
H2876 C2862 0.961 . S
H2877 C2863 0.958 . S
H2878 C2863 0.961 . S
H2879 C2863 0.960 . S
C2880 C2881 1.391 . S
C2880 C2882 1.394 1_455 S
C2880 H2896 0.931 . S
C2881 C2880 1.391 . S
C2881 C2885 1.376 . S
C2882 C2880 1.394 1_655 S
C2882 C2883 1.369 1_655 S
C2882 C2886 1.531 . S
C2883 C2882 1.369 1_455 S
C2883 C2884 1.410 . S
C2883 C2891 1.503 1_455 S
C2884 C2883 1.410 . S
C2884 C2885 1.392 . S
C2884 C2887 1.511 . S
C2885 C2881 1.376 . S
C2885 C2884 1.392 . S
C2885 H2897 0.929 . S
C2886 C2882 1.531 . S
C2886 H2898 0.960 . S
C2886 H2899 0.962 . S
C2886 H2900 0.960 . S
C2887 C2884 1.511 . S
C2887 H2901 0.961 . S
C2887 H2902 0.961 . S
C2887 H2903 0.961 . S
C2888 C2889 1.370 . S
C2888 C2890 1.363 . S
C2888 H2904 0.931 . S
C2889 C2888 1.370 . S
C2889 C2893 1.408 . S
C2890 C2888 1.363 . S
C2890 C2891 1.370 . S
C2890 C2894 1.524 . S
C2891 C2883 1.503 1_655 S
C2891 C2890 1.370 . S
C2891 C2892 1.403 . S
C2892 C2891 1.403 . S
C2892 C2893 1.404 . S
C2892 C2895 1.539 . S
C2893 C2889 1.408 . S
C2893 C2892 1.404 . S
C2893 H2905 0.930 . S
C2894 C2890 1.524 . S
C2894 H2906 0.956 . S
C2894 H2907 0.961 1_655 S
C2894 H2908 0.961 . S
C2895 C2892 1.539 . S
C2895 H2909 0.958 . S
C2895 H2910 0.961 . S
C2895 H2911 0.960 . S
H2896 C2880 0.931 . S
H2897 C2885 0.929 . S
H2898 C2886 0.960 . S
H2899 C2886 0.962 . S
H2900 C2886 0.960 . S
H2901 C2887 0.961 . S
H2902 C2887 0.961 . S
H2903 C2887 0.961 . S
H2904 C2888 0.931 . S
H2905 C2893 0.930 . S
H2906 C2894 0.956 . S
H2907 C2894 0.961 1_455 S
H2908 C2894 0.961 . S
H2909 C2895 0.958 . S
H2910 C2895 0.961 . S
H2911 C2895 0.960 . S
C2912 C2913 1.391 . S
C2912 C2914 1.394 . S
C2912 H2928 0.931 . S
C2913 C2912 1.391 . S
C2913 C2917 1.376 . S
C2914 C2912 1.394 . S
C2914 C2915 1.369 . S
C2914 C2918 1.531 1_655 S
C2915 C2914 1.369 . S
C2915 C2916 1.410 . S
C2915 C2923 1.503 1_655 S
C2916 C2915 1.410 . S
C2916 C2917 1.392 . S
C2916 C2919 1.511 . S
C2917 C2913 1.376 . S
C2917 C2916 1.392 . S
C2917 H2929 0.929 . S
C2918 C2914 1.531 1_455 S
C2918 H2930 0.960 . S
C2918 H2931 0.962 . S
C2918 H2932 0.960 . S
C2919 C2916 1.511 . S
C2919 H2933 0.961 . S
C2919 H2934 0.961 . S
C2919 H2935 0.961 . S
C2920 C2921 1.370 . S
C2920 C2922 1.363 . S
C2920 H2936 0.931 . S
C2921 C2920 1.370 . S
C2921 C2925 1.408 . S
C2922 C2920 1.363 . S
C2922 C2923 1.370 . S
C2922 C2926 1.524 . S
C2923 C2915 1.503 1_455 S
C2923 C2922 1.370 . S
C2923 C2924 1.403 . S
C2924 C2923 1.403 . S
C2924 C2925 1.404 . S
C2924 C2927 1.539 1_455 S
C2925 C2921 1.408 . S
C2925 C2924 1.404 . S
C2925 H2937 0.930 . S
C2926 C2922 1.524 . S
C2926 H2938 0.956 . S
C2926 H2939 0.961 1_455 S
C2926 H2940 0.961 . S
C2927 C2924 1.539 1_655 S
C2927 H2941 0.987 . S
C2927 H2942 0.961 . S
C2927 H2943 0.960 . S
H2928 C2912 0.931 . S
H2929 C2917 0.929 . S
H2930 C2918 0.960 . S
H2931 C2918 0.962 . S
H2932 C2918 0.960 . S
H2933 C2919 0.961 . S
H2934 C2919 0.961 . S
H2935 C2919 0.961 . S
H2936 C2920 0.931 . S
H2937 C2925 0.930 . S
H2938 C2926 0.956 . S
H2939 C2926 0.961 1_655 S
H2940 C2926 0.961 . S
H2941 C2927 0.987 . S
H2942 C2927 0.961 . S
H2943 C2927 0.960 . S
C2944 C2945 1.391 . S
C2944 C2946 1.394 . S
C2944 H2960 0.931 . S
C2945 C2944 1.391 . S
C2945 C2949 1.376 . S
C2946 C2944 1.394 . S
C2946 C2947 1.369 . S
C2946 C2950 1.531 . S
C2947 C2946 1.369 . S
C2947 C2948 1.410 . S
C2947 C2955 1.503 1_655 S
C2948 C2947 1.410 . S
C2948 C2949 1.392 . S
C2948 C2951 1.511 . S
C2949 C2945 1.376 . S
C2949 C2948 1.392 . S
C2949 H2961 0.929 . S
C2950 C2946 1.531 . S
C2950 H2962 0.960 1_655 S
C2950 H2963 0.962 1_655 S
C2950 H2964 0.960 . S
C2951 C2948 1.511 . S
C2951 H2965 0.961 . S
C2951 H2966 0.963 . S
C2951 H2967 0.961 . S
C2952 C2953 1.370 . S
C2952 C2954 1.363 . S
C2952 H2968 0.931 . S
C2953 C2952 1.370 . S
C2953 C2957 1.408 . S
C2954 C2952 1.363 . S
C2954 C2955 1.370 . S
C2954 C2958 1.524 . S
C2955 C2947 1.503 1_455 S
C2955 C2954 1.370 . S
C2955 C2956 1.420 . S
C2956 C2955 1.420 . S
C2956 C2957 1.437 . S
C2956 C2959 1.490 1_455 S
C2957 C2953 1.408 . S
C2957 C2956 1.437 . S
C2957 H2969 0.930 . S
C2958 C2954 1.524 . S
C2958 H2970 0.956 . S
C2958 H2971 0.961 . S
C2958 H2972 0.961 . S
C2959 C2956 1.490 1_655 S
C2959 H2973 0.958 . S
C2959 H2974 0.961 . S
C2959 H2975 0.960 . S
H2960 C2944 0.931 . S
H2961 C2949 0.929 . S
H2962 C2950 0.960 1_455 S
H2963 C2950 0.962 1_455 S
H2964 C2950 0.960 . S
H2965 C2951 0.961 . S
H2966 C2951 0.963 . S
H2967 C2951 0.961 . S
H2968 C2952 0.931 . S
H2969 C2957 0.930 . S
H2970 C2958 0.956 . S
H2971 C2958 0.961 . S
H2972 C2958 0.961 . S
H2973 C2959 0.958 . S
H2974 C2959 0.961 . S
H2975 C2959 0.960 . S
C2976 C2977 1.391 . S
C2976 C2978 1.394 1_655 S
C2976 H2992 0.931 . S
C2977 C2976 1.391 . S
C2977 C2981 1.376 . S
C2978 C2976 1.394 1_455 S
C2978 C2979 1.369 1_455 S
C2978 C2982 1.531 . S
C2979 C2978 1.369 1_655 S
C2979 C2980 1.410 . S
C2979 C2987 1.503 1_655 S
C2980 C2979 1.410 . S
C2980 C2981 1.392 . S
C2980 C2983 1.511 . S
C2981 C2977 1.376 . S
C2981 C2980 1.392 . S
C2981 H2993 0.929 . S
C2982 C2978 1.531 . S
C2982 H2994 0.960 . S
C2982 H2995 0.962 . S
C2982 H2996 0.960 . S
C2983 C2980 1.511 . S
C2983 H2997 0.961 . S
C2983 H2998 0.961 . S
C2983 H2999 0.961 . S
C2984 C2985 1.370 . S
C2984 C2986 1.363 . S
C2984 H3000 0.931 . S
C2985 C2984 1.370 . S
C2985 C2989 1.408 . S
C2986 C2984 1.363 . S
C2986 C2987 1.370 . S
C2986 C2990 1.524 . S
C2987 C2979 1.503 1_455 S
C2987 C2986 1.370 . S
C2987 C2988 1.403 . S
C2988 C2987 1.403 . S
C2988 C2989 1.404 . S
C2988 C2991 1.539 1_455 S
C2989 C2985 1.408 . S
C2989 C2988 1.404 . S
C2989 H3001 0.930 . S
C2990 C2986 1.524 . S
C2990 H3002 0.956 . S
C2990 H3003 0.961 . S
C2990 H3004 0.961 . S
C2991 C2988 1.539 1_655 S
C2991 H3005 0.958 1_655 S
C2991 H3006 0.961 . S
C2991 H3007 0.960 . S
H2992 C2976 0.931 . S
H2993 C2981 0.929 . S
H2994 C2982 0.960 . S
H2995 C2982 0.962 . S
H2996 C2982 0.960 . S
H2997 C2983 0.961 . S
H2998 C2983 0.961 . S
H2999 C2983 0.961 . S
H3000 C2984 0.931 . S
H3001 C2989 0.930 . S
H3002 C2990 0.956 . S
H3003 C2990 0.961 . S
H3004 C2990 0.961 . S
H3005 C2991 0.958 1_455 S
H3006 C2991 0.961 . S
H3007 C2991 0.960 . S
C3008 C3009 1.391 . S
C3008 C3010 1.394 . S
C3008 H3024 0.931 . S
C3009 C3008 1.391 . S
C3009 C3013 1.376 . S
C3010 C3008 1.394 . S
C3010 C3011 1.369 . S
C3010 C3014 1.531 . S
C3011 C3010 1.369 . S
C3011 C3012 1.410 . S
C3011 C3019 1.503 1_455 S
C3012 C3011 1.410 . S
C3012 C3013 1.392 . S
C3012 C3015 1.511 1_455 S
C3013 C3009 1.376 . S
C3013 C3012 1.392 . S
C3013 H3025 0.929 . S
C3014 C3010 1.531 . S
C3014 H3026 0.960 . S
C3014 H3027 0.962 . S
C3014 H3028 0.960 . S
C3015 C3012 1.511 1_655 S
C3015 H3029 0.961 . S
C3015 H3030 0.961 . S
C3015 H3031 0.961 . S
C3016 C3017 1.370 . S
C3016 C3018 1.363 . S
C3016 H3032 0.931 . S
C3017 C3016 1.370 . S
C3017 C3021 1.408 . S
C3018 C3016 1.363 . S
C3018 C3019 1.370 . S
C3018 C3022 1.524 . S
C3019 C3011 1.503 1_655 S
C3019 C3018 1.370 . S
C3019 C3020 1.403 . S
C3020 C3019 1.403 . S
C3020 C3021 1.404 . S
C3020 C3023 1.539 1_655 S
C3021 C3017 1.408 . S
C3021 C3020 1.404 . S
C3021 H3033 0.930 . S
C3022 C3018 1.524 . S
C3022 H3034 0.956 . S
C3022 H3035 0.961 . S
C3022 H3036 0.961 . S
C3023 C3020 1.539 1_455 S
C3023 H3037 0.958 . S
C3023 H3038 0.961 . S
C3023 H3039 0.960 . S
H3024 C3008 0.931 . S
H3025 C3013 0.929 . S
H3026 C3014 0.960 . S
H3027 C3014 0.962 . S
H3028 C3014 0.960 . S
H3029 C3015 0.961 . S
H3030 C3015 0.961 . S
H3031 C3015 0.961 . S
H3032 C3016 0.931 . S
H3033 C3021 0.930 . S
H3034 C3022 0.956 . S
H3035 C3022 0.961 . S
H3036 C3022 0.961 . S
H3037 C3023 0.958 . S
H3038 C3023 0.961 . S
H3039 C3023 0.960 . S
C3040 C3041 1.391 . S
C3040 C3042 1.394 . S
C3040 H3056 0.931 . S
C3041 C3040 1.391 . S
C3041 C3045 1.376 . S
C3042 C3040 1.394 . S
C3042 C3043 1.369 . S
C3042 C3046 1.531 . S
C3043 C3042 1.369 . S
C3043 C3044 1.410 . S
C3043 C3051 1.503 . S
C3044 C3043 1.410 . S
C3044 C3045 1.392 . S
C3044 C3047 1.511 . S
C3045 C3041 1.376 . S
C3045 C3044 1.392 . S
C3045 H3057 0.929 . S
C3046 C3042 1.531 . S
C3046 H3058 0.960 . S
C3046 H3059 0.962 . S
C3046 H3060 0.960 . S
C3047 C3044 1.511 . S
C3047 H3061 0.961 . S
C3047 H3062 0.961 . S
C3047 H3063 0.961 . S
C3048 C3049 1.370 . S
C3048 C3050 1.363 . S
C3048 H3064 0.931 . S
C3049 C3048 1.370 . S
C3049 C3053 1.408 . S
C3050 C3048 1.363 . S
C3050 C3051 1.370 . S
C3050 C3054 1.524 . S
C3051 C3043 1.503 . S
C3051 C3050 1.370 . S
C3051 C3052 1.403 . S
C3052 C3051 1.403 . S
C3052 C3053 1.404 . S
C3052 C3055 1.539 . S
C3053 C3049 1.408 . S
C3053 C3052 1.404 . S
C3053 H3065 0.930 . S
C3054 C3050 1.524 . S
C3054 H3066 0.956 . S
C3054 H3067 0.961 . S
C3054 H3068 0.961 . S
C3055 C3052 1.539 . S
C3055 H3069 0.958 . S
C3055 H3070 0.961 . S
C3055 H3071 0.960 . S
H3056 C3040 0.931 . S
H3057 C3045 0.929 . S
H3058 C3046 0.960 . S
H3059 C3046 0.962 . S
H3060 C3046 0.960 . S
H3061 C3047 0.961 . S
H3062 C3047 0.961 . S
H3063 C3047 0.961 . S
H3064 C3048 0.931 . S
H3065 C3053 0.930 . S
H3066 C3054 0.956 . S
H3067 C3054 0.961 . S
H3068 C3054 0.961 . S
H3069 C3055 0.958 . S
H3070 C3055 0.961 . S
H3071 C3055 0.960 . S
C3072 C3073 1.391 . S
C3072 C3074 1.394 1_655 S
C3072 H3088 0.931 . S
C3073 C3072 1.391 . S
C3073 C3077 1.376 . S
C3074 C3072 1.394 1_455 S
C3074 C3075 1.369 1_455 S
C3074 C3078 1.531 . S
C3075 C3074 1.369 1_655 S
C3075 C3076 1.410 . S
C3075 C3083 1.503 1_655 S
C3076 C3075 1.410 . S
C3076 C3077 1.392 . S
C3076 C3079 1.511 . S
C3077 C3073 1.376 . S
C3077 C3076 1.392 . S
C3077 H3089 0.929 . S
C3078 C3074 1.531 . S
C3078 H3090 0.960 . S
C3078 H3091 0.962 . S
C3078 H3092 0.960 . S
C3079 C3076 1.511 . S
C3079 H3093 0.961 . S
C3079 H3094 0.961 . S
C3079 H3095 0.961 . S
C3080 C3081 1.370 . S
C3080 C3082 1.363 . S
C3080 H3096 0.931 . S
C3081 C3080 1.370 . S
C3081 C3085 1.408 . S
C3082 C3080 1.363 . S
C3082 C3083 1.370 . S
C3082 C3086 1.524 1_455 S
C3083 C3075 1.503 1_455 S
C3083 C3082 1.370 . S
C3083 C3084 1.403 . S
C3084 C3083 1.403 . S
C3084 C3085 1.404 . S
C3084 C3087 1.539 . S
C3085 C3081 1.408 . S
C3085 C3084 1.404 . S
C3085 H3097 0.930 . S
C3086 C3082 1.524 1_655 S
C3086 H3098 0.956 1_655 S
C3086 H3099 0.961 . S
C3086 H3100 0.961 . S
C3087 C3084 1.539 . S
C3087 H3101 0.958 . S
C3087 H3102 0.961 . S
C3087 H3103 0.960 . S
H3088 C3072 0.931 . S
H3089 C3077 0.929 . S
H3090 C3078 0.960 . S
H3091 C3078 0.962 . S
H3092 C3078 0.960 . S
H3093 C3079 0.961 . S
H3094 C3079 0.961 . S
H3095 C3079 0.961 . S
H3096 C3080 0.931 . S
H3097 C3085 0.930 . S
H3098 C3086 0.956 1_455 S
H3099 C3086 0.961 . S
H3100 C3086 0.961 . S
H3101 C3087 0.958 . S
H3102 C3087 0.961 . S
H3103 C3087 0.960 . S
C3104 C3105 1.391 . S
C3104 C3106 1.394 . S
C3104 H3120 0.931 . S
C3105 C3104 1.391 . S
C3105 C3109 1.376 . S
C3106 C3104 1.394 . S
C3106 C3107 1.369 . S
C3106 C3110 1.531 . S
C3107 C3106 1.369 . S
C3107 C3108 1.410 . S
C3107 C3115 1.503 . S
C3108 C3107 1.410 . S
C3108 C3109 1.392 . S
C3108 C3111 1.511 . S
C3109 C3105 1.376 . S
C3109 C3108 1.392 . S
C3109 H3121 0.929 . S
C3110 C3106 1.531 . S
C3110 H3122 0.960 . S
C3110 H3123 0.962 . S
C3110 H3124 0.960 . S
C3111 C3108 1.511 . S
C3111 H3125 0.961 . S
C3111 H3126 0.961 . S
C3111 H3127 0.961 . S
C3112 C3113 1.370 . S
C3112 C3114 1.363 . S
C3112 H3128 0.931 . S
C3113 C3112 1.370 . S
C3113 C3117 1.408 . S
C3114 C3112 1.363 . S
C3114 C3115 1.370 . S
C3114 C3118 1.524 . S
C3115 C3107 1.503 . S
C3115 C3114 1.370 . S
C3115 C3116 1.403 . S
C3116 C3115 1.403 . S
C3116 C3117 1.404 . S
C3116 C3119 1.539 . S
C3117 C3113 1.408 . S
C3117 C3116 1.404 . S
C3117 H3129 0.930 . S
C3118 C3114 1.524 . S
C3118 H3130 0.956 . S
C3118 H3131 0.961 . S
C3118 H3132 0.961 . S
C3119 C3116 1.539 . S
C3119 H3133 0.958 . S
C3119 H3134 0.961 . S
C3119 H3135 0.960 . S
H3120 C3104 0.931 . S
H3121 C3109 0.929 . S
H3122 C3110 0.960 . S
H3123 C3110 0.962 . S
H3124 C3110 0.960 . S
H3125 C3111 0.961 . S
H3126 C3111 0.961 . S
H3127 C3111 0.961 . S
H3128 C3112 0.931 . S
H3129 C3117 0.930 . S
H3130 C3118 0.956 . S
H3131 C3118 0.961 . S
H3132 C3118 0.961 . S
H3133 C3119 0.958 . S
H3134 C3119 0.961 . S
H3135 C3119 0.960 . S
C3136 C3137 1.391 . S
C3136 C3138 1.394 . S
C3136 H3152 0.931 . S
C3137 C3136 1.391 . S
C3137 C3141 1.376 . S
C3138 C3136 1.394 . S
C3138 C3139 1.366 . S
C3138 C3142 1.531 . S
C3139 C3138 1.366 . S
C3139 C3140 1.409 . S
C3139 C3147 1.506 1_545 S
C3140 C3139 1.409 . S
C3140 C3141 1.426 . S
C3140 C3143 1.482 1_545 S
C3141 C3137 1.376 . S
C3141 C3140 1.426 . S
C3141 H3153 0.929 . S
C3142 C3138 1.531 . S
C3142 H3154 0.960 1_545 S
C3142 H3155 0.962 . S
C3142 H3156 0.960 . S
C3143 C3140 1.482 1_565 S
C3143 H3157 0.961 . S
C3143 H3158 0.961 . S
C3143 H3159 0.961 . S
C3144 C3145 1.370 . S
C3144 C3146 1.363 . S
C3144 H3160 0.931 . S
C3145 C3144 1.370 . S
C3145 C3149 1.408 . S
C3146 C3144 1.363 . S
C3146 C3147 1.370 . S
C3146 C3150 1.524 1_565 S
C3147 C3139 1.506 1_565 S
C3147 C3146 1.370 . S
C3147 C3148 1.403 . S
C3148 C3147 1.403 . S
C3148 C3149 1.404 . S
C3148 C3151 1.539 . S
C3149 C3145 1.408 . S
C3149 C3148 1.404 . S
C3149 H3161 0.930 . S
C3150 C3146 1.524 1_545 S
C3150 H3162 0.956 . S
C3150 H3163 0.961 . S
C3150 H3164 0.961 . S
C3151 C3148 1.539 . S
C3151 H3165 0.958 . S
C3151 H3166 0.961 . S
C3151 H3167 0.960 . S
H3152 C3136 0.931 . S
H3153 C3141 0.929 . S
H3154 C3142 0.960 1_565 S
H3155 C3142 0.962 . S
H3156 C3142 0.960 . S
H3157 C3143 0.961 . S
H3158 C3143 0.961 . S
H3159 C3143 0.961 . S
H3160 C3144 0.931 . S
H3161 C3149 0.930 . S
H3162 C3150 0.956 . S
H3163 C3150 0.961 . S
H3164 C3150 0.961 . S
H3165 C3151 0.958 . S
H3166 C3151 0.961 . S
H3167 C3151 0.960 . S
C3168 C3169 1.391 . S
C3168 C3170 1.394 . S
C3168 H3184 0.931 . S
C3169 C3168 1.391 . S
C3169 C3173 1.376 . S
C3170 C3168 1.394 . S
C3170 C3171 1.369 . S
C3170 C3174 1.531 . S
C3171 C3170 1.369 . S
C3171 C3172 1.410 . S
C3171 C3179 1.503 . S
C3172 C3171 1.410 . S
C3172 C3173 1.392 . S
C3172 C3175 1.511 . S
C3173 C3169 1.376 . S
C3173 C3172 1.392 . S
C3173 H3185 0.929 . S
C3174 C3170 1.531 . S
C3174 H3186 0.960 . S
C3174 H3187 0.962 . S
C3174 H3188 0.960 . S
C3175 C3172 1.511 . S
C3175 H3189 0.961 . S
C3175 H3190 0.961 . S
C3175 H3191 0.961 . S
C3176 C3177 1.370 . S
C3176 C3178 1.363 . S
C3176 H3192 0.931 . S
C3177 C3176 1.370 . S
C3177 C3181 1.408 . S
C3178 C3176 1.363 . S
C3178 C3179 1.370 . S
C3178 C3182 1.524 . S
C3179 C3171 1.503 . S
C3179 C3178 1.370 . S
C3179 C3180 1.403 . S
C3180 C3179 1.403 . S
C3180 C3181 1.404 . S
C3180 C3183 1.539 . S
C3181 C3177 1.408 . S
C3181 C3180 1.404 . S
C3181 H3193 0.930 . S
C3182 C3178 1.524 . S
C3182 H3194 0.956 . S
C3182 H3195 0.961 . S
C3182 H3196 0.961 . S
C3183 C3180 1.539 . S
C3183 H3197 0.958 . S
C3183 H3198 0.961 . S
C3183 H3199 0.960 . S
H3184 C3168 0.931 . S
H3185 C3173 0.929 . S
H3186 C3174 0.960 . S
H3187 C3174 0.962 . S
H3188 C3174 0.960 . S
H3189 C3175 0.961 . S
H3190 C3175 0.961 . S
H3191 C3175 0.961 . S
H3192 C3176 0.931 . S
H3193 C3181 0.930 . S
H3194 C3182 0.956 . S
H3195 C3182 0.961 . S
H3196 C3182 0.961 . S
H3197 C3183 0.958 . S
H3198 C3183 0.961 . S
H3199 C3183 0.960 . S
C3200 C3201 1.391 . S
C3200 C3202 1.394 . S
C3200 H3216 0.931 . S
C3201 C3200 1.391 . S
C3201 C3205 1.376 . S
C3202 C3200 1.394 . S
C3202 C3203 1.369 . S
C3202 C3206 1.531 . S
C3203 C3202 1.369 . S
C3203 C3204 1.410 . S
C3203 C3211 1.503 . S
C3204 C3203 1.410 . S
C3204 C3205 1.392 . S
C3204 C3207 1.511 . S
C3205 C3201 1.376 . S
C3205 C3204 1.392 . S
C3205 H3217 0.929 . S
C3206 C3202 1.531 . S
C3206 H3218 0.960 . S
C3206 H3219 0.962 . S
C3206 H3220 0.960 . S
C3207 C3204 1.511 . S
C3207 H3221 0.961 . S
C3207 H3222 0.961 . S
C3207 H3223 0.961 . S
C3208 C3209 1.370 . S
C3208 C3210 1.363 . S
C3208 H3224 0.931 . S
C3209 C3208 1.370 . S
C3209 C3213 1.408 . S
C3210 C3208 1.363 . S
C3210 C3211 1.370 . S
C3210 C3214 1.524 . S
C3211 C3203 1.503 . S
C3211 C3210 1.370 . S
C3211 C3212 1.403 . S
C3212 C3211 1.403 . S
C3212 C3213 1.404 . S
C3212 C3215 1.539 . S
C3213 C3209 1.408 . S
C3213 C3212 1.404 . S
C3213 H3225 0.930 . S
C3214 C3210 1.524 . S
C3214 H3226 0.956 . S
C3214 H3227 0.961 . S
C3214 H3228 0.961 . S
C3215 C3212 1.539 . S
C3215 H3229 0.958 . S
C3215 H3230 0.961 . S
C3215 H3231 0.960 . S
H3216 C3200 0.931 . S
H3217 C3205 0.929 . S
H3218 C3206 0.960 . S
H3219 C3206 0.962 . S
H3220 C3206 0.960 . S
H3221 C3207 0.961 . S
H3222 C3207 0.961 . S
H3223 C3207 0.961 . S
H3224 C3208 0.931 . S
H3225 C3213 0.930 . S
H3226 C3214 0.956 . S
H3227 C3214 0.961 . S
H3228 C3214 0.961 . S
H3229 C3215 0.958 . S
H3230 C3215 0.961 . S
H3231 C3215 0.960 . S
C3232 C3233 1.391 . S
C3232 C3234 1.394 . S
C3232 H3248 0.931 . S
C3233 C3232 1.391 . S
C3233 C3237 1.376 . S
C3234 C3232 1.394 . S
C3234 C3235 1.369 . S
C3234 C3238 1.531 1_554 S
C3235 C3234 1.369 . S
C3235 C3236 1.410 . S
C3235 C3243 1.503 1_554 S
C3236 C3235 1.410 . S
C3236 C3237 1.392 . S
C3236 C3239 1.511 . S
C3237 C3233 1.376 . S
C3237 C3236 1.392 . S
C3237 H3249 0.929 . S
C3238 C3234 1.531 1_556 S
C3238 H3250 0.960 . S
C3238 H3251 0.962 . S
C3238 H3252 0.960 . S
C3239 C3236 1.511 . S
C3239 H3253 0.961 . S
C3239 H3254 0.961 . S
C3239 H3255 0.961 . S
C3240 C3241 1.370 . S
C3240 C3242 1.375 . S
C3240 H3256 0.931 . S
C3241 C3240 1.370 . S
C3241 C3245 1.408 . S
C3242 C3240 1.375 . S
C3242 C3243 1.376 . S
C3242 C3246 1.507 1_556 S
C3243 C3235 1.503 1_556 S
C3243 C3242 1.376 . S
C3243 C3244 1.403 . S
C3244 C3243 1.403 . S
C3244 C3245 1.404 . S
C3244 C3247 1.539 . S
C3245 C3241 1.408 . S
C3245 C3244 1.404 . S
C3245 H3257 0.930 . S
C3246 C3242 1.507 1_554 S
C3246 H3258 0.956 . S
C3246 H3259 0.961 . S
C3246 H3260 0.961 . S
C3247 C3244 1.539 . S
C3247 H3261 0.958 . S
C3247 H3262 0.961 . S
C3247 H3263 0.960 . S
H3248 C3232 0.931 . S
H3249 C3237 0.929 . S
H3250 C3238 0.960 . S
H3251 C3238 0.962 . S
H3252 C3238 0.960 . S
H3253 C3239 0.961 . S
H3254 C3239 0.961 . S
H3255 C3239 0.961 . S
H3256 C3240 0.931 . S
H3257 C3245 0.930 . S
H3258 C3246 0.956 . S
H3259 C3246 0.961 . S
H3260 C3246 0.961 . S
H3261 C3247 0.958 . S
H3262 C3247 0.961 . S
H3263 C3247 0.960 . S
C3264 C3265 1.391 . S
C3264 C3266 1.394 . S
C3264 H3280 0.931 . S
C3265 C3264 1.391 . S
C3265 C3269 1.376 . S
C3266 C3264 1.394 . S
C3266 C3267 1.369 . S
C3266 C3270 1.531 1_545 S
C3267 C3266 1.369 . S
C3267 C3268 1.410 . S
C3267 C3275 1.503 1_545 S
C3268 C3267 1.410 . S
C3268 C3269 1.392 . S
C3268 C3271 1.511 . S
C3269 C3265 1.376 . S
C3269 C3268 1.392 . S
C3269 H3281 0.929 . S
C3270 C3266 1.531 1_565 S
C3270 H3282 0.960 . S
C3270 H3283 0.962 . S
C3270 H3284 0.960 . S
C3271 C3268 1.511 . S
C3271 H3285 0.961 . S
C3271 H3286 0.961 . S
C3271 H3287 0.961 . S
C3272 C3273 1.370 . S
C3272 C3274 1.346 1_565 S
C3272 H3288 0.931 . S
C3273 C3272 1.370 . S
C3273 C3277 1.408 . S
C3274 C3272 1.346 1_545 S
C3274 C3275 1.362 1_545 S
C3274 C3278 1.551 . S
C3275 C3267 1.503 1_565 S
C3275 C3274 1.362 1_565 S
C3275 C3276 1.403 . S
C3276 C3275 1.403 . S
C3276 C3277 1.404 . S
C3276 C3279 1.539 . S
C3277 C3273 1.408 . S
C3277 C3276 1.404 . S
C3277 H3289 0.930 . S
C3278 C3274 1.551 . S
C3278 H3290 0.956 . S
C3278 H3291 0.961 . S
C3278 H3292 0.961 . S
C3279 C3276 1.539 . S
C3279 H3293 0.958 . S
C3279 H3294 0.961 . S
C3279 H3295 0.960 . S
H3280 C3264 0.931 . S
H3281 C3269 0.929 . S
H3282 C3270 0.960 . S
H3283 C3270 0.962 . S
H3284 C3270 0.960 . S
H3285 C3271 0.961 . S
H3286 C3271 0.961 . S
H3287 C3271 0.961 . S
H3288 C3272 0.931 . S
H3289 C3277 0.930 . S
H3290 C3278 0.956 . S
H3291 C3278 0.961 . S
H3292 C3278 0.961 . S
H3293 C3279 0.958 . S
H3294 C3279 0.961 . S
H3295 C3279 0.960 . S
C3296 C3297 1.391 . S
C3296 C3298 1.394 . S
C3296 H3312 0.931 . S
C3297 C3296 1.391 . S
C3297 C3301 1.376 . S
C3298 C3296 1.394 . S
C3298 C3299 1.369 . S
C3298 C3302 1.531 . S
C3299 C3298 1.369 . S
C3299 C3300 1.410 . S
C3299 C3307 1.503 1_554 S
C3300 C3299 1.410 . S
C3300 C3301 1.392 . S
C3300 C3303 1.511 . S
C3301 C3297 1.376 . S
C3301 C3300 1.392 . S
C3301 H3313 0.929 . S
C3302 C3298 1.531 . S
C3302 H3314 0.960 . S
C3302 H3315 0.927 1_554 S
C3302 H3316 0.960 . S
C3303 C3300 1.511 . S
C3303 H3317 0.961 . S
C3303 H3318 0.961 1_554 S
C3303 H3319 0.961 . S
C3304 C3305 1.370 . S
C3304 C3306 1.363 . S
C3304 H3320 0.931 . S
C3305 C3304 1.370 . S
C3305 C3309 1.408 . S
C3306 C3304 1.363 . S
C3306 C3307 1.370 . S
C3306 C3310 1.524 . S
C3307 C3299 1.503 1_556 S
C3307 C3306 1.370 . S
C3307 C3308 1.415 . S
C3308 C3307 1.415 . S
C3308 C3309 1.427 . S
C3308 C3311 1.505 1_556 S
C3309 C3305 1.408 . S
C3309 C3308 1.427 . S
C3309 H3321 0.930 . S
C3310 C3306 1.524 . S
C3310 H3322 0.956 . S
C3310 H3323 0.961 . S
C3310 H3324 0.961 . S
C3311 C3308 1.505 1_554 S
C3311 H3325 0.958 . S
C3311 H3326 0.961 . S
C3311 H3327 0.960 . S
H3312 C3296 0.931 . S
H3313 C3301 0.929 . S
H3314 C3302 0.960 . S
H3315 C3302 0.927 1_556 S
H3316 C3302 0.960 . S
H3317 C3303 0.961 . S
H3318 C3303 0.961 1_556 S
H3319 C3303 0.961 . S
H3320 C3304 0.931 . S
H3321 C3309 0.930 . S
H3322 C3310 0.956 . S
H3323 C3310 0.961 . S
H3324 C3310 0.961 . S
H3325 C3311 0.958 . S
H3326 C3311 0.961 . S
H3327 C3311 0.960 . S
C3328 C3329 1.391 . S
C3328 C3330 1.394 . S
C3328 H3344 0.931 . S
C3329 C3328 1.391 . S
C3329 C3333 1.376 . S
C3330 C3328 1.394 . S
C3330 C3331 1.369 . S
C3330 C3334 1.531 . S
C3331 C3330 1.369 . S
C3331 C3332 1.410 . S
C3331 C3339 1.503 . S
C3332 C3331 1.410 . S
C3332 C3333 1.392 . S
C3332 C3335 1.511 . S
C3333 C3329 1.376 . S
C3333 C3332 1.392 . S
C3333 H3345 0.929 . S
C3334 C3330 1.531 . S
C3334 H3346 0.960 . S
C3334 H3347 0.962 . S
C3334 H3348 0.960 . S
C3335 C3332 1.511 . S
C3335 H3349 0.961 . S
C3335 H3350 0.961 . S
C3335 H3351 0.961 . S
C3336 C3337 1.370 . S
C3336 C3338 1.363 . S
C3336 H3352 0.931 . S
C3337 C3336 1.370 . S
C3337 C3341 1.408 . S
C3338 C3336 1.363 . S
C3338 C3339 1.370 . S
C3338 C3342 1.524 . S
C3339 C3331 1.503 . S
C3339 C3338 1.370 . S
C3339 C3340 1.403 . S
C3340 C3339 1.403 . S
C3340 C3341 1.404 . S
C3340 C3343 1.539 . S
C3341 C3337 1.408 . S
C3341 C3340 1.404 . S
C3341 H3353 0.930 . S
C3342 C3338 1.524 . S
C3342 H3354 0.956 . S
C3342 H3355 0.961 . S
C3342 H3356 0.961 . S
C3343 C3340 1.539 . S
C3343 H3357 0.958 . S
C3343 H3358 0.961 . S
C3343 H3359 0.960 . S
H3344 C3328 0.931 . S
H3345 C3333 0.929 . S
H3346 C3334 0.960 . S
H3347 C3334 0.962 . S
H3348 C3334 0.960 . S
H3349 C3335 0.961 . S
H3350 C3335 0.961 . S
H3351 C3335 0.961 . S
H3352 C3336 0.931 . S
H3353 C3341 0.930 . S
H3354 C3342 0.956 . S
H3355 C3342 0.961 . S
H3356 C3342 0.961 . S
H3357 C3343 0.958 . S
H3358 C3343 0.961 . S
H3359 C3343 0.960 . S
C3360 C3361 1.391 . S
C3360 C3362 1.394 . S
C3360 H3376 0.931 . S
C3361 C3360 1.391 . S
C3361 C3365 1.376 . S
C3362 C3360 1.394 . S
C3362 C3363 1.369 . S
C3362 C3366 1.531 . S
C3363 C3362 1.369 . S
C3363 C3364 1.410 . S
C3363 C3371 1.503 . S
C3364 C3363 1.410 . S
C3364 C3365 1.392 . S
C3364 C3367 1.511 . S
C3365 C3361 1.376 . S
C3365 C3364 1.392 . S
C3365 H3377 0.929 . S
C3366 C3362 1.531 . S
C3366 H3378 0.960 . S
C3366 H3379 0.962 . S
C3366 H3380 0.960 . S
C3367 C3364 1.511 . S
C3367 H3381 0.961 . S
C3367 H3382 0.961 . S
C3367 H3383 0.961 . S
C3368 C3369 1.370 . S
C3368 C3370 1.363 . S
C3368 H3384 0.931 . S
C3369 C3368 1.370 . S
C3369 C3373 1.408 . S
C3370 C3368 1.363 . S
C3370 C3371 1.370 . S
C3370 C3374 1.524 . S
C3371 C3363 1.503 . S
C3371 C3370 1.370 . S
C3371 C3372 1.403 . S
C3372 C3371 1.403 . S
C3372 C3373 1.404 . S
C3372 C3375 1.539 . S
C3373 C3369 1.408 . S
C3373 C3372 1.404 . S
C3373 H3385 0.930 . S
C3374 C3370 1.524 . S
C3374 H3386 0.956 . S
C3374 H3387 0.961 . S
C3374 H3388 0.961 . S
C3375 C3372 1.539 . S
C3375 H3389 0.958 . S
C3375 H3390 0.961 . S
C3375 H3391 0.960 . S
H3376 C3360 0.931 . S
H3377 C3365 0.929 . S
H3378 C3366 0.960 . S
H3379 C3366 0.962 . S
H3380 C3366 0.960 . S
H3381 C3367 0.961 . S
H3382 C3367 0.961 . S
H3383 C3367 0.961 . S
H3384 C3368 0.931 . S
H3385 C3373 0.930 . S
H3386 C3374 0.956 . S
H3387 C3374 0.961 . S
H3388 C3374 0.961 . S
H3389 C3375 0.958 . S
H3390 C3375 0.961 . S
H3391 C3375 0.960 . S
C3392 C3393 1.391 . S
C3392 C3394 1.394 . S
C3392 H3408 0.931 . S
C3393 C3392 1.391 . S
C3393 C3397 1.376 . S
C3394 C3392 1.394 . S
C3394 C3395 1.369 . S
C3394 C3398 1.531 1_556 S
C3395 C3394 1.369 . S
C3395 C3396 1.410 . S
C3395 C3403 1.503 1_556 S
C3396 C3395 1.410 . S
C3396 C3397 1.392 . S
C3396 C3399 1.511 . S
C3397 C3393 1.376 . S
C3397 C3396 1.392 . S
C3397 H3409 0.929 . S
C3398 C3394 1.531 1_554 S
C3398 H3410 0.960 . S
C3398 H3411 0.962 . S
C3398 H3412 0.960 . S
C3399 C3396 1.511 . S
C3399 H3413 0.961 . S
C3399 H3414 0.961 . S
C3399 H3415 0.961 . S
C3400 C3401 1.370 . S
C3400 C3402 1.363 . S
C3400 H3416 0.931 . S
C3401 C3400 1.370 . S
C3401 C3405 1.408 . S
C3402 C3400 1.363 . S
C3402 C3403 1.370 . S
C3402 C3406 1.524 1_554 S
C3403 C3395 1.503 1_554 S
C3403 C3402 1.370 . S
C3403 C3404 1.403 . S
C3404 C3403 1.403 . S
C3404 C3405 1.404 . S
C3404 C3407 1.539 . S
C3405 C3401 1.408 . S
C3405 C3404 1.404 . S
C3405 H3417 0.930 . S
C3406 C3402 1.524 1_556 S
C3406 H3418 0.956 . S
C3406 H3419 0.961 . S
C3406 H3420 0.961 . S
C3407 C3404 1.539 . S
C3407 H3421 0.958 . S
C3407 H3422 0.961 . S
C3407 H3423 0.960 . S
H3408 C3392 0.931 . S
H3409 C3397 0.929 . S
H3410 C3398 0.960 . S
H3411 C3398 0.962 . S
H3412 C3398 0.960 . S
H3413 C3399 0.961 . S
H3414 C3399 0.961 . S
H3415 C3399 0.961 . S
H3416 C3400 0.931 . S
H3417 C3405 0.930 . S
H3418 C3406 0.956 . S
H3419 C3406 0.961 . S
H3420 C3406 0.961 . S
H3421 C3407 0.958 . S
H3422 C3407 0.961 . S
H3423 C3407 0.960 . S
C3424 C3425 1.391 . S
C3424 C3426 1.394 . S
C3424 H3440 0.931 . S
C3425 C3424 1.391 . S
C3425 C3429 1.376 . S
C3426 C3424 1.394 . S
C3426 C3427 1.369 . S
C3426 C3430 1.531 . S
C3427 C3426 1.369 . S
C3427 C3428 1.410 . S
C3427 C3435 1.503 . S
C3428 C3427 1.410 . S
C3428 C3429 1.392 . S
C3428 C3431 1.511 . S
C3429 C3425 1.376 . S
C3429 C3428 1.392 . S
C3429 H3441 0.929 . S
C3430 C3426 1.531 . S
C3430 H3442 0.960 . S
C3430 H3443 0.962 . S
C3430 H3444 0.960 . S
C3431 C3428 1.511 . S
C3431 H3445 0.961 . S
C3431 H3446 0.961 . S
C3431 H3447 0.961 . S
C3432 C3433 1.370 . S
C3432 C3434 1.363 . S
C3432 H3448 0.931 . S
C3433 C3432 1.370 . S
C3433 C3437 1.408 . S
C3434 C3432 1.363 . S
C3434 C3435 1.370 . S
C3434 C3438 1.524 . S
C3435 C3427 1.503 . S
C3435 C3434 1.370 . S
C3435 C3436 1.403 . S
C3436 C3435 1.403 . S
C3436 C3437 1.404 . S
C3436 C3439 1.539 . S
C3437 C3433 1.408 . S
C3437 C3436 1.404 . S
C3437 H3449 0.930 . S
C3438 C3434 1.524 . S
C3438 H3450 0.956 . S
C3438 H3451 0.961 . S
C3438 H3452 0.961 . S
C3439 C3436 1.539 . S
C3439 H3453 0.958 . S
C3439 H3454 0.961 . S
C3439 H3455 0.960 . S
H3440 C3424 0.931 . S
H3441 C3429 0.929 . S
H3442 C3430 0.960 . S
H3443 C3430 0.962 . S
H3444 C3430 0.960 . S
H3445 C3431 0.961 . S
H3446 C3431 0.961 . S
H3447 C3431 0.961 . S
H3448 C3432 0.931 . S
H3449 C3437 0.930 . S
H3450 C3438 0.956 . S
H3451 C3438 0.961 . S
H3452 C3438 0.961 . S
H3453 C3439 0.958 . S
H3454 C3439 0.961 . S
H3455 C3439 0.960 . S
C3456 C3457 1.391 . S
C3456 C3458 1.394 . S
C3456 H3472 0.931 . S
C3457 C3456 1.391 . S
C3457 C3461 1.376 . S
C3458 C3456 1.394 . S
C3458 C3459 1.369 . S
C3458 C3462 1.531 . S
C3459 C3458 1.369 . S
C3459 C3460 1.410 . S
C3459 C3467 1.503 1_545 S
C3460 C3459 1.410 . S
C3460 C3461 1.392 . S
C3460 C3463 1.511 1_545 S
C3461 C3457 1.376 . S
C3461 C3460 1.392 . S
C3461 H3473 0.929 . S
C3462 C3458 1.531 . S
C3462 H3474 0.960 . S
C3462 H3475 0.962 . S
C3462 H3476 0.960 . S
C3463 C3460 1.511 1_565 S
C3463 H3477 0.961 . S
C3463 H3478 0.961 . S
C3463 H3479 0.958 1_565 S
C3464 C3465 1.370 . S
C3464 C3466 1.363 . S
C3464 H3480 0.931 . S
C3465 C3464 1.370 . S
C3465 C3469 1.408 . S
C3466 C3464 1.363 . S
C3466 C3467 1.370 . S
C3466 C3470 1.524 . S
C3467 C3459 1.503 1_565 S
C3467 C3466 1.370 . S
C3467 C3468 1.403 1_565 S
C3468 C3467 1.403 1_545 S
C3468 C3469 1.404 1_545 S
C3468 C3471 1.539 . S
C3469 C3465 1.408 . S
C3469 C3468 1.404 1_565 S
C3469 H3481 0.930 . S
C3470 C3466 1.524 . S
C3470 H3482 0.956 . S
C3470 H3483 0.961 . S
C3470 H3484 0.961 . S
C3471 C3468 1.539 . S
C3471 H3485 0.958 . S
C3471 H3486 0.961 . S
C3471 H3487 0.960 . S
H3472 C3456 0.931 . S
H3473 C3461 0.929 . S
H3474 C3462 0.960 . S
H3475 C3462 0.962 . S
H3476 C3462 0.960 . S
H3477 C3463 0.961 . S
H3478 C3463 0.961 . S
H3479 C3463 0.958 1_545 S
H3480 C3464 0.931 . S
H3481 C3469 0.930 . S
H3482 C3470 0.956 . S
H3483 C3470 0.961 . S
H3484 C3470 0.961 . S
H3485 C3471 0.958 . S
H3486 C3471 0.961 . S
H3487 C3471 0.960 . S
C3488 C3489 1.391 . S
C3488 C3490 1.394 . S
C3488 H3504 0.931 . S
C3489 C3488 1.391 . S
C3489 C3493 1.376 . S
C3490 C3488 1.394 . S
C3490 C3491 1.369 . S
C3490 C3494 1.531 . S
C3491 C3490 1.369 . S
C3491 C3492 1.419 . S
C3491 C3499 1.503 1_556 S
C3492 C3491 1.419 . S
C3492 C3493 1.413 . S
C3492 C3495 1.483 1_556 S
C3493 C3489 1.376 . S
C3493 C3492 1.413 . S
C3493 H3505 0.929 . S
C3494 C3490 1.531 . S
C3494 H3506 0.960 . S
C3494 H3507 0.962 . S
C3494 H3508 0.960 . S
C3495 C3492 1.483 1_554 S
C3495 H3509 0.961 . S
C3495 H3510 0.961 . S
C3495 H3511 0.961 . S
C3496 C3497 1.370 . S
C3496 C3498 1.363 . S
C3496 H3512 0.931 . S
C3497 C3496 1.370 . S
C3497 C3501 1.408 . S
C3498 C3496 1.363 . S
C3498 C3499 1.370 . S
C3498 C3502 1.524 . S
C3499 C3491 1.503 1_554 S
C3499 C3498 1.370 . S
C3499 C3500 1.403 . S
C3500 C3499 1.403 . S
C3500 C3501 1.404 . S
C3500 C3503 1.539 1_554 S
C3501 C3497 1.408 . S
C3501 C3500 1.404 . S
C3501 H3513 0.930 . S
C3502 C3498 1.524 . S
C3502 H3514 0.956 . S
C3502 H3515 0.961 . S
C3502 H3516 0.961 . S
C3503 C3500 1.539 1_556 S
C3503 H3517 0.958 . S
C3503 H3518 0.961 . S
C3503 H3519 0.960 . S
H3504 C3488 0.931 . S
H3505 C3493 0.929 . S
H3506 C3494 0.960 . S
H3507 C3494 0.962 . S
H3508 C3494 0.960 . S
H3509 C3495 0.961 . S
H3510 C3495 0.961 . S
H3511 C3495 0.961 . S
H3512 C3496 0.931 . S
H3513 C3501 0.930 . S
H3514 C3502 0.956 . S
H3515 C3502 0.961 . S
H3516 C3502 0.961 . S
H3517 C3503 0.958 . S
H3518 C3503 0.961 . S
H3519 C3503 0.960 . S
C3520 C3521 1.391 . S
C3520 C3522 1.394 . S
C3520 H3536 0.931 . S
C3521 C3520 1.391 . S
C3521 C3525 1.376 . S
C3522 C3520 1.394 . S
C3522 C3523 1.417 . S
C3522 C3526 1.531 . S
C3523 C3522 1.417 . S
C3523 C3524 1.399 1_554 S
C3523 C3531 1.470 1_554 S
C3524 C3523 1.399 1_556 S
C3524 C3525 1.392 1_556 S
C3524 C3527 1.511 . S
C3525 C3521 1.376 . S
C3525 C3524 1.392 1_554 S
C3525 H3537 0.929 . S
C3526 C3522 1.531 . S
C3526 H3538 0.960 . S
C3526 H3539 0.962 . S
C3526 H3540 0.960 . S
C3527 C3524 1.511 . S
C3527 H3541 0.961 . S
C3527 H3542 0.961 . S
C3527 H3543 0.961 . S
C3528 C3529 1.370 . S
C3528 C3530 1.363 . S
C3528 H3544 0.931 . S
C3529 C3528 1.370 . S
C3529 C3533 1.408 . S
C3530 C3528 1.363 . S
C3530 C3531 1.370 . S
C3530 C3534 1.524 1_556 S
C3531 C3523 1.470 1_556 S
C3531 C3530 1.370 . S
C3531 C3532 1.403 . S
C3532 C3531 1.403 . S
C3532 C3533 1.404 . S
C3532 C3535 1.539 . S
C3533 C3529 1.408 . S
C3533 C3532 1.404 . S
C3533 H3545 0.930 . S
C3534 C3530 1.524 1_554 S
C3534 H3546 0.956 . S
C3534 H3547 0.961 . S
C3534 H3548 0.961 . S
C3535 C3532 1.539 . S
C3535 H3549 0.958 . S
C3535 H3550 0.961 . S
C3535 H3551 0.960 . S
H3536 C3520 0.931 . S
H3537 C3525 0.929 . S
H3538 C3526 0.960 . S
H3539 C3526 0.962 . S
H3540 C3526 0.960 . S
H3541 C3527 0.961 . S
H3542 C3527 0.961 . S
H3543 C3527 0.961 . S
H3544 C3528 0.931 . S
H3545 C3533 0.930 . S
H3546 C3534 0.956 . S
H3547 C3534 0.961 . S
H3548 C3534 0.961 . S
H3549 C3535 0.958 . S
H3550 C3535 0.961 . S
H3551 C3535 0.960 . S
C3552 C3553 1.391 . S
C3552 C3554 1.394 . S
C3552 H3568 0.931 . S
C3553 C3552 1.391 . S
C3553 C3557 1.376 . S
C3554 C3552 1.394 . S
C3554 C3555 1.369 . S
C3554 C3558 1.531 . S
C3555 C3554 1.369 . S
C3555 C3556 1.410 . S
C3555 C3563 1.503 . S
C3556 C3555 1.410 . S
C3556 C3557 1.392 . S
C3556 C3559 1.511 . S
C3557 C3553 1.376 . S
C3557 C3556 1.392 . S
C3557 H3569 0.929 . S
C3558 C3554 1.531 . S
C3558 H3570 0.960 . S
C3558 H3571 0.962 . S
C3558 H3572 0.960 . S
C3559 C3556 1.511 . S
C3559 H3573 0.961 . S
C3559 H3574 0.961 . S
C3559 H3575 0.961 . S
C3560 C3561 1.370 . S
C3560 C3562 1.363 . S
C3560 H3576 0.931 . S
C3561 C3560 1.370 . S
C3561 C3565 1.408 . S
C3562 C3560 1.363 . S
C3562 C3563 1.370 . S
C3562 C3566 1.524 . S
C3563 C3555 1.503 . S
C3563 C3562 1.370 . S
C3563 C3564 1.403 . S
C3564 C3563 1.403 . S
C3564 C3565 1.404 . S
C3564 C3567 1.539 . S
C3565 C3561 1.408 . S
C3565 C3564 1.404 . S
C3565 H3577 0.930 . S
C3566 C3562 1.524 . S
C3566 H3578 0.956 . S
C3566 H3579 0.961 . S
C3566 H3580 0.961 . S
C3567 C3564 1.539 . S
C3567 H3581 0.958 . S
C3567 H3582 0.961 . S
C3567 H3583 0.960 . S
H3568 C3552 0.931 . S
H3569 C3557 0.929 . S
H3570 C3558 0.960 . S
H3571 C3558 0.962 . S
H3572 C3558 0.960 . S
H3573 C3559 0.961 . S
H3574 C3559 0.961 . S
H3575 C3559 0.961 . S
H3576 C3560 0.931 . S
H3577 C3565 0.930 . S
H3578 C3566 0.956 . S
H3579 C3566 0.961 . S
H3580 C3566 0.961 . S
H3581 C3567 0.958 . S
H3582 C3567 0.961 . S
H3583 C3567 0.960 . S
C3584 C3585 1.391 . S
C3584 C3586 1.394 . S
C3584 H3600 0.931 . S
C3585 C3584 1.391 . S
C3585 C3589 1.376 . S
C3586 C3584 1.394 . S
C3586 C3587 1.372 1_565 S
C3586 C3590 1.531 . S
C3587 C3586 1.372 1_545 S
C3587 C3588 1.410 1_545 S
C3587 C3595 1.500 . S
C3588 C3587 1.410 1_565 S
C3588 C3589 1.392 . S
C3588 C3591 1.511 1_565 S
C3589 C3585 1.376 . S
C3589 C3588 1.392 . S
C3589 H3601 0.929 . S
C3590 C3586 1.531 . S
C3590 H3602 0.960 1_565 S
C3590 H3603 0.962 . S
C3590 H3604 0.960 . S
C3591 C3588 1.511 1_545 S
C3591 H3605 0.961 . S
C3591 H3606 0.961 . S
C3591 H3607 0.961 . S
C3592 C3593 1.370 . S
C3592 C3594 1.363 . S
C3592 H3608 0.931 . S
C3593 C3592 1.370 . S
C3593 C3597 1.408 . S
C3594 C3592 1.363 . S
C3594 C3595 1.370 . S
C3594 C3598 1.524 1_545 S
C3595 C3587 1.500 . S
C3595 C3594 1.370 . S
C3595 C3596 1.403 . S
C3596 C3595 1.403 . S
C3596 C3597 1.404 . S
C3596 C3599 1.539 . S
C3597 C3593 1.408 . S
C3597 C3596 1.404 . S
C3597 H3609 0.930 . S
C3598 C3594 1.524 1_565 S
C3598 H3610 0.956 . S
C3598 H3611 0.961 . S
C3598 H3612 0.961 . S
C3599 C3596 1.539 . S
C3599 H3613 0.958 . S
C3599 H3614 0.961 . S
C3599 H3615 0.960 . S
H3600 C3584 0.931 . S
H3601 C3589 0.929 . S
H3602 C3590 0.960 1_545 S
H3603 C3590 0.962 . S
H3604 C3590 0.960 . S
H3605 C3591 0.961 . S
H3606 C3591 0.961 . S
H3607 C3591 0.961 . S
H3608 C3592 0.931 . S
H3609 C3597 0.930 . S
H3610 C3598 0.956 . S
H3611 C3598 0.961 . S
H3612 C3598 0.961 . S
H3613 C3599 0.958 . S
H3614 C3599 0.961 . S
H3615 C3599 0.960 . S
C3616 C3617 1.391 . S
C3616 C3618 1.394 . S
C3616 H3632 0.931 . S
C3617 C3616 1.391 . S
C3617 C3621 1.376 . S
C3618 C3616 1.394 . S
C3618 C3619 1.369 . S
C3618 C3622 1.531 . S
C3619 C3618 1.369 . S
C3619 C3620 1.410 1_455 S
C3619 C3627 1.503 1_455 S
C3620 C3619 1.410 1_655 S
C3620 C3621 1.392 1_655 S
C3620 C3623 1.511 . S
C3621 C3617 1.376 . S
C3621 C3620 1.392 1_455 S
C3621 H3633 0.929 . S
C3622 C3618 1.531 . S
C3622 H3634 0.960 . S
C3622 H3635 0.962 . S
C3622 H3636 0.960 . S
C3623 C3620 1.511 . S
C3623 H3637 0.961 . S
C3623 H3638 0.961 . S
C3623 H3639 0.961 . S
C3624 C3625 1.370 . S
C3624 C3626 1.363 . S
C3624 H3640 0.931 . S
C3625 C3624 1.370 . S
C3625 C3629 1.408 . S
C3626 C3624 1.363 . S
C3626 C3627 1.370 . S
C3626 C3630 1.524 1_655 S
C3627 C3619 1.503 1_655 S
C3627 C3626 1.370 . S
C3627 C3628 1.403 . S
C3628 C3627 1.403 . S
C3628 C3629 1.404 . S
C3628 C3631 1.539 . S
C3629 C3625 1.408 . S
C3629 C3628 1.404 . S
C3629 H3641 0.930 . S
C3630 C3626 1.524 1_455 S
C3630 H3642 0.956 . S
C3630 H3643 0.961 . S
C3630 H3644 0.961 . S
C3631 C3628 1.539 . S
C3631 H3645 0.958 . S
C3631 H3646 0.961 . S
C3631 H3647 0.960 . S
H3632 C3616 0.931 . S
H3633 C3621 0.929 . S
H3634 C3622 0.960 . S
H3635 C3622 0.962 . S
H3636 C3622 0.960 . S
H3637 C3623 0.961 . S
H3638 C3623 0.961 . S
H3639 C3623 0.961 . S
H3640 C3624 0.931 . S
H3641 C3629 0.930 . S
H3642 C3630 0.956 . S
H3643 C3630 0.961 . S
H3644 C3630 0.961 . S
H3645 C3631 0.958 . S
H3646 C3631 0.961 . S
H3647 C3631 0.960 . S
C3648 C3649 1.391 . S
C3648 C3650 1.394 . S
C3648 H3664 0.931 . S
C3649 C3648 1.391 . S
C3649 C3653 1.376 . S
C3650 C3648 1.394 . S
C3650 C3651 1.369 . S
C3650 C3654 1.531 . S
C3651 C3650 1.369 . S
C3651 C3652 1.410 . S
C3651 C3659 1.503 1_455 S
C3652 C3651 1.410 . S
C3652 C3653 1.392 . S
C3652 C3655 1.511 1_455 S
C3653 C3649 1.376 . S
C3653 C3652 1.392 . S
C3653 H3665 0.929 . S
C3654 C3650 1.531 . S
C3654 H3666 0.960 . S
C3654 H3667 0.962 . S
C3654 H3668 0.960 . S
C3655 C3652 1.511 1_655 S
C3655 H3669 0.961 . S
C3655 H3670 0.961 . S
C3655 H3671 0.961 . S
C3656 C3657 1.370 . S
C3656 C3658 1.363 . S
C3656 H3672 0.931 . S
C3657 C3656 1.370 . S
C3657 C3661 1.408 . S
C3658 C3656 1.363 . S
C3658 C3659 1.370 . S
C3658 C3662 1.524 1_655 S
C3659 C3651 1.503 1_655 S
C3659 C3658 1.370 . S
C3659 C3660 1.403 . S
C3660 C3659 1.403 . S
C3660 C3661 1.404 . S
C3660 C3663 1.539 . S
C3661 C3657 1.408 . S
C3661 C3660 1.404 . S
C3661 H3673 0.930 . S
C3662 C3658 1.524 1_455 S
C3662 H3674 0.956 . S
C3662 H3675 0.961 . S
C3662 H3676 0.961 . S
C3663 C3660 1.539 . S
C3663 H3677 0.958 . S
C3663 H3678 0.961 . S
C3663 H3679 0.960 . S
H3664 C3648 0.931 . S
H3665 C3653 0.929 . S
H3666 C3654 0.960 . S
H3667 C3654 0.962 . S
H3668 C3654 0.960 . S
H3669 C3655 0.961 . S
H3670 C3655 0.961 . S
H3671 C3655 0.961 . S
H3672 C3656 0.931 . S
H3673 C3661 0.930 . S
H3674 C3662 0.956 . S
H3675 C3662 0.961 . S
H3676 C3662 0.961 . S
H3677 C3663 0.958 . S
H3678 C3663 0.961 . S
H3679 C3663 0.960 . S
C3680 C3681 1.391 . S
C3680 C3682 1.394 . S
C3680 H3696 0.931 . S
C3681 C3680 1.391 . S
C3681 C3685 1.376 . S
C3682 C3680 1.394 . S
C3682 C3683 1.369 . S
C3682 C3686 1.531 . S
C3683 C3682 1.369 . S
C3683 C3684 1.410 . S
C3683 C3691 1.503 . S
C3684 C3683 1.410 . S
C3684 C3685 1.392 . S
C3684 C3687 1.511 . S
C3685 C3681 1.376 . S
C3685 C3684 1.392 . S
C3685 H3697 0.929 . S
C3686 C3682 1.531 . S
C3686 H3698 0.960 . S
C3686 H3699 0.962 . S
C3686 H3700 0.960 . S
C3687 C3684 1.511 . S
C3687 H3701 0.961 . S
C3687 H3702 0.961 . S
C3687 H3703 0.961 . S
C3688 C3689 1.370 . S
C3688 C3690 1.363 . S
C3688 H3704 0.931 . S
C3689 C3688 1.370 . S
C3689 C3693 1.408 . S
C3690 C3688 1.363 . S
C3690 C3691 1.370 . S
C3690 C3694 1.524 . S
C3691 C3683 1.503 . S
C3691 C3690 1.370 . S
C3691 C3692 1.403 . S
C3692 C3691 1.403 . S
C3692 C3693 1.404 . S
C3692 C3695 1.539 . S
C3693 C3689 1.408 . S
C3693 C3692 1.404 . S
C3693 H3705 0.930 . S
C3694 C3690 1.524 . S
C3694 H3706 0.956 . S
C3694 H3707 0.961 . S
C3694 H3708 0.961 . S
C3695 C3692 1.539 . S
C3695 H3709 0.958 . S
C3695 H3710 0.961 . S
C3695 H3711 0.960 . S
H3696 C3680 0.931 . S
H3697 C3685 0.929 . S
H3698 C3686 0.960 . S
H3699 C3686 0.962 . S
H3700 C3686 0.960 . S
H3701 C3687 0.961 . S
H3702 C3687 0.961 . S
H3703 C3687 0.961 . S
H3704 C3688 0.931 . S
H3705 C3693 0.930 . S
H3706 C3694 0.956 . S
H3707 C3694 0.961 . S
H3708 C3694 0.961 . S
H3709 C3695 0.958 . S
H3710 C3695 0.961 . S
H3711 C3695 0.960 . S
C3712 C3713 1.391 . S
C3712 C3714 1.394 . S
C3712 H3728 0.931 . S
C3713 C3712 1.391 . S
C3713 C3717 1.376 . S
C3714 C3712 1.394 . S
C3714 C3715 1.369 . S
C3714 C3718 1.531 . S
C3715 C3714 1.369 . S
C3715 C3716 1.410 . S
C3715 C3723 1.503 . S
C3716 C3715 1.410 . S
C3716 C3717 1.392 . S
C3716 C3719 1.511 . S
C3717 C3713 1.376 . S
C3717 C3716 1.392 . S
C3717 H3729 0.929 . S
C3718 C3714 1.531 . S
C3718 H3730 0.960 . S
C3718 H3731 0.962 . S
C3718 H3732 0.960 . S
C3719 C3716 1.511 . S
C3719 H3733 0.961 . S
C3719 H3734 0.961 . S
C3719 H3735 0.961 . S
C3720 C3721 1.370 . S
C3720 C3722 1.363 . S
C3720 H3736 0.931 . S
C3721 C3720 1.370 . S
C3721 C3725 1.408 . S
C3722 C3720 1.363 . S
C3722 C3723 1.370 . S
C3722 C3726 1.524 . S
C3723 C3715 1.503 . S
C3723 C3722 1.370 . S
C3723 C3724 1.403 . S
C3724 C3723 1.403 . S
C3724 C3725 1.404 . S
C3724 C3727 1.539 . S
C3725 C3721 1.408 . S
C3725 C3724 1.404 . S
C3725 H3737 0.930 . S
C3726 C3722 1.524 . S
C3726 H3738 0.956 . S
C3726 H3739 0.961 . S
C3726 H3740 0.961 . S
C3727 C3724 1.539 . S
C3727 H3741 0.958 . S
C3727 H3742 0.961 . S
C3727 H3743 0.960 . S
H3728 C3712 0.931 . S
H3729 C3717 0.929 . S
H3730 C3718 0.960 . S
H3731 C3718 0.962 . S
H3732 C3718 0.960 . S
H3733 C3719 0.961 . S
H3734 C3719 0.961 . S
H3735 C3719 0.961 . S
H3736 C3720 0.931 . S
H3737 C3725 0.930 . S
H3738 C3726 0.956 . S
H3739 C3726 0.961 . S
H3740 C3726 0.961 . S
H3741 C3727 0.958 . S
H3742 C3727 0.961 . S
H3743 C3727 0.960 . S
C3744 C3745 1.391 . S
C3744 C3746 1.394 . S
C3744 H3760 0.931 . S
C3745 C3744 1.391 . S
C3745 C3749 1.376 . S
C3746 C3744 1.394 . S
C3746 C3747 1.369 . S
C3746 C3750 1.531 . S
C3747 C3746 1.369 . S
C3747 C3748 1.410 . S
C3747 C3755 1.503 . S
C3748 C3747 1.410 . S
C3748 C3749 1.392 . S
C3748 C3751 1.511 . S
C3749 C3745 1.376 . S
C3749 C3748 1.392 . S
C3749 H3761 0.929 . S
C3750 C3746 1.531 . S
C3750 H3762 0.960 . S
C3750 H3763 0.962 . S
C3750 H3764 0.960 . S
C3751 C3748 1.511 . S
C3751 H3765 0.961 . S
C3751 H3766 0.961 . S
C3751 H3767 0.961 . S
C3752 C3753 1.370 . S
C3752 C3754 1.363 . S
C3752 H3768 0.931 . S
C3753 C3752 1.370 . S
C3753 C3757 1.408 . S
C3754 C3752 1.363 . S
C3754 C3755 1.370 . S
C3754 C3758 1.524 . S
C3755 C3747 1.503 . S
C3755 C3754 1.370 . S
C3755 C3756 1.403 . S
C3756 C3755 1.403 . S
C3756 C3757 1.404 . S
C3756 C3759 1.539 . S
C3757 C3753 1.408 . S
C3757 C3756 1.404 . S
C3757 H3769 0.930 . S
C3758 C3754 1.524 . S
C3758 H3770 0.956 . S
C3758 H3771 0.961 . S
C3758 H3772 0.961 . S
C3759 C3756 1.539 . S
C3759 H3773 0.958 . S
C3759 H3774 0.961 . S
C3759 H3775 0.960 . S
H3760 C3744 0.931 . S
H3761 C3749 0.929 . S
H3762 C3750 0.960 . S
H3763 C3750 0.962 . S
H3764 C3750 0.960 . S
H3765 C3751 0.961 . S
H3766 C3751 0.961 . S
H3767 C3751 0.961 . S
H3768 C3752 0.931 . S
H3769 C3757 0.930 . S
H3770 C3758 0.956 . S
H3771 C3758 0.961 . S
H3772 C3758 0.961 . S
H3773 C3759 0.958 . S
H3774 C3759 0.961 . S
H3775 C3759 0.960 . S
C3776 C3777 1.391 . S
C3776 C3778 1.394 . S
C3776 H3792 0.931 . S
C3777 C3776 1.391 . S
C3777 C3781 1.376 . S
C3778 C3776 1.394 . S
C3778 C3779 1.369 . S
C3778 C3782 1.531 1_554 S
C3779 C3778 1.369 . S
C3779 C3780 1.410 . S
C3779 C3787 1.503 1_554 S
C3780 C3779 1.410 . S
C3780 C3781 1.392 . S
C3780 C3783 1.511 . S
C3781 C3777 1.376 . S
C3781 C3780 1.392 . S
C3781 H3793 0.929 . S
C3782 C3778 1.531 1_556 S
C3782 H3794 0.960 . S
C3782 H3795 0.962 . S
C3782 H3796 0.960 . S
C3783 C3780 1.511 . S
C3783 H3797 0.961 . S
C3783 H3798 0.961 . S
C3783 H3799 0.961 . S
C3784 C3785 1.370 . S
C3784 C3786 1.363 . S
C3784 H3800 0.931 . S
C3785 C3784 1.370 . S
C3785 C3789 1.408 . S
C3786 C3784 1.363 . S
C3786 C3787 1.370 . S
C3786 C3790 1.524 . S
C3787 C3779 1.503 1_556 S
C3787 C3786 1.370 . S
C3787 C3788 1.403 . S
C3788 C3787 1.403 . S
C3788 C3789 1.404 . S
C3788 C3791 1.521 1_556 S
C3789 C3785 1.408 . S
C3789 C3788 1.404 . S
C3789 H3801 0.930 . S
C3790 C3786 1.524 . S
C3790 H3802 0.956 . S
C3790 H3803 0.961 1_556 S
C3790 H3804 0.961 . S
C3791 C3788 1.521 1_554 S
C3791 H3805 0.930 1_554 S
C3791 H3806 0.968 . S
C3791 H3807 1.002 . S
H3792 C3776 0.931 . S
H3793 C3781 0.929 . S
H3794 C3782 0.960 . S
H3795 C3782 0.962 . S
H3796 C3782 0.960 . S
H3797 C3783 0.961 . S
H3798 C3783 0.961 . S
H3799 C3783 0.961 . S
H3800 C3784 0.931 . S
H3801 C3789 0.930 . S
H3802 C3790 0.956 . S
H3803 C3790 0.961 1_554 S
H3804 C3790 0.961 . S
H3805 C3791 0.930 1_556 S
H3806 C3791 0.968 . S
H3807 C3791 1.002 . S
C3808 C3809 1.391 . S
C3808 C3810 1.394 . S
C3808 H3824 0.931 . S
C3809 C3808 1.391 . S
C3809 C3813 1.376 . S
C3810 C3808 1.394 . S
C3810 C3811 1.369 . S
C3810 C3814 1.531 1_565 S
C3811 C3810 1.369 . S
C3811 C3812 1.410 . S
C3811 C3819 1.503 1_565 S
C3812 C3811 1.410 . S
C3812 C3813 1.392 . S
C3812 C3815 1.511 . S
C3813 C3809 1.376 . S
C3813 C3812 1.392 . S
C3813 H3825 0.929 . S
C3814 C3810 1.531 1_545 S
C3814 H3826 0.960 . S
C3814 H3827 0.962 . S
C3814 H3828 0.960 . S
C3815 C3812 1.511 . S
C3815 H3829 0.961 . S
C3815 H3830 0.961 . S
C3815 H3831 0.961 . S
C3816 C3817 1.370 . S
C3816 C3818 1.363 . S
C3816 H3832 0.931 . S
C3817 C3816 1.370 . S
C3817 C3821 1.408 . S
C3818 C3816 1.363 . S
C3818 C3819 1.370 . S
C3818 C3822 1.524 . S
C3819 C3811 1.503 1_545 S
C3819 C3818 1.370 . S
C3819 C3820 1.403 . S
C3820 C3819 1.403 . S
C3820 C3821 1.404 . S
C3820 C3823 1.539 1_545 S
C3821 C3817 1.408 . S
C3821 C3820 1.404 . S
C3821 H3833 0.930 . S
C3822 C3818 1.524 . S
C3822 H3834 0.956 . S
C3822 H3835 0.961 . S
C3822 H3836 0.961 . S
C3823 C3820 1.539 1_565 S
C3823 H3837 0.958 . S
C3823 H3838 0.961 . S
C3823 H3839 0.960 . S
H3824 C3808 0.931 . S
H3825 C3813 0.929 . S
H3826 C3814 0.960 . S
H3827 C3814 0.962 . S
H3828 C3814 0.960 . S
H3829 C3815 0.961 . S
H3830 C3815 0.961 . S
H3831 C3815 0.961 . S
H3832 C3816 0.931 . S
H3833 C3821 0.930 . S
H3834 C3822 0.956 . S
H3835 C3822 0.961 . S
H3836 C3822 0.961 . S
H3837 C3823 0.958 . S
H3838 C3823 0.961 . S
H3839 C3823 0.960 . S
C3840 C3841 1.391 . S
C3840 C3842 1.394 . S
C3840 H3856 0.931 . S
C3841 C3840 1.391 . S
C3841 C3845 1.376 . S
C3842 C3840 1.394 . S
C3842 C3843 1.369 . S
C3842 C3846 1.531 . S
C3843 C3842 1.369 . S
C3843 C3844 1.410 . S
C3843 C3851 1.503 . S
C3844 C3843 1.410 . S
C3844 C3845 1.392 . S
C3844 C3847 1.511 . S
C3845 C3841 1.376 . S
C3845 C3844 1.392 . S
C3845 H3857 0.929 . S
C3846 C3842 1.531 . S
C3846 H3858 0.960 . S
C3846 H3859 0.962 . S
C3846 H3860 0.960 . S
C3847 C3844 1.511 . S
C3847 H3861 0.961 . S
C3847 H3862 0.961 . S
C3847 H3863 0.961 . S
C3848 C3849 1.370 . S
C3848 C3850 1.363 . S
C3848 H3864 0.931 . S
C3849 C3848 1.370 . S
C3849 C3853 1.408 . S
C3850 C3848 1.363 . S
C3850 C3851 1.370 . S
C3850 C3854 1.524 . S
C3851 C3843 1.503 . S
C3851 C3850 1.370 . S
C3851 C3852 1.403 . S
C3852 C3851 1.403 . S
C3852 C3853 1.404 . S
C3852 C3855 1.539 . S
C3853 C3849 1.408 . S
C3853 C3852 1.404 . S
C3853 H3865 0.930 . S
C3854 C3850 1.524 . S
C3854 H3866 0.956 . S
C3854 H3867 0.961 . S
C3854 H3868 0.961 . S
C3855 C3852 1.539 . S
C3855 H3869 0.958 . S
C3855 H3870 0.961 . S
C3855 H3871 0.960 . S
H3856 C3840 0.931 . S
H3857 C3845 0.929 . S
H3858 C3846 0.960 . S
H3859 C3846 0.962 . S
H3860 C3846 0.960 . S
H3861 C3847 0.961 . S
H3862 C3847 0.961 . S
H3863 C3847 0.961 . S
H3864 C3848 0.931 . S
H3865 C3853 0.930 . S
H3866 C3854 0.956 . S
H3867 C3854 0.961 . S
H3868 C3854 0.961 . S
H3869 C3855 0.958 . S
H3870 C3855 0.961 . S
H3871 C3855 0.960 . S
C3872 C3873 1.391 . S
C3872 C3874 1.394 . S
C3872 H3888 0.931 . S
C3873 C3872 1.391 . S
C3873 C3877 1.376 . S
C3874 C3872 1.394 . S
C3874 C3875 1.369 . S
C3874 C3878 1.531 . S
C3875 C3874 1.369 . S
C3875 C3876 1.410 . S
C3875 C3883 1.503 . S
C3876 C3875 1.410 . S
C3876 C3877 1.392 . S
C3876 C3879 1.511 . S
C3877 C3873 1.376 . S
C3877 C3876 1.392 . S
C3877 H3889 0.929 . S
C3878 C3874 1.531 . S
C3878 H3890 0.960 . S
C3878 H3891 0.962 . S
C3878 H3892 0.960 . S
C3879 C3876 1.511 . S
C3879 H3893 0.961 . S
C3879 H3894 0.961 . S
C3879 H3895 0.961 . S
C3880 C3881 1.370 . S
C3880 C3882 1.363 . S
C3880 H3896 0.931 . S
C3881 C3880 1.370 . S
C3881 C3885 1.408 . S
C3882 C3880 1.363 . S
C3882 C3883 1.370 . S
C3882 C3886 1.524 . S
C3883 C3875 1.503 . S
C3883 C3882 1.370 . S
C3883 C3884 1.403 . S
C3884 C3883 1.403 . S
C3884 C3885 1.404 . S
C3884 C3887 1.539 . S
C3885 C3881 1.408 . S
C3885 C3884 1.404 . S
C3885 H3897 0.930 . S
C3886 C3882 1.524 . S
C3886 H3898 0.956 . S
C3886 H3899 0.961 . S
C3886 H3900 0.961 . S
C3887 C3884 1.539 . S
C3887 H3901 0.958 . S
C3887 H3902 0.961 . S
C3887 H3903 0.960 . S
H3888 C3872 0.931 . S
H3889 C3877 0.929 . S
H3890 C3878 0.960 . S
H3891 C3878 0.962 . S
H3892 C3878 0.960 . S
H3893 C3879 0.961 . S
H3894 C3879 0.961 . S
H3895 C3879 0.961 . S
H3896 C3880 0.931 . S
H3897 C3885 0.930 . S
H3898 C3886 0.956 . S
H3899 C3886 0.961 . S
H3900 C3886 0.961 . S
H3901 C3887 0.958 . S
H3902 C3887 0.961 . S
H3903 C3887 0.960 . S
C3904 C3905 1.391 . S
C3904 C3906 1.394 . S
C3904 H3920 0.931 . S
C3905 C3904 1.391 . S
C3905 C3909 1.376 . S
C3906 C3904 1.394 . S
C3906 C3907 1.369 . S
C3906 C3910 1.531 . S
C3907 C3906 1.369 . S
C3907 C3908 1.410 . S
C3907 C3915 1.503 . S
C3908 C3907 1.410 . S
C3908 C3909 1.392 . S
C3908 C3911 1.511 . S
C3909 C3905 1.376 . S
C3909 C3908 1.392 . S
C3909 H3921 0.929 . S
C3910 C3906 1.531 . S
C3910 H3922 0.960 . S
C3910 H3923 0.962 . S
C3910 H3924 0.960 . S
C3911 C3908 1.511 . S
C3911 H3925 0.961 . S
C3911 H3926 0.961 . S
C3911 H3927 0.961 . S
C3912 C3913 1.370 . S
C3912 C3914 1.363 . S
C3912 H3928 0.931 . S
C3913 C3912 1.370 . S
C3913 C3917 1.408 . S
C3914 C3912 1.363 . S
C3914 C3915 1.370 . S
C3914 C3918 1.524 . S
C3915 C3907 1.503 . S
C3915 C3914 1.370 . S
C3915 C3916 1.403 . S
C3916 C3915 1.403 . S
C3916 C3917 1.404 . S
C3916 C3919 1.539 . S
C3917 C3913 1.408 . S
C3917 C3916 1.404 . S
C3917 H3929 0.930 . S
C3918 C3914 1.524 . S
C3918 H3930 0.956 . S
C3918 H3931 0.961 . S
C3918 H3932 0.961 . S
C3919 C3916 1.539 . S
C3919 H3933 0.958 . S
C3919 H3934 0.961 . S
C3919 H3935 0.960 . S
H3920 C3904 0.931 . S
H3921 C3909 0.929 . S
H3922 C3910 0.960 . S
H3923 C3910 0.962 . S
H3924 C3910 0.960 . S
H3925 C3911 0.961 . S
H3926 C3911 0.961 . S
H3927 C3911 0.961 . S
H3928 C3912 0.931 . S
H3929 C3917 0.930 . S
H3930 C3918 0.956 . S
H3931 C3918 0.961 . S
H3932 C3918 0.961 . S
H3933 C3919 0.958 . S
H3934 C3919 0.961 . S
H3935 C3919 0.960 . S
C3936 C3937 1.391 . S
C3936 C3938 1.394 . S
C3936 H3952 0.931 . S
C3937 C3936 1.391 . S
C3937 C3941 1.376 . S
C3938 C3936 1.394 . S
C3938 C3939 1.369 . S
C3938 C3942 1.531 1_565 S
C3939 C3938 1.369 . S
C3939 C3940 1.410 . S
C3939 C3947 1.503 1_565 S
C3940 C3939 1.410 . S
C3940 C3941 1.392 . S
C3940 C3943 1.511 . S
C3941 C3937 1.376 . S
C3941 C3940 1.392 . S
C3941 H3953 0.929 . S
C3942 C3938 1.531 1_545 S
C3942 H3954 0.960 . S
C3942 H3955 0.962 . S
C3942 H3956 0.960 . S
C3943 C3940 1.511 . S
C3943 H3957 0.961 . S
C3943 H3958 0.961 . S
C3943 H3959 0.961 . S
C3944 C3945 1.370 . S
C3944 C3946 1.363 . S
C3944 H3960 0.931 . S
C3945 C3944 1.370 . S
C3945 C3949 1.408 . S
C3946 C3944 1.363 . S
C3946 C3947 1.370 . S
C3946 C3950 1.499 1_545 S
C3947 C3939 1.503 1_545 S
C3947 C3946 1.370 . S
C3947 C3948 1.403 . S
C3948 C3947 1.403 . S
C3948 C3949 1.404 . S
C3948 C3951 1.539 . S
C3949 C3945 1.408 . S
C3949 C3948 1.404 . S
C3949 H3961 0.930 . S
C3950 C3946 1.499 1_565 S
C3950 H3962 0.934 1_565 S
C3950 H3963 1.026 . S
C3950 H3964 0.948 1_565 S
C3951 C3948 1.539 . S
C3951 H3965 0.958 . S
C3951 H3966 0.961 . S
C3951 H3967 0.960 1_545 S
H3952 C3936 0.931 . S
H3953 C3941 0.929 . S
H3954 C3942 0.960 . S
H3955 C3942 0.962 . S
H3956 C3942 0.960 . S
H3957 C3943 0.961 . S
H3958 C3943 0.961 . S
H3959 C3943 0.961 . S
H3960 C3944 0.931 . S
H3961 C3949 0.930 . S
H3962 C3950 0.934 1_545 S
H3963 C3950 1.026 . S
H3964 C3950 0.948 1_545 S
H3965 C3951 0.958 . S
H3966 C3951 0.961 . S
H3967 C3951 0.960 1_565 S
C3968 C3969 1.391 . S
C3968 C3970 1.394 1_554 S
C3968 H3984 0.931 . S
C3969 C3968 1.391 . S
C3969 C3973 1.376 . S
C3970 C3968 1.394 1_556 S
C3970 C3971 1.369 1_556 S
C3970 C3974 1.531 . S
C3971 C3970 1.369 1_554 S
C3971 C3972 1.410 . S
C3971 C3979 1.503 1_554 S
C3972 C3971 1.410 . S
C3972 C3973 1.392 . S
C3972 C3975 1.511 . S
C3973 C3969 1.376 . S
C3973 C3972 1.392 . S
C3973 H3985 0.929 . S
C3974 C3970 1.531 . S
C3974 H3986 0.960 . S
C3974 H3987 0.962 . S
C3974 H3988 0.960 . S
C3975 C3972 1.511 . S
C3975 H3989 0.961 . S
C3975 H3990 0.961 . S
C3975 H3991 0.961 . S
C3976 C3977 1.370 . S
C3976 C3978 1.363 . S
C3976 H3992 0.931 . S
C3977 C3976 1.370 . S
C3977 C3981 1.408 . S
C3978 C3976 1.363 . S
C3978 C3979 1.370 . S
C3978 C3982 1.524 . S
C3979 C3971 1.503 1_556 S
C3979 C3978 1.370 . S
C3979 C3980 1.403 . S
C3980 C3979 1.403 . S
C3980 C3981 1.404 . S
C3980 C3983 1.539 . S
C3981 C3977 1.408 . S
C3981 C3980 1.404 . S
C3981 H3993 0.930 . S
C3982 C3978 1.524 . S
C3982 H3994 0.956 . S
C3982 H3995 0.961 1_556 S
C3982 H3996 0.961 . S
C3983 C3980 1.539 . S
C3983 H3997 0.958 . S
C3983 H3998 0.961 . S
C3983 H3999 0.960 1_556 S
H3984 C3968 0.931 . S
H3985 C3973 0.929 . S
H3986 C3974 0.960 . S
H3987 C3974 0.962 . S
H3988 C3974 0.960 . S
H3989 C3975 0.961 . S
H3990 C3975 0.961 . S
H3991 C3975 0.961 . S
H3992 C3976 0.931 . S
H3993 C3981 0.930 . S
H3994 C3982 0.956 . S
H3995 C3982 0.961 1_554 S
H3996 C3982 0.961 . S
H3997 C3983 0.958 . S
H3998 C3983 0.961 . S
H3999 C3983 0.960 1_554 S
C4000 C4001 1.391 . S
C4000 C4002 1.394 . S
C4000 H4016 0.931 . S
C4001 C4000 1.391 . S
C4001 C4005 1.376 . S
C4002 C4000 1.394 . S
C4002 C4003 1.369 . S
C4002 C4006 1.531 . S
C4003 C4002 1.369 . S
C4003 C4004 1.410 . S
C4003 C4011 1.503 . S
C4004 C4003 1.410 . S
C4004 C4005 1.392 . S
C4004 C4007 1.511 . S
C4005 C4001 1.376 . S
C4005 C4004 1.392 . S
C4005 H4017 0.929 . S
C4006 C4002 1.531 . S
C4006 H4018 0.960 . S
C4006 H4019 0.962 . S
C4006 H4020 0.960 . S
C4007 C4004 1.511 . S
C4007 H4021 0.961 . S
C4007 H4022 0.961 . S
C4007 H4023 0.961 . S
C4008 C4009 1.370 . S
C4008 C4010 1.363 . S
C4008 H4024 0.931 . S
C4009 C4008 1.370 . S
C4009 C4013 1.408 . S
C4010 C4008 1.363 . S
C4010 C4011 1.370 . S
C4010 C4014 1.524 . S
C4011 C4003 1.503 . S
C4011 C4010 1.370 . S
C4011 C4012 1.403 . S
C4012 C4011 1.403 . S
C4012 C4013 1.404 . S
C4012 C4015 1.539 . S
C4013 C4009 1.408 . S
C4013 C4012 1.404 . S
C4013 H4025 0.930 . S
C4014 C4010 1.524 . S
C4014 H4026 0.956 . S
C4014 H4027 0.961 . S
C4014 H4028 0.961 . S
C4015 C4012 1.539 . S
C4015 H4029 0.958 . S
C4015 H4030 0.961 . S
C4015 H4031 0.960 . S
H4016 C4000 0.931 . S
H4017 C4005 0.929 . S
H4018 C4006 0.960 . S
H4019 C4006 0.962 . S
H4020 C4006 0.960 . S
H4021 C4007 0.961 . S
H4022 C4007 0.961 . S
H4023 C4007 0.961 . S
H4024 C4008 0.931 . S
H4025 C4013 0.930 . S
H4026 C4014 0.956 . S
H4027 C4014 0.961 . S
H4028 C4014 0.961 . S
H4029 C4015 0.958 . S
H4030 C4015 0.961 . S
H4031 C4015 0.960 . S
C4032 C4033 1.391 . S
C4032 C4034 1.394 . S
C4032 H4048 0.931 . S
C4033 C4032 1.391 . S
C4033 C4037 1.376 . S
C4034 C4032 1.394 . S
C4034 C4035 1.386 . S
C4034 C4038 1.531 . S
C4035 C4034 1.386 . S
C4035 C4036 1.408 1_556 S
C4035 C4043 1.490 1_556 S
C4036 C4035 1.408 1_554 S
C4036 C4037 1.392 1_554 S
C4036 C4039 1.511 . S
C4037 C4033 1.376 . S
C4037 C4036 1.392 1_556 S
C4037 H4049 0.929 . S
C4038 C4034 1.531 . S
C4038 H4050 0.960 . S
C4038 H4051 0.962 . S
C4038 H4052 0.960 . S
C4039 C4036 1.511 . S
C4039 H4053 0.961 . S
C4039 H4054 0.961 . S
C4039 H4055 0.961 . S
C4040 C4041 1.370 . S
C4040 C4042 1.363 . S
C4040 H4056 0.931 . S
C4041 C4040 1.370 . S
C4041 C4045 1.408 . S
C4042 C4040 1.363 . S
C4042 C4043 1.370 . S
C4042 C4046 1.524 1_554 S
C4043 C4035 1.490 1_554 S
C4043 C4042 1.370 . S
C4043 C4044 1.403 . S
C4044 C4043 1.403 . S
C4044 C4045 1.404 . S
C4044 C4047 1.539 . S
C4045 C4041 1.408 . S
C4045 C4044 1.404 . S
C4045 H4057 0.930 . S
C4046 C4042 1.524 1_556 S
C4046 H4058 0.956 . S
C4046 H4059 0.961 . S
C4046 H4060 0.961 . S
C4047 C4044 1.539 . S
C4047 H4061 0.958 . S
C4047 H4062 0.961 . S
C4047 H4063 0.960 . S
H4048 C4032 0.931 . S
H4049 C4037 0.929 . S
H4050 C4038 0.960 . S
H4051 C4038 0.962 . S
H4052 C4038 0.960 . S
H4053 C4039 0.961 . S
H4054 C4039 0.961 . S
H4055 C4039 0.961 . S
H4056 C4040 0.931 . S
H4057 C4045 0.930 . S
H4058 C4046 0.956 . S
H4059 C4046 0.961 . S
H4060 C4046 0.961 . S
H4061 C4047 0.958 . S
H4062 C4047 0.961 . S
H4063 C4047 0.960 . S
C4064 C4065 1.391 . S
C4064 C4066 1.394 . S
C4064 H4080 0.931 . S
C4065 C4064 1.391 . S
C4065 C4069 1.376 . S
C4066 C4064 1.394 . S
C4066 C4067 1.369 . S
C4066 C4070 1.531 . S
C4067 C4066 1.369 . S
C4067 C4068 1.410 . S
C4067 C4075 1.503 . S
C4068 C4067 1.410 . S
C4068 C4069 1.392 . S
C4068 C4071 1.511 . S
C4069 C4065 1.376 . S
C4069 C4068 1.392 . S
C4069 H4081 0.929 . S
C4070 C4066 1.531 . S
C4070 H4082 0.960 . S
C4070 H4083 0.962 . S
C4070 H4084 0.960 . S
C4071 C4068 1.511 . S
C4071 H4085 0.961 . S
C4071 H4086 0.961 . S
C4071 H4087 0.961 . S
C4072 C4073 1.370 . S
C4072 C4074 1.363 . S
C4072 H4088 0.931 . S
C4073 C4072 1.370 . S
C4073 C4077 1.408 . S
C4074 C4072 1.363 . S
C4074 C4075 1.370 . S
C4074 C4078 1.524 . S
C4075 C4067 1.503 . S
C4075 C4074 1.370 . S
C4075 C4076 1.403 . S
C4076 C4075 1.403 . S
C4076 C4077 1.404 . S
C4076 C4079 1.539 . S
C4077 C4073 1.408 . S
C4077 C4076 1.404 . S
C4077 H4089 0.930 . S
C4078 C4074 1.524 . S
C4078 H4090 0.956 . S
C4078 H4091 0.961 . S
C4078 H4092 0.961 . S
C4079 C4076 1.539 . S
C4079 H4093 0.958 . S
C4079 H4094 0.961 . S
C4079 H4095 0.960 . S
H4080 C4064 0.931 . S
H4081 C4069 0.929 . S
H4082 C4070 0.960 . S
H4083 C4070 0.962 . S
H4084 C4070 0.960 . S
H4085 C4071 0.961 . S
H4086 C4071 0.961 . S
H4087 C4071 0.961 . S
H4088 C4072 0.931 . S
H4089 C4077 0.930 . S
H4090 C4078 0.956 . S
H4091 C4078 0.961 . S
H4092 C4078 0.961 . S
H4093 C4079 0.958 . S
H4094 C4079 0.961 . S
H4095 C4079 0.960 . S
C4096 C4097 1.391 . S
C4096 C4098 1.394 . S
C4096 H4112 0.931 . S
C4097 C4096 1.391 . S
C4097 C4101 1.376 . S
C4098 C4096 1.394 . S
C4098 C4099 1.369 . S
C4098 C4102 1.531 . S
C4099 C4098 1.369 . S
C4099 C4100 1.410 . S
C4099 C4107 1.503 . S
C4100 C4099 1.410 . S
C4100 C4101 1.392 . S
C4100 C4103 1.511 . S
C4101 C4097 1.376 . S
C4101 C4100 1.392 . S
C4101 H4113 0.929 . S
C4102 C4098 1.531 . S
C4102 H4114 0.960 . S
C4102 H4115 0.962 . S
C4102 H4116 0.960 . S
C4103 C4100 1.511 . S
C4103 H4117 0.961 . S
C4103 H4118 0.961 . S
C4103 H4119 0.961 . S
C4104 C4105 1.370 . S
C4104 C4106 1.363 . S
C4104 H4120 0.931 . S
C4105 C4104 1.370 . S
C4105 C4109 1.408 . S
C4106 C4104 1.363 . S
C4106 C4107 1.370 . S
C4106 C4110 1.524 . S
C4107 C4099 1.503 . S
C4107 C4106 1.370 . S
C4107 C4108 1.403 . S
C4108 C4107 1.403 . S
C4108 C4109 1.404 . S
C4108 C4111 1.539 . S
C4109 C4105 1.408 . S
C4109 C4108 1.404 . S
C4109 H4121 0.930 . S
C4110 C4106 1.524 . S
C4110 H4122 0.956 . S
C4110 H4123 0.961 . S
C4110 H4124 0.961 . S
C4111 C4108 1.539 . S
C4111 H4125 0.958 . S
C4111 H4126 0.961 . S
C4111 H4127 0.960 . S
H4112 C4096 0.931 . S
H4113 C4101 0.929 . S
H4114 C4102 0.960 . S
H4115 C4102 0.962 . S
H4116 C4102 0.960 . S
H4117 C4103 0.961 . S
H4118 C4103 0.961 . S
H4119 C4103 0.961 . S
H4120 C4104 0.931 . S
H4121 C4109 0.930 . S
H4122 C4110 0.956 . S
H4123 C4110 0.961 . S
H4124 C4110 0.961 . S
H4125 C4111 0.958 . S
H4126 C4111 0.961 . S
H4127 C4111 0.960 . S
C4128 C4129 1.391 . S
C4128 C4130 1.394 . S
C4128 H4144 0.931 . S
C4129 C4128 1.391 . S
C4129 C4133 1.376 . S
C4130 C4128 1.394 . S
C4130 C4131 1.369 . S
C4130 C4134 1.531 . S
C4131 C4130 1.369 . S
C4131 C4132 1.410 . S
C4131 C4139 1.503 . S
C4132 C4131 1.410 . S
C4132 C4133 1.392 . S
C4132 C4135 1.511 . S
C4133 C4129 1.376 . S
C4133 C4132 1.392 . S
C4133 H4145 0.929 . S
C4134 C4130 1.531 . S
C4134 H4146 0.960 . S
C4134 H4147 0.962 . S
C4134 H4148 0.960 . S
C4135 C4132 1.511 . S
C4135 H4149 0.961 . S
C4135 H4150 0.961 . S
C4135 H4151 0.961 . S
C4136 C4137 1.370 . S
C4136 C4138 1.363 . S
C4136 H4152 0.931 . S
C4137 C4136 1.370 . S
C4137 C4141 1.408 . S
C4138 C4136 1.363 . S
C4138 C4139 1.370 . S
C4138 C4142 1.524 . S
C4139 C4131 1.503 . S
C4139 C4138 1.370 . S
C4139 C4140 1.403 . S
C4140 C4139 1.403 . S
C4140 C4141 1.404 . S
C4140 C4143 1.539 . S
C4141 C4137 1.408 . S
C4141 C4140 1.404 . S
C4141 H4153 0.930 . S
C4142 C4138 1.524 . S
C4142 H4154 0.956 . S
C4142 H4155 0.961 . S
C4142 H4156 0.961 . S
C4143 C4140 1.539 . S
C4143 H4157 0.958 . S
C4143 H4158 0.961 . S
C4143 H4159 0.960 . S
H4144 C4128 0.931 . S
H4145 C4133 0.929 . S
H4146 C4134 0.960 . S
H4147 C4134 0.962 . S
H4148 C4134 0.960 . S
H4149 C4135 0.961 . S
H4150 C4135 0.961 . S
H4151 C4135 0.961 . S
H4152 C4136 0.931 . S
H4153 C4141 0.930 . S
H4154 C4142 0.956 . S
H4155 C4142 0.961 . S
H4156 C4142 0.961 . S
H4157 C4143 0.958 . S
H4158 C4143 0.961 . S
H4159 C4143 0.960 . S
C4160 C4161 1.391 . S
C4160 C4162 1.394 . S
C4160 H4176 0.931 . S
C4161 C4160 1.391 . S
C4161 C4165 1.376 . S
C4162 C4160 1.394 . S
C4162 C4163 1.371 . S
C4162 C4166 1.531 . S
C4163 C4162 1.371 . S
C4163 C4164 1.410 . S
C4163 C4171 1.501 1_545 S
C4164 C4163 1.410 . S
C4164 C4165 1.394 . S
C4164 C4167 1.510 1_545 S
C4165 C4161 1.376 . S
C4165 C4164 1.394 . S
C4165 H4177 0.929 . S
C4166 C4162 1.531 . S
C4166 H4178 0.921 1_545 S
C4166 H4179 0.962 . S
C4166 H4180 0.960 . S
C4167 C4164 1.510 1_565 S
C4167 H4181 0.961 . S
C4167 H4182 0.961 . S
C4167 H4183 0.961 . S
C4168 C4169 1.370 . S
C4168 C4170 1.363 . S
C4168 H4184 0.931 . S
C4169 C4168 1.370 . S
C4169 C4173 1.408 . S
C4170 C4168 1.363 . S
C4170 C4171 1.370 . S
C4170 C4174 1.524 1_565 S
C4171 C4163 1.501 1_565 S
C4171 C4170 1.370 . S
C4171 C4172 1.403 . S
C4172 C4171 1.403 . S
C4172 C4173 1.404 . S
C4172 C4175 1.539 . S
C4173 C4169 1.408 . S
C4173 C4172 1.404 . S
C4173 H4185 0.930 . S
C4174 C4170 1.524 1_545 S
C4174 H4186 0.956 . S
C4174 H4187 0.961 . S
C4174 H4188 0.961 . S
C4175 C4172 1.539 . S
C4175 H4189 0.958 . S
C4175 H4190 0.961 . S
C4175 H4191 0.960 . S
H4176 C4160 0.931 . S
H4177 C4165 0.929 . S
H4178 C4166 0.921 1_565 S
H4179 C4166 0.962 . S
H4180 C4166 0.960 . S
H4181 C4167 0.961 . S
H4182 C4167 0.961 . S
H4183 C4167 0.961 . S
H4184 C4168 0.931 . S
H4185 C4173 0.930 . S
H4186 C4174 0.956 . S
H4187 C4174 0.961 . S
H4188 C4174 0.961 . S
H4189 C4175 0.958 . S
H4190 C4175 0.961 . S
H4191 C4175 0.960 . S
C4192 C4193 1.391 . S
C4192 C4194 1.394 . S
C4192 H4208 0.931 . S
C4193 C4192 1.391 . S
C4193 C4197 1.376 . S
C4194 C4192 1.394 . S
C4194 C4195 1.369 . S
C4194 C4198 1.531 . S
C4195 C4194 1.369 . S
C4195 C4196 1.410 . S
C4195 C4203 1.503 . S
C4196 C4195 1.410 . S
C4196 C4197 1.392 . S
C4196 C4199 1.511 . S
C4197 C4193 1.376 . S
C4197 C4196 1.392 . S
C4197 H4209 0.929 . S
C4198 C4194 1.531 . S
C4198 H4210 0.960 . S
C4198 H4211 0.962 . S
C4198 H4212 0.960 . S
C4199 C4196 1.511 . S
C4199 H4213 0.961 . S
C4199 H4214 0.961 . S
C4199 H4215 0.961 . S
C4200 C4201 1.370 . S
C4200 C4202 1.363 . S
C4200 H4216 0.931 . S
C4201 C4200 1.370 . S
C4201 C4205 1.408 . S
C4202 C4200 1.363 . S
C4202 C4203 1.370 . S
C4202 C4206 1.524 . S
C4203 C4195 1.503 . S
C4203 C4202 1.370 . S
C4203 C4204 1.403 . S
C4204 C4203 1.403 . S
C4204 C4205 1.404 . S
C4204 C4207 1.539 . S
C4205 C4201 1.408 . S
C4205 C4204 1.404 . S
C4205 H4217 0.930 . S
C4206 C4202 1.524 . S
C4206 H4218 0.956 . S
C4206 H4219 0.961 . S
C4206 H4220 0.961 . S
C4207 C4204 1.539 . S
C4207 H4221 0.958 . S
C4207 H4222 0.961 . S
C4207 H4223 0.960 . S
H4208 C4192 0.931 . S
H4209 C4197 0.929 . S
H4210 C4198 0.960 . S
H4211 C4198 0.962 . S
H4212 C4198 0.960 . S
H4213 C4199 0.961 . S
H4214 C4199 0.961 . S
H4215 C4199 0.961 . S
H4216 C4200 0.931 . S
H4217 C4205 0.930 . S
H4218 C4206 0.956 . S
H4219 C4206 0.961 . S
H4220 C4206 0.961 . S
H4221 C4207 0.958 . S
H4222 C4207 0.961 . S
H4223 C4207 0.960 . S
C4224 C4225 1.391 . S
C4224 C4226 1.394 . S
C4224 H4240 0.931 . S
C4225 C4224 1.391 . S
C4225 C4229 1.376 . S
C4226 C4224 1.394 . S
C4226 C4227 1.369 . S
C4226 C4230 1.531 . S
C4227 C4226 1.369 . S
C4227 C4228 1.410 . S
C4227 C4235 1.503 . S
C4228 C4227 1.410 . S
C4228 C4229 1.392 . S
C4228 C4231 1.511 . S
C4229 C4225 1.376 . S
C4229 C4228 1.392 . S
C4229 H4241 0.929 . S
C4230 C4226 1.531 . S
C4230 H4242 0.960 . S
C4230 H4243 0.962 . S
C4230 H4244 0.960 . S
C4231 C4228 1.511 . S
C4231 H4245 0.961 . S
C4231 H4246 0.961 . S
C4231 H4247 0.961 . S
C4232 C4233 1.370 . S
C4232 C4234 1.363 . S
C4232 H4248 0.931 . S
C4233 C4232 1.370 . S
C4233 C4237 1.408 . S
C4234 C4232 1.363 . S
C4234 C4235 1.370 . S
C4234 C4238 1.524 . S
C4235 C4227 1.503 . S
C4235 C4234 1.370 . S
C4235 C4236 1.403 . S
C4236 C4235 1.403 . S
C4236 C4237 1.404 . S
C4236 C4239 1.539 . S
C4237 C4233 1.408 . S
C4237 C4236 1.404 . S
C4237 H4249 0.930 . S
C4238 C4234 1.524 . S
C4238 H4250 0.956 . S
C4238 H4251 0.961 . S
C4238 H4252 0.961 . S
C4239 C4236 1.539 . S
C4239 H4253 0.958 . S
C4239 H4254 0.961 . S
C4239 H4255 0.960 . S
H4240 C4224 0.931 . S
H4241 C4229 0.929 . S
H4242 C4230 0.960 . S
H4243 C4230 0.962 . S
H4244 C4230 0.960 . S
H4245 C4231 0.961 . S
H4246 C4231 0.961 . S
H4247 C4231 0.961 . S
H4248 C4232 0.931 . S
H4249 C4237 0.930 . S
H4250 C4238 0.956 . S
H4251 C4238 0.961 . S
H4252 C4238 0.961 . S
H4253 C4239 0.958 . S
H4254 C4239 0.961 . S
H4255 C4239 0.960 . S
C4256 C4257 1.391 . S
C4256 C4258 1.394 . S
C4256 H4272 0.931 . S
C4257 C4256 1.391 . S
C4257 C4261 1.376 . S
C4258 C4256 1.394 . S
C4258 C4259 1.369 . S
C4258 C4262 1.531 . S
C4259 C4258 1.369 . S
C4259 C4260 1.410 . S
C4259 C4267 1.503 . S
C4260 C4259 1.410 . S
C4260 C4261 1.392 . S
C4260 C4263 1.511 . S
C4261 C4257 1.376 . S
C4261 C4260 1.392 . S
C4261 H4273 0.929 . S
C4262 C4258 1.531 . S
C4262 H4274 0.960 . S
C4262 H4275 0.962 . S
C4262 H4276 0.960 . S
C4263 C4260 1.511 . S
C4263 H4277 0.961 . S
C4263 H4278 0.961 . S
C4263 H4279 0.961 . S
C4264 C4265 1.370 . S
C4264 C4266 1.363 . S
C4264 H4280 0.931 . S
C4265 C4264 1.370 . S
C4265 C4269 1.408 . S
C4266 C4264 1.363 . S
C4266 C4267 1.370 . S
C4266 C4270 1.524 . S
C4267 C4259 1.503 . S
C4267 C4266 1.370 . S
C4267 C4268 1.403 . S
C4268 C4267 1.403 . S
C4268 C4269 1.404 . S
C4268 C4271 1.539 . S
C4269 C4265 1.408 . S
C4269 C4268 1.404 . S
C4269 H4281 0.930 . S
C4270 C4266 1.524 . S
C4270 H4282 0.956 . S
C4270 H4283 0.961 . S
C4270 H4284 0.961 . S
C4271 C4268 1.539 . S
C4271 H4285 0.958 . S
C4271 H4286 0.961 . S
C4271 H4287 0.960 . S
H4272 C4256 0.931 . S
H4273 C4261 0.929 . S
H4274 C4262 0.960 . S
H4275 C4262 0.962 . S
H4276 C4262 0.960 . S
H4277 C4263 0.961 . S
H4278 C4263 0.961 . S
H4279 C4263 0.961 . S
H4280 C4264 0.931 . S
H4281 C4269 0.930 . S
H4282 C4270 0.956 . S
H4283 C4270 0.961 . S
H4284 C4270 0.961 . S
H4285 C4271 0.958 . S
H4286 C4271 0.961 . S
H4287 C4271 0.960 . S
C4288 C4289 1.391 . S
C4288 C4290 1.394 . S
C4288 H4304 0.931 . S
C4289 C4288 1.391 . S
C4289 C4293 1.376 . S
C4290 C4288 1.394 . S
C4290 C4291 1.369 . S
C4290 C4294 1.531 . S
C4291 C4290 1.369 . S
C4291 C4292 1.410 . S
C4291 C4299 1.503 . S
C4292 C4291 1.410 . S
C4292 C4293 1.392 . S
C4292 C4295 1.511 . S
C4293 C4289 1.376 . S
C4293 C4292 1.392 . S
C4293 H4305 0.929 . S
C4294 C4290 1.531 . S
C4294 H4306 0.960 . S
C4294 H4307 0.962 . S
C4294 H4308 0.960 . S
C4295 C4292 1.511 . S
C4295 H4309 0.961 . S
C4295 H4310 0.961 . S
C4295 H4311 0.961 . S
C4296 C4297 1.370 . S
C4296 C4298 1.363 . S
C4296 H4312 0.931 . S
C4297 C4296 1.370 . S
C4297 C4301 1.408 . S
C4298 C4296 1.363 . S
C4298 C4299 1.370 . S
C4298 C4302 1.524 . S
C4299 C4291 1.503 . S
C4299 C4298 1.370 . S
C4299 C4300 1.403 . S
C4300 C4299 1.403 . S
C4300 C4301 1.404 . S
C4300 C4303 1.539 . S
C4301 C4297 1.408 . S
C4301 C4300 1.404 . S
C4301 H4313 0.930 . S
C4302 C4298 1.524 . S
C4302 H4314 0.956 . S
C4302 H4315 0.961 . S
C4302 H4316 0.961 . S
C4303 C4300 1.539 . S
C4303 H4317 0.958 . S
C4303 H4318 0.961 . S
C4303 H4319 0.960 . S
H4304 C4288 0.931 . S
H4305 C4293 0.929 . S
H4306 C4294 0.960 . S
H4307 C4294 0.962 . S
H4308 C4294 0.960 . S
H4309 C4295 0.961 . S
H4310 C4295 0.961 . S
H4311 C4295 0.961 . S
H4312 C4296 0.931 . S
H4313 C4301 0.930 . S
H4314 C4302 0.956 . S
H4315 C4302 0.961 . S
H4316 C4302 0.961 . S
H4317 C4303 0.958 . S
H4318 C4303 0.961 . S
H4319 C4303 0.960 . S
C4320 C4321 1.391 . S
C4320 C4322 1.394 . S
C4320 H4336 0.931 . S
C4321 C4320 1.391 . S
C4321 C4325 1.376 . S
C4322 C4320 1.394 . S
C4322 C4323 1.369 . S
C4322 C4326 1.531 . S
C4323 C4322 1.369 . S
C4323 C4324 1.410 . S
C4323 C4331 1.503 . S
C4324 C4323 1.410 . S
C4324 C4325 1.392 . S
C4324 C4327 1.511 . S
C4325 C4321 1.376 . S
C4325 C4324 1.392 . S
C4325 H4337 0.929 . S
C4326 C4322 1.531 . S
C4326 H4338 0.960 . S
C4326 H4339 0.962 . S
C4326 H4340 0.960 . S
C4327 C4324 1.511 . S
C4327 H4341 0.961 . S
C4327 H4342 0.961 . S
C4327 H4343 0.961 . S
C4328 C4329 1.370 . S
C4328 C4330 1.363 . S
C4328 H4344 0.931 . S
C4329 C4328 1.370 . S
C4329 C4333 1.408 . S
C4330 C4328 1.363 . S
C4330 C4331 1.370 . S
C4330 C4334 1.524 . S
C4331 C4323 1.503 . S
C4331 C4330 1.370 . S
C4331 C4332 1.403 . S
C4332 C4331 1.403 . S
C4332 C4333 1.404 . S
C4332 C4335 1.539 . S
C4333 C4329 1.408 . S
C4333 C4332 1.404 . S
C4333 H4345 0.930 . S
C4334 C4330 1.524 . S
C4334 H4346 0.956 . S
C4334 H4347 0.961 . S
C4334 H4348 0.961 . S
C4335 C4332 1.539 . S
C4335 H4349 0.958 . S
C4335 H4350 0.961 . S
C4335 H4351 0.960 . S
H4336 C4320 0.931 . S
H4337 C4325 0.929 . S
H4338 C4326 0.960 . S
H4339 C4326 0.962 . S
H4340 C4326 0.960 . S
H4341 C4327 0.961 . S
H4342 C4327 0.961 . S
H4343 C4327 0.961 . S
H4344 C4328 0.931 . S
H4345 C4333 0.930 . S
H4346 C4334 0.956 . S
H4347 C4334 0.961 . S
H4348 C4334 0.961 . S
H4349 C4335 0.958 . S
H4350 C4335 0.961 . S
H4351 C4335 0.960 . S
C4352 C4353 1.391 . S
C4352 C4354 1.394 . S
C4352 H4368 0.931 . S
C4353 C4352 1.391 . S
C4353 C4357 1.376 . S
C4354 C4352 1.394 . S
C4354 C4355 1.369 . S
C4354 C4358 1.531 1_565 S
C4355 C4354 1.369 . S
C4355 C4356 1.410 . S
C4355 C4363 1.503 1_565 S
C4356 C4355 1.410 . S
C4356 C4357 1.392 . S
C4356 C4359 1.511 . S
C4357 C4353 1.376 . S
C4357 C4356 1.392 . S
C4357 H4369 0.929 . S
C4358 C4354 1.531 1_545 S
C4358 H4370 0.960 . S
C4358 H4371 0.962 . S
C4358 H4372 0.960 . S
C4359 C4356 1.511 . S
C4359 H4373 0.961 . S
C4359 H4374 0.961 . S
C4359 H4375 0.961 . S
C4360 C4361 1.370 . S
C4360 C4362 1.363 . S
C4360 H4376 0.931 . S
C4361 C4360 1.370 . S
C4361 C4365 1.408 . S
C4362 C4360 1.363 . S
C4362 C4363 1.370 . S
C4362 C4366 1.522 1_545 S
C4363 C4355 1.503 1_545 S
C4363 C4362 1.370 . S
C4363 C4364 1.403 . S
C4364 C4363 1.403 . S
C4364 C4365 1.404 . S
C4364 C4367 1.539 . S
C4365 C4361 1.408 . S
C4365 C4364 1.404 . S
C4365 H4377 0.930 . S
C4366 C4362 1.522 1_565 S
C4366 H4378 0.953 1_565 S
C4366 H4379 0.968 . S
C4366 H4380 0.959 1_565 S
C4367 C4364 1.539 . S
C4367 H4381 0.958 . S
C4367 H4382 0.961 . S
C4367 H4383 0.960 1_545 S
H4368 C4352 0.931 . S
H4369 C4357 0.929 . S
H4370 C4358 0.960 . S
H4371 C4358 0.962 . S
H4372 C4358 0.960 . S
H4373 C4359 0.961 . S
H4374 C4359 0.961 . S
H4375 C4359 0.961 . S
H4376 C4360 0.931 . S
H4377 C4365 0.930 . S
H4378 C4366 0.953 1_545 S
H4379 C4366 0.968 . S
H4380 C4366 0.959 1_545 S
H4381 C4367 0.958 . S
H4382 C4367 0.961 . S
H4383 C4367 0.960 1_565 S
C4384 C4385 1.391 . S
C4384 C4386 1.394 . S
C4384 H4400 0.931 . S
C4385 C4384 1.391 . S
C4385 C4389 1.376 . S
C4386 C4384 1.394 . S
C4386 C4387 1.369 . S
C4386 C4390 1.531 . S
C4387 C4386 1.369 . S
C4387 C4388 1.410 . S
C4387 C4395 1.503 . S
C4388 C4387 1.410 . S
C4388 C4389 1.392 . S
C4388 C4391 1.511 . S
C4389 C4385 1.376 . S
C4389 C4388 1.392 . S
C4389 H4401 0.929 . S
C4390 C4386 1.531 . S
C4390 H4402 0.960 . S
C4390 H4403 0.962 . S
C4390 H4404 0.960 . S
C4391 C4388 1.511 . S
C4391 H4405 0.961 . S
C4391 H4406 0.961 . S
C4391 H4407 0.961 . S
C4392 C4393 1.370 . S
C4392 C4394 1.363 . S
C4392 H4408 0.931 . S
C4393 C4392 1.370 . S
C4393 C4397 1.408 . S
C4394 C4392 1.363 . S
C4394 C4395 1.370 . S
C4394 C4398 1.524 . S
C4395 C4387 1.503 . S
C4395 C4394 1.370 . S
C4395 C4396 1.403 . S
C4396 C4395 1.403 . S
C4396 C4397 1.404 . S
C4396 C4399 1.539 . S
C4397 C4393 1.408 . S
C4397 C4396 1.404 . S
C4397 H4409 0.930 . S
C4398 C4394 1.524 . S
C4398 H4410 0.956 . S
C4398 H4411 0.961 . S
C4398 H4412 0.961 . S
C4399 C4396 1.539 . S
C4399 H4413 0.958 . S
C4399 H4414 0.961 . S
C4399 H4415 0.960 . S
H4400 C4384 0.931 . S
H4401 C4389 0.929 . S
H4402 C4390 0.960 . S
H4403 C4390 0.962 . S
H4404 C4390 0.960 . S
H4405 C4391 0.961 . S
H4406 C4391 0.961 . S
H4407 C4391 0.961 . S
H4408 C4392 0.931 . S
H4409 C4397 0.930 . S
H4410 C4398 0.956 . S
H4411 C4398 0.961 . S
H4412 C4398 0.961 . S
H4413 C4399 0.958 . S
H4414 C4399 0.961 . S
H4415 C4399 0.960 . S
C4416 C4417 1.391 . S
C4416 C4418 1.394 . S
C4416 H4432 0.931 . S
C4417 C4416 1.391 . S
C4417 C4421 1.376 . S
C4418 C4416 1.394 . S
C4418 C4419 1.369 . S
C4418 C4422 1.531 . S
C4419 C4418 1.369 . S
C4419 C4420 1.410 . S
C4419 C4427 1.503 . S
C4420 C4419 1.410 . S
C4420 C4421 1.392 . S
C4420 C4423 1.511 . S
C4421 C4417 1.376 . S
C4421 C4420 1.392 . S
C4421 H4433 0.929 . S
C4422 C4418 1.531 . S
C4422 H4434 0.960 . S
C4422 H4435 0.962 . S
C4422 H4436 0.960 . S
C4423 C4420 1.511 . S
C4423 H4437 0.961 . S
C4423 H4438 0.961 . S
C4423 H4439 0.961 . S
C4424 C4425 1.370 . S
C4424 C4426 1.363 . S
C4424 H4440 0.931 . S
C4425 C4424 1.370 . S
C4425 C4429 1.408 . S
C4426 C4424 1.363 . S
C4426 C4427 1.370 . S
C4426 C4430 1.524 . S
C4427 C4419 1.503 . S
C4427 C4426 1.370 . S
C4427 C4428 1.403 . S
C4428 C4427 1.403 . S
C4428 C4429 1.404 . S
C4428 C4431 1.539 . S
C4429 C4425 1.408 . S
C4429 C4428 1.404 . S
C4429 H4441 0.930 . S
C4430 C4426 1.524 . S
C4430 H4442 0.956 . S
C4430 H4443 0.961 . S
C4430 H4444 0.961 . S
C4431 C4428 1.539 . S
C4431 H4445 0.958 . S
C4431 H4446 0.961 . S
C4431 H4447 0.960 . S
H4432 C4416 0.931 . S
H4433 C4421 0.929 . S
H4434 C4422 0.960 . S
H4435 C4422 0.962 . S
H4436 C4422 0.960 . S
H4437 C4423 0.961 . S
H4438 C4423 0.961 . S
H4439 C4423 0.961 . S
H4440 C4424 0.931 . S
H4441 C4429 0.930 . S
H4442 C4430 0.956 . S
H4443 C4430 0.961 . S
H4444 C4430 0.961 . S
H4445 C4431 0.958 . S
H4446 C4431 0.961 . S
H4447 C4431 0.960 . S
C4448 C4449 1.391 . S
C4448 C4450 1.394 . S
C4448 H4464 0.931 . S
C4449 C4448 1.391 . S
C4449 C4453 1.376 . S
C4450 C4448 1.394 . S
C4450 C4451 1.369 . S
C4450 C4454 1.531 . S
C4451 C4450 1.369 . S
C4451 C4452 1.410 . S
C4451 C4459 1.503 . S
C4452 C4451 1.410 . S
C4452 C4453 1.392 . S
C4452 C4455 1.511 . S
C4453 C4449 1.376 . S
C4453 C4452 1.392 . S
C4453 H4465 0.929 . S
C4454 C4450 1.531 . S
C4454 H4466 0.960 . S
C4454 H4467 0.962 . S
C4454 H4468 0.960 . S
C4455 C4452 1.511 . S
C4455 H4469 0.961 . S
C4455 H4470 0.961 . S
C4455 H4471 0.961 . S
C4456 C4457 1.370 . S
C4456 C4458 1.363 . S
C4456 H4472 0.931 . S
C4457 C4456 1.370 . S
C4457 C4461 1.408 . S
C4458 C4456 1.363 . S
C4458 C4459 1.370 . S
C4458 C4462 1.524 . S
C4459 C4451 1.503 . S
C4459 C4458 1.370 . S
C4459 C4460 1.403 . S
C4460 C4459 1.403 . S
C4460 C4461 1.404 . S
C4460 C4463 1.539 . S
C4461 C4457 1.408 . S
C4461 C4460 1.404 . S
C4461 H4473 0.930 . S
C4462 C4458 1.524 . S
C4462 H4474 0.956 . S
C4462 H4475 0.961 . S
C4462 H4476 0.961 . S
C4463 C4460 1.539 . S
C4463 H4477 0.958 . S
C4463 H4478 0.961 . S
C4463 H4479 0.960 . S
H4464 C4448 0.931 . S
H4465 C4453 0.929 . S
H4466 C4454 0.960 . S
H4467 C4454 0.962 . S
H4468 C4454 0.960 . S
H4469 C4455 0.961 . S
H4470 C4455 0.961 . S
H4471 C4455 0.961 . S
H4472 C4456 0.931 . S
H4473 C4461 0.930 . S
H4474 C4462 0.956 . S
H4475 C4462 0.961 . S
H4476 C4462 0.961 . S
H4477 C4463 0.958 . S
H4478 C4463 0.961 . S
H4479 C4463 0.960 . S
C4480 C4481 1.391 . S
C4480 C4482 1.394 . S
C4480 H4496 0.931 . S
C4481 C4480 1.391 . S
C4481 C4485 1.376 . S
C4482 C4480 1.394 . S
C4482 C4483 1.369 . S
C4482 C4486 1.531 . S
C4483 C4482 1.369 . S
C4483 C4484 1.410 . S
C4483 C4491 1.503 . S
C4484 C4483 1.410 . S
C4484 C4485 1.392 . S
C4484 C4487 1.511 . S
C4485 C4481 1.376 . S
C4485 C4484 1.392 . S
C4485 H4497 0.929 . S
C4486 C4482 1.531 . S
C4486 H4498 0.960 . S
C4486 H4499 0.962 . S
C4486 H4500 0.960 . S
C4487 C4484 1.511 . S
C4487 H4501 0.961 . S
C4487 H4502 0.961 . S
C4487 H4503 0.961 . S
C4488 C4489 1.370 . S
C4488 C4490 1.363 . S
C4488 H4504 0.931 . S
C4489 C4488 1.370 . S
C4489 C4493 1.408 . S
C4490 C4488 1.363 . S
C4490 C4491 1.370 . S
C4490 C4494 1.524 . S
C4491 C4483 1.503 . S
C4491 C4490 1.370 . S
C4491 C4492 1.403 . S
C4492 C4491 1.403 . S
C4492 C4493 1.404 . S
C4492 C4495 1.539 . S
C4493 C4489 1.408 . S
C4493 C4492 1.404 . S
C4493 H4505 0.930 . S
C4494 C4490 1.524 . S
C4494 H4506 0.956 . S
C4494 H4507 0.961 . S
C4494 H4508 0.961 . S
C4495 C4492 1.539 . S
C4495 H4509 0.958 . S
C4495 H4510 0.961 . S
C4495 H4511 0.960 . S
H4496 C4480 0.931 . S
H4497 C4485 0.929 . S
H4498 C4486 0.960 . S
H4499 C4486 0.962 . S
H4500 C4486 0.960 . S
H4501 C4487 0.961 . S
H4502 C4487 0.961 . S
H4503 C4487 0.961 . S
H4504 C4488 0.931 . S
H4505 C4493 0.930 . S
H4506 C4494 0.956 . S
H4507 C4494 0.961 . S
H4508 C4494 0.961 . S
H4509 C4495 0.958 . S
H4510 C4495 0.961 . S
H4511 C4495 0.960 . S
C4512 C4513 1.391 . S
C4512 C4514 1.394 . S
C4512 H4528 0.931 . S
C4513 C4512 1.391 . S
C4513 C4517 1.376 . S
C4514 C4512 1.394 . S
C4514 C4515 1.369 . S
C4514 C4518 1.531 . S
C4515 C4514 1.369 . S
C4515 C4516 1.410 . S
C4515 C4523 1.503 . S
C4516 C4515 1.410 . S
C4516 C4517 1.392 . S
C4516 C4519 1.511 . S
C4517 C4513 1.376 . S
C4517 C4516 1.392 . S
C4517 H4529 0.929 . S
C4518 C4514 1.531 . S
C4518 H4530 0.960 . S
C4518 H4531 0.962 . S
C4518 H4532 0.960 . S
C4519 C4516 1.511 . S
C4519 H4533 0.961 . S
C4519 H4534 0.961 . S
C4519 H4535 0.961 . S
C4520 C4521 1.370 . S
C4520 C4522 1.363 . S
C4520 H4536 0.931 . S
C4521 C4520 1.370 . S
C4521 C4525 1.408 . S
C4522 C4520 1.363 . S
C4522 C4523 1.370 . S
C4522 C4526 1.524 . S
C4523 C4515 1.503 . S
C4523 C4522 1.370 . S
C4523 C4524 1.403 . S
C4524 C4523 1.403 . S
C4524 C4525 1.404 . S
C4524 C4527 1.539 . S
C4525 C4521 1.408 . S
C4525 C4524 1.404 . S
C4525 H4537 0.930 . S
C4526 C4522 1.524 . S
C4526 H4538 0.956 . S
C4526 H4539 0.961 . S
C4526 H4540 0.961 . S
C4527 C4524 1.539 . S
C4527 H4541 0.958 . S
C4527 H4542 0.961 . S
C4527 H4543 0.960 . S
H4528 C4512 0.931 . S
H4529 C4517 0.929 . S
H4530 C4518 0.960 . S
H4531 C4518 0.962 . S
H4532 C4518 0.960 . S
H4533 C4519 0.961 . S
H4534 C4519 0.961 . S
H4535 C4519 0.961 . S
H4536 C4520 0.931 . S
H4537 C4525 0.930 . S
H4538 C4526 0.956 . S
H4539 C4526 0.961 . S
H4540 C4526 0.961 . S
H4541 C4527 0.958 . S
H4542 C4527 0.961 . S
H4543 C4527 0.960 . S
C4544 C4545 1.391 . S
C4544 C4546 1.394 . S
C4544 H4560 0.931 . S
C4545 C4544 1.391 . S
C4545 C4549 1.376 . S
C4546 C4544 1.394 . S
C4546 C4547 1.369 . S
C4546 C4550 1.531 . S
C4547 C4546 1.369 . S
C4547 C4548 1.410 . S
C4547 C4555 1.503 . S
C4548 C4547 1.410 . S
C4548 C4549 1.392 . S
C4548 C4551 1.511 . S
C4549 C4545 1.376 . S
C4549 C4548 1.392 . S
C4549 H4561 0.929 . S
C4550 C4546 1.531 . S
C4550 H4562 0.960 . S
C4550 H4563 0.962 . S
C4550 H4564 0.960 . S
C4551 C4548 1.511 . S
C4551 H4565 0.961 . S
C4551 H4566 0.961 . S
C4551 H4567 0.961 . S
C4552 C4553 1.370 . S
C4552 C4554 1.363 . S
C4552 H4568 0.931 . S
C4553 C4552 1.370 . S
C4553 C4557 1.408 . S
C4554 C4552 1.363 . S
C4554 C4555 1.370 . S
C4554 C4558 1.524 . S
C4555 C4547 1.503 . S
C4555 C4554 1.370 . S
C4555 C4556 1.403 . S
C4556 C4555 1.403 . S
C4556 C4557 1.404 . S
C4556 C4559 1.539 . S
C4557 C4553 1.408 . S
C4557 C4556 1.404 . S
C4557 H4569 0.930 . S
C4558 C4554 1.524 . S
C4558 H4570 0.956 . S
C4558 H4571 0.961 . S
C4558 H4572 0.961 . S
C4559 C4556 1.539 . S
C4559 H4573 0.958 . S
C4559 H4574 0.961 . S
C4559 H4575 0.960 . S
H4560 C4544 0.931 . S
H4561 C4549 0.929 . S
H4562 C4550 0.960 . S
H4563 C4550 0.962 . S
H4564 C4550 0.960 . S
H4565 C4551 0.961 . S
H4566 C4551 0.961 . S
H4567 C4551 0.961 . S
H4568 C4552 0.931 . S
H4569 C4557 0.930 . S
H4570 C4558 0.956 . S
H4571 C4558 0.961 . S
H4572 C4558 0.961 . S
H4573 C4559 0.958 . S
H4574 C4559 0.961 . S
H4575 C4559 0.960 . S
C4576 C4577 1.391 . S
C4576 C4578 1.394 . S
C4576 H4592 0.931 . S
C4577 C4576 1.391 . S
C4577 C4581 1.376 . S
C4578 C4576 1.394 . S
C4578 C4579 1.369 . S
C4578 C4582 1.531 . S
C4579 C4578 1.369 . S
C4579 C4580 1.410 . S
C4579 C4587 1.503 . S
C4580 C4579 1.410 . S
C4580 C4581 1.392 . S
C4580 C4583 1.511 . S
C4581 C4577 1.376 . S
C4581 C4580 1.392 . S
C4581 H4593 0.929 . S
C4582 C4578 1.531 . S
C4582 H4594 0.960 . S
C4582 H4595 0.962 . S
C4582 H4596 0.960 . S
C4583 C4580 1.511 . S
C4583 H4597 0.961 . S
C4583 H4598 0.961 . S
C4583 H4599 0.961 . S
C4584 C4585 1.370 . S
C4584 C4586 1.363 . S
C4584 H4600 0.931 . S
C4585 C4584 1.370 . S
C4585 C4589 1.408 . S
C4586 C4584 1.363 . S
C4586 C4587 1.370 . S
C4586 C4590 1.524 . S
C4587 C4579 1.503 . S
C4587 C4586 1.370 . S
C4587 C4588 1.403 . S
C4588 C4587 1.403 . S
C4588 C4589 1.404 . S
C4588 C4591 1.539 . S
C4589 C4585 1.408 . S
C4589 C4588 1.404 . S
C4589 H4601 0.930 . S
C4590 C4586 1.524 . S
C4590 H4602 0.956 . S
C4590 H4603 0.961 . S
C4590 H4604 0.961 . S
C4591 C4588 1.539 . S
C4591 H4605 0.958 . S
C4591 H4606 0.961 . S
C4591 H4607 0.960 . S
H4592 C4576 0.931 . S
H4593 C4581 0.929 . S
H4594 C4582 0.960 . S
H4595 C4582 0.962 . S
H4596 C4582 0.960 . S
H4597 C4583 0.961 . S
H4598 C4583 0.961 . S
H4599 C4583 0.961 . S
H4600 C4584 0.931 . S
H4601 C4589 0.930 . S
H4602 C4590 0.956 . S
H4603 C4590 0.961 . S
H4604 C4590 0.961 . S
H4605 C4591 0.958 . S
H4606 C4591 0.961 . S
H4607 C4591 0.960 . S
C4608 C4609 1.391 . S
C4608 C4610 1.394 . S
C4608 H4624 0.931 . S
C4609 C4608 1.391 . S
C4609 C4613 1.376 . S
C4610 C4608 1.394 . S
C4610 C4611 1.369 . S
C4610 C4614 1.531 . S
C4611 C4610 1.369 . S
C4611 C4612 1.410 . S
C4611 C4619 1.503 . S
C4612 C4611 1.410 . S
C4612 C4613 1.392 . S
C4612 C4615 1.511 . S
C4613 C4609 1.376 . S
C4613 C4612 1.392 . S
C4613 H4625 0.929 . S
C4614 C4610 1.531 . S
C4614 H4626 0.960 . S
C4614 H4627 0.962 . S
C4614 H4628 0.960 . S
C4615 C4612 1.511 . S
C4615 H4629 0.961 . S
C4615 H4630 0.961 . S
C4615 H4631 0.961 . S
C4616 C4617 1.370 . S
C4616 C4618 1.363 . S
C4616 H4632 0.931 . S
C4617 C4616 1.370 . S
C4617 C4621 1.408 . S
C4618 C4616 1.363 . S
C4618 C4619 1.370 . S
C4618 C4622 1.524 . S
C4619 C4611 1.503 . S
C4619 C4618 1.370 . S
C4619 C4620 1.403 . S
C4620 C4619 1.403 . S
C4620 C4621 1.404 . S
C4620 C4623 1.539 . S
C4621 C4617 1.408 . S
C4621 C4620 1.404 . S
C4621 H4633 0.930 . S
C4622 C4618 1.524 . S
C4622 H4634 0.956 . S
C4622 H4635 0.961 . S
C4622 H4636 0.961 . S
C4623 C4620 1.539 . S
C4623 H4637 0.958 . S
C4623 H4638 0.961 . S
C4623 H4639 0.960 . S
H4624 C4608 0.931 . S
H4625 C4613 0.929 . S
H4626 C4614 0.960 . S
H4627 C4614 0.962 . S
H4628 C4614 0.960 . S
H4629 C4615 0.961 . S
H4630 C4615 0.961 . S
H4631 C4615 0.961 . S
H4632 C4616 0.931 . S
H4633 C4621 0.930 . S
H4634 C4622 0.956 . S
H4635 C4622 0.961 . S
H4636 C4622 0.961 . S
H4637 C4623 0.958 . S
H4638 C4623 0.961 . S
H4639 C4623 0.960 . S
C4640 C4641 1.391 . S
C4640 C4642 1.394 . S
C4640 H4656 0.931 . S
C4641 C4640 1.391 . S
C4641 C4645 1.376 . S
C4642 C4640 1.394 . S
C4642 C4643 1.369 . S
C4642 C4646 1.531 . S
C4643 C4642 1.369 . S
C4643 C4644 1.410 . S
C4643 C4651 1.503 . S
C4644 C4643 1.410 . S
C4644 C4645 1.392 . S
C4644 C4647 1.511 . S
C4645 C4641 1.376 . S
C4645 C4644 1.392 . S
C4645 H4657 0.929 . S
C4646 C4642 1.531 . S
C4646 H4658 0.960 . S
C4646 H4659 0.962 . S
C4646 H4660 0.960 . S
C4647 C4644 1.511 . S
C4647 H4661 0.961 . S
C4647 H4662 0.961 . S
C4647 H4663 0.961 . S
C4648 C4649 1.370 . S
C4648 C4650 1.363 . S
C4648 H4664 0.931 . S
C4649 C4648 1.370 . S
C4649 C4653 1.408 . S
C4650 C4648 1.363 . S
C4650 C4651 1.370 . S
C4650 C4654 1.524 . S
C4651 C4643 1.503 . S
C4651 C4650 1.370 . S
C4651 C4652 1.403 . S
C4652 C4651 1.403 . S
C4652 C4653 1.404 . S
C4652 C4655 1.539 . S
C4653 C4649 1.408 . S
C4653 C4652 1.404 . S
C4653 H4665 0.930 . S
C4654 C4650 1.524 . S
C4654 H4666 0.956 . S
C4654 H4667 0.961 . S
C4654 H4668 0.961 . S
C4655 C4652 1.539 . S
C4655 H4669 0.958 . S
C4655 H4670 0.961 . S
C4655 H4671 0.960 . S
H4656 C4640 0.931 . S
H4657 C4645 0.929 . S
H4658 C4646 0.960 . S
H4659 C4646 0.962 . S
H4660 C4646 0.960 . S
H4661 C4647 0.961 . S
H4662 C4647 0.961 . S
H4663 C4647 0.961 . S
H4664 C4648 0.931 . S
H4665 C4653 0.930 . S
H4666 C4654 0.956 . S
H4667 C4654 0.961 . S
H4668 C4654 0.961 . S
H4669 C4655 0.958 . S
H4670 C4655 0.961 . S
H4671 C4655 0.960 . S
C4672 C4673 1.391 . S
C4672 C4674 1.394 . S
C4672 H4688 0.931 . S
C4673 C4672 1.391 . S
C4673 C4677 1.376 . S
C4674 C4672 1.394 . S
C4674 C4675 1.369 . S
C4674 C4678 1.531 . S
C4675 C4674 1.369 . S
C4675 C4676 1.410 . S
C4675 C4683 1.503 . S
C4676 C4675 1.410 . S
C4676 C4677 1.392 . S
C4676 C4679 1.511 . S
C4677 C4673 1.376 . S
C4677 C4676 1.392 . S
C4677 H4689 0.929 . S
C4678 C4674 1.531 . S
C4678 H4690 0.960 . S
C4678 H4691 0.962 . S
C4678 H4692 0.960 . S
C4679 C4676 1.511 . S
C4679 H4693 0.961 . S
C4679 H4694 0.961 . S
C4679 H4695 0.961 . S
C4680 C4681 1.370 . S
C4680 C4682 1.363 . S
C4680 H4696 0.931 . S
C4681 C4680 1.370 . S
C4681 C4685 1.408 . S
C4682 C4680 1.363 . S
C4682 C4683 1.370 . S
C4682 C4686 1.524 . S
C4683 C4675 1.503 . S
C4683 C4682 1.370 . S
C4683 C4684 1.403 . S
C4684 C4683 1.403 . S
C4684 C4685 1.404 . S
C4684 C4687 1.539 . S
C4685 C4681 1.408 . S
C4685 C4684 1.404 . S
C4685 H4697 0.930 . S
C4686 C4682 1.524 . S
C4686 H4698 0.956 . S
C4686 H4699 0.961 . S
C4686 H4700 0.961 . S
C4687 C4684 1.539 . S
C4687 H4701 0.958 . S
C4687 H4702 0.961 . S
C4687 H4703 0.960 . S
H4688 C4672 0.931 . S
H4689 C4677 0.929 . S
H4690 C4678 0.960 . S
H4691 C4678 0.962 . S
H4692 C4678 0.960 . S
H4693 C4679 0.961 . S
H4694 C4679 0.961 . S
H4695 C4679 0.961 . S
H4696 C4680 0.931 . S
H4697 C4685 0.930 . S
H4698 C4686 0.956 . S
H4699 C4686 0.961 . S
H4700 C4686 0.961 . S
H4701 C4687 0.958 . S
H4702 C4687 0.961 . S
H4703 C4687 0.960 . S
C4704 C4705 1.391 . S
C4704 C4706 1.394 . S
C4704 H4720 0.931 . S
C4705 C4704 1.391 . S
C4705 C4709 1.376 . S
C4706 C4704 1.394 . S
C4706 C4707 1.369 . S
C4706 C4710 1.531 . S
C4707 C4706 1.369 . S
C4707 C4708 1.410 . S
C4707 C4715 1.503 . S
C4708 C4707 1.410 . S
C4708 C4709 1.392 . S
C4708 C4711 1.511 . S
C4709 C4705 1.376 . S
C4709 C4708 1.392 . S
C4709 H4721 0.929 . S
C4710 C4706 1.531 . S
C4710 H4722 0.960 . S
C4710 H4723 0.962 . S
C4710 H4724 0.960 . S
C4711 C4708 1.511 . S
C4711 H4725 0.961 . S
C4711 H4726 0.961 . S
C4711 H4727 0.961 . S
C4712 C4713 1.370 . S
C4712 C4714 1.363 . S
C4712 H4728 0.931 . S
C4713 C4712 1.370 . S
C4713 C4717 1.408 . S
C4714 C4712 1.363 . S
C4714 C4715 1.370 . S
C4714 C4718 1.524 . S
C4715 C4707 1.503 . S
C4715 C4714 1.370 . S
C4715 C4716 1.403 . S
C4716 C4715 1.403 . S
C4716 C4717 1.404 . S
C4716 C4719 1.539 . S
C4717 C4713 1.408 . S
C4717 C4716 1.404 . S
C4717 H4729 0.930 . S
C4718 C4714 1.524 . S
C4718 H4730 0.956 . S
C4718 H4731 0.961 . S
C4718 H4732 0.961 . S
C4719 C4716 1.539 . S
C4719 H4733 0.958 . S
C4719 H4734 0.961 . S
C4719 H4735 0.960 . S
H4720 C4704 0.931 . S
H4721 C4709 0.929 . S
H4722 C4710 0.960 . S
H4723 C4710 0.962 . S
H4724 C4710 0.960 . S
H4725 C4711 0.961 . S
H4726 C4711 0.961 . S
H4727 C4711 0.961 . S
H4728 C4712 0.931 . S
H4729 C4717 0.930 . S
H4730 C4718 0.956 . S
H4731 C4718 0.961 . S
H4732 C4718 0.961 . S
H4733 C4719 0.958 . S
H4734 C4719 0.961 . S
H4735 C4719 0.960 . S
C4736 C4737 1.391 . S
C4736 C4738 1.394 . S
C4736 H4752 0.931 . S
C4737 C4736 1.391 . S
C4737 C4741 1.376 . S
C4738 C4736 1.394 . S
C4738 C4739 1.369 . S
C4738 C4742 1.531 . S
C4739 C4738 1.369 . S
C4739 C4740 1.410 . S
C4739 C4747 1.503 . S
C4740 C4739 1.410 . S
C4740 C4741 1.392 . S
C4740 C4743 1.511 . S
C4741 C4737 1.376 . S
C4741 C4740 1.392 . S
C4741 H4753 0.929 . S
C4742 C4738 1.531 . S
C4742 H4754 0.960 . S
C4742 H4755 0.962 . S
C4742 H4756 0.960 . S
C4743 C4740 1.511 . S
C4743 H4757 0.961 . S
C4743 H4758 0.961 . S
C4743 H4759 0.961 . S
C4744 C4745 1.370 . S
C4744 C4746 1.363 . S
C4744 H4760 0.931 . S
C4745 C4744 1.370 . S
C4745 C4749 1.408 . S
C4746 C4744 1.363 . S
C4746 C4747 1.370 . S
C4746 C4750 1.524 . S
C4747 C4739 1.503 . S
C4747 C4746 1.370 . S
C4747 C4748 1.403 . S
C4748 C4747 1.403 . S
C4748 C4749 1.404 . S
C4748 C4751 1.539 . S
C4749 C4745 1.408 . S
C4749 C4748 1.404 . S
C4749 H4761 0.930 . S
C4750 C4746 1.524 . S
C4750 H4762 0.956 . S
C4750 H4763 0.961 . S
C4750 H4764 0.961 . S
C4751 C4748 1.539 . S
C4751 H4765 0.958 . S
C4751 H4766 0.961 . S
C4751 H4767 0.960 . S
H4752 C4736 0.931 . S
H4753 C4741 0.929 . S
H4754 C4742 0.960 . S
H4755 C4742 0.962 . S
H4756 C4742 0.960 . S
H4757 C4743 0.961 . S
H4758 C4743 0.961 . S
H4759 C4743 0.961 . S
H4760 C4744 0.931 . S
H4761 C4749 0.930 . S
H4762 C4750 0.956 . S
H4763 C4750 0.961 . S
H4764 C4750 0.961 . S
H4765 C4751 0.958 . S
H4766 C4751 0.961 . S
H4767 C4751 0.960 . S
C4768 C4769 1.391 . S
C4768 C4770 1.394 . S
C4768 H4784 0.931 . S
C4769 C4768 1.391 . S
C4769 C4773 1.376 . S
C4770 C4768 1.394 . S
C4770 C4771 1.369 . S
C4770 C4774 1.531 . S
C4771 C4770 1.369 . S
C4771 C4772 1.410 . S
C4771 C4779 1.503 . S
C4772 C4771 1.410 . S
C4772 C4773 1.392 . S
C4772 C4775 1.511 . S
C4773 C4769 1.376 . S
C4773 C4772 1.392 . S
C4773 H4785 0.929 . S
C4774 C4770 1.531 . S
C4774 H4786 0.960 . S
C4774 H4787 0.962 . S
C4774 H4788 0.960 . S
C4775 C4772 1.511 . S
C4775 H4789 0.961 . S
C4775 H4790 0.961 . S
C4775 H4791 0.961 . S
C4776 C4777 1.370 . S
C4776 C4778 1.363 . S
C4776 H4792 0.931 . S
C4777 C4776 1.370 . S
C4777 C4781 1.408 . S
C4778 C4776 1.363 . S
C4778 C4779 1.370 . S
C4778 C4782 1.524 . S
C4779 C4771 1.503 . S
C4779 C4778 1.370 . S
C4779 C4780 1.403 . S
C4780 C4779 1.403 . S
C4780 C4781 1.404 . S
C4780 C4783 1.539 . S
C4781 C4777 1.408 . S
C4781 C4780 1.404 . S
C4781 H4793 0.930 . S
C4782 C4778 1.524 . S
C4782 H4794 0.956 . S
C4782 H4795 0.961 . S
C4782 H4796 0.961 . S
C4783 C4780 1.539 . S
C4783 H4797 0.958 . S
C4783 H4798 0.961 . S
C4783 H4799 0.960 . S
H4784 C4768 0.931 . S
H4785 C4773 0.929 . S
H4786 C4774 0.960 . S
H4787 C4774 0.962 . S
H4788 C4774 0.960 . S
H4789 C4775 0.961 . S
H4790 C4775 0.961 . S
H4791 C4775 0.961 . S
H4792 C4776 0.931 . S
H4793 C4781 0.930 . S
H4794 C4782 0.956 . S
H4795 C4782 0.961 . S
H4796 C4782 0.961 . S
H4797 C4783 0.958 . S
H4798 C4783 0.961 . S
H4799 C4783 0.960 . S
C4800 C4801 1.391 . S
C4800 C4802 1.394 . S
C4800 H4816 0.931 . S
C4801 C4800 1.391 . S
C4801 C4805 1.376 . S
C4802 C4800 1.394 . S
C4802 C4803 1.369 . S
C4802 C4806 1.531 . S
C4803 C4802 1.369 . S
C4803 C4804 1.410 . S
C4803 C4811 1.503 . S
C4804 C4803 1.410 . S
C4804 C4805 1.392 . S
C4804 C4807 1.511 . S
C4805 C4801 1.376 . S
C4805 C4804 1.392 . S
C4805 H4817 0.929 . S
C4806 C4802 1.531 . S
C4806 H4818 0.960 . S
C4806 H4819 0.962 . S
C4806 H4820 0.960 . S
C4807 C4804 1.511 . S
C4807 H4821 0.961 . S
C4807 H4822 0.961 . S
C4807 H4823 0.961 . S
C4808 C4809 1.370 . S
C4808 C4810 1.363 . S
C4808 H4824 0.931 . S
C4809 C4808 1.370 . S
C4809 C4813 1.408 . S
C4810 C4808 1.363 . S
C4810 C4811 1.370 . S
C4810 C4814 1.524 . S
C4811 C4803 1.503 . S
C4811 C4810 1.370 . S
C4811 C4812 1.403 . S
C4812 C4811 1.403 . S
C4812 C4813 1.404 . S
C4812 C4815 1.539 . S
C4813 C4809 1.408 . S
C4813 C4812 1.404 . S
C4813 H4825 0.930 . S
C4814 C4810 1.524 . S
C4814 H4826 0.956 . S
C4814 H4827 0.961 . S
C4814 H4828 0.961 . S
C4815 C4812 1.539 . S
C4815 H4829 0.958 . S
C4815 H4830 0.961 . S
C4815 H4831 0.960 . S
H4816 C4800 0.931 . S
H4817 C4805 0.929 . S
H4818 C4806 0.960 . S
H4819 C4806 0.962 . S
H4820 C4806 0.960 . S
H4821 C4807 0.961 . S
H4822 C4807 0.961 . S
H4823 C4807 0.961 . S
H4824 C4808 0.931 . S
H4825 C4813 0.930 . S
H4826 C4814 0.956 . S
H4827 C4814 0.961 . S
H4828 C4814 0.961 . S
H4829 C4815 0.958 . S
H4830 C4815 0.961 . S
H4831 C4815 0.960 . S
C4832 C4833 1.391 . S
C4832 C4834 1.394 . S
C4832 H4848 0.931 . S
C4833 C4832 1.391 . S
C4833 C4837 1.376 . S
C4834 C4832 1.394 . S
C4834 C4835 1.369 . S
C4834 C4838 1.531 . S
C4835 C4834 1.369 . S
C4835 C4836 1.410 . S
C4835 C4843 1.503 . S
C4836 C4835 1.410 . S
C4836 C4837 1.392 . S
C4836 C4839 1.511 . S
C4837 C4833 1.376 . S
C4837 C4836 1.392 . S
C4837 H4849 0.929 . S
C4838 C4834 1.531 . S
C4838 H4850 0.960 . S
C4838 H4851 0.962 . S
C4838 H4852 0.960 . S
C4839 C4836 1.511 . S
C4839 H4853 0.961 . S
C4839 H4854 0.961 . S
C4839 H4855 0.961 . S
C4840 C4841 1.370 . S
C4840 C4842 1.363 . S
C4840 H4856 0.931 . S
C4841 C4840 1.370 . S
C4841 C4845 1.408 . S
C4842 C4840 1.363 . S
C4842 C4843 1.370 . S
C4842 C4846 1.524 . S
C4843 C4835 1.503 . S
C4843 C4842 1.370 . S
C4843 C4844 1.403 . S
C4844 C4843 1.403 . S
C4844 C4845 1.404 . S
C4844 C4847 1.539 . S
C4845 C4841 1.408 . S
C4845 C4844 1.404 . S
C4845 H4857 0.930 . S
C4846 C4842 1.524 . S
C4846 H4858 0.956 . S
C4846 H4859 0.961 . S
C4846 H4860 0.961 . S
C4847 C4844 1.539 . S
C4847 H4861 0.958 . S
C4847 H4862 0.961 . S
C4847 H4863 0.960 . S
H4848 C4832 0.931 . S
H4849 C4837 0.929 . S
H4850 C4838 0.960 . S
H4851 C4838 0.962 . S
H4852 C4838 0.960 . S
H4853 C4839 0.961 . S
H4854 C4839 0.961 . S
H4855 C4839 0.961 . S
H4856 C4840 0.931 . S
H4857 C4845 0.930 . S
H4858 C4846 0.956 . S
H4859 C4846 0.961 . S
H4860 C4846 0.961 . S
H4861 C4847 0.958 . S
H4862 C4847 0.961 . S
H4863 C4847 0.960 . S
C4864 C4865 1.391 . S
C4864 C4866 1.394 . S
C4864 H4880 0.931 . S
C4865 C4864 1.391 . S
C4865 C4869 1.376 . S
C4866 C4864 1.394 . S
C4866 C4867 1.369 . S
C4866 C4870 1.531 . S
C4867 C4866 1.369 . S
C4867 C4868 1.410 . S
C4867 C4875 1.503 . S
C4868 C4867 1.410 . S
C4868 C4869 1.392 . S
C4868 C4871 1.511 . S
C4869 C4865 1.376 . S
C4869 C4868 1.392 . S
C4869 H4881 0.929 . S
C4870 C4866 1.531 . S
C4870 H4882 0.960 . S
C4870 H4883 0.962 . S
C4870 H4884 0.960 . S
C4871 C4868 1.511 . S
C4871 H4885 0.961 . S
C4871 H4886 0.961 . S
C4871 H4887 0.961 . S
C4872 C4873 1.370 . S
C4872 C4874 1.363 . S
C4872 H4888 0.931 . S
C4873 C4872 1.370 . S
C4873 C4877 1.408 . S
C4874 C4872 1.363 . S
C4874 C4875 1.370 . S
C4874 C4878 1.524 . S
C4875 C4867 1.503 . S
C4875 C4874 1.370 . S
C4875 C4876 1.403 . S
C4876 C4875 1.403 . S
C4876 C4877 1.404 . S
C4876 C4879 1.539 . S
C4877 C4873 1.408 . S
C4877 C4876 1.404 . S
C4877 H4889 0.930 . S
C4878 C4874 1.524 . S
C4878 H4890 0.956 . S
C4878 H4891 0.961 . S
C4878 H4892 0.961 . S
C4879 C4876 1.539 . S
C4879 H4893 0.958 . S
C4879 H4894 0.961 . S
C4879 H4895 0.960 . S
H4880 C4864 0.931 . S
H4881 C4869 0.929 . S
H4882 C4870 0.960 . S
H4883 C4870 0.962 . S
H4884 C4870 0.960 . S
H4885 C4871 0.961 . S
H4886 C4871 0.961 . S
H4887 C4871 0.961 . S
H4888 C4872 0.931 . S
H4889 C4877 0.930 . S
H4890 C4878 0.956 . S
H4891 C4878 0.961 . S
H4892 C4878 0.961 . S
H4893 C4879 0.958 . S
H4894 C4879 0.961 . S
H4895 C4879 0.960 . S
C4896 C4897 1.391 . S
C4896 C4898 1.394 . S
C4896 H4912 0.931 . S
C4897 C4896 1.391 . S
C4897 C4901 1.376 . S
C4898 C4896 1.394 . S
C4898 C4899 1.369 . S
C4898 C4902 1.531 . S
C4899 C4898 1.369 . S
C4899 C4900 1.410 . S
C4899 C4907 1.503 . S
C4900 C4899 1.410 . S
C4900 C4901 1.392 . S
C4900 C4903 1.511 . S
C4901 C4897 1.376 . S
C4901 C4900 1.392 . S
C4901 H4913 0.929 . S
C4902 C4898 1.531 . S
C4902 H4914 0.960 . S
C4902 H4915 0.962 . S
C4902 H4916 0.960 . S
C4903 C4900 1.511 . S
C4903 H4917 0.961 . S
C4903 H4918 0.961 . S
C4903 H4919 0.961 . S
C4904 C4905 1.370 . S
C4904 C4906 1.363 . S
C4904 H4920 0.931 . S
C4905 C4904 1.370 . S
C4905 C4909 1.408 . S
C4906 C4904 1.363 . S
C4906 C4907 1.370 . S
C4906 C4910 1.524 . S
C4907 C4899 1.503 . S
C4907 C4906 1.370 . S
C4907 C4908 1.403 . S
C4908 C4907 1.403 . S
C4908 C4909 1.404 . S
C4908 C4911 1.539 . S
C4909 C4905 1.408 . S
C4909 C4908 1.404 . S
C4909 H4921 0.930 . S
C4910 C4906 1.524 . S
C4910 H4922 0.956 . S
C4910 H4923 0.961 . S
C4910 H4924 0.961 . S
C4911 C4908 1.539 . S
C4911 H4925 0.958 . S
C4911 H4926 0.961 . S
C4911 H4927 0.960 . S
H4912 C4896 0.931 . S
H4913 C4901 0.929 . S
H4914 C4902 0.960 . S
H4915 C4902 0.962 . S
H4916 C4902 0.960 . S
H4917 C4903 0.961 . S
H4918 C4903 0.961 . S
H4919 C4903 0.961 . S
H4920 C4904 0.931 . S
H4921 C4909 0.930 . S
H4922 C4910 0.956 . S
H4923 C4910 0.961 . S
H4924 C4910 0.961 . S
H4925 C4911 0.958 . S
H4926 C4911 0.961 . S
H4927 C4911 0.960 . S
C4928 C4929 1.391 . S
C4928 C4930 1.394 . S
C4928 H4944 0.931 . S
C4929 C4928 1.391 . S
C4929 C4933 1.376 . S
C4930 C4928 1.394 . S
C4930 C4931 1.369 . S
C4930 C4934 1.531 . S
C4931 C4930 1.369 . S
C4931 C4932 1.410 . S
C4931 C4939 1.503 . S
C4932 C4931 1.410 . S
C4932 C4933 1.392 . S
C4932 C4935 1.511 . S
C4933 C4929 1.376 . S
C4933 C4932 1.392 . S
C4933 H4945 0.929 . S
C4934 C4930 1.531 . S
C4934 H4946 0.960 . S
C4934 H4947 0.962 . S
C4934 H4948 0.960 . S
C4935 C4932 1.511 . S
C4935 H4949 0.961 . S
C4935 H4950 0.961 . S
C4935 H4951 0.961 . S
C4936 C4937 1.370 . S
C4936 C4938 1.363 . S
C4936 H4952 0.931 . S
C4937 C4936 1.370 . S
C4937 C4941 1.408 . S
C4938 C4936 1.363 . S
C4938 C4939 1.370 . S
C4938 C4942 1.524 . S
C4939 C4931 1.503 . S
C4939 C4938 1.370 . S
C4939 C4940 1.403 . S
C4940 C4939 1.403 . S
C4940 C4941 1.404 . S
C4940 C4943 1.539 . S
C4941 C4937 1.408 . S
C4941 C4940 1.404 . S
C4941 H4953 0.930 . S
C4942 C4938 1.524 . S
C4942 H4954 0.956 . S
C4942 H4955 0.961 . S
C4942 H4956 0.961 . S
C4943 C4940 1.539 . S
C4943 H4957 0.958 . S
C4943 H4958 0.961 . S
C4943 H4959 0.960 . S
H4944 C4928 0.931 . S
H4945 C4933 0.929 . S
H4946 C4934 0.960 . S
H4947 C4934 0.962 . S
H4948 C4934 0.960 . S
H4949 C4935 0.961 . S
H4950 C4935 0.961 . S
H4951 C4935 0.961 . S
H4952 C4936 0.931 . S
H4953 C4941 0.930 . S
H4954 C4942 0.956 . S
H4955 C4942 0.961 . S
H4956 C4942 0.961 . S
H4957 C4943 0.958 . S
H4958 C4943 0.961 . S
H4959 C4943 0.960 . S
C4960 C4961 1.391 . S
C4960 C4962 1.394 . S
C4960 H4976 0.931 . S
C4961 C4960 1.391 . S
C4961 C4965 1.376 . S
C4962 C4960 1.394 . S
C4962 C4963 1.369 . S
C4962 C4966 1.531 . S
C4963 C4962 1.369 . S
C4963 C4964 1.410 . S
C4963 C4971 1.503 . S
C4964 C4963 1.410 . S
C4964 C4965 1.392 . S
C4964 C4967 1.511 . S
C4965 C4961 1.376 . S
C4965 C4964 1.392 . S
C4965 H4977 0.929 . S
C4966 C4962 1.531 . S
C4966 H4978 0.960 . S
C4966 H4979 0.962 . S
C4966 H4980 0.960 . S
C4967 C4964 1.511 . S
C4967 H4981 0.961 . S
C4967 H4982 0.961 . S
C4967 H4983 0.961 . S
C4968 C4969 1.370 . S
C4968 C4970 1.363 . S
C4968 H4984 0.931 . S
C4969 C4968 1.370 . S
C4969 C4973 1.408 . S
C4970 C4968 1.363 . S
C4970 C4971 1.370 . S
C4970 C4974 1.524 . S
C4971 C4963 1.503 . S
C4971 C4970 1.370 . S
C4971 C4972 1.403 . S
C4972 C4971 1.403 . S
C4972 C4973 1.404 . S
C4972 C4975 1.539 . S
C4973 C4969 1.408 . S
C4973 C4972 1.404 . S
C4973 H4985 0.930 . S
C4974 C4970 1.524 . S
C4974 H4986 0.956 . S
C4974 H4987 0.961 . S
C4974 H4988 0.961 . S
C4975 C4972 1.539 . S
C4975 H4989 0.958 . S
C4975 H4990 0.961 . S
C4975 H4991 0.960 . S
H4976 C4960 0.931 . S
H4977 C4965 0.929 . S
H4978 C4966 0.960 . S
H4979 C4966 0.962 . S
H4980 C4966 0.960 . S
H4981 C4967 0.961 . S
H4982 C4967 0.961 . S
H4983 C4967 0.961 . S
H4984 C4968 0.931 . S
H4985 C4973 0.930 . S
H4986 C4974 0.956 . S
H4987 C4974 0.961 . S
H4988 C4974 0.961 . S
H4989 C4975 0.958 . S
H4990 C4975 0.961 . S
H4991 C4975 0.960 . S
C4992 C4993 1.391 . S
C4992 C4994 1.394 . S
C4992 H5008 0.931 . S
C4993 C4992 1.391 . S
C4993 C4997 1.376 . S
C4994 C4992 1.394 . S
C4994 C4995 1.369 . S
C4994 C4998 1.531 . S
C4995 C4994 1.369 . S
C4995 C4996 1.410 . S
C4995 C5003 1.503 . S
C4996 C4995 1.410 . S
C4996 C4997 1.392 . S
C4996 C4999 1.511 . S
C4997 C4993 1.376 . S
C4997 C4996 1.392 . S
C4997 H5009 0.929 . S
C4998 C4994 1.531 . S
C4998 H5010 0.960 . S
C4998 H5011 0.962 . S
C4998 H5012 0.960 . S
C4999 C4996 1.511 . S
C4999 H5013 0.961 . S
C4999 H5014 0.961 . S
C4999 H5015 0.961 . S
C5000 C5001 1.370 . S
C5000 C5002 1.363 . S
C5000 H5016 0.931 . S
C5001 C5000 1.370 . S
C5001 C5005 1.408 . S
C5002 C5000 1.363 . S
C5002 C5003 1.370 . S
C5002 C5006 1.524 . S
C5003 C4995 1.503 . S
C5003 C5002 1.370 . S
C5003 C5004 1.403 . S
C5004 C5003 1.403 . S
C5004 C5005 1.404 . S
C5004 C5007 1.539 . S
C5005 C5001 1.408 . S
C5005 C5004 1.404 . S
C5005 H5017 0.930 . S
C5006 C5002 1.524 . S
C5006 H5018 0.956 . S
C5006 H5019 0.961 . S
C5006 H5020 0.961 . S
C5007 C5004 1.539 . S
C5007 H5021 0.958 . S
C5007 H5022 0.961 . S
C5007 H5023 0.960 . S
H5008 C4992 0.931 . S
H5009 C4997 0.929 . S
H5010 C4998 0.960 . S
H5011 C4998 0.962 . S
H5012 C4998 0.960 . S
H5013 C4999 0.961 . S
H5014 C4999 0.961 . S
H5015 C4999 0.961 . S
H5016 C5000 0.931 . S
H5017 C5005 0.930 . S
H5018 C5006 0.956 . S
H5019 C5006 0.961 . S
H5020 C5006 0.961 . S
H5021 C5007 0.958 . S
H5022 C5007 0.961 . S
H5023 C5007 0.960 . S
C5024 C5025 1.391 . S
C5024 C5026 1.394 . S
C5024 H5040 0.931 . S
C5025 C5024 1.391 . S
C5025 C5029 1.376 . S
C5026 C5024 1.394 . S
C5026 C5027 1.369 . S
C5026 C5030 1.531 . S
C5027 C5026 1.369 . S
C5027 C5028 1.410 . S
C5027 C5035 1.503 . S
C5028 C5027 1.410 . S
C5028 C5029 1.392 . S
C5028 C5031 1.511 . S
C5029 C5025 1.376 . S
C5029 C5028 1.392 . S
C5029 H5041 0.929 . S
C5030 C5026 1.531 . S
C5030 H5042 0.960 . S
C5030 H5043 0.962 . S
C5030 H5044 0.960 . S
C5031 C5028 1.511 . S
C5031 H5045 0.961 . S
C5031 H5046 0.961 . S
C5031 H5047 0.961 . S
C5032 C5033 1.370 . S
C5032 C5034 1.363 . S
C5032 H5048 0.931 . S
C5033 C5032 1.370 . S
C5033 C5037 1.408 . S
C5034 C5032 1.363 . S
C5034 C5035 1.370 . S
C5034 C5038 1.524 . S
C5035 C5027 1.503 . S
C5035 C5034 1.370 . S
C5035 C5036 1.403 . S
C5036 C5035 1.403 . S
C5036 C5037 1.404 . S
C5036 C5039 1.539 . S
C5037 C5033 1.408 . S
C5037 C5036 1.404 . S
C5037 H5049 0.930 . S
C5038 C5034 1.524 . S
C5038 H5050 0.956 . S
C5038 H5051 0.961 . S
C5038 H5052 0.961 . S
C5039 C5036 1.539 . S
C5039 H5053 0.958 . S
C5039 H5054 0.961 . S
C5039 H5055 0.960 . S
H5040 C5024 0.931 . S
H5041 C5029 0.929 . S
H5042 C5030 0.960 . S
H5043 C5030 0.962 . S
H5044 C5030 0.960 . S
H5045 C5031 0.961 . S
H5046 C5031 0.961 . S
H5047 C5031 0.961 . S
H5048 C5032 0.931 . S
H5049 C5037 0.930 . S
H5050 C5038 0.956 . S
H5051 C5038 0.961 . S
H5052 C5038 0.961 . S
H5053 C5039 0.958 . S
H5054 C5039 0.961 . S
H5055 C5039 0.960 . S
C5056 C5057 1.391 . S
C5056 C5058 1.394 . S
C5056 H5072 0.931 . S
C5057 C5056 1.391 . S
C5057 C5061 1.376 . S
C5058 C5056 1.394 . S
C5058 C5059 1.369 . S
C5058 C5062 1.531 . S
C5059 C5058 1.369 . S
C5059 C5060 1.410 . S
C5059 C5067 1.503 . S
C5060 C5059 1.410 . S
C5060 C5061 1.392 . S
C5060 C5063 1.511 . S
C5061 C5057 1.376 . S
C5061 C5060 1.392 . S
C5061 H5073 0.929 . S
C5062 C5058 1.531 . S
C5062 H5074 0.960 . S
C5062 H5075 0.962 . S
C5062 H5076 0.960 . S
C5063 C5060 1.511 . S
C5063 H5077 0.961 . S
C5063 H5078 0.961 . S
C5063 H5079 0.961 . S
C5064 C5065 1.370 . S
C5064 C5066 1.363 . S
C5064 H5080 0.931 . S
C5065 C5064 1.370 . S
C5065 C5069 1.408 . S
C5066 C5064 1.363 . S
C5066 C5067 1.370 . S
C5066 C5070 1.524 . S
C5067 C5059 1.503 . S
C5067 C5066 1.370 . S
C5067 C5068 1.403 . S
C5068 C5067 1.403 . S
C5068 C5069 1.404 . S
C5068 C5071 1.539 . S
C5069 C5065 1.408 . S
C5069 C5068 1.404 . S
C5069 H5081 0.930 . S
C5070 C5066 1.524 . S
C5070 H5082 0.956 . S
C5070 H5083 0.961 . S
C5070 H5084 0.961 . S
C5071 C5068 1.539 . S
C5071 H5085 0.958 . S
C5071 H5086 0.961 . S
C5071 H5087 0.960 . S
H5072 C5056 0.931 . S
H5073 C5061 0.929 . S
H5074 C5062 0.960 . S
H5075 C5062 0.962 . S
H5076 C5062 0.960 . S
H5077 C5063 0.961 . S
H5078 C5063 0.961 . S
H5079 C5063 0.961 . S
H5080 C5064 0.931 . S
H5081 C5069 0.930 . S
H5082 C5070 0.956 . S
H5083 C5070 0.961 . S
H5084 C5070 0.961 . S
H5085 C5071 0.958 . S
H5086 C5071 0.961 . S
H5087 C5071 0.960 . S
C5088 C5089 1.391 . S
C5088 C5090 1.394 . S
C5088 H5104 0.931 . S
C5089 C5088 1.391 . S
C5089 C5093 1.376 . S
C5090 C5088 1.394 . S
C5090 C5091 1.369 . S
C5090 C5094 1.531 . S
C5091 C5090 1.369 . S
C5091 C5092 1.410 . S
C5091 C5099 1.503 . S
C5092 C5091 1.410 . S
C5092 C5093 1.392 . S
C5092 C5095 1.511 . S
C5093 C5089 1.376 . S
C5093 C5092 1.392 . S
C5093 H5105 0.929 . S
C5094 C5090 1.531 . S
C5094 H5106 0.960 . S
C5094 H5107 0.962 . S
C5094 H5108 0.960 . S
C5095 C5092 1.511 . S
C5095 H5109 0.961 . S
C5095 H5110 0.961 . S
C5095 H5111 0.961 . S
C5096 C5097 1.370 . S
C5096 C5098 1.363 . S
C5096 H5112 0.931 . S
C5097 C5096 1.370 . S
C5097 C5101 1.408 . S
C5098 C5096 1.363 . S
C5098 C5099 1.370 . S
C5098 C5102 1.524 . S
C5099 C5091 1.503 . S
C5099 C5098 1.370 . S
C5099 C5100 1.403 . S
C5100 C5099 1.403 . S
C5100 C5101 1.404 . S
C5100 C5103 1.539 . S
C5101 C5097 1.408 . S
C5101 C5100 1.404 . S
C5101 H5113 0.930 . S
C5102 C5098 1.524 . S
C5102 H5114 0.956 . S
C5102 H5115 0.961 . S
C5102 H5116 0.961 . S
C5103 C5100 1.539 . S
C5103 H5117 0.958 . S
C5103 H5118 0.961 . S
C5103 H5119 0.960 . S
H5104 C5088 0.931 . S
H5105 C5093 0.929 . S
H5106 C5094 0.960 . S
H5107 C5094 0.962 . S
H5108 C5094 0.960 . S
H5109 C5095 0.961 . S
H5110 C5095 0.961 . S
H5111 C5095 0.961 . S
H5112 C5096 0.931 . S
H5113 C5101 0.930 . S
H5114 C5102 0.956 . S
H5115 C5102 0.961 . S
H5116 C5102 0.961 . S
H5117 C5103 0.958 . S
H5118 C5103 0.961 . S
H5119 C5103 0.960 . S
C5120 C5121 1.391 . S
C5120 C5122 1.394 . S
C5120 H5136 0.931 . S
C5121 C5120 1.391 . S
C5121 C5125 1.376 . S
C5122 C5120 1.394 . S
C5122 C5123 1.369 . S
C5122 C5126 1.531 . S
C5123 C5122 1.369 . S
C5123 C5124 1.410 . S
C5123 C5131 1.503 . S
C5124 C5123 1.410 . S
C5124 C5125 1.392 . S
C5124 C5127 1.511 . S
C5125 C5121 1.376 . S
C5125 C5124 1.392 . S
C5125 H5137 0.929 . S
C5126 C5122 1.531 . S
C5126 H5138 0.960 . S
C5126 H5139 0.962 . S
C5126 H5140 0.960 . S
C5127 C5124 1.511 . S
C5127 H5141 0.961 . S
C5127 H5142 0.961 . S
C5127 H5143 0.961 . S
C5128 C5129 1.370 . S
C5128 C5130 1.363 . S
C5128 H5144 0.931 . S
C5129 C5128 1.370 . S
C5129 C5133 1.408 . S
C5130 C5128 1.363 . S
C5130 C5131 1.370 . S
C5130 C5134 1.524 . S
C5131 C5123 1.503 . S
C5131 C5130 1.370 . S
C5131 C5132 1.403 . S
C5132 C5131 1.403 . S
C5132 C5133 1.404 . S
C5132 C5135 1.539 . S
C5133 C5129 1.408 . S
C5133 C5132 1.404 . S
C5133 H5145 0.930 . S
C5134 C5130 1.524 . S
C5134 H5146 0.956 . S
C5134 H5147 0.961 . S
C5134 H5148 0.961 . S
C5135 C5132 1.539 . S
C5135 H5149 0.958 . S
C5135 H5150 0.961 . S
C5135 H5151 0.960 . S
H5136 C5120 0.931 . S
H5137 C5125 0.929 . S
H5138 C5126 0.960 . S
H5139 C5126 0.962 . S
H5140 C5126 0.960 . S
H5141 C5127 0.961 . S
H5142 C5127 0.961 . S
H5143 C5127 0.961 . S
H5144 C5128 0.931 . S
H5145 C5133 0.930 . S
H5146 C5134 0.956 . S
H5147 C5134 0.961 . S
H5148 C5134 0.961 . S
H5149 C5135 0.958 . S
H5150 C5135 0.961 . S
H5151 C5135 0.960 . S
C5152 C5153 1.391 . S
C5152 C5154 1.394 . S
C5152 H5168 0.931 . S
C5153 C5152 1.391 . S
C5153 C5157 1.376 . S
C5154 C5152 1.394 . S
C5154 C5155 1.369 . S
C5154 C5158 1.531 . S
C5155 C5154 1.369 . S
C5155 C5156 1.410 . S
C5155 C5163 1.503 . S
C5156 C5155 1.410 . S
C5156 C5157 1.392 . S
C5156 C5159 1.511 . S
C5157 C5153 1.376 . S
C5157 C5156 1.392 . S
C5157 H5169 0.929 . S
C5158 C5154 1.531 . S
C5158 H5170 0.960 . S
C5158 H5171 0.962 . S
C5158 H5172 0.960 . S
C5159 C5156 1.511 . S
C5159 H5173 0.961 . S
C5159 H5174 0.961 . S
C5159 H5175 0.961 . S
C5160 C5161 1.370 . S
C5160 C5162 1.363 . S
C5160 H5176 0.931 . S
C5161 C5160 1.370 . S
C5161 C5165 1.408 . S
C5162 C5160 1.363 . S
C5162 C5163 1.370 . S
C5162 C5166 1.524 . S
C5163 C5155 1.503 . S
C5163 C5162 1.370 . S
C5163 C5164 1.403 . S
C5164 C5163 1.403 . S
C5164 C5165 1.404 . S
C5164 C5167 1.539 . S
C5165 C5161 1.408 . S
C5165 C5164 1.404 . S
C5165 H5177 0.930 . S
C5166 C5162 1.524 . S
C5166 H5178 0.956 . S
C5166 H5179 0.961 . S
C5166 H5180 0.961 . S
C5167 C5164 1.539 . S
C5167 H5181 0.958 . S
C5167 H5182 0.961 . S
C5167 H5183 0.960 . S
H5168 C5152 0.931 . S
H5169 C5157 0.929 . S
H5170 C5158 0.960 . S
H5171 C5158 0.962 . S
H5172 C5158 0.960 . S
H5173 C5159 0.961 . S
H5174 C5159 0.961 . S
H5175 C5159 0.961 . S
H5176 C5160 0.931 . S
H5177 C5165 0.930 . S
H5178 C5166 0.956 . S
H5179 C5166 0.961 . S
H5180 C5166 0.961 . S
H5181 C5167 0.958 . S
H5182 C5167 0.961 . S
H5183 C5167 0.960 . S
C5184 C5185 1.391 . S
C5184 C5186 1.394 . S
C5184 H5200 0.931 . S
C5185 C5184 1.391 . S
C5185 C5189 1.376 . S
C5186 C5184 1.394 . S
C5186 C5187 1.369 . S
C5186 C5190 1.531 . S
C5187 C5186 1.369 . S
C5187 C5188 1.410 . S
C5187 C5195 1.503 . S
C5188 C5187 1.410 . S
C5188 C5189 1.392 . S
C5188 C5191 1.511 . S
C5189 C5185 1.376 . S
C5189 C5188 1.392 . S
C5189 H5201 0.929 . S
C5190 C5186 1.531 . S
C5190 H5202 0.960 . S
C5190 H5203 0.962 . S
C5190 H5204 0.960 . S
C5191 C5188 1.511 . S
C5191 H5205 0.961 . S
C5191 H5206 0.961 . S
C5191 H5207 0.961 . S
C5192 C5193 1.370 . S
C5192 C5194 1.363 . S
C5192 H5208 0.931 . S
C5193 C5192 1.370 . S
C5193 C5197 1.408 . S
C5194 C5192 1.363 . S
C5194 C5195 1.370 . S
C5194 C5198 1.524 . S
C5195 C5187 1.503 . S
C5195 C5194 1.370 . S
C5195 C5196 1.403 . S
C5196 C5195 1.403 . S
C5196 C5197 1.404 . S
C5196 C5199 1.539 . S
C5197 C5193 1.408 . S
C5197 C5196 1.404 . S
C5197 H5209 0.930 . S
C5198 C5194 1.524 . S
C5198 H5210 0.956 . S
C5198 H5211 0.961 . S
C5198 H5212 0.961 . S
C5199 C5196 1.539 . S
C5199 H5213 0.958 . S
C5199 H5214 0.961 . S
C5199 H5215 0.960 . S
H5200 C5184 0.931 . S
H5201 C5189 0.929 . S
H5202 C5190 0.960 . S
H5203 C5190 0.962 . S
H5204 C5190 0.960 . S
H5205 C5191 0.961 . S
H5206 C5191 0.961 . S
H5207 C5191 0.961 . S
H5208 C5192 0.931 . S
H5209 C5197 0.930 . S
H5210 C5198 0.956 . S
H5211 C5198 0.961 . S
H5212 C5198 0.961 . S
H5213 C5199 0.958 . S
H5214 C5199 0.961 . S
H5215 C5199 0.960 . S
C5216 C5217 1.391 . S
C5216 C5218 1.394 . S
C5216 H5232 0.931 . S
C5217 C5216 1.391 . S
C5217 C5221 1.376 . S
C5218 C5216 1.394 . S
C5218 C5219 1.369 . S
C5218 C5222 1.531 . S
C5219 C5218 1.369 . S
C5219 C5220 1.410 . S
C5219 C5227 1.503 . S
C5220 C5219 1.410 . S
C5220 C5221 1.392 . S
C5220 C5223 1.511 . S
C5221 C5217 1.376 . S
C5221 C5220 1.392 . S
C5221 H5233 0.929 . S
C5222 C5218 1.531 . S
C5222 H5234 0.960 . S
C5222 H5235 0.962 . S
C5222 H5236 0.960 . S
C5223 C5220 1.511 . S
C5223 H5237 0.961 . S
C5223 H5238 0.961 . S
C5223 H5239 0.961 . S
C5224 C5225 1.370 . S
C5224 C5226 1.363 . S
C5224 H5240 0.931 . S
C5225 C5224 1.370 . S
C5225 C5229 1.408 . S
C5226 C5224 1.363 . S
C5226 C5227 1.370 . S
C5226 C5230 1.524 . S
C5227 C5219 1.503 . S
C5227 C5226 1.370 . S
C5227 C5228 1.403 . S
C5228 C5227 1.403 . S
C5228 C5229 1.404 . S
C5228 C5231 1.539 . S
C5229 C5225 1.408 . S
C5229 C5228 1.404 . S
C5229 H5241 0.930 . S
C5230 C5226 1.524 . S
C5230 H5242 0.956 . S
C5230 H5243 0.961 . S
C5230 H5244 0.961 . S
C5231 C5228 1.539 . S
C5231 H5245 0.958 . S
C5231 H5246 0.961 . S
C5231 H5247 0.960 . S
H5232 C5216 0.931 . S
H5233 C5221 0.929 . S
H5234 C5222 0.960 . S
H5235 C5222 0.962 . S
H5236 C5222 0.960 . S
H5237 C5223 0.961 . S
H5238 C5223 0.961 . S
H5239 C5223 0.961 . S
H5240 C5224 0.931 . S
H5241 C5229 0.930 . S
H5242 C5230 0.956 . S
H5243 C5230 0.961 . S
H5244 C5230 0.961 . S
H5245 C5231 0.958 . S
H5246 C5231 0.961 . S
H5247 C5231 0.960 . S
C5248 C5249 1.391 . S
C5248 C5250 1.394 . S
C5248 H5264 0.931 . S
C5249 C5248 1.391 . S
C5249 C5253 1.376 . S
C5250 C5248 1.394 . S
C5250 C5251 1.369 . S
C5250 C5254 1.531 . S
C5251 C5250 1.369 . S
C5251 C5252 1.410 . S
C5251 C5259 1.503 . S
C5252 C5251 1.410 . S
C5252 C5253 1.392 . S
C5252 C5255 1.511 . S
C5253 C5249 1.376 . S
C5253 C5252 1.392 . S
C5253 H5265 0.929 . S
C5254 C5250 1.531 . S
C5254 H5266 0.960 . S
C5254 H5267 0.962 . S
C5254 H5268 0.960 . S
C5255 C5252 1.511 . S
C5255 H5269 0.961 . S
C5255 H5270 0.961 . S
C5255 H5271 0.961 . S
C5256 C5257 1.370 . S
C5256 C5258 1.363 . S
C5256 H5272 0.931 . S
C5257 C5256 1.370 . S
C5257 C5261 1.408 . S
C5258 C5256 1.363 . S
C5258 C5259 1.370 . S
C5258 C5262 1.524 . S
C5259 C5251 1.503 . S
C5259 C5258 1.370 . S
C5259 C5260 1.403 . S
C5260 C5259 1.403 . S
C5260 C5261 1.404 . S
C5260 C5263 1.539 . S
C5261 C5257 1.408 . S
C5261 C5260 1.404 . S
C5261 H5273 0.930 . S
C5262 C5258 1.524 . S
C5262 H5274 0.956 . S
C5262 H5275 0.961 . S
C5262 H5276 0.961 . S
C5263 C5260 1.539 . S
C5263 H5277 0.958 . S
C5263 H5278 0.961 . S
C5263 H5279 0.960 . S
H5264 C5248 0.931 . S
H5265 C5253 0.929 . S
H5266 C5254 0.960 . S
H5267 C5254 0.962 . S
H5268 C5254 0.960 . S
H5269 C5255 0.961 . S
H5270 C5255 0.961 . S
H5271 C5255 0.961 . S
H5272 C5256 0.931 . S
H5273 C5261 0.930 . S
H5274 C5262 0.956 . S
H5275 C5262 0.961 . S
H5276 C5262 0.961 . S
H5277 C5263 0.958 . S
H5278 C5263 0.961 . S
H5279 C5263 0.960 . S
C5280 C5281 1.391 . S
C5280 C5282 1.394 . S
C5280 H5296 0.931 . S
C5281 C5280 1.391 . S
C5281 C5285 1.376 . S
C5282 C5280 1.394 . S
C5282 C5283 1.369 . S
C5282 C5286 1.531 . S
C5283 C5282 1.369 . S
C5283 C5284 1.410 . S
C5283 C5291 1.503 . S
C5284 C5283 1.410 . S
C5284 C5285 1.392 . S
C5284 C5287 1.511 . S
C5285 C5281 1.376 . S
C5285 C5284 1.392 . S
C5285 H5297 0.929 . S
C5286 C5282 1.531 . S
C5286 H5298 0.960 . S
C5286 H5299 0.962 . S
C5286 H5300 0.960 . S
C5287 C5284 1.511 . S
C5287 H5301 0.961 . S
C5287 H5302 0.961 . S
C5287 H5303 0.961 . S
C5288 C5289 1.370 . S
C5288 C5290 1.363 . S
C5288 H5304 0.931 . S
C5289 C5288 1.370 . S
C5289 C5293 1.408 . S
C5290 C5288 1.363 . S
C5290 C5291 1.370 . S
C5290 C5294 1.524 . S
C5291 C5283 1.503 . S
C5291 C5290 1.370 . S
C5291 C5292 1.403 . S
C5292 C5291 1.403 . S
C5292 C5293 1.404 . S
C5292 C5295 1.539 . S
C5293 C5289 1.408 . S
C5293 C5292 1.404 . S
C5293 H5305 0.930 . S
C5294 C5290 1.524 . S
C5294 H5306 0.956 . S
C5294 H5307 0.961 . S
C5294 H5308 0.961 . S
C5295 C5292 1.539 . S
C5295 H5309 0.958 . S
C5295 H5310 0.961 . S
C5295 H5311 0.960 . S
H5296 C5280 0.931 . S
H5297 C5285 0.929 . S
H5298 C5286 0.960 . S
H5299 C5286 0.962 . S
H5300 C5286 0.960 . S
H5301 C5287 0.961 . S
H5302 C5287 0.961 . S
H5303 C5287 0.961 . S
H5304 C5288 0.931 . S
H5305 C5293 0.930 . S
H5306 C5294 0.956 . S
H5307 C5294 0.961 . S
H5308 C5294 0.961 . S
H5309 C5295 0.958 . S
H5310 C5295 0.961 . S
H5311 C5295 0.960 . S
C5312 C5313 1.391 . S
C5312 C5314 1.394 . S
C5312 H5328 0.931 . S
C5313 C5312 1.391 . S
C5313 C5317 1.376 . S
C5314 C5312 1.394 . S
C5314 C5315 1.369 . S
C5314 C5318 1.531 . S
C5315 C5314 1.369 . S
C5315 C5316 1.410 . S
C5315 C5323 1.503 . S
C5316 C5315 1.410 . S
C5316 C5317 1.392 . S
C5316 C5319 1.511 . S
C5317 C5313 1.376 . S
C5317 C5316 1.392 . S
C5317 H5329 0.929 . S
C5318 C5314 1.531 . S
C5318 H5330 0.960 . S
C5318 H5331 0.962 . S
C5318 H5332 0.960 . S
C5319 C5316 1.511 . S
C5319 H5333 0.961 . S
C5319 H5334 0.961 . S
C5319 H5335 0.961 . S
C5320 C5321 1.370 . S
C5320 C5322 1.363 . S
C5320 H5336 0.931 . S
C5321 C5320 1.370 . S
C5321 C5325 1.408 . S
C5322 C5320 1.363 . S
C5322 C5323 1.370 . S
C5322 C5326 1.524 . S
C5323 C5315 1.503 . S
C5323 C5322 1.370 . S
C5323 C5324 1.403 . S
C5324 C5323 1.403 . S
C5324 C5325 1.404 . S
C5324 C5327 1.539 . S
C5325 C5321 1.408 . S
C5325 C5324 1.404 . S
C5325 H5337 0.930 . S
C5326 C5322 1.524 . S
C5326 H5338 0.956 . S
C5326 H5339 0.961 . S
C5326 H5340 0.961 . S
C5327 C5324 1.539 . S
C5327 H5341 0.958 . S
C5327 H5342 0.961 . S
C5327 H5343 0.960 . S
H5328 C5312 0.931 . S
H5329 C5317 0.929 . S
H5330 C5318 0.960 . S
H5331 C5318 0.962 . S
H5332 C5318 0.960 . S
H5333 C5319 0.961 . S
H5334 C5319 0.961 . S
H5335 C5319 0.961 . S
H5336 C5320 0.931 . S
H5337 C5325 0.930 . S
H5338 C5326 0.956 . S
H5339 C5326 0.961 . S
H5340 C5326 0.961 . S
H5341 C5327 0.958 . S
H5342 C5327 0.961 . S
H5343 C5327 0.960 . S
C5344 C5345 1.391 . S
C5344 C5346 1.394 . S
C5344 H5360 0.931 . S
C5345 C5344 1.391 . S
C5345 C5349 1.376 . S
C5346 C5344 1.394 . S
C5346 C5347 1.369 . S
C5346 C5350 1.531 . S
C5347 C5346 1.369 . S
C5347 C5348 1.410 . S
C5347 C5355 1.503 . S
C5348 C5347 1.410 . S
C5348 C5349 1.392 . S
C5348 C5351 1.511 . S
C5349 C5345 1.376 . S
C5349 C5348 1.392 . S
C5349 H5361 0.929 . S
C5350 C5346 1.531 . S
C5350 H5362 0.960 . S
C5350 H5363 0.962 . S
C5350 H5364 0.960 . S
C5351 C5348 1.511 . S
C5351 H5365 0.961 . S
C5351 H5366 0.961 . S
C5351 H5367 0.961 . S
C5352 C5353 1.370 . S
C5352 C5354 1.363 . S
C5352 H5368 0.931 . S
C5353 C5352 1.370 . S
C5353 C5357 1.408 . S
C5354 C5352 1.363 . S
C5354 C5355 1.370 . S
C5354 C5358 1.524 . S
C5355 C5347 1.503 . S
C5355 C5354 1.370 . S
C5355 C5356 1.403 . S
C5356 C5355 1.403 . S
C5356 C5357 1.404 . S
C5356 C5359 1.539 . S
C5357 C5353 1.408 . S
C5357 C5356 1.404 . S
C5357 H5369 0.930 . S
C5358 C5354 1.524 . S
C5358 H5370 0.956 . S
C5358 H5371 0.961 . S
C5358 H5372 0.961 . S
C5359 C5356 1.539 . S
C5359 H5373 0.958 . S
C5359 H5374 0.961 . S
C5359 H5375 0.960 . S
H5360 C5344 0.931 . S
H5361 C5349 0.929 . S
H5362 C5350 0.960 . S
H5363 C5350 0.962 . S
H5364 C5350 0.960 . S
H5365 C5351 0.961 . S
H5366 C5351 0.961 . S
H5367 C5351 0.961 . S
H5368 C5352 0.931 . S
H5369 C5357 0.930 . S
H5370 C5358 0.956 . S
H5371 C5358 0.961 . S
H5372 C5358 0.961 . S
H5373 C5359 0.958 . S
H5374 C5359 0.961 . S
H5375 C5359 0.960 . S
C5376 C5377 1.391 . S
C5376 C5378 1.394 . S
C5376 H5392 0.931 . S
C5377 C5376 1.391 . S
C5377 C5381 1.376 . S
C5378 C5376 1.394 . S
C5378 C5379 1.369 . S
C5378 C5382 1.531 . S
C5379 C5378 1.369 . S
C5379 C5380 1.410 . S
C5379 C5387 1.503 . S
C5380 C5379 1.410 . S
C5380 C5381 1.392 . S
C5380 C5383 1.511 . S
C5381 C5377 1.376 . S
C5381 C5380 1.392 . S
C5381 H5393 0.929 . S
C5382 C5378 1.531 . S
C5382 H5394 0.960 . S
C5382 H5395 0.962 . S
C5382 H5396 0.960 . S
C5383 C5380 1.511 . S
C5383 H5397 0.961 . S
C5383 H5398 0.961 . S
C5383 H5399 0.961 . S
C5384 C5385 1.370 . S
C5384 C5386 1.363 . S
C5384 H5400 0.931 . S
C5385 C5384 1.370 . S
C5385 C5389 1.408 . S
C5386 C5384 1.363 . S
C5386 C5387 1.370 . S
C5386 C5390 1.524 . S
C5387 C5379 1.503 . S
C5387 C5386 1.370 . S
C5387 C5388 1.403 . S
C5388 C5387 1.403 . S
C5388 C5389 1.404 . S
C5388 C5391 1.539 . S
C5389 C5385 1.408 . S
C5389 C5388 1.404 . S
C5389 H5401 0.930 . S
C5390 C5386 1.524 . S
C5390 H5402 0.956 . S
C5390 H5403 0.961 . S
C5390 H5404 0.961 . S
C5391 C5388 1.539 . S
C5391 H5405 0.958 . S
C5391 H5406 0.961 . S
C5391 H5407 0.960 . S
H5392 C5376 0.931 . S
H5393 C5381 0.929 . S
H5394 C5382 0.960 . S
H5395 C5382 0.962 . S
H5396 C5382 0.960 . S
H5397 C5383 0.961 . S
H5398 C5383 0.961 . S
H5399 C5383 0.961 . S
H5400 C5384 0.931 . S
H5401 C5389 0.930 . S
H5402 C5390 0.956 . S
H5403 C5390 0.961 . S
H5404 C5390 0.961 . S
H5405 C5391 0.958 . S
H5406 C5391 0.961 . S
H5407 C5391 0.960 . S
C5408 C5409 1.391 . S
C5408 C5410 1.394 . S
C5408 H5424 0.931 . S
C5409 C5408 1.391 . S
C5409 C5413 1.376 . S
C5410 C5408 1.394 . S
C5410 C5411 1.369 . S
C5410 C5414 1.531 . S
C5411 C5410 1.369 . S
C5411 C5412 1.410 . S
C5411 C5419 1.503 . S
C5412 C5411 1.410 . S
C5412 C5413 1.392 . S
C5412 C5415 1.511 . S
C5413 C5409 1.376 . S
C5413 C5412 1.392 . S
C5413 H5425 0.929 . S
C5414 C5410 1.531 . S
C5414 H5426 0.960 . S
C5414 H5427 0.962 . S
C5414 H5428 0.960 . S
C5415 C5412 1.511 . S
C5415 H5429 0.961 . S
C5415 H5430 0.961 . S
C5415 H5431 0.961 . S
C5416 C5417 1.370 . S
C5416 C5418 1.363 . S
C5416 H5432 0.931 . S
C5417 C5416 1.370 . S
C5417 C5421 1.408 . S
C5418 C5416 1.363 . S
C5418 C5419 1.370 . S
C5418 C5422 1.524 . S
C5419 C5411 1.503 . S
C5419 C5418 1.370 . S
C5419 C5420 1.403 . S
C5420 C5419 1.403 . S
C5420 C5421 1.404 . S
C5420 C5423 1.539 . S
C5421 C5417 1.408 . S
C5421 C5420 1.404 . S
C5421 H5433 0.930 . S
C5422 C5418 1.524 . S
C5422 H5434 0.956 . S
C5422 H5435 0.961 . S
C5422 H5436 0.961 . S
C5423 C5420 1.539 . S
C5423 H5437 0.958 . S
C5423 H5438 0.961 . S
C5423 H5439 0.960 . S
H5424 C5408 0.931 . S
H5425 C5413 0.929 . S
H5426 C5414 0.960 . S
H5427 C5414 0.962 . S
H5428 C5414 0.960 . S
H5429 C5415 0.961 . S
H5430 C5415 0.961 . S
H5431 C5415 0.961 . S
H5432 C5416 0.931 . S
H5433 C5421 0.930 . S
H5434 C5422 0.956 . S
H5435 C5422 0.961 . S
H5436 C5422 0.961 . S
H5437 C5423 0.958 . S
H5438 C5423 0.961 . S
H5439 C5423 0.960 . S
C5440 C5441 1.391 . S
C5440 C5442 1.394 . S
C5440 H5456 0.931 . S
C5441 C5440 1.391 . S
C5441 C5445 1.376 . S
C5442 C5440 1.394 . S
C5442 C5443 1.369 . S
C5442 C5446 1.531 . S
C5443 C5442 1.369 . S
C5443 C5444 1.410 . S
C5443 C5451 1.503 . S
C5444 C5443 1.410 . S
C5444 C5445 1.392 . S
C5444 C5447 1.511 . S
C5445 C5441 1.376 . S
C5445 C5444 1.392 . S
C5445 H5457 0.929 . S
C5446 C5442 1.531 . S
C5446 H5458 0.960 . S
C5446 H5459 0.962 . S
C5446 H5460 0.960 . S
C5447 C5444 1.511 . S
C5447 H5461 0.961 . S
C5447 H5462 0.961 . S
C5447 H5463 0.961 . S
C5448 C5449 1.370 . S
C5448 C5450 1.363 . S
C5448 H5464 0.931 . S
C5449 C5448 1.370 . S
C5449 C5453 1.408 . S
C5450 C5448 1.363 . S
C5450 C5451 1.370 . S
C5450 C5454 1.524 . S
C5451 C5443 1.503 . S
C5451 C5450 1.370 . S
C5451 C5452 1.403 . S
C5452 C5451 1.403 . S
C5452 C5453 1.404 . S
C5452 C5455 1.539 . S
C5453 C5449 1.408 . S
C5453 C5452 1.404 . S
C5453 H5465 0.930 . S
C5454 C5450 1.524 . S
C5454 H5466 0.956 . S
C5454 H5467 0.961 . S
C5454 H5468 0.961 . S
C5455 C5452 1.539 . S
C5455 H5469 0.958 . S
C5455 H5470 0.961 . S
C5455 H5471 0.960 . S
H5456 C5440 0.931 . S
H5457 C5445 0.929 . S
H5458 C5446 0.960 . S
H5459 C5446 0.962 . S
H5460 C5446 0.960 . S
H5461 C5447 0.961 . S
H5462 C5447 0.961 . S
H5463 C5447 0.961 . S
H5464 C5448 0.931 . S
H5465 C5453 0.930 . S
H5466 C5454 0.956 . S
H5467 C5454 0.961 . S
H5468 C5454 0.961 . S
H5469 C5455 0.958 . S
H5470 C5455 0.961 . S
H5471 C5455 0.960 . S
C5472 C5473 1.391 . S
C5472 C5474 1.394 . S
C5472 H5488 0.931 . S
C5473 C5472 1.391 . S
C5473 C5477 1.376 . S
C5474 C5472 1.394 . S
C5474 C5475 1.369 . S
C5474 C5478 1.531 . S
C5475 C5474 1.369 . S
C5475 C5476 1.410 . S
C5475 C5483 1.503 . S
C5476 C5475 1.410 . S
C5476 C5477 1.392 . S
C5476 C5479 1.511 . S
C5477 C5473 1.376 . S
C5477 C5476 1.392 . S
C5477 H5489 0.929 . S
C5478 C5474 1.531 . S
C5478 H5490 0.960 . S
C5478 H5491 0.962 . S
C5478 H5492 0.960 . S
C5479 C5476 1.511 . S
C5479 H5493 0.961 . S
C5479 H5494 0.961 . S
C5479 H5495 0.961 . S
C5480 C5481 1.370 . S
C5480 C5482 1.363 . S
C5480 H5496 0.931 . S
C5481 C5480 1.370 . S
C5481 C5485 1.408 . S
C5482 C5480 1.363 . S
C5482 C5483 1.370 . S
C5482 C5486 1.524 . S
C5483 C5475 1.503 . S
C5483 C5482 1.370 . S
C5483 C5484 1.403 . S
C5484 C5483 1.403 . S
C5484 C5485 1.404 . S
C5484 C5487 1.539 . S
C5485 C5481 1.408 . S
C5485 C5484 1.404 . S
C5485 H5497 0.930 . S
C5486 C5482 1.524 . S
C5486 H5498 0.956 . S
C5486 H5499 0.961 . S
C5486 H5500 0.961 . S
C5487 C5484 1.539 . S
C5487 H5501 0.958 . S
C5487 H5502 0.961 . S
C5487 H5503 0.960 . S
H5488 C5472 0.931 . S
H5489 C5477 0.929 . S
H5490 C5478 0.960 . S
H5491 C5478 0.962 . S
H5492 C5478 0.960 . S
H5493 C5479 0.961 . S
H5494 C5479 0.961 . S
H5495 C5479 0.961 . S
H5496 C5480 0.931 . S
H5497 C5485 0.930 . S
H5498 C5486 0.956 . S
H5499 C5486 0.961 . S
H5500 C5486 0.961 . S
H5501 C5487 0.958 . S
H5502 C5487 0.961 . S
H5503 C5487 0.960 . S
C5504 C5505 1.391 . S
C5504 C5506 1.394 . S
C5504 H5520 0.931 . S
C5505 C5504 1.391 . S
C5505 C5509 1.376 . S
C5506 C5504 1.394 . S
C5506 C5507 1.369 . S
C5506 C5510 1.531 . S
C5507 C5506 1.369 . S
C5507 C5508 1.410 . S
C5507 C5515 1.503 . S
C5508 C5507 1.410 . S
C5508 C5509 1.392 . S
C5508 C5511 1.511 . S
C5509 C5505 1.376 . S
C5509 C5508 1.392 . S
C5509 H5521 0.929 . S
C5510 C5506 1.531 . S
C5510 H5522 0.960 . S
C5510 H5523 0.962 . S
C5510 H5524 0.960 . S
C5511 C5508 1.511 . S
C5511 H5525 0.961 . S
C5511 H5526 0.961 . S
C5511 H5527 0.961 . S
C5512 C5513 1.370 . S
C5512 C5514 1.363 . S
C5512 H5528 0.931 . S
C5513 C5512 1.370 . S
C5513 C5517 1.408 . S
C5514 C5512 1.363 . S
C5514 C5515 1.370 . S
C5514 C5518 1.524 . S
C5515 C5507 1.503 . S
C5515 C5514 1.370 . S
C5515 C5516 1.403 . S
C5516 C5515 1.403 . S
C5516 C5517 1.404 . S
C5516 C5519 1.539 . S
C5517 C5513 1.408 . S
C5517 C5516 1.404 . S
C5517 H5529 0.930 . S
C5518 C5514 1.524 . S
C5518 H5530 0.956 . S
C5518 H5531 0.961 . S
C5518 H5532 0.961 . S
C5519 C5516 1.539 . S
C5519 H5533 0.958 . S
C5519 H5534 0.961 . S
C5519 H5535 0.960 . S
H5520 C5504 0.931 . S
H5521 C5509 0.929 . S
H5522 C5510 0.960 . S
H5523 C5510 0.962 . S
H5524 C5510 0.960 . S
H5525 C5511 0.961 . S
H5526 C5511 0.961 . S
H5527 C5511 0.961 . S
H5528 C5512 0.931 . S
H5529 C5517 0.930 . S
H5530 C5518 0.956 . S
H5531 C5518 0.961 . S
H5532 C5518 0.961 . S
H5533 C5519 0.958 . S
H5534 C5519 0.961 . S
H5535 C5519 0.960 . S
C5536 C5537 1.391 . S
C5536 C5538 1.394 . S
C5536 H5552 0.931 . S
C5537 C5536 1.391 . S
C5537 C5541 1.376 . S
C5538 C5536 1.394 . S
C5538 C5539 1.369 . S
C5538 C5542 1.531 . S
C5539 C5538 1.369 . S
C5539 C5540 1.410 . S
C5539 C5547 1.503 . S
C5540 C5539 1.410 . S
C5540 C5541 1.392 . S
C5540 C5543 1.511 . S
C5541 C5537 1.376 . S
C5541 C5540 1.392 . S
C5541 H5553 0.929 . S
C5542 C5538 1.531 . S
C5542 H5554 0.960 . S
C5542 H5555 0.962 . S
C5542 H5556 0.960 . S
C5543 C5540 1.511 . S
C5543 H5557 0.961 . S
C5543 H5558 0.961 . S
C5543 H5559 0.961 . S
C5544 C5545 1.370 . S
C5544 C5546 1.363 . S
C5544 H5560 0.931 . S
C5545 C5544 1.370 . S
C5545 C5549 1.408 . S
C5546 C5544 1.363 . S
C5546 C5547 1.370 . S
C5546 C5550 1.524 . S
C5547 C5539 1.503 . S
C5547 C5546 1.370 . S
C5547 C5548 1.403 . S
C5548 C5547 1.403 . S
C5548 C5549 1.404 . S
C5548 C5551 1.539 . S
C5549 C5545 1.408 . S
C5549 C5548 1.404 . S
C5549 H5561 0.930 . S
C5550 C5546 1.524 . S
C5550 H5562 0.956 . S
C5550 H5563 0.961 . S
C5550 H5564 0.961 . S
C5551 C5548 1.539 . S
C5551 H5565 0.958 . S
C5551 H5566 0.961 . S
C5551 H5567 0.960 . S
H5552 C5536 0.931 . S
H5553 C5541 0.929 . S
H5554 C5542 0.960 . S
H5555 C5542 0.962 . S
H5556 C5542 0.960 . S
H5557 C5543 0.961 . S
H5558 C5543 0.961 . S
H5559 C5543 0.961 . S
H5560 C5544 0.931 . S
H5561 C5549 0.930 . S
H5562 C5550 0.956 . S
H5563 C5550 0.961 . S
H5564 C5550 0.961 . S
H5565 C5551 0.958 . S
H5566 C5551 0.961 . S
H5567 C5551 0.960 . S
C5568 C5569 1.391 . S
C5568 C5570 1.394 . S
C5568 H5584 0.931 . S
C5569 C5568 1.391 . S
C5569 C5573 1.376 . S
C5570 C5568 1.394 . S
C5570 C5571 1.369 . S
C5570 C5574 1.531 . S
C5571 C5570 1.369 . S
C5571 C5572 1.410 . S
C5571 C5579 1.503 . S
C5572 C5571 1.410 . S
C5572 C5573 1.392 . S
C5572 C5575 1.511 . S
C5573 C5569 1.376 . S
C5573 C5572 1.392 . S
C5573 H5585 0.929 . S
C5574 C5570 1.531 . S
C5574 H5586 0.960 . S
C5574 H5587 0.962 . S
C5574 H5588 0.960 . S
C5575 C5572 1.511 . S
C5575 H5589 0.961 . S
C5575 H5590 0.961 . S
C5575 H5591 0.961 . S
C5576 C5577 1.370 . S
C5576 C5578 1.363 . S
C5576 H5592 0.931 . S
C5577 C5576 1.370 . S
C5577 C5581 1.408 . S
C5578 C5576 1.363 . S
C5578 C5579 1.370 . S
C5578 C5582 1.524 . S
C5579 C5571 1.503 . S
C5579 C5578 1.370 . S
C5579 C5580 1.403 . S
C5580 C5579 1.403 . S
C5580 C5581 1.404 . S
C5580 C5583 1.539 . S
C5581 C5577 1.408 . S
C5581 C5580 1.404 . S
C5581 H5593 0.930 . S
C5582 C5578 1.524 . S
C5582 H5594 0.956 . S
C5582 H5595 0.961 . S
C5582 H5596 0.961 . S
C5583 C5580 1.539 . S
C5583 H5597 0.958 . S
C5583 H5598 0.961 . S
C5583 H5599 0.960 . S
H5584 C5568 0.931 . S
H5585 C5573 0.929 . S
H5586 C5574 0.960 . S
H5587 C5574 0.962 . S
H5588 C5574 0.960 . S
H5589 C5575 0.961 . S
H5590 C5575 0.961 . S
H5591 C5575 0.961 . S
H5592 C5576 0.931 . S
H5593 C5581 0.930 . S
H5594 C5582 0.956 . S
H5595 C5582 0.961 . S
H5596 C5582 0.961 . S
H5597 C5583 0.958 . S
H5598 C5583 0.961 . S
H5599 C5583 0.960 . S
C5600 C5601 1.391 . S
C5600 C5602 1.394 . S
C5600 H5616 0.931 . S
C5601 C5600 1.391 . S
C5601 C5605 1.376 . S
C5602 C5600 1.394 . S
C5602 C5603 1.369 . S
C5602 C5606 1.531 . S
C5603 C5602 1.369 . S
C5603 C5604 1.410 . S
C5603 C5611 1.503 . S
C5604 C5603 1.410 . S
C5604 C5605 1.392 . S
C5604 C5607 1.511 . S
C5605 C5601 1.376 . S
C5605 C5604 1.392 . S
C5605 H5617 0.929 . S
C5606 C5602 1.531 . S
C5606 H5618 0.960 . S
C5606 H5619 0.962 . S
C5606 H5620 0.960 . S
C5607 C5604 1.511 . S
C5607 H5621 0.961 . S
C5607 H5622 0.961 . S
C5607 H5623 0.961 . S
C5608 C5609 1.370 . S
C5608 C5610 1.363 . S
C5608 H5624 0.931 . S
C5609 C5608 1.370 . S
C5609 C5613 1.408 . S
C5610 C5608 1.363 . S
C5610 C5611 1.370 . S
C5610 C5614 1.524 . S
C5611 C5603 1.503 . S
C5611 C5610 1.370 . S
C5611 C5612 1.403 . S
C5612 C5611 1.403 . S
C5612 C5613 1.404 . S
C5612 C5615 1.539 . S
C5613 C5609 1.408 . S
C5613 C5612 1.404 . S
C5613 H5625 0.930 . S
C5614 C5610 1.524 . S
C5614 H5626 0.956 . S
C5614 H5627 0.961 . S
C5614 H5628 0.961 . S
C5615 C5612 1.539 . S
C5615 H5629 0.958 . S
C5615 H5630 0.961 . S
C5615 H5631 0.960 . S
H5616 C5600 0.931 . S
H5617 C5605 0.929 . S
H5618 C5606 0.960 . S
H5619 C5606 0.962 . S
H5620 C5606 0.960 . S
H5621 C5607 0.961 . S
H5622 C5607 0.961 . S
H5623 C5607 0.961 . S
H5624 C5608 0.931 . S
H5625 C5613 0.930 . S
H5626 C5614 0.956 . S
H5627 C5614 0.961 . S
H5628 C5614 0.961 . S
H5629 C5615 0.958 . S
H5630 C5615 0.961 . S
H5631 C5615 0.960 . S
C5632 C5633 1.391 . S
C5632 C5634 1.394 . S
C5632 H5648 0.931 . S
C5633 C5632 1.391 . S
C5633 C5637 1.376 . S
C5634 C5632 1.394 . S
C5634 C5635 1.369 . S
C5634 C5638 1.531 . S
C5635 C5634 1.369 . S
C5635 C5636 1.410 . S
C5635 C5643 1.503 . S
C5636 C5635 1.410 . S
C5636 C5637 1.392 . S
C5636 C5639 1.511 . S
C5637 C5633 1.376 . S
C5637 C5636 1.392 . S
C5637 H5649 0.929 . S
C5638 C5634 1.531 . S
C5638 H5650 0.960 . S
C5638 H5651 0.962 . S
C5638 H5652 0.960 . S
C5639 C5636 1.511 . S
C5639 H5653 0.961 . S
C5639 H5654 0.961 . S
C5639 H5655 0.961 . S
C5640 C5641 1.370 . S
C5640 C5642 1.363 . S
C5640 H5656 0.931 . S
C5641 C5640 1.370 . S
C5641 C5645 1.408 . S
C5642 C5640 1.363 . S
C5642 C5643 1.370 . S
C5642 C5646 1.524 . S
C5643 C5635 1.503 . S
C5643 C5642 1.370 . S
C5643 C5644 1.403 . S
C5644 C5643 1.403 . S
C5644 C5645 1.404 . S
C5644 C5647 1.539 . S
C5645 C5641 1.408 . S
C5645 C5644 1.404 . S
C5645 H5657 0.930 . S
C5646 C5642 1.524 . S
C5646 H5658 0.956 . S
C5646 H5659 0.961 . S
C5646 H5660 0.961 . S
C5647 C5644 1.539 . S
C5647 H5661 0.958 . S
C5647 H5662 0.961 . S
C5647 H5663 0.960 . S
H5648 C5632 0.931 . S
H5649 C5637 0.929 . S
H5650 C5638 0.960 . S
H5651 C5638 0.962 . S
H5652 C5638 0.960 . S
H5653 C5639 0.961 . S
H5654 C5639 0.961 . S
H5655 C5639 0.961 . S
H5656 C5640 0.931 . S
H5657 C5645 0.930 . S
H5658 C5646 0.956 . S
H5659 C5646 0.961 . S
H5660 C5646 0.961 . S
H5661 C5647 0.958 . S
H5662 C5647 0.961 . S
H5663 C5647 0.960 . S
C5664 C5665 1.391 . S
C5664 C5666 1.394 . S
C5664 H5680 0.931 . S
C5665 C5664 1.391 . S
C5665 C5669 1.376 . S
C5666 C5664 1.394 . S
C5666 C5667 1.369 . S
C5666 C5670 1.531 . S
C5667 C5666 1.369 . S
C5667 C5668 1.410 . S
C5667 C5675 1.503 . S
C5668 C5667 1.410 . S
C5668 C5669 1.392 . S
C5668 C5671 1.511 . S
C5669 C5665 1.376 . S
C5669 C5668 1.392 . S
C5669 H5681 0.929 . S
C5670 C5666 1.531 . S
C5670 H5682 0.960 . S
C5670 H5683 0.962 . S
C5670 H5684 0.960 . S
C5671 C5668 1.511 . S
C5671 H5685 0.961 . S
C5671 H5686 0.961 . S
C5671 H5687 0.961 . S
C5672 C5673 1.370 . S
C5672 C5674 1.363 . S
C5672 H5688 0.931 . S
C5673 C5672 1.370 . S
C5673 C5677 1.408 . S
C5674 C5672 1.363 . S
C5674 C5675 1.370 . S
C5674 C5678 1.524 . S
C5675 C5667 1.503 . S
C5675 C5674 1.370 . S
C5675 C5676 1.403 . S
C5676 C5675 1.403 . S
C5676 C5677 1.404 . S
C5676 C5679 1.539 . S
C5677 C5673 1.408 . S
C5677 C5676 1.404 . S
C5677 H5689 0.930 . S
C5678 C5674 1.524 . S
C5678 H5690 0.956 . S
C5678 H5691 0.961 . S
C5678 H5692 0.961 . S
C5679 C5676 1.539 . S
C5679 H5693 0.958 . S
C5679 H5694 0.961 . S
C5679 H5695 0.960 . S
H5680 C5664 0.931 . S
H5681 C5669 0.929 . S
H5682 C5670 0.960 . S
H5683 C5670 0.962 . S
H5684 C5670 0.960 . S
H5685 C5671 0.961 . S
H5686 C5671 0.961 . S
H5687 C5671 0.961 . S
H5688 C5672 0.931 . S
H5689 C5677 0.930 . S
H5690 C5678 0.956 . S
H5691 C5678 0.961 . S
H5692 C5678 0.961 . S
H5693 C5679 0.958 . S
H5694 C5679 0.961 . S
H5695 C5679 0.960 . S
C5696 C5697 1.391 . S
C5696 C5698 1.394 . S
C5696 H5712 0.931 . S
C5697 C5696 1.391 . S
C5697 C5701 1.376 . S
C5698 C5696 1.394 . S
C5698 C5699 1.369 . S
C5698 C5702 1.531 . S
C5699 C5698 1.369 . S
C5699 C5700 1.410 . S
C5699 C5707 1.503 . S
C5700 C5699 1.410 . S
C5700 C5701 1.392 . S
C5700 C5703 1.511 . S
C5701 C5697 1.376 . S
C5701 C5700 1.392 . S
C5701 H5713 0.929 . S
C5702 C5698 1.531 . S
C5702 H5714 0.960 . S
C5702 H5715 0.962 . S
C5702 H5716 0.960 . S
C5703 C5700 1.511 . S
C5703 H5717 0.961 . S
C5703 H5718 0.961 . S
C5703 H5719 0.961 . S
C5704 C5705 1.370 . S
C5704 C5706 1.363 . S
C5704 H5720 0.931 . S
C5705 C5704 1.370 . S
C5705 C5709 1.408 . S
C5706 C5704 1.363 . S
C5706 C5707 1.370 . S
C5706 C5710 1.524 . S
C5707 C5699 1.503 . S
C5707 C5706 1.370 . S
C5707 C5708 1.403 . S
C5708 C5707 1.403 . S
C5708 C5709 1.404 . S
C5708 C5711 1.539 . S
C5709 C5705 1.408 . S
C5709 C5708 1.404 . S
C5709 H5721 0.930 . S
C5710 C5706 1.524 . S
C5710 H5722 0.956 . S
C5710 H5723 0.961 . S
C5710 H5724 0.961 . S
C5711 C5708 1.539 . S
C5711 H5725 0.958 . S
C5711 H5726 0.961 . S
C5711 H5727 0.960 . S
H5712 C5696 0.931 . S
H5713 C5701 0.929 . S
H5714 C5702 0.960 . S
H5715 C5702 0.962 . S
H5716 C5702 0.960 . S
H5717 C5703 0.961 . S
H5718 C5703 0.961 . S
H5719 C5703 0.961 . S
H5720 C5704 0.931 . S
H5721 C5709 0.930 . S
H5722 C5710 0.956 . S
H5723 C5710 0.961 . S
H5724 C5710 0.961 . S
H5725 C5711 0.958 . S
H5726 C5711 0.961 . S
H5727 C5711 0.960 . S
C5728 C5729 1.391 . S
C5728 C5730 1.394 . S
C5728 H5744 0.931 . S
C5729 C5728 1.391 . S
C5729 C5733 1.376 . S
C5730 C5728 1.394 . S
C5730 C5731 1.369 . S
C5730 C5734 1.531 . S
C5731 C5730 1.369 . S
C5731 C5732 1.410 . S
C5731 C5739 1.503 . S
C5732 C5731 1.410 . S
C5732 C5733 1.392 . S
C5732 C5735 1.511 . S
C5733 C5729 1.376 . S
C5733 C5732 1.392 . S
C5733 H5745 0.929 . S
C5734 C5730 1.531 . S
C5734 H5746 0.960 . S
C5734 H5747 0.962 . S
C5734 H5748 0.960 . S
C5735 C5732 1.511 . S
C5735 H5749 0.961 . S
C5735 H5750 0.961 . S
C5735 H5751 0.961 . S
C5736 C5737 1.370 . S
C5736 C5738 1.363 . S
C5736 H5752 0.931 . S
C5737 C5736 1.370 . S
C5737 C5741 1.408 . S
C5738 C5736 1.363 . S
C5738 C5739 1.370 . S
C5738 C5742 1.524 . S
C5739 C5731 1.503 . S
C5739 C5738 1.370 . S
C5739 C5740 1.403 . S
C5740 C5739 1.403 . S
C5740 C5741 1.404 . S
C5740 C5743 1.539 . S
C5741 C5737 1.408 . S
C5741 C5740 1.404 . S
C5741 H5753 0.930 . S
C5742 C5738 1.524 . S
C5742 H5754 0.956 . S
C5742 H5755 0.961 . S
C5742 H5756 0.961 . S
C5743 C5740 1.539 . S
C5743 H5757 0.958 . S
C5743 H5758 0.961 . S
C5743 H5759 0.960 . S
H5744 C5728 0.931 . S
H5745 C5733 0.929 . S
H5746 C5734 0.960 . S
H5747 C5734 0.962 . S
H5748 C5734 0.960 . S
H5749 C5735 0.961 . S
H5750 C5735 0.961 . S
H5751 C5735 0.961 . S
H5752 C5736 0.931 . S
H5753 C5741 0.930 . S
H5754 C5742 0.956 . S
H5755 C5742 0.961 . S
H5756 C5742 0.961 . S
H5757 C5743 0.958 . S
H5758 C5743 0.961 . S
H5759 C5743 0.960 . S
C5760 C5761 1.391 . S
C5760 C5762 1.394 . S
C5760 H5776 0.931 . S
C5761 C5760 1.391 . S
C5761 C5765 1.376 . S
C5762 C5760 1.394 . S
C5762 C5763 1.369 . S
C5762 C5766 1.531 . S
C5763 C5762 1.369 . S
C5763 C5764 1.410 . S
C5763 C5771 1.503 . S
C5764 C5763 1.410 . S
C5764 C5765 1.392 . S
C5764 C5767 1.511 . S
C5765 C5761 1.376 . S
C5765 C5764 1.392 . S
C5765 H5777 0.929 . S
C5766 C5762 1.531 . S
C5766 H5778 0.960 . S
C5766 H5779 0.962 . S
C5766 H5780 0.960 . S
C5767 C5764 1.511 . S
C5767 H5781 0.961 . S
C5767 H5782 0.961 . S
C5767 H5783 0.961 . S
C5768 C5769 1.370 . S
C5768 C5770 1.363 . S
C5768 H5784 0.931 . S
C5769 C5768 1.370 . S
C5769 C5773 1.408 . S
C5770 C5768 1.363 . S
C5770 C5771 1.370 . S
C5770 C5774 1.524 . S
C5771 C5763 1.503 . S
C5771 C5770 1.370 . S
C5771 C5772 1.403 . S
C5772 C5771 1.403 . S
C5772 C5773 1.404 . S
C5772 C5775 1.539 . S
C5773 C5769 1.408 . S
C5773 C5772 1.404 . S
C5773 H5785 0.930 . S
C5774 C5770 1.524 . S
C5774 H5786 0.956 . S
C5774 H5787 0.961 . S
C5774 H5788 0.961 . S
C5775 C5772 1.539 . S
C5775 H5789 0.958 . S
C5775 H5790 0.961 . S
C5775 H5791 0.960 . S
H5776 C5760 0.931 . S
H5777 C5765 0.929 . S
H5778 C5766 0.960 . S
H5779 C5766 0.962 . S
H5780 C5766 0.960 . S
H5781 C5767 0.961 . S
H5782 C5767 0.961 . S
H5783 C5767 0.961 . S
H5784 C5768 0.931 . S
H5785 C5773 0.930 . S
H5786 C5774 0.956 . S
H5787 C5774 0.961 . S
H5788 C5774 0.961 . S
H5789 C5775 0.958 . S
H5790 C5775 0.961 . S
H5791 C5775 0.960 . S
C5792 C5793 1.391 . S
C5792 C5794 1.394 . S
C5792 H5808 0.931 . S
C5793 C5792 1.391 . S
C5793 C5797 1.376 . S
C5794 C5792 1.394 . S
C5794 C5795 1.369 . S
C5794 C5798 1.531 . S
C5795 C5794 1.369 . S
C5795 C5796 1.410 . S
C5795 C5803 1.503 . S
C5796 C5795 1.410 . S
C5796 C5797 1.392 . S
C5796 C5799 1.511 . S
C5797 C5793 1.376 . S
C5797 C5796 1.392 . S
C5797 H5809 0.929 . S
C5798 C5794 1.531 . S
C5798 H5810 0.960 . S
C5798 H5811 0.962 . S
C5798 H5812 0.960 . S
C5799 C5796 1.511 . S
C5799 H5813 0.961 . S
C5799 H5814 0.961 . S
C5799 H5815 0.961 . S
C5800 C5801 1.370 . S
C5800 C5802 1.363 . S
C5800 H5816 0.931 . S
C5801 C5800 1.370 . S
C5801 C5805 1.408 . S
C5802 C5800 1.363 . S
C5802 C5803 1.370 . S
C5802 C5806 1.524 . S
C5803 C5795 1.503 . S
C5803 C5802 1.370 . S
C5803 C5804 1.403 . S
C5804 C5803 1.403 . S
C5804 C5805 1.404 . S
C5804 C5807 1.539 . S
C5805 C5801 1.408 . S
C5805 C5804 1.404 . S
C5805 H5817 0.930 . S
C5806 C5802 1.524 . S
C5806 H5818 0.956 . S
C5806 H5819 0.961 . S
C5806 H5820 0.961 . S
C5807 C5804 1.539 . S
C5807 H5821 0.958 . S
C5807 H5822 0.961 . S
C5807 H5823 0.960 . S
H5808 C5792 0.931 . S
H5809 C5797 0.929 . S
H5810 C5798 0.960 . S
H5811 C5798 0.962 . S
H5812 C5798 0.960 . S
H5813 C5799 0.961 . S
H5814 C5799 0.961 . S
H5815 C5799 0.961 . S
H5816 C5800 0.931 . S
H5817 C5805 0.930 . S
H5818 C5806 0.956 . S
H5819 C5806 0.961 . S
H5820 C5806 0.961 . S
H5821 C5807 0.958 . S
H5822 C5807 0.961 . S
H5823 C5807 0.960 . S
C5824 C5825 1.391 . S
C5824 C5826 1.394 . S
C5824 H5840 0.931 . S
C5825 C5824 1.391 . S
C5825 C5829 1.376 . S
C5826 C5824 1.394 . S
C5826 C5827 1.369 . S
C5826 C5830 1.531 . S
C5827 C5826 1.369 . S
C5827 C5828 1.410 . S
C5827 C5835 1.503 . S
C5828 C5827 1.410 . S
C5828 C5829 1.392 . S
C5828 C5831 1.511 . S
C5829 C5825 1.376 . S
C5829 C5828 1.392 . S
C5829 H5841 0.929 . S
C5830 C5826 1.531 . S
C5830 H5842 0.960 . S
C5830 H5843 0.962 . S
C5830 H5844 0.960 . S
C5831 C5828 1.511 . S
C5831 H5845 0.961 . S
C5831 H5846 0.961 . S
C5831 H5847 0.961 . S
C5832 C5833 1.370 . S
C5832 C5834 1.363 . S
C5832 H5848 0.931 . S
C5833 C5832 1.370 . S
C5833 C5837 1.408 . S
C5834 C5832 1.363 . S
C5834 C5835 1.370 . S
C5834 C5838 1.524 . S
C5835 C5827 1.503 . S
C5835 C5834 1.370 . S
C5835 C5836 1.403 . S
C5836 C5835 1.403 . S
C5836 C5837 1.404 . S
C5836 C5839 1.539 . S
C5837 C5833 1.408 . S
C5837 C5836 1.404 . S
C5837 H5849 0.930 . S
C5838 C5834 1.524 . S
C5838 H5850 0.956 . S
C5838 H5851 0.961 . S
C5838 H5852 0.961 . S
C5839 C5836 1.539 . S
C5839 H5853 0.958 . S
C5839 H5854 0.961 . S
C5839 H5855 0.960 . S
H5840 C5824 0.931 . S
H5841 C5829 0.929 . S
H5842 C5830 0.960 . S
H5843 C5830 0.962 . S
H5844 C5830 0.960 . S
H5845 C5831 0.961 . S
H5846 C5831 0.961 . S
H5847 C5831 0.961 . S
H5848 C5832 0.931 . S
H5849 C5837 0.930 . S
H5850 C5838 0.956 . S
H5851 C5838 0.961 . S
H5852 C5838 0.961 . S
H5853 C5839 0.958 . S
H5854 C5839 0.961 . S
H5855 C5839 0.960 . S
C5856 C5857 1.391 . S
C5856 C5858 1.394 . S
C5856 H5872 0.931 . S
C5857 C5856 1.391 . S
C5857 C5861 1.376 . S
C5858 C5856 1.394 . S
C5858 C5859 1.369 . S
C5858 C5862 1.531 . S
C5859 C5858 1.369 . S
C5859 C5860 1.410 . S
C5859 C5867 1.503 . S
C5860 C5859 1.410 . S
C5860 C5861 1.392 . S
C5860 C5863 1.511 . S
C5861 C5857 1.376 . S
C5861 C5860 1.392 . S
C5861 H5873 0.929 . S
C5862 C5858 1.531 . S
C5862 H5874 0.960 . S
C5862 H5875 0.962 . S
C5862 H5876 0.960 . S
C5863 C5860 1.511 . S
C5863 H5877 0.961 . S
C5863 H5878 0.961 . S
C5863 H5879 0.961 . S
C5864 C5865 1.370 . S
C5864 C5866 1.363 . S
C5864 H5880 0.931 . S
C5865 C5864 1.370 . S
C5865 C5869 1.408 . S
C5866 C5864 1.363 . S
C5866 C5867 1.370 . S
C5866 C5870 1.524 . S
C5867 C5859 1.503 . S
C5867 C5866 1.370 . S
C5867 C5868 1.403 . S
C5868 C5867 1.403 . S
C5868 C5869 1.404 . S
C5868 C5871 1.539 . S
C5869 C5865 1.408 . S
C5869 C5868 1.404 . S
C5869 H5881 0.930 . S
C5870 C5866 1.524 . S
C5870 H5882 0.956 . S
C5870 H5883 0.961 . S
C5870 H5884 0.961 . S
C5871 C5868 1.539 . S
C5871 H5885 0.958 . S
C5871 H5886 0.961 . S
C5871 H5887 0.960 . S
H5872 C5856 0.931 . S
H5873 C5861 0.929 . S
H5874 C5862 0.960 . S
H5875 C5862 0.962 . S
H5876 C5862 0.960 . S
H5877 C5863 0.961 . S
H5878 C5863 0.961 . S
H5879 C5863 0.961 . S
H5880 C5864 0.931 . S
H5881 C5869 0.930 . S
H5882 C5870 0.956 . S
H5883 C5870 0.961 . S
H5884 C5870 0.961 . S
H5885 C5871 0.958 . S
H5886 C5871 0.961 . S
H5887 C5871 0.960 . S
C5888 C5889 1.391 . S
C5888 C5890 1.394 . S
C5888 H5904 0.931 . S
C5889 C5888 1.391 . S
C5889 C5893 1.376 . S
C5890 C5888 1.394 . S
C5890 C5891 1.369 . S
C5890 C5894 1.531 . S
C5891 C5890 1.369 . S
C5891 C5892 1.410 . S
C5891 C5899 1.503 . S
C5892 C5891 1.410 . S
C5892 C5893 1.392 . S
C5892 C5895 1.511 . S
C5893 C5889 1.376 . S
C5893 C5892 1.392 . S
C5893 H5905 0.929 . S
C5894 C5890 1.531 . S
C5894 H5906 0.960 . S
C5894 H5907 0.962 . S
C5894 H5908 0.960 . S
C5895 C5892 1.511 . S
C5895 H5909 0.961 . S
C5895 H5910 0.961 . S
C5895 H5911 0.961 . S
C5896 C5897 1.370 . S
C5896 C5898 1.363 . S
C5896 H5912 0.931 . S
C5897 C5896 1.370 . S
C5897 C5901 1.408 . S
C5898 C5896 1.363 . S
C5898 C5899 1.370 . S
C5898 C5902 1.524 . S
C5899 C5891 1.503 . S
C5899 C5898 1.370 . S
C5899 C5900 1.403 . S
C5900 C5899 1.403 . S
C5900 C5901 1.404 . S
C5900 C5903 1.539 . S
C5901 C5897 1.408 . S
C5901 C5900 1.404 . S
C5901 H5913 0.930 . S
C5902 C5898 1.524 . S
C5902 H5914 0.956 . S
C5902 H5915 0.961 . S
C5902 H5916 0.961 . S
C5903 C5900 1.539 . S
C5903 H5917 0.958 . S
C5903 H5918 0.961 . S
C5903 H5919 0.960 . S
H5904 C5888 0.931 . S
H5905 C5893 0.929 . S
H5906 C5894 0.960 . S
H5907 C5894 0.962 . S
H5908 C5894 0.960 . S
H5909 C5895 0.961 . S
H5910 C5895 0.961 . S
H5911 C5895 0.961 . S
H5912 C5896 0.931 . S
H5913 C5901 0.930 . S
H5914 C5902 0.956 . S
H5915 C5902 0.961 . S
H5916 C5902 0.961 . S
H5917 C5903 0.958 . S
H5918 C5903 0.961 . S
H5919 C5903 0.960 . S
C5920 C5921 1.391 . S
C5920 C5922 1.394 . S
C5920 H5936 0.931 . S
C5921 C5920 1.391 . S
C5921 C5925 1.376 . S
C5922 C5920 1.394 . S
C5922 C5923 1.369 . S
C5922 C5926 1.531 . S
C5923 C5922 1.369 . S
C5923 C5924 1.410 . S
C5923 C5931 1.503 . S
C5924 C5923 1.410 . S
C5924 C5925 1.392 . S
C5924 C5927 1.511 . S
C5925 C5921 1.376 . S
C5925 C5924 1.392 . S
C5925 H5937 0.929 . S
C5926 C5922 1.531 . S
C5926 H5938 0.960 . S
C5926 H5939 0.962 . S
C5926 H5940 0.960 . S
C5927 C5924 1.511 . S
C5927 H5941 0.961 . S
C5927 H5942 0.961 . S
C5927 H5943 0.961 . S
C5928 C5929 1.370 . S
C5928 C5930 1.363 . S
C5928 H5944 0.931 . S
C5929 C5928 1.370 . S
C5929 C5933 1.408 . S
C5930 C5928 1.363 . S
C5930 C5931 1.370 . S
C5930 C5934 1.524 . S
C5931 C5923 1.503 . S
C5931 C5930 1.370 . S
C5931 C5932 1.403 . S
C5932 C5931 1.403 . S
C5932 C5933 1.404 . S
C5932 C5935 1.539 . S
C5933 C5929 1.408 . S
C5933 C5932 1.404 . S
C5933 H5945 0.930 . S
C5934 C5930 1.524 . S
C5934 H5946 0.956 . S
C5934 H5947 0.961 . S
C5934 H5948 0.961 . S
C5935 C5932 1.539 . S
C5935 H5949 0.958 . S
C5935 H5950 0.961 . S
C5935 H5951 0.960 . S
H5936 C5920 0.931 . S
H5937 C5925 0.929 . S
H5938 C5926 0.960 . S
H5939 C5926 0.962 . S
H5940 C5926 0.960 . S
H5941 C5927 0.961 . S
H5942 C5927 0.961 . S
H5943 C5927 0.961 . S
H5944 C5928 0.931 . S
H5945 C5933 0.930 . S
H5946 C5934 0.956 . S
H5947 C5934 0.961 . S
H5948 C5934 0.961 . S
H5949 C5935 0.958 . S
H5950 C5935 0.961 . S
H5951 C5935 0.960 . S
C5952 C5953 1.391 . S
C5952 C5954 1.394 . S
C5952 H5968 0.931 . S
C5953 C5952 1.391 . S
C5953 C5957 1.376 . S
C5954 C5952 1.394 . S
C5954 C5955 1.369 . S
C5954 C5958 1.531 . S
C5955 C5954 1.369 . S
C5955 C5956 1.410 . S
C5955 C5963 1.503 . S
C5956 C5955 1.410 . S
C5956 C5957 1.392 . S
C5956 C5959 1.511 . S
C5957 C5953 1.376 . S
C5957 C5956 1.392 . S
C5957 H5969 0.929 . S
C5958 C5954 1.531 . S
C5958 H5970 0.960 . S
C5958 H5971 0.962 . S
C5958 H5972 0.960 . S
C5959 C5956 1.511 . S
C5959 H5973 0.961 . S
C5959 H5974 0.961 . S
C5959 H5975 0.961 . S
C5960 C5961 1.370 . S
C5960 C5962 1.363 . S
C5960 H5976 0.931 . S
C5961 C5960 1.370 . S
C5961 C5965 1.408 . S
C5962 C5960 1.363 . S
C5962 C5963 1.370 . S
C5962 C5966 1.524 . S
C5963 C5955 1.503 . S
C5963 C5962 1.370 . S
C5963 C5964 1.403 . S
C5964 C5963 1.403 . S
C5964 C5965 1.404 . S
C5964 C5967 1.539 . S
C5965 C5961 1.408 . S
C5965 C5964 1.404 . S
C5965 H5977 0.930 . S
C5966 C5962 1.524 . S
C5966 H5978 0.956 . S
C5966 H5979 0.961 . S
C5966 H5980 0.961 . S
C5967 C5964 1.539 . S
C5967 H5981 0.958 . S
C5967 H5982 0.961 . S
C5967 H5983 0.960 . S
H5968 C5952 0.931 . S
H5969 C5957 0.929 . S
H5970 C5958 0.960 . S
H5971 C5958 0.962 . S
H5972 C5958 0.960 . S
H5973 C5959 0.961 . S
H5974 C5959 0.961 . S
H5975 C5959 0.961 . S
H5976 C5960 0.931 . S
H5977 C5965 0.930 . S
H5978 C5966 0.956 . S
H5979 C5966 0.961 . S
H5980 C5966 0.961 . S
H5981 C5967 0.958 . S
H5982 C5967 0.961 . S
H5983 C5967 0.960 . S
C5984 C5985 1.391 . S
C5984 C5986 1.394 . S
C5984 H6000 0.931 . S
C5985 C5984 1.391 . S
C5985 C5989 1.376 . S
C5986 C5984 1.394 . S
C5986 C5987 1.369 . S
C5986 C5990 1.531 . S
C5987 C5986 1.369 . S
C5987 C5988 1.410 . S
C5987 C5995 1.503 . S
C5988 C5987 1.410 . S
C5988 C5989 1.392 . S
C5988 C5991 1.511 . S
C5989 C5985 1.376 . S
C5989 C5988 1.392 . S
C5989 H6001 0.929 . S
C5990 C5986 1.531 . S
C5990 H6002 0.960 . S
C5990 H6003 0.962 . S
C5990 H6004 0.960 . S
C5991 C5988 1.511 . S
C5991 H6005 0.961 . S
C5991 H6006 0.961 . S
C5991 H6007 0.961 . S
C5992 C5993 1.370 . S
C5992 C5994 1.363 . S
C5992 H6008 0.931 . S
C5993 C5992 1.370 . S
C5993 C5997 1.408 . S
C5994 C5992 1.363 . S
C5994 C5995 1.370 . S
C5994 C5998 1.524 . S
C5995 C5987 1.503 . S
C5995 C5994 1.370 . S
C5995 C5996 1.403 . S
C5996 C5995 1.403 . S
C5996 C5997 1.404 . S
C5996 C5999 1.539 . S
C5997 C5993 1.408 . S
C5997 C5996 1.404 . S
C5997 H6009 0.930 . S
C5998 C5994 1.524 . S
C5998 H6010 0.956 . S
C5998 H6011 0.961 . S
C5998 H6012 0.961 . S
C5999 C5996 1.539 . S
C5999 H6013 0.958 . S
C5999 H6014 0.961 . S
C5999 H6015 0.960 . S
H6000 C5984 0.931 . S
H6001 C5989 0.929 . S
H6002 C5990 0.960 . S
H6003 C5990 0.962 . S
H6004 C5990 0.960 . S
H6005 C5991 0.961 . S
H6006 C5991 0.961 . S
H6007 C5991 0.961 . S
H6008 C5992 0.931 . S
H6009 C5997 0.930 . S
H6010 C5998 0.956 . S
H6011 C5998 0.961 . S
H6012 C5998 0.961 . S
H6013 C5999 0.958 . S
H6014 C5999 0.961 . S
H6015 C5999 0.960 . S
C6016 C6017 1.391 . S
C6016 C6018 1.394 . S
C6016 H6032 0.931 . S
C6017 C6016 1.391 . S
C6017 C6021 1.376 . S
C6018 C6016 1.394 . S
C6018 C6019 1.369 . S
C6018 C6022 1.531 . S
C6019 C6018 1.369 . S
C6019 C6020 1.410 . S
C6019 C6027 1.503 . S
C6020 C6019 1.410 . S
C6020 C6021 1.392 . S
C6020 C6023 1.511 . S
C6021 C6017 1.376 . S
C6021 C6020 1.392 . S
C6021 H6033 0.929 . S
C6022 C6018 1.531 . S
C6022 H6034 0.960 . S
C6022 H6035 0.962 . S
C6022 H6036 0.960 . S
C6023 C6020 1.511 . S
C6023 H6037 0.961 . S
C6023 H6038 0.961 . S
C6023 H6039 0.961 . S
C6024 C6025 1.370 . S
C6024 C6026 1.363 . S
C6024 H6040 0.931 . S
C6025 C6024 1.370 . S
C6025 C6029 1.408 . S
C6026 C6024 1.363 . S
C6026 C6027 1.370 . S
C6026 C6030 1.524 . S
C6027 C6019 1.503 . S
C6027 C6026 1.370 . S
C6027 C6028 1.403 . S
C6028 C6027 1.403 . S
C6028 C6029 1.404 . S
C6028 C6031 1.539 . S
C6029 C6025 1.408 . S
C6029 C6028 1.404 . S
C6029 H6041 0.930 . S
C6030 C6026 1.524 . S
C6030 H6042 0.956 . S
C6030 H6043 0.961 . S
C6030 H6044 0.961 . S
C6031 C6028 1.539 . S
C6031 H6045 0.958 . S
C6031 H6046 0.961 . S
C6031 H6047 0.960 . S
H6032 C6016 0.931 . S
H6033 C6021 0.929 . S
H6034 C6022 0.960 . S
H6035 C6022 0.962 . S
H6036 C6022 0.960 . S
H6037 C6023 0.961 . S
H6038 C6023 0.961 . S
H6039 C6023 0.961 . S
H6040 C6024 0.931 . S
H6041 C6029 0.930 . S
H6042 C6030 0.956 . S
H6043 C6030 0.961 . S
H6044 C6030 0.961 . S
H6045 C6031 0.958 . S
H6046 C6031 0.961 . S
H6047 C6031 0.960 . S
C6048 C6049 1.391 . S
C6048 C6050 1.394 . S
C6048 H6064 0.931 . S
C6049 C6048 1.391 . S
C6049 C6053 1.376 . S
C6050 C6048 1.394 . S
C6050 C6051 1.369 . S
C6050 C6054 1.531 . S
C6051 C6050 1.369 . S
C6051 C6052 1.410 . S
C6051 C6059 1.503 . S
C6052 C6051 1.410 . S
C6052 C6053 1.392 . S
C6052 C6055 1.511 . S
C6053 C6049 1.376 . S
C6053 C6052 1.392 . S
C6053 H6065 0.929 . S
C6054 C6050 1.531 . S
C6054 H6066 0.960 . S
C6054 H6067 0.962 . S
C6054 H6068 0.960 . S
C6055 C6052 1.511 . S
C6055 H6069 0.961 . S
C6055 H6070 0.961 . S
C6055 H6071 0.961 . S
C6056 C6057 1.370 . S
C6056 C6058 1.363 . S
C6056 H6072 0.931 . S
C6057 C6056 1.370 . S
C6057 C6061 1.408 . S
C6058 C6056 1.363 . S
C6058 C6059 1.370 . S
C6058 C6062 1.524 . S
C6059 C6051 1.503 . S
C6059 C6058 1.370 . S
C6059 C6060 1.403 . S
C6060 C6059 1.403 . S
C6060 C6061 1.404 . S
C6060 C6063 1.539 . S
C6061 C6057 1.408 . S
C6061 C6060 1.404 . S
C6061 H6073 0.930 . S
C6062 C6058 1.524 . S
C6062 H6074 0.956 . S
C6062 H6075 0.961 . S
C6062 H6076 0.961 . S
C6063 C6060 1.539 . S
C6063 H6077 0.958 . S
C6063 H6078 0.961 . S
C6063 H6079 0.960 . S
H6064 C6048 0.931 . S
H6065 C6053 0.929 . S
H6066 C6054 0.960 . S
H6067 C6054 0.962 . S
H6068 C6054 0.960 . S
H6069 C6055 0.961 . S
H6070 C6055 0.961 . S
H6071 C6055 0.961 . S
H6072 C6056 0.931 . S
H6073 C6061 0.930 . S
H6074 C6062 0.956 . S
H6075 C6062 0.961 . S
H6076 C6062 0.961 . S
H6077 C6063 0.958 . S
H6078 C6063 0.961 . S
H6079 C6063 0.960 . S
C6080 C6081 1.391 . S
C6080 C6082 1.394 . S
C6080 H6096 0.931 . S
C6081 C6080 1.391 . S
C6081 C6085 1.376 . S
C6082 C6080 1.394 . S
C6082 C6083 1.369 . S
C6082 C6086 1.531 . S
C6083 C6082 1.369 . S
C6083 C6084 1.410 . S
C6083 C6091 1.503 . S
C6084 C6083 1.410 . S
C6084 C6085 1.392 . S
C6084 C6087 1.511 . S
C6085 C6081 1.376 . S
C6085 C6084 1.392 . S
C6085 H6097 0.929 . S
C6086 C6082 1.531 . S
C6086 H6098 0.960 . S
C6086 H6099 0.962 . S
C6086 H6100 0.960 . S
C6087 C6084 1.511 . S
C6087 H6101 0.961 . S
C6087 H6102 0.961 . S
C6087 H6103 0.961 . S
C6088 C6089 1.370 . S
C6088 C6090 1.363 . S
C6088 H6104 0.931 . S
C6089 C6088 1.370 . S
C6089 C6093 1.408 . S
C6090 C6088 1.363 . S
C6090 C6091 1.370 . S
C6090 C6094 1.524 . S
C6091 C6083 1.503 . S
C6091 C6090 1.370 . S
C6091 C6092 1.403 . S
C6092 C6091 1.403 . S
C6092 C6093 1.404 . S
C6092 C6095 1.539 . S
C6093 C6089 1.408 . S
C6093 C6092 1.404 . S
C6093 H6105 0.930 . S
C6094 C6090 1.524 . S
C6094 H6106 0.956 . S
C6094 H6107 0.961 . S
C6094 H6108 0.961 . S
C6095 C6092 1.539 . S
C6095 H6109 0.958 . S
C6095 H6110 0.961 . S
C6095 H6111 0.960 . S
H6096 C6080 0.931 . S
H6097 C6085 0.929 . S
H6098 C6086 0.960 . S
H6099 C6086 0.962 . S
H6100 C6086 0.960 . S
H6101 C6087 0.961 . S
H6102 C6087 0.961 . S
H6103 C6087 0.961 . S
H6104 C6088 0.931 . S
H6105 C6093 0.930 . S
H6106 C6094 0.956 . S
H6107 C6094 0.961 . S
H6108 C6094 0.961 . S
H6109 C6095 0.958 . S
H6110 C6095 0.961 . S
H6111 C6095 0.960 . S
C6112 C6113 1.391 . S
C6112 C6114 1.394 . S
C6112 H6128 0.931 . S
C6113 C6112 1.391 . S
C6113 C6117 1.376 . S
C6114 C6112 1.394 . S
C6114 C6115 1.369 . S
C6114 C6118 1.531 . S
C6115 C6114 1.369 . S
C6115 C6116 1.410 . S
C6115 C6123 1.503 . S
C6116 C6115 1.410 . S
C6116 C6117 1.392 . S
C6116 C6119 1.511 . S
C6117 C6113 1.376 . S
C6117 C6116 1.392 . S
C6117 H6129 0.929 . S
C6118 C6114 1.531 . S
C6118 H6130 0.960 . S
C6118 H6131 0.962 . S
C6118 H6132 0.960 . S
C6119 C6116 1.511 . S
C6119 H6133 0.961 . S
C6119 H6134 0.961 . S
C6119 H6135 0.961 . S
C6120 C6121 1.370 . S
C6120 C6122 1.363 . S
C6120 H6136 0.931 . S
C6121 C6120 1.370 . S
C6121 C6125 1.408 . S
C6122 C6120 1.363 . S
C6122 C6123 1.370 . S
C6122 C6126 1.524 . S
C6123 C6115 1.503 . S
C6123 C6122 1.370 . S
C6123 C6124 1.403 . S
C6124 C6123 1.403 . S
C6124 C6125 1.404 . S
C6124 C6127 1.539 . S
C6125 C6121 1.408 . S
C6125 C6124 1.404 . S
C6125 H6137 0.930 . S
C6126 C6122 1.524 . S
C6126 H6138 0.956 . S
C6126 H6139 0.961 . S
C6126 H6140 0.961 . S
C6127 C6124 1.539 . S
C6127 H6141 0.958 . S
C6127 H6142 0.961 . S
C6127 H6143 0.960 . S
H6128 C6112 0.931 . S
H6129 C6117 0.929 . S
H6130 C6118 0.960 . S
H6131 C6118 0.962 . S
H6132 C6118 0.960 . S
H6133 C6119 0.961 . S
H6134 C6119 0.961 . S
H6135 C6119 0.961 . S
H6136 C6120 0.931 . S
H6137 C6125 0.930 . S
H6138 C6126 0.956 . S
H6139 C6126 0.961 . S
H6140 C6126 0.961 . S
H6141 C6127 0.958 . S
H6142 C6127 0.961 . S
H6143 C6127 0.960 . S
C6144 C6145 1.391 . S
C6144 C6146 1.394 . S
C6144 H6160 0.931 . S
C6145 C6144 1.391 . S
C6145 C6149 1.376 . S
C6146 C6144 1.394 . S
C6146 C6147 1.369 . S
C6146 C6150 1.531 . S
C6147 C6146 1.369 . S
C6147 C6148 1.410 . S
C6147 C6155 1.503 . S
C6148 C6147 1.410 . S
C6148 C6149 1.392 . S
C6148 C6151 1.511 . S
C6149 C6145 1.376 . S
C6149 C6148 1.392 . S
C6149 H6161 0.929 . S
C6150 C6146 1.531 . S
C6150 H6162 0.960 . S
C6150 H6163 0.962 . S
C6150 H6164 0.960 . S
C6151 C6148 1.511 . S
C6151 H6165 0.961 . S
C6151 H6166 0.961 . S
C6151 H6167 0.961 . S
C6152 C6153 1.370 . S
C6152 C6154 1.363 . S
C6152 H6168 0.931 . S
C6153 C6152 1.370 . S
C6153 C6157 1.408 . S
C6154 C6152 1.363 . S
C6154 C6155 1.370 . S
C6154 C6158 1.524 . S
C6155 C6147 1.503 . S
C6155 C6154 1.370 . S
C6155 C6156 1.403 . S
C6156 C6155 1.403 . S
C6156 C6157 1.404 . S
C6156 C6159 1.539 . S
C6157 C6153 1.408 . S
C6157 C6156 1.404 . S
C6157 H6169 0.930 . S
C6158 C6154 1.524 . S
C6158 H6170 0.956 . S
C6158 H6171 0.961 . S
C6158 H6172 0.961 . S
C6159 C6156 1.539 . S
C6159 H6173 0.958 . S
C6159 H6174 0.961 . S
C6159 H6175 0.960 . S
H6160 C6144 0.931 . S
H6161 C6149 0.929 . S
H6162 C6150 0.960 . S
H6163 C6150 0.962 . S
H6164 C6150 0.960 . S
H6165 C6151 0.961 . S
H6166 C6151 0.961 . S
H6167 C6151 0.961 . S
H6168 C6152 0.931 . S
H6169 C6157 0.930 . S
H6170 C6158 0.956 . S
H6171 C6158 0.961 . S
H6172 C6158 0.961 . S
H6173 C6159 0.958 . S
H6174 C6159 0.961 . S
H6175 C6159 0.960 . S
C6176 C6177 1.391 . S
C6176 C6178 1.394 . S
C6176 H6192 0.931 . S
C6177 C6176 1.391 . S
C6177 C6181 1.376 . S
C6178 C6176 1.394 . S
C6178 C6179 1.369 . S
C6178 C6182 1.531 . S
C6179 C6178 1.369 . S
C6179 C6180 1.410 . S
C6179 C6187 1.503 . S
C6180 C6179 1.410 . S
C6180 C6181 1.392 . S
C6180 C6183 1.511 . S
C6181 C6177 1.376 . S
C6181 C6180 1.392 . S
C6181 H6193 0.929 . S
C6182 C6178 1.531 . S
C6182 H6194 0.960 . S
C6182 H6195 0.962 . S
C6182 H6196 0.960 . S
C6183 C6180 1.511 . S
C6183 H6197 0.961 . S
C6183 H6198 0.961 . S
C6183 H6199 0.961 . S
C6184 C6185 1.370 . S
C6184 C6186 1.363 . S
C6184 H6200 0.931 . S
C6185 C6184 1.370 . S
C6185 C6189 1.408 . S
C6186 C6184 1.363 . S
C6186 C6187 1.370 . S
C6186 C6190 1.524 . S
C6187 C6179 1.503 . S
C6187 C6186 1.370 . S
C6187 C6188 1.403 . S
C6188 C6187 1.403 . S
C6188 C6189 1.404 . S
C6188 C6191 1.539 . S
C6189 C6185 1.408 . S
C6189 C6188 1.404 . S
C6189 H6201 0.930 . S
C6190 C6186 1.524 . S
C6190 H6202 0.956 . S
C6190 H6203 0.961 . S
C6190 H6204 0.961 . S
C6191 C6188 1.539 . S
C6191 H6205 0.958 . S
C6191 H6206 0.961 . S
C6191 H6207 0.960 . S
H6192 C6176 0.931 . S
H6193 C6181 0.929 . S
H6194 C6182 0.960 . S
H6195 C6182 0.962 . S
H6196 C6182 0.960 . S
H6197 C6183 0.961 . S
H6198 C6183 0.961 . S
H6199 C6183 0.961 . S
H6200 C6184 0.931 . S
H6201 C6189 0.930 . S
H6202 C6190 0.956 . S
H6203 C6190 0.961 . S
H6204 C6190 0.961 . S
H6205 C6191 0.958 . S
H6206 C6191 0.961 . S
H6207 C6191 0.960 . S
C6208 C6209 1.391 . S
C6208 C6210 1.394 . S
C6208 H6224 0.931 . S
C6209 C6208 1.391 . S
C6209 C6213 1.376 . S
C6210 C6208 1.394 . S
C6210 C6211 1.369 . S
C6210 C6214 1.531 . S
C6211 C6210 1.369 . S
C6211 C6212 1.410 . S
C6211 C6219 1.503 . S
C6212 C6211 1.410 . S
C6212 C6213 1.392 . S
C6212 C6215 1.511 . S
C6213 C6209 1.376 . S
C6213 C6212 1.392 . S
C6213 H6225 0.929 . S
C6214 C6210 1.531 . S
C6214 H6226 0.960 . S
C6214 H6227 0.962 . S
C6214 H6228 0.960 . S
C6215 C6212 1.511 . S
C6215 H6229 0.961 . S
C6215 H6230 0.961 . S
C6215 H6231 0.961 . S
C6216 C6217 1.370 . S
C6216 C6218 1.363 . S
C6216 H6232 0.931 . S
C6217 C6216 1.370 . S
C6217 C6221 1.408 . S
C6218 C6216 1.363 . S
C6218 C6219 1.370 . S
C6218 C6222 1.524 . S
C6219 C6211 1.503 . S
C6219 C6218 1.370 . S
C6219 C6220 1.403 . S
C6220 C6219 1.403 . S
C6220 C6221 1.404 . S
C6220 C6223 1.539 . S
C6221 C6217 1.408 . S
C6221 C6220 1.404 . S
C6221 H6233 0.930 . S
C6222 C6218 1.524 . S
C6222 H6234 0.956 . S
C6222 H6235 0.961 . S
C6222 H6236 0.961 . S
C6223 C6220 1.539 . S
C6223 H6237 0.958 . S
C6223 H6238 0.961 . S
C6223 H6239 0.960 . S
H6224 C6208 0.931 . S
H6225 C6213 0.929 . S
H6226 C6214 0.960 . S
H6227 C6214 0.962 . S
H6228 C6214 0.960 . S
H6229 C6215 0.961 . S
H6230 C6215 0.961 . S
H6231 C6215 0.961 . S
H6232 C6216 0.931 . S
H6233 C6221 0.930 . S
H6234 C6222 0.956 . S
H6235 C6222 0.961 . S
H6236 C6222 0.961 . S
H6237 C6223 0.958 . S
H6238 C6223 0.961 . S
H6239 C6223 0.960 . S
C6240 C6241 1.391 . S
C6240 C6242 1.394 . S
C6240 H6256 0.931 . S
C6241 C6240 1.391 . S
C6241 C6245 1.376 . S
C6242 C6240 1.394 . S
C6242 C6243 1.369 . S
C6242 C6246 1.531 . S
C6243 C6242 1.369 . S
C6243 C6244 1.410 . S
C6243 C6251 1.503 . S
C6244 C6243 1.410 . S
C6244 C6245 1.392 . S
C6244 C6247 1.511 . S
C6245 C6241 1.376 . S
C6245 C6244 1.392 . S
C6245 H6257 0.929 . S
C6246 C6242 1.531 . S
C6246 H6258 0.960 . S
C6246 H6259 0.962 . S
C6246 H6260 0.960 . S
C6247 C6244 1.511 . S
C6247 H6261 0.961 . S
C6247 H6262 0.961 . S
C6247 H6263 0.961 . S
C6248 C6249 1.370 . S
C6248 C6250 1.363 . S
C6248 H6264 0.931 . S
C6249 C6248 1.370 . S
C6249 C6253 1.408 . S
C6250 C6248 1.363 . S
C6250 C6251 1.370 . S
C6250 C6254 1.524 . S
C6251 C6243 1.503 . S
C6251 C6250 1.370 . S
C6251 C6252 1.403 . S
C6252 C6251 1.403 . S
C6252 C6253 1.404 . S
C6252 C6255 1.539 . S
C6253 C6249 1.408 . S
C6253 C6252 1.404 . S
C6253 H6265 0.930 . S
C6254 C6250 1.524 . S
C6254 H6266 0.956 . S
C6254 H6267 0.961 . S
C6254 H6268 0.961 . S
C6255 C6252 1.539 . S
C6255 H6269 0.958 . S
C6255 H6270 0.961 . S
C6255 H6271 0.960 . S
H6256 C6240 0.931 . S
H6257 C6245 0.929 . S
H6258 C6246 0.960 . S
H6259 C6246 0.962 . S
H6260 C6246 0.960 . S
H6261 C6247 0.961 . S
H6262 C6247 0.961 . S
H6263 C6247 0.961 . S
H6264 C6248 0.931 . S
H6265 C6253 0.930 . S
H6266 C6254 0.956 . S
H6267 C6254 0.961 . S
H6268 C6254 0.961 . S
H6269 C6255 0.958 . S
H6270 C6255 0.961 . S
H6271 C6255 0.960 . S
C6272 C6273 1.391 . S
C6272 C6274 1.394 . S
C6272 H6288 0.931 . S
C6273 C6272 1.391 . S
C6273 C6277 1.376 . S
C6274 C6272 1.394 . S
C6274 C6275 1.369 . S
C6274 C6278 1.531 . S
C6275 C6274 1.369 . S
C6275 C6276 1.410 . S
C6275 C6283 1.503 . S
C6276 C6275 1.410 . S
C6276 C6277 1.392 . S
C6276 C6279 1.511 . S
C6277 C6273 1.376 . S
C6277 C6276 1.392 . S
C6277 H6289 0.929 . S
C6278 C6274 1.531 . S
C6278 H6290 0.960 . S
C6278 H6291 0.962 . S
C6278 H6292 0.960 . S
C6279 C6276 1.511 . S
C6279 H6293 0.961 . S
C6279 H6294 0.961 . S
C6279 H6295 0.961 . S
C6280 C6281 1.370 . S
C6280 C6282 1.363 . S
C6280 H6296 0.931 . S
C6281 C6280 1.370 . S
C6281 C6285 1.408 . S
C6282 C6280 1.363 . S
C6282 C6283 1.370 . S
C6282 C6286 1.524 . S
C6283 C6275 1.503 . S
C6283 C6282 1.370 . S
C6283 C6284 1.403 . S
C6284 C6283 1.403 . S
C6284 C6285 1.404 . S
C6284 C6287 1.539 . S
C6285 C6281 1.408 . S
C6285 C6284 1.404 . S
C6285 H6297 0.930 . S
C6286 C6282 1.524 . S
C6286 H6298 0.956 . S
C6286 H6299 0.961 . S
C6286 H6300 0.961 . S
C6287 C6284 1.539 . S
C6287 H6301 0.958 . S
C6287 H6302 0.961 . S
C6287 H6303 0.960 . S
H6288 C6272 0.931 . S
H6289 C6277 0.929 . S
H6290 C6278 0.960 . S
H6291 C6278 0.962 . S
H6292 C6278 0.960 . S
H6293 C6279 0.961 . S
H6294 C6279 0.961 . S
H6295 C6279 0.961 . S
H6296 C6280 0.931 . S
H6297 C6285 0.930 . S
H6298 C6286 0.956 . S
H6299 C6286 0.961 . S
H6300 C6286 0.961 . S
H6301 C6287 0.958 . S
H6302 C6287 0.961 . S
H6303 C6287 0.960 . S
C6304 C6305 1.391 . S
C6304 C6306 1.394 . S
C6304 H6320 0.931 . S
C6305 C6304 1.391 . S
C6305 C6309 1.376 . S
C6306 C6304 1.394 . S
C6306 C6307 1.369 . S
C6306 C6310 1.531 . S
C6307 C6306 1.369 . S
C6307 C6308 1.410 . S
C6307 C6315 1.503 . S
C6308 C6307 1.410 . S
C6308 C6309 1.392 . S
C6308 C6311 1.511 . S
C6309 C6305 1.376 . S
C6309 C6308 1.392 . S
C6309 H6321 0.929 . S
C6310 C6306 1.531 . S
C6310 H6322 0.960 . S
C6310 H6323 0.962 . S
C6310 H6324 0.960 . S
C6311 C6308 1.511 . S
C6311 H6325 0.961 . S
C6311 H6326 0.961 . S
C6311 H6327 0.961 . S
C6312 C6313 1.370 . S
C6312 C6314 1.363 . S
C6312 H6328 0.931 . S
C6313 C6312 1.370 . S
C6313 C6317 1.408 . S
C6314 C6312 1.363 . S
C6314 C6315 1.370 . S
C6314 C6318 1.524 . S
C6315 C6307 1.503 . S
C6315 C6314 1.370 . S
C6315 C6316 1.403 . S
C6316 C6315 1.403 . S
C6316 C6317 1.404 . S
C6316 C6319 1.539 . S
C6317 C6313 1.408 . S
C6317 C6316 1.404 . S
C6317 H6329 0.930 . S
C6318 C6314 1.524 . S
C6318 H6330 0.956 . S
C6318 H6331 0.961 . S
C6318 H6332 0.961 . S
C6319 C6316 1.539 . S
C6319 H6333 0.958 . S
C6319 H6334 0.961 . S
C6319 H6335 0.960 . S
H6320 C6304 0.931 . S
H6321 C6309 0.929 . S
H6322 C6310 0.960 . S
H6323 C6310 0.962 . S
H6324 C6310 0.960 . S
H6325 C6311 0.961 . S
H6326 C6311 0.961 . S
H6327 C6311 0.961 . S
H6328 C6312 0.931 . S
H6329 C6317 0.930 . S
H6330 C6318 0.956 . S
H6331 C6318 0.961 . S
H6332 C6318 0.961 . S
H6333 C6319 0.958 . S
H6334 C6319 0.961 . S
H6335 C6319 0.960 . S
C6336 C6337 1.391 . S
C6336 C6338 1.394 . S
C6336 H6352 0.931 . S
C6337 C6336 1.391 . S
C6337 C6341 1.376 . S
C6338 C6336 1.394 . S
C6338 C6339 1.369 . S
C6338 C6342 1.531 . S
C6339 C6338 1.369 . S
C6339 C6340 1.410 . S
C6339 C6347 1.503 . S
C6340 C6339 1.410 . S
C6340 C6341 1.392 . S
C6340 C6343 1.511 . S
C6341 C6337 1.376 . S
C6341 C6340 1.392 . S
C6341 H6353 0.929 . S
C6342 C6338 1.531 . S
C6342 H6354 0.960 . S
C6342 H6355 0.962 . S
C6342 H6356 0.960 . S
C6343 C6340 1.511 . S
C6343 H6357 0.961 . S
C6343 H6358 0.961 . S
C6343 H6359 0.961 . S
C6344 C6345 1.370 . S
C6344 C6346 1.363 . S
C6344 H6360 0.931 . S
C6345 C6344 1.370 . S
C6345 C6349 1.408 . S
C6346 C6344 1.363 . S
C6346 C6347 1.370 . S
C6346 C6350 1.524 . S
C6347 C6339 1.503 . S
C6347 C6346 1.370 . S
C6347 C6348 1.403 . S
C6348 C6347 1.403 . S
C6348 C6349 1.404 . S
C6348 C6351 1.539 . S
C6349 C6345 1.408 . S
C6349 C6348 1.404 . S
C6349 H6361 0.930 . S
C6350 C6346 1.524 . S
C6350 H6362 0.956 . S
C6350 H6363 0.961 . S
C6350 H6364 0.961 . S
C6351 C6348 1.539 . S
C6351 H6365 0.958 . S
C6351 H6366 0.961 . S
C6351 H6367 0.960 . S
H6352 C6336 0.931 . S
H6353 C6341 0.929 . S
H6354 C6342 0.960 . S
H6355 C6342 0.962 . S
H6356 C6342 0.960 . S
H6357 C6343 0.961 . S
H6358 C6343 0.961 . S
H6359 C6343 0.961 . S
H6360 C6344 0.931 . S
H6361 C6349 0.930 . S
H6362 C6350 0.956 . S
H6363 C6350 0.961 . S
H6364 C6350 0.961 . S
H6365 C6351 0.958 . S
H6366 C6351 0.961 . S
H6367 C6351 0.960 . S
C6368 C6369 1.391 . S
C6368 C6370 1.394 . S
C6368 H6384 0.931 . S
C6369 C6368 1.391 . S
C6369 C6373 1.376 . S
C6370 C6368 1.394 . S
C6370 C6371 1.369 . S
C6370 C6374 1.531 . S
C6371 C6370 1.369 . S
C6371 C6372 1.410 . S
C6371 C6379 1.503 . S
C6372 C6371 1.410 . S
C6372 C6373 1.392 . S
C6372 C6375 1.511 . S
C6373 C6369 1.376 . S
C6373 C6372 1.392 . S
C6373 H6385 0.929 . S
C6374 C6370 1.531 . S
C6374 H6386 0.960 . S
C6374 H6387 0.962 . S
C6374 H6388 0.960 . S
C6375 C6372 1.511 . S
C6375 H6389 0.961 . S
C6375 H6390 0.961 . S
C6375 H6391 0.961 . S
C6376 C6377 1.370 . S
C6376 C6378 1.363 . S
C6376 H6392 0.931 . S
C6377 C6376 1.370 . S
C6377 C6381 1.408 . S
C6378 C6376 1.363 . S
C6378 C6379 1.370 . S
C6378 C6382 1.524 . S
C6379 C6371 1.503 . S
C6379 C6378 1.370 . S
C6379 C6380 1.403 . S
C6380 C6379 1.403 . S
C6380 C6381 1.404 . S
C6380 C6383 1.539 . S
C6381 C6377 1.408 . S
C6381 C6380 1.404 . S
C6381 H6393 0.930 . S
C6382 C6378 1.524 . S
C6382 H6394 0.956 . S
C6382 H6395 0.961 . S
C6382 H6396 0.961 . S
C6383 C6380 1.539 . S
C6383 H6397 0.958 . S
C6383 H6398 0.961 . S
C6383 H6399 0.960 . S
H6384 C6368 0.931 . S
H6385 C6373 0.929 . S
H6386 C6374 0.960 . S
H6387 C6374 0.962 . S
H6388 C6374 0.960 . S
H6389 C6375 0.961 . S
H6390 C6375 0.961 . S
H6391 C6375 0.961 . S
H6392 C6376 0.931 . S
H6393 C6381 0.930 . S
H6394 C6382 0.956 . S
H6395 C6382 0.961 . S
H6396 C6382 0.961 . S
H6397 C6383 0.958 . S
H6398 C6383 0.961 . S
H6399 C6383 0.960 . S
C6400 C6401 1.391 . S
C6400 C6402 1.394 . S
C6400 H6416 0.931 . S
C6401 C6400 1.391 . S
C6401 C6405 1.376 . S
C6402 C6400 1.394 . S
C6402 C6403 1.369 . S
C6402 C6406 1.531 . S
C6403 C6402 1.369 . S
C6403 C6404 1.410 . S
C6403 C6411 1.503 . S
C6404 C6403 1.410 . S
C6404 C6405 1.392 . S
C6404 C6407 1.511 . S
C6405 C6401 1.376 . S
C6405 C6404 1.392 . S
C6405 H6417 0.929 . S
C6406 C6402 1.531 . S
C6406 H6418 0.960 . S
C6406 H6419 0.962 . S
C6406 H6420 0.960 . S
C6407 C6404 1.511 . S
C6407 H6421 0.961 . S
C6407 H6422 0.961 . S
C6407 H6423 0.961 . S
C6408 C6409 1.370 . S
C6408 C6410 1.363 . S
C6408 H6424 0.931 . S
C6409 C6408 1.370 . S
C6409 C6413 1.408 . S
C6410 C6408 1.363 . S
C6410 C6411 1.370 . S
C6410 C6414 1.524 . S
C6411 C6403 1.503 . S
C6411 C6410 1.370 . S
C6411 C6412 1.403 . S
C6412 C6411 1.403 . S
C6412 C6413 1.404 . S
C6412 C6415 1.539 . S
C6413 C6409 1.408 . S
C6413 C6412 1.404 . S
C6413 H6425 0.930 . S
C6414 C6410 1.524 . S
C6414 H6426 0.956 . S
C6414 H6427 0.961 . S
C6414 H6428 0.961 . S
C6415 C6412 1.539 . S
C6415 H6429 0.958 . S
C6415 H6430 0.961 . S
C6415 H6431 0.960 . S
H6416 C6400 0.931 . S
H6417 C6405 0.929 . S
H6418 C6406 0.960 . S
H6419 C6406 0.962 . S
H6420 C6406 0.960 . S
H6421 C6407 0.961 . S
H6422 C6407 0.961 . S
H6423 C6407 0.961 . S
H6424 C6408 0.931 . S
H6425 C6413 0.930 . S
H6426 C6414 0.956 . S
H6427 C6414 0.961 . S
H6428 C6414 0.961 . S
H6429 C6415 0.958 . S
H6430 C6415 0.961 . S
H6431 C6415 0.960 . S
C6432 C6433 1.391 . S
C6432 C6434 1.394 . S
C6432 H6448 0.931 . S
C6433 C6432 1.391 . S
C6433 C6437 1.376 . S
C6434 C6432 1.394 . S
C6434 C6435 1.369 . S
C6434 C6438 1.531 . S
C6435 C6434 1.369 . S
C6435 C6436 1.410 . S
C6435 C6443 1.503 . S
C6436 C6435 1.410 . S
C6436 C6437 1.392 . S
C6436 C6439 1.511 . S
C6437 C6433 1.376 . S
C6437 C6436 1.392 . S
C6437 H6449 0.929 . S
C6438 C6434 1.531 . S
C6438 H6450 0.960 . S
C6438 H6451 0.962 . S
C6438 H6452 0.960 . S
C6439 C6436 1.511 . S
C6439 H6453 0.961 . S
C6439 H6454 0.961 . S
C6439 H6455 0.961 . S
C6440 C6441 1.370 . S
C6440 C6442 1.363 . S
C6440 H6456 0.931 . S
C6441 C6440 1.370 . S
C6441 C6445 1.408 . S
C6442 C6440 1.363 . S
C6442 C6443 1.370 . S
C6442 C6446 1.524 . S
C6443 C6435 1.503 . S
C6443 C6442 1.370 . S
C6443 C6444 1.403 . S
C6444 C6443 1.403 . S
C6444 C6445 1.404 . S
C6444 C6447 1.539 . S
C6445 C6441 1.408 . S
C6445 C6444 1.404 . S
C6445 H6457 0.930 . S
C6446 C6442 1.524 . S
C6446 H6458 0.956 . S
C6446 H6459 0.961 . S
C6446 H6460 0.961 . S
C6447 C6444 1.539 . S
C6447 H6461 0.958 . S
C6447 H6462 0.961 . S
C6447 H6463 0.960 . S
H6448 C6432 0.931 . S
H6449 C6437 0.929 . S
H6450 C6438 0.960 . S
H6451 C6438 0.962 . S
H6452 C6438 0.960 . S
H6453 C6439 0.961 . S
H6454 C6439 0.961 . S
H6455 C6439 0.961 . S
H6456 C6440 0.931 . S
H6457 C6445 0.930 . S
H6458 C6446 0.956 . S
H6459 C6446 0.961 . S
H6460 C6446 0.961 . S
H6461 C6447 0.958 . S
H6462 C6447 0.961 . S
H6463 C6447 0.960 . S
C6464 C6465 1.391 . S
C6464 C6466 1.394 . S
C6464 H6480 0.931 . S
C6465 C6464 1.391 . S
C6465 C6469 1.376 . S
C6466 C6464 1.394 . S
C6466 C6467 1.369 . S
C6466 C6470 1.531 . S
C6467 C6466 1.369 . S
C6467 C6468 1.410 . S
C6467 C6475 1.503 . S
C6468 C6467 1.410 . S
C6468 C6469 1.392 . S
C6468 C6471 1.511 . S
C6469 C6465 1.376 . S
C6469 C6468 1.392 . S
C6469 H6481 0.929 . S
C6470 C6466 1.531 . S
C6470 H6482 0.960 . S
C6470 H6483 0.962 . S
C6470 H6484 0.960 . S
C6471 C6468 1.511 . S
C6471 H6485 0.961 . S
C6471 H6486 0.961 . S
C6471 H6487 0.961 . S
C6472 C6473 1.370 . S
C6472 C6474 1.363 . S
C6472 H6488 0.931 . S
C6473 C6472 1.370 . S
C6473 C6477 1.408 . S
C6474 C6472 1.363 . S
C6474 C6475 1.370 . S
C6474 C6478 1.524 . S
C6475 C6467 1.503 . S
C6475 C6474 1.370 . S
C6475 C6476 1.403 . S
C6476 C6475 1.403 . S
C6476 C6477 1.404 . S
C6476 C6479 1.539 . S
C6477 C6473 1.408 . S
C6477 C6476 1.404 . S
C6477 H6489 0.930 . S
C6478 C6474 1.524 . S
C6478 H6490 0.956 . S
C6478 H6491 0.961 . S
C6478 H6492 0.961 . S
C6479 C6476 1.539 . S
C6479 H6493 0.958 . S
C6479 H6494 0.961 . S
C6479 H6495 0.960 . S
H6480 C6464 0.931 . S
H6481 C6469 0.929 . S
H6482 C6470 0.960 . S
H6483 C6470 0.962 . S
H6484 C6470 0.960 . S
H6485 C6471 0.961 . S
H6486 C6471 0.961 . S
H6487 C6471 0.961 . S
H6488 C6472 0.931 . S
H6489 C6477 0.930 . S
H6490 C6478 0.956 . S
H6491 C6478 0.961 . S
H6492 C6478 0.961 . S
H6493 C6479 0.958 . S
H6494 C6479 0.961 . S
H6495 C6479 0.960 . S
C6496 C6497 1.391 . S
C6496 C6498 1.394 . S
C6496 H6512 0.931 . S
C6497 C6496 1.391 . S
C6497 C6501 1.376 . S
C6498 C6496 1.394 . S
C6498 C6499 1.369 . S
C6498 C6502 1.531 . S
C6499 C6498 1.369 . S
C6499 C6500 1.410 . S
C6499 C6507 1.503 . S
C6500 C6499 1.410 . S
C6500 C6501 1.392 . S
C6500 C6503 1.511 . S
C6501 C6497 1.376 . S
C6501 C6500 1.392 . S
C6501 H6513 0.929 . S
C6502 C6498 1.531 . S
C6502 H6514 0.960 . S
C6502 H6515 0.962 . S
C6502 H6516 0.960 . S
C6503 C6500 1.511 . S
C6503 H6517 0.961 . S
C6503 H6518 0.961 . S
C6503 H6519 0.961 . S
C6504 C6505 1.370 . S
C6504 C6506 1.363 . S
C6504 H6520 0.931 . S
C6505 C6504 1.370 . S
C6505 C6509 1.408 . S
C6506 C6504 1.363 . S
C6506 C6507 1.370 . S
C6506 C6510 1.524 . S
C6507 C6499 1.503 . S
C6507 C6506 1.370 . S
C6507 C6508 1.403 . S
C6508 C6507 1.403 . S
C6508 C6509 1.404 . S
C6508 C6511 1.539 . S
C6509 C6505 1.408 . S
C6509 C6508 1.404 . S
C6509 H6521 0.930 . S
C6510 C6506 1.524 . S
C6510 H6522 0.956 . S
C6510 H6523 0.961 . S
C6510 H6524 0.961 . S
C6511 C6508 1.539 . S
C6511 H6525 0.958 . S
C6511 H6526 0.961 . S
C6511 H6527 0.960 . S
H6512 C6496 0.931 . S
H6513 C6501 0.929 . S
H6514 C6502 0.960 . S
H6515 C6502 0.962 . S
H6516 C6502 0.960 . S
H6517 C6503 0.961 . S
H6518 C6503 0.961 . S
H6519 C6503 0.961 . S
H6520 C6504 0.931 . S
H6521 C6509 0.930 . S
H6522 C6510 0.956 . S
H6523 C6510 0.961 . S
H6524 C6510 0.961 . S
H6525 C6511 0.958 . S
H6526 C6511 0.961 . S
H6527 C6511 0.960 . S
C6528 C6529 1.391 . S
C6528 C6530 1.394 . S
C6528 H6544 0.931 . S
C6529 C6528 1.391 . S
C6529 C6533 1.376 . S
C6530 C6528 1.394 . S
C6530 C6531 1.369 . S
C6530 C6534 1.531 . S
C6531 C6530 1.369 . S
C6531 C6532 1.410 . S
C6531 C6539 1.503 . S
C6532 C6531 1.410 . S
C6532 C6533 1.392 . S
C6532 C6535 1.511 . S
C6533 C6529 1.376 . S
C6533 C6532 1.392 . S
C6533 H6545 0.929 . S
C6534 C6530 1.531 . S
C6534 H6546 0.960 . S
C6534 H6547 0.962 . S
C6534 H6548 0.960 . S
C6535 C6532 1.511 . S
C6535 H6549 0.961 . S
C6535 H6550 0.961 . S
C6535 H6551 0.961 . S
C6536 C6537 1.370 . S
C6536 C6538 1.363 . S
C6536 H6552 0.931 . S
C6537 C6536 1.370 . S
C6537 C6541 1.408 . S
C6538 C6536 1.363 . S
C6538 C6539 1.370 . S
C6538 C6542 1.524 . S
C6539 C6531 1.503 . S
C6539 C6538 1.370 . S
C6539 C6540 1.403 . S
C6540 C6539 1.403 . S
C6540 C6541 1.404 . S
C6540 C6543 1.539 . S
C6541 C6537 1.408 . S
C6541 C6540 1.404 . S
C6541 H6553 0.930 . S
C6542 C6538 1.524 . S
C6542 H6554 0.956 . S
C6542 H6555 0.961 . S
C6542 H6556 0.961 . S
C6543 C6540 1.539 . S
C6543 H6557 0.958 . S
C6543 H6558 0.961 . S
C6543 H6559 0.960 . S
H6544 C6528 0.931 . S
H6545 C6533 0.929 . S
H6546 C6534 0.960 . S
H6547 C6534 0.962 . S
H6548 C6534 0.960 . S
H6549 C6535 0.961 . S
H6550 C6535 0.961 . S
H6551 C6535 0.961 . S
H6552 C6536 0.931 . S
H6553 C6541 0.930 . S
H6554 C6542 0.956 . S
H6555 C6542 0.961 . S
H6556 C6542 0.961 . S
H6557 C6543 0.958 . S
H6558 C6543 0.961 . S
H6559 C6543 0.960 . S
C6560 C6561 1.391 . S
C6560 C6562 1.394 . S
C6560 H6576 0.931 . S
C6561 C6560 1.391 . S
C6561 C6565 1.376 . S
C6562 C6560 1.394 . S
C6562 C6563 1.369 . S
C6562 C6566 1.531 . S
C6563 C6562 1.369 . S
C6563 C6564 1.410 . S
C6563 C6571 1.503 . S
C6564 C6563 1.410 . S
C6564 C6565 1.392 . S
C6564 C6567 1.511 . S
C6565 C6561 1.376 . S
C6565 C6564 1.392 . S
C6565 H6577 0.929 . S
C6566 C6562 1.531 . S
C6566 H6578 0.960 . S
C6566 H6579 0.962 . S
C6566 H6580 0.960 . S
C6567 C6564 1.511 . S
C6567 H6581 0.961 . S
C6567 H6582 0.961 . S
C6567 H6583 0.961 . S
C6568 C6569 1.370 . S
C6568 C6570 1.363 . S
C6568 H6584 0.931 . S
C6569 C6568 1.370 . S
C6569 C6573 1.408 . S
C6570 C6568 1.363 . S
C6570 C6571 1.370 . S
C6570 C6574 1.524 . S
C6571 C6563 1.503 . S
C6571 C6570 1.370 . S
C6571 C6572 1.403 . S
C6572 C6571 1.403 . S
C6572 C6573 1.404 . S
C6572 C6575 1.539 . S
C6573 C6569 1.408 . S
C6573 C6572 1.404 . S
C6573 H6585 0.930 . S
C6574 C6570 1.524 . S
C6574 H6586 0.956 . S
C6574 H6587 0.961 . S
C6574 H6588 0.961 . S
C6575 C6572 1.539 . S
C6575 H6589 0.958 . S
C6575 H6590 0.961 . S
C6575 H6591 0.960 . S
H6576 C6560 0.931 . S
H6577 C6565 0.929 . S
H6578 C6566 0.960 . S
H6579 C6566 0.962 . S
H6580 C6566 0.960 . S
H6581 C6567 0.961 . S
H6582 C6567 0.961 . S
H6583 C6567 0.961 . S
H6584 C6568 0.931 . S
H6585 C6573 0.930 . S
H6586 C6574 0.956 . S
H6587 C6574 0.961 . S
H6588 C6574 0.961 . S
H6589 C6575 0.958 . S
H6590 C6575 0.961 . S
H6591 C6575 0.960 . S
C6592 C6593 1.391 . S
C6592 C6594 1.394 . S
C6592 H6608 0.931 . S
C6593 C6592 1.391 . S
C6593 C6597 1.376 . S
C6594 C6592 1.394 . S
C6594 C6595 1.369 . S
C6594 C6598 1.531 . S
C6595 C6594 1.369 . S
C6595 C6596 1.410 . S
C6595 C6603 1.503 . S
C6596 C6595 1.410 . S
C6596 C6597 1.392 . S
C6596 C6599 1.511 . S
C6597 C6593 1.376 . S
C6597 C6596 1.392 . S
C6597 H6609 0.929 . S
C6598 C6594 1.531 . S
C6598 H6610 0.960 . S
C6598 H6611 0.962 . S
C6598 H6612 0.960 . S
C6599 C6596 1.511 . S
C6599 H6613 0.961 . S
C6599 H6614 0.961 . S
C6599 H6615 0.961 . S
C6600 C6601 1.370 . S
C6600 C6602 1.363 . S
C6600 H6616 0.931 . S
C6601 C6600 1.370 . S
C6601 C6605 1.408 . S
C6602 C6600 1.363 . S
C6602 C6603 1.370 . S
C6602 C6606 1.524 . S
C6603 C6595 1.503 . S
C6603 C6602 1.370 . S
C6603 C6604 1.403 . S
C6604 C6603 1.403 . S
C6604 C6605 1.404 . S
C6604 C6607 1.539 . S
C6605 C6601 1.408 . S
C6605 C6604 1.404 . S
C6605 H6617 0.930 . S
C6606 C6602 1.524 . S
C6606 H6618 0.956 . S
C6606 H6619 0.961 . S
C6606 H6620 0.961 . S
C6607 C6604 1.539 . S
C6607 H6621 0.958 . S
C6607 H6622 0.961 . S
C6607 H6623 0.960 . S
H6608 C6592 0.931 . S
H6609 C6597 0.929 . S
H6610 C6598 0.960 . S
H6611 C6598 0.962 . S
H6612 C6598 0.960 . S
H6613 C6599 0.961 . S
H6614 C6599 0.961 . S
H6615 C6599 0.961 . S
H6616 C6600 0.931 . S
H6617 C6605 0.930 . S
H6618 C6606 0.956 . S
H6619 C6606 0.961 . S
H6620 C6606 0.961 . S
H6621 C6607 0.958 . S
H6622 C6607 0.961 . S
H6623 C6607 0.960 . S
C6624 C6625 1.391 . S
C6624 C6626 1.394 . S
C6624 H6640 0.931 . S
C6625 C6624 1.391 . S
C6625 C6629 1.376 . S
C6626 C6624 1.394 . S
C6626 C6627 1.369 . S
C6626 C6630 1.531 . S
C6627 C6626 1.369 . S
C6627 C6628 1.410 . S
C6627 C6635 1.503 . S
C6628 C6627 1.410 . S
C6628 C6629 1.392 . S
C6628 C6631 1.511 . S
C6629 C6625 1.376 . S
C6629 C6628 1.392 . S
C6629 H6641 0.929 . S
C6630 C6626 1.531 . S
C6630 H6642 0.960 . S
C6630 H6643 0.962 . S
C6630 H6644 0.960 . S
C6631 C6628 1.511 . S
C6631 H6645 0.961 . S
C6631 H6646 0.961 . S
C6631 H6647 0.961 . S
C6632 C6633 1.370 . S
C6632 C6634 1.363 . S
C6632 H6648 0.931 . S
C6633 C6632 1.370 . S
C6633 C6637 1.408 . S
C6634 C6632 1.363 . S
C6634 C6635 1.370 . S
C6634 C6638 1.524 . S
C6635 C6627 1.503 . S
C6635 C6634 1.370 . S
C6635 C6636 1.403 . S
C6636 C6635 1.403 . S
C6636 C6637 1.404 . S
C6636 C6639 1.539 . S
C6637 C6633 1.408 . S
C6637 C6636 1.404 . S
C6637 H6649 0.930 . S
C6638 C6634 1.524 . S
C6638 H6650 0.956 . S
C6638 H6651 0.961 . S
C6638 H6652 0.961 . S
C6639 C6636 1.539 . S
C6639 H6653 0.958 . S
C6639 H6654 0.961 . S
C6639 H6655 0.960 . S
H6640 C6624 0.931 . S
H6641 C6629 0.929 . S
H6642 C6630 0.960 . S
H6643 C6630 0.962 . S
H6644 C6630 0.960 . S
H6645 C6631 0.961 . S
H6646 C6631 0.961 . S
H6647 C6631 0.961 . S
H6648 C6632 0.931 . S
H6649 C6637 0.930 . S
H6650 C6638 0.956 . S
H6651 C6638 0.961 . S
H6652 C6638 0.961 . S
H6653 C6639 0.958 . S
H6654 C6639 0.961 . S
H6655 C6639 0.960 . S
C6656 C6657 1.391 . S
C6656 C6658 1.394 . S
C6656 H6672 0.931 . S
C6657 C6656 1.391 . S
C6657 C6661 1.376 . S
C6658 C6656 1.394 . S
C6658 C6659 1.369 . S
C6658 C6662 1.531 . S
C6659 C6658 1.369 . S
C6659 C6660 1.410 . S
C6659 C6667 1.503 . S
C6660 C6659 1.410 . S
C6660 C6661 1.392 . S
C6660 C6663 1.511 . S
C6661 C6657 1.376 . S
C6661 C6660 1.392 . S
C6661 H6673 0.929 . S
C6662 C6658 1.531 . S
C6662 H6674 0.960 . S
C6662 H6675 0.962 . S
C6662 H6676 0.960 . S
C6663 C6660 1.511 . S
C6663 H6677 0.961 . S
C6663 H6678 0.961 . S
C6663 H6679 0.961 . S
C6664 C6665 1.370 . S
C6664 C6666 1.363 . S
C6664 H6680 0.931 . S
C6665 C6664 1.370 . S
C6665 C6669 1.408 . S
C6666 C6664 1.363 . S
C6666 C6667 1.370 . S
C6666 C6670 1.524 . S
C6667 C6659 1.503 . S
C6667 C6666 1.370 . S
C6667 C6668 1.403 . S
C6668 C6667 1.403 . S
C6668 C6669 1.404 . S
C6668 C6671 1.539 . S
C6669 C6665 1.408 . S
C6669 C6668 1.404 . S
C6669 H6681 0.930 . S
C6670 C6666 1.524 . S
C6670 H6682 0.956 . S
C6670 H6683 0.961 . S
C6670 H6684 0.961 . S
C6671 C6668 1.539 . S
C6671 H6685 0.958 . S
C6671 H6686 0.961 . S
C6671 H6687 0.960 . S
H6672 C6656 0.931 . S
H6673 C6661 0.929 . S
H6674 C6662 0.960 . S
H6675 C6662 0.962 . S
H6676 C6662 0.960 . S
H6677 C6663 0.961 . S
H6678 C6663 0.961 . S
H6679 C6663 0.961 . S
H6680 C6664 0.931 . S
H6681 C6669 0.930 . S
H6682 C6670 0.956 . S
H6683 C6670 0.961 . S
H6684 C6670 0.961 . S
H6685 C6671 0.958 . S
H6686 C6671 0.961 . S
H6687 C6671 0.960 . S
C6688 C6689 1.391 . S
C6688 C6690 1.394 . S
C6688 H6704 0.931 . S
C6689 C6688 1.391 . S
C6689 C6693 1.376 . S
C6690 C6688 1.394 . S
C6690 C6691 1.369 . S
C6690 C6694 1.531 . S
C6691 C6690 1.369 . S
C6691 C6692 1.410 . S
C6691 C6699 1.503 . S
C6692 C6691 1.410 . S
C6692 C6693 1.392 . S
C6692 C6695 1.511 . S
C6693 C6689 1.376 . S
C6693 C6692 1.392 . S
C6693 H6705 0.929 . S
C6694 C6690 1.531 . S
C6694 H6706 0.960 . S
C6694 H6707 0.962 . S
C6694 H6708 0.960 . S
C6695 C6692 1.511 . S
C6695 H6709 0.961 . S
C6695 H6710 0.961 . S
C6695 H6711 0.961 . S
C6696 C6697 1.370 . S
C6696 C6698 1.363 . S
C6696 H6712 0.931 . S
C6697 C6696 1.370 . S
C6697 C6701 1.408 . S
C6698 C6696 1.363 . S
C6698 C6699 1.370 . S
C6698 C6702 1.524 . S
C6699 C6691 1.503 . S
C6699 C6698 1.370 . S
C6699 C6700 1.403 . S
C6700 C6699 1.403 . S
C6700 C6701 1.404 . S
C6700 C6703 1.539 . S
C6701 C6697 1.408 . S
C6701 C6700 1.404 . S
C6701 H6713 0.930 . S
C6702 C6698 1.524 . S
C6702 H6714 0.956 . S
C6702 H6715 0.961 . S
C6702 H6716 0.961 . S
C6703 C6700 1.539 . S
C6703 H6717 0.958 . S
C6703 H6718 0.961 . S
C6703 H6719 0.960 . S
H6704 C6688 0.931 . S
H6705 C6693 0.929 . S
H6706 C6694 0.960 . S
H6707 C6694 0.962 . S
H6708 C6694 0.960 . S
H6709 C6695 0.961 . S
H6710 C6695 0.961 . S
H6711 C6695 0.961 . S
H6712 C6696 0.931 . S
H6713 C6701 0.930 . S
H6714 C6702 0.956 . S
H6715 C6702 0.961 . S
H6716 C6702 0.961 . S
H6717 C6703 0.958 . S
H6718 C6703 0.961 . S
H6719 C6703 0.960 . S
C6720 C6721 1.391 . S
C6720 C6722 1.394 . S
C6720 H6736 0.931 . S
C6721 C6720 1.391 . S
C6721 C6725 1.376 . S
C6722 C6720 1.394 . S
C6722 C6723 1.369 . S
C6722 C6726 1.531 . S
C6723 C6722 1.369 . S
C6723 C6724 1.410 . S
C6723 C6731 1.503 . S
C6724 C6723 1.410 . S
C6724 C6725 1.392 . S
C6724 C6727 1.511 . S
C6725 C6721 1.376 . S
C6725 C6724 1.392 . S
C6725 H6737 0.929 . S
C6726 C6722 1.531 . S
C6726 H6738 0.960 . S
C6726 H6739 0.962 . S
C6726 H6740 0.960 . S
C6727 C6724 1.511 . S
C6727 H6741 0.961 . S
C6727 H6742 0.961 . S
C6727 H6743 0.961 . S
C6728 C6729 1.370 . S
C6728 C6730 1.363 . S
C6728 H6744 0.931 . S
C6729 C6728 1.370 . S
C6729 C6733 1.408 . S
C6730 C6728 1.363 . S
C6730 C6731 1.370 . S
C6730 C6734 1.524 . S
C6731 C6723 1.503 . S
C6731 C6730 1.370 . S
C6731 C6732 1.403 . S
C6732 C6731 1.403 . S
C6732 C6733 1.404 . S
C6732 C6735 1.539 . S
C6733 C6729 1.408 . S
C6733 C6732 1.404 . S
C6733 H6745 0.930 . S
C6734 C6730 1.524 . S
C6734 H6746 0.956 . S
C6734 H6747 0.961 . S
C6734 H6748 0.961 . S
C6735 C6732 1.539 . S
C6735 H6749 0.958 . S
C6735 H6750 0.961 . S
C6735 H6751 0.960 . S
H6736 C6720 0.931 . S
H6737 C6725 0.929 . S
H6738 C6726 0.960 . S
H6739 C6726 0.962 . S
H6740 C6726 0.960 . S
H6741 C6727 0.961 . S
H6742 C6727 0.961 . S
H6743 C6727 0.961 . S
H6744 C6728 0.931 . S
H6745 C6733 0.930 . S
H6746 C6734 0.956 . S
H6747 C6734 0.961 . S
H6748 C6734 0.961 . S
H6749 C6735 0.958 . S
H6750 C6735 0.961 . S
H6751 C6735 0.960 . S
C6752 C6753 1.391 . S
C6752 C6754 1.394 . S
C6752 H6768 0.931 . S
C6753 C6752 1.391 . S
C6753 C6757 1.376 . S
C6754 C6752 1.394 . S
C6754 C6755 1.369 . S
C6754 C6758 1.531 . S
C6755 C6754 1.369 . S
C6755 C6756 1.410 . S
C6755 C6763 1.503 . S
C6756 C6755 1.410 . S
C6756 C6757 1.392 . S
C6756 C6759 1.511 . S
C6757 C6753 1.376 . S
C6757 C6756 1.392 . S
C6757 H6769 0.929 . S
C6758 C6754 1.531 . S
C6758 H6770 0.960 . S
C6758 H6771 0.962 . S
C6758 H6772 0.960 . S
C6759 C6756 1.511 . S
C6759 H6773 0.961 . S
C6759 H6774 0.961 . S
C6759 H6775 0.961 . S
C6760 C6761 1.370 . S
C6760 C6762 1.363 . S
C6760 H6776 0.931 . S
C6761 C6760 1.370 . S
C6761 C6765 1.408 . S
C6762 C6760 1.363 . S
C6762 C6763 1.370 . S
C6762 C6766 1.524 . S
C6763 C6755 1.503 . S
C6763 C6762 1.370 . S
C6763 C6764 1.403 . S
C6764 C6763 1.403 . S
C6764 C6765 1.404 . S
C6764 C6767 1.539 . S
C6765 C6761 1.408 . S
C6765 C6764 1.404 . S
C6765 H6777 0.930 . S
C6766 C6762 1.524 . S
C6766 H6778 0.956 . S
C6766 H6779 0.961 . S
C6766 H6780 0.961 . S
C6767 C6764 1.539 . S
C6767 H6781 0.958 . S
C6767 H6782 0.961 . S
C6767 H6783 0.960 . S
H6768 C6752 0.931 . S
H6769 C6757 0.929 . S
H6770 C6758 0.960 . S
H6771 C6758 0.962 . S
H6772 C6758 0.960 . S
H6773 C6759 0.961 . S
H6774 C6759 0.961 . S
H6775 C6759 0.961 . S
H6776 C6760 0.931 . S
H6777 C6765 0.930 . S
H6778 C6766 0.956 . S
H6779 C6766 0.961 . S
H6780 C6766 0.961 . S
H6781 C6767 0.958 . S
H6782 C6767 0.961 . S
H6783 C6767 0.960 . S
C6784 C6785 1.391 . S
C6784 C6786 1.394 . S
C6784 H6800 0.931 . S
C6785 C6784 1.391 . S
C6785 C6789 1.376 . S
C6786 C6784 1.394 . S
C6786 C6787 1.369 . S
C6786 C6790 1.531 . S
C6787 C6786 1.369 . S
C6787 C6788 1.410 . S
C6787 C6795 1.503 . S
C6788 C6787 1.410 . S
C6788 C6789 1.392 . S
C6788 C6791 1.511 . S
C6789 C6785 1.376 . S
C6789 C6788 1.392 . S
C6789 H6801 0.929 . S
C6790 C6786 1.531 . S
C6790 H6802 0.960 . S
C6790 H6803 0.962 . S
C6790 H6804 0.960 . S
C6791 C6788 1.511 . S
C6791 H6805 0.961 . S
C6791 H6806 0.961 . S
C6791 H6807 0.961 . S
C6792 C6793 1.370 . S
C6792 C6794 1.363 . S
C6792 H6808 0.931 . S
C6793 C6792 1.370 . S
C6793 C6797 1.408 . S
C6794 C6792 1.363 . S
C6794 C6795 1.370 . S
C6794 C6798 1.524 . S
C6795 C6787 1.503 . S
C6795 C6794 1.370 . S
C6795 C6796 1.403 . S
C6796 C6795 1.403 . S
C6796 C6797 1.404 . S
C6796 C6799 1.539 . S
C6797 C6793 1.408 . S
C6797 C6796 1.404 . S
C6797 H6809 0.930 . S
C6798 C6794 1.524 . S
C6798 H6810 0.956 . S
C6798 H6811 0.961 . S
C6798 H6812 0.961 . S
C6799 C6796 1.539 . S
C6799 H6813 0.958 . S
C6799 H6814 0.961 . S
C6799 H6815 0.960 . S
H6800 C6784 0.931 . S
H6801 C6789 0.929 . S
H6802 C6790 0.960 . S
H6803 C6790 0.962 . S
H6804 C6790 0.960 . S
H6805 C6791 0.961 . S
H6806 C6791 0.961 . S
H6807 C6791 0.961 . S
H6808 C6792 0.931 . S
H6809 C6797 0.930 . S
H6810 C6798 0.956 . S
H6811 C6798 0.961 . S
H6812 C6798 0.961 . S
H6813 C6799 0.958 . S
H6814 C6799 0.961 . S
H6815 C6799 0.960 . S
C6816 C6817 1.391 . S
C6816 C6818 1.394 . S
C6816 H6832 0.931 . S
C6817 C6816 1.391 . S
C6817 C6821 1.376 . S
C6818 C6816 1.394 . S
C6818 C6819 1.369 . S
C6818 C6822 1.531 . S
C6819 C6818 1.369 . S
C6819 C6820 1.410 . S
C6819 C6827 1.503 . S
C6820 C6819 1.410 . S
C6820 C6821 1.392 . S
C6820 C6823 1.511 . S
C6821 C6817 1.376 . S
C6821 C6820 1.392 . S
C6821 H6833 0.929 . S
C6822 C6818 1.531 . S
C6822 H6834 0.960 . S
C6822 H6835 0.962 . S
C6822 H6836 0.960 . S
C6823 C6820 1.511 . S
C6823 H6837 0.961 . S
C6823 H6838 0.961 . S
C6823 H6839 0.961 . S
C6824 C6825 1.370 . S
C6824 C6826 1.363 . S
C6824 H6840 0.931 . S
C6825 C6824 1.370 . S
C6825 C6829 1.408 . S
C6826 C6824 1.363 . S
C6826 C6827 1.370 . S
C6826 C6830 1.524 . S
C6827 C6819 1.503 . S
C6827 C6826 1.370 . S
C6827 C6828 1.403 . S
C6828 C6827 1.403 . S
C6828 C6829 1.404 . S
C6828 C6831 1.539 . S
C6829 C6825 1.408 . S
C6829 C6828 1.404 . S
C6829 H6841 0.930 . S
C6830 C6826 1.524 . S
C6830 H6842 0.956 . S
C6830 H6843 0.961 . S
C6830 H6844 0.961 . S
C6831 C6828 1.539 . S
C6831 H6845 0.958 . S
C6831 H6846 0.961 . S
C6831 H6847 0.960 . S
H6832 C6816 0.931 . S
H6833 C6821 0.929 . S
H6834 C6822 0.960 . S
H6835 C6822 0.962 . S
H6836 C6822 0.960 . S
H6837 C6823 0.961 . S
H6838 C6823 0.961 . S
H6839 C6823 0.961 . S
H6840 C6824 0.931 . S
H6841 C6829 0.930 . S
H6842 C6830 0.956 . S
H6843 C6830 0.961 . S
H6844 C6830 0.961 . S
H6845 C6831 0.958 . S
H6846 C6831 0.961 . S
H6847 C6831 0.960 . S
C6848 C6849 1.391 . S
C6848 C6850 1.394 . S
C6848 H6864 0.931 . S
C6849 C6848 1.391 . S
C6849 C6853 1.376 . S
C6850 C6848 1.394 . S
C6850 C6851 1.369 . S
C6850 C6854 1.531 . S
C6851 C6850 1.369 . S
C6851 C6852 1.410 . S
C6851 C6859 1.503 . S
C6852 C6851 1.410 . S
C6852 C6853 1.392 . S
C6852 C6855 1.511 . S
C6853 C6849 1.376 . S
C6853 C6852 1.392 . S
C6853 H6865 0.929 . S
C6854 C6850 1.531 . S
C6854 H6866 0.960 . S
C6854 H6867 0.962 . S
C6854 H6868 0.960 . S
C6855 C6852 1.511 . S
C6855 H6869 0.961 . S
C6855 H6870 0.961 . S
C6855 H6871 0.961 . S
C6856 C6857 1.370 . S
C6856 C6858 1.363 . S
C6856 H6872 0.931 . S
C6857 C6856 1.370 . S
C6857 C6861 1.408 . S
C6858 C6856 1.363 . S
C6858 C6859 1.370 . S
C6858 C6862 1.524 . S
C6859 C6851 1.503 . S
C6859 C6858 1.370 . S
C6859 C6860 1.403 . S
C6860 C6859 1.403 . S
C6860 C6861 1.404 . S
C6860 C6863 1.539 . S
C6861 C6857 1.408 . S
C6861 C6860 1.404 . S
C6861 H6873 0.930 . S
C6862 C6858 1.524 . S
C6862 H6874 0.956 . S
C6862 H6875 0.961 . S
C6862 H6876 0.961 . S
C6863 C6860 1.539 . S
C6863 H6877 0.958 . S
C6863 H6878 0.961 . S
C6863 H6879 0.960 . S
H6864 C6848 0.931 . S
H6865 C6853 0.929 . S
H6866 C6854 0.960 . S
H6867 C6854 0.962 . S
H6868 C6854 0.960 . S
H6869 C6855 0.961 . S
H6870 C6855 0.961 . S
H6871 C6855 0.961 . S
H6872 C6856 0.931 . S
H6873 C6861 0.930 . S
H6874 C6862 0.956 . S
H6875 C6862 0.961 . S
H6876 C6862 0.961 . S
H6877 C6863 0.958 . S
H6878 C6863 0.961 . S
H6879 C6863 0.960 . S
C6880 C6881 1.391 . S
C6880 C6882 1.394 . S
C6880 H6896 0.931 . S
C6881 C6880 1.391 . S
C6881 C6885 1.376 . S
C6882 C6880 1.394 . S
C6882 C6883 1.369 . S
C6882 C6886 1.531 . S
C6883 C6882 1.369 . S
C6883 C6884 1.410 . S
C6883 C6891 1.503 . S
C6884 C6883 1.410 . S
C6884 C6885 1.392 . S
C6884 C6887 1.511 . S
C6885 C6881 1.376 . S
C6885 C6884 1.392 . S
C6885 H6897 0.929 . S
C6886 C6882 1.531 . S
C6886 H6898 0.960 . S
C6886 H6899 0.962 . S
C6886 H6900 0.960 . S
C6887 C6884 1.511 . S
C6887 H6901 0.961 . S
C6887 H6902 0.961 . S
C6887 H6903 0.961 . S
C6888 C6889 1.370 . S
C6888 C6890 1.363 . S
C6888 H6904 0.931 . S
C6889 C6888 1.370 . S
C6889 C6893 1.408 . S
C6890 C6888 1.363 . S
C6890 C6891 1.370 . S
C6890 C6894 1.524 . S
C6891 C6883 1.503 . S
C6891 C6890 1.370 . S
C6891 C6892 1.403 . S
C6892 C6891 1.403 . S
C6892 C6893 1.404 . S
C6892 C6895 1.539 . S
C6893 C6889 1.408 . S
C6893 C6892 1.404 . S
C6893 H6905 0.930 . S
C6894 C6890 1.524 . S
C6894 H6906 0.956 . S
C6894 H6907 0.961 . S
C6894 H6908 0.961 . S
C6895 C6892 1.539 . S
C6895 H6909 0.958 . S
C6895 H6910 0.961 . S
C6895 H6911 0.960 . S
H6896 C6880 0.931 . S
H6897 C6885 0.929 . S
H6898 C6886 0.960 . S
H6899 C6886 0.962 . S
H6900 C6886 0.960 . S
H6901 C6887 0.961 . S
H6902 C6887 0.961 . S
H6903 C6887 0.961 . S
H6904 C6888 0.931 . S
H6905 C6893 0.930 . S
H6906 C6894 0.956 . S
H6907 C6894 0.961 . S
H6908 C6894 0.961 . S
H6909 C6895 0.958 . S
H6910 C6895 0.961 . S
H6911 C6895 0.960 . S
C6912 C6913 1.391 . S
C6912 C6914 1.394 . S
C6912 H6928 0.931 . S
C6913 C6912 1.391 . S
C6913 C6917 1.376 . S
C6914 C6912 1.394 . S
C6914 C6915 1.369 . S
C6914 C6918 1.531 . S
C6915 C6914 1.369 . S
C6915 C6916 1.410 . S
C6915 C6923 1.503 . S
C6916 C6915 1.410 . S
C6916 C6917 1.392 . S
C6916 C6919 1.511 . S
C6917 C6913 1.376 . S
C6917 C6916 1.392 . S
C6917 H6929 0.929 . S
C6918 C6914 1.531 . S
C6918 H6930 0.960 . S
C6918 H6931 0.962 . S
C6918 H6932 0.960 . S
C6919 C6916 1.511 . S
C6919 H6933 0.961 . S
C6919 H6934 0.961 . S
C6919 H6935 0.961 . S
C6920 C6921 1.370 . S
C6920 C6922 1.363 . S
C6920 H6936 0.931 . S
C6921 C6920 1.370 . S
C6921 C6925 1.408 . S
C6922 C6920 1.363 . S
C6922 C6923 1.370 . S
C6922 C6926 1.524 . S
C6923 C6915 1.503 . S
C6923 C6922 1.370 . S
C6923 C6924 1.403 . S
C6924 C6923 1.403 . S
C6924 C6925 1.404 . S
C6924 C6927 1.539 . S
C6925 C6921 1.408 . S
C6925 C6924 1.404 . S
C6925 H6937 0.930 . S
C6926 C6922 1.524 . S
C6926 H6938 0.956 . S
C6926 H6939 0.961 . S
C6926 H6940 0.961 . S
C6927 C6924 1.539 . S
C6927 H6941 0.958 . S
C6927 H6942 0.961 . S
C6927 H6943 0.960 . S
H6928 C6912 0.931 . S
H6929 C6917 0.929 . S
H6930 C6918 0.960 . S
H6931 C6918 0.962 . S
H6932 C6918 0.960 . S
H6933 C6919 0.961 . S
H6934 C6919 0.961 . S
H6935 C6919 0.961 . S
H6936 C6920 0.931 . S
H6937 C6925 0.930 . S
H6938 C6926 0.956 . S
H6939 C6926 0.961 . S
H6940 C6926 0.961 . S
H6941 C6927 0.958 . S
H6942 C6927 0.961 . S
H6943 C6927 0.960 . S
C6944 C6945 1.391 . S
C6944 C6946 1.394 . S
C6944 H6960 0.931 . S
C6945 C6944 1.391 . S
C6945 C6949 1.376 . S
C6946 C6944 1.394 . S
C6946 C6947 1.369 . S
C6946 C6950 1.531 . S
C6947 C6946 1.369 . S
C6947 C6948 1.410 . S
C6947 C6955 1.503 . S
C6948 C6947 1.410 . S
C6948 C6949 1.392 . S
C6948 C6951 1.511 . S
C6949 C6945 1.376 . S
C6949 C6948 1.392 . S
C6949 H6961 0.929 . S
C6950 C6946 1.531 . S
C6950 H6962 0.960 . S
C6950 H6963 0.962 . S
C6950 H6964 0.960 . S
C6951 C6948 1.511 . S
C6951 H6965 0.961 . S
C6951 H6966 0.961 . S
C6951 H6967 0.961 . S
C6952 C6953 1.370 . S
C6952 C6954 1.363 . S
C6952 H6968 0.931 . S
C6953 C6952 1.370 . S
C6953 C6957 1.408 . S
C6954 C6952 1.363 . S
C6954 C6955 1.370 . S
C6954 C6958 1.524 . S
C6955 C6947 1.503 . S
C6955 C6954 1.370 . S
C6955 C6956 1.403 . S
C6956 C6955 1.403 . S
C6956 C6957 1.404 . S
C6956 C6959 1.539 . S
C6957 C6953 1.408 . S
C6957 C6956 1.404 . S
C6957 H6969 0.930 . S
C6958 C6954 1.524 . S
C6958 H6970 0.956 . S
C6958 H6971 0.961 . S
C6958 H6972 0.961 . S
C6959 C6956 1.539 . S
C6959 H6973 0.958 . S
C6959 H6974 0.961 . S
C6959 H6975 0.960 . S
H6960 C6944 0.931 . S
H6961 C6949 0.929 . S
H6962 C6950 0.960 . S
H6963 C6950 0.962 . S
H6964 C6950 0.960 . S
H6965 C6951 0.961 . S
H6966 C6951 0.961 . S
H6967 C6951 0.961 . S
H6968 C6952 0.931 . S
H6969 C6957 0.930 . S
H6970 C6958 0.956 . S
H6971 C6958 0.961 . S
H6972 C6958 0.961 . S
H6973 C6959 0.958 . S
H6974 C6959 0.961 . S
H6975 C6959 0.960 . S
C6976 C6977 1.391 . S
C6976 C6978 1.394 . S
C6976 H6992 0.931 . S
C6977 C6976 1.391 . S
C6977 C6981 1.376 . S
C6978 C6976 1.394 . S
C6978 C6979 1.369 . S
C6978 C6982 1.531 . S
C6979 C6978 1.369 . S
C6979 C6980 1.410 . S
C6979 C6987 1.503 . S
C6980 C6979 1.410 . S
C6980 C6981 1.392 . S
C6980 C6983 1.511 . S
C6981 C6977 1.376 . S
C6981 C6980 1.392 . S
C6981 H6993 0.929 . S
C6982 C6978 1.531 . S
C6982 H6994 0.960 . S
C6982 H6995 0.962 . S
C6982 H6996 0.960 . S
C6983 C6980 1.511 . S
C6983 H6997 0.961 . S
C6983 H6998 0.961 . S
C6983 H6999 0.961 . S
C6984 C6985 1.370 . S
C6984 C6986 1.363 . S
C6984 H7000 0.931 . S
C6985 C6984 1.370 . S
C6985 C6989 1.408 . S
C6986 C6984 1.363 . S
C6986 C6987 1.370 . S
C6986 C6990 1.524 . S
C6987 C6979 1.503 . S
C6987 C6986 1.370 . S
C6987 C6988 1.403 . S
C6988 C6987 1.403 . S
C6988 C6989 1.404 . S
C6988 C6991 1.539 . S
C6989 C6985 1.408 . S
C6989 C6988 1.404 . S
C6989 H7001 0.930 . S
C6990 C6986 1.524 . S
C6990 H7002 0.956 . S
C6990 H7003 0.961 . S
C6990 H7004 0.961 . S
C6991 C6988 1.539 . S
C6991 H7005 0.958 . S
C6991 H7006 0.961 . S
C6991 H7007 0.960 . S
H6992 C6976 0.931 . S
H6993 C6981 0.929 . S
H6994 C6982 0.960 . S
H6995 C6982 0.962 . S
H6996 C6982 0.960 . S
H6997 C6983 0.961 . S
H6998 C6983 0.961 . S
H6999 C6983 0.961 . S
H7000 C6984 0.931 . S
H7001 C6989 0.930 . S
H7002 C6990 0.956 . S
H7003 C6990 0.961 . S
H7004 C6990 0.961 . S
H7005 C6991 0.958 . S
H7006 C6991 0.961 . S
H7007 C6991 0.960 . S
C7008 C7009 1.391 . S
C7008 C7010 1.394 . S
C7008 H7024 0.931 . S
C7009 C7008 1.391 . S
C7009 C7013 1.376 . S
C7010 C7008 1.394 . S
C7010 C7011 1.369 . S
C7010 C7014 1.531 . S
C7011 C7010 1.369 . S
C7011 C7012 1.410 . S
C7011 C7019 1.503 . S
C7012 C7011 1.410 . S
C7012 C7013 1.392 . S
C7012 C7015 1.511 . S
C7013 C7009 1.376 . S
C7013 C7012 1.392 . S
C7013 H7025 0.929 . S
C7014 C7010 1.531 . S
C7014 H7026 0.960 . S
C7014 H7027 0.962 . S
C7014 H7028 0.960 . S
C7015 C7012 1.511 . S
C7015 H7029 0.961 . S
C7015 H7030 0.961 . S
C7015 H7031 0.961 . S
C7016 C7017 1.370 . S
C7016 C7018 1.363 . S
C7016 H7032 0.931 . S
C7017 C7016 1.370 . S
C7017 C7021 1.408 . S
C7018 C7016 1.363 . S
C7018 C7019 1.370 . S
C7018 C7022 1.524 . S
C7019 C7011 1.503 . S
C7019 C7018 1.370 . S
C7019 C7020 1.403 . S
C7020 C7019 1.403 . S
C7020 C7021 1.404 . S
C7020 C7023 1.539 . S
C7021 C7017 1.408 . S
C7021 C7020 1.404 . S
C7021 H7033 0.930 . S
C7022 C7018 1.524 . S
C7022 H7034 0.956 . S
C7022 H7035 0.961 . S
C7022 H7036 0.961 . S
C7023 C7020 1.539 . S
C7023 H7037 0.958 . S
C7023 H7038 0.961 . S
C7023 H7039 0.960 . S
H7024 C7008 0.931 . S
H7025 C7013 0.929 . S
H7026 C7014 0.960 . S
H7027 C7014 0.962 . S
H7028 C7014 0.960 . S
H7029 C7015 0.961 . S
H7030 C7015 0.961 . S
H7031 C7015 0.961 . S
H7032 C7016 0.931 . S
H7033 C7021 0.930 . S
H7034 C7022 0.956 . S
H7035 C7022 0.961 . S
H7036 C7022 0.961 . S
H7037 C7023 0.958 . S
H7038 C7023 0.961 . S
H7039 C7023 0.960 . S
C7040 C7041 1.391 . S
C7040 C7042 1.394 . S
C7040 H7056 0.931 . S
C7041 C7040 1.391 . S
C7041 C7045 1.376 . S
C7042 C7040 1.394 . S
C7042 C7043 1.369 . S
C7042 C7046 1.531 . S
C7043 C7042 1.369 . S
C7043 C7044 1.410 . S
C7043 C7051 1.503 . S
C7044 C7043 1.410 . S
C7044 C7045 1.392 . S
C7044 C7047 1.511 . S
C7045 C7041 1.376 . S
C7045 C7044 1.392 . S
C7045 H7057 0.929 . S
C7046 C7042 1.531 . S
C7046 H7058 0.960 . S
C7046 H7059 0.962 . S
C7046 H7060 0.960 . S
C7047 C7044 1.511 . S
C7047 H7061 0.961 . S
C7047 H7062 0.961 . S
C7047 H7063 0.961 . S
C7048 C7049 1.370 . S
C7048 C7050 1.363 . S
C7048 H7064 0.931 . S
C7049 C7048 1.370 . S
C7049 C7053 1.408 . S
C7050 C7048 1.363 . S
C7050 C7051 1.370 . S
C7050 C7054 1.524 . S
C7051 C7043 1.503 . S
C7051 C7050 1.370 . S
C7051 C7052 1.403 . S
C7052 C7051 1.403 . S
C7052 C7053 1.404 . S
C7052 C7055 1.539 . S
C7053 C7049 1.408 . S
C7053 C7052 1.404 . S
C7053 H7065 0.930 . S
C7054 C7050 1.524 . S
C7054 H7066 0.956 . S
C7054 H7067 0.961 . S
C7054 H7068 0.961 . S
C7055 C7052 1.539 . S
C7055 H7069 0.958 . S
C7055 H7070 0.961 . S
C7055 H7071 0.960 . S
H7056 C7040 0.931 . S
H7057 C7045 0.929 . S
H7058 C7046 0.960 . S
H7059 C7046 0.962 . S
H7060 C7046 0.960 . S
H7061 C7047 0.961 . S
H7062 C7047 0.961 . S
H7063 C7047 0.961 . S
H7064 C7048 0.931 . S
H7065 C7053 0.930 . S
H7066 C7054 0.956 . S
H7067 C7054 0.961 . S
H7068 C7054 0.961 . S
H7069 C7055 0.958 . S
H7070 C7055 0.961 . S
H7071 C7055 0.960 . S
C7072 C7073 1.391 . S
C7072 C7074 1.394 . S
C7072 H7088 0.931 . S
C7073 C7072 1.391 . S
C7073 C7077 1.376 . S
C7074 C7072 1.394 . S
C7074 C7075 1.369 . S
C7074 C7078 1.531 . S
C7075 C7074 1.369 . S
C7075 C7076 1.410 . S
C7075 C7083 1.503 . S
C7076 C7075 1.410 . S
C7076 C7077 1.392 . S
C7076 C7079 1.511 . S
C7077 C7073 1.376 . S
C7077 C7076 1.392 . S
C7077 H7089 0.929 . S
C7078 C7074 1.531 . S
C7078 H7090 0.960 . S
C7078 H7091 0.962 . S
C7078 H7092 0.960 . S
C7079 C7076 1.511 . S
C7079 H7093 0.961 . S
C7079 H7094 0.961 . S
C7079 H7095 0.961 . S
C7080 C7081 1.370 . S
C7080 C7082 1.363 . S
C7080 H7096 0.931 . S
C7081 C7080 1.370 . S
C7081 C7085 1.408 . S
C7082 C7080 1.363 . S
C7082 C7083 1.370 . S
C7082 C7086 1.524 . S
C7083 C7075 1.503 . S
C7083 C7082 1.370 . S
C7083 C7084 1.403 . S
C7084 C7083 1.403 . S
C7084 C7085 1.404 . S
C7084 C7087 1.539 . S
C7085 C7081 1.408 . S
C7085 C7084 1.404 . S
C7085 H7097 0.930 . S
C7086 C7082 1.524 . S
C7086 H7098 0.956 . S
C7086 H7099 0.961 . S
C7086 H7100 0.961 . S
C7087 C7084 1.539 . S
C7087 H7101 0.958 . S
C7087 H7102 0.961 . S
C7087 H7103 0.960 . S
H7088 C7072 0.931 . S
H7089 C7077 0.929 . S
H7090 C7078 0.960 . S
H7091 C7078 0.962 . S
H7092 C7078 0.960 . S
H7093 C7079 0.961 . S
H7094 C7079 0.961 . S
H7095 C7079 0.961 . S
H7096 C7080 0.931 . S
H7097 C7085 0.930 . S
H7098 C7086 0.956 . S
H7099 C7086 0.961 . S
H7100 C7086 0.961 . S
H7101 C7087 0.958 . S
H7102 C7087 0.961 . S
H7103 C7087 0.960 . S
C7104 C7105 1.391 . S
C7104 C7106 1.394 . S
C7104 H7120 0.931 . S
C7105 C7104 1.391 . S
C7105 C7109 1.376 . S
C7106 C7104 1.394 . S
C7106 C7107 1.369 . S
C7106 C7110 1.531 . S
C7107 C7106 1.369 . S
C7107 C7108 1.410 . S
C7107 C7115 1.503 . S
C7108 C7107 1.410 . S
C7108 C7109 1.392 . S
C7108 C7111 1.511 . S
C7109 C7105 1.376 . S
C7109 C7108 1.392 . S
C7109 H7121 0.929 . S
C7110 C7106 1.531 . S
C7110 H7122 0.960 . S
C7110 H7123 0.962 . S
C7110 H7124 0.960 . S
C7111 C7108 1.511 . S
C7111 H7125 0.961 . S
C7111 H7126 0.961 . S
C7111 H7127 0.961 . S
C7112 C7113 1.370 . S
C7112 C7114 1.363 . S
C7112 H7128 0.931 . S
C7113 C7112 1.370 . S
C7113 C7117 1.408 . S
C7114 C7112 1.363 . S
C7114 C7115 1.370 . S
C7114 C7118 1.524 . S
C7115 C7107 1.503 . S
C7115 C7114 1.370 . S
C7115 C7116 1.403 . S
C7116 C7115 1.403 . S
C7116 C7117 1.404 . S
C7116 C7119 1.539 . S
C7117 C7113 1.408 . S
C7117 C7116 1.404 . S
C7117 H7129 0.930 . S
C7118 C7114 1.524 . S
C7118 H7130 0.956 . S
C7118 H7131 0.961 . S
C7118 H7132 0.961 . S
C7119 C7116 1.539 . S
C7119 H7133 0.958 . S
C7119 H7134 0.961 . S
C7119 H7135 0.960 . S
H7120 C7104 0.931 . S
H7121 C7109 0.929 . S
H7122 C7110 0.960 . S
H7123 C7110 0.962 . S
H7124 C7110 0.960 . S
H7125 C7111 0.961 . S
H7126 C7111 0.961 . S
H7127 C7111 0.961 . S
H7128 C7112 0.931 . S
H7129 C7117 0.930 . S
H7130 C7118 0.956 . S
H7131 C7118 0.961 . S
H7132 C7118 0.961 . S
H7133 C7119 0.958 . S
H7134 C7119 0.961 . S
H7135 C7119 0.960 . S
C7136 C7137 1.391 . S
C7136 C7138 1.394 . S
C7136 H7152 0.931 . S
C7137 C7136 1.391 . S
C7137 C7141 1.376 . S
C7138 C7136 1.394 . S
C7138 C7139 1.369 . S
C7138 C7142 1.531 . S
C7139 C7138 1.369 . S
C7139 C7140 1.410 . S
C7139 C7147 1.503 . S
C7140 C7139 1.410 . S
C7140 C7141 1.392 . S
C7140 C7143 1.511 . S
C7141 C7137 1.376 . S
C7141 C7140 1.392 . S
C7141 H7153 0.929 . S
C7142 C7138 1.531 . S
C7142 H7154 0.960 . S
C7142 H7155 0.962 . S
C7142 H7156 0.960 . S
C7143 C7140 1.511 . S
C7143 H7157 0.961 . S
C7143 H7158 0.961 . S
C7143 H7159 0.961 . S
C7144 C7145 1.370 . S
C7144 C7146 1.363 . S
C7144 H7160 0.931 . S
C7145 C7144 1.370 . S
C7145 C7149 1.408 . S
C7146 C7144 1.363 . S
C7146 C7147 1.370 . S
C7146 C7150 1.524 . S
C7147 C7139 1.503 . S
C7147 C7146 1.370 . S
C7147 C7148 1.403 . S
C7148 C7147 1.403 . S
C7148 C7149 1.404 . S
C7148 C7151 1.539 . S
C7149 C7145 1.408 . S
C7149 C7148 1.404 . S
C7149 H7161 0.930 . S
C7150 C7146 1.524 . S
C7150 H7162 0.956 . S
C7150 H7163 0.961 . S
C7150 H7164 0.961 . S
C7151 C7148 1.539 . S
C7151 H7165 0.958 . S
C7151 H7166 0.961 . S
C7151 H7167 0.960 . S
H7152 C7136 0.931 . S
H7153 C7141 0.929 . S
H7154 C7142 0.960 . S
H7155 C7142 0.962 . S
H7156 C7142 0.960 . S
H7157 C7143 0.961 . S
H7158 C7143 0.961 . S
H7159 C7143 0.961 . S
H7160 C7144 0.931 . S
H7161 C7149 0.930 . S
H7162 C7150 0.956 . S
H7163 C7150 0.961 . S
H7164 C7150 0.961 . S
H7165 C7151 0.958 . S
H7166 C7151 0.961 . S
H7167 C7151 0.960 . S
C7168 C7169 1.391 . S
C7168 C7170 1.394 . S
C7168 H7184 0.931 . S
C7169 C7168 1.391 . S
C7169 C7173 1.376 . S
C7170 C7168 1.394 . S
C7170 C7171 1.369 . S
C7170 C7174 1.531 . S
C7171 C7170 1.369 . S
C7171 C7172 1.410 . S
C7171 C7179 1.503 . S
C7172 C7171 1.410 . S
C7172 C7173 1.392 . S
C7172 C7175 1.511 . S
C7173 C7169 1.376 . S
C7173 C7172 1.392 . S
C7173 H7185 0.929 . S
C7174 C7170 1.531 . S
C7174 H7186 0.960 . S
C7174 H7187 0.962 . S
C7174 H7188 0.960 . S
C7175 C7172 1.511 . S
C7175 H7189 0.961 . S
C7175 H7190 0.961 . S
C7175 H7191 0.961 . S
C7176 C7177 1.370 . S
C7176 C7178 1.363 . S
C7176 H7192 0.931 . S
C7177 C7176 1.370 . S
C7177 C7181 1.408 . S
C7178 C7176 1.363 . S
C7178 C7179 1.370 . S
C7178 C7182 1.524 . S
C7179 C7171 1.503 . S
C7179 C7178 1.370 . S
C7179 C7180 1.403 . S
C7180 C7179 1.403 . S
C7180 C7181 1.404 . S
C7180 C7183 1.539 . S
C7181 C7177 1.408 . S
C7181 C7180 1.404 . S
C7181 H7193 0.930 . S
C7182 C7178 1.524 . S
C7182 H7194 0.956 . S
C7182 H7195 0.961 . S
C7182 H7196 0.961 . S
C7183 C7180 1.539 . S
C7183 H7197 0.958 . S
C7183 H7198 0.961 . S
C7183 H7199 0.960 . S
H7184 C7168 0.931 . S
H7185 C7173 0.929 . S
H7186 C7174 0.960 . S
H7187 C7174 0.962 . S
H7188 C7174 0.960 . S
H7189 C7175 0.961 . S
H7190 C7175 0.961 . S
H7191 C7175 0.961 . S
H7192 C7176 0.931 . S
H7193 C7181 0.930 . S
H7194 C7182 0.956 . S
H7195 C7182 0.961 . S
H7196 C7182 0.961 . S
H7197 C7183 0.958 . S
H7198 C7183 0.961 . S
H7199 C7183 0.960 . S
C7200 C7201 1.391 . S
C7200 C7202 1.394 . S
C7200 H7216 0.931 . S
C7201 C7200 1.391 . S
C7201 C7205 1.376 . S
C7202 C7200 1.394 . S
C7202 C7203 1.369 . S
C7202 C7206 1.531 . S
C7203 C7202 1.369 . S
C7203 C7204 1.410 . S
C7203 C7211 1.503 . S
C7204 C7203 1.410 . S
C7204 C7205 1.392 . S
C7204 C7207 1.511 . S
C7205 C7201 1.376 . S
C7205 C7204 1.392 . S
C7205 H7217 0.929 . S
C7206 C7202 1.531 . S
C7206 H7218 0.960 . S
C7206 H7219 0.962 . S
C7206 H7220 0.960 . S
C7207 C7204 1.511 . S
C7207 H7221 0.961 . S
C7207 H7222 0.961 . S
C7207 H7223 0.961 . S
C7208 C7209 1.370 . S
C7208 C7210 1.363 . S
C7208 H7224 0.931 . S
C7209 C7208 1.370 . S
C7209 C7213 1.408 . S
C7210 C7208 1.363 . S
C7210 C7211 1.370 . S
C7210 C7214 1.524 . S
C7211 C7203 1.503 . S
C7211 C7210 1.370 . S
C7211 C7212 1.403 . S
C7212 C7211 1.403 . S
C7212 C7213 1.404 . S
C7212 C7215 1.539 . S
C7213 C7209 1.408 . S
C7213 C7212 1.404 . S
C7213 H7225 0.930 . S
C7214 C7210 1.524 . S
C7214 H7226 0.956 . S
C7214 H7227 0.961 . S
C7214 H7228 0.961 . S
C7215 C7212 1.539 . S
C7215 H7229 0.958 . S
C7215 H7230 0.961 . S
C7215 H7231 0.960 . S
H7216 C7200 0.931 . S
H7217 C7205 0.929 . S
H7218 C7206 0.960 . S
H7219 C7206 0.962 . S
H7220 C7206 0.960 . S
H7221 C7207 0.961 . S
H7222 C7207 0.961 . S
H7223 C7207 0.961 . S
H7224 C7208 0.931 . S
H7225 C7213 0.930 . S
H7226 C7214 0.956 . S
H7227 C7214 0.961 . S
H7228 C7214 0.961 . S
H7229 C7215 0.958 . S
H7230 C7215 0.961 . S
H7231 C7215 0.960 . S
C7232 C7233 1.391 . S
C7232 C7234 1.394 . S
C7232 H7248 0.931 . S
C7233 C7232 1.391 . S
C7233 C7237 1.376 . S
C7234 C7232 1.394 . S
C7234 C7235 1.369 . S
C7234 C7238 1.531 . S
C7235 C7234 1.369 . S
C7235 C7236 1.410 . S
C7235 C7243 1.503 . S
C7236 C7235 1.410 . S
C7236 C7237 1.392 . S
C7236 C7239 1.511 . S
C7237 C7233 1.376 . S
C7237 C7236 1.392 . S
C7237 H7249 0.929 . S
C7238 C7234 1.531 . S
C7238 H7250 0.960 . S
C7238 H7251 0.962 . S
C7238 H7252 0.960 . S
C7239 C7236 1.511 . S
C7239 H7253 0.961 . S
C7239 H7254 0.961 . S
C7239 H7255 0.961 . S
C7240 C7241 1.370 . S
C7240 C7242 1.363 . S
C7240 H7256 0.931 . S
C7241 C7240 1.370 . S
C7241 C7245 1.408 . S
C7242 C7240 1.363 . S
C7242 C7243 1.370 . S
C7242 C7246 1.524 . S
C7243 C7235 1.503 . S
C7243 C7242 1.370 . S
C7243 C7244 1.403 . S
C7244 C7243 1.403 . S
C7244 C7245 1.404 . S
C7244 C7247 1.539 . S
C7245 C7241 1.408 . S
C7245 C7244 1.404 . S
C7245 H7257 0.930 . S
C7246 C7242 1.524 . S
C7246 H7258 0.956 . S
C7246 H7259 0.961 . S
C7246 H7260 0.961 . S
C7247 C7244 1.539 . S
C7247 H7261 0.958 . S
C7247 H7262 0.961 . S
C7247 H7263 0.960 . S
H7248 C7232 0.931 . S
H7249 C7237 0.929 . S
H7250 C7238 0.960 . S
H7251 C7238 0.962 . S
H7252 C7238 0.960 . S
H7253 C7239 0.961 . S
H7254 C7239 0.961 . S
H7255 C7239 0.961 . S
H7256 C7240 0.931 . S
H7257 C7245 0.930 . S
H7258 C7246 0.956 . S
H7259 C7246 0.961 . S
H7260 C7246 0.961 . S
H7261 C7247 0.958 . S
H7262 C7247 0.961 . S
H7263 C7247 0.960 . S
C7264 C7265 1.391 . S
C7264 C7266 1.394 . S
C7264 H7280 0.931 . S
C7265 C7264 1.391 . S
C7265 C7269 1.376 . S
C7266 C7264 1.394 . S
C7266 C7267 1.369 . S
C7266 C7270 1.531 . S
C7267 C7266 1.369 . S
C7267 C7268 1.410 . S
C7267 C7275 1.503 . S
C7268 C7267 1.410 . S
C7268 C7269 1.392 . S
C7268 C7271 1.511 . S
C7269 C7265 1.376 . S
C7269 C7268 1.392 . S
C7269 H7281 0.929 . S
C7270 C7266 1.531 . S
C7270 H7282 0.960 . S
C7270 H7283 0.962 . S
C7270 H7284 0.960 . S
C7271 C7268 1.511 . S
C7271 H7285 0.961 . S
C7271 H7286 0.961 . S
C7271 H7287 0.961 . S
C7272 C7273 1.370 . S
C7272 C7274 1.363 . S
C7272 H7288 0.931 . S
C7273 C7272 1.370 . S
C7273 C7277 1.408 . S
C7274 C7272 1.363 . S
C7274 C7275 1.370 . S
C7274 C7278 1.524 . S
C7275 C7267 1.503 . S
C7275 C7274 1.370 . S
C7275 C7276 1.403 . S
C7276 C7275 1.403 . S
C7276 C7277 1.404 . S
C7276 C7279 1.539 . S
C7277 C7273 1.408 . S
C7277 C7276 1.404 . S
C7277 H7289 0.930 . S
C7278 C7274 1.524 . S
C7278 H7290 0.956 . S
C7278 H7291 0.961 . S
C7278 H7292 0.961 . S
C7279 C7276 1.539 . S
C7279 H7293 0.958 . S
C7279 H7294 0.961 . S
C7279 H7295 0.960 . S
H7280 C7264 0.931 . S
H7281 C7269 0.929 . S
H7282 C7270 0.960 . S
H7283 C7270 0.962 . S
H7284 C7270 0.960 . S
H7285 C7271 0.961 . S
H7286 C7271 0.961 . S
H7287 C7271 0.961 . S
H7288 C7272 0.931 . S
H7289 C7277 0.930 . S
H7290 C7278 0.956 . S
H7291 C7278 0.961 . S
H7292 C7278 0.961 . S
H7293 C7279 0.958 . S
H7294 C7279 0.961 . S
H7295 C7279 0.960 . S
C7296 C7297 1.391 . S
C7296 C7298 1.394 . S
C7296 H7312 0.931 . S
C7297 C7296 1.391 . S
C7297 C7301 1.376 . S
C7298 C7296 1.394 . S
C7298 C7299 1.369 . S
C7298 C7302 1.531 . S
C7299 C7298 1.369 . S
C7299 C7300 1.410 . S
C7299 C7307 1.503 . S
C7300 C7299 1.410 . S
C7300 C7301 1.392 . S
C7300 C7303 1.511 . S
C7301 C7297 1.376 . S
C7301 C7300 1.392 . S
C7301 H7313 0.929 . S
C7302 C7298 1.531 . S
C7302 H7314 0.960 . S
C7302 H7315 0.962 . S
C7302 H7316 0.960 . S
C7303 C7300 1.511 . S
C7303 H7317 0.961 . S
C7303 H7318 0.961 . S
C7303 H7319 0.961 . S
C7304 C7305 1.370 . S
C7304 C7306 1.363 . S
C7304 H7320 0.931 . S
C7305 C7304 1.370 . S
C7305 C7309 1.408 . S
C7306 C7304 1.363 . S
C7306 C7307 1.370 . S
C7306 C7310 1.524 . S
C7307 C7299 1.503 . S
C7307 C7306 1.370 . S
C7307 C7308 1.403 . S
C7308 C7307 1.403 . S
C7308 C7309 1.404 . S
C7308 C7311 1.539 . S
C7309 C7305 1.408 . S
C7309 C7308 1.404 . S
C7309 H7321 0.930 . S
C7310 C7306 1.524 . S
C7310 H7322 0.956 . S
C7310 H7323 0.961 . S
C7310 H7324 0.961 . S
C7311 C7308 1.539 . S
C7311 H7325 0.958 . S
C7311 H7326 0.961 . S
C7311 H7327 0.960 . S
H7312 C7296 0.931 . S
H7313 C7301 0.929 . S
H7314 C7302 0.960 . S
H7315 C7302 0.962 . S
H7316 C7302 0.960 . S
H7317 C7303 0.961 . S
H7318 C7303 0.961 . S
H7319 C7303 0.961 . S
H7320 C7304 0.931 . S
H7321 C7309 0.930 . S
H7322 C7310 0.956 . S
H7323 C7310 0.961 . S
H7324 C7310 0.961 . S
H7325 C7311 0.958 . S
H7326 C7311 0.961 . S
H7327 C7311 0.960 . S
C7328 C7329 1.391 . S
C7328 C7330 1.394 . S
C7328 H7344 0.931 . S
C7329 C7328 1.391 . S
C7329 C7333 1.376 . S
C7330 C7328 1.394 . S
C7330 C7331 1.369 . S
C7330 C7334 1.531 . S
C7331 C7330 1.369 . S
C7331 C7332 1.410 . S
C7331 C7339 1.503 . S
C7332 C7331 1.410 . S
C7332 C7333 1.392 . S
C7332 C7335 1.511 . S
C7333 C7329 1.376 . S
C7333 C7332 1.392 . S
C7333 H7345 0.929 . S
C7334 C7330 1.531 . S
C7334 H7346 0.960 . S
C7334 H7347 0.962 . S
C7334 H7348 0.960 . S
C7335 C7332 1.511 . S
C7335 H7349 0.961 . S
C7335 H7350 0.961 . S
C7335 H7351 0.961 . S
C7336 C7337 1.370 . S
C7336 C7338 1.363 . S
C7336 H7352 0.931 . S
C7337 C7336 1.370 . S
C7337 C7341 1.408 . S
C7338 C7336 1.363 . S
C7338 C7339 1.370 . S
C7338 C7342 1.524 . S
C7339 C7331 1.503 . S
C7339 C7338 1.370 . S
C7339 C7340 1.403 . S
C7340 C7339 1.403 . S
C7340 C7341 1.404 . S
C7340 C7343 1.539 . S
C7341 C7337 1.408 . S
C7341 C7340 1.404 . S
C7341 H7353 0.930 . S
C7342 C7338 1.524 . S
C7342 H7354 0.956 . S
C7342 H7355 0.961 . S
C7342 H7356 0.961 . S
C7343 C7340 1.539 . S
C7343 H7357 0.958 . S
C7343 H7358 0.961 . S
C7343 H7359 0.960 . S
H7344 C7328 0.931 . S
H7345 C7333 0.929 . S
H7346 C7334 0.960 . S
H7347 C7334 0.962 . S
H7348 C7334 0.960 . S
H7349 C7335 0.961 . S
H7350 C7335 0.961 . S
H7351 C7335 0.961 . S
H7352 C7336 0.931 . S
H7353 C7341 0.930 . S
H7354 C7342 0.956 . S
H7355 C7342 0.961 . S
H7356 C7342 0.961 . S
H7357 C7343 0.958 . S
H7358 C7343 0.961 . S
H7359 C7343 0.960 . S
C7360 C7361 1.391 . S
C7360 C7362 1.394 . S
C7360 H7376 0.931 . S
C7361 C7360 1.391 . S
C7361 C7365 1.376 . S
C7362 C7360 1.394 . S
C7362 C7363 1.369 . S
C7362 C7366 1.531 . S
C7363 C7362 1.369 . S
C7363 C7364 1.410 . S
C7363 C7371 1.503 . S
C7364 C7363 1.410 . S
C7364 C7365 1.392 . S
C7364 C7367 1.511 . S
C7365 C7361 1.376 . S
C7365 C7364 1.392 . S
C7365 H7377 0.929 . S
C7366 C7362 1.531 . S
C7366 H7378 0.960 . S
C7366 H7379 0.962 . S
C7366 H7380 0.960 . S
C7367 C7364 1.511 . S
C7367 H7381 0.961 . S
C7367 H7382 0.961 . S
C7367 H7383 0.961 . S
C7368 C7369 1.370 . S
C7368 C7370 1.363 . S
C7368 H7384 0.931 . S
C7369 C7368 1.370 . S
C7369 C7373 1.408 . S
C7370 C7368 1.363 . S
C7370 C7371 1.370 . S
C7370 C7374 1.524 . S
C7371 C7363 1.503 . S
C7371 C7370 1.370 . S
C7371 C7372 1.403 . S
C7372 C7371 1.403 . S
C7372 C7373 1.404 . S
C7372 C7375 1.539 . S
C7373 C7369 1.408 . S
C7373 C7372 1.404 . S
C7373 H7385 0.930 . S
C7374 C7370 1.524 . S
C7374 H7386 0.956 . S
C7374 H7387 0.961 . S
C7374 H7388 0.961 . S
C7375 C7372 1.539 . S
C7375 H7389 0.958 . S
C7375 H7390 0.961 . S
C7375 H7391 0.960 . S
H7376 C7360 0.931 . S
H7377 C7365 0.929 . S
H7378 C7366 0.960 . S
H7379 C7366 0.962 . S
H7380 C7366 0.960 . S
H7381 C7367 0.961 . S
H7382 C7367 0.961 . S
H7383 C7367 0.961 . S
H7384 C7368 0.931 . S
H7385 C7373 0.930 . S
H7386 C7374 0.956 . S
H7387 C7374 0.961 . S
H7388 C7374 0.961 . S
H7389 C7375 0.958 . S
H7390 C7375 0.961 . S
H7391 C7375 0.960 . S
C7392 C7393 1.391 . S
C7392 C7394 1.394 . S
C7392 H7408 0.931 . S
C7393 C7392 1.391 . S
C7393 C7397 1.376 . S
C7394 C7392 1.394 . S
C7394 C7395 1.369 . S
C7394 C7398 1.531 . S
C7395 C7394 1.369 . S
C7395 C7396 1.410 . S
C7395 C7403 1.503 . S
C7396 C7395 1.410 . S
C7396 C7397 1.392 . S
C7396 C7399 1.511 . S
C7397 C7393 1.376 . S
C7397 C7396 1.392 . S
C7397 H7409 0.929 . S
C7398 C7394 1.531 . S
C7398 H7410 0.960 . S
C7398 H7411 0.962 . S
C7398 H7412 0.960 . S
C7399 C7396 1.511 . S
C7399 H7413 0.961 . S
C7399 H7414 0.961 . S
C7399 H7415 0.961 . S
C7400 C7401 1.370 . S
C7400 C7402 1.363 . S
C7400 H7416 0.931 . S
C7401 C7400 1.370 . S
C7401 C7405 1.408 . S
C7402 C7400 1.363 . S
C7402 C7403 1.370 . S
C7402 C7406 1.524 . S
C7403 C7395 1.503 . S
C7403 C7402 1.370 . S
C7403 C7404 1.403 . S
C7404 C7403 1.403 . S
C7404 C7405 1.404 . S
C7404 C7407 1.539 . S
C7405 C7401 1.408 . S
C7405 C7404 1.404 . S
C7405 H7417 0.930 . S
C7406 C7402 1.524 . S
C7406 H7418 0.956 . S
C7406 H7419 0.961 . S
C7406 H7420 0.961 . S
C7407 C7404 1.539 . S
C7407 H7421 0.958 . S
C7407 H7422 0.961 . S
C7407 H7423 0.960 . S
H7408 C7392 0.931 . S
H7409 C7397 0.929 . S
H7410 C7398 0.960 . S
H7411 C7398 0.962 . S
H7412 C7398 0.960 . S
H7413 C7399 0.961 . S
H7414 C7399 0.961 . S
H7415 C7399 0.961 . S
H7416 C7400 0.931 . S
H7417 C7405 0.930 . S
H7418 C7406 0.956 . S
H7419 C7406 0.961 . S
H7420 C7406 0.961 . S
H7421 C7407 0.958 . S
H7422 C7407 0.961 . S
H7423 C7407 0.960 . S
C7424 C7425 1.391 . S
C7424 C7426 1.394 . S
C7424 H7440 0.931 . S
C7425 C7424 1.391 . S
C7425 C7429 1.376 . S
C7426 C7424 1.394 . S
C7426 C7427 1.369 . S
C7426 C7430 1.531 . S
C7427 C7426 1.369 . S
C7427 C7428 1.410 . S
C7427 C7435 1.503 . S
C7428 C7427 1.410 . S
C7428 C7429 1.392 . S
C7428 C7431 1.511 . S
C7429 C7425 1.376 . S
C7429 C7428 1.392 . S
C7429 H7441 0.929 . S
C7430 C7426 1.531 . S
C7430 H7442 0.960 . S
C7430 H7443 0.962 . S
C7430 H7444 0.960 . S
C7431 C7428 1.511 . S
C7431 H7445 0.961 . S
C7431 H7446 0.961 . S
C7431 H7447 0.961 . S
C7432 C7433 1.370 . S
C7432 C7434 1.363 . S
C7432 H7448 0.931 . S
C7433 C7432 1.370 . S
C7433 C7437 1.408 . S
C7434 C7432 1.363 . S
C7434 C7435 1.370 . S
C7434 C7438 1.524 . S
C7435 C7427 1.503 . S
C7435 C7434 1.370 . S
C7435 C7436 1.403 . S
C7436 C7435 1.403 . S
C7436 C7437 1.404 . S
C7436 C7439 1.539 . S
C7437 C7433 1.408 . S
C7437 C7436 1.404 . S
C7437 H7449 0.930 . S
C7438 C7434 1.524 . S
C7438 H7450 0.956 . S
C7438 H7451 0.961 . S
C7438 H7452 0.961 . S
C7439 C7436 1.539 . S
C7439 H7453 0.958 . S
C7439 H7454 0.961 . S
C7439 H7455 0.960 . S
H7440 C7424 0.931 . S
H7441 C7429 0.929 . S
H7442 C7430 0.960 . S
H7443 C7430 0.962 . S
H7444 C7430 0.960 . S
H7445 C7431 0.961 . S
H7446 C7431 0.961 . S
H7447 C7431 0.961 . S
H7448 C7432 0.931 . S
H7449 C7437 0.930 . S
H7450 C7438 0.956 . S
H7451 C7438 0.961 . S
H7452 C7438 0.961 . S
H7453 C7439 0.958 . S
H7454 C7439 0.961 . S
H7455 C7439 0.960 . S
C7456 C7457 1.391 . S
C7456 C7458 1.394 . S
C7456 H7472 0.931 . S
C7457 C7456 1.391 . S
C7457 C7461 1.376 . S
C7458 C7456 1.394 . S
C7458 C7459 1.369 . S
C7458 C7462 1.531 . S
C7459 C7458 1.369 . S
C7459 C7460 1.410 . S
C7459 C7467 1.503 . S
C7460 C7459 1.410 . S
C7460 C7461 1.392 . S
C7460 C7463 1.511 . S
C7461 C7457 1.376 . S
C7461 C7460 1.392 . S
C7461 H7473 0.929 . S
C7462 C7458 1.531 . S
C7462 H7474 0.960 . S
C7462 H7475 0.962 . S
C7462 H7476 0.960 . S
C7463 C7460 1.511 . S
C7463 H7477 0.961 . S
C7463 H7478 0.961 . S
C7463 H7479 0.961 . S
C7464 C7465 1.370 . S
C7464 C7466 1.363 . S
C7464 H7480 0.931 . S
C7465 C7464 1.370 . S
C7465 C7469 1.408 . S
C7466 C7464 1.363 . S
C7466 C7467 1.370 . S
C7466 C7470 1.524 . S
C7467 C7459 1.503 . S
C7467 C7466 1.370 . S
C7467 C7468 1.403 . S
C7468 C7467 1.403 . S
C7468 C7469 1.404 . S
C7468 C7471 1.539 . S
C7469 C7465 1.408 . S
C7469 C7468 1.404 . S
C7469 H7481 0.930 . S
C7470 C7466 1.524 . S
C7470 H7482 0.956 . S
C7470 H7483 0.961 . S
C7470 H7484 0.961 . S
C7471 C7468 1.539 . S
C7471 H7485 0.958 . S
C7471 H7486 0.961 . S
C7471 H7487 0.960 . S
H7472 C7456 0.931 . S
H7473 C7461 0.929 . S
H7474 C7462 0.960 . S
H7475 C7462 0.962 . S
H7476 C7462 0.960 . S
H7477 C7463 0.961 . S
H7478 C7463 0.961 . S
H7479 C7463 0.961 . S
H7480 C7464 0.931 . S
H7481 C7469 0.930 . S
H7482 C7470 0.956 . S
H7483 C7470 0.961 . S
H7484 C7470 0.961 . S
H7485 C7471 0.958 . S
H7486 C7471 0.961 . S
H7487 C7471 0.960 . S
C1345 C7 1.367 . S
C1353 C427 1.352 . S
C1377 C777 1.362 . S
C1385 C21 1.363 . S
C1409 C35 1.323 . S
C1417 C399 1.346 . S
C1441 C49 1.345 . S
C1449 C749 1.359 . S
C1473 C371 1.370 . S
C1481 C63 1.363 . S
C1505 C77 1.354 . S
C1513 C721 1.361 . S
C1537 C343 1.373 . S
C1545 C91 1.356 . S
C1569 C105 1.368 . S
C1577 C693 1.364 . S
C1601 C483 1.330 . S
C1609 C119 1.341 . S
C1633 C133 1.348 . S
C1641 C833 1.360 . S
C1665 C147 1.376 . S
C1673 C455 1.361 . S
C1697 C161 1.376 . S
C1705 C805 1.361 . S
C1729 C175 1.346 . S
C1737 C539 1.359 . S
C1761 C889 1.369 . S
C1769 C189 1.364 . S
C1793 C511 1.370 . S
C1801 C203 1.364 . S
C1825 C217 1.327 . S
C1833 C861 1.350 . S
C1857 C917 1.373 . S
C1865 C231 1.356 . S
C1889 C903 1.334 . S
C1897 C245 1.341 . S
C1921 C259 1.345 . S
C1929 C1001 1.359 . S
C1953 C1309 1.333 . S
C1961 C273 1.341 . S
C1985 C651 1.356 . S
C1993 C287 1.362 . S
C2017 C301 1.364 . S
C2025 C1281 1.350 . S
C2049 C315 1.327 . S
C2057 C623 1.350 . S
C2081 C329 1.341 . S
C2089 C931 1.357 . S
C2113 C357 1.361 . S
C2121 C1113 1.363 . S
C2145 C385 1.338 . S
C2153 C1085 1.342 . S
C2177 C413 1.352 . S
C2185 C1057 1.346 . S
C2209 C441 1.325 . S
C2217 C1029 1.342 . S
C2241 C1169 1.341 . S
C2249 C469 1.357 . S
C2273 C497 1.322 . S
C2281 C1141 1.344 . S
C2305 C1225 1.333 . S
C2313 C525 1.354 . S
C2337 C553 1.354 . S
C2345 C1197 1.361 . S
C2369 C567 1.341 . S
C2377 C1253 1.343 . S
C2401 C581 1.367 . S
C2409 C1239 1.364 . S
C2433 C595 1.322 . S
C2441 C1337 1.346 . S
C2465 C973 1.353 . S
C2473 C609 1.346 . S
C2497 C945 1.359 . S
C2505 C637 1.362 . S
C2529 C665 1.329 . S
C2537 C1267 1.351 . S
C2561 C679 1.341 . S
C2569 C1099 1.342 . S
C2593 C1071 1.376 . S
C2601 C707 1.360 . S
C2625 C735 1.367 . S
C2633 C1043 1.363 . S
C2657 C763 1.357 . S
C2665 C1015 1.348 . S
C2689 C1155 1.357 . S
C2697 C791 1.347 . S
C2721 C1127 1.375 . S
C2729 C819 1.359 . S
C2753 C847 1.322 . S
C2761 C1211 1.344 . S
C2785 C1183 1.345 . S
C2793 C875 1.343 . S
C2817 C959 1.322 . S
C2825 C1323 1.344 . S
C2849 C987 1.375 . S
C2857 C1295 1.358 . S
C2881 C8 1.371 . S
C2889 C778 1.365 . S
C2913 C22 1.356 . S
C2921 C400 1.366 . S
C2945 C36 1.372 . S
C2953 C750 1.370 . S
C2977 C428 1.375 . S
C2985 C50 1.368 . S
C3009 C64 1.361 . S
C3017 C358 1.368 . S
C3041 C78 1.363 . S
C3049 C708 1.361 . S
C3073 C92 1.367 . S
C3081 C386 1.363 . S
C3105 C680 1.371 . S
C3113 C106 1.365 . S
C3137 C120 1.348 . S
C3145 C288 1.358 . S
C3169 C134 1.349 . S
C3177 C1254 1.358 . S
C3201 C1268 1.347 . S
C3209 C148 1.358 . S
C3233 C162 1.372 . S
C3241 C1282 1.370 . S
C3265 C1002 1.373 . S
C3273 C176 1.370 . S
C3297 C1310 1.368 . S
C3305 C190 1.370 . S
C3329 C204 1.375 . S
C3337 C988 1.369 . S
C3361 C904 1.369 . S
C3369 C218 1.364 . S
C3393 C890 1.367 . S
C3401 C232 1.370 . S
C3425 C1142 1.346 . S
C3433 C246 1.359 . S
C3457 C260 1.349 . S
C3465 C1156 1.358 . S
C3489 C274 1.358 . S
C3497 C1170 1.367 . S
C3521 C302 1.346 . S
C3529 C1198 1.359 . S
C3553 C316 1.374 . S
C3561 C876 1.370 . S
C3585 C848 1.348 . S
C3593 C330 1.358 . S
C3617 C344 1.346 . S
C3625 C1114 1.360 . S
C3649 C1086 1.366 . S
C3657 C372 1.362 . S
C3681 C1044 1.372 . S
C3689 C414 1.370 . S
C3713 C442 1.371 . S
C3721 C1016 1.365 . S
C3745 C456 1.372 . S
C3753 C624 1.370 . S
C3777 C470 1.359 . S
C3785 C918 1.368 . S
C3809 C484 1.375 . S
C3817 C932 1.370 . S
C3841 C498 1.346 . S
C3849 C946 1.359 . S
C3873 C512 1.353 . S
C3881 C1338 1.358 . S
C3905 C974 1.350 . S
C3913 C526 1.363 . S
C3937 C1324 1.363 . S
C3945 C540 1.369 . S
C3969 C1240 1.373 . S
C3977 C554 1.366 . S
C4001 C1226 1.375 . S
C4009 C568 1.368 . S
C4033 C582 1.347 . S
C4041 C806 1.358 . S
C4065 C596 1.375 . S
C4073 C820 1.370 . S
C4097 C610 1.346 . S
C4105 C834 1.360 . S
C4129 C862 1.346 . S
C4137 C638 1.360 . S
C4161 C1212 1.347 . S
C4169 C652 1.358 . S
C4193 C1184 1.347 . S
C4201 C666 1.358 . S
C4225 C694 1.355 . S
C4233 C1072 1.366 . S
C4257 C722 1.373 . S
C4265 C1100 1.366 . S
C4289 C1030 1.362 . S
C4297 C736 1.361 . S
C4321 C1058 1.346 . S
C4329 C764 1.360 . S
C4353 C960 1.362 . S
C4361 C792 1.368 . S
C4385 C1296 1.361 . S
C4393 C1128 1.368 . S
C4417 C9 1.037 . S
C4425 C1305 1.181 . S
C4449 C23 1.063 . S
C4457 C983 1.183 . S
C4481 C899 1.176 . S
C4489 C37 1.107 . S
C4513 C997 1.165 . S
C4521 C51 1.057 . S
C4545 C65 1.107 . S
C4553 C269 1.182 . S
C4577 C79 1.137 . S
C4585 C1291 1.177 . S
C4609 C241 1.190 . S
C4617 C93 1.068 . S
C4641 C255 1.193 . S
C4649 C107 1.080 . S
C4673 C395 1.181 . S
C4681 C121 1.057 . S
C4705 C135 1.080 . S
C4713 C745 1.165 . S
C4737 C149 1.025 . S
C4745 C423 1.170 . S
C4769 C163 1.125 . S
C4777 C773 1.168 . S
C4801 C339 1.154 . S
C4809 C177 1.069 . S
C4833 C191 1.055 . S
C4841 C689 1.183 . S
C4865 C367 1.190 . S
C4873 C205 1.067 . S
C4897 C219 1.026 . S
C4905 C717 1.170 . S
C4929 C233 1.106 . S
C4937 C1207 1.166 . S
C4961 C479 1.192 . S
C4969 C247 1.090 . S
C4993 C261 1.029 . S
C5001 C829 1.170 . S
C5025 C451 1.190 . S
C5033 C275 1.093 . S
C5057 C289 1.092 . S
C5065 C465 1.183 . S
C5089 C843 1.163 . S
C5097 C303 1.059 . S
C5121 C185 1.192 . S
C5129 C317 1.072 . S
C5153 C213 1.175 . S
C5161 C331 1.056 . S
C5185 C969 1.193 . S
C5193 C345 1.080 . S
C5217 C359 1.080 . S
C5225 C1319 1.165 . S
C5249 C1235 1.174 . S
C5257 C373 1.056 . S
C5281 C387 1.036 . S
C5289 C1333 1.169 . S
C5313 C605 1.181 . S
C5321 C401 1.057 . S
C5345 C955 1.155 . S
C5353 C415 1.101 . S
C5377 C429 1.080 . S
C5385 C577 1.165 . S
C5409 C443 1.142 . S
C5417 C591 1.174 . S
C5441 C457 1.096 . S
C5449 C59 1.183 . S
C5473 C471 1.140 . S
C5481 C1081 1.176 . S
C5505 C87 1.166 . S
C5513 C485 1.108 . S
C5537 C499 1.091 . S
C5545 C1109 1.166 . S
C5569 C3 1.154 . S
C5577 C513 1.069 . S
C5601 C527 1.074 . S
C5609 C1025 1.166 . S
C5633 C31 1.150 . S
C5641 C541 1.082 . S
C5665 C1053 1.191 . S
C5673 C555 1.092 . S
C5697 C569 1.044 . S
C5705 C871 1.167 . S
C5729 C583 1.141 . S
C5737 C143 1.176 . S
C5761 C1165 1.177 . S
C5769 C597 1.107 . S
C5793 C611 1.116 . S
C5801 C115 1.167 . S
C5825 C129 1.186 . S
C5833 C625 1.061 . S
C5857 C639 1.051 . S
C5865 C1179 1.183 . S
C5889 C521 1.181 . S
C5897 C653 1.057 . S
C5921 C667 1.135 . S
C5929 C549 1.178 . S
C5953 C633 1.173 . S
C5961 C681 1.108 . S
C5985 C695 1.016 . S
C5993 C311 1.174 . S
C6017 C709 1.050 . S
C6025 C227 1.167 . S
C6049 C723 1.124 . S
C6057 C325 1.181 . S
C6081 C737 1.124 . S
C6089 C941 1.167 . S
C6113 C619 1.152 . S
C6121 C751 1.072 . S
C6145 C913 1.185 . S
C6153 C765 1.060 . S
C6177 C779 1.119 . S
C6185 C927 1.167 . S
C6209 C1067 1.161 . S
C6217 C793 1.106 . S
C6241 C73 1.193 . S
C6249 C807 1.085 . S
C6273 C1095 1.193 . S
C6281 C821 1.077 . S
C6305 C835 1.064 . S
C6313 C101 1.183 . S
C6337 C1011 1.177 . S
C6345 C849 1.056 . S
C6369 C863 1.140 . S
C6377 C17 1.176 . S
C6401 C1039 1.192 . S
C6409 C877 1.073 . S
C6433 C45 1.152 . S
C6441 C891 1.074 . S
C6465 C535 1.190 . S
C6473 C905 1.067 . S
C6497 C919 1.074 . S
C6505 C1151 1.166 . S
C6529 C933 1.018 . S
C6537 C157 1.173 . S
C6561 C1123 1.153 . S
C6569 C947 1.071 . S
C6593 C961 1.016 . S
C6601 C1137 1.175 . S
C6625 C171 1.186 . S
C6633 C975 1.101 . S
C6657 C857 1.164 . S
C6665 C989 1.107 . S
C6689 C1003 1.026 . S
C6697 C885 1.180 . S
C6721 C1017 1.038 . S
C6729 C297 1.168 . S
C6753 C647 1.169 . S
C6761 C1031 1.108 . S
C6785 C563 1.187 . S
C6793 C1045 1.099 . S
C6817 C1059 1.120 . S
C6825 C661 1.167 . S
C6849 C1073 1.092 . S
C6857 C1277 1.183 . S
C6881 C283 1.181 . S
C6889 C1087 1.105 . S
C6913 C1249 1.158 . S
C6921 C1101 1.063 . S
C6945 C1263 1.188 . S
C6953 C1115 1.064 . S
C6977 C731 1.190 . S
C6985 C1129 1.067 . S
C7009 C1143 1.099 . S
C7017 C409 1.183 . S
C7041 C1157 1.026 . S
C7049 C759 1.170 . S
C7073 C1171 1.110 . S
C7081 C437 1.166 . S
C7105 C675 1.155 . S
C7113 C1185 1.100 . S
C7137 C1199 1.096 . S
C7145 C353 1.166 . S
C7169 C1213 1.037 . S
C7177 C703 1.168 . S
C7201 C1227 1.078 . S
C7209 C381 1.166 . S
C7233 C199 1.160 . S
C7241 C1241 1.105 . S
C7265 C1255 1.108 . S
C7273 C815 1.182 . S
C7297 C1269 1.142 . S
C7305 C493 1.175 . S
C7329 C1283 1.017 . S
C7337 C787 1.174 . S
C7361 C1297 1.016 . S
C7369 C801 1.176 . S
C7393 C507 1.193 . S
C7401 C1311 1.083 . S
C7425 C1193 1.152 . S
C7433 C1325 1.096 . S
C7457 C1221 1.191 . S
C7465 C1339 1.093 . S
