# Generated by pormake.
# Topology qdl, (4)-cn, num edge types: 1
# Building blocks:
#     Node 0, Type 0, BuildingBlock: KOZSID_clean_sbu_0, # of connection points: 4
#     Node 1, Type 0, BuildingBlock: KOZSID_clean_sbu_0, # of connection points: 4
#     Node 2, Type 0, BuildingBlock: KOZSID_clean_sbu_0, # of connection points: 4
#     Node 3, Type 0, BuildingBlock: KOZSID_clean_sbu_0, # of connection points: 4
#     Node 4, Type 0, BuildingBlock: KOZSID_clean_sbu_0, # of connection points: 4
#     Node 5, Type 0, BuildingBlock: KOZSID_clean_sbu_0, # of connection points: 4
#     Edge 6, Type (0, 0), BuildingBlock: KIFKEQ_clean_linker_1, # of connection points: 2
#     Edge 7, Type (0, 0), BuildingBlock: KIFKEQ_clean_linker_1, # of connection points: 2
#     Edge 8, Type (0, 0), BuildingBlock: KIFKEQ_clean_linker_1, # of connection points: 2
#     Edge 9, Type (0, 0), BuildingBlock: KIFKEQ_clean_linker_1, # of connection points: 2
#     Edge 10, Type (0, 0), BuildingBlock: KIFKEQ_clean_linker_1, # of connection points: 2
#     Edge 11, Type (0, 0), BuildingBlock: KIFKEQ_clean_linker_1, # of connection points: 2
#     Edge 12, Type (0, 0), BuildingBlock: KIFKEQ_clean_linker_1, # of connection points: 2
#     Edge 13, Type (0, 0), BuildingBlock: KIFKEQ_clean_linker_1, # of connection points: 2
#     Edge 14, Type (0, 0), BuildingBlock: KIFKEQ_clean_linker_1, # of connection points: 2
#     Edge 15, Type (0, 0), BuildingBlock: KIFKEQ_clean_linker_1, # of connection points: 2
#     Edge 16, Type (0, 0), BuildingBlock: KIFKEQ_clean_linker_1, # of connection points: 2
#     Edge 17, Type (0, 0), BuildingBlock: KIFKEQ_clean_linker_1, # of connection points: 2
# Relax obj value: 0.000
# Max RMSD: 0.050
# Mean RMSD: 0.048
data_MOF--net-qdl--node1-KOZSID_clean_sbu_0--edge1-KIFKEQ_clean_linker_1
_symmetry_space_group_name_H-M    P1
_symmetry_Int_Tables_number       1
_symmetry_cell_setting            triclinic
loop_
_symmetry_equiv_pos_as_xyz
'x, y, z'
_cell_length_a     16.956965
_cell_length_b     16.947033
_cell_length_c     118.33074
_cell_angle_alpha  101.67942
_cell_angle_beta   101.71639
_cell_angle_gamma 120.10382
loop_
_atom_site_label
_atom_site_type_symbol
_atom_site_fract_x
_atom_site_fract_y
_atom_site_fract_z
_atom_type_partial_charge
C0 C 0.24814 0.50603 0.10052 0.0
C1 C 0.1582 0.49364 0.09807 0.0
C2 C 0.08924 0.3957 0.09417 0.0
C3 C 0.14058 0.35393 0.09441 0.0
N4 N 0.23846 0.41938 0.09839 0.0
Co5 Co 0.34025 0.3902 0.09964 0.0
N6 N 0.2378 0.24555 0.09242 0.0
C7 C 0.13971 0.20026 0.08838 0.0
C8 C 0.08819 0.1004 0.08431 0.0
C9 C 0.15736 0.08048 0.08597 0.0
C10 C 0.24757 0.16986 0.09096 0.0
N11 N 0.4421 0.36117 0.10108 0.0
C12 C 0.43224 0.27448 0.09889 0.0
C13 C 0.52199 0.2865 0.1014 0.0
C14 C 0.59134 0.38458 0.10563 0.0
C15 C 0.54015 0.42654 0.10541 0.0
N16 N 0.44258 0.53469 0.10662 0.0
C17 C 0.54065 0.58021 0.11047 0.0
C18 C 0.59194 0.68009 0.11445 0.0
C19 C 0.5225 0.69966 0.11283 0.0
C20 C 0.43259 0.61009 0.10789 0.0
N21 N 0.34545 0.38869 0.11657 0.0
C22 C 0.35274 0.37659 0.14018 0.0
C23 C 0.43776 0.43762 0.13816 0.0
C24 C 0.43261 0.44191 0.12636 0.0
C25 C 0.26397 0.32342 0.13028 0.0
C26 C 0.26188 0.33131 0.11871 0.0
N27 N 0.33494 0.39143 0.0827 0.0
C28 C 0.4161 0.44187 0.06834 0.0
C29 C 0.3266 0.39618 0.05875 0.0
C30 C 0.24148 0.34811 0.0614 0.0
C31 C 0.24726 0.34679 0.0733 0.0
C32 C 0.41857 0.43842 0.08012 0.0
H33 H 0.17964 0.30972 0.07468 0.0
H34 H 0.48902 0.47449 0.08699 0.0
H35 H 0.50027 0.48778 0.12535 0.0
H36 H 0.19168 0.28947 0.11162 0.0
C37 C 0.09852 0.2536 0.0897 0.0
C38 C 0.33999 0.60042 0.10402 0.0
C39 C 0.34021 0.17961 0.09497 0.0
C40 C 0.58213 0.52693 0.10969 0.0
H41 H 0.14337 0.54909 0.09863 0.0
H42 H 1.01074 0.35902 0.091 0.0
H43 H 1.00977 0.04841 0.08101 0.0
H44 H 0.14268 1.00832 0.0841 0.0
H45 H 0.53585 0.23018 0.10052 0.0
H46 H 0.66981 0.42105 0.10877 0.0
H47 H 0.67037 0.73229 0.11783 0.0
H48 H 0.53629 0.77158 0.1148 0.0
H49 H 0.5083 0.47999 0.14558 0.0
H50 H 0.19602 0.27623 0.13147 0.0
H51 H 0.48419 0.4792 0.06674 0.0
H52 H 0.17031 0.31276 0.05437 0.0
C53 C 0.43079 0.26009 0.43234 0.0
C54 C 0.52024 0.34966 0.43846 0.0
C55 C 0.50055 0.41862 0.44107 0.0
C56 C 0.40074 0.36765 0.43639 0.0
N57 N 0.35529 0.27003 0.43107 0.0
Co58 Co 0.21097 0.16896 0.42275 0.0
N59 N 0.18296 0.27188 0.42503 0.0
C60 C 0.24916 0.36991 0.43001 0.0
C61 C 0.20813 0.4219 0.43063 0.0
C62 C 0.10981 0.3531 0.4259 0.0
C63 C 0.09648 0.2626 0.42262 0.0
N64 N 0.06658 0.0677 0.4148 0.0
C65 C 0.99134 0.0779 0.41363 0.0
C66 C 0.90158 0.98828 0.40797 0.0
C67 C 0.92074 0.91867 0.40575 0.0
C68 C 1.0206 0.96959 0.41014 0.0
N69 N 0.23908 0.06628 0.42007 0.0
C70 C 0.17329 0.96839 0.41461 0.0
C71 C 0.21468 0.9168 0.41365 0.0
C72 C 0.31293 0.98596 0.41854 0.0
C73 C 0.32562 0.07601 0.42218 0.0
N74 N 0.202 0.16086 0.43907 0.0
C75 C 0.17961 0.14886 0.46179 0.0
C76 C 0.14997 0.06589 0.45211 0.0
C77 C 0.16083 0.07327 0.44087 0.0
C78 C 0.22233 0.23807 0.46003 0.0
C79 C 0.23391 0.24262 0.44877 0.0
N80 N 0.21985 0.17723 0.40645 0.0
C81 C 0.17555 0.0995 0.38451 0.0
C82 C 0.23718 0.18943 0.3835 0.0
C83 C 0.2894 0.27306 0.39418 0.0
C84 C 0.27965 0.26542 0.40543 0.0
C85 C 0.16817 0.09507 0.39597 0.0
H86 H 0.32158 0.33205 0.41318 0.0
H87 H 0.12076 1.02427 0.39614 0.0
H88 H 0.1342 1.00686 0.43374 0.0
H89 H 0.26824 0.3132 0.44813 0.0
C90 C 0.34863 0.41027 0.43541 0.0
C91 C 0.42113 0.16863 0.42711 0.0
C92 C 1.00108 0.17013 0.41816 0.0
C93 C 0.07318 0.92737 0.41025 0.0
H94 H 0.59245 0.36442 0.44046 0.0
H95 H 0.55291 0.49704 0.44532 0.0
H96 H 0.24527 0.50035 0.4346 0.0
H97 H 0.0546 0.36821 0.42537 0.0
H98 H 0.82971 0.97467 0.40587 0.0
H99 H 0.86816 0.84023 0.40166 0.0
H100 H 0.17781 0.83842 0.40964 0.0
H101 H 0.36901 0.97193 0.41915 0.0
H102 H 0.11622 0.99513 0.45308 0.0
H103 H 0.24754 0.30447 0.46737 0.0
H104 H 0.1342 0.03234 0.37654 0.0
H105 H 0.33699 0.34471 0.39388 0.0
C106 C 0.23888 0.47182 0.76073 0.0
C107 C 0.23431 0.55211 0.76146 0.0
C108 C 0.13924 0.51991 0.75941 0.0
C109 C 0.09154 0.42234 0.7576 0.0
N110 N 0.15069 0.39054 0.75859 0.0
Co111 Co 0.1116 0.25364 0.75617 0.0
N112 N 0.97032 0.20446 0.75204 0.0
C113 C 0.93132 0.25692 0.75134 0.0
C114 C 0.8324 0.20347 0.74865 0.0
C115 C 0.80683 0.11172 0.74783 0.0
C116 C 0.89217 0.11488 0.75013 0.0
N117 N 0.07226 0.11644 0.75369 0.0
C118 C 0.98422 0.03536 0.75169 0.0
C119 C 0.98931 0.95549 0.75114 0.0
C120 C 0.08405 0.98741 0.75297 0.0
C121 C 0.13135 0.08456 0.75458 0.0
N122 N 0.25317 0.30309 0.7604 0.0
C123 C 0.29191 0.25033 0.76104 0.0
C124 C 0.39058 0.30329 0.76359 0.0
C125 C 0.41644 0.39513 0.76445 0.0
C126 C 0.3316 0.39291 0.76241 0.0
N127 N 0.12743 0.27757 0.77394 0.0
C128 C 0.14011 0.29948 0.79875 0.0
C129 C 0.18567 0.26185 0.79324 0.0
C130 C 0.17779 0.2509 0.78097 0.0
C131 C 0.09001 0.32825 0.79162 0.0
C132 C 0.08543 0.31761 0.7794 0.0
N133 N 0.09578 0.22958 0.7384 0.0
C134 C 0.13715 0.182 0.72099 0.0
C135 C 0.08327 0.20571 0.71352 0.0
C136 C 0.03433 0.24011 0.71878 0.0
C137 C 0.04246 0.25245 0.73112 0.0
C138 C 0.141 0.19282 0.73315 0.0
H139 H 1.00548 0.28138 0.73458 0.0
H140 H 0.18236 0.17212 0.73817 0.0
H141 H 0.21243 0.21971 0.77735 0.0
H142 H 0.04628 0.34103 0.77451 0.0
C143 C 0.99063 0.35763 0.75411 0.0
C144 C 0.32765 0.47554 0.76153 0.0
C145 C 0.89612 0.03262 0.75113 0.0
C146 C 0.23232 0.1494 0.75812 0.0
H147 H 0.29326 0.62575 0.76301 0.0
H148 H 0.10806 0.56191 0.75891 0.0
H149 H 0.78511 0.22894 0.74781 0.0
H150 H 0.73412 0.05007 0.74609 0.0
H151 H 0.93147 0.88245 0.74995 0.0
H152 H 0.11552 0.94575 0.75359 0.0
H153 H 0.43743 0.27727 0.76424 0.0
H154 H 0.48905 0.45577 0.76598 0.0
H155 H 0.22778 0.24075 0.79836 0.0
H156 H 0.05257 0.35715 0.79531 0.0
H157 H 0.17829 0.15673 0.71764 0.0
H158 H 0.98944 0.25761 0.71347 0.0
C159 C 0.98801 0.24313 0.5856 0.0
C160 C 1.00161 0.33371 0.58891 0.0
C161 C 0.09985 0.40227 0.59319 0.0
C162 C 0.14051 0.34997 0.59232 0.0
N163 N 0.07418 0.252 0.58753 0.0
Co164 Co 0.10181 0.14897 0.58568 0.0
N165 N 0.24676 0.25018 0.59253 0.0
C166 C 0.29303 0.3484 0.59633 0.0
C167 C 0.39253 0.39886 0.59983 0.0
C168 C 0.41112 0.32873 0.59797 0.0
C169 C 0.32139 0.23915 0.5935 0.0
N170 N 0.12926 0.04605 0.58414 0.0
C171 C 0.21528 0.05467 0.58624 0.0
C172 C 0.20226 0.9646 0.5841 0.0
C173 C 0.10417 0.89633 0.58026 0.0
C174 C 0.06317 0.94846 0.58034 0.0
N175 N 0.95709 0.04768 0.57842 0.0
C176 C 0.91083 0.94943 0.57407 0.0
C177 C 0.81099 0.89883 0.56966 0.0
C178 C 0.79222 0.96889 0.57143 0.0
C179 C 0.88217 0.05842 0.57693 0.0
N180 N 0.10256 0.14529 0.56878 0.0
C181 C 0.1114 0.14081 0.54501 0.0
C182 C 0.06063 0.0545 0.5474 0.0
C183 C 0.05799 0.05841 0.55923 0.0
C184 C 0.15662 0.22933 0.55481 0.0
C185 C 0.15028 0.22982 0.56642 0.0
N186 N 0.10108 0.15273 0.60262 0.0
C187 C 0.03067 0.0736 0.61626 0.0
C188 C 0.09375 0.16058 0.62656 0.0
C189 C 0.16163 0.24305 0.62457 0.0
C190 C 0.16308 0.2379 0.61268 0.0
C191 C 0.0366 0.07099 0.60457 0.0
H192 H 0.21501 0.30431 0.61191 0.0
H193 H 0.98729 1.0019 0.59725 0.0
H194 H 1.01985 0.99007 0.56046 0.0
H195 H 0.18564 0.29969 0.57338 0.0
C196 C 0.24055 0.39075 0.5962 0.0
C197 C 0.89254 0.151 0.58134 0.0
C198 C 0.31021 0.14563 0.58971 0.0
C199 C 0.96313 0.90728 0.57554 0.0
H200 H 0.94654 0.34892 0.58856 0.0
H201 H 0.13731 0.4809 0.59678 0.0
H202 H 0.44508 0.47719 0.60308 0.0
H203 H 0.48259 0.34226 0.59949 0.0
H204 H 0.25782 0.94971 0.58492 0.0
H205 H 0.06692 0.81777 0.57729 0.0
H206 H 0.7582 0.8204 0.56604 0.0
H207 H 0.7205 0.95566 0.5693 0.0
H208 H 1.02232 0.9836 0.54018 0.0
H209 H 0.19851 0.29876 0.55367 0.0
H210 H 0.9754 1.00736 0.61705 0.0
H211 H 0.21441 0.31202 0.63214 0.0
C212 C 1.01945 0.25181 0.92512 0.0
C213 C 0.93879 0.25597 0.92425 0.0
C214 C 0.97013 0.35051 0.92599 0.0
C215 C 0.06769 0.3986 0.92785 0.0
N216 N 0.10042 0.34024 0.92723 0.0
Co217 Co 0.23805 0.38075 0.92989 0.0
N218 N 0.28666 0.52209 0.93423 0.0
C219 C 0.23363 0.56026 0.93507 0.0
C220 C 0.2863 0.65926 0.93784 0.0
C221 C 0.37826 0.68595 0.93866 0.0
C222 C 0.37639 0.60122 0.93637 0.0
N223 N 0.37513 0.42076 0.93222 0.0
C224 C 0.45582 0.50923 0.93431 0.0
C225 C 0.53608 0.50506 0.9348 0.0
C226 C 0.50441 0.40996 0.93262 0.0
C227 C 0.40717 0.36183 0.93097 0.0
N228 N 0.19006 0.23982 0.92592 0.0
C229 C 0.24345 0.20168 0.92549 0.0
C230 C 0.19098 0.10305 0.92305 0.0
C231 C 0.09897 0.07681 0.92215 0.0
C232 C 0.10094 0.16147 0.92413 0.0
N233 N 0.21411 0.36493 0.91212 0.0
C234 C 0.1921 0.35166 0.88728 0.0
C235 C 0.22295 0.30041 0.89254 0.0
C236 C 0.23399 0.30854 0.90484 0.0
C237 C 0.17015 0.40789 0.89467 0.0
C238 C 0.18072 0.41274 0.90689 0.0
N239 N 0.26199 0.39641 0.94764 0.0
C240 C 0.32323 0.36676 0.96551 0.0
C241 C 0.2839 0.40516 0.97229 0.0
C242 C 0.23566 0.44161 0.9666 0.0
C243 C 0.22564 0.43658 0.95439 0.0
C244 C 0.31185 0.36343 0.95335 0.0
H245 H 0.18679 0.46419 0.95053 0.0
H246 H 0.34312 0.33272 0.94872 0.0
H247 H 0.25958 0.269 0.90824 0.0
H248 H 0.16265 0.45679 0.91196 0.0
C249 C 0.13244 0.49986 0.93175 0.0
C250 C 1.01765 0.16447 0.92482 0.0
C251 C 0.45901 0.59799 0.93531 0.0
C252 C 0.3435 0.26112 0.92786 0.0
H253 H 0.86565 0.19778 0.92296 0.0
H254 H 0.9279 0.38145 0.92647 0.0
H255 H 0.25987 0.70576 0.93858 0.0
H256 H 0.43861 0.75901 0.9403 0.0
H257 H 0.6094 0.56439 0.93631 0.0
H258 H 0.54668 0.37917 0.93203 0.0
H259 H 0.21711 0.05629 0.92233 0.0
H260 H 0.03781 1.00405 0.9205 0.0
H261 H 0.23856 0.25359 0.88723 0.0
H262 H 0.1467 0.44988 0.89117 0.0
H263 H 0.36298 0.33934 0.96956 0.0
H264 H 0.20336 0.47166 0.97142 0.0
C265 C 0.22889 0.05986 0.25289 0.0
C266 C 0.13944 0.97031 0.24674 0.0
C267 C 0.07041 0.98986 0.24412 0.0
C268 C 0.12122 0.0897 0.24882 0.0
N269 N 0.21881 0.1353 0.25417 0.0
Co270 Co 0.31972 0.2797 0.2625 0.0
N271 N 0.21671 0.3075 0.26014 0.0
C272 C 0.11874 0.24121 0.25513 0.0
C273 C 0.06669 0.28217 0.25448 0.0
C274 C 0.13539 0.38055 0.25925 0.0
C275 C 0.22589 0.39396 0.26256 0.0
N276 N 0.42081 0.42415 0.27048 0.0
C277 C 0.4105 0.49934 0.27166 0.0
C278 C 0.49999 0.5892 0.27738 0.0
C279 C 0.56964 0.57017 0.27963 0.0
C280 C 0.51888 0.47027 0.2752 0.0
N281 N 0.42249 0.2518 0.26524 0.0
C282 C 0.52031 0.31768 0.27072 0.0
C283 C 0.57196 0.27636 0.27169 0.0
C284 C 0.50293 0.17805 0.26676 0.0
C285 C 0.41288 0.16527 0.2631 0.0
N286 N 0.32822 0.28865 0.2462 0.0
C287 C 0.33988 0.30655 0.22318 0.0
C288 C 0.42319 0.3395 0.23314 0.0
C289 C 0.4159 0.3306 0.24446 0.0
C290 C 0.2507 0.26413 0.22503 0.0
C291 C 0.24644 0.25508 0.2364 0.0
N292 N 0.31102 0.27073 0.27878 0.0
C293 C 0.38806 0.31514 0.30075 0.0
C294 C 0.29787 0.25423 0.30175 0.0
C295 C 0.21455 0.20184 0.29102 0.0
C296 C 0.22268 0.21115 0.27977 0.0
C297 C 0.39293 0.32223 0.28929 0.0
H298 H 0.1563 0.16869 0.27198 0.0
H299 H 0.46382 0.36969 0.28916 0.0
H300 H 0.48239 0.35859 0.25167 0.0
H301 H 0.17595 0.22136 0.23705 0.0
C302 C 0.07847 0.1417 0.24975 0.0
C303 C 0.32036 0.06967 0.25812 0.0
C304 C 0.3183 0.48946 0.26709 0.0
C305 C 0.56122 0.4178 0.27511 0.0
H306 H 0.12481 0.8981 0.24472 0.0
H307 H 0.99206 0.9374 0.23983 0.0
H308 H 0.98828 0.24495 0.25049 0.0
H309 H 0.12023 0.43575 0.25978 0.0
H310 H 0.51348 0.66106 0.2795 0.0
H311 H 0.64802 0.62284 0.28377 0.0
H312 H 0.65031 0.31331 0.27571 0.0
H313 H 0.51702 0.12199 0.26613 0.0
H314 H 0.4941 0.37151 0.23225 0.0
H315 H 0.18385 0.23895 0.2178 0.0
H316 H 0.45482 0.35825 0.3088 0.0
H317 H 0.14302 0.15235 0.2912 0.0
H318 H 0.28621 1.01677 0.07655 0.0
H319 H 0.39842 0.15421 0.11621 0.0
H320 H 0.28481 0.8755 0.07872 0.0
H321 H 0.40118 1.01532 0.11853 0.0
H322 H 0.29348 0.70743 0.11808 0.0
H323 H 0.29284 0.8474 0.11577 0.0
H324 H 0.39134 0.82648 0.08499 0.0
H325 H 0.38779 0.68425 0.08711 0.0
C326 C 0.31095 1.01639 0.08572 0.0
C327 C 0.34148 0.09497 0.09622 0.0
C328 C 0.31099 0.93622 0.08699 0.0
C329 C 0.34264 0.93385 0.09881 0.0
C330 C 0.37466 1.01383 0.1093 0.0
C331 C 0.3739 0.09357 0.10801 0.0
C332 C 0.31417 0.73287 0.1108 0.0
C333 C 0.33959 0.68528 0.10268 0.0
C334 C 0.31478 0.81332 0.10952 0.0
C335 C 0.34196 0.84824 0.10018 0.0
C336 C 0.36841 0.80062 0.09215 0.0
C337 C 0.36707 0.71979 0.09338 0.0
H338 H 0.45344 0.12539 0.40593 0.0
H339 H 0.57906 0.21191 0.44542 0.0
H340 H 0.59195 0.12248 0.40354 0.0
H341 H 0.72023 0.2135 0.44323 0.0
H342 H 0.90853 0.10996 0.43393 0.0
H343 H 0.76651 0.10699 0.43597 0.0
H344 H 0.76142 0.2281 0.40718 0.0
H345 H 0.90092 0.22663 0.40488 0.0
C346 C 0.5116 0.14462 0.41409 0.0
C347 C 0.50684 0.16969 0.42585 0.0
C348 C 0.59113 0.14368 0.41276 0.0
C349 C 0.66765 0.16821 0.4232 0.0
C350 C 0.66217 0.19305 0.43498 0.0
C351 C 0.58213 0.19316 0.43628 0.0
C352 C 0.87632 0.1355 0.42805 0.0
C353 C 0.91521 0.16915 0.41933 0.0
C354 C 0.7957 0.13463 0.42926 0.0
C355 C 0.75272 0.16787 0.42179 0.0
C356 C 0.79182 0.20091 0.41299 0.0
C357 C 0.87199 0.20096 0.41172 0.0
H358 H 0.83984 0.03708 0.77096 0.0
H359 H 0.76604 0.8455 0.73477 0.0
H360 H 0.7004 0.90435 0.77355 0.0
H361 H 0.62838 0.71093 0.73742 0.0
H362 H 0.33353 0.52086 0.7409 0.0
H363 H 0.47026 0.65713 0.73838 0.0
H364 H 0.64498 0.75265 0.77669 0.0
H365 H 0.50636 0.61809 0.77919 0.0
C366 C 0.79384 0.96588 0.76363 0.0
C367 C 0.81336 0.95046 0.75273 0.0
C368 C 0.7145 0.88981 0.76511 0.0
C369 C 0.65324 0.79675 0.75571 0.0
C370 C 0.67324 0.78188 0.74478 0.0
C371 C 0.75235 0.85827 0.74328 0.0
C372 C 0.40131 0.57169 0.74875 0.0
C373 C 0.41049 0.55948 0.7602 0.0
C374 C 0.47977 0.64908 0.74731 0.0
C375 C 0.56898 0.71557 0.75731 0.0
C376 C 0.57716 0.70354 0.76883 0.0
C377 C 0.49838 0.6264 0.77027 0.0
H378 H 0.33593 0.08619 0.56855 0.0
H379 H 0.47137 0.1979 0.60824 0.0
H380 H 0.47594 0.08487 0.56641 0.0
H381 H 0.61317 0.19974 0.60624 0.0
H382 H 0.80551 0.09754 0.59779 0.0
H383 H 0.66195 0.09181 0.59975 0.0
H384 H 0.64598 0.19887 0.56972 0.0
H385 H 0.78798 0.20144 0.56762 0.0
C386 C 0.39615 0.1105 0.57679 0.0
C387 C 0.39405 0.1426 0.58854 0.0
C388 C 0.47646 0.11056 0.5756 0.0
C389 C 0.55608 0.1428 0.58616 0.0
C390 C 0.55273 0.17354 0.59793 0.0
C391 C 0.47219 0.17312 0.5991 0.0
C392 C 0.77085 0.1198 0.59166 0.0
C393 C 0.80725 0.15054 0.58263 0.0
C394 C 0.68924 0.11709 0.59279 0.0
C395 C 0.64257 0.1451 0.5849 0.0
C396 C 0.67943 0.17569 0.57584 0.0
C397 C 0.76094 0.17806 0.57469 0.0
H398 H 0.5033 0.60379 0.91463 0.0
H399 H 0.60095 0.77749 0.95288 0.0
H400 H 0.63975 0.7399 0.91207 0.0
H401 H 0.73546 0.91576 0.95033 0.0
H402 H 1.02048 0.10912 0.94475 0.0
H403 H 0.88681 0.97058 0.94734 0.0
H404 H 0.69574 0.89724 0.91094 0.0
H405 H 0.83137 0.03365 0.90828 0.0
C406 C 0.55412 0.67174 0.92245 0.0
C407 C 0.54206 0.68123 0.93391 0.0
C408 C 0.63165 0.74987 0.92099 0.0
C409 C 0.69841 0.83917 0.93097 0.0
C410 C 0.68623 0.84784 0.94248 0.0
C411 C 0.60904 0.76931 0.94395 0.0
C412 C 0.94963 0.06291 0.93735 0.0
C413 C 0.93518 0.08169 0.92637 0.0
C414 C 0.87297 0.98414 0.93883 0.0
C415 C 0.78023 0.92284 0.92937 0.0
C416 C 0.76638 0.94208 0.91836 0.0
C417 C 0.8434 1.02048 0.91685 0.0
H418 H 0.26118 0.5892 0.28029 0.0
H419 H 0.37922 0.58242 0.25139 0.0
H420 H 0.25989 0.72886 0.27798 0.0
H421 H 0.38241 0.72462 0.24934 0.0
H422 H 0.27758 0.91202 0.23982 0.0
H423 H 0.27582 0.77069 0.24202 0.0
H424 H 0.36596 0.89855 0.28169 0.0
H425 H 0.36319 0.03719 0.2793 0.0
C426 C 0.28718 0.61835 0.27348 0.0
C427 C 0.31931 0.57534 0.26592 0.0
C428 C 0.28733 0.6986 0.27221 0.0
C429 C 0.32084 0.73796 0.26345 0.0
C430 C 0.35442 0.6952 0.25602 0.0
C431 C 0.35341 0.61448 0.25723 0.0
C432 C 0.29611 0.90881 0.24896 0.0
C433 C 0.31935 0.98399 0.25938 0.0
C434 C 0.29612 0.8287 0.25026 0.0
C435 C 0.32064 0.82308 0.26204 0.0
C436 C 0.345 0.89951 0.27247 0.0
C437 C 0.34414 0.9791 0.27114 0.0
H438 H 0.20251 0.18323 0.19986 0.0
H439 H 0.48997 0.45225 0.21872 0.0
H440 H 0.20729 0.20301 0.18029 0.0
H441 H 0.49847 0.46717 0.19895 0.0
H442 H 0.44404 0.52264 0.16281 0.0
H443 H 0.44262 0.50627 0.1828 0.0
H444 H 0.27166 0.19164 0.16515 0.0
H445 H 0.26922 0.20894 0.14518 0.0
C446 C 0.26707 0.24667 0.19989 0.0
C447 C 0.34548 0.31643 0.21102 0.0
C448 C 0.27061 0.2571 0.18854 0.0
C449 C 0.3535 0.33659 0.1879 0.0
C450 C 0.43263 0.40564 0.19901 0.0
C451 C 0.42842 0.39609 0.21039 0.0
C452 C 0.40645 0.45017 0.16327 0.0
C453 C 0.35612 0.36708 0.15245 0.0
C454 C 0.40598 0.44053 0.17474 0.0
C455 C 0.35656 0.34746 0.17571 0.0
C456 C 0.30841 0.26453 0.16484 0.0
C457 C 0.30743 0.27425 0.15336 0.0
H458 H 0.11378 1.0057 0.5278 0.0
H459 H 0.12373 0.27135 0.53363 0.0
H460 H 0.122 1.00168 0.50751 0.0
H461 H 0.14234 0.27281 0.51395 0.0
H462 H 0.08865 0.21337 0.47339 0.0
H463 H 0.06607 0.20586 0.49291 0.0
H464 H 0.22187 0.06833 0.49677 0.0
H465 H 0.23832 0.07077 0.47682 0.0
C466 C 0.11772 0.06347 0.52482 0.0
C467 C 0.1178 0.13878 0.53251 0.0
C468 C 0.12441 0.06214 0.51319 0.0
C469 C 0.13333 0.1371 0.50895 0.0
C470 C 0.1339 0.21261 0.51667 0.0
C471 C 0.12517 0.21285 0.52818 0.0
C472 C 0.11758 0.18125 0.47843 0.0
C473 C 0.16532 0.14281 0.47363 0.0
C474 C 0.10545 0.17753 0.4897 0.0
C475 C 0.14279 0.13723 0.49662 0.0
C476 C 0.19039 0.09842 0.49171 0.0
C477 C 0.20057 0.10029 0.48029 0.0
H478 H 0.14306 0.1773 0.81074 0.0
H479 H 0.14592 0.43921 0.81635 0.0
H480 H 0.15703 0.19363 0.83207 0.0
H481 H 0.1549 0.45187 0.83756 0.0
H482 H 0.05957 0.3576 0.87014 0.0
H483 H 0.04697 0.34853 0.84892 0.0
H484 H 0.29051 0.3221 0.85348 0.0
H485 H 0.30693 0.33593 0.87483 0.0
C486 C 0.14727 0.23878 0.81648 0.0
C487 C 0.14445 0.30754 0.81173 0.0
C488 C 0.15459 0.24756 0.82871 0.0
C489 C 0.15741 0.32417 0.83648 0.0
C490 C 0.15219 0.39168 0.83174 0.0
C491 C 0.14657 0.38396 0.81954 0.0
C492 C 0.11168 0.35154 0.86674 0.0
C493 C 0.18397 0.3469 0.87429 0.0
C494 C 0.10399 0.34591 0.85454 0.0
C495 C 0.16732 0.33394 0.84954 0.0
C496 C 0.23978 0.32987 0.85705 0.0
C497 C 0.2486 0.33713 0.86928 0.0
H498 H 0.19787 0.24746 0.03652 0.0
H499 H 0.44392 0.54971 0.0523 0.0
H500 H 0.18728 0.25131 0.01582 0.0
H501 H 0.43533 0.5526 0.03155 0.0
H502 H 0.32159 0.5494 0.9925 0.0
H503 H 0.33152 0.54756 0.01332 0.0
H504 H 0.27613 0.26021 1.00189 0.0
H505 H 0.26302 0.26069 0.98102 0.0
C506 C 0.24968 0.31484 0.03558 0.0
C507 C 0.32167 0.39832 0.0461 0.0
C508 C 0.24427 0.31673 0.02369 0.0
C509 C 0.31057 0.40221 0.02199 0.0
C510 C 0.38253 0.48579 0.03251 0.0
C511 C 0.38817 0.4838 0.04442 0.0
C512 C 0.3108 0.48554 0.99441 0.0
C513 C 0.29158 0.40524 0.98507 0.0
C514 C 0.31754 0.48491 1.00639 0.0
C515 C 0.30468 0.40375 1.0093 0.0
C516 C 0.28545 0.32353 0.99995 0.0
C517 C 0.27907 0.32429 0.98801 0.0
H518 H 0.15676 0.23934 0.31092 0.0
H519 H 0.42172 0.24813 0.32001 0.0
H520 H 0.14246 0.2214 0.33045 0.0
H521 H 0.40765 0.23087 0.33962 0.0
H522 H 0.40355 0.30451 0.3791 0.0
H523 H 0.41863 0.32047 0.35949 0.0
H524 H 0.10839 0.10383 0.34085 0.0
H525 H 0.09277 0.09021 0.36053 0.0
C526 C 0.2116 0.23663 0.31703 0.0
C527 C 0.29031 0.24499 0.31383 0.0
C528 C 0.20335 0.22632 0.32825 0.0
C529 C 0.2737 0.22436 0.33661 0.0
C530 C 0.35278 0.23332 0.33347 0.0
C531 C 0.36093 0.2434 0.32222 0.0
C532 C 0.33839 0.26075 0.37083 0.0
C533 C 0.24684 0.1964 0.37142 0.0
C534 C 0.34724 0.26912 0.35956 0.0
C535 C 0.26472 0.2136 0.34858 0.0
C536 C 0.17331 0.14857 0.34914 0.0
C537 C 0.16451 0.13993 0.36041 0.0
H538 H 0.03517 1.01379 0.63632 0.0
H539 H 0.1405 0.31859 0.64577 0.0
H540 H 1.02298 1.02094 0.65642 0.0
H541 H 0.14013 0.32877 0.66638 0.0
H542 H 0.06038 0.31299 0.7 0.0
H543 H 0.05369 0.29663 0.67902 0.0
H544 H 0.10347 0.06826 0.67678 0.0
H545 H 0.09767 0.07609 0.69714 0.0
C546 C 0.05614 0.08268 0.64263 0.0
C547 C 0.08883 0.1655 0.63919 0.0
C548 C 0.05111 0.08736 0.65439 0.0
C549 C 0.08118 0.17569 0.66327 0.0
C550 C 0.1145 0.25865 0.65986 0.0
C551 C 0.11691 0.2533 0.64799 0.0
C552 C 0.06732 0.25731 0.69498 0.0
C553 C 0.07961 0.19601 0.70049 0.0
C554 C 0.06567 0.24934 0.68291 0.0
C555 C 0.07897 0.18163 0.67603 0.0
C556 C 0.09134 0.12043 0.68155 0.0
C557 C 0.09023 0.12652 0.69348 0.0
loop_
_geom_bond_atom_site_label_1
_geom_bond_atom_site_label_2
_geom_bond_distance
_geom_bond_site_symmetry_2
_ccdc_geom_bond_type
C0 C1 1.443 . S
C0 N4 1.376 . S
C0 C38 1.389 . S
C1 C0 1.443 . S
C1 C2 1.340 . S
C1 H41 0.951 . S
C2 C1 1.340 . S
C2 C3 1.439 . S
C2 H42 0.950 . S
C3 C2 1.439 . S
C3 N4 1.374 . S
C3 C37 1.395 . S
N4 C0 1.376 . S
N4 C3 1.374 . S
N4 Co5 2.008 . S
Co5 N4 2.008 . S
Co5 N6 1.995 . S
Co5 N11 2.008 . S
Co5 N16 1.995 . S
Co5 N21 2.282 . S
Co5 N27 2.282 . S
N6 Co5 1.995 . S
N6 C7 1.376 . S
N6 C10 1.383 . S
C7 N6 1.376 . S
C7 C8 1.446 . S
C7 C37 1.391 . S
C8 C7 1.446 . S
C8 C9 1.339 . S
C8 H43 0.949 . S
C9 C8 1.339 . S
C9 C10 1.439 . S
C9 H44 0.950 . S
C10 N6 1.383 . S
C10 C9 1.439 . S
C10 C39 1.392 . S
N11 Co5 2.008 . S
N11 C12 1.376 . S
N11 C15 1.374 . S
C12 N11 1.376 . S
C12 C13 1.443 . S
C12 C39 1.389 . S
C13 C12 1.443 . S
C13 C14 1.340 . S
C13 H45 0.951 . S
C14 C13 1.340 . S
C14 C15 1.439 . S
C14 H46 0.950 . S
C15 N11 1.374 . S
C15 C14 1.439 . S
C15 C40 1.395 . S
N16 Co5 1.995 . S
N16 C17 1.376 . S
N16 C20 1.383 . S
C17 N16 1.376 . S
C17 C18 1.446 . S
C17 C40 1.391 . S
C18 C17 1.446 . S
C18 C19 1.339 . S
C18 H47 0.949 . S
C19 C18 1.339 . S
C19 C20 1.439 . S
C19 H48 0.950 . S
C20 N16 1.383 . S
C20 C19 1.439 . S
C20 C38 1.392 . S
N21 Co5 2.282 . S
N21 C24 1.332 . S
N21 C26 1.332 . S
C22 C23 1.386 . S
C22 C25 1.388 . S
C23 C22 1.386 . S
C23 C24 1.382 . S
C23 H49 0.950 . S
C24 N21 1.332 . S
C24 C23 1.382 . S
C24 H35 0.952 . S
C25 C22 1.388 . S
C25 C26 1.382 . S
C25 H50 0.950 . S
C26 N21 1.332 . S
C26 C25 1.382 . S
C26 H36 0.948 . S
N27 Co5 2.282 . S
N27 C31 1.332 . S
N27 C32 1.332 . S
C28 C29 1.388 . S
C28 C32 1.382 . S
C28 H51 0.950 . S
C29 C28 1.388 . S
C29 C30 1.386 . S
C30 C29 1.386 . S
C30 C31 1.382 . S
C30 H52 0.950 . S
C31 N27 1.332 . S
C31 C30 1.382 . S
C31 H33 0.952 . S
C32 N27 1.332 . S
C32 C28 1.382 . S
C32 H34 0.948 . S
H33 C31 0.952 . S
H34 C32 0.948 . S
H35 C24 0.952 . S
H36 C26 0.948 . S
C37 C3 1.395 . S
C37 C7 1.391 . S
C38 C0 1.389 . S
C38 C20 1.392 . S
C39 C10 1.392 . S
C39 C12 1.389 . S
C40 C15 1.395 . S
C40 C17 1.391 . S
H41 C1 0.951 . S
H42 C2 0.950 . S
H43 C8 0.949 . S
H44 C9 0.950 . S
H45 C13 0.951 . S
H46 C14 0.950 . S
H47 C18 0.949 . S
H48 C19 0.950 . S
H49 C23 0.950 . S
H50 C25 0.950 . S
H51 C28 0.950 . S
H52 C30 0.950 . S
C53 C54 1.443 . S
C53 N57 1.376 . S
C53 C91 1.389 . S
C54 C53 1.443 . S
C54 C55 1.340 . S
C54 H94 0.951 . S
C55 C54 1.340 . S
C55 C56 1.439 . S
C55 H95 0.950 . S
C56 C55 1.439 . S
C56 N57 1.374 . S
C56 C90 1.395 . S
N57 C53 1.376 . S
N57 C56 1.374 . S
N57 Co58 2.008 . S
Co58 N57 2.008 . S
Co58 N59 1.995 . S
Co58 N64 2.008 1_445 S
Co58 N69 1.995 1_545 S
Co58 N74 2.282 . S
Co58 N80 2.282 . S
N59 Co58 1.995 . S
N59 C60 1.376 . S
N59 C63 1.383 . S
C60 N59 1.376 . S
C60 C61 1.446 . S
C60 C90 1.391 . S
C61 C60 1.446 . S
C61 C62 1.339 . S
C61 H96 0.949 . S
C62 C61 1.339 . S
C62 C63 1.439 . S
C62 H97 0.950 1_455 S
C63 N59 1.383 . S
C63 C62 1.439 . S
C63 C92 1.392 1_455 S
N64 Co58 2.008 1_665 S
N64 C65 1.376 . S
N64 C68 1.374 . S
C65 N64 1.376 . S
C65 C66 1.443 . S
C65 C92 1.389 1_565 S
C66 C65 1.443 . S
C66 C67 1.340 . S
C66 H98 0.951 . S
C67 C66 1.340 . S
C67 C68 1.439 . S
C67 H99 0.950 . S
C68 N64 1.374 . S
C68 C67 1.439 . S
C68 C93 1.395 . S
N69 Co58 1.995 1_565 S
N69 C70 1.376 . S
N69 C73 1.383 . S
C70 N69 1.376 . S
C70 C71 1.446 . S
C70 C93 1.391 1_455 S
C71 C70 1.446 . S
C71 C72 1.339 . S
C71 H100 0.949 . S
C72 C71 1.339 . S
C72 C73 1.439 . S
C72 H101 0.950 . S
C73 N69 1.383 . S
C73 C72 1.439 . S
C73 C91 1.392 1_565 S
N74 Co58 2.282 . S
N74 C77 1.332 1_545 S
N74 C79 1.332 . S
C75 C76 1.386 . S
C75 C78 1.388 1_565 S
C76 C75 1.386 . S
C76 C77 1.382 . S
C76 H102 0.950 . S
C77 N74 1.332 1_565 S
C77 C76 1.382 . S
C77 H88 0.952 . S
C78 C75 1.388 1_545 S
C78 C79 1.382 . S
C78 H103 0.950 . S
C79 N74 1.332 . S
C79 C78 1.382 . S
C79 H89 0.948 . S
N80 Co58 2.282 . S
N80 C84 1.332 . S
N80 C85 1.332 1_545 S
C81 C82 1.388 1_565 S
C81 C85 1.382 . S
C81 H104 0.950 . S
C82 C81 1.388 1_545 S
C82 C83 1.386 . S
C83 C82 1.386 . S
C83 C84 1.382 . S
C83 H105 0.950 . S
C84 N80 1.332 . S
C84 C83 1.382 . S
C84 H86 0.952 . S
C85 N80 1.332 1_565 S
C85 C81 1.382 . S
C85 H87 0.948 . S
H86 C84 0.952 . S
H87 C85 0.948 . S
H88 C77 0.952 . S
H89 C79 0.948 . S
C90 C56 1.395 . S
C90 C60 1.391 . S
C91 C53 1.389 . S
C91 C73 1.392 1_545 S
C92 C63 1.392 1_655 S
C92 C65 1.389 1_545 S
C93 C68 1.395 . S
C93 C70 1.391 1_655 S
H94 C54 0.951 . S
H95 C55 0.950 . S
H96 C61 0.949 . S
H97 C62 0.950 1_655 S
H98 C66 0.951 . S
H99 C67 0.950 . S
H100 C71 0.949 . S
H101 C72 0.950 . S
H102 C76 0.950 . S
H103 C78 0.950 . S
H104 C81 0.950 . S
H105 C83 0.950 . S
C106 C107 1.443 . S
C106 N110 1.376 . S
C106 C144 1.389 . S
C107 C106 1.443 . S
C107 C108 1.340 . S
C107 H147 0.951 . S
C108 C107 1.340 . S
C108 C109 1.439 1_455 S
C108 H148 0.950 . S
C109 C108 1.439 1_655 S
C109 N110 1.374 1_655 S
C109 C143 1.395 . S
N110 C106 1.376 . S
N110 C109 1.374 1_455 S
N110 Co111 2.008 . S
Co111 N110 2.008 . S
Co111 N112 1.995 1_455 S
Co111 N117 2.008 1_455 S
Co111 N122 1.995 . S
Co111 N127 2.282 . S
Co111 N133 2.282 . S
N112 Co111 1.995 1_655 S
N112 C113 1.376 . S
N112 C116 1.383 . S
C113 N112 1.376 . S
C113 C114 1.446 . S
C113 C143 1.391 . S
C114 C113 1.446 . S
C114 C115 1.339 . S
C114 H149 0.949 . S
C115 C114 1.339 . S
C115 C116 1.439 . S
C115 H150 0.950 . S
C116 N112 1.383 . S
C116 C115 1.439 . S
C116 C145 1.392 . S
N117 Co111 2.008 1_655 S
N117 C118 1.376 . S
N117 C121 1.374 1_655 S
C118 N117 1.376 . S
C118 C119 1.443 1_545 S
C118 C145 1.389 . S
C119 C118 1.443 1_565 S
C119 C120 1.340 1_665 S
C119 H151 0.951 . S
C120 C119 1.340 1_445 S
C120 C121 1.439 . S
C120 H152 0.950 1_545 S
C121 N117 1.374 1_455 S
C121 C120 1.439 . S
C121 C146 1.395 . S
N122 Co111 1.995 . S
N122 C123 1.376 . S
N122 C126 1.383 . S
C123 N122 1.376 . S
C123 C124 1.446 . S
C123 C146 1.391 . S
C124 C123 1.446 . S
C124 C125 1.339 . S
C124 H153 0.949 . S
C125 C124 1.339 . S
C125 C126 1.439 . S
C125 H154 0.950 . S
C126 N122 1.383 . S
C126 C125 1.439 . S
C126 C144 1.392 . S
N127 Co111 2.282 . S
N127 C130 1.332 . S
N127 C132 1.332 1_455 S
C128 C129 1.386 . S
C128 C131 1.388 1_455 S
C129 C128 1.386 . S
C129 C130 1.382 . S
C129 H155 0.950 . S
C130 N127 1.332 . S
C130 C129 1.382 . S
C130 H141 0.952 . S
C131 C128 1.388 1_655 S
C131 C132 1.382 . S
C131 H156 0.950 . S
C132 N127 1.332 1_655 S
C132 C131 1.382 . S
C132 H142 0.948 . S
N133 Co111 2.282 . S
N133 C137 1.332 1_455 S
N133 C138 1.332 . S
C134 C135 1.388 . S
C134 C138 1.382 . S
C134 H157 0.950 . S
C135 C134 1.388 . S
C135 C136 1.386 1_455 S
C136 C135 1.386 1_655 S
C136 C137 1.382 . S
C136 H158 0.950 . S
C137 N133 1.332 1_655 S
C137 C136 1.382 . S
C137 H139 0.952 . S
C138 N133 1.332 . S
C138 C134 1.382 . S
C138 H140 0.948 . S
H139 C137 0.952 . S
H140 C138 0.948 . S
H141 C130 0.952 . S
H142 C132 0.948 . S
C143 C109 1.395 . S
C143 C113 1.391 . S
C144 C106 1.389 . S
C144 C126 1.392 . S
C145 C116 1.392 . S
C145 C118 1.389 . S
C146 C121 1.395 . S
C146 C123 1.391 . S
H147 C107 0.951 . S
H148 C108 0.950 . S
H149 C114 0.949 . S
H150 C115 0.950 . S
H151 C119 0.951 . S
H152 C120 0.950 1_565 S
H153 C124 0.949 . S
H154 C125 0.950 . S
H155 C129 0.950 . S
H156 C131 0.950 . S
H157 C134 0.950 . S
H158 C136 0.950 . S
C159 C160 1.443 . S
C159 N163 1.376 . S
C159 C197 1.389 . S
C160 C159 1.443 . S
C160 C161 1.337 1_655 S
C160 H200 0.951 . S
C161 C160 1.337 1_455 S
C161 C162 1.443 . S
C161 H201 0.949 . S
C162 C161 1.443 . S
C162 N163 1.374 1_455 S
C162 C196 1.395 . S
N163 C159 1.376 . S
N163 C162 1.374 1_655 S
N163 Co164 2.008 1_655 S
Co164 N163 2.008 1_455 S
Co164 N165 1.995 . S
Co164 N170 2.008 1_545 S
Co164 N175 1.995 1_445 S
Co164 N180 2.282 . S
Co164 N186 2.282 . S
N165 Co164 1.995 . S
N165 C166 1.376 . S
N165 C169 1.383 . S
C166 N165 1.376 . S
C166 C167 1.446 . S
C166 C196 1.391 . S
C167 C166 1.446 . S
C167 C168 1.339 . S
C167 H202 0.949 . S
C168 C167 1.339 . S
C168 C169 1.439 . S
C168 H203 0.950 . S
C169 N165 1.383 . S
C169 C168 1.439 . S
C169 C198 1.392 . S
N170 Co164 2.008 1_565 S
N170 C171 1.376 . S
N170 C174 1.374 1_455 S
C171 N170 1.376 . S
C171 C172 1.443 . S
C171 C198 1.389 1_565 S
C172 C171 1.443 . S
C172 C173 1.340 . S
C172 H204 0.951 . S
C173 C172 1.340 . S
C173 C174 1.439 1_455 S
C173 H205 0.950 1_455 S
C174 N170 1.374 1_655 S
C174 C173 1.439 1_655 S
C174 C199 1.395 . S
N175 Co164 1.995 1_665 S
N175 C176 1.376 . S
N175 C179 1.383 . S
C176 N175 1.376 . S
C176 C177 1.446 . S
C176 C199 1.391 . S
C177 C176 1.446 . S
C177 C178 1.339 . S
C177 H206 0.949 . S
C178 C177 1.339 . S
C178 C179 1.439 . S
C178 H207 0.950 . S
C179 N175 1.383 . S
C179 C178 1.439 . S
C179 C197 1.392 1_565 S
N180 Co164 2.282 . S
N180 C183 1.332 1_445 S
N180 C185 1.333 . S
C181 C182 1.386 1_455 S
C181 C184 1.388 1_565 S
C182 C181 1.386 1_655 S
C182 C183 1.382 . S
C182 H208 0.950 . S
C183 N180 1.332 1_665 S
C183 C182 1.382 . S
C183 H194 0.952 . S
C184 C181 1.388 1_545 S
C184 C185 1.382 . S
C184 H209 0.950 . S
C185 N180 1.333 . S
C185 C184 1.382 . S
C185 H195 0.948 . S
N186 Co164 2.282 . S
N186 C190 1.332 . S
N186 C191 1.332 1_445 S
C187 C188 1.388 1_565 S
C187 C191 1.382 . S
C187 H210 0.950 . S
C188 C187 1.388 1_545 S
C188 C189 1.386 1_655 S
C189 C188 1.386 1_455 S
C189 C190 1.382 . S
C189 H211 0.950 . S
C190 N186 1.332 . S
C190 C189 1.382 . S
C190 H192 0.952 . S
C191 N186 1.332 1_665 S
C191 C187 1.382 . S
C191 H193 0.948 . S
H192 C190 0.952 . S
H193 C191 0.948 . S
H194 C183 0.952 . S
H195 C185 0.948 . S
C196 C162 1.395 . S
C196 C166 1.391 . S
C197 C159 1.389 . S
C197 C179 1.392 1_545 S
C198 C169 1.392 . S
C198 C171 1.389 1_545 S
C199 C174 1.395 . S
C199 C176 1.391 . S
H200 C160 0.951 . S
H201 C161 0.949 . S
H202 C167 0.949 . S
H203 C168 0.950 . S
H204 C172 0.951 . S
H205 C173 0.950 1_655 S
H206 C177 0.949 . S
H207 C178 0.950 . S
H208 C182 0.950 . S
H209 C184 0.950 . S
H210 C187 0.950 . S
H211 C189 0.950 . S
C212 C213 1.443 . S
C212 N216 1.376 1_655 S
C212 C250 1.389 . S
C213 C212 1.443 . S
C213 C214 1.340 . S
C213 H253 0.951 . S
C214 C213 1.340 . S
C214 C215 1.439 1_655 S
C214 H254 0.950 . S
C215 C214 1.439 1_455 S
C215 N216 1.374 . S
C215 C249 1.395 . S
N216 C212 1.376 1_455 S
N216 C215 1.374 . S
N216 Co217 2.008 . S
Co217 N216 2.008 . S
Co217 N218 1.995 . S
Co217 N223 2.008 . S
Co217 N228 1.995 . S
Co217 N233 2.282 . S
Co217 N239 2.282 . S
N218 Co217 1.995 . S
N218 C219 1.376 . S
N218 C222 1.383 . S
C219 N218 1.376 . S
C219 C220 1.446 . S
C219 C249 1.391 . S
C220 C219 1.446 . S
C220 C221 1.339 . S
C220 H255 0.949 . S
C221 C220 1.339 . S
C221 C222 1.439 . S
C221 H256 0.950 . S
C222 N218 1.383 . S
C222 C221 1.439 . S
C222 C251 1.392 . S
N223 Co217 2.008 . S
N223 C224 1.376 . S
N223 C227 1.374 . S
C224 N223 1.376 . S
C224 C225 1.443 . S
C224 C251 1.389 . S
C225 C224 1.443 . S
C225 C226 1.340 . S
C225 H257 0.951 . S
C226 C225 1.340 . S
C226 C227 1.439 . S
C226 H258 0.950 . S
C227 N223 1.374 . S
C227 C226 1.439 . S
C227 C252 1.395 . S
N228 Co217 1.995 . S
N228 C229 1.376 . S
N228 C232 1.383 . S
C229 N228 1.376 . S
C229 C230 1.446 . S
C229 C252 1.391 . S
C230 C229 1.446 . S
C230 C231 1.339 . S
C230 H259 0.949 . S
C231 C230 1.339 . S
C231 C232 1.439 . S
C231 H260 0.950 1_455 S
C232 N228 1.383 . S
C232 C231 1.439 . S
C232 C250 1.392 1_455 S
N233 Co217 2.282 . S
N233 C236 1.332 . S
N233 C238 1.332 . S
C234 C235 1.386 . S
C234 C237 1.388 . S
C235 C234 1.386 . S
C235 C236 1.382 . S
C235 H261 0.950 . S
C236 N233 1.332 . S
C236 C235 1.382 . S
C236 H247 0.952 . S
C237 C234 1.388 . S
C237 C238 1.382 . S
C237 H262 0.950 . S
C238 N233 1.332 . S
C238 C237 1.382 . S
C238 H248 0.948 . S
N239 Co217 2.282 . S
N239 C243 1.332 . S
N239 C244 1.332 . S
C240 C241 1.388 . S
C240 C244 1.382 . S
C240 H263 0.950 . S
C241 C240 1.388 . S
C241 C242 1.386 . S
C242 C241 1.386 . S
C242 C243 1.382 . S
C242 H264 0.950 . S
C243 N239 1.332 . S
C243 C242 1.382 . S
C243 H245 0.952 . S
C244 N239 1.332 . S
C244 C240 1.382 . S
C244 H246 0.948 . S
H245 C243 0.952 . S
H246 C244 0.948 . S
H247 C236 0.952 . S
H248 C238 0.948 . S
C249 C215 1.395 . S
C249 C219 1.391 . S
C250 C212 1.389 . S
C250 C232 1.392 1_655 S
C251 C222 1.392 . S
C251 C224 1.389 . S
C252 C227 1.395 . S
C252 C229 1.391 . S
H253 C213 0.951 . S
H254 C214 0.950 . S
H255 C220 0.949 . S
H256 C221 0.950 . S
H257 C225 0.951 . S
H258 C226 0.950 . S
H259 C230 0.949 . S
H260 C231 0.950 1_655 S
H261 C235 0.950 . S
H262 C237 0.950 . S
H263 C240 0.950 . S
H264 C242 0.950 . S
C265 C266 1.444 . S
C265 N269 1.376 . S
C265 C303 1.389 . S
C266 C265 1.444 . S
C266 C267 1.341 . S
C266 H306 0.950 1_545 S
C267 C266 1.341 . S
C267 C268 1.439 . S
C267 H307 0.950 1_545 S
C268 C267 1.439 . S
C268 N269 1.374 . S
C268 C302 1.395 . S
N269 C265 1.376 . S
N269 C268 1.374 . S
N269 Co270 2.008 . S
Co270 N269 2.008 . S
Co270 N271 1.995 . S
Co270 N276 2.008 . S
Co270 N281 1.995 . S
Co270 N286 2.282 . S
Co270 N292 2.282 . S
N271 Co270 1.995 . S
N271 C272 1.376 . S
N271 C275 1.383 . S
C272 N271 1.376 . S
C272 C273 1.446 . S
C272 C302 1.391 . S
C273 C272 1.446 . S
C273 C274 1.339 . S
C273 H308 0.949 . S
C274 C273 1.339 . S
C274 C275 1.439 . S
C274 H309 0.950 . S
C275 N271 1.383 . S
C275 C274 1.439 . S
C275 C304 1.392 . S
N276 Co270 2.008 . S
N276 C277 1.376 . S
N276 C280 1.374 . S
C277 N276 1.376 . S
C277 C278 1.443 . S
C277 C304 1.389 . S
C278 C277 1.443 . S
C278 C279 1.340 . S
C278 H310 0.951 . S
C279 C278 1.340 . S
C279 C280 1.439 . S
C279 H311 0.950 . S
C280 N276 1.374 . S
C280 C279 1.439 . S
C280 C305 1.395 . S
N281 Co270 1.995 . S
N281 C282 1.376 . S
N281 C285 1.383 . S
C282 N281 1.376 . S
C282 C283 1.446 . S
C282 C305 1.391 . S
C283 C282 1.446 . S
C283 C284 1.339 . S
C283 H312 0.949 . S
C284 C283 1.339 . S
C284 C285 1.439 . S
C284 H313 0.950 . S
C285 N281 1.383 . S
C285 C284 1.439 . S
C285 C303 1.392 . S
N286 Co270 2.282 . S
N286 C289 1.332 . S
N286 C291 1.332 . S
C287 C288 1.386 . S
C287 C290 1.388 . S
C288 C287 1.386 . S
C288 C289 1.382 . S
C288 H314 0.950 . S
C289 N286 1.332 . S
C289 C288 1.382 . S
C289 H300 0.952 . S
C290 C287 1.388 . S
C290 C291 1.382 . S
C290 H315 0.950 . S
C291 N286 1.332 . S
C291 C290 1.382 . S
C291 H301 0.948 . S
N292 Co270 2.282 . S
N292 C296 1.332 . S
N292 C297 1.332 . S
C293 C294 1.388 . S
C293 C297 1.382 . S
C293 H316 0.950 . S
C294 C293 1.388 . S
C294 C295 1.386 . S
C295 C294 1.386 . S
C295 C296 1.382 . S
C295 H317 0.950 . S
C296 N292 1.332 . S
C296 C295 1.382 . S
C296 H298 0.952 . S
C297 N292 1.332 . S
C297 C293 1.382 . S
C297 H299 0.948 . S
H298 C296 0.952 . S
H299 C297 0.948 . S
H300 C289 0.952 . S
H301 C291 0.948 . S
C302 C268 1.395 . S
C302 C272 1.391 . S
C303 C265 1.389 . S
C303 C285 1.392 . S
C304 C275 1.392 . S
C304 C277 1.389 . S
C305 C280 1.395 . S
C305 C282 1.391 . S
H306 C266 0.950 1_565 S
H307 C267 0.950 1_565 S
H308 C273 0.949 . S
H309 C274 0.950 . S
H310 C278 0.951 . S
H311 C279 0.950 . S
H312 C283 0.949 . S
H313 C284 0.950 . S
H314 C288 0.950 . S
H315 C290 0.950 . S
H316 C293 0.950 . S
H317 C295 0.950 . S
H318 C326 0.950 . S
H319 C331 0.950 . S
H320 C328 0.950 . S
H321 C330 0.950 . S
H322 C332 0.950 . S
H323 C334 0.950 . S
H324 C336 0.950 . S
H325 C337 0.950 . S
C326 H318 0.950 . S
C326 C327 1.386 . S
C326 C328 1.391 . S
C327 C326 1.386 . S
C327 C331 1.393 . S
C328 H320 0.950 . S
C328 C326 1.391 . S
C328 C329 1.400 1_545 S
C329 C328 1.400 1_565 S
C329 C330 1.398 . S
C329 C335 1.491 . S
C330 H321 0.950 . S
C330 C329 1.398 . S
C330 C331 1.391 1_565 S
C331 H319 0.950 . S
C331 C327 1.393 . S
C331 C330 1.391 1_545 S
C332 H322 0.950 . S
C332 C333 1.386 . S
C332 C334 1.391 . S
C333 C332 1.386 . S
C333 C337 1.393 . S
C334 H323 0.950 . S
C334 C332 1.391 . S
C334 C335 1.400 . S
C335 C329 1.491 . S
C335 C334 1.400 . S
C335 C336 1.398 . S
C336 H324 0.950 . S
C336 C335 1.398 . S
C336 C337 1.391 . S
C337 H325 0.950 . S
C337 C333 1.393 . S
C337 C336 1.391 . S
H338 C346 0.950 . S
H339 C351 0.950 . S
H340 C348 0.950 . S
H341 C350 0.950 . S
H342 C352 0.950 . S
H343 C354 0.950 . S
H344 C356 0.950 . S
H345 C357 0.950 . S
C346 H338 0.950 . S
C346 C347 1.386 1_565 S
C346 C348 1.391 . S
C347 C346 1.386 1_545 S
C347 C351 1.393 . S
C348 H340 0.950 . S
C348 C346 1.391 . S
C348 C349 1.400 1_565 S
C349 C348 1.400 1_545 S
C349 C350 1.398 . S
C349 C355 1.491 . S
C350 H341 0.950 . S
C350 C349 1.398 . S
C350 C351 1.391 . S
C351 H339 0.950 . S
C351 C347 1.393 . S
C351 C350 1.391 . S
C352 H342 0.950 . S
C352 C353 1.386 . S
C352 C354 1.391 . S
C353 C352 1.386 . S
C353 C357 1.393 1_545 S
C354 H343 0.950 . S
C354 C352 1.391 . S
C354 C355 1.400 . S
C355 C349 1.491 . S
C355 C354 1.400 . S
C355 C356 1.398 1_545 S
C356 H344 0.950 . S
C356 C355 1.398 1_565 S
C356 C357 1.391 . S
C357 H345 0.950 . S
C357 C353 1.393 1_565 S
C357 C356 1.391 . S
H358 C366 0.950 1_545 S
H359 C371 0.950 . S
H360 C368 0.950 . S
H361 C370 0.950 . S
H362 C372 0.950 . S
H363 C374 0.950 . S
H364 C376 0.950 . S
H365 C377 0.950 . S
C366 H358 0.950 1_565 S
C366 C367 1.386 . S
C366 C368 1.391 . S
C367 C366 1.386 . S
C367 C371 1.393 . S
C368 H360 0.950 . S
C368 C366 1.391 . S
C368 C369 1.400 . S
C369 C368 1.400 . S
C369 C370 1.398 . S
C369 C375 1.491 . S
C370 H361 0.950 . S
C370 C369 1.398 . S
C370 C371 1.391 . S
C371 H359 0.950 . S
C371 C367 1.393 . S
C371 C370 1.391 . S
C372 H362 0.950 . S
C372 C373 1.386 . S
C372 C374 1.391 . S
C373 C372 1.386 . S
C373 C377 1.393 . S
C374 H363 0.950 . S
C374 C372 1.391 . S
C374 C375 1.400 . S
C375 C369 1.491 . S
C375 C374 1.400 . S
C375 C376 1.398 . S
C376 H364 0.950 . S
C376 C375 1.398 . S
C376 C377 1.391 . S
C377 H365 0.950 . S
C377 C373 1.393 . S
C377 C376 1.391 . S
H378 C386 0.950 . S
H379 C391 0.950 . S
H380 C388 0.950 . S
H381 C390 0.950 . S
H382 C392 0.950 . S
H383 C394 0.950 . S
H384 C396 0.950 . S
H385 C397 0.950 . S
C386 H378 0.950 . S
C386 C387 1.386 . S
C386 C388 1.391 . S
C387 C386 1.386 . S
C387 C391 1.393 1_545 S
C388 H380 0.950 . S
C388 C386 1.391 . S
C388 C389 1.400 . S
C389 C388 1.400 . S
C389 C390 1.398 1_545 S
C389 C395 1.491 . S
C390 H381 0.950 . S
C390 C389 1.398 1_565 S
C390 C391 1.391 . S
C391 H379 0.950 . S
C391 C387 1.393 1_565 S
C391 C390 1.391 . S
C392 H382 0.950 . S
C392 C393 1.386 1_565 S
C392 C394 1.391 . S
C393 C392 1.386 1_545 S
C393 C397 1.393 . S
C394 H383 0.950 . S
C394 C392 1.391 . S
C394 C395 1.400 1_565 S
C395 C389 1.491 . S
C395 C394 1.400 1_545 S
C395 C396 1.398 . S
C396 H384 0.950 . S
C396 C395 1.398 . S
C396 C397 1.391 . S
C397 H385 0.950 . S
C397 C393 1.393 . S
C397 C396 1.391 . S
H398 C406 0.950 . S
H399 C411 0.950 . S
H400 C408 0.950 . S
H401 C410 0.950 . S
H402 C412 0.950 . S
H403 C414 0.950 . S
H404 C416 0.950 . S
H405 C417 0.950 . S
C406 H398 0.950 . S
C406 C407 1.386 . S
C406 C408 1.391 . S
C407 C406 1.386 . S
C407 C411 1.393 . S
C408 H400 0.950 . S
C408 C406 1.391 . S
C408 C409 1.400 . S
C409 C408 1.400 . S
C409 C410 1.398 . S
C409 C415 1.491 . S
C410 H401 0.950 . S
C410 C409 1.398 . S
C410 C411 1.391 . S
C411 H399 0.950 . S
C411 C407 1.393 . S
C411 C410 1.391 . S
C412 H402 0.950 . S
C412 C413 1.386 . S
C412 C414 1.391 . S
C413 C412 1.386 . S
C413 C417 1.393 . S
C414 H403 0.950 . S
C414 C412 1.391 . S
C414 C415 1.400 1_545 S
C415 C409 1.491 . S
C415 C414 1.400 1_565 S
C415 C416 1.398 . S
C416 H404 0.950 . S
C416 C415 1.398 . S
C416 C417 1.391 1_565 S
C417 H405 0.950 . S
C417 C413 1.393 . S
C417 C416 1.391 1_545 S
H418 C426 0.950 . S
H419 C431 0.950 . S
H420 C428 0.950 . S
H421 C430 0.950 . S
H422 C432 0.948 1_545 S
H423 C434 0.950 . S
H424 C436 0.950 . S
H425 C437 0.950 . S
C426 H418 0.950 . S
C426 C427 1.386 . S
C426 C428 1.391 . S
C427 C426 1.386 . S
C427 C431 1.393 . S
C428 H420 0.950 . S
C428 C426 1.391 . S
C428 C429 1.400 . S
C429 C428 1.400 . S
C429 C430 1.398 . S
C429 C435 1.491 . S
C430 H421 0.950 . S
C430 C429 1.398 . S
C430 C431 1.391 . S
C431 H419 0.950 . S
C431 C427 1.393 . S
C431 C430 1.391 . S
C432 H422 0.948 1_565 S
C432 C433 1.384 1_565 S
C432 C434 1.394 . S
C433 C432 1.384 1_545 S
C433 C437 1.393 1_545 S
C434 H423 0.950 . S
C434 C432 1.394 . S
C434 C435 1.400 . S
C435 C429 1.491 . S
C435 C434 1.400 . S
C435 C436 1.398 . S
C436 H424 0.950 . S
C436 C435 1.398 . S
C436 C437 1.391 . S
C437 H425 0.950 . S
C437 C433 1.393 1_565 S
C437 C436 1.391 . S
H438 C446 0.950 . S
H439 C451 0.950 . S
H440 C448 0.950 . S
H441 C450 0.950 . S
H442 C452 0.950 . S
H443 C454 0.950 . S
H444 C456 0.950 . S
H445 C457 0.950 . S
C446 H438 0.950 . S
C446 C447 1.386 . S
C446 C448 1.391 . S
C447 C446 1.386 . S
C447 C451 1.393 . S
C448 H440 0.950 . S
C448 C446 1.391 . S
C448 C449 1.400 . S
C449 C448 1.400 . S
C449 C450 1.398 . S
C449 C455 1.491 . S
C450 H441 0.950 . S
C450 C449 1.398 . S
C450 C451 1.391 . S
C451 H439 0.950 . S
C451 C447 1.393 . S
C451 C450 1.391 . S
C452 H442 0.950 . S
C452 C453 1.386 . S
C452 C454 1.391 . S
C453 C452 1.386 . S
C453 C457 1.393 . S
C454 H443 0.950 . S
C454 C452 1.391 . S
C454 C455 1.400 . S
C455 C449 1.491 . S
C455 C454 1.400 . S
C455 C456 1.398 . S
C456 H444 0.950 . S
C456 C455 1.398 . S
C456 C457 1.391 . S
C457 H445 0.950 . S
C457 C453 1.393 . S
C457 C456 1.391 . S
H458 C466 0.950 1_655 S
H459 C471 0.950 . S
H460 C468 0.950 . S
H461 C470 0.950 . S
H462 C472 0.950 . S
H463 C474 0.950 . S
H464 C476 0.950 . S
H465 C477 0.950 . S
C466 H458 0.950 1_455 S
C466 C467 1.386 . S
C466 C468 1.391 . S
C467 C466 1.386 . S
C467 C471 1.393 1_565 S
C468 H460 0.950 . S
C468 C466 1.391 . S
C468 C469 1.400 . S
C469 C468 1.400 . S
C469 C470 1.398 1_565 S
C469 C475 1.491 . S
C470 H461 0.950 . S
C470 C469 1.398 1_545 S
C470 C471 1.391 . S
C471 H459 0.950 . S
C471 C467 1.393 1_545 S
C471 C470 1.391 . S
C472 H462 0.950 . S
C472 C473 1.386 1_545 S
C472 C474 1.391 . S
C473 C472 1.386 1_565 S
C473 C477 1.393 . S
C474 H463 0.950 . S
C474 C472 1.391 . S
C474 C475 1.400 1_545 S
C475 C469 1.491 . S
C475 C474 1.400 1_565 S
C475 C476 1.398 . S
C476 H464 0.950 . S
C476 C475 1.398 . S
C476 C477 1.391 . S
C477 H465 0.950 . S
C477 C473 1.393 . S
C477 C476 1.391 . S
H478 C486 0.950 . S
H479 C491 0.942 1_655 S
H480 C488 0.950 . S
H481 C490 0.950 . S
H482 C492 0.950 . S
H483 C494 0.950 . S
H484 C496 0.950 . S
H485 C497 0.950 . S
C486 H478 0.950 . S
C486 C487 1.386 . S
C486 C488 1.391 . S
C487 C486 1.386 . S
C487 C491 1.393 . S
C488 H480 0.950 . S
C488 C486 1.391 . S
C488 C489 1.400 . S
C489 C488 1.400 . S
C489 C490 1.398 . S
C489 C495 1.491 . S
C490 H481 0.950 . S
C490 C489 1.398 . S
C490 C491 1.391 . S
C491 H479 0.942 1_455 S
C491 C487 1.393 . S
C491 C490 1.391 . S
C492 H482 0.950 . S
C492 C493 1.386 . S
C492 C494 1.391 . S
C493 C492 1.386 . S
C493 C497 1.393 . S
C494 H483 0.950 . S
C494 C492 1.391 . S
C494 C495 1.400 . S
C495 C489 1.491 . S
C495 C494 1.400 . S
C495 C496 1.398 . S
C496 H484 0.950 . S
C496 C495 1.398 . S
C496 C497 1.391 . S
C497 H485 0.950 . S
C497 C493 1.393 . S
C497 C496 1.391 . S
H498 C506 0.950 . S
H499 C511 0.950 . S
H500 C508 0.950 . S
H501 C510 0.950 . S
H502 C512 0.950 . S
H503 C514 0.954 1_554 S
H504 C516 0.950 . S
H505 C517 0.950 . S
C506 H498 0.950 . S
C506 C507 1.386 . S
C506 C508 1.391 . S
C507 C506 1.386 . S
C507 C511 1.393 . S
C508 H500 0.950 . S
C508 C506 1.391 . S
C508 C509 1.400 . S
C509 C508 1.400 . S
C509 C510 1.398 . S
C509 C515 1.491 . S
C510 H501 0.950 . S
C510 C509 1.398 . S
C510 C511 1.391 . S
C511 H499 0.950 . S
C511 C507 1.393 . S
C511 C510 1.391 . S
C512 H502 0.950 . S
C512 C513 1.386 . S
C512 C514 1.383 . S
C513 C512 1.386 . S
C513 C517 1.393 . S
C514 H503 0.954 1_556 S
C514 C512 1.383 . S
C514 C515 1.404 1_556 S
C515 C509 1.491 . S
C515 C514 1.404 1_554 S
C515 C516 1.398 1_554 S
C516 H504 0.950 . S
C516 C515 1.398 1_556 S
C516 C517 1.391 . S
C517 H505 0.950 . S
C517 C513 1.393 . S
C517 C516 1.391 . S
H518 C526 0.950 . S
H519 C531 0.950 . S
H520 C528 0.950 . S
H521 C530 0.950 . S
H522 C532 0.950 . S
H523 C534 0.950 . S
H524 C536 0.950 . S
H525 C537 0.950 . S
C526 H518 0.950 . S
C526 C527 1.386 . S
C526 C528 1.391 . S
C527 C526 1.386 . S
C527 C531 1.393 . S
C528 H520 0.950 . S
C528 C526 1.391 . S
C528 C529 1.400 . S
C529 C528 1.400 . S
C529 C530 1.398 . S
C529 C535 1.491 . S
C530 H521 0.950 . S
C530 C529 1.398 . S
C530 C531 1.391 . S
C531 H519 0.950 . S
C531 C527 1.393 . S
C531 C530 1.391 . S
C532 H522 0.950 . S
C532 C533 1.386 . S
C532 C534 1.391 . S
C533 C532 1.386 . S
C533 C537 1.393 . S
C534 H523 0.950 . S
C534 C532 1.391 . S
C534 C535 1.400 . S
C535 C529 1.491 . S
C535 C534 1.400 . S
C535 C536 1.398 . S
C536 H524 0.950 . S
C536 C535 1.398 . S
C536 C537 1.391 . S
C537 H525 0.950 . S
C537 C533 1.393 . S
C537 C536 1.391 . S
H538 C546 0.950 1_565 S
H539 C551 0.950 . S
H540 C548 0.950 . S
H541 C550 0.950 . S
H542 C552 0.950 . S
H543 C554 0.950 . S
H544 C556 0.950 . S
H545 C557 0.950 . S
C546 H538 0.950 1_545 S
C546 C547 1.386 1_455 S
C546 C548 1.391 . S
C547 C546 1.386 1_655 S
C547 C551 1.393 . S
C548 H540 0.950 . S
C548 C546 1.391 . S
C548 C549 1.400 1_455 S
C549 C548 1.400 1_655 S
C549 C550 1.398 . S
C549 C555 1.491 . S
C550 H541 0.950 . S
C550 C549 1.398 . S
C550 C551 1.391 . S
C551 H539 0.950 . S
C551 C547 1.393 . S
C551 C550 1.391 . S
C552 H542 0.950 . S
C552 C553 1.386 . S
C552 C554 1.391 . S
C553 C552 1.386 . S
C553 C557 1.393 1_655 S
C554 H543 0.950 . S
C554 C552 1.391 . S
C554 C555 1.400 . S
C555 C549 1.491 . S
C555 C554 1.400 . S
C555 C556 1.398 1_655 S
C556 H544 0.950 . S
C556 C555 1.398 1_455 S
C556 C557 1.391 . S
C557 H545 0.950 . S
C557 C553 1.393 1_455 S
C557 C556 1.391 . S
C327 C39 1.501 . S
C333 C38 1.501 . S
C347 C91 1.500 . S
C353 C92 1.500 . S
C367 C145 1.498 1_565 S
C373 C144 1.498 . S
C387 C198 1.499 . S
C393 C197 1.499 . S
C407 C251 1.499 . S
C413 C250 1.499 . S
C427 C304 1.498 . S
C433 C303 1.498 . S
C447 C287 1.545 . S
C453 C22 1.549 . S
C467 C181 1.546 . S
C473 C75 1.545 . S
C487 C128 1.540 . S
C493 C234 1.540 . S
C507 C29 1.560 . S
C513 C241 1.555 . S
C527 C294 1.569 . S
C533 C82 1.566 . S
C547 C188 1.559 . S
C553 C135 1.557 1_655 S
