# Generated by pormake.
# Topology ukv, (4)-cn, num edge types: 1
# Building blocks:
#     Node 0, Type 0, BuildingBlock: QUQFOY_clean_sbu_1, # of connection points: 4
#     Node 1, Type 0, BuildingBlock: QUQFOY_clean_sbu_1, # of connection points: 4
#     Node 2, Type 0, BuildingBlock: QUQFOY_clean_sbu_1, # of connection points: 4
#     Node 3, Type 0, BuildingBlock: QUQFOY_clean_sbu_1, # of connection points: 4
#     Node 4, Type 0, BuildingBlock: QUQFOY_clean_sbu_1, # of connection points: 4
#     Node 5, Type 0, BuildingBlock: QUQFOY_clean_sbu_1, # of connection points: 4
#     Node 6, Type 0, BuildingBlock: QUQFOY_clean_sbu_1, # of connection points: 4
#     Node 7, Type 0, BuildingBlock: QUQFOY_clean_sbu_1, # of connection points: 4
#     Node 8, Type 0, BuildingBlock: QUQFOY_clean_sbu_1, # of connection points: 4
#     Node 9, Type 0, BuildingBlock: QUQFOY_clean_sbu_1, # of connection points: 4
#     Node 10, Type 0, BuildingBlock: QUQFOY_clean_sbu_1, # of connection points: 4
#     Node 11, Type 0, BuildingBlock: QUQFOY_clean_sbu_1, # of connection points: 4
#     Node 12, Type 0, BuildingBlock: QUQFOY_clean_sbu_1, # of connection points: 4
#     Node 13, Type 0, BuildingBlock: QUQFOY_clean_sbu_1, # of connection points: 4
#     Node 14, Type 0, BuildingBlock: QUQFOY_clean_sbu_1, # of connection points: 4
#     Node 15, Type 0, BuildingBlock: QUQFOY_clean_sbu_1, # of connection points: 4
#     Node 16, Type 0, BuildingBlock: QUQFOY_clean_sbu_1, # of connection points: 4
#     Node 17, Type 0, BuildingBlock: QUQFOY_clean_sbu_1, # of connection points: 4
#     Node 18, Type 0, BuildingBlock: QUQFOY_clean_sbu_1, # of connection points: 4
#     Node 19, Type 0, BuildingBlock: QUQFOY_clean_sbu_1, # of connection points: 4
#     Node 20, Type 0, BuildingBlock: QUQFOY_clean_sbu_1, # of connection points: 4
#     Node 21, Type 0, BuildingBlock: QUQFOY_clean_sbu_1, # of connection points: 4
#     Node 22, Type 0, BuildingBlock: QUQFOY_clean_sbu_1, # of connection points: 4
#     Node 23, Type 0, BuildingBlock: QUQFOY_clean_sbu_1, # of connection points: 4
#     Node 24, Type 0, BuildingBlock: QUQFOY_clean_sbu_1, # of connection points: 4
#     Node 25, Type 0, BuildingBlock: QUQFOY_clean_sbu_1, # of connection points: 4
#     Node 26, Type 0, BuildingBlock: QUQFOY_clean_sbu_1, # of connection points: 4
#     Node 27, Type 0, BuildingBlock: QUQFOY_clean_sbu_1, # of connection points: 4
#     Node 28, Type 0, BuildingBlock: QUQFOY_clean_sbu_1, # of connection points: 4
#     Node 29, Type 0, BuildingBlock: QUQFOY_clean_sbu_1, # of connection points: 4
#     Node 30, Type 0, BuildingBlock: QUQFOY_clean_sbu_1, # of connection points: 4
#     Node 31, Type 0, BuildingBlock: QUQFOY_clean_sbu_1, # of connection points: 4
#     Node 32, Type 0, BuildingBlock: QUQFOY_clean_sbu_1, # of connection points: 4
#     Node 33, Type 0, BuildingBlock: QUQFOY_clean_sbu_1, # of connection points: 4
#     Node 34, Type 0, BuildingBlock: QUQFOY_clean_sbu_1, # of connection points: 4
#     Node 35, Type 0, BuildingBlock: QUQFOY_clean_sbu_1, # of connection points: 4
#     Edge 36, Type (0, 0), BuildingBlock: AJUNOK_clean_linker_0, # of connection points: 2
#     Edge 37, Type (0, 0), BuildingBlock: AJUNOK_clean_linker_0, # of connection points: 2
#     Edge 38, Type (0, 0), BuildingBlock: AJUNOK_clean_linker_0, # of connection points: 2
#     Edge 39, Type (0, 0), BuildingBlock: AJUNOK_clean_linker_0, # of connection points: 2
#     Edge 40, Type (0, 0), BuildingBlock: AJUNOK_clean_linker_0, # of connection points: 2
#     Edge 41, Type (0, 0), BuildingBlock: AJUNOK_clean_linker_0, # of connection points: 2
#     Edge 42, Type (0, 0), BuildingBlock: AJUNOK_clean_linker_0, # of connection points: 2
#     Edge 43, Type (0, 0), BuildingBlock: AJUNOK_clean_linker_0, # of connection points: 2
#     Edge 44, Type (0, 0), BuildingBlock: AJUNOK_clean_linker_0, # of connection points: 2
#     Edge 45, Type (0, 0), BuildingBlock: AJUNOK_clean_linker_0, # of connection points: 2
#     Edge 46, Type (0, 0), BuildingBlock: AJUNOK_clean_linker_0, # of connection points: 2
#     Edge 47, Type (0, 0), BuildingBlock: AJUNOK_clean_linker_0, # of connection points: 2
#     Edge 48, Type (0, 0), BuildingBlock: AJUNOK_clean_linker_0, # of connection points: 2
#     Edge 49, Type (0, 0), BuildingBlock: AJUNOK_clean_linker_0, # of connection points: 2
#     Edge 50, Type (0, 0), BuildingBlock: AJUNOK_clean_linker_0, # of connection points: 2
#     Edge 51, Type (0, 0), BuildingBlock: AJUNOK_clean_linker_0, # of connection points: 2
#     Edge 52, Type (0, 0), BuildingBlock: AJUNOK_clean_linker_0, # of connection points: 2
#     Edge 53, Type (0, 0), BuildingBlock: AJUNOK_clean_linker_0, # of connection points: 2
#     Edge 54, Type (0, 0), BuildingBlock: AJUNOK_clean_linker_0, # of connection points: 2
#     Edge 55, Type (0, 0), BuildingBlock: AJUNOK_clean_linker_0, # of connection points: 2
#     Edge 56, Type (0, 0), BuildingBlock: AJUNOK_clean_linker_0, # of connection points: 2
#     Edge 57, Type (0, 0), BuildingBlock: AJUNOK_clean_linker_0, # of connection points: 2
#     Edge 58, Type (0, 0), BuildingBlock: AJUNOK_clean_linker_0, # of connection points: 2
#     Edge 59, Type (0, 0), BuildingBlock: AJUNOK_clean_linker_0, # of connection points: 2
#     Edge 60, Type (0, 0), BuildingBlock: AJUNOK_clean_linker_0, # of connection points: 2
#     Edge 61, Type (0, 0), BuildingBlock: AJUNOK_clean_linker_0, # of connection points: 2
#     Edge 62, Type (0, 0), BuildingBlock: AJUNOK_clean_linker_0, # of connection points: 2
#     Edge 63, Type (0, 0), BuildingBlock: AJUNOK_clean_linker_0, # of connection points: 2
#     Edge 64, Type (0, 0), BuildingBlock: AJUNOK_clean_linker_0, # of connection points: 2
#     Edge 65, Type (0, 0), BuildingBlock: AJUNOK_clean_linker_0, # of connection points: 2
#     Edge 66, Type (0, 0), BuildingBlock: AJUNOK_clean_linker_0, # of connection points: 2
#     Edge 67, Type (0, 0), BuildingBlock: AJUNOK_clean_linker_0, # of connection points: 2
#     Edge 68, Type (0, 0), BuildingBlock: AJUNOK_clean_linker_0, # of connection points: 2
#     Edge 69, Type (0, 0), BuildingBlock: AJUNOK_clean_linker_0, # of connection points: 2
#     Edge 70, Type (0, 0), BuildingBlock: AJUNOK_clean_linker_0, # of connection points: 2
#     Edge 71, Type (0, 0), BuildingBlock: AJUNOK_clean_linker_0, # of connection points: 2
#     Edge 72, Type (0, 0), BuildingBlock: AJUNOK_clean_linker_0, # of connection points: 2
#     Edge 73, Type (0, 0), BuildingBlock: AJUNOK_clean_linker_0, # of connection points: 2
#     Edge 74, Type (0, 0), BuildingBlock: AJUNOK_clean_linker_0, # of connection points: 2
#     Edge 75, Type (0, 0), BuildingBlock: AJUNOK_clean_linker_0, # of connection points: 2
#     Edge 76, Type (0, 0), BuildingBlock: AJUNOK_clean_linker_0, # of connection points: 2
#     Edge 77, Type (0, 0), BuildingBlock: AJUNOK_clean_linker_0, # of connection points: 2
#     Edge 78, Type (0, 0), BuildingBlock: AJUNOK_clean_linker_0, # of connection points: 2
#     Edge 79, Type (0, 0), BuildingBlock: AJUNOK_clean_linker_0, # of connection points: 2
#     Edge 80, Type (0, 0), BuildingBlock: AJUNOK_clean_linker_0, # of connection points: 2
#     Edge 81, Type (0, 0), BuildingBlock: AJUNOK_clean_linker_0, # of connection points: 2
#     Edge 82, Type (0, 0), BuildingBlock: AJUNOK_clean_linker_0, # of connection points: 2
#     Edge 83, Type (0, 0), BuildingBlock: AJUNOK_clean_linker_0, # of connection points: 2
#     Edge 84, Type (0, 0), BuildingBlock: AJUNOK_clean_linker_0, # of connection points: 2
#     Edge 85, Type (0, 0), BuildingBlock: AJUNOK_clean_linker_0, # of connection points: 2
#     Edge 86, Type (0, 0), BuildingBlock: AJUNOK_clean_linker_0, # of connection points: 2
#     Edge 87, Type (0, 0), BuildingBlock: AJUNOK_clean_linker_0, # of connection points: 2
#     Edge 88, Type (0, 0), BuildingBlock: AJUNOK_clean_linker_0, # of connection points: 2
#     Edge 89, Type (0, 0), BuildingBlock: AJUNOK_clean_linker_0, # of connection points: 2
#     Edge 90, Type (0, 0), BuildingBlock: AJUNOK_clean_linker_0, # of connection points: 2
#     Edge 91, Type (0, 0), BuildingBlock: AJUNOK_clean_linker_0, # of connection points: 2
#     Edge 92, Type (0, 0), BuildingBlock: AJUNOK_clean_linker_0, # of connection points: 2
#     Edge 93, Type (0, 0), BuildingBlock: AJUNOK_clean_linker_0, # of connection points: 2
#     Edge 94, Type (0, 0), BuildingBlock: AJUNOK_clean_linker_0, # of connection points: 2
#     Edge 95, Type (0, 0), BuildingBlock: AJUNOK_clean_linker_0, # of connection points: 2
#     Edge 96, Type (0, 0), BuildingBlock: AJUNOK_clean_linker_0, # of connection points: 2
#     Edge 97, Type (0, 0), BuildingBlock: AJUNOK_clean_linker_0, # of connection points: 2
#     Edge 98, Type (0, 0), BuildingBlock: AJUNOK_clean_linker_0, # of connection points: 2
#     Edge 99, Type (0, 0), BuildingBlock: AJUNOK_clean_linker_0, # of connection points: 2
#     Edge 100, Type (0, 0), BuildingBlock: AJUNOK_clean_linker_0, # of connection points: 2
#     Edge 101, Type (0, 0), BuildingBlock: AJUNOK_clean_linker_0, # of connection points: 2
#     Edge 102, Type (0, 0), BuildingBlock: AJUNOK_clean_linker_0, # of connection points: 2
#     Edge 103, Type (0, 0), BuildingBlock: AJUNOK_clean_linker_0, # of connection points: 2
#     Edge 104, Type (0, 0), BuildingBlock: AJUNOK_clean_linker_0, # of connection points: 2
#     Edge 105, Type (0, 0), BuildingBlock: AJUNOK_clean_linker_0, # of connection points: 2
#     Edge 106, Type (0, 0), BuildingBlock: AJUNOK_clean_linker_0, # of connection points: 2
#     Edge 107, Type (0, 0), BuildingBlock: AJUNOK_clean_linker_0, # of connection points: 2
# Relax obj value: 0.138
# Max RMSD: 0.497
# Mean RMSD: 0.342
data_MOF--net-ukv--node1-QUQFOY_clean_sbu_1--edge1-AJUNOK_clean_linker_0
_symmetry_space_group_name_H-M    P1
_symmetry_Int_Tables_number       1
_symmetry_cell_setting            triclinic
loop_
_symmetry_equiv_pos_as_xyz
'x, y, z'
_cell_length_a     59.865981
_cell_length_b     59.748268
_cell_length_c     16.343208
_cell_angle_alpha  90.011628
_cell_angle_beta   90.178437
_cell_angle_gamma 121.98181
loop_
_atom_site_label
_atom_site_type_symbol
_atom_site_fract_x
_atom_site_fract_y
_atom_site_fract_z
_atom_type_partial_charge
O0 O 0.33111 0.10946 0.99809 0.0
Cd1 Cd 0.32373 0.12815 0.08571 0.0
Cd2 Cd 0.37718 0.15326 0.0962 0.0
O3 O 0.37005 0.11796 0.03921 0.0
O4 O 0.28603 0.09948 0.11934 0.0
O5 O 0.32116 0.10927 0.1917 0.0
C6 C 0.29633 0.09316 0.17787 0.0
C7 C 0.38694 0.17277 0.22729 0.0
C8 C 0.34943 0.10483 0.99422 0.0
C9 C 0.35735 0.18181 1.00222 0.0
O10 O 0.37584 0.17759 1.01179 0.0
O11 O 0.33499 0.16673 0.03771 0.0
O12 O 0.40588 0.17713 0.17871 0.0
O13 O 0.36326 0.15543 0.20462 0.0
O14 O 0.96273 0.25257 0.0345 0.0
Cd15 Cd 0.95015 0.22479 0.11808 0.0
Cd16 Cd 0.92236 0.24493 0.15697 0.0
O17 O 0.955 0.27942 0.10382 0.0
O18 O 0.98289 0.22227 0.13274 0.0
O19 O 0.97304 0.2447 0.21721 0.0
C20 C 0.99005 0.23902 0.19266 0.0
C21 C 0.90114 0.22584 0.28235 0.0
C22 C 0.96654 0.27531 0.04488 0.0
C23 C 0.89576 0.20123 0.0407 0.0
O24 O 0.89865 0.22281 0.06393 0.0
O25 O 0.9116 0.19449 0.06877 0.0
O26 O 0.8972 0.24257 0.24482 0.0
O27 O 0.91953 0.22269 0.25438 0.0
O28 O 0.73963 0.65302 0.22013 0.0
Cd29 Cd 0.77311 0.68086 0.16499 0.0
Cd30 Cd 0.75067 0.6168 0.24693 0.0
O31 O 0.71484 0.61154 0.20513 0.0
O32 O 0.77137 0.71178 0.12235 0.0
O33 O 0.78953 0.7124 0.24034 0.0
C34 C 0.78064 0.72309 0.19228 0.0
C35 C 0.77104 0.62566 0.37684 0.0
C36 C 0.72079 0.63421 0.181 0.0
C37 C 0.78996 0.6413 0.09976 0.0
O38 O 0.7753 0.6225 0.14891 0.0
O39 O 0.79217 0.66404 0.10174 0.0
O40 O 0.75658 0.60156 0.3512 0.0
O41 O 0.7718 0.64393 0.33219 0.0
O42 O 0.12537 0.33817 0.49877 0.0
Cd43 Cd 0.13827 0.32669 0.40663 0.0
Cd44 Cd 0.16441 0.37772 0.3741 0.0
O45 O 0.1301 0.37287 0.43485 0.0
O46 O 0.10614 0.2891 0.39056 0.0
O47 O 0.115 0.3217 0.30726 0.0
C48 C 0.09852 0.29772 0.33051 0.0
C49 C 0.18095 0.378 0.24182 0.0
C50 C 0.11958 0.35555 0.49199 0.0
C51 C 0.19492 0.36185 0.47087 0.0
O52 O 0.19085 0.38042 0.45885 0.0
O53 O 0.17851 0.33866 0.44104 0.0
O54 O 0.18439 0.39964 0.27235 0.0
O55 O 0.16553 0.35644 0.28125 0.0
O56 O 0.66206 0.73768 0.3235 0.0
Cd57 Cd 0.69274 0.77134 0.37237 0.0
Cd58 Cd 0.62957 0.75284 0.30792 0.0
O59 O 0.62062 0.71506 0.34072 0.0
O60 O 0.72305 0.76755 0.40251 0.0
O61 O 0.72161 0.78624 0.2878 0.0
C62 C 0.73259 0.77639 0.33064 0.0
C63 C 0.63411 0.77266 0.17993 0.0
C64 C 0.64293 0.71955 0.36342 0.0
C65 C 0.65972 0.79225 0.45502 0.0
O66 O 0.63968 0.77779 0.40951 0.0
O67 O 0.68182 0.79369 0.4455 0.0
O68 O 0.61218 0.76229 0.21985 0.0
O69 O 0.65231 0.76948 0.20916 0.0
O70 O 0.25191 0.96144 0.48202 0.0
Cd71 Cd 0.22598 0.94651 0.39332 0.0
Cd72 Cd 0.25112 0.92353 0.35865 0.0
O73 O 0.28245 0.95779 0.41976 0.0
O74 O 0.22121 0.97745 0.37077 0.0
O75 O 0.24669 0.96884 0.29611 0.0
C76 C 0.23928 0.98505 0.31509 0.0
C77 C 0.22939 0.89789 0.24095 0.0
C78 C 0.27548 0.96735 0.47794 0.0
C79 C 0.20914 0.89431 0.47311 0.0
O80 O 0.23192 0.90027 0.45252 0.0
O81 O 0.19918 0.90695 0.44136 0.0
O82 O 0.24878 0.89723 0.27416 0.0
O83 O 0.22517 0.91582 0.26707 0.0
O84 O 0.69586 0.92343 0.93554 0.0
Cd85 Cd 0.70744 0.90696 0.8542 0.0
Cd86 Cd 0.65646 0.88383 0.81823 0.0
O87 O 0.66134 0.91879 0.86991 0.0
O88 O 0.74652 0.93555 0.84252 0.0
O89 O 0.71598 0.92954 0.75325 0.0
C90 C 0.73978 0.94448 0.78097 0.0
C91 C 0.65303 0.86071 0.69776 0.0
C92 C 0.67866 0.92947 0.92712 0.0
C93 C 0.66879 0.85454 0.93094 0.0
O94 O 0.65227 0.86081 0.91307 0.0
O95 O 0.69199 0.86727 0.8991 0.0
O96 O 0.63204 0.85782 0.73125 0.0
O97 O 0.67557 0.87919 0.72607 0.0
O98 O 0.09432 0.76242 0.87198 0.0
Cd99 Cd 0.09088 0.78893 0.94039 0.0
Cd100 Cd 0.14443 0.78848 0.84617 0.0
O101 O 0.12005 0.74801 0.86804 0.0
O102 O 0.05371 0.77354 0.98307 0.0
O103 O 0.06841 0.79907 0.87451 0.0
C104 C 0.04858 0.78319 0.92017 0.0
C105 C 0.16005 0.81106 0.72106 0.0
C106 C 0.1002 0.74653 0.90116 0.0
C107 C 0.14995 0.81964 1.01109 0.0
O108 O 0.15818 0.81099 0.9544 0.0
O109 O 0.12614 0.81487 1.01173 0.0
O110 O 0.17266 0.8022 0.76007 0.0
O111 O 0.13758 0.80532 0.75019 0.0
O112 O 0.24541 0.30522 0.98837 0.0
Cd113 Cd 0.23659 0.31473 0.88677 0.0
Cd114 Cd 0.27282 0.36156 0.88016 0.0
O115 O 0.28462 0.34075 0.96867 0.0
O116 O 0.22837 0.28417 0.80953 0.0
O117 O 0.26759 0.32068 0.81666 0.0
C118 C 0.25319 0.29665 0.79084 0.0
C119 C 0.26088 0.3644 0.73889 0.0
C120 C 0.2692 0.31936 1.00932 0.0
C121 C 0.23447 0.36349 0.96482 0.0
O122 O 0.25892 0.37879 0.9526 0.0
O123 O 0.22244 0.33979 0.93485 0.0
O124 O 0.28476 0.37983 0.76542 0.0
O125 O 0.24475 0.34647 0.78823 0.0
O126 O 0.92185 0.68491 0.62695 0.0
Cd127 Cd 0.90454 0.69492 0.7102 0.0
Cd128 Cd 0.87979 0.64327 0.73259 0.0
O129 O 0.91285 0.64637 0.67254 0.0
O130 O 0.93414 0.7333 0.72211 0.0
O131 O 0.9242 0.70387 0.81919 0.0
C132 C 0.94049 0.72719 0.79066 0.0
C133 C 0.85844 0.63696 0.85682 0.0
C134 C 0.92562 0.66604 0.62414 0.0
C135 C 0.85001 0.65936 0.63526 0.0
O136 O 0.85455 0.64127 0.64801 0.0
O137 O 0.86587 0.68286 0.66335 0.0
O138 O 0.85534 0.61685 0.81615 0.0
O139 O 0.87667 0.66033 0.83351 0.0
O140 O 0.33621 0.25464 0.46134 0.0
Cd141 Cd 0.3322 0.23575 0.56171 0.0
Cd142 Cd 0.37933 0.2723 0.59291 0.0
O143 O 0.36064 0.29121 0.53079 0.0
O144 O 0.29592 0.22531 0.60562 0.0
O145 O 0.3328 0.25978 0.65203 0.0
C146 C 0.3074 0.2468 0.64897 0.0
C147 C 0.37734 0.25308 0.72728 0.0
C148 C 0.34497 0.27882 0.47045 0.0
C149 C 0.37615 0.23085 0.4923 0.0
O150 O 0.39054 0.25568 0.50447 0.0
O151 O 0.35348 0.21738 0.52746 0.0
O152 O 0.39475 0.27767 0.71381 0.0
O153 O 0.36121 0.24079 0.66913 0.0
O154 O 0.78623 0.08131 0.53563 0.0
Cd155 Cd 0.81531 0.09609 0.61584 0.0
Cd156 Cd 0.79381 0.12246 0.65864 0.0
O157 O 0.7596 0.08747 0.6118 0.0
O158 O 0.82097 0.0653 0.62813 0.0
O159 O 0.79835 0.07366 0.71643 0.0
C160 C 0.80464 0.05737 0.68904 0.0
C161 C 0.81512 0.14087 0.78751 0.0
C162 C 0.76327 0.07593 0.5517 0.0
C163 C 0.83492 0.14966 0.5368 0.0
O164 O 0.8134 0.1466 0.5611 0.0
O165 O 0.84263 0.13481 0.56666 0.0
O166 O 0.79768 0.14534 0.75845 0.0
O167 O 0.81865 0.12436 0.74758 0.0
O168 O 0.9644 0.39941 0.40387 0.0
Cd169 Cd 0.92418 0.37273 0.40896 0.0
Cd170 Cd 0.93064 0.42234 0.48541 0.0
O171 O 0.96995 0.43519 0.46536 0.0
O172 O 0.91963 0.3369 0.38749 0.0
O173 O 0.90719 0.34609 0.50234 0.0
C174 C 0.90987 0.32943 0.45977 0.0
C175 C 0.91765 0.44157 0.58871 0.0
C176 C 0.97926 0.42333 0.42671 0.0
C177 C 0.90337 0.40188 0.31688 0.0
O178 O 0.91155 0.41782 0.37696 0.0
O179 O 0.90506 0.38142 0.31772 0.0
O180 O 0.93216 0.45498 0.52791 0.0
O181 O 0.91155 0.41742 0.59392 0.0
O182 O 0.59582 0.60202 0.39201 0.0
Cd183 Cd 0.5824 0.57401 0.47722 0.0
Cd184 Cd 0.56792 0.60306 0.53861 0.0
O185 O 0.60636 0.63124 0.48966 0.0
O186 O 0.61173 0.56635 0.48332 0.0
O187 O 0.60592 0.58987 0.57579 0.0
C188 C 0.621 0.58259 0.54487 0.0
C189 C 0.54847 0.58812 0.66983 0.0
C190 C 0.61063 0.62527 0.41839 0.0
C191 C 0.53001 0.56056 0.42919 0.0
O192 O 0.53995 0.58469 0.44797 0.0
O193 O 0.54152 0.54863 0.4528 0.0
O194 O 0.55101 0.60917 0.63783 0.0
O195 O 0.5591 0.57715 0.63156 0.0
O196 O 0.47859 0.08283 0.29521 0.0
Cd197 Cd 0.49055 0.12281 0.2985 0.0
Cd198 Cd 0.54276 0.11261 0.36031 0.0
O199 O 0.51077 0.07545 0.32664 0.0
O200 O 0.45897 0.12637 0.29218 0.0
O201 O 0.4854 0.13916 0.39982 0.0
C202 C 0.46453 0.13624 0.36523 0.0
C203 C 0.57322 0.12239 0.46514 0.0
C204 C 0.48716 0.06728 0.30316 0.0
C205 C 0.53977 0.14511 0.23538 0.0
O206 O 0.54109 0.14273 0.3119 0.0
O207 O 0.51929 0.14429 0.21043 0.0
O208 O 0.57817 0.11865 0.3911 0.0
O209 O 0.5504 0.11901 0.47968 0.0
O210 O 0.75721 0.65019 0.83775 0.0
Cd211 Cd 0.77175 0.65408 0.7285 0.0
Cd212 Cd 0.78517 0.70101 0.7203 0.0
O213 O 0.75094 0.68223 0.80454 0.0
O214 O 0.74302 0.62084 0.66887 0.0
O215 O 0.74636 0.65928 0.6594 0.0
C216 C 0.73263 0.63417 0.6462 0.0
C217 C 0.79993 0.70827 0.58028 0.0
C218 C 0.74603 0.66272 0.85151 0.0
C219 C 0.82636 0.69873 0.79397 0.0
O220 O 0.81693 0.71331 0.79136 0.0
O221 O 0.81361 0.67574 0.75956 0.0
O222 O 0.79564 0.72475 0.61795 0.0
O223 O 0.79369 0.68687 0.61821 0.0
O224 O 0.34797 0.12255 0.71014 0.0
Cd225 Cd 0.35513 0.14924 0.62634 0.0
Cd226 Cd 0.3051 0.11452 0.58852 0.0
O227 O 0.31775 0.08932 0.63551 0.0
O228 O 0.39453 0.16823 0.6041 0.0
O229 O 0.36432 0.13682 0.52442 0.0
C230 C 0.38891 0.15233 0.5427 0.0
C231 C 0.30528 0.13476 0.46234 0.0
C232 C 0.33479 0.09814 0.69391 0.0
C233 C 0.31294 0.15648 0.69542 0.0
O234 O 0.29782 0.13186 0.68353 0.0
O235 O 0.33547 0.16911 0.65982 0.0
O236 O 0.28402 0.11338 0.48553 0.0
O237 O 0.32594 0.1426 0.5059 0.0
O238 O 0.93193 0.2326 0.77709 0.0
Cd239 Cd 0.90624 0.20712 0.6947 0.0
Cd240 Cd 0.94785 0.19824 0.67922 0.0
O241 O 0.96799 0.23864 0.71901 0.0
O242 O 0.91396 0.22715 0.58707 0.0
O243 O 0.88303 0.22187 0.67163 0.0
C244 C 0.89713 0.23341 0.60761 0.0
C245 C 0.93314 0.17829 0.54825 0.0
C246 C 0.95655 0.2468 0.76579 0.0
C247 C 0.90123 0.15868 0.77531 0.0
O248 O 0.92626 0.17089 0.76923 0.0
O249 O 0.88832 0.16718 0.73697 0.0
O250 O 0.95503 0.18192 0.57634 0.0
O251 O 0.92238 0.18809 0.5905 0.0
O252 O 0.34333 0.28283 0.1251 0.0
Cd253 Cd 0.37051 0.28144 0.19708 0.0
Cd254 Cd 0.30651 0.23476 0.08559 0.0
O255 O 0.30161 0.26558 0.12037 0.0
O256 O 0.39717 0.31674 0.24905 0.0
O257 O 0.40601 0.30121 0.1405 0.0
C258 C 0.41265 0.32099 0.18821 0.0
C259 C 0.29951 0.2135 0.95905 0.0
C260 C 0.32345 0.28253 0.15311 0.0
C261 C 0.3319 0.22144 0.24076 0.0
O262 O 0.31585 0.21843 0.18366 0.0
O263 O 0.35382 0.24349 0.25394 0.0
O264 O 0.28066 0.20485 1.01189 0.0
O265 O 0.3212 0.23533 0.97534 0.0
O266 O 0.78771 0.09764 0.25382 0.0
Cd267 Cd 0.8165 0.12438 0.17997 0.0
Cd268 Cd 0.82262 0.08156 0.16923 0.0
O269 O 0.78373 0.06017 0.21673 0.0
O270 O 0.80315 0.14884 0.15644 0.0
O271 O 0.80241 0.12154 0.06491 0.0
C272 C 0.79513 0.1375 0.08591 0.0
C273 C 0.84045 0.08836 0.03546 0.0
C274 C 0.77514 0.07266 0.25606 0.0
C275 C 0.86188 0.1273 0.2738 0.0
O276 O 0.85016 0.10263 0.25987 0.0
O277 O 0.85431 0.14132 0.2377 0.0
O278 O 0.83826 0.06938 0.07993 0.0
O279 O 0.8309 0.10153 0.06478 0.0
O280 O 0.89503 0.67141 0.33709 0.0
Cd281 Cd 0.87211 0.66724 0.2439 0.0
Cd282 Cd 0.90852 0.71826 0.21656 0.0
O283 O 0.93012 0.70192 0.27057 0.0
O284 O 0.85427 0.62861 0.20816 0.0
O285 O 0.88878 0.66117 0.14534 0.0
C286 C 0.87252 0.63607 0.15344 0.0
C287 C 0.89263 0.71887 0.08154 0.0
C288 C 0.91965 0.68392 0.32597 0.0
C289 C 0.86292 0.7095 0.3093 0.0
O290 O 0.8878 0.72507 0.30374 0.0
O291 O 0.85171 0.68717 0.27139 0.0
O292 O 0.91494 0.73887 0.10565 0.0
O293 O 0.88166 0.69899 0.12974 0.0
O294 O 0.63915 0.0707 0.81975 0.0
Cd295 Cd 0.66378 0.11089 0.8375 0.0
Cd296 Cd 0.61508 0.10287 0.9069 0.0
O297 O 0.60239 0.06424 0.87492 0.0
O298 O 0.70097 0.11846 0.82877 0.0
O299 O 0.68601 0.1263 0.941 0.0
C300 C 0.70503 0.1262 0.90408 0.0
C301 C 0.59371 0.11224 1.01252 0.0
C302 C 0.61476 0.05563 0.83581 0.0
C303 C 0.63616 0.13302 0.74555 0.0
O304 O 0.61993 0.12447 0.80444 0.0
O305 O 0.65635 0.13099 0.74694 0.0
O306 O 0.58156 0.09931 0.94767 0.0
O307 O 0.61788 0.11877 0.02038 0.0
O308 O 0.94066 0.55191 0.84712 0.0
Cd309 Cd 0.90123 0.53961 0.86929 0.0
Cd310 Cd 0.91173 0.4883 0.92297 0.0
O311 O 0.94623 0.51781 0.86671 0.0
O312 O 0.89662 0.57081 0.87385 0.0
O313 O 0.88818 0.54428 0.97899 0.0
C314 C 0.88925 0.5649 0.94919 0.0
C315 C 0.90706 0.46076 0.03139 0.0
C316 C 0.95447 0.5413 0.84168 0.0
C317 C 0.87685 0.48951 0.80801 0.0
O318 O 0.87955 0.48789 0.8842 0.0
O319 O 0.87734 0.51004 0.78511 0.0
O320 O 0.90704 0.45363 0.9566 0.0
O321 O 0.91135 0.48413 0.04393 0.0
O322 O 0.43129 0.45482 0.03255 0.0
Cd323 Cd 0.46914 0.46578 0.02728 0.0
Cd324 Cd 0.43353 0.49685 0.04499 0.0
O325 O 0.40322 0.46245 0.98336 0.0
O326 O 0.46975 0.43302 0.99755 0.0
O327 O 0.47621 0.44871 0.12303 0.0
C328 C 0.47157 0.42955 0.07472 0.0
C329 C 0.44823 0.51055 0.17999 0.0
C330 C 0.4146 0.44969 0.97658 0.0
C331 C 0.48423 0.52019 0.93817 0.0
O332 O 0.46346 0.51902 0.96315 0.0
O333 O 0.49027 0.50307 0.95995 0.0
O334 O 0.43567 0.51949 0.14106 0.0
O335 O 0.44949 0.49176 0.14614 0.0
O336 O 0.66629 0.76572 0.68731 0.0
Cd337 Cd 0.66667 0.78066 0.79383 0.0
Cd338 Cd 0.71304 0.78828 0.81426 0.0
O339 O 0.69134 0.75232 0.73911 0.0
O340 O 0.62994 0.7551 0.84292 0.0
O341 O 0.66479 0.75263 0.86925 0.0
C342 C 0.63962 0.74188 0.87341 0.0
C343 C 0.71677 0.80284 0.95518 0.0
C344 C 0.67473 0.75033 0.6846 0.0
C345 C 0.71426 0.83172 0.73076 0.0
O346 O 0.72622 0.81944 0.73713 0.0
O347 O 0.69184 0.82248 0.76656 0.0
O348 O 0.73369 0.7977 0.92626 0.0
O349 O 0.698 0.79835 0.90727 0.0
O350 O 0.23533 0.92216 0.76089 0.0
Cd351 Cd 0.20826 0.89387 0.83703 0.0
Cd352 Cd 0.19302 0.93048 0.84624 0.0
O353 O 0.23286 0.95557 0.80678 0.0
O354 O 0.22505 0.87331 0.87368 0.0
O355 O 0.22375 0.90257 0.95154 0.0
C356 C 0.23277 0.88746 0.93959 0.0
C357 C 0.1723 0.91834 0.9753 0.0
C358 C 0.24497 0.94684 0.76591 0.0
C359 C 0.15803 0.8825 0.74811 0.0
O360 O 0.16727 0.90712 0.75574 0.0
O361 O 0.16892 0.87189 0.78664 0.0
O362 O 0.17417 0.93833 0.93777 0.0
O363 O 0.18407 0.90777 0.94291 0.0
O364 O 0.1359 0.35302 0.79297 0.0
Cd365 Cd 0.15767 0.35289 0.88271 0.0
Cd366 Cd 0.12063 0.30429 0.9025 0.0
O367 O 0.09937 0.32097 0.84833 0.0
O368 O 0.17646 0.39058 0.92221 0.0
O369 O 0.14327 0.35755 0.98897 0.0
C370 C 0.15924 0.38269 0.98044 0.0
C371 C 0.13637 0.29555 0.0236 0.0
C372 C 0.11113 0.34019 0.79729 0.0
C373 C 0.16239 0.30966 0.80434 0.0
O374 O 0.13758 0.29554 0.81218 0.0
O375 O 0.17569 0.33246 0.83898 0.0
O376 O 0.11285 0.27844 0.99733 0.0
O377 O 0.14868 0.31833 0.98891 0.0
O378 O 0.39631 0.94623 0.19109 0.0
Cd379 Cd 0.36225 0.90797 0.19086 0.0
Cd380 Cd 0.42044 0.90762 0.1306 0.0
O381 O 0.43318 0.94639 0.1631 0.0
O382 O 0.32961 0.91007 0.19794 0.0
O383 O 0.33757 0.8922 0.09268 0.0
C384 C 0.32248 0.89892 0.12684 0.0
C385 C 0.43769 0.89451 0.02613 0.0
C386 C 0.42145 0.95827 0.18448 0.0
C387 C 0.38283 0.88077 0.25936 0.0
O388 O 0.38586 0.88084 0.18268 0.0
O389 O 0.36543 0.88538 0.28248 0.0
O390 O 0.44629 0.89716 0.10042 0.0
O391 O 0.42013 0.90038 1.01139 0.0
O392 O 0.09631 0.47532 0.26185 0.0
Cd393 Cd 0.13539 0.48678 0.23908 0.0
Cd394 Cd 0.12211 0.53706 0.17866 0.0
O395 O 0.08763 0.50687 0.23338 0.0
O396 O 0.13919 0.45522 0.24612 0.0
O397 O 0.14633 0.47799 0.13235 0.0
C398 C 0.14507 0.45817 0.1692 0.0
C399 C 0.12619 0.56474 0.07119 0.0
C400 C 0.08084 0.48407 0.26184 0.0
C401 C 0.15914 0.53749 0.29007 0.0
O402 O 0.15439 0.53715 0.21443 0.0
O403 O 0.16063 0.51826 0.31533 0.0
O404 O 0.12657 0.57173 0.14637 0.0
O405 O 0.12209 0.54148 0.05781 0.0
O406 O 0.59792 0.60847 0.14564 0.0
Cd407 Cd 0.57155 0.59298 0.05634 0.0
Cd408 Cd 0.59925 0.57088 0.02072 0.0
O409 O 0.62903 0.6077 0.07598 0.0
O410 O 0.56314 0.62161 0.037 0.0
O411 O 0.58954 0.61593 0.9578 0.0
C412 C 0.58055 0.63056 0.97921 0.0
C413 C 0.5831 0.55326 0.88679 0.0
C414 C 0.62203 0.61708 0.13443 0.0
C415 C 0.55207 0.53936 0.12601 0.0
O416 O 0.57521 0.54478 0.10961 0.0
O417 O 0.54375 0.5534 0.09446 0.0
O418 O 0.60199 0.55153 0.91847 0.0
O419 O 0.57597 0.56702 0.92688 0.0
O420 O 0.06991 0.62515 0.69283 0.0
Cd421 Cd 0.11027 0.65139 0.68491 0.0
Cd422 Cd 0.10423 0.6033 0.61246 0.0
O423 O 0.06468 0.5897 0.63081 0.0
O424 O 0.11537 0.68758 0.69988 0.0
O425 O 0.12774 0.67659 0.58821 0.0
C426 C 0.12518 0.69392 0.6273 0.0
C427 C 0.11796 0.58485 0.50918 0.0
C428 C 0.05517 0.60115 0.67052 0.0
C429 C 0.1304 0.62293 0.78192 0.0
O430 O 0.12254 0.60696 0.72192 0.0
O431 O 0.12919 0.64363 0.77892 0.0
O432 O 0.1032 0.5711 0.56909 0.0
O433 O 0.12395 0.60897 0.50473 0.0
O434 O 0.43621 0.45692 0.64163 0.0
Cd435 Cd 0.45327 0.47693 0.5436 0.0
Cd436 Cd 0.47583 0.45032 0.523 0.0
O437 O 0.44254 0.42533 0.60246 0.0
O438 O 0.42443 0.48218 0.49866 0.0
O439 O 0.43074 0.45099 0.45357 0.0
C440 C 0.41607 0.46091 0.45524 0.0
C441 C 0.4905 0.46469 0.38683 0.0
C442 C 0.43176 0.434 0.65071 0.0
C443 C 0.51041 0.496 0.61471 0.0
O444 O 0.50596 0.4733 0.59864 0.0
O445 O 0.49418 0.50262 0.58891 0.0
O446 O 0.49136 0.44513 0.41756 0.0
O447 O 0.47909 0.47382 0.42945 0.0
O448 O 0.55902 0.93853 0.67377 0.0
Cd449 Cd 0.53758 0.8983 0.65591 0.0
Cd450 Cd 0.50164 0.91387 0.58632 0.0
O451 O 0.5337 0.95108 0.6169 0.0
O452 O 0.56498 0.88868 0.67304 0.0
O453 O 0.54391 0.88171 0.55613 0.0
C454 C 0.56206 0.88125 0.59764 0.0
C455 C 0.47099 0.90726 0.48072 0.0
C456 C 0.55442 0.95645 0.6564 0.0
C457 C 0.48742 0.88163 0.74608 0.0
O458 O 0.48275 0.89309 0.68919 0.0
O459 O 0.50784 0.87997 0.74414 0.0
O460 O 0.47438 0.92132 0.54455 0.0
O461 O 0.48617 0.89811 0.47371 0.0
O462 O 0.27276 0.31706 0.38585 0.0
Cd463 Cd 0.26884 0.34413 0.3244 0.0
Cd464 Cd 0.22368 0.27771 0.41475 0.0
O465 O 0.25608 0.27549 0.38047 0.0
O466 O 0.30352 0.37267 0.27384 0.0
O467 O 0.28872 0.37917 0.38845 0.0
C468 C 0.30812 0.38717 0.33781 0.0
C469 C 0.20718 0.28086 0.54071 0.0
C470 C 0.2717 0.29789 0.34895 0.0
C471 C 0.21041 0.3004 0.25899 0.0
O472 O 0.20608 0.28328 0.31381 0.0
O473 O 0.2319 0.32363 0.25614 0.0
O474 O 0.19874 0.25782 0.50919 0.0
O475 O 0.2264 0.30123 0.50449 0.0
O476 O 0.67213 0.89816 0.23962 0.0
Cd477 Cd 0.66908 0.87074 0.31931 0.0
Cd478 Cd 0.72297 0.90911 0.32688 0.0
O479 O 0.71062 0.93325 0.27331 0.0
O480 O 0.63015 0.8503 0.35367 0.0
O481 O 0.66201 0.88007 0.43126 0.0
C482 C 0.63712 0.86477 0.41876 0.0
C483 C 0.73233 0.90236 0.46276 0.0
C484 C 0.68881 0.92273 0.23364 0.0
C485 C 0.70696 0.85967 0.22981 0.0
O486 O 0.72391 0.88403 0.24187 0.0
O487 O 0.6846 0.8486 0.26667 0.0
O488 O 0.75136 0.91906 0.41622 0.0
O489 O 0.70889 0.89174 0.43377 0.0
O490 O 0.12499 0.78677 0.23995 0.0
Cd491 Cd 0.13693 0.81002 0.3359 0.0
Cd492 Cd 0.08964 0.80253 0.33981 0.0
O493 O 0.0835 0.76752 0.27807 0.0
O494 O 0.16078 0.80168 0.40185 0.0
O495 O 0.11878 0.78489 0.43085 0.0
C496 C 0.14022 0.78528 0.44441 0.0
C497 C 0.0957 0.82047 0.47551 0.0
C498 C 0.10128 0.76807 0.23247 0.0
C499 C 0.12587 0.84919 0.24933 0.0
O500 O 0.10159 0.83118 0.25377 0.0
O501 O 0.14309 0.84721 0.29128 0.0
O502 O 0.0721 0.80595 0.44615 0.0
O503 O 0.11453 0.8233 0.4309 0.0
C504 C 0.23995 0.02488 0.25389 0.0
C505 C 0.25337 0.01262 0.28064 0.0
C506 C 0.25371 0.05096 0.22188 0.0
C507 C 0.28154 0.06633 0.21848 0.0
H508 H 0.21865 0.01405 0.25593 0.0
H509 H 0.24245 0.05913 0.19963 0.0
S510 S 0.32596 0.04386 0.28606 0.0
N511 N 0.2961 0.01824 0.30336 0.0
N512 N 0.32175 0.06692 0.24759 0.0
C513 C 0.29505 0.05439 0.24763 0.0
C514 C 0.28107 0.02773 0.27749 0.0
C515 C 0.03362 0.28069 0.22472 0.0
C516 C 0.01755 0.25293 0.22813 0.0
C517 C 0.05975 0.29461 0.2553 0.0
C518 C 0.07105 0.28165 0.29355 0.0
H519 H 0.02602 0.29182 0.19698 0.0
H520 H 0.07098 0.3159 0.25058 0.0
S521 S 0.03682 0.20897 0.32155 0.0
N522 N 1.01503 0.21292 0.2721 0.0
N523 N 0.06295 0.2389 0.33542 0.0
C524 C 0.05488 0.25383 0.29889 0.0
C525 C 0.02857 0.23958 0.26468 0.0
C526 C 0.76385 0.76044 0.34293 0.0
C527 C 0.75154 0.77016 0.29333 0.0
C528 C 0.77571 0.74756 0.30902 0.0
C529 C 0.77552 0.7435 0.22389 0.0
H530 H 0.76292 0.76129 0.40894 0.0
H531 H 0.78326 0.73897 0.3506 0.0
S532 S 0.74986 0.76892 0.06602 0.0
N533 N 0.74323 0.77794 0.15357 0.0
N534 N 0.765 0.75342 0.09033 0.0
C535 C 0.76541 0.7552 0.17327 0.0
C536 C 0.7536 0.7686 0.20779 0.0
C537 C 0.78464 0.98666 0.75349 0.0
C538 C 0.75679 0.97283 0.75317 0.0
C539 C 0.8003 0.01386 0.73232 0.0
C540 C 0.78879 0.0287 0.71383 0.0
H541 H 0.79441 0.97634 0.76962 0.0
H542 H 0.82153 0.02344 0.73193 0.0
S543 S 0.71697 1.00234 0.70587 0.0
N544 N 0.71872 0.97659 0.73156 0.0
N545 N 0.74773 0.02716 0.6962 0.0
C546 C 0.76107 0.01512 0.71432 0.0
C547 C 0.74523 0.98745 0.73289 0.0
C548 C 1.01481 0.77671 0.81309 0.0
C549 C 0.02048 0.77298 0.89412 0.0
C550 C 0.98877 0.76318 0.78195 0.0
C551 C 0.96706 0.74504 0.82993 0.0
H552 H 0.03074 0.78918 0.77172 0.0
H553 H 0.98587 0.76589 0.71811 0.0
S554 S 0.9702 0.73129 0.04979 0.0
N555 N 1.00123 0.75232 0.02478 0.0
N556 N 0.95283 0.72646 0.96569 0.0
C557 C 0.9722 0.74237 0.91238 0.0
C558 C 0.99867 0.75642 0.94449 0.0
C559 C 0.30658 0.28376 0.72098 0.0
C560 C 0.29258 0.25807 0.68741 0.0
C561 C 0.29366 0.29606 0.75134 0.0
C562 C 0.26594 0.2833 0.75095 0.0
H563 H 0.3279 0.2948 0.72297 0.0
H564 H 0.30569 0.31575 0.77654 0.0
S565 S 0.21981 0.21565 0.67097 0.0
N566 N 0.24922 0.22037 0.65498 0.0
N567 N 0.22506 0.24287 0.7153 0.0
C568 C 0.2517 0.25746 0.7185 0.0
C569 C 0.26491 0.24506 0.68607 0.0
C570 C 0.91069 0.26621 0.49163 0.0
C571 C 0.89669 0.25557 0.56514 0.0
C572 C 0.91383 0.2893 0.45652 0.0
C573 C 0.90367 0.30334 0.49405 0.0
H574 H 0.92005 0.2571 0.46189 0.0
H575 H 0.92527 0.29673 0.40093 0.0
S576 S 0.86442 0.28355 0.68534 0.0
N577 N 0.87141 0.26053 0.67188 0.0
N578 N 0.87797 0.30405 0.60764 0.0
C579 C 0.88904 0.29259 0.56637 0.0
C580 C 0.8854 0.26877 0.60131 0.0
C581 C 0.66386 0.58312 0.55891 0.0
C582 C 0.64909 0.59492 0.57376 0.0
C583 C 0.69079 0.5957 0.58174 0.0
C584 C 0.70442 0.62108 0.61765 0.0
H585 H 0.6545 0.56394 0.52976 0.0
H586 H 0.70107 0.58558 0.57041 0.0
S587 S 0.6752 0.66107 0.66709 0.0
N588 N 0.65062 0.63377 0.62638 0.0
N589 N 0.70066 0.65744 0.66633 0.0
C590 C 0.6899 0.63317 0.63153 0.0
C591 C 0.66249 0.62014 0.61041 0.0
C592 C 0.40216 0.13463 0.42514 0.0
C593 C 0.40949 0.15073 0.49557 0.0
C594 C 0.42027 0.13089 0.38242 0.0
C595 C 0.44653 0.14248 0.40905 0.0
H596 H 0.38203 0.1243 0.40314 0.0
H597 H 0.4133 0.11804 0.32936 0.0
S598 S 0.47624 0.18666 0.5893 0.0
N599 N 0.44534 0.17891 0.58879 0.0
N600 N 0.47915 0.17126 0.50996 0.0
C601 C 0.45431 0.15882 0.47896 0.0
C602 C 0.4359 0.16306 0.52175 0.0
C603 C 0.44128 0.37002 0.21786 0.0
C604 C 0.43379 0.34862 0.16432 0.0
C605 C 0.45558 0.39641 0.19015 0.0
C606 C 0.46312 0.40267 0.10747 0.0
H607 H 0.4349 0.36635 0.28095 0.0
H608 H 0.45921 0.41185 0.23294 0.0
S609 S 0.45274 0.35445 0.94527 0.0
N610 N 0.4384 0.33605 0.02669 0.0
N611 N 0.46505 0.38522 0.97514 0.0
C612 C 0.45789 0.38164 0.05518 0.0
C613 C 0.44339 0.3548 0.08342 0.0
C614 C 0.76811 0.1277 0.95725 0.0
C615 C 0.77498 0.1392 0.03588 0.0
C616 C 0.74635 0.12481 0.91392 0.0
C617 C 0.72993 0.13272 0.94772 0.0
H618 H 0.77903 0.11988 0.92989 0.0
H619 H 0.74172 0.11517 0.85473 0.0
S620 S 0.73988 0.16532 0.14973 0.0
N621 N 0.76417 0.15992 0.14376 0.0
N622 N 0.72308 0.15394 0.06347 0.0
C623 C 0.73705 0.14508 0.02512 0.0
C624 C 0.75955 0.14845 0.06875 0.0
C625 C 0.89212 0.62622 0.03233 0.0
C626 C 0.87507 0.61693 0.10043 0.0
C627 C 0.89584 0.60917 0.98283 0.0
C628 C 0.88346 0.58207 1.00046 0.0
H629 H 0.9029 0.64699 0.01691 0.0
H630 H 0.9092 0.61752 0.93152 0.0
S631 S 0.83693 0.54736 0.17132 0.0
N632 N 0.84525 0.57837 0.18151 0.0
N633 N 0.85315 0.54665 0.0908 0.0
C634 C 0.86642 0.57243 0.06835 0.0
C635 C 0.86204 0.58972 0.11762 0.0
C636 C 0.63161 0.69633 0.88183 0.0
C637 C 0.62288 0.71355 0.89991 0.0
C638 C 0.61706 0.66951 0.90392 0.0
C639 C 0.59311 0.65836 0.94692 0.0
H640 H 0.64999 0.7036 0.84957 0.0
H641 H 0.62525 0.65762 0.88904 0.0
S642 S 0.56107 0.69471 1.0087 0.0
N643 N 0.58813 0.71724 0.96136 0.0
N644 N 0.56115 0.66708 1.00584 0.0
C645 C 0.58389 0.67528 0.96478 0.0
C646 C 0.59859 0.70269 0.94051 0.0
C647 C 0.28469 0.87465 0.0262 0.0
C648 C 0.29835 0.89496 0.0844 0.0
C649 C 0.26281 0.87156 0.98254 0.0
C650 C 0.25374 0.88885 0.99428 0.0
H651 H 0.29108 0.86109 1.01371 0.0
H652 H 0.25334 0.85586 0.93767 0.0
S653 S 0.28381 0.94651 0.13575 0.0
N654 N 0.30147 0.93301 0.1499 0.0
N655 N 0.26122 0.92783 0.06709 0.0
C656 C 0.26726 0.90922 0.05264 0.0
C657 C 0.28927 0.91211 0.09775 0.0
C658 C 0.16672 0.42794 1.00447 0.0
C659 C 0.15645 0.40188 0.03182 0.0
C660 C 0.16318 0.44601 0.04929 0.0
C661 C 0.1494 0.43894 0.12397 0.0
H662 H 0.17727 0.43439 0.94707 0.0
H663 H 0.17132 0.4657 0.025 0.0
S664 S 0.11753 0.3729 0.22137 0.0
N665 N 0.13099 0.36977 0.1376 0.0
N666 N 0.12488 0.4037 0.22219 0.0
C667 C 0.13907 0.41297 0.15216 0.0
C668 C 0.14236 0.39447 0.10597 0.0
C669 C 0.14966 0.73053 0.52324 0.0
C670 C 0.13149 0.71938 0.58818 0.0
C671 C 0.15396 0.75314 0.481 0.0
C672 C 0.13973 0.76514 0.50034 0.0
H673 H 0.16031 0.72142 0.5038 0.0
H674 H 0.16745 0.76034 0.42982 0.0
S675 S 0.09048 0.7444 0.6666 0.0
N676 N 0.10021 0.72324 0.6721 0.0
N677 N 0.10727 0.76452 0.59069 0.0
C678 C 0.12203 0.75459 0.5664 0.0
C679 C 0.11819 0.73209 0.61076 0.0
C680 C 0.36703 0.44291 0.45779 0.0
C681 C 0.38919 0.44627 0.41586 0.0
C682 C 0.34099 0.42489 0.43016 0.0
C683 C 0.3358 0.40965 0.35837 0.0
H684 H 0.36974 0.45312 0.51522 0.0
H685 H 0.32478 0.42214 0.46733 0.0
S686 S 0.38722 0.41367 0.22035 0.0
N687 N 0.40419 0.43436 0.29541 0.0
N688 N 0.3559 0.4014 0.24212 0.0
C689 C 0.35799 0.41417 0.31325 0.0
C690 C 0.38441 0.43214 0.34229 0.0
C691 C 0.57265 0.85728 0.49164 0.0
C692 C 0.58061 0.87487 0.55835 0.0
C693 C 0.59065 0.85293 0.44986 0.0
C694 C 0.61757 0.86644 0.47174 0.0
H695 H 0.55238 0.84703 0.4708 0.0
H696 H 0.58355 0.8396 0.39797 0.0
S697 S 0.64876 0.91574 0.63996 0.0
N698 N 0.61732 0.90596 0.64411 0.0
N699 N 0.65114 0.89879 0.56442 0.0
C700 C 0.62567 0.88395 0.53899 0.0
C701 C 0.60725 0.88791 0.58244 0.0
C702 C 0.371 0.21212 0.79019 0.0
C703 C 0.37579 0.23764 0.80177 0.0
C704 C 0.36366 0.19407 0.85497 0.0
C705 C 0.36127 0.20077 0.9356 0.0
H706 H 0.37282 0.20603 0.72963 0.0
H707 H 0.36009 0.17465 0.84177 0.0
S708 S 0.37896 0.26745 1.00248 0.0
N709 N 0.38172 0.27011 0.90204 0.0
N710 N 0.36969 0.23677 0.02563 0.0
C711 C 0.36842 0.22706 0.94964 0.0
C712 C 0.37535 0.24536 0.88256 0.0
C713 C 0.83897 0.14368 0.91939 0.0
C714 C 0.83295 0.15624 0.85818 0.0
C715 C 0.85942 0.15802 0.9775 0.0
C716 C 0.87445 0.18565 0.97786 0.0
H717 H 0.82717 0.12248 0.92296 0.0
H718 H 0.86322 0.14765 0.02399 0.0
S719 S 0.86256 0.22841 0.84239 0.0
N720 N 0.84118 0.19824 0.80968 0.0
N721 N 0.87896 0.22517 0.91796 0.0
C722 C 0.86711 0.19851 0.92072 0.0
C723 C 0.8465 0.18388 0.86155 0.0
C724 C 0.84955 0.64746 0.9964 0.0
C725 C 0.8398 0.63396 0.92227 0.0
C726 C 0.83263 0.64711 0.05672 0.0
C727 C 0.80596 0.6367 0.0406 0.0
H728 H 0.87055 0.65904 1.0065 0.0
H729 H 0.84064 0.65691 0.11442 0.0
S730 S 0.77004 0.59953 0.85454 0.0
N731 N 0.8008 0.60805 0.83771 0.0
N732 N 0.76987 0.61138 0.94574 0.0
C733 C 0.79563 0.62296 0.96673 0.0
C734 C 0.81247 0.62115 0.90814 0.0
C735 C 0.25095 0.36052 0.58551 0.0
C736 C 0.24988 0.36975 0.66411 0.0
C737 C 0.2345 0.35945 0.52055 0.0
C738 C 0.21586 0.36683 0.53278 0.0
H739 H 0.26341 0.35269 0.57542 0.0
H740 H 0.23512 0.35118 0.46224 0.0
S741 S 0.20728 0.39469 0.72498 0.0
N742 N 0.23033 0.38842 0.74756 0.0
N743 N 0.19975 0.38636 0.62791 0.0
C744 C 0.21638 0.37809 0.60922 0.0
C745 C 0.23299 0.37921 0.67447 0.0
C746 C 0.67275 0.83634 0.51242 0.0
C747 C 0.65718 0.80886 0.51798 0.0
C748 C 0.67004 0.85274 0.56833 0.0
C749 C 0.65193 0.8425 0.63268 0.0
H750 H 0.68678 0.84496 0.46321 0.0
H751 H 0.68204 0.87383 0.56144 0.0
S752 S 0.60551 0.77127 0.67342 0.0
N753 N 0.62178 0.77168 0.59133 0.0
N754 N 0.61746 0.80248 0.69794 0.0
C755 C 0.63563 0.81484 0.63803 0.0
C756 C 0.63811 0.79806 0.58036 0.0
C757 C 0.16942 0.85351 0.53248 0.0
C758 C 0.19611 0.8733 0.53686 0.0
C759 C 0.15795 0.83245 0.58925 0.0
C760 C 0.17275 0.83053 0.65296 0.0
H761 H 0.15775 0.85422 0.48353 0.0
H762 H 0.13744 0.81735 0.58275 0.0
S763 S 0.24459 0.87481 0.68345 0.0
N764 N 0.23784 0.8879 0.60569 0.0
N765 N 0.21632 0.84858 0.71039 0.0
C766 C 0.19983 0.84934 0.65484 0.0
C767 C 0.21145 0.8707 0.59774 0.0
C768 C 0.66036 0.81064 0.97897 0.0
C769 C 0.66039 0.83368 0.99423 0.0
C770 C 0.65149 0.79041 0.03815 0.0
C771 C 0.64024 0.79174 0.11217 0.0
H772 H 0.66598 0.80802 0.91913 0.0
H773 H 0.6531 0.77352 0.02562 0.0
S774 S 0.62703 0.84374 0.16806 0.0
N775 N 0.64359 0.85426 0.08173 0.0
N776 N 0.62468 0.81555 0.18917 0.0
C777 C 0.63726 0.81332 0.1236 0.0
C778 C 0.6476 0.83435 0.06544 0.0
C779 C 0.17852 0.86501 0.06869 0.0
C780 C 0.17009 0.83839 0.07227 0.0
C781 C 0.19815 0.88417 0.12105 0.0
C782 C 0.21092 0.87754 0.17954 0.0
H783 H 0.17008 0.8707 0.02214 0.0
H784 H 0.20382 0.90452 0.11457 0.0
S785 S 0.19871 0.81026 0.20868 0.0
N786 N 0.1781 0.80642 0.13458 0.0
N787 N 0.21472 0.84183 0.23427 0.0
C788 C 0.20369 0.85086 0.18157 0.0
C789 C 0.1835 0.83143 0.12766 0.0
C790 C 0.21543 0.35471 0.10335 0.0
C791 C 0.22203 0.36998 0.03283 0.0
C792 C 0.2013 0.35689 0.16762 0.0
C793 C 0.1962 0.37728 0.16998 0.0
H794 H 0.22332 0.34243 0.11079 0.0
H795 H 0.19575 0.34339 0.21855 0.0
S796 S 0.22656 0.43426 0.02707 0.0
N797 N 0.23229 0.41276 0.9837 0.0
N798 N 0.20973 0.42017 0.11158 0.0
C799 C 0.2082 0.39672 0.10822 0.0
C800 C 0.22067 0.39277 0.0386 0.0
C801 C 0.81548 0.6544 0.4372 0.0
C802 C 0.7896 0.63323 0.44761 0.0
C803 C 0.83404 0.66464 0.50099 0.0
C804 C 0.828 0.65259 0.57778 0.0
H805 H 0.82167 0.66193 0.3768 0.0
H806 H 0.85394 0.68061 0.48798 0.0
S807 S 0.76677 0.58876 0.62675 0.0
N808 N 0.76089 0.5962 0.53494 0.0
N809 N 0.79637 0.61341 0.6537 0.0
C810 C 0.80301 0.62908 0.58673 0.0
C811 C 0.78371 0.61957 0.52198 0.0
C812 C 0.37951 0.17752 0.37552 0.0
C813 C 0.39111 0.18948 0.30069 0.0
C814 C 0.37667 0.19172 0.43936 0.0
C815 C 0.38444 0.21814 0.43045 0.0
H816 H 0.37078 0.15654 0.38218 0.0
H817 H 0.36748 0.18196 0.49572 0.0
S818 S 0.41794 0.25958 0.2482 0.0
N819 N 0.41246 0.23027 0.22334 0.0
N820 N 0.4065 0.25666 0.34204 0.0
C821 C 0.39771 0.23096 0.35768 0.0
C822 C 0.40107 0.21663 0.29307 0.0
C823 C 0.87801 0.18343 0.47496 0.0
C824 C 0.85076 0.17052 0.47355 0.0
C825 C 0.89429 0.20161 0.41479 0.0
C826 C 0.88371 0.2088 0.35074 0.0
H827 H 0.88625 0.1791 0.525 0.0
H828 H 0.91537 0.21026 0.41894 0.0
S829 S 0.81247 0.18296 0.32111 0.0
N830 N 0.81333 0.16743 0.4036 0.0
N831 N 0.84338 0.2025 0.29177 0.0
C832 C 0.85609 0.1972 0.35025 0.0
C833 C 0.83966 0.17802 0.41124 0.0
C834 C 0.90552 0.40727 0.16389 0.0
C835 C 0.89729 0.41119 0.24038 0.0
C836 C 0.90766 0.42262 0.09534 0.0
C837 C 0.90196 0.44264 0.10115 0.0
H838 H 0.91213 0.39361 0.15825 0.0
H839 H 0.91518 0.41974 0.03871 0.0
S840 S 0.87485 0.45727 0.28319 0.0
N841 N 0.87972 0.43388 0.31409 0.0
N842 N 0.88415 0.46282 0.18655 0.0
C843 C 0.89177 0.44526 0.17546 0.0
C844 C 0.88927 0.42948 0.24457 0.0
C845 C 0.4839 0.525 0.38524 0.0
C846 C 0.50787 0.54856 0.36899 0.0
C847 C 0.46359 0.51331 0.32583 0.0
C848 C 0.4662 0.52533 0.24952 0.0
H849 H 0.48096 0.51564 0.44406 0.0
H850 H 0.44618 0.49429 0.33789 0.0
S851 S 0.52344 0.58927 0.18192 0.0
N852 N 0.53195 0.58479 0.27379 0.0
N853 N 0.49367 0.56342 0.16427 0.0
C854 C 0.48926 0.54991 0.23532 0.0
C855 C 0.51006 0.56143 0.29463 0.0
C856 C 0.55451 0.11399 0.05648 0.0
C857 C 0.58044 0.12039 0.07228 0.0
C858 C 0.54171 0.12241 0.1084 0.0
C859 C 0.55416 0.13747 0.17898 0.0
H860 H 0.54392 0.10248 1.00302 0.0
H861 H 0.52172 0.11671 0.09352 0.0
S862 S 0.62214 0.16041 0.24769 0.0
N863 N 0.61823 0.1433 0.1637 0.0
N864 N 0.59412 0.15908 0.26098 0.0
C865 C 0.58004 0.14409 0.19569 0.0
C866 C 0.59318 0.13559 0.14257 0.0
C867 C 0.83458 0.69435 0.9383 0.0
C868 C 0.84543 0.70452 0.86144 0.0
C869 C 0.85024 0.7019 1.00885 0.0
C870 C 0.87781 0.71791 1.0059 0.0
H871 H 0.81345 0.68126 0.94456 0.0
H872 H 0.84065 0.69477 0.06721 0.0
S873 S 0.91373 0.76094 0.82988 0.0
N874 N 0.88386 0.74026 0.79312 0.0
N875 N 0.914 0.75168 0.92511 0.0
C876 C 0.88874 0.73115 0.93167 0.0
C877 C 0.87235 0.72479 0.85957 0.0
C878 C 0.31101 0.1951 0.7472 0.0
C879 C 0.30551 0.16942 0.75847 0.0
C880 C 0.30818 0.20918 0.81138 0.0
C881 C 0.29807 0.19734 0.88777 0.0
H882 H 0.31797 0.2043 0.68852 0.0
H883 H 0.31446 0.22962 0.80198 0.0
S884 S 0.27701 0.12891 0.94562 0.0
N885 N 0.2876 0.13189 0.85069 0.0
N886 N 0.28036 0.15745 0.96885 0.0
C887 C 0.29029 0.17079 0.89764 0.0
C888 C 0.29422 0.15692 0.83342 0.0
C889 C 0.86229 0.11424 0.82032 0.0
C890 C 0.88772 0.13634 0.83521 0.0
C891 C 0.8477 0.09585 0.88301 0.0
C892 C 0.85808 0.09907 0.96275 0.0
H893 H 0.85317 0.11189 0.76114 0.0
H894 H 0.82734 0.08068 0.87121 0.0
S895 S 0.92577 0.14986 0.02836 0.0
N896 N 0.92416 0.15736 0.93214 0.0
N897 N 0.89684 0.12322 0.04857 0.0
C898 C 0.88458 0.11902 0.97497 0.0
C899 C 0.89937 0.13763 0.91165 0.0
C900 C 0.33049 0.17977 0.27716 0.0
C901 C 0.32342 0.1982 0.295 0.0
C902 C 0.32206 0.1573 0.32689 0.0
C903 C 0.30624 0.15242 0.39607 0.0
H904 H 0.34285 0.18303 0.22482 0.0
H905 H 0.32877 0.14411 0.31352 0.0
S906 S 0.27573 0.1902 0.45387 0.0
N907 N 0.29464 0.20664 0.37524 0.0
N908 N 0.27988 0.16536 0.47055 0.0
C909 C 0.29696 0.16932 0.40963 0.0
C910 C 0.30527 0.19196 0.35858 0.0
C911 C 0.89241 0.13993 0.48722 0.0
C912 C 0.91845 0.16131 0.47592 0.0
C913 C 0.87452 0.12875 0.42123 0.0
C914 C 0.88193 0.13845 0.34104 0.0
H915 H 0.88529 0.13307 0.54858 0.0
H916 H 0.85436 0.11324 0.43373 0.0
S917 S 0.94996 0.18547 0.27503 0.0
N918 N 0.95238 0.18632 0.37574 0.0
N919 N 0.91871 0.16498 0.2515 0.0
C920 C 0.90865 0.15723 0.32757 0.0
C921 C 0.92695 0.16863 0.39497 0.0
C922 C 0.80464 0.70305 0.42869 0.0
C923 C 0.81608 0.71518 0.50411 0.0
C924 C 0.82024 0.70361 0.36272 0.0
C925 C 0.84774 0.71551 0.36997 0.0
H926 H 0.7834 0.69154 0.42236 0.0
H927 H 0.81051 0.69215 0.30854 0.0
S928 S 0.88734 0.75152 0.55383 0.0
N929 N 0.85674 0.74107 0.58037 0.0
N930 N 0.88577 0.74175 0.45831 0.0
C931 C 0.8595 0.72942 0.44333 0.0
C932 C 0.8437 0.72906 0.51001 0.0
C933 C 0.62958 0.12859 0.59361 0.0
C934 C 0.62681 0.13861 0.66839 0.0
C935 C 0.61302 0.12455 0.52642 0.0
C936 C 0.59299 0.13018 0.53193 0.0
H937 H 0.64305 0.12173 0.589 0.0
H938 H 0.61489 0.11546 0.47167 0.0
S939 S 0.58143 0.16195 0.70821 0.0
N940 N 0.60539 0.15798 0.73913 0.0
N941 N 0.57428 0.15023 0.61393 0.0
C942 C 0.59173 0.14247 0.6037 0.0
C943 C 0.6087 0.14681 0.67146 0.0
C944 C 0.91295 0.47921 0.63367 0.0
C945 C 0.90732 0.45336 0.64683 0.0
C946 C 0.90255 0.49054 0.68431 0.0
C947 C 0.88617 0.47662 0.75095 0.0
H948 H 0.92548 0.49089 0.58344 0.0
H949 H 0.90785 0.51058 0.67194 0.0
S950 S 0.86489 0.40836 0.81227 0.0
N951 N 0.88387 0.41416 0.73192 0.0
N952 N 0.8645 0.4355 0.82681 0.0
C953 C 0.88037 0.45083 0.765 0.0
C954 C 0.89086 0.43921 0.71321 0.0
C955 C 0.54056 0.57887 0.8217 0.0
C956 C 0.53078 0.5745 0.74114 0.0
C957 C 0.52495 0.56243 0.88709 0.0
C958 C 0.49946 0.54034 0.87314 0.0
H959 H 0.56073 0.59441 0.83314 0.0
H960 H 0.53329 0.56611 0.94794 0.0
S961 S 0.46243 0.5247 0.6776 0.0
N962 N 0.49213 0.54984 0.65474 0.0
N963 N 0.46333 0.5187 0.77585 0.0
C964 C 0.48853 0.53778 0.79471 0.0
C965 C 0.50419 0.55467 0.72885 0.0
C966 C 0.72989 0.8947 0.61585 0.0
C967 C 0.73649 0.8904 0.53702 0.0
C968 C 0.72391 0.87648 0.6804 0.0
C969 C 0.72426 0.85334 0.66816 0.0
H970 H 0.72718 0.91101 0.62549 0.0
H971 H 0.71812 0.88002 0.73925 0.0
S972 S 0.74453 0.83533 0.47653 0.0
N973 N 0.74624 0.86312 0.45389 0.0
N974 N 0.73519 0.82919 0.57309 0.0
C975 C 0.73335 0.85034 0.59168 0.0
C976 C 0.73946 0.86881 0.52677 0.0
C977 C 0.117 0.84044 0.69563 0.0
C978 C 0.13671 0.86734 0.68561 0.0
C979 C 0.10033 0.82518 0.62973 0.0
C980 C 0.10279 0.83651 0.55197 0.0
H981 H 0.1153 0.83088 0.75347 0.0
H982 H 0.08747 0.80406 0.6375 0.0
S983 S 0.14651 0.90718 0.49932 0.0
N984 N 0.15401 0.90533 0.59534 0.0
N985 N 0.12289 0.87699 0.47369 0.0
C986 C 0.11987 0.86396 0.54501 0.0
C987 C 0.1368 0.87933 0.61119 0.0
C988 C 0.18059 0.31448 0.66639 0.0
C989 C 0.17437 0.30154 0.74168 0.0
C990 C 0.18938 0.30601 0.60121 0.0
C991 C 0.19333 0.28505 0.60884 0.0
H992 H 0.17717 0.33032 0.65666 0.0
H993 H 0.19204 0.31501 0.54232 0.0
S994 S 0.16784 0.2372 0.78002 0.0
N995 N 0.16441 0.26147 0.81205 0.0
N996 N 0.18114 0.24578 0.68791 0.0
C997 C 0.18344 0.26947 0.67958 0.0
C998 C 0.17413 0.27789 0.74665 0.0
C999 C 0.43254 0.91036 0.43506 0.0
C1000 C 0.44925 0.90075 0.42125 0.0
C1001 C 0.41095 0.90352 0.38361 0.0
C1002 C 0.40512 0.88685 0.31548 0.0
H1003 H 0.43598 0.92321 0.48662 0.0
H1004 H 0.39895 0.91168 0.39695 0.0
S1005 S 0.44186 0.85551 0.25279 0.0
N1006 N 0.45792 0.87313 0.33434 0.0
N1007 N 0.41739 0.8603 0.23813 0.0
C1008 C 0.42155 0.87704 0.30083 0.0
C1009 C 0.44355 0.88395 0.3534 0.0
C1010 C 0.12373 0.54786 0.46561 0.0
C1011 C 0.12862 0.57338 0.45125 0.0
C1012 C 0.13425 0.5367 0.41496 0.0
C1013 C 0.15 0.55045 0.34711 0.0
H1014 H 0.1117 0.5363 0.51681 0.0
H1015 H 0.1295 0.51688 0.42818 0.0
S1016 S 0.16937 0.6179 0.28253 0.0
N1017 N 0.1508 0.61216 0.36394 0.0
N1018 N 0.1704 0.59107 0.26884 0.0
C1019 C 0.15513 0.57593 0.33189 0.0
C1020 C 0.14453 0.58741 0.38379 0.0
C1021 C 0.49366 0.48678 0.25246 0.0
C1022 C 0.50554 0.47951 0.31248 0.0
C1023 C 0.50857 0.50553 0.19115 0.0
C1024 C 0.5361 0.51801 0.18761 0.0
H1025 H 0.47255 0.47782 0.25342 0.0
H1026 H 0.49859 0.51052 0.14637 0.0
S1027 S 0.57708 0.50668 0.3333 0.0
N1028 N 0.54664 0.48659 0.36532 0.0
N1029 N 0.5747 0.52162 0.25176 0.0
C1030 C 0.5482 0.51046 0.2468 0.0
C1031 C 0.53295 0.4913 0.30869 0.0
C1032 C 0.14035 0.59271 0.85592 0.0
C1033 C 0.13573 0.61351 0.85981 0.0
C1034 C 0.13782 0.57764 0.92488 0.0
C1035 C 0.13091 0.58282 1.00155 0.0
H1036 H 0.14455 0.58696 0.79785 0.0
H1037 H 0.14067 0.56131 0.91727 0.0
S1038 S 0.12011 0.63722 0.04821 0.0
N1039 N 0.12621 0.64001 0.949 0.0
N1040 N 0.12215 0.61206 0.07942 0.0
C1041 C 0.12824 0.60483 1.00816 0.0
C1042 C 0.13057 0.62012 0.93726 0.0
C1043 C 0.53907 0.52301 0.82509 0.0
C1044 C 0.56645 0.53678 0.81565 0.0
C1045 C 0.52154 0.51102 0.75903 0.0
C1046 C 0.53056 0.51138 0.6798 0.0
H1047 H 0.53132 0.52137 0.88554 0.0
H1048 H 0.50057 0.5004 0.77072 0.0
S1049 S 0.59853 0.52814 0.6359 0.0
N1050 N 0.60084 0.53998 0.72913 0.0
N1051 N 0.56779 0.51581 0.60525 0.0
C1052 C 0.55761 0.52036 0.67267 0.0
C1053 C 0.57565 0.5334 0.74038 0.0
C1054 C 0.48471 0.88411 0.8984 0.0
C1055 C 0.47182 0.87628 0.82203 0.0
C1056 C 0.47298 0.88864 0.96584 0.0
C1057 C 0.44806 0.88568 0.95901 0.0
H1058 H 0.50482 0.88895 0.90435 0.0
H1059 H 0.48424 0.89611 0.022 0.0
S1060 S 0.40405 0.86019 0.77726 0.0
N1061 N 0.43117 0.86176 0.74756 0.0
N1062 N 0.40929 0.87035 0.87331 0.0
C1063 C 0.43406 0.87547 0.88525 0.0
C1064 C 0.44587 0.87068 0.81717 0.0
C1065 C 0.17631 0.29424 0.05632 0.0
C1066 C 0.15142 0.28887 0.08092 0.0
C1067 C 0.19439 0.29501 0.11328 0.0
C1068 C 0.189 0.29256 0.1972 0.0
H1069 H 0.18223 0.29899 0.9931 0.0
H1070 H 0.21366 0.30023 0.09274 0.0
S1071 S 0.12179 0.26052 0.28143 0.0
N1072 N 0.11838 0.26821 0.18699 0.0
N1073 N 0.15332 0.27175 0.29503 0.0
C1074 C 0.16253 0.28166 0.21954 0.0
C1075 C 0.14359 0.27974 0.16105 0.0
C1076 C 0.70819 0.80519 0.10638 0.0
C1077 C 0.72034 0.81797 0.03232 0.0
C1078 C 0.70489 0.81891 0.17164 0.0
C1079 C 0.71276 0.84559 0.1646 0.0
H1080 H 0.7 0.7842 0.11242 0.0
H1081 H 0.6958 0.80863 0.22782 0.0
S1082 S 0.74753 0.88855 0.98589 0.0
N1083 N 0.74196 0.85939 0.95876 0.0
N1084 N 0.73528 0.8847 0.07881 0.0
C1085 C 0.72614 0.85879 0.09236 0.0
C1086 C 0.72984 0.84505 0.02692 0.0
C1087 C 0.1329 0.87971 0.039 0.0
C1088 C 0.15519 0.90539 0.04805 0.0
C1089 C 0.12244 0.86228 0.10596 0.0
C1090 C 0.134 0.86976 0.18448 0.0
H1091 H 0.12521 0.87211 0.97841 0.0
H1092 H 0.10655 0.84214 0.09456 0.0
S1093 S 0.18558 0.93722 0.24488 0.0
N1094 N 0.18368 0.93934 0.14476 0.0
N1095 N 0.16417 0.90639 0.27064 0.0
C1096 C 0.15381 0.8963 0.19606 0.0
C1097 C 0.16423 0.9142 0.1279 0.0
C1098 C 0.31714 0.06712 0.80821 0.0
C1099 C 0.33801 0.08146 0.75366 0.0
C1100 C 0.32183 0.07008 0.89304 0.0
C1101 C 0.3474 0.08781 0.92456 0.0
H1102 H 0.297 0.05789 0.7867 0.0
H1103 H 0.30491 0.0623 0.93302 0.0
S1104 S 0.40906 0.11822 0.80539 0.0
N1105 N 0.38537 0.10412 0.73602 0.0
N1106 N 0.39415 0.11132 0.89503 0.0
C1107 C 0.36858 0.09624 0.87097 0.0
C1108 C 0.36377 0.09225 0.78485 0.0
C1109 C 0.99872 0.29032 0.93642 0.0
C1110 C 0.97911 0.2932 0.97447 0.0
C1111 C 0.99361 0.27762 0.85969 0.0
C1112 C 0.97076 0.27128 0.81591 0.0
H1113 H 1.01407 0.29106 0.97391 0.0
H1114 H 1.00543 0.26975 0.84069 0.0
S1115 S 0.92589 0.29459 0.86483 0.0
N1116 N 0.94468 0.30194 0.94707 0.0
N1117 N 0.93658 0.28141 0.79886 0.0
C1118 C 0.95685 0.28307 0.84207 0.0
C1119 C 0.96139 0.29449 0.92177 0.0
C1120 C 0.73038 0.67172 0.98393 0.0
C1121 C 0.72866 0.65378 0.92493 0.0
C1122 C 0.72368 0.66382 0.06632 0.0
C1123 C 0.71701 0.63854 0.09302 0.0
H1124 H 0.73901 0.69231 0.96828 0.0
H1125 H 0.72562 0.67811 0.11091 0.0
S1126 S 0.69997 0.582 0.95667 0.0
N1127 N 0.71116 0.60748 0.89447 0.0
N1128 N 0.70143 0.59368 0.04939 0.0
C1129 C 0.71103 0.61948 0.03244 0.0
C1130 C 0.7164 0.62703 0.94841 0.0
C1131 C 0.08171 0.32592 0.67607 0.0
C1132 C 0.09792 0.34614 0.7312 0.0
C1133 C 0.08398 0.3309 0.59131 0.0
C1134 C 0.10332 0.35591 0.55978 0.0
H1135 H 0.07071 0.3056 0.69657 0.0
H1136 H 0.07432 0.31403 0.5505 0.0
S1137 S 0.14145 0.41712 0.68106 0.0
N1138 N 0.12597 0.39362 0.75003 0.0
N1139 N 0.13191 0.40238 0.591 0.0
C1140 C 0.1147 0.37711 0.61465 0.0
C1141 C 0.11152 0.37227 0.70085 0.0
C1142 C 0.62991 0.7167 0.50973 0.0
C1143 C 0.64705 0.71655 0.45169 0.0
C1144 C 0.63768 0.72304 0.5914 0.0
C1145 C 0.66323 0.7305 0.61766 0.0
H1146 H 0.61147 0.7145 0.49105 0.0
H1147 H 0.62476 0.7254 0.63195 0.0
S1148 S 0.70882 0.71876 0.50036 0.0
N1149 N 0.6856 0.71328 0.43349 0.0
N1150 N 0.70123 0.72756 0.58683 0.0
C1151 C 0.67834 0.72543 0.5644 0.0
C1152 C 0.67001 0.71804 0.48108 0.0
C1153 C 0.28307 0.99483 0.59734 0.0
C1154 C 0.29068 0.9793 0.55432 0.0
C1155 C 0.27015 0.98621 0.67337 0.0
C1156 C 0.26795 0.96414 0.71219 0.0
H1157 H 0.28084 1.00922 0.56399 0.0
H1158 H 0.25931 0.99476 0.69611 0.0
S1159 S 0.30525 0.93295 0.65372 0.0
N1160 N 0.30829 0.95139 0.5741 0.0
N1161 N 0.28757 0.9374 0.7219 0.0
C1162 C 0.28385 0.95508 0.68178 0.0
C1163 C 0.29542 0.96289 0.6024 0.0
C1164 C 0.65432 0.92685 0.04932 0.0
C1165 C 0.67608 0.94283 0.99932 0.0
C1166 C 0.65806 0.92369 0.13245 0.0
C1167 C 0.68359 0.93667 0.16763 0.0
H1168 H 0.6354 0.91297 0.02181 0.0
H1169 H 0.64139 0.9082 0.16576 0.0
S1170 S 0.74398 0.99082 0.07062 0.0
N1171 N 0.72145 0.97971 0.99745 0.0
N1172 N 0.72885 0.9732 0.15281 0.0
C1173 C 0.70399 0.95754 0.12318 0.0
C1174 C 0.6999 0.96117 0.0391 0.0
C1175 C 0.11746 0.75134 0.12396 0.0
C1176 C 0.09569 0.75045 0.16081 0.0
C1177 C 0.11798 0.7473 0.03996 0.0
C1178 C 0.09624 0.741 0.99031 0.0
H1179 H 0.13543 0.75819 0.15842 0.0
H1180 H 0.1364 0.75166 1.01321 0.0
S1181 S 0.02962 0.72002 0.06619 0.0
N1182 N 0.04876 0.73263 0.14779 0.0
N1183 N 0.04906 0.723 0.98969 0.0
C1184 C 0.07251 0.73412 0.02954 0.0
C1185 C 0.07227 0.73911 0.11525 0.0
C1186 C 0.29637 0.32374 0.22361 0.0
C1187 C 0.27589 0.30012 0.25832 0.0
C1188 C 0.2962 0.3297 0.13994 0.0
C1189 C 0.27628 0.3113 0.08729 0.0
H1190 H 0.31199 0.33816 0.26273 0.0
H1191 H 0.31061 0.34927 0.11809 0.0
S1192 S 0.22487 0.2421 0.14139 0.0
N1193 N 0.23936 0.25571 0.22924 0.0
N1194 N 0.24053 0.2653 0.07192 0.0
C1195 C 0.25881 0.28567 0.11887 0.0
C1196 C 0.25825 0.2803 0.20428 0.0
C1197 C 0.92143 0.6508 0.41153 0.0
C1198 C 0.93453 0.67717 0.38322 0.0
C1199 C 0.92365 0.64503 0.49343 0.0
C1200 C 0.93907 0.66555 0.54869 0.0
H1201 H 0.90612 0.6351 0.37431 0.0
H1202 H 0.90953 0.62545 0.51607 0.0
S1203 S 0.98694 0.73535 0.49464 0.0
N1204 N 0.9702 0.72213 0.40915 0.0
N1205 N 0.97558 0.71101 0.5616 0.0
C1206 C 0.95767 0.6904 0.51483 0.0
C1207 C 0.95478 0.69651 0.43225 0.0
C1208 C 0.30949 0.27052 0.37719 0.0
C1209 C 0.33426 0.28951 0.41071 0.0
C1210 C 0.30497 0.26927 0.29303 0.0
C1211 C 0.32376 0.2888 0.24107 0.0
H1212 H 0.29544 0.25375 0.41361 0.0
H1213 H 0.28773 0.25181 0.26833 0.0
S1214 S 0.38067 0.35303 0.31092 0.0
N1215 N 0.37131 0.33437 0.39389 0.0
N1216 N 0.36084 0.33431 0.23598 0.0
C1217 C 0.34483 0.3117 0.27775 0.0
C1218 C 0.35038 0.31188 0.36322 0.0
C1219 C 0.74609 0.03985 0.45377 0.0
C1220 C 0.74349 0.06016 0.48791 0.0
C1221 C 0.7526 0.04062 0.37055 0.0
C1222 C 0.75404 0.06014 0.31898 0.0
H1223 H 0.74946 0.02752 0.49413 0.0
H1224 H 0.76025 0.02868 0.35044 0.0
S1225 S 0.73161 0.10564 0.37021 0.0
N1226 N 0.73125 0.09196 0.45848 0.0
N1227 N 0.74039 0.09166 0.30079 0.0
C1228 C 0.74295 0.07443 0.34811 0.0
C1229 C 0.73769 0.07443 0.43332 0.0
C1230 C 0.01881 0.46612 0.3809 0.0
C1231 C 1.00658 0.43876 0.39386 0.0
C1232 C 0.04242 0.48044 0.3368 0.0
C1233 C 0.05503 0.46811 0.30441 0.0
H1234 H 1.0096 0.47649 0.40236 0.0
H1235 H 0.0509 0.50142 0.32847 0.0
S1236 S 0.03199 0.3971 0.32495 0.0
N1237 N 1.00952 0.40008 0.3732 0.0
N1238 N 0.05383 0.42689 0.29111 0.0
C1239 C 0.0434 0.44088 0.3189 0.0
C1240 C 0.01927 0.42628 0.36335 0.0
C1241 C 0.63317 0.65457 0.22297 0.0
C1242 C 0.63995 0.63633 0.19682 0.0
C1243 C 0.62907 0.65699 0.30644 0.0
C1244 C 0.63339 0.64266 0.36553 0.0
H1245 H 0.62528 0.6622 0.17889 0.0
H1246 H 0.61769 0.66564 0.32218 0.0
S1247 S 0.66605 0.6055 0.33062 0.0
N1248 N 0.6604 0.6123 0.23763 0.0
N1249 N 0.65624 0.62003 0.39441 0.0
C1250 C 0.64837 0.63191 0.34089 0.0
C1251 C 0.65079 0.6278 0.25586 0.0
C1252 C 0.46497 0.99811 0.22662 0.0
C1253 C 0.43782 0.98646 0.2115 0.0
C1254 C 0.48053 0.02382 0.2583 0.0
C1255 C 0.46969 0.03924 0.27596 0.0
H1256 H 0.47444 0.98716 0.21497 0.0
H1257 H 0.50128 0.03174 0.26783 0.0
S1258 S 0.39953 0.01825 0.24791 0.0
N1259 N 0.40077 0.99264 0.21698 0.0
N1260 N 0.42982 0.04072 0.27632 0.0
C1261 C 0.44254 0.02788 0.26115 0.0
C1262 C 0.42667 1.00165 0.22904 0.0
C1263 C 0.57331 0.0194 0.77093 0.0
C1264 C 0.59964 0.02948 0.79448 0.0
C1265 C 0.55937 0.99664 0.72232 0.0
C1266 C 0.571 0.98267 0.69621 0.0
H1267 H 0.56347 0.02953 0.78852 0.0
H1268 H 0.53905 0.98954 0.7071 0.0
S1269 S 0.6394 1.00056 0.74106 0.0
N1270 N 0.63689 0.02376 0.78696 0.0
N1271 N 0.61049 0.98058 0.69763 0.0
C1272 C 0.59728 0.99242 0.71953 0.0
C1273 C 0.61162 0.01587 0.76804 0.0
C1274 C 0.01795 0.59814 0.75116 0.0
C1275 C 0.02789 0.58541 0.70462 0.0
C1276 C 0.99441 0.5838 0.79556 0.0
C1277 C 0.97986 0.55604 0.79651 0.0
H1278 H 0.02874 0.61947 0.75509 0.0
H1279 H 0.9878 0.5946 0.83061 0.0
S1280 S 0.99531 0.51281 0.67833 0.0
N1281 N 0.01983 0.54303 0.65757 0.0
N1282 N 0.97583 0.51625 0.74129 0.0
C1283 C 0.98897 0.54297 0.74818 0.0
C1284 C 1.01282 0.55757 0.70209 0.0
C1285 C 0.4427 0.43346 0.79168 0.0
C1286 C 0.42244 0.42363 0.73352 0.0
C1287 C 0.43997 0.44222 0.86812 0.0
C1288 C 0.41603 0.43873 0.89526 0.0
H1289 H 0.46236 0.43894 0.77306 0.0
H1290 H 0.45783 0.45445 0.90091 0.0
S1291 S 0.35511 0.40977 0.77011 0.0
N1292 N 0.37679 0.4094 0.7086 0.0
N1293 N 0.37048 0.42198 0.85823 0.0
C1294 C 0.39459 0.42625 0.84055 0.0
C1295 C 0.3979 0.41905 0.75951 0.0
loop_
_geom_bond_atom_site_label_1
_geom_bond_atom_site_label_2
_geom_bond_distance
_geom_bond_site_symmetry_2
_ccdc_geom_bond_type
O0 Cd1 2.223 . S
O0 C8 1.315 . S
Cd1 O0 2.223 . S
Cd1 O4 2.297 . S
Cd1 O5 2.439 . S
Cd1 O11 2.240 . S
Cd2 O3 2.240 . S
Cd2 O10 2.223 . S
Cd2 O12 2.297 . S
Cd2 O13 2.439 . S
O3 Cd2 2.240 . S
O3 C8 1.279 . S
O4 Cd1 2.297 . S
O4 C6 1.247 . S
O5 Cd1 2.439 . S
O5 C6 1.208 . S
C6 O4 1.247 . S
C6 O5 1.208 . S
C7 O12 1.247 . S
C7 O13 1.208 . S
C8 O0 1.315 . S
C8 O3 1.279 . S
C9 O10 1.315 . S
C9 O11 1.279 . S
O10 Cd2 2.223 . S
O10 C9 1.315 . S
O11 Cd1 2.240 . S
O11 C9 1.279 . S
O12 Cd2 2.297 . S
O12 C7 1.247 . S
O13 Cd2 2.439 . S
O13 C7 1.208 . S
O14 Cd15 2.223 . S
O14 C22 1.315 . S
Cd15 O14 2.223 . S
Cd15 O18 2.297 . S
Cd15 O19 2.439 . S
Cd15 O25 2.240 . S
Cd16 O17 2.240 . S
Cd16 O24 2.223 . S
Cd16 O26 2.297 . S
Cd16 O27 2.439 . S
O17 Cd16 2.240 . S
O17 C22 1.279 . S
O18 Cd15 2.297 . S
O18 C20 1.247 . S
O19 Cd15 2.439 . S
O19 C20 1.208 . S
C20 O18 1.247 . S
C20 O19 1.208 . S
C21 O26 1.247 . S
C21 O27 1.208 . S
C22 O14 1.315 . S
C22 O17 1.279 . S
C23 O24 1.315 . S
C23 O25 1.279 . S
O24 Cd16 2.223 . S
O24 C23 1.315 . S
O25 Cd15 2.240 . S
O25 C23 1.279 . S
O26 Cd16 2.297 . S
O26 C21 1.247 . S
O27 Cd16 2.439 . S
O27 C21 1.208 . S
O28 Cd29 2.223 . S
O28 C36 1.315 . S
Cd29 O28 2.223 . S
Cd29 O32 2.297 . S
Cd29 O33 2.439 . S
Cd29 O39 2.240 . S
Cd30 O31 2.240 . S
Cd30 O38 2.223 . S
Cd30 O40 2.297 . S
Cd30 O41 2.439 . S
O31 Cd30 2.240 . S
O31 C36 1.279 . S
O32 Cd29 2.297 . S
O32 C34 1.247 . S
O33 Cd29 2.439 . S
O33 C34 1.208 . S
C34 O32 1.247 . S
C34 O33 1.208 . S
C35 O40 1.247 . S
C35 O41 1.208 . S
C36 O28 1.315 . S
C36 O31 1.279 . S
C37 O38 1.315 . S
C37 O39 1.279 . S
O38 Cd30 2.223 . S
O38 C37 1.315 . S
O39 Cd29 2.240 . S
O39 C37 1.279 . S
O40 Cd30 2.297 . S
O40 C35 1.247 . S
O41 Cd30 2.439 . S
O41 C35 1.208 . S
O42 Cd43 2.223 . S
O42 C50 1.315 . S
Cd43 O42 2.223 . S
Cd43 O46 2.297 . S
Cd43 O47 2.439 . S
Cd43 O53 2.240 . S
Cd44 O45 2.240 . S
Cd44 O52 2.223 . S
Cd44 O54 2.297 . S
Cd44 O55 2.439 . S
O45 Cd44 2.240 . S
O45 C50 1.279 . S
O46 Cd43 2.297 . S
O46 C48 1.247 . S
O47 Cd43 2.439 . S
O47 C48 1.208 . S
C48 O46 1.247 . S
C48 O47 1.208 . S
C49 O54 1.247 . S
C49 O55 1.208 . S
C50 O42 1.315 . S
C50 O45 1.279 . S
C51 O52 1.315 . S
C51 O53 1.279 . S
O52 Cd44 2.223 . S
O52 C51 1.315 . S
O53 Cd43 2.240 . S
O53 C51 1.279 . S
O54 Cd44 2.297 . S
O54 C49 1.247 . S
O55 Cd44 2.439 . S
O55 C49 1.208 . S
O56 Cd57 2.223 . S
O56 C64 1.315 . S
Cd57 O56 2.223 . S
Cd57 O60 2.297 . S
Cd57 O61 2.439 . S
Cd57 O67 2.240 . S
Cd58 O59 2.240 . S
Cd58 O66 2.223 . S
Cd58 O68 2.297 . S
Cd58 O69 2.439 . S
O59 Cd58 2.240 . S
O59 C64 1.279 . S
O60 Cd57 2.297 . S
O60 C62 1.247 . S
O61 Cd57 2.439 . S
O61 C62 1.208 . S
C62 O60 1.247 . S
C62 O61 1.208 . S
C63 O68 1.247 . S
C63 O69 1.208 . S
C64 O56 1.315 . S
C64 O59 1.279 . S
C65 O66 1.315 . S
C65 O67 1.279 . S
O66 Cd58 2.223 . S
O66 C65 1.315 . S
O67 Cd57 2.240 . S
O67 C65 1.279 . S
O68 Cd58 2.297 . S
O68 C63 1.247 . S
O69 Cd58 2.439 . S
O69 C63 1.208 . S
O70 Cd71 2.223 . S
O70 C78 1.315 . S
Cd71 O70 2.223 . S
Cd71 O74 2.297 . S
Cd71 O75 2.439 . S
Cd71 O81 2.240 . S
Cd72 O73 2.240 . S
Cd72 O80 2.223 . S
Cd72 O82 2.297 . S
Cd72 O83 2.439 . S
O73 Cd72 2.240 . S
O73 C78 1.279 . S
O74 Cd71 2.297 . S
O74 C76 1.247 . S
O75 Cd71 2.439 . S
O75 C76 1.208 . S
C76 O74 1.247 . S
C76 O75 1.208 . S
C77 O82 1.247 . S
C77 O83 1.208 . S
C78 O70 1.315 . S
C78 O73 1.279 . S
C79 O80 1.315 . S
C79 O81 1.279 . S
O80 Cd72 2.223 . S
O80 C79 1.315 . S
O81 Cd71 2.240 . S
O81 C79 1.279 . S
O82 Cd72 2.297 . S
O82 C77 1.247 . S
O83 Cd72 2.439 . S
O83 C77 1.208 . S
O84 Cd85 2.223 . S
O84 C92 1.315 . S
Cd85 O84 2.223 . S
Cd85 O88 2.297 . S
Cd85 O89 2.439 . S
Cd85 O95 2.240 . S
Cd86 O87 2.240 . S
Cd86 O94 2.223 . S
Cd86 O96 2.297 . S
Cd86 O97 2.439 . S
O87 Cd86 2.240 . S
O87 C92 1.279 . S
O88 Cd85 2.297 . S
O88 C90 1.247 . S
O89 Cd85 2.439 . S
O89 C90 1.208 . S
C90 O88 1.247 . S
C90 O89 1.208 . S
C91 O96 1.247 . S
C91 O97 1.208 . S
C92 O84 1.315 . S
C92 O87 1.279 . S
C93 O94 1.315 . S
C93 O95 1.279 . S
O94 Cd86 2.223 . S
O94 C93 1.315 . S
O95 Cd85 2.240 . S
O95 C93 1.279 . S
O96 Cd86 2.297 . S
O96 C91 1.247 . S
O97 Cd86 2.439 . S
O97 C91 1.208 . S
O98 Cd99 2.223 . S
O98 C106 1.315 . S
Cd99 O98 2.223 . S
Cd99 O102 2.297 . S
Cd99 O103 2.439 . S
Cd99 O109 2.240 . S
Cd100 O101 2.240 . S
Cd100 O108 2.223 . S
Cd100 O110 2.297 . S
Cd100 O111 2.439 . S
O101 Cd100 2.240 . S
O101 C106 1.279 . S
O102 Cd99 2.297 . S
O102 C104 1.247 . S
O103 Cd99 2.439 . S
O103 C104 1.208 . S
C104 O102 1.247 . S
C104 O103 1.208 . S
C105 O110 1.247 . S
C105 O111 1.208 . S
C106 O98 1.315 . S
C106 O101 1.279 . S
C107 O108 1.315 . S
C107 O109 1.279 . S
O108 Cd100 2.223 . S
O108 C107 1.315 . S
O109 Cd99 2.240 . S
O109 C107 1.279 . S
O110 Cd100 2.297 . S
O110 C105 1.247 . S
O111 Cd100 2.439 . S
O111 C105 1.208 . S
O112 Cd113 2.223 . S
O112 C120 1.315 . S
Cd113 O112 2.223 . S
Cd113 O116 2.297 . S
Cd113 O117 2.439 . S
Cd113 O123 2.240 . S
Cd114 O115 2.240 . S
Cd114 O122 2.223 . S
Cd114 O124 2.297 . S
Cd114 O125 2.439 . S
O115 Cd114 2.240 . S
O115 C120 1.279 . S
O116 Cd113 2.297 . S
O116 C118 1.247 . S
O117 Cd113 2.439 . S
O117 C118 1.208 . S
C118 O116 1.247 . S
C118 O117 1.208 . S
C119 O124 1.247 . S
C119 O125 1.208 . S
C120 O112 1.315 . S
C120 O115 1.279 . S
C121 O122 1.315 . S
C121 O123 1.279 . S
O122 Cd114 2.223 . S
O122 C121 1.315 . S
O123 Cd113 2.240 . S
O123 C121 1.279 . S
O124 Cd114 2.297 . S
O124 C119 1.247 . S
O125 Cd114 2.439 . S
O125 C119 1.208 . S
O126 Cd127 2.223 . S
O126 C134 1.315 . S
Cd127 O126 2.223 . S
Cd127 O130 2.297 . S
Cd127 O131 2.439 . S
Cd127 O137 2.240 . S
Cd128 O129 2.240 . S
Cd128 O136 2.223 . S
Cd128 O138 2.297 . S
Cd128 O139 2.439 . S
O129 Cd128 2.240 . S
O129 C134 1.279 . S
O130 Cd127 2.297 . S
O130 C132 1.247 . S
O131 Cd127 2.439 . S
O131 C132 1.208 . S
C132 O130 1.247 . S
C132 O131 1.208 . S
C133 O138 1.247 . S
C133 O139 1.208 . S
C134 O126 1.315 . S
C134 O129 1.279 . S
C135 O136 1.315 . S
C135 O137 1.279 . S
O136 Cd128 2.223 . S
O136 C135 1.315 . S
O137 Cd127 2.240 . S
O137 C135 1.279 . S
O138 Cd128 2.297 . S
O138 C133 1.247 . S
O139 Cd128 2.439 . S
O139 C133 1.208 . S
O140 Cd141 2.223 . S
O140 C148 1.315 . S
Cd141 O140 2.223 . S
Cd141 O144 2.297 . S
Cd141 O145 2.439 . S
Cd141 O151 2.240 . S
Cd142 O143 2.240 . S
Cd142 O150 2.223 . S
Cd142 O152 2.297 . S
Cd142 O153 2.439 . S
O143 Cd142 2.240 . S
O143 C148 1.279 . S
O144 Cd141 2.297 . S
O144 C146 1.247 . S
O145 Cd141 2.439 . S
O145 C146 1.208 . S
C146 O144 1.247 . S
C146 O145 1.208 . S
C147 O152 1.247 . S
C147 O153 1.208 . S
C148 O140 1.315 . S
C148 O143 1.279 . S
C149 O150 1.315 . S
C149 O151 1.279 . S
O150 Cd142 2.223 . S
O150 C149 1.315 . S
O151 Cd141 2.240 . S
O151 C149 1.279 . S
O152 Cd142 2.297 . S
O152 C147 1.247 . S
O153 Cd142 2.439 . S
O153 C147 1.208 . S
O154 Cd155 2.223 . S
O154 C162 1.315 . S
Cd155 O154 2.223 . S
Cd155 O158 2.297 . S
Cd155 O159 2.439 . S
Cd155 O165 2.240 . S
Cd156 O157 2.240 . S
Cd156 O164 2.223 . S
Cd156 O166 2.297 . S
Cd156 O167 2.439 . S
O157 Cd156 2.240 . S
O157 C162 1.279 . S
O158 Cd155 2.297 . S
O158 C160 1.247 . S
O159 Cd155 2.439 . S
O159 C160 1.208 . S
C160 O158 1.247 . S
C160 O159 1.208 . S
C161 O166 1.247 . S
C161 O167 1.208 . S
C162 O154 1.315 . S
C162 O157 1.279 . S
C163 O164 1.315 . S
C163 O165 1.279 . S
O164 Cd156 2.223 . S
O164 C163 1.315 . S
O165 Cd155 2.240 . S
O165 C163 1.279 . S
O166 Cd156 2.297 . S
O166 C161 1.247 . S
O167 Cd156 2.439 . S
O167 C161 1.208 . S
O168 Cd169 2.223 . S
O168 C176 1.315 . S
Cd169 O168 2.223 . S
Cd169 O172 2.297 . S
Cd169 O173 2.439 . S
Cd169 O179 2.240 . S
Cd170 O171 2.240 . S
Cd170 O178 2.223 . S
Cd170 O180 2.297 . S
Cd170 O181 2.439 . S
O171 Cd170 2.240 . S
O171 C176 1.279 . S
O172 Cd169 2.297 . S
O172 C174 1.247 . S
O173 Cd169 2.439 . S
O173 C174 1.208 . S
C174 O172 1.247 . S
C174 O173 1.208 . S
C175 O180 1.247 . S
C175 O181 1.208 . S
C176 O168 1.315 . S
C176 O171 1.279 . S
C177 O178 1.315 . S
C177 O179 1.279 . S
O178 Cd170 2.223 . S
O178 C177 1.315 . S
O179 Cd169 2.240 . S
O179 C177 1.279 . S
O180 Cd170 2.297 . S
O180 C175 1.247 . S
O181 Cd170 2.439 . S
O181 C175 1.208 . S
O182 Cd183 2.223 . S
O182 C190 1.315 . S
Cd183 O182 2.223 . S
Cd183 O186 2.297 . S
Cd183 O187 2.439 . S
Cd183 O193 2.240 . S
Cd184 O185 2.240 . S
Cd184 O192 2.223 . S
Cd184 O194 2.297 . S
Cd184 O195 2.439 . S
O185 Cd184 2.240 . S
O185 C190 1.279 . S
O186 Cd183 2.297 . S
O186 C188 1.247 . S
O187 Cd183 2.439 . S
O187 C188 1.208 . S
C188 O186 1.247 . S
C188 O187 1.208 . S
C189 O194 1.247 . S
C189 O195 1.208 . S
C190 O182 1.315 . S
C190 O185 1.279 . S
C191 O192 1.315 . S
C191 O193 1.279 . S
O192 Cd184 2.223 . S
O192 C191 1.315 . S
O193 Cd183 2.240 . S
O193 C191 1.279 . S
O194 Cd184 2.297 . S
O194 C189 1.247 . S
O195 Cd184 2.439 . S
O195 C189 1.208 . S
O196 Cd197 2.223 . S
O196 C204 1.315 . S
Cd197 O196 2.223 . S
Cd197 O200 2.297 . S
Cd197 O201 2.439 . S
Cd197 O207 2.240 . S
Cd198 O199 2.240 . S
Cd198 O206 2.223 . S
Cd198 O208 2.297 . S
Cd198 O209 2.439 . S
O199 Cd198 2.240 . S
O199 C204 1.279 . S
O200 Cd197 2.297 . S
O200 C202 1.247 . S
O201 Cd197 2.439 . S
O201 C202 1.208 . S
C202 O200 1.247 . S
C202 O201 1.208 . S
C203 O208 1.247 . S
C203 O209 1.208 . S
C204 O196 1.315 . S
C204 O199 1.279 . S
C205 O206 1.315 . S
C205 O207 1.279 . S
O206 Cd198 2.223 . S
O206 C205 1.315 . S
O207 Cd197 2.240 . S
O207 C205 1.279 . S
O208 Cd198 2.297 . S
O208 C203 1.247 . S
O209 Cd198 2.439 . S
O209 C203 1.208 . S
O210 Cd211 2.223 . S
O210 C218 1.315 . S
Cd211 O210 2.223 . S
Cd211 O214 2.297 . S
Cd211 O215 2.439 . S
Cd211 O221 2.240 . S
Cd212 O213 2.240 . S
Cd212 O220 2.223 . S
Cd212 O222 2.297 . S
Cd212 O223 2.439 . S
O213 Cd212 2.240 . S
O213 C218 1.279 . S
O214 Cd211 2.297 . S
O214 C216 1.247 . S
O215 Cd211 2.439 . S
O215 C216 1.208 . S
C216 O214 1.247 . S
C216 O215 1.208 . S
C217 O222 1.247 . S
C217 O223 1.208 . S
C218 O210 1.315 . S
C218 O213 1.279 . S
C219 O220 1.315 . S
C219 O221 1.279 . S
O220 Cd212 2.223 . S
O220 C219 1.315 . S
O221 Cd211 2.240 . S
O221 C219 1.279 . S
O222 Cd212 2.297 . S
O222 C217 1.247 . S
O223 Cd212 2.439 . S
O223 C217 1.208 . S
O224 Cd225 2.223 . S
O224 C232 1.315 . S
Cd225 O224 2.223 . S
Cd225 O228 2.297 . S
Cd225 O229 2.439 . S
Cd225 O235 2.240 . S
Cd226 O227 2.240 . S
Cd226 O234 2.223 . S
Cd226 O236 2.297 . S
Cd226 O237 2.439 . S
O227 Cd226 2.240 . S
O227 C232 1.279 . S
O228 Cd225 2.297 . S
O228 C230 1.247 . S
O229 Cd225 2.439 . S
O229 C230 1.208 . S
C230 O228 1.247 . S
C230 O229 1.208 . S
C231 O236 1.247 . S
C231 O237 1.208 . S
C232 O224 1.315 . S
C232 O227 1.279 . S
C233 O234 1.315 . S
C233 O235 1.279 . S
O234 Cd226 2.223 . S
O234 C233 1.315 . S
O235 Cd225 2.240 . S
O235 C233 1.279 . S
O236 Cd226 2.297 . S
O236 C231 1.247 . S
O237 Cd226 2.439 . S
O237 C231 1.208 . S
O238 Cd239 2.223 . S
O238 C246 1.315 . S
Cd239 O238 2.223 . S
Cd239 O242 2.297 . S
Cd239 O243 2.439 . S
Cd239 O249 2.240 . S
Cd240 O241 2.240 . S
Cd240 O248 2.223 . S
Cd240 O250 2.297 . S
Cd240 O251 2.439 . S
O241 Cd240 2.240 . S
O241 C246 1.279 . S
O242 Cd239 2.297 . S
O242 C244 1.247 . S
O243 Cd239 2.439 . S
O243 C244 1.208 . S
C244 O242 1.247 . S
C244 O243 1.208 . S
C245 O250 1.247 . S
C245 O251 1.208 . S
C246 O238 1.315 . S
C246 O241 1.279 . S
C247 O248 1.315 . S
C247 O249 1.279 . S
O248 Cd240 2.223 . S
O248 C247 1.315 . S
O249 Cd239 2.240 . S
O249 C247 1.279 . S
O250 Cd240 2.297 . S
O250 C245 1.247 . S
O251 Cd240 2.439 . S
O251 C245 1.208 . S
O252 Cd253 2.223 . S
O252 C260 1.315 . S
Cd253 O252 2.223 . S
Cd253 O256 2.297 . S
Cd253 O257 2.439 . S
Cd253 O263 2.240 . S
Cd254 O255 2.240 . S
Cd254 O262 2.223 . S
Cd254 O264 2.297 . S
Cd254 O265 2.439 . S
O255 Cd254 2.240 . S
O255 C260 1.279 . S
O256 Cd253 2.297 . S
O256 C258 1.247 . S
O257 Cd253 2.439 . S
O257 C258 1.208 . S
C258 O256 1.247 . S
C258 O257 1.208 . S
C259 O264 1.247 . S
C259 O265 1.208 . S
C260 O252 1.315 . S
C260 O255 1.279 . S
C261 O262 1.315 . S
C261 O263 1.279 . S
O262 Cd254 2.223 . S
O262 C261 1.315 . S
O263 Cd253 2.240 . S
O263 C261 1.279 . S
O264 Cd254 2.297 . S
O264 C259 1.247 . S
O265 Cd254 2.439 . S
O265 C259 1.208 . S
O266 Cd267 2.223 . S
O266 C274 1.315 . S
Cd267 O266 2.223 . S
Cd267 O270 2.297 . S
Cd267 O271 2.439 . S
Cd267 O277 2.240 . S
Cd268 O269 2.240 . S
Cd268 O276 2.223 . S
Cd268 O278 2.297 . S
Cd268 O279 2.439 . S
O269 Cd268 2.240 . S
O269 C274 1.279 . S
O270 Cd267 2.297 . S
O270 C272 1.247 . S
O271 Cd267 2.439 . S
O271 C272 1.208 . S
C272 O270 1.247 . S
C272 O271 1.208 . S
C273 O278 1.247 1_556 S
C273 O279 1.208 1_556 S
C274 O266 1.315 . S
C274 O269 1.279 . S
C275 O276 1.315 . S
C275 O277 1.279 . S
O276 Cd268 2.223 . S
O276 C275 1.315 . S
O277 Cd267 2.240 . S
O277 C275 1.279 . S
O278 Cd268 2.297 . S
O278 C273 1.247 1_554 S
O279 Cd268 2.439 . S
O279 C273 1.208 1_554 S
O280 Cd281 2.223 . S
O280 C288 1.315 . S
Cd281 O280 2.223 . S
Cd281 O284 2.297 . S
Cd281 O285 2.439 . S
Cd281 O291 2.240 . S
Cd282 O283 2.240 . S
Cd282 O290 2.223 . S
Cd282 O292 2.297 . S
Cd282 O293 2.439 . S
O283 Cd282 2.240 . S
O283 C288 1.279 . S
O284 Cd281 2.297 . S
O284 C286 1.247 . S
O285 Cd281 2.439 . S
O285 C286 1.208 . S
C286 O284 1.247 . S
C286 O285 1.208 . S
C287 O292 1.247 . S
C287 O293 1.208 . S
C288 O280 1.315 . S
C288 O283 1.279 . S
C289 O290 1.315 . S
C289 O291 1.279 . S
O290 Cd282 2.223 . S
O290 C289 1.315 . S
O291 Cd281 2.240 . S
O291 C289 1.279 . S
O292 Cd282 2.297 . S
O292 C287 1.247 . S
O293 Cd282 2.439 . S
O293 C287 1.208 . S
O294 Cd295 2.223 . S
O294 C302 1.315 . S
Cd295 O294 2.223 . S
Cd295 O298 2.297 . S
Cd295 O299 2.439 1_556 S
Cd295 O305 2.240 . S
Cd296 O297 2.240 . S
Cd296 O304 2.223 . S
Cd296 O306 2.297 1_556 S
Cd296 O307 2.439 1_556 S
O297 Cd296 2.240 . S
O297 C302 1.279 . S
O298 Cd295 2.297 . S
O298 C300 1.247 . S
O299 Cd295 2.439 1_554 S
O299 C300 1.208 1_554 S
C300 O298 1.247 . S
C300 O299 1.208 1_556 S
C301 O306 1.247 . S
C301 O307 1.208 . S
C302 O294 1.315 . S
C302 O297 1.279 . S
C303 O304 1.315 . S
C303 O305 1.279 . S
O304 Cd296 2.223 . S
O304 C303 1.315 . S
O305 Cd295 2.240 . S
O305 C303 1.279 . S
O306 Cd296 2.297 1_554 S
O306 C301 1.247 . S
O307 Cd296 2.439 1_554 S
O307 C301 1.208 . S
O308 Cd309 2.223 . S
O308 C316 1.315 . S
Cd309 O308 2.223 . S
Cd309 O312 2.297 . S
Cd309 O313 2.439 . S
Cd309 O319 2.240 . S
Cd310 O311 2.240 . S
Cd310 O318 2.223 . S
Cd310 O320 2.297 1_556 S
Cd310 O321 2.439 1_556 S
O311 Cd310 2.240 . S
O311 C316 1.279 . S
O312 Cd309 2.297 . S
O312 C314 1.247 . S
O313 Cd309 2.439 . S
O313 C314 1.208 . S
C314 O312 1.247 . S
C314 O313 1.208 . S
C315 O320 1.247 . S
C315 O321 1.208 . S
C316 O308 1.315 . S
C316 O311 1.279 . S
C317 O318 1.315 . S
C317 O319 1.279 . S
O318 Cd310 2.223 . S
O318 C317 1.315 . S
O319 Cd309 2.240 . S
O319 C317 1.279 . S
O320 Cd310 2.297 1_554 S
O320 C315 1.247 . S
O321 Cd310 2.439 1_554 S
O321 C315 1.208 . S
O322 Cd323 2.223 . S
O322 C330 1.315 . S
Cd323 O322 2.223 . S
Cd323 O326 2.297 . S
Cd323 O327 2.439 1_556 S
Cd323 O333 2.240 . S
Cd324 O325 2.240 . S
Cd324 O332 2.223 . S
Cd324 O334 2.297 1_556 S
Cd324 O335 2.439 1_556 S
O325 Cd324 2.240 . S
O325 C330 1.279 . S
O326 Cd323 2.297 . S
O326 C328 1.247 1_556 S
O327 Cd323 2.439 1_554 S
O327 C328 1.208 . S
C328 O326 1.247 1_554 S
C328 O327 1.208 . S
C329 O334 1.247 . S
C329 O335 1.208 . S
C330 O322 1.315 . S
C330 O325 1.279 . S
C331 O332 1.315 . S
C331 O333 1.279 . S
O332 Cd324 2.223 . S
O332 C331 1.315 . S
O333 Cd323 2.240 . S
O333 C331 1.279 . S
O334 Cd324 2.297 1_554 S
O334 C329 1.247 . S
O335 Cd324 2.439 1_554 S
O335 C329 1.208 . S
O336 Cd337 2.223 . S
O336 C344 1.315 . S
Cd337 O336 2.223 . S
Cd337 O340 2.297 . S
Cd337 O341 2.439 . S
Cd337 O347 2.240 . S
Cd338 O339 2.240 . S
Cd338 O346 2.223 . S
Cd338 O348 2.297 . S
Cd338 O349 2.439 . S
O339 Cd338 2.240 . S
O339 C344 1.279 . S
O340 Cd337 2.297 . S
O340 C342 1.247 . S
O341 Cd337 2.439 . S
O341 C342 1.208 . S
C342 O340 1.247 . S
C342 O341 1.208 . S
C343 O348 1.247 . S
C343 O349 1.208 . S
C344 O336 1.315 . S
C344 O339 1.279 . S
C345 O346 1.315 . S
C345 O347 1.279 . S
O346 Cd338 2.223 . S
O346 C345 1.315 . S
O347 Cd337 2.240 . S
O347 C345 1.279 . S
O348 Cd338 2.297 . S
O348 C343 1.247 . S
O349 Cd338 2.439 . S
O349 C343 1.208 . S
O350 Cd351 2.223 . S
O350 C358 1.315 . S
Cd351 O350 2.223 . S
Cd351 O354 2.297 . S
Cd351 O355 2.439 . S
Cd351 O361 2.240 . S
Cd352 O353 2.240 . S
Cd352 O360 2.223 . S
Cd352 O362 2.297 . S
Cd352 O363 2.439 . S
O353 Cd352 2.240 . S
O353 C358 1.279 . S
O354 Cd351 2.297 . S
O354 C356 1.247 . S
O355 Cd351 2.439 . S
O355 C356 1.208 . S
C356 O354 1.247 . S
C356 O355 1.208 . S
C357 O362 1.247 1_554 S
C357 O363 1.208 1_554 S
C358 O350 1.315 . S
C358 O353 1.279 . S
C359 O360 1.315 . S
C359 O361 1.279 . S
O360 Cd352 2.223 . S
O360 C359 1.315 . S
O361 Cd351 2.240 . S
O361 C359 1.279 . S
O362 Cd352 2.297 . S
O362 C357 1.247 1_556 S
O363 Cd352 2.439 . S
O363 C357 1.208 1_556 S
O364 Cd365 2.223 . S
O364 C372 1.315 . S
Cd365 O364 2.223 . S
Cd365 O368 2.297 . S
Cd365 O369 2.439 . S
Cd365 O375 2.240 . S
Cd366 O367 2.240 . S
Cd366 O374 2.223 . S
Cd366 O376 2.297 . S
Cd366 O377 2.439 . S
O367 Cd366 2.240 . S
O367 C372 1.279 . S
O368 Cd365 2.297 . S
O368 C370 1.247 . S
O369 Cd365 2.439 . S
O369 C370 1.208 . S
C370 O368 1.247 . S
C370 O369 1.208 . S
C371 O376 1.247 . S
C371 O377 1.208 . S
C372 O364 1.315 . S
C372 O367 1.279 . S
C373 O374 1.315 . S
C373 O375 1.279 . S
O374 Cd366 2.223 . S
O374 C373 1.315 . S
O375 Cd365 2.240 . S
O375 C373 1.279 . S
O376 Cd366 2.297 . S
O376 C371 1.247 . S
O377 Cd366 2.439 . S
O377 C371 1.208 . S
O378 Cd379 2.223 . S
O378 C386 1.315 . S
Cd379 O378 2.223 . S
Cd379 O382 2.297 . S
Cd379 O383 2.439 1_554 S
Cd379 O389 2.240 . S
Cd380 O381 2.240 . S
Cd380 O388 2.223 . S
Cd380 O390 2.297 1_554 S
Cd380 O391 2.439 1_554 S
O381 Cd380 2.240 . S
O381 C386 1.279 . S
O382 Cd379 2.297 . S
O382 C384 1.247 . S
O383 Cd379 2.439 1_556 S
O383 C384 1.208 1_556 S
C384 O382 1.247 . S
C384 O383 1.208 1_554 S
C385 O390 1.247 . S
C385 O391 1.208 . S
C386 O378 1.315 . S
C386 O381 1.279 . S
C387 O388 1.315 . S
C387 O389 1.279 . S
O388 Cd380 2.223 . S
O388 C387 1.315 . S
O389 Cd379 2.240 . S
O389 C387 1.279 . S
O390 Cd380 2.297 1_556 S
O390 C385 1.247 . S
O391 Cd380 2.439 1_556 S
O391 C385 1.208 . S
O392 Cd393 2.223 . S
O392 C400 1.315 . S
Cd393 O392 2.223 . S
Cd393 O396 2.297 . S
Cd393 O397 2.439 . S
Cd393 O403 2.240 . S
Cd394 O395 2.240 . S
Cd394 O402 2.223 . S
Cd394 O404 2.297 1_554 S
Cd394 O405 2.439 1_554 S
O395 Cd394 2.240 . S
O395 C400 1.279 . S
O396 Cd393 2.297 . S
O396 C398 1.247 . S
O397 Cd393 2.439 . S
O397 C398 1.208 . S
C398 O396 1.247 . S
C398 O397 1.208 . S
C399 O404 1.247 . S
C399 O405 1.208 . S
C400 O392 1.315 . S
C400 O395 1.279 . S
C401 O402 1.315 . S
C401 O403 1.279 . S
O402 Cd394 2.223 . S
O402 C401 1.315 . S
O403 Cd393 2.240 . S
O403 C401 1.279 . S
O404 Cd394 2.297 1_556 S
O404 C399 1.247 . S
O405 Cd394 2.439 1_556 S
O405 C399 1.208 . S
O406 Cd407 2.223 . S
O406 C414 1.315 . S
Cd407 O406 2.223 . S
Cd407 O410 2.297 . S
Cd407 O411 2.439 1_554 S
Cd407 O417 2.240 . S
Cd408 O409 2.240 . S
Cd408 O416 2.223 . S
Cd408 O418 2.297 1_554 S
Cd408 O419 2.439 1_554 S
O409 Cd408 2.240 . S
O409 C414 1.279 . S
O410 Cd407 2.297 . S
O410 C412 1.247 1_554 S
O411 Cd407 2.439 1_556 S
O411 C412 1.208 . S
C412 O410 1.247 1_556 S
C412 O411 1.208 . S
C413 O418 1.247 . S
C413 O419 1.208 . S
C414 O406 1.315 . S
C414 O409 1.279 . S
C415 O416 1.315 . S
C415 O417 1.279 . S
O416 Cd408 2.223 . S
O416 C415 1.315 . S
O417 Cd407 2.240 . S
O417 C415 1.279 . S
O418 Cd408 2.297 1_556 S
O418 C413 1.247 . S
O419 Cd408 2.439 1_556 S
O419 C413 1.208 . S
O420 Cd421 2.223 . S
O420 C428 1.315 . S
Cd421 O420 2.223 . S
Cd421 O424 2.297 . S
Cd421 O425 2.439 . S
Cd421 O431 2.240 . S
Cd422 O423 2.240 . S
Cd422 O430 2.223 . S
Cd422 O432 2.297 . S
Cd422 O433 2.439 . S
O423 Cd422 2.240 . S
O423 C428 1.279 . S
O424 Cd421 2.297 . S
O424 C426 1.247 . S
O425 Cd421 2.439 . S
O425 C426 1.208 . S
C426 O424 1.247 . S
C426 O425 1.208 . S
C427 O432 1.247 . S
C427 O433 1.208 . S
C428 O420 1.315 . S
C428 O423 1.279 . S
C429 O430 1.315 . S
C429 O431 1.279 . S
O430 Cd422 2.223 . S
O430 C429 1.315 . S
O431 Cd421 2.240 . S
O431 C429 1.279 . S
O432 Cd422 2.297 . S
O432 C427 1.247 . S
O433 Cd422 2.439 . S
O433 C427 1.208 . S
O434 Cd435 2.223 . S
O434 C442 1.315 . S
Cd435 O434 2.223 . S
Cd435 O438 2.297 . S
Cd435 O439 2.439 . S
Cd435 O445 2.240 . S
Cd436 O437 2.240 . S
Cd436 O444 2.223 . S
Cd436 O446 2.297 . S
Cd436 O447 2.439 . S
O437 Cd436 2.240 . S
O437 C442 1.279 . S
O438 Cd435 2.297 . S
O438 C440 1.247 . S
O439 Cd435 2.439 . S
O439 C440 1.208 . S
C440 O438 1.247 . S
C440 O439 1.208 . S
C441 O446 1.247 . S
C441 O447 1.208 . S
C442 O434 1.315 . S
C442 O437 1.279 . S
C443 O444 1.315 . S
C443 O445 1.279 . S
O444 Cd436 2.223 . S
O444 C443 1.315 . S
O445 Cd435 2.240 . S
O445 C443 1.279 . S
O446 Cd436 2.297 . S
O446 C441 1.247 . S
O447 Cd436 2.439 . S
O447 C441 1.208 . S
O448 Cd449 2.223 . S
O448 C456 1.315 . S
Cd449 O448 2.223 . S
Cd449 O452 2.297 . S
Cd449 O453 2.439 . S
Cd449 O459 2.240 . S
Cd450 O451 2.240 . S
Cd450 O458 2.223 . S
Cd450 O460 2.297 . S
Cd450 O461 2.439 . S
O451 Cd450 2.240 . S
O451 C456 1.279 . S
O452 Cd449 2.297 . S
O452 C454 1.247 . S
O453 Cd449 2.439 . S
O453 C454 1.208 . S
C454 O452 1.247 . S
C454 O453 1.208 . S
C455 O460 1.247 . S
C455 O461 1.208 . S
C456 O448 1.315 . S
C456 O451 1.279 . S
C457 O458 1.315 . S
C457 O459 1.279 . S
O458 Cd450 2.223 . S
O458 C457 1.315 . S
O459 Cd449 2.240 . S
O459 C457 1.279 . S
O460 Cd450 2.297 . S
O460 C455 1.247 . S
O461 Cd450 2.439 . S
O461 C455 1.208 . S
O462 Cd463 2.223 . S
O462 C470 1.315 . S
Cd463 O462 2.223 . S
Cd463 O466 2.297 . S
Cd463 O467 2.439 . S
Cd463 O473 2.240 . S
Cd464 O465 2.240 . S
Cd464 O472 2.223 . S
Cd464 O474 2.297 . S
Cd464 O475 2.439 . S
O465 Cd464 2.240 . S
O465 C470 1.279 . S
O466 Cd463 2.297 . S
O466 C468 1.247 . S
O467 Cd463 2.439 . S
O467 C468 1.208 . S
C468 O466 1.247 . S
C468 O467 1.208 . S
C469 O474 1.247 . S
C469 O475 1.208 . S
C470 O462 1.315 . S
C470 O465 1.279 . S
C471 O472 1.315 . S
C471 O473 1.279 . S
O472 Cd464 2.223 . S
O472 C471 1.315 . S
O473 Cd463 2.240 . S
O473 C471 1.279 . S
O474 Cd464 2.297 . S
O474 C469 1.247 . S
O475 Cd464 2.439 . S
O475 C469 1.208 . S
O476 Cd477 2.223 . S
O476 C484 1.315 . S
Cd477 O476 2.223 . S
Cd477 O480 2.297 . S
Cd477 O481 2.439 . S
Cd477 O487 2.240 . S
Cd478 O479 2.240 . S
Cd478 O486 2.223 . S
Cd478 O488 2.297 . S
Cd478 O489 2.439 . S
O479 Cd478 2.240 . S
O479 C484 1.279 . S
O480 Cd477 2.297 . S
O480 C482 1.247 . S
O481 Cd477 2.439 . S
O481 C482 1.208 . S
C482 O480 1.247 . S
C482 O481 1.208 . S
C483 O488 1.247 . S
C483 O489 1.208 . S
C484 O476 1.315 . S
C484 O479 1.279 . S
C485 O486 1.315 . S
C485 O487 1.279 . S
O486 Cd478 2.223 . S
O486 C485 1.315 . S
O487 Cd477 2.240 . S
O487 C485 1.279 . S
O488 Cd478 2.297 . S
O488 C483 1.247 . S
O489 Cd478 2.439 . S
O489 C483 1.208 . S
O490 Cd491 2.223 . S
O490 C498 1.315 . S
Cd491 O490 2.223 . S
Cd491 O494 2.297 . S
Cd491 O495 2.439 . S
Cd491 O501 2.240 . S
Cd492 O493 2.240 . S
Cd492 O500 2.223 . S
Cd492 O502 2.297 . S
Cd492 O503 2.439 . S
O493 Cd492 2.240 . S
O493 C498 1.279 . S
O494 Cd491 2.297 . S
O494 C496 1.247 . S
O495 Cd491 2.439 . S
O495 C496 1.208 . S
C496 O494 1.247 . S
C496 O495 1.208 . S
C497 O502 1.247 . S
C497 O503 1.208 . S
C498 O490 1.315 . S
C498 O493 1.279 . S
C499 O500 1.315 . S
C499 O501 1.279 . S
O500 Cd492 2.223 . S
O500 C499 1.315 . S
O501 Cd491 2.240 . S
O501 C499 1.279 . S
O502 Cd492 2.297 . S
O502 C497 1.247 . S
O503 Cd492 2.439 . S
O503 C497 1.208 . S
C504 C505 1.369 1_545 S
C504 C506 1.419 . S
C504 H508 0.930 . S
C505 C504 1.369 1_565 S
C505 C514 1.429 1_565 S
C506 C504 1.419 . S
C506 C507 1.363 . S
C506 H509 0.929 . S
C507 C506 1.363 . S
C507 C513 1.428 . S
H508 C504 0.930 . S
H509 C506 0.929 . S
S510 N511 1.613 1_545 S
S510 N512 1.610 . S
N511 S510 1.613 1_565 S
N511 C514 1.350 1_565 S
N512 S510 1.610 . S
N512 C513 1.351 . S
C513 C507 1.428 . S
C513 N512 1.351 . S
C513 C514 1.434 . S
C514 C505 1.429 1_545 S
C514 N511 1.350 1_545 S
C514 C513 1.434 . S
C515 C516 1.369 1_455 S
C515 C517 1.419 . S
C515 H519 0.930 1_455 S
C516 C515 1.369 1_655 S
C516 C525 1.429 1_655 S
C517 C515 1.419 . S
C517 C518 1.363 . S
C517 H520 0.929 . S
C518 C517 1.363 . S
C518 C524 1.428 . S
H519 C515 0.930 1_655 S
H520 C517 0.929 . S
S521 N522 1.613 . S
S521 N523 1.610 . S
N522 S521 1.613 . S
N522 C525 1.350 . S
N523 S521 1.610 . S
N523 C524 1.351 . S
C524 C518 1.428 . S
C524 N523 1.351 . S
C524 C525 1.434 . S
C525 C516 1.429 1_455 S
C525 N522 1.350 . S
C525 C524 1.434 . S
C526 C527 1.369 . S
C526 C528 1.419 . S
C526 H530 0.930 . S
C527 C526 1.369 . S
C527 C536 1.429 . S
C528 C526 1.419 . S
C528 C529 1.363 . S
C528 H531 0.929 . S
C529 C528 1.363 . S
C529 C535 1.428 . S
H530 C526 0.930 . S
H531 C528 0.929 . S
S532 N533 1.613 . S
S532 N534 1.610 . S
N533 S532 1.613 . S
N533 C536 1.350 . S
N534 S532 1.610 . S
N534 C535 1.351 . S
C535 C529 1.428 . S
C535 N534 1.351 . S
C535 C536 1.434 . S
C536 C527 1.429 . S
C536 N533 1.350 . S
C536 C535 1.434 . S
C537 C538 1.369 . S
C537 C539 1.419 . S
C537 H541 0.930 . S
C538 C537 1.369 . S
C538 C547 1.429 . S
C539 C537 1.419 . S
C539 C540 1.363 1_565 S
C539 H542 0.917 1_565 S
C540 C539 1.363 1_545 S
C540 C546 1.428 1_545 S
H541 C537 0.930 . S
H542 C539 0.917 1_545 S
S543 N544 1.613 . S
S543 N545 1.610 1_565 S
N544 S543 1.613 . S
N544 C547 1.350 . S
N545 S543 1.610 1_545 S
N545 C546 1.351 1_545 S
C546 C540 1.428 1_565 S
C546 N545 1.351 1_565 S
C546 C547 1.434 . S
C547 C538 1.429 . S
C547 N544 1.350 . S
C547 C546 1.434 . S
C548 C549 1.369 1_655 S
C548 C550 1.419 . S
C548 H552 0.930 . S
C549 C548 1.369 1_455 S
C549 C558 1.434 1_455 S
C550 C548 1.419 . S
C550 C551 1.363 . S
C550 H553 0.929 . S
C551 C550 1.363 . S
C551 C557 1.428 . S
H552 C548 0.930 . S
H553 C550 0.929 . S
S554 N555 1.613 1_655 S
S554 N556 1.610 . S
N555 S554 1.613 1_455 S
N555 C558 1.308 1_455 S
N556 S554 1.610 . S
N556 C557 1.351 . S
C557 C551 1.428 . S
C557 N556 1.351 . S
C557 C558 1.475 . S
C558 C549 1.434 1_655 S
C558 N555 1.308 1_655 S
C558 C557 1.475 . S
C559 C560 1.369 . S
C559 C561 1.419 . S
C559 H563 0.930 . S
C560 C559 1.369 . S
C560 C569 1.429 . S
C561 C559 1.419 . S
C561 C562 1.363 . S
C561 H564 0.929 . S
C562 C561 1.363 . S
C562 C568 1.428 . S
H563 C559 0.930 . S
H564 C561 0.929 . S
S565 N566 1.613 . S
S565 N567 1.610 . S
N566 S565 1.613 . S
N566 C569 1.350 . S
N567 S565 1.610 . S
N567 C568 1.351 . S
C568 C562 1.428 . S
C568 N567 1.351 . S
C568 C569 1.434 . S
C569 C560 1.429 . S
C569 N566 1.350 . S
C569 C568 1.434 . S
C570 C571 1.369 . S
C570 C572 1.419 . S
C570 H574 0.930 . S
C571 C570 1.369 . S
C571 C580 1.429 . S
C572 C570 1.419 . S
C572 C573 1.363 . S
C572 H575 0.929 . S
C573 C572 1.363 . S
C573 C579 1.428 . S
H574 C570 0.930 . S
H575 C572 0.929 . S
S576 N577 1.613 . S
S576 N578 1.610 . S
N577 S576 1.613 . S
N577 C580 1.350 . S
N578 S576 1.610 . S
N578 C579 1.351 . S
C579 C573 1.428 . S
C579 N578 1.351 . S
C579 C580 1.434 . S
C580 C571 1.429 . S
C580 N577 1.350 . S
C580 C579 1.434 . S
C581 C582 1.369 . S
C581 C583 1.419 . S
C581 H585 0.930 . S
C582 C581 1.369 . S
C582 C591 1.429 . S
C583 C581 1.419 . S
C583 C584 1.363 . S
C583 H586 0.929 . S
C584 C583 1.363 . S
C584 C590 1.428 . S
H585 C581 0.930 . S
H586 C583 0.929 . S
S587 N588 1.613 . S
S587 N589 1.610 . S
N588 S587 1.613 . S
N588 C591 1.350 . S
N589 S587 1.610 . S
N589 C590 1.351 . S
C590 C584 1.428 . S
C590 N589 1.351 . S
C590 C591 1.434 . S
C591 C582 1.429 . S
C591 N588 1.350 . S
C591 C590 1.434 . S
C592 C593 1.369 . S
C592 C594 1.419 . S
C592 H596 0.930 . S
C593 C592 1.369 . S
C593 C602 1.429 . S
C594 C592 1.419 . S
C594 C595 1.363 . S
C594 H597 0.929 . S
C595 C594 1.363 . S
C595 C601 1.428 . S
H596 C592 0.930 . S
H597 C594 0.929 . S
S598 N599 1.613 . S
S598 N600 1.610 . S
N599 S598 1.613 . S
N599 C602 1.350 . S
N600 S598 1.610 . S
N600 C601 1.351 . S
C601 C595 1.428 . S
C601 N600 1.351 . S
C601 C602 1.434 . S
C602 C593 1.429 . S
C602 N599 1.350 . S
C602 C601 1.434 . S
C603 C604 1.369 . S
C603 C605 1.419 . S
C603 H607 0.930 . S
C604 C603 1.369 . S
C604 C613 1.429 . S
C605 C603 1.419 . S
C605 C606 1.363 . S
C605 H608 0.929 . S
C606 C605 1.363 . S
C606 C612 1.428 . S
H607 C603 0.930 . S
H608 C605 0.929 . S
S609 N610 1.613 . S
S609 N611 1.610 . S
N610 S609 1.613 . S
N610 C613 1.350 1_556 S
N611 S609 1.610 . S
N611 C612 1.351 1_556 S
C612 C606 1.428 . S
C612 N611 1.351 1_554 S
C612 C613 1.434 . S
C613 C604 1.429 . S
C613 N610 1.350 1_554 S
C613 C612 1.434 . S
C614 C615 1.369 . S
C614 C616 1.419 . S
C614 H618 0.930 . S
C615 C614 1.369 . S
C615 C624 1.429 . S
C616 C614 1.419 . S
C616 C617 1.363 . S
C616 H619 0.929 . S
C617 C616 1.363 . S
C617 C623 1.428 . S
H618 C614 0.930 . S
H619 C616 0.929 . S
S620 N621 1.613 . S
S620 N622 1.610 . S
N621 S620 1.613 . S
N621 C624 1.350 . S
N622 S620 1.610 . S
N622 C623 1.351 . S
C623 C617 1.428 . S
C623 N622 1.351 . S
C623 C624 1.434 . S
C624 C615 1.429 . S
C624 N621 1.350 . S
C624 C623 1.434 . S
C625 C626 1.369 . S
C625 C627 1.419 . S
C625 H629 0.930 . S
C626 C625 1.369 . S
C626 C635 1.429 . S
C627 C625 1.419 . S
C627 C628 1.363 . S
C627 H630 0.929 . S
C628 C627 1.363 . S
C628 C634 1.428 . S
H629 C625 0.930 . S
H630 C627 0.929 . S
S631 N632 1.613 . S
S631 N633 1.610 . S
N632 S631 1.613 . S
N632 C635 1.350 . S
N633 S631 1.610 . S
N633 C634 1.351 . S
C634 C628 1.428 . S
C634 N633 1.351 . S
C634 C635 1.434 . S
C635 C626 1.429 . S
C635 N632 1.350 . S
C635 C634 1.434 . S
C636 C637 1.369 . S
C636 C638 1.419 . S
C636 H640 0.930 . S
C637 C636 1.369 . S
C637 C646 1.429 . S
C638 C636 1.419 . S
C638 C639 1.363 . S
C638 H641 0.929 . S
C639 C638 1.363 . S
C639 C645 1.428 . S
H640 C636 0.930 . S
H641 C638 0.929 . S
S642 N643 1.613 . S
S642 N644 1.610 . S
N643 S642 1.613 . S
N643 C646 1.350 1_554 S
N644 S642 1.610 . S
N644 C645 1.351 1_554 S
C645 C639 1.428 . S
C645 N644 1.351 1_556 S
C645 C646 1.434 . S
C646 C637 1.429 . S
C646 N643 1.350 1_556 S
C646 C645 1.434 . S
C647 C648 1.369 . S
C647 C649 1.419 . S
C647 H651 0.930 . S
C648 C647 1.369 . S
C648 C657 1.429 1_556 S
C649 C647 1.419 . S
C649 C650 1.363 . S
C649 H652 0.929 . S
C650 C649 1.363 . S
C650 C656 1.428 1_556 S
H651 C647 0.930 . S
H652 C649 0.929 . S
S653 N654 1.613 . S
S653 N655 1.610 . S
N654 S653 1.613 . S
N654 C657 1.350 . S
N655 S653 1.610 . S
N655 C656 1.351 . S
C656 C650 1.428 1_554 S
C656 N655 1.351 . S
C656 C657 1.434 . S
C657 C648 1.429 1_554 S
C657 N654 1.350 . S
C657 C656 1.434 . S
C658 C659 1.369 . S
C658 C660 1.419 . S
C658 H662 0.930 . S
C659 C658 1.369 . S
C659 C668 1.429 1_556 S
C660 C658 1.419 . S
C660 C661 1.363 . S
C660 H663 0.929 . S
C661 C660 1.363 . S
C661 C667 1.428 1_556 S
H662 C658 0.930 . S
H663 C660 0.929 . S
S664 N665 1.613 . S
S664 N666 1.610 . S
N665 S664 1.613 . S
N665 C668 1.350 . S
N666 S664 1.610 . S
N666 C667 1.351 . S
C667 C661 1.428 1_554 S
C667 N666 1.351 . S
C667 C668 1.434 . S
C668 C659 1.429 1_554 S
C668 N665 1.350 . S
C668 C667 1.434 . S
C669 C670 1.369 . S
C669 C671 1.419 . S
C669 H673 0.930 . S
C670 C669 1.369 . S
C670 C679 1.429 . S
C671 C669 1.419 . S
C671 C672 1.363 . S
C671 H674 0.929 . S
C672 C671 1.363 . S
C672 C678 1.428 . S
H673 C669 0.930 . S
H674 C671 0.929 . S
S675 N676 1.613 . S
S675 N677 1.610 . S
N676 S675 1.613 . S
N676 C679 1.350 . S
N677 S675 1.610 . S
N677 C678 1.351 . S
C678 C672 1.428 . S
C678 N677 1.351 . S
C678 C679 1.434 . S
C679 C670 1.429 . S
C679 N676 1.350 . S
C679 C678 1.434 . S
C680 C681 1.369 . S
C680 C682 1.419 . S
C680 H684 0.930 . S
C681 C680 1.369 . S
C681 C690 1.429 . S
C682 C680 1.419 . S
C682 C683 1.363 . S
C682 H685 0.929 . S
C683 C682 1.363 . S
C683 C689 1.428 . S
H684 C680 0.930 . S
H685 C682 0.929 . S
S686 N687 1.613 . S
S686 N688 1.610 . S
N687 S686 1.613 . S
N687 C690 1.350 . S
N688 S686 1.610 . S
N688 C689 1.351 . S
C689 C683 1.428 . S
C689 N688 1.351 . S
C689 C690 1.434 . S
C690 C681 1.429 . S
C690 N687 1.350 . S
C690 C689 1.434 . S
C691 C692 1.369 . S
C691 C693 1.419 . S
C691 H695 0.930 . S
C692 C691 1.369 . S
C692 C701 1.429 . S
C693 C691 1.419 . S
C693 C694 1.363 . S
C693 H696 0.929 . S
C694 C693 1.363 . S
C694 C700 1.428 . S
H695 C691 0.930 . S
H696 C693 0.929 . S
S697 N698 1.613 . S
S697 N699 1.610 . S
N698 S697 1.613 . S
N698 C701 1.350 . S
N699 S697 1.610 . S
N699 C700 1.351 . S
C700 C694 1.428 . S
C700 N699 1.351 . S
C700 C701 1.434 . S
C701 C692 1.429 . S
C701 N698 1.350 . S
C701 C700 1.434 . S
C702 C703 1.369 . S
C702 C704 1.419 . S
C702 H706 0.930 . S
C703 C702 1.369 . S
C703 C712 1.429 . S
C704 C702 1.419 . S
C704 C705 1.363 . S
C704 H707 0.929 . S
C705 C704 1.363 . S
C705 C711 1.428 1_556 S
H706 C702 0.930 . S
H707 C704 0.929 . S
S708 N709 1.613 1_554 S
S708 N710 1.610 . S
N709 S708 1.613 1_556 S
N709 C712 1.350 . S
N710 S708 1.610 . S
N710 C711 1.351 . S
C711 C705 1.428 1_554 S
C711 N710 1.351 . S
C711 C712 1.434 1_554 S
C712 C703 1.429 . S
C712 N709 1.350 . S
C712 C711 1.434 1_556 S
C713 C714 1.369 . S
C713 C715 1.419 1_556 S
C713 H717 0.930 . S
C714 C713 1.369 . S
C714 C723 1.429 . S
C715 C713 1.419 1_554 S
C715 C716 1.363 . S
C715 H718 0.929 . S
C716 C715 1.363 . S
C716 C722 1.428 1_554 S
H717 C713 0.930 . S
H718 C715 0.929 . S
S719 N720 1.613 . S
S719 N721 1.610 . S
N720 S719 1.613 . S
N720 C723 1.350 . S
N721 S719 1.610 . S
N721 C722 1.351 . S
C722 C716 1.428 1_556 S
C722 N721 1.351 . S
C722 C723 1.434 . S
C723 C714 1.429 . S
C723 N720 1.350 . S
C723 C722 1.434 . S
C724 C725 1.369 . S
C724 C726 1.419 1_556 S
C724 H728 0.930 . S
C725 C724 1.369 . S
C725 C734 1.429 . S
C726 C724 1.419 1_554 S
C726 C727 1.363 1_554 S
C726 H729 0.929 . S
C727 C726 1.363 1_556 S
C727 C733 1.428 . S
H728 C724 0.930 . S
H729 C726 0.929 . S
S730 N731 1.613 . S
S730 N732 1.610 . S
N731 S730 1.613 . S
N731 C734 1.350 . S
N732 S730 1.610 . S
N732 C733 1.351 . S
C733 C727 1.428 . S
C733 N732 1.351 . S
C733 C734 1.434 . S
C734 C725 1.429 . S
C734 N731 1.350 . S
C734 C733 1.434 . S
C735 C736 1.369 . S
C735 C737 1.419 . S
C735 H739 0.930 . S
C736 C735 1.369 . S
C736 C745 1.429 . S
C737 C735 1.419 . S
C737 C738 1.363 . S
C737 H740 0.929 . S
C738 C737 1.363 . S
C738 C744 1.428 . S
H739 C735 0.930 . S
H740 C737 0.929 . S
S741 N742 1.613 . S
S741 N743 1.610 . S
N742 S741 1.613 . S
N742 C745 1.350 . S
N743 S741 1.610 . S
N743 C744 1.351 . S
C744 C738 1.428 . S
C744 N743 1.351 . S
C744 C745 1.434 . S
C745 C736 1.429 . S
C745 N742 1.350 . S
C745 C744 1.434 . S
C746 C747 1.369 . S
C746 C748 1.419 . S
C746 H750 0.930 . S
C747 C746 1.369 . S
C747 C756 1.429 . S
C748 C746 1.419 . S
C748 C749 1.363 . S
C748 H751 0.929 . S
C749 C748 1.363 . S
C749 C755 1.428 . S
H750 C746 0.930 . S
H751 C748 0.929 . S
S752 N753 1.613 . S
S752 N754 1.610 . S
N753 S752 1.613 . S
N753 C756 1.350 . S
N754 S752 1.610 . S
N754 C755 1.351 . S
C755 C749 1.428 . S
C755 N754 1.351 . S
C755 C756 1.434 . S
C756 C747 1.429 . S
C756 N753 1.350 . S
C756 C755 1.434 . S
C757 C758 1.369 . S
C757 C759 1.419 . S
C757 H761 0.930 . S
C758 C757 1.369 . S
C758 C767 1.429 . S
C759 C757 1.419 . S
C759 C760 1.363 . S
C759 H762 0.929 . S
C760 C759 1.363 . S
C760 C766 1.428 . S
H761 C757 0.930 . S
H762 C759 0.929 . S
S763 N764 1.613 . S
S763 N765 1.610 . S
N764 S763 1.613 . S
N764 C767 1.350 . S
N765 S763 1.610 . S
N765 C766 1.351 . S
C766 C760 1.428 . S
C766 N765 1.351 . S
C766 C767 1.434 . S
C767 C758 1.429 . S
C767 N764 1.350 . S
C767 C766 1.434 . S
C768 C769 1.369 . S
C768 C770 1.419 . S
C768 H772 0.930 1_554 S
C769 C768 1.369 . S
C769 C778 1.429 . S
C770 C768 1.419 . S
C770 C771 1.363 . S
C770 H773 0.929 . S
C771 C770 1.363 . S
C771 C777 1.428 . S
H772 C768 0.930 1_556 S
H773 C770 0.929 . S
S774 N775 1.613 . S
S774 N776 1.610 . S
N775 S774 1.613 . S
N775 C778 1.350 . S
N776 S774 1.610 . S
N776 C777 1.351 . S
C777 C771 1.428 . S
C777 N776 1.351 . S
C777 C778 1.434 . S
C778 C769 1.429 . S
C778 N775 1.350 . S
C778 C777 1.434 . S
C779 C780 1.369 . S
C779 C781 1.419 1_556 S
C779 H783 0.930 . S
C780 C779 1.369 . S
C780 C789 1.429 1_556 S
C781 C779 1.419 1_554 S
C781 C782 1.363 . S
C781 H784 0.929 . S
C782 C781 1.363 . S
C782 C788 1.428 . S
H783 C779 0.930 . S
H784 C781 0.929 . S
S785 N786 1.613 . S
S785 N787 1.610 . S
N786 S785 1.613 . S
N786 C789 1.350 . S
N787 S785 1.610 . S
N787 C788 1.351 . S
C788 C782 1.428 . S
C788 N787 1.351 . S
C788 C789 1.434 . S
C789 C780 1.429 1_554 S
C789 N786 1.350 . S
C789 C788 1.434 . S
C790 C791 1.369 . S
C790 C792 1.419 . S
C790 H794 0.930 . S
C791 C790 1.369 . S
C791 C800 1.429 1_554 S
C792 C790 1.419 . S
C792 C793 1.363 . S
C792 H795 0.929 . S
C793 C792 1.363 . S
C793 C799 1.428 . S
H794 C790 0.930 . S
H795 C792 0.929 . S
S796 N797 1.613 . S
S796 N798 1.610 . S
N797 S796 1.613 . S
N797 C800 1.350 . S
N798 S796 1.610 . S
N798 C799 1.351 1_556 S
C799 C793 1.428 . S
C799 N798 1.351 1_554 S
C799 C800 1.434 1_554 S
C800 C791 1.429 1_556 S
C800 N797 1.350 . S
C800 C799 1.434 1_556 S
C801 C802 1.369 . S
C801 C803 1.419 . S
C801 H805 0.930 . S
C802 C801 1.369 . S
C802 C811 1.429 . S
C803 C801 1.419 . S
C803 C804 1.363 . S
C803 H806 0.929 . S
C804 C803 1.363 . S
C804 C810 1.428 . S
H805 C801 0.930 . S
H806 C803 0.929 . S
S807 N808 1.613 . S
S807 N809 1.610 . S
N808 S807 1.613 . S
N808 C811 1.350 . S
N809 S807 1.610 . S
N809 C810 1.351 . S
C810 C804 1.428 . S
C810 N809 1.351 . S
C810 C811 1.434 . S
C811 C802 1.429 . S
C811 N808 1.350 . S
C811 C810 1.434 . S
C812 C813 1.369 . S
C812 C814 1.419 . S
C812 H816 0.930 . S
C813 C812 1.369 . S
C813 C822 1.429 . S
C814 C812 1.419 . S
C814 C815 1.363 . S
C814 H817 0.929 . S
C815 C814 1.363 . S
C815 C821 1.428 . S
H816 C812 0.930 . S
H817 C814 0.929 . S
S818 N819 1.613 . S
S818 N820 1.610 . S
N819 S818 1.613 . S
N819 C822 1.350 . S
N820 S818 1.610 . S
N820 C821 1.351 . S
C821 C815 1.428 . S
C821 N820 1.351 . S
C821 C822 1.434 . S
C822 C813 1.429 . S
C822 N819 1.350 . S
C822 C821 1.434 . S
C823 C824 1.369 . S
C823 C825 1.419 . S
C823 H827 0.930 . S
C824 C823 1.369 . S
C824 C833 1.429 . S
C825 C823 1.419 . S
C825 C826 1.363 . S
C825 H828 0.929 . S
C826 C825 1.363 . S
C826 C832 1.428 . S
H827 C823 0.930 . S
H828 C825 0.929 . S
S829 N830 1.613 . S
S829 N831 1.610 . S
N830 S829 1.613 . S
N830 C833 1.350 . S
N831 S829 1.610 . S
N831 C832 1.351 . S
C832 C826 1.428 . S
C832 N831 1.351 . S
C832 C833 1.434 . S
C833 C824 1.429 . S
C833 N830 1.350 . S
C833 C832 1.434 . S
C834 C835 1.369 . S
C834 C836 1.419 . S
C834 H838 0.930 . S
C835 C834 1.369 . S
C835 C844 1.429 . S
C836 C834 1.419 . S
C836 C837 1.363 . S
C836 H839 0.929 . S
C837 C836 1.363 . S
C837 C843 1.428 . S
H838 C834 0.930 . S
H839 C836 0.929 . S
S840 N841 1.613 . S
S840 N842 1.610 . S
N841 S840 1.613 . S
N841 C844 1.350 . S
N842 S840 1.610 . S
N842 C843 1.351 . S
C843 C837 1.428 . S
C843 N842 1.351 . S
C843 C844 1.434 . S
C844 C835 1.429 . S
C844 N841 1.350 . S
C844 C843 1.434 . S
C845 C846 1.369 . S
C845 C847 1.419 . S
C845 H849 0.930 . S
C846 C845 1.369 . S
C846 C855 1.429 . S
C847 C845 1.419 . S
C847 C848 1.363 . S
C847 H850 0.929 . S
C848 C847 1.363 . S
C848 C854 1.428 . S
H849 C845 0.930 . S
H850 C847 0.929 . S
S851 N852 1.613 . S
S851 N853 1.610 . S
N852 S851 1.613 . S
N852 C855 1.350 . S
N853 S851 1.610 . S
N853 C854 1.351 . S
C854 C848 1.428 . S
C854 N853 1.351 . S
C854 C855 1.434 . S
C855 C846 1.429 . S
C855 N852 1.350 . S
C855 C854 1.434 . S
C856 C857 1.369 . S
C856 C858 1.419 . S
C856 H860 0.930 . S
C857 C856 1.369 . S
C857 C866 1.429 . S
C858 C856 1.419 . S
C858 C859 1.363 . S
C858 H861 0.929 . S
C859 C858 1.363 . S
C859 C865 1.428 . S
H860 C856 0.930 . S
H861 C858 0.929 . S
S862 N863 1.613 . S
S862 N864 1.610 . S
N863 S862 1.613 . S
N863 C866 1.350 . S
N864 S862 1.610 . S
N864 C865 1.351 . S
C865 C859 1.428 . S
C865 N864 1.351 . S
C865 C866 1.434 . S
C866 C857 1.429 . S
C866 N863 1.350 . S
C866 C865 1.434 . S
C867 C868 1.369 . S
C867 C869 1.419 . S
C867 H871 0.930 . S
C868 C867 1.369 . S
C868 C877 1.429 . S
C869 C867 1.419 . S
C869 C870 1.363 . S
C869 H872 0.929 . S
C870 C869 1.363 . S
C870 C876 1.428 . S
H871 C867 0.930 . S
H872 C869 0.929 . S
S873 N874 1.613 . S
S873 N875 1.610 . S
N874 S873 1.613 . S
N874 C877 1.350 . S
N875 S873 1.610 . S
N875 C876 1.351 . S
C876 C870 1.428 . S
C876 N875 1.351 . S
C876 C877 1.434 . S
C877 C868 1.429 . S
C877 N874 1.350 . S
C877 C876 1.434 . S
C878 C879 1.369 . S
C878 C880 1.419 . S
C878 H882 0.930 . S
C879 C878 1.369 . S
C879 C888 1.429 . S
C880 C878 1.419 . S
C880 C881 1.363 . S
C880 H883 0.929 . S
C881 C880 1.363 . S
C881 C887 1.428 . S
H882 C878 0.930 . S
H883 C880 0.929 . S
S884 N885 1.613 . S
S884 N886 1.610 . S
N885 S884 1.613 . S
N885 C888 1.350 . S
N886 S884 1.610 . S
N886 C887 1.351 . S
C887 C881 1.428 . S
C887 N886 1.351 . S
C887 C888 1.434 . S
C888 C879 1.429 . S
C888 N885 1.350 . S
C888 C887 1.434 . S
C889 C890 1.369 . S
C889 C891 1.419 . S
C889 H893 0.930 . S
C890 C889 1.369 . S
C890 C899 1.429 . S
C891 C889 1.419 . S
C891 C892 1.363 . S
C891 H894 0.929 . S
C892 C891 1.363 . S
C892 C898 1.428 . S
H893 C889 0.930 . S
H894 C891 0.929 . S
S895 N896 1.613 . S
S895 N897 1.610 . S
N896 S895 1.613 . S
N896 C899 1.350 . S
N897 S895 1.610 . S
N897 C898 1.351 . S
C898 C892 1.428 . S
C898 N897 1.351 . S
C898 C899 1.434 . S
C899 C890 1.429 . S
C899 N896 1.350 . S
C899 C898 1.434 . S
C900 C901 1.369 . S
C900 C902 1.419 . S
C900 H904 0.930 . S
C901 C900 1.369 . S
C901 C910 1.429 . S
C902 C900 1.419 . S
C902 C903 1.363 . S
C902 H905 0.929 . S
C903 C902 1.363 . S
C903 C909 1.428 . S
H904 C900 0.930 . S
H905 C902 0.929 . S
S906 N907 1.613 . S
S906 N908 1.610 . S
N907 S906 1.613 . S
N907 C910 1.350 . S
N908 S906 1.610 . S
N908 C909 1.351 . S
C909 C903 1.428 . S
C909 N908 1.351 . S
C909 C910 1.434 . S
C910 C901 1.429 . S
C910 N907 1.350 . S
C910 C909 1.434 . S
C911 C912 1.369 . S
C911 C913 1.419 . S
C911 H915 0.930 . S
C912 C911 1.369 . S
C912 C921 1.429 . S
C913 C911 1.419 . S
C913 C914 1.363 . S
C913 H916 0.929 . S
C914 C913 1.363 . S
C914 C920 1.428 . S
H915 C911 0.930 . S
H916 C913 0.929 . S
S917 N918 1.613 . S
S917 N919 1.610 . S
N918 S917 1.613 . S
N918 C921 1.350 . S
N919 S917 1.610 . S
N919 C920 1.351 . S
C920 C914 1.428 . S
C920 N919 1.351 . S
C920 C921 1.434 . S
C921 C912 1.429 . S
C921 N918 1.350 . S
C921 C920 1.434 . S
C922 C923 1.369 . S
C922 C924 1.419 . S
C922 H926 0.930 . S
C923 C922 1.369 . S
C923 C932 1.429 . S
C924 C922 1.419 . S
C924 C925 1.363 . S
C924 H927 0.929 . S
C925 C924 1.363 . S
C925 C931 1.428 . S
H926 C922 0.930 . S
H927 C924 0.929 . S
S928 N929 1.613 . S
S928 N930 1.610 . S
N929 S928 1.613 . S
N929 C932 1.350 . S
N930 S928 1.610 . S
N930 C931 1.351 . S
C931 C925 1.428 . S
C931 N930 1.351 . S
C931 C932 1.434 . S
C932 C923 1.429 . S
C932 N929 1.350 . S
C932 C931 1.434 . S
C933 C934 1.369 . S
C933 C935 1.419 . S
C933 H937 0.930 . S
C934 C933 1.369 . S
C934 C943 1.429 . S
C935 C933 1.419 . S
C935 C936 1.363 . S
C935 H938 0.929 . S
C936 C935 1.363 . S
C936 C942 1.428 . S
H937 C933 0.930 . S
H938 C935 0.929 . S
S939 N940 1.613 . S
S939 N941 1.610 . S
N940 S939 1.613 . S
N940 C943 1.350 . S
N941 S939 1.610 . S
N941 C942 1.351 . S
C942 C936 1.428 . S
C942 N941 1.351 . S
C942 C943 1.434 . S
C943 C934 1.429 . S
C943 N940 1.350 . S
C943 C942 1.434 . S
C944 C945 1.369 . S
C944 C946 1.419 . S
C944 H948 0.930 . S
C945 C944 1.369 . S
C945 C954 1.429 . S
C946 C944 1.419 . S
C946 C947 1.363 . S
C946 H949 0.929 . S
C947 C946 1.363 . S
C947 C953 1.428 . S
H948 C944 0.930 . S
H949 C946 0.929 . S
S950 N951 1.613 . S
S950 N952 1.610 . S
N951 S950 1.613 . S
N951 C954 1.350 . S
N952 S950 1.610 . S
N952 C953 1.351 . S
C953 C947 1.428 . S
C953 N952 1.351 . S
C953 C954 1.434 . S
C954 C945 1.429 . S
C954 N951 1.350 . S
C954 C953 1.434 . S
C955 C956 1.369 . S
C955 C957 1.419 . S
C955 H959 0.930 . S
C956 C955 1.369 . S
C956 C965 1.429 . S
C957 C955 1.419 . S
C957 C958 1.363 . S
C957 H960 0.929 . S
C958 C957 1.363 . S
C958 C964 1.428 . S
H959 C955 0.930 . S
H960 C957 0.929 . S
S961 N962 1.613 . S
S961 N963 1.610 . S
N962 S961 1.613 . S
N962 C965 1.350 . S
N963 S961 1.610 . S
N963 C964 1.351 . S
C964 C958 1.428 . S
C964 N963 1.351 . S
C964 C965 1.434 . S
C965 C956 1.429 . S
C965 N962 1.350 . S
C965 C964 1.434 . S
C966 C967 1.369 . S
C966 C968 1.419 . S
C966 H970 0.930 . S
C967 C966 1.369 . S
C967 C976 1.429 . S
C968 C966 1.419 . S
C968 C969 1.363 . S
C968 H971 0.929 . S
C969 C968 1.363 . S
C969 C975 1.428 . S
H970 C966 0.930 . S
H971 C968 0.929 . S
S972 N973 1.613 . S
S972 N974 1.610 . S
N973 S972 1.613 . S
N973 C976 1.350 . S
N974 S972 1.610 . S
N974 C975 1.351 . S
C975 C969 1.428 . S
C975 N974 1.351 . S
C975 C976 1.434 . S
C976 C967 1.429 . S
C976 N973 1.350 . S
C976 C975 1.434 . S
C977 C978 1.369 . S
C977 C979 1.419 . S
C977 H981 0.930 . S
C978 C977 1.369 . S
C978 C987 1.429 . S
C979 C977 1.419 . S
C979 C980 1.363 . S
C979 H982 0.929 . S
C980 C979 1.363 . S
C980 C986 1.428 . S
H981 C977 0.930 . S
H982 C979 0.929 . S
S983 N984 1.613 . S
S983 N985 1.610 . S
N984 S983 1.613 . S
N984 C987 1.350 . S
N985 S983 1.610 . S
N985 C986 1.351 . S
C986 C980 1.428 . S
C986 N985 1.351 . S
C986 C987 1.434 . S
C987 C978 1.429 . S
C987 N984 1.350 . S
C987 C986 1.434 . S
C988 C989 1.369 . S
C988 C990 1.419 . S
C988 H992 0.930 . S
C989 C988 1.369 . S
C989 C998 1.429 . S
C990 C988 1.419 . S
C990 C991 1.363 . S
C990 H993 0.929 . S
C991 C990 1.363 . S
C991 C997 1.428 . S
H992 C988 0.930 . S
H993 C990 0.929 . S
S994 N995 1.613 . S
S994 N996 1.610 . S
N995 S994 1.613 . S
N995 C998 1.350 . S
N996 S994 1.610 . S
N996 C997 1.351 . S
C997 C991 1.428 . S
C997 N996 1.351 . S
C997 C998 1.434 . S
C998 C989 1.429 . S
C998 N995 1.350 . S
C998 C997 1.434 . S
C999 C1000 1.369 . S
C999 C1001 1.419 . S
C999 H1003 0.930 . S
C1000 C999 1.369 . S
C1000 C1009 1.429 . S
C1001 C999 1.419 . S
C1001 C1002 1.363 . S
C1001 H1004 0.929 . S
C1002 C1001 1.363 . S
C1002 C1008 1.428 . S
H1003 C999 0.930 . S
H1004 C1001 0.929 . S
S1005 N1006 1.613 . S
S1005 N1007 1.610 . S
N1006 S1005 1.613 . S
N1006 C1009 1.350 . S
N1007 S1005 1.610 . S
N1007 C1008 1.351 . S
C1008 C1002 1.428 . S
C1008 N1007 1.351 . S
C1008 C1009 1.434 . S
C1009 C1000 1.429 . S
C1009 N1006 1.350 . S
C1009 C1008 1.434 . S
C1010 C1011 1.369 . S
C1010 C1012 1.419 . S
C1010 H1014 0.930 . S
C1011 C1010 1.369 . S
C1011 C1020 1.429 . S
C1012 C1010 1.419 . S
C1012 C1013 1.363 . S
C1012 H1015 0.929 . S
C1013 C1012 1.363 . S
C1013 C1019 1.428 . S
H1014 C1010 0.930 . S
H1015 C1012 0.929 . S
S1016 N1017 1.613 . S
S1016 N1018 1.610 . S
N1017 S1016 1.613 . S
N1017 C1020 1.350 . S
N1018 S1016 1.610 . S
N1018 C1019 1.351 . S
C1019 C1013 1.428 . S
C1019 N1018 1.351 . S
C1019 C1020 1.434 . S
C1020 C1011 1.429 . S
C1020 N1017 1.350 . S
C1020 C1019 1.434 . S
C1021 C1022 1.369 . S
C1021 C1023 1.419 . S
C1021 H1025 0.930 . S
C1022 C1021 1.369 . S
C1022 C1031 1.429 . S
C1023 C1021 1.419 . S
C1023 C1024 1.363 . S
C1023 H1026 0.929 . S
C1024 C1023 1.363 . S
C1024 C1030 1.428 . S
H1025 C1021 0.930 . S
H1026 C1023 0.929 . S
S1027 N1028 1.613 . S
S1027 N1029 1.610 . S
N1028 S1027 1.613 . S
N1028 C1031 1.350 . S
N1029 S1027 1.610 . S
N1029 C1030 1.351 . S
C1030 C1024 1.428 . S
C1030 N1029 1.351 . S
C1030 C1031 1.434 . S
C1031 C1022 1.429 . S
C1031 N1028 1.350 . S
C1031 C1030 1.434 . S
C1032 C1033 1.369 . S
C1032 C1034 1.419 . S
C1032 H1036 0.930 . S
C1033 C1032 1.369 . S
C1033 C1042 1.429 . S
C1034 C1032 1.419 . S
C1034 C1035 1.363 . S
C1034 H1037 0.929 . S
C1035 C1034 1.363 . S
C1035 C1041 1.428 . S
H1036 C1032 0.930 . S
H1037 C1034 0.929 . S
S1038 N1039 1.613 . S
S1038 N1040 1.610 . S
N1039 S1038 1.613 . S
N1039 C1042 1.350 . S
N1040 S1038 1.610 . S
N1040 C1041 1.351 . S
C1041 C1035 1.428 . S
C1041 N1040 1.351 . S
C1041 C1042 1.434 . S
C1042 C1033 1.429 . S
C1042 N1039 1.350 . S
C1042 C1041 1.434 . S
C1043 C1044 1.369 . S
C1043 C1045 1.419 . S
C1043 H1047 0.930 . S
C1044 C1043 1.369 . S
C1044 C1053 1.429 . S
C1045 C1043 1.419 . S
C1045 C1046 1.363 . S
C1045 H1048 0.929 . S
C1046 C1045 1.363 . S
C1046 C1052 1.428 . S
H1047 C1043 0.930 . S
H1048 C1045 0.929 . S
S1049 N1050 1.613 . S
S1049 N1051 1.610 . S
N1050 S1049 1.613 . S
N1050 C1053 1.350 . S
N1051 S1049 1.610 . S
N1051 C1052 1.351 . S
C1052 C1046 1.428 . S
C1052 N1051 1.351 . S
C1052 C1053 1.434 . S
C1053 C1044 1.429 . S
C1053 N1050 1.350 . S
C1053 C1052 1.434 . S
C1054 C1055 1.369 . S
C1054 C1056 1.419 . S
C1054 H1058 0.930 . S
C1055 C1054 1.369 . S
C1055 C1064 1.429 . S
C1056 C1054 1.419 . S
C1056 C1057 1.363 . S
C1056 H1059 0.929 . S
C1057 C1056 1.363 . S
C1057 C1063 1.428 . S
H1058 C1054 0.930 . S
H1059 C1056 0.929 . S
S1060 N1061 1.613 . S
S1060 N1062 1.610 . S
N1061 S1060 1.613 . S
N1061 C1064 1.350 . S
N1062 S1060 1.610 . S
N1062 C1063 1.351 . S
C1063 C1057 1.428 . S
C1063 N1062 1.351 . S
C1063 C1064 1.434 . S
C1064 C1055 1.429 . S
C1064 N1061 1.350 . S
C1064 C1063 1.434 . S
C1065 C1066 1.369 . S
C1065 C1067 1.419 . S
C1065 H1069 0.930 . S
C1066 C1065 1.369 . S
C1066 C1075 1.429 . S
C1067 C1065 1.419 . S
C1067 C1068 1.363 . S
C1067 H1070 0.929 . S
C1068 C1067 1.363 . S
C1068 C1074 1.428 . S
H1069 C1065 0.930 . S
H1070 C1067 0.929 . S
S1071 N1072 1.613 . S
S1071 N1073 1.610 . S
N1072 S1071 1.613 . S
N1072 C1075 1.350 . S
N1073 S1071 1.610 . S
N1073 C1074 1.351 . S
C1074 C1068 1.428 . S
C1074 N1073 1.351 . S
C1074 C1075 1.434 . S
C1075 C1066 1.429 . S
C1075 N1072 1.350 . S
C1075 C1074 1.434 . S
C1076 C1077 1.369 . S
C1076 C1078 1.419 . S
C1076 H1080 0.930 . S
C1077 C1076 1.369 . S
C1077 C1086 1.429 . S
C1078 C1076 1.419 . S
C1078 C1079 1.363 . S
C1078 H1081 0.929 . S
C1079 C1078 1.363 . S
C1079 C1085 1.428 . S
H1080 C1076 0.930 . S
H1081 C1078 0.929 . S
S1082 N1083 1.613 . S
S1082 N1084 1.610 . S
N1083 S1082 1.613 . S
N1083 C1086 1.350 . S
N1084 S1082 1.610 . S
N1084 C1085 1.351 . S
C1085 C1079 1.428 . S
C1085 N1084 1.351 . S
C1085 C1086 1.434 . S
C1086 C1077 1.429 . S
C1086 N1083 1.350 . S
C1086 C1085 1.434 . S
C1087 C1088 1.369 . S
C1087 C1089 1.419 . S
C1087 H1091 0.930 . S
C1088 C1087 1.369 . S
C1088 C1097 1.429 . S
C1089 C1087 1.419 . S
C1089 C1090 1.363 . S
C1089 H1092 0.929 . S
C1090 C1089 1.363 . S
C1090 C1096 1.428 . S
H1091 C1087 0.930 . S
H1092 C1089 0.929 . S
S1093 N1094 1.613 . S
S1093 N1095 1.610 . S
N1094 S1093 1.613 . S
N1094 C1097 1.350 . S
N1095 S1093 1.610 . S
N1095 C1096 1.351 . S
C1096 C1090 1.428 . S
C1096 N1095 1.351 . S
C1096 C1097 1.434 . S
C1097 C1088 1.429 . S
C1097 N1094 1.350 . S
C1097 C1096 1.434 . S
C1098 C1099 1.369 . S
C1098 C1100 1.419 . S
C1098 H1102 0.930 . S
C1099 C1098 1.369 . S
C1099 C1108 1.429 . S
C1100 C1098 1.419 . S
C1100 C1101 1.363 . S
C1100 H1103 0.929 . S
C1101 C1100 1.363 . S
C1101 C1107 1.428 . S
H1102 C1098 0.930 . S
H1103 C1100 0.929 . S
S1104 N1105 1.613 . S
S1104 N1106 1.610 . S
N1105 S1104 1.613 . S
N1105 C1108 1.350 . S
N1106 S1104 1.610 . S
N1106 C1107 1.351 . S
C1107 C1101 1.428 . S
C1107 N1106 1.351 . S
C1107 C1108 1.434 . S
C1108 C1099 1.429 . S
C1108 N1105 1.350 . S
C1108 C1107 1.434 . S
C1109 C1110 1.369 . S
C1109 C1111 1.419 . S
C1109 H1113 0.930 1_556 S
C1110 C1109 1.369 . S
C1110 C1119 1.429 . S
C1111 C1109 1.419 . S
C1111 C1112 1.363 . S
C1111 H1114 0.929 . S
C1112 C1111 1.363 . S
C1112 C1118 1.428 . S
H1113 C1109 0.930 1_554 S
H1114 C1111 0.929 . S
S1115 N1116 1.613 . S
S1115 N1117 1.610 . S
N1116 S1115 1.613 . S
N1116 C1119 1.350 . S
N1117 S1115 1.610 . S
N1117 C1118 1.351 . S
C1118 C1112 1.428 . S
C1118 N1117 1.351 . S
C1118 C1119 1.434 . S
C1119 C1110 1.429 . S
C1119 N1116 1.350 . S
C1119 C1118 1.434 . S
C1120 C1121 1.369 . S
C1120 C1122 1.419 . S
C1120 H1124 0.930 . S
C1121 C1120 1.369 . S
C1121 C1130 1.429 . S
C1122 C1120 1.419 . S
C1122 C1123 1.363 . S
C1122 H1125 0.929 . S
C1123 C1122 1.363 . S
C1123 C1129 1.428 . S
H1124 C1120 0.930 . S
H1125 C1122 0.929 . S
S1126 N1127 1.613 . S
S1126 N1128 1.610 . S
N1127 S1126 1.613 . S
N1127 C1130 1.350 . S
N1128 S1126 1.610 . S
N1128 C1129 1.351 . S
C1129 C1123 1.428 . S
C1129 N1128 1.351 . S
C1129 C1130 1.434 . S
C1130 C1121 1.429 . S
C1130 N1127 1.350 . S
C1130 C1129 1.434 . S
C1131 C1132 1.369 . S
C1131 C1133 1.419 . S
C1131 H1135 0.930 . S
C1132 C1131 1.369 . S
C1132 C1141 1.429 . S
C1133 C1131 1.419 . S
C1133 C1134 1.363 . S
C1133 H1136 0.929 . S
C1134 C1133 1.363 . S
C1134 C1140 1.428 . S
H1135 C1131 0.930 . S
H1136 C1133 0.929 . S
S1137 N1138 1.613 . S
S1137 N1139 1.610 . S
N1138 S1137 1.613 . S
N1138 C1141 1.350 . S
N1139 S1137 1.610 . S
N1139 C1140 1.351 . S
C1140 C1134 1.428 . S
C1140 N1139 1.351 . S
C1140 C1141 1.434 . S
C1141 C1132 1.429 . S
C1141 N1138 1.350 . S
C1141 C1140 1.434 . S
C1142 C1143 1.369 . S
C1142 C1144 1.419 . S
C1142 H1146 0.930 . S
C1143 C1142 1.369 . S
C1143 C1152 1.429 . S
C1144 C1142 1.419 . S
C1144 C1145 1.363 . S
C1144 H1147 0.929 . S
C1145 C1144 1.363 . S
C1145 C1151 1.428 . S
H1146 C1142 0.930 . S
H1147 C1144 0.929 . S
S1148 N1149 1.613 . S
S1148 N1150 1.610 . S
N1149 S1148 1.613 . S
N1149 C1152 1.350 . S
N1150 S1148 1.610 . S
N1150 C1151 1.351 . S
C1151 C1145 1.428 . S
C1151 N1150 1.351 . S
C1151 C1152 1.434 . S
C1152 C1143 1.429 . S
C1152 N1149 1.350 . S
C1152 C1151 1.434 . S
C1153 C1154 1.369 . S
C1153 C1155 1.419 . S
C1153 H1157 0.930 . S
C1154 C1153 1.369 . S
C1154 C1163 1.429 . S
C1155 C1153 1.419 . S
C1155 C1156 1.363 . S
C1155 H1158 0.929 . S
C1156 C1155 1.363 . S
C1156 C1162 1.428 . S
H1157 C1153 0.930 . S
H1158 C1155 0.929 . S
S1159 N1160 1.613 . S
S1159 N1161 1.610 . S
N1160 S1159 1.613 . S
N1160 C1163 1.350 . S
N1161 S1159 1.610 . S
N1161 C1162 1.351 . S
C1162 C1156 1.428 . S
C1162 N1161 1.351 . S
C1162 C1163 1.434 . S
C1163 C1154 1.429 . S
C1163 N1160 1.350 . S
C1163 C1162 1.434 . S
C1164 C1165 1.369 . S
C1164 C1166 1.419 . S
C1164 H1168 0.930 . S
C1165 C1164 1.369 . S
C1165 C1174 1.429 . S
C1166 C1164 1.419 . S
C1166 C1167 1.363 . S
C1166 H1169 0.929 . S
C1167 C1166 1.363 . S
C1167 C1173 1.428 . S
H1168 C1164 0.930 . S
H1169 C1166 0.929 . S
S1170 N1171 1.613 . S
S1170 N1172 1.610 1_556 S
N1171 S1170 1.613 . S
N1171 C1174 1.350 1_556 S
N1172 S1170 1.610 1_554 S
N1172 C1173 1.351 . S
C1173 C1167 1.428 . S
C1173 N1172 1.351 . S
C1173 C1174 1.434 . S
C1174 C1165 1.429 . S
C1174 N1171 1.350 1_554 S
C1174 C1173 1.434 . S
C1175 C1176 1.369 . S
C1175 C1177 1.419 . S
C1175 H1179 0.930 . S
C1176 C1175 1.369 . S
C1176 C1185 1.429 . S
C1177 C1175 1.419 . S
C1177 C1178 1.363 . S
C1177 H1180 0.929 . S
C1178 C1177 1.363 . S
C1178 C1184 1.428 . S
H1179 C1175 0.930 . S
H1180 C1177 0.929 . S
S1181 N1182 1.613 . S
S1181 N1183 1.610 . S
N1182 S1181 1.613 . S
N1182 C1185 1.350 . S
N1183 S1181 1.610 . S
N1183 C1184 1.351 . S
C1184 C1178 1.428 . S
C1184 N1183 1.351 . S
C1184 C1185 1.434 . S
C1185 C1176 1.429 . S
C1185 N1182 1.350 . S
C1185 C1184 1.434 . S
C1186 C1187 1.369 . S
C1186 C1188 1.419 . S
C1186 H1190 0.930 . S
C1187 C1186 1.369 . S
C1187 C1196 1.429 . S
C1188 C1186 1.419 . S
C1188 C1189 1.363 . S
C1188 H1191 0.929 . S
C1189 C1188 1.363 . S
C1189 C1195 1.428 . S
H1190 C1186 0.930 . S
H1191 C1188 0.929 . S
S1192 N1193 1.613 . S
S1192 N1194 1.610 . S
N1193 S1192 1.613 . S
N1193 C1196 1.350 1_556 S
N1194 S1192 1.610 . S
N1194 C1195 1.351 1_556 S
C1195 C1189 1.428 . S
C1195 N1194 1.351 1_554 S
C1195 C1196 1.434 . S
C1196 C1187 1.429 . S
C1196 N1193 1.350 1_554 S
C1196 C1195 1.434 . S
C1197 C1198 1.369 . S
C1197 C1199 1.419 . S
C1197 H1201 0.930 . S
C1198 C1197 1.369 . S
C1198 C1207 1.429 . S
C1199 C1197 1.419 . S
C1199 C1200 1.363 . S
C1199 H1202 0.929 . S
C1200 C1199 1.363 . S
C1200 C1206 1.428 . S
H1201 C1197 0.930 . S
H1202 C1199 0.929 . S
S1203 N1204 1.613 . S
S1203 N1205 1.610 . S
N1204 S1203 1.613 . S
N1204 C1207 1.350 . S
N1205 S1203 1.610 . S
N1205 C1206 1.351 . S
C1206 C1200 1.428 . S
C1206 N1205 1.351 . S
C1206 C1207 1.434 . S
C1207 C1198 1.429 . S
C1207 N1204 1.350 . S
C1207 C1206 1.434 . S
C1208 C1209 1.369 . S
C1208 C1210 1.419 . S
C1208 H1212 0.930 . S
C1209 C1208 1.369 . S
C1209 C1218 1.429 . S
C1210 C1208 1.419 . S
C1210 C1211 1.363 . S
C1210 H1213 0.929 . S
C1211 C1210 1.363 . S
C1211 C1217 1.428 . S
H1212 C1208 0.930 . S
H1213 C1210 0.929 . S
S1214 N1215 1.613 . S
S1214 N1216 1.610 . S
N1215 S1214 1.613 . S
N1215 C1218 1.350 . S
N1216 S1214 1.610 . S
N1216 C1217 1.351 . S
C1217 C1211 1.428 . S
C1217 N1216 1.351 . S
C1217 C1218 1.434 . S
C1218 C1209 1.429 . S
C1218 N1215 1.350 . S
C1218 C1217 1.434 . S
C1219 C1220 1.369 . S
C1219 C1221 1.419 . S
C1219 H1223 0.930 . S
C1220 C1219 1.369 . S
C1220 C1229 1.429 . S
C1221 C1219 1.419 . S
C1221 C1222 1.363 . S
C1221 H1224 0.929 . S
C1222 C1221 1.363 . S
C1222 C1228 1.428 . S
H1223 C1219 0.930 . S
H1224 C1221 0.929 . S
S1225 N1226 1.613 . S
S1225 N1227 1.610 . S
N1226 S1225 1.613 . S
N1226 C1229 1.350 . S
N1227 S1225 1.610 . S
N1227 C1228 1.351 . S
C1228 C1222 1.428 . S
C1228 N1227 1.351 . S
C1228 C1229 1.434 . S
C1229 C1220 1.429 . S
C1229 N1226 1.350 . S
C1229 C1228 1.434 . S
C1230 C1231 1.369 1_455 S
C1230 C1232 1.419 . S
C1230 H1234 0.930 1_455 S
C1231 C1230 1.369 1_655 S
C1231 C1240 1.429 1_655 S
C1232 C1230 1.419 . S
C1232 C1233 1.363 . S
C1232 H1235 0.929 . S
C1233 C1232 1.363 . S
C1233 C1239 1.428 . S
H1234 C1230 0.930 1_655 S
H1235 C1232 0.929 . S
S1236 N1237 1.613 . S
S1236 N1238 1.610 . S
N1237 S1236 1.613 . S
N1237 C1240 1.350 . S
N1238 S1236 1.610 . S
N1238 C1239 1.351 . S
C1239 C1233 1.428 . S
C1239 N1238 1.351 . S
C1239 C1240 1.434 . S
C1240 C1231 1.429 1_455 S
C1240 N1237 1.350 . S
C1240 C1239 1.434 . S
C1241 C1242 1.369 . S
C1241 C1243 1.419 . S
C1241 H1245 0.930 . S
C1242 C1241 1.369 . S
C1242 C1251 1.429 . S
C1243 C1241 1.419 . S
C1243 C1244 1.363 . S
C1243 H1246 0.929 . S
C1244 C1243 1.363 . S
C1244 C1250 1.428 . S
H1245 C1241 0.930 . S
H1246 C1243 0.929 . S
S1247 N1248 1.613 . S
S1247 N1249 1.610 . S
N1248 S1247 1.613 . S
N1248 C1251 1.350 . S
N1249 S1247 1.610 . S
N1249 C1250 1.351 . S
C1250 C1244 1.428 . S
C1250 N1249 1.351 . S
C1250 C1251 1.434 . S
C1251 C1242 1.429 . S
C1251 N1248 1.350 . S
C1251 C1250 1.434 . S
C1252 C1253 1.359 . S
C1252 C1254 1.395 1_565 S
C1252 H1256 0.967 . S
C1253 C1252 1.359 . S
C1253 C1262 1.429 1_565 S
C1254 C1252 1.395 1_545 S
C1254 C1255 1.363 . S
C1254 H1257 0.929 . S
C1255 C1254 1.363 . S
C1255 C1261 1.428 . S
H1256 C1252 0.967 . S
H1257 C1254 0.929 . S
S1258 N1259 1.613 . S
S1258 N1260 1.610 . S
N1259 S1258 1.613 . S
N1259 C1262 1.350 . S
N1260 S1258 1.610 . S
N1260 C1261 1.351 . S
C1261 C1255 1.428 . S
C1261 N1260 1.351 . S
C1261 C1262 1.434 . S
C1262 C1253 1.429 1_545 S
C1262 N1259 1.350 . S
C1262 C1261 1.434 . S
C1263 C1264 1.369 1_565 S
C1263 C1265 1.419 . S
C1263 H1267 0.930 . S
C1264 C1263 1.369 1_545 S
C1264 C1273 1.429 . S
C1265 C1263 1.419 . S
C1265 C1266 1.363 . S
C1265 H1268 0.929 . S
C1266 C1265 1.363 . S
C1266 C1272 1.428 . S
H1267 C1263 0.930 . S
H1268 C1265 0.929 . S
S1269 N1270 1.613 . S
S1269 N1271 1.610 1_545 S
N1270 S1269 1.613 . S
N1270 C1273 1.350 . S
N1271 S1269 1.610 1_565 S
N1271 C1272 1.351 . S
C1272 C1266 1.428 . S
C1272 N1271 1.351 . S
C1272 C1273 1.434 1_565 S
C1273 C1264 1.429 . S
C1273 N1270 1.350 . S
C1273 C1272 1.434 1_545 S
C1274 C1275 1.369 1_655 S
C1274 C1276 1.419 . S
C1274 H1278 0.930 . S
C1275 C1274 1.369 1_455 S
C1275 C1284 1.429 1_455 S
C1276 C1274 1.419 . S
C1276 C1277 1.363 . S
C1276 H1279 0.929 . S
C1277 C1276 1.363 . S
C1277 C1283 1.428 . S
H1278 C1274 0.930 . S
H1279 C1276 0.929 . S
S1280 N1281 1.613 1_655 S
S1280 N1282 1.610 . S
N1281 S1280 1.613 1_455 S
N1281 C1284 1.350 1_455 S
N1282 S1280 1.610 . S
N1282 C1283 1.351 . S
C1283 C1277 1.428 . S
C1283 N1282 1.351 . S
C1283 C1284 1.434 . S
C1284 C1275 1.429 1_655 S
C1284 N1281 1.350 1_655 S
C1284 C1283 1.434 . S
C1285 C1286 1.369 . S
C1285 C1287 1.419 . S
C1285 H1289 0.930 . S
C1286 C1285 1.369 . S
C1286 C1295 1.429 . S
C1287 C1285 1.419 . S
C1287 C1288 1.363 . S
C1287 H1290 0.929 . S
C1288 C1287 1.363 . S
C1288 C1294 1.428 . S
H1289 C1285 0.930 . S
H1290 C1287 0.929 . S
S1291 N1292 1.613 . S
S1291 N1293 1.610 . S
N1292 S1291 1.613 . S
N1292 C1295 1.350 . S
N1293 S1291 1.610 . S
N1293 C1294 1.351 . S
C1294 C1288 1.428 . S
C1294 N1293 1.351 . S
C1294 C1295 1.434 . S
C1295 C1286 1.429 . S
C1295 N1292 1.350 . S
C1295 C1294 1.434 . S
C505 C76 1.578 . S
C507 C6 1.566 . S
C516 C20 1.578 . S
C518 C48 1.561 . S
C527 C62 1.431 . S
C529 C34 1.435 . S
C538 C90 1.559 . S
C540 C160 1.582 . S
C549 C104 1.583 . S
C551 C132 1.561 . S
C560 C146 1.427 . S
C562 C118 1.434 . S
C571 C244 1.430 . S
C573 C174 1.497 . S
C582 C188 1.551 . S
C584 C216 1.548 . S
C593 C230 1.533 . S
C595 C202 1.586 . S
C604 C258 1.549 . S
C606 C328 1.552 . S
C615 C272 1.429 . S
C617 C300 1.497 1_554 S
C626 C286 1.533 . S
C628 C314 1.586 1_554 S
C637 C342 1.548 . S
C639 C412 1.551 . S
C648 C384 1.494 1_556 S
C650 C356 1.434 . S
C659 C370 1.543 . S
C661 C398 1.581 1_556 S
C670 C426 1.492 . S
C672 C496 1.439 . S
C681 C440 1.559 . S
C683 C468 1.540 . S
C692 C454 1.581 . S
C694 C482 1.540 . S
C703 C147 2.151 . S
C705 C9 2.077 1_556 S
C714 C161 2.041 . S
C716 C23 1.905 . S
C725 C133 2.031 . S
C727 C37 1.941 1_556 S
C736 C119 2.150 . S
C738 C51 2.074 . S
C747 C65 1.935 . S
C749 C91 2.038 . S
C758 C79 1.905 . S
C760 C105 2.040 . S
C769 C93 2.076 1_554 S
C771 C63 2.147 . S
C780 C107 1.899 . S
C782 C77 2.042 . S
C791 C121 1.936 1_554 S
C793 C49 2.038 . S
C802 C35 2.149 . S
C804 C135 2.079 . S
C813 C7 2.031 . S
C815 C149 1.943 . S
C824 C163 1.907 . S
C826 C21 2.040 . S
C835 C177 1.448 . S
C837 C315 1.408 . S
C846 C191 2.151 . S
C848 C329 2.240 . S
C857 C301 1.423 . S
C859 C205 1.320 . S
C868 C219 1.895 . S
C870 C287 1.971 1_556 S
C879 C233 2.199 . S
C881 C259 2.178 1_556 S
C890 C247 2.024 . S
C892 C273 1.997 . S
C901 C261 1.888 . S
C903 C231 1.971 . S
C912 C245 1.998 . S
C914 C275 2.027 . S
C923 C217 2.172 . S
C925 C289 2.200 . S
C934 C303 1.441 . S
C936 C203 1.406 . S
C945 C175 1.424 . S
C947 C317 1.321 . S
C956 C189 2.240 . S
C958 C331 2.152 . S
C967 C483 1.973 . S
C969 C345 1.886 . S
C978 C359 2.026 . S
C980 C497 1.995 . S
C989 C373 2.203 . S
C991 C469 2.175 . S
C1000 C455 1.410 . S
C1002 C387 1.444 . S
C1011 C427 1.421 . S
C1013 C401 1.322 . S
C1022 C441 2.234 . S
C1024 C415 2.157 . S
C1033 C429 1.447 . S
C1035 C399 1.401 . S
C1044 C413 2.239 . S
C1046 C443 2.157 . S
C1055 C457 1.319 . S
C1057 C385 1.423 . S
C1066 C371 1.967 1_554 S
C1068 C471 1.893 . S
C1077 C343 2.178 1_554 S
C1079 C485 2.198 . S
C1088 C357 2.000 . S
C1090 C499 2.026 . S
C1099 C232 1.788 . S
C1101 C8 1.798 1_556 S
C1110 C22 1.920 1_556 S
C1112 C246 1.822 . S
C1121 C218 2.146 . S
C1123 C36 2.191 1_556 S
C1132 C372 1.788 . S
C1134 C50 1.798 . S
C1143 C64 2.182 . S
C1145 C344 2.150 . S
C1154 C78 1.921 . S
C1156 C358 1.827 . S
C1165 C92 1.787 1_554 S
C1167 C484 1.797 . S
C1176 C498 1.830 . S
C1178 C106 1.911 1_554 S
C1187 C470 2.151 . S
C1189 C120 2.186 1_554 S
C1198 C288 1.802 . S
C1200 C134 1.789 . S
C1209 C148 2.190 . S
C1211 C260 2.142 . S
C1220 C162 1.918 . S
C1222 C274 1.823 . S
C1231 C176 1.281 . S
C1233 C400 1.285 . S
C1242 C414 2.205 . S
C1244 C190 2.195 . S
C1253 C386 1.281 . S
C1255 C204 1.285 . S
C1264 C302 1.277 . S
C1266 C456 1.288 . S
C1275 C428 1.283 . S
C1277 C316 1.286 . S
C1286 C442 2.195 . S
C1288 C330 2.204 . S
