# Generated by pormake.
# Topology umz, (4)-cn, num edge types: 1
# Building blocks:
#     Node 0, Type 0, BuildingBlock: QUQFOY_clean_sbu_3, # of connection points: 4
#     Node 1, Type 0, BuildingBlock: QUQFOY_clean_sbu_3, # of connection points: 4
#     Node 2, Type 0, BuildingBlock: QUQFOY_clean_sbu_3, # of connection points: 4
#     Node 3, Type 0, BuildingBlock: QUQFOY_clean_sbu_3, # of connection points: 4
#     Node 4, Type 0, BuildingBlock: QUQFOY_clean_sbu_3, # of connection points: 4
#     Node 5, Type 0, BuildingBlock: QUQFOY_clean_sbu_3, # of connection points: 4
#     Node 6, Type 0, BuildingBlock: QUQFOY_clean_sbu_3, # of connection points: 4
#     Node 7, Type 0, BuildingBlock: QUQFOY_clean_sbu_3, # of connection points: 4
#     Node 8, Type 0, BuildingBlock: QUQFOY_clean_sbu_3, # of connection points: 4
#     Node 9, Type 0, BuildingBlock: QUQFOY_clean_sbu_3, # of connection points: 4
#     Node 10, Type 0, BuildingBlock: QUQFOY_clean_sbu_3, # of connection points: 4
#     Node 11, Type 0, BuildingBlock: QUQFOY_clean_sbu_3, # of connection points: 4
#     Node 12, Type 0, BuildingBlock: QUQFOY_clean_sbu_3, # of connection points: 4
#     Node 13, Type 0, BuildingBlock: QUQFOY_clean_sbu_3, # of connection points: 4
#     Node 14, Type 0, BuildingBlock: QUQFOY_clean_sbu_3, # of connection points: 4
#     Node 15, Type 0, BuildingBlock: QUQFOY_clean_sbu_3, # of connection points: 4
#     Edge 16, Type (0, 0), None
#     Edge 17, Type (0, 0), None
#     Edge 18, Type (0, 0), None
#     Edge 19, Type (0, 0), None
#     Edge 20, Type (0, 0), None
#     Edge 21, Type (0, 0), None
#     Edge 22, Type (0, 0), None
#     Edge 23, Type (0, 0), None
#     Edge 24, Type (0, 0), None
#     Edge 25, Type (0, 0), None
#     Edge 26, Type (0, 0), None
#     Edge 27, Type (0, 0), None
#     Edge 28, Type (0, 0), None
#     Edge 29, Type (0, 0), None
#     Edge 30, Type (0, 0), None
#     Edge 31, Type (0, 0), None
#     Edge 32, Type (0, 0), None
#     Edge 33, Type (0, 0), None
#     Edge 34, Type (0, 0), None
#     Edge 35, Type (0, 0), None
#     Edge 36, Type (0, 0), None
#     Edge 37, Type (0, 0), None
#     Edge 38, Type (0, 0), None
#     Edge 39, Type (0, 0), None
#     Edge 40, Type (0, 0), None
#     Edge 41, Type (0, 0), None
#     Edge 42, Type (0, 0), None
#     Edge 43, Type (0, 0), None
#     Edge 44, Type (0, 0), None
#     Edge 45, Type (0, 0), None
#     Edge 46, Type (0, 0), None
#     Edge 47, Type (0, 0), None
# Relax obj value: 0.245
# Max RMSD: 0.167
# Mean RMSD: 0.167
data_MOF--net-umz--node1-QUQFOY_clean_sbu_3--edge1-none
_symmetry_space_group_name_H-M    P1
_symmetry_Int_Tables_number       1
_symmetry_cell_setting            triclinic
loop_
_symmetry_equiv_pos_as_xyz
'x, y, z'
_cell_length_a     30.318515
_cell_length_b     30.308035
_cell_length_c     10.30882
_cell_angle_alpha  89.991976
_cell_angle_beta   90.018356
_cell_angle_gamma 89.976235
loop_
_atom_site_label
_atom_site_type_symbol
_atom_site_fract_x
_atom_site_fract_y
_atom_site_fract_z
_atom_type_partial_charge
C0 C 0.90126 0.5496 0.24249 0.0
O1 O 0.88305 0.54655 0.13216 0.0
Cd2 Cd 0.95207 0.56882 0.02668 0.0
O3 O 0.93989 0.5653 0.247 0.0
Cd4 Cd -0.02454 0.58877 0.03064 0.0
C5 C 0.03549 0.53378 0.18186 0.0
O6 O -0.04208 0.54674 0.81794 0.0
O7 O 0.02602 0.55779 0.873 0.0
O8 O 0.93192 0.65587 0.00127 0.0
C9 C -0.00137 0.54352 0.79016 0.0
O10 O 0.00324 0.5146 0.12806 0.0
C11 C -0.03374 0.67933 0.98656 0.0
O12 O 0.03846 0.57521 0.16955 0.0
O13 O 0.00356 0.66062 -0.00582 0.0
C14 C 0.86041 0.90126 0.74263 0.0
O15 O 0.86347 0.88304 0.63232 0.0
Cd16 Cd 0.841 0.95204 0.52677 0.0
O17 O 0.8446 0.93987 0.74711 0.0
Cd18 Cd 0.82101 -0.0246 0.5307 0.0
C19 C 0.87586 0.03554 0.68183 0.0
O20 O 0.86307 -0.0421 0.31805 0.0
O21 O 0.85189 0.02601 0.37301 0.0
O22 O 0.75403 0.93174 0.50143 0.0
C23 C 0.86621 -0.00137 0.29021 0.0
O24 O 0.89509 0.00331 0.62806 0.0
C25 C 0.7305 -0.03393 0.48661 0.0
O26 O 0.83443 0.03844 0.66954 0.0
O27 O 0.74914 0.0034 0.49414 0.0
C28 C 0.50846 0.86037 0.24273 0.0
O29 O 0.52667 0.86341 0.13243 0.0
Cd30 Cd 0.45764 0.84115 0.02685 0.0
O31 O 0.46983 0.84467 0.24719 0.0
Cd32 Cd 0.43426 0.8212 0.03078 0.0
C33 C 0.37423 0.87621 0.18184 0.0
O34 O 0.45182 0.86325 0.8181 0.0
O35 O 0.38372 0.85221 0.87302 0.0
O36 O 0.4778 0.75411 0.00148 0.0
C37 C 0.41111 0.86648 0.79022 0.0
O38 O 0.40648 0.89537 0.1281 0.0
C39 C 0.44345 0.73065 0.98668 0.0
O40 O 0.37126 0.83477 0.16956 0.0
O41 O 0.40616 0.74936 -0.00576 0.0
C42 C 0.54935 0.50877 0.74273 0.0
O43 O 0.54626 0.52698 0.6324 0.0
Cd44 Cd 0.56875 0.45799 0.52694 0.0
O45 O 0.56518 0.47018 0.74726 0.0
Cd46 Cd 0.58874 0.43463 0.53091 0.0
C47 C 0.53391 0.3745 0.68206 0.0
O48 O 0.54665 0.45211 0.31821 0.0
O49 O 0.55784 0.384 0.37329 0.0
O50 O 0.65573 0.47827 0.5015 0.0
C51 C 0.54351 0.41138 0.29043 0.0
O52 O 0.51467 0.40672 0.62822 0.0
C53 C 0.67924 0.44394 0.4867 0.0
O54 O 0.57534 0.3716 0.66984 0.0
O55 O 0.6606 0.40662 0.49436 0.0
C56 C 0.88432 0.88456 0.85588 0.0
O57 O 0.88713 0.90993 0.95344 0.0
Cd58 Cd 0.95485 0.9172 0.0709 0.0
O59 O 0.91084 0.85238 0.8423 0.0
Cd60 Cd -0.03086 0.81816 0.97726 0.0
C61 C 0.0201 0.89569 0.80511 0.0
O62 O -0.03073 0.85244 0.18775 0.0
O63 O 0.03171 0.8268 0.1203 0.0
O64 O 0.93126 0.74891 0.01146 0.0
C65 C 0.01016 0.84651 0.20813 0.0
O66 O 0.00565 0.92334 0.88739 0.0
C67 C -0.03594 0.72672 0.97064 0.0
O68 O 0.01143 0.85474 0.81367 0.0
O69 O -0.00273 0.74742 0.92695 0.0
C70 C 0.52521 0.88422 0.356 0.0
O71 O 0.49986 0.88708 0.45355 0.0
Cd72 Cd 0.49269 0.95482 0.57101 0.0
O73 O 0.55743 0.91066 0.34244 0.0
Cd74 Cd 0.59172 -0.0311 0.47738 0.0
C75 C 0.51426 0.02004 0.30516 0.0
O76 O 0.55745 -0.0309 0.68787 0.0
O77 O 0.58313 0.03151 0.62029 0.0
O78 O 0.661 0.93101 0.5116 0.0
C79 C 0.56342 0.01 0.70817 0.0
O80 O 0.48661 0.00566 0.38748 0.0
C81 C 0.68313 -0.03618 0.47067 0.0
O82 O 0.55518 0.01127 0.31373 0.0
O83 O 0.66239 -0.00297 0.42688 0.0
C84 C 0.52543 0.52546 0.85594 0.0
O85 O 0.52264 0.50009 0.95351 0.0
Cd86 Cd 0.45492 0.49279 0.07084 0.0
O87 O 0.4989 0.55762 0.84231 0.0
Cd88 Cd 0.44059 0.59183 0.97717 0.0
C89 C 0.38967 0.5143 0.80491 0.0
O90 O 0.44045 0.55752 0.18768 0.0
O91 O 0.378 0.58314 0.12 0.0
O92 O 0.47846 0.66107 0.01153 0.0
C93 C 0.39955 0.56344 0.20792 0.0
O94 O 0.40412 0.48665 0.88726 0.0
C95 C 0.44566 0.68326 0.97069 0.0
O96 O 0.39832 0.55524 0.81346 0.0
O97 O 0.41245 0.66258 0.92688 0.0
C98 C 0.88452 0.52576 0.35577 0.0
O99 O 0.90987 0.52291 0.45337 0.0
Cd100 Cd 0.91705 0.45519 0.57096 0.0
O101 O 0.8523 0.49931 0.34221 0.0
Cd102 Cd 0.81802 0.44108 0.47722 0.0
C103 C 0.89547 0.38994 0.30517 0.0
O104 O 0.85231 0.44089 0.68775 0.0
O105 O 0.82664 0.37848 0.62018 0.0
O106 O 0.74876 0.479 0.51147 0.0
C107 C 0.84634 0.4 0.70807 0.0
O108 O 0.92313 0.40433 0.38752 0.0
C109 C 0.72661 0.44619 0.47063 0.0
O110 O 0.85455 0.39871 0.31366 0.0
O111 O 0.74732 0.41298 0.42683 0.0
C112 C 0.00849 0.3604 0.73881 0.0
O113 O 0.0267 0.36345 0.84914 0.0
Cd114 Cd -0.04232 0.34117 0.95463 0.0
O115 O -0.03014 0.3447 0.7343 0.0
Cd116 Cd 0.93429 0.32122 0.95066 0.0
C117 C 0.87426 0.37621 0.79944 0.0
O118 O 0.95183 0.36326 0.16336 0.0
O119 O 0.88373 0.35221 0.10828 0.0
O120 O -0.02218 0.25413 0.98003 0.0
C121 C 0.91112 0.36649 0.19112 0.0
O122 O 0.90651 0.39539 0.85324 0.0
C123 C 0.94348 0.23066 -0.00526 0.0
O124 O 0.87129 0.33478 0.81175 0.0
O125 O 0.90619 0.24938 0.98712 0.0
C126 C 0.04933 0.00874 0.23868 0.0
O127 O 0.04627 0.02696 0.34898 0.0
Cd128 Cd 0.06874 -0.04204 0.45453 0.0
O129 O 0.06514 -0.02987 0.23419 0.0
Cd130 Cd 0.08873 0.9346 0.4506 0.0
C131 C 0.03389 0.87446 0.29946 0.0
O132 O 0.04666 0.9521 0.66325 0.0
O133 O 0.05785 0.88398 0.60828 0.0
O134 O 0.15571 -0.02175 0.47988 0.0
C135 C 0.04352 0.91137 0.69106 0.0
O136 O 0.01465 0.90669 0.35324 0.0
C137 C 0.17924 0.94392 0.49469 0.0
O138 O 0.07532 0.87155 0.31176 0.0
O139 O 0.1606 0.90659 0.48716 0.0
C140 C 0.40127 0.04962 0.73858 0.0
O141 O 0.38307 0.04658 0.84888 0.0
Cd142 Cd 0.45209 0.06884 0.95446 0.0
O143 O 0.4399 0.06532 0.73412 0.0
Cd144 Cd 0.47548 0.08878 0.95053 0.0
C145 C 0.5355 0.03379 0.79946 0.0
O146 O 0.45791 0.04674 0.16321 0.0
O147 O 0.52602 0.05777 0.10828 0.0
O148 O 0.43195 0.15588 0.97983 0.0
C149 C 0.49862 0.0435 0.19106 0.0
O150 O 0.50326 0.01461 0.85321 0.0
C151 C 0.46629 0.17934 -0.00537 0.0
O152 O 0.53848 0.07522 0.81175 0.0
O153 O 0.50358 0.16062 0.98707 0.0
C154 C 0.3604 0.40121 0.23857 0.0
O155 O 0.3635 0.383 0.3489 0.0
Cd156 Cd 0.341 0.45199 0.45437 0.0
O157 O 0.34457 0.4398 0.23404 0.0
Cd158 Cd 0.32101 0.47535 0.45039 0.0
C159 C 0.37583 0.53548 0.29923 0.0
O160 O 0.3631 0.45787 0.66309 0.0
O161 O 0.35191 0.52599 0.60799 0.0
O162 O 0.25402 0.43171 0.4798 0.0
C163 C 0.36625 0.49861 0.69084 0.0
O164 O 0.39507 0.50326 0.35309 0.0
C165 C 0.2305 0.46605 0.4946 0.0
O166 O 0.3344 0.53839 0.31146 0.0
O167 O 0.24914 0.50337 0.48695 0.0
C168 C 0.02541 0.02544 0.12543 0.0
O169 O 0.02261 7e-05 0.02786 0.0
Cd170 Cd -0.0451 -0.00721 0.9104 0.0
O171 O -0.00111 0.05761 0.139 0.0
Cd172 Cd 0.94059 0.09184 0.00402 0.0
C173 C 0.88963 0.01431 0.17617 0.0
O174 O 0.94047 0.05754 0.79354 0.0
O175 O 0.87802 0.0832 0.861 0.0
O176 O -0.02152 0.16109 0.96983 0.0
C177 C 0.89958 0.06348 0.77321 0.0
O178 O 0.90409 -0.01334 0.0939 0.0
C179 C 0.94568 0.18327 0.01065 0.0
O180 O 0.8983 0.05525 0.16761 0.0
O181 O 0.91247 0.16258 0.05434 0.0
C182 C 0.38453 0.02577 0.62531 0.0
O183 O 0.40988 0.02291 0.52776 0.0
Cd184 Cd 0.41705 -0.04483 0.4103 0.0
O185 O 0.35232 -0.00068 0.63886 0.0
Cd186 Cd 0.31802 0.94108 0.50392 0.0
C187 C 0.39547 0.88994 0.67613 0.0
O188 O 0.3523 0.94089 0.29343 0.0
O189 O 0.3266 0.87847 0.36102 0.0
O190 O 0.24874 -0.02102 0.4697 0.0
C191 C 0.34632 0.89999 0.27318 0.0
O192 O 0.42314 0.90432 0.59383 0.0
C193 C 0.22661 0.94617 0.51063 0.0
O194 O 0.35456 0.89871 0.66756 0.0
O195 O 0.24734 0.91296 0.55442 0.0
C196 C 0.38432 0.38453 0.12536 0.0
O197 O 0.3871 0.4099 0.02779 0.0
Cd198 Cd 0.45482 0.4172 0.91046 0.0
O199 O 0.41085 0.35236 0.13899 0.0
Cd200 Cd 0.46917 0.31816 0.00411 0.0
C201 C 0.52009 0.39569 0.17637 0.0
O202 O 0.4693 0.35247 0.79362 0.0
O203 O 0.53175 0.32685 0.8613 0.0
O204 O 0.43129 0.24892 0.96976 0.0
C205 C 0.5102 0.34655 0.77342 0.0
O206 O 0.50563 0.42334 0.09404 0.0
C207 C 0.46409 0.22673 0.01061 0.0
O208 O 0.51143 0.35474 0.16782 0.0
O209 O 0.4973 0.24741 0.05441 0.0
C210 C 0.02523 0.38424 0.62553 0.0
O211 O -0.00012 0.38708 0.52793 0.0
Cd212 Cd -0.00731 0.45481 0.41034 0.0
O213 O 0.05744 0.41069 0.63909 0.0
Cd214 Cd 0.09173 0.46892 0.50407 0.0
C215 C 0.01428 0.52006 0.67611 0.0
O216 O 0.05743 0.4691 0.29355 0.0
O217 O 0.08312 0.53153 0.36113 0.0
O218 O 0.16098 0.431 0.46982 0.0
C219 C 0.0634 0.51 0.27327 0.0
O220 O -0.01338 0.50567 0.59378 0.0
C221 C 0.18314 0.46381 0.51066 0.0
O222 O 0.05519 0.5113 0.66763 0.0
O223 O 0.16243 0.49702 0.55446 0.0
loop_
_geom_bond_atom_site_label_1
_geom_bond_atom_site_label_2
_geom_bond_distance
_geom_bond_site_symmetry_2
_ccdc_geom_bond_type
C0 O1 1.306 . S
C0 O3 1.160 . S
O1 C0 1.306 . S
O1 Cd2 2.228 1_655 S
Cd2 O1 2.228 1_455 S
Cd2 O6 2.273 1_554 S
Cd2 O10 2.277 . S
O3 C0 1.160 . S
O3 Cd4 2.203 1_655 S
Cd4 O3 2.203 1_455 S
Cd4 O6 2.411 1_554 S
Cd4 O7 2.333 1_554 S
Cd4 O8 2.352 1_454 S
Cd4 O12 2.277 . S
Cd4 O13 2.356 . S
C5 O10 1.209 . S
C5 O12 1.226 . S
O6 Cd2 2.273 1_556 S
O6 Cd4 2.411 1_556 S
O6 C9 1.320 . S
O7 Cd4 2.333 1_556 S
O7 C9 1.214 . S
O8 Cd4 2.352 1_656 S
O8 C11 1.258 1_556 S
C9 O6 1.320 . S
C9 O7 1.214 . S
O10 Cd2 2.277 . S
O10 C5 1.209 . S
C11 O8 1.258 1_554 S
C11 O13 1.282 1_655 S
O12 Cd4 2.277 . S
O12 C5 1.226 . S
O13 Cd4 2.356 . S
O13 C11 1.282 1_455 S
C14 O15 1.306 . S
C14 O17 1.160 . S
O15 C14 1.306 . S
O15 Cd16 2.228 1_565 S
Cd16 O15 2.228 1_545 S
Cd16 O20 2.273 . S
Cd16 O24 2.277 . S
O17 C14 1.160 . S
O17 Cd18 2.203 1_565 S
Cd18 O17 2.203 1_545 S
Cd18 O20 2.411 . S
Cd18 O21 2.333 . S
Cd18 O22 2.352 1_545 S
Cd18 O26 2.277 . S
Cd18 O27 2.356 . S
C19 O24 1.209 . S
C19 O26 1.226 . S
O20 Cd16 2.273 . S
O20 Cd18 2.411 . S
O20 C23 1.320 . S
O21 Cd18 2.333 . S
O21 C23 1.214 . S
O22 Cd18 2.352 1_565 S
O22 C25 1.258 . S
C23 O20 1.320 . S
C23 O21 1.214 . S
O24 Cd16 2.277 . S
O24 C19 1.209 . S
C25 O22 1.258 . S
C25 O27 1.282 1_565 S
O26 Cd18 2.277 . S
O26 C19 1.226 . S
O27 Cd18 2.356 . S
O27 C25 1.282 1_545 S
C28 O29 1.306 . S
C28 O31 1.160 . S
O29 C28 1.306 . S
O29 Cd30 2.228 . S
Cd30 O29 2.228 . S
Cd30 O34 2.273 1_554 S
Cd30 O38 2.277 . S
O31 C28 1.160 . S
O31 Cd32 2.203 . S
Cd32 O31 2.203 . S
Cd32 O34 2.411 1_554 S
Cd32 O35 2.333 1_554 S
Cd32 O36 2.352 1_554 S
Cd32 O40 2.277 . S
Cd32 O41 2.356 . S
C33 O38 1.209 . S
C33 O40 1.226 . S
O34 Cd30 2.273 1_556 S
O34 Cd32 2.411 1_556 S
O34 C37 1.320 . S
O35 Cd32 2.333 1_556 S
O35 C37 1.214 . S
O36 Cd32 2.352 1_556 S
O36 C39 1.258 1_556 S
C37 O34 1.320 . S
C37 O35 1.214 . S
O38 Cd30 2.277 . S
O38 C33 1.209 . S
C39 O36 1.258 1_554 S
C39 O41 1.282 . S
O40 Cd32 2.277 . S
O40 C33 1.226 . S
O41 Cd32 2.356 . S
O41 C39 1.282 . S
C42 O43 1.306 . S
C42 O45 1.160 . S
O43 C42 1.306 . S
O43 Cd44 2.228 . S
Cd44 O43 2.228 . S
Cd44 O48 2.273 . S
Cd44 O52 2.277 . S
O45 C42 1.160 . S
O45 Cd46 2.203 . S
Cd46 O45 2.203 . S
Cd46 O48 2.411 . S
Cd46 O49 2.333 . S
Cd46 O50 2.352 . S
Cd46 O54 2.277 . S
Cd46 O55 2.356 . S
C47 O52 1.209 . S
C47 O54 1.226 . S
O48 Cd44 2.273 . S
O48 Cd46 2.411 . S
O48 C51 1.320 . S
O49 Cd46 2.333 . S
O49 C51 1.214 . S
O50 Cd46 2.352 . S
O50 C53 1.258 . S
C51 O48 1.320 . S
C51 O49 1.214 . S
O52 Cd44 2.277 . S
O52 C47 1.209 . S
C53 O50 1.258 . S
C53 O55 1.282 . S
O54 Cd46 2.277 . S
O54 C47 1.226 . S
O55 Cd46 2.356 . S
O55 C53 1.282 . S
C56 O57 1.306 . S
C56 O59 1.160 . S
O57 C56 1.306 . S
O57 Cd58 2.228 1_655 S
Cd58 O57 2.228 1_455 S
Cd58 O62 2.273 1_556 S
Cd58 O66 2.277 . S
O59 C56 1.160 . S
O59 Cd60 2.203 1_655 S
Cd60 O59 2.203 1_455 S
Cd60 O62 2.411 1_556 S
Cd60 O63 2.333 1_556 S
Cd60 O64 2.352 1_456 S
Cd60 O68 2.277 . S
Cd60 O69 2.356 . S
C61 O66 1.209 . S
C61 O68 1.226 . S
O62 Cd58 2.273 1_554 S
O62 Cd60 2.411 1_554 S
O62 C65 1.320 . S
O63 Cd60 2.333 1_554 S
O63 C65 1.214 . S
O64 Cd60 2.352 1_654 S
O64 C67 1.258 1_554 S
C65 O62 1.320 . S
C65 O63 1.214 . S
O66 Cd58 2.277 . S
O66 C61 1.209 . S
C67 O64 1.258 1_556 S
C67 O69 1.282 1_655 S
O68 Cd60 2.277 . S
O68 C61 1.226 . S
O69 Cd60 2.356 . S
O69 C67 1.282 1_455 S
C70 O71 1.306 . S
C70 O73 1.160 . S
O71 C70 1.306 . S
O71 Cd72 2.228 1_565 S
Cd72 O71 2.228 1_545 S
Cd72 O76 2.273 . S
Cd72 O80 2.277 . S
O73 C70 1.160 . S
O73 Cd74 2.203 1_565 S
Cd74 O73 2.203 1_545 S
Cd74 O76 2.411 . S
Cd74 O77 2.333 . S
Cd74 O78 2.352 1_545 S
Cd74 O82 2.277 . S
Cd74 O83 2.356 . S
C75 O80 1.209 . S
C75 O82 1.226 . S
O76 Cd72 2.273 . S
O76 Cd74 2.411 . S
O76 C79 1.320 . S
O77 Cd74 2.333 . S
O77 C79 1.214 . S
O78 Cd74 2.352 1_565 S
O78 C81 1.258 . S
C79 O76 1.320 . S
C79 O77 1.214 . S
O80 Cd72 2.277 . S
O80 C75 1.209 . S
C81 O78 1.258 . S
C81 O83 1.282 1_565 S
O82 Cd74 2.277 . S
O82 C75 1.226 . S
O83 Cd74 2.356 . S
O83 C81 1.282 1_545 S
C84 O85 1.306 . S
C84 O87 1.160 . S
O85 C84 1.306 . S
O85 Cd86 2.228 . S
Cd86 O85 2.228 . S
Cd86 O90 2.273 1_556 S
Cd86 O94 2.277 . S
O87 C84 1.160 . S
O87 Cd88 2.203 . S
Cd88 O87 2.203 . S
Cd88 O90 2.411 1_556 S
Cd88 O91 2.333 1_556 S
Cd88 O92 2.352 1_556 S
Cd88 O96 2.277 . S
Cd88 O97 2.356 . S
C89 O94 1.209 . S
C89 O96 1.226 . S
O90 Cd86 2.273 1_554 S
O90 Cd88 2.411 1_554 S
O90 C93 1.320 . S
O91 Cd88 2.333 1_554 S
O91 C93 1.214 . S
O92 Cd88 2.352 1_554 S
O92 C95 1.258 1_554 S
C93 O90 1.320 . S
C93 O91 1.214 . S
O94 Cd86 2.277 . S
O94 C89 1.209 . S
C95 O92 1.258 1_556 S
C95 O97 1.282 . S
O96 Cd88 2.277 . S
O96 C89 1.226 . S
O97 Cd88 2.356 . S
O97 C95 1.282 . S
C98 O99 1.306 . S
C98 O101 1.160 . S
O99 C98 1.306 . S
O99 Cd100 2.228 . S
Cd100 O99 2.228 . S
Cd100 O104 2.273 . S
Cd100 O108 2.277 . S
O101 C98 1.160 . S
O101 Cd102 2.203 . S
Cd102 O101 2.203 . S
Cd102 O104 2.411 . S
Cd102 O105 2.333 . S
Cd102 O106 2.352 . S
Cd102 O110 2.277 . S
Cd102 O111 2.356 . S
C103 O108 1.209 . S
C103 O110 1.226 . S
O104 Cd100 2.273 . S
O104 Cd102 2.411 . S
O104 C107 1.320 . S
O105 Cd102 2.333 . S
O105 C107 1.214 . S
O106 Cd102 2.352 . S
O106 C109 1.258 . S
C107 O104 1.320 . S
C107 O105 1.214 . S
O108 Cd100 2.277 . S
O108 C103 1.209 . S
C109 O106 1.258 . S
C109 O111 1.282 . S
O110 Cd102 2.277 . S
O110 C103 1.226 . S
O111 Cd102 2.356 . S
O111 C109 1.282 . S
C112 O113 1.306 . S
C112 O115 1.160 . S
O113 C112 1.306 . S
O113 Cd114 2.228 1_455 S
Cd114 O113 2.228 1_655 S
Cd114 O118 2.273 1_556 S
Cd114 O122 2.277 . S
O115 C112 1.160 . S
O115 Cd116 2.203 1_455 S
Cd116 O115 2.203 1_655 S
Cd116 O118 2.411 1_556 S
Cd116 O119 2.333 1_556 S
Cd116 O120 2.352 1_656 S
Cd116 O124 2.277 . S
Cd116 O125 2.356 . S
C117 O122 1.209 . S
C117 O124 1.226 . S
O118 Cd114 2.273 1_554 S
O118 Cd116 2.411 1_554 S
O118 C121 1.320 . S
O119 Cd116 2.333 1_554 S
O119 C121 1.214 . S
O120 Cd116 2.352 1_454 S
O120 C123 1.258 1_554 S
C121 O118 1.320 . S
C121 O119 1.214 . S
O122 Cd114 2.277 . S
O122 C117 1.209 . S
C123 O120 1.258 1_556 S
C123 O125 1.282 1_455 S
O124 Cd116 2.277 . S
O124 C117 1.226 . S
O125 Cd116 2.356 . S
O125 C123 1.282 1_655 S
C126 O127 1.306 . S
C126 O129 1.160 . S
O127 C126 1.306 . S
O127 Cd128 2.228 1_545 S
Cd128 O127 2.228 1_565 S
Cd128 O132 2.273 . S
Cd128 O136 2.277 . S
O129 C126 1.160 . S
O129 Cd130 2.203 1_545 S
Cd130 O129 2.203 1_565 S
Cd130 O132 2.411 . S
Cd130 O133 2.333 . S
Cd130 O134 2.352 1_565 S
Cd130 O138 2.277 . S
Cd130 O139 2.356 . S
C131 O136 1.209 . S
C131 O138 1.226 . S
O132 Cd128 2.273 . S
O132 Cd130 2.411 . S
O132 C135 1.320 . S
O133 Cd130 2.333 . S
O133 C135 1.214 . S
O134 Cd130 2.352 1_545 S
O134 C137 1.258 . S
C135 O132 1.320 . S
C135 O133 1.214 . S
O136 Cd128 2.277 . S
O136 C131 1.209 . S
C137 O134 1.258 . S
C137 O139 1.282 1_545 S
O138 Cd130 2.277 . S
O138 C131 1.226 . S
O139 Cd130 2.356 . S
O139 C137 1.282 1_565 S
C140 O141 1.306 . S
C140 O143 1.160 . S
O141 C140 1.306 . S
O141 Cd142 2.228 . S
Cd142 O141 2.228 . S
Cd142 O146 2.273 1_556 S
Cd142 O150 2.277 . S
O143 C140 1.160 . S
O143 Cd144 2.203 . S
Cd144 O143 2.203 . S
Cd144 O146 2.411 1_556 S
Cd144 O147 2.333 1_556 S
Cd144 O148 2.352 1_556 S
Cd144 O152 2.277 . S
Cd144 O153 2.356 . S
C145 O150 1.209 . S
C145 O152 1.226 . S
O146 Cd142 2.273 1_554 S
O146 Cd144 2.411 1_554 S
O146 C149 1.320 . S
O147 Cd144 2.333 1_554 S
O147 C149 1.214 . S
O148 Cd144 2.352 1_554 S
O148 C151 1.258 1_554 S
C149 O146 1.320 . S
C149 O147 1.214 . S
O150 Cd142 2.277 . S
O150 C145 1.209 . S
C151 O148 1.258 1_556 S
C151 O153 1.282 . S
O152 Cd144 2.277 . S
O152 C145 1.226 . S
O153 Cd144 2.356 . S
O153 C151 1.282 . S
C154 O155 1.306 . S
C154 O157 1.160 . S
O155 C154 1.306 . S
O155 Cd156 2.228 . S
Cd156 O155 2.228 . S
Cd156 O160 2.273 . S
Cd156 O164 2.277 . S
O157 C154 1.160 . S
O157 Cd158 2.203 . S
Cd158 O157 2.203 . S
Cd158 O160 2.411 . S
Cd158 O161 2.333 . S
Cd158 O162 2.352 . S
Cd158 O166 2.277 . S
Cd158 O167 2.356 . S
C159 O164 1.209 . S
C159 O166 1.226 . S
O160 Cd156 2.273 . S
O160 Cd158 2.411 . S
O160 C163 1.320 . S
O161 Cd158 2.333 . S
O161 C163 1.214 . S
O162 Cd158 2.352 . S
O162 C165 1.258 . S
C163 O160 1.320 . S
C163 O161 1.214 . S
O164 Cd156 2.277 . S
O164 C159 1.209 . S
C165 O162 1.258 . S
C165 O167 1.282 . S
O166 Cd158 2.277 . S
O166 C159 1.226 . S
O167 Cd158 2.356 . S
O167 C165 1.282 . S
C168 O169 1.306 . S
C168 O171 1.160 . S
O169 C168 1.306 . S
O169 Cd170 2.228 1_455 S
Cd170 O169 2.228 1_655 S
Cd170 O174 2.273 1_554 S
Cd170 O178 2.277 . S
O171 C168 1.160 . S
O171 Cd172 2.203 1_455 S
Cd172 O171 2.203 1_655 S
Cd172 O174 2.411 1_554 S
Cd172 O175 2.333 1_554 S
Cd172 O176 2.352 1_654 S
Cd172 O180 2.277 . S
Cd172 O181 2.356 . S
C173 O178 1.209 . S
C173 O180 1.226 . S
O174 Cd170 2.273 1_556 S
O174 Cd172 2.411 1_556 S
O174 C177 1.320 . S
O175 Cd172 2.333 1_556 S
O175 C177 1.214 . S
O176 Cd172 2.352 1_456 S
O176 C179 1.258 1_556 S
C177 O174 1.320 . S
C177 O175 1.214 . S
O178 Cd170 2.277 . S
O178 C173 1.209 . S
C179 O176 1.258 1_554 S
C179 O181 1.282 1_455 S
O180 Cd172 2.277 . S
O180 C173 1.226 . S
O181 Cd172 2.356 . S
O181 C179 1.282 1_655 S
C182 O183 1.306 . S
C182 O185 1.160 . S
O183 C182 1.306 . S
O183 Cd184 2.228 1_545 S
Cd184 O183 2.228 1_565 S
Cd184 O188 2.273 . S
Cd184 O192 2.277 . S
O185 C182 1.160 . S
O185 Cd186 2.203 1_545 S
Cd186 O185 2.203 1_565 S
Cd186 O188 2.411 . S
Cd186 O189 2.333 . S
Cd186 O190 2.352 1_565 S
Cd186 O194 2.277 . S
Cd186 O195 2.356 . S
C187 O192 1.209 . S
C187 O194 1.226 . S
O188 Cd184 2.273 . S
O188 Cd186 2.411 . S
O188 C191 1.320 . S
O189 Cd186 2.333 . S
O189 C191 1.214 . S
O190 Cd186 2.352 1_545 S
O190 C193 1.258 . S
C191 O188 1.320 . S
C191 O189 1.214 . S
O192 Cd184 2.277 . S
O192 C187 1.209 . S
C193 O190 1.258 . S
C193 O195 1.282 1_545 S
O194 Cd186 2.277 . S
O194 C187 1.226 . S
O195 Cd186 2.356 . S
O195 C193 1.282 1_565 S
C196 O197 1.306 . S
C196 O199 1.160 . S
O197 C196 1.306 . S
O197 Cd198 2.228 . S
Cd198 O197 2.228 . S
Cd198 O202 2.273 1_554 S
Cd198 O206 2.277 . S
O199 C196 1.160 . S
O199 Cd200 2.203 . S
Cd200 O199 2.203 . S
Cd200 O202 2.411 1_554 S
Cd200 O203 2.333 1_554 S
Cd200 O204 2.352 1_554 S
Cd200 O208 2.277 . S
Cd200 O209 2.356 . S
C201 O206 1.209 . S
C201 O208 1.226 . S
O202 Cd198 2.273 1_556 S
O202 Cd200 2.411 1_556 S
O202 C205 1.320 . S
O203 Cd200 2.333 1_556 S
O203 C205 1.214 . S
O204 Cd200 2.352 1_556 S
O204 C207 1.258 1_556 S
C205 O202 1.320 . S
C205 O203 1.214 . S
O206 Cd198 2.277 . S
O206 C201 1.209 . S
C207 O204 1.258 1_554 S
C207 O209 1.282 . S
O208 Cd200 2.277 . S
O208 C201 1.226 . S
O209 Cd200 2.356 . S
O209 C207 1.282 . S
C210 O211 1.306 . S
C210 O213 1.160 . S
O211 C210 1.306 . S
O211 Cd212 2.228 . S
Cd212 O211 2.228 . S
Cd212 O216 2.273 . S
Cd212 O220 2.277 . S
O213 C210 1.160 . S
O213 Cd214 2.203 . S
Cd214 O213 2.203 . S
Cd214 O216 2.411 . S
Cd214 O217 2.333 . S
Cd214 O218 2.352 . S
Cd214 O222 2.277 . S
Cd214 O223 2.356 . S
C215 O220 1.209 . S
C215 O222 1.226 . S
O216 Cd212 2.273 . S
O216 Cd214 2.411 . S
O216 C219 1.320 . S
O217 Cd214 2.333 . S
O217 C219 1.214 . S
O218 Cd214 2.352 . S
O218 C221 1.258 . S
C219 O216 1.320 . S
C219 O217 1.214 . S
O220 Cd212 2.277 . S
O220 C215 1.209 . S
C221 O218 1.258 . S
C221 O223 1.282 . S
O222 Cd214 2.277 . S
O222 C215 1.226 . S
O223 Cd214 2.356 . S
O223 C221 1.282 . S
C11 C67 1.211 1_554 S
C81 C25 1.211 . S
C39 C95 1.211 1_554 S
C53 C109 1.211 . S
C123 C179 1.211 1_556 S
C193 C137 1.211 . S
C151 C207 1.211 1_556 S
C165 C221 1.211 . S
C9 C215 1.518 . S
C173 C23 1.518 . S
C37 C187 1.518 . S
C201 C51 1.517 . S
C131 C65 1.518 . S
C145 C79 1.517 . S
C159 C93 1.518 . S
C117 C107 1.518 . S
C121 C103 1.518 . S
C61 C135 1.518 . S
C75 C149 1.518 . S
C163 C89 1.518 . S
C19 C177 1.518 . S
C191 C33 1.518 . S
C205 C47 1.518 . S
C219 C5 1.518 . S
C98 C0 1.178 . S
C14 C56 1.178 . S
C28 C70 1.178 . S
C42 C84 1.178 . S
C210 C112 1.178 . S
C168 C126 1.178 . S
C182 C140 1.178 . S
C196 C154 1.178 . S
