# Generated by pormake.
# Topology umb, (4)-cn, num edge types: 1
# Building blocks:
#     Node 0, Type 0, BuildingBlock: QUQFOY_clean_sbu_1, # of connection points: 4
#     Node 1, Type 0, BuildingBlock: QUQFOY_clean_sbu_1, # of connection points: 4
#     Node 2, Type 0, BuildingBlock: QUQFOY_clean_sbu_1, # of connection points: 4
#     Node 3, Type 0, BuildingBlock: QUQFOY_clean_sbu_1, # of connection points: 4
#     Node 4, Type 0, BuildingBlock: QUQFOY_clean_sbu_1, # of connection points: 4
#     Node 5, Type 0, BuildingBlock: QUQFOY_clean_sbu_1, # of connection points: 4
#     Node 6, Type 0, BuildingBlock: QUQFOY_clean_sbu_1, # of connection points: 4
#     Node 7, Type 0, BuildingBlock: QUQFOY_clean_sbu_1, # of connection points: 4
#     Node 8, Type 0, BuildingBlock: QUQFOY_clean_sbu_1, # of connection points: 4
#     Node 9, Type 0, BuildingBlock: QUQFOY_clean_sbu_1, # of connection points: 4
#     Node 10, Type 0, BuildingBlock: QUQFOY_clean_sbu_1, # of connection points: 4
#     Node 11, Type 0, BuildingBlock: QUQFOY_clean_sbu_1, # of connection points: 4
#     Edge 12, Type (0, 0), BuildingBlock: CIFDUS_clean_linker_0, # of connection points: 2
#     Edge 13, Type (0, 0), BuildingBlock: CIFDUS_clean_linker_0, # of connection points: 2
#     Edge 14, Type (0, 0), BuildingBlock: CIFDUS_clean_linker_0, # of connection points: 2
#     Edge 15, Type (0, 0), BuildingBlock: CIFDUS_clean_linker_0, # of connection points: 2
#     Edge 16, Type (0, 0), BuildingBlock: CIFDUS_clean_linker_0, # of connection points: 2
#     Edge 17, Type (0, 0), BuildingBlock: CIFDUS_clean_linker_0, # of connection points: 2
#     Edge 18, Type (0, 0), BuildingBlock: CIFDUS_clean_linker_0, # of connection points: 2
#     Edge 19, Type (0, 0), BuildingBlock: CIFDUS_clean_linker_0, # of connection points: 2
#     Edge 20, Type (0, 0), BuildingBlock: CIFDUS_clean_linker_0, # of connection points: 2
#     Edge 21, Type (0, 0), BuildingBlock: CIFDUS_clean_linker_0, # of connection points: 2
#     Edge 22, Type (0, 0), BuildingBlock: CIFDUS_clean_linker_0, # of connection points: 2
#     Edge 23, Type (0, 0), BuildingBlock: CIFDUS_clean_linker_0, # of connection points: 2
#     Edge 24, Type (0, 0), BuildingBlock: CIFDUS_clean_linker_0, # of connection points: 2
#     Edge 25, Type (0, 0), BuildingBlock: CIFDUS_clean_linker_0, # of connection points: 2
#     Edge 26, Type (0, 0), BuildingBlock: CIFDUS_clean_linker_0, # of connection points: 2
#     Edge 27, Type (0, 0), BuildingBlock: CIFDUS_clean_linker_0, # of connection points: 2
#     Edge 28, Type (0, 0), BuildingBlock: CIFDUS_clean_linker_0, # of connection points: 2
#     Edge 29, Type (0, 0), BuildingBlock: CIFDUS_clean_linker_0, # of connection points: 2
#     Edge 30, Type (0, 0), BuildingBlock: CIFDUS_clean_linker_0, # of connection points: 2
#     Edge 31, Type (0, 0), BuildingBlock: CIFDUS_clean_linker_0, # of connection points: 2
#     Edge 32, Type (0, 0), BuildingBlock: CIFDUS_clean_linker_0, # of connection points: 2
#     Edge 33, Type (0, 0), BuildingBlock: CIFDUS_clean_linker_0, # of connection points: 2
#     Edge 34, Type (0, 0), BuildingBlock: CIFDUS_clean_linker_0, # of connection points: 2
#     Edge 35, Type (0, 0), BuildingBlock: CIFDUS_clean_linker_0, # of connection points: 2
# Relax obj value: 0.092
# Max RMSD: 0.161
# Mean RMSD: 0.161
data_MOF--net-umb--node1-QUQFOY_clean_sbu_1--edge1-CIFDUS_clean_linker_0
_symmetry_space_group_name_H-M    P1
_symmetry_Int_Tables_number       1
_symmetry_cell_setting            triclinic
loop_
_symmetry_equiv_pos_as_xyz
'x, y, z'
_cell_length_a     45.896113
_cell_length_b     45.786286
_cell_length_c     34.327203
_cell_angle_alpha  89.818519
_cell_angle_beta   90.24528
_cell_angle_gamma 120.11698
loop_
_atom_site_label
_atom_site_type_symbol
_atom_site_fract_x
_atom_site_fract_y
_atom_site_fract_z
_atom_type_partial_charge
O0 O 0.56424 0.16344 0.40079 0.0
Cd1 Cd 0.5665 0.15441 0.34228 0.0
Cd2 Cd 0.5563 0.20917 0.34261 0.0
O3 O 0.53747 0.19232 0.39913 0.0
O4 O 0.57265 0.1144 0.34487 0.0
O5 O 0.52852 0.1129 0.31697 0.0
C6 C 0.54437 0.09741 0.32703 0.0
C7 C 0.53681 0.22852 0.28996 0.0
C8 C 0.54989 0.17713 0.41849 0.0
C9 C 0.62498 0.21703 0.33037 0.0
O10 O 0.60741 0.2289 0.34411 0.0
O11 O 0.61072 0.18759 0.31621 0.0
O12 O 0.54837 0.24602 0.32152 0.0
O13 O 0.53378 0.19883 0.28958 0.0
O14 O 0.4587 0.6132 0.71512 0.0
Cd15 Cd 0.46712 0.61909 0.65619 0.0
Cd16 Cd 0.39892 0.59857 0.65691 0.0
O17 O 0.40296 0.58489 0.71494 0.0
O18 O 0.50917 0.61775 0.64779 0.0
O19 O 0.45966 0.57957 0.62371 0.0
C20 C 0.49134 0.59008 0.62875 0.0
C21 C 0.35022 0.57337 0.61567 0.0
C22 C 0.43102 0.59768 0.73346 0.0
C23 C 0.45391 0.67259 0.64151 0.0
O24 O 0.4241 0.6501 0.65053 0.0
O25 O 0.47685 0.66525 0.63714 0.0
O26 O 0.35052 0.587 0.64856 0.0
O27 O 0.37655 0.57131 0.60739 0.0
O28 O 0.81274 0.37472 0.08089 0.0
Cd29 Cd 0.82183 0.38018 1.02166 0.0
Cd30 Cd 0.76312 0.3226 1.02311 0.0
O31 O 0.77483 0.32035 0.0823 0.0
O32 O 0.86833 0.41919 1.01803 0.0
O33 O 0.85431 0.36847 0.99609 0.0
C34 C 0.87705 0.39967 1.00129 0.0
C35 C 0.74664 0.28492 0.96989 0.0
C36 C 0.79387 0.34809 0.10019 0.0
C37 C 0.76501 0.38672 1.00045 0.0
O38 O 0.74828 0.35767 1.01582 0.0
O39 O 0.79604 0.39938 0.99336 0.0
O40 O 0.72653 0.27928 0.99885 0.0
O41 O 0.77721 0.3099 0.9732 0.0
O42 O 0.40412 0.82081 0.40125 0.0
Cd43 Cd 0.41194 0.83902 0.34494 0.0
Cd44 Cd 0.41811 0.77995 0.33591 0.0
O45 O 0.42046 0.7828 0.39775 0.0
O46 O 0.40899 0.88054 0.35148 0.0
O47 O 0.45382 0.8815 0.32708 0.0
C48 C 0.43842 0.89753 0.33637 0.0
C49 C 0.44545 0.76021 0.29322 0.0
C50 C 0.40964 0.79909 0.41758 0.0
C51 C 0.35651 0.78217 0.30523 0.0
O52 O 0.37051 0.76549 0.3157 0.0
O53 O 0.37112 0.81376 0.30994 0.0
O54 O 0.42392 0.74088 0.31892 0.0
O55 O 0.4539 0.79171 0.29385 0.0
O56 O 0.57086 0.43014 0.73734 0.0
Cd57 Cd 0.56445 0.42276 0.67787 0.0
Cd58 Cd 0.6264 0.43485 0.68568 0.0
O59 O 0.62639 0.45688 0.73932 0.0
O60 O 0.5236 0.42554 0.66569 0.0
O61 O 0.57391 0.46123 0.64177 0.0
C62 C 0.54234 0.45178 0.64484 0.0
C63 C 0.66787 0.45174 0.63634 0.0
C64 C 0.59814 0.44573 0.75668 0.0
C65 C 0.56858 0.36344 0.67861 0.0
O66 O 0.59792 0.38355 0.69157 0.0
O67 O 0.55139 0.37473 0.66237 0.0
O68 O 0.6728 0.44399 0.671 0.0
O69 O 0.64051 0.45271 0.63046 0.0
O70 O 0.13454 0.54548 0.07047 0.0
Cd71 Cd 0.12893 0.53476 1.01194 0.0
Cd72 Cd 0.16227 0.60215 1.00796 0.0
O73 O 0.14709 0.59875 0.06675 0.0
O74 O 0.08685 0.49101 1.00423 0.0
O75 O 0.0943 0.54013 0.9828 0.0
C76 C 0.07471 0.50795 0.98754 0.0
C77 C 0.17448 0.6426 0.95805 0.0
C78 C 0.14046 0.57265 0.08719 0.0
C79 C 0.19705 0.56157 0.99182 0.0
O80 O 0.19768 0.5883 1.00281 0.0
O81 O 0.16927 0.53433 0.98764 0.0
O82 O 0.18968 0.65099 0.99131 0.0
O83 O 0.14911 0.61228 0.95493 0.0
O84 O 0.82392 0.39461 0.34174 0.0
Cd85 Cd 0.83706 0.39835 0.39977 0.0
Cd86 Cd 0.78035 0.40742 0.40472 0.0
O87 O 0.78763 0.41313 0.3435 0.0
O88 O 0.88135 0.40046 0.39932 0.0
O89 O 0.87433 0.44103 0.42398 0.0
C90 C 0.89401 0.42921 0.41653 0.0
C91 C 0.75696 0.43245 0.44566 0.0
C92 C 0.80428 0.4024 0.32427 0.0
C93 C 0.77734 0.3418 0.43192 0.0
O94 O 0.76319 0.35846 0.42194 0.0
O95 O 0.80888 0.35458 0.42932 0.0
O96 O 0.74022 0.41282 0.41718 0.0
O97 O 0.78815 0.44047 0.44905 0.0
O98 O 0.37042 0.80254 0.65752 0.0
Cd99 Cd 0.37594 0.81685 0.71556 0.0
Cd100 Cd 0.31533 0.75327 0.71361 0.0
O101 O 0.31594 0.76505 0.6539 0.0
O102 O 0.42079 0.85874 0.71444 0.0
O103 O 0.37464 0.85854 0.73245 0.0
C104 C 0.40676 0.87513 0.7268 0.0
C105 C 0.2703 0.72786 0.75899 0.0
C106 C 0.34448 0.7833 0.63731 0.0
C107 C 0.3805 0.76083 0.7421 0.0
O108 O 0.35332 0.7429 0.72342 0.0
O109 O 0.38759 0.78985 0.75355 0.0
O110 O 0.27223 0.71141 0.72955 0.0
O111 O 0.2926 0.75962 0.76119 0.0
O112 O 0.58074 0.44135 1.00498 0.0
Cd113 Cd 0.58684 0.44906 0.0644 0.0
Cd114 Cd 0.56335 0.38324 0.06027 0.0
O115 O 0.54565 0.38629 1.00458 0.0
O116 O 0.59216 0.49446 0.07219 0.0
O117 O 0.54939 0.4477 0.09612 0.0
C118 C 0.56411 0.47998 0.09094 0.0
C119 C 0.53984 0.34573 0.11357 0.0
C120 C 0.56178 0.41438 0.98627 0.0
C121 C 0.6376 0.4318 0.07151 0.0
O122 O 0.61437 0.40391 0.05817 0.0
O123 O 0.63112 0.45384 0.08421 0.0
O124 O 0.54613 0.33592 0.081 0.0
O125 O 0.54352 0.37568 0.1144 0.0
O126 O 0.14622 0.57072 0.33591 0.0
Cd127 Cd 0.1443 0.57988 0.3943 0.0
Cd128 Cd 0.19837 0.56837 0.39032 0.0
O129 O 0.1768 0.54574 0.33647 0.0
O130 O 0.10173 0.58131 0.39741 0.0
O131 O 0.10924 0.5433 0.42853 0.0
C132 C 0.08976 0.55505 0.41939 0.0
C133 C 0.2298 0.55489 0.4353 0.0
C134 C 0.15896 0.55558 0.31796 0.0
C135 C 0.20778 0.63934 0.39485 0.0
O136 O 0.21789 0.61931 0.38449 0.0
O137 O 0.17879 0.6282 0.40935 0.0
O138 O 0.23978 0.56429 0.40005 0.0
O139 O 0.20059 0.55053 0.44444 0.0
O140 O 0.5448 0.14616 0.66323 0.0
Cd141 Cd 0.53009 0.13265 0.71994 0.0
Cd142 Cd 0.59867 0.17985 0.73067 0.0
O143 O 0.6003 0.17295 0.6697 0.0
O144 O 0.48427 0.09238 0.71519 0.0
O145 O 0.52697 0.09077 0.74309 0.0
C146 C 0.49577 0.07515 0.73226 0.0
C147 C 0.63693 0.18807 0.78182 0.0
C148 C 0.57396 0.16125 0.64807 0.0
C149 C 0.54429 0.19655 0.75263 0.0
O150 O 0.57462 0.20595 0.744 0.0
O151 O 0.52123 0.16607 0.74896 0.0
O152 O 0.6451 0.20972 0.75389 0.0
O153 O 0.60876 0.15993 0.77823 0.0
O154 O 0.44308 0.60097 0.98201 0.0
Cd155 Cd 0.43277 0.59428 0.04058 0.0
Cd156 Cd 0.45942 0.65931 0.03639 0.0
O157 O 0.47956 0.65565 0.98262 0.0
O158 O 0.42513 0.54849 0.05273 0.0
O159 O 0.46697 0.59527 0.07806 0.0
C160 C 0.45174 0.56282 0.07429 0.0
C161 C 0.47917 0.69377 0.09235 0.0
C162 C 0.46363 0.62772 0.96398 0.0
C163 C 0.38467 0.61631 0.03921 0.0
O164 O 0.40992 0.64382 0.02822 0.0
O165 O 0.38866 0.59286 0.05322 0.0
O166 O 0.47875 0.70616 0.05857 0.0
O167 O 0.47238 0.66271 0.09347 0.0
H168 H 0.59718 0.1762 0.46526 0.0
H169 H 0.50384 0.17734 0.46952 0.0
H170 H 0.50352 0.17268 0.54083 0.0
H171 H 0.52879 0.16629 0.6015 0.0
H172 H 0.62383 0.16853 0.59766 0.0
H173 H 0.62459 0.17402 0.52642 0.0
C174 C 0.5767 0.17541 0.48177 0.0
C175 C 0.55021 0.1766 0.46194 0.0
C176 C 0.57704 0.17329 0.52273 0.0
C177 C 0.52438 0.17635 0.48391 0.0
C178 C 0.52419 0.17358 0.52467 0.0
C179 C 0.54972 0.16793 0.58513 0.0
C180 C 0.57604 0.16646 0.60499 0.0
C181 C 0.5502 0.17167 0.54432 0.0
C182 C 0.60325 0.16943 0.58326 0.0
C183 C 0.60359 0.17249 0.54251 0.0
H184 H 0.48204 0.64195 0.78033 0.0
H185 H 0.38297 0.55348 0.78459 0.0
H186 H 0.3857 0.55424 0.85596 0.0
H187 H 0.41555 0.58066 0.91682 0.0
H188 H 0.51272 0.67168 0.91307 0.0
H189 H 0.51149 0.66922 0.84157 0.0
C190 C 0.46109 0.62261 0.79681 0.0
C191 C 0.43238 0.59737 0.77693 0.0
C192 C 0.46255 0.62373 0.83786 0.0
C193 C 0.40531 0.57304 0.79894 0.0
C194 C 0.40692 0.5735 0.83978 0.0
C195 C 0.43675 0.59986 0.90051 0.0
C196 C 0.46452 0.62615 0.92055 0.0
C197 C 0.43536 0.59877 0.85951 0.0
C198 C 0.49122 0.65111 0.89862 0.0
C199 C 0.49044 0.64969 0.85771 0.0
H200 H 0.79892 0.34863 0.28503 0.0
H201 H 0.79829 0.44158 0.26749 0.0
H202 H 0.79475 0.43254 0.19671 0.0
H203 H 0.79436 0.39934 0.13978 0.0
H204 H 0.79012 0.30403 0.15741 0.0
H205 H 0.79279 0.31262 0.22829 0.0
C206 C 0.79792 0.36689 0.26567 0.0
C207 C 0.79941 0.3961 0.2815 0.0
C208 C 0.79507 0.36103 0.22512 0.0
C209 C 0.79733 0.41907 0.25612 0.0
C210 C 0.79541 0.4139 0.21566 0.0
C211 C 0.79392 0.38037 0.15917 0.0
C212 C 0.79255 0.35124 0.14329 0.0
C213 C 0.79468 0.38519 0.19982 0.0
C214 C 0.79126 0.32661 0.1688 0.0
C215 C 0.79292 0.33164 0.20931 0.0
H216 H 0.35311 0.79031 0.45278 0.0
H217 H 0.44592 0.79143 0.47672 0.0
H218 H 0.43329 0.78584 0.54677 0.0
H219 H 0.39745 0.78437 0.60133 0.0
H220 H 0.30243 0.77849 0.57713 0.0
H221 H 0.3141 0.78199 0.50694 0.0
C222 C 0.37046 0.78906 0.47336 0.0
C223 C 0.40071 0.79173 0.4596 0.0
C224 C 0.36261 0.78514 0.51345 0.0
C225 C 0.4226 0.78948 0.4865 0.0
C226 C 0.41539 0.78644 0.52655 0.0
C227 C 0.37913 0.78354 0.58067 0.0
C228 C 0.34921 0.78157 0.59454 0.0
C229 C 0.38575 0.78482 0.54039 0.0
C230 C 0.32556 0.78002 0.56734 0.0
C231 C 0.33235 0.78218 0.52721 0.0
H232 H 0.61098 0.46173 0.94043 0.0
H233 H 0.514 0.37065 0.93415 0.0
H234 H 0.5162 0.37384 0.86274 0.0
H235 H 0.54631 0.40175 0.80232 0.0
H236 H 0.64532 0.49013 0.80875 0.0
H237 H 0.64166 0.48883 0.8801 0.0
C238 C 0.59009 0.44267 0.92353 0.0
C239 C 0.56207 0.41613 0.94282 0.0
C240 C 0.592 0.44422 0.88254 0.0
C241 C 0.53572 0.39136 0.92024 0.0
C242 C 0.53702 0.39322 0.87939 0.0
C243 C 0.56701 0.42102 0.81925 0.0
C244 C 0.59595 0.44638 0.80002 0.0
C245 C 0.56508 0.41947 0.86025 0.0
C246 C 0.62275 0.47054 0.82262 0.0
C247 C 0.62063 0.46974 0.86344 0.0
H248 H 0.14607 0.595 0.26996 0.0
H249 H 0.16479 0.51158 0.26825 0.0
H250 H 0.1595 0.50912 0.19699 0.0
H251 H 0.15017 0.53107 0.13542 0.0
H252 H 0.13521 0.6169 0.13695 0.0
H253 H 0.13844 0.61802 0.20833 0.0
C254 C 0.14873 0.57601 0.25412 0.0
C255 C 0.15538 0.55312 0.27467 0.0
C256 C 0.14641 0.5753 0.21317 0.0
C257 C 0.1595 0.52932 0.25338 0.0
C258 C 0.15647 0.52795 0.21262 0.0
C259 C 0.14736 0.54994 0.15129 0.0
C260 C 0.14203 0.5737 0.13066 0.0
C261 C 0.14997 0.55084 0.19223 0.0
C262 C 0.13916 0.59829 0.15189 0.0
C263 C 0.141 0.59889 0.19273 0.0
H264 H 0.77576 0.30276 0.37469 0.0
H265 H 0.72941 0.30124 0.48403 0.0
H266 H 0.67607 0.25369 0.46163 0.0
H267 H 0.6404 0.22659 0.40519 0.0
H268 H 0.68432 0.23618 0.29182 0.0
H269 H 0.74106 0.26725 0.3207 0.0
C270 C 0.75438 0.29059 0.39427 0.0
C271 C 0.756 0.30527 0.4307 0.0
C272 C 0.72312 0.26626 0.3794 0.0
C273 C 0.72846 0.29 0.45599 0.0
C274 C 0.69786 0.26346 0.44275 0.0
C275 C 0.66253 0.23517 0.38696 0.0
C276 C 0.65882 0.23068 0.34646 0.0
C277 C 0.69443 0.25369 0.40353 0.0
C278 C 0.68707 0.24043 0.32298 0.0
C279 C 0.71928 0.25795 0.33954 0.0
H280 H 0.40593 0.76899 0.67153 0.0
H281 H 0.41731 0.74226 0.78871 0.0
H282 H 0.45576 0.72339 0.76534 0.0
H283 H 0.47281 0.70158 0.7102 0.0
H284 H 0.45006 0.71772 0.59306 0.0
H285 H 0.43148 0.7559 0.6171 0.0
C286 C 0.41759 0.75976 0.69194 0.0
C287 C 0.40857 0.75606 0.73142 0.0
C288 C 0.43796 0.74759 0.67798 0.0
C289 C 0.42379 0.74469 0.7581 0.0
C290 C 0.44566 0.73399 0.74468 0.0
C291 C 0.46557 0.71512 0.68994 0.0
C292 C 0.46262 0.70713 0.6501 0.0
C293 C 0.45127 0.73357 0.70445 0.0
C294 C 0.45276 0.72397 0.62378 0.0
C295 C 0.4414 0.74508 0.63769 0.0
H296 H 0.66232 0.43507 1.0014 0.0
H297 H 0.68843 0.44581 0.12324 0.0
H298 H 0.73806 0.44077 0.10856 0.0
H299 H 0.76449 0.41956 0.0633 0.0
H300 H 0.73259 0.40076 0.94333 0.0
H301 H 0.69485 0.42336 0.95432 0.0
C302 C 0.67969 0.43748 0.02444 0.0
C303 C 0.67208 0.44038 0.06324 0.0
C304 C 0.70662 0.43263 1.01592 0.0
C305 C 0.69423 0.44362 0.09321 0.0
C306 C 0.72224 0.44037 0.0848 0.0
C307 C 0.75009 0.4217 0.03939 0.0
C308 C 0.75085 0.40877 1.00266 0.0
C309 C 0.72735 0.43284 0.04662 0.0
C310 C 0.73218 0.41091 0.97166 0.0
C311 C 0.71056 0.42352 0.9781 0.0
H312 H 0.31564 0.78583 0.35639 0.0
H313 H 0.31703 0.73489 0.25174 0.0
H314 H 0.26214 0.68656 0.2683 0.0
H315 H 0.2247 0.65378 0.32104 0.0
H316 H 0.23014 0.70021 0.43186 0.0
H317 H 0.27151 0.75561 0.40508 0.0
C318 C 0.30291 0.76481 0.33632 0.0
C319 C 0.31991 0.76347 0.30301 0.0
C320 C 0.27346 0.73591 0.34828 0.0
C321 C 0.30398 0.73621 0.27731 0.0
C322 C 0.27302 0.70846 0.28722 0.0
C323 C 0.23452 0.67628 0.339 0.0
C324 C 0.22569 0.67334 0.37848 0.0
C325 C 0.2592 0.70711 0.32403 0.0
C326 C 0.23735 0.70224 0.40153 0.0
C327 C 0.26093 0.7337 0.3862 0.0
H328 H 0.57625 0.34152 0.74745 0.0
H329 H 0.5234 0.30689 0.6381 0.0
H330 H 0.5016 0.24799 0.65846 0.0
H331 H 0.50729 0.20831 0.70214 0.0
H332 H 0.56549 0.24498 0.80777 0.0
H333 H 0.57413 0.30137 0.79537 0.0
C334 C 0.55982 0.32101 0.72813 0.0
C335 C 0.5524 0.32809 0.6908 0.0
C336 C 0.54788 0.2878 0.73989 0.0
C337 C 0.53 0.30167 0.66658 0.0
C338 C 0.5175 0.26819 0.67831 0.0
C339 C 0.52034 0.22836 0.72331 0.0
C340 C 0.53568 0.22296 0.75585 0.0
C341 C 0.52742 0.2611 0.71428 0.0
C342 C 0.55324 0.24888 0.78286 0.0
C343 C 0.5587 0.28112 0.77534 0.0
H344 H 0.2564 0.61602 0.97811 0.0
H345 H 0.21012 0.50982 1.00444 0.0
H346 H 0.26541 0.51743 1.02225 0.0
H347 H 0.32573 0.55605 0.0373 0.0
H348 H 0.36856 0.66316 1.01717 0.0
H349 H 0.3151 0.65359 0.99178 0.0
C350 C 0.25845 0.59438 0.98721 0.0
C351 C 0.22943 0.56257 0.99051 0.0
C352 C 0.28939 0.59938 0.99994 0.0
C353 C 0.23232 0.53457 1.00155 0.0
C354 C 0.26374 0.53906 1.01244 0.0
C355 C 0.32316 0.57728 0.02786 0.0
C356 C 0.35096 0.61028 0.0294 0.0
C357 C 0.29218 0.57165 1.01328 0.0
C358 C 0.34749 0.63753 1.01651 0.0
C359 C 0.31706 0.6321 1.00161 0.0
H360 H 0.47837 0.05017 0.32154 0.0
H361 H 0.578 0.06282 0.32122 0.0
H362 H 0.554 0.00158 0.32086 0.0
H363 H 0.50461 0.94444 0.32622 0.0
H364 H 0.40529 0.93252 0.33182 0.0
H365 H 0.42913 0.99325 0.32452 0.0
C366 C 0.49475 0.03946 0.32066 0.0
C367 C 0.52979 0.06082 0.32134 0.0
C368 C 0.48082 0.00431 0.32193 0.0
C369 C 0.55086 0.04674 0.32079 0.0
C370 C 0.53718 0.01177 0.32071 0.0
C371 C 0.48825 0.95518 0.32548 0.0
C372 C 0.45334 0.93412 0.32981 0.0
C373 C 0.50219 0.9903 0.3222 0.0
C374 C 0.43235 0.9483 0.32896 0.0
C375 C 0.44591 0.98301 0.32467 0.0
H376 H 0.45829 0.52267 0.61565 0.0
H377 H 0.55775 0.61053 0.61916 0.0
H378 H 0.58293 0.57457 0.61715 0.0
H379 H 0.57637 0.51832 0.626 0.0
H380 H 0.47669 0.43078 0.62881 0.0
H381 H 0.45194 0.46624 0.61614 0.0
C382 C 0.48547 0.53395 0.61486 0.0
C383 C 0.50613 0.56912 0.61798 0.0
C384 C 0.49974 0.51308 0.61542 0.0
C385 C 0.54132 0.58344 0.61715 0.0
C386 C 0.55574 0.56289 0.61617 0.0
C387 C 0.5493 0.50696 0.6228 0.0
C388 C 0.52835 0.47211 0.62877 0.0
C389 C 0.53518 0.52767 0.61708 0.0
C390 C 0.4933 0.45766 0.62474 0.0
C391 C 0.47912 0.47792 0.6176 0.0
H392 H 0.92182 0.46365 0.98104 0.0
H393 H 0.91154 0.36547 0.99699 0.0
H394 H 0.97251 0.39008 0.98933 0.0
H395 H 0.02903 0.44067 0.98628 0.0
H396 H 0.03859 0.53863 0.96964 0.0
H397 H 0.97744 0.51281 0.9686 0.0
C398 C 0.93291 0.44759 0.98229 0.0
C399 C 0.91249 0.41297 0.99021 0.0
C400 C 0.96778 0.46189 0.97786 0.0
C401 C 0.9269 0.39225 0.99106 0.0
C402 C 0.96172 0.40634 0.98687 0.0
C403 C 0.01772 0.45629 0.98171 0.0
C404 C 0.03832 0.49158 0.97868 0.0
C405 C 0.98249 0.4413 0.98147 0.0
C406 C 0.02333 0.51144 0.97224 0.0
C407 C 0.98834 0.49672 0.97189 0.0
H408 H 0.04989 0.48826 0.43316 0.0
H409 H 0.04882 0.58176 0.42653 0.0
H410 H 0.98734 0.5509 0.43021 0.0
H411 H 0.93382 0.49696 0.42669 0.0
H412 H 0.93542 0.40355 0.427 0.0
H413 H -0.00348 0.43457 0.43465 0.0
C414 C 0.0362 0.50187 0.43352 0.0
C415 C 0.05372 0.53713 0.42954 0.0
C416 C 0.00085 0.48389 0.43389 0.0
C417 C 0.03574 0.55453 0.42946 0.0
C418 C 0.00061 0.53691 0.43138 0.0
C419 C 0.94755 0.48346 0.42911 0.0
C420 C 0.93026 0.44812 0.42595 0.0
C421 C 0.98285 0.50152 0.43223 0.0
C422 C 0.94829 0.43084 0.42891 0.0
C423 C 0.98322 0.44853 0.43333 0.0
H424 H 0.51563 0.02905 0.74303 0.0
H425 H 0.42725 0.0387 0.73092 0.0
H426 H 0.39132 0.97732 0.73146 0.0
H427 H 0.38538 0.92081 0.73041 0.0
H428 H 0.47436 0.91169 0.73796 0.0
H429 H 0.50958 0.97275 0.74434 0.0
C430 C 0.48848 0.01769 0.74109 0.0
C431 C 0.47411 0.0383 0.7369 0.0
C432 C 0.46807 0.98241 0.74027 0.0
C433 C 0.43891 0.02329 0.73401 0.0
C434 C 0.41835 0.98821 0.73426 0.0
C435 C 0.41243 0.93222 0.73389 0.0
C436 C 0.42725 0.91184 0.73354 0.0
C437 C 0.43269 0.96749 0.7366 0.0
C438 C 0.46236 0.92691 0.73782 0.0
C439 C 0.48255 0.96183 0.74152 0.0
H440 H 0.51645 0.5858 0.09634 0.0
H441 H 0.41977 0.49485 0.08611 0.0
H442 H 0.44599 0.46057 0.09797 0.0
H443 H 0.49734 0.45651 0.10017 0.0
H444 H 0.59438 0.54756 0.10397 0.0
H445 H 0.5672 0.58167 0.10645 0.0
C446 C 0.50103 0.55851 0.09773 0.0
C447 C 0.46633 0.54286 0.08996 0.0
C448 C 0.51646 0.53894 0.10298 0.0
C449 C 0.44663 0.50747 0.09165 0.0
C450 C 0.46162 0.48784 0.09831 0.0
C451 C 0.51246 0.48376 0.10265 0.0
C452 C 0.54776 0.49954 0.10155 0.0
C453 C 0.49668 0.50328 0.10236 0.0
C454 C 0.56712 0.53488 0.10445 0.0
C455 C 0.5516 0.55441 0.10572 0.0
H456 H 0.53519 0.28751 0.2828 0.0
H457 H 0.5253 0.20348 0.2157 0.0
H458 H 0.52287 0.23089 0.15559 0.0
H459 H 0.52826 0.28095 0.12127 0.0
H460 H 0.53695 0.36445 0.18845 0.0
H461 H 0.53474 0.33499 0.24877 0.0
C462 C 0.53203 0.27493 0.25509 0.0
C463 C 0.53063 0.2434 0.25407 0.0
C464 C 0.53059 0.2909 0.22035 0.0
C465 C 0.52641 0.22762 0.21769 0.0
C466 C 0.52517 0.24341 0.18312 0.0
C467 C 0.52912 0.29252 0.14908 0.0
C468 C 0.53293 0.32512 0.14998 0.0
C469 C 0.5279 0.27537 0.18396 0.0
C470 C 0.53396 0.33948 0.18654 0.0
C471 C 0.53288 0.32267 0.22122 0.0
H472 H 0.22456 0.55228 0.51519 0.0
H473 H 0.28741 0.55285 0.4218 0.0
H474 H 0.3286 0.55545 0.46902 0.0
H475 H 0.34926 0.56201 0.53693 0.0
H476 H 0.28769 0.56428 0.63009 0.0
H477 H 0.24389 0.55587 0.58332 0.0
C478 C 0.247 0.55241 0.50515 0.0
C479 C 0.25264 0.55229 0.46475 0.0
C480 C 0.27115 0.55465 0.53263 0.0
C481 C 0.2822 0.5529 0.45254 0.0
C482 C 0.30593 0.55448 0.47963 0.0
C483 C 0.32602 0.56007 0.54711 0.0
C484 C 0.32195 0.56372 0.58723 0.0
C485 C 0.30103 0.55598 0.51977 0.0
C486 C 0.2917 0.56157 0.59956 0.0
C487 C 0.26656 0.55684 0.57272 0.0
H488 H 0.68842 0.22464 0.95602 0.0
H489 H 0.77536 0.30428 0.89801 0.0
H490 H 0.75054 0.28023 0.83474 0.0
H491 H 0.70156 0.23968 0.79536 0.0
H492 H 0.61583 0.1584 0.85321 0.0
H493 H 0.6428 0.17959 0.91643 0.0
C494 C 0.70223 0.23641 0.92957 0.0
C495 C 0.73374 0.26648 0.93208 0.0
C496 C 0.68786 0.22221 0.89295 0.0
C497 C 0.75119 0.28115 0.89728 0.0
C498 C 0.73688 0.26749 0.8609 0.0
C499 C 0.68903 0.2262 0.82173 0.0
C500 C 0.65649 0.19748 0.81924 0.0
C501 C 0.70486 0.23847 0.85828 0.0
C502 C 0.64085 0.18041 0.85393 0.0
C503 C 0.65621 0.1927 0.89029 0.0
H504 H 0.46409 0.66998 0.1673 0.0
H505 H 0.50006 0.76103 0.09943 0.0
H506 H 0.49611 0.79069 0.15643 0.0
H507 H 0.47695 0.78939 0.22409 0.0
H508 H 0.43859 0.69744 0.29081 0.0
H509 H 0.44918 0.66995 0.2363 0.0
C510 C 0.47178 0.69651 0.16512 0.0
C511 C 0.48243 0.71312 0.12883 0.0
C512 C 0.46863 0.71333 0.19797 0.0
C513 C 0.49183 0.74747 0.12677 0.0
C514 C 0.48941 0.76448 0.15944 0.0
C515 C 0.4715 0.76354 0.22701 0.0
C516 C 0.4569 0.74563 0.26179 0.0
C517 C 0.47704 0.74749 0.195 0.0
C518 C 0.44975 0.71197 0.2646 0.0
C519 C 0.45574 0.69612 0.23327 0.0
H520 H 0.65568 0.44735 0.55766 0.0
H521 H 0.73254 0.46414 0.64184 0.0
H522 H 0.76845 0.46338 0.58994 0.0
H523 H 0.77618 0.45284 0.52115 0.0
H524 H 0.69767 0.43232 0.43777 0.0
H525 H 0.66474 0.43993 0.48832 0.0
C526 C 0.68053 0.45147 0.56459 0.0
C527 C 0.69129 0.45589 0.60382 0.0
C528 C 0.70083 0.45007 0.53455 0.0
C529 C 0.72348 0.46069 0.61208 0.0
C530 C 0.74407 0.46017 0.58233 0.0
C531 C 0.75217 0.45069 0.51385 0.0
C532 C 0.7396 0.44211 0.47547 0.0
C533 C 0.73277 0.45416 0.54351 0.0
C534 C 0.7081 0.43892 0.4669 0.0
C535 C 0.68913 0.44318 0.49592 0.0
H536 H 0.16429 0.62552 0.8807 0.0
H537 H 0.21981 0.71041 0.95735 0.0
H538 H 0.25221 0.74529 0.90213 0.0
H539 H 0.26893 0.75028 0.83287 0.0
H540 H 0.21534 0.66429 0.75711 0.0
H541 H 0.17827 0.6317 0.81066 0.0
C542 C 0.1829 0.65187 0.88524 0.0
C543 C 0.18934 0.66522 0.92338 0.0
C544 C 0.20228 0.67165 0.85334 0.0
C545 C 0.2141 0.69936 0.9285 0.0
C546 C 0.23284 0.71935 0.89685 0.0
C547 C 0.24878 0.7246 0.82786 0.0
C548 C 0.24514 0.7099 0.79073 0.0
C549 C 0.22781 0.70557 0.85924 0.0
C550 C 0.21896 0.6764 0.78518 0.0
C551 C 0.19769 0.65763 0.81593 0.0
loop_
_geom_bond_atom_site_label_1
_geom_bond_atom_site_label_2
_geom_bond_distance
_geom_bond_site_symmetry_2
_ccdc_geom_bond_type
O0 Cd1 2.223 . S
O0 C8 1.315 . S
Cd1 O0 2.223 . S
Cd1 O4 2.297 . S
Cd1 O5 2.439 . S
Cd1 O11 2.240 . S
Cd2 O3 2.240 . S
Cd2 O10 2.223 . S
Cd2 O12 2.297 . S
Cd2 O13 2.439 . S
O3 Cd2 2.240 . S
O3 C8 1.279 . S
O4 Cd1 2.297 . S
O4 C6 1.247 . S
O5 Cd1 2.439 . S
O5 C6 1.208 . S
C6 O4 1.247 . S
C6 O5 1.208 . S
C7 O12 1.247 . S
C7 O13 1.208 . S
C8 O0 1.315 . S
C8 O3 1.279 . S
C9 O10 1.315 . S
C9 O11 1.279 . S
O10 Cd2 2.223 . S
O10 C9 1.315 . S
O11 Cd1 2.240 . S
O11 C9 1.279 . S
O12 Cd2 2.297 . S
O12 C7 1.247 . S
O13 Cd2 2.439 . S
O13 C7 1.208 . S
O14 Cd15 2.223 . S
O14 C22 1.315 . S
Cd15 O14 2.223 . S
Cd15 O18 2.297 . S
Cd15 O19 2.439 . S
Cd15 O25 2.240 . S
Cd16 O17 2.240 . S
Cd16 O24 2.223 . S
Cd16 O26 2.297 . S
Cd16 O27 2.439 . S
O17 Cd16 2.240 . S
O17 C22 1.279 . S
O18 Cd15 2.297 . S
O18 C20 1.247 . S
O19 Cd15 2.439 . S
O19 C20 1.208 . S
C20 O18 1.247 . S
C20 O19 1.208 . S
C21 O26 1.247 . S
C21 O27 1.208 . S
C22 O14 1.315 . S
C22 O17 1.279 . S
C23 O24 1.315 . S
C23 O25 1.279 . S
O24 Cd16 2.223 . S
O24 C23 1.315 . S
O25 Cd15 2.240 . S
O25 C23 1.279 . S
O26 Cd16 2.297 . S
O26 C21 1.247 . S
O27 Cd16 2.439 . S
O27 C21 1.208 . S
O28 Cd29 2.223 . S
O28 C36 1.315 . S
Cd29 O28 2.223 . S
Cd29 O32 2.297 . S
Cd29 O33 2.439 1_554 S
Cd29 O39 2.240 1_554 S
Cd30 O31 2.240 . S
Cd30 O38 2.223 . S
Cd30 O40 2.297 1_554 S
Cd30 O41 2.439 1_554 S
O31 Cd30 2.240 . S
O31 C36 1.279 . S
O32 Cd29 2.297 . S
O32 C34 1.247 1_554 S
O33 Cd29 2.439 1_556 S
O33 C34 1.208 . S
C34 O32 1.247 1_556 S
C34 O33 1.208 . S
C35 O40 1.247 . S
C35 O41 1.208 . S
C36 O28 1.315 . S
C36 O31 1.279 . S
C37 O38 1.315 . S
C37 O39 1.279 1_554 S
O38 Cd30 2.223 . S
O38 C37 1.315 . S
O39 Cd29 2.240 1_556 S
O39 C37 1.279 1_556 S
O40 Cd30 2.297 1_556 S
O40 C35 1.247 . S
O41 Cd30 2.439 1_556 S
O41 C35 1.208 . S
O42 Cd43 2.223 . S
O42 C50 1.315 . S
Cd43 O42 2.223 . S
Cd43 O46 2.297 . S
Cd43 O47 2.439 . S
Cd43 O53 2.240 . S
Cd44 O45 2.240 . S
Cd44 O52 2.223 . S
Cd44 O54 2.297 . S
Cd44 O55 2.439 . S
O45 Cd44 2.240 . S
O45 C50 1.279 . S
O46 Cd43 2.297 . S
O46 C48 1.247 . S
O47 Cd43 2.439 . S
O47 C48 1.208 . S
C48 O46 1.247 . S
C48 O47 1.208 . S
C49 O54 1.247 . S
C49 O55 1.208 . S
C50 O42 1.315 . S
C50 O45 1.279 . S
C51 O52 1.315 . S
C51 O53 1.279 . S
O52 Cd44 2.223 . S
O52 C51 1.315 . S
O53 Cd43 2.240 . S
O53 C51 1.279 . S
O54 Cd44 2.297 . S
O54 C49 1.247 . S
O55 Cd44 2.439 . S
O55 C49 1.208 . S
O56 Cd57 2.223 . S
O56 C64 1.315 . S
Cd57 O56 2.223 . S
Cd57 O60 2.297 . S
Cd57 O61 2.439 . S
Cd57 O67 2.240 . S
Cd58 O59 2.240 . S
Cd58 O66 2.223 . S
Cd58 O68 2.297 . S
Cd58 O69 2.439 . S
O59 Cd58 2.240 . S
O59 C64 1.279 . S
O60 Cd57 2.297 . S
O60 C62 1.247 . S
O61 Cd57 2.439 . S
O61 C62 1.208 . S
C62 O60 1.247 . S
C62 O61 1.208 . S
C63 O68 1.247 . S
C63 O69 1.208 . S
C64 O56 1.315 . S
C64 O59 1.279 . S
C65 O66 1.315 . S
C65 O67 1.279 . S
O66 Cd58 2.223 . S
O66 C65 1.315 . S
O67 Cd57 2.240 . S
O67 C65 1.279 . S
O68 Cd58 2.297 . S
O68 C63 1.247 . S
O69 Cd58 2.439 . S
O69 C63 1.208 . S
O70 Cd71 2.223 . S
O70 C78 1.315 . S
Cd71 O70 2.223 . S
Cd71 O74 2.297 . S
Cd71 O75 2.439 1_554 S
Cd71 O81 2.240 1_554 S
Cd72 O73 2.240 . S
Cd72 O80 2.223 . S
Cd72 O82 2.297 1_554 S
Cd72 O83 2.439 1_554 S
O73 Cd72 2.240 . S
O73 C78 1.279 . S
O74 Cd71 2.297 . S
O74 C76 1.247 1_554 S
O75 Cd71 2.439 1_556 S
O75 C76 1.208 . S
C76 O74 1.247 1_556 S
C76 O75 1.208 . S
C77 O82 1.247 . S
C77 O83 1.208 . S
C78 O70 1.315 . S
C78 O73 1.279 . S
C79 O80 1.315 . S
C79 O81 1.279 1_554 S
O80 Cd72 2.223 . S
O80 C79 1.315 . S
O81 Cd71 2.240 1_556 S
O81 C79 1.279 1_556 S
O82 Cd72 2.297 1_556 S
O82 C77 1.247 . S
O83 Cd72 2.439 1_556 S
O83 C77 1.208 . S
O84 Cd85 2.223 . S
O84 C92 1.315 . S
Cd85 O84 2.223 . S
Cd85 O88 2.297 . S
Cd85 O89 2.439 . S
Cd85 O95 2.240 . S
Cd86 O87 2.240 . S
Cd86 O94 2.223 . S
Cd86 O96 2.297 . S
Cd86 O97 2.439 . S
O87 Cd86 2.240 . S
O87 C92 1.279 . S
O88 Cd85 2.297 . S
O88 C90 1.247 . S
O89 Cd85 2.439 . S
O89 C90 1.208 . S
C90 O88 1.247 . S
C90 O89 1.208 . S
C91 O96 1.247 . S
C91 O97 1.208 . S
C92 O84 1.315 . S
C92 O87 1.279 . S
C93 O94 1.315 . S
C93 O95 1.279 . S
O94 Cd86 2.223 . S
O94 C93 1.315 . S
O95 Cd85 2.240 . S
O95 C93 1.279 . S
O96 Cd86 2.297 . S
O96 C91 1.247 . S
O97 Cd86 2.439 . S
O97 C91 1.208 . S
O98 Cd99 2.223 . S
O98 C106 1.315 . S
Cd99 O98 2.223 . S
Cd99 O102 2.297 . S
Cd99 O103 2.439 . S
Cd99 O109 2.240 . S
Cd100 O101 2.240 . S
Cd100 O108 2.223 . S
Cd100 O110 2.297 . S
Cd100 O111 2.439 . S
O101 Cd100 2.240 . S
O101 C106 1.279 . S
O102 Cd99 2.297 . S
O102 C104 1.247 . S
O103 Cd99 2.439 . S
O103 C104 1.208 . S
C104 O102 1.247 . S
C104 O103 1.208 . S
C105 O110 1.247 . S
C105 O111 1.208 . S
C106 O98 1.315 . S
C106 O101 1.279 . S
C107 O108 1.315 . S
C107 O109 1.279 . S
O108 Cd100 2.223 . S
O108 C107 1.315 . S
O109 Cd99 2.240 . S
O109 C107 1.279 . S
O110 Cd100 2.297 . S
O110 C105 1.247 . S
O111 Cd100 2.439 . S
O111 C105 1.208 . S
O112 Cd113 2.223 1_556 S
O112 C120 1.315 . S
Cd113 O112 2.223 1_554 S
Cd113 O116 2.297 1_554 S
Cd113 O117 2.439 . S
Cd113 O123 2.240 . S
Cd114 O115 2.240 1_554 S
Cd114 O122 2.223 1_554 S
Cd114 O124 2.297 . S
Cd114 O125 2.439 . S
O115 Cd114 2.240 1_556 S
O115 C120 1.279 . S
O116 Cd113 2.297 1_556 S
O116 C118 1.247 1_556 S
O117 Cd113 2.439 . S
O117 C118 1.208 . S
C118 O116 1.247 1_554 S
C118 O117 1.208 . S
C119 O124 1.247 . S
C119 O125 1.208 . S
C120 O112 1.315 . S
C120 O115 1.279 . S
C121 O122 1.315 1_554 S
C121 O123 1.279 . S
O122 Cd114 2.223 1_556 S
O122 C121 1.315 1_556 S
O123 Cd113 2.240 . S
O123 C121 1.279 . S
O124 Cd114 2.297 . S
O124 C119 1.247 . S
O125 Cd114 2.439 . S
O125 C119 1.208 . S
O126 Cd127 2.223 . S
O126 C134 1.315 . S
Cd127 O126 2.223 . S
Cd127 O130 2.297 . S
Cd127 O131 2.439 . S
Cd127 O137 2.240 . S
Cd128 O129 2.240 . S
Cd128 O136 2.223 . S
Cd128 O138 2.297 . S
Cd128 O139 2.439 . S
O129 Cd128 2.240 . S
O129 C134 1.279 . S
O130 Cd127 2.297 . S
O130 C132 1.247 . S
O131 Cd127 2.439 . S
O131 C132 1.208 . S
C132 O130 1.247 . S
C132 O131 1.208 . S
C133 O138 1.247 . S
C133 O139 1.208 . S
C134 O126 1.315 . S
C134 O129 1.279 . S
C135 O136 1.315 . S
C135 O137 1.279 . S
O136 Cd128 2.223 . S
O136 C135 1.315 . S
O137 Cd127 2.240 . S
O137 C135 1.279 . S
O138 Cd128 2.297 . S
O138 C133 1.247 . S
O139 Cd128 2.439 . S
O139 C133 1.208 . S
O140 Cd141 2.223 . S
O140 C148 1.315 . S
Cd141 O140 2.223 . S
Cd141 O144 2.297 . S
Cd141 O145 2.439 . S
Cd141 O151 2.240 . S
Cd142 O143 2.240 . S
Cd142 O150 2.223 . S
Cd142 O152 2.297 . S
Cd142 O153 2.439 . S
O143 Cd142 2.240 . S
O143 C148 1.279 . S
O144 Cd141 2.297 . S
O144 C146 1.247 . S
O145 Cd141 2.439 . S
O145 C146 1.208 . S
C146 O144 1.247 . S
C146 O145 1.208 . S
C147 O152 1.247 . S
C147 O153 1.208 . S
C148 O140 1.315 . S
C148 O143 1.279 . S
C149 O150 1.315 . S
C149 O151 1.279 . S
O150 Cd142 2.223 . S
O150 C149 1.315 . S
O151 Cd141 2.240 . S
O151 C149 1.279 . S
O152 Cd142 2.297 . S
O152 C147 1.247 . S
O153 Cd142 2.439 . S
O153 C147 1.208 . S
O154 Cd155 2.223 1_556 S
O154 C162 1.315 . S
Cd155 O154 2.223 1_554 S
Cd155 O158 2.297 1_554 S
Cd155 O159 2.439 . S
Cd155 O165 2.240 . S
Cd156 O157 2.240 1_554 S
Cd156 O164 2.223 1_554 S
Cd156 O166 2.297 . S
Cd156 O167 2.439 . S
O157 Cd156 2.240 1_556 S
O157 C162 1.279 . S
O158 Cd155 2.297 1_556 S
O158 C160 1.247 1_556 S
O159 Cd155 2.439 . S
O159 C160 1.208 . S
C160 O158 1.247 1_554 S
C160 O159 1.208 . S
C161 O166 1.247 . S
C161 O167 1.208 . S
C162 O154 1.315 . S
C162 O157 1.279 . S
C163 O164 1.315 1_554 S
C163 O165 1.279 . S
O164 Cd156 2.223 1_556 S
O164 C163 1.315 1_556 S
O165 Cd155 2.240 . S
O165 C163 1.279 . S
O166 Cd156 2.297 . S
O166 C161 1.247 . S
O167 Cd156 2.439 . S
O167 C161 1.208 . S
H168 C174 0.930 . S
H169 C177 0.930 . S
H170 C178 0.930 . S
H171 C179 0.930 . S
H172 C182 0.930 . S
H173 C183 0.930 . S
C174 H168 0.930 . S
C174 C175 1.355 . S
C174 C176 1.415 . S
C175 C174 1.355 . S
C175 C177 1.419 . S
C176 C174 1.415 . S
C176 C181 1.425 . S
C176 C183 1.409 . S
C177 H169 0.930 . S
C177 C175 1.419 . S
C177 C178 1.362 . S
C178 H170 0.930 . S
C178 C177 1.362 . S
C178 C181 1.409 . S
C179 H171 0.930 . S
C179 C180 1.355 . S
C179 C181 1.415 . S
C180 C179 1.355 . S
C180 C182 1.419 . S
C181 C176 1.425 . S
C181 C178 1.409 . S
C181 C179 1.415 . S
C182 H172 0.930 . S
C182 C180 1.419 . S
C182 C183 1.362 . S
C183 H173 0.930 . S
C183 C176 1.409 . S
C183 C182 1.362 . S
H184 C190 0.930 . S
H185 C193 0.930 . S
H186 C194 0.930 . S
H187 C195 0.930 . S
H188 C198 0.930 . S
H189 C199 0.930 . S
C190 H184 0.930 . S
C190 C191 1.355 . S
C190 C192 1.415 . S
C191 C190 1.355 . S
C191 C193 1.419 . S
C192 C190 1.415 . S
C192 C197 1.425 . S
C192 C199 1.409 . S
C193 H185 0.930 . S
C193 C191 1.419 . S
C193 C194 1.362 . S
C194 H186 0.930 . S
C194 C193 1.362 . S
C194 C197 1.409 . S
C195 H187 0.930 . S
C195 C196 1.355 . S
C195 C197 1.415 . S
C196 C195 1.355 . S
C196 C198 1.419 . S
C197 C192 1.425 . S
C197 C194 1.409 . S
C197 C195 1.415 . S
C198 H188 0.930 . S
C198 C196 1.419 . S
C198 C199 1.362 . S
C199 H189 0.930 . S
C199 C192 1.409 . S
C199 C198 1.362 . S
H200 C206 0.930 . S
H201 C209 0.930 . S
H202 C210 0.930 . S
H203 C211 0.930 . S
H204 C214 0.930 . S
H205 C215 0.930 . S
C206 H200 0.930 . S
C206 C207 1.355 . S
C206 C208 1.415 . S
C207 C206 1.355 . S
C207 C209 1.419 . S
C208 C206 1.415 . S
C208 C213 1.425 . S
C208 C215 1.409 . S
C209 H201 0.930 . S
C209 C207 1.419 . S
C209 C210 1.362 . S
C210 H202 0.930 . S
C210 C209 1.362 . S
C210 C213 1.409 . S
C211 H203 0.930 . S
C211 C212 1.355 . S
C211 C213 1.415 . S
C212 C211 1.355 . S
C212 C214 1.419 . S
C213 C208 1.425 . S
C213 C210 1.409 . S
C213 C211 1.415 . S
C214 H204 0.930 . S
C214 C212 1.419 . S
C214 C215 1.362 . S
C215 H205 0.930 . S
C215 C208 1.409 . S
C215 C214 1.362 . S
H216 C222 0.930 . S
H217 C225 0.930 . S
H218 C226 0.930 . S
H219 C227 0.930 . S
H220 C230 0.930 . S
H221 C231 0.930 . S
C222 H216 0.930 . S
C222 C223 1.355 . S
C222 C224 1.415 . S
C223 C222 1.355 . S
C223 C225 1.419 . S
C224 C222 1.415 . S
C224 C229 1.425 . S
C224 C231 1.409 . S
C225 H217 0.930 . S
C225 C223 1.419 . S
C225 C226 1.362 . S
C226 H218 0.930 . S
C226 C225 1.362 . S
C226 C229 1.409 . S
C227 H219 0.930 . S
C227 C228 1.355 . S
C227 C229 1.415 . S
C228 C227 1.355 . S
C228 C230 1.419 . S
C229 C224 1.425 . S
C229 C226 1.409 . S
C229 C227 1.415 . S
C230 H220 0.930 . S
C230 C228 1.419 . S
C230 C231 1.362 . S
C231 H221 0.930 . S
C231 C224 1.409 . S
C231 C230 1.362 . S
H232 C238 0.930 . S
H233 C241 0.930 . S
H234 C242 0.930 . S
H235 C243 0.930 . S
H236 C246 0.930 . S
H237 C247 0.930 . S
C238 H232 0.930 . S
C238 C239 1.355 . S
C238 C240 1.415 . S
C239 C238 1.355 . S
C239 C241 1.419 . S
C240 C238 1.415 . S
C240 C245 1.425 . S
C240 C247 1.409 . S
C241 H233 0.930 . S
C241 C239 1.419 . S
C241 C242 1.362 . S
C242 H234 0.930 . S
C242 C241 1.362 . S
C242 C245 1.409 . S
C243 H235 0.930 . S
C243 C244 1.355 . S
C243 C245 1.415 . S
C244 C243 1.355 . S
C244 C246 1.419 . S
C245 C240 1.425 . S
C245 C242 1.409 . S
C245 C243 1.415 . S
C246 H236 0.930 . S
C246 C244 1.419 . S
C246 C247 1.362 . S
C247 H237 0.930 . S
C247 C240 1.409 . S
C247 C246 1.362 . S
H248 C254 0.930 . S
H249 C257 0.930 . S
H250 C258 0.930 . S
H251 C259 0.930 . S
H252 C262 0.930 . S
H253 C263 0.930 . S
C254 H248 0.930 . S
C254 C255 1.355 . S
C254 C256 1.415 . S
C255 C254 1.355 . S
C255 C257 1.419 . S
C256 C254 1.415 . S
C256 C261 1.425 . S
C256 C263 1.409 . S
C257 H249 0.930 . S
C257 C255 1.419 . S
C257 C258 1.362 . S
C258 H250 0.930 . S
C258 C257 1.362 . S
C258 C261 1.409 . S
C259 H251 0.930 . S
C259 C260 1.355 . S
C259 C261 1.415 . S
C260 C259 1.355 . S
C260 C262 1.419 . S
C261 C256 1.425 . S
C261 C258 1.409 . S
C261 C259 1.415 . S
C262 H252 0.930 . S
C262 C260 1.419 . S
C262 C263 1.362 . S
C263 H253 0.930 . S
C263 C256 1.409 . S
C263 C262 1.362 . S
H264 C270 0.930 . S
H265 C273 0.930 . S
H266 C274 0.930 . S
H267 C275 0.930 . S
H268 C278 0.930 . S
H269 C279 0.930 . S
C270 H264 0.930 . S
C270 C271 1.355 . S
C270 C272 1.415 . S
C271 C270 1.355 . S
C271 C273 1.419 . S
C272 C270 1.415 . S
C272 C277 1.425 . S
C272 C279 1.409 . S
C273 H265 0.930 . S
C273 C271 1.419 . S
C273 C274 1.362 . S
C274 H266 0.930 . S
C274 C273 1.362 . S
C274 C277 1.409 . S
C275 H267 0.930 . S
C275 C276 1.355 . S
C275 C277 1.415 . S
C276 C275 1.355 . S
C276 C278 1.419 . S
C277 C272 1.425 . S
C277 C274 1.409 . S
C277 C275 1.415 . S
C278 H268 0.930 . S
C278 C276 1.419 . S
C278 C279 1.362 . S
C279 H269 0.930 . S
C279 C272 1.409 . S
C279 C278 1.362 . S
H280 C286 0.930 . S
H281 C289 0.930 . S
H282 C290 0.930 . S
H283 C291 0.930 . S
H284 C294 0.930 . S
H285 C295 0.930 . S
C286 H280 0.930 . S
C286 C287 1.355 . S
C286 C288 1.415 . S
C287 C286 1.355 . S
C287 C289 1.419 . S
C288 C286 1.415 . S
C288 C293 1.425 . S
C288 C295 1.409 . S
C289 H281 0.930 . S
C289 C287 1.419 . S
C289 C290 1.362 . S
C290 H282 0.930 . S
C290 C289 1.362 . S
C290 C293 1.409 . S
C291 H283 0.930 . S
C291 C292 1.355 . S
C291 C293 1.415 . S
C292 C291 1.355 . S
C292 C294 1.419 . S
C293 C288 1.425 . S
C293 C290 1.409 . S
C293 C291 1.415 . S
C294 H284 0.930 . S
C294 C292 1.419 . S
C294 C295 1.362 . S
C295 H285 0.930 . S
C295 C288 1.409 . S
C295 C294 1.362 . S
H296 C302 0.930 . S
H297 C305 0.930 . S
H298 C306 0.930 . S
H299 C307 0.930 . S
H300 C310 0.930 . S
H301 C311 0.930 . S
C302 H296 0.930 . S
C302 C303 1.355 1_556 S
C302 C304 1.415 . S
C303 C302 1.355 1_554 S
C303 C305 1.419 . S
C304 C302 1.415 . S
C304 C309 1.425 1_556 S
C304 C311 1.409 . S
C305 H297 0.930 . S
C305 C303 1.419 . S
C305 C306 1.362 . S
C306 H298 0.930 . S
C306 C305 1.362 . S
C306 C309 1.409 . S
C307 H299 0.930 . S
C307 C308 1.355 . S
C307 C309 1.415 . S
C308 C307 1.355 . S
C308 C310 1.419 1_554 S
C309 C304 1.425 1_554 S
C309 C306 1.409 . S
C309 C307 1.415 . S
C310 H300 0.930 . S
C310 C308 1.419 1_556 S
C310 C311 1.362 . S
C311 H301 0.930 . S
C311 C304 1.409 . S
C311 C310 1.362 . S
H312 C318 0.930 . S
H313 C321 0.930 . S
H314 C322 0.930 . S
H315 C323 0.930 . S
H316 C326 0.930 . S
H317 C327 0.930 . S
C318 H312 0.930 . S
C318 C319 1.355 . S
C318 C320 1.415 . S
C319 C318 1.355 . S
C319 C321 1.419 . S
C320 C318 1.415 . S
C320 C325 1.425 . S
C320 C327 1.409 . S
C321 H313 0.930 . S
C321 C319 1.419 . S
C321 C322 1.362 . S
C322 H314 0.930 . S
C322 C321 1.362 . S
C322 C325 1.409 . S
C323 H315 0.930 . S
C323 C324 1.355 . S
C323 C325 1.415 . S
C324 C323 1.355 . S
C324 C326 1.419 . S
C325 C320 1.425 . S
C325 C322 1.409 . S
C325 C323 1.415 . S
C326 H316 0.930 . S
C326 C324 1.419 . S
C326 C327 1.362 . S
C327 H317 0.930 . S
C327 C320 1.409 . S
C327 C326 1.362 . S
H328 C334 0.930 . S
H329 C337 0.930 . S
H330 C338 0.930 . S
H331 C339 0.930 . S
H332 C342 0.930 . S
H333 C343 0.930 . S
C334 H328 0.930 . S
C334 C335 1.355 . S
C334 C336 1.415 . S
C335 C334 1.355 . S
C335 C337 1.419 . S
C336 C334 1.415 . S
C336 C341 1.425 . S
C336 C343 1.409 . S
C337 H329 0.930 . S
C337 C335 1.419 . S
C337 C338 1.362 . S
C338 H330 0.930 . S
C338 C337 1.362 . S
C338 C341 1.409 . S
C339 H331 0.930 . S
C339 C340 1.355 . S
C339 C341 1.415 . S
C340 C339 1.355 . S
C340 C342 1.419 . S
C341 C336 1.425 . S
C341 C338 1.409 . S
C341 C339 1.415 . S
C342 H332 0.930 . S
C342 C340 1.419 . S
C342 C343 1.362 . S
C343 H333 0.930 . S
C343 C336 1.409 . S
C343 C342 1.362 . S
H344 C350 0.930 . S
H345 C353 0.930 . S
H346 C354 0.930 . S
H347 C355 0.930 . S
H348 C358 0.930 . S
H349 C359 0.930 . S
C350 H344 0.930 . S
C350 C351 1.355 1_556 S
C350 C352 1.415 . S
C351 C350 1.355 1_554 S
C351 C353 1.419 . S
C352 C350 1.415 . S
C352 C357 1.425 1_556 S
C352 C359 1.409 . S
C353 H345 0.930 . S
C353 C351 1.419 . S
C353 C354 1.362 . S
C354 H346 0.930 . S
C354 C353 1.362 . S
C354 C357 1.409 . S
C355 H347 0.930 . S
C355 C356 1.355 . S
C355 C357 1.415 . S
C356 C355 1.355 . S
C356 C358 1.419 1_554 S
C357 C352 1.425 1_554 S
C357 C354 1.409 . S
C357 C355 1.415 . S
C358 H348 0.930 . S
C358 C356 1.419 1_556 S
C358 C359 1.362 . S
C359 H349 0.930 . S
C359 C352 1.409 . S
C359 C358 1.362 . S
H360 C366 0.930 . S
H361 C369 0.930 . S
H362 C370 0.930 . S
H363 C371 0.930 . S
H364 C374 0.930 . S
H365 C375 0.930 . S
C366 H360 0.930 . S
C366 C367 1.355 . S
C366 C368 1.415 . S
C367 C366 1.355 . S
C367 C369 1.419 . S
C368 C366 1.415 . S
C368 C373 1.425 1_545 S
C368 C375 1.409 1_545 S
C369 H361 0.930 . S
C369 C367 1.419 . S
C369 C370 1.362 . S
C370 H362 0.930 . S
C370 C369 1.362 . S
C370 C373 1.409 1_545 S
C371 H363 0.930 . S
C371 C372 1.355 . S
C371 C373 1.415 . S
C372 C371 1.355 . S
C372 C374 1.419 . S
C373 C368 1.425 1_565 S
C373 C370 1.409 1_565 S
C373 C371 1.415 . S
C374 H364 0.930 . S
C374 C372 1.419 . S
C374 C375 1.362 . S
C375 H365 0.930 . S
C375 C368 1.409 1_565 S
C375 C374 1.362 . S
H376 C382 0.930 . S
H377 C385 0.930 . S
H378 C386 0.930 . S
H379 C387 0.930 . S
H380 C390 0.930 . S
H381 C391 0.930 . S
C382 H376 0.930 . S
C382 C383 1.355 . S
C382 C384 1.415 . S
C383 C382 1.355 . S
C383 C385 1.419 . S
C384 C382 1.415 . S
C384 C389 1.425 . S
C384 C391 1.409 . S
C385 H377 0.930 . S
C385 C383 1.419 . S
C385 C386 1.362 . S
C386 H378 0.930 . S
C386 C385 1.362 . S
C386 C389 1.409 . S
C387 H379 0.930 . S
C387 C388 1.355 . S
C387 C389 1.415 . S
C388 C387 1.355 . S
C388 C390 1.419 . S
C389 C384 1.425 . S
C389 C386 1.409 . S
C389 C387 1.415 . S
C390 H380 0.930 . S
C390 C388 1.419 . S
C390 C391 1.362 . S
C391 H381 0.930 . S
C391 C384 1.409 . S
C391 C390 1.362 . S
H392 C398 0.930 . S
H393 C401 0.930 . S
H394 C402 0.930 1_455 S
H395 C403 0.930 . S
H396 C406 0.930 . S
H397 C407 0.930 1_655 S
C398 H392 0.930 . S
C398 C399 1.355 . S
C398 C400 1.415 . S
C399 C398 1.355 . S
C399 C401 1.419 1_556 S
C400 C398 1.415 . S
C400 C405 1.425 1_656 S
C400 C407 1.409 1_655 S
C401 H393 0.930 . S
C401 C399 1.419 1_554 S
C401 C402 1.362 . S
C402 H394 0.930 1_655 S
C402 C401 1.362 . S
C402 C405 1.409 1_655 S
C403 H395 0.930 . S
C403 C404 1.355 1_554 S
C403 C405 1.415 . S
C404 C403 1.355 1_556 S
C404 C406 1.419 . S
C405 C400 1.425 1_454 S
C405 C402 1.409 1_455 S
C405 C403 1.415 . S
C406 H396 0.930 . S
C406 C404 1.419 . S
C406 C407 1.362 . S
C407 H397 0.930 1_455 S
C407 C400 1.409 1_455 S
C407 C406 1.362 . S
H408 C414 0.930 . S
H409 C417 0.930 . S
H410 C418 0.930 . S
H411 C419 0.930 . S
H412 C422 0.930 . S
H413 C423 0.930 . S
C414 H408 0.930 . S
C414 C415 1.355 . S
C414 C416 1.454 . S
C415 C414 1.355 . S
C415 C417 1.419 . S
C416 C414 1.454 . S
C416 C421 1.384 1_455 S
C416 C423 1.391 1_455 S
C417 H409 0.930 . S
C417 C415 1.419 . S
C417 C418 1.362 . S
C418 H410 0.930 . S
C418 C417 1.362 . S
C418 C421 1.391 1_455 S
C419 H411 0.930 . S
C419 C420 1.355 . S
C419 C421 1.454 . S
C420 C419 1.355 . S
C420 C422 1.419 . S
C421 C416 1.384 1_655 S
C421 C418 1.391 1_655 S
C421 C419 1.454 . S
C422 H412 0.930 . S
C422 C420 1.419 . S
C422 C423 1.362 . S
C423 H413 0.930 . S
C423 C416 1.391 1_655 S
C423 C422 1.362 . S
H424 C430 0.930 . S
H425 C433 0.930 . S
H426 C434 0.930 . S
H427 C435 0.930 . S
H428 C438 0.930 . S
H429 C439 0.930 . S
C430 H424 0.930 . S
C430 C431 1.355 . S
C430 C432 1.415 . S
C431 C430 1.355 . S
C431 C433 1.419 . S
C432 C430 1.415 . S
C432 C437 1.425 1_545 S
C432 C439 1.409 1_545 S
C433 H425 0.930 . S
C433 C431 1.419 . S
C433 C434 1.362 . S
C434 H426 0.930 . S
C434 C433 1.362 . S
C434 C437 1.409 1_545 S
C435 H427 0.930 . S
C435 C436 1.355 . S
C435 C437 1.415 . S
C436 C435 1.355 . S
C436 C438 1.419 . S
C437 C432 1.425 1_565 S
C437 C434 1.409 1_565 S
C437 C435 1.415 . S
C438 H428 0.930 . S
C438 C436 1.419 . S
C438 C439 1.362 . S
C439 H429 0.930 . S
C439 C432 1.409 1_565 S
C439 C438 1.362 . S
H440 C446 0.930 . S
H441 C449 0.930 . S
H442 C450 0.930 . S
H443 C451 0.930 . S
H444 C454 0.930 . S
H445 C455 0.930 1_556 S
C446 H440 0.930 . S
C446 C447 1.355 . S
C446 C448 1.415 . S
C447 C446 1.355 . S
C447 C449 1.419 . S
C448 C446 1.415 . S
C448 C453 1.425 . S
C448 C455 1.409 . S
C449 H441 0.930 . S
C449 C447 1.419 . S
C449 C450 1.362 . S
C450 H442 0.930 . S
C450 C449 1.362 . S
C450 C453 1.409 . S
C451 H443 0.930 . S
C451 C452 1.355 . S
C451 C453 1.415 . S
C452 C451 1.355 . S
C452 C454 1.419 . S
C453 C448 1.425 . S
C453 C450 1.409 . S
C453 C451 1.415 . S
C454 H444 0.930 . S
C454 C452 1.419 . S
C454 C455 1.362 . S
C455 H445 0.930 1_554 S
C455 C448 1.409 . S
C455 C454 1.362 . S
H456 C462 0.930 . S
H457 C465 0.930 . S
H458 C466 0.930 . S
H459 C467 0.930 . S
H460 C470 0.930 . S
H461 C471 0.930 . S
C462 H456 0.930 . S
C462 C463 1.355 . S
C462 C464 1.415 . S
C463 C462 1.355 . S
C463 C465 1.419 . S
C464 C462 1.415 . S
C464 C469 1.425 . S
C464 C471 1.409 . S
C465 H457 0.930 . S
C465 C463 1.419 . S
C465 C466 1.362 . S
C466 H458 0.930 . S
C466 C465 1.362 . S
C466 C469 1.409 . S
C467 H459 0.930 . S
C467 C468 1.355 . S
C467 C469 1.415 . S
C468 C467 1.355 . S
C468 C470 1.419 . S
C469 C464 1.425 . S
C469 C466 1.409 . S
C469 C467 1.415 . S
C470 H460 0.930 . S
C470 C468 1.419 . S
C470 C471 1.362 . S
C471 H461 0.930 . S
C471 C464 1.409 . S
C471 C470 1.362 . S
H472 C478 0.930 . S
H473 C481 0.930 . S
H474 C482 0.930 . S
H475 C483 0.930 . S
H476 C486 0.930 . S
H477 C487 0.930 . S
C478 H472 0.930 . S
C478 C479 1.355 . S
C478 C480 1.415 . S
C479 C478 1.355 . S
C479 C481 1.419 . S
C480 C478 1.415 . S
C480 C485 1.425 . S
C480 C487 1.409 . S
C481 H473 0.930 . S
C481 C479 1.419 . S
C481 C482 1.362 . S
C482 H474 0.930 . S
C482 C481 1.362 . S
C482 C485 1.409 . S
C483 H475 0.930 . S
C483 C484 1.355 . S
C483 C485 1.415 . S
C484 C483 1.355 . S
C484 C486 1.419 . S
C485 C480 1.425 . S
C485 C482 1.409 . S
C485 C483 1.415 . S
C486 H476 0.930 . S
C486 C484 1.419 . S
C486 C487 1.362 . S
C487 H477 0.930 . S
C487 C480 1.409 . S
C487 C486 1.362 . S
H488 C494 0.930 . S
H489 C497 0.930 . S
H490 C498 0.930 . S
H491 C499 0.930 . S
H492 C502 0.930 . S
H493 C503 0.930 . S
C494 H488 0.930 . S
C494 C495 1.355 . S
C494 C496 1.415 . S
C495 C494 1.355 . S
C495 C497 1.419 . S
C496 C494 1.415 . S
C496 C501 1.425 . S
C496 C503 1.409 . S
C497 H489 0.930 . S
C497 C495 1.419 . S
C497 C498 1.362 . S
C498 H490 0.930 . S
C498 C497 1.362 . S
C498 C501 1.409 . S
C499 H491 0.930 . S
C499 C500 1.355 . S
C499 C501 1.415 . S
C500 C499 1.355 . S
C500 C502 1.419 . S
C501 C496 1.425 . S
C501 C498 1.409 . S
C501 C499 1.415 . S
C502 H492 0.930 . S
C502 C500 1.419 . S
C502 C503 1.362 . S
C503 H493 0.930 . S
C503 C496 1.409 . S
C503 C502 1.362 . S
H504 C510 0.930 . S
H505 C513 0.930 . S
H506 C514 0.930 . S
H507 C515 0.930 . S
H508 C518 0.930 . S
H509 C519 0.930 . S
C510 H504 0.930 . S
C510 C511 1.355 . S
C510 C512 1.415 . S
C511 C510 1.355 . S
C511 C513 1.419 . S
C512 C510 1.415 . S
C512 C517 1.425 . S
C512 C519 1.409 . S
C513 H505 0.930 . S
C513 C511 1.419 . S
C513 C514 1.362 . S
C514 H506 0.930 . S
C514 C513 1.362 . S
C514 C517 1.409 . S
C515 H507 0.930 . S
C515 C516 1.355 . S
C515 C517 1.415 . S
C516 C515 1.355 . S
C516 C518 1.419 . S
C517 C512 1.425 . S
C517 C514 1.409 . S
C517 C515 1.415 . S
C518 H508 0.930 . S
C518 C516 1.419 . S
C518 C519 1.362 . S
C519 H509 0.930 . S
C519 C512 1.409 . S
C519 C518 1.362 . S
H520 C526 0.930 . S
H521 C529 0.930 . S
H522 C530 0.930 . S
H523 C531 0.930 . S
H524 C534 0.930 . S
H525 C535 0.930 . S
C526 H520 0.930 . S
C526 C527 1.355 . S
C526 C528 1.415 . S
C527 C526 1.355 . S
C527 C529 1.419 . S
C528 C526 1.415 . S
C528 C533 1.425 . S
C528 C535 1.409 . S
C529 H521 0.930 . S
C529 C527 1.419 . S
C529 C530 1.362 . S
C530 H522 0.930 . S
C530 C529 1.362 . S
C530 C533 1.409 . S
C531 H523 0.930 . S
C531 C532 1.355 . S
C531 C533 1.415 . S
C532 C531 1.355 . S
C532 C534 1.419 . S
C533 C528 1.425 . S
C533 C530 1.409 . S
C533 C531 1.415 . S
C534 H524 0.930 . S
C534 C532 1.419 . S
C534 C535 1.362 . S
C535 H525 0.930 . S
C535 C528 1.409 . S
C535 C534 1.362 . S
H536 C542 0.930 . S
H537 C545 0.930 . S
H538 C546 0.930 . S
H539 C547 0.930 . S
H540 C550 0.930 . S
H541 C551 0.930 . S
C542 H536 0.930 . S
C542 C543 1.355 . S
C542 C544 1.415 . S
C543 C542 1.355 . S
C543 C545 1.419 . S
C544 C542 1.415 . S
C544 C549 1.425 . S
C544 C551 1.409 . S
C545 H537 0.930 . S
C545 C543 1.419 . S
C545 C546 1.362 . S
C546 H538 0.930 . S
C546 C545 1.362 . S
C546 C549 1.409 . S
C547 H539 0.930 . S
C547 C548 1.355 . S
C547 C549 1.415 . S
C548 C547 1.355 . S
C548 C550 1.419 . S
C549 C544 1.425 . S
C549 C546 1.409 . S
C549 C547 1.415 . S
C550 H540 0.930 . S
C550 C548 1.419 . S
C550 C551 1.362 . S
C551 H541 0.930 . S
C551 C544 1.409 . S
C551 C550 1.362 . S
C175 C8 1.572 . S
C180 C148 1.594 . S
C191 C22 1.654 . S
C196 C162 1.646 . S
C207 C92 1.620 . S
C212 C36 1.595 . S
C223 C50 1.592 . S
C228 C106 1.570 . S
C239 C120 1.598 . S
C244 C64 1.574 . S
C255 C134 1.595 . S
C260 C78 1.573 . S
C271 C93 0.927 . S
C276 C9 0.881 . S
C287 C107 0.867 . S
C292 C23 0.946 . S
C303 C121 0.893 . S
C308 C37 0.914 . S
C319 C51 0.956 . S
C324 C135 0.864 . S
C335 C65 0.916 . S
C340 C149 0.892 . S
C351 C79 0.954 . S
C356 C163 0.877 . S
C367 C6 1.387 . S
C372 C48 1.366 . S
C383 C20 1.370 . S
C388 C62 1.395 . S
C399 C34 1.425 . S
C404 C76 1.436 . S
C415 C132 1.364 . S
C420 C90 1.370 . S
C431 C146 1.365 . S
C436 C104 1.368 . S
C447 C160 1.367 . S
C452 C118 1.365 . S
C463 C7 1.395 . S
C468 C119 1.367 . S
C479 C133 1.336 . S
C484 C21 1.352 . S
C495 C35 1.387 . S
C500 C147 1.347 . S
C511 C161 1.339 . S
C516 C49 1.376 . S
C527 C63 1.357 . S
C532 C91 1.335 . S
C543 C77 1.363 . S
C548 C105 1.334 . S
