# Generated by pormake.
# Topology eci, (8)-cn, num edge types: 1
# Building blocks:
#     Node 0, Type 0, BuildingBlock: TAGTUT_clean_sbu_3, # of connection points: 8
#     Node 1, Type 0, BuildingBlock: TAGTUT_clean_sbu_3, # of connection points: 8
#     Node 2, Type 0, BuildingBlock: TAGTUT_clean_sbu_3, # of connection points: 8
#     Node 3, Type 0, BuildingBlock: TAGTUT_clean_sbu_3, # of connection points: 8
#     Edge 4, Type (0, 0), BuildingBlock: XUDNAN_clean_linker_2, # of connection points: 2
#     Edge 5, Type (0, 0), BuildingBlock: XUDNAN_clean_linker_2, # of connection points: 2
#     Edge 6, Type (0, 0), BuildingBlock: XUDNAN_clean_linker_2, # of connection points: 2
#     Edge 7, Type (0, 0), BuildingBlock: XUDNAN_clean_linker_2, # of connection points: 2
#     Edge 8, Type (0, 0), BuildingBlock: XUDNAN_clean_linker_2, # of connection points: 2
#     Edge 9, Type (0, 0), BuildingBlock: XUDNAN_clean_linker_2, # of connection points: 2
#     Edge 10, Type (0, 0), BuildingBlock: XUDNAN_clean_linker_2, # of connection points: 2
#     Edge 11, Type (0, 0), BuildingBlock: XUDNAN_clean_linker_2, # of connection points: 2
#     Edge 12, Type (0, 0), BuildingBlock: XUDNAN_clean_linker_2, # of connection points: 2
#     Edge 13, Type (0, 0), BuildingBlock: XUDNAN_clean_linker_2, # of connection points: 2
#     Edge 14, Type (0, 0), BuildingBlock: XUDNAN_clean_linker_2, # of connection points: 2
#     Edge 15, Type (0, 0), BuildingBlock: XUDNAN_clean_linker_2, # of connection points: 2
#     Edge 16, Type (0, 0), BuildingBlock: XUDNAN_clean_linker_2, # of connection points: 2
#     Edge 17, Type (0, 0), BuildingBlock: XUDNAN_clean_linker_2, # of connection points: 2
#     Edge 18, Type (0, 0), BuildingBlock: XUDNAN_clean_linker_2, # of connection points: 2
#     Edge 19, Type (0, 0), BuildingBlock: XUDNAN_clean_linker_2, # of connection points: 2
# Relax obj value: 0.305
# Max RMSD: 0.269
# Mean RMSD: 0.266
data_MOF--net-eci--node1-TAGTUT_clean_sbu_3--edge1-XUDNAN_clean_linker_2
_symmetry_space_group_name_H-M    P1
_symmetry_Int_Tables_number       1
_symmetry_cell_setting            triclinic
loop_
_symmetry_equiv_pos_as_xyz
'x, y, z'
_cell_length_a     32.062207
_cell_length_b     31.996599
_cell_length_c     15.638783
_cell_angle_alpha  88.795082
_cell_angle_beta   90.257325
_cell_angle_gamma 89.758255
loop_
_atom_site_label
_atom_site_type_symbol
_atom_site_fract_x
_atom_site_fract_y
_atom_site_fract_z
_atom_type_partial_charge
C0 C 0.75487 0.88091 0.02935 0.0
C1 C 0.64941 0.76626 0.98136 0.0
C2 C 0.76054 0.68009 0.03301 0.0
Mg3 Mg 0.85158 0.88646 0.00369 0.0
Mg4 Mg 0.89685 0.8406 0.84655 0.0
O5 O 0.86618 0.83271 0.9473 0.0
Mg6 Mg 0.80957 0.80586 0.9448 0.0
O7 O 0.75116 0.78436 0.95076 0.0
Mg8 Mg 0.74229 0.78231 0.07862 0.0
Mg9 Mg 0.73099 0.73985 0.88761 0.0
C10 C 0.87257 0.74365 0.84311 0.0
O11 O 0.80023 0.81486 0.80178 0.0
O12 O 0.92172 0.89453 0.01738 0.0
O13 O 0.75951 0.7599 0.76755 0.0
O14 O 0.85496 0.92739 0.88426 0.0
O15 O 0.95328 0.86133 0.90926 0.0
O16 O 0.87488 0.89328 0.76958 0.0
O17 O 0.81393 0.79194 0.08802 0.0
O18 O 0.8503 0.84791 0.12435 0.0
C19 C 0.83347 0.81303 0.1435 0.0
C20 C 0.9545 0.88246 0.97796 0.0
O21 O 0.84443 0.74547 0.9021 0.0
O22 O 0.67111 0.77509 0.04805 0.0
O23 O 0.89024 0.77624 0.8103 0.0
O24 O 0.75488 0.7105 0.08373 0.0
O25 O 0.66613 0.75229 0.91322 0.0
O26 O 0.75459 0.68446 0.95254 0.0
O27 O 0.78353 0.86843 0.9801 0.0
O28 O 0.73344 0.85489 0.07404 0.0
C29 C 0.8632 0.92683 0.80491 0.0
C30 C 0.78359 0.79051 0.74697 0.0
C31 C 0.61911 0.25169 0.27075 0.0
C32 C 0.75603 0.17696 0.1821 0.0
C33 C 0.82168 0.27681 0.31493 0.0
Mg34 Mg 0.59985 0.34472 0.3063 0.0
Mg35 Mg 0.64575 0.42206 0.20721 0.0
O36 O 0.65313 0.37406 0.27375 0.0
Mg37 Mg 0.68838 0.32581 0.23838 0.0
O38 O 0.71863 0.27298 0.21245 0.0
Mg39 Mg 0.71891 0.24344 0.32768 0.0
Mg40 Mg 0.76884 0.27304 0.15421 0.0
C41 C 0.74422 0.40947 0.19521 0.0
O42 O 0.68534 0.34013 0.09349 0.0
O43 O 0.58141 0.40636 0.36994 0.0
O44 O 0.74963 0.3172 0.05634 0.0
O45 O 0.56309 0.36614 0.18728 0.0
O46 O 0.61829 0.45806 0.30687 0.0
O47 O 0.59952 0.41245 0.11096 0.0
O48 O 0.69781 0.30798 0.37959 0.0
O49 O 0.63452 0.32496 0.42578 0.0
C50 C 0.67169 0.31224 0.44017 0.0
C51 C 0.59293 0.44475 0.36427 0.0
O52 O 0.74523 0.37236 0.22983 0.0
O53 O 0.73884 0.18318 0.25508 0.0
O54 O 0.71036 0.4293 0.17688 0.0
O55 O 0.79054 0.25973 0.35356 0.0
O56 O 0.76927 0.20704 0.13414 0.0
O57 O 0.81887 0.2886 0.23695 0.0
O58 O 0.62828 0.28795 0.24204 0.0
O59 O 0.64721 0.22803 0.30538 0.0
C60 C 0.5666 0.39101 0.12311 0.0
C61 C 0.71586 0.33768 0.04046 0.0
C62 C 0.17271 0.19418 0.27813 0.0
C63 C 0.08903 0.06435 0.34685 0.0
C64 C 0.05573 0.12108 0.58244 0.0
Mg65 Mg 0.21933 0.26039 0.39774 0.0
Mg66 Mg 0.26838 0.22654 0.57055 0.0
O67 O 0.21846 0.22832 0.51012 0.0
Mg68 Mg 0.18594 0.17727 0.48132 0.0
O69 O 0.14852 0.13115 0.4434 0.0
Mg70 Mg 0.09774 0.16352 0.40336 0.0
Mg71 Mg 0.13602 0.08541 0.51439 0.0
C72 C 0.21276 0.16275 0.67951 0.0
O73 O 0.23937 0.12646 0.49177 0.0
O74 O 0.23915 0.31883 0.4765 0.0
O75 O 0.2002 0.07374 0.54902 0.0
O76 O 0.29074 0.24365 0.37339 0.0
O77 O 0.26839 0.29206 0.59697 0.0
O78 O 0.31941 0.21277 0.4883 0.0
O79 O 0.12713 0.2176 0.47547 0.0
O80 O 0.14793 0.27785 0.41824 0.0
C81 C 0.11914 0.25469 0.45019 0.0
C82 C 0.25555 0.32328 0.55114 0.0
O83 O 0.18194 0.16254 0.62617 0.0
O84 O 0.08017 0.10322 0.33463 0.0
O85 O 0.2475 0.18133 0.6646 0.0
O86 O 0.05661 0.14374 0.51472 0.0
O87 O 0.10936 0.05034 0.41219 0.0
O88 O 0.087 0.09854 0.60459 0.0
O89 O 0.19804 0.19658 0.34088 0.0
O90 O 0.13517 0.18274 0.28933 0.0
C91 C 0.32209 0.22602 0.41121 0.0
C92 C 0.23548 0.09 0.52863 0.0
C93 C 0.31962 0.67079 0.60792 0.0
C94 C 0.43957 0.59626 0.78062 0.0
C95 C 0.34861 0.57551 0.96963 0.0
Mg96 Mg 0.23383 0.71166 0.67148 0.0
Mg97 Mg 0.22745 0.76113 0.8545 0.0
O98 O 0.24551 0.71399 0.79821 0.0
Mg99 Mg 0.30231 0.68841 0.80574 0.0
O100 O 0.35668 0.65753 0.80231 0.0
Mg101 Mg 0.33622 0.6019 0.76124 0.0
Mg102 Mg 0.38956 0.65349 0.90037 0.0
C103 C 0.28258 0.71551 -0.00059 0.0
O104 O 0.34191 0.74839 0.83208 0.0
O105 O 0.16318 0.72265 0.7041 0.0
O106 O 0.3892 0.71923 0.92412 0.0
O107 O 0.24897 0.78328 0.65382 0.0
O108 O 0.16276 0.74655 0.83859 0.0
O109 O 0.24864 0.81377 0.78061 0.0
O110 O 0.27075 0.6265 0.78384 0.0
O111 O 0.22188 0.64038 0.68626 0.0
C112 C 0.24164 0.6144 0.73484 0.0
C113 C 0.14402 0.73147 0.77367 0.0
O114 O 0.29623 0.6864 0.95131 0.0
O115 O 0.40488 0.58489 0.74736 0.0
O116 O 0.25967 0.74606 0.97231 0.0
O117 O 0.33899 0.56861 0.89207 0.0
O118 O 0.44209 0.62351 0.83938 0.0
O119 O 0.36247 0.61101 -0.00869 0.0
O120 O 0.30446 0.69535 0.66294 0.0
O121 O 0.33415 0.63471 0.62926 0.0
C122 C 0.25449 0.81544 0.70008 0.0
C123 C 0.37207 0.75109 0.88688 0.0
H124 H 0.77554 0.77182 0.24183 0.0
H125 H 0.90073 0.82281 0.24364 0.0
H126 H 0.90356 0.81496 0.3999 0.0
H127 H 0.73929 0.82346 0.40819 0.0
H128 H 0.70845 0.78284 0.45805 0.0
H129 H 0.71872 0.78163 0.34523 0.0
H130 H 0.7511 0.70757 0.36107 0.0
H131 H 0.73964 0.70779 0.47386 0.0
H132 H 0.79212 0.69804 0.43833 0.0
H133 H 0.88703 0.81985 0.54944 0.0
H134 H 0.85711 0.82299 0.69284 0.0
H135 H 0.74375 0.76457 0.60168 0.0
C136 C 0.8041 0.77937 0.27525 0.0
C137 C 0.83782 0.79804 0.23179 0.0
C138 C 0.87452 0.80867 0.27668 0.0
C139 C 0.87651 0.80419 0.36521 0.0
C140 C 0.84173 0.78851 0.4073 0.0
C141 C 0.8066 0.77503 0.36431 0.0
C142 C 0.77214 0.76358 0.42638 0.0
C143 C 0.73233 0.78944 0.40834 0.0
C144 C 0.76324 0.71644 0.42483 0.0
C145 C 0.79252 0.77567 0.50975 0.0
C146 C 0.83272 0.78971 0.49682 0.0
C147 C 0.85621 0.80744 0.56137 0.0
C148 C 0.83868 0.80962 0.64242 0.0
C149 C 0.79842 0.79345 0.65856 0.0
C150 C 0.77493 0.77649 0.5912 0.0
H151 H 0.62548 0.30547 0.58495 0.0
H152 H 0.75129 0.32796 0.49345 0.0
H153 H 0.77191 0.35096 0.63715 0.0
H154 H 0.61958 0.39305 0.72566 0.0
H155 H 0.59103 0.36491 0.8073 0.0
H156 H 0.5853 0.35111 0.69673 0.0
H157 H 0.60681 0.27434 0.73233 0.0
H158 H 0.61069 0.28758 0.84318 0.0
H159 H 0.65461 0.26419 0.79044 0.0
H160 H 0.7784 0.37278 0.78698 0.0
H161 H 0.77653 0.37274 0.94417 0.0
H162 H 0.64669 0.33548 0.93929 0.0
C163 C 0.65754 0.3147 0.59552 0.0
C164 C 0.68677 0.31523 0.52835 0.0
C165 C 0.72849 0.32711 0.54437 0.0
C166 C 0.74024 0.34103 0.62516 0.0
C167 C 0.7099 0.3426 0.68852 0.0
C168 C 0.66978 0.32856 0.67547 0.0
C169 C 0.64407 0.33029 0.7561 0.0
C170 C 0.60786 0.36171 0.74579 0.0
C171 C 0.62815 0.2865 0.78207 0.0
C172 C 0.67662 0.34593 0.81772 0.0
C173 C 0.71387 0.35434 0.7764 0.0
C174 C 0.74947 0.36648 0.82013 0.0
C175 C 0.74801 0.36664 0.9092 0.0
C176 C 0.71147 0.35396 0.95291 0.0
C177 C 0.67463 0.3461 0.9069 0.0
H178 H 0.1447 0.17112 0.78033 0.0
H179 H 0.27116 0.12288 0.77636 0.0
H180 H 0.27432 0.12458 0.93349 0.0
H181 H 0.15915 0.24321 0.92287 0.0
H182 H 0.11137 0.23826 0.98247 0.0
H183 H 0.113 0.22264 0.87283 0.0
H184 H 0.08837 0.14781 0.91359 0.0
H185 H 0.08415 0.16382 0.02304 0.0
H186 H 0.11517 0.11875 -0.00267 0.0
H187 H 0.27017 0.14774 0.08385 0.0
H188 H 0.25141 0.17261 0.22734 0.0
H189 H 0.12817 0.20673 0.13231 0.0
C190 C 0.17195 0.15845 0.81305 0.0
C191 C 0.20765 0.14691 0.76714 0.0
C192 C 0.24345 0.13165 0.81124 0.0
C193 C 0.24567 0.13283 0.90029 0.0
C194 C 0.21151 0.1486 0.94365 0.0
C195 C 0.17464 0.1595 0.90213 0.0
C196 C 0.14397 0.1789 0.96291 0.0
C197 C 0.13116 0.22338 0.93344 0.0
C198 C 0.10566 0.15063 0.97495 0.0
C199 C 0.1704 0.17964 0.04304 0.0
C200 C 0.20913 0.16185 0.03092 0.0
C201 C 0.23954 0.16082 0.09497 0.0
C202 C 0.22896 0.17581 0.17561 0.0
C203 C 0.18835 0.19141 0.19057 0.0
C204 C 0.15945 0.19483 0.12247 0.0
H205 H 0.30232 0.64884 0.10534 0.0
H206 H 0.2928 0.78431 0.09416 0.0
H207 H 0.31004 0.78717 0.24696 0.0
H208 H 0.25287 0.63524 0.29847 0.0
H209 H 0.28512 0.59292 0.33898 0.0
H210 H 0.27899 0.60106 0.2255 0.0
H211 H 0.35893 0.60596 0.20834 0.0
H212 H 0.36567 0.59763 0.3219 0.0
H213 H 0.38799 0.64304 0.26979 0.0
H214 H 0.31751 0.77608 0.40007 0.0
H215 H 0.31799 0.75115 0.54971 0.0
H216 H 0.32382 0.62269 0.46556 0.0
C217 C 0.30489 0.67902 0.13496 0.0
C218 C 0.29597 0.71629 0.08878 0.0
C219 C 0.29896 0.75534 0.12918 0.0
C220 C 0.30916 0.75737 0.21557 0.0
C221 C 0.31649 0.72009 0.26021 0.0
C222 C 0.31484 0.68161 0.22169 0.0
C223 C 0.32015 0.64628 0.28673 0.0
C224 C 0.282 0.61719 0.28745 0.0
C225 C 0.36062 0.6218 0.27077 0.0
C226 C 0.32299 0.67107 0.36786 0.0
C227 C 0.3214 0.71358 0.35059 0.0
C228 C 0.3197 0.74294 0.41475 0.0
C229 C 0.31954 0.72845 0.49936 0.0
C230 C 0.32102 0.68506 0.51861 0.0
C231 C 0.32334 0.65604 0.45219 0.0
H232 H 0.42605 0.77919 0.77154 0.0
H233 H 0.37861 0.80107 0.02447 0.0
H234 H 0.449 0.82003 0.07322 0.0
H235 H 0.49971 0.72073 0.83466 0.0
H236 H 0.54031 0.73464 0.76012 0.0
H237 H 0.48677 0.74273 0.73073 0.0
H238 H 0.49876 0.82148 0.70048 0.0
H239 H 0.55332 0.81362 0.72458 0.0
H240 H 0.52395 0.85278 0.77994 0.0
H241 H 0.52518 0.81264 0.10611 0.0
H242 H 0.59936 0.79138 0.11399 0.0
H243 H 0.59728 0.76679 0.84209 0.0
C244 C 0.42998 0.79182 0.8348 0.0
C245 C 0.39704 0.78907 0.89405 0.0
C246 C 0.40333 0.80389 0.97767 0.0
C247 C 0.44358 0.81384 0.00633 0.0
C248 C 0.47684 0.80951 0.94988 0.0
C249 C 0.47032 0.8 0.86477 0.0
C250 C 0.51096 0.7883 0.82182 0.0
C251 C 0.50928 0.744 0.78477 0.0
C252 C 0.52244 0.821 0.75263 0.0
C253 C 0.54067 0.78989 0.89706 0.0
C254 C 0.52079 0.80313 0.96987 0.0
C255 C 0.54129 0.80339 0.04883 0.0
C256 C 0.58334 0.79074 0.05293 0.0
C257 C 0.6043 0.77718 0.97882 0.0
C258 C 0.58237 0.7769 0.90014 0.0
H259 H 0.7372 0.10117 0.26318 0.0
H260 H 0.77844 0.15587 0.02108 0.0
H261 H 0.7771 0.08688 0.95676 0.0
H262 H 0.79869 0.00619 0.24684 0.0
H263 H 0.75962 0.97297 0.29485 0.0
H264 H 0.76267 0.02714 0.32326 0.0
H265 H 0.68507 0.03727 0.28053 0.0
H266 H 0.68196 0.98322 0.25098 0.0
H267 H 0.66817 0.02393 0.17446 0.0
H268 H 0.77098 0.01432 0.91602 0.0
H269 H 0.76752 0.9381 0.90414 0.0
H270 H 0.73225 0.92653 0.17139 0.0
C271 C 0.74604 0.09855 0.19677 0.0
C272 C 0.75777 0.13422 0.14737 0.0
C273 C 0.76936 0.12931 0.06071 0.0
C274 C 0.76848 0.09019 0.02311 0.0
C275 C 0.7562 0.05598 0.07283 0.0
C276 C 0.74575 0.05935 0.15795 0.0
C277 C 0.7354 0.01668 0.19682 0.0
C278 C 0.76592 0.00506 0.26975 0.0
C279 C 0.68994 0.01521 0.2275 0.0
C280 C 0.74182 0.98911 0.11997 0.0
C281 C 0.75339 0.01287 0.04922 0.0
C282 C 0.76201 0.99526 0.97083 0.0
C283 C 0.75998 0.95193 0.96484 0.0
C284 C 0.74975 0.92649 0.03685 0.0
C285 C 0.73961 0.94534 0.11513 0.0
H286 H 0.39767 0.20113 0.48103 0.0
H287 H 0.34142 0.24884 0.24529 0.0
H288 H 0.41134 0.25345 0.17998 0.0
H289 H 0.48457 0.26723 0.47783 0.0
H290 H 0.52085 0.22903 0.52098 0.0
H291 H 0.46629 0.2252 0.54631 0.0
H292 H 0.46488 0.14981 0.48924 0.0
H293 H 0.51954 0.1534 0.46372 0.0
H294 H 0.48232 0.14021 0.38198 0.0
H295 H 0.48749 0.2601 0.14545 0.0
H296 H 0.56401 0.26724 0.14284 0.0
H297 H 0.57213 0.21385 0.39945 0.0
C298 C 0.39981 0.21171 0.41498 0.0
C299 C 0.36364 0.22438 0.36823 0.0
C300 C 0.36833 0.23873 0.28248 0.0
C301 C 0.40802 0.24142 0.24477 0.0
C302 C 0.44294 0.22946 0.29325 0.0
C303 C 0.43924 0.21465 0.37638 0.0
C304 C 0.48194 0.2063 0.41628 0.0
C305 C 0.4888 0.23357 0.49499 0.0
C306 C 0.48749 0.15965 0.43915 0.0
C307 C 0.51038 0.21948 0.34316 0.0
C308 C 0.48709 0.23256 0.27272 0.0
C309 C 0.50596 0.24913 0.19957 0.0
C310 C 0.54952 0.25302 0.19868 0.0
C311 C 0.57418 0.24023 0.2701 0.0
C312 C 0.55428 0.22257 0.34286 0.0
H313 H 0.26312 0.89076 0.77789 0.0
H314 H 0.27598 0.83193 0.53193 0.0
H315 H 0.29428 0.90036 0.46616 0.0
H316 H 0.21109 0.97687 0.70574 0.0
H317 H 0.23477 0.01253 0.77919 0.0
H318 H 0.2316 0.95805 0.80704 0.0
H319 H 0.31184 0.9567 0.83089 0.0
H320 H 0.31498 0.01123 0.80005 0.0
H321 H 0.34594 0.97308 0.7453 0.0
H322 H 0.29888 0.97643 0.42316 0.0
H323 H 0.27839 0.0505 0.40505 0.0
H324 H 0.26464 0.05993 0.67841 0.0
C325 C 0.27077 0.89193 0.71053 0.0
C326 C 0.26814 0.85578 0.66026 0.0
C327 C 0.27777 0.85906 0.57201 0.0
C328 C 0.28866 0.8978 0.53425 0.0
C329 C 0.29036 0.93298 0.58561 0.0
C330 C 0.28157 0.93025 0.67202 0.0
C331 C 0.2795 0.97309 0.71118 0.0
C332 C 0.23671 0.98056 0.7531 0.0
C333 C 0.3152 0.97885 0.77567 0.0
C334 C 0.28564 0.00067 0.6323 0.0
C335 C 0.29337 0.97703 0.56085 0.0
C336 C 0.29405 0.99529 0.47891 0.0
C337 C 0.28312 0.03776 0.46912 0.0
C338 C 0.27084 0.06107 0.54063 0.0
C339 C 0.2756 0.04317 0.62336 0.0
H340 H 0.90422 0.71941 0.69249 0.0
H341 H 0.89607 0.6837 0.9597 0.0
H342 H 0.96853 0.65902 0.95722 0.0
H343 H -0.00188 0.64199 0.6316 0.0
H344 H 0.01877 0.68333 0.56433 0.0
H345 H 0.96313 0.67629 0.57268 0.0
H346 H 0.95634 0.75359 0.61424 0.0
H347 H 0.01167 0.76073 0.61167 0.0
H348 H 0.98329 0.77165 0.70797 0.0
H349 H 0.04332 0.66998 0.94709 0.0
H350 H 0.11347 0.69745 0.91973 0.0
H351 H 0.07809 0.7296 0.65859 0.0
C352 C 0.91685 0.70295 0.74812 0.0
C353 C 0.89529 0.7045 0.8268 0.0
C354 C 0.91212 0.6831 0.89891 0.0
C355 C 0.95379 0.66962 0.89823 0.0
C356 C 0.9772 0.67653 0.8241 0.0
C357 C 0.95896 0.69109 0.74868 0.0
C358 C 0.99195 0.70472 0.68421 0.0
C359 C 0.99307 0.67478 0.60874 0.0
C360 C 0.98538 0.75035 0.65286 0.0
C361 C 0.03103 0.70024 0.73843 0.0
C362 C 0.02185 0.68291 0.81803 0.0
C363 C 0.05117 0.68188 0.88394 0.0
C364 C 0.09078 0.69836 0.86817 0.0
C365 C 0.10114 0.71577 0.78699 0.0
C366 C 0.07108 0.71593 0.72077 0.0
H367 H 0.77354 0.43595 0.04423 0.0
H368 H 0.79255 0.44453 0.31652 0.0
H369 H 0.81451 0.51776 0.29762 0.0
H370 H 0.85397 0.52395 0.9727 0.0
H371 H 0.81769 0.54027 0.89004 0.0
H372 H 0.82276 0.48563 0.91921 0.0
H373 H 0.74334 0.48302 0.94457 0.0
H374 H 0.7378 0.53771 0.92039 0.0
H375 H 0.72023 0.51701 0.02204 0.0
H376 H 0.80817 0.59313 0.25773 0.0
H377 H 0.78645 0.66164 0.19731 0.0
H378 H 0.76818 0.60566 0.94967 0.0
C379 C 0.78613 0.45224 0.09851 0.0
C380 C 0.78186 0.43463 0.18155 0.0
C381 C 0.79658 0.45712 0.25223 0.0
C382 C 0.80838 0.49917 0.24198 0.0
C383 C 0.80624 0.51768 0.16032 0.0
C384 C 0.79692 0.49447 0.08897 0.0
C385 C 0.78831 0.52269 0.01152 0.0
C386 C 0.82275 0.51786 0.9444 0.0
C387 C 0.74486 0.51461 0.97252 0.0
C388 C 0.79032 0.56519 0.05205 0.0
C389 C 0.80178 0.56178 0.13728 0.0
C390 C 0.80061 0.59627 0.19039 0.0
C391 C 0.7877 0.63506 0.15561 0.0
C392 C 0.77562 0.6392 0.06849 0.0
C393 C 0.77771 0.60376 0.01614 0.0
H394 H 0.89603 0.30167 0.24318 0.0
H395 H 0.84246 0.25694 0.48246 0.0
H396 H 0.91298 0.25487 0.54735 0.0
H397 H 0.98396 0.23691 0.24968 0.0
H398 H 0.01902 0.27477 0.20289 0.0
H399 H 0.96417 0.27749 0.17858 0.0
H400 H 0.96179 0.3539 0.22999 0.0
H401 H 0.01674 0.35139 0.25463 0.0
H402 H 0.97998 0.36561 0.33602 0.0
H403 H 0.98965 0.25028 0.58114 0.0
H404 H 0.06626 0.24309 0.5818 0.0
H405 H 0.07096 0.29157 0.32126 0.0
C406 C 0.89882 0.29229 0.30988 0.0
C407 C 0.8633 0.27973 0.35782 0.0
C408 C 0.86887 0.26696 0.44441 0.0
C409 C 0.9089 0.26575 0.48185 0.0
C410 C 0.94317 0.27759 0.43216 0.0
C411 C 0.93851 0.29078 0.34809 0.0
C412 C 0.98064 0.29891 0.30667 0.0
C413 C 0.98732 0.27031 0.22995 0.0
C414 C 0.98504 0.34521 0.28028 0.0
C415 C 0.00995 0.28738 0.38003 0.0
C416 C 0.98755 0.27548 0.452 0.0
C417 C 0.0074 0.26038 0.5258 0.0
C418 C 0.05099 0.25651 0.52562 0.0
C419 C 0.07468 0.26782 0.45243 0.0
C420 C 0.05385 0.28421 0.37914 0.0
H421 H 0.23537 0.40069 0.4775 0.0
H422 H 0.2766 0.34063 0.71547 0.0
H423 H 0.27182 0.40759 0.78775 0.0
H424 H 0.29278 0.4973 0.5095 0.0
H425 H 0.25274 0.5302 0.46231 0.0
H426 H 0.25891 0.47717 0.42791 0.0
H427 H 0.1813 0.46291 0.46334 0.0
H428 H 0.17513 0.51574 0.49913 0.0
H429 H 0.16238 0.4724 0.56961 0.0
H430 H 0.26147 0.47898 0.83692 0.0
H431 H 0.2544 0.55473 0.8566 0.0
H432 H 0.22178 0.5716 0.58832 0.0
C433 C 0.24362 0.40171 0.54463 0.0
C434 C 0.25618 0.36508 0.59057 0.0
C435 C 0.2669 0.36796 0.67839 0.0
C436 C 0.26404 0.4059 0.7205 0.0
C437 C 0.25075 0.44101 0.67412 0.0
C438 C 0.24139 0.43969 0.58793 0.0
C439 C 0.22945 0.48288 0.55333 0.0
C440 C 0.26031 0.49776 0.48419 0.0
C441 C 0.18438 0.4835 0.51935 0.0
C442 C 0.23349 0.50836 0.63383 0.0
C443 C 0.24544 0.48323 0.70266 0.0
C444 C 0.25218 0.49908 0.78362 0.0
C445 C 0.248 0.54211 0.79417 0.0
C446 C 0.23745 0.56892 0.72415 0.0
C447 C 0.22912 0.55171 0.64327 0.0
H448 H 0.05582 0.98672 0.36282 0.0
H449 H 0.10217 0.07739 0.17727 0.0
H450 H 0.08952 0.02768 0.06114 0.0
H451 H 0.08856 0.88887 0.25097 0.0
H452 H 0.04054 0.86296 0.27884 0.0
H453 H 0.06258 0.90093 0.34948 0.0
H454 H 0.9934 0.94349 0.345 0.0
H455 H 0.97118 0.90502 0.27691 0.0
H456 H 0.97154 0.9592 0.24279 0.0
H457 H 0.06534 0.97208 0.96472 0.0
H458 H 0.01575 0.92468 0.894 0.0
H459 H 0.97994 0.87344 0.14085 0.0
C460 C 0.06401 0.99552 0.29779 0.0
C461 C 0.08007 0.03536 0.27828 0.0
C462 C 0.08959 0.04678 0.19276 0.0
C463 C 0.08328 0.01853 0.12685 0.0
C464 C 0.0672 0.97925 0.14784 0.0
C465 C 0.05683 0.96813 0.23114 0.0
C466 C 0.0325 0.92786 0.23498 0.0
C467 C 0.05756 0.8931 0.28131 0.0
C468 C 0.98963 0.93432 0.27729 0.0
C469 C 0.02857 0.91945 0.14054 0.0
C470 C 0.05068 0.94814 0.09147 0.0
C471 C 0.04839 0.94906 0.00228 0.0
C472 C 0.02038 0.92203 0.96256 0.0
C473 C 0.99435 0.89607 0.01273 0.0
C474 C 0.00025 0.89287 0.10182 0.0
H475 H 0.53841 0.42813 0.4938 0.0
H476 H 0.61614 0.52655 0.38565 0.0
H477 H 0.59464 0.5732 0.50146 0.0
H478 H 0.45481 0.49115 0.54376 0.0
H479 H 0.44185 0.46289 0.64093 0.0
H480 H 0.46792 0.4365 0.55611 0.0
H481 H 0.5268 0.41405 0.6622 0.0
H482 H 0.50122 0.4413 0.74714 0.0
H483 H 0.55453 0.4533 0.72047 0.0
H484 H 0.56011 0.61076 0.62216 0.0
H485 H 0.50804 0.63842 0.72337 0.0
H486 H 0.45358 0.51525 0.74962 0.0
C487 C 0.55134 0.45933 0.49466 0.0
C488 C 0.57904 0.47361 0.43081 0.0
C489 C 0.59482 0.51488 0.43397 0.0
C490 C 0.5832 0.54145 0.50003 0.0
C491 C 0.55611 0.52613 0.56253 0.0
C492 C 0.54015 0.4861 0.55979 0.0
C493 C 0.50826 0.47834 0.62885 0.0
C494 C 0.46571 0.46657 0.59008 0.0
C495 C 0.52364 0.44476 0.69349 0.0
C496 C 0.50719 0.52094 0.66842 0.0
C497 C 0.53589 0.54781 0.63128 0.0
C498 C 0.53803 0.58987 0.65281 0.0
C499 C 0.50866 0.60526 0.71064 0.0
C500 C 0.47743 0.57862 0.74408 0.0
C501 C 0.4778 0.53582 0.72553 0.0
H502 H 0.03608 0.09295 0.74495 0.0
H503 H 0.98214 0.12372 0.4966 0.0
H504 H 0.91854 0.08569 0.53537 0.0
H505 H 0.00586 0.99601 0.76818 0.0
H506 H 0.99102 0.99669 0.87927 0.0
H507 H 0.02831 0.03362 0.83935 0.0
H508 H 0.98192 0.0938 0.89477 0.0
H509 H 0.94474 0.05603 0.9344 0.0
H510 H 0.92803 0.09738 0.86191 0.0
H511 H 0.8732 0.02585 0.58132 0.0
H512 H 0.8415 0.96219 0.64751 0.0
H513 H 0.9175 0.97906 0.8736 0.0
C514 C 0.01 0.09342 0.7007 0.0
C515 C 0.01424 0.11102 0.6179 0.0
C516 C 0.97965 0.11071 0.56087 0.0
C517 C 0.94324 0.08901 0.58209 0.0
C518 C 0.94101 0.06947 0.66211 0.0
C519 C 0.97258 0.07331 0.72228 0.0
C520 C 0.96344 0.04719 0.80156 0.0
C521 C -0.00066 0.01656 0.82304 0.0
C522 C 0.95395 0.07529 0.87765 0.0
C523 C 0.92461 0.02463 0.77247 0.0
C524 C 0.91176 0.03805 0.69208 0.0
C525 C 0.88139 0.01643 0.64612 0.0
C526 C 0.86372 0.98026 0.68355 0.0
C527 C 0.87604 0.96697 0.76644 0.0
C528 C 0.90617 0.98994 0.8116 0.0
H529 H 0.54345 0.46962 0.14284 0.0
H530 H 0.50028 0.35215 0.04308 0.0
H531 H 0.43004 0.38396 0.01699 0.0
H532 H 0.44843 0.49209 0.25741 0.0
H533 H 0.45301 0.54767 0.23892 0.0
H534 H 0.49923 0.51551 0.24684 0.0
H535 H 0.5241 0.5421 0.09717 0.0
H536 H 0.47922 0.57571 0.0916 0.0
H537 H 0.48887 0.53938 0.0073 0.0
H538 H 0.36747 0.43328 -0.01118 0.0
H539 H 0.3225 0.49413 0.95352 0.0
H540 H 0.40465 0.57331 0.09918 0.0
C541 C 0.51949 0.45083 0.1134 0.0
C542 C 0.52743 0.4092 0.09099 0.0
C543 C 0.49489 0.3847 0.05738 0.0
C544 C 0.45493 0.4023 0.04398 0.0
C545 C 0.44799 0.44351 0.06887 0.0
C546 C 0.47953 0.4671 0.10363 0.0
C547 C 0.46501 0.51034 0.12587 0.0
C548 C 0.46651 0.51675 0.22303 0.0
C549 C 0.49078 0.54382 0.07756 0.0
C550 C 0.42065 0.50866 0.09377 0.0
C551 C 0.41105 0.46985 0.0615 0.0
C552 C 0.37425 0.46337 0.01587 0.0
C553 C 0.34857 0.4981 -0.00313 0.0
C554 C 0.36009 0.53862 0.02336 0.0
C555 C 0.39437 0.54282 0.0792 0.0
loop_
_geom_bond_atom_site_label_1
_geom_bond_atom_site_label_2
_geom_bond_distance
_geom_bond_site_symmetry_2
_ccdc_geom_bond_type
C0 O27 1.312 . S
C0 O28 1.208 . S
C1 O22 1.331 . S
C1 O25 1.244 . S
C2 O24 1.264 . S
C2 O26 1.273 1_554 S
Mg3 O5 1.936 . S
Mg3 O12 2.081 . S
Mg3 O14 2.023 1_554 S
Mg3 O18 2.031 . S
Mg3 O27 2.291 . S
Mg4 O5 1.963 1_556 S
Mg4 O15 1.942 1_556 S
Mg4 O16 1.955 . S
Mg4 O23 1.986 . S
O5 Mg3 1.936 . S
O5 Mg4 1.963 1_554 S
O5 Mg6 1.915 1_554 S
Mg6 O5 1.915 1_556 S
Mg6 O7 1.915 . S
Mg6 O11 2.013 . S
Mg6 O17 2.114 1_556 S
Mg6 O21 2.013 . S
Mg6 O27 2.114 1_556 S
O7 Mg6 1.915 . S
O7 Mg8 1.936 1_556 S
O7 Mg9 1.963 . S
Mg8 O7 1.936 1_554 S
Mg8 O17 2.291 . S
Mg8 O22 2.081 1_554 S
Mg8 O24 2.023 . S
Mg8 O28 2.031 . S
Mg9 O7 1.963 . S
Mg9 O13 1.986 . S
Mg9 O25 1.942 . S
Mg9 O26 1.955 . S
C10 O21 1.191 . S
C10 O23 1.307 . S
O11 Mg6 2.013 . S
O11 C30 1.191 . S
O12 Mg3 2.081 . S
O12 C20 1.331 . S
O13 Mg9 1.986 . S
O13 C30 1.307 . S
O14 Mg3 2.023 1_556 S
O14 C29 1.264 . S
O15 Mg4 1.942 1_554 S
O15 C20 1.244 . S
O16 Mg4 1.955 . S
O16 C29 1.273 . S
O17 Mg6 2.114 1_554 S
O17 Mg8 2.291 . S
O17 C19 1.312 . S
O18 Mg3 2.031 . S
O18 C19 1.208 . S
C19 O17 1.312 . S
C19 O18 1.208 . S
C20 O12 1.331 . S
C20 O15 1.244 . S
O21 Mg6 2.013 . S
O21 C10 1.191 . S
O22 C1 1.331 . S
O22 Mg8 2.081 1_556 S
O23 Mg4 1.986 . S
O23 C10 1.307 . S
O24 C2 1.264 . S
O24 Mg8 2.023 . S
O25 C1 1.244 . S
O25 Mg9 1.942 . S
O26 C2 1.273 1_556 S
O26 Mg9 1.955 . S
O27 C0 1.312 . S
O27 Mg3 2.291 . S
O27 Mg6 2.114 1_554 S
O28 C0 1.208 . S
O28 Mg8 2.031 . S
C29 O14 1.264 . S
C29 O16 1.273 . S
C30 O11 1.191 . S
C30 O13 1.307 . S
C31 O58 1.312 . S
C31 O59 1.208 . S
C32 O53 1.331 . S
C32 O56 1.244 . S
C33 O55 1.264 . S
C33 O57 1.273 . S
Mg34 O36 1.936 . S
Mg34 O43 2.081 . S
Mg34 O45 2.023 . S
Mg34 O49 2.031 . S
Mg34 O58 2.291 . S
Mg35 O36 1.963 . S
Mg35 O46 1.942 . S
Mg35 O47 1.955 . S
Mg35 O54 1.986 . S
O36 Mg34 1.936 . S
O36 Mg35 1.963 . S
O36 Mg37 1.915 . S
Mg37 O36 1.915 . S
Mg37 O38 1.915 . S
Mg37 O42 2.013 . S
Mg37 O48 2.114 . S
Mg37 O52 2.013 . S
Mg37 O58 2.114 . S
O38 Mg37 1.915 . S
O38 Mg39 1.936 . S
O38 Mg40 1.963 . S
Mg39 O38 1.936 . S
Mg39 O48 2.291 . S
Mg39 O53 2.081 . S
Mg39 O55 2.023 . S
Mg39 O59 2.031 . S
Mg40 O38 1.963 . S
Mg40 O44 1.986 . S
Mg40 O56 1.942 . S
Mg40 O57 1.955 . S
C41 O52 1.191 . S
C41 O54 1.307 . S
O42 Mg37 2.013 . S
O42 C61 1.191 . S
O43 Mg34 2.081 . S
O43 C51 1.331 . S
O44 Mg40 1.986 . S
O44 C61 1.307 . S
O45 Mg34 2.023 . S
O45 C60 1.264 . S
O46 Mg35 1.942 . S
O46 C51 1.244 . S
O47 Mg35 1.955 . S
O47 C60 1.273 . S
O48 Mg37 2.114 . S
O48 Mg39 2.291 . S
O48 C50 1.312 . S
O49 Mg34 2.031 . S
O49 C50 1.208 . S
C50 O48 1.312 . S
C50 O49 1.208 . S
C51 O43 1.331 . S
C51 O46 1.244 . S
O52 Mg37 2.013 . S
O52 C41 1.191 . S
O53 C32 1.331 . S
O53 Mg39 2.081 . S
O54 Mg35 1.986 . S
O54 C41 1.307 . S
O55 C33 1.264 . S
O55 Mg39 2.023 . S
O56 C32 1.244 . S
O56 Mg40 1.942 . S
O57 C33 1.273 . S
O57 Mg40 1.955 . S
O58 C31 1.312 . S
O58 Mg34 2.291 . S
O58 Mg37 2.114 . S
O59 C31 1.208 . S
O59 Mg39 2.031 . S
C60 O45 1.264 . S
C60 O47 1.273 . S
C61 O42 1.191 . S
C61 O44 1.307 . S
C62 O89 1.312 . S
C62 O90 1.208 . S
C63 O84 1.331 . S
C63 O87 1.244 . S
C64 O86 1.264 . S
C64 O88 1.273 . S
Mg65 O67 1.936 . S
Mg65 O74 2.081 . S
Mg65 O76 2.023 . S
Mg65 O80 2.031 . S
Mg65 O89 2.291 . S
Mg66 O67 1.963 . S
Mg66 O77 1.942 . S
Mg66 O78 1.955 . S
Mg66 O85 1.986 . S
O67 Mg65 1.936 . S
O67 Mg66 1.963 . S
O67 Mg68 1.915 . S
Mg68 O67 1.915 . S
Mg68 O69 1.915 . S
Mg68 O73 2.013 . S
Mg68 O79 2.114 . S
Mg68 O83 2.013 . S
Mg68 O89 2.114 . S
O69 Mg68 1.915 . S
O69 Mg70 1.936 . S
O69 Mg71 1.963 . S
Mg70 O69 1.936 . S
Mg70 O79 2.291 . S
Mg70 O84 2.081 . S
Mg70 O86 2.023 . S
Mg70 O90 2.031 . S
Mg71 O69 1.963 . S
Mg71 O75 1.986 . S
Mg71 O87 1.942 . S
Mg71 O88 1.955 . S
C72 O83 1.191 . S
C72 O85 1.307 . S
O73 Mg68 2.013 . S
O73 C92 1.191 . S
O74 Mg65 2.081 . S
O74 C82 1.331 . S
O75 Mg71 1.986 . S
O75 C92 1.307 . S
O76 Mg65 2.023 . S
O76 C91 1.264 . S
O77 Mg66 1.942 . S
O77 C82 1.244 . S
O78 Mg66 1.955 . S
O78 C91 1.273 . S
O79 Mg68 2.114 . S
O79 Mg70 2.291 . S
O79 C81 1.312 . S
O80 Mg65 2.031 . S
O80 C81 1.208 . S
C81 O79 1.312 . S
C81 O80 1.208 . S
C82 O74 1.331 . S
C82 O77 1.244 . S
O83 Mg68 2.013 . S
O83 C72 1.191 . S
O84 C63 1.331 . S
O84 Mg70 2.081 . S
O85 Mg66 1.986 . S
O85 C72 1.307 . S
O86 C64 1.264 . S
O86 Mg70 2.023 . S
O87 C63 1.244 . S
O87 Mg71 1.942 . S
O88 C64 1.273 . S
O88 Mg71 1.955 . S
O89 C62 1.312 . S
O89 Mg65 2.291 . S
O89 Mg68 2.114 . S
O90 C62 1.208 . S
O90 Mg70 2.031 . S
C91 O76 1.264 . S
C91 O78 1.273 . S
C92 O73 1.191 . S
C92 O75 1.307 . S
C93 O120 1.312 . S
C93 O121 1.208 . S
C94 O115 1.331 . S
C94 O118 1.244 . S
C95 O117 1.264 . S
C95 O119 1.273 . S
Mg96 O98 1.936 . S
Mg96 O105 2.081 . S
Mg96 O107 2.023 . S
Mg96 O111 2.031 . S
Mg96 O120 2.291 . S
Mg97 O98 1.963 . S
Mg97 O108 1.942 . S
Mg97 O109 1.955 . S
Mg97 O116 1.986 . S
O98 Mg96 1.936 . S
O98 Mg97 1.963 . S
O98 Mg99 1.915 . S
Mg99 O98 1.915 . S
Mg99 O100 1.915 . S
Mg99 O104 2.013 . S
Mg99 O110 2.114 . S
Mg99 O114 2.013 . S
Mg99 O120 2.114 . S
O100 Mg99 1.915 . S
O100 Mg101 1.936 . S
O100 Mg102 1.963 . S
Mg101 O100 1.936 . S
Mg101 O110 2.291 . S
Mg101 O115 2.081 . S
Mg101 O117 2.023 . S
Mg101 O121 2.031 . S
Mg102 O100 1.963 . S
Mg102 O106 1.986 . S
Mg102 O118 1.942 . S
Mg102 O119 1.955 . S
C103 O114 1.191 . S
C103 O116 1.307 . S
O104 Mg99 2.013 . S
O104 C123 1.191 . S
O105 Mg96 2.081 . S
O105 C113 1.331 . S
O106 Mg102 1.986 . S
O106 C123 1.307 . S
O107 Mg96 2.023 . S
O107 C122 1.264 . S
O108 Mg97 1.942 . S
O108 C113 1.244 . S
O109 Mg97 1.955 . S
O109 C122 1.273 . S
O110 Mg99 2.114 . S
O110 Mg101 2.291 . S
O110 C112 1.312 . S
O111 Mg96 2.031 . S
O111 C112 1.208 . S
C112 O110 1.312 . S
C112 O111 1.208 . S
C113 O105 1.331 . S
C113 O108 1.244 . S
O114 Mg99 2.013 . S
O114 C103 1.191 . S
O115 C94 1.331 . S
O115 Mg101 2.081 . S
O116 Mg97 1.986 . S
O116 C103 1.307 . S
O117 C95 1.264 . S
O117 Mg101 2.023 . S
O118 C94 1.244 . S
O118 Mg102 1.942 . S
O119 C95 1.273 . S
O119 Mg102 1.955 . S
O120 C93 1.312 . S
O120 Mg96 2.291 . S
O120 Mg99 2.114 . S
O121 C93 1.208 . S
O121 Mg101 2.031 . S
C122 O107 1.264 . S
C122 O109 1.273 . S
C123 O104 1.191 . S
C123 O106 1.307 . S
H124 C136 0.930 . S
H125 C138 0.930 . S
H126 C139 0.930 . S
H127 C143 0.959 . S
H128 C143 0.959 . S
H129 C143 0.961 . S
H130 C144 0.960 . S
H131 C144 0.961 . S
H132 C144 0.959 . S
H133 C147 0.929 . S
H134 C148 0.931 . S
H135 C150 0.930 . S
C136 H124 0.930 . S
C136 C137 1.399 . S
C136 C141 1.399 . S
C137 C136 1.399 . S
C137 C138 1.376 . S
C138 H125 0.930 . S
C138 C137 1.376 . S
C138 C139 1.388 . S
C139 H126 0.930 . S
C139 C138 1.388 . S
C139 C140 1.390 . S
C140 C139 1.390 . S
C140 C141 1.394 . S
C140 C146 1.465 . S
C141 C136 1.399 . S
C141 C140 1.394 . S
C141 C142 1.516 . S
C142 C141 1.516 . S
C142 C143 1.502 . S
C142 C144 1.561 . S
C142 C145 1.526 . S
C143 H127 0.959 . S
C143 H128 0.959 . S
C143 H129 0.961 . S
C143 C142 1.502 . S
C144 H130 0.960 . S
C144 H131 0.961 . S
C144 H132 0.959 . S
C144 C142 1.561 . S
C145 C142 1.526 . S
C145 C146 1.396 . S
C145 C150 1.390 . S
C146 C140 1.465 . S
C146 C145 1.396 . S
C146 C147 1.399 . S
C147 H133 0.929 . S
C147 C146 1.399 . S
C147 C148 1.385 . S
C148 H134 0.931 . S
C148 C147 1.385 . S
C148 C149 1.389 . S
C149 C148 1.389 . S
C149 C150 1.387 . S
C150 H135 0.930 . S
C150 C145 1.390 . S
C150 C149 1.387 . S
H151 C163 0.930 . S
H152 C165 0.930 . S
H153 C166 0.930 . S
H154 C170 0.959 . S
H155 C170 0.959 . S
H156 C170 0.961 . S
H157 C171 0.960 . S
H158 C171 0.961 . S
H159 C171 0.959 . S
H160 C174 0.929 . S
H161 C175 0.931 . S
H162 C177 0.930 . S
C163 H151 0.930 . S
C163 C164 1.399 . S
C163 C168 1.399 . S
C164 C163 1.399 . S
C164 C165 1.376 . S
C165 H152 0.930 . S
C165 C164 1.376 . S
C165 C166 1.388 . S
C166 H153 0.930 . S
C166 C165 1.388 . S
C166 C167 1.390 . S
C167 C166 1.390 . S
C167 C168 1.394 . S
C167 C173 1.465 . S
C168 C163 1.399 . S
C168 C167 1.394 . S
C168 C169 1.516 . S
C169 C168 1.516 . S
C169 C170 1.502 . S
C169 C171 1.561 . S
C169 C172 1.526 . S
C170 H154 0.959 . S
C170 H155 0.959 . S
C170 H156 0.961 . S
C170 C169 1.502 . S
C171 H157 0.960 . S
C171 H158 0.961 . S
C171 H159 0.959 . S
C171 C169 1.561 . S
C172 C169 1.526 . S
C172 C173 1.396 . S
C172 C177 1.390 . S
C173 C167 1.465 . S
C173 C172 1.396 . S
C173 C174 1.399 . S
C174 H160 0.929 . S
C174 C173 1.399 . S
C174 C175 1.385 . S
C175 H161 0.931 . S
C175 C174 1.385 . S
C175 C176 1.389 . S
C176 C175 1.389 . S
C176 C177 1.387 . S
C177 H162 0.930 . S
C177 C172 1.390 . S
C177 C176 1.387 . S
H178 C190 0.930 . S
H179 C192 0.930 . S
H180 C193 0.930 . S
H181 C197 0.959 . S
H182 C197 0.959 . S
H183 C197 0.961 1_556 S
H184 C198 0.960 1_556 S
H185 C198 0.961 . S
H186 C198 0.959 . S
H187 C201 0.929 . S
H188 C202 0.931 . S
H189 C204 0.930 . S
C190 H178 0.930 . S
C190 C191 1.399 . S
C190 C195 1.399 . S
C191 C190 1.399 . S
C191 C192 1.376 . S
C192 H179 0.930 . S
C192 C191 1.376 . S
C192 C193 1.388 . S
C193 H180 0.930 . S
C193 C192 1.388 . S
C193 C194 1.390 . S
C194 C193 1.390 . S
C194 C195 1.394 . S
C194 C200 1.465 1_556 S
C195 C190 1.399 . S
C195 C194 1.394 . S
C195 C196 1.516 1_556 S
C196 C195 1.516 1_554 S
C196 C197 1.502 . S
C196 C198 1.561 . S
C196 C199 1.526 . S
C197 H181 0.959 . S
C197 H182 0.959 . S
C197 H183 0.961 1_554 S
C197 C196 1.502 . S
C198 H184 0.960 1_554 S
C198 H185 0.961 . S
C198 H186 0.959 . S
C198 C196 1.561 . S
C199 C196 1.526 . S
C199 C200 1.396 . S
C199 C204 1.390 . S
C200 C194 1.465 1_554 S
C200 C199 1.396 . S
C200 C201 1.399 . S
C201 H187 0.929 . S
C201 C200 1.399 . S
C201 C202 1.385 . S
C202 H188 0.931 . S
C202 C201 1.385 . S
C202 C203 1.389 . S
C203 C202 1.389 . S
C203 C204 1.387 . S
C204 H189 0.930 . S
C204 C199 1.390 . S
C204 C203 1.387 . S
H205 C217 0.930 . S
H206 C219 0.930 . S
H207 C220 0.930 . S
H208 C224 0.959 . S
H209 C224 0.959 . S
H210 C224 0.961 . S
H211 C225 0.960 . S
H212 C225 0.961 . S
H213 C225 0.959 . S
H214 C228 0.929 . S
H215 C229 0.931 . S
H216 C231 0.930 . S
C217 H205 0.930 . S
C217 C218 1.399 . S
C217 C222 1.399 . S
C218 C217 1.399 . S
C218 C219 1.376 . S
C219 H206 0.930 . S
C219 C218 1.376 . S
C219 C220 1.388 . S
C220 H207 0.930 . S
C220 C219 1.388 . S
C220 C221 1.390 . S
C221 C220 1.390 . S
C221 C222 1.394 . S
C221 C227 1.465 . S
C222 C217 1.399 . S
C222 C221 1.394 . S
C222 C223 1.516 . S
C223 C222 1.516 . S
C223 C224 1.502 . S
C223 C225 1.561 . S
C223 C226 1.526 . S
C224 H208 0.959 . S
C224 H209 0.959 . S
C224 H210 0.961 . S
C224 C223 1.502 . S
C225 H211 0.960 . S
C225 H212 0.961 . S
C225 H213 0.959 . S
C225 C223 1.561 . S
C226 C223 1.526 . S
C226 C227 1.396 . S
C226 C231 1.390 . S
C227 C221 1.465 . S
C227 C226 1.396 . S
C227 C228 1.399 . S
C228 H214 0.929 . S
C228 C227 1.399 . S
C228 C229 1.385 . S
C229 H215 0.931 . S
C229 C228 1.385 . S
C229 C230 1.389 . S
C230 C229 1.389 . S
C230 C231 1.387 . S
C231 H216 0.930 . S
C231 C226 1.390 . S
C231 C230 1.387 . S
H232 C244 0.930 . S
H233 C246 0.930 . S
H234 C247 0.930 . S
H235 C251 0.959 . S
H236 C251 0.959 . S
H237 C251 0.961 . S
H238 C252 0.960 . S
H239 C252 0.961 . S
H240 C252 0.959 . S
H241 C255 0.929 . S
H242 C256 0.931 . S
H243 C258 0.930 . S
C244 H232 0.930 . S
C244 C245 1.399 . S
C244 C249 1.399 . S
C245 C244 1.399 . S
C245 C246 1.376 . S
C246 H233 0.930 . S
C246 C245 1.376 . S
C246 C247 1.388 . S
C247 H234 0.930 . S
C247 C246 1.388 . S
C247 C248 1.390 . S
C248 C247 1.390 . S
C248 C249 1.394 . S
C248 C254 1.465 . S
C249 C244 1.399 . S
C249 C248 1.394 . S
C249 C250 1.516 . S
C250 C249 1.516 . S
C250 C251 1.502 . S
C250 C252 1.561 . S
C250 C253 1.526 . S
C251 H235 0.959 . S
C251 H236 0.959 . S
C251 H237 0.961 . S
C251 C250 1.502 . S
C252 H238 0.960 . S
C252 H239 0.961 . S
C252 H240 0.959 . S
C252 C250 1.561 . S
C253 C250 1.526 . S
C253 C254 1.396 . S
C253 C258 1.390 . S
C254 C248 1.465 . S
C254 C253 1.396 . S
C254 C255 1.399 . S
C255 H241 0.929 . S
C255 C254 1.399 . S
C255 C256 1.385 . S
C256 H242 0.931 . S
C256 C255 1.385 . S
C256 C257 1.389 . S
C257 C256 1.389 . S
C257 C258 1.387 . S
C258 H243 0.930 . S
C258 C253 1.390 . S
C258 C257 1.387 . S
H259 C271 0.930 . S
H260 C273 0.930 . S
H261 C274 0.930 1_556 S
H262 C278 0.959 . S
H263 C278 0.959 . S
H264 C278 0.961 . S
H265 C279 0.960 . S
H266 C279 0.961 . S
H267 C279 0.959 . S
H268 C282 0.929 . S
H269 C283 0.931 . S
H270 C285 0.930 . S
C271 H259 0.930 . S
C271 C272 1.399 . S
C271 C276 1.399 . S
C272 C271 1.399 . S
C272 C273 1.376 . S
C273 H260 0.930 . S
C273 C272 1.376 . S
C273 C274 1.388 . S
C274 H261 0.930 1_554 S
C274 C273 1.388 . S
C274 C275 1.390 . S
C275 C274 1.390 . S
C275 C276 1.394 . S
C275 C281 1.465 . S
C276 C271 1.399 . S
C276 C275 1.394 . S
C276 C277 1.516 . S
C277 C276 1.516 . S
C277 C278 1.502 . S
C277 C279 1.561 . S
C277 C280 1.526 . S
C278 H262 0.959 . S
C278 H263 0.959 . S
C278 H264 0.961 . S
C278 C277 1.502 . S
C279 H265 0.960 . S
C279 H266 0.961 . S
C279 H267 0.959 . S
C279 C277 1.561 . S
C280 C277 1.526 . S
C280 C281 1.396 . S
C280 C285 1.390 1_545 S
C281 C275 1.465 . S
C281 C280 1.396 . S
C281 C282 1.399 1_554 S
C282 H268 0.929 . S
C282 C281 1.399 1_556 S
C282 C283 1.385 1_545 S
C283 H269 0.931 . S
C283 C282 1.385 1_565 S
C283 C284 1.389 1_556 S
C284 C283 1.389 1_554 S
C284 C285 1.387 . S
C285 H270 0.930 . S
C285 C280 1.390 1_565 S
C285 C284 1.387 . S
H286 C298 0.930 . S
H287 C300 0.930 . S
H288 C301 0.930 . S
H289 C305 0.959 . S
H290 C305 0.959 . S
H291 C305 0.961 . S
H292 C306 0.960 . S
H293 C306 0.961 . S
H294 C306 0.959 . S
H295 C309 0.929 . S
H296 C310 0.931 . S
H297 C312 0.930 . S
C298 H286 0.930 . S
C298 C299 1.399 . S
C298 C303 1.399 . S
C299 C298 1.399 . S
C299 C300 1.376 . S
C300 H287 0.930 . S
C300 C299 1.376 . S
C300 C301 1.388 . S
C301 H288 0.930 . S
C301 C300 1.388 . S
C301 C302 1.390 . S
C302 C301 1.390 . S
C302 C303 1.394 . S
C302 C308 1.465 . S
C303 C298 1.399 . S
C303 C302 1.394 . S
C303 C304 1.516 . S
C304 C303 1.516 . S
C304 C305 1.502 . S
C304 C306 1.561 . S
C304 C307 1.526 . S
C305 H289 0.959 . S
C305 H290 0.959 . S
C305 H291 0.961 . S
C305 C304 1.502 . S
C306 H292 0.960 . S
C306 H293 0.961 . S
C306 H294 0.959 . S
C306 C304 1.561 . S
C307 C304 1.526 . S
C307 C308 1.396 . S
C307 C312 1.390 . S
C308 C302 1.465 . S
C308 C307 1.396 . S
C308 C309 1.399 . S
C309 H295 0.929 . S
C309 C308 1.399 . S
C309 C310 1.385 . S
C310 H296 0.931 . S
C310 C309 1.385 . S
C310 C311 1.389 . S
C311 C310 1.389 . S
C311 C312 1.387 . S
C312 H297 0.930 . S
C312 C307 1.390 . S
C312 C311 1.387 . S
H313 C325 0.930 . S
H314 C327 0.930 . S
H315 C328 0.930 . S
H316 C332 0.959 . S
H317 C332 0.959 . S
H318 C332 0.961 . S
H319 C333 0.960 . S
H320 C333 0.961 . S
H321 C333 0.959 . S
H322 C336 0.929 . S
H323 C337 0.931 . S
H324 C339 0.930 . S
C325 H313 0.930 . S
C325 C326 1.399 . S
C325 C330 1.399 . S
C326 C325 1.399 . S
C326 C327 1.376 . S
C327 H314 0.930 . S
C327 C326 1.376 . S
C327 C328 1.388 . S
C328 H315 0.930 . S
C328 C327 1.388 . S
C328 C329 1.390 . S
C329 C328 1.390 . S
C329 C330 1.394 . S
C329 C335 1.465 . S
C330 C325 1.399 . S
C330 C329 1.394 . S
C330 C331 1.516 . S
C331 C330 1.516 . S
C331 C332 1.502 . S
C331 C333 1.561 . S
C331 C334 1.526 . S
C332 H316 0.959 . S
C332 H317 0.959 . S
C332 H318 0.961 . S
C332 C331 1.502 . S
C333 H319 0.960 . S
C333 H320 0.961 . S
C333 H321 0.959 . S
C333 C331 1.561 . S
C334 C331 1.526 . S
C334 C335 1.396 . S
C334 C339 1.390 1_565 S
C335 C329 1.465 . S
C335 C334 1.396 . S
C335 C336 1.399 . S
C336 H322 0.929 . S
C336 C335 1.399 . S
C336 C337 1.385 1_565 S
C337 H323 0.931 . S
C337 C336 1.385 1_545 S
C337 C338 1.389 . S
C338 C337 1.389 . S
C338 C339 1.387 . S
C339 H324 0.930 . S
C339 C334 1.390 1_545 S
C339 C338 1.387 . S
H340 C352 0.930 . S
H341 C354 0.930 . S
H342 C355 0.930 . S
H343 C359 0.959 . S
H344 C359 0.959 . S
H345 C359 0.961 . S
H346 C360 0.960 . S
H347 C360 0.961 . S
H348 C360 0.959 . S
H349 C363 0.929 . S
H350 C364 0.931 1_554 S
H351 C366 0.930 . S
C352 H340 0.930 . S
C352 C353 1.399 . S
C352 C357 1.399 1_655 S
C353 C352 1.399 . S
C353 C354 1.376 1_556 S
C354 H341 0.930 . S
C354 C353 1.376 1_554 S
C354 C355 1.388 1_655 S
C355 H342 0.930 . S
C355 C354 1.388 1_455 S
C355 C356 1.390 1_554 S
C356 C355 1.390 1_556 S
C356 C357 1.394 . S
C356 C362 1.465 . S
C357 C352 1.399 1_455 S
C357 C356 1.394 . S
C357 C358 1.516 . S
C358 C357 1.516 . S
C358 C359 1.502 . S
C358 C360 1.561 . S
C358 C361 1.526 . S
C359 H343 0.959 . S
C359 H344 0.959 . S
C359 H345 0.961 . S
C359 C358 1.502 . S
C360 H346 0.960 . S
C360 H347 0.961 . S
C360 H348 0.959 . S
C360 C358 1.561 . S
C361 C358 1.526 . S
C361 C362 1.396 . S
C361 C366 1.390 . S
C362 C356 1.465 . S
C362 C361 1.396 . S
C362 C363 1.399 1_556 S
C363 H349 0.929 . S
C363 C362 1.399 1_554 S
C363 C364 1.385 1_554 S
C364 H350 0.931 1_556 S
C364 C363 1.385 1_556 S
C364 C365 1.389 . S
C365 C364 1.389 . S
C365 C366 1.387 . S
C366 H351 0.930 . S
C366 C361 1.390 . S
C366 C365 1.387 . S
H367 C379 0.930 . S
H368 C381 0.930 . S
H369 C382 0.930 . S
H370 C386 0.959 . S
H371 C386 0.959 1_556 S
H372 C386 0.961 1_556 S
H373 C387 0.960 1_556 S
H374 C387 0.961 1_556 S
H375 C387 0.959 . S
H376 C390 0.929 . S
H377 C391 0.931 . S
H378 C393 0.930 . S
C379 H367 0.930 . S
C379 C380 1.399 . S
C379 C384 1.399 . S
C380 C379 1.399 . S
C380 C381 1.376 . S
C381 H368 0.930 . S
C381 C380 1.376 . S
C381 C382 1.388 . S
C382 H369 0.930 . S
C382 C381 1.388 . S
C382 C383 1.390 . S
C383 C382 1.390 . S
C383 C384 1.394 . S
C383 C389 1.465 . S
C384 C379 1.399 . S
C384 C383 1.394 . S
C384 C385 1.516 . S
C385 C384 1.516 . S
C385 C386 1.502 . S
C385 C387 1.561 . S
C385 C388 1.526 . S
C386 H370 0.959 . S
C386 H371 0.959 1_554 S
C386 H372 0.961 1_554 S
C386 C385 1.502 . S
C387 H373 0.960 1_554 S
C387 H374 0.961 1_554 S
C387 H375 0.959 . S
C387 C385 1.561 . S
C388 C385 1.526 . S
C388 C389 1.396 . S
C388 C393 1.390 . S
C389 C383 1.465 . S
C389 C388 1.396 . S
C389 C390 1.399 . S
C390 H376 0.929 . S
C390 C389 1.399 . S
C390 C391 1.385 . S
C391 H377 0.931 . S
C391 C390 1.385 . S
C391 C392 1.389 . S
C392 C391 1.389 . S
C392 C393 1.387 . S
C393 H378 0.930 . S
C393 C388 1.390 . S
C393 C392 1.387 . S
H394 C406 0.930 . S
H395 C408 0.930 . S
H396 C409 0.930 . S
H397 C413 0.959 . S
H398 C413 0.959 . S
H399 C413 0.961 . S
H400 C414 0.960 . S
H401 C414 0.961 . S
H402 C414 0.959 . S
H403 C417 0.929 . S
H404 C418 0.931 . S
H405 C420 0.930 . S
C406 H394 0.930 . S
C406 C407 1.399 . S
C406 C411 1.399 . S
C407 C406 1.399 . S
C407 C408 1.376 . S
C408 H395 0.930 . S
C408 C407 1.376 . S
C408 C409 1.388 . S
C409 H396 0.930 . S
C409 C408 1.388 . S
C409 C410 1.390 . S
C410 C409 1.390 . S
C410 C411 1.394 . S
C410 C416 1.465 . S
C411 C406 1.399 . S
C411 C410 1.394 . S
C411 C412 1.516 . S
C412 C411 1.516 . S
C412 C413 1.502 . S
C412 C414 1.561 . S
C412 C415 1.526 . S
C413 H397 0.959 . S
C413 H398 0.959 . S
C413 H399 0.961 . S
C413 C412 1.502 . S
C414 H400 0.960 . S
C414 H401 0.961 . S
C414 H402 0.959 . S
C414 C412 1.561 . S
C415 C412 1.526 . S
C415 C416 1.396 . S
C415 C420 1.390 1_655 S
C416 C410 1.465 . S
C416 C415 1.396 . S
C416 C417 1.399 . S
C417 H403 0.929 . S
C417 C416 1.399 . S
C417 C418 1.385 1_655 S
C418 H404 0.931 . S
C418 C417 1.385 1_455 S
C418 C419 1.389 . S
C419 C418 1.389 . S
C419 C420 1.387 . S
C420 H405 0.930 . S
C420 C415 1.390 1_455 S
C420 C419 1.387 . S
H421 C433 0.930 . S
H422 C435 0.930 . S
H423 C436 0.930 . S
H424 C440 0.959 . S
H425 C440 0.959 . S
H426 C440 0.961 . S
H427 C441 0.960 . S
H428 C441 0.961 . S
H429 C441 0.959 . S
H430 C444 0.929 . S
H431 C445 0.931 . S
H432 C447 0.930 . S
C433 H421 0.930 . S
C433 C434 1.399 . S
C433 C438 1.399 . S
C434 C433 1.399 . S
C434 C435 1.376 . S
C435 H422 0.930 . S
C435 C434 1.376 . S
C435 C436 1.388 . S
C436 H423 0.930 . S
C436 C435 1.388 . S
C436 C437 1.390 . S
C437 C436 1.390 . S
C437 C438 1.394 . S
C437 C443 1.465 . S
C438 C433 1.399 . S
C438 C437 1.394 . S
C438 C439 1.516 . S
C439 C438 1.516 . S
C439 C440 1.502 . S
C439 C441 1.561 . S
C439 C442 1.526 . S
C440 H424 0.959 . S
C440 H425 0.959 . S
C440 H426 0.961 . S
C440 C439 1.502 . S
C441 H427 0.960 . S
C441 H428 0.961 . S
C441 H429 0.959 . S
C441 C439 1.561 . S
C442 C439 1.526 . S
C442 C443 1.396 . S
C442 C447 1.390 . S
C443 C437 1.465 . S
C443 C442 1.396 . S
C443 C444 1.399 . S
C444 H430 0.929 . S
C444 C443 1.399 . S
C444 C445 1.385 . S
C445 H431 0.931 . S
C445 C444 1.385 . S
C445 C446 1.389 . S
C446 C445 1.389 . S
C446 C447 1.387 . S
C447 H432 0.930 . S
C447 C442 1.390 . S
C447 C446 1.387 . S
H448 C460 0.930 . S
H449 C462 0.930 . S
H450 C463 0.930 . S
H451 C467 0.959 . S
H452 C467 0.959 . S
H453 C467 0.961 . S
H454 C468 0.951 1_455 S
H455 C468 0.973 . S
H456 C468 0.977 . S
H457 C471 0.929 1_545 S
H458 C472 0.931 . S
H459 C474 0.930 . S
C460 H448 0.930 . S
C460 C461 1.399 1_565 S
C460 C465 1.399 . S
C461 C460 1.399 1_545 S
C461 C462 1.376 . S
C462 H449 0.930 . S
C462 C461 1.376 . S
C462 C463 1.388 . S
C463 H450 0.930 . S
C463 C462 1.388 . S
C463 C464 1.390 1_545 S
C464 C463 1.390 1_565 S
C464 C465 1.394 . S
C464 C470 1.465 . S
C465 C460 1.399 . S
C465 C464 1.394 . S
C465 C466 1.516 . S
C466 C465 1.516 . S
C466 C467 1.502 . S
C466 C468 1.542 1_455 S
C466 C469 1.526 . S
C467 H451 0.959 . S
C467 H452 0.959 . S
C467 H453 0.961 . S
C467 C466 1.502 . S
C468 H454 0.951 1_655 S
C468 H455 0.973 . S
C468 H456 0.977 . S
C468 C466 1.542 1_655 S
C469 C466 1.526 . S
C469 C470 1.396 . S
C469 C474 1.390 1_455 S
C470 C464 1.465 . S
C470 C469 1.396 . S
C470 C471 1.399 . S
C471 H457 0.929 1_565 S
C471 C470 1.399 . S
C471 C472 1.385 1_455 S
C472 H458 0.931 . S
C472 C471 1.385 1_655 S
C472 C473 1.389 . S
C473 C472 1.389 . S
C473 C474 1.387 . S
C474 H459 0.930 . S
C474 C469 1.390 1_655 S
C474 C473 1.387 . S
H475 C487 0.930 . S
H476 C489 0.930 . S
H477 C490 0.930 . S
H478 C494 0.959 . S
H479 C494 0.959 . S
H480 C494 0.961 . S
H481 C495 0.960 . S
H482 C495 0.961 . S
H483 C495 0.959 . S
H484 C498 0.929 . S
H485 C499 0.931 . S
H486 C501 0.930 . S
C487 H475 0.930 . S
C487 C488 1.399 . S
C487 C492 1.399 . S
C488 C487 1.399 . S
C488 C489 1.376 . S
C489 H476 0.930 . S
C489 C488 1.376 . S
C489 C490 1.388 . S
C490 H477 0.930 . S
C490 C489 1.388 . S
C490 C491 1.390 . S
C491 C490 1.390 . S
C491 C492 1.394 . S
C491 C497 1.465 . S
C492 C487 1.399 . S
C492 C491 1.394 . S
C492 C493 1.516 . S
C493 C492 1.516 . S
C493 C494 1.502 . S
C493 C495 1.561 . S
C493 C496 1.526 . S
C494 H478 0.959 . S
C494 H479 0.959 . S
C494 H480 0.961 . S
C494 C493 1.502 . S
C495 H481 0.960 . S
C495 H482 0.961 . S
C495 H483 0.959 . S
C495 C493 1.561 . S
C496 C493 1.526 . S
C496 C497 1.396 . S
C496 C501 1.390 . S
C497 C491 1.465 . S
C497 C496 1.396 . S
C497 C498 1.399 . S
C498 H484 0.929 . S
C498 C497 1.399 . S
C498 C499 1.385 . S
C499 H485 0.931 . S
C499 C498 1.385 . S
C499 C500 1.389 . S
C500 C499 1.389 . S
C500 C501 1.387 . S
C501 H486 0.930 . S
C501 C496 1.390 . S
C501 C500 1.387 . S
H502 C514 0.930 . S
H503 C516 0.930 . S
H504 C517 0.930 . S
H505 C521 0.959 1_455 S
H506 C521 0.959 . S
H507 C521 0.961 . S
H508 C522 0.960 . S
H509 C522 0.961 . S
H510 C522 0.959 . S
H511 C525 0.929 . S
H512 C526 0.931 . S
H513 C528 0.930 . S
C514 H502 0.930 . S
C514 C515 1.399 . S
C514 C519 1.399 1_455 S
C515 C514 1.399 . S
C515 C516 1.376 . S
C516 H503 0.930 . S
C516 C515 1.376 . S
C516 C517 1.388 1_455 S
C517 H504 0.930 . S
C517 C516 1.388 1_655 S
C517 C518 1.390 . S
C518 C517 1.390 . S
C518 C519 1.394 . S
C518 C524 1.465 . S
C519 C514 1.399 1_655 S
C519 C518 1.394 . S
C519 C520 1.516 . S
C520 C519 1.516 . S
C520 C521 1.502 . S
C520 C522 1.561 . S
C520 C523 1.526 . S
C521 H505 0.959 1_655 S
C521 H506 0.959 . S
C521 H507 0.961 . S
C521 C520 1.502 . S
C522 H508 0.960 . S
C522 H509 0.961 . S
C522 H510 0.959 . S
C522 C520 1.561 . S
C523 C520 1.526 . S
C523 C524 1.396 . S
C523 C528 1.390 . S
C524 C518 1.465 . S
C524 C523 1.396 . S
C524 C525 1.399 1_545 S
C525 H511 0.929 . S
C525 C524 1.399 1_565 S
C525 C526 1.385 . S
C526 H512 0.931 . S
C526 C525 1.385 . S
C526 C527 1.389 . S
C527 C526 1.389 . S
C527 C528 1.387 1_565 S
C528 H513 0.930 . S
C528 C523 1.390 . S
C528 C527 1.387 1_545 S
H529 C541 0.930 . S
H530 C543 0.930 . S
H531 C544 0.930 1_556 S
H532 C548 0.959 . S
H533 C548 0.959 . S
H534 C548 0.961 . S
H535 C549 0.960 . S
H536 C549 0.961 . S
H537 C549 0.959 1_556 S
H538 C552 0.929 . S
H539 C553 0.931 . S
H540 C555 0.930 . S
C541 H529 0.930 . S
C541 C542 1.399 . S
C541 C546 1.399 . S
C542 C541 1.399 . S
C542 C543 1.376 . S
C543 H530 0.930 . S
C543 C542 1.376 . S
C543 C544 1.388 . S
C544 H531 0.930 1_554 S
C544 C543 1.388 . S
C544 C545 1.390 . S
C545 C544 1.390 . S
C545 C546 1.394 . S
C545 C551 1.465 1_554 S
C546 C541 1.399 . S
C546 C545 1.394 . S
C546 C547 1.516 . S
C547 C546 1.516 . S
C547 C548 1.502 . S
C547 C549 1.561 . S
C547 C550 1.526 1_554 S
C548 H532 0.959 . S
C548 H533 0.959 . S
C548 H534 0.961 . S
C548 C547 1.502 . S
C549 H535 0.960 . S
C549 H536 0.961 . S
C549 H537 0.959 1_554 S
C549 C547 1.561 . S
C550 C547 1.526 1_556 S
C550 C551 1.396 . S
C550 C555 1.390 . S
C551 C545 1.465 1_556 S
C551 C550 1.396 . S
C551 C552 1.399 . S
C552 H538 0.929 . S
C552 C551 1.399 . S
C552 C553 1.385 . S
C553 H539 0.931 . S
C553 C552 1.385 . S
C553 C554 1.389 . S
C554 C553 1.389 . S
C554 C555 1.387 . S
C555 H540 0.930 . S
C555 C550 1.390 . S
C555 C554 1.387 . S
C137 C19 1.249 . S
C149 C30 1.332 . S
C164 C50 1.256 . S
C176 C61 1.296 1_556 S
C191 C72 1.267 . S
C203 C62 1.294 . S
C218 C103 1.271 1_554 S
C230 C93 1.322 . S
C245 C123 1.408 . S
C257 C1 1.597 . S
C272 C32 1.768 . S
C284 C0 1.732 . S
C299 C91 1.954 . S
C311 C31 1.911 . S
C326 C122 1.871 . S
C338 C92 1.724 . S
C353 C10 1.453 . S
C365 C113 1.637 . S
C380 C41 1.670 . S
C392 C2 1.860 . S
C407 C33 1.991 . S
C419 C81 1.958 . S
C434 C82 1.754 . S
C446 C112 1.721 . S
C461 C63 0.360 . S
C473 C20 0.320 . S
C488 C51 0.444 . S
C500 C94 0.503 . S
C515 C64 0.544 . S
C527 C29 0.598 . S
C542 C60 0.680 . S
C554 C95 0.646 . S
