# Generated by pormake.
# Topology umh, (4)-cn, num edge types: 1
# Building blocks:
#     Node 0, Type 0, BuildingBlock: ICAMEG_clean_sbu_1, # of connection points: 4
#     Node 1, Type 0, BuildingBlock: ICAMEG_clean_sbu_1, # of connection points: 4
#     Node 2, Type 0, BuildingBlock: ICAMEG_clean_sbu_1, # of connection points: 4
#     Node 3, Type 0, BuildingBlock: ICAMEG_clean_sbu_1, # of connection points: 4
#     Node 4, Type 0, BuildingBlock: ICAMEG_clean_sbu_1, # of connection points: 4
#     Node 5, Type 0, BuildingBlock: ICAMEG_clean_sbu_1, # of connection points: 4
#     Node 6, Type 0, BuildingBlock: ICAMEG_clean_sbu_1, # of connection points: 4
#     Node 7, Type 0, BuildingBlock: ICAMEG_clean_sbu_1, # of connection points: 4
#     Node 8, Type 0, BuildingBlock: ICAMEG_clean_sbu_1, # of connection points: 4
#     Node 9, Type 0, BuildingBlock: ICAMEG_clean_sbu_1, # of connection points: 4
#     Node 10, Type 0, BuildingBlock: ICAMEG_clean_sbu_1, # of connection points: 4
#     Node 11, Type 0, BuildingBlock: ICAMEG_clean_sbu_1, # of connection points: 4
#     Node 12, Type 0, BuildingBlock: ICAMEG_clean_sbu_1, # of connection points: 4
#     Node 13, Type 0, BuildingBlock: ICAMEG_clean_sbu_1, # of connection points: 4
#     Node 14, Type 0, BuildingBlock: ICAMEG_clean_sbu_1, # of connection points: 4
#     Node 15, Type 0, BuildingBlock: ICAMEG_clean_sbu_1, # of connection points: 4
#     Edge 16, Type (0, 0), BuildingBlock: TEMPAE_clean_linker_10, # of connection points: 2
#     Edge 17, Type (0, 0), BuildingBlock: TEMPAE_clean_linker_10, # of connection points: 2
#     Edge 18, Type (0, 0), BuildingBlock: TEMPAE_clean_linker_10, # of connection points: 2
#     Edge 19, Type (0, 0), BuildingBlock: TEMPAE_clean_linker_10, # of connection points: 2
#     Edge 20, Type (0, 0), BuildingBlock: TEMPAE_clean_linker_10, # of connection points: 2
#     Edge 21, Type (0, 0), BuildingBlock: TEMPAE_clean_linker_10, # of connection points: 2
#     Edge 22, Type (0, 0), BuildingBlock: TEMPAE_clean_linker_10, # of connection points: 2
#     Edge 23, Type (0, 0), BuildingBlock: TEMPAE_clean_linker_10, # of connection points: 2
#     Edge 24, Type (0, 0), BuildingBlock: TEMPAE_clean_linker_10, # of connection points: 2
#     Edge 25, Type (0, 0), BuildingBlock: TEMPAE_clean_linker_10, # of connection points: 2
#     Edge 26, Type (0, 0), BuildingBlock: TEMPAE_clean_linker_10, # of connection points: 2
#     Edge 27, Type (0, 0), BuildingBlock: TEMPAE_clean_linker_10, # of connection points: 2
#     Edge 28, Type (0, 0), BuildingBlock: TEMPAE_clean_linker_10, # of connection points: 2
#     Edge 29, Type (0, 0), BuildingBlock: TEMPAE_clean_linker_10, # of connection points: 2
#     Edge 30, Type (0, 0), BuildingBlock: TEMPAE_clean_linker_10, # of connection points: 2
#     Edge 31, Type (0, 0), BuildingBlock: TEMPAE_clean_linker_10, # of connection points: 2
#     Edge 32, Type (0, 0), BuildingBlock: TEMPAE_clean_linker_10, # of connection points: 2
#     Edge 33, Type (0, 0), BuildingBlock: TEMPAE_clean_linker_10, # of connection points: 2
#     Edge 34, Type (0, 0), BuildingBlock: TEMPAE_clean_linker_10, # of connection points: 2
#     Edge 35, Type (0, 0), BuildingBlock: TEMPAE_clean_linker_10, # of connection points: 2
#     Edge 36, Type (0, 0), BuildingBlock: TEMPAE_clean_linker_10, # of connection points: 2
#     Edge 37, Type (0, 0), BuildingBlock: TEMPAE_clean_linker_10, # of connection points: 2
#     Edge 38, Type (0, 0), BuildingBlock: TEMPAE_clean_linker_10, # of connection points: 2
#     Edge 39, Type (0, 0), BuildingBlock: TEMPAE_clean_linker_10, # of connection points: 2
#     Edge 40, Type (0, 0), BuildingBlock: TEMPAE_clean_linker_10, # of connection points: 2
#     Edge 41, Type (0, 0), BuildingBlock: TEMPAE_clean_linker_10, # of connection points: 2
#     Edge 42, Type (0, 0), BuildingBlock: TEMPAE_clean_linker_10, # of connection points: 2
#     Edge 43, Type (0, 0), BuildingBlock: TEMPAE_clean_linker_10, # of connection points: 2
#     Edge 44, Type (0, 0), BuildingBlock: TEMPAE_clean_linker_10, # of connection points: 2
#     Edge 45, Type (0, 0), BuildingBlock: TEMPAE_clean_linker_10, # of connection points: 2
#     Edge 46, Type (0, 0), BuildingBlock: TEMPAE_clean_linker_10, # of connection points: 2
#     Edge 47, Type (0, 0), BuildingBlock: TEMPAE_clean_linker_10, # of connection points: 2
# Relax obj value: 0.087
# Max RMSD: 0.247
# Mean RMSD: 0.247
data_MOF--net-umh--node1-ICAMEG_clean_sbu_1--edge1-TEMPAE_clean_linker_10
_symmetry_space_group_name_H-M    P1
_symmetry_Int_Tables_number       1
_symmetry_cell_setting            triclinic
loop_
_symmetry_equiv_pos_as_xyz
'x, y, z'
_cell_length_a     43.007776
_cell_length_b     43.01664
_cell_length_c     57.650003
_cell_angle_alpha  89.989126
_cell_angle_beta   90.036079
_cell_angle_gamma 90.092705
loop_
_atom_site_label
_atom_site_type_symbol
_atom_site_fract_x
_atom_site_fract_y
_atom_site_fract_z
_atom_type_partial_charge
Co0 Co 0.31001 0.08286 0.13053 0.0
Co1 Co 0.36638 0.11563 0.16581 0.0
O2 O 0.35296 0.08868 0.14046 0.0
C3 C 0.34355 0.10785 0.09022 0.0
O4 O 0.358 0.12604 0.10495 0.0
C5 C 0.38658 0.05267 0.1779 0.0
O6 O 0.35858 0.04371 0.1718 0.0
O7 O 0.33241 0.10048 0.18617 0.0
O8 O 0.29607 0.07802 0.16356 0.0
H9 H 0.35208 0.19293 0.23026 0.0
H10 H 0.35962 0.04438 0.10944 0.0
O11 O 0.32312 0.08851 0.09729 0.0
H12 H 0.28797 0.96993 0.1466 0.0
H13 H 0.22608 0.04141 0.07804 0.0
H14 H 0.24874 0.10523 0.14709 0.0
H15 H 0.27744 0.02627 0.14796 0.0
H16 H 0.28008 0.04842 0.09161 0.0
O17 O 0.39396 0.08137 0.17733 0.0
H18 H 0.33507 0.15944 0.19793 0.0
H19 H 0.42763 0.12777 0.18824 0.0
H20 H 0.1944 0.09867 0.13424 0.0
H21 H 0.37086 0.98822 0.10741 0.0
H22 H 0.1828 0.06656 0.09947 0.0
H23 H 0.33497 0.9506 0.12618 0.0
O24 O 0.30178 0.12806 0.13231 0.0
H25 H 0.45495 0.10406 0.10966 0.0
H26 H 0.39001 0.17849 0.15297 0.0
H27 H 0.43101 0.19813 0.12685 0.0
H28 H 0.46379 0.16078 0.10497 0.0
H29 H 0.41358 0.08544 0.13583 0.0
H30 H 0.44564 0.16074 0.22061 0.0
H31 H 0.40775 0.19372 0.2418 0.0
O32 O 0.33866 0.14991 0.15472 0.0
C33 C 0.30643 0.08666 0.18334 0.0
C34 C 0.36884 0.17876 0.22111 0.0
C35 C 0.42134 0.16065 0.21571 0.0
N36 N 0.38039 0.1419 0.19108 0.0
C37 C 0.35936 0.15983 0.20273 0.0
C38 C 0.41101 0.14199 0.19743 0.0
C39 C 0.40007 0.17916 0.22759 0.0
C40 C 0.3437 0.02812 0.1174 0.0
N41 N 0.31781 0.03855 0.12868 0.0
C42 C 0.35024 0.99636 0.11627 0.0
C43 C 0.33012 0.97526 0.12685 0.0
C44 C 0.30377 0.9861 0.13833 0.0
C45 C 0.29796 0.01802 0.1391 0.0
C46 C 0.23083 0.05539 0.09325 0.0
C47 C 0.24384 0.09103 0.13206 0.0
C48 C 0.26135 0.05946 0.10099 0.0
N49 N 0.26749 0.07696 0.12025 0.0
C50 C 0.21304 0.08748 0.12481 0.0
C51 C 0.20656 0.0695 0.10529 0.0
C52 C 0.31427 0.1515 0.14212 0.0
C53 C 0.44089 0.12056 0.11917 0.0
C54 C 0.4042 0.16211 0.14351 0.0
C55 C 0.4274 0.17336 0.12877 0.0
C56 C 0.4458 0.15239 0.11651 0.0
N57 N 0.39954 0.13085 0.14603 0.0
C58 C 0.41753 0.11015 0.1341 0.0
Co59 Co 0.40541 0.3146 0.62918 0.0
Co60 Co 0.3719 0.37049 0.66423 0.0
O61 O 0.39889 0.35746 0.63894 0.0
C62 C 0.38069 0.34714 0.5884 0.0
O63 O 0.36132 0.36046 0.60283 0.0
C64 C 0.43327 0.39438 0.67778 0.0
O65 O 0.44337 0.36575 0.67583 0.0
O66 O 0.38977 0.33856 0.68525 0.0
O67 O 0.40916 0.30072 0.6623 0.0
H68 H 0.29782 0.35499 0.73063 0.0
H69 H 0.44402 0.36502 0.60917 0.0
O70 O 0.40074 0.32767 0.5958 0.0
H71 H 0.51788 0.29457 0.64806 0.0
H72 H 0.44978 0.23139 0.57763 0.0
H73 H 0.38299 0.253 0.64522 0.0
H74 H 0.46171 0.28282 0.64775 0.0
H75 H 0.4417 0.28524 0.59108 0.0
O76 O 0.40483 0.40086 0.67393 0.0
H77 H 0.33142 0.33829 0.69829 0.0
H78 H 0.35668 0.43208 0.68491 0.0
H79 H 0.39057 0.19881 0.63245 0.0
H80 H 0.50001 0.37763 0.60898 0.0
H81 H 0.42417 0.18774 0.59842 0.0
H82 H 0.53734 0.3423 0.62858 0.0
O83 O 0.36034 0.30572 0.63018 0.0
H84 H 0.37607 0.45648 0.60526 0.0
H85 H 0.30727 0.38942 0.65202 0.0
H86 H 0.28426 0.4277 0.62519 0.0
H87 H 0.31876 0.46157 0.60158 0.0
H88 H 0.39808 0.41768 0.63211 0.0
H89 H 0.32357 0.44979 0.71725 0.0
H90 H 0.29374 0.41111 0.74028 0.0
O91 O 0.33891 0.34013 0.65475 0.0
C92 C 0.4026 0.31219 0.68214 0.0
C93 C 0.31061 0.37208 0.72067 0.0
C94 C 0.3251 0.42528 0.71318 0.0
N95 N 0.34571 0.38423 0.68959 0.0
C96 C 0.32959 0.36277 0.70229 0.0
C97 C 0.34384 0.41512 0.69492 0.0
C98 C 0.30836 0.40357 0.72609 0.0
C99 C 0.46018 0.34939 0.61753 0.0
N100 N 0.44967 0.32311 0.62831 0.0
C101 C 0.49183 0.35671 0.61745 0.0
C102 C 0.51276 0.3369 0.62848 0.0
C103 C 0.50185 0.31012 0.63942 0.0
C104 C 0.47003 0.30359 0.6392 0.0
C105 C 0.43515 0.23591 0.59251 0.0
C106 C 0.39784 0.24834 0.6305 0.0
C107 C 0.43047 0.26634 0.60019 0.0
N108 N 0.41215 0.27219 0.61904 0.0
C109 C 0.40195 0.21762 0.62331 0.0
C110 C 0.42078 0.21143 0.60419 0.0
C111 C 0.33725 0.31653 0.64137 0.0
C112 C 0.3608 0.44196 0.61553 0.0
C113 C 0.32243 0.40407 0.6418 0.0
C114 C 0.30927 0.42574 0.62667 0.0
C115 C 0.32864 0.44475 0.61344 0.0
N116 N 0.35399 0.40148 0.64376 0.0
C117 C 0.37313 0.42008 0.63088 0.0
Co118 Co 0.16591 0.40755 0.13189 0.0
Co119 Co 0.11572 0.36257 0.16443 0.0
O120 O 0.12483 0.39245 0.14015 0.0
C121 C 0.14267 0.37692 0.08965 0.0
O122 O 0.13555 0.35367 0.1034 0.0
C123 C 0.08252 0.41869 0.17912 0.0
O124 O 0.10953 0.43276 0.17804 0.0
O125 O 0.14422 0.38379 0.18654 0.0
O126 O 0.17725 0.41305 0.16547 0.0
H127 H 0.141 0.28795 0.22881 0.0
H128 H 0.10965 0.43584 0.11095 0.0
O129 O 0.1551 0.40145 0.09808 0.0
H130 H 0.16204 0.52105 0.15285 0.0
H131 H 0.24085 0.46931 0.0832 0.0
H132 H 0.22996 0.39785 0.14962 0.0
H133 H 0.18509 0.46857 0.15181 0.0
H134 H 0.18916 0.44986 0.09491 0.0
O135 O 0.08021 0.38982 0.1744 0.0
H136 H 0.15306 0.32541 0.1977 0.0
H137 H 0.0568 0.33683 0.18363 0.0
H138 H 0.28205 0.41689 0.13863 0.0
H139 H 0.08577 0.48795 0.11154 0.0
H140 H 0.28772 0.45289 0.10519 0.0
H141 H 0.11195 0.53095 0.13269 0.0
O142 O 0.18372 0.36489 0.13301 0.0
H143 H 0.03236 0.35613 0.10345 0.0
H144 H 0.10754 0.2965 0.15023 0.0
H145 H 0.07436 0.26908 0.12191 0.0
H146 H 0.03642 0.29895 0.0983 0.0
H147 H 0.06618 0.38263 0.13182 0.0
H148 H 0.04367 0.29963 0.21474 0.0
H149 H 0.08596 0.27482 0.2375 0.0
O150 O 0.15119 0.33577 0.15461 0.0
C151 C 0.16754 0.40206 0.18479 0.0
C152 C 0.12237 0.29852 0.21897 0.0
C153 C 0.06774 0.30512 0.21109 0.0
N154 N 0.10566 0.3331 0.18876 0.0
C155 C 0.12905 0.31968 0.20128 0.0
C156 C 0.07531 0.32621 0.19354 0.0
C157 C 0.09148 0.29119 0.22385 0.0
C158 C 0.12135 0.45453 0.11997 0.0
N159 N 0.14882 0.44924 0.13121 0.0
C160 C 0.10766 0.48395 0.12032 0.0
C161 C 0.12234 0.50806 0.13222 0.0
C162 C 0.15043 0.50251 0.14355 0.0
C163 C 0.16338 0.47276 0.1429 0.0
C164 C 0.23867 0.45368 0.09783 0.0
C165 C 0.23223 0.41367 0.13514 0.0
C166 C 0.20949 0.44256 0.1045 0.0
N167 N 0.20656 0.42296 0.12303 0.0
C168 C 0.26179 0.4243 0.12896 0.0
C169 C 0.26496 0.44447 0.11018 0.0
C170 C 0.17614 0.33941 0.1429 0.0
C171 C 0.0487 0.34284 0.11371 0.0
C172 C 0.09105 0.30964 0.14004 0.0
C173 C 0.07232 0.29399 0.12404 0.0
C174 C 0.05103 0.31077 0.1108 0.0
N175 N 0.08857 0.34109 0.14284 0.0
C176 C 0.06779 0.3577 0.12989 0.0
Co177 Co 0.07737 0.17679 0.63048 0.0
Co178 Co 0.1173 0.12422 0.66482 0.0
O179 O 0.08896 0.1347 0.63958 0.0
C180 C 0.10594 0.14819 0.58936 0.0
O181 O 0.12648 0.1364 0.60365 0.0
C182 C 0.05817 0.09381 0.67571 0.0
O183 O 0.0451 0.12041 0.6704 0.0
O184 O 0.09694 0.15438 0.68594 0.0
O185 O 0.07136 0.18905 0.66381 0.0
H186 H 0.19087 0.14703 0.73041 0.0
H187 H 0.04543 0.12301 0.6088 0.0
O188 O 0.08408 0.16545 0.59694 0.0
H189 H 0.96289 0.18251 0.64806 0.0
H190 H 0.02401 0.25574 0.57987 0.0
H191 H 0.09162 0.24008 0.64799 0.0
H192 H 0.0173 0.20078 0.64896 0.0
H193 H 0.03856 0.20284 0.59236 0.0
O194 O 0.08764 0.09103 0.67517 0.0
H195 H 0.15551 0.16027 0.69822 0.0
H196 H 0.13846 0.06446 0.68564 0.0
H197 H 0.07746 0.29334 0.63623 0.0
H198 H 0.9913 0.10405 0.60727 0.0
H199 H 0.04342 0.30143 0.60193 0.0
H200 H 0.94963 0.13381 0.62709 0.0
O201 O 0.12112 0.19112 0.6322 0.0
H202 H 0.12004 0.03797 0.60606 0.0
H203 H 0.18317 0.11137 0.65201 0.0
H204 H 0.20914 0.07535 0.62496 0.0
H205 H 0.1775 0.03832 0.60175 0.0
H206 H 0.09502 0.07452 0.63317 0.0
H207 H 0.17348 0.05016 0.71783 0.0
H208 H 0.20005 0.09161 0.7404 0.0
O209 O 0.14699 0.15742 0.65492 0.0
C210 C 0.08053 0.17884 0.6835 0.0
C211 C 0.17952 0.12875 0.72066 0.0
C212 C 0.16971 0.07439 0.71361 0.0
N213 N 0.14514 0.11316 0.68995 0.0
C214 C 0.15954 0.1361 0.70236 0.0
C215 C 0.14987 0.08262 0.69544 0.0
C216 C 0.18463 0.09766 0.72627 0.0
C217 C 0.02736 0.13629 0.61722 0.0
N218 N 0.03446 0.16307 0.62882 0.0
C219 C -0.00323 0.12537 0.61637 0.0
C220 C 0.97341 0.14205 0.62754 0.0
C221 C 0.98084 0.16936 0.63933 0.0
C222 C 0.01169 0.17956 0.63981 0.0
C223 C 0.03879 0.25251 0.59488 0.0
C224 C 0.07661 0.2434 0.63315 0.0
C225 C 0.04714 0.22263 0.602 0.0
N226 N 0.06567 0.2184 0.621 0.0
C227 C 0.06876 0.27362 0.62653 0.0
C228 C 0.04969 0.27814 0.60727 0.0
C229 C 0.14565 0.18202 0.64257 0.0
C230 C 0.13409 0.0539 0.61615 0.0
C231 C 0.16926 0.09531 0.64197 0.0
C232 C 0.18409 0.07494 0.62671 0.0
C233 C 0.16632 0.05416 0.61371 0.0
N234 N 0.13763 0.09491 0.64427 0.0
C235 C 0.12006 0.07455 0.63161 0.0
Co236 Co 0.30587 0.41365 0.37911 0.0
Co237 Co 0.36115 0.37866 0.34421 0.0
O238 O 0.34864 0.40596 0.36955 0.0
C239 C 0.33773 0.38706 0.41966 0.0
O240 O 0.35112 0.36804 0.405 0.0
C241 C 0.38488 0.4406 0.33276 0.0
O242 O 0.35717 0.45079 0.33839 0.0
O243 O 0.32848 0.39573 0.32356 0.0
O244 O 0.29254 0.41909 0.34591 0.0
H245 H 0.34405 0.30292 0.27908 0.0
H246 H 0.35692 0.44989 0.40072 0.0
O247 O 0.31838 0.40739 0.4125 0.0
H248 H 0.28953 0.52743 0.36283 0.0
H249 H 0.22342 0.45888 0.43094 0.0
H250 H 0.24377 0.39412 0.36204 0.0
H251 H 0.27635 0.47162 0.36134 0.0
H252 H 0.27718 0.44934 0.41782 0.0
O253 O 0.3908 0.41159 0.3333 0.0
H254 H 0.32819 0.33688 0.31142 0.0
H255 H 0.42213 0.36364 0.32249 0.0
H256 H 0.18966 0.40323 0.37443 0.0
H257 H 0.37077 0.50549 0.4029 0.0
H258 H 0.17922 0.43582 0.40912 0.0
H259 H 0.33704 0.54467 0.38376 0.0
O260 O 0.29549 0.36887 0.3772 0.0
H261 H 0.44899 0.38505 0.40156 0.0
H262 H 0.38104 0.31453 0.35693 0.0
H263 H 0.42033 0.29253 0.38344 0.0
H264 H 0.45463 0.3279 0.40598 0.0
H265 H 0.40927 0.40605 0.375 0.0
H266 H 0.43901 0.33013 0.29013 0.0
H267 H 0.39983 0.29938 0.26824 0.0
O268 O 0.33137 0.34573 0.35472 0.0
C269 C 0.30297 0.41039 0.32617 0.0
C270 C 0.36136 0.3161 0.28853 0.0
C271 C 0.41465 0.33142 0.29472 0.0
N272 N 0.37425 0.35199 0.31895 0.0
C273 C 0.35253 0.33529 0.30692 0.0
C274 C 0.40495 0.35039 0.31299 0.0
C275 C 0.39265 0.31416 0.28245 0.0
C276 C 0.34192 0.46684 0.3926 0.0
N277 N 0.31576 0.45756 0.38105 0.0
C278 C 0.34994 0.49828 0.39382 0.0
C279 C 0.33103 0.52024 0.38304 0.0
C280 C 0.3044 0.51058 0.37126 0.0
C281 C 0.29709 0.47895 0.37043 0.0
C282 C 0.22767 0.4447 0.41576 0.0
C283 C 0.23939 0.40852 0.37704 0.0
C284 C 0.25805 0.43919 0.40828 0.0
N285 N 0.26355 0.42144 0.38906 0.0
C286 C 0.20871 0.41351 0.38403 0.0
C287 C 0.20288 0.43177 0.40351 0.0
C288 C 0.30682 0.34507 0.36717 0.0
C289 C 0.43427 0.3694 0.39176 0.0
C290 C 0.3959 0.33006 0.36668 0.0
C291 C 0.41812 0.31748 0.38164 0.0
C292 C 0.43738 0.33733 0.39427 0.0
N293 N 0.393 0.36154 0.36432 0.0
C294 C 0.41184 0.38116 0.37661 0.0
Co295 Co 0.08236 0.32031 0.87558 0.0
Co296 Co 0.12622 0.37031 0.84206 0.0
O297 O 0.09692 0.36136 0.86675 0.0
C298 C 0.11323 0.34464 0.91742 0.0
O299 O 0.13645 0.35143 0.90357 0.0
C300 C 0.06981 0.4036 0.82783 0.0
O301 O 0.05569 0.3766 0.82868 0.0
O302 O 0.10452 0.34154 0.82037 0.0
O303 O 0.07652 0.30827 0.84221 0.0
H304 H 0.19965 0.34458 0.77707 0.0
H305 H 0.05377 0.37671 0.89603 0.0
O306 O 0.08874 0.33187 0.90921 0.0
H307 H 0.96847 0.32248 0.85552 0.0
H308 H 0.02211 0.2457 0.92561 0.0
H309 H 0.09246 0.25603 0.85851 0.0
H310 H 0.02125 0.30008 0.85636 0.0
H311 H 0.04081 0.29734 0.91315 0.0
O312 O 0.09877 0.40571 0.8323 0.0
H313 H 0.16286 0.33274 0.80866 0.0
H314 H 0.15133 0.42909 0.82216 0.0
H315 H 0.07416 0.20399 0.87025 0.0
H316 H 0.00136 0.39995 0.89562 0.0
H317 H 0.03873 0.19859 0.90403 0.0
H318 H 0.95831 0.37283 0.87519 0.0
O319 O 0.1252 0.30289 0.87435 0.0
H320 H 0.13392 0.454 0.90265 0.0
H321 H 0.19264 0.37885 0.85529 0.0
H322 H 0.22067 0.4123 0.8831 0.0
H323 H 0.19126 0.45024 0.907 0.0
H324 H 0.10682 0.41991 0.8748 0.0
H325 H 0.18786 0.44201 0.79058 0.0
H326 H 0.21239 0.39956 0.76786 0.0
O327 O 0.1533 0.33505 0.85174 0.0
C328 C 0.08674 0.3179 0.82264 0.0
C329 C 0.18919 0.36328 0.78689 0.0
C330 C 0.18253 0.41796 0.79445 0.0
N331 N 0.15512 0.3802 0.81733 0.0
C332 C 0.1684 0.35672 0.80484 0.0
C333 C 0.16181 0.41052 0.81227 0.0
C334 C 0.1963 0.39413 0.78172 0.0
C335 C 0.03507 0.36461 0.88731 0.0
N336 N 0.0405 0.33698 0.87636 0.0
C337 C 0.00547 0.37794 0.88706 0.0
C338 C 0.98134 0.36273 0.87556 0.0
C339 C 0.98703 0.33449 0.86451 0.0
C340 C 0.01695 0.32192 0.86505 0.0
C341 C 0.03749 0.24776 0.91083 0.0
C342 C 0.07688 0.25388 0.87313 0.0
C343 C 0.04819 0.27692 0.90373 0.0
N344 N 0.06749 0.27968 0.88502 0.0
C345 C 0.06667 0.22435 0.87974 0.0
C346 C 0.04682 0.22133 0.89871 0.0
C347 C 0.15027 0.31039 0.86387 0.0
C348 C 0.14702 0.43767 0.89226 0.0
C349 C 0.1797 0.39533 0.86561 0.0
C350 C 0.19569 0.41422 0.88131 0.0
C351 C 0.17918 0.43551 0.89471 0.0
N352 N 0.14817 0.39767 0.86325 0.0
C353 C 0.13181 0.41843 0.87636 0.0
Co354 Co 0.16913 0.08439 0.37715 0.0
Co355 Co 0.11465 0.12478 0.345 0.0
O356 O 0.12662 0.09521 0.36892 0.0
C357 C 0.14104 0.11015 0.41941 0.0
O358 O 0.12855 0.13114 0.40584 0.0
C359 C 0.08639 0.06606 0.32955 0.0
O360 O 0.11448 0.05431 0.33008 0.0
O361 O 0.145 0.10686 0.32269 0.0
O362 O 0.18059 0.08053 0.34357 0.0
H363 H 0.13282 0.20282 0.28154 0.0
H364 H 0.11619 0.05008 0.3979 0.0
O365 O 0.15846 0.08897 0.41102 0.0
H366 H 0.17703 0.9713 0.3556 0.0
H367 H 0.25061 0.03033 0.42504 0.0
H368 H 0.23161 0.10123 0.35932 0.0
H369 H 0.19443 0.02596 0.35681 0.0
H370 H 0.19706 0.04417 0.41366 0.0
O371 O 0.08187 0.09454 0.33463 0.0
H372 H 0.14832 0.16601 0.31222 0.0
H373 H 0.05356 0.14516 0.326 0.0
H374 H 0.28551 0.08785 0.36999 0.0
H375 H 0.09794 0.99567 0.39717 0.0
H376 H 0.29527 0.05215 0.40307 0.0
H377 H 0.1284 0.95589 0.37584 0.0
O378 O 0.18233 0.1286 0.3766 0.0
H379 H 0.03078 0.12145 0.40567 0.0
H380 H 0.10004 0.18941 0.36 0.0
H381 H 0.06418 0.2127 0.38849 0.0
H382 H 0.02922 0.17863 0.41154 0.0
H383 H 0.06718 0.09914 0.37717 0.0
H384 H 0.03701 0.1816 0.29532 0.0
H385 H 0.0768 0.21082 0.27292 0.0
O386 O 0.14731 0.15485 0.35526 0.0
C387 C 0.16983 0.09076 0.32434 0.0
C388 C 0.11526 0.19032 0.29123 0.0
C389 C 0.06149 0.17836 0.29895 0.0
N390 N 0.10185 0.15367 0.32102 0.0
C391 C 0.12389 0.16951 0.30868 0.0
C392 C 0.07099 0.15772 0.31626 0.0
C393 C 0.08383 0.19476 0.28639 0.0
C394 C 0.12973 0.03282 0.38879 0.0
N395 N 0.15644 0.04112 0.37754 0.0
C396 C 0.11922 0.00208 0.38836 0.0
C397 C 0.1363 0.97978 0.37635 0.0
C398 C 0.16358 0.98841 0.36499 0.0
C399 C 0.17331 0.01939 0.36572 0.0
C400 C 0.24666 0.04585 0.41056 0.0
C401 C 0.23568 0.08551 0.37364 0.0
C402 C 0.2164 0.0538 0.40407 0.0
N403 N 0.21125 0.07326 0.38573 0.0
C404 C 0.26624 0.0781 0.37964 0.0
C405 C 0.2717 0.0581 0.39822 0.0
C406 C 0.17233 0.15345 0.36716 0.0
C407 C 0.04577 0.13656 0.39563 0.0
C408 C 0.08486 0.17444 0.36995 0.0
C409 C 0.06459 0.18776 0.38603 0.0
C410 C 0.04496 0.16863 0.39895 0.0
N411 N 0.08547 0.14297 0.36675 0.0
C412 C 0.06629 0.12406 0.37936 0.0
Co413 Co 0.4101 0.18715 0.88282 0.0
Co414 Co 0.38405 0.1305 0.84483 0.0
O415 O 0.40774 0.14427 0.87187 0.0
C416 C 0.38584 0.15083 0.92196 0.0
O417 O 0.36869 0.13619 0.90664 0.0
C418 C 0.44833 0.11118 0.83657 0.0
O419 O 0.45631 0.13929 0.84311 0.0
O420 O 0.40157 0.16445 0.8256 0.0
O421 O 0.41472 0.20301 0.85023 0.0
H422 H 0.31514 0.14432 0.7752 0.0
H423 H 0.45159 0.13985 0.90369 0.0
O424 O 0.40449 0.17228 0.9156 0.0
H425 H 0.52152 0.21807 0.8691 0.0
H426 H 0.44385 0.27156 0.93783 0.0
H427 H 0.38317 0.24719 0.86752 0.0
H428 H 0.46459 0.22444 0.86695 0.0
H429 H 0.44139 0.21787 0.92285 0.0
O430 O 0.41977 0.10335 0.83566 0.0
H431 H 0.34443 0.16154 0.8097 0.0
H432 H 0.37503 0.06912 0.8218 0.0
H433 H 0.38515 0.30121 0.88178 0.0
H434 H 0.50838 0.13272 0.90648 0.0
H435 H 0.41567 0.31368 0.91719 0.0
H436 H 0.54375 0.17195 0.88901 0.0
O437 O 0.3646 0.19193 0.88035 0.0
H438 H 0.38977 0.04174 0.90134 0.0
H439 H 0.32007 0.10627 0.85345 0.0
H440 H 0.29783 0.06496 0.87809 0.0
H441 H 0.33278 0.03236 0.90226 0.0
H442 H 0.411 0.08345 0.87661 0.0
H443 H 0.34628 0.05091 0.78731 0.0
H444 H 0.31595 0.08863 0.76382 0.0
O445 O 0.34807 0.15775 0.85352 0.0
C446 C 0.41142 0.19178 0.82986 0.0
C447 C 0.32816 0.12763 0.78536 0.0
C448 C 0.34567 0.07522 0.79214 0.0
N449 N 0.36112 0.11629 0.81787 0.0
C450 C 0.3447 0.13723 0.80495 0.0
C451 C 0.36194 0.08566 0.81162 0.0
C452 C 0.32865 0.09639 0.77896 0.0
C453 C 0.46685 0.1572 0.8963 0.0
N454 N 0.45482 0.18261 0.8853 0.0
C455 C 0.49898 0.15298 0.89785 0.0
C456 C 0.51881 0.17497 0.888 0.0
C457 C 0.50635 0.20083 0.8768 0.0
C458 C 0.4741 0.20428 0.87559 0.0
C459 C 0.43056 0.26644 0.92234 0.0
C460 C 0.39672 0.25249 0.88281 0.0
C461 C 0.42907 0.2361 0.91379 0.0
N462 N 0.41246 0.22951 0.89418 0.0
C463 C 0.39766 0.2831 0.89086 0.0
C464 C 0.41475 0.29006 0.91075 0.0
C465 C 0.34337 0.17998 0.86779 0.0
C466 C 0.37431 0.05571 0.89082 0.0
C467 C 0.33542 0.0922 0.86394 0.0
C468 C 0.3227 0.06881 0.87782 0.0
C469 C 0.34233 0.05051 0.89136 0.0
N470 N 0.36682 0.09717 0.86351 0.0
C471 C 0.38621 0.07926 0.87669 0.0
Co472 Co 0.6857 0.91141 0.88311 0.0
Co473 Co 0.62813 0.87907 0.84886 0.0
O474 O 0.64254 0.90592 0.87382 0.0
C475 C 0.65323 0.88662 0.92398 0.0
O476 O 0.63923 0.86781 0.90945 0.0
C477 C 0.60696 0.94141 0.83509 0.0
O478 O 0.63607 0.95031 0.83661 0.0
O479 O 0.66103 0.89473 0.82764 0.0
O480 O 0.69883 0.91562 0.84981 0.0
H481 H 0.63951 0.80308 0.78323 0.0
H482 H 0.63651 0.95051 0.90411 0.0
O483 O 0.67319 0.90629 0.91663 0.0
H484 H 0.70788 0.02384 0.86543 0.0
H485 H 0.77105 0.95308 0.93416 0.0
H486 H 0.74646 0.88851 0.86587 0.0
H487 H 0.71838 0.96747 0.86493 0.0
H488 H 0.7167 0.94614 0.92136 0.0
O489 O 0.59939 0.91321 0.83891 0.0
H490 H 0.65803 0.83621 0.8153 0.0
H491 H 0.56577 0.86658 0.82835 0.0
H492 H 0.80112 0.895 0.87794 0.0
H493 H 0.62516 0.00671 0.90512 0.0
H494 H 0.8137 0.92748 0.91233 0.0
H495 H 0.66097 0.04377 0.88563 0.0
O496 O 0.69368 0.86612 0.88144 0.0
H497 H 0.54287 0.88852 0.90805 0.0
H498 H 0.60585 0.81573 0.86169 0.0
H499 H 0.56654 0.7951 0.8888 0.0
H500 H 0.53472 0.83162 0.9122 0.0
H501 H 0.58264 0.90812 0.88093 0.0
H502 H 0.54624 0.83393 0.79628 0.0
H503 H 0.58323 0.80179 0.77354 0.0
O504 O 0.65683 0.845 0.85865 0.0
C505 C 0.68755 0.9077 0.83013 0.0
C506 C 0.62314 0.81688 0.79306 0.0
C507 C 0.57081 0.83424 0.80037 0.0
N508 N 0.61296 0.85307 0.82381 0.0
C509 C 0.63348 0.83561 0.8113 0.0
C510 C 0.582 0.85272 0.81847 0.0
C511 C 0.59157 0.8162 0.78762 0.0
C512 C 0.65234 0.96654 0.89578 0.0
N513 N 0.67817 0.95578 0.88461 0.0
C514 C 0.64574 -0.00169 0.89633 0.0
C515 C 0.66581 0.0191 0.88536 0.0
C516 C 0.69214 0.00793 0.87402 0.0
C517 C 0.69795 0.97599 0.87377 0.0
C518 C 0.76587 0.93893 0.91912 0.0
C519 C 0.75178 0.90287 0.88075 0.0
C520 C 0.73516 0.93489 0.91182 0.0
N521 N 0.72849 0.91717 0.89278 0.0
C522 C 0.78276 0.90637 0.88755 0.0
C523 C 0.78979 0.92457 0.90686 0.0
C524 C 0.68135 0.84304 0.87106 0.0
C525 C 0.55647 0.87238 0.89786 0.0
C526 C 0.59207 0.83176 0.8718 0.0
C527 C 0.56983 0.81995 0.88711 0.0
C528 C 0.55196 0.84045 0.90022 0.0
N529 N 0.59633 0.86311 0.86956 0.0
C530 C 0.5789 0.88335 0.88236 0.0
Co531 Co 0.58491 0.67364 0.38094 0.0
Co532 Co 0.62012 0.61703 0.3475 0.0
O533 O 0.59177 0.63065 0.37175 0.0
C534 C 0.60863 0.64186 0.42251 0.0
O535 O 0.62793 0.62772 0.40848 0.0
C536 C 0.55901 0.59457 0.33154 0.0
O537 O 0.54951 0.62348 0.33262 0.0
O538 O 0.60502 0.64984 0.32592 0.0
O539 O 0.58167 0.68663 0.34758 0.0
H540 H 0.69953 0.63059 0.28437 0.0
H541 H 0.54623 0.62335 0.40103 0.0
O542 O 0.589 0.66142 0.41459 0.0
H543 H 0.47269 0.69267 0.36069 0.0
H544 H 0.53907 0.75785 0.43085 0.0
H545 H 0.60711 0.73497 0.36419 0.0
H546 H 0.52877 0.70483 0.36156 0.0
H547 H 0.54784 0.70371 0.41831 0.0
O548 O 0.58705 0.5876 0.33644 0.0
H549 H 0.66431 0.64811 0.31545 0.0
H550 H 0.63475 0.55515 0.32705 0.0
H551 H 0.59881 0.78944 0.37602 0.0
H552 H 0.49032 0.61032 0.40067 0.0
H553 H 0.56458 0.80115 0.40958 0.0
H554 H 0.45316 0.64508 0.38033 0.0
O555 O 0.63009 0.68281 0.38036 0.0
H556 H 0.60911 0.53125 0.40618 0.0
H557 H 0.68315 0.59585 0.36201 0.0
H558 H 0.70305 0.55678 0.38958 0.0
H559 H 0.66591 0.52414 0.41189 0.0
H560 H 0.59024 0.57079 0.37862 0.0
H561 H 0.66949 0.53663 0.29595 0.0
H562 H 0.70228 0.57447 0.27444 0.0
O563 O 0.65314 0.64626 0.35844 0.0
C564 C 0.59103 0.67585 0.32812 0.0
C565 C 0.68544 0.61386 0.29366 0.0
C566 C 0.66854 0.56113 0.30014 0.0
N567 N 0.6477 0.60264 0.32317 0.0
C568 C 0.66552 0.62363 0.31133 0.0
C569 C 0.64886 0.57176 0.3177 0.0
C570 C 0.68694 0.58238 0.28809 0.0
C571 C 0.53014 0.63872 0.39234 0.0
N572 N 0.54069 0.6649 0.38145 0.0
C573 C 0.49854 0.63118 0.39211 0.0
C574 C 0.4777 0.65067 0.38067 0.0
C575 C 0.48865 0.67736 0.36964 0.0
C576 C 0.52042 0.68411 0.37017 0.0
C577 C 0.55398 0.75305 0.41616 0.0
C578 C 0.592 0.73991 0.37871 0.0
C579 C 0.55906 0.72245 0.40901 0.0
N580 N 0.57774 0.71625 0.39042 0.0
C581 C 0.58748 0.77078 0.38537 0.0
C582 C 0.56829 0.77733 0.40422 0.0
C583 C 0.65398 0.67084 0.37083 0.0
C584 C 0.62553 0.54521 0.39647 0.0
C585 C 0.66685 0.5817 0.37163 0.0
C586 C 0.67825 0.5596 0.3872 0.0
C587 C 0.6574 0.54128 0.3997 0.0
N588 N 0.63556 0.58537 0.36852 0.0
C589 C 0.61498 0.5675 0.38072 0.0
Co590 Co 0.81971 0.58238 0.88081 0.0
Co591 Co 0.87264 0.62252 0.84701 0.0
O592 O 0.8617 0.59524 0.8727 0.0
C593 C 0.84318 0.61571 0.92183 0.0
O594 O 0.85164 0.63743 0.90715 0.0
C595 C 0.90399 0.5635 0.83848 0.0
O596 O 0.87706 0.55075 0.84334 0.0
O597 O 0.84393 0.60051 0.82566 0.0
O598 O 0.80913 0.5743 0.8473 0.0
H599 H 0.85141 0.69253 0.77904 0.0
H600 H 0.87326 0.55353 0.90507 0.0
O601 O 0.82973 0.59113 0.91441 0.0
H602 H 0.81851 0.46695 0.86654 0.0
H603 H 0.74052 0.52862 0.93104 0.0
H604 H 0.75675 0.59307 0.86132 0.0
H605 H 0.79882 0.52062 0.86327 0.0
H606 H 0.79338 0.54471 0.91943 0.0
O607 O 0.90688 0.593 0.83834 0.0
H608 H 0.83738 0.65831 0.81174 0.0
H609 H 0.93287 0.64405 0.82717 0.0
H610 H 0.70354 0.57733 0.87217 0.0
H611 H 0.89347 0.50017 0.9091 0.0
H612 H 0.69517 0.54486 0.90727 0.0
H613 H 0.86614 0.45647 0.88964 0.0
O614 O 0.8039 0.62544 0.87731 0.0
H615 H 0.95561 0.6304 0.90816 0.0
H616 H 0.88342 0.68925 0.8583 0.0
H617 H 0.9174 0.71748 0.88563 0.0
H618 H 0.95383 0.688 0.9108 0.0
H619 H 0.92107 0.60309 0.8807 0.0
H620 H 0.94797 0.67796 0.79451 0.0
H621 H 0.90707 0.70257 0.77025 0.0
O622 O 0.83824 0.65173 0.85528 0.0
C623 C 0.81993 0.58327 0.82772 0.0
C624 C 0.86945 0.68204 0.78953 0.0
C625 C 0.92364 0.67382 0.7982 0.0
N626 N 0.88428 0.64942 0.82145 0.0
C627 C 0.86164 0.66272 0.80812 0.0
C628 C 0.91496 0.6546 0.81663 0.0
C629 C 0.90068 0.68763 0.7846 0.0
C630 C 0.861 0.53458 0.8968 0.0
N631 N 0.83479 0.54014 0.88407 0.0
C632 C 0.87262 0.50443 0.89908 0.0
C633 C 0.85731 0.47993 0.88811 0.0
C634 C 0.83061 0.4858 0.87512 0.0
C635 C 0.81962 0.51624 0.87328 0.0
C636 C 0.74388 0.5427 0.91568 0.0
C637 C 0.75331 0.57876 0.87652 0.0
C638 C 0.77374 0.55191 0.90905 0.0
N639 N 0.77814 0.56955 0.8896 0.0
C640 C 0.72312 0.57 0.88262 0.0
C641 C 0.71844 0.55181 0.90233 0.0
C642 C 0.81287 0.64991 0.86674 0.0
C643 C 0.93991 0.64351 0.89723 0.0
C644 C 0.89923 0.67627 0.86918 0.0
C645 C 0.91843 0.69238 0.88461 0.0
C646 C 0.93887 0.67583 0.89872 0.0
N647 N 0.90044 0.64458 0.86779 0.0
C648 C 0.9204 0.62818 0.88157 0.0
Co649 Co 0.91504 0.80943 0.38279 0.0
Co650 Co 0.87478 0.86165 0.34853 0.0
O651 O 0.90271 0.85128 0.37396 0.0
C652 C 0.88388 0.83508 0.42404 0.0
O653 O 0.86153 0.84315 0.40978 0.0
C654 C 0.9339 0.89212 0.33824 0.0
O655 O 0.94661 0.86527 0.34332 0.0
O656 O 0.89573 0.83195 0.32739 0.0
O657 O 0.92175 0.79743 0.34937 0.0
H658 H 0.80221 0.83899 0.28228 0.0
H659 H 0.9458 0.8635 0.40512 0.0
O660 O 0.90784 0.82094 0.41631 0.0
H661 H 0.02989 0.80567 0.3663 0.0
H662 H 0.96912 0.73137 0.43372 0.0
H663 H 0.90239 0.74595 0.36498 0.0
H664 H 0.97575 0.78675 0.36459 0.0
H665 H 0.95366 0.78401 0.42122 0.0
O666 O 0.90444 0.89521 0.33869 0.0
H667 H 0.83723 0.82565 0.31466 0.0
H668 H 0.85357 0.92143 0.32785 0.0
H669 H 0.91746 0.69293 0.37675 0.0
H670 H -0.00033 0.88298 0.40758 0.0
H671 H 0.95106 0.6854 0.41135 0.0
H672 H 0.04212 0.85409 0.38797 0.0
O673 O 0.8715 0.7942 0.38053 0.0
H674 H 0.87007 0.94682 0.40808 0.0
H675 H 0.80857 0.87364 0.36073 0.0
H676 H 0.78172 0.90894 0.38781 0.0
H677 H 0.81253 0.94588 0.41171 0.0
H678 H 0.89599 0.91097 0.3809 0.0
H679 H 0.81889 0.93583 0.29548 0.0
H680 H 0.79285 0.89445 0.2725 0.0
O681 O 0.84538 0.82798 0.35796 0.0
C682 C 0.91254 0.80774 0.3297 0.0
C683 C 0.81334 0.85725 0.2922 0.0
C684 C 0.82275 0.91159 0.29959 0.0
N685 N 0.84724 0.87274 0.32322 0.0
C686 C 0.83312 0.84983 0.3106 0.0
C687 C 0.8424 0.9033 0.31786 0.0
C688 C 0.80813 0.88836 0.28671 0.0
C689 C 0.9642 0.85058 0.39679 0.0
N690 N 0.95767 0.82392 0.38484 0.0
C691 C 0.99465 0.86178 0.39818 0.0
C692 C 0.01845 0.8456 0.38712 0.0
C693 C 0.01159 0.81845 0.37494 0.0
C694 C 0.98089 0.8079 0.37397 0.0
C695 C 0.95453 0.73436 0.41858 0.0
C696 C 0.9172 0.74286 0.37995 0.0
C697 C 0.94567 0.76409 0.41144 0.0
N698 N 0.92739 0.76802 0.39227 0.0
C699 C 0.92557 0.71278 0.38658 0.0
C700 C 0.9444 0.70857 0.40601 0.0
C701 C 0.84694 0.80313 0.37005 0.0
C702 C 0.85639 0.93091 0.3977 0.0
C703 C 0.82213 0.88966 0.37107 0.0
C704 C 0.8068 0.90961 0.38636 0.0
C705 C 0.8241 0.93034 0.39975 0.0
N706 N 0.85379 0.89041 0.36912 0.0
C707 C 0.87092 0.91065 0.38221 0.0
Co708 Co 0.68273 0.57894 0.63256 0.0
Co709 Co 0.62722 0.61322 0.66766 0.0
O710 O 0.63993 0.58614 0.64222 0.0
C711 C 0.65048 0.60547 0.59204 0.0
O712 O 0.63663 0.6241 0.60674 0.0
C713 C 0.60474 0.5509 0.67918 0.0
O714 O 0.63264 0.54127 0.67349 0.0
O715 O 0.66036 0.59668 0.6882 0.0
O716 O 0.69613 0.57318 0.66575 0.0
H717 H 0.64353 0.68936 0.73265 0.0
H718 H 0.63194 0.54249 0.61083 0.0
O719 O 0.67015 0.58543 0.59919 0.0
H720 H 0.70023 0.46513 0.64801 0.0
H721 H 0.76558 0.53518 0.58038 0.0
H722 H 0.74462 0.59894 0.6497 0.0
H723 H 0.71289 0.52104 0.64985 0.0
H724 H 0.71174 0.54395 0.59362 0.0
O725 O 0.59825 0.57978 0.67868 0.0
H726 H 0.6597 0.65567 0.70024 0.0
H727 H 0.56619 0.62709 0.68973 0.0
H728 H 0.79882 0.5906 0.63719 0.0
H729 H 0.61862 0.48679 0.60827 0.0
H730 H 0.80956 0.55851 0.60229 0.0
H731 H 0.65281 0.4477 0.62706 0.0
O732 O 0.69265 0.62381 0.63472 0.0
H733 H 0.53898 0.60538 0.61075 0.0
H734 H 0.60612 0.677 0.65508 0.0
H735 H 0.56621 0.69835 0.6288 0.0
H736 H 0.53232 0.66243 0.6064 0.0
H737 H 0.5793 0.58503 0.63708 0.0
H738 H 0.549 0.66029 0.72217 0.0
H739 H 0.5878 0.69182 0.74381 0.0
O740 O 0.65631 0.64659 0.65702 0.0
C741 C 0.68582 0.58194 0.68552 0.0
C742 C 0.62638 0.67582 0.72331 0.0
C743 C 0.57334 0.65947 0.71744 0.0
N744 N 0.61388 0.63965 0.693 0.0
C745 C 0.63539 0.65678 0.70489 0.0
C746 C 0.58321 0.64067 0.69913 0.0
C747 C 0.59512 0.67716 0.72957 0.0
C748 C 0.64713 0.52558 0.61879 0.0
N749 N 0.67326 0.53496 0.63035 0.0
C750 C 0.63942 0.49409 0.61736 0.0
C751 C 0.65858 0.47217 0.62795 0.0
C752 C 0.68517 0.48194 0.63973 0.0
C753 C 0.69218 0.51362 0.64077 0.0
C754 C 0.7612 0.54913 0.59565 0.0
C755 C 0.74914 0.58475 0.63461 0.0
C756 C 0.73078 0.5542 0.60321 0.0
N757 N 0.72511 0.57168 0.62254 0.0
C758 C 0.77986 0.5802 0.62756 0.0
C759 C 0.78587 0.56223 0.60795 0.0
C760 C 0.68091 0.64752 0.64463 0.0
C761 C 0.55352 0.62127 0.62048 0.0
C762 C 0.59144 0.66123 0.6454 0.0
C763 C 0.56886 0.67345 0.63057 0.0
C764 C 0.54984 0.65328 0.61802 0.0
N765 N 0.59491 0.6298 0.64772 0.0
C766 C 0.5763 0.60988 0.63551 0.0
Co767 Co 0.91281 0.67687 0.13381 0.0
Co768 Co 0.87143 0.62451 0.16724 0.0
O769 O 0.89889 0.63514 0.1416 0.0
C770 C 0.87916 0.65474 0.09252 0.0
O771 O 0.85688 0.64716 0.107 0.0
C772 C 0.92932 0.59075 0.17507 0.0
O773 O 0.94304 0.61741 0.17087 0.0
O774 O 0.89468 0.65188 0.18887 0.0
O775 O 0.92096 0.68685 0.16741 0.0
H776 H 0.80286 0.64638 0.23585 0.0
H777 H 0.9405 0.62288 0.10937 0.0
O778 O 0.90407 0.66736 0.10013 0.0
H779 H 0.02818 0.6751 0.14849 0.0
H780 H 0.9688 0.75524 0.08421 0.0
H781 H 0.9036 0.73984 0.15363 0.0
H782 H 0.97498 0.69603 0.1517 0.0
H783 H 0.95134 0.70268 0.09546 0.0
O784 O 0.89973 0.58898 0.17521 0.0
H785 H 0.83721 0.66007 0.20316 0.0
H786 H 0.84794 0.56458 0.18632 0.0
H787 H 0.92072 0.79276 0.14313 0.0
H788 H 0.99339 0.60144 0.1054 0.0
H789 H 0.95357 0.8007 0.10819 0.0
H790 H 0.03764 0.6275 0.12516 0.0
O791 O 0.87012 0.69371 0.13725 0.0
H792 H 0.86002 0.5437 0.10485 0.0
H793 H 0.80424 0.6164 0.15616 0.0
H794 H 0.77456 0.58428 0.12844 0.0
H795 H 0.80249 0.54761 0.10254 0.0
H796 H 0.8888 0.5764 0.13271 0.0
H797 H 0.81386 0.54981 0.21895 0.0
H798 H 0.79097 0.59089 0.24392 0.0
O799 O 0.84339 0.6601 0.1596 0.0
C800 C 0.91219 0.67572 0.18694 0.0
C801 C 0.8126 0.62827 0.22505 0.0
C802 C 0.81882 0.57407 0.21558 0.0
N803 N 0.84436 0.61315 0.19275 0.0
C804 C 0.83199 0.63588 0.20647 0.0
C805 C 0.83815 0.58256 0.19717 0.0
C806 C 0.80597 0.59713 0.22958 0.0
C807 C 0.9597 0.63459 0.11777 0.0
N808 N 0.9547 0.66079 0.13063 0.0
C809 C 0.98958 0.62228 0.11553 0.0
C810 C 0.01439 0.63687 0.12666 0.0
C811 C 0.00909 0.66355 0.13978 0.0
C812 C 0.9789 0.67525 0.14159 0.0
C813 C 0.95456 0.75206 0.09951 0.0
C814 C 0.91808 0.7431 0.1385 0.0
C815 C 0.94457 0.72238 0.10594 0.0
N816 N 0.92673 0.7182 0.1253 0.0
C817 C 0.92761 0.77312 0.13259 0.0
C818 C 0.94601 0.77757 0.11297 0.0
C819 C 0.84563 0.6854 0.14809 0.0
C820 C 0.84758 0.55951 0.1161 0.0
C821 C 0.81655 0.60047 0.14496 0.0
C822 C 0.79962 0.58233 0.12931 0.0
C823 C 0.8153 0.56175 0.11479 0.0
N824 N 0.8482 0.5981 0.14617 0.0
C825 C 0.86374 0.57798 0.13199 0.0
Co826 Co 0.82859 0.90388 0.63687 0.0
Co827 Co 0.87866 0.86032 0.67046 0.0
O828 O 0.86966 0.88992 0.646 0.0
C829 C 0.85385 0.87326 0.59539 0.0
O830 O 0.86144 0.85067 0.60957 0.0
C831 C 0.90922 0.91771 0.68586 0.0
O832 O 0.88172 0.93061 0.68436 0.0
O833 O 0.84847 0.88036 0.69186 0.0
O834 O 0.81598 0.90936 0.67017 0.0
H835 H 0.85319 0.78431 0.73393 0.0
H836 H 0.88491 0.93333 0.61687 0.0
O837 O 0.84059 0.89763 0.6033 0.0
H838 H 0.82956 0.01756 0.65749 0.0
H839 H 0.75401 0.9633 0.58639 0.0
H840 H 0.76418 0.89265 0.65334 0.0
H841 H 0.80749 0.9646 0.65608 0.0
H842 H 0.80569 0.94529 0.59924 0.0
O843 O 0.91277 0.88893 0.68126 0.0
H844 H 0.8412 0.8215 0.70264 0.0
H845 H 0.93754 0.83691 0.69121 0.0
H846 H 0.71208 0.91024 0.6412 0.0
H847 H 0.90785 0.98592 0.61786 0.0
H848 H 0.70677 0.94583 0.6075 0.0
H849 H 0.8802 0.02843 0.63838 0.0
O850 O 0.81175 0.86081 0.6379 0.0
H851 H 0.96469 0.85704 0.61152 0.0
H852 H 0.88974 0.79462 0.65656 0.0
H853 H 0.92508 0.76845 0.62913 0.0
H854 H 0.96293 0.79973 0.60641 0.0
H855 H 0.92872 0.88226 0.63895 0.0
H856 H 0.95061 0.80002 0.72252 0.0
H857 H 0.90825 0.77333 0.74405 0.0
O858 O 0.84452 0.8323 0.65972 0.0
C859 C 0.82492 0.89817 0.68963 0.0
C860 C 0.87186 0.79571 0.72463 0.0
C861 C 0.92653 0.80457 0.71825 0.0
N862 N 0.88866 0.83117 0.69501 0.0
C863 C 0.86521 0.81673 0.70685 0.0
C864 C 0.919 0.82548 0.70058 0.0
C865 C 0.90275 0.78959 0.73031 0.0
C866 C 0.87256 0.9518 0.62559 0.0
N867 N 0.8448 0.94597 0.63628 0.0
C868 C 0.88572 0.9815 0.62618 0.0
C869 C 0.87022 0.00533 0.63772 0.0
C870 C 0.84182 -0.00076 0.64846 0.0
C871 C 0.82942 0.96922 0.6476 0.0
C872 C 0.75603 0.94785 0.60113 0.0
C873 C 0.76206 0.9083 0.63876 0.0
C874 C 0.78521 0.93755 0.60845 0.0
N875 N 0.78792 0.91817 0.62713 0.0
C876 C 0.7325 0.9181 0.63192 0.0
C877 C 0.72953 0.93805 0.61299 0.0
C878 C 0.81975 0.83542 0.64769 0.0
C879 C 0.94842 0.84314 0.62141 0.0
C880 C 0.90619 0.80837 0.64675 0.0
C881 C 0.92614 0.79343 0.63126 0.0
C882 C 0.94738 0.81099 0.61852 0.0
N883 N 0.90744 0.8399 0.64956 0.0
C884 C 0.92812 0.85728 0.63707 0.0
Co885 Co 0.58554 0.81542 0.13404 0.0
Co886 Co 0.61876 0.87275 0.16804 0.0
O887 O 0.59148 0.85854 0.14325 0.0
C888 C 0.61025 0.84748 0.09296 0.0
O889 O 0.62916 0.86156 0.10737 0.0
C890 C 0.55683 0.89474 0.18239 0.0
O891 O 0.54756 0.86571 0.18138 0.0
O892 O 0.60305 0.84 0.18942 0.0
O893 O 0.58152 0.80243 0.16737 0.0
H894 H 0.69548 0.86082 0.23321 0.0
H895 H 0.54668 0.86489 0.11313 0.0
O896 O 0.59047 0.82773 0.10047 0.0
H897 H 0.47305 0.79424 0.15223 0.0
H898 H 0.54262 0.7303 0.08337 0.0
H899 H 0.60809 0.75452 0.15129 0.0
H900 H 0.52934 0.78327 0.15251 0.0
H901 H 0.55015 0.78461 0.09602 0.0
O902 O 0.58502 0.90189 0.17811 0.0
H903 H 0.6618 0.84254 0.20137 0.0
H904 H 0.63203 0.93502 0.18839 0.0
H905 H 0.60101 0.69989 0.13937 0.0
H906 H 0.49056 0.87673 0.11234 0.0
H907 H 0.56808 0.68751 0.10517 0.0
H908 H 0.45334 0.84129 0.13204 0.0
O909 O 0.63078 0.80706 0.13548 0.0
H910 H 0.60944 0.95777 0.1086 0.0
H911 H 0.68217 0.8945 0.15489 0.0
H912 H 0.70286 0.93352 0.12756 0.0
H913 H 0.66638 0.96548 0.10419 0.0
H914 H 0.58978 0.91829 0.13593 0.0
H915 H 0.66523 0.9543 0.22024 0.0
H916 H 0.69735 0.91709 0.24283 0.0
O917 O 0.65248 0.84375 0.1581 0.0
C918 C 0.58979 0.8136 0.187 0.0
C919 C 0.68169 0.87728 0.22344 0.0
C920 C 0.66467 0.92974 0.21618 0.0
N921 N 0.64519 0.88773 0.19291 0.0
C922 C 0.66264 0.86708 0.20534 0.0
C923 C 0.64587 0.91869 0.19821 0.0
C924 C 0.68269 0.90885 0.22885 0.0
C925 C 0.53058 0.84923 0.12155 0.0
N926 N 0.54121 0.82333 0.13272 0.0
C927 C 0.49885 0.8561 0.12112 0.0
C928 C 0.47799 0.83623 0.13221 0.0
C929 C 0.48903 0.80984 0.14355 0.0
C930 C 0.52092 0.80376 0.14368 0.0
C931 C 0.55696 0.7354 0.09833 0.0
C932 C 0.59354 0.74929 0.1365 0.0
C933 C 0.56134 0.76609 0.10555 0.0
N934 N 0.57931 0.77267 0.12449 0.0
C935 C 0.5897 0.71832 0.12978 0.0
C936 C 0.57125 0.7114 0.11058 0.0
C937 C 0.6541 0.81924 0.14568 0.0
C938 C 0.62557 0.94411 0.11878 0.0
C939 C 0.66616 0.90835 0.1448 0.0
C940 C 0.678 0.93043 0.12937 0.0
C941 C 0.65752 0.94837 0.11628 0.0
N942 N 0.63479 0.90435 0.14719 0.0
C943 C 0.61456 0.92185 0.1344 0.0
C944 C 0.38079 0.16706 0.96319 0.0
C945 C 0.38221 0.14328 0.94668 0.0
C946 C 0.37458 0.16031 0.98656 0.0
C947 C 0.37101 0.12893 0.99361 0.0
C948 C 0.37363 0.10478 0.97704 0.0
C949 C 0.37853 0.11231 0.95364 0.0
C950 C 0.3709 0.18677 1.00354 0.0
C951 C 0.37122 0.07102 0.98401 0.0
C952 C 0.38138 0.1144 0.05809 0.0
C953 C 0.35055 0.11076 0.06538 0.0
C954 C 0.38848 0.11906 0.0346 0.0
C955 C 0.36401 0.1215 0.01826 0.0
C956 C 0.33278 0.1178 0.02561 0.0
C957 C 0.32646 0.11182 0.04909 0.0
C958 C 0.42211 0.12164 0.02733 0.0
C959 C 0.306 0.12132 0.00887 0.0
H960 H 0.38331 0.19103 0.95766 0.0
H961 H 0.3798 0.09396 0.94077 0.0
H962 H 0.34758 0.1856 0.01174 0.0
H963 H 0.38836 0.18478 0.01761 0.0
H964 H 0.3736 0.20986 0.99513 0.0
H965 H 0.37592 0.05506 0.96928 0.0
H966 H 0.38795 0.06593 0.99817 0.0
H967 H 0.34761 0.06603 0.99078 0.0
H968 H 0.39997 0.11341 0.07079 0.0
H969 H 0.3026 0.10933 0.05489 0.0
H970 H 0.42696 0.14543 0.02085 0.0
H971 H 0.42697 0.10528 0.0129 0.0
H972 H 0.43834 0.11659 0.04184 0.0
H973 H 0.30661 0.14484 1.00096 0.0
H974 H 0.28309 0.11799 0.01742 0.0
H975 H 0.30811 0.10425 0.99456 0.0
C976 C 0.32128 0.3835 0.461 0.0
C977 C 0.34508 0.38426 0.44449 0.0
C978 C 0.32796 0.37767 0.48447 0.0
C979 C 0.35929 0.37386 0.4916 0.0
C980 C 0.38347 0.37594 0.475 0.0
C981 C 0.376 0.38041 0.45154 0.0
C982 C 0.30144 0.37453 0.50146 0.0
C983 C 0.41721 0.37331 0.482 0.0
C984 C 0.37445 0.38472 0.55604 0.0
C985 C 0.37793 0.35395 0.56349 0.0
C986 C 0.36958 0.39163 0.53252 0.0
C987 C 0.36668 0.36704 0.51632 0.0
C988 C 0.37018 0.33586 0.52387 0.0
C989 C 0.37643 0.32973 0.54735 0.0
C990 C 0.36731 0.4252 0.52506 0.0
C991 C 0.36616 0.30894 0.50732 0.0
H992 H 0.29735 0.38613 0.45539 0.0
H993 H 0.39437 0.38115 0.43867 0.0
H994 H 0.3022 0.35126 0.50977 0.0
H995 H 0.30376 0.39206 0.51546 0.0
H996 H 0.2784 0.37751 0.49304 0.0
H997 H 0.43322 0.37781 0.46725 0.0
H998 H 0.42249 0.39006 0.4961 0.0
H999 H 0.42194 0.34969 0.48883 0.0
H1000 H 0.3757 0.4034 0.56864 0.0
H1001 H 0.37872 0.30591 0.55329 0.0
H1002 H 0.34354 0.43017 0.5186 0.0
H1003 H 0.38366 0.42979 0.51057 0.0
H1004 H 0.37261 0.44152 0.53947 0.0
H1005 H 0.34264 0.30979 0.49941 0.0
H1006 H 0.36912 0.2861 0.51603 0.0
H1007 H 0.38326 0.31065 0.49299 0.0
C1008 C 0.14575 0.35543 0.9524 0.0
C1009 C 0.11619 0.35118 0.94257 0.0
C1010 C 0.1494 0.36084 0.97625 0.0
C1011 C 0.12281 0.36278 0.99064 0.0
C1012 C 0.09283 0.35929 0.98074 0.0
C1013 C 0.08988 0.35315 0.95685 0.0
C1014 C 0.18182 0.36368 0.98614 0.0
C1015 C 0.06389 0.36183 0.99541 0.0
C1016 C 0.1335 0.34417 0.05459 0.0
C1017 C 0.13699 0.37382 0.06439 0.0
C1018 C 0.12871 0.34032 0.03069 0.0
C1019 C 0.12663 0.36681 0.0162 0.0
C1020 C 0.12946 0.39689 0.02605 0.0
C1021 C 0.135 0.40004 0.05001 0.0
C1022 C 0.12657 0.30783 0.02088 0.0
C1023 C 0.12674 0.42571 0.01125 0.0
H1024 H 0.16621 0.35381 0.9415 0.0
H1025 H 0.06696 0.35017 0.94932 0.0
H1026 H 0.18451 0.38621 0.99528 0.0
H1027 H 0.18578 0.34501 0.99909 0.0
H1028 H 0.20006 0.36202 0.97256 0.0
H1029 H 0.0423 0.36063 0.98485 0.0
H1030 H 0.06338 0.34276 0.00836 0.0
H1031 H 0.06405 0.38407 1.00516 0.0
H1032 H 0.13517 0.32377 0.06557 0.0
H1033 H 0.13742 0.42302 0.05752 0.0
H1034 H 0.14534 0.30419 0.00796 0.0
H1035 H 0.10411 0.30465 0.01172 0.0
H1036 H 0.12857 0.28967 0.0345 0.0
H1037 H 0.14583 0.4263 0.99834 0.0
H1038 H 0.12771 0.44736 0.02173 0.0
H1039 H 0.10452 0.42528 1.00145 0.0
C1040 C 0.11351 0.11076 0.55707 0.0
C1041 C 0.10857 0.14135 0.56445 0.0
C1042 C 0.11746 0.10384 0.53345 0.0
C1043 C 0.11792 0.12834 0.51704 0.0
C1044 C 0.11314 0.15937 0.52453 0.0
C1045 C 0.10783 0.16542 0.54815 0.0
C1046 C 0.12112 0.07036 0.5261 0.0
C1047 C 0.11459 0.18626 0.50772 0.0
C1048 C 0.16015 0.11402 0.46004 0.0
C1049 C 0.13527 0.11197 0.44449 0.0
C1050 C 0.15485 0.11949 0.48374 0.0
C1051 C 0.1239 0.12163 0.49208 0.0
C1052 C 0.09872 0.11817 0.47644 0.0
C1053 C 0.10474 0.11412 0.45271 0.0
C1054 C 0.18234 0.12419 0.49968 0.0
C1055 C 0.06543 0.119 0.48473 0.0
H1056 H 0.11393 0.09218 0.56979 0.0
H1057 H 0.10434 0.18911 0.55402 0.0
H1058 H 0.10391 0.06462 0.5124 0.0
H1059 H 0.14456 0.06671 0.5186 0.0
H1060 H 0.118 0.05396 0.54081 0.0
H1061 H 0.11129 0.20904 0.51645 0.0
H1062 H 0.13745 0.18641 0.49878 0.0
H1063 H 0.09646 0.18362 0.49419 0.0
H1064 H 0.18374 0.11277 0.45348 0.0
H1065 H 0.08557 0.11251 0.44053 0.0
H1066 H 0.18187 0.10684 0.51389 0.0
H1067 H 0.18102 0.14754 0.50781 0.0
H1068 H 0.20488 0.12218 0.4904 0.0
H1069 H 0.06213 0.1023 0.49921 0.0
H1070 H 0.04869 0.11323 0.47068 0.0
H1071 H 0.05982 0.14246 0.49147 0.0
C1072 C 0.61668 0.88485 0.06045 0.0
C1073 C 0.61301 0.85412 0.06799 0.0
C1074 C 0.62166 0.89166 0.03692 0.0
C1075 C 0.62442 0.86701 0.02077 0.0
C1076 C 0.6207 0.83586 0.02839 0.0
C1077 C 0.61439 0.82983 0.05189 0.0
C1078 C 0.62417 0.92519 0.02941 0.0
C1079 C 0.62452 0.80888 0.0119 0.0
C1080 C 0.61504 0.88044 0.95597 0.0
C1081 C 0.64596 0.88413 0.94887 0.0
C1082 C 0.6076 0.87596 0.97944 0.0
C1083 C 0.63181 0.87374 0.99602 0.0
C1084 C 0.66315 0.87745 0.98885 0.0
C1085 C 0.66981 0.88325 0.96537 0.0
C1086 C 0.57387 0.87343 0.98644 0.0
C1087 C 0.68969 0.87421 1.00583 0.0
H1088 H 0.61552 0.9036 0.07299 0.0
H1089 H 0.61195 0.80605 0.05788 0.0
H1090 H 0.64795 0.93002 0.0229 0.0
H1091 H 0.6078 0.92982 0.01493 0.0
H1092 H 0.61907 0.94159 0.04379 0.0
H1093 H 0.62138 0.78607 0.02064 0.0
H1094 H 0.60744 0.81062 0.99754 0.0
H1095 H 0.64805 0.8096 1.00401 0.0
H1096 H 0.59663 0.88125 0.94312 0.0
H1097 H 0.69374 0.88573 0.95974 0.0
H1098 H 0.56872 0.89022 1.00054 0.0
H1099 H 0.56902 0.84984 0.9933 0.0
H1100 H 0.55785 0.87796 0.9717 0.0
H1101 H 0.68751 0.89171 0.01985 0.0
H1102 H 0.71273 0.87715 0.99739 0.0
H1103 H 0.68882 0.85093 0.01411 0.0
C1104 C 0.61233 0.61223 0.56003 0.0
C1105 C 0.6432 0.60828 0.56716 0.0
C1106 C 0.60492 0.61638 0.53651 0.0
C1107 C 0.62914 0.61803 0.51991 0.0
C1108 C 0.66044 0.61423 0.52714 0.0
C1109 C 0.66704 0.60873 0.55066 0.0
C1110 C 0.57122 0.61901 0.52944 0.0
C1111 C 0.68701 0.6169 0.51014 0.0
C1112 C 0.61427 0.60529 0.4556 0.0
C1113 C 0.61099 0.63583 0.44758 0.0
C1114 C 0.61894 0.59908 0.47925 0.0
C1115 C 0.62183 0.62414 0.49505 0.0
C1116 C 0.61848 0.6551 0.48695 0.0
C1117 C 0.61245 0.66054 0.46332 0.0
C1118 C 0.62105 0.56574 0.48728 0.0
C1119 C 0.62249 0.6825 0.50304 0.0
H1120 H 0.59391 0.61172 0.57287 0.0
H1121 H 0.69094 0.60601 0.55631 0.0
H1122 H 0.56666 0.64241 0.52213 0.0
H1123 H 0.56585 0.6018 0.51566 0.0
H1124 H 0.55515 0.61513 0.54425 0.0
H1125 H 0.71003 0.61426 0.51866 0.0
H1126 H 0.68479 0.59891 0.49647 0.0
H1127 H 0.68622 0.63988 0.5014 0.0
H1128 H 0.61306 0.58622 0.44332 0.0
H1129 H 0.61032 0.68417 0.45697 0.0
H1130 H 0.60469 0.56166 0.50186 0.0
H1131 H 0.6448 0.56086 0.49381 0.0
H1132 H 0.61567 0.54901 0.47315 0.0
H1133 H 0.60543 0.68119 0.51742 0.0
H1134 H 0.61949 0.70508 0.49396 0.0
H1135 H 0.64603 0.68191 0.51094 0.0
C1136 C 0.8508 0.59502 0.96215 0.0
C1137 C 0.84912 0.62034 0.94689 0.0
C1138 C 0.85709 0.59953 0.98587 0.0
C1139 C 0.86101 0.63011 0.99457 0.0
C1140 C 0.8591 0.65572 0.97922 0.0
C1141 C 0.85355 0.65049 0.95555 0.0
C1142 C 0.85959 0.57161 1.00161 0.0
C1143 C 0.86237 0.68873 0.98784 0.0
C1144 C 0.84486 0.6449 0.0584 0.0
C1145 C 0.87493 0.64845 0.06747 0.0
C1146 C 0.84005 0.63888 0.03475 0.0
C1147 C 0.86598 0.63558 0.01984 0.0
C1148 C 0.89645 0.63862 0.02897 0.0
C1149 C 0.90057 0.64541 0.05265 0.0
C1150 C 0.80718 0.63658 0.02566 0.0
C1151 C 0.92468 0.63463 0.01371 0.0
H1152 H 0.84767 0.57165 0.95548 0.0
H1153 H 0.85211 0.67019 0.94387 0.0
H1154 H 0.88224 0.57194 0.01085 0.0
H1155 H 0.84108 0.57244 0.01499 0.0
H1156 H 0.85748 0.54935 0.99197 0.0
H1157 H 0.86018 0.70606 0.97364 0.0
H1158 H 0.84426 0.69359 1.00104 0.0
H1159 H 0.88528 0.69193 0.99635 0.0
H1160 H 0.82493 0.64737 0.06976 0.0
H1161 H 0.92386 0.64783 0.05963 0.0
H1162 H 0.80335 0.61357 0.01747 0.0
H1163 H 0.80335 0.65447 0.01209 0.0
H1164 H 0.78956 0.63982 0.03954 0.0
H1165 H 0.92375 0.61175 1.00485 0.0
H1166 H 0.94675 0.6362 0.02368 0.0
H1167 H 0.92489 0.65276 1.00003 0.0
C1168 C 0.90696 0.84434 0.46344 0.0
C1169 C 0.88075 0.84221 0.44906 0.0
C1170 C 0.90391 0.85141 0.48716 0.0
C1171 C 0.87389 0.85564 0.4968 0.0
C1172 C 0.84739 0.85348 0.48231 0.0
C1173 C 0.85117 0.84718 0.45859 0.0
C1174 C 0.93276 0.8542 0.50194 0.0
C1175 C 0.81494 0.85702 0.49195 0.0
C1176 C 0.86272 0.83934 0.56101 0.0
C1177 C 0.85955 0.86935 0.57023 0.0
C1178 C 0.86749 0.83463 0.53721 0.0
C1179 C 0.86994 0.8606 0.52224 0.0
C1180 C 0.86742 0.89104 0.5315 0.0
C1181 C 0.86184 0.89505 0.55537 0.0
C1182 C 0.86922 0.80179 0.52802 0.0
C1183 C 0.8706 0.91931 0.51617 0.0
H1184 H 0.92989 0.84083 0.4561 0.0
H1185 H 0.8308 0.84545 0.44758 0.0
H1186 H 0.93282 0.87678 0.51124 0.0
H1187 H 0.93292 0.8356 0.51527 0.0
H1188 H 0.95441 0.8524 0.49153 0.0
H1189 H 0.79679 0.85503 0.4783 0.0
H1190 H 0.81062 0.8389 0.50527 0.0
H1191 H 0.81248 0.87992 0.50059 0.0
H1192 H 0.86078 0.81934 0.57237 0.0
H1193 H 0.85964 0.91829 0.56246 0.0
H1194 H 0.89173 0.79803 0.51908 0.0
H1195 H 0.85054 0.79795 0.51504 0.0
H1196 H 0.86679 0.78413 0.54196 0.0
H1197 H 0.89288 0.91835 0.5065 0.0
H1198 H 0.86982 0.94133 0.52623 0.0
H1199 H 0.85161 0.91964 0.50316 0.0
C1200 C 0.19214 0.28543 0.15369 0.0
C1201 C 0.1978 0.31277 0.14109 0.0
C1202 C 0.21307 0.26054 0.15302 0.0
C1203 C 0.24024 0.26289 0.13929 0.0
C1204 C 0.24606 0.29025 0.12639 0.0
C1205 C 0.2248 0.31492 0.12748 0.0
C1206 C 0.20611 0.2317 0.16708 0.0
C1207 C 0.27468 0.29343 0.11141 0.0
C1208 C 0.3045 0.2063 0.1549 0.0
C1209 C 0.29834 0.18177 0.13954 0.0
C1210 C 0.2865 0.23349 0.15445 0.0
C1211 C 0.26205 0.23624 0.13812 0.0
C1212 C 0.25689 0.21231 0.12174 0.0
C1213 C 0.27502 0.18534 0.12269 0.0
C1214 C 0.29263 0.25856 0.17221 0.0
C1215 C 0.23127 0.21455 0.10388 0.0
H1216 H 0.17146 0.28351 0.16433 0.0
H1217 H 0.22945 0.33593 0.11768 0.0
H1218 H 0.20397 0.2113 0.15542 0.0
H1219 H 0.22555 0.22693 0.17923 0.0
H1220 H 0.1843 0.23387 0.17727 0.0
H1221 H 0.27594 0.31638 0.10262 0.0
H1222 H 0.2959 0.29037 0.12212 0.0
H1223 H 0.27485 0.27492 0.09801 0.0
H1224 H 0.32251 0.2038 0.16792 0.0
H1225 H 0.27033 0.16667 0.11055 0.0
H1226 H 0.2727 0.25997 0.18438 0.0
H1227 H 0.29479 0.28154 0.16362 0.0
H1228 H 0.3141 0.25408 0.18239 0.0
H1229 H 0.20834 0.21387 0.11267 0.0
H1230 H 0.23217 0.19527 0.09108 0.0
H1231 H 0.23277 0.23696 0.09442 0.0
C1232 C 0.30409 0.2755 0.62321 0.0
C1233 C 0.30742 0.29951 0.63953 0.0
C1234 C 0.27729 0.25701 0.62264 0.0
C1235 C 0.25326 0.26257 0.63882 0.0
C1236 C 0.25596 0.28734 0.65487 0.0
C1237 C 0.283 0.30562 0.65498 0.0
C1238 C 0.2751 0.23095 0.60514 0.0
C1239 C 0.23072 0.2939 0.67239 0.0
C1240 C 0.17347 0.22862 0.62688 0.0
C1241 C 0.17372 0.20185 0.64084 0.0
C1242 C 0.19922 0.24859 0.62603 0.0
C1243 C 0.22581 0.24168 0.63949 0.0
C1244 C 0.22639 0.21461 0.65344 0.0
C1245 C 0.20037 0.19496 0.6539 0.0
C1246 C 0.1979 0.27717 0.61083 0.0
C1247 C 0.25443 0.20653 0.66804 0.0
H1248 H 0.32272 0.27069 0.61107 0.0
H1249 H 0.28534 0.3241 0.66765 0.0
H1250 H 0.27427 0.20826 0.61428 0.0
H1251 H 0.25333 0.23305 0.59493 0.0
H1252 H 0.29511 0.23076 0.59297 0.0
H1253 H 0.23578 0.31488 0.68298 0.0
H1254 H 0.2081 0.29723 0.66347 0.0
H1255 H 0.22809 0.2737 0.6842 0.0
H1256 H 0.15303 0.2342 0.6167 0.0
H1257 H 0.20081 0.17442 0.66479 0.0
H1258 H 0.21711 0.27664 0.598 0.0
H1259 H 0.20113 0.29835 0.62154 0.0
H1260 H 0.17549 0.27912 0.60134 0.0
H1261 H 0.27518 0.20385 0.6568 0.0
H1262 H 0.25107 0.1847 0.67804 0.0
H1263 H 0.25944 0.22568 0.68038 0.0
C1264 C 0.26517 0.31292 0.38556 0.0
C1265 C 0.28952 0.31546 0.36944 0.0
C1266 C 0.24657 0.2862 0.38658 0.0
C1267 C 0.25231 0.26148 0.37102 0.0
C1268 C 0.2774 0.26342 0.35519 0.0
C1269 C 0.29583 0.29035 0.35466 0.0
C1270 C 0.22023 0.28481 0.40388 0.0
C1271 C 0.28413 0.23747 0.33829 0.0
C1272 C 0.21805 0.18197 0.38364 0.0
C1273 C 0.19168 0.18181 0.36926 0.0
C1274 C 0.23786 0.20786 0.38457 0.0
C1275 C 0.23124 0.23413 0.37068 0.0
C1276 C 0.20447 0.23436 0.35639 0.0
C1277 C 0.18492 0.20826 0.35593 0.0
C1278 C 0.26603 0.20697 0.4002 0.0
C1279 C 0.19673 0.26199 0.34129 0.0
H1280 H 0.26024 0.33207 0.39721 0.0
H1281 H 0.31457 0.29208 0.34216 0.0
H1282 H 0.19767 0.28388 0.39456 0.0
H1283 H 0.22198 0.26337 0.4145 0.0
H1284 H 0.22004 0.30523 0.41568 0.0
H1285 H 0.30528 0.24205 0.32776 0.0
H1286 H 0.28726 0.21522 0.34773 0.0
H1287 H 0.26408 0.23442 0.32637 0.0
H1288 H 0.22347 0.16172 0.39407 0.0
H1289 H 0.16467 0.20839 0.34473 0.0
H1290 H 0.26546 0.22681 0.41249 0.0
H1291 H 0.28751 0.20939 0.3897 0.0
H1292 H 0.26747 0.18503 0.41032 0.0
H1293 H 0.19406 0.2831 0.35215 0.0
H1294 H 0.17499 0.25847 0.33119 0.0
H1295 H 0.21605 0.26648 0.32899 0.0
C1296 C 0.28959 0.18817 0.85213 0.0
C1297 C 0.31208 0.1941 0.8692 0.0
C1298 C 0.26141 0.20462 0.85185 0.0
C1299 C 0.25567 0.22734 0.86909 0.0
C1300 C 0.27754 0.23218 0.88705 0.0
C1301 C 0.30546 0.21553 0.88688 0.0
C1302 C 0.23852 0.1988 0.83247 0.0
C1303 C 0.27218 0.25608 0.90583 0.0
C1304 C 0.20523 0.29659 0.85429 0.0
C1305 C 0.17724 0.28913 0.86551 0.0
C1306 C 0.2307 0.27639 0.85504 0.0
C1307 C 0.2282 0.24802 0.86733 0.0
C1308 C 0.20007 0.2402 0.87862 0.0
C1309 C 0.17489 0.26087 0.87759 0.0
C1310 C 0.26041 0.28556 0.84282 0.0
C1311 C 0.19666 0.21014 0.89192 0.0
H1312 H 0.29444 0.17159 0.83845 0.0
H1313 H 0.3225 0.22002 0.90034 0.0
H1314 H 0.21483 0.19513 0.83957 0.0
H1315 H 0.23752 0.21949 0.82099 0.0
H1316 H 0.24497 0.17829 0.8218 0.0
H1317 H 0.2902 0.25508 0.91963 0.0
H1318 H 0.27244 0.27971 0.89812 0.0
H1319 H 0.24903 0.25264 0.91391 0.0
H1320 H 0.20732 0.31826 0.84483 0.0
H1321 H 0.15334 0.25477 0.88622 0.0
H1322 H 0.26713 0.26732 0.83018 0.0
H1323 H 0.27959 0.28761 0.85561 0.0
H1324 H 0.25822 0.30803 0.83345 0.0
H1325 H 0.2021 0.19012 0.8805 0.0
H1326 H 0.17285 0.207 0.89903 0.0
H1327 H 0.2135 0.20963 0.9065 0.0
C1328 C 0.72269 0.80905 0.88783 0.0
C1329 C 0.69764 0.81283 0.87246 0.0
C1330 C 0.74058 0.78188 0.8877 0.0
C1331 C 0.73337 0.75797 0.87174 0.0
C1332 C 0.70755 0.76114 0.85669 0.0
C1333 C 0.68987 0.7885 0.85731 0.0
C1334 C 0.76776 0.77916 0.90419 0.0
C1335 C 0.69923 0.73607 0.83942 0.0
C1336 C 0.79913 0.70408 0.8546 0.0
C1337 C 0.79273 0.67772 0.86811 0.0
C1338 C 0.77979 0.73026 0.85545 0.0
C1339 C 0.75356 0.73013 0.87028 0.0
C1340 C 0.74699 0.70369 0.884 0.0
C1341 C 0.76659 0.67777 0.88271 0.0
C1342 C 0.78741 0.75806 0.84048 0.0
C1343 C 0.71934 0.70285 0.90015 0.0
H1344 H 0.72878 0.82761 0.89972 0.0
H1345 H 0.67058 0.79117 0.84538 0.0
H1346 H 0.76588 0.75741 0.91444 0.0
H1347 H 0.78977 0.77793 0.89421 0.0
H1348 H 0.76922 0.79913 0.91636 0.0
H1349 H 0.67765 0.74155 0.82964 0.0
H1350 H 0.71853 0.73311 0.82685 0.0
H1351 H 0.69604 0.7135 0.84842 0.0
H1352 H 0.81916 0.70424 0.8432 0.0
H1353 H 0.76142 0.65756 0.89327 0.0
H1354 H 0.79157 0.77873 0.85156 0.0
H1355 H 0.76744 0.76354 0.829 0.0
H1356 H 0.8083 0.75418 0.82953 0.0
H1357 H 0.7213 0.72178 0.91314 0.0
H1358 H 0.71729 0.68034 0.90947 0.0
H1359 H 0.69761 0.70688 0.89023 0.0
C1360 C 0.68655 0.71251 0.38888 0.0
C1361 C 0.68393 0.68748 0.37336 0.0
C1362 C 0.71365 0.73058 0.38982 0.0
C1363 C 0.73864 0.72358 0.37478 0.0
C1364 C 0.73663 0.69773 0.35967 0.0
C1365 C 0.70934 0.67987 0.35922 0.0
C1366 C 0.71512 0.75777 0.40636 0.0
C1367 C 0.76284 0.68966 0.34333 0.0
C1368 C 0.7927 0.7895 0.35804 0.0
C1369 C 0.81883 0.7834 0.37189 0.0
C1370 C 0.76646 0.77018 0.35884 0.0
C1371 C 0.76623 0.7443 0.374 0.0
C1372 C 0.79226 0.73823 0.38828 0.0
C1373 C 0.81831 0.75779 0.387 0.0
C1374 C 0.73911 0.77728 0.34326 0.0
C1375 C 0.79265 0.71099 0.40481 0.0
H1376 H 0.66716 0.71845 0.40003 0.0
H1377 H 0.70759 0.66057 0.34721 0.0
H1378 H 0.73648 0.75643 0.41712 0.0
H1379 H 0.71628 0.77981 0.3964 0.0
H1380 H 0.69461 0.75871 0.41805 0.0
H1381 H 0.75825 0.66789 0.33352 0.0
H1382 H 0.76629 0.70887 0.33073 0.0
H1383 H 0.7849 0.68695 0.3531 0.0
H1384 H 0.79285 0.80916 0.34627 0.0
H1385 H 0.83832 0.7529 0.39784 0.0
H1386 H 0.71792 0.78096 0.35386 0.0
H1387 H 0.73449 0.75724 0.33165 0.0
H1388 H 0.74305 0.79827 0.33242 0.0
H1389 H 0.77278 0.71262 0.41701 0.0
H1390 H 0.81454 0.70981 0.41503 0.0
H1391 H 0.78991 0.68896 0.39502 0.0
C1392 C 0.77239 0.80989 0.631 0.0
C1393 C 0.79879 0.80829 0.64531 0.0
C1394 C 0.75152 0.78489 0.6295 0.0
C1395 C 0.75709 0.75777 0.64271 0.0
C1396 C 0.78376 0.75588 0.65704 0.0
C1397 C 0.80435 0.7811 0.65809 0.0
C1398 C 0.72344 0.78756 0.61388 0.0
C1399 C 0.79041 0.72729 0.67143 0.0
C1400 C 0.69168 0.70206 0.65754 0.0
C1401 C 0.69787 0.6773 0.64241 0.0
C1402 C 0.71022 0.72891 0.65735 0.0
C1403 C 0.73526 0.73111 0.6415 0.0
C1404 C 0.74065 0.7069 0.62543 0.0
C1405 C 0.72196 0.68024 0.62613 0.0
C1406 C 0.70386 0.75432 0.67478 0.0
C1407 C 0.76692 0.7086 0.60809 0.0
H1408 H 0.76787 0.83075 0.62101 0.0
H1409 H 0.8246 0.77961 0.66924 0.0
H1410 H 0.72358 0.76854 0.60088 0.0
H1411 H 0.70186 0.785 0.62423 0.0
H1412 H 0.72263 0.81016 0.60457 0.0
H1413 H 0.81203 0.72967 0.68184 0.0
H1414 H 0.77073 0.72272 0.6834 0.0
H1415 H 0.79271 0.70669 0.65999 0.0
H1416 H 0.67309 0.70003 0.67013 0.0
H1417 H 0.72672 0.66138 0.61418 0.0
H1418 H 0.70175 0.77709 0.6659 0.0
H1419 H 0.72365 0.7561 0.68708 0.0
H1420 H 0.68227 0.74997 0.68486 0.0
H1421 H 0.76585 0.73075 0.59827 0.0
H1422 H 0.76639 0.68897 0.59557 0.0
H1423 H 0.78953 0.70817 0.61736 0.0
C1424 C 0.8186 0.73255 0.13263 0.0
C1425 C 0.81828 0.7062 0.14703 0.0
C1426 C 0.79301 0.75262 0.13157 0.0
C1427 C 0.76653 0.74631 0.14533 0.0
C1428 C 0.76607 0.71992 0.15999 0.0
C1429 C 0.79191 0.70012 0.16062 0.0
C1430 C 0.79419 0.78045 0.11561 0.0
C1431 C 0.73823 0.71255 0.17499 0.0
C1432 C 0.70879 0.81028 0.159 0.0
C1433 C 0.68422 0.80283 0.14397 0.0
C1434 C 0.73609 0.79247 0.15929 0.0
C1435 C 0.73894 0.76687 0.14403 0.0
C1436 C 0.71481 0.76004 0.12815 0.0
C1437 C 0.68771 0.77804 0.12835 0.0
C1438 C 0.76138 0.80037 0.1765 0.0
C1439 C 0.71718 0.73311 0.11143 0.0
H1440 H 0.83883 0.73749 0.12204 0.0
H1441 H 0.79145 0.67993 0.17187 0.0
H1442 H 0.77526 0.77886 0.10258 0.0
H1443 H 0.7904 0.80211 0.12565 0.0
H1444 H 0.81675 0.78235 0.10633 0.0
H1445 H 0.74188 0.69154 0.18586 0.0
H1446 H 0.73305 0.7325 0.18655 0.0
H1447 H 0.71746 0.70873 0.16393 0.0
H1448 H 0.70635 0.82938 0.17112 0.0
H1449 H 0.66897 0.77224 0.11652 0.0
H1450 H 0.78395 0.80328 0.16745 0.0
H1451 H 0.76414 0.78098 0.18903 0.0
H1452 H 0.75626 0.82197 0.18634 0.0
H1453 H 0.73895 0.73487 0.10119 0.0
H1454 H 0.69717 0.73209 0.09925 0.0
H1455 H 0.71814 0.71094 0.12123 0.0
C1456 C 0.21174 0.06272 0.30242 0.0
C1457 C 0.18752 0.08455 0.30276 0.0
C1458 C 0.23027 0.05879 0.28257 0.0
C1459 C 0.22483 0.07756 0.2628 0.0
C1460 C 0.19978 0.09885 0.26278 0.0
C1461 C 0.18129 0.10188 0.28266 0.0
C1462 C 0.25642 0.03544 0.28308 0.0
C1463 C 0.19349 0.11969 0.24221 0.0
C1464 C 0.29277 0.09931 0.22431 0.0
C1465 C 0.28676 0.08197 0.20416 0.0
C1466 C 0.27313 0.09754 0.24362 0.0
C1467 C 0.24709 0.07742 0.24306 0.0
C1468 C 0.24149 0.05888 0.22318 0.0
C1469 C 0.26121 0.06163 0.20382 0.0
C1470 C 0.27964 0.11815 0.2643 0.0
C1471 C 0.2143 0.0367 0.22216 0.0
H1472 H 0.21659 0.04903 0.31778 0.0
H1473 H 0.16268 0.11883 0.28269 0.0
H1474 H 0.25597 0.02086 0.26721 0.0
H1475 H 0.27906 0.04782 0.28338 0.0
H1476 H 0.25516 0.02004 0.29852 0.0
H1477 H 0.17196 0.13363 0.24441 0.0
H1478 H 0.21333 0.13587 0.23974 0.0
H1479 H 0.1913 0.10568 0.22614 0.0
H1480 H 0.31233 0.1152 0.22478 0.0
H1481 H 0.25649 0.04802 0.1884 0.0
H1482 H 0.28177 0.10392 0.28026 0.0
H1483 H 0.25995 0.13442 0.26693 0.0
H1484 H 0.30128 0.132 0.26217 0.0
H1485 H 0.21417 0.02149 0.23771 0.0
H1486 H 0.21484 0.02188 0.20639 0.0
H1487 H 0.19222 0.04999 0.22223 0.0
C1488 C 0.39166 0.26694 0.70733 0.0
C1489 C 0.40922 0.29363 0.70287 0.0
C1490 C 0.39474 0.25102 0.72845 0.0
C1491 C 0.41662 0.26163 0.74508 0.0
C1492 C 0.43537 0.2879 0.74011 0.0
C1493 C 0.43098 0.30401 0.71918 0.0
C1494 C 0.37369 0.22365 0.73332 0.0
C1495 C 0.45963 0.29928 0.75704 0.0
C1496 C 0.40018 0.23982 0.8077 0.0
C1497 C 0.41686 0.21208 0.80979 0.0
C1498 C 0.40047 0.25666 0.78684 0.0
C1499 C 0.41874 0.24593 0.76802 0.0
C1500 C 0.43718 0.21891 0.77068 0.0
C1501 C 0.43547 0.20188 0.7914 0.0
C1502 C 0.37972 0.28478 0.7845 0.0
C1503 C 0.4578 0.20737 0.75134 0.0
H1504 H 0.37456 0.25935 0.6947 0.0
H1505 H 0.44441 0.32482 0.71559 0.0
H1506 H 0.38773 0.20264 0.73706 0.0
H1507 H 0.35939 0.22845 0.74894 0.0
H1508 H 0.35788 0.21846 0.71857 0.0
H1509 H 0.47423 0.31814 0.74961 0.0
H1510 H 0.44818 0.30818 0.77293 0.0
H1511 H 0.47495 0.2798 0.76236 0.0
H1512 H 0.38539 0.24728 0.82186 0.0
H1513 H 0.44825 0.18029 0.79314 0.0
H1514 H 0.36173 0.28026 0.77109 0.0
H1515 H 0.39339 0.30521 0.77868 0.0
H1516 H 0.36789 0.29072 0.80103 0.0
H1517 H 0.44327 0.19824 0.73698 0.0
H1518 H 0.47365 0.18857 0.75723 0.0
H1519 H 0.47197 0.22674 0.74425 0.0
C1520 C 0.17962 0.39226 0.22657 0.0
C1521 C 0.18482 0.40974 0.20636 0.0
C1522 C 0.19803 0.39641 0.2464 0.0
C1523 C 0.22195 0.41904 0.24627 0.0
C1524 C 0.22621 0.43803 0.22645 0.0
C1525 C 0.20781 0.43295 0.20662 0.0
C1526 C 0.193 0.37526 0.267 0.0
C1527 C 0.25104 0.46284 0.22583 0.0
C1528 C 0.25766 0.43521 0.30554 0.0
C1529 C 0.2838 0.41571 0.30509 0.0
C1530 C 0.2381 0.43791 0.28605 0.0
C1531 C 0.24447 0.42017 0.2659 0.0
C1532 C 0.27128 0.4012 0.26515 0.0
C1533 C 0.29072 0.39947 0.2846 0.0
C1534 C 0.2101 0.45893 0.28729 0.0
C1535 C 0.2787 0.38144 0.2442 0.0
H1536 H 0.16195 0.37427 0.22666 0.0
H1537 H 0.21187 0.44677 0.19118 0.0
H1538 H 0.21368 0.3602 0.2694 0.0
H1539 H 0.19019 0.38913 0.28307 0.0
H1540 H 0.17222 0.36013 0.26487 0.0
H1541 H 0.24854 0.47839 0.21056 0.0
H1542 H 0.25024 0.47712 0.24185 0.0
H1543 H 0.2743 0.45177 0.2251 0.0
H1544 H 0.2522 0.44801 0.32121 0.0
H1545 H 0.31079 0.38431 0.28397 0.0
H1546 H 0.18858 0.44469 0.28771 0.0
H1547 H 0.20887 0.4739 0.27164 0.0
H1548 H 0.21052 0.47399 0.30295 0.0
H1549 H 0.25989 0.36413 0.24146 0.0
H1550 H 0.30107 0.36881 0.24607 0.0
H1551 H 0.27989 0.39609 0.22839 0.0
C1552 C 0.05413 0.22335 0.70389 0.0
C1553 C 0.07414 0.1976 0.7046 0.0
C1554 C 0.05112 0.24325 0.72313 0.0
C1555 C 0.06899 0.23761 0.74334 0.0
C1556 C 0.08824 0.211 0.74447 0.0
C1557 C 0.0903 0.19121 0.72524 0.0
C1558 C 0.02978 0.27098 0.72147 0.0
C1559 C 0.10809 0.20433 0.76553 0.0
C1560 C 0.09644 0.30433 0.7811 0.0
C1561 C 0.07906 0.29982 0.80144 0.0
C1562 C 0.09248 0.28498 0.76177 0.0
C1563 C 0.07012 0.26082 0.76251 0.0
C1564 C 0.05121 0.25722 0.78244 0.0
C1565 C 0.05612 0.27655 0.80179 0.0
C1566 C 0.11352 0.28934 0.74103 0.0
C1567 C 0.02665 0.23219 0.78369 0.0
H1568 H 0.04137 0.22842 0.68812 0.0
H1569 H 0.1058 0.17141 0.72611 0.0
H1570 H 0.01511 0.27273 0.73725 0.0
H1571 H 0.04382 0.29258 0.72038 0.0
H1572 H 0.01442 0.26977 0.706 0.0
H1573 H 0.12069 0.18188 0.76408 0.0
H1574 H 0.12545 0.22321 0.76781 0.0
H1575 H 0.09354 0.20374 0.78139 0.0
H1576 H 0.11422 0.32219 0.78058 0.0
H1577 H 0.0424 0.27299 0.81733 0.0
H1578 H 0.09955 0.29156 0.72495 0.0
H1579 H 0.12862 0.26861 0.739 0.0
H1580 H 0.12862 0.31021 0.74271 0.0
H1581 H 0.01227 0.23221 0.7677 0.0
H1582 H 0.01116 0.23514 0.79894 0.0
H1583 H 0.03795 0.20909 0.78491 0.0
C1584 C 0.69894 0.89664 0.78844 0.0
C1585 C 0.70667 0.91241 0.80898 0.0
C1586 C 0.7183 0.89789 0.76892 0.0
C1587 C 0.74586 0.91588 0.76969 0.0
C1588 C 0.75306 0.93315 0.78992 0.0
C1589 C 0.73355 0.93097 0.80943 0.0
C1590 C 0.71 0.87865 0.74787 0.0
C1591 C 0.78191 0.95309 0.79122 0.0
C1592 C 0.81056 0.88689 0.73076 0.0
C1593 C 0.80663 0.90522 0.71081 0.0
C1594 C 0.79154 0.89082 0.75026 0.0
C1595 C 0.76833 0.91409 0.75009 0.0
C1596 C 0.76515 0.93369 0.73048 0.0
C1597 C 0.78412 0.92881 0.71095 0.0
C1598 C 0.79538 0.86901 0.77062 0.0
C1599 C 0.74109 0.95918 0.72987 0.0
H1600 H 0.67829 0.8822 0.78783 0.0
H1601 H 0.73963 0.94342 0.82513 0.0
H1602 H 0.70962 0.89342 0.73211 0.0
H1603 H 0.72794 0.86049 0.74514 0.0
H1604 H 0.68701 0.86707 0.74964 0.0
H1605 H 0.78223 0.96794 0.80699 0.0
H1606 H 0.80283 0.93805 0.79146 0.0
H1607 H 0.78364 0.96822 0.77568 0.0
H1608 H 0.82779 0.86855 0.7309 0.0
H1609 H 0.78104 0.94323 0.6957 0.0
H1610 H 0.77392 0.85495 0.77282 0.0
H1611 H 0.79885 0.88242 0.78684 0.0
H1612 H 0.81535 0.85294 0.76838 0.0
H1613 H 0.71749 0.94879 0.72928 0.0
H1614 H 0.74395 0.9746 0.71456 0.0
H1615 H 0.7425 0.97348 0.74585 0.0
C1616 C 0.60461 0.6894 0.28721 0.0
C1617 C 0.58626 0.69481 0.30692 0.0
C1618 C 0.60246 0.70855 0.26759 0.0
C1619 C 0.58093 0.73341 0.26742 0.0
C1620 C 0.56143 0.73828 0.28687 0.0
C1621 C 0.56457 0.71914 0.30651 0.0
C1622 C 0.62414 0.70291 0.24742 0.0
C1623 C 0.53776 0.76415 0.28714 0.0
C1624 C 0.6018 0.80133 0.22843 0.0
C1625 C 0.58502 0.79449 0.20815 0.0
C1626 C 0.60008 0.78203 0.24798 0.0
C1627 C 0.58059 0.7555 0.24752 0.0
C1628 C 0.56255 0.74913 0.2275 0.0
C1629 C 0.56523 0.76851 0.20795 0.0
C1630 C 0.62016 0.78937 0.2688 0.0
C1631 C 0.54104 0.72141 0.22652 0.0
H1632 H 0.62155 0.67077 0.28735 0.0
H1633 H 0.55014 0.72337 0.32158 0.0
H1634 H 0.61066 0.69997 0.23117 0.0
H1635 H 0.63957 0.72337 0.24503 0.0
H1636 H 0.63887 0.68199 0.24999 0.0
H1637 H 0.52239 0.763 0.3026 0.0
H1638 H 0.54982 0.78696 0.28712 0.0
H1639 H 0.52314 0.76315 0.27128 0.0
H1640 H 0.61725 0.82125 0.22881 0.0
H1641 H 0.55204 0.76312 0.19243 0.0
H1642 H 0.63701 0.77024 0.27166 0.0
H1643 H 0.60564 0.79114 0.28463 0.0
H1644 H 0.63332 0.81144 0.26667 0.0
H1645 H 0.55486 0.69966 0.22684 0.0
H1646 H 0.5264 0.72139 0.21064 0.0
H1647 H 0.52563 0.72108 0.24196 0.0
C1648 C 0.77706 0.55523 0.80632 0.0
C1649 C 0.80264 0.57555 0.80611 0.0
C1650 C 0.75853 0.55111 0.78641 0.0
C1651 C 0.76534 0.56821 0.766 0.0
C1652 C 0.79188 0.58766 0.76541 0.0
C1653 C 0.81033 0.59079 0.78531 0.0
C1654 C 0.73086 0.52955 0.78753 0.0
C1655 C 0.79973 0.60682 0.74422 0.0
C1656 C 0.72848 0.55368 0.70683 0.0
C1657 C 0.70478 0.57607 0.70661 0.0
C1658 C 0.74739 0.54957 0.72655 0.0
C1659 C 0.74302 0.56886 0.7462 0.0
C1660 C 0.71876 0.59104 0.74619 0.0
C1661 C 0.69978 0.5941 0.72656 0.0
C1662 C 0.77253 0.52515 0.72613 0.0
C1663 C 0.71366 0.61263 0.76652 0.0
H1664 H 0.77101 0.54314 0.8222 0.0
H1665 H 0.83005 0.60648 0.78478 0.0
H1666 H 0.70914 0.54342 0.78796 0.0
H1667 H 0.72989 0.5146 0.77187 0.0
H1668 H 0.73146 0.51449 0.80318 0.0
H1669 H 0.82221 0.61934 0.74608 0.0
H1670 H 0.80093 0.59183 0.72861 0.0
H1671 H 0.78113 0.62421 0.74118 0.0
H1672 H 0.73236 0.53948 0.69158 0.0
H1673 H 0.68165 0.61155 0.72661 0.0
H1674 H 0.77158 0.51084 0.74214 0.0
H1675 H 0.79568 0.53653 0.72566 0.0
H1676 H 0.77048 0.50959 0.71083 0.0
H1677 H 0.71034 0.59905 0.78268 0.0
H1678 H 0.69314 0.62794 0.76404 0.0
H1679 H 0.73451 0.6275 0.76902 0.0
C1680 C 0.942 0.76595 0.30829 0.0
C1681 C 0.91975 0.78979 0.30833 0.0
C1682 C 0.94653 0.74726 0.2885 0.0
C1683 C 0.9278 0.75201 0.26857 0.0
C1684 C 0.90603 0.77664 0.26832 0.0
C1685 C 0.90258 0.79538 0.28801 0.0
C1686 C 0.97059 0.7218 0.28921 0.0
C1687 C 0.88505 0.7822 0.24769 0.0
C1688 C 0.94129 0.71768 0.20856 0.0
C1689 C 0.92036 0.69258 0.20865 0.0
C1690 C 0.94574 0.73603 0.22852 0.0
C1691 C 0.92832 0.72959 0.24884 0.0
C1692 C 0.9083 0.70347 0.24932 0.0
C1693 C 0.90488 0.68514 0.22939 0.0
C1694 C 0.96797 0.76316 0.22752 0.0
C1695 C 0.88877 0.69603 0.2704 0.0
H1696 H 0.95556 0.76156 0.3238 0.0
H1697 H 0.88531 0.81369 0.28774 0.0
H1698 H 0.95885 0.69885 0.29009 0.0
H1699 H 0.98483 0.72209 0.27317 0.0
H1700 H 0.98625 0.72402 0.30446 0.0
H1701 H 0.87013 0.80304 0.24993 0.0
H1702 H 0.89908 0.78521 0.23171 0.0
H1703 H 0.86978 0.76168 0.245 0.0
H1704 H 0.95358 0.72352 0.19273 0.0
H1705 H 0.88873 0.66579 0.22983 0.0
H1706 H 0.98257 0.76399 0.24339 0.0
H1707 H 0.95463 0.78519 0.22672 0.0
H1708 H 0.98338 0.76201 0.21208 0.0
H1709 H 0.9036 0.69448 0.28609 0.0
H1710 H 0.87576 0.67384 0.26847 0.0
H1711 H 0.87177 0.71501 0.27335 0.0
C1712 C 0.43499 0.03482 0.19767 0.0
C1713 C 0.41075 0.02918 0.182 0.0
C1714 C 0.45899 0.01307 0.20059 0.0
C1715 C 0.45929 0.98587 0.18674 0.0
C1716 C 0.43471 0.98013 0.17095 0.0
C1717 C 0.41041 0.0016 0.16913 0.0
C1718 C 0.48417 0.01934 0.21823 0.0
C1719 C 0.43467 0.95195 0.1553 0.0
C1720 C 0.5362 0.94721 0.17309 0.0
C1721 C 0.53364 0.91945 0.18563 0.0
C1722 C 0.51235 0.96935 0.17363 0.0
C1723 C 0.48597 0.96407 0.18778 0.0
C1724 C 0.48416 0.93685 0.20153 0.0
C1725 C 0.50777 0.91449 0.1999 0.0
C1726 C 0.51465 -0.00246 0.15809 0.0
C1727 C 0.45694 0.93098 0.21747 0.0
H1728 H 0.43507 0.05614 0.2077 0.0
H1729 H 0.39177 -0.00257 0.15685 0.0
H1730 H 0.48726 -0.00119 0.22966 0.0
H1731 H 0.50663 0.02344 0.20929 0.0
H1732 H 0.47888 0.03992 0.22917 0.0
H1733 H 0.41393 0.95115 0.1438 0.0
H1734 H 0.45585 0.95204 0.14432 0.0
H1735 H 0.4352 0.93037 0.16581 0.0
H1736 H 0.55612 0.95091 0.16192 0.0
H1737 H 0.50596 0.89305 0.20971 0.0
H1738 H 0.51225 0.01913 0.16842 0.0
H1739 H 0.49534 -0.00279 0.1453 0.0
H1740 H 0.53703 -0.00151 0.1485 0.0
H1741 H 0.45225 0.95185 0.22823 0.0
H1742 H 0.461 0.91082 0.22913 0.0
H1743 H 0.43575 0.9263 0.20706 0.0
C1744 C 0.58021 0.50033 0.6698 0.0
C1745 C 0.57974 0.52803 0.68252 0.0
C1746 C 0.5553 0.47943 0.67082 0.0
C1747 C 0.5299 0.48586 0.68567 0.0
C1748 C 0.52994 0.5132 0.69935 0.0
C1749 C 0.55464 0.53438 0.69723 0.0
C1750 C 0.55571 0.45103 0.65538 0.0
C1751 C 0.50381 0.52017 0.71602 0.0
C1752 C 0.45388 0.4471 0.66938 0.0
C1753 C 0.45576 0.41941 0.68204 0.0
C1754 C 0.47754 0.46945 0.67086 0.0
C1755 C 0.50292 0.46436 0.68606 0.0
C1756 C 0.50381 0.43728 0.69999 0.0
C1757 C 0.48049 0.41474 0.69742 0.0
C1758 C 0.47632 0.4975 0.65512 0.0
C1759 C 0.5299 0.43161 0.717 0.0
H1760 H 0.59951 0.4956 0.65828 0.0
H1761 H 0.55445 0.55581 0.70713 0.0
H1762 H 0.5545 0.42962 0.66605 0.0
H1763 H 0.53503 0.45111 0.64386 0.0
H1764 H 0.57693 0.44992 0.64443 0.0
H1765 H 0.50871 0.54097 0.72684 0.0
H1766 H 0.48195 0.52422 0.70627 0.0
H1767 H 0.49979 0.49995 0.72761 0.0
H1768 H 0.4348 0.4505 0.65735 0.0
H1769 H 0.48169 0.39332 0.70731 0.0
H1770 H 0.49608 0.49671 0.64276 0.0
H1771 H 0.47873 0.51918 0.66535 0.0
H1772 H 0.45432 0.49863 0.64505 0.0
H1773 H 0.55165 0.42645 0.70744 0.0
H1774 H 0.52483 0.4118 0.72878 0.0
H1775 H 0.53418 0.45271 0.72761 0.0
C1776 C 0.0557 0.46199 0.19902 0.0
C1777 C 0.05466 0.43766 0.18294 0.0
C1778 C 0.03175 0.48395 0.20009 0.0
C1779 C 0.00688 0.48212 0.18405 0.0
C1780 C 0.00492 0.45658 0.1686 0.0
C1781 C 0.02872 0.43428 0.16848 0.0
C1782 C 0.03422 0.5103 0.2173 0.0
C1783 C 0.97925 0.45423 0.15081 0.0
C1784 C 0.93837 0.53724 0.1907 0.0
C1785 C 0.94837 0.56251 0.17729 0.0
C1786 C 0.95711 0.51069 0.19312 0.0
C1787 C 0.98586 0.50918 0.1812 0.0
C1788 C 0.99547 0.53433 0.16705 0.0
C1789 C 0.97684 0.56088 0.16561 0.0
C1790 C 0.94662 0.48469 0.20887 0.0
C1791 C 0.02558 0.53337 0.15354 0.0
H1792 H 0.07579 0.4644 0.21027 0.0
H1793 H 0.02816 0.41555 0.15591 0.0
H1794 H 0.04102 0.53193 0.20811 0.0
H1795 H 0.01144 0.51459 0.22574 0.0
H1796 H 0.05183 0.50553 0.23095 0.0
H1797 H 0.97865 0.43105 0.14233 0.0
H1798 H 0.95629 0.45877 0.15884 0.0
H1799 H 0.98293 0.47216 0.13724 0.0
H1800 H 0.91634 0.5386 0.19977 0.0
H1801 H 0.98442 0.58027 0.15503 0.0
H1802 H 0.96341 0.48205 0.22336 0.0
H1803 H 0.94621 0.46234 0.1993 0.0
H1804 H 0.92315 0.48897 0.21625 0.0
H1805 H 0.04559 0.5328 0.16569 0.0
H1806 H 0.02836 0.55381 0.14193 0.0
H1807 H 0.02665 0.51194 0.14286 0.0
C1808 C 0.93406 0.96291 0.70496 0.0
C1809 C 0.93623 0.93806 0.68939 0.0
C1810 C 0.95684 0.9862 0.70543 0.0
C1811 C 0.98159 0.98512 0.68929 0.0
C1812 C 0.98471 0.95917 0.67435 0.0
C1813 C 0.96214 0.93559 0.67485 0.0
C1814 C 0.95325 0.01296 0.72216 0.0
C1815 C 0.01028 0.95758 0.65646 0.0
C1816 C 0.00974 0.06383 0.66873 0.0
C1817 C 0.03859 0.06628 0.67983 0.0
C1818 C 0.99133 0.0372 0.67132 0.0
C1819 C 0.00161 0.0129 0.68602 0.0
C1820 C 0.0305 0.01551 0.69764 0.0
C1821 C 0.04897 0.04203 0.69407 0.0
C1822 C 0.961 0.03497 0.65813 0.0
C1823 C 0.04167 0.9905 0.71401 0.0
H1824 H 0.91397 0.96465 0.71624 0.0
H1825 H 0.96356 0.91647 0.66266 0.0
H1826 H 0.97586 0.01865 0.73043 0.0
H1827 H 0.94541 0.03392 0.71261 0.0
H1828 H 0.93598 0.00778 0.73595 0.0
H1829 H 0.01155 0.93439 0.64804 0.0
H1830 H 0.00598 0.97531 0.64285 0.0
H1831 H 0.03315 0.96292 0.66441 0.0
H1832 H 0.00189 0.08245 0.6575 0.0
H1833 H 0.0713 0.04403 0.7027 0.0
H1834 H 0.94125 0.03377 0.67046 0.0
H1835 H 0.9605 0.01337 0.64761 0.0
H1836 H 0.95731 0.05514 0.64641 0.0
H1837 H 0.02438 0.98703 0.72806 0.0
H1838 H 0.06449 0.99631 0.72195 0.0
H1839 H 0.04384 0.96808 0.70467 0.0
C1840 C 0.51094 0.57477 0.31254 0.0
C1841 C 0.53606 0.56977 0.32753 0.0
C1842 C 0.48717 0.55258 0.31042 0.0
C1843 C 0.48801 0.52553 0.32439 0.0
C1844 C 0.51377 0.52008 0.33915 0.0
C1845 C 0.53784 0.54206 0.34019 0.0
C1846 C 0.46066 0.55862 0.29385 0.0
C1847 C 0.51503 0.49206 0.35491 0.0
C1848 C 0.41063 0.49069 0.3419 0.0
C1849 C 0.41029 0.46299 0.32917 0.0
C1850 C 0.43584 0.51122 0.34049 0.0
C1851 C 0.46072 0.5044 0.32524 0.0
C1852 C 0.45988 0.47703 0.3116 0.0
C1853 C 0.4349 0.45623 0.31411 0.0
C1854 C 0.43629 0.53963 0.3559 0.0
C1855 C 0.48541 0.46965 0.29453 0.0
H1856 H 0.50975 0.59617 0.30264 0.0
H1857 H 0.55719 0.53833 0.35191 0.0
H1858 H 0.4557 0.53756 0.28335 0.0
H1859 H 0.4393 0.56418 0.30377 0.0
H1860 H 0.4657 0.57831 0.28194 0.0
H1861 H 0.5373 0.49061 0.36463 0.0
H1862 H 0.49565 0.49318 0.36759 0.0
H1863 H 0.51198 0.47039 0.34476 0.0
H1864 H 0.39171 0.49573 0.35371 0.0
H1865 H 0.43447 0.43482 0.3042 0.0
H1866 H 0.43751 0.56102 0.34519 0.0
H1867 H 0.45731 0.53928 0.36708 0.0
H1868 H 0.41541 0.54108 0.36719 0.0
H1869 H 0.48933 0.48976 0.28281 0.0
H1870 H 0.47994 0.44885 0.28385 0.0
H1871 H 0.50751 0.46539 0.30392 0.0
C1872 C 0.02489 0.43104 0.8103 0.0
C1873 C 0.05093 0.43176 0.82485 0.0
C1874 C 0.00367 0.45571 0.81004 0.0
C1875 C 0.00808 0.48104 0.82536 0.0
C1876 C 0.03522 0.48257 0.83926 0.0
C1877 C 0.05666 0.45803 0.83854 0.0
C1878 C 0.97553 0.45367 0.79443 0.0
C1879 C 0.04033 0.50872 0.85631 0.0
C1880 C 0.95548 0.55176 0.82035 0.0
C1881 C 0.93126 0.54335 0.83532 0.0
C1882 C 0.98084 0.53172 0.81682 0.0
C1883 C 0.98228 0.50331 0.82921 0.0
C1884 C 0.95828 0.49535 0.84494 0.0
C1885 C 0.93282 0.51523 0.84747 0.0
C1886 C 0.00554 0.54046 0.79941 0.0
C1887 C 0.95931 0.46568 0.85899 0.0
H1888 H 0.02066 0.41074 0.79959 0.0
H1889 H 0.07674 0.45844 0.84991 0.0
H1890 H 0.95467 0.44813 0.80497 0.0
H1891 H 0.97128 0.47628 0.78572 0.0
H1892 H 0.97817 0.43537 0.78098 0.0
H1893 H 0.06423 0.50854 0.86364 0.0
H1894 H 0.03613 0.53157 0.84799 0.0
H1895 H 0.02351 0.50639 0.8708 0.0
H1896 H 0.95413 0.57351 0.8109 0.0
H1897 H 0.91423 0.50891 0.85924 0.0
H1898 H 0.00591 0.52306 0.7852 0.0
H1899 H 0.02883 0.54017 0.80767 0.0
H1900 H 0.00152 0.56382 0.79177 0.0
H1901 H 0.95779 0.44528 0.84728 0.0
H1902 H 0.93999 0.46421 0.87174 0.0
H1903 H 0.9817 0.464 0.86849 0.0
C1904 C 0.94495 0.94353 0.31977 0.0
C1905 C 0.95401 0.91934 0.33456 0.0
C1906 C 0.96437 0.96942 0.31633 0.0
C1907 C 0.99278 0.97148 0.32868 0.0
C1908 C 0.00163 0.9473 0.34398 0.0
C1909 C 0.98238 0.92127 0.34637 0.0
C1910 C 0.95477 0.99426 0.2993 0.0
C1911 C 0.0313 0.949 0.358 0.0
C1912 C 0.0625 0.01957 0.31125 0.0
C1913 C 0.05984 0.04498 0.32627 0.0
C1914 C 0.03934 -0.00335 0.31044 0.0
C1915 C 0.01367 -0.00133 0.32573 0.0
C1916 C 0.01026 0.02502 0.34022 0.0
C1917 C 0.03321 0.04822 0.34 0.0
C1918 C 0.04324 0.96943 0.29418 0.0
C1919 C 0.98377 0.02756 0.35729 0.0
H1920 H 0.92301 0.94187 0.31057 0.0
H1921 H 0.98922 0.90267 0.35797 0.0
H1922 H 0.95277 0.017 0.30823 0.0
H1923 H 0.97287 -0.00316 0.28571 0.0
H1924 H 0.93222 0.98888 0.29078 0.0
H1925 H 0.03377 0.92906 0.37012 0.0
H1926 H 0.0517 0.94926 0.34624 0.0
H1927 H 0.03192 0.97087 0.3682 0.0
H1928 H 0.08306 0.01727 0.30051 0.0
H1929 H 0.03131 0.06781 0.35173 0.0
H1930 H 0.02101 0.96415 0.28521 0.0
H1931 H 0.04994 0.94849 0.30422 0.0
H1932 H 0.06147 0.97386 0.28092 0.0
H1933 H 0.96121 0.023 0.34861 0.0
H1934 H 0.98281 0.05081 0.36565 0.0
H1935 H 0.98664 0.00972 0.37103 0.0
C1936 C 0.58848 0.99121 0.818 0.0
C1937 C 0.58263 0.96494 0.83167 0.0
C1938 C 0.56636 0.01501 0.81613 0.0
C1939 C 0.53842 0.01291 0.829 0.0
C1940 C 0.53229 0.98617 0.84259 0.0
C1941 C 0.55427 0.96219 0.84339 0.0
C1942 C 0.57319 0.04266 0.80081 0.0
C1943 C 0.50322 0.98352 0.85716 0.0
C1944 C 0.49909 0.08779 0.84705 0.0
C1945 C 0.47243 0.08747 0.83313 0.0
C1946 C 0.52091 0.06372 0.84575 0.0
C1947 C 0.51643 0.03944 0.8295 0.0
C1948 C 0.49022 0.03981 0.81462 0.0
C1949 C 0.46812 0.06356 0.81696 0.0
C1950 C 0.54803 0.06365 0.86243 0.0
C1951 C 0.48533 0.01493 0.79652 0.0
H1952 H 0.6104 0.99317 0.80883 0.0
H1953 H 0.54989 0.94195 0.85411 0.0
H1954 H 0.55309 0.04744 0.78927 0.0
H1955 H 0.57689 0.06363 0.81166 0.0
H1956 H 0.59421 0.03905 0.78995 0.0
H1957 H 0.50182 0.961 0.86655 0.0
H1958 H 0.50267 0.00265 0.87007 0.0
H1959 H 0.48225 0.98595 0.84611 0.0
H1960 H 0.5022 0.10617 0.8597 0.0
H1961 H 0.4475 0.06351 0.80612 0.0
H1962 H 0.57028 0.06321 0.85274 0.0
H1963 H 0.54721 0.04237 0.8733 0.0
H1964 H 0.54803 0.08428 0.87403 0.0
H1965 H 0.50663 0.0122 0.78586 0.0
H1966 H 0.46547 0.02029 0.78486 0.0
H1967 H 0.48079 0.99229 0.80508 0.0
loop_
_geom_bond_atom_site_label_1
_geom_bond_atom_site_label_2
_geom_bond_distance
_geom_bond_site_symmetry_2
_ccdc_geom_bond_type
Co0 O2 2.143 . S
Co0 O8 2.074 . S
Co0 O11 2.093 . S
Co0 O24 2.097 . S
Co0 N41 2.151 . S
Co0 N49 2.214 . S
Co1 O2 2.160 . S
Co1 O7 2.058 . S
Co1 O17 2.057 . S
Co1 O32 2.037 . S
Co1 N36 2.145 . S
Co1 N57 2.257 . S
O2 Co0 2.143 . S
O2 Co1 2.160 . S
C3 O4 1.278 . S
C3 O11 1.224 . S
O4 C3 1.278 . S
C5 O6 1.245 . S
C5 O17 1.232 . S
O6 C5 1.245 . S
O7 Co1 2.058 . S
O7 C33 1.269 . S
O8 Co0 2.074 . S
O8 C33 1.257 . S
H9 C34 0.930 . S
H10 C40 0.930 . S
O11 Co0 2.093 . S
O11 C3 1.224 . S
H12 C44 0.935 . S
H13 C46 0.930 . S
H14 C47 0.930 . S
H15 C45 0.929 . S
H16 C48 0.928 . S
O17 Co1 2.057 . S
O17 C5 1.232 . S
H18 C37 0.929 . S
H19 C38 0.929 . S
H20 C50 0.931 . S
H21 C42 0.929 1_565 S
H22 C51 0.930 . S
H23 C43 0.931 . S
O24 Co0 2.097 . S
O24 C52 1.214 . S
H25 C53 0.929 . S
H26 C54 0.929 . S
H27 C55 0.930 . S
H28 C56 0.929 . S
H29 C58 0.930 . S
H30 C35 0.930 . S
H31 C39 0.930 . S
O32 Co1 2.037 . S
O32 C52 1.234 . S
C33 O7 1.269 . S
C33 O8 1.257 . S
C34 H9 0.930 . S
C34 C37 1.388 . S
C34 C39 1.418 . S
C35 H30 0.930 . S
C35 C38 1.404 . S
C35 C39 1.353 . S
N36 Co1 2.145 . S
N36 C37 1.397 . S
N36 C38 1.334 . S
C37 H18 0.929 . S
C37 C34 1.388 . S
C37 N36 1.397 . S
C38 H19 0.929 . S
C38 C35 1.404 . S
C38 N36 1.334 . S
C39 H31 0.930 . S
C39 C34 1.418 . S
C39 C35 1.353 . S
C40 H10 0.930 . S
C40 N41 1.330 . S
C40 C42 1.446 . S
N41 Co0 2.151 . S
N41 C40 1.330 . S
N41 C45 1.418 . S
C42 H21 0.929 1_545 S
C42 C40 1.446 . S
C42 C43 1.332 1_545 S
C43 H23 0.931 . S
C43 C42 1.332 1_565 S
C43 C44 1.267 1_565 S
C44 H12 0.935 . S
C44 C43 1.267 1_545 S
C44 C45 1.251 . S
C45 H15 0.929 . S
C45 N41 1.418 . S
C45 C44 1.251 . S
C46 H13 0.930 . S
C46 C48 1.406 . S
C46 C51 1.261 . S
C47 H14 0.930 . S
C47 N49 1.325 . S
C47 C50 1.357 . S
C48 H16 0.928 . S
C48 C46 1.406 . S
C48 N49 1.261 . S
N49 Co0 2.214 . S
N49 C47 1.325 . S
N49 C48 1.261 . S
C50 H20 0.931 . S
C50 C47 1.357 . S
C50 C51 1.312 . S
C51 H22 0.930 . S
C51 C46 1.261 . S
C51 C50 1.312 . S
C52 O24 1.214 . S
C52 O32 1.234 . S
C53 H25 0.929 . S
C53 C56 1.391 . S
C53 C58 1.391 . S
C54 H26 0.929 . S
C54 C55 1.390 . S
C54 N57 1.391 . S
C55 H27 0.930 . S
C55 C54 1.390 . S
C55 C56 1.392 . S
C56 H28 0.929 . S
C56 C53 1.391 . S
C56 C55 1.392 . S
N57 Co1 2.257 . S
N57 C54 1.391 . S
N57 C58 1.388 . S
C58 H29 0.930 . S
C58 C53 1.391 . S
C58 N57 1.388 . S
Co59 O61 2.143 . S
Co59 O67 2.074 . S
Co59 O70 2.093 . S
Co59 O83 2.097 . S
Co59 N100 2.151 . S
Co59 N108 2.214 . S
Co60 O61 2.160 . S
Co60 O66 2.058 . S
Co60 O76 2.057 . S
Co60 O91 2.037 . S
Co60 N95 2.145 . S
Co60 N116 2.257 . S
O61 Co59 2.143 . S
O61 Co60 2.160 . S
C62 O63 1.278 . S
C62 O70 1.224 . S
O63 C62 1.278 . S
C64 O65 1.245 . S
C64 O76 1.232 . S
O65 C64 1.245 . S
O66 Co60 2.058 . S
O66 C92 1.269 . S
O67 Co59 2.074 . S
O67 C92 1.257 . S
H68 C93 0.930 . S
H69 C99 0.930 . S
O70 Co59 2.093 . S
O70 C62 1.224 . S
H71 C103 0.929 . S
H72 C105 0.930 . S
H73 C106 0.930 . S
H74 C104 0.929 . S
H75 C107 0.928 . S
O76 Co60 2.057 . S
O76 C64 1.232 . S
H77 C96 0.929 . S
H78 C97 0.929 . S
H79 C109 0.931 . S
H80 C101 0.929 . S
H81 C110 0.930 . S
H82 C102 0.931 . S
O83 Co59 2.097 . S
O83 C111 1.214 . S
H84 C112 0.929 . S
H85 C113 0.929 . S
H86 C114 0.930 . S
H87 C115 0.929 . S
H88 C117 0.930 . S
H89 C94 0.930 . S
H90 C98 0.930 . S
O91 Co60 2.037 . S
O91 C111 1.234 . S
C92 O66 1.269 . S
C92 O67 1.257 . S
C93 H68 0.930 . S
C93 C96 1.388 . S
C93 C98 1.418 . S
C94 H89 0.930 . S
C94 C97 1.404 . S
C94 C98 1.353 . S
N95 Co60 2.145 . S
N95 C96 1.397 . S
N95 C97 1.334 . S
C96 H77 0.929 . S
C96 C93 1.388 . S
C96 N95 1.397 . S
C97 H78 0.929 . S
C97 C94 1.404 . S
C97 N95 1.334 . S
C98 H90 0.930 . S
C98 C93 1.418 . S
C98 C94 1.353 . S
C99 H69 0.930 . S
C99 N100 1.330 . S
C99 C101 1.446 . S
N100 Co59 2.151 . S
N100 C99 1.330 . S
N100 C104 1.418 . S
C101 H80 0.929 . S
C101 C99 1.446 . S
C101 C102 1.332 . S
C102 H82 0.931 . S
C102 C101 1.332 . S
C102 C103 1.267 . S
C103 H71 0.929 . S
C103 C102 1.267 . S
C103 C104 1.251 . S
C104 H74 0.929 . S
C104 N100 1.418 . S
C104 C103 1.251 . S
C105 H72 0.930 . S
C105 C107 1.406 . S
C105 C110 1.261 . S
C106 H73 0.930 . S
C106 N108 1.325 . S
C106 C109 1.357 . S
C107 H75 0.928 . S
C107 C105 1.406 . S
C107 N108 1.261 . S
N108 Co59 2.214 . S
N108 C106 1.325 . S
N108 C107 1.261 . S
C109 H79 0.931 . S
C109 C106 1.357 . S
C109 C110 1.312 . S
C110 H81 0.930 . S
C110 C105 1.261 . S
C110 C109 1.312 . S
C111 O83 1.214 . S
C111 O91 1.234 . S
C112 H84 0.929 . S
C112 C115 1.391 . S
C112 C117 1.391 . S
C113 H85 0.929 . S
C113 C114 1.390 . S
C113 N116 1.391 . S
C114 H86 0.930 . S
C114 C113 1.390 . S
C114 C115 1.392 . S
C115 H87 0.929 . S
C115 C112 1.391 . S
C115 C114 1.392 . S
N116 Co60 2.257 . S
N116 C113 1.391 . S
N116 C117 1.388 . S
C117 H88 0.930 . S
C117 C112 1.391 . S
C117 N116 1.388 . S
Co118 O120 2.143 . S
Co118 O126 2.074 . S
Co118 O129 2.093 . S
Co118 O142 2.097 . S
Co118 N159 2.151 . S
Co118 N167 2.214 . S
Co119 O120 2.160 . S
Co119 O125 2.058 . S
Co119 O135 2.057 . S
Co119 O150 2.037 . S
Co119 N154 2.145 . S
Co119 N175 2.257 . S
O120 Co118 2.143 . S
O120 Co119 2.160 . S
C121 O122 1.278 . S
C121 O129 1.224 . S
O122 C121 1.278 . S
C123 O124 1.245 . S
C123 O135 1.232 . S
O124 C123 1.245 . S
O125 Co119 2.058 . S
O125 C151 1.269 . S
O126 Co118 2.074 . S
O126 C151 1.257 . S
H127 C152 0.930 . S
H128 C158 0.930 . S
O129 Co118 2.093 . S
O129 C121 1.224 . S
H130 C162 0.929 . S
H131 C164 0.930 . S
H132 C165 0.930 . S
H133 C163 0.929 . S
H134 C166 0.928 . S
O135 Co119 2.057 . S
O135 C123 1.232 . S
H136 C155 0.929 . S
H137 C156 0.929 . S
H138 C168 0.931 . S
H139 C160 0.929 . S
H140 C169 0.930 . S
H141 C161 0.931 . S
O142 Co118 2.097 . S
O142 C170 1.214 . S
H143 C171 0.929 . S
H144 C172 0.929 . S
H145 C173 0.930 . S
H146 C174 0.929 . S
H147 C176 0.930 . S
H148 C153 0.930 . S
H149 C157 0.930 . S
O150 Co119 2.037 . S
O150 C170 1.234 . S
C151 O125 1.269 . S
C151 O126 1.257 . S
C152 H127 0.930 . S
C152 C155 1.388 . S
C152 C157 1.418 . S
C153 H148 0.930 . S
C153 C156 1.404 . S
C153 C157 1.353 . S
N154 Co119 2.145 . S
N154 C155 1.397 . S
N154 C156 1.334 . S
C155 H136 0.929 . S
C155 C152 1.388 . S
C155 N154 1.397 . S
C156 H137 0.929 . S
C156 C153 1.404 . S
C156 N154 1.334 . S
C157 H149 0.930 . S
C157 C152 1.418 . S
C157 C153 1.353 . S
C158 H128 0.930 . S
C158 N159 1.330 . S
C158 C160 1.446 . S
N159 Co118 2.151 . S
N159 C158 1.330 . S
N159 C163 1.418 . S
C160 H139 0.929 . S
C160 C158 1.446 . S
C160 C161 1.332 . S
C161 H141 0.931 . S
C161 C160 1.332 . S
C161 C162 1.267 . S
C162 H130 0.929 . S
C162 C161 1.267 . S
C162 C163 1.251 . S
C163 H133 0.929 . S
C163 N159 1.418 . S
C163 C162 1.251 . S
C164 H131 0.930 . S
C164 C166 1.406 . S
C164 C169 1.261 . S
C165 H132 0.930 . S
C165 N167 1.325 . S
C165 C168 1.357 . S
C166 H134 0.928 . S
C166 C164 1.406 . S
C166 N167 1.261 . S
N167 Co118 2.214 . S
N167 C165 1.325 . S
N167 C166 1.261 . S
C168 H138 0.931 . S
C168 C165 1.357 . S
C168 C169 1.312 . S
C169 H140 0.930 . S
C169 C164 1.261 . S
C169 C168 1.312 . S
C170 O142 1.214 . S
C170 O150 1.234 . S
C171 H143 0.929 . S
C171 C174 1.391 . S
C171 C176 1.391 . S
C172 H144 0.929 . S
C172 C173 1.390 . S
C172 N175 1.391 . S
C173 H145 0.930 . S
C173 C172 1.390 . S
C173 C174 1.392 . S
C174 H146 0.929 . S
C174 C171 1.391 . S
C174 C173 1.392 . S
N175 Co119 2.257 . S
N175 C172 1.391 . S
N175 C176 1.388 . S
C176 H147 0.930 . S
C176 C171 1.391 . S
C176 N175 1.388 . S
Co177 O179 2.143 . S
Co177 O185 2.074 . S
Co177 O188 2.093 . S
Co177 O201 2.097 . S
Co177 N218 2.151 . S
Co177 N226 2.214 . S
Co178 O179 2.160 . S
Co178 O184 2.058 . S
Co178 O194 2.057 . S
Co178 O209 2.037 . S
Co178 N213 2.145 . S
Co178 N234 2.257 . S
O179 Co177 2.143 . S
O179 Co178 2.160 . S
C180 O181 1.278 . S
C180 O188 1.224 . S
O181 C180 1.278 . S
C182 O183 1.245 . S
C182 O194 1.232 . S
O183 C182 1.245 . S
O184 Co178 2.058 . S
O184 C210 1.269 . S
O185 Co177 2.074 . S
O185 C210 1.257 . S
H186 C211 0.930 . S
H187 C217 0.930 . S
O188 Co177 2.093 . S
O188 C180 1.224 . S
H189 C221 0.935 . S
H190 C223 0.930 . S
H191 C224 0.930 . S
H192 C222 0.929 . S
H193 C225 0.928 . S
O194 Co178 2.057 . S
O194 C182 1.232 . S
H195 C214 0.929 . S
H196 C215 0.929 . S
H197 C227 0.931 . S
H198 C219 0.929 1_655 S
H199 C228 0.930 . S
H200 C220 0.931 . S
O201 Co177 2.097 . S
O201 C229 1.214 . S
H202 C230 0.929 . S
H203 C231 0.929 . S
H204 C232 0.930 . S
H205 C233 0.929 . S
H206 C235 0.930 . S
H207 C212 0.930 . S
H208 C216 0.930 . S
O209 Co178 2.037 . S
O209 C229 1.234 . S
C210 O184 1.269 . S
C210 O185 1.257 . S
C211 H186 0.930 . S
C211 C214 1.388 . S
C211 C216 1.418 . S
C212 H207 0.930 . S
C212 C215 1.404 . S
C212 C216 1.353 . S
N213 Co178 2.145 . S
N213 C214 1.397 . S
N213 C215 1.334 . S
C214 H195 0.929 . S
C214 C211 1.388 . S
C214 N213 1.397 . S
C215 H196 0.929 . S
C215 C212 1.404 . S
C215 N213 1.334 . S
C216 H208 0.930 . S
C216 C211 1.418 . S
C216 C212 1.353 . S
C217 H187 0.930 . S
C217 N218 1.330 . S
C217 C219 1.446 . S
N218 Co177 2.151 . S
N218 C217 1.330 . S
N218 C222 1.418 . S
C219 H198 0.929 1_455 S
C219 C217 1.446 . S
C219 C220 1.332 1_455 S
C220 H200 0.931 . S
C220 C219 1.332 1_655 S
C220 C221 1.267 1_655 S
C221 H189 0.935 . S
C221 C220 1.267 1_455 S
C221 C222 1.251 . S
C222 H192 0.929 . S
C222 N218 1.418 . S
C222 C221 1.251 . S
C223 H190 0.930 . S
C223 C225 1.406 . S
C223 C228 1.261 . S
C224 H191 0.930 . S
C224 N226 1.325 . S
C224 C227 1.357 . S
C225 H193 0.928 . S
C225 C223 1.406 . S
C225 N226 1.261 . S
N226 Co177 2.214 . S
N226 C224 1.325 . S
N226 C225 1.261 . S
C227 H197 0.931 . S
C227 C224 1.357 . S
C227 C228 1.312 . S
C228 H199 0.930 . S
C228 C223 1.261 . S
C228 C227 1.312 . S
C229 O201 1.214 . S
C229 O209 1.234 . S
C230 H202 0.929 . S
C230 C233 1.391 . S
C230 C235 1.391 . S
C231 H203 0.929 . S
C231 C232 1.390 . S
C231 N234 1.391 . S
C232 H204 0.930 . S
C232 C231 1.390 . S
C232 C233 1.392 . S
C233 H205 0.929 . S
C233 C230 1.391 . S
C233 C232 1.392 . S
N234 Co178 2.257 . S
N234 C231 1.391 . S
N234 C235 1.388 . S
C235 H206 0.930 . S
C235 C230 1.391 . S
C235 N234 1.388 . S
Co236 O238 2.143 . S
Co236 O244 2.074 . S
Co236 O247 2.093 . S
Co236 O260 2.097 . S
Co236 N277 2.151 . S
Co236 N285 2.214 . S
Co237 O238 2.160 . S
Co237 O243 2.058 . S
Co237 O253 2.057 . S
Co237 O268 2.037 . S
Co237 N272 2.145 . S
Co237 N293 2.257 . S
O238 Co236 2.143 . S
O238 Co237 2.160 . S
C239 O240 1.278 . S
C239 O247 1.224 . S
O240 C239 1.278 . S
C241 O242 1.245 . S
C241 O253 1.232 . S
O242 C241 1.245 . S
O243 Co237 2.058 . S
O243 C269 1.269 . S
O244 Co236 2.074 . S
O244 C269 1.257 . S
H245 C270 0.930 . S
H246 C276 0.930 . S
O247 Co236 2.093 . S
O247 C239 1.224 . S
H248 C280 0.929 . S
H249 C282 0.930 . S
H250 C283 0.930 . S
H251 C281 0.929 . S
H252 C284 0.928 . S
O253 Co237 2.057 . S
O253 C241 1.232 . S
H254 C273 0.929 . S
H255 C274 0.929 . S
H256 C286 0.931 . S
H257 C278 0.929 . S
H258 C287 0.930 . S
H259 C279 0.931 . S
O260 Co236 2.097 . S
O260 C288 1.214 . S
H261 C289 0.929 . S
H262 C290 0.929 . S
H263 C291 0.930 . S
H264 C292 0.929 . S
H265 C294 0.930 . S
H266 C271 0.930 . S
H267 C275 0.930 . S
O268 Co237 2.037 . S
O268 C288 1.234 . S
C269 O243 1.269 . S
C269 O244 1.257 . S
C270 H245 0.930 . S
C270 C273 1.388 . S
C270 C275 1.418 . S
C271 H266 0.930 . S
C271 C274 1.404 . S
C271 C275 1.353 . S
N272 Co237 2.145 . S
N272 C273 1.397 . S
N272 C274 1.334 . S
C273 H254 0.929 . S
C273 C270 1.388 . S
C273 N272 1.397 . S
C274 H255 0.929 . S
C274 C271 1.404 . S
C274 N272 1.334 . S
C275 H267 0.930 . S
C275 C270 1.418 . S
C275 C271 1.353 . S
C276 H246 0.930 . S
C276 N277 1.330 . S
C276 C278 1.446 . S
N277 Co236 2.151 . S
N277 C276 1.330 . S
N277 C281 1.418 . S
C278 H257 0.929 . S
C278 C276 1.446 . S
C278 C279 1.332 . S
C279 H259 0.931 . S
C279 C278 1.332 . S
C279 C280 1.267 . S
C280 H248 0.929 . S
C280 C279 1.267 . S
C280 C281 1.251 . S
C281 H251 0.929 . S
C281 N277 1.418 . S
C281 C280 1.251 . S
C282 H249 0.930 . S
C282 C284 1.406 . S
C282 C287 1.261 . S
C283 H250 0.930 . S
C283 N285 1.325 . S
C283 C286 1.357 . S
C284 H252 0.928 . S
C284 C282 1.406 . S
C284 N285 1.261 . S
N285 Co236 2.214 . S
N285 C283 1.325 . S
N285 C284 1.261 . S
C286 H256 0.931 . S
C286 C283 1.357 . S
C286 C287 1.312 . S
C287 H258 0.930 . S
C287 C282 1.261 . S
C287 C286 1.312 . S
C288 O260 1.214 . S
C288 O268 1.234 . S
C289 H261 0.929 . S
C289 C292 1.391 . S
C289 C294 1.391 . S
C290 H262 0.929 . S
C290 C291 1.390 . S
C290 N293 1.391 . S
C291 H263 0.930 . S
C291 C290 1.390 . S
C291 C292 1.392 . S
C292 H264 0.929 . S
C292 C289 1.391 . S
C292 C291 1.392 . S
N293 Co237 2.257 . S
N293 C290 1.391 . S
N293 C294 1.388 . S
C294 H265 0.930 . S
C294 C289 1.391 . S
C294 N293 1.388 . S
Co295 O297 2.143 . S
Co295 O303 2.074 . S
Co295 O306 2.093 . S
Co295 O319 2.097 . S
Co295 N336 2.151 . S
Co295 N344 2.214 . S
Co296 O297 2.160 . S
Co296 O302 2.058 . S
Co296 O312 2.057 . S
Co296 O327 2.037 . S
Co296 N331 2.145 . S
Co296 N352 2.257 . S
O297 Co295 2.143 . S
O297 Co296 2.160 . S
C298 O299 1.278 . S
C298 O306 1.224 . S
O299 C298 1.278 . S
C300 O301 1.245 . S
C300 O312 1.232 . S
O301 C300 1.245 . S
O302 Co296 2.058 . S
O302 C328 1.269 . S
O303 Co295 2.074 . S
O303 C328 1.257 . S
H304 C329 0.930 . S
H305 C335 0.930 . S
O306 Co295 2.093 . S
O306 C298 1.224 . S
H307 C339 0.935 . S
H308 C341 0.930 . S
H309 C342 0.930 . S
H310 C340 0.929 . S
H311 C343 0.928 . S
O312 Co296 2.057 . S
O312 C300 1.232 . S
H313 C332 0.929 . S
H314 C333 0.929 . S
H315 C345 0.931 . S
H316 C337 0.929 1_655 S
H317 C346 0.930 . S
H318 C338 0.931 . S
O319 Co295 2.097 . S
O319 C347 1.214 . S
H320 C348 0.929 . S
H321 C349 0.929 . S
H322 C350 0.930 . S
H323 C351 0.929 . S
H324 C353 0.930 . S
H325 C330 0.930 . S
H326 C334 0.930 . S
O327 Co296 2.037 . S
O327 C347 1.234 . S
C328 O302 1.269 . S
C328 O303 1.257 . S
C329 H304 0.930 . S
C329 C332 1.388 . S
C329 C334 1.418 . S
C330 H325 0.930 . S
C330 C333 1.404 . S
C330 C334 1.353 . S
N331 Co296 2.145 . S
N331 C332 1.397 . S
N331 C333 1.334 . S
C332 H313 0.929 . S
C332 C329 1.388 . S
C332 N331 1.397 . S
C333 H314 0.929 . S
C333 C330 1.404 . S
C333 N331 1.334 . S
C334 H326 0.930 . S
C334 C329 1.418 . S
C334 C330 1.353 . S
C335 H305 0.930 . S
C335 N336 1.330 . S
C335 C337 1.446 . S
N336 Co295 2.151 . S
N336 C335 1.330 . S
N336 C340 1.418 . S
C337 H316 0.929 1_455 S
C337 C335 1.446 . S
C337 C338 1.332 1_455 S
C338 H318 0.931 . S
C338 C337 1.332 1_655 S
C338 C339 1.267 1_655 S
C339 H307 0.935 . S
C339 C338 1.267 1_455 S
C339 C340 1.251 . S
C340 H310 0.929 . S
C340 N336 1.418 . S
C340 C339 1.251 . S
C341 H308 0.930 . S
C341 C343 1.406 . S
C341 C346 1.261 . S
C342 H309 0.930 . S
C342 N344 1.325 . S
C342 C345 1.357 . S
C343 H311 0.928 . S
C343 C341 1.406 . S
C343 N344 1.261 . S
N344 Co295 2.214 . S
N344 C342 1.325 . S
N344 C343 1.261 . S
C345 H315 0.931 . S
C345 C342 1.357 . S
C345 C346 1.312 . S
C346 H317 0.930 . S
C346 C341 1.261 . S
C346 C345 1.312 . S
C347 O319 1.214 . S
C347 O327 1.234 . S
C348 H320 0.929 . S
C348 C351 1.391 . S
C348 C353 1.391 . S
C349 H321 0.929 . S
C349 C350 1.390 . S
C349 N352 1.391 . S
C350 H322 0.930 . S
C350 C349 1.390 . S
C350 C351 1.392 . S
C351 H323 0.929 . S
C351 C348 1.391 . S
C351 C350 1.392 . S
N352 Co296 2.257 . S
N352 C349 1.391 . S
N352 C353 1.388 . S
C353 H324 0.930 . S
C353 C348 1.391 . S
C353 N352 1.388 . S
Co354 O356 2.143 . S
Co354 O362 2.074 . S
Co354 O365 2.093 . S
Co354 O378 2.097 . S
Co354 N395 2.151 . S
Co354 N403 2.214 . S
Co355 O356 2.160 . S
Co355 O361 2.058 . S
Co355 O371 2.057 . S
Co355 O386 2.037 . S
Co355 N390 2.145 . S
Co355 N411 2.257 . S
O356 Co354 2.143 . S
O356 Co355 2.160 . S
C357 O358 1.278 . S
C357 O365 1.224 . S
O358 C357 1.278 . S
C359 O360 1.245 . S
C359 O371 1.232 . S
O360 C359 1.245 . S
O361 Co355 2.058 . S
O361 C387 1.269 . S
O362 Co354 2.074 . S
O362 C387 1.257 . S
H363 C388 0.930 . S
H364 C394 0.930 . S
O365 Co354 2.093 . S
O365 C357 1.224 . S
H366 C398 0.935 . S
H367 C400 0.930 . S
H368 C401 0.930 . S
H369 C399 0.929 . S
H370 C402 0.928 . S
O371 Co355 2.057 . S
O371 C359 1.232 . S
H372 C391 0.929 . S
H373 C392 0.929 . S
H374 C404 0.931 . S
H375 C396 0.929 1_565 S
H376 C405 0.930 . S
H377 C397 0.931 . S
O378 Co354 2.097 . S
O378 C406 1.214 . S
H379 C407 0.929 . S
H380 C408 0.929 . S
H381 C409 0.930 . S
H382 C410 0.929 . S
H383 C412 0.930 . S
H384 C389 0.930 . S
H385 C393 0.930 . S
O386 Co355 2.037 . S
O386 C406 1.234 . S
C387 O361 1.269 . S
C387 O362 1.257 . S
C388 H363 0.930 . S
C388 C391 1.388 . S
C388 C393 1.418 . S
C389 H384 0.930 . S
C389 C392 1.404 . S
C389 C393 1.353 . S
N390 Co355 2.145 . S
N390 C391 1.397 . S
N390 C392 1.334 . S
C391 H372 0.929 . S
C391 C388 1.388 . S
C391 N390 1.397 . S
C392 H373 0.929 . S
C392 C389 1.404 . S
C392 N390 1.334 . S
C393 H385 0.930 . S
C393 C388 1.418 . S
C393 C389 1.353 . S
C394 H364 0.930 . S
C394 N395 1.330 . S
C394 C396 1.446 . S
N395 Co354 2.151 . S
N395 C394 1.330 . S
N395 C399 1.418 . S
C396 H375 0.929 1_545 S
C396 C394 1.446 . S
C396 C397 1.332 1_545 S
C397 H377 0.931 . S
C397 C396 1.332 1_565 S
C397 C398 1.267 1_565 S
C398 H366 0.935 . S
C398 C397 1.267 1_545 S
C398 C399 1.251 . S
C399 H369 0.929 . S
C399 N395 1.418 . S
C399 C398 1.251 . S
C400 H367 0.930 . S
C400 C402 1.406 . S
C400 C405 1.261 . S
C401 H368 0.930 . S
C401 N403 1.325 . S
C401 C404 1.357 . S
C402 H370 0.928 . S
C402 C400 1.406 . S
C402 N403 1.261 . S
N403 Co354 2.214 . S
N403 C401 1.325 . S
N403 C402 1.261 . S
C404 H374 0.931 . S
C404 C401 1.357 . S
C404 C405 1.312 . S
C405 H376 0.930 . S
C405 C400 1.261 . S
C405 C404 1.312 . S
C406 O378 1.214 . S
C406 O386 1.234 . S
C407 H379 0.929 . S
C407 C410 1.391 . S
C407 C412 1.391 . S
C408 H380 0.929 . S
C408 C409 1.390 . S
C408 N411 1.391 . S
C409 H381 0.930 . S
C409 C408 1.390 . S
C409 C410 1.392 . S
C410 H382 0.929 . S
C410 C407 1.391 . S
C410 C409 1.392 . S
N411 Co355 2.257 . S
N411 C408 1.391 . S
N411 C412 1.388 . S
C412 H383 0.930 . S
C412 C407 1.391 . S
C412 N411 1.388 . S
Co413 O415 2.143 . S
Co413 O421 2.074 . S
Co413 O424 2.093 . S
Co413 O437 2.097 . S
Co413 N454 2.151 . S
Co413 N462 2.214 . S
Co414 O415 2.160 . S
Co414 O420 2.058 . S
Co414 O430 2.057 . S
Co414 O445 2.037 . S
Co414 N449 2.145 . S
Co414 N470 2.257 . S
O415 Co413 2.143 . S
O415 Co414 2.160 . S
C416 O417 1.278 . S
C416 O424 1.224 . S
O417 C416 1.278 . S
C418 O419 1.245 . S
C418 O430 1.232 . S
O419 C418 1.245 . S
O420 Co414 2.058 . S
O420 C446 1.269 . S
O421 Co413 2.074 . S
O421 C446 1.257 . S
H422 C447 0.930 . S
H423 C453 0.930 . S
O424 Co413 2.093 . S
O424 C416 1.224 . S
H425 C457 0.929 . S
H426 C459 0.930 . S
H427 C460 0.930 . S
H428 C458 0.929 . S
H429 C461 0.928 . S
O430 Co414 2.057 . S
O430 C418 1.232 . S
H431 C450 0.929 . S
H432 C451 0.929 . S
H433 C463 0.931 . S
H434 C455 0.929 . S
H435 C464 0.930 . S
H436 C456 0.931 . S
O437 Co413 2.097 . S
O437 C465 1.214 . S
H438 C466 0.929 . S
H439 C467 0.929 . S
H440 C468 0.930 . S
H441 C469 0.929 . S
H442 C471 0.930 . S
H443 C448 0.930 . S
H444 C452 0.930 . S
O445 Co414 2.037 . S
O445 C465 1.234 . S
C446 O420 1.269 . S
C446 O421 1.257 . S
C447 H422 0.930 . S
C447 C450 1.388 . S
C447 C452 1.418 . S
C448 H443 0.930 . S
C448 C451 1.404 . S
C448 C452 1.353 . S
N449 Co414 2.145 . S
N449 C450 1.397 . S
N449 C451 1.334 . S
C450 H431 0.929 . S
C450 C447 1.388 . S
C450 N449 1.397 . S
C451 H432 0.929 . S
C451 C448 1.404 . S
C451 N449 1.334 . S
C452 H444 0.930 . S
C452 C447 1.418 . S
C452 C448 1.353 . S
C453 H423 0.930 . S
C453 N454 1.330 . S
C453 C455 1.446 . S
N454 Co413 2.151 . S
N454 C453 1.330 . S
N454 C458 1.418 . S
C455 H434 0.929 . S
C455 C453 1.446 . S
C455 C456 1.332 . S
C456 H436 0.931 . S
C456 C455 1.332 . S
C456 C457 1.267 . S
C457 H425 0.929 . S
C457 C456 1.267 . S
C457 C458 1.251 . S
C458 H428 0.929 . S
C458 N454 1.418 . S
C458 C457 1.251 . S
C459 H426 0.930 . S
C459 C461 1.406 . S
C459 C464 1.261 . S
C460 H427 0.930 . S
C460 N462 1.325 . S
C460 C463 1.357 . S
C461 H429 0.928 . S
C461 C459 1.406 . S
C461 N462 1.261 . S
N462 Co413 2.214 . S
N462 C460 1.325 . S
N462 C461 1.261 . S
C463 H433 0.931 . S
C463 C460 1.357 . S
C463 C464 1.312 . S
C464 H435 0.930 . S
C464 C459 1.261 . S
C464 C463 1.312 . S
C465 O437 1.214 . S
C465 O445 1.234 . S
C466 H438 0.929 . S
C466 C469 1.391 . S
C466 C471 1.391 . S
C467 H439 0.929 . S
C467 C468 1.390 . S
C467 N470 1.391 . S
C468 H440 0.930 . S
C468 C467 1.390 . S
C468 C469 1.392 . S
C469 H441 0.929 . S
C469 C466 1.391 . S
C469 C468 1.392 . S
N470 Co414 2.257 . S
N470 C467 1.391 . S
N470 C471 1.388 . S
C471 H442 0.930 . S
C471 C466 1.391 . S
C471 N470 1.388 . S
Co472 O474 2.143 . S
Co472 O480 2.074 . S
Co472 O483 2.093 . S
Co472 O496 2.097 . S
Co472 N513 2.151 . S
Co472 N521 2.214 . S
Co473 O474 2.160 . S
Co473 O479 2.058 . S
Co473 O489 2.057 . S
Co473 O504 2.037 . S
Co473 N508 2.145 . S
Co473 N529 2.257 . S
O474 Co472 2.143 . S
O474 Co473 2.160 . S
C475 O476 1.278 . S
C475 O483 1.224 . S
O476 C475 1.278 . S
C477 O478 1.245 . S
C477 O489 1.232 . S
O478 C477 1.245 . S
O479 Co473 2.058 . S
O479 C505 1.269 . S
O480 Co472 2.074 . S
O480 C505 1.257 . S
H481 C506 0.930 . S
H482 C512 0.930 . S
O483 Co472 2.093 . S
O483 C475 1.224 . S
H484 C516 0.935 . S
H485 C518 0.930 . S
H486 C519 0.930 . S
H487 C517 0.929 . S
H488 C520 0.928 . S
O489 Co473 2.057 . S
O489 C477 1.232 . S
H490 C509 0.929 . S
H491 C510 0.929 . S
H492 C522 0.931 . S
H493 C514 0.929 1_545 S
H494 C523 0.930 . S
H495 C515 0.931 . S
O496 Co472 2.097 . S
O496 C524 1.214 . S
H497 C525 0.929 . S
H498 C526 0.929 . S
H499 C527 0.930 . S
H500 C528 0.929 . S
H501 C530 0.930 . S
H502 C507 0.930 . S
H503 C511 0.930 . S
O504 Co473 2.037 . S
O504 C524 1.234 . S
C505 O479 1.269 . S
C505 O480 1.257 . S
C506 H481 0.930 . S
C506 C509 1.388 . S
C506 C511 1.418 . S
C507 H502 0.930 . S
C507 C510 1.404 . S
C507 C511 1.353 . S
N508 Co473 2.145 . S
N508 C509 1.397 . S
N508 C510 1.334 . S
C509 H490 0.929 . S
C509 C506 1.388 . S
C509 N508 1.397 . S
C510 H491 0.929 . S
C510 C507 1.404 . S
C510 N508 1.334 . S
C511 H503 0.930 . S
C511 C506 1.418 . S
C511 C507 1.353 . S
C512 H482 0.930 . S
C512 N513 1.330 . S
C512 C514 1.446 . S
N513 Co472 2.151 . S
N513 C512 1.330 . S
N513 C517 1.418 . S
C514 H493 0.929 1_565 S
C514 C512 1.446 . S
C514 C515 1.332 1_565 S
C515 H495 0.931 . S
C515 C514 1.332 1_545 S
C515 C516 1.267 1_545 S
C516 H484 0.935 . S
C516 C515 1.267 1_565 S
C516 C517 1.251 . S
C517 H487 0.929 . S
C517 N513 1.418 . S
C517 C516 1.251 . S
C518 H485 0.930 . S
C518 C520 1.406 . S
C518 C523 1.261 . S
C519 H486 0.930 . S
C519 N521 1.325 . S
C519 C522 1.357 . S
C520 H488 0.928 . S
C520 C518 1.406 . S
C520 N521 1.261 . S
N521 Co472 2.214 . S
N521 C519 1.325 . S
N521 C520 1.261 . S
C522 H492 0.931 . S
C522 C519 1.357 . S
C522 C523 1.312 . S
C523 H494 0.930 . S
C523 C518 1.261 . S
C523 C522 1.312 . S
C524 O496 1.214 . S
C524 O504 1.234 . S
C525 H497 0.929 . S
C525 C528 1.391 . S
C525 C530 1.391 . S
C526 H498 0.929 . S
C526 C527 1.390 . S
C526 N529 1.391 . S
C527 H499 0.930 . S
C527 C526 1.390 . S
C527 C528 1.392 . S
C528 H500 0.929 . S
C528 C525 1.391 . S
C528 C527 1.392 . S
N529 Co473 2.257 . S
N529 C526 1.391 . S
N529 C530 1.388 . S
C530 H501 0.930 . S
C530 C525 1.391 . S
C530 N529 1.388 . S
Co531 O533 2.143 . S
Co531 O539 2.074 . S
Co531 O542 2.093 . S
Co531 O555 2.097 . S
Co531 N572 2.151 . S
Co531 N580 2.214 . S
Co532 O533 2.160 . S
Co532 O538 2.058 . S
Co532 O548 2.057 . S
Co532 O563 2.037 . S
Co532 N567 2.145 . S
Co532 N588 2.257 . S
O533 Co531 2.143 . S
O533 Co532 2.160 . S
C534 O535 1.278 . S
C534 O542 1.224 . S
O535 C534 1.278 . S
C536 O537 1.245 . S
C536 O548 1.232 . S
O537 C536 1.245 . S
O538 Co532 2.058 . S
O538 C564 1.269 . S
O539 Co531 2.074 . S
O539 C564 1.257 . S
H540 C565 0.930 . S
H541 C571 0.930 . S
O542 Co531 2.093 . S
O542 C534 1.224 . S
H543 C575 0.929 . S
H544 C577 0.930 . S
H545 C578 0.930 . S
H546 C576 0.929 . S
H547 C579 0.928 . S
O548 Co532 2.057 . S
O548 C536 1.232 . S
H549 C568 0.929 . S
H550 C569 0.929 . S
H551 C581 0.931 . S
H552 C573 0.929 . S
H553 C582 0.930 . S
H554 C574 0.931 . S
O555 Co531 2.097 . S
O555 C583 1.214 . S
H556 C584 0.929 . S
H557 C585 0.929 . S
H558 C586 0.930 . S
H559 C587 0.929 . S
H560 C589 0.930 . S
H561 C566 0.930 . S
H562 C570 0.930 . S
O563 Co532 2.037 . S
O563 C583 1.234 . S
C564 O538 1.269 . S
C564 O539 1.257 . S
C565 H540 0.930 . S
C565 C568 1.388 . S
C565 C570 1.418 . S
C566 H561 0.930 . S
C566 C569 1.404 . S
C566 C570 1.353 . S
N567 Co532 2.145 . S
N567 C568 1.397 . S
N567 C569 1.334 . S
C568 H549 0.929 . S
C568 C565 1.388 . S
C568 N567 1.397 . S
C569 H550 0.929 . S
C569 C566 1.404 . S
C569 N567 1.334 . S
C570 H562 0.930 . S
C570 C565 1.418 . S
C570 C566 1.353 . S
C571 H541 0.930 . S
C571 N572 1.330 . S
C571 C573 1.446 . S
N572 Co531 2.151 . S
N572 C571 1.330 . S
N572 C576 1.418 . S
C573 H552 0.929 . S
C573 C571 1.446 . S
C573 C574 1.332 . S
C574 H554 0.931 . S
C574 C573 1.332 . S
C574 C575 1.267 . S
C575 H543 0.929 . S
C575 C574 1.267 . S
C575 C576 1.251 . S
C576 H546 0.929 . S
C576 N572 1.418 . S
C576 C575 1.251 . S
C577 H544 0.930 . S
C577 C579 1.406 . S
C577 C582 1.261 . S
C578 H545 0.930 . S
C578 N580 1.325 . S
C578 C581 1.357 . S
C579 H547 0.928 . S
C579 C577 1.406 . S
C579 N580 1.261 . S
N580 Co531 2.214 . S
N580 C578 1.325 . S
N580 C579 1.261 . S
C581 H551 0.931 . S
C581 C578 1.357 . S
C581 C582 1.312 . S
C582 H553 0.930 . S
C582 C577 1.261 . S
C582 C581 1.312 . S
C583 O555 1.214 . S
C583 O563 1.234 . S
C584 H556 0.929 . S
C584 C587 1.391 . S
C584 C589 1.391 . S
C585 H557 0.929 . S
C585 C586 1.390 . S
C585 N588 1.391 . S
C586 H558 0.930 . S
C586 C585 1.390 . S
C586 C587 1.392 . S
C587 H559 0.929 . S
C587 C584 1.391 . S
C587 C586 1.392 . S
N588 Co532 2.257 . S
N588 C585 1.391 . S
N588 C589 1.388 . S
C589 H560 0.930 . S
C589 C584 1.391 . S
C589 N588 1.388 . S
Co590 O592 2.143 . S
Co590 O598 2.074 . S
Co590 O601 2.093 . S
Co590 O614 2.097 . S
Co590 N631 2.151 . S
Co590 N639 2.214 . S
Co591 O592 2.160 . S
Co591 O597 2.058 . S
Co591 O607 2.057 . S
Co591 O622 2.037 . S
Co591 N626 2.145 . S
Co591 N647 2.257 . S
O592 Co590 2.143 . S
O592 Co591 2.160 . S
C593 O594 1.278 . S
C593 O601 1.224 . S
O594 C593 1.278 . S
C595 O596 1.245 . S
C595 O607 1.232 . S
O596 C595 1.245 . S
O597 Co591 2.058 . S
O597 C623 1.269 . S
O598 Co590 2.074 . S
O598 C623 1.257 . S
H599 C624 0.930 . S
H600 C630 0.930 . S
O601 Co590 2.093 . S
O601 C593 1.224 . S
H602 C634 0.929 . S
H603 C636 0.930 . S
H604 C637 0.930 . S
H605 C635 0.929 . S
H606 C638 0.928 . S
O607 Co591 2.057 . S
O607 C595 1.232 . S
H608 C627 0.929 . S
H609 C628 0.929 . S
H610 C640 0.931 . S
H611 C632 0.929 . S
H612 C641 0.930 . S
H613 C633 0.931 . S
O614 Co590 2.097 . S
O614 C642 1.214 . S
H615 C643 0.929 . S
H616 C644 0.929 . S
H617 C645 0.930 . S
H618 C646 0.929 . S
H619 C648 0.930 . S
H620 C625 0.930 . S
H621 C629 0.930 . S
O622 Co591 2.037 . S
O622 C642 1.234 . S
C623 O597 1.269 . S
C623 O598 1.257 . S
C624 H599 0.930 . S
C624 C627 1.388 . S
C624 C629 1.418 . S
C625 H620 0.930 . S
C625 C628 1.404 . S
C625 C629 1.353 . S
N626 Co591 2.145 . S
N626 C627 1.397 . S
N626 C628 1.334 . S
C627 H608 0.929 . S
C627 C624 1.388 . S
C627 N626 1.397 . S
C628 H609 0.929 . S
C628 C625 1.404 . S
C628 N626 1.334 . S
C629 H621 0.930 . S
C629 C624 1.418 . S
C629 C625 1.353 . S
C630 H600 0.930 . S
C630 N631 1.330 . S
C630 C632 1.446 . S
N631 Co590 2.151 . S
N631 C630 1.330 . S
N631 C635 1.418 . S
C632 H611 0.929 . S
C632 C630 1.446 . S
C632 C633 1.332 . S
C633 H613 0.931 . S
C633 C632 1.332 . S
C633 C634 1.267 . S
C634 H602 0.929 . S
C634 C633 1.267 . S
C634 C635 1.251 . S
C635 H605 0.929 . S
C635 N631 1.418 . S
C635 C634 1.251 . S
C636 H603 0.930 . S
C636 C638 1.406 . S
C636 C641 1.261 . S
C637 H604 0.930 . S
C637 N639 1.325 . S
C637 C640 1.357 . S
C638 H606 0.928 . S
C638 C636 1.406 . S
C638 N639 1.261 . S
N639 Co590 2.214 . S
N639 C637 1.325 . S
N639 C638 1.261 . S
C640 H610 0.931 . S
C640 C637 1.357 . S
C640 C641 1.312 . S
C641 H612 0.930 . S
C641 C636 1.261 . S
C641 C640 1.312 . S
C642 O614 1.214 . S
C642 O622 1.234 . S
C643 H615 0.929 . S
C643 C646 1.391 . S
C643 C648 1.391 . S
C644 H616 0.929 . S
C644 C645 1.390 . S
C644 N647 1.391 . S
C645 H617 0.930 . S
C645 C644 1.390 . S
C645 C646 1.392 . S
C646 H618 0.929 . S
C646 C643 1.391 . S
C646 C645 1.392 . S
N647 Co591 2.257 . S
N647 C644 1.391 . S
N647 C648 1.388 . S
C648 H619 0.930 . S
C648 C643 1.391 . S
C648 N647 1.388 . S
Co649 O651 2.143 . S
Co649 O657 2.074 . S
Co649 O660 2.093 . S
Co649 O673 2.097 . S
Co649 N690 2.151 . S
Co649 N698 2.214 . S
Co650 O651 2.160 . S
Co650 O656 2.058 . S
Co650 O666 2.057 . S
Co650 O681 2.037 . S
Co650 N685 2.145 . S
Co650 N706 2.257 . S
O651 Co649 2.143 . S
O651 Co650 2.160 . S
C652 O653 1.278 . S
C652 O660 1.224 . S
O653 C652 1.278 . S
C654 O655 1.245 . S
C654 O666 1.232 . S
O655 C654 1.245 . S
O656 Co650 2.058 . S
O656 C682 1.269 . S
O657 Co649 2.074 . S
O657 C682 1.257 . S
H658 C683 0.930 . S
H659 C689 0.930 . S
O660 Co649 2.093 . S
O660 C652 1.224 . S
H661 C693 0.935 . S
H662 C695 0.930 . S
H663 C696 0.930 . S
H664 C694 0.929 . S
H665 C697 0.928 . S
O666 Co650 2.057 . S
O666 C654 1.232 . S
H667 C686 0.929 . S
H668 C687 0.929 . S
H669 C699 0.931 . S
H670 C691 0.929 1_455 S
H671 C700 0.930 . S
H672 C692 0.931 . S
O673 Co649 2.097 . S
O673 C701 1.214 . S
H674 C702 0.929 . S
H675 C703 0.929 . S
H676 C704 0.930 . S
H677 C705 0.929 . S
H678 C707 0.930 . S
H679 C684 0.930 . S
H680 C688 0.930 . S
O681 Co650 2.037 . S
O681 C701 1.234 . S
C682 O656 1.269 . S
C682 O657 1.257 . S
C683 H658 0.930 . S
C683 C686 1.388 . S
C683 C688 1.418 . S
C684 H679 0.930 . S
C684 C687 1.404 . S
C684 C688 1.353 . S
N685 Co650 2.145 . S
N685 C686 1.397 . S
N685 C687 1.334 . S
C686 H667 0.929 . S
C686 C683 1.388 . S
C686 N685 1.397 . S
C687 H668 0.929 . S
C687 C684 1.404 . S
C687 N685 1.334 . S
C688 H680 0.930 . S
C688 C683 1.418 . S
C688 C684 1.353 . S
C689 H659 0.930 . S
C689 N690 1.330 . S
C689 C691 1.446 . S
N690 Co649 2.151 . S
N690 C689 1.330 . S
N690 C694 1.418 . S
C691 H670 0.929 1_655 S
C691 C689 1.446 . S
C691 C692 1.332 1_655 S
C692 H672 0.931 . S
C692 C691 1.332 1_455 S
C692 C693 1.267 1_455 S
C693 H661 0.935 . S
C693 C692 1.267 1_655 S
C693 C694 1.251 . S
C694 H664 0.929 . S
C694 N690 1.418 . S
C694 C693 1.251 . S
C695 H662 0.930 . S
C695 C697 1.406 . S
C695 C700 1.261 . S
C696 H663 0.930 . S
C696 N698 1.325 . S
C696 C699 1.357 . S
C697 H665 0.928 . S
C697 C695 1.406 . S
C697 N698 1.261 . S
N698 Co649 2.214 . S
N698 C696 1.325 . S
N698 C697 1.261 . S
C699 H669 0.931 . S
C699 C696 1.357 . S
C699 C700 1.312 . S
C700 H671 0.930 . S
C700 C695 1.261 . S
C700 C699 1.312 . S
C701 O673 1.214 . S
C701 O681 1.234 . S
C702 H674 0.929 . S
C702 C705 1.391 . S
C702 C707 1.391 . S
C703 H675 0.929 . S
C703 C704 1.390 . S
C703 N706 1.391 . S
C704 H676 0.930 . S
C704 C703 1.390 . S
C704 C705 1.392 . S
C705 H677 0.929 . S
C705 C702 1.391 . S
C705 C704 1.392 . S
N706 Co650 2.257 . S
N706 C703 1.391 . S
N706 C707 1.388 . S
C707 H678 0.930 . S
C707 C702 1.391 . S
C707 N706 1.388 . S
Co708 O710 2.143 . S
Co708 O716 2.074 . S
Co708 O719 2.093 . S
Co708 O732 2.097 . S
Co708 N749 2.151 . S
Co708 N757 2.214 . S
Co709 O710 2.160 . S
Co709 O715 2.058 . S
Co709 O725 2.057 . S
Co709 O740 2.037 . S
Co709 N744 2.145 . S
Co709 N765 2.257 . S
O710 Co708 2.143 . S
O710 Co709 2.160 . S
C711 O712 1.278 . S
C711 O719 1.224 . S
O712 C711 1.278 . S
C713 O714 1.245 . S
C713 O725 1.232 . S
O714 C713 1.245 . S
O715 Co709 2.058 . S
O715 C741 1.269 . S
O716 Co708 2.074 . S
O716 C741 1.257 . S
H717 C742 0.930 . S
H718 C748 0.930 . S
O719 Co708 2.093 . S
O719 C711 1.224 . S
H720 C752 0.929 . S
H721 C754 0.930 . S
H722 C755 0.930 . S
H723 C753 0.929 . S
H724 C756 0.928 . S
O725 Co709 2.057 . S
O725 C713 1.232 . S
H726 C745 0.929 . S
H727 C746 0.929 . S
H728 C758 0.931 . S
H729 C750 0.929 . S
H730 C759 0.930 . S
H731 C751 0.931 . S
O732 Co708 2.097 . S
O732 C760 1.214 . S
H733 C761 0.929 . S
H734 C762 0.929 . S
H735 C763 0.930 . S
H736 C764 0.929 . S
H737 C766 0.930 . S
H738 C743 0.930 . S
H739 C747 0.930 . S
O740 Co709 2.037 . S
O740 C760 1.234 . S
C741 O715 1.269 . S
C741 O716 1.257 . S
C742 H717 0.930 . S
C742 C745 1.388 . S
C742 C747 1.418 . S
C743 H738 0.930 . S
C743 C746 1.404 . S
C743 C747 1.353 . S
N744 Co709 2.145 . S
N744 C745 1.397 . S
N744 C746 1.334 . S
C745 H726 0.929 . S
C745 C742 1.388 . S
C745 N744 1.397 . S
C746 H727 0.929 . S
C746 C743 1.404 . S
C746 N744 1.334 . S
C747 H739 0.930 . S
C747 C742 1.418 . S
C747 C743 1.353 . S
C748 H718 0.930 . S
C748 N749 1.330 . S
C748 C750 1.446 . S
N749 Co708 2.151 . S
N749 C748 1.330 . S
N749 C753 1.418 . S
C750 H729 0.929 . S
C750 C748 1.446 . S
C750 C751 1.332 . S
C751 H731 0.931 . S
C751 C750 1.332 . S
C751 C752 1.267 . S
C752 H720 0.929 . S
C752 C751 1.267 . S
C752 C753 1.251 . S
C753 H723 0.929 . S
C753 N749 1.418 . S
C753 C752 1.251 . S
C754 H721 0.930 . S
C754 C756 1.406 . S
C754 C759 1.261 . S
C755 H722 0.930 . S
C755 N757 1.325 . S
C755 C758 1.357 . S
C756 H724 0.928 . S
C756 C754 1.406 . S
C756 N757 1.261 . S
N757 Co708 2.214 . S
N757 C755 1.325 . S
N757 C756 1.261 . S
C758 H728 0.931 . S
C758 C755 1.357 . S
C758 C759 1.312 . S
C759 H730 0.930 . S
C759 C754 1.261 . S
C759 C758 1.312 . S
C760 O732 1.214 . S
C760 O740 1.234 . S
C761 H733 0.929 . S
C761 C764 1.391 . S
C761 C766 1.391 . S
C762 H734 0.929 . S
C762 C763 1.390 . S
C762 N765 1.391 . S
C763 H735 0.930 . S
C763 C762 1.390 . S
C763 C764 1.392 . S
C764 H736 0.929 . S
C764 C761 1.391 . S
C764 C763 1.392 . S
N765 Co709 2.257 . S
N765 C762 1.391 . S
N765 C766 1.388 . S
C766 H737 0.930 . S
C766 C761 1.391 . S
C766 N765 1.388 . S
Co767 O769 2.143 . S
Co767 O775 2.074 . S
Co767 O778 2.093 . S
Co767 O791 2.097 . S
Co767 N808 2.151 . S
Co767 N816 2.214 . S
Co768 O769 2.160 . S
Co768 O774 2.058 . S
Co768 O784 2.057 . S
Co768 O799 2.037 . S
Co768 N803 2.145 . S
Co768 N824 2.257 . S
O769 Co767 2.143 . S
O769 Co768 2.160 . S
C770 O771 1.278 . S
C770 O778 1.224 . S
O771 C770 1.278 . S
C772 O773 1.245 . S
C772 O784 1.232 . S
O773 C772 1.245 . S
O774 Co768 2.058 . S
O774 C800 1.269 . S
O775 Co767 2.074 . S
O775 C800 1.257 . S
H776 C801 0.930 . S
H777 C807 0.930 . S
O778 Co767 2.093 . S
O778 C770 1.224 . S
H779 C811 0.935 . S
H780 C813 0.930 . S
H781 C814 0.930 . S
H782 C812 0.929 . S
H783 C815 0.928 . S
O784 Co768 2.057 . S
O784 C772 1.232 . S
H785 C804 0.929 . S
H786 C805 0.929 . S
H787 C817 0.931 . S
H788 C809 0.929 1_455 S
H789 C818 0.930 . S
H790 C810 0.931 . S
O791 Co767 2.097 . S
O791 C819 1.214 . S
H792 C820 0.929 . S
H793 C821 0.929 . S
H794 C822 0.930 . S
H795 C823 0.929 . S
H796 C825 0.930 . S
H797 C802 0.930 . S
H798 C806 0.930 . S
O799 Co768 2.037 . S
O799 C819 1.234 . S
C800 O774 1.269 . S
C800 O775 1.257 . S
C801 H776 0.930 . S
C801 C804 1.388 . S
C801 C806 1.418 . S
C802 H797 0.930 . S
C802 C805 1.404 . S
C802 C806 1.353 . S
N803 Co768 2.145 . S
N803 C804 1.397 . S
N803 C805 1.334 . S
C804 H785 0.929 . S
C804 C801 1.388 . S
C804 N803 1.397 . S
C805 H786 0.929 . S
C805 C802 1.404 . S
C805 N803 1.334 . S
C806 H798 0.930 . S
C806 C801 1.418 . S
C806 C802 1.353 . S
C807 H777 0.930 . S
C807 N808 1.330 . S
C807 C809 1.446 . S
N808 Co767 2.151 . S
N808 C807 1.330 . S
N808 C812 1.418 . S
C809 H788 0.929 1_655 S
C809 C807 1.446 . S
C809 C810 1.332 1_655 S
C810 H790 0.931 . S
C810 C809 1.332 1_455 S
C810 C811 1.267 1_455 S
C811 H779 0.935 . S
C811 C810 1.267 1_655 S
C811 C812 1.251 . S
C812 H782 0.929 . S
C812 N808 1.418 . S
C812 C811 1.251 . S
C813 H780 0.930 . S
C813 C815 1.406 . S
C813 C818 1.261 . S
C814 H781 0.930 . S
C814 N816 1.325 . S
C814 C817 1.357 . S
C815 H783 0.928 . S
C815 C813 1.406 . S
C815 N816 1.261 . S
N816 Co767 2.214 . S
N816 C814 1.325 . S
N816 C815 1.261 . S
C817 H787 0.931 . S
C817 C814 1.357 . S
C817 C818 1.312 . S
C818 H789 0.930 . S
C818 C813 1.261 . S
C818 C817 1.312 . S
C819 O791 1.214 . S
C819 O799 1.234 . S
C820 H792 0.929 . S
C820 C823 1.391 . S
C820 C825 1.391 . S
C821 H793 0.929 . S
C821 C822 1.390 . S
C821 N824 1.391 . S
C822 H794 0.930 . S
C822 C821 1.390 . S
C822 C823 1.392 . S
C823 H795 0.929 . S
C823 C820 1.391 . S
C823 C822 1.392 . S
N824 Co768 2.257 . S
N824 C821 1.391 . S
N824 C825 1.388 . S
C825 H796 0.930 . S
C825 C820 1.391 . S
C825 N824 1.388 . S
Co826 O828 2.143 . S
Co826 O834 2.074 . S
Co826 O837 2.093 . S
Co826 O850 2.097 . S
Co826 N867 2.151 . S
Co826 N875 2.214 . S
Co827 O828 2.160 . S
Co827 O833 2.058 . S
Co827 O843 2.057 . S
Co827 O858 2.037 . S
Co827 N862 2.145 . S
Co827 N883 2.257 . S
O828 Co826 2.143 . S
O828 Co827 2.160 . S
C829 O830 1.278 . S
C829 O837 1.224 . S
O830 C829 1.278 . S
C831 O832 1.245 . S
C831 O843 1.232 . S
O832 C831 1.245 . S
O833 Co827 2.058 . S
O833 C859 1.269 . S
O834 Co826 2.074 . S
O834 C859 1.257 . S
H835 C860 0.930 . S
H836 C866 0.930 . S
O837 Co826 2.093 . S
O837 C829 1.224 . S
H838 C870 0.935 . S
H839 C872 0.930 . S
H840 C873 0.930 . S
H841 C871 0.929 . S
H842 C874 0.928 . S
O843 Co827 2.057 . S
O843 C831 1.232 . S
H844 C863 0.929 . S
H845 C864 0.929 . S
H846 C876 0.931 . S
H847 C868 0.929 1_545 S
H848 C877 0.930 . S
H849 C869 0.931 . S
O850 Co826 2.097 . S
O850 C878 1.214 . S
H851 C879 0.929 . S
H852 C880 0.929 . S
H853 C881 0.930 . S
H854 C882 0.929 . S
H855 C884 0.930 . S
H856 C861 0.930 . S
H857 C865 0.930 . S
O858 Co827 2.037 . S
O858 C878 1.234 . S
C859 O833 1.269 . S
C859 O834 1.257 . S
C860 H835 0.930 . S
C860 C863 1.388 . S
C860 C865 1.418 . S
C861 H856 0.930 . S
C861 C864 1.404 . S
C861 C865 1.353 . S
N862 Co827 2.145 . S
N862 C863 1.397 . S
N862 C864 1.334 . S
C863 H844 0.929 . S
C863 C860 1.388 . S
C863 N862 1.397 . S
C864 H845 0.929 . S
C864 C861 1.404 . S
C864 N862 1.334 . S
C865 H857 0.930 . S
C865 C860 1.418 . S
C865 C861 1.353 . S
C866 H836 0.930 . S
C866 N867 1.330 . S
C866 C868 1.446 . S
N867 Co826 2.151 . S
N867 C866 1.330 . S
N867 C871 1.418 . S
C868 H847 0.929 1_565 S
C868 C866 1.446 . S
C868 C869 1.332 1_565 S
C869 H849 0.931 . S
C869 C868 1.332 1_545 S
C869 C870 1.267 1_545 S
C870 H838 0.935 . S
C870 C869 1.267 1_565 S
C870 C871 1.251 . S
C871 H841 0.929 . S
C871 N867 1.418 . S
C871 C870 1.251 . S
C872 H839 0.930 . S
C872 C874 1.406 . S
C872 C877 1.261 . S
C873 H840 0.930 . S
C873 N875 1.325 . S
C873 C876 1.357 . S
C874 H842 0.928 . S
C874 C872 1.406 . S
C874 N875 1.261 . S
N875 Co826 2.214 . S
N875 C873 1.325 . S
N875 C874 1.261 . S
C876 H846 0.931 . S
C876 C873 1.357 . S
C876 C877 1.312 . S
C877 H848 0.930 . S
C877 C872 1.261 . S
C877 C876 1.312 . S
C878 O850 1.214 . S
C878 O858 1.234 . S
C879 H851 0.929 . S
C879 C882 1.391 . S
C879 C884 1.391 . S
C880 H852 0.929 . S
C880 C881 1.390 . S
C880 N883 1.391 . S
C881 H853 0.930 . S
C881 C880 1.390 . S
C881 C882 1.392 . S
C882 H854 0.929 . S
C882 C879 1.391 . S
C882 C881 1.392 . S
N883 Co827 2.257 . S
N883 C880 1.391 . S
N883 C884 1.388 . S
C884 H855 0.930 . S
C884 C879 1.391 . S
C884 N883 1.388 . S
Co885 O887 2.143 . S
Co885 O893 2.074 . S
Co885 O896 2.093 . S
Co885 O909 2.097 . S
Co885 N926 2.151 . S
Co885 N934 2.214 . S
Co886 O887 2.160 . S
Co886 O892 2.058 . S
Co886 O902 2.057 . S
Co886 O917 2.037 . S
Co886 N921 2.145 . S
Co886 N942 2.257 . S
O887 Co885 2.143 . S
O887 Co886 2.160 . S
C888 O889 1.278 . S
C888 O896 1.224 . S
O889 C888 1.278 . S
C890 O891 1.245 . S
C890 O902 1.232 . S
O891 C890 1.245 . S
O892 Co886 2.058 . S
O892 C918 1.269 . S
O893 Co885 2.074 . S
O893 C918 1.257 . S
H894 C919 0.930 . S
H895 C925 0.930 . S
O896 Co885 2.093 . S
O896 C888 1.224 . S
H897 C929 0.929 . S
H898 C931 0.930 . S
H899 C932 0.930 . S
H900 C930 0.929 . S
H901 C933 0.928 . S
O902 Co886 2.057 . S
O902 C890 1.232 . S
H903 C922 0.929 . S
H904 C923 0.929 . S
H905 C935 0.931 . S
H906 C927 0.929 . S
H907 C936 0.930 . S
H908 C928 0.931 . S
O909 Co885 2.097 . S
O909 C937 1.214 . S
H910 C938 0.929 . S
H911 C939 0.929 . S
H912 C940 0.930 . S
H913 C941 0.929 . S
H914 C943 0.930 . S
H915 C920 0.930 . S
H916 C924 0.930 . S
O917 Co886 2.037 . S
O917 C937 1.234 . S
C918 O892 1.269 . S
C918 O893 1.257 . S
C919 H894 0.930 . S
C919 C922 1.388 . S
C919 C924 1.418 . S
C920 H915 0.930 . S
C920 C923 1.404 . S
C920 C924 1.353 . S
N921 Co886 2.145 . S
N921 C922 1.397 . S
N921 C923 1.334 . S
C922 H903 0.929 . S
C922 C919 1.388 . S
C922 N921 1.397 . S
C923 H904 0.929 . S
C923 C920 1.404 . S
C923 N921 1.334 . S
C924 H916 0.930 . S
C924 C919 1.418 . S
C924 C920 1.353 . S
C925 H895 0.930 . S
C925 N926 1.330 . S
C925 C927 1.446 . S
N926 Co885 2.151 . S
N926 C925 1.330 . S
N926 C930 1.418 . S
C927 H906 0.929 . S
C927 C925 1.446 . S
C927 C928 1.332 . S
C928 H908 0.931 . S
C928 C927 1.332 . S
C928 C929 1.267 . S
C929 H897 0.929 . S
C929 C928 1.267 . S
C929 C930 1.251 . S
C930 H900 0.929 . S
C930 N926 1.418 . S
C930 C929 1.251 . S
C931 H898 0.930 . S
C931 C933 1.406 . S
C931 C936 1.261 . S
C932 H899 0.930 . S
C932 N934 1.325 . S
C932 C935 1.357 . S
C933 H901 0.928 . S
C933 C931 1.406 . S
C933 N934 1.261 . S
N934 Co885 2.214 . S
N934 C932 1.325 . S
N934 C933 1.261 . S
C935 H905 0.931 . S
C935 C932 1.357 . S
C935 C936 1.312 . S
C936 H907 0.930 . S
C936 C931 1.261 . S
C936 C935 1.312 . S
C937 O909 1.214 . S
C937 O917 1.234 . S
C938 H910 0.929 . S
C938 C941 1.391 . S
C938 C943 1.391 . S
C939 H911 0.929 . S
C939 C940 1.390 . S
C939 N942 1.391 . S
C940 H912 0.930 . S
C940 C939 1.390 . S
C940 C941 1.392 . S
C941 H913 0.929 . S
C941 C938 1.391 . S
C941 C940 1.392 . S
N942 Co886 2.257 . S
N942 C939 1.391 . S
N942 C943 1.388 . S
C943 H914 0.930 . S
C943 C938 1.391 . S
C943 N942 1.388 . S
C944 C945 1.391 . S
C944 C946 1.394 . S
C944 H960 0.931 . S
C945 C944 1.391 . S
C945 C949 1.376 . S
C946 C944 1.394 . S
C946 C947 1.369 . S
C946 C950 1.531 1_556 S
C947 C946 1.369 . S
C947 C948 1.410 . S
C947 C955 1.503 1_556 S
C948 C947 1.410 . S
C948 C949 1.392 . S
C948 C951 1.511 . S
C949 C945 1.376 . S
C949 C948 1.392 . S
C949 H961 0.929 . S
C950 C946 1.531 1_554 S
C950 H962 0.960 . S
C950 H963 0.962 . S
C950 H964 0.960 . S
C951 C948 1.511 . S
C951 H965 0.961 . S
C951 H966 0.961 . S
C951 H967 0.961 . S
C952 C953 1.370 . S
C952 C954 1.363 . S
C952 H968 0.931 . S
C953 C952 1.370 . S
C953 C957 1.408 . S
C954 C952 1.363 . S
C954 C955 1.370 . S
C954 C958 1.524 1_554 S
C955 C947 1.503 1_554 S
C955 C954 1.370 . S
C955 C956 1.403 . S
C956 C955 1.403 . S
C956 C957 1.404 . S
C956 C959 1.539 . S
C957 C953 1.408 . S
C957 C956 1.404 . S
C957 H969 0.930 . S
C958 C954 1.524 1_556 S
C958 H970 0.958 . S
C958 H971 0.961 . S
C958 H972 0.961 1_556 S
C959 C956 1.539 . S
C959 H973 0.958 . S
C959 H974 0.961 . S
C959 H975 0.960 . S
H960 C944 0.931 . S
H961 C949 0.929 . S
H962 C950 0.960 . S
H963 C950 0.962 . S
H964 C950 0.960 . S
H965 C951 0.961 . S
H966 C951 0.961 . S
H967 C951 0.961 . S
H968 C952 0.931 . S
H969 C957 0.930 . S
H970 C958 0.958 . S
H971 C958 0.961 . S
H972 C958 0.961 1_554 S
H973 C959 0.958 . S
H974 C959 0.961 . S
H975 C959 0.960 . S
C976 C977 1.391 . S
C976 C978 1.394 . S
C976 H992 0.931 . S
C977 C976 1.391 . S
C977 C981 1.376 . S
C978 C976 1.394 . S
C978 C979 1.369 . S
C978 C982 1.531 . S
C979 C978 1.369 . S
C979 C980 1.410 . S
C979 C987 1.503 . S
C980 C979 1.410 . S
C980 C981 1.392 . S
C980 C983 1.511 . S
C981 C977 1.376 . S
C981 C980 1.392 . S
C981 H993 0.929 . S
C982 C978 1.531 . S
C982 H994 0.960 . S
C982 H995 0.962 . S
C982 H996 0.960 . S
C983 C980 1.511 . S
C983 H997 0.961 . S
C983 H998 0.961 . S
C983 H999 0.961 . S
C984 C985 1.370 . S
C984 C986 1.363 . S
C984 H1000 0.931 . S
C985 C984 1.370 . S
C985 C989 1.408 . S
C986 C984 1.363 . S
C986 C987 1.370 . S
C986 C990 1.524 . S
C987 C979 1.503 . S
C987 C986 1.370 . S
C987 C988 1.403 . S
C988 C987 1.403 . S
C988 C989 1.404 . S
C988 C991 1.539 . S
C989 C985 1.408 . S
C989 C988 1.404 . S
C989 H1001 0.930 . S
C990 C986 1.524 . S
C990 H1002 0.956 . S
C990 H1003 0.961 . S
C990 H1004 0.961 . S
C991 C988 1.539 . S
C991 H1005 0.958 . S
C991 H1006 0.961 . S
C991 H1007 0.960 . S
H992 C976 0.931 . S
H993 C981 0.929 . S
H994 C982 0.960 . S
H995 C982 0.962 . S
H996 C982 0.960 . S
H997 C983 0.961 . S
H998 C983 0.961 . S
H999 C983 0.961 . S
H1000 C984 0.931 . S
H1001 C989 0.930 . S
H1002 C990 0.956 . S
H1003 C990 0.961 . S
H1004 C990 0.961 . S
H1005 C991 0.958 . S
H1006 C991 0.961 . S
H1007 C991 0.960 . S
C1008 C1009 1.391 . S
C1008 C1010 1.394 . S
C1008 H1024 0.931 . S
C1009 C1008 1.391 . S
C1009 C1013 1.376 . S
C1010 C1008 1.394 . S
C1010 C1011 1.369 . S
C1010 C1014 1.531 . S
C1011 C1010 1.369 . S
C1011 C1012 1.410 . S
C1011 C1019 1.503 1_556 S
C1012 C1011 1.410 . S
C1012 C1013 1.392 . S
C1012 C1015 1.511 1_556 S
C1013 C1009 1.376 . S
C1013 C1012 1.392 . S
C1013 H1025 0.929 . S
C1014 C1010 1.531 . S
C1014 H1026 0.960 . S
C1014 H1027 0.962 . S
C1014 H1028 0.960 . S
C1015 C1012 1.511 1_554 S
C1015 H1029 0.961 . S
C1015 H1030 0.961 . S
C1015 H1031 0.961 . S
C1016 C1017 1.370 . S
C1016 C1018 1.363 . S
C1016 H1032 0.931 . S
C1017 C1016 1.370 . S
C1017 C1021 1.408 . S
C1018 C1016 1.363 . S
C1018 C1019 1.370 . S
C1018 C1022 1.524 . S
C1019 C1011 1.503 1_554 S
C1019 C1018 1.370 . S
C1019 C1020 1.403 . S
C1020 C1019 1.403 . S
C1020 C1021 1.404 . S
C1020 C1023 1.539 1_554 S
C1021 C1017 1.408 . S
C1021 C1020 1.404 . S
C1021 H1033 0.930 . S
C1022 C1018 1.524 . S
C1022 H1034 0.956 . S
C1022 H1035 0.961 . S
C1022 H1036 0.961 . S
C1023 C1020 1.539 1_556 S
C1023 H1037 0.958 . S
C1023 H1038 0.961 1_556 S
C1023 H1039 0.960 . S
H1024 C1008 0.931 . S
H1025 C1013 0.929 . S
H1026 C1014 0.960 . S
H1027 C1014 0.962 . S
H1028 C1014 0.960 . S
H1029 C1015 0.961 . S
H1030 C1015 0.961 . S
H1031 C1015 0.961 . S
H1032 C1016 0.931 . S
H1033 C1021 0.930 . S
H1034 C1022 0.956 . S
H1035 C1022 0.961 . S
H1036 C1022 0.961 . S
H1037 C1023 0.958 . S
H1038 C1023 0.961 1_554 S
H1039 C1023 0.960 . S
C1040 C1041 1.391 . S
C1040 C1042 1.394 . S
C1040 H1056 0.931 . S
C1041 C1040 1.391 . S
C1041 C1045 1.376 . S
C1042 C1040 1.394 . S
C1042 C1043 1.369 . S
C1042 C1046 1.531 . S
C1043 C1042 1.369 . S
C1043 C1044 1.410 . S
C1043 C1051 1.503 . S
C1044 C1043 1.410 . S
C1044 C1045 1.392 . S
C1044 C1047 1.511 . S
C1045 C1041 1.376 . S
C1045 C1044 1.392 . S
C1045 H1057 0.929 . S
C1046 C1042 1.531 . S
C1046 H1058 0.960 . S
C1046 H1059 0.962 . S
C1046 H1060 0.960 . S
C1047 C1044 1.511 . S
C1047 H1061 0.961 . S
C1047 H1062 0.961 . S
C1047 H1063 0.961 . S
C1048 C1049 1.370 . S
C1048 C1050 1.363 . S
C1048 H1064 0.931 . S
C1049 C1048 1.370 . S
C1049 C1053 1.408 . S
C1050 C1048 1.363 . S
C1050 C1051 1.370 . S
C1050 C1054 1.524 . S
C1051 C1043 1.503 . S
C1051 C1050 1.370 . S
C1051 C1052 1.403 . S
C1052 C1051 1.403 . S
C1052 C1053 1.404 . S
C1052 C1055 1.539 . S
C1053 C1049 1.408 . S
C1053 C1052 1.404 . S
C1053 H1065 0.930 . S
C1054 C1050 1.524 . S
C1054 H1066 0.956 . S
C1054 H1067 0.961 . S
C1054 H1068 0.961 . S
C1055 C1052 1.539 . S
C1055 H1069 0.958 . S
C1055 H1070 0.961 . S
C1055 H1071 0.960 . S
H1056 C1040 0.931 . S
H1057 C1045 0.929 . S
H1058 C1046 0.960 . S
H1059 C1046 0.962 . S
H1060 C1046 0.960 . S
H1061 C1047 0.961 . S
H1062 C1047 0.961 . S
H1063 C1047 0.961 . S
H1064 C1048 0.931 . S
H1065 C1053 0.930 . S
H1066 C1054 0.956 . S
H1067 C1054 0.961 . S
H1068 C1054 0.961 . S
H1069 C1055 0.958 . S
H1070 C1055 0.961 . S
H1071 C1055 0.960 . S
C1072 C1073 1.391 . S
C1072 C1074 1.394 . S
C1072 H1088 0.931 . S
C1073 C1072 1.391 . S
C1073 C1077 1.376 . S
C1074 C1072 1.394 . S
C1074 C1075 1.369 . S
C1074 C1078 1.531 . S
C1075 C1074 1.369 . S
C1075 C1076 1.410 . S
C1075 C1083 1.503 1_554 S
C1076 C1075 1.410 . S
C1076 C1077 1.392 . S
C1076 C1079 1.511 . S
C1077 C1073 1.376 . S
C1077 C1076 1.392 . S
C1077 H1089 0.929 . S
C1078 C1074 1.531 . S
C1078 H1090 0.960 . S
C1078 H1091 0.962 . S
C1078 H1092 0.960 . S
C1079 C1076 1.511 . S
C1079 H1093 0.961 . S
C1079 H1094 0.961 1_554 S
C1079 H1095 0.961 . S
C1080 C1081 1.370 . S
C1080 C1082 1.363 . S
C1080 H1096 0.931 . S
C1081 C1080 1.370 . S
C1081 C1085 1.408 . S
C1082 C1080 1.363 . S
C1082 C1083 1.370 . S
C1082 C1086 1.524 . S
C1083 C1075 1.503 1_556 S
C1083 C1082 1.370 . S
C1083 C1084 1.403 . S
C1084 C1083 1.403 . S
C1084 C1085 1.404 . S
C1084 C1087 1.539 1_556 S
C1085 C1081 1.408 . S
C1085 C1084 1.404 . S
C1085 H1097 0.930 . S
C1086 C1082 1.524 . S
C1086 H1098 0.956 . S
C1086 H1099 0.961 . S
C1086 H1100 0.961 . S
C1087 C1084 1.539 1_554 S
C1087 H1101 0.958 . S
C1087 H1102 0.961 . S
C1087 H1103 0.960 . S
H1088 C1072 0.931 . S
H1089 C1077 0.929 . S
H1090 C1078 0.960 . S
H1091 C1078 0.962 . S
H1092 C1078 0.960 . S
H1093 C1079 0.961 . S
H1094 C1079 0.961 1_556 S
H1095 C1079 0.961 . S
H1096 C1080 0.931 . S
H1097 C1085 0.930 . S
H1098 C1086 0.956 . S
H1099 C1086 0.961 . S
H1100 C1086 0.961 . S
H1101 C1087 0.958 . S
H1102 C1087 0.961 . S
H1103 C1087 0.960 . S
C1104 C1105 1.391 . S
C1104 C1106 1.394 . S
C1104 H1120 0.931 . S
C1105 C1104 1.391 . S
C1105 C1109 1.376 . S
C1106 C1104 1.394 . S
C1106 C1107 1.369 . S
C1106 C1110 1.531 . S
C1107 C1106 1.369 . S
C1107 C1108 1.410 . S
C1107 C1115 1.503 . S
C1108 C1107 1.410 . S
C1108 C1109 1.392 . S
C1108 C1111 1.511 . S
C1109 C1105 1.376 . S
C1109 C1108 1.392 . S
C1109 H1121 0.929 . S
C1110 C1106 1.531 . S
C1110 H1122 0.960 . S
C1110 H1123 0.962 . S
C1110 H1124 0.960 . S
C1111 C1108 1.511 . S
C1111 H1125 0.961 . S
C1111 H1126 0.961 . S
C1111 H1127 0.961 . S
C1112 C1113 1.370 . S
C1112 C1114 1.363 . S
C1112 H1128 0.931 . S
C1113 C1112 1.370 . S
C1113 C1117 1.408 . S
C1114 C1112 1.363 . S
C1114 C1115 1.370 . S
C1114 C1118 1.524 . S
C1115 C1107 1.503 . S
C1115 C1114 1.370 . S
C1115 C1116 1.403 . S
C1116 C1115 1.403 . S
C1116 C1117 1.404 . S
C1116 C1119 1.539 . S
C1117 C1113 1.408 . S
C1117 C1116 1.404 . S
C1117 H1129 0.930 . S
C1118 C1114 1.524 . S
C1118 H1130 0.956 . S
C1118 H1131 0.961 . S
C1118 H1132 0.961 . S
C1119 C1116 1.539 . S
C1119 H1133 0.958 . S
C1119 H1134 0.961 . S
C1119 H1135 0.960 . S
H1120 C1104 0.931 . S
H1121 C1109 0.929 . S
H1122 C1110 0.960 . S
H1123 C1110 0.962 . S
H1124 C1110 0.960 . S
H1125 C1111 0.961 . S
H1126 C1111 0.961 . S
H1127 C1111 0.961 . S
H1128 C1112 0.931 . S
H1129 C1117 0.930 . S
H1130 C1118 0.956 . S
H1131 C1118 0.961 . S
H1132 C1118 0.961 . S
H1133 C1119 0.958 . S
H1134 C1119 0.961 . S
H1135 C1119 0.960 . S
C1136 C1137 1.391 . S
C1136 C1138 1.394 . S
C1136 H1152 0.931 . S
C1137 C1136 1.391 . S
C1137 C1141 1.376 . S
C1138 C1136 1.394 . S
C1138 C1139 1.369 . S
C1138 C1142 1.531 1_556 S
C1139 C1138 1.369 . S
C1139 C1140 1.410 . S
C1139 C1147 1.503 1_556 S
C1140 C1139 1.410 . S
C1140 C1141 1.392 . S
C1140 C1143 1.511 . S
C1141 C1137 1.376 . S
C1141 C1140 1.392 . S
C1141 H1153 0.929 . S
C1142 C1138 1.531 1_554 S
C1142 H1154 0.960 . S
C1142 H1155 0.962 . S
C1142 H1156 0.960 . S
C1143 C1140 1.511 . S
C1143 H1157 0.961 . S
C1143 H1158 0.961 . S
C1143 H1159 0.961 . S
C1144 C1145 1.370 . S
C1144 C1146 1.363 . S
C1144 H1160 0.931 . S
C1145 C1144 1.370 . S
C1145 C1149 1.408 . S
C1146 C1144 1.363 . S
C1146 C1147 1.370 . S
C1146 C1150 1.524 . S
C1147 C1139 1.503 1_554 S
C1147 C1146 1.370 . S
C1147 C1148 1.403 . S
C1148 C1147 1.403 . S
C1148 C1149 1.404 . S
C1148 C1151 1.539 1_554 S
C1149 C1145 1.408 . S
C1149 C1148 1.404 . S
C1149 H1161 0.930 . S
C1150 C1146 1.524 . S
C1150 H1162 0.956 . S
C1150 H1163 0.961 . S
C1150 H1164 0.961 . S
C1151 C1148 1.539 1_556 S
C1151 H1165 0.958 . S
C1151 H1166 0.961 . S
C1151 H1167 0.960 . S
H1152 C1136 0.931 . S
H1153 C1141 0.929 . S
H1154 C1142 0.960 . S
H1155 C1142 0.962 . S
H1156 C1142 0.960 . S
H1157 C1143 0.961 . S
H1158 C1143 0.961 . S
H1159 C1143 0.961 . S
H1160 C1144 0.931 . S
H1161 C1149 0.930 . S
H1162 C1150 0.956 . S
H1163 C1150 0.961 . S
H1164 C1150 0.961 . S
H1165 C1151 0.958 . S
H1166 C1151 0.961 . S
H1167 C1151 0.960 . S
C1168 C1169 1.391 . S
C1168 C1170 1.394 . S
C1168 H1184 0.931 . S
C1169 C1168 1.391 . S
C1169 C1173 1.376 . S
C1170 C1168 1.394 . S
C1170 C1171 1.369 . S
C1170 C1174 1.531 . S
C1171 C1170 1.369 . S
C1171 C1172 1.410 . S
C1171 C1179 1.503 . S
C1172 C1171 1.410 . S
C1172 C1173 1.392 . S
C1172 C1175 1.511 . S
C1173 C1169 1.376 . S
C1173 C1172 1.392 . S
C1173 H1185 0.929 . S
C1174 C1170 1.531 . S
C1174 H1186 0.960 . S
C1174 H1187 0.962 . S
C1174 H1188 0.960 . S
C1175 C1172 1.511 . S
C1175 H1189 0.961 . S
C1175 H1190 0.961 . S
C1175 H1191 0.961 . S
C1176 C1177 1.370 . S
C1176 C1178 1.363 . S
C1176 H1192 0.931 . S
C1177 C1176 1.370 . S
C1177 C1181 1.408 . S
C1178 C1176 1.363 . S
C1178 C1179 1.370 . S
C1178 C1182 1.524 . S
C1179 C1171 1.503 . S
C1179 C1178 1.370 . S
C1179 C1180 1.403 . S
C1180 C1179 1.403 . S
C1180 C1181 1.404 . S
C1180 C1183 1.539 . S
C1181 C1177 1.408 . S
C1181 C1180 1.404 . S
C1181 H1193 0.930 . S
C1182 C1178 1.524 . S
C1182 H1194 0.956 . S
C1182 H1195 0.961 . S
C1182 H1196 0.961 . S
C1183 C1180 1.539 . S
C1183 H1197 0.958 . S
C1183 H1198 0.961 . S
C1183 H1199 0.960 . S
H1184 C1168 0.931 . S
H1185 C1173 0.929 . S
H1186 C1174 0.960 . S
H1187 C1174 0.962 . S
H1188 C1174 0.960 . S
H1189 C1175 0.961 . S
H1190 C1175 0.961 . S
H1191 C1175 0.961 . S
H1192 C1176 0.931 . S
H1193 C1181 0.930 . S
H1194 C1182 0.956 . S
H1195 C1182 0.961 . S
H1196 C1182 0.961 . S
H1197 C1183 0.958 . S
H1198 C1183 0.961 . S
H1199 C1183 0.960 . S
C1200 C1201 1.391 . S
C1200 C1202 1.394 . S
C1200 H1216 0.931 . S
C1201 C1200 1.391 . S
C1201 C1205 1.376 . S
C1202 C1200 1.394 . S
C1202 C1203 1.369 . S
C1202 C1206 1.531 . S
C1203 C1202 1.369 . S
C1203 C1204 1.410 . S
C1203 C1211 1.503 . S
C1204 C1203 1.410 . S
C1204 C1205 1.392 . S
C1204 C1207 1.511 . S
C1205 C1201 1.376 . S
C1205 C1204 1.392 . S
C1205 H1217 0.929 . S
C1206 C1202 1.531 . S
C1206 H1218 0.960 . S
C1206 H1219 0.962 . S
C1206 H1220 0.960 . S
C1207 C1204 1.511 . S
C1207 H1221 0.961 . S
C1207 H1222 0.961 . S
C1207 H1223 0.961 . S
C1208 C1209 1.370 . S
C1208 C1210 1.363 . S
C1208 H1224 0.931 . S
C1209 C1208 1.370 . S
C1209 C1213 1.408 . S
C1210 C1208 1.363 . S
C1210 C1211 1.370 . S
C1210 C1214 1.524 . S
C1211 C1203 1.503 . S
C1211 C1210 1.370 . S
C1211 C1212 1.403 . S
C1212 C1211 1.403 . S
C1212 C1213 1.404 . S
C1212 C1215 1.539 . S
C1213 C1209 1.408 . S
C1213 C1212 1.404 . S
C1213 H1225 0.930 . S
C1214 C1210 1.524 . S
C1214 H1226 0.956 . S
C1214 H1227 0.961 . S
C1214 H1228 0.961 . S
C1215 C1212 1.539 . S
C1215 H1229 0.958 . S
C1215 H1230 0.961 . S
C1215 H1231 0.960 . S
H1216 C1200 0.931 . S
H1217 C1205 0.929 . S
H1218 C1206 0.960 . S
H1219 C1206 0.962 . S
H1220 C1206 0.960 . S
H1221 C1207 0.961 . S
H1222 C1207 0.961 . S
H1223 C1207 0.961 . S
H1224 C1208 0.931 . S
H1225 C1213 0.930 . S
H1226 C1214 0.956 . S
H1227 C1214 0.961 . S
H1228 C1214 0.961 . S
H1229 C1215 0.958 . S
H1230 C1215 0.961 . S
H1231 C1215 0.960 . S
C1232 C1233 1.391 . S
C1232 C1234 1.394 . S
C1232 H1248 0.931 . S
C1233 C1232 1.391 . S
C1233 C1237 1.376 . S
C1234 C1232 1.394 . S
C1234 C1235 1.369 . S
C1234 C1238 1.531 . S
C1235 C1234 1.369 . S
C1235 C1236 1.410 . S
C1235 C1243 1.503 . S
C1236 C1235 1.410 . S
C1236 C1237 1.392 . S
C1236 C1239 1.511 . S
C1237 C1233 1.376 . S
C1237 C1236 1.392 . S
C1237 H1249 0.929 . S
C1238 C1234 1.531 . S
C1238 H1250 0.960 . S
C1238 H1251 0.962 . S
C1238 H1252 0.960 . S
C1239 C1236 1.511 . S
C1239 H1253 0.961 . S
C1239 H1254 0.961 . S
C1239 H1255 0.961 . S
C1240 C1241 1.370 . S
C1240 C1242 1.363 . S
C1240 H1256 0.931 . S
C1241 C1240 1.370 . S
C1241 C1245 1.408 . S
C1242 C1240 1.363 . S
C1242 C1243 1.370 . S
C1242 C1246 1.524 . S
C1243 C1235 1.503 . S
C1243 C1242 1.370 . S
C1243 C1244 1.403 . S
C1244 C1243 1.403 . S
C1244 C1245 1.404 . S
C1244 C1247 1.539 . S
C1245 C1241 1.408 . S
C1245 C1244 1.404 . S
C1245 H1257 0.930 . S
C1246 C1242 1.524 . S
C1246 H1258 0.956 . S
C1246 H1259 0.961 . S
C1246 H1260 0.961 . S
C1247 C1244 1.539 . S
C1247 H1261 0.958 . S
C1247 H1262 0.961 . S
C1247 H1263 0.960 . S
H1248 C1232 0.931 . S
H1249 C1237 0.929 . S
H1250 C1238 0.960 . S
H1251 C1238 0.962 . S
H1252 C1238 0.960 . S
H1253 C1239 0.961 . S
H1254 C1239 0.961 . S
H1255 C1239 0.961 . S
H1256 C1240 0.931 . S
H1257 C1245 0.930 . S
H1258 C1246 0.956 . S
H1259 C1246 0.961 . S
H1260 C1246 0.961 . S
H1261 C1247 0.958 . S
H1262 C1247 0.961 . S
H1263 C1247 0.960 . S
C1264 C1265 1.391 . S
C1264 C1266 1.394 . S
C1264 H1280 0.931 . S
C1265 C1264 1.391 . S
C1265 C1269 1.376 . S
C1266 C1264 1.394 . S
C1266 C1267 1.369 . S
C1266 C1270 1.531 . S
C1267 C1266 1.369 . S
C1267 C1268 1.410 . S
C1267 C1275 1.503 . S
C1268 C1267 1.410 . S
C1268 C1269 1.392 . S
C1268 C1271 1.511 . S
C1269 C1265 1.376 . S
C1269 C1268 1.392 . S
C1269 H1281 0.929 . S
C1270 C1266 1.531 . S
C1270 H1282 0.960 . S
C1270 H1283 0.962 . S
C1270 H1284 0.960 . S
C1271 C1268 1.511 . S
C1271 H1285 0.961 . S
C1271 H1286 0.961 . S
C1271 H1287 0.961 . S
C1272 C1273 1.370 . S
C1272 C1274 1.363 . S
C1272 H1288 0.931 . S
C1273 C1272 1.370 . S
C1273 C1277 1.408 . S
C1274 C1272 1.363 . S
C1274 C1275 1.370 . S
C1274 C1278 1.524 . S
C1275 C1267 1.503 . S
C1275 C1274 1.370 . S
C1275 C1276 1.403 . S
C1276 C1275 1.403 . S
C1276 C1277 1.404 . S
C1276 C1279 1.539 . S
C1277 C1273 1.408 . S
C1277 C1276 1.404 . S
C1277 H1289 0.930 . S
C1278 C1274 1.524 . S
C1278 H1290 0.956 . S
C1278 H1291 0.961 . S
C1278 H1292 0.961 . S
C1279 C1276 1.539 . S
C1279 H1293 0.958 . S
C1279 H1294 0.961 . S
C1279 H1295 0.960 . S
H1280 C1264 0.931 . S
H1281 C1269 0.929 . S
H1282 C1270 0.960 . S
H1283 C1270 0.962 . S
H1284 C1270 0.960 . S
H1285 C1271 0.961 . S
H1286 C1271 0.961 . S
H1287 C1271 0.961 . S
H1288 C1272 0.931 . S
H1289 C1277 0.930 . S
H1290 C1278 0.956 . S
H1291 C1278 0.961 . S
H1292 C1278 0.961 . S
H1293 C1279 0.958 . S
H1294 C1279 0.961 . S
H1295 C1279 0.960 . S
C1296 C1297 1.391 . S
C1296 C1298 1.394 . S
C1296 H1312 0.931 . S
C1297 C1296 1.391 . S
C1297 C1301 1.376 . S
C1298 C1296 1.394 . S
C1298 C1299 1.369 . S
C1298 C1302 1.531 . S
C1299 C1298 1.369 . S
C1299 C1300 1.410 . S
C1299 C1307 1.503 . S
C1300 C1299 1.410 . S
C1300 C1301 1.392 . S
C1300 C1303 1.511 . S
C1301 C1297 1.376 . S
C1301 C1300 1.392 . S
C1301 H1313 0.929 . S
C1302 C1298 1.531 . S
C1302 H1314 0.960 . S
C1302 H1315 0.962 . S
C1302 H1316 0.960 . S
C1303 C1300 1.511 . S
C1303 H1317 0.961 . S
C1303 H1318 0.961 . S
C1303 H1319 0.961 . S
C1304 C1305 1.370 . S
C1304 C1306 1.363 . S
C1304 H1320 0.931 . S
C1305 C1304 1.370 . S
C1305 C1309 1.408 . S
C1306 C1304 1.363 . S
C1306 C1307 1.370 . S
C1306 C1310 1.524 . S
C1307 C1299 1.503 . S
C1307 C1306 1.370 . S
C1307 C1308 1.403 . S
C1308 C1307 1.403 . S
C1308 C1309 1.404 . S
C1308 C1311 1.539 . S
C1309 C1305 1.408 . S
C1309 C1308 1.404 . S
C1309 H1321 0.930 . S
C1310 C1306 1.524 . S
C1310 H1322 0.956 . S
C1310 H1323 0.961 . S
C1310 H1324 0.961 . S
C1311 C1308 1.539 . S
C1311 H1325 0.958 . S
C1311 H1326 0.961 . S
C1311 H1327 0.960 . S
H1312 C1296 0.931 . S
H1313 C1301 0.929 . S
H1314 C1302 0.960 . S
H1315 C1302 0.962 . S
H1316 C1302 0.960 . S
H1317 C1303 0.961 . S
H1318 C1303 0.961 . S
H1319 C1303 0.961 . S
H1320 C1304 0.931 . S
H1321 C1309 0.930 . S
H1322 C1310 0.956 . S
H1323 C1310 0.961 . S
H1324 C1310 0.961 . S
H1325 C1311 0.958 . S
H1326 C1311 0.961 . S
H1327 C1311 0.960 . S
C1328 C1329 1.391 . S
C1328 C1330 1.394 . S
C1328 H1344 0.931 . S
C1329 C1328 1.391 . S
C1329 C1333 1.376 . S
C1330 C1328 1.394 . S
C1330 C1331 1.369 . S
C1330 C1334 1.531 . S
C1331 C1330 1.369 . S
C1331 C1332 1.410 . S
C1331 C1339 1.503 . S
C1332 C1331 1.410 . S
C1332 C1333 1.392 . S
C1332 C1335 1.511 . S
C1333 C1329 1.376 . S
C1333 C1332 1.392 . S
C1333 H1345 0.929 . S
C1334 C1330 1.531 . S
C1334 H1346 0.960 . S
C1334 H1347 0.962 . S
C1334 H1348 0.960 . S
C1335 C1332 1.511 . S
C1335 H1349 0.961 . S
C1335 H1350 0.961 . S
C1335 H1351 0.961 . S
C1336 C1337 1.370 . S
C1336 C1338 1.363 . S
C1336 H1352 0.931 . S
C1337 C1336 1.370 . S
C1337 C1341 1.408 . S
C1338 C1336 1.363 . S
C1338 C1339 1.370 . S
C1338 C1342 1.524 . S
C1339 C1331 1.503 . S
C1339 C1338 1.370 . S
C1339 C1340 1.403 . S
C1340 C1339 1.403 . S
C1340 C1341 1.404 . S
C1340 C1343 1.539 . S
C1341 C1337 1.408 . S
C1341 C1340 1.404 . S
C1341 H1353 0.930 . S
C1342 C1338 1.524 . S
C1342 H1354 0.956 . S
C1342 H1355 0.961 . S
C1342 H1356 0.961 . S
C1343 C1340 1.539 . S
C1343 H1357 0.958 . S
C1343 H1358 0.961 . S
C1343 H1359 0.960 . S
H1344 C1328 0.931 . S
H1345 C1333 0.929 . S
H1346 C1334 0.960 . S
H1347 C1334 0.962 . S
H1348 C1334 0.960 . S
H1349 C1335 0.961 . S
H1350 C1335 0.961 . S
H1351 C1335 0.961 . S
H1352 C1336 0.931 . S
H1353 C1341 0.930 . S
H1354 C1342 0.956 . S
H1355 C1342 0.961 . S
H1356 C1342 0.961 . S
H1357 C1343 0.958 . S
H1358 C1343 0.961 . S
H1359 C1343 0.960 . S
C1360 C1361 1.391 . S
C1360 C1362 1.394 . S
C1360 H1376 0.931 . S
C1361 C1360 1.391 . S
C1361 C1365 1.376 . S
C1362 C1360 1.394 . S
C1362 C1363 1.369 . S
C1362 C1366 1.531 . S
C1363 C1362 1.369 . S
C1363 C1364 1.410 . S
C1363 C1371 1.503 . S
C1364 C1363 1.410 . S
C1364 C1365 1.392 . S
C1364 C1367 1.511 . S
C1365 C1361 1.376 . S
C1365 C1364 1.392 . S
C1365 H1377 0.929 . S
C1366 C1362 1.531 . S
C1366 H1378 0.960 . S
C1366 H1379 0.962 . S
C1366 H1380 0.960 . S
C1367 C1364 1.511 . S
C1367 H1381 0.961 . S
C1367 H1382 0.961 . S
C1367 H1383 0.961 . S
C1368 C1369 1.370 . S
C1368 C1370 1.363 . S
C1368 H1384 0.931 . S
C1369 C1368 1.370 . S
C1369 C1373 1.408 . S
C1370 C1368 1.363 . S
C1370 C1371 1.370 . S
C1370 C1374 1.524 . S
C1371 C1363 1.503 . S
C1371 C1370 1.370 . S
C1371 C1372 1.403 . S
C1372 C1371 1.403 . S
C1372 C1373 1.404 . S
C1372 C1375 1.539 . S
C1373 C1369 1.408 . S
C1373 C1372 1.404 . S
C1373 H1385 0.930 . S
C1374 C1370 1.524 . S
C1374 H1386 0.956 . S
C1374 H1387 0.961 . S
C1374 H1388 0.961 . S
C1375 C1372 1.539 . S
C1375 H1389 0.958 . S
C1375 H1390 0.961 . S
C1375 H1391 0.960 . S
H1376 C1360 0.931 . S
H1377 C1365 0.929 . S
H1378 C1366 0.960 . S
H1379 C1366 0.962 . S
H1380 C1366 0.960 . S
H1381 C1367 0.961 . S
H1382 C1367 0.961 . S
H1383 C1367 0.961 . S
H1384 C1368 0.931 . S
H1385 C1373 0.930 . S
H1386 C1374 0.956 . S
H1387 C1374 0.961 . S
H1388 C1374 0.961 . S
H1389 C1375 0.958 . S
H1390 C1375 0.961 . S
H1391 C1375 0.960 . S
C1392 C1393 1.391 . S
C1392 C1394 1.394 . S
C1392 H1408 0.931 . S
C1393 C1392 1.391 . S
C1393 C1397 1.376 . S
C1394 C1392 1.394 . S
C1394 C1395 1.369 . S
C1394 C1398 1.531 . S
C1395 C1394 1.369 . S
C1395 C1396 1.410 . S
C1395 C1403 1.503 . S
C1396 C1395 1.410 . S
C1396 C1397 1.392 . S
C1396 C1399 1.511 . S
C1397 C1393 1.376 . S
C1397 C1396 1.392 . S
C1397 H1409 0.929 . S
C1398 C1394 1.531 . S
C1398 H1410 0.960 . S
C1398 H1411 0.962 . S
C1398 H1412 0.960 . S
C1399 C1396 1.511 . S
C1399 H1413 0.961 . S
C1399 H1414 0.961 . S
C1399 H1415 0.961 . S
C1400 C1401 1.370 . S
C1400 C1402 1.363 . S
C1400 H1416 0.931 . S
C1401 C1400 1.370 . S
C1401 C1405 1.408 . S
C1402 C1400 1.363 . S
C1402 C1403 1.370 . S
C1402 C1406 1.524 . S
C1403 C1395 1.503 . S
C1403 C1402 1.370 . S
C1403 C1404 1.403 . S
C1404 C1403 1.403 . S
C1404 C1405 1.404 . S
C1404 C1407 1.539 . S
C1405 C1401 1.408 . S
C1405 C1404 1.404 . S
C1405 H1417 0.930 . S
C1406 C1402 1.524 . S
C1406 H1418 0.956 . S
C1406 H1419 0.961 . S
C1406 H1420 0.961 . S
C1407 C1404 1.539 . S
C1407 H1421 0.958 . S
C1407 H1422 0.961 . S
C1407 H1423 0.960 . S
H1408 C1392 0.931 . S
H1409 C1397 0.929 . S
H1410 C1398 0.960 . S
H1411 C1398 0.962 . S
H1412 C1398 0.960 . S
H1413 C1399 0.961 . S
H1414 C1399 0.961 . S
H1415 C1399 0.961 . S
H1416 C1400 0.931 . S
H1417 C1405 0.930 . S
H1418 C1406 0.956 . S
H1419 C1406 0.961 . S
H1420 C1406 0.961 . S
H1421 C1407 0.958 . S
H1422 C1407 0.961 . S
H1423 C1407 0.960 . S
C1424 C1425 1.391 . S
C1424 C1426 1.394 . S
C1424 H1440 0.931 . S
C1425 C1424 1.391 . S
C1425 C1429 1.376 . S
C1426 C1424 1.394 . S
C1426 C1427 1.369 . S
C1426 C1430 1.531 . S
C1427 C1426 1.369 . S
C1427 C1428 1.410 . S
C1427 C1435 1.503 . S
C1428 C1427 1.410 . S
C1428 C1429 1.392 . S
C1428 C1431 1.511 . S
C1429 C1425 1.376 . S
C1429 C1428 1.392 . S
C1429 H1441 0.929 . S
C1430 C1426 1.531 . S
C1430 H1442 0.960 . S
C1430 H1443 0.962 . S
C1430 H1444 0.960 . S
C1431 C1428 1.511 . S
C1431 H1445 0.961 . S
C1431 H1446 0.961 . S
C1431 H1447 0.961 . S
C1432 C1433 1.370 . S
C1432 C1434 1.363 . S
C1432 H1448 0.931 . S
C1433 C1432 1.370 . S
C1433 C1437 1.408 . S
C1434 C1432 1.363 . S
C1434 C1435 1.370 . S
C1434 C1438 1.524 . S
C1435 C1427 1.503 . S
C1435 C1434 1.370 . S
C1435 C1436 1.403 . S
C1436 C1435 1.403 . S
C1436 C1437 1.404 . S
C1436 C1439 1.539 . S
C1437 C1433 1.408 . S
C1437 C1436 1.404 . S
C1437 H1449 0.930 . S
C1438 C1434 1.524 . S
C1438 H1450 0.956 . S
C1438 H1451 0.961 . S
C1438 H1452 0.961 . S
C1439 C1436 1.539 . S
C1439 H1453 0.958 . S
C1439 H1454 0.961 . S
C1439 H1455 0.960 . S
H1440 C1424 0.931 . S
H1441 C1429 0.929 . S
H1442 C1430 0.960 . S
H1443 C1430 0.962 . S
H1444 C1430 0.960 . S
H1445 C1431 0.961 . S
H1446 C1431 0.961 . S
H1447 C1431 0.961 . S
H1448 C1432 0.931 . S
H1449 C1437 0.930 . S
H1450 C1438 0.956 . S
H1451 C1438 0.961 . S
H1452 C1438 0.961 . S
H1453 C1439 0.958 . S
H1454 C1439 0.961 . S
H1455 C1439 0.960 . S
C1456 C1457 1.391 . S
C1456 C1458 1.394 . S
C1456 H1472 0.931 . S
C1457 C1456 1.391 . S
C1457 C1461 1.376 . S
C1458 C1456 1.394 . S
C1458 C1459 1.369 . S
C1458 C1462 1.531 . S
C1459 C1458 1.369 . S
C1459 C1460 1.410 . S
C1459 C1467 1.503 . S
C1460 C1459 1.410 . S
C1460 C1461 1.392 . S
C1460 C1463 1.511 . S
C1461 C1457 1.376 . S
C1461 C1460 1.392 . S
C1461 H1473 0.929 . S
C1462 C1458 1.531 . S
C1462 H1474 0.960 . S
C1462 H1475 0.962 . S
C1462 H1476 0.960 . S
C1463 C1460 1.511 . S
C1463 H1477 0.961 . S
C1463 H1478 0.961 . S
C1463 H1479 0.961 . S
C1464 C1465 1.370 . S
C1464 C1466 1.363 . S
C1464 H1480 0.931 . S
C1465 C1464 1.370 . S
C1465 C1469 1.408 . S
C1466 C1464 1.363 . S
C1466 C1467 1.370 . S
C1466 C1470 1.524 . S
C1467 C1459 1.503 . S
C1467 C1466 1.370 . S
C1467 C1468 1.403 . S
C1468 C1467 1.403 . S
C1468 C1469 1.404 . S
C1468 C1471 1.539 . S
C1469 C1465 1.408 . S
C1469 C1468 1.404 . S
C1469 H1481 0.930 . S
C1470 C1466 1.524 . S
C1470 H1482 0.956 . S
C1470 H1483 0.961 . S
C1470 H1484 0.961 . S
C1471 C1468 1.539 . S
C1471 H1485 0.958 . S
C1471 H1486 0.961 . S
C1471 H1487 0.960 . S
H1472 C1456 0.931 . S
H1473 C1461 0.929 . S
H1474 C1462 0.960 . S
H1475 C1462 0.962 . S
H1476 C1462 0.960 . S
H1477 C1463 0.961 . S
H1478 C1463 0.961 . S
H1479 C1463 0.961 . S
H1480 C1464 0.931 . S
H1481 C1469 0.930 . S
H1482 C1470 0.956 . S
H1483 C1470 0.961 . S
H1484 C1470 0.961 . S
H1485 C1471 0.958 . S
H1486 C1471 0.961 . S
H1487 C1471 0.960 . S
C1488 C1489 1.391 . S
C1488 C1490 1.394 . S
C1488 H1504 0.931 . S
C1489 C1488 1.391 . S
C1489 C1493 1.376 . S
C1490 C1488 1.394 . S
C1490 C1491 1.369 . S
C1490 C1494 1.531 . S
C1491 C1490 1.369 . S
C1491 C1492 1.410 . S
C1491 C1499 1.503 . S
C1492 C1491 1.410 . S
C1492 C1493 1.392 . S
C1492 C1495 1.511 . S
C1493 C1489 1.376 . S
C1493 C1492 1.392 . S
C1493 H1505 0.929 . S
C1494 C1490 1.531 . S
C1494 H1506 0.960 . S
C1494 H1507 0.962 . S
C1494 H1508 0.960 . S
C1495 C1492 1.511 . S
C1495 H1509 0.961 . S
C1495 H1510 0.961 . S
C1495 H1511 0.961 . S
C1496 C1497 1.370 . S
C1496 C1498 1.363 . S
C1496 H1512 0.931 . S
C1497 C1496 1.370 . S
C1497 C1501 1.408 . S
C1498 C1496 1.363 . S
C1498 C1499 1.370 . S
C1498 C1502 1.524 . S
C1499 C1491 1.503 . S
C1499 C1498 1.370 . S
C1499 C1500 1.403 . S
C1500 C1499 1.403 . S
C1500 C1501 1.404 . S
C1500 C1503 1.539 . S
C1501 C1497 1.408 . S
C1501 C1500 1.404 . S
C1501 H1513 0.930 . S
C1502 C1498 1.524 . S
C1502 H1514 0.956 . S
C1502 H1515 0.961 . S
C1502 H1516 0.961 . S
C1503 C1500 1.539 . S
C1503 H1517 0.958 . S
C1503 H1518 0.961 . S
C1503 H1519 0.960 . S
H1504 C1488 0.931 . S
H1505 C1493 0.929 . S
H1506 C1494 0.960 . S
H1507 C1494 0.962 . S
H1508 C1494 0.960 . S
H1509 C1495 0.961 . S
H1510 C1495 0.961 . S
H1511 C1495 0.961 . S
H1512 C1496 0.931 . S
H1513 C1501 0.930 . S
H1514 C1502 0.956 . S
H1515 C1502 0.961 . S
H1516 C1502 0.961 . S
H1517 C1503 0.958 . S
H1518 C1503 0.961 . S
H1519 C1503 0.960 . S
C1520 C1521 1.391 . S
C1520 C1522 1.394 . S
C1520 H1536 0.931 . S
C1521 C1520 1.391 . S
C1521 C1525 1.376 . S
C1522 C1520 1.394 . S
C1522 C1523 1.369 . S
C1522 C1526 1.531 . S
C1523 C1522 1.369 . S
C1523 C1524 1.410 . S
C1523 C1531 1.503 . S
C1524 C1523 1.410 . S
C1524 C1525 1.392 . S
C1524 C1527 1.511 . S
C1525 C1521 1.376 . S
C1525 C1524 1.392 . S
C1525 H1537 0.929 . S
C1526 C1522 1.531 . S
C1526 H1538 0.960 . S
C1526 H1539 0.962 . S
C1526 H1540 0.960 . S
C1527 C1524 1.511 . S
C1527 H1541 0.961 . S
C1527 H1542 0.961 . S
C1527 H1543 0.961 . S
C1528 C1529 1.370 . S
C1528 C1530 1.363 . S
C1528 H1544 0.931 . S
C1529 C1528 1.370 . S
C1529 C1533 1.408 . S
C1530 C1528 1.363 . S
C1530 C1531 1.370 . S
C1530 C1534 1.524 . S
C1531 C1523 1.503 . S
C1531 C1530 1.370 . S
C1531 C1532 1.403 . S
C1532 C1531 1.403 . S
C1532 C1533 1.404 . S
C1532 C1535 1.539 . S
C1533 C1529 1.408 . S
C1533 C1532 1.404 . S
C1533 H1545 0.930 . S
C1534 C1530 1.524 . S
C1534 H1546 0.956 . S
C1534 H1547 0.961 . S
C1534 H1548 0.961 . S
C1535 C1532 1.539 . S
C1535 H1549 0.958 . S
C1535 H1550 0.961 . S
C1535 H1551 0.960 . S
H1536 C1520 0.931 . S
H1537 C1525 0.929 . S
H1538 C1526 0.960 . S
H1539 C1526 0.962 . S
H1540 C1526 0.960 . S
H1541 C1527 0.961 . S
H1542 C1527 0.961 . S
H1543 C1527 0.961 . S
H1544 C1528 0.931 . S
H1545 C1533 0.930 . S
H1546 C1534 0.956 . S
H1547 C1534 0.961 . S
H1548 C1534 0.961 . S
H1549 C1535 0.958 . S
H1550 C1535 0.961 . S
H1551 C1535 0.960 . S
C1552 C1553 1.391 . S
C1552 C1554 1.394 . S
C1552 H1568 0.931 . S
C1553 C1552 1.391 . S
C1553 C1557 1.376 . S
C1554 C1552 1.394 . S
C1554 C1555 1.369 . S
C1554 C1558 1.531 . S
C1555 C1554 1.369 . S
C1555 C1556 1.410 . S
C1555 C1563 1.503 . S
C1556 C1555 1.410 . S
C1556 C1557 1.392 . S
C1556 C1559 1.511 . S
C1557 C1553 1.376 . S
C1557 C1556 1.392 . S
C1557 H1569 0.929 . S
C1558 C1554 1.531 . S
C1558 H1570 0.960 . S
C1558 H1571 0.962 . S
C1558 H1572 0.960 . S
C1559 C1556 1.511 . S
C1559 H1573 0.961 . S
C1559 H1574 0.961 . S
C1559 H1575 0.961 . S
C1560 C1561 1.370 . S
C1560 C1562 1.363 . S
C1560 H1576 0.931 . S
C1561 C1560 1.370 . S
C1561 C1565 1.408 . S
C1562 C1560 1.363 . S
C1562 C1563 1.370 . S
C1562 C1566 1.524 . S
C1563 C1555 1.503 . S
C1563 C1562 1.370 . S
C1563 C1564 1.403 . S
C1564 C1563 1.403 . S
C1564 C1565 1.404 . S
C1564 C1567 1.539 . S
C1565 C1561 1.408 . S
C1565 C1564 1.404 . S
C1565 H1577 0.930 . S
C1566 C1562 1.524 . S
C1566 H1578 0.956 . S
C1566 H1579 0.961 . S
C1566 H1580 0.961 . S
C1567 C1564 1.539 . S
C1567 H1581 0.958 . S
C1567 H1582 0.961 . S
C1567 H1583 0.960 . S
H1568 C1552 0.931 . S
H1569 C1557 0.929 . S
H1570 C1558 0.960 . S
H1571 C1558 0.962 . S
H1572 C1558 0.960 . S
H1573 C1559 0.961 . S
H1574 C1559 0.961 . S
H1575 C1559 0.961 . S
H1576 C1560 0.931 . S
H1577 C1565 0.930 . S
H1578 C1566 0.956 . S
H1579 C1566 0.961 . S
H1580 C1566 0.961 . S
H1581 C1567 0.958 . S
H1582 C1567 0.961 . S
H1583 C1567 0.960 . S
C1584 C1585 1.391 . S
C1584 C1586 1.394 . S
C1584 H1600 0.931 . S
C1585 C1584 1.391 . S
C1585 C1589 1.376 . S
C1586 C1584 1.394 . S
C1586 C1587 1.369 . S
C1586 C1590 1.531 . S
C1587 C1586 1.369 . S
C1587 C1588 1.410 . S
C1587 C1595 1.503 . S
C1588 C1587 1.410 . S
C1588 C1589 1.392 . S
C1588 C1591 1.511 . S
C1589 C1585 1.376 . S
C1589 C1588 1.392 . S
C1589 H1601 0.929 . S
C1590 C1586 1.531 . S
C1590 H1602 0.960 . S
C1590 H1603 0.962 . S
C1590 H1604 0.960 . S
C1591 C1588 1.511 . S
C1591 H1605 0.961 . S
C1591 H1606 0.961 . S
C1591 H1607 0.961 . S
C1592 C1593 1.370 . S
C1592 C1594 1.363 . S
C1592 H1608 0.931 . S
C1593 C1592 1.370 . S
C1593 C1597 1.408 . S
C1594 C1592 1.363 . S
C1594 C1595 1.370 . S
C1594 C1598 1.524 . S
C1595 C1587 1.503 . S
C1595 C1594 1.370 . S
C1595 C1596 1.403 . S
C1596 C1595 1.403 . S
C1596 C1597 1.404 . S
C1596 C1599 1.539 . S
C1597 C1593 1.408 . S
C1597 C1596 1.404 . S
C1597 H1609 0.930 . S
C1598 C1594 1.524 . S
C1598 H1610 0.956 . S
C1598 H1611 0.961 . S
C1598 H1612 0.961 . S
C1599 C1596 1.539 . S
C1599 H1613 0.958 . S
C1599 H1614 0.961 1_565 S
C1599 H1615 0.960 . S
H1600 C1584 0.931 . S
H1601 C1589 0.929 . S
H1602 C1590 0.960 . S
H1603 C1590 0.962 . S
H1604 C1590 0.960 . S
H1605 C1591 0.961 . S
H1606 C1591 0.961 . S
H1607 C1591 0.961 . S
H1608 C1592 0.931 . S
H1609 C1597 0.930 . S
H1610 C1598 0.956 . S
H1611 C1598 0.961 . S
H1612 C1598 0.961 . S
H1613 C1599 0.958 . S
H1614 C1599 0.961 1_545 S
H1615 C1599 0.960 . S
C1616 C1617 1.391 . S
C1616 C1618 1.394 . S
C1616 H1632 0.931 . S
C1617 C1616 1.391 . S
C1617 C1621 1.376 . S
C1618 C1616 1.394 . S
C1618 C1619 1.369 . S
C1618 C1622 1.531 . S
C1619 C1618 1.369 . S
C1619 C1620 1.410 . S
C1619 C1627 1.503 . S
C1620 C1619 1.410 . S
C1620 C1621 1.392 . S
C1620 C1623 1.511 . S
C1621 C1617 1.376 . S
C1621 C1620 1.392 . S
C1621 H1633 0.929 . S
C1622 C1618 1.531 . S
C1622 H1634 0.960 . S
C1622 H1635 0.962 . S
C1622 H1636 0.960 . S
C1623 C1620 1.511 . S
C1623 H1637 0.961 . S
C1623 H1638 0.961 . S
C1623 H1639 0.961 . S
C1624 C1625 1.370 . S
C1624 C1626 1.363 . S
C1624 H1640 0.931 . S
C1625 C1624 1.370 . S
C1625 C1629 1.408 . S
C1626 C1624 1.363 . S
C1626 C1627 1.370 . S
C1626 C1630 1.524 . S
C1627 C1619 1.503 . S
C1627 C1626 1.370 . S
C1627 C1628 1.403 . S
C1628 C1627 1.403 . S
C1628 C1629 1.404 . S
C1628 C1631 1.539 . S
C1629 C1625 1.408 . S
C1629 C1628 1.404 . S
C1629 H1641 0.930 . S
C1630 C1626 1.524 . S
C1630 H1642 0.956 . S
C1630 H1643 0.961 . S
C1630 H1644 0.961 . S
C1631 C1628 1.539 . S
C1631 H1645 0.958 . S
C1631 H1646 0.961 . S
C1631 H1647 0.960 . S
H1632 C1616 0.931 . S
H1633 C1621 0.929 . S
H1634 C1622 0.960 . S
H1635 C1622 0.962 . S
H1636 C1622 0.960 . S
H1637 C1623 0.961 . S
H1638 C1623 0.961 . S
H1639 C1623 0.961 . S
H1640 C1624 0.931 . S
H1641 C1629 0.930 . S
H1642 C1630 0.956 . S
H1643 C1630 0.961 . S
H1644 C1630 0.961 . S
H1645 C1631 0.958 . S
H1646 C1631 0.961 . S
H1647 C1631 0.960 . S
C1648 C1649 1.391 . S
C1648 C1650 1.394 . S
C1648 H1664 0.931 . S
C1649 C1648 1.391 . S
C1649 C1653 1.376 . S
C1650 C1648 1.394 . S
C1650 C1651 1.369 . S
C1650 C1654 1.531 . S
C1651 C1650 1.369 . S
C1651 C1652 1.410 . S
C1651 C1659 1.503 . S
C1652 C1651 1.410 . S
C1652 C1653 1.392 . S
C1652 C1655 1.511 . S
C1653 C1649 1.376 . S
C1653 C1652 1.392 . S
C1653 H1665 0.929 . S
C1654 C1650 1.531 . S
C1654 H1666 0.960 . S
C1654 H1667 0.962 . S
C1654 H1668 0.960 . S
C1655 C1652 1.511 . S
C1655 H1669 0.961 . S
C1655 H1670 0.961 . S
C1655 H1671 0.961 . S
C1656 C1657 1.370 . S
C1656 C1658 1.363 . S
C1656 H1672 0.931 . S
C1657 C1656 1.370 . S
C1657 C1661 1.408 . S
C1658 C1656 1.363 . S
C1658 C1659 1.370 . S
C1658 C1662 1.524 . S
C1659 C1651 1.503 . S
C1659 C1658 1.370 . S
C1659 C1660 1.403 . S
C1660 C1659 1.403 . S
C1660 C1661 1.404 . S
C1660 C1663 1.539 . S
C1661 C1657 1.408 . S
C1661 C1660 1.404 . S
C1661 H1673 0.930 . S
C1662 C1658 1.524 . S
C1662 H1674 0.956 . S
C1662 H1675 0.961 . S
C1662 H1676 0.961 . S
C1663 C1660 1.539 . S
C1663 H1677 0.958 . S
C1663 H1678 0.961 . S
C1663 H1679 0.960 . S
H1664 C1648 0.931 . S
H1665 C1653 0.929 . S
H1666 C1654 0.960 . S
H1667 C1654 0.962 . S
H1668 C1654 0.960 . S
H1669 C1655 0.961 . S
H1670 C1655 0.961 . S
H1671 C1655 0.961 . S
H1672 C1656 0.931 . S
H1673 C1661 0.930 . S
H1674 C1662 0.956 . S
H1675 C1662 0.961 . S
H1676 C1662 0.961 . S
H1677 C1663 0.958 . S
H1678 C1663 0.961 . S
H1679 C1663 0.960 . S
C1680 C1681 1.391 . S
C1680 C1682 1.394 . S
C1680 H1696 0.931 . S
C1681 C1680 1.391 . S
C1681 C1685 1.376 . S
C1682 C1680 1.394 . S
C1682 C1683 1.369 . S
C1682 C1686 1.531 . S
C1683 C1682 1.369 . S
C1683 C1684 1.410 . S
C1683 C1691 1.503 . S
C1684 C1683 1.410 . S
C1684 C1685 1.392 . S
C1684 C1687 1.511 . S
C1685 C1681 1.376 . S
C1685 C1684 1.392 . S
C1685 H1697 0.929 . S
C1686 C1682 1.531 . S
C1686 H1698 0.960 . S
C1686 H1699 0.962 . S
C1686 H1700 0.960 . S
C1687 C1684 1.511 . S
C1687 H1701 0.961 . S
C1687 H1702 0.961 . S
C1687 H1703 0.961 . S
C1688 C1689 1.370 . S
C1688 C1690 1.363 . S
C1688 H1704 0.931 . S
C1689 C1688 1.370 . S
C1689 C1693 1.408 . S
C1690 C1688 1.363 . S
C1690 C1691 1.370 . S
C1690 C1694 1.524 . S
C1691 C1683 1.503 . S
C1691 C1690 1.370 . S
C1691 C1692 1.403 . S
C1692 C1691 1.403 . S
C1692 C1693 1.404 . S
C1692 C1695 1.539 . S
C1693 C1689 1.408 . S
C1693 C1692 1.404 . S
C1693 H1705 0.930 . S
C1694 C1690 1.524 . S
C1694 H1706 0.956 . S
C1694 H1707 0.961 . S
C1694 H1708 0.961 . S
C1695 C1692 1.539 . S
C1695 H1709 0.958 . S
C1695 H1710 0.961 . S
C1695 H1711 0.960 . S
H1696 C1680 0.931 . S
H1697 C1685 0.929 . S
H1698 C1686 0.960 . S
H1699 C1686 0.962 . S
H1700 C1686 0.960 . S
H1701 C1687 0.961 . S
H1702 C1687 0.961 . S
H1703 C1687 0.961 . S
H1704 C1688 0.931 . S
H1705 C1693 0.930 . S
H1706 C1694 0.956 . S
H1707 C1694 0.961 . S
H1708 C1694 0.961 . S
H1709 C1695 0.958 . S
H1710 C1695 0.961 . S
H1711 C1695 0.960 . S
C1712 C1713 1.391 . S
C1712 C1714 1.394 . S
C1712 H1728 0.931 . S
C1713 C1712 1.391 . S
C1713 C1717 1.376 1_545 S
C1714 C1712 1.394 . S
C1714 C1715 1.369 1_545 S
C1714 C1718 1.531 . S
C1715 C1714 1.369 1_565 S
C1715 C1716 1.410 . S
C1715 C1723 1.503 . S
C1716 C1715 1.410 . S
C1716 C1717 1.392 . S
C1716 C1719 1.511 . S
C1717 C1713 1.376 1_565 S
C1717 C1716 1.392 . S
C1717 H1729 0.929 . S
C1718 C1714 1.531 . S
C1718 H1730 0.960 1_545 S
C1718 H1731 0.962 . S
C1718 H1732 0.960 . S
C1719 C1716 1.511 . S
C1719 H1733 0.961 . S
C1719 H1734 0.961 . S
C1719 H1735 0.961 . S
C1720 C1721 1.370 . S
C1720 C1722 1.363 . S
C1720 H1736 0.931 . S
C1721 C1720 1.370 . S
C1721 C1725 1.408 . S
C1722 C1720 1.363 . S
C1722 C1723 1.370 . S
C1722 C1726 1.524 . S
C1723 C1715 1.503 . S
C1723 C1722 1.370 . S
C1723 C1724 1.403 . S
C1724 C1723 1.403 . S
C1724 C1725 1.404 . S
C1724 C1727 1.539 . S
C1725 C1721 1.408 . S
C1725 C1724 1.404 . S
C1725 H1737 0.930 . S
C1726 C1722 1.524 . S
C1726 H1738 0.956 . S
C1726 H1739 0.961 . S
C1726 H1740 0.961 . S
C1727 C1724 1.539 . S
C1727 H1741 0.958 . S
C1727 H1742 0.961 . S
C1727 H1743 0.960 . S
H1728 C1712 0.931 . S
H1729 C1717 0.929 . S
H1730 C1718 0.960 1_565 S
H1731 C1718 0.962 . S
H1732 C1718 0.960 . S
H1733 C1719 0.961 . S
H1734 C1719 0.961 . S
H1735 C1719 0.961 . S
H1736 C1720 0.931 . S
H1737 C1725 0.930 . S
H1738 C1726 0.956 . S
H1739 C1726 0.961 . S
H1740 C1726 0.961 . S
H1741 C1727 0.958 . S
H1742 C1727 0.961 . S
H1743 C1727 0.960 . S
C1744 C1745 1.391 . S
C1744 C1746 1.394 . S
C1744 H1760 0.931 . S
C1745 C1744 1.391 . S
C1745 C1749 1.376 . S
C1746 C1744 1.394 . S
C1746 C1747 1.369 . S
C1746 C1750 1.531 . S
C1747 C1746 1.369 . S
C1747 C1748 1.410 . S
C1747 C1755 1.503 . S
C1748 C1747 1.410 . S
C1748 C1749 1.392 . S
C1748 C1751 1.511 . S
C1749 C1745 1.376 . S
C1749 C1748 1.392 . S
C1749 H1761 0.929 . S
C1750 C1746 1.531 . S
C1750 H1762 0.960 . S
C1750 H1763 0.962 . S
C1750 H1764 0.960 . S
C1751 C1748 1.511 . S
C1751 H1765 0.961 . S
C1751 H1766 0.961 . S
C1751 H1767 0.961 . S
C1752 C1753 1.370 . S
C1752 C1754 1.363 . S
C1752 H1768 0.931 . S
C1753 C1752 1.370 . S
C1753 C1757 1.408 . S
C1754 C1752 1.363 . S
C1754 C1755 1.370 . S
C1754 C1758 1.524 . S
C1755 C1747 1.503 . S
C1755 C1754 1.370 . S
C1755 C1756 1.403 . S
C1756 C1755 1.403 . S
C1756 C1757 1.404 . S
C1756 C1759 1.539 . S
C1757 C1753 1.408 . S
C1757 C1756 1.404 . S
C1757 H1769 0.930 . S
C1758 C1754 1.524 . S
C1758 H1770 0.956 . S
C1758 H1771 0.961 . S
C1758 H1772 0.961 . S
C1759 C1756 1.539 . S
C1759 H1773 0.958 . S
C1759 H1774 0.961 . S
C1759 H1775 0.960 . S
H1760 C1744 0.931 . S
H1761 C1749 0.929 . S
H1762 C1750 0.960 . S
H1763 C1750 0.962 . S
H1764 C1750 0.960 . S
H1765 C1751 0.961 . S
H1766 C1751 0.961 . S
H1767 C1751 0.961 . S
H1768 C1752 0.931 . S
H1769 C1757 0.930 . S
H1770 C1758 0.956 . S
H1771 C1758 0.961 . S
H1772 C1758 0.961 . S
H1773 C1759 0.958 . S
H1774 C1759 0.961 . S
H1775 C1759 0.960 . S
C1776 C1777 1.391 . S
C1776 C1778 1.394 . S
C1776 H1792 0.931 . S
C1777 C1776 1.391 . S
C1777 C1781 1.376 . S
C1778 C1776 1.394 . S
C1778 C1779 1.369 . S
C1778 C1782 1.531 . S
C1779 C1778 1.369 . S
C1779 C1780 1.410 . S
C1779 C1787 1.503 . S
C1780 C1779 1.410 . S
C1780 C1781 1.392 . S
C1780 C1783 1.511 . S
C1781 C1777 1.376 . S
C1781 C1780 1.392 . S
C1781 H1793 0.929 . S
C1782 C1778 1.531 . S
C1782 H1794 0.960 . S
C1782 H1795 0.962 . S
C1782 H1796 0.960 . S
C1783 C1780 1.511 . S
C1783 H1797 0.961 . S
C1783 H1798 0.961 1_455 S
C1783 H1799 0.961 . S
C1784 C1785 1.370 . S
C1784 C1786 1.363 1_655 S
C1784 H1800 0.931 . S
C1785 C1784 1.370 . S
C1785 C1789 1.408 . S
C1786 C1784 1.363 1_455 S
C1786 C1787 1.370 . S
C1786 C1790 1.524 . S
C1787 C1779 1.503 . S
C1787 C1786 1.370 . S
C1787 C1788 1.403 . S
C1788 C1787 1.403 . S
C1788 C1789 1.404 1_455 S
C1788 C1791 1.539 . S
C1789 C1785 1.408 . S
C1789 C1788 1.404 1_655 S
C1789 H1801 0.930 . S
C1790 C1786 1.524 . S
C1790 H1802 0.956 . S
C1790 H1803 0.961 . S
C1790 H1804 0.961 . S
C1791 C1788 1.539 . S
C1791 H1805 0.958 . S
C1791 H1806 0.961 . S
C1791 H1807 0.960 . S
H1792 C1776 0.931 . S
H1793 C1781 0.929 . S
H1794 C1782 0.960 . S
H1795 C1782 0.962 . S
H1796 C1782 0.960 . S
H1797 C1783 0.961 . S
H1798 C1783 0.961 1_655 S
H1799 C1783 0.961 . S
H1800 C1784 0.931 . S
H1801 C1789 0.930 . S
H1802 C1790 0.956 . S
H1803 C1790 0.961 . S
H1804 C1790 0.961 . S
H1805 C1791 0.958 . S
H1806 C1791 0.961 . S
H1807 C1791 0.960 . S
C1808 C1809 1.391 1_545 S
C1808 C1810 1.394 . S
C1808 H1824 0.931 . S
C1809 C1808 1.391 1_565 S
C1809 C1813 1.376 . S
C1810 C1808 1.394 . S
C1810 C1811 1.369 . S
C1810 C1814 1.531 . S
C1811 C1810 1.369 . S
C1811 C1812 1.410 1_545 S
C1811 C1819 1.503 . S
C1812 C1811 1.410 1_565 S
C1812 C1813 1.392 . S
C1812 C1815 1.511 . S
C1813 C1809 1.376 . S
C1813 C1812 1.392 . S
C1813 H1825 0.929 . S
C1814 C1810 1.531 . S
C1814 H1826 0.960 . S
C1814 H1827 0.962 . S
C1814 H1828 0.960 . S
C1815 C1812 1.511 . S
C1815 H1829 0.961 . S
C1815 H1830 0.961 1_655 S
C1815 H1831 0.961 1_655 S
C1816 C1817 1.370 . S
C1816 C1818 1.363 1_455 S
C1816 H1832 0.931 . S
C1817 C1816 1.370 . S
C1817 C1821 1.408 . S
C1818 C1816 1.363 1_655 S
C1818 C1819 1.370 . S
C1818 C1822 1.524 . S
C1819 C1811 1.503 . S
C1819 C1818 1.370 . S
C1819 C1820 1.403 . S
C1820 C1819 1.403 . S
C1820 C1821 1.404 1_655 S
C1820 C1823 1.539 . S
C1821 C1817 1.408 . S
C1821 C1820 1.404 1_455 S
C1821 H1833 0.930 . S
C1822 C1818 1.524 . S
C1822 H1834 0.956 . S
C1822 H1835 0.961 . S
C1822 H1836 0.961 . S
C1823 C1820 1.539 . S
C1823 H1837 0.958 . S
C1823 H1838 0.961 1_655 S
C1823 H1839 0.960 . S
H1824 C1808 0.931 . S
H1825 C1813 0.929 . S
H1826 C1814 0.960 . S
H1827 C1814 0.962 . S
H1828 C1814 0.960 . S
H1829 C1815 0.961 . S
H1830 C1815 0.961 1_455 S
H1831 C1815 0.961 1_455 S
H1832 C1816 0.931 . S
H1833 C1821 0.930 . S
H1834 C1822 0.956 . S
H1835 C1822 0.961 . S
H1836 C1822 0.961 . S
H1837 C1823 0.958 . S
H1838 C1823 0.961 1_455 S
H1839 C1823 0.960 . S
C1840 C1841 1.391 . S
C1840 C1842 1.394 . S
C1840 H1856 0.931 . S
C1841 C1840 1.391 . S
C1841 C1845 1.376 . S
C1842 C1840 1.394 . S
C1842 C1843 1.369 . S
C1842 C1846 1.531 . S
C1843 C1842 1.369 . S
C1843 C1844 1.410 . S
C1843 C1851 1.503 . S
C1844 C1843 1.410 . S
C1844 C1845 1.392 . S
C1844 C1847 1.511 . S
C1845 C1841 1.376 . S
C1845 C1844 1.392 . S
C1845 H1857 0.929 . S
C1846 C1842 1.531 . S
C1846 H1858 0.960 . S
C1846 H1859 0.962 . S
C1846 H1860 0.960 . S
C1847 C1844 1.511 . S
C1847 H1861 0.961 . S
C1847 H1862 0.961 . S
C1847 H1863 0.961 . S
C1848 C1849 1.370 . S
C1848 C1850 1.363 . S
C1848 H1864 0.931 . S
C1849 C1848 1.370 . S
C1849 C1853 1.408 . S
C1850 C1848 1.363 . S
C1850 C1851 1.370 . S
C1850 C1854 1.524 . S
C1851 C1843 1.503 . S
C1851 C1850 1.370 . S
C1851 C1852 1.403 . S
C1852 C1851 1.403 . S
C1852 C1853 1.404 . S
C1852 C1855 1.539 . S
C1853 C1849 1.408 . S
C1853 C1852 1.404 . S
C1853 H1865 0.930 . S
C1854 C1850 1.524 . S
C1854 H1866 0.956 . S
C1854 H1867 0.961 . S
C1854 H1868 0.961 . S
C1855 C1852 1.539 . S
C1855 H1869 0.958 . S
C1855 H1870 0.961 . S
C1855 H1871 0.960 . S
H1856 C1840 0.931 . S
H1857 C1845 0.929 . S
H1858 C1846 0.960 . S
H1859 C1846 0.962 . S
H1860 C1846 0.960 . S
H1861 C1847 0.961 . S
H1862 C1847 0.961 . S
H1863 C1847 0.961 . S
H1864 C1848 0.931 . S
H1865 C1853 0.930 . S
H1866 C1854 0.956 . S
H1867 C1854 0.961 . S
H1868 C1854 0.961 . S
H1869 C1855 0.958 . S
H1870 C1855 0.961 . S
H1871 C1855 0.960 . S
C1872 C1873 1.391 1_655 S
C1872 C1874 1.394 . S
C1872 H1888 0.931 . S
C1873 C1872 1.391 1_455 S
C1873 C1877 1.376 . S
C1874 C1872 1.394 . S
C1874 C1875 1.369 . S
C1874 C1878 1.531 . S
C1875 C1874 1.369 . S
C1875 C1876 1.410 . S
C1875 C1883 1.503 . S
C1876 C1875 1.410 . S
C1876 C1877 1.392 1_655 S
C1876 C1879 1.511 . S
C1877 C1873 1.376 . S
C1877 C1876 1.392 1_455 S
C1877 H1889 0.929 . S
C1878 C1874 1.531 . S
C1878 H1890 0.960 . S
C1878 H1891 0.962 . S
C1878 H1892 0.960 . S
C1879 C1876 1.511 . S
C1879 H1893 0.961 1_655 S
C1879 H1894 0.961 . S
C1879 H1895 0.961 . S
C1880 C1881 1.370 . S
C1880 C1882 1.363 . S
C1880 H1896 0.931 . S
C1881 C1880 1.370 . S
C1881 C1885 1.408 . S
C1882 C1880 1.363 . S
C1882 C1883 1.370 . S
C1882 C1886 1.524 . S
C1883 C1875 1.503 . S
C1883 C1882 1.370 . S
C1883 C1884 1.403 . S
C1884 C1883 1.403 . S
C1884 C1885 1.404 . S
C1884 C1887 1.539 . S
C1885 C1881 1.408 . S
C1885 C1884 1.404 . S
C1885 H1897 0.930 . S
C1886 C1882 1.524 . S
C1886 H1898 0.956 . S
C1886 H1899 0.961 1_655 S
C1886 H1900 0.961 . S
C1887 C1884 1.539 . S
C1887 H1901 0.958 . S
C1887 H1902 0.961 . S
C1887 H1903 0.960 . S
H1888 C1872 0.931 . S
H1889 C1877 0.929 . S
H1890 C1878 0.960 . S
H1891 C1878 0.962 . S
H1892 C1878 0.960 . S
H1893 C1879 0.961 1_455 S
H1894 C1879 0.961 . S
H1895 C1879 0.961 . S
H1896 C1880 0.931 . S
H1897 C1885 0.930 . S
H1898 C1886 0.956 . S
H1899 C1886 0.961 1_455 S
H1900 C1886 0.961 . S
H1901 C1887 0.958 . S
H1902 C1887 0.961 . S
H1903 C1887 0.960 . S
C1904 C1905 1.391 . S
C1904 C1906 1.394 . S
C1904 H1920 0.931 . S
C1905 C1904 1.391 . S
C1905 C1909 1.376 1_655 S
C1906 C1904 1.394 . S
C1906 C1907 1.369 1_655 S
C1906 C1910 1.531 . S
C1907 C1906 1.369 1_455 S
C1907 C1908 1.410 . S
C1907 C1915 1.503 . S
C1908 C1907 1.410 . S
C1908 C1909 1.392 . S
C1908 C1911 1.511 . S
C1909 C1905 1.376 1_455 S
C1909 C1908 1.392 . S
C1909 H1921 0.929 . S
C1910 C1906 1.531 . S
C1910 H1922 0.960 1_565 S
C1910 H1923 0.962 . S
C1910 H1924 0.960 . S
C1911 C1908 1.511 . S
C1911 H1925 0.961 . S
C1911 H1926 0.961 . S
C1911 H1927 0.961 . S
C1912 C1913 1.370 . S
C1912 C1914 1.363 1_545 S
C1912 H1928 0.931 . S
C1913 C1912 1.370 . S
C1913 C1917 1.408 . S
C1914 C1912 1.363 1_565 S
C1914 C1915 1.370 . S
C1914 C1918 1.524 . S
C1915 C1907 1.503 . S
C1915 C1914 1.370 . S
C1915 C1916 1.403 . S
C1916 C1915 1.403 . S
C1916 C1917 1.404 1_565 S
C1916 C1919 1.539 . S
C1917 C1913 1.408 . S
C1917 C1916 1.404 1_545 S
C1917 H1929 0.930 . S
C1918 C1914 1.524 . S
C1918 H1930 0.956 . S
C1918 H1931 0.961 . S
C1918 H1932 0.961 . S
C1919 C1916 1.539 . S
C1919 H1933 0.958 1_565 S
C1919 H1934 0.961 . S
C1919 H1935 0.960 . S
H1920 C1904 0.931 . S
H1921 C1909 0.929 . S
H1922 C1910 0.960 1_545 S
H1923 C1910 0.962 . S
H1924 C1910 0.960 . S
H1925 C1911 0.961 . S
H1926 C1911 0.961 . S
H1927 C1911 0.961 . S
H1928 C1912 0.931 . S
H1929 C1917 0.930 . S
H1930 C1918 0.956 . S
H1931 C1918 0.961 . S
H1932 C1918 0.961 . S
H1933 C1919 0.958 1_545 S
H1934 C1919 0.961 . S
H1935 C1919 0.960 . S
C1936 C1937 1.391 1_545 S
C1936 C1938 1.394 . S
C1936 H1952 0.931 . S
C1937 C1936 1.391 1_565 S
C1937 C1941 1.376 . S
C1938 C1936 1.394 . S
C1938 C1939 1.369 . S
C1938 C1942 1.531 . S
C1939 C1938 1.369 . S
C1939 C1940 1.410 1_545 S
C1939 C1947 1.503 . S
C1940 C1939 1.410 1_565 S
C1940 C1941 1.392 . S
C1940 C1943 1.511 . S
C1941 C1937 1.376 . S
C1941 C1940 1.392 . S
C1941 H1953 0.929 . S
C1942 C1938 1.531 . S
C1942 H1954 0.960 . S
C1942 H1955 0.962 . S
C1942 H1956 0.960 . S
C1943 C1940 1.511 . S
C1943 H1957 0.961 . S
C1943 H1958 0.961 . S
C1943 H1959 0.961 . S
C1944 C1945 1.370 . S
C1944 C1946 1.363 . S
C1944 H1960 0.931 . S
C1945 C1944 1.370 . S
C1945 C1949 1.408 . S
C1946 C1944 1.363 . S
C1946 C1947 1.370 . S
C1946 C1950 1.524 . S
C1947 C1939 1.503 . S
C1947 C1946 1.370 . S
C1947 C1948 1.403 . S
C1948 C1947 1.403 . S
C1948 C1949 1.404 . S
C1948 C1951 1.539 . S
C1949 C1945 1.408 . S
C1949 C1948 1.404 . S
C1949 H1961 0.930 . S
C1950 C1946 1.524 . S
C1950 H1962 0.956 . S
C1950 H1963 0.961 . S
C1950 H1964 0.961 . S
C1951 C1948 1.539 . S
C1951 H1965 0.958 . S
C1951 H1966 0.961 . S
C1951 H1967 0.960 . S
H1952 C1936 0.931 . S
H1953 C1941 0.929 . S
H1954 C1942 0.960 . S
H1955 C1942 0.962 . S
H1956 C1942 0.960 . S
H1957 C1943 0.961 . S
H1958 C1943 0.961 . S
H1959 C1943 0.961 . S
H1960 C1944 0.931 . S
H1961 C1949 0.930 . S
H1962 C1950 0.956 . S
H1963 C1950 0.961 . S
H1964 C1950 0.961 . S
H1965 C1951 0.958 . S
H1966 C1951 0.961 . S
H1967 C1951 0.960 . S
C945 C416 1.574 . S
C953 C3 1.566 . S
C977 C239 1.534 . S
C985 C62 1.589 . S
C1009 C298 1.554 . S
C1017 C121 1.586 . S
C1041 C180 1.571 . S
C1049 C357 1.580 . S
C1073 C888 1.533 . S
C1081 C475 1.585 . S
C1105 C711 1.552 . S
C1113 C534 1.570 . S
C1137 C593 1.557 . S
C1145 C770 1.588 . S
C1169 C652 1.543 . S
C1177 C829 1.589 . S
C1201 C170 1.130 . S
C1209 C52 1.155 . S
C1233 C111 1.152 . S
C1241 C229 1.167 . S
C1265 C288 1.180 . S
C1273 C406 1.155 . S
C1297 C465 1.177 . S
C1305 C347 1.149 . S
C1329 C524 1.160 . S
C1337 C642 1.146 . S
C1361 C583 1.167 . S
C1369 C701 1.147 . S
C1393 C878 1.142 . S
C1401 C760 1.147 . S
C1425 C819 1.180 . S
C1433 C937 1.158 . S
C1457 C387 1.374 . S
C1465 C33 1.383 . S
C1489 C92 1.393 . S
C1497 C446 1.361 . S
C1521 C151 1.337 . S
C1529 C269 1.368 . S
C1553 C210 1.360 . S
C1561 C328 1.384 . S
C1585 C505 1.388 . S
C1593 C859 1.375 . S
C1617 C564 1.355 . S
C1625 C918 1.384 . S
C1649 C623 1.356 . S
C1657 C741 1.362 . S
C1681 C682 1.381 . S
C1689 C800 1.357 . S
C1713 C5 1.371 . S
C1721 C890 1.372 . S
C1745 C713 1.357 . S
C1753 C64 1.367 . S
C1777 C123 1.358 . S
C1785 C772 1.368 . S
C1809 C831 1.377 . S
C1817 C182 1.376 . S
C1841 C536 1.380 . S
C1849 C241 1.376 . S
C1873 C300 1.355 . S
C1881 C595 1.366 . S
C1905 C654 1.363 . S
C1913 C359 1.368 . S
C1937 C477 1.377 . S
C1945 C418 1.376 . S
