# Generated by pormake.
# Topology wjn, (5)-cn, num edge types: 1
# Building blocks:
#     Node 0, Type 0, BuildingBlock: BEQFEK_clean_sbu_0, # of connection points: 5
#     Node 1, Type 0, BuildingBlock: BEQFEK_clean_sbu_0, # of connection points: 5
#     Node 2, Type 0, BuildingBlock: BEQFEK_clean_sbu_0, # of connection points: 5
#     Node 3, Type 0, BuildingBlock: BEQFEK_clean_sbu_0, # of connection points: 5
#     Node 4, Type 0, BuildingBlock: BEQFEK_clean_sbu_0, # of connection points: 5
#     Node 5, Type 0, BuildingBlock: BEQFEK_clean_sbu_0, # of connection points: 5
#     Node 6, Type 0, BuildingBlock: BEQFEK_clean_sbu_0, # of connection points: 5
#     Node 7, Type 0, BuildingBlock: BEQFEK_clean_sbu_0, # of connection points: 5
#     Node 8, Type 0, BuildingBlock: BEQFEK_clean_sbu_0, # of connection points: 5
#     Node 9, Type 0, BuildingBlock: BEQFEK_clean_sbu_0, # of connection points: 5
#     Node 10, Type 0, BuildingBlock: BEQFEK_clean_sbu_0, # of connection points: 5
#     Node 11, Type 0, BuildingBlock: BEQFEK_clean_sbu_0, # of connection points: 5
#     Edge 12, Type (0, 0), BuildingBlock: EZIPEK_clean_linker_0, # of connection points: 2
#     Edge 13, Type (0, 0), BuildingBlock: EZIPEK_clean_linker_0, # of connection points: 2
#     Edge 14, Type (0, 0), BuildingBlock: EZIPEK_clean_linker_0, # of connection points: 2
#     Edge 15, Type (0, 0), BuildingBlock: EZIPEK_clean_linker_0, # of connection points: 2
#     Edge 16, Type (0, 0), BuildingBlock: EZIPEK_clean_linker_0, # of connection points: 2
#     Edge 17, Type (0, 0), BuildingBlock: EZIPEK_clean_linker_0, # of connection points: 2
#     Edge 18, Type (0, 0), BuildingBlock: EZIPEK_clean_linker_0, # of connection points: 2
#     Edge 19, Type (0, 0), BuildingBlock: EZIPEK_clean_linker_0, # of connection points: 2
#     Edge 20, Type (0, 0), BuildingBlock: EZIPEK_clean_linker_0, # of connection points: 2
#     Edge 21, Type (0, 0), BuildingBlock: EZIPEK_clean_linker_0, # of connection points: 2
#     Edge 22, Type (0, 0), BuildingBlock: EZIPEK_clean_linker_0, # of connection points: 2
#     Edge 23, Type (0, 0), BuildingBlock: EZIPEK_clean_linker_0, # of connection points: 2
#     Edge 24, Type (0, 0), BuildingBlock: EZIPEK_clean_linker_0, # of connection points: 2
#     Edge 25, Type (0, 0), BuildingBlock: EZIPEK_clean_linker_0, # of connection points: 2
#     Edge 26, Type (0, 0), BuildingBlock: EZIPEK_clean_linker_0, # of connection points: 2
#     Edge 27, Type (0, 0), BuildingBlock: EZIPEK_clean_linker_0, # of connection points: 2
#     Edge 28, Type (0, 0), BuildingBlock: EZIPEK_clean_linker_0, # of connection points: 2
#     Edge 29, Type (0, 0), BuildingBlock: EZIPEK_clean_linker_0, # of connection points: 2
#     Edge 30, Type (0, 0), BuildingBlock: EZIPEK_clean_linker_0, # of connection points: 2
#     Edge 31, Type (0, 0), BuildingBlock: EZIPEK_clean_linker_0, # of connection points: 2
#     Edge 32, Type (0, 0), BuildingBlock: EZIPEK_clean_linker_0, # of connection points: 2
#     Edge 33, Type (0, 0), BuildingBlock: EZIPEK_clean_linker_0, # of connection points: 2
#     Edge 34, Type (0, 0), BuildingBlock: EZIPEK_clean_linker_0, # of connection points: 2
#     Edge 35, Type (0, 0), BuildingBlock: EZIPEK_clean_linker_0, # of connection points: 2
#     Edge 36, Type (0, 0), BuildingBlock: EZIPEK_clean_linker_0, # of connection points: 2
#     Edge 37, Type (0, 0), BuildingBlock: EZIPEK_clean_linker_0, # of connection points: 2
#     Edge 38, Type (0, 0), BuildingBlock: EZIPEK_clean_linker_0, # of connection points: 2
#     Edge 39, Type (0, 0), BuildingBlock: EZIPEK_clean_linker_0, # of connection points: 2
#     Edge 40, Type (0, 0), BuildingBlock: EZIPEK_clean_linker_0, # of connection points: 2
#     Edge 41, Type (0, 0), BuildingBlock: EZIPEK_clean_linker_0, # of connection points: 2
# Relax obj value: 0.404
# Max RMSD: 0.210
# Mean RMSD: 0.210
data_MOF--net-wjn--node1-BEQFEK_clean_sbu_0--edge1-EZIPEK_clean_linker_0
_symmetry_space_group_name_H-M    P1
_symmetry_Int_Tables_number       1
_symmetry_cell_setting            triclinic
loop_
_symmetry_equiv_pos_as_xyz
'x, y, z'
_cell_length_a     27.400782
_cell_length_b     27.375657
_cell_length_c     55.707887
_cell_angle_alpha  90.276004
_cell_angle_beta   89.690689
_cell_angle_gamma 119.86952
loop_
_atom_site_label
_atom_site_type_symbol
_atom_site_fract_x
_atom_site_fract_y
_atom_site_fract_z
_atom_type_partial_charge
Co0 Co 0.13021 0.42707 0.11863 0.0
Co1 Co 0.23627 0.42107 0.13429 0.0
C2 C 0.21405 0.51212 0.15306 0.0
O3 O 0.17082 0.49361 0.13983 0.0
O4 O 0.24406 0.48841 0.1532 0.0
C5 C 0.0866 0.47096 0.08557 0.0
O6 O 0.13922 0.49609 0.07828 0.0
C7 C 0.35895 0.46391 0.1378 0.0
C8 C 0.36336 0.38721 0.14538 0.0
C9 C 0.39662 0.44481 0.142 0.0
N10 N 0.30597 0.41981 0.13865 0.0
N11 N 0.30908 0.37405 0.14318 0.0
C12 C 0.3731 0.52344 0.13361 0.0
H13 H 0.37948 0.54492 0.15121 0.0
H14 H 0.33819 0.52463 0.12412 0.0
H15 H 0.41269 0.54647 0.12312 0.0
C16 C 0.16338 0.40451 0.07156 0.0
N17 N 0.17432 0.41813 0.0949 0.0
N18 N 0.22418 0.42542 0.10021 0.0
C19 C 0.24876 0.42234 0.07944 0.0
C20 C 0.21066 0.40954 0.06063 0.0
C21 C 0.10574 0.37585 0.0609 0.0
H22 H 0.07456 0.35498 0.07541 0.0
H23 H 0.09814 0.40653 0.05109 0.0
H24 H 0.10075 0.34308 0.04779 0.0
O25 O 0.09525 0.35945 0.13729 0.0
O26 O 0.16737 0.34786 0.1476 0.0
H27 H 0.30723 0.39602 0.08945 0.0
H28 H 0.31587 0.42221 0.059 0.0
C29 C 0.3057 0.42791 0.07775 0.0
H30 H 0.33759 0.47018 0.08434 0.0
H31 H 0.27414 0.33379 0.1448 0.0
O32 O 0.07198 0.43777 0.10334 0.0
C33 C 0.11427 0.33088 0.14735 0.0
Co34 Co 0.70299 0.14586 0.43794 0.0
Co35 Co 0.81501 0.23788 0.46018 0.0
C36 C 0.70238 0.22478 0.47506 0.0
O37 O 0.67914 0.18716 0.45909 0.0
O38 O 0.75545 0.24867 0.47833 0.0
C39 C 0.62061 0.13137 0.40593 0.0
O40 O 0.65113 0.18658 0.40583 0.0
C41 C 0.90127 0.35693 0.46737 0.0
C42 C 0.9742 0.35267 0.48131 0.0
C43 C 0.95618 0.39025 0.47533 0.0
N44 N 0.88725 0.30228 0.46858 0.0
N45 N 0.93125 0.30013 0.47692 0.0
C46 C 0.86227 0.37688 0.45929 0.0
H47 H 0.82469 0.34226 0.45041 0.0
H48 H 0.88432 0.41283 0.44675 0.0
H49 H 0.8488 0.39205 0.47511 0.0
C50 C 0.76615 0.18376 0.39379 0.0
N51 N 0.76147 0.19024 0.41742 0.0
N52 N 0.80757 0.23399 0.42548 0.0
C53 C 0.84229 0.25863 0.40641 0.0
C54 C 0.81632 0.22733 0.3858 0.0
C55 C 0.72584 0.13398 0.37914 0.0
H56 H 0.70145 0.09649 0.39058 0.0
H57 H 0.69744 0.14499 0.36945 0.0
H58 H 0.74845 0.12327 0.3654 0.0
O59 O 0.72349 0.0987 0.45695 0.0
O60 O 0.80765 0.16204 0.47106 0.0
H61 H 0.92419 0.30195 0.42218 0.0
H62 H 0.92264 0.31657 0.39053 0.0
C63 C 0.90002 0.30866 0.40794 0.0
H64 H 0.89661 0.34613 0.41288 0.0
H65 H 0.93193 0.26281 0.47973 0.0
O66 O 0.63621 0.10298 0.41857 0.0
C67 C 0.76775 0.1106 0.46884 0.0
Co68 Co 0.53188 0.67148 0.76619 0.0
Co69 Co 0.56299 0.7856 0.79151 0.0
C70 C 0.45932 0.67743 0.80515 0.0
O71 O 0.47189 0.65069 0.79003 0.0
O72 O 0.48877 0.73081 0.80689 0.0
C73 C 0.46068 0.57967 0.73599 0.0
O74 O 0.42985 0.60408 0.73528 0.0
C75 C 0.53536 0.87506 0.79847 0.0
C76 C 0.61165 0.94581 0.81415 0.0
C77 C 0.55727 0.92981 0.80692 0.0
N78 N 0.5745 0.85919 0.80062 0.0
N79 N 0.6202 0.9019 0.80997 0.0
C80 C 0.47726 0.8375 0.78913 0.0
H81 H 0.44899 0.81488 0.80444 0.0
H82 H 0.47701 0.80586 0.77653 0.0
H83 H 0.46081 0.86232 0.78006 0.0
C84 C 0.55638 0.73808 0.72314 0.0
N85 N 0.54641 0.73197 0.74686 0.0
N86 N 0.5623 0.78136 0.75675 0.0
C87 C 0.58234 0.82058 0.73911 0.0
C88 C 0.57888 0.79387 0.71734 0.0
C89 C 0.55075 0.69261 0.7065 0.0
H90 H 0.56662 0.667 0.71521 0.0
H91 H 0.50569 0.66596 0.70197 0.0
H92 H 0.57421 0.70949 0.68947 0.0
O93 O 0.6014 0.69013 0.78278 0.0
O94 O 0.62082 0.76522 0.80522 0.0
H95 H 0.63783 0.89557 0.75849 0.0
H96 H 0.63076 0.90656 0.72685 0.0
C97 C 0.60831 0.88247 0.74314 0.0
H98 H 0.57443 0.89182 0.74768 0.0
H99 H 0.65712 0.90109 0.81358 0.0
O100 O 0.50699 0.60278 0.74732 0.0
C101 C 0.63042 0.72534 0.79907 0.0
Co102 Co 0.89234 0.56999 0.10452 0.0
Co103 Co 0.7971 0.58128 0.13011 0.0
C104 C 0.81023 0.48006 0.13813 0.0
O105 O 0.8526 0.5006 0.12416 0.0
O106 O 0.78201 0.50508 0.14146 0.0
C107 C 0.92256 0.51731 0.06915 0.0
O108 O 0.8679 0.48297 0.06863 0.0
C109 C 0.6773 0.54629 0.13622 0.0
C110 C 0.67823 0.61873 0.1541 0.0
C111 C 0.64227 0.5654 0.145 0.0
N112 N 0.73141 0.58622 0.13985 0.0
N113 N 0.73157 0.62948 0.1506 0.0
C114 C 0.65939 0.49044 0.12473 0.0
H115 H 0.69412 0.49213 0.11375 0.0
H116 H 0.62165 0.47743 0.1134 0.0
H117 H 0.64809 0.45837 0.13899 0.0
C118 C 0.85319 0.60102 0.06259 0.0
N119 N 0.84783 0.58727 0.08591 0.0
N120 N 0.80456 0.58891 0.09528 0.0
C121 C 0.77864 0.60031 0.0772 0.0
C122 C 0.80894 0.60787 0.05601 0.0
C123 C 0.90267 0.61303 0.04706 0.0
H124 H 0.94126 0.63005 0.05808 0.0
H125 H 0.89461 0.57391 0.03769 0.0
H126 H 0.90971 0.64454 0.03307 0.0
O127 O 0.93599 0.63261 0.12514 0.0
O128 O 0.87181 0.63918 0.14752 0.0
H129 H 0.73088 0.63072 0.09608 0.0
H130 H 0.72014 0.62466 0.06385 0.0
C131 C 0.72703 0.60515 0.07996 0.0
H132 H 0.69014 0.56247 0.08237 0.0
H133 H 0.76801 0.66649 0.15543 0.0
O134 O 0.94258 0.55829 0.08383 0.0
C135 C 0.92347 0.65415 0.14266 0.0
Co136 Co 0.32029 0.90273 0.4555 0.0
Co137 Co 0.21354 0.79816 0.47564 0.0
C138 C 0.33189 0.82103 0.48566 0.0
O139 O 0.35155 0.86056 0.47041 0.0
O140 O 0.27913 0.79292 0.49009 0.0
C141 C 0.4271 0.97145 0.43514 0.0
O142 O 0.43895 0.93403 0.44376 0.0
C143 C 0.1357 0.67445 0.47708 0.0
C144 C 0.05791 0.66748 0.49216 0.0
C145 C 0.08064 0.63556 0.48345 0.0
N146 N 0.14514 0.72692 0.48171 0.0
N147 N 0.09827 0.72223 0.49077 0.0
C148 C 0.17876 0.66169 0.467 0.0
H149 H 0.21541 0.70046 0.45984 0.0
H150 H 0.15995 0.62945 0.45261 0.0
H151 H 0.19308 0.64395 0.48141 0.0
C152 C 0.2642 0.86655 0.41011 0.0
N153 N 0.26477 0.86005 0.43395 0.0
N154 N 0.22061 0.81276 0.44083 0.0
C155 C 0.19089 0.78673 0.42071 0.0
C156 C 0.21823 0.82015 0.40071 0.0
C157 C 0.3082 0.91572 0.39626 0.0
H158 H 0.31502 0.95553 0.40455 0.0
H159 H 0.34805 0.91484 0.39674 0.0
H160 H 0.29637 0.91499 0.37721 0.0
O161 O 0.29468 0.93363 0.48022 0.0
O162 O 0.21448 0.86403 0.49474 0.0
H163 H 0.11069 0.72781 0.43552 0.0
H164 H 0.11556 0.72419 0.4031 0.0
C165 C 0.13831 0.73081 0.42031 0.0
H166 H 0.14951 0.69731 0.42227 0.0
H167 H 0.09366 0.75644 0.49586 0.0
O168 O 0.37913 0.96619 0.43858 0.0
C169 C 0.25346 0.91603 0.49461 0.0
Co170 Co 0.43731 0.29837 0.78083 0.0
Co171 Co 0.40665 0.18669 0.80375 0.0
C172 C 0.50757 0.30701 0.81888 0.0
O173 O 0.5005 0.33291 0.80161 0.0
O174 O 0.47507 0.2536 0.82167 0.0
C175 C 0.46387 0.3918 0.74819 0.0
O176 O 0.51771 0.41024 0.75157 0.0
C177 C 0.45092 0.10851 0.80592 0.0
C178 C 0.382 0.03253 0.82278 0.0
C179 C 0.43577 0.05436 0.8133 0.0
N180 N 0.4083 0.11834 0.81075 0.0
N181 N 0.36715 0.07258 0.82083 0.0
C182 C 0.50554 0.15059 0.79475 0.0
H183 H 0.50658 0.19108 0.79154 0.0
H184 H 0.5114 0.13387 0.77746 0.0
H185 H 0.54075 0.15756 0.80669 0.0
C186 C 0.43972 0.24574 0.73759 0.0
N187 N 0.44138 0.24461 0.76159 0.0
N188 N 0.40718 0.1937 0.76925 0.0
C189 C 0.37701 0.16204 0.75025 0.0
C190 C 0.39696 0.19458 0.72924 0.0
C191 C 0.48161 0.29394 0.72264 0.0
H192 H 0.51929 0.32209 0.73342 0.0
H193 H 0.49441 0.27769 0.70695 0.0
H194 H 0.4626 0.31828 0.71555 0.0
O195 O 0.36746 0.26972 0.80104 0.0
O196 O 0.3372 0.18498 0.81611 0.0
H197 H 0.2989 0.09386 0.73655 0.0
H198 H 0.33819 0.07358 0.75622 0.0
C199 C 0.3254 0.10556 0.7529 0.0
H200 H 0.30083 0.10579 0.76877 0.0
H201 H 0.32889 0.0686 0.82633 0.0
O202 O 0.4282 0.34938 0.75975 0.0
C203 C 0.33164 0.2282 0.81346 0.0
Co204 Co 0.62296 0.91338 0.56357 0.0
Co205 Co 0.61077 0.8014 0.54376 0.0
C206 C 0.51798 0.82876 0.53844 0.0
O207 O 0.54472 0.8715 0.552 0.0
O208 O 0.53839 0.7972 0.53295 0.0
C209 C 0.60079 0.97596 0.59736 0.0
O210 O 0.55704 0.92648 0.60218 0.0
C211 C 0.55865 0.67614 0.53935 0.0
C212 C 0.63289 0.66541 0.53571 0.0
C213 C 0.57473 0.63536 0.53762 0.0
N214 N 0.605 0.72785 0.53864 0.0
N215 N 0.64918 0.7208 0.53631 0.0
C216 C 0.50018 0.66594 0.54244 0.0
H217 H 0.49924 0.69199 0.55753 0.0
H218 H 0.46974 0.62083 0.54587 0.0
H219 H 0.48775 0.67927 0.52588 0.0
C220 C 0.65402 0.88012 0.60733 0.0
N221 N 0.64172 0.87217 0.58384 0.0
N222 N 0.62468 0.81968 0.57787 0.0
C223 C 0.62075 0.79143 0.59837 0.0
C224 C 0.63837 0.82904 0.61768 0.0
C225 C 0.67828 0.93511 0.62044 0.0
H226 H 0.69972 0.97099 0.60789 0.0
H227 H 0.64466 0.93744 0.63065 0.0
H228 H 0.70936 0.9377 0.63383 0.0
O229 O 0.67296 0.9397 0.53706 0.0
O230 O 0.67468 0.86464 0.52268 0.0
H231 H 0.61979 0.71624 0.58779 0.0
H232 H 0.59803 0.71598 0.61857 0.0
C233 C 0.59615 0.72925 0.59995 0.0
H234 H 0.55172 0.7083 0.594 0.0
H235 H 0.69072 0.75386 0.53578 0.0
O236 O 0.6327 0.97966 0.58013 0.0
C237 C 0.69173 0.91783 0.52229 0.0
Co238 Co 0.69736 0.59496 0.90147 0.0
Co239 Co 0.79626 0.58216 0.88089 0.0
C240 C 0.67943 0.48825 0.87574 0.0
O241 O 0.66498 0.51803 0.88809 0.0
O242 O 0.73126 0.50631 0.87121 0.0
C243 C 0.61879 0.55062 0.93657 0.0
O244 O 0.65211 0.53123 0.94281 0.0
C245 C 0.87441 0.5368 0.87657 0.0
C246 C 0.95545 0.61215 0.86782 0.0
C247 C 0.93095 0.55495 0.87237 0.0
N248 N 0.86569 0.581 0.87459 0.0
N249 N 0.91452 0.62592 0.86929 0.0
C250 C 0.82957 0.47842 0.88286 0.0
H251 H 0.80041 0.48004 0.8963 0.0
H252 H 0.84787 0.45319 0.88989 0.0
H253 H 0.80512 0.45753 0.86645 0.0
C254 C 0.76639 0.63475 0.94347 0.0
N255 N 0.75883 0.61658 0.92069 0.0
N256 N 0.79551 0.60106 0.91476 0.0
C257 C 0.82489 0.60468 0.93486 0.0
C258 C 0.80623 0.62524 0.95375 0.0
C259 C 0.73378 0.65803 0.95591 0.0
H260 H 0.71012 0.66864 0.94286 0.0
H261 H 0.70495 0.62724 0.96933 0.0
H262 H 0.7631 0.69676 0.96592 0.0
O263 O 0.71709 0.64663 0.8754 0.0
O264 O 0.78689 0.63825 0.85864 0.0
H265 H 0.90151 0.6098 0.92341 0.0
H266 H 0.88499 0.59208 0.95483 0.0
C267 C 0.86717 0.58569 0.93648 0.0
H268 H 0.84695 0.54045 0.93162 0.0
H269 H 0.92018 0.66626 0.86711 0.0
O270 O 0.6337 0.58701 0.91999 0.0
C271 C 0.75367 0.65896 0.85898 0.0
Co272 Co 0.12842 0.69947 0.24263 0.0
Co273 Co 0.23614 0.80242 0.22339 0.0
C274 C 0.21494 0.68776 0.21172 0.0
O275 O 0.16801 0.66805 0.2227 0.0
O276 O 0.24965 0.74052 0.21177 0.0
C277 C 0.08877 0.61327 0.27538 0.0
O278 O 0.14318 0.63324 0.27766 0.0
C279 C 0.35776 0.8824 0.21686 0.0
C280 C 0.36058 0.96255 0.20876 0.0
C281 C 0.39455 0.93884 0.21186 0.0
N282 N 0.3045 0.87296 0.21665 0.0
N283 N 0.30664 0.92122 0.21175 0.0
C284 C 0.37311 0.8382 0.22201 0.0
H285 H 0.34506 0.80934 0.23616 0.0
H286 H 0.41772 0.8573 0.22764 0.0
H287 H 0.36705 0.81305 0.20548 0.0
C288 C 0.16324 0.75981 0.28785 0.0
N289 N 0.17205 0.75537 0.2644 0.0
N290 N 0.2213 0.79703 0.25782 0.0
C291 C 0.2474 0.82704 0.27784 0.0
C292 C 0.21101 0.80375 0.29747 0.0
C293 C 0.10869 0.72526 0.30089 0.0
H294 H 0.07298 0.7083 0.28818 0.0
H295 H 0.10974 0.69058 0.31064 0.0
H296 H 0.1022 0.75124 0.31449 0.0
O297 O 0.09206 0.72665 0.22205 0.0
O298 O 0.1675 0.79291 0.20299 0.0
H299 H 0.3093 0.90829 0.26527 0.0
H300 H 0.31707 0.89513 0.29653 0.0
C301 C 0.30579 0.87619 0.27831 0.0
H302 H 0.33569 0.86209 0.27269 0.0
H303 H 0.2713 0.92613 0.21067 0.0
O304 O 0.07185 0.6362 0.26036 0.0
C305 C 0.11363 0.76238 0.20532 0.0
Co306 Co 0.47548 0.16246 0.58028 0.0
Co307 Co 0.43422 0.23731 0.55669 0.0
C308 C 0.54092 0.23401 0.54046 0.0
O309 O 0.53641 0.20299 0.55797 0.0
O310 O 0.50436 0.24937 0.53726 0.0
C311 C 0.55291 0.14527 0.60467 0.0
O312 O 0.58143 0.20044 0.60295 0.0
C313 C 0.46658 0.35533 0.54966 0.0
C314 C 0.38884 0.35319 0.53795 0.0
C315 C 0.44532 0.38968 0.54276 0.0
N316 N 0.42513 0.30113 0.54882 0.0
N317 N 0.37862 0.30016 0.54181 0.0
C318 C 0.52578 0.374 0.55687 0.0
H319 H 0.55276 0.3869 0.54057 0.0
H320 H 0.52839 0.33937 0.56594 0.0
H321 H 0.5419 0.41117 0.56894 0.0
C322 C 0.45409 0.20454 0.6246 0.0
N323 N 0.46319 0.2099 0.60077 0.0
N324 N 0.43544 0.2326 0.59134 0.0
C325 C 0.40306 0.23703 0.60877 0.0
C326 C 0.41377 0.21899 0.63063 0.0
C327 C 0.47963 0.18091 0.64124 0.0
H328 H 0.52506 0.20006 0.63747 0.0
H329 H 0.47548 0.19027 0.66028 0.0
H330 H 0.45845 0.13469 0.6386 0.0
O331 O 0.40503 0.11057 0.56126 0.0
O332 O 0.37098 0.16265 0.54591 0.0
H333 H 0.32634 0.23628 0.61889 0.0
H334 H 0.37422 0.29405 0.59988 0.0
C335 C 0.35619 0.24845 0.60357 0.0
H336 H 0.33353 0.22513 0.58718 0.0
H337 H 0.33987 0.26337 0.53969 0.0
O338 O 0.50181 0.11845 0.59802 0.0
C339 C 0.36801 0.11484 0.54885 0.0
Co340 Co 0.30255 0.41841 0.89816 0.0
Co341 Co 0.18841 0.40775 0.88306 0.0
C342 C 0.29874 0.50573 0.86714 0.0
O343 O 0.32571 0.4873 0.87898 0.0
O344 O 0.24516 0.47987 0.86727 0.0
C345 C 0.3934 0.46797 0.92853 0.0
O346 O 0.37543 0.50432 0.93009 0.0
C347 C 0.10638 0.44744 0.87932 0.0
C348 C 0.02545 0.36915 0.87406 0.0
C349 C 0.04924 0.42709 0.87605 0.0
N350 N 0.11617 0.40378 0.87917 0.0
N351 N 0.06743 0.35705 0.87602 0.0
C352 C 0.15102 0.50761 0.8826 0.0
H353 H 0.17144 0.52483 0.86501 0.0
H354 H 0.18365 0.51049 0.89517 0.0
H355 H 0.13287 0.53336 0.88939 0.0
C356 C 0.25046 0.39619 0.94593 0.0
N357 N 0.24908 0.40467 0.92222 0.0
N358 N 0.20379 0.40749 0.9171 0.0
C359 C 0.17734 0.40534 0.93809 0.0
C360 C 0.20671 0.39841 0.95699 0.0
C361 C 0.28958 0.38078 0.95797 0.0
H362 H 0.30496 0.36111 0.94488 0.0
H363 H 0.3249 0.41874 0.96626 0.0
H364 H 0.26774 0.35014 0.97262 0.0
O365 O 0.27506 0.35516 0.87684 0.0
O366 O 0.19171 0.34215 0.86514 0.0
H367 H 0.09216 0.37801 0.92847 0.0
H368 H 0.11026 0.4045 0.95894 0.0
C369 C 0.12554 0.41014 0.9401 0.0
H370 H 0.13507 0.45225 0.93363 0.0
H371 H 0.06275 0.31685 0.87526 0.0
O372 O 0.36987 0.4279 0.91358 0.0
C373 C 0.23048 0.32859 0.86459 0.0
Co374 Co 0.90706 0.30756 0.22451 0.0
Co375 Co 0.80015 0.1948 0.21025 0.0
C376 C 0.81678 0.3057 0.19299 0.0
O377 O 0.86217 0.33058 0.20487 0.0
O378 O 0.78692 0.25214 0.19301 0.0
C379 C 0.94226 0.39491 0.25612 0.0
O380 O 0.88879 0.36409 0.26181 0.0
C381 C 0.6778 0.1142 0.20876 0.0
C382 C 0.67318 0.03173 0.20525 0.0
C383 C 0.64006 0.05673 0.2073 0.0
N384 N 0.73078 0.12296 0.2076 0.0
N385 N 0.72756 0.07329 0.20545 0.0
C386 C 0.66359 0.16004 0.21156 0.0
H387 H 0.66156 0.17589 0.19351 0.0
H388 H 0.69676 0.1956 0.22201 0.0
H389 H 0.62209 0.14409 0.22047 0.0
C390 C 0.87902 0.25467 0.27169 0.0
N391 N 0.86692 0.25445 0.24837 0.0
N392 N 0.81617 0.21254 0.24397 0.0
C393 C 0.79236 0.18854 0.26531 0.0
C394 C 0.83181 0.21534 0.28352 0.0
C395 C 0.93643 0.28752 0.28228 0.0
H396 H 0.94113 0.32563 0.29146 0.0
H397 H 0.94303 0.26212 0.29598 0.0
H398 H 0.96824 0.29854 0.2679 0.0
O399 O 0.94189 0.277 0.20462 0.0
O400 O 0.86921 0.19306 0.19462 0.0
H401 H 0.72407 0.12841 0.28745 0.0
H402 H 0.70379 0.15345 0.26139 0.0
C403 C 0.73374 0.14083 0.26831 0.0
H404 H 0.72858 0.1043 0.25761 0.0
H405 H 0.76248 0.06766 0.20443 0.0
O406 O 0.96257 0.37798 0.23968 0.0
C407 C 0.92225 0.22969 0.19413 0.0
C408 C 0.55115 0.53302 0.12264 0.0
C409 C 0.5793 0.53604 0.14441 0.0
C410 C 0.48775 0.48603 0.16517 0.0
C411 C 0.45959 0.47785 0.1429 0.0
N412 N 0.46462 0.48562 0.09976 0.0
N413 N 0.5745 0.50914 0.18585 0.0
C414 C 0.49136 0.49928 0.12143 0.0
C415 C 0.54758 0.51087 0.16555 0.0
N416 N 0.58145 0.56384 0.10328 0.0
N417 N 0.45743 0.47166 0.18606 0.0
H418 H 0.61813 0.52731 0.18689 0.0
H419 H 0.55349 0.48595 0.20101 0.0
H420 H 0.41376 0.45372 0.1865 0.0
H421 H 0.47577 0.48196 0.203 0.0
H422 H 0.5631 0.56809 0.08769 0.0
H423 H 0.62506 0.5896 0.10365 0.0
H424 H 0.48578 0.49467 0.08337 0.0
H425 H 0.42107 0.46089 0.09811 0.0
C426 C 0.03384 0.5465 0.4584 0.0
C427 C 0.05059 0.57266 0.48128 0.0
C428 C 1.00178 0.47925 0.5004 0.0
C429 C 0.98933 0.45312 0.47742 0.0
N430 N 1.00367 0.46191 0.43459 0.0
N431 N 0.05882 0.56378 0.52388 0.0
C432 C 1.00834 0.4868 0.45642 0.0
C433 C 0.03691 0.53892 0.50224 0.0
N434 N 0.0401 0.57842 0.43862 0.0
N435 N 0.97834 0.44731 0.52046 0.0
H436 H 0.08473 0.60719 0.52591 0.0
H437 H 0.05548 0.54116 0.53936 0.0
H438 H 0.95234 0.40367 0.51987 0.0
H439 H 0.98066 0.46441 0.53744 0.0
H440 H 0.02333 0.56132 0.42189 0.0
H441 H 0.05753 0.62198 0.43943 0.0
H442 H 0.02198 0.48453 0.41895 0.0
H443 H 0.98598 0.41849 0.43248 0.0
C444 C 0.48856 0.01135 0.83284 0.0
C445 C 0.46913 0.02469 0.81161 0.0
C446 C 0.51503 0.98351 0.78743 0.0
C447 C 0.52844 0.96406 0.80863 0.0
N448 N 0.52074 0.95271 0.85163 0.0
N449 N 0.45543 0.0145 0.76875 0.0
C450 C 0.51336 0.97629 0.8314 0.0
C451 C 0.48013 0.00838 0.78889 0.0
N452 N 0.48492 0.03364 0.85433 0.0
N453 N 0.53726 0.98 0.76593 0.0
H454 H 0.42915 0.03193 0.76906 0.0
H455 H 0.45693 0.99776 0.75212 0.0
H456 H 0.5644 0.9638 0.76436 0.0
H457 H 0.53354 0.99834 0.75021 0.0
H458 H 0.50373 0.03049 0.87 0.0
H459 H 0.46757 0.05983 0.85607 0.0
H460 H 0.50491 0.95493 0.86839 0.0
H461 H 0.53848 0.92671 0.85137 0.0
C462 C 0.51743 0.54526 0.56124 0.0
C463 C 0.53876 0.57236 0.53877 0.0
C464 C 0.49421 0.47964 0.51863 0.0
C465 C 0.47606 0.45264 0.54127 0.0
N466 N 0.4721 0.45839 0.58432 0.0
N467 N 0.55053 0.56624 0.4962 0.0
C468 C 0.48801 0.48517 0.56262 0.0
C469 C 0.52782 0.53969 0.51749 0.0
N470 N 0.52489 0.57717 0.58128 0.0
N471 N 0.47864 0.44769 0.49815 0.0
H472 H 0.57238 0.60996 0.49439 0.0
H473 H 0.55029 0.54551 0.48047 0.0
H474 H 0.45647 0.40377 0.49832 0.0
H475 H 0.48469 0.46417 0.48091 0.0
H476 H 0.50512 0.5611 0.59767 0.0
H477 H 0.54881 0.62085 0.58124 0.0
H478 H 0.48517 0.47868 0.60082 0.0
H479 H 0.44772 0.41475 0.586 0.0
C480 C 0.97571 0.50461 0.85165 0.0
C481 C 0.9607 0.52154 0.87332 0.0
C482 C 1.00579 0.47858 0.89674 0.0
C483 C 0.01875 0.4597 0.87509 0.0
N484 N 0.01254 0.44993 0.83206 0.0
N485 N 0.95745 0.52183 0.91654 0.0
C486 C 1.00269 0.47141 0.85257 0.0
C487 C 0.97469 0.50769 0.89588 0.0
N488 N 0.96489 0.52115 0.83013 0.0
N489 N 0.02417 0.4694 0.91813 0.0
H490 H 0.93783 0.54601 0.91667 0.0
H491 H 0.95982 0.50754 0.93352 0.0
H492 H 0.04405 0.44553 0.9196 0.0
H493 H 0.02251 0.48749 0.93435 0.0
H494 H 0.98022 0.51629 0.81371 0.0
H495 H 0.94263 0.54272 0.82868 0.0
H496 H 0.99652 0.45097 0.81531 0.0
H497 H 0.03463 0.42803 0.83189 0.0
C498 C 0.4852 0.98217 0.18801 0.0
C499 C 0.45751 0.96906 0.21068 0.0
C500 C 0.54943 0.01598 0.23109 0.0
C501 C 0.57709 0.0269 0.20845 0.0
N502 N 0.57252 0.01664 0.16544 0.0
N503 N 0.46196 0.96962 0.25385 0.0
C504 C 0.54523 0.00896 0.18693 0.0
C505 C 0.48936 0.98498 0.23224 0.0
N506 N 0.45394 0.96966 0.1675 0.0
N507 N 0.58082 0.03617 0.2515 0.0
H508 H 0.41834 0.95006 0.25546 0.0
H509 H 0.48174 0.9735 0.2702 0.0
H510 H 0.62457 0.05595 0.25147 0.0
H511 H 0.56425 0.03606 0.26835 0.0
H512 H 0.47096 0.98353 0.15049 0.0
H513 H 0.41005 0.94756 0.16751 0.0
H514 H 0.55236 0.99921 0.14929 0.0
H515 H 0.61627 0.03823 0.16385 0.0
C516 C 0.9495 0.44711 0.05776 0.0
C517 C 0.96205 0.50325 0.05713 0.0
C518 C 0.05955 0.53725 0.06694 0.0
C519 C 0.04502 0.481 0.07302 0.0
N520 N 0.97595 0.38066 0.07198 0.0
N521 N 0.03106 0.59643 0.04592 0.0
C522 C 0.99021 0.43507 0.06728 0.0
C523 C 0.01838 0.54627 0.05605 0.0
N524 N 0.89926 0.40625 0.04884 0.0
N525 N 0.10939 0.58247 0.07406 0.0
H526 H 0.99978 0.60188 0.0379 0.0
H527 H 0.0721 0.629 0.04308 0.0
H528 H 0.13884 0.57944 0.08471 0.0
H529 H 0.11886 0.62403 0.07178 0.0
H530 H 0.88817 0.3641 0.04708 0.0
H531 H 0.8714 0.41645 0.04057 0.0
H532 H 0.93502 0.34689 0.071 0.0
H533 H 1.00423 0.36888 0.07799 0.0
C534 C 0.5408 0.04784 0.38914 0.0
C535 C 0.56197 0.10295 0.39793 0.0
C536 C 0.48328 0.07387 0.42492 0.0
C537 C 0.46758 0.01695 0.41974 0.0
N538 N 0.46834 0.94957 0.39163 0.0
N539 N 0.53791 0.17105 0.41178 0.0
C540 C 0.49172 1.00372 0.39985 0.0
C541 C 0.52683 0.11672 0.41119 0.0
N542 N 0.57119 0.03825 0.37222 0.0
N543 N 0.46089 0.0874 0.44409 0.0
H544 H 0.57003 0.20213 0.40134 0.0
H545 H 0.51174 0.18334 0.42028 0.0
H546 H 0.43084 0.05766 0.45561 0.0
H547 H 0.47575 0.12871 0.4498 0.0
H548 H 0.56259 0.99853 0.3665 0.0
H549 H 0.60598 0.07179 0.36399 0.0
H550 H 0.48206 0.93798 0.37632 0.0
H551 H 0.43255 0.91622 0.39931 0.0
C552 C 0.48176 0.46456 0.71691 0.0
C553 C 0.44477 0.4245 0.7337 0.0
C554 C 0.39521 0.47655 0.73951 0.0
C555 C 0.43963 0.52202 0.72707 0.0
N556 N 0.50575 0.5498 0.69464 0.0
N557 N 0.34738 0.3762 0.74668 0.0
C558 C 0.47634 0.5125 0.71242 0.0
C559 C 0.39479 0.42476 0.74027 0.0
N560 N 0.52199 0.45692 0.70583 0.0
N561 N 0.35619 0.48373 0.75196 0.0
H562 H 0.34404 0.33679 0.74469 0.0
H563 H 0.30919 0.37433 0.75044 0.0
H564 H 0.35326 0.52012 0.75074 0.0
H565 H 0.32786 0.45398 0.76401 0.0
H566 H 0.55417 0.48731 0.69528 0.0
H567 H 0.52254 0.41921 0.70727 0.0
H568 H 0.53229 0.54507 0.68261 0.0
H569 H 0.4981 0.58246 0.69053 0.0
C570 C 0.6453 0.08028 0.59813 0.0
C571 C 0.60836 0.02816 0.60899 0.0
C572 C 0.55881 0.07108 0.62806 0.0
C573 C 0.58172 0.11358 0.6102 0.0
N574 N 0.64923 0.15916 0.57774 0.0
N575 N 0.54572 0.98121 0.64203 0.0
C576 C 0.62697 0.11968 0.59553 0.0
C577 C 0.57017 0.02589 0.6267 0.0
N578 N 0.69724 0.09178 0.59037 0.0
N579 N 0.52754 0.07504 0.64629 0.0
H580 H 0.56006 0.95245 0.64341 0.0
H581 H 0.51268 0.97335 0.6536 0.0
H582 H 0.5236 0.11068 0.64842 0.0
H583 H 0.51076 0.04665 0.66043 0.0
H584 H 0.72687 0.13093 0.58351 0.0
H585 H 0.71286 0.06473 0.59396 0.0
H586 H 0.67788 0.15989 0.56515 0.0
H587 H 0.63621 0.18814 0.57413 0.0
C588 C 0.46594 0.44066 0.93702 0.0
C589 C 0.44399 0.47668 0.94175 0.0
C590 C 0.53593 0.5505 0.95497 0.0
C591 C 0.55955 0.52044 0.94366 0.0
N592 N 0.54679 0.43534 0.92394 0.0
N593 N 0.45057 0.54905 0.9683 0.0
C594 C 0.52469 0.46428 0.93542 0.0
C595 C 0.47663 0.52665 0.95498 0.0
N596 N 0.43075 0.38402 0.93467 0.0
N597 N 0.57034 0.60263 0.96449 0.0
H598 H 0.40693 0.528 0.97045 0.0
H599 H 0.47169 0.58402 0.97944 0.0
H600 H 0.61375 0.61955 0.96575 0.0
H601 H 0.55632 0.62961 0.97047 0.0
H602 H 0.44499 0.35524 0.9331 0.0
H603 H 0.38762 0.36545 0.93766 0.0
H604 H 0.52214 0.39785 0.91463 0.0
H605 H 0.58963 0.44998 0.92207 0.0
C606 C 0.99042 0.54016 0.28159 0.0
C607 C 0.04748 0.55789 0.28521 0.0
C608 C 0.03108 0.46381 0.27784 0.0
C609 C 0.97718 0.44938 0.26823 0.0
N610 N 0.90735 0.4771 0.25946 0.0
N611 N 0.11117 0.53125 0.30144 0.0
C612 C 0.95622 0.4876 0.27044 0.0
C613 C 0.06429 0.51771 0.28825 0.0
N614 N 0.97055 0.57528 0.28784 0.0
N615 N 0.05211 0.42806 0.27586 0.0
H616 H 0.13309 0.57 0.31027 0.0
H617 H 0.12395 0.50252 0.30602 0.0
H618 H 0.02996 0.38812 0.26849 0.0
H619 H 0.09347 0.43954 0.28002 0.0
H620 H 0.9281 0.56356 0.2873 0.0
H621 H 0.99668 0.61402 0.29607 0.0
H622 H 0.89358 0.50632 0.25881 0.0
H623 H 0.88345 0.44219 0.24861 0.0
C624 C 0.21941 0.59794 0.20859 0.0
C625 C 0.22681 0.64791 0.1975 0.0
C626 C 0.24382 0.61428 0.15885 0.0
C627 C 0.22708 0.56099 0.16918 0.0
N628 N 0.19537 0.50025 0.20377 0.0
N629 N 0.24189 0.7016 0.16103 0.0
C630 C 0.21459 0.55251 0.19411 0.0
C631 C 0.23887 0.65604 0.17241 0.0
N632 N 0.21822 0.59445 0.23307 0.0
N633 N 0.26488 0.62503 0.13598 0.0
H634 H 0.239 0.73366 0.16982 0.0
H635 H 0.24298 0.70567 0.14243 0.0
H636 H 0.26896 0.59527 0.12569 0.0
H637 H 0.28336 0.66477 0.12814 0.0
H638 H 0.218 0.56145 0.24238 0.0
H639 H 0.22332 0.62752 0.24415 0.0
H640 H 0.17874 0.48942 0.22104 0.0
H641 H 0.19257 0.4664 0.19396 0.0
C642 C 0.6164 0.18155 0.50109 0.0
C643 C 0.66378 0.23143 0.49236 0.0
C644 C 0.62988 0.28714 0.5147 0.0
C645 C 0.57981 0.23674 0.52088 0.0
N646 N 0.51912 0.13747 0.5134 0.0
N647 N 0.71115 0.33246 0.48803 0.0
C648 C 0.5711 0.18456 0.51183 0.0
C649 C 0.66944 0.28468 0.49838 0.0
N650 N 0.61579 0.13129 0.50044 0.0
N651 N 0.64031 0.33685 0.52485 0.0
H652 H 0.73999 0.33186 0.47594 0.0
H653 H 0.7143 0.37179 0.48997 0.0
H654 H 0.61153 0.33962 0.5363 0.0
H655 H 0.67854 0.37417 0.52306 0.0
H656 H 0.5842 0.09484 0.50851 0.0
H657 H 0.65008 0.12759 0.49464 0.0
H658 H 0.50946 0.09944 0.50515 0.0
H659 H 0.48424 0.1383 0.52055 0.0
C660 C 0.42013 0.646 0.84717 0.0
C661 C 0.41158 0.64356 0.82191 0.0
C662 C 0.32345 0.55365 0.82653 0.0
C663 C 0.33155 0.55648 0.85181 0.0
N664 N 0.37804 0.61324 0.88648 0.0
N665 N 0.34712 0.6046 0.78884 0.0
C666 C 0.37671 0.60549 0.86219 0.0
C667 C 0.3603 0.60058 0.8121 0.0
N668 N 0.47096 0.68389 0.85682 0.0
N669 N 0.28361 0.50489 0.81594 0.0
H670 H 0.37305 0.63901 0.77801 0.0
H671 H 0.30818 0.57716 0.78124 0.0
H672 H 0.25646 0.46872 0.82549 0.0
H673 H 0.28073 0.49864 0.79742 0.0
H674 H 0.4814 0.68255 0.87466 0.0
H675 H 0.50456 0.71399 0.84678 0.0
H676 H 0.40706 0.65051 0.89492 0.0
H677 H 0.3464 0.58464 0.89786 0.0
C678 C 0.80116 0.43175 0.17795 0.0
C679 C 0.79814 0.42907 0.15243 0.0
C680 C 0.79832 0.33915 0.1534 0.0
C681 C 0.80021 0.3415 0.1789 0.0
N682 N 0.78673 0.38099 0.2153 0.0
N683 N 0.77939 0.37355 0.11646 0.0
C684 C 0.7959 0.38482 0.19107 0.0
C685 C 0.79187 0.3804 0.14038 0.0
N686 N 0.81349 0.4805 0.18972 0.0
N687 N 0.80627 0.29989 0.1415 0.0
H688 H 0.77372 0.40264 0.10658 0.0
H689 H 0.76923 0.33675 0.10703 0.0
H690 H 0.81086 0.26884 0.15023 0.0
H691 H 0.81232 0.30051 0.12301 0.0
H692 H 0.82297 0.48679 0.20795 0.0
H693 H 0.81938 0.51671 0.18109 0.0
H694 H 0.77794 0.40846 0.22492 0.0
H695 H 0.78213 0.34683 0.22534 0.0
C696 C 0.42012 0.87086 0.50931 0.0
C697 C 0.37406 0.81869 0.50177 0.0
C698 C 0.41714 0.77075 0.52265 0.0
C699 C 0.46769 0.82328 0.5256 0.0
N700 N 0.52041 0.92156 0.51372 0.0
N701 N 0.33162 0.71757 0.49937 0.0
C702 C 0.47015 0.87291 0.51664 0.0
C703 C 0.37309 0.76793 0.50795 0.0
N704 N 0.41595 0.91857 0.51004 0.0
N705 N 0.41002 0.72441 0.53468 0.0
H706 H 0.29933 0.71425 0.48846 0.0
H707 H 0.33206 0.68 0.50153 0.0
H708 H 0.43963 0.72649 0.54689 0.0
H709 H 0.37238 0.68611 0.53462 0.0
H710 H 0.4478 0.95659 0.51697 0.0
H711 H 0.37834 0.91824 0.50671 0.0
H712 H 0.5234 0.95722 0.5056 0.0
H713 H 0.55926 0.92403 0.51626 0.0
C714 C 0.58499 0.43792 0.85503 0.0
C715 C 0.63363 0.43688 0.86335 0.0
C716 C 0.59629 0.34301 0.84453 0.0
C717 C 0.54651 0.34356 0.83816 0.0
N718 N 0.48599 0.38221 0.84609 0.0
N719 N 0.67698 0.38036 0.87119 0.0
C720 C 0.53833 0.38768 0.84665 0.0
C721 C 0.63687 0.38693 0.85965 0.0
N722 N 0.5845 0.48742 0.85288 0.0
N723 N 0.60565 0.30184 0.83568 0.0
H724 H 0.70446 0.40973 0.88355 0.0
H725 H 0.67868 0.3432 0.87055 0.0
H726 H 0.57609 0.26873 0.82518 0.0
H727 H 0.64382 0.3026 0.83762 0.0
H728 H 0.5509 0.48956 0.8453 0.0
H729 H 0.61995 0.52695 0.85515 0.0
H730 H 0.47724 0.41177 0.85386 0.0
H731 H 0.45052 0.34525 0.84036 0.0
C732 C 0.2309 0.45511 0.99511 0.0
C733 C 0.20173 0.40177 0.98357 0.0
C734 C 0.19248 0.35499 0.02227 0.0
C735 C 0.21715 0.40792 0.03407 0.0
N736 N 0.25404 0.50825 0.03233 0.0
N737 N 0.14775 0.30085 0.98624 0.0
C738 C 0.23493 0.458 0.02062 0.0
C739 C 0.18028 0.35164 0.99726 0.0
N740 N 0.25649 0.5031 0.9816 0.0
N741 N 0.18117 0.30804 0.03508 0.0
H742 H 0.13806 0.29747 0.968 0.0
H743 H 0.12657 0.26277 0.9954 0.0
H744 H 0.19002 0.30968 0.05336 0.0
H745 H 0.16768 0.26869 0.02735 0.0
H746 H 0.28452 0.5426 0.98863 0.0
H747 H 0.25226 0.50308 0.96301 0.0
H748 H 0.26057 0.54493 0.02393 0.0
H749 H 0.26053 0.51269 0.05084 0.0
C750 C 0.8082 0.25373 0.31993 0.0
C751 C 0.82469 0.21618 0.30997 0.0
C752 C 0.85487 0.2038 0.34982 0.0
C753 C 0.83265 0.23609 0.36005 0.0
N754 N 0.78547 0.28972 0.35561 0.0
N755 N 0.85904 0.15147 0.31522 0.0
C756 C 0.80912 0.261 0.34525 0.0
C757 C 0.84685 0.19014 0.3249 0.0
N758 N 0.79313 0.28368 0.30511 0.0
N759 N 0.88321 0.18598 0.36415 0.0
H760 H 0.85306 0.14049 0.29707 0.0
H761 H 0.87083 0.12714 0.32529 0.0
H762 H 0.88954 0.19593 0.3824 0.0
H763 H 0.90442 0.16586 0.35778 0.0
H764 H 0.78792 0.31698 0.31094 0.0
H765 H 0.78878 0.27745 0.2866 0.0
H766 H 0.76065 0.30223 0.34634 0.0
H767 H 0.78876 0.29898 0.37392 0.0
C768 C 0.57015 0.81316 0.65096 0.0
C769 C 0.62205 0.81783 0.6434 0.0
C770 C 0.6523 0.82691 0.68536 0.0
C771 C 0.59844 0.81654 0.69287 0.0
N772 N 0.50528 0.79827 0.68366 0.0
N773 N 0.71116 0.8256 0.65277 0.0
C774 C 0.55742 0.80999 0.67586 0.0
C775 C 0.6629 0.82396 0.66047 0.0
N776 N 0.53359 0.81317 0.63432 0.0
N777 N 0.69289 0.83911 0.70221 0.0
H778 H 0.7196 0.82314 0.63465 0.0
H779 H 0.74095 0.8253 0.66416 0.0
H780 H 0.68582 0.84148 0.72049 0.0
H781 H 0.7345 0.85126 0.69816 0.0
H782 H 0.49914 0.81782 0.63865 0.0
H783 H 0.53901 0.81137 0.61588 0.0
H784 H 0.47066 0.78516 0.67246 0.0
H785 H 0.49605 0.79962 0.70178 0.0
C786 C 0.77335 0.56649 0.99112 0.0
C787 C 0.80914 0.61949 0.98015 0.0
C788 C 0.82582 0.66589 0.01949 0.0
C789 C 0.79596 0.61252 0.03061 0.0
N790 N 0.74365 0.51138 0.02769 0.0
N791 N 0.87352 0.71901 0.9837 0.0
C792 C 0.76986 0.56267 0.01657 0.0
C793 C 0.83645 0.66911 0.99433 0.0
N794 N 0.74103 0.5201 0.97727 0.0
N795 N 0.84439 0.7133 0.03322 0.0
H796 H 0.88249 0.72227 0.96535 0.0
H797 H 0.89864 0.75604 0.99315 0.0
H798 H 0.83661 0.71136 0.05166 0.0
H799 H 0.86278 0.75385 0.02623 0.0
H800 H 0.7088 0.4824 0.98414 0.0
H801 H 0.74368 0.51999 0.95861 0.0
H802 H 0.73089 0.47341 0.01878 0.0
H803 H 0.73695 0.50702 0.0462 0.0
C804 C 0.18814 0.83771 0.36095 0.0
C805 C 0.20913 0.80841 0.37447 0.0
C806 C 0.23719 0.78061 0.33715 0.0
C807 C 0.22022 0.81367 0.32378 0.0
N808 N 0.18657 0.87959 0.32275 0.0
N809 N 0.25965 0.75733 0.37599 0.0
C810 C 0.1979 0.84414 0.3357 0.0
C811 C 0.23509 0.78108 0.3627 0.0
N812 N 0.15845 0.85893 0.3724 0.0
N813 N 0.25368 0.74729 0.32534 0.0
H814 H 0.25653 0.75426 0.39465 0.0
H815 H 0.2856 0.74335 0.36869 0.0
H816 H 0.25896 0.74824 0.30676 0.0
H817 H 0.25929 0.7166 0.33377 0.0
H818 H 0.13776 0.87674 0.36355 0.0
H819 H 0.15042 0.85423 0.39083 0.0
H820 H 0.17472 0.90687 0.33041 0.0
H821 H 0.19375 0.88513 0.30428 0.0
C822 C 0.36802 0.23086 0.69411 0.0
C823 C 0.3736 0.18632 0.70423 0.0
C824 C 0.36458 0.14903 0.66359 0.0
C825 C 0.38205 0.2034 0.65406 0.0
N826 N 0.39884 0.29758 0.66143 0.0
N827 N 0.3767 0.10071 0.69725 0.0
C828 C 0.38168 0.24448 0.66947 0.0
C829 C 0.36982 0.14345 0.6887 0.0
N830 N 0.35248 0.26149 0.70833 0.0
N831 N 0.34707 0.10415 0.64846 0.0
H832 H 0.38376 0.09691 0.7153 0.0
H833 H 0.37988 0.07185 0.68602 0.0
H834 H 0.34356 0.10817 0.63 0.0
H835 H 0.33134 0.06306 0.65459 0.0
H836 H 0.34516 0.29273 0.70159 0.0
H837 H 0.34195 0.25135 0.72638 0.0
H838 H 0.40474 0.33033 0.67287 0.0
H839 H 0.41095 0.30969 0.64371 0.0
C840 C 0.01532 0.23601 0.19484 0.0
C841 C 0.96543 0.22056 0.18169 0.0
C842 C 0.02075 0.24454 0.14467 0.0
C843 C 0.07047 0.27682 0.15833 0.0
N844 N 0.11712 0.29502 0.19649 0.0
N845 N 0.91865 0.19979 0.14359 0.0
C846 C 0.06873 0.26845 0.18344 0.0
C847 C 0.96728 0.21975 0.15635 0.0
N848 N 0.01079 0.22222 0.21857 0.0
N849 N 0.02536 0.24058 0.12043 0.0
H850 H 0.87922 0.17944 0.15185 0.0
H851 H 0.91743 0.20429 0.1251 0.0
H852 H 0.06462 0.25918 0.11192 0.0
H853 H 0.99151 0.21533 0.10933 0.0
H854 H 0.04479 0.22907 0.22919 0.0
H855 H 0.97149 0.1992 0.22688 0.0
H856 H 0.118 0.29644 0.21517 0.0
H857 H 0.15671 0.31663 0.18845 0.0
C858 C 0.72002 0.95752 0.48047 0.0
C859 C 0.73387 0.95892 0.50496 0.0
C860 C 0.7888 0.06249 0.50384 0.0
C861 C 0.77019 0.06156 0.4799 0.0
N862 N 0.74121 0.00869 0.44287 0.0
N863 N 0.80033 0.00929 0.53604 0.0
C864 C 0.74366 0.00904 0.46735 0.0
C865 C 0.77574 0.01052 0.51499 0.0
N866 N 0.68163 0.90783 0.47018 0.0
N867 N 0.81454 0.11136 0.5168 0.0
H868 H 0.78995 0.97123 0.54442 0.0
H869 H 0.83424 0.04474 0.54362 0.0
H870 H 0.8261 0.15078 0.50985 0.0
H871 H 0.82178 0.1124 0.53519 0.0
H872 H 0.66431 0.90525 0.45329 0.0
H873 H 0.6658 0.86941 0.47904 0.0
H874 H 0.72594 0.97207 0.43262 0.0
H875 H 0.76045 0.04582 0.43286 0.0
C876 C 0.72282 0.75582 0.8221 0.0
C877 C 0.67061 0.71298 0.81257 0.0
C878 C 0.69863 0.64328 0.82276 0.0
C879 C 0.74276 0.68297 0.83717 0.0
N880 N 0.79672 0.77808 0.85143 0.0
N881 N 0.6029 0.61244 0.81234 0.0
C882 C 0.75518 0.73986 0.83694 0.0
C883 C 0.657 0.65559 0.81492 0.0
N884 N 0.74229 0.81104 0.81667 0.0
N885 N 0.69358 0.59186 0.81846 0.0
H886 H 0.56851 0.61877 0.81101 0.0
H887 H 0.59123 0.57043 0.81528 0.0
H888 H 0.72333 0.5816 0.82452 0.0
H889 H 0.66327 0.56236 0.80691 0.0
H890 H 0.78199 0.84318 0.82176 0.0
H891 H 0.72133 0.82401 0.80503 0.0
H892 H 0.80392 0.81884 0.85415 0.0
H893 H 0.82215 0.76745 0.86148 0.0
C894 C 0.06166 0.69832 0.17262 0.0
C895 C 0.07493 0.74902 0.18459 0.0
C896 C 0.98745 0.74133 0.16846 0.0
C897 C 0.97097 0.68627 0.15984 0.0
N898 N 0.98593 0.60642 0.16213 0.0
N899 N 0.04788 0.81697 0.19598 0.0
C900 C 1.00633 0.66311 0.16437 0.0
C901 C 0.03705 0.77023 0.18307 0.0
N902 N 0.10132 0.6823 0.17024 0.0
N903 N 0.9568 0.76624 0.16245 0.0
H904 H 0.08492 0.83959 0.20582 0.0
H905 H 0.01934 0.83146 0.19767 0.0
H906 H 0.92036 0.74578 0.15211 0.0
H907 H 0.96954 0.80812 0.16642 0.0
H908 H 0.09475 0.64737 0.16014 0.0
H909 H 0.14248 0.70745 0.17624 0.0
H910 H 0.0089 0.5871 0.1671 0.0
H911 H 0.94382 0.57801 0.15827 0.0
C912 C 0.30813 0.06309 0.51225 0.0
C913 C 0.32247 0.0627 0.5368 0.0
C914 C 0.26865 0.95869 0.53615 0.0
C915 C 0.25605 0.95975 0.51157 0.0
N916 N 0.24433 0.01128 0.47968 0.0
N917 N 0.29851 0.01013 0.57382 0.0
C918 C 0.26833 0.01165 0.50112 0.0
C919 C 0.29671 0.01039 0.54934 0.0
N920 N 0.33612 0.11073 0.49866 0.0
N921 N 0.25707 0.90902 0.54654 0.0
H922 H 0.31651 0.04713 0.58398 0.0
H923 H 0.27684 0.97358 0.58401 0.0
H924 H 0.23447 0.87041 0.53776 0.0
H925 H 0.27192 0.90659 0.56342 0.0
H926 H 0.33081 0.11098 0.48016 0.0
H927 H 0.36906 0.14858 0.50497 0.0
H928 H 0.24811 0.04752 0.47184 0.0
H929 H 0.21584 0.97359 0.47123 0.0
C930 C 0.23712 0.28995 0.8243 0.0
C931 C 0.22784 0.2823 0.84937 0.0
C932 C 0.27142 0.22254 0.84994 0.0
C933 C 0.28475 0.23361 0.82507 0.0
N934 N 0.26031 0.25849 0.78734 0.0
N935 N 0.21569 0.22489 0.88364 0.0
C936 C 0.26053 0.26066 0.81184 0.0
C937 C 0.23738 0.24212 0.86116 0.0
N938 N 0.22743 0.32809 0.81271 0.0
N939 N 0.2948 0.19808 0.8635 0.0
H940 H 0.19133 0.2397 0.89202 0.0
H941 H 0.21688 0.19229 0.89269 0.0
H942 H 0.31996 0.18288 0.85659 0.0
H943 H 0.29213 0.19604 0.88216 0.0
H944 H 0.24043 0.34119 0.79514 0.0
H945 H 0.20836 0.34839 0.82115 0.0
H946 H 0.2398 0.27382 0.77668 0.0
H947 H 0.27557 0.23584 0.77787 0.0
loop_
_geom_bond_atom_site_label_1
_geom_bond_atom_site_label_2
_geom_bond_distance
_geom_bond_site_symmetry_2
_ccdc_geom_bond_type
Co0 O3 1.970 . S
Co0 N17 1.989 . S
Co0 O25 1.967 . S
Co0 O32 1.920 . S
Co1 O4 1.966 . S
Co1 N10 2.022 . S
Co1 N18 1.993 . S
Co1 O26 1.941 . S
C2 O3 1.258 . S
C2 O4 1.263 . S
O3 Co0 1.970 . S
O3 C2 1.258 . S
O4 Co1 1.966 . S
O4 C2 1.263 . S
C5 O6 1.235 . S
C5 O32 1.289 . S
O6 C5 1.235 . S
C7 C9 1.400 . S
C7 N10 1.351 . S
C7 C12 1.501 . S
C8 C9 1.387 . S
C8 N11 1.341 . S
C9 C7 1.400 . S
C9 C8 1.387 . S
N10 Co1 2.022 . S
N10 C7 1.351 . S
N10 N11 1.365 . S
N11 C8 1.341 . S
N11 N10 1.365 . S
N11 H31 0.862 . S
C12 C7 1.501 . S
C12 H13 0.961 . S
C12 H14 0.961 . S
C12 H15 0.960 . S
H13 C12 0.961 . S
H14 C12 0.961 . S
H15 C12 0.960 . S
C16 N17 1.342 . S
C16 C20 1.401 . S
C16 C21 1.499 . S
N17 Co0 1.989 . S
N17 C16 1.342 . S
N17 N18 1.388 . S
N18 Co1 1.993 . S
N18 N17 1.388 . S
N18 C19 1.346 . S
C19 N18 1.346 . S
C19 C20 1.396 . S
C19 C29 1.510 . S
C20 C16 1.401 . S
C20 C19 1.396 . S
C21 C16 1.499 . S
C21 H22 0.959 . S
C21 H23 0.960 . S
C21 H24 0.961 . S
H22 C21 0.959 . S
H23 C21 0.960 . S
H24 C21 0.961 . S
O25 Co0 1.967 . S
O25 C33 1.258 . S
O26 Co1 1.941 . S
O26 C33 1.266 . S
H27 C29 0.959 . S
H28 C29 0.961 . S
C29 C19 1.510 . S
C29 H27 0.959 . S
C29 H28 0.961 . S
C29 H30 0.960 . S
H30 C29 0.960 . S
H31 N11 0.862 . S
O32 Co0 1.920 . S
O32 C5 1.289 . S
C33 O25 1.258 . S
C33 O26 1.266 . S
Co34 O37 1.970 . S
Co34 N51 1.989 . S
Co34 O59 1.967 . S
Co34 O66 1.920 . S
Co35 O38 1.966 . S
Co35 N44 2.022 . S
Co35 N52 1.993 . S
Co35 O60 1.941 . S
C36 O37 1.258 . S
C36 O38 1.263 . S
O37 Co34 1.970 . S
O37 C36 1.258 . S
O38 Co35 1.966 . S
O38 C36 1.263 . S
C39 O40 1.235 . S
C39 O66 1.289 . S
O40 C39 1.235 . S
C41 C43 1.400 . S
C41 N44 1.351 . S
C41 C46 1.501 . S
C42 C43 1.387 . S
C42 N45 1.341 . S
C43 C41 1.400 . S
C43 C42 1.387 . S
N44 Co35 2.022 . S
N44 C41 1.351 . S
N44 N45 1.365 . S
N45 C42 1.341 . S
N45 N44 1.365 . S
N45 H65 0.862 . S
C46 C41 1.501 . S
C46 H47 0.961 . S
C46 H48 0.961 . S
C46 H49 0.960 . S
H47 C46 0.961 . S
H48 C46 0.961 . S
H49 C46 0.960 . S
C50 N51 1.342 . S
C50 C54 1.401 . S
C50 C55 1.499 . S
N51 Co34 1.989 . S
N51 C50 1.342 . S
N51 N52 1.388 . S
N52 Co35 1.993 . S
N52 N51 1.388 . S
N52 C53 1.346 . S
C53 N52 1.346 . S
C53 C54 1.396 . S
C53 C63 1.510 . S
C54 C50 1.401 . S
C54 C53 1.396 . S
C55 C50 1.499 . S
C55 H56 0.959 . S
C55 H57 0.960 . S
C55 H58 0.961 . S
H56 C55 0.959 . S
H57 C55 0.960 . S
H58 C55 0.961 . S
O59 Co34 1.967 . S
O59 C67 1.258 . S
O60 Co35 1.941 . S
O60 C67 1.266 . S
H61 C63 0.959 . S
H62 C63 0.961 . S
C63 C53 1.510 . S
C63 H61 0.959 . S
C63 H62 0.961 . S
C63 H64 0.960 . S
H64 C63 0.960 . S
H65 N45 0.862 . S
O66 Co34 1.920 . S
O66 C39 1.289 . S
C67 O59 1.258 . S
C67 O60 1.266 . S
Co68 O71 1.970 . S
Co68 N85 1.989 . S
Co68 O93 1.967 . S
Co68 O100 1.920 . S
Co69 O72 1.966 . S
Co69 N78 2.022 . S
Co69 N86 1.993 . S
Co69 O94 1.941 . S
C70 O71 1.258 . S
C70 O72 1.263 . S
O71 Co68 1.970 . S
O71 C70 1.258 . S
O72 Co69 1.966 . S
O72 C70 1.263 . S
C73 O74 1.235 . S
C73 O100 1.289 . S
O74 C73 1.235 . S
C75 C77 1.400 . S
C75 N78 1.351 . S
C75 C80 1.501 . S
C76 C77 1.387 . S
C76 N79 1.341 . S
C77 C75 1.400 . S
C77 C76 1.387 . S
N78 Co69 2.022 . S
N78 C75 1.351 . S
N78 N79 1.365 . S
N79 C76 1.341 . S
N79 N78 1.365 . S
N79 H99 0.862 . S
C80 C75 1.501 . S
C80 H81 0.961 . S
C80 H82 0.961 . S
C80 H83 0.960 . S
H81 C80 0.961 . S
H82 C80 0.961 . S
H83 C80 0.960 . S
C84 N85 1.342 . S
C84 C88 1.401 . S
C84 C89 1.499 . S
N85 Co68 1.989 . S
N85 C84 1.342 . S
N85 N86 1.388 . S
N86 Co69 1.993 . S
N86 N85 1.388 . S
N86 C87 1.346 . S
C87 N86 1.346 . S
C87 C88 1.396 . S
C87 C97 1.510 . S
C88 C84 1.401 . S
C88 C87 1.396 . S
C89 C84 1.499 . S
C89 H90 0.959 . S
C89 H91 0.960 . S
C89 H92 0.961 . S
H90 C89 0.959 . S
H91 C89 0.960 . S
H92 C89 0.961 . S
O93 Co68 1.967 . S
O93 C101 1.258 . S
O94 Co69 1.941 . S
O94 C101 1.266 . S
H95 C97 0.959 . S
H96 C97 0.961 . S
C97 C87 1.510 . S
C97 H95 0.959 . S
C97 H96 0.961 . S
C97 H98 0.960 . S
H98 C97 0.960 . S
H99 N79 0.862 . S
O100 Co68 1.920 . S
O100 C73 1.289 . S
C101 O93 1.258 . S
C101 O94 1.266 . S
Co102 O105 1.970 . S
Co102 N119 1.989 . S
Co102 O127 1.967 . S
Co102 O134 1.920 . S
Co103 O106 1.966 . S
Co103 N112 2.022 . S
Co103 N120 1.993 . S
Co103 O128 1.941 . S
C104 O105 1.258 . S
C104 O106 1.263 . S
O105 Co102 1.970 . S
O105 C104 1.258 . S
O106 Co103 1.966 . S
O106 C104 1.263 . S
C107 O108 1.235 . S
C107 O134 1.289 . S
O108 C107 1.235 . S
C109 C111 1.400 . S
C109 N112 1.351 . S
C109 C114 1.501 . S
C110 C111 1.387 . S
C110 N113 1.341 . S
C111 C109 1.400 . S
C111 C110 1.387 . S
N112 Co103 2.022 . S
N112 C109 1.351 . S
N112 N113 1.365 . S
N113 C110 1.341 . S
N113 N112 1.365 . S
N113 H133 0.862 . S
C114 C109 1.501 . S
C114 H115 0.961 . S
C114 H116 0.961 . S
C114 H117 0.960 . S
H115 C114 0.961 . S
H116 C114 0.961 . S
H117 C114 0.960 . S
C118 N119 1.342 . S
C118 C122 1.401 . S
C118 C123 1.499 . S
N119 Co102 1.989 . S
N119 C118 1.342 . S
N119 N120 1.388 . S
N120 Co103 1.993 . S
N120 N119 1.388 . S
N120 C121 1.346 . S
C121 N120 1.346 . S
C121 C122 1.396 . S
C121 C131 1.510 . S
C122 C118 1.401 . S
C122 C121 1.396 . S
C123 C118 1.499 . S
C123 H124 0.959 . S
C123 H125 0.960 . S
C123 H126 0.961 . S
H124 C123 0.959 . S
H125 C123 0.960 . S
H126 C123 0.961 . S
O127 Co102 1.967 . S
O127 C135 1.258 . S
O128 Co103 1.941 . S
O128 C135 1.266 . S
H129 C131 0.959 . S
H130 C131 0.961 . S
C131 C121 1.510 . S
C131 H129 0.959 . S
C131 H130 0.961 . S
C131 H132 0.960 . S
H132 C131 0.960 . S
H133 N113 0.862 . S
O134 Co102 1.920 . S
O134 C107 1.289 . S
C135 O127 1.258 . S
C135 O128 1.266 . S
Co136 O139 1.970 . S
Co136 N153 1.989 . S
Co136 O161 1.967 . S
Co136 O168 1.920 . S
Co137 O140 1.966 . S
Co137 N146 2.022 . S
Co137 N154 1.993 . S
Co137 O162 1.941 . S
C138 O139 1.258 . S
C138 O140 1.263 . S
O139 Co136 1.970 . S
O139 C138 1.258 . S
O140 Co137 1.966 . S
O140 C138 1.263 . S
C141 O142 1.235 . S
C141 O168 1.289 . S
O142 C141 1.235 . S
C143 C145 1.400 . S
C143 N146 1.351 . S
C143 C148 1.501 . S
C144 C145 1.387 . S
C144 N147 1.341 . S
C145 C143 1.400 . S
C145 C144 1.387 . S
N146 Co137 2.022 . S
N146 C143 1.351 . S
N146 N147 1.365 . S
N147 C144 1.341 . S
N147 N146 1.365 . S
N147 H167 0.862 . S
C148 C143 1.501 . S
C148 H149 0.961 . S
C148 H150 0.961 . S
C148 H151 0.960 . S
H149 C148 0.961 . S
H150 C148 0.961 . S
H151 C148 0.960 . S
C152 N153 1.342 . S
C152 C156 1.401 . S
C152 C157 1.499 . S
N153 Co136 1.989 . S
N153 C152 1.342 . S
N153 N154 1.388 . S
N154 Co137 1.993 . S
N154 N153 1.388 . S
N154 C155 1.346 . S
C155 N154 1.346 . S
C155 C156 1.396 . S
C155 C165 1.510 . S
C156 C152 1.401 . S
C156 C155 1.396 . S
C157 C152 1.499 . S
C157 H158 0.959 . S
C157 H159 0.960 . S
C157 H160 0.961 . S
H158 C157 0.959 . S
H159 C157 0.960 . S
H160 C157 0.961 . S
O161 Co136 1.967 . S
O161 C169 1.258 . S
O162 Co137 1.941 . S
O162 C169 1.266 . S
H163 C165 0.959 . S
H164 C165 0.961 . S
C165 C155 1.510 . S
C165 H163 0.959 . S
C165 H164 0.961 . S
C165 H166 0.960 . S
H166 C165 0.960 . S
H167 N147 0.862 . S
O168 Co136 1.920 . S
O168 C141 1.289 . S
C169 O161 1.258 . S
C169 O162 1.266 . S
Co170 O173 1.970 . S
Co170 N187 1.989 . S
Co170 O195 1.967 . S
Co170 O202 1.920 . S
Co171 O174 1.966 . S
Co171 N180 2.022 . S
Co171 N188 1.993 . S
Co171 O196 1.941 . S
C172 O173 1.258 . S
C172 O174 1.263 . S
O173 Co170 1.970 . S
O173 C172 1.258 . S
O174 Co171 1.966 . S
O174 C172 1.263 . S
C175 O176 1.235 . S
C175 O202 1.289 . S
O176 C175 1.235 . S
C177 C179 1.400 . S
C177 N180 1.351 . S
C177 C182 1.501 . S
C178 C179 1.387 . S
C178 N181 1.341 . S
C179 C177 1.400 . S
C179 C178 1.387 . S
N180 Co171 2.022 . S
N180 C177 1.351 . S
N180 N181 1.365 . S
N181 C178 1.341 . S
N181 N180 1.365 . S
N181 H201 0.862 . S
C182 C177 1.501 . S
C182 H183 0.961 . S
C182 H184 0.961 . S
C182 H185 0.960 . S
H183 C182 0.961 . S
H184 C182 0.961 . S
H185 C182 0.960 . S
C186 N187 1.342 . S
C186 C190 1.401 . S
C186 C191 1.499 . S
N187 Co170 1.989 . S
N187 C186 1.342 . S
N187 N188 1.388 . S
N188 Co171 1.993 . S
N188 N187 1.388 . S
N188 C189 1.346 . S
C189 N188 1.346 . S
C189 C190 1.396 . S
C189 C199 1.510 . S
C190 C186 1.401 . S
C190 C189 1.396 . S
C191 C186 1.499 . S
C191 H192 0.959 . S
C191 H193 0.960 . S
C191 H194 0.961 . S
H192 C191 0.959 . S
H193 C191 0.960 . S
H194 C191 0.961 . S
O195 Co170 1.967 . S
O195 C203 1.258 . S
O196 Co171 1.941 . S
O196 C203 1.266 . S
H197 C199 0.959 . S
H198 C199 0.961 . S
C199 C189 1.510 . S
C199 H197 0.959 . S
C199 H198 0.961 . S
C199 H200 0.960 . S
H200 C199 0.960 . S
H201 N181 0.862 . S
O202 Co170 1.920 . S
O202 C175 1.289 . S
C203 O195 1.258 . S
C203 O196 1.266 . S
Co204 O207 1.970 . S
Co204 N221 1.989 . S
Co204 O229 1.967 . S
Co204 O236 1.920 . S
Co205 O208 1.966 . S
Co205 N214 2.022 . S
Co205 N222 1.993 . S
Co205 O230 1.941 . S
C206 O207 1.258 . S
C206 O208 1.263 . S
O207 Co204 1.970 . S
O207 C206 1.258 . S
O208 Co205 1.966 . S
O208 C206 1.263 . S
C209 O210 1.235 . S
C209 O236 1.289 . S
O210 C209 1.235 . S
C211 C213 1.400 . S
C211 N214 1.351 . S
C211 C216 1.501 . S
C212 C213 1.387 . S
C212 N215 1.341 . S
C213 C211 1.400 . S
C213 C212 1.387 . S
N214 Co205 2.022 . S
N214 C211 1.351 . S
N214 N215 1.365 . S
N215 C212 1.341 . S
N215 N214 1.365 . S
N215 H235 0.862 . S
C216 C211 1.501 . S
C216 H217 0.961 . S
C216 H218 0.961 . S
C216 H219 0.960 . S
H217 C216 0.961 . S
H218 C216 0.961 . S
H219 C216 0.960 . S
C220 N221 1.342 . S
C220 C224 1.401 . S
C220 C225 1.499 . S
N221 Co204 1.989 . S
N221 C220 1.342 . S
N221 N222 1.388 . S
N222 Co205 1.993 . S
N222 N221 1.388 . S
N222 C223 1.346 . S
C223 N222 1.346 . S
C223 C224 1.396 . S
C223 C233 1.510 . S
C224 C220 1.401 . S
C224 C223 1.396 . S
C225 C220 1.499 . S
C225 H226 0.959 . S
C225 H227 0.960 . S
C225 H228 0.961 . S
H226 C225 0.959 . S
H227 C225 0.960 . S
H228 C225 0.961 . S
O229 Co204 1.967 . S
O229 C237 1.258 . S
O230 Co205 1.941 . S
O230 C237 1.266 . S
H231 C233 0.959 . S
H232 C233 0.961 . S
C233 C223 1.510 . S
C233 H231 0.959 . S
C233 H232 0.961 . S
C233 H234 0.960 . S
H234 C233 0.960 . S
H235 N215 0.862 . S
O236 Co204 1.920 . S
O236 C209 1.289 . S
C237 O229 1.258 . S
C237 O230 1.266 . S
Co238 O241 1.970 . S
Co238 N255 1.989 . S
Co238 O263 1.967 . S
Co238 O270 1.920 . S
Co239 O242 1.966 . S
Co239 N248 2.022 . S
Co239 N256 1.993 . S
Co239 O264 1.941 . S
C240 O241 1.258 . S
C240 O242 1.263 . S
O241 Co238 1.970 . S
O241 C240 1.258 . S
O242 Co239 1.966 . S
O242 C240 1.263 . S
C243 O244 1.235 . S
C243 O270 1.289 . S
O244 C243 1.235 . S
C245 C247 1.400 . S
C245 N248 1.351 . S
C245 C250 1.501 . S
C246 C247 1.387 . S
C246 N249 1.341 . S
C247 C245 1.400 . S
C247 C246 1.387 . S
N248 Co239 2.022 . S
N248 C245 1.351 . S
N248 N249 1.365 . S
N249 C246 1.341 . S
N249 N248 1.365 . S
N249 H269 0.862 . S
C250 C245 1.501 . S
C250 H251 0.961 . S
C250 H252 0.961 . S
C250 H253 0.960 . S
H251 C250 0.961 . S
H252 C250 0.961 . S
H253 C250 0.960 . S
C254 N255 1.342 . S
C254 C258 1.401 . S
C254 C259 1.499 . S
N255 Co238 1.989 . S
N255 C254 1.342 . S
N255 N256 1.388 . S
N256 Co239 1.993 . S
N256 N255 1.388 . S
N256 C257 1.346 . S
C257 N256 1.346 . S
C257 C258 1.396 . S
C257 C267 1.510 . S
C258 C254 1.401 . S
C258 C257 1.396 . S
C259 C254 1.499 . S
C259 H260 0.959 . S
C259 H261 0.960 . S
C259 H262 0.961 . S
H260 C259 0.959 . S
H261 C259 0.960 . S
H262 C259 0.961 . S
O263 Co238 1.967 . S
O263 C271 1.258 . S
O264 Co239 1.941 . S
O264 C271 1.266 . S
H265 C267 0.959 . S
H266 C267 0.961 . S
C267 C257 1.510 . S
C267 H265 0.959 . S
C267 H266 0.961 . S
C267 H268 0.960 . S
H268 C267 0.960 . S
H269 N249 0.862 . S
O270 Co238 1.920 . S
O270 C243 1.289 . S
C271 O263 1.258 . S
C271 O264 1.266 . S
Co272 O275 1.970 . S
Co272 N289 1.989 . S
Co272 O297 1.967 . S
Co272 O304 1.920 . S
Co273 O276 1.966 . S
Co273 N282 2.022 . S
Co273 N290 1.993 . S
Co273 O298 1.941 . S
C274 O275 1.258 . S
C274 O276 1.263 . S
O275 Co272 1.970 . S
O275 C274 1.258 . S
O276 Co273 1.966 . S
O276 C274 1.263 . S
C277 O278 1.235 . S
C277 O304 1.289 . S
O278 C277 1.235 . S
C279 C281 1.400 . S
C279 N282 1.351 . S
C279 C284 1.501 . S
C280 C281 1.387 . S
C280 N283 1.341 . S
C281 C279 1.400 . S
C281 C280 1.387 . S
N282 Co273 2.022 . S
N282 C279 1.351 . S
N282 N283 1.365 . S
N283 C280 1.341 . S
N283 N282 1.365 . S
N283 H303 0.862 . S
C284 C279 1.501 . S
C284 H285 0.961 . S
C284 H286 0.961 . S
C284 H287 0.960 . S
H285 C284 0.961 . S
H286 C284 0.961 . S
H287 C284 0.960 . S
C288 N289 1.342 . S
C288 C292 1.401 . S
C288 C293 1.499 . S
N289 Co272 1.989 . S
N289 C288 1.342 . S
N289 N290 1.388 . S
N290 Co273 1.993 . S
N290 N289 1.388 . S
N290 C291 1.346 . S
C291 N290 1.346 . S
C291 C292 1.396 . S
C291 C301 1.510 . S
C292 C288 1.401 . S
C292 C291 1.396 . S
C293 C288 1.499 . S
C293 H294 0.959 . S
C293 H295 0.960 . S
C293 H296 0.961 . S
H294 C293 0.959 . S
H295 C293 0.960 . S
H296 C293 0.961 . S
O297 Co272 1.967 . S
O297 C305 1.258 . S
O298 Co273 1.941 . S
O298 C305 1.266 . S
H299 C301 0.959 . S
H300 C301 0.961 . S
C301 C291 1.510 . S
C301 H299 0.959 . S
C301 H300 0.961 . S
C301 H302 0.960 . S
H302 C301 0.960 . S
H303 N283 0.862 . S
O304 Co272 1.920 . S
O304 C277 1.289 . S
C305 O297 1.258 . S
C305 O298 1.266 . S
Co306 O309 1.970 . S
Co306 N323 1.989 . S
Co306 O331 1.967 . S
Co306 O338 1.920 . S
Co307 O310 1.966 . S
Co307 N316 2.022 . S
Co307 N324 1.993 . S
Co307 O332 1.941 . S
C308 O309 1.258 . S
C308 O310 1.263 . S
O309 Co306 1.970 . S
O309 C308 1.258 . S
O310 Co307 1.966 . S
O310 C308 1.263 . S
C311 O312 1.235 . S
C311 O338 1.289 . S
O312 C311 1.235 . S
C313 C315 1.400 . S
C313 N316 1.351 . S
C313 C318 1.501 . S
C314 C315 1.387 . S
C314 N317 1.341 . S
C315 C313 1.400 . S
C315 C314 1.387 . S
N316 Co307 2.022 . S
N316 C313 1.351 . S
N316 N317 1.365 . S
N317 C314 1.341 . S
N317 N316 1.365 . S
N317 H337 0.862 . S
C318 C313 1.501 . S
C318 H319 0.961 . S
C318 H320 0.961 . S
C318 H321 0.960 . S
H319 C318 0.961 . S
H320 C318 0.961 . S
H321 C318 0.960 . S
C322 N323 1.342 . S
C322 C326 1.401 . S
C322 C327 1.499 . S
N323 Co306 1.989 . S
N323 C322 1.342 . S
N323 N324 1.388 . S
N324 Co307 1.993 . S
N324 N323 1.388 . S
N324 C325 1.346 . S
C325 N324 1.346 . S
C325 C326 1.396 . S
C325 C335 1.510 . S
C326 C322 1.401 . S
C326 C325 1.396 . S
C327 C322 1.499 . S
C327 H328 0.959 . S
C327 H329 0.960 . S
C327 H330 0.961 . S
H328 C327 0.959 . S
H329 C327 0.960 . S
H330 C327 0.961 . S
O331 Co306 1.967 . S
O331 C339 1.258 . S
O332 Co307 1.941 . S
O332 C339 1.266 . S
H333 C335 0.959 . S
H334 C335 0.961 . S
C335 C325 1.510 . S
C335 H333 0.959 . S
C335 H334 0.961 . S
C335 H336 0.960 . S
H336 C335 0.960 . S
H337 N317 0.862 . S
O338 Co306 1.920 . S
O338 C311 1.289 . S
C339 O331 1.258 . S
C339 O332 1.266 . S
Co340 O343 1.970 . S
Co340 N357 1.989 . S
Co340 O365 1.967 . S
Co340 O372 1.920 . S
Co341 O344 1.966 . S
Co341 N350 2.022 . S
Co341 N358 1.993 . S
Co341 O366 1.941 . S
C342 O343 1.258 . S
C342 O344 1.263 . S
O343 Co340 1.970 . S
O343 C342 1.258 . S
O344 Co341 1.966 . S
O344 C342 1.263 . S
C345 O346 1.235 . S
C345 O372 1.289 . S
O346 C345 1.235 . S
C347 C349 1.400 . S
C347 N350 1.351 . S
C347 C352 1.501 . S
C348 C349 1.387 . S
C348 N351 1.341 . S
C349 C347 1.400 . S
C349 C348 1.387 . S
N350 Co341 2.022 . S
N350 C347 1.351 . S
N350 N351 1.365 . S
N351 C348 1.341 . S
N351 N350 1.365 . S
N351 H371 0.862 . S
C352 C347 1.501 . S
C352 H353 0.961 . S
C352 H354 0.961 . S
C352 H355 0.960 . S
H353 C352 0.961 . S
H354 C352 0.961 . S
H355 C352 0.960 . S
C356 N357 1.342 . S
C356 C360 1.401 . S
C356 C361 1.499 . S
N357 Co340 1.989 . S
N357 C356 1.342 . S
N357 N358 1.388 . S
N358 Co341 1.993 . S
N358 N357 1.388 . S
N358 C359 1.346 . S
C359 N358 1.346 . S
C359 C360 1.396 . S
C359 C369 1.510 . S
C360 C356 1.401 . S
C360 C359 1.396 . S
C361 C356 1.499 . S
C361 H362 0.959 . S
C361 H363 0.960 . S
C361 H364 0.961 . S
H362 C361 0.959 . S
H363 C361 0.960 . S
H364 C361 0.961 . S
O365 Co340 1.967 . S
O365 C373 1.258 . S
O366 Co341 1.941 . S
O366 C373 1.266 . S
H367 C369 0.959 . S
H368 C369 0.961 . S
C369 C359 1.510 . S
C369 H367 0.959 . S
C369 H368 0.961 . S
C369 H370 0.960 . S
H370 C369 0.960 . S
H371 N351 0.862 . S
O372 Co340 1.920 . S
O372 C345 1.289 . S
C373 O365 1.258 . S
C373 O366 1.266 . S
Co374 O377 1.970 . S
Co374 N391 1.989 . S
Co374 O399 1.967 . S
Co374 O406 1.920 . S
Co375 O378 1.966 . S
Co375 N384 2.022 . S
Co375 N392 1.993 . S
Co375 O400 1.941 . S
C376 O377 1.258 . S
C376 O378 1.263 . S
O377 Co374 1.970 . S
O377 C376 1.258 . S
O378 Co375 1.966 . S
O378 C376 1.263 . S
C379 O380 1.235 . S
C379 O406 1.289 . S
O380 C379 1.235 . S
C381 C383 1.400 . S
C381 N384 1.351 . S
C381 C386 1.501 . S
C382 C383 1.387 . S
C382 N385 1.341 . S
C383 C381 1.400 . S
C383 C382 1.387 . S
N384 Co375 2.022 . S
N384 C381 1.351 . S
N384 N385 1.365 . S
N385 C382 1.341 . S
N385 N384 1.365 . S
N385 H405 0.862 . S
C386 C381 1.501 . S
C386 H387 0.961 . S
C386 H388 0.961 . S
C386 H389 0.960 . S
H387 C386 0.961 . S
H388 C386 0.961 . S
H389 C386 0.960 . S
C390 N391 1.342 . S
C390 C394 1.401 . S
C390 C395 1.499 . S
N391 Co374 1.989 . S
N391 C390 1.342 . S
N391 N392 1.388 . S
N392 Co375 1.993 . S
N392 N391 1.388 . S
N392 C393 1.346 . S
C393 N392 1.346 . S
C393 C394 1.396 . S
C393 C403 1.510 . S
C394 C390 1.401 . S
C394 C393 1.396 . S
C395 C390 1.499 . S
C395 H396 0.959 . S
C395 H397 0.960 . S
C395 H398 0.961 . S
H396 C395 0.959 . S
H397 C395 0.960 . S
H398 C395 0.961 . S
O399 Co374 1.967 . S
O399 C407 1.258 . S
O400 Co375 1.941 . S
O400 C407 1.266 . S
H401 C403 0.959 . S
H402 C403 0.961 . S
C403 C393 1.510 . S
C403 H401 0.959 . S
C403 H402 0.961 . S
C403 H404 0.960 . S
H404 C403 0.960 . S
H405 N385 0.862 . S
O406 Co374 1.920 . S
O406 C379 1.289 . S
C407 O399 1.258 . S
C407 O400 1.266 . S
C408 C409 1.363 . S
C408 C414 1.379 . S
C408 N416 1.356 . S
C409 C408 1.363 . S
C409 C415 1.363 . S
C410 C411 1.363 . S
C410 C415 1.379 . S
C410 N417 1.356 . S
C411 C410 1.363 . S
C411 C414 1.363 . S
N412 C414 1.356 . S
N412 H424 0.984 . S
N412 H425 0.985 . S
N413 C415 1.356 . S
N413 H418 0.984 . S
N413 H419 0.985 . S
C414 C408 1.379 . S
C414 C411 1.363 . S
C414 N412 1.356 . S
C415 C409 1.363 . S
C415 C410 1.379 . S
C415 N413 1.356 . S
N416 C408 1.356 . S
N416 H422 0.984 . S
N416 H423 0.984 . S
N417 C410 1.356 . S
N417 H420 0.984 . S
N417 H421 0.985 . S
H418 N413 0.984 . S
H419 N413 0.985 . S
H420 N417 0.984 . S
H421 N417 0.985 . S
H422 N416 0.984 . S
H423 N416 0.984 . S
H424 N412 0.984 . S
H425 N412 0.985 . S
C426 C427 1.363 1_655 S
C426 C432 1.379 . S
C426 N434 1.356 . S
C427 C426 1.363 1_455 S
C427 C433 1.363 . S
C428 C429 1.363 1_455 S
C428 C433 1.379 . S
C428 N435 1.356 . S
C429 C428 1.363 1_655 S
C429 C432 1.363 . S
N430 C432 1.356 . S
N430 H442 0.984 . S
N430 H443 0.985 . S
N431 C433 1.356 . S
N431 H436 0.984 . S
N431 H437 0.985 . S
C432 C426 1.379 . S
C432 C429 1.363 . S
C432 N430 1.356 . S
C433 C427 1.363 . S
C433 C428 1.379 . S
C433 N431 1.356 . S
N434 C426 1.356 . S
N434 H440 0.984 . S
N434 H441 0.984 1_655 S
N435 C428 1.356 . S
N435 H438 0.984 1_455 S
N435 H439 0.985 . S
H436 N431 0.984 . S
H437 N431 0.985 . S
H438 N435 0.984 1_655 S
H439 N435 0.985 . S
H440 N434 0.984 . S
H441 N434 0.984 1_455 S
H442 N430 0.984 . S
H443 N430 0.985 . S
C444 C445 1.363 . S
C444 C450 1.379 . S
C444 N452 1.356 . S
C445 C444 1.363 . S
C445 C451 1.363 1_545 S
C446 C447 1.363 . S
C446 C451 1.379 . S
C446 N453 1.356 . S
C447 C446 1.363 . S
C447 C450 1.363 1_565 S
N448 C450 1.356 . S
N448 H460 0.984 . S
N448 H461 0.970 1_545 S
N449 C451 1.356 . S
N449 H454 0.970 1_565 S
N449 H455 0.985 . S
C450 C444 1.379 . S
C450 C447 1.363 1_545 S
C450 N448 1.356 . S
C451 C445 1.363 1_565 S
C451 C446 1.379 . S
C451 N449 1.356 . S
N452 C444 1.356 . S
N452 H458 0.984 . S
N452 H459 0.984 . S
N453 C446 1.356 . S
N453 H456 0.984 . S
N453 H457 0.985 . S
H454 N449 0.970 1_545 S
H455 N449 0.985 . S
H456 N453 0.984 . S
H457 N453 0.985 . S
H458 N452 0.984 . S
H459 N452 0.984 . S
H460 N448 0.984 . S
H461 N448 0.970 1_565 S
C462 C463 1.363 . S
C462 C468 1.379 . S
C462 N470 1.356 . S
C463 C462 1.363 . S
C463 C469 1.363 . S
C464 C465 1.363 . S
C464 C469 1.379 . S
C464 N471 1.356 . S
C465 C464 1.363 . S
C465 C468 1.363 . S
N466 C468 1.356 . S
N466 H478 0.984 . S
N466 H479 0.985 . S
N467 C469 1.356 . S
N467 H472 0.984 . S
N467 H473 0.985 . S
C468 C462 1.379 . S
C468 C465 1.363 . S
C468 N466 1.356 . S
C469 C463 1.363 . S
C469 C464 1.379 . S
C469 N467 1.356 . S
N470 C462 1.356 . S
N470 H476 0.984 . S
N470 H477 0.984 . S
N471 C464 1.356 . S
N471 H474 0.984 . S
N471 H475 0.985 . S
H472 N467 0.984 . S
H473 N467 0.985 . S
H474 N471 0.984 . S
H475 N471 0.985 . S
H476 N470 0.984 . S
H477 N470 0.984 . S
H478 N466 0.984 . S
H479 N466 0.985 . S
C480 C481 1.363 . S
C480 C486 1.379 . S
C480 N488 1.356 . S
C481 C480 1.363 . S
C481 C487 1.363 1_655 S
C482 C483 1.363 . S
C482 C487 1.379 . S
C482 N489 1.356 . S
C483 C482 1.363 . S
C483 C486 1.363 1_455 S
N484 C486 1.356 . S
N484 H496 0.984 . S
N484 H497 0.970 1_655 S
N485 C487 1.356 . S
N485 H490 0.970 1_455 S
N485 H491 0.985 . S
C486 C480 1.379 . S
C486 C483 1.363 1_655 S
C486 N484 1.356 . S
C487 C481 1.363 1_455 S
C487 C482 1.379 . S
C487 N485 1.356 . S
N488 C480 1.356 . S
N488 H494 0.984 . S
N488 H495 0.984 . S
N489 C482 1.356 . S
N489 H492 0.984 . S
N489 H493 0.985 . S
H490 N485 0.970 1_655 S
H491 N485 0.985 . S
H492 N489 0.984 . S
H493 N489 0.985 . S
H494 N488 0.984 . S
H495 N488 0.984 . S
H496 N484 0.984 . S
H497 N484 0.970 1_455 S
C498 C499 1.363 . S
C498 C504 1.379 . S
C498 N506 1.356 . S
C499 C498 1.363 . S
C499 C505 1.363 1_565 S
C500 C501 1.363 . S
C500 C505 1.379 . S
C500 N507 1.356 . S
C501 C500 1.363 . S
C501 C504 1.363 1_545 S
N502 C504 1.356 . S
N502 H514 0.984 . S
N502 H515 0.984 1_565 S
N503 C505 1.356 . S
N503 H508 0.984 1_545 S
N503 H509 0.985 . S
C504 C498 1.379 . S
C504 C501 1.363 1_565 S
C504 N502 1.356 . S
C505 C499 1.363 1_545 S
C505 C500 1.379 . S
C505 N503 1.356 . S
N506 C498 1.356 . S
N506 H512 0.984 . S
N506 H513 0.984 . S
N507 C500 1.356 . S
N507 H510 0.984 . S
N507 H511 0.985 . S
H508 N503 0.984 1_565 S
H509 N503 0.985 . S
H510 N507 0.984 . S
H511 N507 0.985 . S
H512 N506 0.984 . S
H513 N506 0.984 . S
H514 N502 0.984 . S
H515 N502 0.984 1_545 S
C516 C517 1.363 . S
C516 C522 1.379 . S
C516 N524 1.356 . S
C517 C516 1.363 . S
C517 C523 1.363 1_655 S
C518 C519 1.363 . S
C518 C523 1.379 . S
C518 N525 1.356 . S
C519 C518 1.363 . S
C519 C522 1.363 1_455 S
N520 C522 1.356 . S
N520 H532 0.984 . S
N520 H533 0.985 1_655 S
N521 C523 1.356 . S
N521 H526 0.984 1_455 S
N521 H527 0.985 . S
C522 C516 1.379 . S
C522 C519 1.363 1_655 S
C522 N520 1.356 . S
C523 C517 1.363 1_455 S
C523 C518 1.379 . S
C523 N521 1.356 . S
N524 C516 1.356 . S
N524 H530 0.984 . S
N524 H531 0.984 . S
N525 C518 1.356 . S
N525 H528 0.984 . S
N525 H529 0.985 . S
H526 N521 0.984 1_655 S
H527 N521 0.985 . S
H528 N525 0.984 . S
H529 N525 0.985 . S
H530 N524 0.984 . S
H531 N524 0.984 . S
H532 N520 0.984 . S
H533 N520 0.985 1_455 S
C534 C535 1.363 . S
C534 C540 1.379 . S
C534 N542 1.356 . S
C535 C534 1.363 . S
C535 C541 1.363 1_545 S
C536 C537 1.363 . S
C536 C541 1.379 . S
C536 N543 1.356 . S
C537 C536 1.363 . S
C537 C540 1.363 1_565 S
N538 C540 1.356 . S
N538 H550 0.984 . S
N538 H551 0.985 1_545 S
N539 C541 1.356 . S
N539 H544 0.984 1_565 S
N539 H545 0.985 . S
C540 C534 1.379 . S
C540 C537 1.363 1_545 S
C540 N538 1.356 . S
C541 C535 1.363 1_565 S
C541 C536 1.379 . S
C541 N539 1.356 . S
N542 C534 1.356 . S
N542 H548 0.984 . S
N542 H549 0.984 . S
N543 C536 1.356 . S
N543 H546 0.984 . S
N543 H547 0.985 . S
H544 N539 0.984 1_545 S
H545 N539 0.985 . S
H546 N543 0.984 . S
H547 N543 0.985 . S
H548 N542 0.984 . S
H549 N542 0.984 . S
H550 N538 0.984 . S
H551 N538 0.985 1_565 S
C552 C553 1.363 . S
C552 C558 1.379 . S
C552 N560 1.356 . S
C553 C552 1.363 . S
C553 C559 1.363 . S
C554 C555 1.363 . S
C554 C559 1.379 . S
C554 N561 1.356 . S
C555 C554 1.363 . S
C555 C558 1.363 . S
N556 C558 1.356 . S
N556 H568 0.984 . S
N556 H569 0.985 . S
N557 C559 1.356 . S
N557 H562 0.984 . S
N557 H563 0.985 . S
C558 C552 1.379 . S
C558 C555 1.363 . S
C558 N556 1.356 . S
C559 C553 1.363 . S
C559 C554 1.379 . S
C559 N557 1.356 . S
N560 C552 1.356 . S
N560 H566 0.984 . S
N560 H567 0.984 . S
N561 C554 1.356 . S
N561 H564 0.984 . S
N561 H565 0.985 . S
H562 N557 0.984 . S
H563 N557 0.985 . S
H564 N561 0.984 . S
H565 N561 0.985 . S
H566 N560 0.984 . S
H567 N560 0.984 . S
H568 N556 0.984 . S
H569 N556 0.985 . S
C570 C571 1.363 1_545 S
C570 C576 1.379 . S
C570 N578 1.356 . S
C571 C570 1.363 1_565 S
C571 C577 1.363 . S
C572 C573 1.363 1_565 S
C572 C577 1.379 . S
C572 N579 1.356 . S
C573 C572 1.363 1_545 S
C573 C576 1.363 . S
N574 C576 1.356 . S
N574 H586 0.984 . S
N574 H587 0.985 . S
N575 C577 1.356 . S
N575 H580 0.984 . S
N575 H581 0.985 . S
C576 C570 1.379 . S
C576 C573 1.363 . S
C576 N574 1.356 . S
C577 C571 1.363 . S
C577 C572 1.379 . S
C577 N575 1.356 . S
N578 C570 1.356 . S
N578 H584 0.984 . S
N578 H585 0.984 1_545 S
N579 C572 1.356 . S
N579 H582 0.984 1_565 S
N579 H583 0.985 . S
H580 N575 0.984 . S
H581 N575 0.985 . S
H582 N579 0.984 1_545 S
H583 N579 0.985 . S
H584 N578 0.984 . S
H585 N578 0.984 1_565 S
H586 N574 0.984 . S
H587 N574 0.985 . S
C588 C589 1.363 . S
C588 C594 1.379 . S
C588 N596 1.356 . S
C589 C588 1.363 . S
C589 C595 1.363 . S
C590 C591 1.363 . S
C590 C595 1.379 . S
C590 N597 1.356 . S
C591 C590 1.363 . S
C591 C594 1.363 . S
N592 C594 1.356 . S
N592 H604 0.984 . S
N592 H605 0.985 . S
N593 C595 1.356 . S
N593 H598 0.984 . S
N593 H599 0.985 . S
C594 C588 1.379 . S
C594 C591 1.363 . S
C594 N592 1.356 . S
C595 C589 1.363 . S
C595 C590 1.379 . S
C595 N593 1.356 . S
N596 C588 1.356 . S
N596 H602 0.984 . S
N596 H603 0.984 . S
N597 C590 1.356 . S
N597 H600 0.984 . S
N597 H601 0.985 . S
H598 N593 0.984 . S
H599 N593 0.985 . S
H600 N597 0.984 . S
H601 N597 0.985 . S
H602 N596 0.984 . S
H603 N596 0.984 . S
H604 N592 0.984 . S
H605 N592 0.985 . S
C606 C607 1.363 1_655 S
C606 C612 1.379 . S
C606 N614 1.356 . S
C607 C606 1.363 1_455 S
C607 C613 1.363 . S
C608 C609 1.363 1_455 S
C608 C613 1.379 . S
C608 N615 1.356 . S
C609 C608 1.363 1_655 S
C609 C612 1.363 . S
N610 C612 1.356 . S
N610 H622 0.984 . S
N610 H623 0.985 . S
N611 C613 1.356 . S
N611 H616 0.984 . S
N611 H617 0.985 . S
C612 C606 1.379 . S
C612 C609 1.363 . S
C612 N610 1.356 . S
C613 C607 1.363 . S
C613 C608 1.379 . S
C613 N611 1.356 . S
N614 C606 1.356 . S
N614 H620 0.984 . S
N614 H621 0.984 1_655 S
N615 C608 1.356 . S
N615 H618 0.984 1_455 S
N615 H619 0.985 . S
H616 N611 0.984 . S
H617 N611 0.985 . S
H618 N615 0.984 1_655 S
H619 N615 0.985 . S
H620 N614 0.984 . S
H621 N614 0.984 1_455 S
H622 N610 0.984 . S
H623 N610 0.985 . S
C624 C625 1.363 . S
C624 C630 1.379 . S
C624 N632 1.356 . S
C625 C624 1.363 . S
C625 C631 1.363 . S
C626 C627 1.363 . S
C626 C631 1.379 . S
C626 N633 1.356 . S
C627 C626 1.363 . S
C627 C630 1.363 . S
N628 C630 1.356 . S
N628 H640 0.984 . S
N628 H641 0.985 . S
N629 C631 1.356 . S
N629 H634 0.984 . S
N629 H635 0.985 . S
C630 C624 1.379 . S
C630 C627 1.363 . S
C630 N628 1.356 . S
C631 C625 1.363 . S
C631 C626 1.379 . S
C631 N629 1.356 . S
N632 C624 1.356 . S
N632 H638 0.984 . S
N632 H639 0.984 . S
N633 C626 1.356 . S
N633 H636 0.984 . S
N633 H637 0.985 . S
H634 N629 0.984 . S
H635 N629 0.985 . S
H636 N633 0.984 . S
H637 N633 0.985 . S
H638 N632 0.984 . S
H639 N632 0.984 . S
H640 N628 0.984 . S
H641 N628 0.985 . S
C642 C643 1.363 . S
C642 C648 1.379 . S
C642 N650 1.356 . S
C643 C642 1.363 . S
C643 C649 1.363 . S
C644 C645 1.363 . S
C644 C649 1.379 . S
C644 N651 1.356 . S
C645 C644 1.363 . S
C645 C648 1.363 . S
N646 C648 1.356 . S
N646 H658 0.984 . S
N646 H659 0.985 . S
N647 C649 1.356 . S
N647 H652 0.984 . S
N647 H653 0.985 . S
C648 C642 1.379 . S
C648 C645 1.363 . S
C648 N646 1.356 . S
C649 C643 1.363 . S
C649 C644 1.379 . S
C649 N647 1.356 . S
N650 C642 1.356 . S
N650 H656 0.984 . S
N650 H657 0.984 . S
N651 C644 1.356 . S
N651 H654 0.984 . S
N651 H655 0.985 . S
H652 N647 0.984 . S
H653 N647 0.985 . S
H654 N651 0.984 . S
H655 N651 0.985 . S
H656 N650 0.984 . S
H657 N650 0.984 . S
H658 N646 0.984 . S
H659 N646 0.985 . S
C660 C661 1.363 . S
C660 C666 1.379 . S
C660 N668 1.356 . S
C661 C660 1.363 . S
C661 C667 1.363 . S
C662 C663 1.363 . S
C662 C667 1.379 . S
C662 N669 1.356 . S
C663 C662 1.363 . S
C663 C666 1.363 . S
N664 C666 1.356 . S
N664 H676 0.984 . S
N664 H677 0.985 . S
N665 C667 1.356 . S
N665 H670 0.984 . S
N665 H671 0.985 . S
C666 C660 1.379 . S
C666 C663 1.363 . S
C666 N664 1.356 . S
C667 C661 1.363 . S
C667 C662 1.379 . S
C667 N665 1.356 . S
N668 C660 1.356 . S
N668 H674 0.984 . S
N668 H675 0.984 . S
N669 C662 1.356 . S
N669 H672 0.984 . S
N669 H673 0.985 . S
H670 N665 0.984 . S
H671 N665 0.985 . S
H672 N669 0.984 . S
H673 N669 0.985 . S
H674 N668 0.984 . S
H675 N668 0.984 . S
H676 N664 0.984 . S
H677 N664 0.985 . S
C678 C679 1.363 . S
C678 C684 1.379 . S
C678 N686 1.356 . S
C679 C678 1.363 . S
C679 C685 1.363 . S
C680 C681 1.363 . S
C680 C685 1.379 . S
C680 N687 1.356 . S
C681 C680 1.363 . S
C681 C684 1.363 . S
N682 C684 1.356 . S
N682 H694 0.984 . S
N682 H695 0.985 . S
N683 C685 1.356 . S
N683 H688 0.984 . S
N683 H689 0.985 . S
C684 C678 1.379 . S
C684 C681 1.363 . S
C684 N682 1.356 . S
C685 C679 1.363 . S
C685 C680 1.379 . S
C685 N683 1.356 . S
N686 C678 1.356 . S
N686 H692 0.984 . S
N686 H693 0.984 . S
N687 C680 1.356 . S
N687 H690 0.984 . S
N687 H691 0.985 . S
H688 N683 0.984 . S
H689 N683 0.985 . S
H690 N687 0.984 . S
H691 N687 0.985 . S
H692 N686 0.984 . S
H693 N686 0.984 . S
H694 N682 0.984 . S
H695 N682 0.985 . S
C696 C697 1.363 . S
C696 C702 1.379 . S
C696 N704 1.356 . S
C697 C696 1.363 . S
C697 C703 1.363 . S
C698 C699 1.363 . S
C698 C703 1.379 . S
C698 N705 1.356 . S
C699 C698 1.363 . S
C699 C702 1.363 . S
N700 C702 1.356 . S
N700 H712 0.984 . S
N700 H713 0.985 . S
N701 C703 1.356 . S
N701 H706 0.984 . S
N701 H707 0.985 . S
C702 C696 1.379 . S
C702 C699 1.363 . S
C702 N700 1.356 . S
C703 C697 1.363 . S
C703 C698 1.379 . S
C703 N701 1.356 . S
N704 C696 1.356 . S
N704 H710 0.984 . S
N704 H711 0.984 . S
N705 C698 1.356 . S
N705 H708 0.984 . S
N705 H709 0.985 . S
H706 N701 0.984 . S
H707 N701 0.985 . S
H708 N705 0.984 . S
H709 N705 0.985 . S
H710 N704 0.984 . S
H711 N704 0.984 . S
H712 N700 0.984 . S
H713 N700 0.985 . S
C714 C715 1.363 . S
C714 C720 1.379 . S
C714 N722 1.356 . S
C715 C714 1.363 . S
C715 C721 1.363 . S
C716 C717 1.363 . S
C716 C721 1.379 . S
C716 N723 1.356 . S
C717 C716 1.363 . S
C717 C720 1.363 . S
N718 C720 1.356 . S
N718 H730 0.984 . S
N718 H731 0.985 . S
N719 C721 1.356 . S
N719 H724 0.984 . S
N719 H725 0.985 . S
C720 C714 1.379 . S
C720 C717 1.363 . S
C720 N718 1.356 . S
C721 C715 1.363 . S
C721 C716 1.379 . S
C721 N719 1.356 . S
N722 C714 1.356 . S
N722 H728 0.984 . S
N722 H729 0.984 . S
N723 C716 1.356 . S
N723 H726 0.984 . S
N723 H727 0.985 . S
H724 N719 0.984 . S
H725 N719 0.985 . S
H726 N723 0.984 . S
H727 N723 0.985 . S
H728 N722 0.984 . S
H729 N722 0.984 . S
H730 N718 0.984 . S
H731 N718 0.985 . S
C732 C733 1.363 . S
C732 C738 1.379 1_556 S
C732 N740 1.356 . S
C733 C732 1.363 . S
C733 C739 1.363 . S
C734 C735 1.363 . S
C734 C739 1.379 1_554 S
C734 N741 1.356 . S
C735 C734 1.363 . S
C735 C738 1.363 . S
N736 C738 1.356 . S
N736 H748 0.984 . S
N736 H749 0.985 . S
N737 C739 1.356 . S
N737 H742 0.984 . S
N737 H743 0.985 . S
C738 C732 1.379 1_554 S
C738 C735 1.363 . S
C738 N736 1.356 . S
C739 C733 1.363 . S
C739 C734 1.379 1_556 S
C739 N737 1.356 . S
N740 C732 1.356 . S
N740 H746 0.984 . S
N740 H747 0.984 . S
N741 C734 1.356 . S
N741 H744 0.984 . S
N741 H745 0.985 . S
H742 N737 0.984 . S
H743 N737 0.985 . S
H744 N741 0.984 . S
H745 N741 0.985 . S
H746 N740 0.984 . S
H747 N740 0.984 . S
H748 N736 0.984 . S
H749 N736 0.985 . S
C750 C751 1.363 . S
C750 C756 1.379 . S
C750 N758 1.356 . S
C751 C750 1.363 . S
C751 C757 1.363 . S
C752 C753 1.363 . S
C752 C757 1.379 . S
C752 N759 1.356 . S
C753 C752 1.363 . S
C753 C756 1.363 . S
N754 C756 1.356 . S
N754 H766 0.984 . S
N754 H767 0.985 . S
N755 C757 1.356 . S
N755 H760 0.984 . S
N755 H761 0.985 . S
C756 C750 1.379 . S
C756 C753 1.363 . S
C756 N754 1.356 . S
C757 C751 1.363 . S
C757 C752 1.379 . S
C757 N755 1.356 . S
N758 C750 1.356 . S
N758 H764 0.984 . S
N758 H765 0.984 . S
N759 C752 1.356 . S
N759 H762 0.984 . S
N759 H763 0.985 . S
H760 N755 0.984 . S
H761 N755 0.985 . S
H762 N759 0.984 . S
H763 N759 0.985 . S
H764 N758 0.984 . S
H765 N758 0.984 . S
H766 N754 0.984 . S
H767 N754 0.985 . S
C768 C769 1.363 . S
C768 C774 1.379 . S
C768 N776 1.356 . S
C769 C768 1.363 . S
C769 C775 1.363 . S
C770 C771 1.363 . S
C770 C775 1.379 . S
C770 N777 1.356 . S
C771 C770 1.363 . S
C771 C774 1.363 . S
N772 C774 1.356 . S
N772 H784 0.984 . S
N772 H785 0.985 . S
N773 C775 1.356 . S
N773 H778 0.984 . S
N773 H779 0.985 . S
C774 C768 1.379 . S
C774 C771 1.363 . S
C774 N772 1.356 . S
C775 C769 1.363 . S
C775 C770 1.379 . S
C775 N773 1.356 . S
N776 C768 1.356 . S
N776 H782 0.984 . S
N776 H783 0.984 . S
N777 C770 1.356 . S
N777 H780 0.984 . S
N777 H781 0.985 . S
H778 N773 0.984 . S
H779 N773 0.985 . S
H780 N777 0.984 . S
H781 N777 0.985 . S
H782 N776 0.984 . S
H783 N776 0.984 . S
H784 N772 0.984 . S
H785 N772 0.985 . S
C786 C787 1.363 . S
C786 C792 1.379 1_556 S
C786 N794 1.356 . S
C787 C786 1.363 . S
C787 C793 1.363 . S
C788 C789 1.363 . S
C788 C793 1.379 1_554 S
C788 N795 1.356 . S
C789 C788 1.363 . S
C789 C792 1.363 . S
N790 C792 1.356 . S
N790 H802 0.984 . S
N790 H803 0.985 . S
N791 C793 1.356 . S
N791 H796 0.984 . S
N791 H797 0.985 . S
C792 C786 1.379 1_554 S
C792 C789 1.363 . S
C792 N790 1.356 . S
C793 C787 1.363 . S
C793 C788 1.379 1_556 S
C793 N791 1.356 . S
N794 C786 1.356 . S
N794 H800 0.984 . S
N794 H801 0.984 . S
N795 C788 1.356 . S
N795 H798 0.984 . S
N795 H799 0.985 . S
H796 N791 0.984 . S
H797 N791 0.985 . S
H798 N795 0.984 . S
H799 N795 0.985 . S
H800 N794 0.984 . S
H801 N794 0.984 . S
H802 N790 0.984 . S
H803 N790 0.985 . S
C804 C805 1.363 . S
C804 C810 1.379 . S
C804 N812 1.356 . S
C805 C804 1.363 . S
C805 C811 1.363 . S
C806 C807 1.363 . S
C806 C811 1.379 . S
C806 N813 1.356 . S
C807 C806 1.363 . S
C807 C810 1.363 . S
N808 C810 1.356 . S
N808 H820 0.984 . S
N808 H821 0.985 . S
N809 C811 1.356 . S
N809 H814 0.984 . S
N809 H815 0.985 . S
C810 C804 1.379 . S
C810 C807 1.363 . S
C810 N808 1.356 . S
C811 C805 1.363 . S
C811 C806 1.379 . S
C811 N809 1.356 . S
N812 C804 1.356 . S
N812 H818 0.984 . S
N812 H819 0.984 . S
N813 C806 1.356 . S
N813 H816 0.984 . S
N813 H817 0.985 . S
H814 N809 0.984 . S
H815 N809 0.985 . S
H816 N813 0.984 . S
H817 N813 0.985 . S
H818 N812 0.984 . S
H819 N812 0.984 . S
H820 N808 0.984 . S
H821 N808 0.985 . S
C822 C823 1.363 . S
C822 C828 1.379 . S
C822 N830 1.356 . S
C823 C822 1.363 . S
C823 C829 1.363 . S
C824 C825 1.363 . S
C824 C829 1.379 . S
C824 N831 1.356 . S
C825 C824 1.363 . S
C825 C828 1.363 . S
N826 C828 1.356 . S
N826 H838 0.984 . S
N826 H839 0.985 . S
N827 C829 1.356 . S
N827 H832 0.984 . S
N827 H833 0.985 . S
C828 C822 1.379 . S
C828 C825 1.363 . S
C828 N826 1.356 . S
C829 C823 1.363 . S
C829 C824 1.379 . S
C829 N827 1.356 . S
N830 C822 1.356 . S
N830 H836 0.984 . S
N830 H837 0.984 . S
N831 C824 1.356 . S
N831 H834 0.984 . S
N831 H835 0.985 . S
H832 N827 0.984 . S
H833 N827 0.985 . S
H834 N831 0.984 . S
H835 N831 0.985 . S
H836 N830 0.984 . S
H837 N830 0.984 . S
H838 N826 0.984 . S
H839 N826 0.985 . S
C840 C841 1.363 . S
C840 C846 1.379 1_655 S
C840 N848 1.356 . S
C841 C840 1.363 . S
C841 C847 1.363 . S
C842 C843 1.363 . S
C842 C847 1.379 1_455 S
C842 N849 1.356 . S
C843 C842 1.363 . S
C843 C846 1.363 . S
N844 C846 1.356 . S
N844 H856 0.984 . S
N844 H857 0.985 . S
N845 C847 1.356 . S
N845 H850 0.984 . S
N845 H851 0.985 . S
C846 C840 1.379 1_455 S
C846 C843 1.363 . S
C846 N844 1.356 . S
C847 C841 1.363 . S
C847 C842 1.379 1_655 S
C847 N845 1.356 . S
N848 C840 1.356 . S
N848 H854 0.984 . S
N848 H855 0.984 . S
N849 C842 1.356 . S
N849 H852 0.984 . S
N849 H853 0.985 . S
H850 N845 0.984 . S
H851 N845 0.985 . S
H852 N849 0.984 . S
H853 N849 0.985 . S
H854 N848 0.984 . S
H855 N848 0.984 . S
H856 N844 0.984 . S
H857 N844 0.985 . S
C858 C859 1.363 . S
C858 C864 1.379 1_565 S
C858 N866 1.356 . S
C859 C858 1.363 . S
C859 C865 1.363 . S
C860 C861 1.363 . S
C860 C865 1.379 1_545 S
C860 N867 1.356 . S
C861 C860 1.363 . S
C861 C864 1.363 . S
N862 C864 1.356 . S
N862 H874 0.984 . S
N862 H875 0.985 . S
N863 C865 1.356 . S
N863 H868 0.984 . S
N863 H869 0.985 . S
C864 C858 1.379 1_545 S
C864 C861 1.363 . S
C864 N862 1.356 . S
C865 C859 1.363 . S
C865 C860 1.379 1_565 S
C865 N863 1.356 . S
N866 C858 1.356 . S
N866 H872 0.984 . S
N866 H873 0.984 . S
N867 C860 1.356 . S
N867 H870 0.984 . S
N867 H871 0.985 . S
H868 N863 0.984 . S
H869 N863 0.985 . S
H870 N867 0.984 . S
H871 N867 0.985 . S
H872 N866 0.984 . S
H873 N866 0.984 . S
H874 N862 0.984 . S
H875 N862 0.985 . S
C876 C877 1.363 . S
C876 C882 1.379 . S
C876 N884 1.356 . S
C877 C876 1.363 . S
C877 C883 1.363 . S
C878 C879 1.363 . S
C878 C883 1.379 . S
C878 N885 1.356 . S
C879 C878 1.363 . S
C879 C882 1.363 . S
N880 C882 1.356 . S
N880 H892 0.984 . S
N880 H893 0.985 . S
N881 C883 1.356 . S
N881 H886 0.984 . S
N881 H887 0.985 . S
C882 C876 1.379 . S
C882 C879 1.363 . S
C882 N880 1.356 . S
C883 C877 1.363 . S
C883 C878 1.379 . S
C883 N881 1.356 . S
N884 C876 1.356 . S
N884 H890 0.984 . S
N884 H891 0.984 . S
N885 C878 1.356 . S
N885 H888 0.984 . S
N885 H889 0.985 . S
H886 N881 0.984 . S
H887 N881 0.985 . S
H888 N885 0.984 . S
H889 N885 0.985 . S
H890 N884 0.984 . S
H891 N884 0.984 . S
H892 N880 0.984 . S
H893 N880 0.985 . S
C894 C895 1.363 . S
C894 C900 1.379 1_455 S
C894 N902 1.356 . S
C895 C894 1.363 . S
C895 C901 1.363 . S
C896 C897 1.363 . S
C896 C901 1.379 1_655 S
C896 N903 1.356 . S
C897 C896 1.363 . S
C897 C900 1.363 . S
N898 C900 1.356 . S
N898 H910 0.984 . S
N898 H911 0.985 . S
N899 C901 1.356 . S
N899 H904 0.984 . S
N899 H905 0.985 . S
C900 C894 1.379 1_655 S
C900 C897 1.363 . S
C900 N898 1.356 . S
C901 C895 1.363 . S
C901 C896 1.379 1_455 S
C901 N899 1.356 . S
N902 C894 1.356 . S
N902 H908 0.984 . S
N902 H909 0.984 . S
N903 C896 1.356 . S
N903 H906 0.984 . S
N903 H907 0.985 . S
H904 N899 0.984 . S
H905 N899 0.985 . S
H906 N903 0.984 . S
H907 N903 0.985 . S
H908 N902 0.984 . S
H909 N902 0.984 . S
H910 N898 0.984 . S
H911 N898 0.985 . S
C912 C913 1.363 . S
C912 C918 1.379 1_545 S
C912 N920 1.356 . S
C913 C912 1.363 . S
C913 C919 1.363 . S
C914 C915 1.363 . S
C914 C919 1.379 1_565 S
C914 N921 1.356 . S
C915 C914 1.363 . S
C915 C918 1.363 . S
N916 C918 1.356 . S
N916 H928 0.984 . S
N916 H929 0.985 . S
N917 C919 1.356 . S
N917 H922 0.984 . S
N917 H923 0.985 . S
C918 C912 1.379 1_565 S
C918 C915 1.363 . S
C918 N916 1.356 . S
C919 C913 1.363 . S
C919 C914 1.379 1_545 S
C919 N917 1.356 . S
N920 C912 1.356 . S
N920 H926 0.984 . S
N920 H927 0.984 . S
N921 C914 1.356 . S
N921 H924 0.984 . S
N921 H925 0.985 . S
H922 N917 0.984 . S
H923 N917 0.985 . S
H924 N921 0.984 . S
H925 N921 0.985 . S
H926 N920 0.984 . S
H927 N920 0.984 . S
H928 N916 0.984 . S
H929 N916 0.985 . S
C930 C931 1.363 . S
C930 C936 1.379 . S
C930 N938 1.356 . S
C931 C930 1.363 . S
C931 C937 1.363 . S
C932 C933 1.363 . S
C932 C937 1.379 . S
C932 N939 1.356 . S
C933 C932 1.363 . S
C933 C936 1.363 . S
N934 C936 1.356 . S
N934 H946 0.984 . S
N934 H947 0.985 . S
N935 C937 1.356 . S
N935 H940 0.984 . S
N935 H941 0.985 . S
C936 C930 1.379 . S
C936 C933 1.363 . S
C936 N934 1.356 . S
C937 C931 1.363 . S
C937 C932 1.379 . S
C937 N935 1.356 . S
N938 C930 1.356 . S
N938 H944 0.984 . S
N938 H945 0.984 . S
N939 C932 1.356 . S
N939 H942 0.984 . S
N939 H943 0.985 . S
H940 N935 0.984 . S
H941 N935 0.985 . S
H942 N939 0.984 . S
H943 N939 0.985 . S
H944 N938 0.984 . S
H945 N938 0.984 . S
H946 N934 0.984 . S
H947 N934 0.985 . S
C409 C111 1.619 . S
C411 C9 1.619 . S
C427 C145 1.620 . S
C429 C43 1.620 . S
C445 C179 1.620 . S
C447 C77 1.620 . S
C463 C213 1.619 . S
C465 C315 1.619 . S
C481 C247 1.620 . S
C483 C349 1.620 . S
C499 C281 1.620 . S
C501 C383 1.620 . S
C517 C107 0.709 . S
C519 C5 0.709 . S
C535 C39 0.709 . S
C537 C141 0.709 . S
C553 C175 0.709 . S
C555 C73 0.709 . S
C571 C209 0.709 . S
C573 C311 0.709 . S
C589 C345 0.709 . S
C591 C243 0.709 . S
C607 C277 0.709 . S
C609 C379 0.709 . S
C625 C274 1.654 . S
C627 C2 1.654 . S
C643 C36 1.654 . S
C645 C308 1.654 . S
C661 C70 1.655 . S
C663 C342 1.655 . S
C679 C104 1.654 . S
C681 C376 1.654 . S
C697 C138 1.654 . S
C699 C206 1.654 . S
C715 C240 1.655 . S
C717 C172 1.655 . S
C733 C360 1.642 . S
C735 C20 1.642 . S
C751 C394 1.642 . S
C753 C54 1.642 . S
C769 C224 1.642 . S
C771 C88 1.642 . S
C787 C258 1.642 . S
C789 C122 1.642 . S
C805 C156 1.642 . S
C807 C292 1.642 . S
C823 C190 1.642 . S
C825 C326 1.642 . S
C841 C407 1.496 . S
C843 C33 1.496 . S
C859 C237 1.496 . S
C861 C67 1.496 . S
C877 C101 1.496 . S
C879 C271 1.496 . S
C895 C305 1.496 . S
C897 C135 1.496 . S
C913 C339 1.496 . S
C915 C169 1.496 . S
C931 C373 1.496 . S
C933 C203 1.496 . S
