# Generated by pormake.
# Topology sve, (7)-cn, num edge types: 1
# Building blocks:
#     Node 0, Type 0, BuildingBlock: HICVOG_clean_sbu_0, # of connection points: 7
#     Node 1, Type 0, BuildingBlock: HICVOG_clean_sbu_0, # of connection points: 7
#     Node 2, Type 0, BuildingBlock: HICVOG_clean_sbu_0, # of connection points: 7
#     Node 3, Type 0, BuildingBlock: HICVOG_clean_sbu_0, # of connection points: 7
#     Edge 4, Type (0, 0), BuildingBlock: UVAHIK_clean_linker_0, # of connection points: 2
#     Edge 5, Type (0, 0), BuildingBlock: UVAHIK_clean_linker_0, # of connection points: 2
#     Edge 6, Type (0, 0), BuildingBlock: UVAHIK_clean_linker_0, # of connection points: 2
#     Edge 7, Type (0, 0), BuildingBlock: UVAHIK_clean_linker_0, # of connection points: 2
#     Edge 8, Type (0, 0), BuildingBlock: UVAHIK_clean_linker_0, # of connection points: 2
#     Edge 9, Type (0, 0), BuildingBlock: UVAHIK_clean_linker_0, # of connection points: 2
#     Edge 10, Type (0, 0), BuildingBlock: UVAHIK_clean_linker_0, # of connection points: 2
#     Edge 11, Type (0, 0), BuildingBlock: UVAHIK_clean_linker_0, # of connection points: 2
#     Edge 12, Type (0, 0), BuildingBlock: UVAHIK_clean_linker_0, # of connection points: 2
#     Edge 13, Type (0, 0), BuildingBlock: UVAHIK_clean_linker_0, # of connection points: 2
#     Edge 14, Type (0, 0), BuildingBlock: UVAHIK_clean_linker_0, # of connection points: 2
#     Edge 15, Type (0, 0), BuildingBlock: UVAHIK_clean_linker_0, # of connection points: 2
#     Edge 16, Type (0, 0), BuildingBlock: UVAHIK_clean_linker_0, # of connection points: 2
#     Edge 17, Type (0, 0), BuildingBlock: UVAHIK_clean_linker_0, # of connection points: 2
# Relax obj value: 0.257
# Max RMSD: 0.293
# Mean RMSD: 0.256
data_MOF--net-sve--node1-HICVOG_clean_sbu_0--edge1-UVAHIK_clean_linker_0
_symmetry_space_group_name_H-M    P1
_symmetry_Int_Tables_number       1
_symmetry_cell_setting            triclinic
loop_
_symmetry_equiv_pos_as_xyz
'x, y, z'
_cell_length_a     40.048488
_cell_length_b     36.489935
_cell_length_c     24.837175
_cell_angle_alpha  96.164768
_cell_angle_beta   83.974612
_cell_angle_gamma 89.441252
loop_
_atom_site_label
_atom_site_type_symbol
_atom_site_fract_x
_atom_site_fract_y
_atom_site_fract_z
_atom_type_partial_charge
Zn0 Zn 0.16643 0.30092 0.11472 0.0
C1 C 0.11189 0.37537 0.07565 0.0
N2 N 0.08772 0.35877 0.1054 0.0
C3 C 0.10032 0.32447 0.10484 0.0
N4 N 0.13129 0.3206 0.07718 0.0
N5 N 0.13793 0.3521 0.0567 0.0
C6 C 0.20103 0.42599 0.00612 0.0
O7 O 0.2137 0.41151 0.04588 0.0
O8 O 0.15492 0.25229 0.14239 0.0
Zn9 Zn 0.1736 0.35474 0.99749 0.0
N10 N 0.17144 0.33706 0.17622 0.0
C11 C 0.18443 0.39905 0.20493 0.0
C12 C 0.18088 0.37098 0.16356 0.0
C13 C 0.16566 0.32978 0.22901 0.0
N14 N 0.17881 0.39191 0.25753 0.0
C15 C 0.16966 0.35798 0.27126 0.0
O16 O 0.21908 0.33367 0.01015 0.0
C17 C 0.23127 0.30963 0.03666 0.0
O18 O 0.21304 0.29441 0.0728 0.0
H19 H 0.18543 0.3761 0.12149 0.0
H20 H 0.15765 0.30261 0.23757 0.0
C21 C 0.16163 0.33311 0.88415 0.0
C22 C 0.1536 0.30698 0.84153 0.0
C23 C 0.14339 0.26299 0.90498 0.0
C24 C 0.1519 0.28861 0.94655 0.0
N25 N 0.16054 0.32318 0.93567 0.0
N26 N 0.1446 0.27267 0.85369 0.0
H27 H 0.16972 0.36044 0.87649 0.0
C28 C 0.14682 0.22484 0.11091 0.0
O29 O 0.14323 0.22917 0.06001 0.0
O30 O 0.18122 0.40687 0.97831 0.0
H31 H 0.15226 0.28077 0.98714 0.0
H32 H 0.19172 0.42628 0.19538 0.0
H33 H 0.1364 0.23541 0.91318 0.0
Zn34 Zn 0.71238 0.18827 0.06121 0.0
C35 C 0.65924 0.11877 0.96945 0.0
N36 N 0.67926 0.09236 0.9831 0.0
C37 C 0.70166 0.11178 0.01047 0.0
N38 N 0.69542 0.14855 0.01406 0.0
N39 N 0.66865 0.15277 0.98788 0.0
C40 C 0.58959 0.22762 0.93904 0.0
O41 O 0.60873 0.25291 0.91869 0.0
O42 O 0.75886 0.17787 0.08375 0.0
Zn43 Zn 0.65476 0.19627 0.95605 0.0
N44 N 0.67899 0.19683 0.12401 0.0
C45 C 0.62185 0.21343 0.15299 0.0
C46 C 0.64802 0.20628 0.11168 0.0
C47 C 0.6849 0.19387 0.17649 0.0
N48 N 0.62763 0.21073 0.20522 0.0
C49 C 0.65837 0.20105 0.21869 0.0
O50 O 0.67051 0.24594 0.98786 0.0
C51 C 0.69693 0.25794 0.00757 0.0
O52 O 0.71647 0.23712 0.02873 0.0
H53 H 0.64373 0.20831 0.06986 0.0
H54 H 0.70992 0.18667 0.18499 0.0
C55 C 0.66708 0.18699 0.83422 0.0
C56 C 0.68991 0.1802 0.78665 0.0
C57 C 0.7351 0.17995 0.84141 0.0
C58 C 0.71265 0.18665 0.888 0.0
N59 N 0.6792 0.18975 0.88385 0.0
N60 N 0.72324 0.17681 0.79212 0.0
H61 H 0.64032 0.18927 0.83193 0.0
C62 C 0.78404 0.17481 0.04754 0.0
O63 O 0.77867 0.1741 0.99615 0.0
O64 O 0.60357 0.20003 0.95566 0.0
H65 H 0.72178 0.18897 0.92764 0.0
H66 H 0.5971 0.22109 0.14371 0.0
H67 H 0.76175 0.17717 0.84429 0.0
Zn68 Zn 0.85785 0.69965 0.10588 0.0
C69 C 0.83644 0.60715 0.01805 0.0
N70 N 0.86374 0.59398 0.0375 0.0
C71 C 0.87658 0.62441 0.06191 0.0
N72 N 0.85805 0.65475 0.05762 0.0
N73 N 0.83297 0.64423 0.02918 0.0
C74 C 0.74555 0.66727 0.99392 0.0
O75 O 0.7509 0.67668 0.04475 0.0
O76 O 0.90354 0.70997 0.12875 0.0
Zn77 Zn 0.81575 0.6769 0.98081 0.0
N78 N 0.82616 0.69363 0.16803 0.0
C79 C 0.76826 0.69155 0.19999 0.0
C80 C 0.79353 0.695 0.15812 0.0
C81 C 0.83482 0.68911 0.21849 0.0
N82 N 0.7767 0.68721 0.25039 0.0
C83 C 0.80931 0.68585 0.2613 0.0
O84 O 0.8116 0.73189 0.00834 0.0
C85 C 0.82366 0.75548 0.04236 0.0
O86 O 0.84221 0.74567 0.07697 0.0
H87 H 0.7874 0.69918 0.11793 0.0
H88 H 0.86109 0.68901 0.22508 0.0
C89 C 0.83951 0.66897 0.86556 0.0
C90 C 0.86474 0.66739 0.82124 0.0
C91 C 0.90603 0.67476 0.88343 0.0
C92 C 0.88097 0.67702 0.92692 0.0
N93 N 0.84832 0.67372 0.91727 0.0
N94 N 0.89738 0.67009 0.83184 0.0
H95 H 0.81328 0.66626 0.85943 0.0
C96 C 0.92277 0.72527 0.09427 0.0
O97 O 0.9122 0.73015 0.04718 0.0
O98 O 0.77057 0.66269 0.95785 0.0
H99 H 0.88739 0.68149 0.96819 0.0
H100 H 0.74213 0.69263 0.19268 0.0
H101 H 0.93216 0.67704 0.89053 0.0
Zn102 Zn 0.36587 0.8517 0.94986 0.0
C103 C 0.33187 0.91874 0.08264 0.0
N104 N 0.35445 0.94156 0.06104 0.0
C105 C 0.37232 0.91908 0.02176 0.0
N106 N 0.3608 0.88441 0.01819 0.0
N107 N 0.33607 0.88401 0.05778 0.0
C108 C 0.24887 0.84552 0.09387 0.0
O109 O 0.25716 0.84056 0.04095 0.0
O110 O 0.41449 0.83629 0.93009 0.0
Zn111 Zn 0.31855 0.84031 0.08683 0.0
N112 N 0.34923 0.87983 0.89604 0.0
C113 C 0.31193 0.92738 0.87908 0.0
C114 C 0.32515 0.90593 0.91501 0.0
C115 C 0.36006 0.87359 0.84198 0.0
N116 N 0.32254 0.92114 0.82522 0.0
C117 C 0.34607 0.89458 0.8051 0.0
O118 O 0.31534 0.79841 0.03025 0.0
C119 C 0.32286 0.78533 0.98113 0.0
O120 O 0.34064 0.80297 0.94747 0.0
H121 H 0.31616 0.91006 0.9578 0.0
H122 H 0.37923 0.8526 0.82836 0.0
C123 C 0.34694 0.83481 0.18905 0.0
C124 C 0.36838 0.81863 0.22186 0.0
C125 C 0.39216 0.77971 0.1442 0.0
C126 C 0.37042 0.79513 0.11238 0.0
N127 N 0.34857 0.82263 0.13504 0.0
N128 N 0.39048 0.79159 0.19799 0.0
H129 H 0.32836 0.85572 0.2062 0.0
C130 C 0.42718 0.82373 0.96932 0.0
O131 O 0.40929 0.82602 0.01693 0.0
O132 O 0.27195 0.84803 0.12538 0.0
H133 H 0.37066 0.78483 0.06994 0.0
H134 H 0.29301 0.94849 0.89371 0.0
H135 H 0.40982 0.75798 0.12656 0.0
C136 C 0.10705 0.42735 0.01812 0.0
C137 C 0.10901 0.41487 0.06914 0.0
C138 C 0.09403 0.46284 0.01469 0.0
C139 C 0.05706 0.54834 0.10306 0.0
H140 H 0.99565 0.54571 0.99225 0.0
C141 C 0.91903 0.60254 0.11752 0.0
C142 C 0.91114 0.62399 0.07683 0.0
C143 C 0.95194 0.58944 0.11822 0.0
C144 C 0.01309 0.54718 0.02292 0.0
H145 H 0.10112 0.42986 0.15616 0.0
H146 H 0.07756 0.49023 0.15086 0.0
H147 H 0.0393 0.49837 0.98565 0.0
H148 H 0.93146 0.65007 0.00662 0.0
H149 H 0.98881 0.62634 0.00695 0.0
H150 H 0.02791 0.59528 0.14289 0.0
C151 C 0.0867 0.47405 0.11304 0.0
C152 C 0.03844 0.5201 0.01904 0.0
C153 C 0.10012 0.43909 0.11628 0.0
C154 C 0.93708 0.63445 0.03934 0.0
C155 C 0.96982 0.62061 0.03917 0.0
C156 C 0.03102 0.57481 0.10767 0.0
C157 C 0.08195 0.48599 0.06228 0.0
C158 C 0.06014 0.51939 0.06009 0.0
C159 C 0.97716 0.59676 0.07726 0.0
C160 C 0.00836 0.57384 0.06828 0.0
H161 H 0.11317 0.40886 0.98118 0.0
H162 H 0.09171 0.4712 0.97472 0.0
H163 H 0.0738 0.54973 0.13466 0.0
H164 H 0.89928 0.59334 0.14589 0.0
H165 H 0.95696 0.57071 0.14759 0.0
C166 C 0.62513 0.08142 0.90691 0.0
C167 C 0.62673 0.1098 0.9494 0.0
C168 C 0.59476 0.06394 0.89931 0.0
C169 C 0.52669 0.03513 0.98701 0.0
H170 H 0.48186 1.00409 0.85913 0.0
C171 C 0.4332 0.91961 0.99194 0.0
C172 C 0.40065 0.93234 0.98717 0.0
C173 C 0.46098 0.93948 0.97362 0.0
C174 C 0.49436 0.01251 0.89492 0.0
H175 H 0.59801 0.14316 0.01597 0.0
H176 H 0.54491 0.11278 1.00267 0.0
H177 H 0.52832 0.04792 0.85279 0.0
H178 H 0.37127 0.97424 0.95697 0.0
H179 H 0.42008 1.00869 0.92354 0.0
H180 H 0.49376 0.99933 0.02894 0.0
C181 C 0.56692 0.1045 0.97462 0.0
C182 C 0.5207 0.03755 0.89137 0.0
C183 C 0.59716 0.12219 0.98179 0.0
C184 C 0.39628 0.96363 0.96012 0.0
C185 C 0.42411 0.98328 0.94107 0.0
C186 C 0.50108 1.00967 0.99021 0.0
C187 C 0.56583 0.07413 0.93497 0.0
C188 C 0.53686 0.04925 0.93763 0.0
C189 C 0.45657 0.97231 0.9501 0.0
C190 C 0.48469 0.99807 0.94432 0.0
H191 H 0.64783 0.07095 0.88223 0.0
H192 H 0.59462 0.04039 0.86882 0.0
H193 H 0.53908 0.04325 0.02305 0.0
H194 H 0.4371 0.89643 0.01449 0.0
H195 H 0.48579 0.93063 0.98124 0.0
C196 C 0.16967 0.31748 0.34785 0.0
C197 C 0.16457 0.35222 0.32995 0.0
C198 C 0.16695 0.31342 0.40354 0.0
C199 C 0.17171 0.36673 0.53755 0.0
H200 H 0.12956 0.28139 0.59351 0.0
C201 C 0.15007 0.35017 0.76883 0.0
C202 C 0.15572 0.31467 0.78368 0.0
C203 C 0.15051 0.35587 0.71382 0.0
C204 C 0.14173 0.30523 0.57848 0.0
H205 H 0.15198 0.40971 0.35705 0.0
H206 H 0.1471 0.4025 0.45376 0.0
H207 H 0.13096 0.2886 0.49691 0.0
H208 H 0.16712 0.25762 0.75204 0.0
H209 H 0.16826 0.26766 0.65694 0.0
H210 H 0.18273 0.38318 0.61911 0.0
C211 C 0.15362 0.37852 0.42477 0.0
C212 C 0.14251 0.30934 0.52308 0.0
C213 C 0.15629 0.38258 0.36921 0.0
C214 C 0.16227 0.28527 0.74226 0.0
C215 C 0.16279 0.29097 0.68757 0.0
C216 C 0.17098 0.36258 0.59301 0.0
C217 C 0.15921 0.34398 0.44265 0.0
C218 C 0.15767 0.34003 0.50186 0.0
C219 C 0.15656 0.32622 0.67258 0.0
C220 C 0.15621 0.33162 0.61407 0.0
H221 H 0.17687 0.29357 0.31916 0.0
H222 H 0.17189 0.28651 0.41598 0.0
H223 H 0.18398 0.39047 0.5224 0.0
H224 H 0.14436 0.37338 0.79952 0.0
H225 H 0.1453 0.38334 0.70366 0.0
C226 C 0.6858 0.17437 0.29367 0.0
C227 C 0.6624 0.19873 0.27716 0.0
C228 C 0.68734 0.17111 0.34909 0.0
C229 C 0.63685 0.18897 0.48408 0.0
H230 H 0.7229 0.17887 0.5397 0.0
C231 C 0.65495 0.20003 0.71545 0.0
C232 C 0.67974 0.17682 0.73062 0.0
C233 C 0.65038 0.20077 0.66027 0.0
C234 C 0.6986 0.18119 0.52477 0.0
H235 H 0.62275 0.2392 0.30642 0.0
H236 H 0.6258 0.23387 0.40242 0.0
H237 H 0.72093 0.18445 0.44335 0.0
H238 H 0.71742 0.13441 0.70041 0.0
H239 H 0.70904 0.13518 0.60508 0.0
H240 H 0.6146 0.18603 0.5659 0.0
C241 C 0.64253 0.21676 0.37269 0.0
C242 C 0.6975 0.18438 0.46941 0.0
C243 C 0.64094 0.21995 0.31749 0.0
C244 C 0.69839 0.15294 0.68998 0.0
C245 C 0.69376 0.15356 0.63524 0.0
C246 C 0.63796 0.18584 0.53959 0.0
C247 C 0.66553 0.19208 0.38929 0.0
C248 C 0.66662 0.1883 0.44827 0.0
C249 C 0.67051 0.17828 0.61946 0.0
C250 C 0.66886 0.18177 0.56056 0.0
H251 H 0.70225 0.15695 0.26397 0.0
H252 H 0.70509 0.15146 0.36037 0.0
H253 H 0.61258 0.19143 0.4691 0.0
H254 H 0.64045 0.21906 0.74572 0.0
H255 H 0.63228 0.22021 0.64946 0.0
C256 C 0.84629 0.66528 0.32952 0.0
C257 C 0.81645 0.68205 0.31797 0.0
C258 C 0.85168 0.66107 0.38334 0.0
C259 C 0.80609 0.65878 0.52064 0.0
H260 H 0.89305 0.67957 0.57089 0.0
C261 C 0.82708 0.67798 0.74868 0.0
C262 C 0.85716 0.66378 0.76364 0.0
C263 C 0.82184 0.67717 0.69377 0.0
C264 C 0.86873 0.67315 0.55733 0.0
H265 H 0.76911 0.7078 0.35426 0.0
H266 H 0.77867 0.70076 0.44754 0.0
H267 H 0.88505 0.68413 0.47586 0.0
H268 H 0.90483 0.63673 0.73239 0.0
H269 H 0.89552 0.63512 0.6369 0.0
H270 H 0.78968 0.6482 0.60226 0.0
C271 C 0.79767 0.69032 0.41508 0.0
C272 C 0.86416 0.67577 0.50284 0.0
C273 C 0.79228 0.6945 0.3615 0.0
C274 C 0.88147 0.64813 0.72238 0.0
C275 C 0.87622 0.64732 0.66758 0.0
C276 C 0.81065 0.65618 0.57512 0.0
C277 C 0.82733 0.67341 0.4267 0.0
C278 C 0.83271 0.66894 0.48397 0.0
C279 C 0.84655 0.66228 0.65258 0.0
C280 C 0.84196 0.66359 0.5942 0.0
H281 H 0.86518 0.65456 0.29713 0.0
H282 H 0.87463 0.6475 0.39091 0.0
H283 H 0.78169 0.6527 0.50718 0.0
H284 H 0.80807 0.69105 0.77904 0.0
H285 H 0.7989 0.6894 0.68355 0.0
C286 C 0.34986 0.91662 0.71286 0.0
C287 C 0.35477 0.88802 0.74516 0.0
C288 C 0.35388 0.91011 0.65612 0.0
C289 C 0.35085 0.83431 0.54655 0.0
H290 H 0.38786 0.90606 0.4535 0.0
C291 C 0.37571 0.80146 0.3144 0.0
C292 C 0.36662 0.82831 0.2817 0.0
C293 C 0.37483 0.8096 0.37064 0.0
C294 C 0.37713 0.88596 0.47903 0.0
H295 H 0.36845 0.83 0.74232 0.0
H296 H 0.37643 0.81901 0.64349 0.0
H297 H 0.38777 0.91828 0.5522 0.0
H298 H 0.35023 0.88532 0.28286 0.0
H299 H 0.34833 0.8994 0.38165 0.0
H300 H 0.34027 0.80198 0.47353 0.0
C301 C 0.36903 0.84645 0.66228 0.0
C302 C 0.37714 0.89289 0.53553 0.0
C303 C 0.36495 0.85295 0.71913 0.0
C304 C 0.35682 0.86375 0.30678 0.0
C305 C 0.35612 0.87197 0.36331 0.0
C306 C 0.35094 0.82735 0.49018 0.0
C307 C 0.36288 0.87478 0.63013 0.0
C308 C 0.36403 0.8671 0.56995 0.0
C309 C 0.365 0.84488 0.39579 0.0
C310 C 0.36414 0.85304 0.45577 0.0
H311 H 0.34209 0.94401 0.73145 0.0
H312 H 0.34864 0.93248 0.63271 0.0
H313 H 0.33984 0.81424 0.57186 0.0
H314 H 0.38336 0.77387 0.29657 0.0
H315 H 0.38227 0.78828 0.39441 0.0
C316 C 0.16635 0.18043 0.17151 0.0
C317 C 0.1483 0.18733 0.12795 0.0
C318 C 0.17419 0.14429 0.18023 0.0
C319 C 0.18852 0.05513 0.09722 0.0
H320 H 0.21352 0.0234 0.23187 0.0
C321 C 0.27074 0.92812 0.08484 0.0
C322 C 0.29984 0.93382 0.11111 0.0
C323 C 0.24234 0.95071 0.10014 0.0
C324 C 0.20645 0.03178 0.19403 0.0
H325 H 0.12089 0.16198 0.06354 0.0
H326 H 0.13336 0.09887 0.08005 0.0
H327 H 0.17946 0.07976 0.23438 0.0
H328 H 0.32222 0.9674 0.1743 0.0
H329 H 0.27297 1.00817 0.20002 0.0
H330 H 0.21643 1.00849 0.05649 0.0
C331 C 0.14273 0.12131 0.10609 0.0
C332 C 0.18701 0.0641 0.19539 0.0
C333 C 0.13539 0.15746 0.09676 0.0
C334 C 0.29963 0.96171 0.15466 0.0
C335 C 0.27138 0.98499 0.16935 0.0
C336 C 0.20766 0.02293 0.09591 0.0
C337 C 0.16372 0.11426 0.14607 0.0
C338 C 0.17867 0.07676 0.14675 0.0
C339 C 0.24304 0.98084 0.14029 0.0
C340 C 0.21768 1.01133 0.14406 0.0
H341 H 0.17655 0.20291 0.19644 0.0
H342 H 0.19052 0.14013 0.21123 0.0
H343 H 0.18339 0.06419 0.05875 0.0
H344 H 0.27105 0.90867 0.04873 0.0
H345 H 0.22087 0.94652 0.0772 0.0
C346 C 0.05403 0.2966 0.16062 0.0
C347 C 0.07721 0.29384 0.11386 0.0
C348 C 0.0252 0.27513 0.16237 0.0
C349 C 0.98061 0.19954 0.08426 0.0
H350 H 0.90153 0.25672 0.14862 0.0
C351 C 0.84652 0.17213 0.0226 0.0
C352 C 0.81896 0.17783 0.06286 0.0
C353 C 0.87921 0.17977 0.03516 0.0
C354 C 0.9233 0.24001 0.1312 0.0
H355 H 0.08886 0.2658 0.0327 0.0
H356 H 0.03874 0.22856 0.03521 0.0
H357 H 0.95687 0.28084 0.16012 0.0
H358 H 0.80454 0.19453 0.14865 0.0
H359 H 0.86159 0.20799 0.17053 0.0
H360 H 0.94652 0.1595 0.05322 0.0
C361 C 0.04299 0.24641 0.07144 0.0
C362 C 0.95527 0.25381 0.13796 0.0
C363 C 0.07205 0.26758 0.07006 0.0
C364 C 0.82513 0.18984 0.11659 0.0
C365 C 0.85783 0.19782 0.12906 0.0
C366 C 0.94854 0.18588 0.07707 0.0
C367 C 0.01839 0.25101 0.11675 0.0
C368 C 0.98449 0.23407 0.11404 0.0
C369 C 0.88523 0.19361 0.08827 0.0
C370 C 0.91945 0.20617 0.09987 0.0
H371 H 0.05718 0.31704 0.19462 0.0
H372 H 0.00744 0.27884 0.19861 0.0
H373 H 1.00236 0.18316 0.06587 0.0
H374 H 0.84275 0.16282 0.98081 0.0
H375 H 0.89959 0.17643 1.00262 0.0
C376 C 0.83367 0.82227 0.07206 0.0
C377 C 0.81548 0.79548 0.04287 0.0
C378 C 0.82546 0.85987 0.07426 0.0
C379 C 0.75488 0.92281 0.06211 0.0
H380 H 0.82312 0.99644 0.04308 0.0
C381 C 0.75633 0.07908 0.00411 0.0
C382 C 0.72698 0.09244 0.03646 0.0
C383 C 0.77228 0.04649 0.01421 0.0
C384 C 0.80379 0.97624 0.04878 0.0
H385 H 0.77445 0.78759 0.99264 0.0
H386 H 0.75991 0.85315 0.99695 0.0
H387 H 0.83964 0.93119 0.03825 0.0
H388 H 0.69291 0.08411 0.10727 0.0
H389 H 0.72114 0.02791 0.12608 0.0
H390 H 0.71898 0.96744 0.07173 0.0
C391 C 0.78055 0.84497 0.01826 0.0
C392 C 0.81325 0.93886 0.0462 0.0
C393 C 0.78902 0.80737 0.0155 0.0
C394 C 0.71595 0.07488 0.08247 0.0
C395 C 0.73174 0.04224 0.09249 0.0
C396 C 0.74548 0.96009 0.06534 0.0
C397 C 0.79856 0.8717 0.04789 0.0
C398 C 0.78885 0.91163 0.05215 0.0
C399 C 0.75887 0.02647 0.05656 0.0
C400 C 0.76974 0.98733 0.05828 0.0
H401 H 0.8543 0.81422 0.09351 0.0
H402 H 0.83971 0.87964 0.0977 0.0
H403 H 0.73546 0.90267 0.06749 0.0
H404 H 0.76477 0.0915 0.96747 0.0
H405 H 0.79307 0.03519 0.98564 0.0
C406 C 0.97289 0.76308 0.07343 0.0
C407 C 0.955 0.74073 0.10849 0.0
C408 C 1.00213 0.78003 0.08789 0.0
C409 C 0.07172 0.77202 0.16839 0.0
H410 H 0.08712 0.87236 0.13506 0.0
C411 C 0.20311 0.83401 0.16635 0.0
C412 C 0.21322 0.84599 0.11537 0.0
C413 C 0.16911 0.82824 0.18182 0.0
C414 C 0.08307 0.84446 0.14512 0.0
H415 H 0.95413 0.7178 0.18569 0.0
H416 H 1.00595 0.7472 0.21063 0.0
H417 H 0.03149 0.8463 0.13013 0.0
H418 H 0.19594 0.86446 0.0428 0.0
H419 H 0.13693 0.8547 0.0697 0.0
H420 H 0.12378 0.76949 0.18041 0.0
C421 C 0.99695 0.75177 0.17221 0.0
C422 C 0.05133 0.82953 0.14214 0.0
C423 C 0.96739 0.73498 0.15791 0.0
C424 C 0.18879 0.85483 0.08208 0.0
C425 C 0.15495 0.84956 0.09777 0.0
C426 C 0.10356 0.78696 0.17127 0.0
C427 C 0.0143 0.77486 0.13759 0.0
C428 C 0.04575 0.79268 0.15146 0.0
C429 C 0.14484 0.83502 0.14691 0.0
C430 C 0.10985 0.82279 0.15735 0.0
H431 H 0.9641 0.768 0.035 0.0
H432 H 0.01543 0.79698 0.05981 0.0
H433 H 0.06809 0.74352 0.17569 0.0
H434 H 0.22155 0.82706 0.19275 0.0
H435 H 0.16193 0.81723 0.22006 0.0
C436 C 0.779 0.58181 0.01349 0.0
C437 C 0.81287 0.58171 0.9923 0.0
C438 C 0.75968 0.55028 0.0043 0.0
C439 C 0.76374 0.45321 0.932 0.0
H440 H 0.70901 0.43193 0.0628 0.0
C441 C 0.73965 0.3075 1.00028 0.0
C442 C 0.70587 0.29699 0.00339 0.0
C443 C 0.74829 0.34393 0.9934 0.0
C444 C 0.72397 0.43769 0.02584 0.0
H445 H 0.85255 0.54969 0.94225 0.0
H446 H 0.81977 0.49497 0.92709 0.0
H447 H 0.73048 0.49382 0.05651 0.0
H448 H 0.65464 0.31669 0.00292 0.0
H449 H 0.66985 0.38088 0.99325 0.0
H450 H 0.75903 0.39597 0.90356 0.0
C451 C 0.80728 0.51917 0.94968 0.0
C452 C 0.73608 0.47331 0.02181 0.0
C453 C 0.82628 0.55072 0.95833 0.0
C454 C 0.68088 0.32392 1.00057 0.0
C455 C 0.6895 0.36059 0.99507 0.0
C456 C 0.75227 0.41744 0.93666 0.0
C457 C 0.77413 0.51777 0.97464 0.0
C458 C 0.7568 0.4815 0.97526 0.0
C459 C 0.7233 0.37076 0.99082 0.0
C460 C 0.73277 0.40927 0.98396 0.0
H461 H 0.76837 0.60474 0.04146 0.0
H462 H 0.73406 0.55076 0.02325 0.0
H463 H 0.77879 0.45835 0.89488 0.0
H464 H 0.75949 0.28739 1.00194 0.0
H465 H 0.77452 0.35125 0.99046 0.0
C466 C 0.47909 0.79881 0.91032 0.0
C467 C 0.46002 0.80401 0.9615 0.0
C468 C 0.50897 0.7777 0.9032 0.0
C469 C 0.55266 0.70603 0.96582 0.0
H470 H 0.63434 0.74381 0.89598 0.0
C471 C 0.68362 0.67058 0.01865 0.0
C472 C 0.71105 0.66876 0.97829 0.0
C473 C 0.65146 0.67899 0.00623 0.0
C474 C 0.61162 0.73239 0.9145 0.0
H475 H 0.45768 0.79185 0.04551 0.0
H476 H 0.50952 0.75566 0.03318 0.0
H477 H 0.5809 0.77606 0.8937 0.0
H478 H 0.72603 0.67182 0.89238 0.0
H479 H 0.66962 0.68668 0.87071 0.0
H480 H 0.58349 0.66321 0.98847 0.0
C481 C 0.50124 0.7672 0.9983 0.0
C482 C 0.58104 0.75094 0.91328 0.0
C483 C 0.47165 0.78831 0.00545 0.0
C484 C 0.70536 0.6731 0.9244 0.0
C485 C 0.67314 0.68186 0.91204 0.0
C486 C 0.58317 0.68753 0.96703 0.0
C487 C 0.52004 0.76127 0.94704 0.0
C488 C 0.55145 0.73864 0.94058 0.0
C489 C 0.64606 0.68595 0.9532 0.0
C490 C 0.61313 0.7012 0.94296 0.0
H491 H 0.47072 0.81054 0.87567 0.0
H492 H 0.52303 0.77364 0.86325 0.0
H493 H 0.5301 0.69545 0.98616 0.0
H494 H 0.6872 0.66719 0.06048 0.0
H495 H 0.63119 0.68221 0.03899 0.0
C496 C 0.23491 0.48222 0.02274 0.0
C497 C 0.21209 0.46271 0.99189 0.0
C498 C 0.24762 0.51554 0.008 0.0
C499 C 0.23258 0.59425 0.93312 0.0
H500 H 0.32654 0.61072 0.95092 0.0
C501 C 0.30219 0.73502 0.9154 0.0
C502 C 0.31338 0.74689 0.96605 0.0
C503 C 0.29104 0.69876 0.90485 0.0
C504 C 0.3004 0.60633 0.94493 0.0
H505 H 0.1838 0.46363 0.92218 0.0
H506 H 0.20615 0.52246 0.89637 0.0
H507 H 0.30354 0.5497 0.95881 0.0
H508 H 0.32301 0.73012 0.04427 0.0
H509 H 0.30475 0.66724 0.02529 0.0
H510 H 0.22952 0.65166 0.92122 0.0
C511 C 0.21421 0.51161 0.93192 0.0
C512 C 0.28713 0.57153 0.94991 0.0
C513 C 0.20146 0.47796 0.94667 0.0
C514 C 0.31432 0.72181 0.00499 0.0
C515 C 0.30404 0.68575 0.99407 0.0
C516 C 0.24599 0.62922 0.92781 0.0
C517 C 0.23792 0.53039 0.96194 0.0
C518 C 0.25277 0.56547 0.94646 0.0
C519 C 0.292 0.6739 0.94425 0.0
C520 C 0.27972 0.63581 0.93584 0.0
H521 H 0.24341 0.47156 0.05812 0.0
H522 H 0.26513 0.52978 0.03291 0.0
H523 H 0.20602 0.59041 0.9302 0.0
H524 H 0.30112 0.75396 0.88487 0.0
H525 H 0.28177 0.69013 0.86615 0.0
C526 C 0.53738 0.26204 0.92368 0.0
C527 C 0.55233 0.23286 0.94586 0.0
C528 C 0.50264 0.26878 0.93259 0.0
C529 C 0.42106 0.227 0.97851 0.0
H530 H 0.38999 0.32901 1.00001 0.0
C531 C 0.28168 0.27078 0.05034 0.0
C532 C 0.26779 0.29951 0.0256 0.0
C533 C 0.31608 0.26166 0.04038 0.0
C534 C 0.39813 0.30034 0.99352 0.0
H535 H 0.54204 0.18753 0.9944 0.0
H536 H 0.48147 0.19953 0.01062 0.0
H537 H 0.44988 0.31473 0.98329 0.0
H538 H 0.27968 0.34102 0.97061 0.0
H539 H 0.33938 0.32517 0.95335 0.0
H540 H 0.36909 0.2128 0.98947 0.0
C541 C 0.49658 0.21699 0.98559 0.0
C542 C 0.43263 0.29208 0.98378 0.0
C543 C 0.53142 0.21012 0.97643 0.0
C544 C 0.28932 0.31877 0.99051 0.0
C545 C 0.32371 0.30981 0.98084 0.0
C546 C 0.38649 0.2353 0.98854 0.0
C547 C 0.48169 0.24672 0.96432 0.0
C548 C 0.44469 0.25528 0.97572 0.0
C549 C 0.33764 0.28119 0.00571 0.0
C550 C 0.37452 0.27211 0.99586 0.0
H551 H 0.55257 0.28 0.89959 0.0
H552 H 0.49223 0.2914 0.91439 0.0
H553 H 0.42919 0.19834 0.9719 0.0
H554 H 0.26598 0.25529 0.07761 0.0
H555 H 0.32589 0.23971 0.06068 0.0
loop_
_geom_bond_atom_site_label_1
_geom_bond_atom_site_label_2
_geom_bond_distance
_geom_bond_site_symmetry_2
_ccdc_geom_bond_type
Zn0 N4 2.020 . S
Zn0 O8 2.019 . S
Zn0 N10 2.119 . S
Zn0 O18 1.975 . S
C1 N2 1.334 . S
C1 N5 1.336 . S
N2 C1 1.334 . S
N2 C3 1.334 . S
C3 N2 1.334 . S
C3 N4 1.336 . S
N4 Zn0 2.020 . S
N4 C3 1.336 . S
N4 N5 1.354 . S
N5 C1 1.336 . S
N5 N4 1.354 . S
N5 Zn9 2.020 . S
C6 O7 1.244 . S
C6 O30 1.257 . S
O7 C6 1.244 . S
O8 Zn0 2.019 . S
O8 C28 1.257 . S
Zn9 N5 2.020 . S
Zn9 O16 1.975 . S
Zn9 N25 2.119 1_554 S
Zn9 O30 2.019 . S
N10 Zn0 2.119 . S
N10 C12 1.334 . S
N10 C13 1.328 . S
C11 C12 1.391 . S
C11 N14 1.329 . S
C11 H32 0.930 . S
C12 N10 1.334 . S
C12 C11 1.391 . S
C12 H19 0.930 . S
C13 N10 1.328 . S
C13 C15 1.392 . S
C13 H20 0.930 . S
N14 C11 1.329 . S
N14 C15 1.331 . S
C15 C13 1.392 . S
C15 N14 1.331 . S
O16 Zn9 1.975 . S
O16 C17 1.252 . S
C17 O16 1.252 . S
C17 O18 1.252 . S
O18 Zn0 1.975 . S
O18 C17 1.252 . S
H19 C12 0.930 . S
H20 C13 0.930 . S
C21 C22 1.392 . S
C21 N25 1.328 . S
C21 H27 0.930 . S
C22 C21 1.392 . S
C22 N26 1.331 . S
C23 C24 1.391 . S
C23 N26 1.329 . S
C23 H33 0.930 . S
C24 C23 1.391 . S
C24 N25 1.334 . S
C24 H31 0.930 . S
N25 Zn9 2.119 1_556 S
N25 C21 1.328 . S
N25 C24 1.334 . S
N26 C22 1.331 . S
N26 C23 1.329 . S
H27 C21 0.930 . S
C28 O8 1.257 . S
C28 O29 1.244 . S
O29 C28 1.244 . S
O30 C6 1.257 . S
O30 Zn9 2.019 . S
H31 C24 0.930 . S
H32 C11 0.930 . S
H33 C23 0.930 . S
Zn34 N38 2.020 . S
Zn34 O42 2.019 . S
Zn34 N44 2.119 . S
Zn34 O52 1.975 . S
C35 N36 1.334 1_556 S
C35 N39 1.337 . S
N36 C35 1.334 1_554 S
N36 C37 1.334 . S
C37 N36 1.334 . S
C37 N38 1.336 . S
N38 Zn34 2.020 . S
N38 C37 1.336 . S
N38 N39 1.345 1_554 S
N39 C35 1.337 . S
N39 N38 1.345 1_556 S
N39 Zn43 2.027 . S
C40 O41 1.244 1_556 S
C40 O64 1.257 . S
O41 C40 1.244 1_554 S
O42 Zn34 2.019 . S
O42 C62 1.257 . S
Zn43 N39 2.027 . S
Zn43 O50 1.975 1_556 S
Zn43 N59 2.119 . S
Zn43 O64 2.019 . S
N44 Zn34 2.119 . S
N44 C46 1.334 . S
N44 C47 1.328 . S
C45 C46 1.391 . S
C45 N48 1.329 . S
C45 H66 0.930 . S
C46 N44 1.334 . S
C46 C45 1.391 . S
C46 H53 0.930 . S
C47 N44 1.328 . S
C47 C49 1.392 . S
C47 H54 0.930 . S
N48 C45 1.329 . S
N48 C49 1.331 . S
C49 C47 1.392 . S
C49 N48 1.331 . S
O50 Zn43 1.975 1_554 S
O50 C51 1.252 . S
C51 O50 1.252 . S
C51 O52 1.252 . S
O52 Zn34 1.975 . S
O52 C51 1.252 . S
H53 C46 0.930 . S
H54 C47 0.930 . S
C55 C56 1.392 . S
C55 N59 1.328 . S
C55 H61 0.930 . S
C56 C55 1.392 . S
C56 N60 1.331 . S
C57 C58 1.391 . S
C57 N60 1.329 . S
C57 H67 0.930 . S
C58 C57 1.391 . S
C58 N59 1.334 . S
C58 H65 0.930 . S
N59 Zn43 2.119 . S
N59 C55 1.328 . S
N59 C58 1.334 . S
N60 C56 1.331 . S
N60 C57 1.329 . S
H61 C55 0.930 . S
C62 O42 1.257 . S
C62 O63 1.244 1_554 S
O63 C62 1.244 1_556 S
O64 C40 1.257 . S
O64 Zn43 2.019 . S
H65 C58 0.930 . S
H66 C45 0.930 . S
H67 C57 0.930 . S
Zn68 N72 2.020 . S
Zn68 O76 2.019 . S
Zn68 N78 2.119 . S
Zn68 O86 1.975 . S
C69 N70 1.334 . S
C69 N73 1.336 . S
N70 C69 1.334 . S
N70 C71 1.334 . S
C71 N70 1.334 . S
C71 N72 1.336 . S
N72 Zn68 2.020 . S
N72 C71 1.336 . S
N72 N73 1.354 . S
N73 C69 1.336 . S
N73 N72 1.354 . S
N73 Zn77 2.020 1_554 S
C74 O75 1.244 . S
C74 O98 1.257 1_554 S
O75 C74 1.244 . S
O76 Zn68 2.019 . S
O76 C96 1.257 . S
Zn77 N73 2.020 1_556 S
Zn77 O84 1.975 1_556 S
Zn77 N93 2.119 . S
Zn77 O98 2.019 . S
N78 Zn68 2.119 . S
N78 C80 1.334 . S
N78 C81 1.328 . S
C79 C80 1.391 . S
C79 N82 1.329 . S
C79 H100 0.930 . S
C80 N78 1.334 . S
C80 C79 1.391 . S
C80 H87 0.930 . S
C81 N78 1.328 . S
C81 C83 1.392 . S
C81 H88 0.930 . S
N82 C79 1.329 . S
N82 C83 1.331 . S
C83 C81 1.392 . S
C83 N82 1.331 . S
O84 Zn77 1.975 1_554 S
O84 C85 1.252 . S
C85 O84 1.252 . S
C85 O86 1.252 . S
O86 Zn68 1.975 . S
O86 C85 1.252 . S
H87 C80 0.930 . S
H88 C81 0.930 . S
C89 C90 1.392 . S
C89 N93 1.328 . S
C89 H95 0.930 . S
C90 C89 1.392 . S
C90 N94 1.331 . S
C91 C92 1.391 . S
C91 N94 1.329 . S
C91 H101 0.930 . S
C92 C91 1.391 . S
C92 N93 1.334 . S
C92 H99 0.930 . S
N93 Zn77 2.119 . S
N93 C89 1.328 . S
N93 C92 1.334 . S
N94 C90 1.331 . S
N94 C91 1.329 . S
H95 C89 0.930 . S
C96 O76 1.257 . S
C96 O97 1.244 . S
O97 C96 1.244 . S
O98 C74 1.257 1_556 S
O98 Zn77 2.019 . S
H99 C92 0.930 . S
H100 C79 0.930 . S
H101 C91 0.930 . S
Zn102 N106 2.020 . S
Zn102 O110 2.019 . S
Zn102 N112 2.119 . S
Zn102 O120 1.975 . S
C103 N104 1.334 . S
C103 N107 1.336 . S
N104 C103 1.334 . S
N104 C105 1.334 1_554 S
C105 N104 1.334 1_556 S
C105 N106 1.336 . S
N106 Zn102 2.020 . S
N106 C105 1.336 . S
N106 N107 1.354 1_556 S
N107 C103 1.336 . S
N107 N106 1.354 1_554 S
N107 Zn111 2.020 . S
C108 O109 1.244 1_554 S
C108 O132 1.257 . S
O109 C108 1.244 1_556 S
O110 Zn102 2.019 . S
O110 C130 1.257 . S
Zn111 N107 2.020 . S
Zn111 O118 1.975 . S
Zn111 N127 2.119 . S
Zn111 O132 2.019 . S
N112 Zn102 2.119 . S
N112 C114 1.334 . S
N112 C115 1.328 . S
C113 C114 1.391 . S
C113 N116 1.329 . S
C113 H134 0.930 . S
C114 N112 1.334 . S
C114 C113 1.391 . S
C114 H121 0.930 . S
C115 N112 1.328 . S
C115 C117 1.392 . S
C115 H122 0.930 . S
N116 C113 1.329 . S
N116 C117 1.331 . S
C117 C115 1.392 . S
C117 N116 1.331 . S
O118 Zn111 1.975 . S
O118 C119 1.251 1_554 S
C119 O118 1.251 1_556 S
C119 O120 1.255 . S
O120 Zn102 1.975 . S
O120 C119 1.255 . S
H121 C114 0.930 . S
H122 C115 0.930 . S
C123 C124 1.392 . S
C123 N127 1.328 . S
C123 H129 0.930 . S
C124 C123 1.392 . S
C124 N128 1.331 . S
C125 C126 1.391 . S
C125 N128 1.329 . S
C125 H135 0.930 . S
C126 C125 1.391 . S
C126 N127 1.334 . S
C126 H133 0.930 . S
N127 Zn111 2.119 . S
N127 C123 1.328 . S
N127 C126 1.334 . S
N128 C124 1.331 . S
N128 C125 1.329 . S
H129 C123 0.930 . S
C130 O110 1.257 . S
C130 O131 1.244 1_556 S
O131 C130 1.244 1_554 S
O132 C108 1.257 . S
O132 Zn111 2.019 . S
H133 C126 0.930 . S
H134 C113 0.930 . S
H135 C125 0.930 . S
C136 C137 1.349 . S
C136 C138 1.327 . S
C136 H161 0.950 1_554 S
C137 C136 1.349 . S
C137 C153 1.349 . S
C138 C136 1.327 . S
C138 C157 1.429 . S
C138 H162 0.950 1_554 S
C139 C156 1.574 1_455 S
C139 C158 1.368 . S
C139 H163 0.949 . S
H140 C144 0.949 1_556 S
C141 C142 1.349 . S
C141 C143 1.327 . S
C141 H164 0.950 . S
C142 C141 1.349 . S
C142 C154 1.349 . S
C143 C141 1.327 . S
C143 C159 1.429 . S
C143 H165 0.950 . S
C144 H140 0.949 1_554 S
C144 C152 1.574 . S
C144 C160 1.368 . S
H145 C153 0.950 . S
H146 C151 0.950 . S
H147 C152 0.949 1_556 S
H148 C154 0.950 1_556 S
H149 C155 0.950 1_556 S
H150 C156 0.949 . S
C151 H146 0.950 . S
C151 C153 1.327 . S
C151 C157 1.429 . S
C152 C144 1.574 . S
C152 H147 0.949 1_554 S
C152 C158 1.368 1_655 S
C153 C137 1.349 . S
C153 H145 0.950 . S
C153 C151 1.327 . S
C154 C142 1.349 . S
C154 H148 0.950 1_554 S
C154 C155 1.327 . S
C155 H149 0.950 1_554 S
C155 C154 1.327 . S
C155 C159 1.429 . S
C156 C139 1.574 1_655 S
C156 H150 0.949 . S
C156 C160 1.368 . S
C157 C138 1.429 . S
C157 C151 1.429 . S
C157 C158 1.523 . S
C158 C139 1.368 . S
C158 C152 1.368 1_455 S
C158 C157 1.523 . S
C159 C143 1.429 . S
C159 C155 1.429 . S
C159 C160 1.523 . S
C160 C144 1.368 . S
C160 C156 1.368 . S
C160 C159 1.523 . S
H161 C136 0.950 1_556 S
H162 C138 0.950 1_556 S
H163 C139 0.949 . S
H164 C141 0.950 . S
H165 C143 0.950 . S
C166 C167 1.349 . S
C166 C168 1.327 . S
C166 H191 0.950 . S
C167 C166 1.349 . S
C167 C183 1.349 1_556 S
C168 C166 1.327 . S
C168 C187 1.429 . S
C168 H192 0.950 . S
C169 C186 1.574 1_545 S
C169 C188 1.368 1_554 S
C169 H193 0.949 . S
H170 C174 0.949 . S
C171 C172 1.349 1_554 S
C171 C173 1.327 . S
C171 H194 0.950 . S
C172 C171 1.349 1_556 S
C172 C184 1.349 . S
C173 C171 1.327 . S
C173 C189 1.429 1_554 S
C173 H195 0.950 . S
C174 H170 0.949 . S
C174 C182 1.574 . S
C174 C190 1.368 . S
H175 C183 0.950 . S
H176 C181 0.950 . S
H177 C182 0.949 . S
H178 C184 0.950 . S
H179 C185 0.950 . S
H180 C186 0.949 . S
C181 H176 0.950 . S
C181 C183 1.327 . S
C181 C187 1.429 1_554 S
C182 C174 1.574 . S
C182 H177 0.949 . S
C182 C188 1.368 1_565 S
C183 C167 1.349 1_554 S
C183 H175 0.950 . S
C183 C181 1.327 . S
C184 C172 1.349 . S
C184 H178 0.950 . S
C184 C185 1.327 . S
C185 H179 0.950 . S
C185 C184 1.327 . S
C185 C189 1.429 . S
C186 C169 1.574 1_565 S
C186 H180 0.949 . S
C186 C190 1.368 1_554 S
C187 C168 1.429 . S
C187 C181 1.429 1_556 S
C187 C188 1.523 . S
C188 C169 1.368 1_556 S
C188 C182 1.368 1_545 S
C188 C187 1.523 . S
C189 C173 1.429 1_556 S
C189 C185 1.429 . S
C189 C190 1.523 . S
C190 C174 1.368 . S
C190 C186 1.368 1_556 S
C190 C189 1.523 . S
H191 C166 0.950 . S
H192 C168 0.950 . S
H193 C169 0.949 . S
H194 C171 0.950 . S
H195 C173 0.950 . S
C196 C197 1.349 . S
C196 C198 1.327 . S
C196 H221 0.950 . S
C197 C196 1.349 . S
C197 C213 1.349 . S
C198 C196 1.327 . S
C198 C217 1.429 . S
C198 H222 0.950 . S
C199 C216 1.574 . S
C199 C218 1.368 . S
C199 H223 0.949 . S
H200 C204 0.949 . S
C201 C202 1.349 . S
C201 C203 1.327 . S
C201 H224 0.950 . S
C202 C201 1.349 . S
C202 C214 1.349 . S
C203 C201 1.327 . S
C203 C219 1.429 . S
C203 H225 0.950 . S
C204 H200 0.949 . S
C204 C212 1.574 . S
C204 C220 1.368 . S
H205 C213 0.950 . S
H206 C211 0.950 . S
H207 C212 0.949 . S
H208 C214 0.950 . S
H209 C215 0.950 . S
H210 C216 0.949 . S
C211 H206 0.950 . S
C211 C213 1.327 . S
C211 C217 1.429 . S
C212 C204 1.574 . S
C212 H207 0.949 . S
C212 C218 1.368 . S
C213 C197 1.349 . S
C213 H205 0.950 . S
C213 C211 1.327 . S
C214 C202 1.349 . S
C214 H208 0.950 . S
C214 C215 1.327 . S
C215 H209 0.950 . S
C215 C214 1.327 . S
C215 C219 1.429 . S
C216 C199 1.574 . S
C216 H210 0.949 . S
C216 C220 1.368 . S
C217 C198 1.429 . S
C217 C211 1.429 . S
C217 C218 1.523 . S
C218 C199 1.368 . S
C218 C212 1.368 . S
C218 C217 1.523 . S
C219 C203 1.429 . S
C219 C215 1.429 . S
C219 C220 1.523 . S
C220 C204 1.368 . S
C220 C216 1.368 . S
C220 C219 1.523 . S
H221 C196 0.950 . S
H222 C198 0.950 . S
H223 C199 0.949 . S
H224 C201 0.950 . S
H225 C203 0.950 . S
C226 C227 1.349 . S
C226 C228 1.327 . S
C226 H251 0.950 . S
C227 C226 1.349 . S
C227 C243 1.349 . S
C228 C226 1.327 . S
C228 C247 1.429 . S
C228 H252 0.950 . S
C229 C246 1.574 . S
C229 C248 1.368 . S
C229 H253 0.949 . S
H230 C234 0.949 . S
C231 C232 1.349 . S
C231 C233 1.327 . S
C231 H254 0.950 . S
C232 C231 1.349 . S
C232 C244 1.349 . S
C233 C231 1.327 . S
C233 C249 1.429 . S
C233 H255 0.950 . S
C234 H230 0.949 . S
C234 C242 1.574 . S
C234 C250 1.368 . S
H235 C243 0.950 . S
H236 C241 0.950 . S
H237 C242 0.949 . S
H238 C244 0.950 . S
H239 C245 0.950 . S
H240 C246 0.949 . S
C241 H236 0.950 . S
C241 C243 1.327 . S
C241 C247 1.429 . S
C242 C234 1.574 . S
C242 H237 0.949 . S
C242 C248 1.368 . S
C243 C227 1.349 . S
C243 H235 0.950 . S
C243 C241 1.327 . S
C244 C232 1.349 . S
C244 H238 0.950 . S
C244 C245 1.327 . S
C245 H239 0.950 . S
C245 C244 1.327 . S
C245 C249 1.429 . S
C246 C229 1.574 . S
C246 H240 0.949 . S
C246 C250 1.368 . S
C247 C228 1.429 . S
C247 C241 1.429 . S
C247 C248 1.523 . S
C248 C229 1.368 . S
C248 C242 1.368 . S
C248 C247 1.523 . S
C249 C233 1.429 . S
C249 C245 1.429 . S
C249 C250 1.523 . S
C250 C234 1.368 . S
C250 C246 1.368 . S
C250 C249 1.523 . S
H251 C226 0.950 . S
H252 C228 0.950 . S
H253 C229 0.949 . S
H254 C231 0.950 . S
H255 C233 0.950 . S
C256 C257 1.349 . S
C256 C258 1.327 . S
C256 H281 0.950 . S
C257 C256 1.349 . S
C257 C273 1.349 . S
C258 C256 1.327 . S
C258 C277 1.429 . S
C258 H282 0.950 . S
C259 C276 1.574 . S
C259 C278 1.368 . S
C259 H283 0.949 . S
H260 C264 0.949 . S
C261 C262 1.349 . S
C261 C263 1.327 . S
C261 H284 0.950 . S
C262 C261 1.349 . S
C262 C274 1.349 . S
C263 C261 1.327 . S
C263 C279 1.429 . S
C263 H285 0.950 . S
C264 H260 0.949 . S
C264 C272 1.574 . S
C264 C280 1.368 . S
H265 C273 0.950 . S
H266 C271 0.950 . S
H267 C272 0.949 . S
H268 C274 0.950 . S
H269 C275 0.950 . S
H270 C276 0.949 . S
C271 H266 0.950 . S
C271 C273 1.327 . S
C271 C277 1.429 . S
C272 C264 1.574 . S
C272 H267 0.949 . S
C272 C278 1.368 . S
C273 C257 1.349 . S
C273 H265 0.950 . S
C273 C271 1.327 . S
C274 C262 1.349 . S
C274 H268 0.950 . S
C274 C275 1.327 . S
C275 H269 0.950 . S
C275 C274 1.327 . S
C275 C279 1.429 . S
C276 C259 1.574 . S
C276 H270 0.949 . S
C276 C280 1.368 . S
C277 C258 1.429 . S
C277 C271 1.429 . S
C277 C278 1.523 . S
C278 C259 1.368 . S
C278 C272 1.368 . S
C278 C277 1.523 . S
C279 C263 1.429 . S
C279 C275 1.429 . S
C279 C280 1.523 . S
C280 C264 1.368 . S
C280 C276 1.368 . S
C280 C279 1.523 . S
H281 C256 0.950 . S
H282 C258 0.950 . S
H283 C259 0.949 . S
H284 C261 0.950 . S
H285 C263 0.950 . S
C286 C287 1.349 . S
C286 C288 1.327 . S
C286 H311 0.950 . S
C287 C286 1.349 . S
C287 C303 1.349 . S
C288 C286 1.327 . S
C288 C307 1.429 . S
C288 H312 0.950 . S
C289 C306 1.574 . S
C289 C308 1.368 . S
C289 H313 0.949 . S
H290 C294 0.949 . S
C291 C292 1.349 . S
C291 C293 1.327 . S
C291 H314 0.950 . S
C292 C291 1.349 . S
C292 C304 1.349 . S
C293 C291 1.327 . S
C293 C309 1.429 . S
C293 H315 0.950 . S
C294 H290 0.949 . S
C294 C302 1.574 . S
C294 C310 1.368 . S
H295 C303 0.950 . S
H296 C301 0.950 . S
H297 C302 0.949 . S
H298 C304 0.950 . S
H299 C305 0.950 . S
H300 C306 0.949 . S
C301 H296 0.950 . S
C301 C303 1.327 . S
C301 C307 1.429 . S
C302 C294 1.574 . S
C302 H297 0.949 . S
C302 C308 1.368 . S
C303 C287 1.349 . S
C303 H295 0.950 . S
C303 C301 1.327 . S
C304 C292 1.349 . S
C304 H298 0.950 . S
C304 C305 1.327 . S
C305 H299 0.950 . S
C305 C304 1.327 . S
C305 C309 1.429 . S
C306 C289 1.574 . S
C306 H300 0.949 . S
C306 C310 1.368 . S
C307 C288 1.429 . S
C307 C301 1.429 . S
C307 C308 1.523 . S
C308 C289 1.368 . S
C308 C302 1.368 . S
C308 C307 1.523 . S
C309 C293 1.429 . S
C309 C305 1.429 . S
C309 C310 1.523 . S
C310 C294 1.368 . S
C310 C306 1.368 . S
C310 C309 1.523 . S
H311 C286 0.950 . S
H312 C288 0.950 . S
H313 C289 0.949 . S
H314 C291 0.950 . S
H315 C293 0.950 . S
C316 C317 1.349 . S
C316 C318 1.327 . S
C316 H341 0.950 . S
C317 C316 1.349 . S
C317 C333 1.349 . S
C318 C316 1.327 . S
C318 C337 1.429 . S
C318 H342 0.950 . S
C319 C336 1.574 . S
C319 C338 1.368 . S
C319 H343 0.949 . S
H320 C324 0.949 1_565 S
C321 C322 1.349 . S
C321 C323 1.327 . S
C321 H344 0.950 1_554 S
C322 C321 1.349 . S
C322 C334 1.349 . S
C323 C321 1.327 . S
C323 C339 1.429 . S
C323 H345 0.950 1_554 S
C324 H320 0.949 1_545 S
C324 C332 1.574 . S
C324 C340 1.368 . S
H325 C333 0.950 . S
H326 C331 0.950 . S
H327 C332 0.949 . S
H328 C334 0.950 . S
H329 C335 0.950 . S
H330 C336 0.949 1_556 S
C331 H326 0.950 . S
C331 C333 1.327 . S
C331 C337 1.429 . S
C332 C324 1.574 . S
C332 H327 0.949 . S
C332 C338 1.368 . S
C333 C317 1.349 . S
C333 H325 0.950 . S
C333 C331 1.327 . S
C334 C322 1.349 . S
C334 H328 0.950 . S
C334 C335 1.327 . S
C335 H329 0.950 . S
C335 C334 1.327 . S
C335 C339 1.429 . S
C336 C319 1.574 . S
C336 H330 0.949 1_554 S
C336 C340 1.368 . S
C337 C318 1.429 . S
C337 C331 1.429 . S
C337 C338 1.523 . S
C338 C319 1.368 . S
C338 C332 1.368 . S
C338 C337 1.523 . S
C339 C323 1.429 . S
C339 C335 1.429 . S
C339 C340 1.523 1_565 S
C340 C324 1.368 . S
C340 C336 1.368 . S
C340 C339 1.523 1_545 S
H341 C316 0.950 . S
H342 C318 0.950 . S
H343 C319 0.949 . S
H344 C321 0.950 1_556 S
H345 C323 0.950 1_556 S
C346 C347 1.349 . S
C346 C348 1.327 . S
C346 H371 0.950 . S
C347 C346 1.349 . S
C347 C363 1.349 . S
C348 C346 1.327 . S
C348 C367 1.429 . S
C348 H372 0.950 . S
C349 C366 1.574 . S
C349 C368 1.368 . S
C349 H373 0.950 1_554 S
H350 C354 0.949 . S
C351 C352 1.349 1_556 S
C351 C353 1.327 1_556 S
C351 H374 0.950 . S
C352 C351 1.349 1_554 S
C352 C364 1.349 . S
C353 C351 1.327 1_554 S
C353 C369 1.429 . S
C353 H375 0.950 1_554 S
C354 H350 0.949 . S
C354 C362 1.574 . S
C354 C370 1.368 . S
H355 C363 0.950 . S
H356 C361 0.950 . S
H357 C362 0.949 . S
H358 C364 0.950 . S
H359 C365 0.950 . S
H360 C366 0.949 1_556 S
C361 H356 0.950 . S
C361 C363 1.327 . S
C361 C367 1.429 . S
C362 C354 1.574 . S
C362 H357 0.949 . S
C362 C368 1.368 . S
C363 C347 1.349 . S
C363 H355 0.950 . S
C363 C361 1.327 . S
C364 C352 1.349 . S
C364 H358 0.950 . S
C364 C365 1.327 . S
C365 H359 0.950 . S
C365 C364 1.327 . S
C365 C369 1.429 . S
C366 C349 1.574 . S
C366 H360 0.949 1_554 S
C366 C370 1.368 . S
C367 C348 1.429 . S
C367 C361 1.429 . S
C367 C368 1.523 1_455 S
C368 C349 1.368 . S
C368 C362 1.368 . S
C368 C367 1.523 1_655 S
C369 C353 1.429 . S
C369 C365 1.429 . S
C369 C370 1.523 . S
C370 C354 1.368 . S
C370 C366 1.368 . S
C370 C369 1.523 . S
H371 C346 0.950 . S
H372 C348 0.950 . S
H373 C349 0.950 1_556 S
H374 C351 0.950 . S
H375 C353 0.950 1_556 S
C376 C377 1.349 . S
C376 C378 1.327 . S
C376 H401 0.950 . S
C377 C376 1.349 . S
C377 C393 1.349 1_554 S
C378 C376 1.327 . S
C378 C397 1.429 . S
C378 H402 0.950 . S
C379 C396 1.574 . S
C379 C398 1.368 1_556 S
C379 H403 0.949 . S
H380 C384 0.949 . S
C381 C382 1.349 . S
C381 C383 1.327 . S
C381 H404 0.950 1_554 S
C382 C381 1.349 . S
C382 C394 1.349 . S
C383 C381 1.327 . S
C383 C399 1.429 . S
C383 H405 0.950 1_554 S
C384 H380 0.949 . S
C384 C392 1.574 . S
C384 C400 1.368 . S
H385 C393 0.950 . S
H386 C391 0.950 . S
H387 C392 0.949 . S
H388 C394 0.950 . S
H389 C395 0.950 . S
H390 C396 0.949 . S
C391 H386 0.950 . S
C391 C393 1.327 . S
C391 C397 1.429 1_556 S
C392 C384 1.574 . S
C392 H387 0.949 . S
C392 C398 1.368 . S
C393 C377 1.349 1_556 S
C393 H385 0.950 . S
C393 C391 1.327 . S
C394 C382 1.349 . S
C394 H388 0.950 . S
C394 C395 1.327 . S
C395 H389 0.950 . S
C395 C394 1.327 . S
C395 C399 1.429 . S
C396 C379 1.574 . S
C396 H390 0.949 . S
C396 C400 1.368 1_556 S
C397 C378 1.429 . S
C397 C391 1.429 1_554 S
C397 C398 1.523 . S
C398 C379 1.368 1_554 S
C398 C392 1.368 . S
C398 C397 1.523 . S
C399 C383 1.429 . S
C399 C395 1.429 . S
C399 C400 1.523 1_545 S
C400 C384 1.368 . S
C400 C396 1.368 1_554 S
C400 C399 1.523 1_565 S
H401 C376 0.950 . S
H402 C378 0.950 . S
H403 C379 0.949 . S
H404 C381 0.950 1_556 S
H405 C383 0.950 1_556 S
C406 C407 1.349 . S
C406 C408 1.327 . S
C406 H431 0.950 1_554 S
C407 C406 1.349 . S
C407 C423 1.349 . S
C408 C406 1.327 . S
C408 C427 1.429 1_655 S
C408 H432 0.950 1_554 S
C409 C426 1.574 . S
C409 C428 1.368 . S
C409 H433 0.949 . S
H410 C414 0.949 1_556 S
C411 C412 1.349 . S
C411 C413 1.327 . S
C411 H434 0.950 . S
C412 C411 1.349 . S
C412 C424 1.349 . S
C413 C411 1.327 . S
C413 C429 1.429 . S
C413 H435 0.950 . S
C414 H410 0.949 1_554 S
C414 C422 1.574 . S
C414 C430 1.368 . S
H415 C423 0.950 . S
H416 C421 0.950 1_455 S
H417 C422 0.949 1_556 S
H418 C424 0.950 1_556 S
H419 C425 0.950 1_556 S
H420 C426 0.949 . S
C421 H416 0.950 1_655 S
C421 C423 1.327 . S
C421 C427 1.429 1_655 S
C422 C414 1.574 . S
C422 H417 0.949 1_554 S
C422 C428 1.368 . S
C423 C407 1.349 . S
C423 H415 0.950 . S
C423 C421 1.327 . S
C424 C412 1.349 . S
C424 H418 0.950 1_554 S
C424 C425 1.327 . S
C425 H419 0.950 1_554 S
C425 C424 1.327 . S
C425 C429 1.429 . S
C426 C409 1.574 . S
C426 H420 0.949 . S
C426 C430 1.368 . S
C427 C408 1.429 1_455 S
C427 C421 1.429 1_455 S
C427 C428 1.523 . S
C428 C409 1.368 . S
C428 C422 1.368 . S
C428 C427 1.523 . S
C429 C413 1.429 . S
C429 C425 1.429 . S
C429 C430 1.523 . S
C430 C414 1.368 . S
C430 C426 1.368 . S
C430 C429 1.523 . S
H431 C406 0.950 1_556 S
H432 C408 0.950 1_556 S
H433 C409 0.949 . S
H434 C411 0.950 . S
H435 C413 0.950 . S
C436 C437 1.349 1_554 S
C436 C438 1.327 . S
C436 H461 0.950 . S
C437 C436 1.349 1_556 S
C437 C453 1.349 . S
C438 C436 1.327 . S
C438 C457 1.429 1_554 S
C438 H462 0.950 . S
C439 C456 1.574 . S
C439 C458 1.360 1_556 S
C439 H463 0.949 . S
H440 C444 0.949 . S
C441 C442 1.349 1_556 S
C441 C443 1.327 . S
C441 H464 0.950 . S
C442 C441 1.349 1_554 S
C442 C454 1.349 . S
C443 C441 1.327 . S
C443 C459 1.429 1_556 S
C443 H465 0.950 . S
C444 H440 0.949 . S
C444 C452 1.574 . S
C444 C460 1.368 . S
H445 C453 0.950 . S
H446 C451 0.950 . S
H447 C452 0.949 . S
H448 C454 0.950 . S
H449 C455 0.950 . S
H450 C456 0.949 . S
C451 H446 0.950 . S
C451 C453 1.327 . S
C451 C457 1.429 . S
C452 C444 1.574 . S
C452 H447 0.949 . S
C452 C458 1.378 . S
C453 C437 1.349 . S
C453 H445 0.950 . S
C453 C451 1.327 . S
C454 C442 1.349 . S
C454 H448 0.950 . S
C454 C455 1.327 . S
C455 H449 0.950 . S
C455 C454 1.327 . S
C455 C459 1.429 . S
C456 C439 1.574 . S
C456 H450 0.949 . S
C456 C460 1.368 1_556 S
C457 C438 1.429 1_556 S
C457 C451 1.429 . S
C457 C458 1.521 1_556 S
C458 C439 1.360 1_554 S
C458 C452 1.378 . S
C458 C457 1.521 1_554 S
C459 C443 1.429 1_554 S
C459 C455 1.429 . S
C459 C460 1.523 . S
C460 C444 1.368 . S
C460 C456 1.368 1_554 S
C460 C459 1.523 . S
H461 C436 0.950 . S
H462 C438 0.950 . S
H463 C439 0.949 . S
H464 C441 0.950 . S
H465 C443 0.950 . S
C466 C467 1.349 . S
C466 C468 1.327 . S
C466 H491 0.950 . S
C467 C466 1.349 . S
C467 C483 1.349 1_556 S
C468 C466 1.327 . S
C468 C487 1.429 . S
C468 H492 0.950 . S
C469 C486 1.574 . S
C469 C488 1.368 1_554 S
C469 H493 0.949 . S
H470 C474 0.949 . S
C471 C472 1.349 . S
C471 C473 1.327 . S
C471 H494 0.950 . S
C472 C471 1.349 . S
C472 C484 1.349 1_554 S
C473 C471 1.327 . S
C473 C489 1.429 1_554 S
C473 H495 0.950 . S
C474 H470 0.949 . S
C474 C482 1.574 . S
C474 C490 1.368 . S
H475 C483 0.950 . S
H476 C481 0.950 . S
H477 C482 0.949 . S
H478 C484 0.950 . S
H479 C485 0.950 . S
H480 C486 0.949 . S
C481 H476 0.950 . S
C481 C483 1.327 . S
C481 C487 1.429 1_554 S
C482 C474 1.574 . S
C482 H477 0.949 . S
C482 C488 1.368 . S
C483 C467 1.349 1_554 S
C483 H475 0.950 . S
C483 C481 1.327 . S
C484 C472 1.349 1_556 S
C484 H478 0.950 . S
C484 C485 1.327 . S
C485 H479 0.950 . S
C485 C484 1.327 . S
C485 C489 1.429 . S
C486 C469 1.574 . S
C486 H480 0.949 . S
C486 C490 1.368 1_554 S
C487 C468 1.429 . S
C487 C481 1.429 1_556 S
C487 C488 1.523 . S
C488 C469 1.368 1_556 S
C488 C482 1.368 . S
C488 C487 1.523 . S
C489 C473 1.429 1_556 S
C489 C485 1.429 . S
C489 C490 1.523 . S
C490 C474 1.368 . S
C490 C486 1.368 1_556 S
C490 C489 1.523 . S
H491 C466 0.950 . S
H492 C468 0.950 . S
H493 C469 0.949 . S
H494 C471 0.950 . S
H495 C473 0.950 . S
C496 C497 1.349 . S
C496 C498 1.327 . S
C496 H521 0.950 . S
C497 C496 1.349 . S
C497 C513 1.349 . S
C498 C496 1.327 . S
C498 C517 1.429 . S
C498 H522 0.950 . S
C499 C516 1.574 . S
C499 C518 1.368 1_556 S
C499 H523 0.949 . S
H500 C504 0.949 . S
C501 C502 1.349 . S
C501 C503 1.327 . S
C501 H524 0.950 . S
C502 C501 1.349 . S
C502 C514 1.349 1_556 S
C503 C501 1.327 . S
C503 C519 1.429 1_556 S
C503 H525 0.950 . S
C504 H500 0.949 . S
C504 C512 1.574 . S
C504 C520 1.368 . S
H505 C513 0.950 1_556 S
H506 C511 0.950 1_556 S
H507 C512 0.949 . S
H508 C514 0.950 . S
H509 C515 0.950 . S
H510 C516 0.949 . S
C511 H506 0.950 1_554 S
C511 C513 1.327 . S
C511 C517 1.429 . S
C512 C504 1.574 . S
C512 H507 0.949 . S
C512 C518 1.368 . S
C513 C497 1.349 . S
C513 H505 0.950 1_554 S
C513 C511 1.327 . S
C514 C502 1.349 1_554 S
C514 H508 0.950 . S
C514 C515 1.327 . S
C515 H509 0.950 . S
C515 C514 1.327 . S
C515 C519 1.429 . S
C516 C499 1.574 . S
C516 H510 0.949 . S
C516 C520 1.368 1_556 S
C517 C498 1.429 . S
C517 C511 1.429 . S
C517 C518 1.523 . S
C518 C499 1.368 1_554 S
C518 C512 1.368 . S
C518 C517 1.523 . S
C519 C503 1.429 1_554 S
C519 C515 1.429 . S
C519 C520 1.523 . S
C520 C504 1.368 . S
C520 C516 1.368 1_554 S
C520 C519 1.523 . S
H521 C496 0.950 . S
H522 C498 0.950 . S
H523 C499 0.949 . S
H524 C501 0.950 . S
H525 C503 0.950 . S
C526 C527 1.349 . S
C526 C528 1.327 . S
C526 H551 0.950 . S
C527 C526 1.349 . S
C527 C543 1.349 1_554 S
C528 C526 1.327 . S
C528 C547 1.429 . S
C528 H552 0.950 . S
C529 C546 1.574 . S
C529 C548 1.368 1_556 S
C529 H553 0.949 . S
H530 C534 0.949 . S
C531 C532 1.349 . S
C531 C533 1.327 . S
C531 H554 0.950 1_554 S
C532 C531 1.349 . S
C532 C544 1.349 . S
C533 C531 1.327 . S
C533 C549 1.429 . S
C533 H555 0.950 1_554 S
C534 H530 0.949 . S
C534 C542 1.574 . S
C534 C550 1.368 . S
H535 C543 0.950 . S
H536 C541 0.950 . S
H537 C542 0.949 . S
H538 C544 0.950 . S
H539 C545 0.950 . S
H540 C546 0.949 . S
C541 H536 0.950 . S
C541 C543 1.327 . S
C541 C547 1.429 1_556 S
C542 C534 1.574 . S
C542 H537 0.949 . S
C542 C548 1.368 . S
C543 C527 1.349 1_556 S
C543 H535 0.950 . S
C543 C541 1.327 . S
C544 C532 1.349 . S
C544 H538 0.950 . S
C544 C545 1.327 . S
C545 H539 0.950 . S
C545 C544 1.327 . S
C545 C549 1.429 . S
C546 C529 1.574 . S
C546 H540 0.949 . S
C546 C550 1.368 1_556 S
C547 C528 1.429 . S
C547 C541 1.429 1_554 S
C547 C548 1.523 . S
C548 C529 1.368 1_554 S
C548 C542 1.368 . S
C548 C547 1.523 . S
C549 C533 1.429 . S
C549 C545 1.429 . S
C549 C550 1.523 . S
C550 C534 1.368 . S
C550 C546 1.368 1_554 S
C550 C549 1.523 . S
H551 C526 0.950 . S
H552 C528 0.950 . S
H553 C529 0.949 . S
H554 C531 0.950 1_556 S
H555 C533 0.950 1_556 S
C137 C1 1.782 . S
C142 C71 1.785 . S
C167 C35 1.848 . S
C172 C105 1.843 . S
C197 C15 1.644 . S
C202 C22 1.640 . S
C227 C49 1.626 . S
C232 C56 1.628 . S
C257 C83 1.663 . S
C262 C90 1.667 . S
C287 C117 1.877 . S
C292 C124 1.880 . S
C317 C28 1.204 . S
C322 C103 1.150 . S
C347 C3 1.520 . S
C352 C62 1.704 . S
C377 C85 1.776 . S
C382 C37 1.642 . S
C407 C96 0.656 . S
C412 C108 0.662 . S
C437 C69 1.693 1_556 S
C442 C51 1.870 . S
C467 C130 0.686 . S
C472 C74 0.689 . S
C497 C6 0.837 . S
C502 C119 0.834 . S
C527 C40 1.440 1_554 S
C532 C17 1.441 . S
