# Generated by pormake.
# Topology snz, (6)-cn, num edge types: 1
# Building blocks:
#     Node 0, Type 0, BuildingBlock: BETDEL_clean_sbu_0, # of connection points: 6
#     Node 1, Type 0, BuildingBlock: BETDEL_clean_sbu_0, # of connection points: 6
#     Node 2, Type 0, BuildingBlock: BETDEL_clean_sbu_0, # of connection points: 6
#     Node 3, Type 0, BuildingBlock: BETDEL_clean_sbu_0, # of connection points: 6
#     Node 4, Type 0, BuildingBlock: BETDEL_clean_sbu_0, # of connection points: 6
#     Node 5, Type 0, BuildingBlock: BETDEL_clean_sbu_0, # of connection points: 6
#     Node 6, Type 0, BuildingBlock: BETDEL_clean_sbu_0, # of connection points: 6
#     Node 7, Type 0, BuildingBlock: BETDEL_clean_sbu_0, # of connection points: 6
#     Node 8, Type 0, BuildingBlock: BETDEL_clean_sbu_0, # of connection points: 6
#     Edge 9, Type (0, 0), BuildingBlock: AJUNOK_clean_linker_0, # of connection points: 2
#     Edge 10, Type (0, 0), BuildingBlock: AJUNOK_clean_linker_0, # of connection points: 2
#     Edge 11, Type (0, 0), BuildingBlock: AJUNOK_clean_linker_0, # of connection points: 2
#     Edge 12, Type (0, 0), BuildingBlock: AJUNOK_clean_linker_0, # of connection points: 2
#     Edge 13, Type (0, 0), BuildingBlock: AJUNOK_clean_linker_0, # of connection points: 2
#     Edge 14, Type (0, 0), BuildingBlock: AJUNOK_clean_linker_0, # of connection points: 2
#     Edge 15, Type (0, 0), BuildingBlock: AJUNOK_clean_linker_0, # of connection points: 2
#     Edge 16, Type (0, 0), BuildingBlock: AJUNOK_clean_linker_0, # of connection points: 2
#     Edge 17, Type (0, 0), BuildingBlock: AJUNOK_clean_linker_0, # of connection points: 2
#     Edge 18, Type (0, 0), BuildingBlock: AJUNOK_clean_linker_0, # of connection points: 2
#     Edge 19, Type (0, 0), BuildingBlock: AJUNOK_clean_linker_0, # of connection points: 2
#     Edge 20, Type (0, 0), BuildingBlock: AJUNOK_clean_linker_0, # of connection points: 2
#     Edge 21, Type (0, 0), BuildingBlock: AJUNOK_clean_linker_0, # of connection points: 2
#     Edge 22, Type (0, 0), BuildingBlock: AJUNOK_clean_linker_0, # of connection points: 2
#     Edge 23, Type (0, 0), BuildingBlock: AJUNOK_clean_linker_0, # of connection points: 2
#     Edge 24, Type (0, 0), BuildingBlock: AJUNOK_clean_linker_0, # of connection points: 2
#     Edge 25, Type (0, 0), BuildingBlock: AJUNOK_clean_linker_0, # of connection points: 2
#     Edge 26, Type (0, 0), BuildingBlock: AJUNOK_clean_linker_0, # of connection points: 2
#     Edge 27, Type (0, 0), BuildingBlock: AJUNOK_clean_linker_0, # of connection points: 2
#     Edge 28, Type (0, 0), BuildingBlock: AJUNOK_clean_linker_0, # of connection points: 2
#     Edge 29, Type (0, 0), BuildingBlock: AJUNOK_clean_linker_0, # of connection points: 2
#     Edge 30, Type (0, 0), BuildingBlock: AJUNOK_clean_linker_0, # of connection points: 2
#     Edge 31, Type (0, 0), BuildingBlock: AJUNOK_clean_linker_0, # of connection points: 2
#     Edge 32, Type (0, 0), BuildingBlock: AJUNOK_clean_linker_0, # of connection points: 2
#     Edge 33, Type (0, 0), BuildingBlock: AJUNOK_clean_linker_0, # of connection points: 2
#     Edge 34, Type (0, 0), BuildingBlock: AJUNOK_clean_linker_0, # of connection points: 2
#     Edge 35, Type (0, 0), BuildingBlock: AJUNOK_clean_linker_0, # of connection points: 2
# Relax obj value: 0.211
# Max RMSD: 0.232
# Mean RMSD: 0.174
data_MOF--net-snz--node1-BETDEL_clean_sbu_0--edge1-AJUNOK_clean_linker_0
_symmetry_space_group_name_H-M    P1
_symmetry_Int_Tables_number       1
_symmetry_cell_setting            triclinic
loop_
_symmetry_equiv_pos_as_xyz
'x, y, z'
_cell_length_a     39.435804
_cell_length_b     40.158208
_cell_length_c     10.671761
_cell_angle_alpha  91.669452
_cell_angle_beta   92.576236
_cell_angle_gamma 120.27642
loop_
_atom_site_label
_atom_site_type_symbol
_atom_site_fract_x
_atom_site_fract_y
_atom_site_fract_z
_atom_type_partial_charge
Dy0 Dy 0.11067 0.47072 1.01417 0.0
C1 C 0.99895 0.52178 0.93639 0.0
C2 C 0.15617 0.44432 0.11664 0.0
Dy3 Dy 0.04074 0.48556 0.98561 0.0
O4 O 0.16994 0.47628 0.05872 0.0
O5 O 0.11827 0.42777 0.12012 0.0
O6 O 0.12346 0.4695 0.80948 0.0
O7 O 0.07759 0.47736 0.85741 0.0
C8 C 0.09474 0.47377 0.76493 0.0
C9 C 0.05596 0.47035 0.22216 0.0
O10 O 0.00984 0.4233 0.91457 0.0
O11 O 0.05727 0.41184 1.00599 0.0
O12 O 0.99088 0.48874 0.88312 0.0
O13 O 0.02859 0.53383 1.01802 0.0
O14 O 0.02117 0.4614 0.17535 0.0
O15 O 0.08059 0.48915 0.14296 0.0
O16 O 0.14159 0.53363 0.06631 0.0
O17 O 0.09489 0.5426 0.95812 0.0
C18 C 0.02271 0.39957 0.945 0.0
C19 C 0.13001 0.55649 1.01787 0.0
Dy20 Dy 0.62914 0.55834 0.10837 0.0
C21 C 0.58068 0.39793 0.9686 0.0
C22 C 0.6457 0.62704 0.2187 0.0
Dy23 Dy 0.61614 0.47198 0.07048 0.0
O24 O 0.62102 0.6098 0.12146 0.0
O25 O 0.66167 0.60704 0.25401 0.0
O26 O 0.62888 0.56947 0.89916 0.0
O27 O 0.62212 0.51812 0.95561 0.0
C28 C 0.62441 0.53647 0.85884 0.0
C29 C 0.62183 0.49381 0.32021 0.0
O30 O 0.67987 0.50944 1.02782 0.0
O31 O 0.69059 0.56911 0.11031 0.0
O32 O 0.61378 0.41474 0.03846 0.0
O33 O 0.56892 0.42236 0.94963 0.0
O34 O 0.6187 0.46151 0.27865 0.0
O35 O 0.62281 0.51192 0.2239 0.0
O36 O 0.56598 0.52256 0.1472 0.0
O37 O 0.55543 0.46305 0.06906 0.0
C38 C 0.70354 0.54692 0.06269 0.0
C39 C 0.54254 0.48547 0.11379 0.0
Dy40 Dy 0.53787 0.99431 0.1257 0.0
C41 C 0.70211 0.09895 0.0389 0.0
C42 C 0.46627 0.94392 0.20583 0.0
Dy43 Dy 0.62799 0.06564 0.12138 0.0
O44 O 0.48436 0.93513 0.1238 0.0
O45 O 0.48733 0.98023 0.24347 0.0
O46 O 0.52618 0.98317 0.91188 0.0
O47 O 0.57957 0.02654 0.98898 0.0
C48 C 0.56054 0.01102 0.8847 0.0
C49 C 0.60536 0.05027 0.36246 0.0
O50 O 0.59267 0.09327 0.06053 0.0
O51 O 0.53075 0.04609 0.12168 0.0
O52 O 0.68963 0.11724 0.10932 0.0
O53 O 0.67356 0.06407 1.00967 0.0
O54 O 0.63913 0.07881 0.33361 0.0
O55 O 0.58648 0.03333 0.25902 0.0
O56 O 0.57107 0.96514 0.1815 0.0
O57 O 0.63331 0.01288 0.13036 0.0
C58 C 0.55481 0.08055 0.0794 0.0
C59 C 0.60856 0.97768 0.16454 0.0
Dy60 Dy 0.80721 0.85443 0.45008 0.0
C61 C 0.68819 0.89567 0.30804 0.0
C62 C 0.84588 0.81821 0.53531 0.0
Dy63 Dy 0.73605 0.87235 0.41351 0.0
O64 O 0.86339 0.85432 0.50659 0.0
O65 O 0.80811 0.8033 0.52194 0.0
O66 O 0.81951 0.85488 0.24305 0.0
O67 O 0.77479 0.86294 0.29664 0.0
C68 C 0.79125 0.86021 0.20095 0.0
C69 C 0.75248 0.86657 0.66228 0.0
O70 O 0.70619 0.8101 0.34974 0.0
O71 O 0.7515 0.79741 0.45197 0.0
O72 O 0.72528 0.91038 0.28964 0.0
O73 O 0.67699 0.86782 0.38427 0.0
O74 O 0.72458 0.87277 0.62203 0.0
O75 O 0.76835 0.86343 0.56573 0.0
O76 O 0.83691 0.91709 0.51927 0.0
O77 O 0.7896 0.93107 0.43738 0.0
C78 C 0.71691 0.78588 0.39195 0.0
C79 C 0.8248 0.9419 0.49248 0.0
Dy80 Dy 0.23089 0.87061 0.35347 0.0
C81 C 0.19786 0.71491 0.19827 0.0
C82 C 0.26837 0.9453 0.45089 0.0
Dy83 Dy 0.21594 0.78353 0.31386 0.0
O84 O 0.23251 0.92714 0.39825 0.0
O85 O 0.28194 0.92195 0.45559 0.0
O86 O 0.2282 0.88115 0.14498 0.0
O87 O 0.22306 0.83038 0.19911 0.0
C88 C 0.22443 0.84862 0.10288 0.0
C89 C 0.22192 0.80564 0.564 0.0
O90 O 0.2792 0.8188 0.27553 0.0
O91 O 0.29077 0.87735 0.36611 0.0
O92 O 0.22358 0.73191 0.29337 0.0
O93 O 0.18158 0.73505 0.16823 0.0
O94 O 0.21649 0.77227 0.52314 0.0
O95 O 0.22442 0.82412 0.4674 0.0
O96 O 0.16788 0.83395 0.40472 0.0
O97 O 0.15505 0.77396 0.31814 0.0
C98 C 0.30321 0.85515 0.31647 0.0
C99 C 0.14336 0.79654 0.37101 0.0
Dy100 Dy 0.21733 0.27868 0.31373 0.0
C101 C 0.38006 0.39827 0.23467 0.0
C102 C 0.14032 0.23818 0.37378 0.0
Dy103 Dy 0.30756 0.34975 0.3125 0.0
O104 O 0.16832 0.23307 0.42168 0.0
O105 O 0.15457 0.26429 0.29237 0.0
O106 O 0.20803 0.26422 0.10125 0.0
O107 O 0.25972 0.31026 0.17834 0.0
C108 C 0.24159 0.29339 0.07421 0.0
C109 C 0.28403 0.33508 0.55268 0.0
O110 O 0.27352 0.37712 0.24759 0.0
O111 O 0.21627 0.33379 0.33881 0.0
O112 O 0.36036 0.40915 0.30258 0.0
O113 O 0.36006 0.36114 0.20969 0.0
O114 O 0.31861 0.36223 0.5245 0.0
O115 O 0.26471 0.31878 0.44924 0.0
O116 O 0.25113 0.24858 0.35992 0.0
O117 O 0.31444 0.29778 0.31683 0.0
C118 C 0.23775 0.36612 0.2816 0.0
C119 C 0.28943 0.26208 0.3477 0.0
Dy120 Dy 0.44742 0.17823 0.62219 0.0
C121 C 0.37137 0.16734 0.03288 0.0
C122 C 0.48306 0.18485 0.40494 0.0
Dy123 Dy 0.39708 0.16585 0.80484 0.0
O124 O 0.48597 0.21307 0.4756 0.0
O125 O 0.46684 0.1543 0.46917 0.0
O126 O 0.49915 0.2192 0.74951 0.0
O127 O 0.44704 0.22088 0.75546 0.0
C128 C 0.48221 0.23589 0.80139 0.0
C129 C 0.36182 0.10704 0.63036 0.0
O130 O 0.37444 0.19542 0.68792 0.0
O131 O 0.40191 0.18742 0.51372 0.0
O132 O 0.36096 0.13625 0.9632 0.0
O133 O 0.38405 0.19532 0.95811 0.0
O134 O 0.34429 0.12263 0.68602 0.0
O135 O 0.39754 0.12314 0.67239 0.0
O136 O 0.468 0.14568 0.73181 0.0
O137 O 0.44171 0.15412 0.90806 0.0
C138 C 0.37748 0.19637 0.56624 0.0
C139 C 0.4652 0.14426 0.85348 0.0
Dy140 Dy 0.94594 0.16664 0.83544 0.0
C141 C 0.86535 0.16506 0.39913 0.0
C142 C 0.97171 0.17014 0.07441 0.0
Dy143 Dy 0.90255 0.17228 0.62756 0.0
O144 O 0.98457 0.19962 1.00519 0.0
O145 O 0.95774 0.13992 0.99768 0.0
O146 O 0.94956 0.1187 0.73895 0.0
O147 O 0.89786 0.1214 0.71218 0.0
C148 C 0.91496 0.10317 0.68091 0.0
C149 C 0.9354 0.23622 0.7818 0.0
O150 O 0.85176 0.14384 0.74181 0.0
O151 O 0.89093 0.15924 0.92408 0.0
O152 O 0.85862 0.13725 0.47103 0.0
O153 O 0.88815 0.19723 0.46469 0.0
O154 O 0.89994 0.22038 0.72991 0.0
O155 O 0.95146 0.21731 0.748 0.0
O156 O 0.9964 0.1917 0.71825 0.0
O157 O 0.95714 0.17976 0.53636 0.0
C158 C 0.85601 0.14664 0.86452 0.0
C159 C 0.99177 0.18975 0.5951 0.0
Dy160 Dy 0.9016 0.64784 0.6259 0.0
C161 C 0.98285 0.72144 0.07089 0.0
C162 C 0.86742 0.62625 0.39077 0.0
Dy163 Dy 0.94944 0.69666 0.83573 0.0
O164 O 0.85913 0.64439 0.47488 0.0
O165 O 0.88488 0.61068 0.45015 0.0
O166 O 0.89436 0.59495 0.71076 0.0
O167 O 0.9486 0.64709 0.74133 0.0
C168 C 0.92925 0.61193 0.76764 0.0
C169 C 0.92051 0.7315 0.69414 0.0
O170 O 0.99841 0.71835 0.71218 0.0
O171 O 0.95733 0.68975 0.53337 0.0
O172 O 0.99121 0.70182 0.99258 0.0
O173 O 0.96602 0.73635 1.00499 0.0
O174 O 0.95595 0.74894 0.74669 0.0
O175 O 0.90194 0.69661 0.72276 0.0
O176 O 0.85258 0.62574 0.74861 0.0
O177 O 0.89327 0.65486 0.92802 0.0
C178 C 0.99271 0.7135 0.58937 0.0
C179 C 0.858 0.63083 0.87138 0.0
C180 C 0.04748 0.46555 0.58032 0.0
C181 C 0.08527 0.47447 0.62736 0.0
C182 C 0.03805 0.46363 0.44963 0.0
C183 C 0.06619 0.47129 0.36034 0.0
H184 H 0.02478 0.45924 0.64466 0.0
H185 H 0.00846 0.45635 0.41848 0.0
S186 S 0.16985 0.49749 0.43462 0.0
N187 N 0.1511 0.49145 0.57307 0.0
N188 N 0.13381 0.48923 0.33055 0.0
C189 C 0.10419 0.48092 0.40673 0.0
C190 C 0.11358 0.48214 0.53904 0.0
C191 C 0.62264 0.548 0.62653 0.0
C192 C 0.62376 0.52483 0.72243 0.0
C193 C 0.62239 0.5384 0.4974 0.0
C194 C 0.62353 0.50523 0.45769 0.0
H195 H 0.62172 0.57388 0.65132 0.0
H196 H 0.62086 0.55688 0.4284 0.0
S197 S 0.62825 0.43549 0.67015 0.0
N198 N 0.62721 0.46777 0.7668 0.0
N199 N 0.62655 0.44949 0.5272 0.0
C200 C 0.62501 0.48204 0.55288 0.0
C201 C 0.6252 0.49184 0.68398 0.0
C202 C 0.54927 0.99721 0.6479 0.0
C203 C 0.57276 0.02187 0.75276 0.0
C204 C 0.55928 0.00643 0.52244 0.0
C205 C 0.59326 0.04096 0.49541 0.0
H206 H 0.52283 0.97019 0.66277 0.0
H207 H 0.54048 0.98613 0.44633 0.0
S208 S 0.66362 0.11686 0.73434 0.0
N209 N 0.63065 0.0833 0.81865 0.0
N210 N 0.64976 0.10059 0.58618 0.0
C211 C 0.61667 0.0661 0.59948 0.0
C212 C 0.60642 0.05666 0.72682 0.0
C213 C 0.74043 0.86751 0.89368 0.0
C214 C 0.76293 0.86463 0.79866 0.0
C215 C 0.74951 0.86629 1.02294 0.0
C216 C 0.78168 0.8623 0.06369 0.0
H217 H 0.71538 0.87069 0.86804 0.0
H218 H 0.73102 0.86829 0.09121 0.0
S219 S 0.85035 0.8539 0.85408 0.0
N220 N 0.81907 0.85786 0.75636 0.0
N221 N 0.83618 0.8555 0.9963 0.0
C222 C 0.80442 0.85945 0.96943 0.0
C223 C 0.7951 0.86064 0.83818 0.0
C224 C 0.22173 0.79329 0.79633 0.0
C225 C 0.22276 0.81742 0.70054 0.0
C226 C 0.222 0.80303 0.92542 0.0
C227 C 0.22296 0.83728 0.96529 0.0
H228 H 0.22087 0.7665 0.77151 0.0
H229 H 0.22181 0.78372 0.99426 0.0
S230 S 0.22525 0.91034 0.75323 0.0
N231 N 0.22436 0.87702 0.65655 0.0
N232 N 0.22476 0.89535 0.89595 0.0
C233 C 0.22382 0.86154 0.8702 0.0
C234 C 0.22371 0.85167 0.73916 0.0
C235 C 0.23937 0.28969 0.71216 0.0
C236 C 0.27258 0.32486 0.68538 0.0
C237 C 0.23015 0.27974 0.83761 0.0
C238 C 0.25363 0.3044 0.94245 0.0
H239 H 0.22058 0.26948 0.63587 0.0
H240 H 0.2042 0.25231 0.85244 0.0
S241 S 0.34243 0.40099 0.92419 0.0
N242 N 0.3283 0.38503 0.77597 0.0
N243 N 0.31053 0.36654 1.00852 0.0
C244 C 0.2865 0.33983 0.91663 0.0
C245 C 0.29602 0.34992 0.78936 0.0
C246 C 0.43386 0.14451 0.23971 0.0
C247 C 0.46602 0.18114 0.27761 0.0
C248 C 0.40033 0.14084 0.1781 0.0
C249 C 0.39928 0.17343 0.13859 0.0
H250 H 0.43248 0.11845 0.27124 0.0
H251 H 0.37569 0.11192 0.15547 0.0
S252 S 0.48035 0.27566 0.18917 0.0
N253 N 0.49793 0.25028 0.25499 0.0
N254 N 0.43529 0.24378 0.13281 0.0
C255 C 0.43287 0.21025 0.16638 0.0
C256 C 0.46684 0.21383 0.23119 0.0
C257 C 0.90458 0.19691 0.2268 0.0
C258 C 0.87635 0.1619 0.27251 0.0
C259 C 0.93809 0.20025 0.1777 0.0
C260 C 0.94291 0.1679 0.16139 0.0
H261 H 0.90371 0.22312 0.24605 0.0
H262 H 0.95984 0.22842 0.14923 0.0
S263 S 0.86909 0.06677 0.22351 0.0
N264 N 0.84896 0.09238 0.26608 0.0
N265 N 0.91243 0.09814 0.17488 0.0
C266 C 0.91196 0.13162 0.19164 0.0
C267 C 0.8776 0.12842 0.24 0.0
C268 C 0.90966 0.63475 0.22103 0.0
C269 C 0.88972 0.64915 0.28876 0.0
C270 C 0.94441 0.65959 0.16755 0.0
C271 C 0.95939 0.69983 0.17268 0.0
H272 H 0.8999 0.60418 0.21739 0.0
H273 H 0.95823 0.64663 0.1154 0.0
S274 S 0.91625 0.75219 0.32671 0.0
N275 N 0.88619 0.70636 0.35169 0.0
N276 N 0.95144 0.75292 0.24697 0.0
C277 C 0.93948 0.71464 0.23821 0.0
C278 C 0.90406 0.68935 0.29341 0.0
C279 C 0.23623 0.42737 0.2554 0.0
C280 C 0.21819 0.38697 0.23783 0.0
C281 C 0.21646 0.44649 0.21419 0.0
C282 C 0.17833 0.42551 0.15487 0.0
H283 H 0.2653 0.44404 0.3029 0.0
H284 H 0.23059 0.47751 0.23118 0.0
S285 S 0.12258 0.32079 0.06364 0.0
N286 N 0.16303 0.32781 0.14099 0.0
N287 N 0.12571 0.36334 0.06649 0.0
C288 C 0.16105 0.3855 0.13202 0.0
C289 C 0.18108 0.36629 0.17274 0.0
C290 C 0.65366 0.69223 0.1995 0.0
C291 C 0.65733 0.66563 0.27324 0.0
C292 C 0.67063 0.73103 0.24253 0.0
C293 C 0.6916 0.74416 0.36058 0.0
H294 H 0.63964 0.68357 0.10525 0.0
H295 H 0.66949 0.75122 0.17977 0.0
S296 S 0.70127 0.6838 0.59999 0.0
N297 N 0.67771 0.65351 0.47686 0.0
N298 N 0.70941 0.72637 0.55827 0.0
C299 C 0.69238 0.71705 0.43919 0.0
C300 C 0.67528 0.67772 0.39529 0.0
C301 C 0.41125 0.93074 0.33801 0.0
C302 C 0.42619 0.91784 0.24327 0.0
C303 C 0.37189 0.90899 0.36579 0.0
C304 C 0.34583 0.87359 0.29933 0.0
H305 H 0.42976 0.95843 0.3888 0.0
H306 H 0.3616 0.92073 0.43752 0.0
S307 S 0.37161 0.82547 0.04979 0.0
N308 N 0.41307 0.86618 0.08929 0.0
N309 N 0.33867 0.82529 0.14039 0.0
C310 C 0.36098 0.85929 0.209 0.0
C311 C 0.40128 0.88149 0.18106 0.0
C312 C 0.49899 0.09391 0.08006 0.0
C313 C 0.53619 0.10319 0.03861 0.0
C314 C 0.47685 0.10898 1.02521 0.0
C315 C 0.49097 0.13376 0.92652 0.0
H316 H 0.48598 0.07345 0.15193 0.0
H317 H 0.44757 0.09928 0.05492 0.0
S318 S 0.58813 0.17089 0.79245 0.0
N319 N 0.58727 0.14167 0.89949 0.0
N320 N 0.54593 0.17005 0.79747 0.0
C321 C 0.52903 0.1452 0.88948 0.0
C322 C 0.55163 0.13004 0.9455 0.0
C323 C 0.93811 0.29656 0.86749 0.0
C324 C 0.95787 0.27742 0.8279 0.0
C325 C 0.95887 0.3363 0.90399 0.0
C326 C 1.00008 0.35807 0.90267 0.0
H327 H 0.90636 0.28073 0.86992 0.0
H328 H 0.94269 0.34988 0.93483 0.0
S329 S 0.06512 0.32278 0.79276 0.0
N330 N 0.02074 0.28411 0.78179 0.0
N331 N 0.05948 0.35828 0.84887 0.0
C332 C 0.01999 0.33936 0.8611 0.0
C333 C 0.99899 0.29916 0.82437 0.0
C334 C 0.79665 0.56929 0.90464 0.0
C335 C 0.82291 0.60831 0.94295 0.0
C336 C 0.75909 0.54875 0.95054 0.0
C337 C 0.74599 0.5666 0.03548 0.0
H338 H 0.80459 0.55494 0.83413 0.0
H339 H 0.73948 0.51936 0.91334 0.0
S340 S 0.80475 0.668 0.17025 0.0
N341 N 0.83419 0.6636 0.07441 0.0
N342 N 0.76409 0.62534 0.16336 0.0
C343 C 0.77305 0.60515 0.08005 0.0
C344 C 0.81137 0.62593 0.03318 0.0
C345 C 0.92575 0.54898 0.80417 0.0
C346 C 0.94715 0.58971 0.8171 0.0
C347 C 0.94255 0.52704 0.84311 0.0
C348 C 0.98095 0.54497 0.89959 0.0
H349 H 0.89599 0.53382 0.76119 0.0
H350 H 0.92532 0.49586 0.82919 0.0
S351 S 0.04941 0.65055 0.95555 0.0
N352 N 0.00907 0.64688 0.88838 0.0
N353 N 0.03999 0.60581 0.96725 0.0
C354 C 1.0024 0.58558 0.9156 0.0
C355 C 0.98565 0.60791 0.87298 0.0
C356 C 0.51785 0.34185 0.87506 0.0
C357 C 0.55625 0.3562 0.9301 0.0
C358 C 0.49314 0.3025 0.83958 0.0
C359 C 0.50604 0.27602 0.85644 0.0
H360 H 0.50669 0.36119 0.85871 0.0
H361 H 0.46425 0.29306 0.79491 0.0
S362 S 0.60258 0.29793 1.00478 0.0
N363 N 0.60494 0.3402 1.00666 0.0
N364 N 0.55876 0.26631 0.93822 0.0
C365 C 0.5439 0.28971 0.91446 0.0
C366 C 0.56896 0.32977 0.95162 0.0
C367 C 0.7879 0.09726 0.90035 0.0
C368 C 0.82002 0.13438 0.93126 0.0
C369 C 0.75031 0.08649 0.93699 0.0
C370 C 0.74303 0.11252 1.00536 0.0
H371 H 0.79161 0.07668 0.84329 0.0
H372 H 0.72657 0.05755 0.909 0.0
S373 S 0.81753 0.21349 0.11016 0.0
N374 N 0.84253 0.19754 0.03338 0.0
N375 N 0.77168 0.17702 0.10586 0.0
C376 C 0.77514 0.14958 0.03997 0.0
C377 C 0.8137 0.16059 1.002 0.0
C378 C 0.66171 0.96208 0.14465 0.0
C379 C 0.62503 0.95241 0.18984 0.0
C380 C 0.68091 0.94222 0.17917 0.0
C381 C 0.66429 0.91189 0.26023 0.0
H382 H 0.67638 0.98593 0.08453 0.0
H383 H 0.70967 0.95162 0.14499 0.0
S384 S 0.56738 0.87269 0.39615 0.0
N385 N 0.57153 0.90853 0.31344 0.0
N386 N 0.60789 0.87104 0.37805 0.0
C387 C 0.62675 0.9004 0.30103 0.0
C388 C 0.60704 0.9207 0.26577 0.0
C389 C 0.19303 0.65082 0.20758 0.0
C390 C 0.18605 0.67657 0.14032 0.0
C391 C 0.17706 0.61236 0.16249 0.0
C392 C 0.15366 0.5985 0.04858 0.0
H393 H 0.20918 0.65983 0.29872 0.0
H394 H 0.18112 0.59289 0.22113 0.0
S395 S 0.13457 0.65694 0.82414 0.0
N396 N 0.1597 0.68744 0.94552 0.0
N397 N 0.12968 0.6151 0.86035 0.0
C398 C 0.14927 0.62486 0.97572 0.0
C399 C 0.16547 0.66397 1.02177 0.0
C400 C 0.4746 0.42899 0.08067 0.0
C401 C 0.50003 0.46662 0.13392 0.0
C402 C 0.43548 0.40781 0.11091 0.0
C403 C 0.42007 0.42338 0.19511 0.0
H404 H 0.48515 0.41513 1.01753 0.0
H405 H 0.41748 0.37857 0.0701 0.0
S406 S 0.47274 0.52167 0.3523 0.0
N407 N 0.50599 0.51954 0.26917 0.0
N408 N 0.43194 0.47944 0.32501 0.0
C409 C 0.44426 0.4616 0.24417 0.0
C410 C 0.48438 0.48332 0.21368 0.0
C411 C 0.92332 0.79344 0.64402 0.0
C412 C 0.90131 0.75289 0.64834 0.0
C413 C 0.90545 0.81459 0.60644 0.0
C414 C 0.86495 0.79592 0.5721 0.0
H415 H 0.95457 0.80907 0.67093 0.0
H416 H 0.92337 0.84573 0.60573 0.0
S417 S 0.79486 0.69001 0.55746 0.0
N418 N 0.83723 0.69491 0.60968 0.0
N419 N 0.80377 0.73423 0.53719 0.0
C420 C 0.84282 0.75531 0.57315 0.0
C421 C 0.86096 0.7339 0.61178 0.0
C422 C 0.29766 0.04842 0.55458 0.0
C423 C 0.33906 0.06698 0.57274 0.0
C424 C 0.27479 0.00922 0.5132 0.0
C425 C 0.29247 0.98706 0.48954 0.0
H426 H 0.28262 0.06407 0.57503 0.0
H427 H 0.24308 0.996 0.5026 0.0
S428 S 0.39993 0.02279 0.50881 0.0
N429 N 0.39681 0.0608 0.55344 0.0
N430 N 0.35414 0.98734 0.47737 0.0
C431 C 0.33392 0.00563 0.50278 0.0
C432 C 0.35714 0.04554 0.54366 0.0
C433 C 0.05236 0.18589 0.571 0.0
C434 C 0.02649 0.19804 0.52506 0.0
C435 C 0.08834 0.19742 0.51793 0.0
C436 C 0.09997 0.22182 0.4175 0.0
H437 H 0.04514 0.16801 0.65084 0.0
H438 H 0.10772 0.18824 0.55877 0.0
S439 S 0.04299 0.26208 0.26436 0.0
N440 N 0.01492 0.23565 0.37399 0.0
N441 N 0.08218 0.25724 0.27302 0.0
C442 C 0.07375 0.23322 0.36844 0.0
C443 C 0.03707 0.22133 0.42239 0.0
C444 C 0.36587 0.23135 0.39319 0.0
C445 C 0.35159 0.20638 0.49146 0.0
C446 C 0.34418 0.24725 0.34066 0.0
C447 C 0.30721 0.2383 0.3833 0.0
H448 H 0.39499 0.24067 0.36258 0.0
H449 H 0.35737 0.26814 0.27007 0.0
S450 S 0.25456 0.16955 0.62605 0.0
N451 N 0.29646 0.16986 0.6196 0.0
N452 N 0.25585 0.19945 0.52096 0.0
C453 C 0.29137 0.21085 0.47439 0.0
C454 C 0.31357 0.19503 0.52857 0.0
C455 C 0.83331 0.00766 0.53085 0.0
C456 C 0.85001 0.98369 0.53222 0.0
C457 C 0.85485 0.04643 0.57585 0.0
C458 C 0.8941 0.06314 0.6234 0.0
H459 H 0.80292 0.99629 0.49778 0.0
H460 H 0.84026 0.06321 0.57548 0.0
S461 S 0.95314 0.01457 0.63785 0.0
N462 N 0.90926 0.98061 0.57861 0.0
N463 N 0.94991 0.05366 0.66166 0.0
C464 C 0.91184 0.04018 0.62077 0.0
C465 C 0.88973 1.00046 0.5758 0.0
C466 C 0.05462 0.77458 0.55423 0.0
C467 C 0.02735 0.73582 0.51586 0.0
C468 C 0.09097 0.79499 0.5005 0.0
C469 C 0.10178 0.77723 0.40735 0.0
H470 H 0.04834 0.78889 0.62969 0.0
H471 H 0.11153 0.82418 0.53747 0.0
S472 S 0.03967 0.67627 0.27168 0.0
N473 N 0.01276 0.68075 0.37749 0.0
N474 N 0.0805 0.71871 0.27391 0.0
C475 C 0.0737 0.73888 0.36393 0.0
C476 C 0.03665 0.71827 0.41879 0.0
loop_
_geom_bond_atom_site_label_1
_geom_bond_atom_site_label_2
_geom_bond_distance
_geom_bond_site_symmetry_2
_ccdc_geom_bond_type
Dy0 O4 2.398 1_554 S
Dy0 O5 2.491 . S
Dy0 O6 2.403 1_554 S
Dy0 O7 2.664 1_554 S
Dy0 O11 2.326 1_554 S
Dy0 O15 2.310 . S
Dy0 O16 2.351 . S
C1 O12 1.185 1_556 S
C1 O13 1.355 . S
C2 O4 1.185 1_554 S
C2 O5 1.355 . S
Dy3 O7 2.316 1_655 S
Dy3 O10 2.352 . S
Dy3 O12 2.396 1_556 S
Dy3 O13 2.497 . S
Dy3 O14 2.393 1_556 S
Dy3 O15 2.658 1_656 S
Dy3 O17 2.323 1_656 S
O4 Dy0 2.398 1_556 S
O4 C2 1.185 1_556 S
O5 Dy0 2.491 . S
O5 C2 1.355 . S
O6 Dy0 2.403 1_556 S
O6 C8 1.254 . S
O7 Dy0 2.664 1_556 S
O7 Dy3 2.316 1_455 S
O7 C8 1.268 . S
C8 O6 1.254 . S
C8 O7 1.268 . S
C9 O14 1.254 1_455 S
C9 O15 1.268 . S
O10 Dy3 2.352 . S
O10 C18 1.229 1_655 S
O11 Dy0 2.326 1_556 S
O11 C18 1.286 . S
O12 C1 1.185 1_554 S
O12 Dy3 2.396 1_554 S
O13 C1 1.355 . S
O13 Dy3 2.497 . S
O14 Dy3 2.393 1_554 S
O14 C9 1.254 1_655 S
O15 Dy0 2.310 . S
O15 Dy3 2.658 1_454 S
O15 C9 1.268 . S
O16 Dy0 2.351 . S
O16 C19 1.249 . S
O17 Dy3 2.323 1_454 S
O17 C19 1.267 . S
C18 O10 1.229 1_455 S
C18 O11 1.286 . S
C19 O16 1.249 . S
C19 O17 1.267 . S
Dy20 O24 2.398 . S
Dy20 O25 2.491 . S
Dy20 O26 2.403 1_554 S
Dy20 O27 2.664 1_554 S
Dy20 O31 2.326 . S
Dy20 O35 2.310 . S
Dy20 O36 2.351 . S
C21 O32 1.185 . S
C21 O33 1.355 1_554 S
C22 O24 1.185 . S
C22 O25 1.355 . S
Dy23 O27 2.310 1_554 S
Dy23 O30 2.351 . S
Dy23 O32 2.398 . S
Dy23 O33 2.491 1_554 S
Dy23 O34 2.403 . S
Dy23 O35 2.664 . S
Dy23 O37 2.326 . S
O24 Dy20 2.398 . S
O24 C22 1.185 . S
O25 Dy20 2.491 . S
O25 C22 1.355 . S
O26 Dy20 2.403 1_556 S
O26 C28 1.254 . S
O27 Dy20 2.664 1_556 S
O27 Dy23 2.310 1_556 S
O27 C28 1.268 . S
C28 O26 1.254 . S
C28 O27 1.268 . S
C29 O34 1.254 . S
C29 O35 1.268 . S
O30 Dy23 2.351 . S
O30 C38 1.249 . S
O31 Dy20 2.326 . S
O31 C38 1.267 . S
O32 C21 1.185 . S
O32 Dy23 2.398 . S
O33 C21 1.355 1_556 S
O33 Dy23 2.491 1_556 S
O34 Dy23 2.403 . S
O34 C29 1.254 . S
O35 Dy20 2.310 . S
O35 Dy23 2.664 . S
O35 C29 1.268 . S
O36 Dy20 2.351 . S
O36 C39 1.249 . S
O37 Dy23 2.326 . S
O37 C39 1.267 . S
C38 O30 1.249 . S
C38 O31 1.267 . S
C39 O36 1.249 . S
C39 O37 1.267 . S
Dy40 O44 2.398 1_545 S
Dy40 O45 2.491 . S
Dy40 O46 2.403 1_554 S
Dy40 O47 2.664 . S
Dy40 O51 2.326 . S
Dy40 O55 2.310 . S
Dy40 O56 2.351 1_545 S
C41 O52 1.185 . S
C41 O53 1.355 . S
C42 O44 1.185 . S
C42 O45 1.355 1_565 S
Dy43 O47 2.310 . S
Dy43 O50 2.351 . S
Dy43 O52 2.398 . S
Dy43 O53 2.491 . S
Dy43 O54 2.403 . S
Dy43 O55 2.664 . S
Dy43 O57 2.326 . S
O44 Dy40 2.398 1_565 S
O44 C42 1.185 . S
O45 Dy40 2.491 . S
O45 C42 1.355 1_545 S
O46 Dy40 2.403 1_556 S
O46 C48 1.254 . S
O47 Dy40 2.664 . S
O47 Dy43 2.310 . S
O47 C48 1.268 1_554 S
C48 O46 1.254 . S
C48 O47 1.268 1_556 S
C49 O54 1.254 . S
C49 O55 1.268 . S
O50 Dy43 2.351 . S
O50 C58 1.249 . S
O51 Dy40 2.326 . S
O51 C58 1.267 . S
O52 C41 1.185 . S
O52 Dy43 2.398 . S
O53 C41 1.355 . S
O53 Dy43 2.491 . S
O54 Dy43 2.403 . S
O54 C49 1.254 . S
O55 Dy40 2.310 . S
O55 Dy43 2.664 . S
O55 C49 1.268 . S
O56 Dy40 2.351 1_565 S
O56 C59 1.249 1_565 S
O57 Dy43 2.326 . S
O57 C59 1.267 . S
C58 O50 1.249 . S
C58 O51 1.267 . S
C59 O56 1.249 1_545 S
C59 O57 1.267 . S
Dy60 O64 2.398 . S
Dy60 O65 2.491 . S
Dy60 O66 2.403 . S
Dy60 O67 2.664 . S
Dy60 O71 2.326 . S
Dy60 O75 2.310 . S
Dy60 O76 2.351 . S
C61 O72 1.185 . S
C61 O73 1.355 . S
C62 O64 1.185 . S
C62 O65 1.355 . S
Dy63 O67 2.310 . S
Dy63 O70 2.351 . S
Dy63 O72 2.398 . S
Dy63 O73 2.491 . S
Dy63 O74 2.403 . S
Dy63 O75 2.664 . S
Dy63 O77 2.326 . S
O64 Dy60 2.398 . S
O64 C62 1.185 . S
O65 Dy60 2.491 . S
O65 C62 1.355 . S
O66 Dy60 2.403 . S
O66 C68 1.254 . S
O67 Dy60 2.664 . S
O67 Dy63 2.310 . S
O67 C68 1.268 . S
C68 O66 1.254 . S
C68 O67 1.268 . S
C69 O74 1.254 . S
C69 O75 1.268 . S
O70 Dy63 2.351 . S
O70 C78 1.249 . S
O71 Dy60 2.326 . S
O71 C78 1.267 . S
O72 C61 1.185 . S
O72 Dy63 2.398 . S
O73 C61 1.355 . S
O73 Dy63 2.491 . S
O74 Dy63 2.403 . S
O74 C69 1.254 . S
O75 Dy60 2.310 . S
O75 Dy63 2.664 . S
O75 C69 1.268 . S
O76 Dy60 2.351 . S
O76 C79 1.249 . S
O77 Dy63 2.326 . S
O77 C79 1.267 . S
C78 O70 1.249 . S
C78 O71 1.267 . S
C79 O76 1.249 . S
C79 O77 1.267 . S
Dy80 O84 2.398 . S
Dy80 O85 2.491 . S
Dy80 O86 2.403 . S
Dy80 O87 2.664 . S
Dy80 O91 2.326 . S
Dy80 O95 2.310 . S
Dy80 O96 2.351 . S
C81 O92 1.185 . S
C81 O93 1.355 . S
C82 O84 1.185 . S
C82 O85 1.355 . S
Dy83 O87 2.310 . S
Dy83 O90 2.351 . S
Dy83 O92 2.398 . S
Dy83 O93 2.491 . S
Dy83 O94 2.403 . S
Dy83 O95 2.664 . S
Dy83 O97 2.326 . S
O84 Dy80 2.398 . S
O84 C82 1.185 . S
O85 Dy80 2.491 . S
O85 C82 1.355 . S
O86 Dy80 2.403 . S
O86 C88 1.254 . S
O87 Dy80 2.664 . S
O87 Dy83 2.310 . S
O87 C88 1.268 . S
C88 O86 1.254 . S
C88 O87 1.268 . S
C89 O94 1.254 . S
C89 O95 1.268 . S
O90 Dy83 2.351 . S
O90 C98 1.249 . S
O91 Dy80 2.326 . S
O91 C98 1.267 . S
O92 C81 1.185 . S
O92 Dy83 2.398 . S
O93 C81 1.355 . S
O93 Dy83 2.491 . S
O94 Dy83 2.403 . S
O94 C89 1.254 . S
O95 Dy80 2.310 . S
O95 Dy83 2.664 . S
O95 C89 1.268 . S
O96 Dy80 2.351 . S
O96 C99 1.249 . S
O97 Dy83 2.326 . S
O97 C99 1.267 . S
C98 O90 1.249 . S
C98 O91 1.267 . S
C99 O96 1.249 . S
C99 O97 1.267 . S
Dy100 O104 2.398 . S
Dy100 O105 2.491 . S
Dy100 O106 2.403 1_554 S
Dy100 O107 2.664 . S
Dy100 O111 2.326 . S
Dy100 O115 2.310 . S
Dy100 O116 2.351 . S
C101 O112 1.185 . S
C101 O113 1.355 . S
C102 O104 1.185 . S
C102 O105 1.355 . S
Dy103 O107 2.310 . S
Dy103 O110 2.351 . S
Dy103 O112 2.398 . S
Dy103 O113 2.491 . S
Dy103 O114 2.403 . S
Dy103 O115 2.664 . S
Dy103 O117 2.326 . S
O104 Dy100 2.398 . S
O104 C102 1.185 . S
O105 Dy100 2.491 . S
O105 C102 1.355 . S
O106 Dy100 2.403 1_556 S
O106 C108 1.254 . S
O107 Dy100 2.664 . S
O107 Dy103 2.310 . S
O107 C108 1.268 1_554 S
C108 O106 1.254 . S
C108 O107 1.268 1_556 S
C109 O114 1.254 . S
C109 O115 1.268 . S
O110 Dy103 2.351 . S
O110 C118 1.249 . S
O111 Dy100 2.326 . S
O111 C118 1.267 . S
O112 C101 1.185 . S
O112 Dy103 2.398 . S
O113 C101 1.355 . S
O113 Dy103 2.491 . S
O114 Dy103 2.403 . S
O114 C109 1.254 . S
O115 Dy100 2.310 . S
O115 Dy103 2.664 . S
O115 C109 1.268 . S
O116 Dy100 2.351 . S
O116 C119 1.249 . S
O117 Dy103 2.326 . S
O117 C119 1.267 . S
C118 O110 1.249 . S
C118 O111 1.267 . S
C119 O116 1.249 . S
C119 O117 1.267 . S
Dy120 O124 2.398 . S
Dy120 O125 2.491 . S
Dy120 O126 2.403 . S
Dy120 O127 2.664 . S
Dy120 O131 2.326 . S
Dy120 O135 2.310 . S
Dy120 O136 2.351 . S
C121 O132 1.185 . S
C121 O133 1.355 . S
C122 O124 1.185 . S
C122 O125 1.355 . S
Dy123 O127 2.310 . S
Dy123 O130 2.351 . S
Dy123 O132 2.398 1_556 S
Dy123 O133 2.491 1_556 S
Dy123 O134 2.403 . S
Dy123 O135 2.664 . S
Dy123 O137 2.326 . S
O124 Dy120 2.398 . S
O124 C122 1.185 . S
O125 Dy120 2.491 . S
O125 C122 1.355 . S
O126 Dy120 2.403 . S
O126 C128 1.254 . S
O127 Dy120 2.664 . S
O127 Dy123 2.310 . S
O127 C128 1.268 . S
C128 O126 1.254 . S
C128 O127 1.268 . S
C129 O134 1.254 . S
C129 O135 1.268 . S
O130 Dy123 2.351 . S
O130 C138 1.249 . S
O131 Dy120 2.326 . S
O131 C138 1.267 . S
O132 C121 1.185 . S
O132 Dy123 2.398 1_554 S
O133 C121 1.355 . S
O133 Dy123 2.491 1_554 S
O134 Dy123 2.403 . S
O134 C129 1.254 . S
O135 Dy120 2.310 . S
O135 Dy123 2.664 . S
O135 C129 1.268 . S
O136 Dy120 2.351 . S
O136 C139 1.249 . S
O137 Dy123 2.326 . S
O137 C139 1.267 . S
C138 O130 1.249 . S
C138 O131 1.267 . S
C139 O136 1.249 . S
C139 O137 1.267 . S
Dy140 O144 2.398 1_556 S
Dy140 O145 2.491 1_556 S
Dy140 O146 2.403 . S
Dy140 O147 2.664 . S
Dy140 O151 2.326 . S
Dy140 O155 2.310 . S
Dy140 O156 2.351 . S
C141 O152 1.185 . S
C141 O153 1.355 . S
C142 O144 1.185 . S
C142 O145 1.355 . S
Dy143 O147 2.310 . S
Dy143 O150 2.351 . S
Dy143 O152 2.398 . S
Dy143 O153 2.491 . S
Dy143 O154 2.403 . S
Dy143 O155 2.664 . S
Dy143 O157 2.326 . S
O144 Dy140 2.398 1_554 S
O144 C142 1.185 . S
O145 Dy140 2.491 1_554 S
O145 C142 1.355 . S
O146 Dy140 2.403 . S
O146 C148 1.254 . S
O147 Dy140 2.664 . S
O147 Dy143 2.310 . S
O147 C148 1.268 . S
C148 O146 1.254 . S
C148 O147 1.268 . S
C149 O154 1.254 . S
C149 O155 1.268 . S
O150 Dy143 2.351 . S
O150 C158 1.249 . S
O151 Dy140 2.326 . S
O151 C158 1.267 . S
O152 C141 1.185 . S
O152 Dy143 2.398 . S
O153 C141 1.355 . S
O153 Dy143 2.491 . S
O154 Dy143 2.403 . S
O154 C149 1.254 . S
O155 Dy140 2.310 . S
O155 Dy143 2.664 . S
O155 C149 1.268 . S
O156 Dy140 2.351 . S
O156 C159 1.249 . S
O157 Dy143 2.326 . S
O157 C159 1.267 . S
C158 O150 1.249 . S
C158 O151 1.267 . S
C159 O156 1.249 . S
C159 O157 1.267 . S
Dy160 O164 2.398 . S
Dy160 O165 2.491 . S
Dy160 O166 2.403 . S
Dy160 O167 2.664 . S
Dy160 O171 2.326 . S
Dy160 O175 2.310 . S
Dy160 O176 2.351 . S
C161 O172 1.185 . S
C161 O173 1.355 . S
C162 O164 1.185 . S
C162 O165 1.355 . S
Dy163 O167 2.310 . S
Dy163 O170 2.351 . S
Dy163 O172 2.398 1_556 S
Dy163 O173 2.491 1_556 S
Dy163 O174 2.403 . S
Dy163 O175 2.664 . S
Dy163 O177 2.326 . S
O164 Dy160 2.398 . S
O164 C162 1.185 . S
O165 Dy160 2.491 . S
O165 C162 1.355 . S
O166 Dy160 2.403 . S
O166 C168 1.254 . S
O167 Dy160 2.664 . S
O167 Dy163 2.310 . S
O167 C168 1.268 . S
C168 O166 1.254 . S
C168 O167 1.268 . S
C169 O174 1.254 . S
C169 O175 1.268 . S
O170 Dy163 2.351 . S
O170 C178 1.249 . S
O171 Dy160 2.326 . S
O171 C178 1.267 . S
O172 C161 1.185 . S
O172 Dy163 2.398 1_554 S
O173 C161 1.355 . S
O173 Dy163 2.491 1_554 S
O174 Dy163 2.403 . S
O174 C169 1.254 . S
O175 Dy160 2.310 . S
O175 Dy163 2.664 . S
O175 C169 1.268 . S
O176 Dy160 2.351 . S
O176 C179 1.249 . S
O177 Dy163 2.326 . S
O177 C179 1.267 . S
C178 O170 1.249 . S
C178 O171 1.267 . S
C179 O176 1.249 . S
C179 O177 1.267 . S
C180 C181 1.369 . S
C180 C182 1.419 . S
C180 H184 0.930 . S
C181 C180 1.369 . S
C181 C190 1.429 . S
C182 C180 1.419 . S
C182 C183 1.363 . S
C182 H185 0.929 1_455 S
C183 C182 1.363 . S
C183 C189 1.428 . S
H184 C180 0.930 . S
H185 C182 0.929 1_655 S
S186 N187 1.613 . S
S186 N188 1.610 . S
N187 S186 1.613 . S
N187 C190 1.350 . S
N188 S186 1.610 . S
N188 C189 1.351 . S
C189 C183 1.428 . S
C189 N188 1.351 . S
C189 C190 1.434 . S
C190 C181 1.429 . S
C190 N187 1.350 . S
C190 C189 1.434 . S
C191 C192 1.369 . S
C191 C193 1.419 . S
C191 H195 0.930 . S
C192 C191 1.369 . S
C192 C201 1.429 . S
C193 C191 1.419 . S
C193 C194 1.363 . S
C193 H196 0.929 . S
C194 C193 1.363 . S
C194 C200 1.428 . S
H195 C191 0.930 . S
H196 C193 0.929 . S
S197 N198 1.613 . S
S197 N199 1.610 . S
N198 S197 1.613 . S
N198 C201 1.350 . S
N199 S197 1.610 . S
N199 C200 1.351 . S
C200 C194 1.428 . S
C200 N199 1.351 . S
C200 C201 1.434 . S
C201 C192 1.429 . S
C201 N198 1.350 . S
C201 C200 1.434 . S
C202 C203 1.369 . S
C202 C204 1.419 . S
C202 H206 0.930 1_545 S
C203 C202 1.369 . S
C203 C212 1.429 . S
C204 C202 1.419 . S
C204 C205 1.363 . S
C204 H207 0.929 . S
C205 C204 1.363 . S
C205 C211 1.428 . S
H206 C202 0.930 1_565 S
H207 C204 0.929 . S
S208 N209 1.613 . S
S208 N210 1.610 . S
N209 S208 1.613 . S
N209 C212 1.350 . S
N210 S208 1.610 . S
N210 C211 1.351 . S
C211 C205 1.428 . S
C211 N210 1.351 . S
C211 C212 1.434 . S
C212 C203 1.429 . S
C212 N209 1.350 . S
C212 C211 1.434 . S
C213 C214 1.369 . S
C213 C215 1.419 . S
C213 H217 0.930 . S
C214 C213 1.369 . S
C214 C223 1.429 . S
C215 C213 1.419 . S
C215 C216 1.363 . S
C215 H218 0.929 . S
C216 C215 1.363 . S
C216 C222 1.428 . S
H217 C213 0.930 . S
H218 C215 0.929 . S
S219 N220 1.613 . S
S219 N221 1.610 . S
N220 S219 1.613 . S
N220 C223 1.350 . S
N221 S219 1.610 . S
N221 C222 1.351 . S
C222 C216 1.428 . S
C222 N221 1.351 . S
C222 C223 1.434 . S
C223 C214 1.429 . S
C223 N220 1.350 . S
C223 C222 1.434 . S
C224 C225 1.369 . S
C224 C226 1.419 . S
C224 H228 0.930 . S
C225 C224 1.369 . S
C225 C234 1.429 . S
C226 C224 1.419 . S
C226 C227 1.363 . S
C226 H229 0.929 . S
C227 C226 1.363 . S
C227 C233 1.428 . S
H228 C224 0.930 . S
H229 C226 0.929 . S
S230 N231 1.613 . S
S230 N232 1.610 . S
N231 S230 1.613 . S
N231 C234 1.350 . S
N232 S230 1.610 . S
N232 C233 1.351 . S
C233 C227 1.428 . S
C233 N232 1.351 . S
C233 C234 1.434 . S
C234 C225 1.429 . S
C234 N231 1.350 . S
C234 C233 1.434 . S
C235 C236 1.369 . S
C235 C237 1.419 . S
C235 H239 0.930 . S
C236 C235 1.369 . S
C236 C245 1.429 . S
C237 C235 1.419 . S
C237 C238 1.363 . S
C237 H240 0.929 . S
C238 C237 1.363 . S
C238 C244 1.428 . S
H239 C235 0.930 . S
H240 C237 0.929 . S
S241 N242 1.613 . S
S241 N243 1.610 . S
N242 S241 1.613 . S
N242 C245 1.350 . S
N243 S241 1.610 . S
N243 C244 1.351 . S
C244 C238 1.428 . S
C244 N243 1.351 . S
C244 C245 1.434 . S
C245 C236 1.429 . S
C245 N242 1.350 . S
C245 C244 1.434 . S
C246 C247 1.369 . S
C246 C248 1.419 . S
C246 H250 0.930 . S
C247 C246 1.369 . S
C247 C256 1.429 . S
C248 C246 1.419 . S
C248 C249 1.363 . S
C248 H251 0.929 . S
C249 C248 1.363 . S
C249 C255 1.428 . S
H250 C246 0.930 . S
H251 C248 0.929 . S
S252 N253 1.613 . S
S252 N254 1.610 . S
N253 S252 1.613 . S
N253 C256 1.350 . S
N254 S252 1.610 . S
N254 C255 1.351 . S
C255 C249 1.428 . S
C255 N254 1.351 . S
C255 C256 1.434 . S
C256 C247 1.429 . S
C256 N253 1.350 . S
C256 C255 1.434 . S
C257 C258 1.369 . S
C257 C259 1.419 . S
C257 H261 0.930 . S
C258 C257 1.369 . S
C258 C267 1.429 . S
C259 C257 1.419 . S
C259 C260 1.363 . S
C259 H262 0.929 . S
C260 C259 1.363 . S
C260 C266 1.428 . S
H261 C257 0.930 . S
H262 C259 0.929 . S
S263 N264 1.613 . S
S263 N265 1.610 . S
N264 S263 1.613 . S
N264 C267 1.350 . S
N265 S263 1.610 . S
N265 C266 1.351 . S
C266 C260 1.428 . S
C266 N265 1.351 . S
C266 C267 1.434 . S
C267 C258 1.429 . S
C267 N264 1.350 . S
C267 C266 1.434 . S
C268 C269 1.369 . S
C268 C270 1.419 . S
C268 H272 0.930 . S
C269 C268 1.369 . S
C269 C278 1.429 . S
C270 C268 1.419 . S
C270 C271 1.363 . S
C270 H273 0.929 . S
C271 C270 1.363 . S
C271 C277 1.428 . S
H272 C268 0.930 . S
H273 C270 0.929 . S
S274 N275 1.613 . S
S274 N276 1.610 . S
N275 S274 1.613 . S
N275 C278 1.350 . S
N276 S274 1.610 . S
N276 C277 1.351 . S
C277 C271 1.428 . S
C277 N276 1.351 . S
C277 C278 1.434 . S
C278 C269 1.429 . S
C278 N275 1.350 . S
C278 C277 1.434 . S
C279 C280 1.369 . S
C279 C281 1.419 . S
C279 H283 0.930 . S
C280 C279 1.369 . S
C280 C289 1.429 . S
C281 C279 1.419 . S
C281 C282 1.363 . S
C281 H284 0.929 . S
C282 C281 1.363 . S
C282 C288 1.428 . S
H283 C279 0.930 . S
H284 C281 0.929 . S
S285 N286 1.613 1_556 S
S285 N287 1.610 . S
N286 S285 1.613 1_554 S
N286 C289 1.350 . S
N287 S285 1.610 . S
N287 C288 1.351 1_556 S
C288 C282 1.428 . S
C288 N287 1.351 1_554 S
C288 C289 1.434 . S
C289 C280 1.429 . S
C289 N286 1.350 . S
C289 C288 1.434 . S
C290 C291 1.369 . S
C290 C292 1.419 . S
C290 H294 0.930 . S
C291 C290 1.369 . S
C291 C300 1.429 . S
C292 C290 1.419 . S
C292 C293 1.363 . S
C292 H295 0.929 . S
C293 C292 1.363 . S
C293 C299 1.428 . S
H294 C290 0.930 . S
H295 C292 0.929 . S
S296 N297 1.613 . S
S296 N298 1.610 . S
N297 S296 1.613 . S
N297 C300 1.350 . S
N298 S296 1.610 . S
N298 C299 1.351 . S
C299 C293 1.428 . S
C299 N298 1.351 . S
C299 C300 1.434 . S
C300 C291 1.429 . S
C300 N297 1.350 . S
C300 C299 1.434 . S
C301 C302 1.369 . S
C301 C303 1.419 . S
C301 H305 0.930 . S
C302 C301 1.369 . S
C302 C311 1.429 . S
C303 C301 1.419 . S
C303 C304 1.363 . S
C303 H306 0.929 . S
C304 C303 1.363 . S
C304 C310 1.428 . S
H305 C301 0.930 . S
H306 C303 0.929 . S
S307 N308 1.613 . S
S307 N309 1.610 . S
N308 S307 1.613 . S
N308 C311 1.350 . S
N309 S307 1.610 . S
N309 C310 1.351 . S
C310 C304 1.428 . S
C310 N309 1.351 . S
C310 C311 1.434 . S
C311 C302 1.429 . S
C311 N308 1.350 . S
C311 C310 1.434 . S
C312 C313 1.369 . S
C312 C314 1.419 . S
C312 H316 0.930 . S
C313 C312 1.369 . S
C313 C322 1.429 1_554 S
C314 C312 1.419 . S
C314 C315 1.363 1_554 S
C314 H317 0.929 . S
C315 C314 1.363 1_556 S
C315 C321 1.428 . S
H316 C312 0.930 . S
H317 C314 0.929 . S
S318 N319 1.613 . S
S318 N320 1.610 . S
N319 S318 1.613 . S
N319 C322 1.350 . S
N320 S318 1.610 . S
N320 C321 1.351 . S
C321 C315 1.428 . S
C321 N320 1.351 . S
C321 C322 1.434 . S
C322 C313 1.429 1_556 S
C322 N319 1.350 . S
C322 C321 1.434 . S
C323 C324 1.369 . S
C323 C325 1.419 . S
C323 H327 0.930 . S
C324 C323 1.369 . S
C324 C333 1.429 . S
C325 C323 1.419 . S
C325 C326 1.363 . S
C325 H328 0.929 . S
C326 C325 1.363 . S
C326 C332 1.428 1_655 S
H327 C323 0.930 . S
H328 C325 0.929 . S
S329 N330 1.613 . S
S329 N331 1.610 . S
N330 S329 1.613 . S
N330 C333 1.350 1_455 S
N331 S329 1.610 . S
N331 C332 1.351 . S
C332 C326 1.428 1_455 S
C332 N331 1.351 . S
C332 C333 1.434 1_455 S
C333 C324 1.429 . S
C333 N330 1.350 1_655 S
C333 C332 1.434 1_655 S
C334 C335 1.369 . S
C334 C336 1.419 . S
C334 H338 0.930 . S
C335 C334 1.369 . S
C335 C344 1.429 . S
C336 C334 1.419 . S
C336 C337 1.363 1_556 S
C336 H339 0.929 . S
C337 C336 1.363 1_554 S
C337 C343 1.428 . S
H338 C334 0.930 . S
H339 C336 0.929 . S
S340 N341 1.613 . S
S340 N342 1.610 . S
N341 S340 1.613 . S
N341 C344 1.350 1_554 S
N342 S340 1.610 . S
N342 C343 1.351 . S
C343 C337 1.428 . S
C343 N342 1.351 . S
C343 C344 1.434 1_554 S
C344 C335 1.429 . S
C344 N341 1.350 1_556 S
C344 C343 1.434 1_556 S
C345 C346 1.369 . S
C345 C347 1.419 . S
C345 H349 0.930 . S
C346 C345 1.369 . S
C346 C355 1.429 . S
C347 C345 1.419 . S
C347 C348 1.363 . S
C347 H350 0.929 . S
C348 C347 1.363 . S
C348 C354 1.428 . S
H349 C345 0.930 . S
H350 C347 0.929 . S
S351 N352 1.613 1_454 S
S351 N353 1.610 . S
N352 S351 1.613 1_656 S
N352 C355 1.350 . S
N353 S351 1.610 . S
N353 C354 1.351 1_454 S
C354 C348 1.428 . S
C354 N353 1.351 1_656 S
C354 C355 1.434 . S
C355 C346 1.429 . S
C355 N352 1.350 . S
C355 C354 1.434 . S
C356 C357 1.369 . S
C356 C358 1.419 . S
C356 H360 0.930 1_556 S
C357 C356 1.369 . S
C357 C366 1.429 . S
C358 C356 1.419 . S
C358 C359 1.363 . S
C358 H361 0.929 . S
C359 C358 1.363 . S
C359 C365 1.428 . S
H360 C356 0.930 1_554 S
H361 C358 0.929 . S
S362 N363 1.613 . S
S362 N364 1.610 . S
N363 S362 1.613 . S
N363 C366 1.350 . S
N364 S362 1.610 . S
N364 C365 1.351 . S
C365 C359 1.428 . S
C365 N364 1.351 . S
C365 C366 1.434 . S
C366 C357 1.429 . S
C366 N363 1.350 . S
C366 C365 1.434 . S
C367 C368 1.369 . S
C367 C369 1.419 1_556 S
C367 H371 0.930 . S
C368 C367 1.369 . S
C368 C377 1.429 . S
C369 C367 1.419 1_554 S
C369 C370 1.363 . S
C369 H372 0.929 . S
C370 C369 1.363 . S
C370 C376 1.428 . S
H371 C367 0.930 . S
H372 C369 0.929 . S
S373 N374 1.613 1_554 S
S373 N375 1.610 . S
N374 S373 1.613 1_556 S
N374 C377 1.350 . S
N375 S373 1.610 . S
N375 C376 1.351 . S
C376 C370 1.428 . S
C376 N375 1.351 . S
C376 C377 1.434 1_554 S
C377 C368 1.429 . S
C377 N374 1.350 . S
C377 C376 1.434 1_556 S
C378 C379 1.369 1_545 S
C378 C380 1.419 1_545 S
C378 H382 0.930 . S
C379 C378 1.369 1_565 S
C379 C388 1.429 . S
C380 C378 1.419 1_565 S
C380 C381 1.363 . S
C380 H383 0.929 1_565 S
C381 C380 1.363 . S
C381 C387 1.428 . S
H382 C378 0.930 . S
H383 C380 0.929 1_545 S
S384 N385 1.613 . S
S384 N386 1.610 . S
N385 S384 1.613 . S
N385 C388 1.350 . S
N386 S384 1.610 . S
N386 C387 1.351 . S
C387 C381 1.428 . S
C387 N386 1.351 . S
C387 C388 1.434 . S
C388 C379 1.429 . S
C388 N385 1.350 . S
C388 C387 1.434 . S
C389 C390 1.369 . S
C389 C391 1.419 . S
C389 H393 0.930 . S
C390 C389 1.369 . S
C390 C399 1.429 . S
C391 C389 1.419 . S
C391 C392 1.363 . S
C391 H394 0.929 . S
C392 C391 1.363 . S
C392 C398 1.428 . S
H393 C389 0.930 . S
H394 C391 0.929 . S
S395 N396 1.613 . S
S395 N397 1.610 . S
N396 S395 1.613 . S
N396 C399 1.350 1_556 S
N397 S395 1.610 . S
N397 C398 1.351 1_556 S
C398 C392 1.428 . S
C398 N397 1.351 1_554 S
C398 C399 1.434 . S
C399 C390 1.429 . S
C399 N396 1.350 1_554 S
C399 C398 1.434 . S
C400 C401 1.369 . S
C400 C402 1.419 . S
C400 H404 0.930 . S
C401 C400 1.369 . S
C401 C410 1.429 . S
C402 C400 1.419 . S
C402 C403 1.363 . S
C402 H405 0.929 . S
C403 C402 1.363 . S
C403 C409 1.428 . S
H404 C400 0.930 . S
H405 C402 0.929 . S
S406 N407 1.613 . S
S406 N408 1.610 . S
N407 S406 1.613 . S
N407 C410 1.350 . S
N408 S406 1.610 . S
N408 C409 1.351 . S
C409 C403 1.428 . S
C409 N408 1.351 . S
C409 C410 1.434 . S
C410 C401 1.429 . S
C410 N407 1.350 . S
C410 C409 1.434 . S
C411 C412 1.369 . S
C411 C413 1.419 . S
C411 H415 0.930 . S
C412 C411 1.369 . S
C412 C421 1.429 . S
C413 C411 1.419 . S
C413 C414 1.363 . S
C413 H416 0.929 . S
C414 C413 1.363 . S
C414 C420 1.428 . S
H415 C411 0.930 . S
H416 C413 0.929 . S
S417 N418 1.613 . S
S417 N419 1.610 . S
N418 S417 1.613 . S
N418 C421 1.350 . S
N419 S417 1.610 . S
N419 C420 1.351 . S
C420 C414 1.428 . S
C420 N419 1.351 . S
C420 C421 1.434 . S
C421 C412 1.429 . S
C421 N418 1.350 . S
C421 C420 1.434 . S
C422 C423 1.369 . S
C422 C424 1.419 . S
C422 H426 0.930 . S
C423 C422 1.369 . S
C423 C432 1.429 . S
C424 C422 1.419 . S
C424 C425 1.362 1_545 S
C424 H427 0.929 1_545 S
C425 C424 1.362 1_565 S
C425 C431 1.425 1_565 S
H426 C422 0.930 . S
H427 C424 0.929 1_565 S
S428 N429 1.613 . S
S428 N430 1.610 . S
N429 S428 1.613 . S
N429 C432 1.350 . S
N430 S428 1.610 . S
N430 C431 1.351 . S
C431 C425 1.425 1_545 S
C431 N430 1.351 . S
C431 C432 1.434 . S
C432 C423 1.429 . S
C432 N429 1.350 . S
C432 C431 1.434 . S
C433 C434 1.369 . S
C433 C435 1.419 . S
C433 H437 0.930 . S
C434 C433 1.369 . S
C434 C443 1.429 . S
C435 C433 1.419 . S
C435 C436 1.363 . S
C435 H438 0.929 . S
C436 C435 1.363 . S
C436 C442 1.428 . S
H437 C433 0.930 . S
H438 C435 0.929 . S
S439 N440 1.613 . S
S439 N441 1.610 1_655 S
N440 S439 1.613 . S
N440 C443 1.350 1_655 S
N441 S439 1.610 1_455 S
N441 C442 1.351 . S
C442 C436 1.428 . S
C442 N441 1.351 . S
C442 C443 1.434 . S
C443 C434 1.429 . S
C443 N440 1.350 1_455 S
C443 C442 1.434 . S
C444 C445 1.369 . S
C444 C446 1.419 . S
C444 H448 0.930 . S
C445 C444 1.369 . S
C445 C454 1.429 . S
C446 C444 1.419 . S
C446 C447 1.363 . S
C446 H449 0.929 . S
C447 C446 1.363 . S
C447 C453 1.428 . S
H448 C444 0.930 . S
H449 C446 0.929 . S
S450 N451 1.613 . S
S450 N452 1.610 . S
N451 S450 1.613 . S
N451 C454 1.350 . S
N452 S450 1.610 . S
N452 C453 1.351 . S
C453 C447 1.428 . S
C453 N452 1.351 . S
C453 C454 1.434 . S
C454 C445 1.429 . S
C454 N451 1.350 . S
C454 C453 1.434 . S
C455 C456 1.369 1_545 S
C455 C457 1.419 . S
C455 H459 0.930 . S
C456 C455 1.369 1_565 S
C456 C465 1.429 . S
C457 C455 1.419 . S
C457 C458 1.363 . S
C457 H460 0.929 . S
C458 C457 1.363 . S
C458 C464 1.428 . S
H459 C455 0.930 . S
H460 C457 0.929 . S
S461 N462 1.613 . S
S461 N463 1.610 1_565 S
N462 S461 1.613 . S
N462 C465 1.350 . S
N463 S461 1.610 1_545 S
N463 C464 1.351 . S
C464 C458 1.428 . S
C464 N463 1.351 . S
C464 C465 1.434 1_545 S
C465 C456 1.429 . S
C465 N462 1.350 . S
C465 C464 1.434 1_565 S
C466 C467 1.369 . S
C466 C468 1.419 . S
C466 H470 0.930 . S
C467 C466 1.369 . S
C467 C476 1.429 . S
C468 C466 1.419 . S
C468 C469 1.363 . S
C468 H471 0.929 . S
C469 C468 1.363 . S
C469 C475 1.428 . S
H470 C466 0.930 . S
H471 C468 0.929 . S
S472 N473 1.613 1_455 S
S472 N474 1.610 . S
N473 S472 1.613 1_655 S
N473 C476 1.350 1_655 S
N474 S472 1.610 . S
N474 C475 1.351 . S
C475 C469 1.428 . S
C475 N474 1.351 . S
C475 C476 1.434 . S
C476 C467 1.429 . S
C476 N473 1.350 1_455 S
C476 C475 1.434 . S
C181 C8 1.846 . S
C183 C9 1.844 . S
C192 C28 1.886 . S
C194 C29 1.889 . S
C203 C48 1.921 . S
C205 C49 1.921 . S
C214 C69 1.846 . S
C216 C68 1.844 1_556 S
C225 C89 1.888 . S
C227 C88 1.887 1_556 S
C236 C109 1.919 . S
C238 C108 1.922 . S
C247 C122 0.644 . S
C249 C121 0.659 . S
C258 C141 0.614 . S
C260 C142 0.643 . S
C269 C162 0.631 . S
C271 C161 0.656 . S
C280 C118 1.690 . S
C282 C2 1.694 . S
C291 C22 1.694 . S
C293 C78 1.707 . S
C302 C42 1.736 . S
C304 C98 1.766 . S
C313 C58 1.663 . S
C315 C139 1.822 . S
C324 C149 1.433 . S
C326 C18 1.353 1_655 S
C335 C179 1.780 . S
C337 C38 1.638 . S
C346 C168 1.441 . S
C348 C1 1.419 . S
C357 C21 1.440 1_556 S
C359 C128 1.469 . S
C368 C158 1.864 . S
C370 C41 1.774 . S
C379 C59 1.693 1_565 S
C381 C61 1.691 . S
C390 C81 1.699 . S
C392 C19 1.706 . S
C401 C39 1.767 . S
C403 C101 1.736 . S
C412 C169 1.441 . S
C414 C62 1.417 . S
C423 C129 1.471 . S
C425 C82 1.452 . S
C434 C159 1.862 1_455 S
C436 C102 1.776 . S
C445 C138 1.822 . S
C447 C119 1.669 . S
C456 C79 1.345 . S
C458 C148 1.431 . S
C467 C178 1.778 1_455 S
C469 C99 1.636 . S
