# Generated by pormake.
# Topology vby, (6)-cn, num edge types: 1
# Building blocks:
#     Node 0, Type 0, BuildingBlock: KUMJIN_clean_sbu_0, # of connection points: 6
#     Node 1, Type 0, BuildingBlock: KUMJIN_clean_sbu_0, # of connection points: 6
#     Node 2, Type 0, BuildingBlock: KUMJIN_clean_sbu_0, # of connection points: 6
#     Node 3, Type 0, BuildingBlock: KUMJIN_clean_sbu_0, # of connection points: 6
#     Node 4, Type 0, BuildingBlock: KUMJIN_clean_sbu_0, # of connection points: 6
#     Node 5, Type 0, BuildingBlock: KUMJIN_clean_sbu_0, # of connection points: 6
#     Node 6, Type 0, BuildingBlock: KUMJIN_clean_sbu_0, # of connection points: 6
#     Node 7, Type 0, BuildingBlock: KUMJIN_clean_sbu_0, # of connection points: 6
#     Edge 8, Type (0, 0), BuildingBlock: CIFDUS_clean_linker_0, # of connection points: 2
#     Edge 9, Type (0, 0), BuildingBlock: CIFDUS_clean_linker_0, # of connection points: 2
#     Edge 10, Type (0, 0), BuildingBlock: CIFDUS_clean_linker_0, # of connection points: 2
#     Edge 11, Type (0, 0), BuildingBlock: CIFDUS_clean_linker_0, # of connection points: 2
#     Edge 12, Type (0, 0), BuildingBlock: CIFDUS_clean_linker_0, # of connection points: 2
#     Edge 13, Type (0, 0), BuildingBlock: CIFDUS_clean_linker_0, # of connection points: 2
#     Edge 14, Type (0, 0), BuildingBlock: CIFDUS_clean_linker_0, # of connection points: 2
#     Edge 15, Type (0, 0), BuildingBlock: CIFDUS_clean_linker_0, # of connection points: 2
#     Edge 16, Type (0, 0), BuildingBlock: CIFDUS_clean_linker_0, # of connection points: 2
#     Edge 17, Type (0, 0), BuildingBlock: CIFDUS_clean_linker_0, # of connection points: 2
#     Edge 18, Type (0, 0), BuildingBlock: CIFDUS_clean_linker_0, # of connection points: 2
#     Edge 19, Type (0, 0), BuildingBlock: CIFDUS_clean_linker_0, # of connection points: 2
#     Edge 20, Type (0, 0), BuildingBlock: CIFDUS_clean_linker_0, # of connection points: 2
#     Edge 21, Type (0, 0), BuildingBlock: CIFDUS_clean_linker_0, # of connection points: 2
#     Edge 22, Type (0, 0), BuildingBlock: CIFDUS_clean_linker_0, # of connection points: 2
#     Edge 23, Type (0, 0), BuildingBlock: CIFDUS_clean_linker_0, # of connection points: 2
#     Edge 24, Type (0, 0), BuildingBlock: CIFDUS_clean_linker_0, # of connection points: 2
#     Edge 25, Type (0, 0), BuildingBlock: CIFDUS_clean_linker_0, # of connection points: 2
#     Edge 26, Type (0, 0), BuildingBlock: CIFDUS_clean_linker_0, # of connection points: 2
#     Edge 27, Type (0, 0), BuildingBlock: CIFDUS_clean_linker_0, # of connection points: 2
#     Edge 28, Type (0, 0), BuildingBlock: CIFDUS_clean_linker_0, # of connection points: 2
#     Edge 29, Type (0, 0), BuildingBlock: CIFDUS_clean_linker_0, # of connection points: 2
#     Edge 30, Type (0, 0), BuildingBlock: CIFDUS_clean_linker_0, # of connection points: 2
#     Edge 31, Type (0, 0), BuildingBlock: CIFDUS_clean_linker_0, # of connection points: 2
# Relax obj value: 0.108
# Max RMSD: 0.197
# Mean RMSD: 0.197
data_MOF--net-vby--node1-KUMJIN_clean_sbu_0--edge1-CIFDUS_clean_linker_0
_symmetry_space_group_name_H-M    P1
_symmetry_Int_Tables_number       1
_symmetry_cell_setting            triclinic
loop_
_symmetry_equiv_pos_as_xyz
'x, y, z'
_cell_length_a     12.647137
_cell_length_b     92.075522
_cell_length_c     26.594854
_cell_angle_alpha  115.00618
_cell_angle_beta   89.815883
_cell_angle_gamma 90.038287
loop_
_atom_site_label
_atom_site_type_symbol
_atom_site_fract_x
_atom_site_fract_y
_atom_site_fract_z
_atom_type_partial_charge
Eu0 Eu 0.15767 0.3975 0.02288 0.0
C1 C 1.03247 0.3292 0.84023 0.0
C2 C 0.84829 0.32337 0.84912 0.0
C3 C 0.93454 0.31144 0.75886 0.0
C4 C 0.94298 0.33143 0.87273 0.0
C5 C 1.02897 0.31935 0.78278 0.0
C6 C 0.84444 0.31343 0.79198 0.0
C7 C 0.21052 0.3266 0.77643 0.0
N8 N 0.12158 0.3374 0.86456 0.0
C9 C 0.21008 0.33629 0.83353 0.0
C10 C 0.11977 0.31804 0.75095 0.0
Eu11 Eu 0.11536 0.35308 0.96213 0.0
N12 N 0.94956 0.34111 0.92781 0.0
C13 C 0.86651 0.34239 0.96225 0.0
C14 C 0.76097 0.32534 0.88388 0.0
C15 C 0.77055 0.33475 0.94082 0.0
H16 H 0.28002 0.34309 0.85232 0.0
H17 H 0.70426 0.33608 0.96827 0.0
H18 H 0.77233 0.30718 0.77303 0.0
H19 H 0.28073 0.32582 0.75203 0.0
H20 H 0.87449 0.34931 0.00649 0.0
H21 H 0.47078 0.39691 0.87965 0.0
H22 H 0.68668 0.31939 0.86739 0.0
H23 H 0.15455 0.41756 0.16288 0.0
H24 H 0.29468 0.39134 0.90583 0.0
H25 H 0.28108 0.43024 0.23955 0.0
H26 H 0.93026 0.30383 0.71479 0.0
H27 H 0.60862 0.40883 0.95105 0.0
H28 H 0.6616 0.41959 0.05071 0.0
H29 H 0.12021 0.31063 0.70664 0.0
H30 H 0.6117 0.42772 0.14824 0.0
N31 N 0.32958 0.40022 0.99218 0.0
C32 C 0.3527 0.39667 0.93793 0.0
C33 C 0.53053 0.40659 0.96311 0.0
C34 C 0.50628 0.41044 0.01863 0.0
C35 C 0.45298 0.39986 0.92271 0.0
C36 C 0.4031 0.40736 0.03233 0.0
H37 H 0.47048 0.43174 0.21898 0.0
N38 N 0.27287 0.41006 0.09981 0.0
C39 C 0.30897 0.42492 0.19705 0.0
C40 C 0.37474 0.41201 0.08745 0.0
C41 C 0.23784 0.4175 0.15356 0.0
C42 C 0.41569 0.42575 0.18525 0.0
C43 C 0.44922 0.41976 0.12996 0.0
O44 O 0.09377 0.42165 0.07008 0.0
O45 O 1.03954 0.37747 -0.00303 0.0
O46 O 0.06089 0.36135 0.89789 0.0
O47 O 0.12015 0.38789 0.92998 0.0
O48 O 0.98064 0.39977 0.04514 0.0
O49 O 0.15731 0.41504 0.98754 0.0
O50 O 0.21314 0.33345 0.96159 0.0
O51 O 0.2354 0.37327 0.98922 0.0
O52 O 0.15611 0.38919 0.0929 0.0
O53 O 0.06699 0.36471 0.05268 0.0
O54 O 0.2952 0.35068 0.95063 0.0
O55 O 0.0659 0.3391 0.00735 0.0
C56 C 0.95357 0.38499 0.01735 0.0
C57 C 1.03531 0.4366 0.0206 0.0
C58 C 0.9935 0.46184 0.01408 0.0
C59 C 0.06602 0.45182 0.02486 0.0
C60 C 0.88944 0.45625 -0.00088 0.0
C61 C 0.93149 0.43132 0.00526 0.0
C62 C 0.85903 0.44115 0.99477 0.0
C63 C 0.07891 0.37458 0.89126 0.0
C64 C 0.11389 0.42634 0.031 0.0
C65 C 0.55335 0.42198 0.11615 0.0
C66 C 0.58165 0.41742 0.06065 0.0
C67 C 0.32245 0.36546 0.97502 0.0
C68 C 0.12511 0.31211 0.971 0.0
C69 C 0.17184 0.30334 -0.00251 0.0
C70 C 0.15504 0.28667 0.97736 0.0
C71 C 0.08959 0.27901 0.93088 0.0
C72 C 0.06106 0.30413 0.92451 0.0
C73 C 1.04304 0.28771 0.90476 0.0
C74 C 0.10914 0.37667 0.09587 0.0
C75 C 0.14674 0.3294 0.99103 0.0
H76 H 0.14698 0.45571 0.03576 0.0
H77 H 0.83078 0.46364 0.99151 0.0
H78 H 0.90655 0.41963 0.00125 0.0
H79 H 0.7787 0.43704 0.98326 0.0
H80 H 0.22281 0.30944 0.03294 0.0
H81 H 0.07357 0.26629 0.91493 0.0
H82 H 1.02544 0.31051 0.90319 0.0
H83 H 0.99304 0.28169 0.86893 0.0
Eu84 Eu 0.94978 0.65405 0.03773 0.0
C85 C 0.70295 0.59304 0.93541 0.0
C86 C 0.57802 0.59774 0.01023 0.0
C87 C 0.52501 0.58187 0.91495 0.0
C88 C 0.6795 0.59985 0.99174 0.0
C89 C 0.62612 0.58374 0.89661 0.0
C90 C 0.50103 0.58886 0.97158 0.0
C91 C 0.75691 0.5775 0.82432 0.0
N92 N 0.80095 0.59518 0.91846 0.0
C93 C 0.83043 0.58667 0.86419 0.0
C94 C 0.65369 0.57625 0.84045 0.0
Eu95 Eu 0.92262 0.61023 0.98962 0.0
N96 N 0.75445 0.6088 0.02838 0.0
C97 C 0.73309 0.61553 0.08414 0.0
C98 C 0.5562 0.60474 0.06708 0.0
C99 C 0.6342 0.61363 0.10414 0.0
H100 H 0.91152 0.58672 0.85139 0.0
H101 H 0.61797 0.61915 0.14826 0.0
H102 H 0.42264 0.58728 0.9851 0.0
H103 H 0.7805 0.57116 0.78131 0.0
H104 H 0.7904 0.62266 0.11401 0.0
H105 H 0.34409 0.66284 0.97004 0.0
H106 H 0.47927 0.60343 0.08274 0.0
H107 H 0.82884 0.67583 0.15884 0.0
H108 H 0.16222 0.6525 0.95846 0.0
H109 H 0.87392 0.69611 0.25272 0.0
H110 H 0.46506 0.5749 0.88567 0.0
H111 H 0.41086 0.68035 0.06349 0.0
H112 H 0.37408 0.69577 0.16525 0.0
H113 H 0.59697 0.56903 0.80952 0.0
H114 H 0.24584 0.70495 0.24224 0.0
N115 N 0.12622 0.6635 0.04485 0.0
C116 C 0.18974 0.6601 -0.00041 0.0
C117 C 0.33074 0.67579 0.05874 0.0
C118 C 0.26322 0.68008 0.10456 0.0
C119 C 0.29323 0.66596 0.00592 0.0
C120 C 0.15977 0.67374 0.09614 0.0
H121 H 0.05861 0.70547 0.27489 0.0
N122 N 0.98701 0.67338 0.12891 0.0
C123 C 0.93495 0.6913 0.22137 0.0
C124 C 0.08787 0.67889 0.13952 0.0
C125 C 0.90966 0.67983 0.16821 0.0
C126 C 1.03935 0.69653 0.23375 0.0
C127 C 0.11704 0.69052 0.19239 0.0
O128 O 0.83647 0.67304 0.04671 0.0
O129 O 0.83666 0.633 0.00088 0.0
O130 O 0.93508 0.61453 0.91169 0.0
O131 O 0.98577 0.64143 0.94568 0.0
O132 O 0.77954 0.65355 0.06514 0.0
O133 O 0.96383 0.66772 0.9877 0.0
O134 O 0.99236 0.58633 0.94573 0.0
O135 O 1.03515 0.63089 0.01973 0.0
O136 O 0.98211 0.64932 0.11325 0.0
O137 O 0.96384 0.62154 0.08224 0.0
O138 O 0.09633 0.60949 0.96337 0.0
O139 O 0.92932 0.59358 0.02863 0.0
C140 C 0.75415 0.63942 0.0293 0.0
C141 C 0.903 0.69458 0.02952 0.0
C142 C 0.86082 0.72011 0.02531 0.0
C143 C 0.84334 0.70345 0.00734 0.0
C144 C 0.93788 0.72762 0.06631 0.0
C145 C 0.98042 0.70244 0.06931 0.0
C146 C 0.99735 0.71882 0.08774 0.0
C147 C 0.96718 0.62723 0.90465 0.0
C148 C 0.88455 0.67721 0.01144 0.0
C149 C 0.22156 0.69617 0.20172 0.0
C150 C 0.29458 0.69094 0.15789 0.0
C151 C 0.11959 0.62432 0.99376 0.0
C152 C 0.05367 0.57225 -0.00242 0.0
C153 C 1.02497 0.55697 0.99338 0.0
C154 C 0.09868 0.54718 0.00455 0.0
C155 C 0.20187 0.55311 0.02017 0.0
C156 C 0.15671 0.57786 0.01335 0.0
C157 C 0.2303 0.5683 0.02454 0.0
C158 C 0.98195 0.63614 0.12173 0.0
C159 C 0.97388 0.58212 0.98604 0.0
H160 H 0.78464 0.69734 0.97586 0.0
H161 H 0.95167 0.7404 0.08255 0.0
H162 H 1.02788 0.69594 0.08628 0.0
H163 H 0.05666 0.72475 0.11901 0.0
H164 H 0.94456 0.55283 0.98202 0.0
H165 H 0.2614 0.54592 0.0282 0.0
H166 H 0.18007 0.5896 0.01704 0.0
H167 H 0.31001 0.57266 0.03649 0.0
Eu168 Eu 0.14224 0.61299 0.48985 0.0
C169 C 0.97771 0.68046 0.65129 0.0
C170 C 0.80306 0.68269 0.61812 0.0
C171 C 0.84435 0.69712 0.71607 0.0
C172 C 0.90628 0.67625 0.60814 0.0
C173 C 0.94858 0.69135 0.70543 0.0
C174 C 0.77163 0.69277 0.67251 0.0
C175 C 0.1303 0.6913 0.73329 0.0
N176 N 0.07833 0.67486 0.63946 0.0
C177 C 0.15554 0.68056 0.67896 0.0
C178 C 1.02608 0.69656 0.74678 0.0
Eu179 Eu 0.11569 0.65696 0.54621 0.0
N180 N 0.93981 0.66675 0.5559 0.0
C181 C 0.87653 0.66423 0.51142 0.0
C182 C 0.73573 0.6793 0.5729 0.0
C183 C 0.77324 0.67023 0.51926 0.0
H184 H 0.23624 0.67655 0.66877 0.0
H185 H 0.72254 0.6678 0.4839 0.0
H186 H 0.69233 0.69768 0.68102 0.0
H187 H 0.19121 0.69552 0.76469 0.0
H188 H 0.90406 0.65723 0.46967 0.0
H189 H 0.4359 0.6184 0.64953 0.0
H190 H 0.65577 0.68396 0.57883 0.0
H191 H 0.16726 0.59295 0.34942 0.0
H192 H 0.26655 0.62257 0.61526 0.0
H193 H 0.30442 0.57957 0.28024 0.0
H194 H 0.82009 0.70533 0.75752 0.0
H195 H 0.57919 0.60412 0.5842 0.0
H196 H 0.64307 0.59019 0.48673 0.0
H197 H 1.00687 0.70493 0.78884 0.0
H198 H 0.60906 0.5803 0.38695 0.0
N199 N 0.30765 0.61051 0.52922 0.0
C200 C 0.32541 0.61609 0.58509 0.0
C201 C 0.50342 0.60574 0.56833 0.0
C202 C 0.48576 0.59999 0.51137 0.0
C203 C 0.42285 0.61381 0.60527 0.0
C204 C 0.38565 0.60248 0.49264 0.0
H205 H 0.48461 0.57657 0.31 0.0
N206 N 0.27071 0.59975 0.41913 0.0
C207 C 0.32394 0.58473 0.32393 0.0
C208 C 0.36711 0.59715 0.43628 0.0
C209 C 0.24685 0.59281 0.36364 0.0
C210 C 0.42517 0.58297 0.34089 0.0
C211 C 0.44734 0.58887 0.3975 0.0
O212 O 0.07635 0.58949 0.43801 0.0
O213 O 1.02981 0.63372 0.52387 0.0
O214 O 0.08059 0.65046 0.61828 0.0
O215 O 0.09867 0.62256 0.58181 0.0
O216 O 0.96973 0.61307 0.46317 0.0
O217 O 0.11285 0.59546 0.52394 0.0
O218 O 0.22891 0.67627 0.55985 0.0
O219 O 0.22857 0.63604 0.50568 0.0
O220 O 0.12427 0.61871 0.41599 0.0
O221 O 0.08015 0.64591 0.45341 0.0
O222 O 0.28523 0.65576 0.57291 0.0
O223 O 0.10305 0.67197 0.50083 0.0
C224 C 0.94595 0.62761 0.49669 0.0
C225 C 0.12739 0.56813 0.4604 0.0
C226 C 0.12497 0.54241 0.467 0.0
C227 C 0.08506 0.55805 0.48297 0.0
C228 C 0.20868 0.53711 0.42845 0.0
C229 C 0.21055 0.56249 0.42188 0.0
C230 C 0.25116 0.54712 0.40629 0.0
C231 C 0.0798 0.63674 0.62345 0.0
C232 C 0.08231 0.58429 0.47656 0.0
C233 C 0.54665 0.5865 0.41616 0.0
C234 C 0.56584 0.59206 0.47293 0.0
C235 C 0.31069 0.64193 0.53495 0.0
C236 C 0.16319 0.69871 0.548 0.0
C237 C 0.20931 0.70766 0.52178 0.0
C238 C 0.19185 0.72438 0.54264 0.0
C239 C 0.12687 0.73185 0.58969 0.0
C240 C 0.09937 0.70657 0.5949 0.0
C241 C 0.08128 0.723 0.61554 0.0
C242 C 0.0941 0.63176 0.41108 0.0
C243 C 0.18176 0.68125 0.52652 0.0
H244 H 1.02119 0.56242 0.51296 0.0
H245 H 0.24001 0.52508 0.41444 0.0
H246 H 0.24357 0.56978 0.40314 0.0
H247 H 0.31498 0.54288 0.37634 0.0
H248 H 0.2594 0.70166 0.48573 0.0
H249 H 0.10973 0.74455 0.60614 0.0
H250 H 0.06329 0.70007 0.61567 0.0
H251 H 1.03129 0.72888 0.65164 0.0
Eu252 Eu 0.96637 0.36044 0.4699 0.0
C253 C 0.72044 0.42024 0.60045 0.0
C254 C 0.5948 0.41944 0.53059 0.0
C255 C 0.54286 0.43113 0.62752 0.0
C256 C 0.69652 0.41614 0.54527 0.0
C257 C 0.6441 0.42807 0.6422 0.0
C258 C 0.51825 0.42681 0.57187 0.0
C259 C 0.77556 0.43067 0.71084 0.0
N260 N 0.81882 0.41706 0.61365 0.0
C261 C 0.84864 0.42306 0.66829 0.0
C262 C 0.67228 0.43296 0.69774 0.0
Eu263 Eu 0.93978 0.40455 0.53842 0.0
N264 N 0.77125 0.40865 0.50586 0.0
C265 C 0.74903 0.40453 0.45111 0.0
C266 C 0.57226 0.41509 0.47471 0.0
C267 C 0.64983 0.40765 0.43488 0.0
H268 H 0.92976 0.4223 0.67958 0.0
H269 H 0.63306 0.40418 0.39143 0.0
H270 H 0.43977 0.42928 0.56117 0.0
H271 H 0.7996 0.43504 0.75377 0.0
H272 H 0.80565 0.39856 0.41886 0.0
H273 H 0.36133 0.34699 0.52178 0.0
H274 H 0.49511 0.41735 0.46187 0.0
H275 H 0.84108 0.34395 0.34719 0.0
H276 H 0.18078 0.35796 0.54072 0.0
H277 H 0.8824 0.32693 0.24883 0.0
H278 H 0.4833 0.43699 0.65901 0.0
H279 H 0.42362 0.33241 0.425 0.0
H280 H 0.38266 0.32084 0.3232 0.0
H281 H 0.61595 0.439 0.73084 0.0
H282 H 0.25224 0.31531 0.24888 0.0
N283 N 0.14136 0.35023 0.4555 0.0
C284 C 0.20646 0.35165 0.49823 0.0
C285 C 0.34409 0.33724 0.43303 0.0
C286 C 0.27488 0.33496 0.38939 0.0
C287 C 0.30913 0.34542 0.4877 0.0
C288 C 0.17231 0.34157 0.40212 0.0
H289 H 0.06515 0.31725 0.22088 0.0
N290 N 0.99954 0.34431 0.37443 0.0
C291 C 0.94423 0.33017 0.2797 0.0
C292 C 0.09922 0.3385 0.36027 0.0
C293 C 0.9211 0.3398 0.33545 0.0
C294 C 1.04754 0.32476 0.26408 0.0
C295 C 0.12623 0.3287 0.30461 0.0
O296 O 0.854 0.34079 0.45246 0.0
O297 O 0.85354 0.38107 0.51537 0.0
O298 O 0.95621 0.39654 0.60684 0.0
O299 O 1.0043 0.36952 0.5623 0.0
O300 O 0.79625 0.36229 0.44536 0.0
O301 O 0.98125 0.34402 0.50988 0.0
O302 O 1.01001 0.4275 0.59267 0.0
O303 O 0.05187 0.38396 0.49868 0.0
O304 O 1.00121 0.36906 0.40253 0.0
O305 O 0.97573 0.39682 0.44668 0.0
O306 O 0.11238 0.40366 0.56356 0.0
O307 O 0.96872 0.423 0.50847 0.0
C308 C 0.77116 0.3757 0.48571 0.0
C309 C 0.92072 0.31745 0.45832 0.0
C310 C 0.90622 0.29132 0.46239 0.0
C311 C 0.88875 0.3081 0.48629 0.0
C312 C 0.95744 0.28423 0.41051 0.0
C313 C 0.97032 0.30991 0.40645 0.0
C314 C 0.98879 0.29345 0.38288 0.0
C315 C 0.98845 0.38301 0.6073 0.0
C316 C 0.90228 0.33499 0.48322 0.0
C317 C 0.22968 0.32273 0.29146 0.0
C318 C 0.30392 0.32588 0.33378 0.0
C319 C 0.13594 0.38952 0.5265 0.0
C320 C 0.95903 0.44988 0.57604 0.0
C321 C 1.00154 0.46047 0.55574 0.0
C322 C 0.96256 0.47625 0.57448 0.0
C323 C 0.87962 0.4812 0.6135 0.0
C324 C 0.8768 0.45516 0.61523 0.0
C325 C 0.83714 0.47069 0.63358 0.0
C326 C 0.99673 0.38341 0.40211 0.0
C327 C 1.0024 0.4335 0.55635 0.0
H328 H 0.84925 0.31387 0.5261 0.0
H329 H 0.9748 0.27152 0.3914 0.0
H330 H 0.99471 0.3167 0.38397 0.0
H331 H 1.02792 0.28781 0.34297 0.0
H332 H 0.06466 0.45639 0.52523 0.0
H333 H 0.84888 0.4933 0.6294 0.0
H334 H 0.84365 0.44742 0.63221 0.0
H335 H 0.77391 0.47464 0.66395 0.0
Eu336 Eu 0.60095 0.89889 0.02442 0.0
C337 C 0.58943 0.83469 0.81997 0.0
C338 C 0.4102 0.82614 0.78934 0.0
C339 C 0.55362 0.81856 0.72206 0.0
C340 C 0.48296 0.83443 0.83201 0.0
C341 C 0.62568 0.82687 0.76469 0.0
C342 C 0.44617 0.81818 0.73437 0.0
C343 C 0.80113 0.83655 0.79734 0.0
N344 N 0.65665 0.84319 0.862 0.0
C345 C 0.76147 0.84415 0.85142 0.0
C346 C 0.73304 0.82786 0.75376 0.0
Eu347 Eu 0.58236 0.85547 0.95259 0.0
N348 N 0.45017 0.84269 0.88537 0.0
C349 C 0.34698 0.84217 0.89933 0.0
C350 C 0.30336 0.82617 0.80324 0.0
C351 C 0.27178 0.83412 0.8586 0.0
H352 H 0.81551 0.85072 0.88427 0.0
H353 H 0.18986 0.83384 0.87007 0.0
H354 H 0.39147 0.81176 0.70102 0.0
H355 H 0.88434 0.8374 0.78932 0.0
H356 H 0.32361 0.84733 0.94214 0.0
H357 H 0.99355 0.91832 0.11234 0.0
H358 H 0.24501 0.81992 0.77172 0.0
H359 H 0.36265 0.9051 0.09027 0.0
H360 H 0.86146 0.90621 0.03847 0.0
H361 H 0.29147 0.91843 0.18447 0.0
H362 H 0.58007 0.81249 0.67937 0.0
H363 H 0.93512 0.93167 0.21025 0.0
H364 H 0.78582 0.9403 0.27906 0.0
H365 H 0.76399 0.82204 0.71187 0.0
H366 H 0.59528 0.94077 0.29827 0.0
N367 N 0.73215 0.91053 0.09345 0.0
C368 C 0.83639 0.91085 0.0809 0.0
C369 C 0.87739 0.92589 0.17787 0.0
C370 C 0.76951 0.9264 0.19034 0.0
C371 C 0.91081 0.91824 0.12276 0.0
C372 C 0.69755 0.91873 0.14658 0.0
H373 H 0.41105 0.93262 0.26348 0.0
N374 N 0.52277 0.91146 0.11418 0.0
C375 C 0.37558 0.91878 0.17739 0.0
C376 C 0.58978 0.91926 0.15721 0.0
C377 C 0.41675 0.91117 0.12364 0.0
C378 C 0.44324 0.92681 0.22185 0.0
C379 C 0.55175 0.92711 0.21218 0.0
O380 O 0.53123 0.92053 0.02366 0.0
O381 O 0.48866 0.87793 0.00029 0.0
O382 O 0.53504 0.86635 0.89372 0.0
O383 O 0.6439 0.88833 0.93242 0.0
O384 O 0.42902 0.89817 -0.00283 0.0
O385 O 0.6961 0.91492 0.00101 0.0
O386 O 0.66317 0.83494 0.95622 0.0
O387 O 0.69403 0.87657 0.97554 0.0
O388 O 0.63855 0.88749 0.08373 0.0
O389 O 0.52571 0.86625 0.04207 0.0
O390 O 0.75426 0.85659 0.97995 0.0
O391 O 0.49637 0.83874 0.97668 0.0
C392 C 0.40675 0.88361 0.98772 0.0
C393 C 0.64539 0.94243 0.03866 0.0
C394 C 0.63302 0.96965 0.04424 0.0
C395 C 0.60818 0.95317 0.01758 0.0
C396 C 0.69479 0.97519 0.09264 0.0
C397 C 0.70714 0.94831 0.08687 0.0
C398 C 0.73136 0.96458 0.1137 0.0
C399 C 0.58213 0.87887 0.89154 0.0
C400 C 0.61939 0.92522 0.00951 0.0
C401 C 0.62316 0.93471 0.25584 0.0
C402 C 0.73171 0.93438 0.24494 0.0
C403 C 0.77612 0.87108 0.98854 0.0
C404 C 0.56118 0.81184 0.94124 0.0
C405 C 0.6196 0.80161 0.95796 0.0
C406 C 0.60443 0.78484 0.93218 0.0
C407 C 0.52992 0.7785 0.88918 0.0
C408 C 0.48758 0.80517 0.89816 0.0
C409 C 0.47228 0.78861 0.87236 0.0
C410 C 0.58216 0.87563 0.08552 0.0
C411 C 0.57799 0.82937 0.96964 0.0
H412 H 0.56136 0.94863 0.97998 0.0
H413 H 0.71386 0.98779 0.11469 0.0
H414 H 0.73714 0.94041 0.10387 0.0
H415 H 0.77874 0.969 0.15102 0.0
H416 H 0.67583 0.80677 0.99158 0.0
H417 H 0.51732 0.76569 0.86786 0.0
H418 H 0.44164 0.81268 0.88444 0.0
H419 H 0.41552 0.78357 0.83904 0.0
Eu420 Eu 0.50795 0.15386 0.05524 0.0
C421 C 0.27686 0.09359 0.90848 0.0
C422 C 0.14322 0.09296 0.97312 0.0
C423 C 0.10304 0.08225 0.87488 0.0
C424 C 0.24625 0.09694 0.96232 0.0
C425 C 0.20607 0.08586 0.86406 0.0
C426 C 0.07167 0.0858 0.92928 0.0
C427 C 0.34674 0.08435 0.80064 0.0
N428 N 0.37681 0.09728 0.89915 0.0
C429 C 0.41406 0.09186 0.84583 0.0
C430 C 0.24166 0.08158 0.80981 0.0
Eu431 Eu 0.48716 0.10992 0.97841 0.0
N432 N 0.31635 0.1042 0.00417 0.0
C433 C 0.28897 0.10717 0.05752 0.0
C434 C 0.11471 0.09633 0.02772 0.0
C435 C 0.18819 0.10336 0.07001 0.0
H436 H 0.49655 0.09318 0.83796 0.0
H437 H 0.167 0.10599 0.11245 0.0
H438 H 0.99213 0.08283 0.93698 0.0
H439 H 0.37646 0.08047 0.75874 0.0
H440 H 0.34271 0.1128 0.09143 0.0
H441 H 0.90044 0.16887 0.00435 0.0
H442 H 1.03635 0.09352 0.03765 0.0
H443 H 0.3838 0.16867 0.17868 0.0
H444 H 0.72064 0.15771 0.985 0.0
H445 H 0.42534 0.18474 0.27756 0.0
H446 H 1.04752 0.07647 0.84134 0.0
H447 H 0.96307 0.18258 0.10117 0.0
H448 H 0.92281 0.19303 0.20297 0.0
H449 H 0.18976 0.07563 0.7747 0.0
H450 H 0.79338 0.19746 0.27734 0.0
N451 N 0.68189 0.16446 0.06995 0.0
C452 C 0.74638 0.16364 0.02751 0.0
C453 C 0.88385 0.17766 0.09295 0.0
C454 C 0.81518 0.17935 0.13644 0.0
C455 C 0.84869 0.16997 0.03828 0.0
C456 C 0.71303 0.17264 0.12345 0.0
H457 H 0.60731 0.19469 0.30549 0.0
N458 N 0.54135 0.16915 0.15107 0.0
C459 C 0.48672 0.18205 0.24645 0.0
C460 C 0.64053 0.17509 0.16532 0.0
C461 C 0.46345 0.17296 0.19041 0.0
C462 C 0.58957 0.18762 0.26205 0.0
C463 C 0.66767 0.18436 0.22128 0.0
O464 O 0.3919 0.17321 0.0774 0.0
O465 O 0.39766 0.13329 0.00686 0.0
O466 O 0.49641 0.11981 0.91358 0.0
O467 O 0.54405 0.14663 0.96405 0.0
O468 O 0.33942 0.15089 0.07972 0.0
O469 O 0.51671 0.17122 0.01919 0.0
O470 O 0.56692 0.08759 0.9255 0.0
O471 O 0.59688 0.1305 0.02203 0.0
O472 O 0.54564 0.14419 0.11842 0.0
O473 O 0.51538 0.11665 0.07067 0.0
O474 O 0.65782 0.11196 0.95292 0.0
O475 O 0.51434 0.09122 0.0074 0.0
C476 C 0.31525 0.13794 0.0372 0.0
C477 C 0.45082 0.19718 0.07384 0.0
C478 C 0.42047 0.22338 0.07319 0.0
C479 C 0.40668 0.20659 0.04913 0.0
C480 C 0.47938 0.23054 0.12246 0.0
C481 C 0.50861 0.20463 0.12304 0.0
C482 C 0.52275 0.22121 0.14714 0.0
C483 C 0.5263 0.13395 0.91693 0.0
C484 C 0.43664 0.17966 0.04751 0.0
C485 C 0.7707 0.19045 0.23456 0.0
C486 C 0.84438 0.18793 0.19221 0.0
C487 C 0.68054 0.12565 0.99285 0.0
C488 C 0.51459 0.06449 0.93797 0.0
C489 C 0.54768 0.05414 0.96154 0.0
C490 C 0.51278 0.03805 0.93973 0.0
C491 C 0.44342 0.03262 0.89414 0.0
C492 C 0.44495 0.05871 0.89276 0.0
C493 C 0.40953 0.04291 0.8712 0.0
C494 C 0.53799 0.12963 0.11647 0.0
C495 C 0.55465 0.08115 0.9604 0.0
H496 H 0.36082 0.2008 0.01149 0.0
H497 H 0.49343 0.24333 0.1416 0.0
H498 H 0.5429 0.19768 0.14282 0.0
H499 H 0.56801 0.22684 0.18499 0.0
H500 H 0.60033 0.05868 -0.00309 0.0
H501 H 0.41673 0.02029 0.8753 0.0
H502 H 0.41853 0.06628 0.87356 0.0
H503 H 0.35648 0.03855 0.83604 0.0
Eu504 Eu 0.70192 0.111 0.48135 0.0
C505 C 0.54142 0.17622 0.6649 0.0
C506 C 0.36692 0.18033 0.63589 0.0
C507 C 0.41041 0.19163 0.73401 0.0
C508 C 0.46928 0.17366 0.62299 0.0
C509 C 0.51357 0.18554 0.72081 0.0
C510 C 0.33719 0.18902 0.69163 0.0
C511 C 0.69407 0.18322 0.74612 0.0
N512 N 0.64076 0.17026 0.65073 0.0
C513 C 0.71806 0.17407 0.69012 0.0
C514 C 0.59109 0.18882 0.76163 0.0
Eu515 Eu 0.67513 0.15493 0.55495 0.0
N516 N 0.50072 0.16532 0.56951 0.0
C517 C 0.43625 0.16422 0.52694 0.0
C518 C 0.29846 0.17846 0.59234 0.0
C519 C 0.33383 0.17055 0.53764 0.0
H520 H 0.79777 0.16975 0.67852 0.0
H521 H 0.28214 0.16926 0.50365 0.0
H522 H 0.25861 0.19411 0.70233 0.0
H523 H 0.75497 0.18592 0.77727 0.0
H524 H 0.46235 0.15812 0.48444 0.0
H525 H 0.06703 0.10429 0.58002 0.0
H526 H 0.2191 0.18335 0.6005 0.0
H527 H 0.63315 0.09121 0.34811 0.0
H528 H 0.88292 0.11235 0.57699 0.0
H529 H 0.7185 0.07611 0.25668 0.0
H530 H 0.38722 0.19869 0.77676 0.0
H531 H 0.17031 0.09128 0.49329 0.0
H532 H 0.17604 0.07997 0.38945 0.0
H533 H 0.57279 0.19593 0.80503 0.0
H534 H 0.08212 0.07276 0.30129 0.0
N535 N 0.8806 0.10422 0.48907 0.0
C536 C 0.92603 0.10659 0.53858 0.0
C537 C 0.08891 0.09471 0.49156 0.0
C538 C 1.04044 0.09154 0.44078 0.0
C539 C 1.03084 0.10202 0.54058 0.0
C540 C 0.9343 0.09632 0.44079 0.0
H541 H 0.91141 0.07115 0.25129 0.0
N542 N 0.77767 0.0961 0.39265 0.0
C543 C 0.76572 0.0808 0.29404 0.0
C544 C 0.88169 0.09235 0.39115 0.0
C545 C 0.71786 0.08946 0.34561 0.0
C546 C 0.87457 0.07804 0.2912 0.0
C547 C 0.93346 0.0834 0.34023 0.0
O548 O 0.60193 0.08962 0.44675 0.0
O549 O 0.5894 0.13134 0.52449 0.0
O550 O 0.63463 0.14519 0.6179 0.0
O551 O 0.70051 0.11909 0.57538 0.0
O552 O 0.52946 0.11222 0.45699 0.0
O553 O 0.71405 0.09236 0.51151 0.0
O554 O 0.78663 0.1748 0.57526 0.0
O555 O 0.78844 0.13457 0.50909 0.0
O556 O 0.70857 0.12044 0.41531 0.0
O557 O 0.63852 0.14622 0.46292 0.0
O558 O 0.84495 0.15289 0.58007 0.0
O559 O 0.66179 0.17176 0.51659 0.0
C560 C 0.50591 0.12608 0.49584 0.0
C561 C 0.56865 0.07522 0.50161 0.0
C562 C 0.53345 0.05223 0.52297 0.0
C563 C 0.60056 0.06063 0.50203 0.0
C564 C 0.43336 0.05877 0.54354 0.0
C565 C 0.46904 0.08158 0.52273 0.0
C566 C 0.40176 0.07333 0.54348 0.0
C567 C 0.66207 0.13145 0.61901 0.0
C568 C 0.64117 0.08338 0.47852 0.0
C569 C 1.04074 0.07945 0.34001 0.0
C570 C 0.0941 0.0835 0.3902 0.0
C571 C 0.87057 0.13963 0.5391 0.0
C572 C 0.7201 0.19832 0.57061 0.0
C573 C 0.75001 0.20787 0.54309 0.0
C574 C 0.73177 0.22464 0.56777 0.0
C575 C 0.68194 0.23151 0.62007 0.0
C576 C 0.67189 0.20563 0.62293 0.0
C577 C 0.65267 0.22208 0.64731 0.0
C578 C 0.66845 0.1339 0.4168 0.0
C579 C 0.73954 0.18081 0.54476 0.0
H580 H 0.6774 0.05571 0.48524 0.0
H581 H 0.3801 0.05275 0.5605 0.0
H582 H 0.44336 0.09284 0.52305 0.0
H583 H 0.32482 0.07827 0.55971 0.0
H584 H 0.78861 0.20227 0.50298 0.0
H585 H 0.66407 0.2442 0.63982 0.0
H586 H 0.64927 0.19867 0.64515 0.0
H587 H 0.61463 0.22755 0.68755 0.0
Eu588 Eu 0.48094 0.85924 0.45783 0.0
C589 C 0.24975 0.9201 0.60224 0.0
C590 C 0.11369 0.91975 0.53747 0.0
C591 C 0.07693 0.9319 0.63639 0.0
C592 C 0.21695 0.91588 0.54803 0.0
C593 C 0.18058 0.92853 0.64697 0.0
C594 C 1.04359 0.92753 0.5818 0.0
C595 C 0.32455 0.93134 0.7098 0.0
N596 N 0.35033 0.91666 0.61151 0.0
C597 C 0.39029 0.92311 0.66424 0.0
C598 C 0.21863 0.9338 0.70118 0.0
Eu599 Eu 0.45685 0.90313 0.53158 0.0
N600 N 0.28556 0.90805 0.50565 0.0
C601 C 0.25725 0.90447 0.45207 0.0
C602 C 0.08377 0.91574 0.48262 0.0
C603 C 0.1562 0.90819 0.43983 0.0
H604 H 0.47317 0.92172 0.67113 0.0
H605 H 0.13395 0.9051 0.39726 0.0
H606 H 0.96378 0.93041 0.57433 0.0
H607 H 0.35597 0.93595 0.75148 0.0
H608 H 0.31109 0.89848 0.4182 0.0
H609 H 0.87425 0.84606 0.5128 0.0
H610 H 1.00518 0.91846 0.47291 0.0
H611 H 0.36074 0.8418 0.33427 0.0
H612 H 0.6916 0.85623 0.53013 0.0
H613 H 0.40786 0.82595 0.23569 0.0
H614 H 1.02259 0.93821 0.67023 0.0
H615 H 0.94328 0.83311 0.4168 0.0
H616 H 0.90873 0.82281 0.31455 0.0
H617 H 0.16799 0.94031 0.73655 0.0
H618 H 0.78169 0.81744 0.23885 0.0
N619 N 0.6575 0.84961 0.44489 0.0
C620 C 0.72015 0.85059 0.48797 0.0
C621 C 0.8628 0.83756 0.42413 0.0
C622 C 0.79607 0.83566 0.37992 0.0
C623 C 0.82403 0.84482 0.47835 0.0
C624 C 0.69207 0.84174 0.39178 0.0
H625 H 0.59419 0.8183 0.20906 0.0
N626 N 0.51938 0.84361 0.36262 0.0
C627 C 0.46868 0.82954 0.26716 0.0
C628 C 0.62089 0.83871 0.34923 0.0
C629 C 0.44224 0.83848 0.32297 0.0
C630 C 0.57402 0.82531 0.25228 0.0
C631 C 0.65129 0.82955 0.29362 0.0
O632 O 0.37056 0.83918 0.43651 0.0
O633 O 0.36888 0.87967 0.50466 0.0
O634 O 0.45193 0.89373 0.59787 0.0
O635 O 0.51412 0.86753 0.54972 0.0
O636 O 0.31049 0.86124 0.43404 0.0
O637 O 0.49326 0.84252 0.49648 0.0
O638 O 0.54907 0.92489 0.57775 0.0
O639 O 0.56901 0.88276 0.4883 0.0
O640 O 0.504 0.8684 0.39194 0.0
O641 O 0.49162 0.89632 0.43977 0.0
O642 O 0.62663 0.90156 0.55814 0.0
O643 O 0.45015 0.92331 0.50923 0.0
C644 C 0.2861 0.87453 0.47518 0.0
C645 C 0.43796 0.81594 0.44251 0.0
C646 C 0.42099 0.78969 0.44485 0.0
C647 C 0.39983 0.80633 0.46807 0.0
C648 C 0.48139 0.78294 0.39578 0.0
C649 C 0.49741 0.80884 0.39353 0.0
C650 C 0.51894 0.79246 0.37039 0.0
C651 C 0.48663 0.87996 0.59591 0.0
C652 C 0.41672 0.83334 0.4677 0.0
C653 C 0.75647 0.82433 0.28136 0.0
C654 C 0.82877 0.82738 0.32447 0.0
C655 C 0.65121 0.88789 0.51833 0.0
C656 C 0.59431 0.94108 0.53034 0.0
C657 C 0.56332 0.9558 0.53074 0.0
C658 C 0.63291 0.96467 0.51287 0.0
C659 C 0.735 0.95849 0.49504 0.0
C660 C 0.69603 0.93512 0.51208 0.0
C661 C 0.76606 0.94386 0.49477 0.0
C662 C 0.50452 0.88297 0.39378 0.0
C663 C 0.5169 0.93201 0.54722 0.0
H664 H 0.35298 0.81181 0.50565 0.0
H665 H 0.50116 0.77031 0.37733 0.0
H666 H 0.52745 0.81592 0.37317 0.0
H667 H 0.56547 0.78712 0.33272 0.0
H668 H 0.48467 0.96036 0.54524 0.0
H669 H 0.79031 0.9648 0.48026 0.0
H670 H 0.72092 0.92372 0.51087 0.0
H671 H 0.8445 0.93921 0.48056 0.0
H672 H 0.46406 0.37721 0.06396 0.0
H673 H 0.44623 0.36151 0.8872 0.0
H674 H 0.63767 0.36457 0.88234 0.0
H675 H 0.81373 0.37252 0.92852 0.0
H676 H 0.83322 0.38722 0.10479 0.0
H677 H 0.64167 0.38395 0.10961 0.0
C678 C 0.50164 0.37488 0.0246 0.0
C679 C 0.43787 0.37019 0.97642 0.0
C680 C 0.61417 0.37626 0.02182 0.0
C681 C 0.49097 0.36602 0.92545 0.0
C682 C 0.60144 0.36761 0.92251 0.0
C683 C 0.77654 0.3746 0.96776 0.0
C684 C 0.84019 0.37952 0.01599 0.0
C685 C 0.66451 0.37279 0.97038 0.0
C686 C 0.78815 0.38284 0.06665 0.0
C687 C 0.67771 0.38112 0.06953 0.0
H688 H 0.29277 0.61753 0.92537 0.0
H689 H 0.20386 0.64161 0.09762 0.0
H690 H 0.38958 0.64822 0.12321 0.0
H691 H 0.57963 0.64707 0.09696 0.0
H692 H 0.66893 0.62338 0.92471 0.0
H693 H 0.48279 0.61693 0.8989 0.0
C694 C 0.31394 0.62438 0.9685 0.0
C695 C 0.23281 0.62945 0.00931 0.0
C696 C 0.42197 0.62818 0.98297 0.0
C697 C 0.26297 0.63794 0.06508 0.0
C698 C 0.36987 0.64163 0.07977 0.0
C699 C 0.55844 0.64043 0.05372 0.0
C700 C 0.63977 0.63521 0.01304 0.0
C701 C 0.45031 0.63684 0.03915 0.0
C702 C 0.6095 0.62707 0.95715 0.0
C703 C 0.50248 0.62347 0.94236 0.0
H704 H 0.77369 0.6222 0.42887 0.0
H705 H 0.86025 0.64304 0.60155 0.0
H706 H 0.67404 0.649 0.628 0.0
H707 H 0.48409 0.64808 0.60235 0.0
H708 H 0.39749 0.62809 0.42978 0.0
H709 H 0.58403 0.62218 0.40317 0.0
C710 C 0.75189 0.6282 0.47233 0.0
C711 C 0.83247 0.6325 0.51307 0.0
C712 C 0.64359 0.63167 0.4873 0.0
C713 C 0.80155 0.63995 0.56916 0.0
C714 C 0.69436 0.64327 0.58432 0.0
C715 C 0.50595 0.64235 0.55885 0.0
C716 C 0.42523 0.63795 0.51816 0.0
C717 C 0.6144 0.63917 0.54384 0.0
C718 C 0.4564 0.63106 0.46208 0.0
C719 C 0.56367 0.62779 0.44685 0.0
H720 H 0.59778 0.37085 0.41911 0.0
H721 H 0.68449 0.38771 0.59098 0.0
H722 H 0.49786 0.39314 0.61822 0.0
H723 H 0.30811 0.39357 0.59336 0.0
H724 H 0.22153 0.37598 0.42116 0.0
H725 H 0.40785 0.37044 0.39407 0.0
C726 C 0.57593 0.3758 0.46262 0.0
C727 C 0.65669 0.37947 0.50306 0.0
C728 C 0.46746 0.37871 0.47792 0.0
C729 C 0.62554 0.38534 0.55903 0.0
C730 C 0.51823 0.38833 0.57457 0.0
C731 C 0.32993 0.38836 0.54982 0.0
C732 C 0.24935 0.38484 0.50934 0.0
C733 C 0.43827 0.38517 0.53447 0.0
C734 C 0.28027 0.37843 0.45323 0.0
C735 C 0.38749 0.37537 0.43774 0.0
H736 H 0.94564 0.8662 0.04166 0.0
H737 H 0.86079 0.8849 0.92368 0.0
H738 H 1.04802 0.8896 0.91115 0.0
H739 H 0.2375 0.88831 0.93362 0.0
H740 H 0.32117 0.8699 0.05258 0.0
H741 H 0.13449 0.86506 0.06447 0.0
C742 C 0.96818 0.87149 0.0137 0.0
C743 C 0.8886 0.87561 0.98488 0.0
C744 C 0.07649 0.87397 0.00623 0.0
C745 C 0.91959 0.88204 0.94761 0.0
C746 C 1.027 0.8846 0.94011 0.0
C747 C 0.2148 0.88301 0.96153 0.0
C748 C 0.29426 0.87892 0.99055 0.0
C749 C 0.10635 0.88055 0.96899 0.0
C750 C 0.26289 0.87261 0.0281 0.0
C751 C 0.15561 0.87 0.03535 0.0
H752 H 0.13993 0.14231 0.10262 0.0
H753 H 0.23173 0.12705 0.93175 0.0
H754 H 1.04561 0.12221 0.90357 0.0
H755 H 0.85485 0.12202 0.92733 0.0
H756 H 0.76329 0.13797 0.0986 0.0
H757 H 0.94909 0.1429 0.12664 0.0
C758 C 0.11928 0.13784 0.05912 0.0
C759 C 0.20119 0.13446 0.01918 0.0
C760 C 1.01115 0.13533 0.04332 0.0
C761 C 0.17174 0.12919 0.96325 0.0
C762 C 0.06476 0.12655 0.94719 0.0
C763 C 0.87549 0.12673 0.9709 0.0
C764 C 0.79373 0.12997 0.01085 0.0
C765 C 0.98354 0.1295 0.98677 0.0
C766 C 0.82304 0.13574 0.06696 0.0
C767 C 0.92995 0.13845 0.08299 0.0
H768 H 0.3327 0.12228 0.42967 0.0
H769 H 0.42121 0.13912 0.60137 0.0
H770 H 0.2354 0.14482 0.62921 0.0
H771 H 1.04523 0.14465 0.60498 0.0
H772 H 0.95602 0.12797 0.43348 0.0
H773 H 0.14249 0.12276 0.40557 0.0
C774 C 0.31143 0.12735 0.47327 0.0
C775 C 0.39247 0.13065 0.51339 0.0
C776 C 0.20326 0.13056 0.48904 0.0
C777 C 0.36217 0.13687 0.56957 0.0
C778 C 0.25521 0.14002 0.58549 0.0
C779 C 0.06652 0.13982 0.56141 0.0
C780 C 0.98516 0.1362 0.52129 0.0
C781 C 0.17479 0.1369 0.54568 0.0
C782 C 1.01552 0.1304 0.46522 0.0
C783 C 0.12273 0.12751 0.44928 0.0
H784 H 0.82439 0.89186 0.58455 0.0
H785 H 0.73655 0.87595 0.4131 0.0
H786 H 0.92271 0.87059 0.38535 0.0
H787 H 0.11232 0.87027 0.4095 0.0
H788 H 0.20104 0.88622 0.58079 0.0
H789 H 1.01462 0.89154 0.60873 0.0
C790 C 0.84595 0.88709 0.54103 0.0
C791 C 0.76511 0.88387 0.50087 0.0
C792 C 0.95418 0.88408 0.52534 0.0
C793 C 0.79563 0.8781 0.44484 0.0
C794 C 0.90267 0.87514 0.42899 0.0
C795 C 0.09094 0.875 0.45304 0.0
C796 C 0.17202 0.87833 0.49311 0.0
C797 C 0.98282 0.878 0.46877 0.0
C798 C 0.14167 0.88402 0.54914 0.0
C799 C 1.03454 0.88697 0.56508 0.0
H800 H 0.15901 0.53225 0.07025 0.0
H801 H 0.97132 0.52493 0.9262 0.0
H802 H 0.92291 0.49822 0.91655 0.0
H803 H 0.93536 0.47666 0.94786 0.0
H804 H 0.12318 0.4839 0.09175 0.0
H805 H 0.17235 0.51058 0.10124 0.0
C806 C 0.10827 0.52479 0.03638 0.0
C807 C 0.06883 0.53079 -0.00083 0.0
C808 C 0.08131 0.50928 0.03063 0.0
C809 C 1.00173 0.52089 0.95614 0.0
C810 C 0.97453 0.5055 0.95027 0.0
C811 C 0.98637 0.48409 0.98165 0.0
C812 C 1.02526 0.47811 0.01899 0.0
C813 C 1.01373 0.49956 0.98726 0.0
C814 C 0.09294 0.48795 0.06182 0.0
C815 C 0.12058 0.50332 0.06757 0.0
H816 H 0.859 0.49766 0.54615 0.0
H817 H 0.17162 0.48064 0.55823 0.0
H818 H 0.24913 0.49978 0.52731 0.0
H819 H 0.22846 0.52156 0.49808 0.0
H820 H 0.91577 0.53839 0.48493 0.0
H821 H 0.83837 0.51952 0.51713 0.0
C822 C 0.94417 0.49821 0.54245 0.0
C823 C 1.00929 0.48769 0.55443 0.0
C824 C 0.98832 0.50935 0.52511 0.0
C825 C 0.11945 0.48842 0.54853 0.0
C826 C 0.16394 0.49946 0.53128 0.0
C827 C 0.14328 0.52104 0.50183 0.0
C828 C 0.07818 0.53141 0.489 0.0
C829 C 0.09914 0.50998 0.51948 0.0
C830 C 0.96804 0.53074 0.4952 0.0
C831 C 0.92357 0.51984 0.51315 0.0
H832 H 0.74289 0.99392 0.03511 0.0
H833 H 0.43641 0.97124 0.00401 0.0
H834 H 0.3717 0.99057 0.97052 0.0
H835 H 0.40114 0.01418 0.95173 0.0
H836 H 0.70984 0.03627 0.97988 0.0
H837 H 0.77308 0.0173 0.01493 0.0
C838 C 0.66168 0.99326 0.02135 0.0
C839 C 0.59462 0.98113 0.0222 0.0
C840 C 0.62489 1.00445 0.00229 0.0
C841 C 0.49014 0.98032 0.00328 0.0
C842 C 0.45284 0.99145 0.98449 0.0
C843 C 0.48267 0.01479 0.96493 0.0
C844 C 0.55029 0.02675 0.96303 0.0
C845 C 0.51948 1.00358 0.98389 0.0
C846 C 0.65508 0.02745 0.98159 0.0
C847 C 0.69181 0.01647 0.00119 0.0
H848 H 0.41804 0.02483 0.49647 0.0
H849 H 0.72755 0.0449 0.55133 0.0
H850 H 0.78564 0.01978 0.55268 0.0
H851 H 0.74814 0.99218 0.53975 0.0
H852 H 0.43936 0.97196 0.4833 0.0
H853 H 0.38121 0.9971 0.48243 0.0
C854 C 0.49799 0.02376 0.50914 0.0
C855 C 0.56819 0.0368 0.52372 0.0
C856 C 0.53103 0.00924 0.50991 0.0
C857 C 0.67204 0.03505 0.53922 0.0
C858 C 0.70525 0.02069 0.54031 0.0
C859 C 0.66839 0.99319 0.52674 0.0
C860 C 0.59833 0.98011 0.51194 0.0
C861 C 0.6355 0.00769 0.52571 0.0
C862 C 0.49476 0.98183 0.49593 0.0
C863 C 0.46148 0.99621 0.49501 0.0
H864 H 0.24942 0.25746 0.92677 0.0
H865 H 0.17316 0.29446 0.08846 0.0
H866 H 0.24827 0.2782 0.13226 0.0
H867 H 0.33014 0.25309 0.12439 0.0
H868 H 0.40899 0.21635 0.9624 0.0
H869 H 0.33513 0.23269 0.919 0.0
C870 C 0.24867 0.26194 0.97161 0.0
C871 C 0.2052 0.27714 0.00424 0.0
C872 C 0.29131 0.25249 -0.00355 0.0
C873 C 0.20685 0.28288 0.06234 0.0
C874 C 0.24913 0.27353 0.0874 0.0
C875 C 0.33234 0.2487 0.07961 0.0
C876 C 0.37491 0.23342 0.04684 0.0
C877 C 0.29104 0.25828 0.05484 0.0
C878 C 0.3752 0.22789 0.98877 0.0
C879 C 0.33372 0.2373 0.96385 0.0
H880 H 0.53511 0.75851 0.9458 0.0
H881 H 0.81532 0.78644 0.95646 0.0
H882 H 0.91919 0.76851 0.98323 0.0
H883 H 0.93106 0.74497 0.00349 0.0
H884 H 0.6503 0.71749 -0.00345 0.0
H885 H 0.54739 0.73476 0.96611 0.0
C886 C 0.61908 0.76062 0.95358 0.0
C887 C 0.66702 0.7739 0.94924 0.0
C888 C 0.67865 0.75022 0.96898 0.0
C889 C 0.77578 0.77651 0.96024 0.0
C890 C 0.83551 0.76617 0.97515 0.0
C891 C 0.84711 0.74279 -0.00408 0.0
C892 C 0.79885 0.72992 0.00287 0.0
C893 C 0.78774 0.75303 0.97983 0.0
C894 C 0.69035 0.72713 0.99114 0.0
C895 C 0.63104 0.73713 0.97421 0.0
H896 H 0.27804 0.75428 0.59262 0.0
H897 H 0.20988 0.71655 0.43135 0.0
H898 H 0.27451 0.73336 0.38715 0.0
H899 H 0.34316 0.75917 0.39446 0.0
H900 H 0.41142 0.79686 0.55593 0.0
H901 H 0.35009 0.77986 0.59987 0.0
C902 C 0.27677 0.74973 0.54778 0.0
C903 C 0.23855 0.73415 0.51544 0.0
C904 C 0.31259 0.75955 0.52268 0.0
C905 C 0.23976 0.72839 0.45732 0.0
C906 C 0.27585 0.73807 0.43201 0.0
C907 C 0.34576 0.76365 0.43926 0.0
C908 C 0.38182 0.77936 0.4717 0.0
C909 C 0.31157 0.75372 0.4643 0.0
C910 C 0.38261 0.78497 0.52981 0.0
C911 C 0.34838 0.77518 0.55501 0.0
H912 H 0.82275 0.26105 0.416 0.0
H913 H 0.91662 0.2984 0.5736 0.0
H914 H 0.87252 0.2811 0.61945 0.0
H915 H 0.81287 0.2551 0.61456 0.0
H916 H 0.71909 0.21777 0.45687 0.0
H917 H 0.76224 0.23512 0.41116 0.0
C918 C 0.83453 0.26542 0.46035 0.0
C919 C 0.87354 0.28108 0.49108 0.0
C920 C 0.81055 0.2553 0.48641 0.0
C921 C 0.88569 0.28654 0.54877 0.0
C922 C 0.86138 0.27657 0.57503 0.0
C923 C 0.80079 0.25075 0.57023 0.0
C924 C 0.76243 0.23505 0.5394 0.0
C925 C 0.82435 0.2609 0.54422 0.0
C926 C 0.74973 0.22964 0.48176 0.0
C927 C 0.7735 0.23964 0.45558 0.0
H928 H 0.06662 0.40104 0.1979 0.0
H929 H 0.12588 0.35023 0.11542 0.0
H930 H 0.09968 0.34778 0.20237 0.0
H931 H 0.05694 0.35994 0.3016 0.0
H932 H 0.98988 0.41058 0.38395 0.0
H933 H 1.02422 0.41326 0.29809 0.0
C934 C 0.07542 0.38951 0.19922 0.0
C935 C 0.09863 0.37587 0.1502 0.0
C936 C 0.05856 0.38812 0.24948 0.0
C937 C 0.10727 0.36091 0.15241 0.0
C938 C 0.09257 0.35949 0.20221 0.0
C939 C 1.0489 0.37153 0.30087 0.0
C940 C 1.0197 0.38493 0.34947 0.0
C941 C 0.0672 0.37299 0.25095 0.0
C942 C 1.01184 0.39995 0.34743 0.0
C943 C 1.03143 0.40154 0.29817 0.0
H944 H 0.96809 0.61332 0.16187 0.0
H945 H 0.05749 0.66258 0.20926 0.0
H946 H 0.09619 0.6658 0.30273 0.0
H947 H 0.10622 0.65462 0.37178 0.0
H948 H 1.02238 0.60513 0.32388 0.0
H949 H 0.98147 0.60199 0.23027 0.0
C950 C 0.9962 0.62477 0.19253 0.0
C951 C 1.00795 0.63778 0.17837 0.0
C952 C 1.02011 0.62648 0.24639 0.0
C953 C 1.04513 0.65246 0.2189 0.0
C954 C 0.06813 0.6543 0.27255 0.0
C955 C 0.0788 0.64317 0.34084 0.0
C956 C 0.06862 0.63009 0.35464 0.0
C957 C 0.05566 0.64141 0.28688 0.0
C958 C 1.03322 0.61531 0.31405 0.0
C959 C 1.00899 0.61352 0.26054 0.0
H960 H 0.957 0.65091 0.87022 0.0
H961 H 1.02091 0.60036 0.81098 0.0
H962 H 0.06016 0.59871 0.71843 0.0
H963 H 0.08173 0.61196 0.65521 0.0
H964 H 1.0114 0.6624 0.71591 0.0
H965 H 0.97098 0.66378 0.80697 0.0
C966 C 0.97958 0.6395 0.83715 0.0
C967 C 0.98603 0.62578 0.84763 0.0
C968 C 1.00198 0.63866 0.78429 0.0
C969 C 1.01407 0.61107 0.80398 0.0
C970 C 1.0373 0.61015 0.75112 0.0
C971 C 0.05735 0.62326 0.68826 0.0
C972 C 0.05189 0.63718 0.67852 0.0
C973 C 1.0322 0.62391 0.74087 0.0
C974 C 1.01907 0.65161 0.72204 0.0
C975 C 0.99503 0.65239 0.77431 0.0
H976 H 0.94477 0.36066 0.64591 0.0
H977 H 0.09118 0.40675 0.69114 0.0
H978 H 0.13233 0.40843 0.78321 0.0
H979 H 0.12665 0.39675 0.85108 0.0
H980 H 0.96384 0.35189 0.80825 0.0
H981 H 0.93017 0.34973 0.71566 0.0
C982 C 0.98618 0.371 0.67595 0.0
C983 C 1.01523 0.38352 0.66195 0.0
C984 C 1.00701 0.37209 0.72937 0.0
C985 C 0.06753 0.39699 0.7013 0.0
C986 C 0.0912 0.39795 0.75389 0.0
C987 C 0.08347 0.38653 0.82164 0.0
C988 C 0.05116 0.37424 0.83648 0.0
C989 C 0.06095 0.3856 0.76854 0.0
C990 C 0.99376 0.36123 0.79771 0.0
C991 C 0.97326 0.36004 0.74461 0.0
H992 H 0.65654 0.89552 0.18907 0.0
H993 H 0.46799 0.85311 0.10271 0.0
H994 H 0.42738 0.8518 0.19011 0.0
H995 H 0.43895 0.86316 0.29117 0.0
H996 H 0.61926 0.90614 0.37945 0.0
H997 H 0.66497 0.90731 0.29148 0.0
C998 C 0.60532 0.88615 0.18933 0.0
C999 C 0.56396 0.87464 0.13917 0.0
C1000 C 0.57943 0.88571 0.2402 0.0
C1001 C 0.50038 0.86225 0.14049 0.0
C1002 C 0.47665 0.8615 0.19056 0.0
C1003 C 0.48948 0.87263 0.29107 0.0
C1004 C 0.52708 0.88436 0.34146 0.0
C1005 C 0.51489 0.87322 0.24062 0.0
C1006 C 0.58918 0.89697 0.34103 0.0
C1007 C 0.61582 0.89758 0.29077 0.0
H1008 H 0.61023 0.15213 0.21524 0.0
H1009 H 0.51946 0.10237 0.13361 0.0
H1010 H 0.55596 0.09913 0.2184 0.0
H1011 H 0.60721 0.11073 0.31678 0.0
H1012 H 0.69101 0.16068 0.39897 0.0
H1013 H 0.66068 0.1637 0.31314 0.0
C1014 C 0.59707 0.14062 0.21591 0.0
C1015 C 0.56086 0.1276 0.16796 0.0
C1016 C 0.61664 0.1389 0.26505 0.0
C1017 C 0.5469 0.11266 0.16972 0.0
C1018 C 0.56764 0.11078 0.2183 0.0
C1019 C 0.62108 0.12216 0.31564 0.0
C1020 C 0.65312 0.13537 0.36398 0.0
C1021 C 0.60212 0.12384 0.26628 0.0
C1022 C 0.66654 0.15031 0.36229 0.0
C1023 C 0.64935 0.15204 0.31322 0.0
H1024 H 0.60277 0.11172 0.81859 0.0
H1025 H 0.49198 0.16052 0.89913 0.0
H1026 H 0.52259 0.16401 0.81411 0.0
H1027 H 0.57901 0.15311 0.71694 0.0
H1028 H 0.69935 0.10477 0.63745 0.0
H1029 H 0.66444 0.10106 0.72152 0.0
C1030 C 0.58409 0.12303 0.81724 0.0
C1031 C 0.54394 0.13577 0.86486 0.0
C1032 C 0.60366 0.12504 0.76844 0.0
C1033 C 0.52297 0.15053 0.86302 0.0
C1034 C 0.54027 0.15252 0.8144 0.0
C1035 C 0.59943 0.14185 0.71806 0.0
C1036 C 0.64331 0.12937 0.67084 0.0
C1037 C 0.58085 0.13988 0.76691 0.0
C1038 C 0.66636 0.11469 0.67308 0.0
C1039 C 0.64628 0.11253 0.72122 0.0
H1040 H 0.55838 0.90139 0.69699 0.0
H1041 H 0.43437 0.85356 0.61056 0.0
H1042 H 0.45111 0.84907 0.69432 0.0
H1043 H 0.50099 0.85864 0.79163 0.0
H1044 H 0.63749 0.90568 0.87755 0.0
H1045 H 0.61505 0.91065 0.79485 0.0
C1046 C 0.53413 0.89008 0.69686 0.0
C1047 C 0.49439 0.87787 0.6479 0.0
C1048 C 0.54655 0.88742 0.74497 0.0
C1049 C 0.46535 0.86312 0.64778 0.0
C1050 C 0.47476 0.86055 0.69565 0.0
C1051 C 0.52681 0.86993 0.79235 0.0
C1052 C 0.5715 0.8817 0.8408 0.0
C1053 C 0.51566 0.87258 0.74438 0.0
C1054 C 0.60353 0.89633 0.84075 0.0
C1055 C 0.59042 0.89921 0.79348 0.0
loop_
_geom_bond_atom_site_label_1
_geom_bond_atom_site_label_2
_geom_bond_distance
_geom_bond_site_symmetry_2
_ccdc_geom_bond_type
Eu0 N31 2.657 . S
Eu0 N38 2.609 . S
Eu0 O44 2.558 . S
Eu0 O45 2.612 1_454 S
Eu0 O47 2.339 1_554 S
Eu0 O48 2.563 1_455 S
Eu0 O49 2.419 . S
Eu0 O51 2.380 . S
Eu0 O52 2.432 . S
Eu0 C64 2.848 . S
C1 C4 1.429 . S
C1 C5 1.411 . S
C1 N8 1.377 . S
C2 C4 1.420 . S
C2 C6 1.423 . S
C2 C14 1.392 1_556 S
C3 C5 1.420 . S
C3 C6 1.351 . S
C3 H26 0.931 . S
C4 C1 1.429 . S
C4 C2 1.420 . S
C4 N12 1.362 1_556 S
C5 C1 1.411 . S
C5 C3 1.420 . S
C5 C10 1.395 . S
C6 C2 1.423 . S
C6 C3 1.351 . S
C6 H18 0.930 . S
C7 C9 1.400 . S
C7 C10 1.386 . S
C7 H19 0.930 . S
N8 C1 1.377 . S
N8 C9 1.321 . S
N8 Eu11 2.609 1_655 S
C9 C7 1.400 . S
C9 N8 1.321 . S
C9 H16 0.930 1_655 S
C10 C5 1.395 . S
C10 C7 1.386 . S
C10 H29 0.930 . S
Eu11 N8 2.609 1_455 S
Eu11 N12 2.657 1_456 S
Eu11 O45 2.380 1_455 S
Eu11 O46 2.432 . S
Eu11 O50 2.558 . S
Eu11 O51 2.612 1_556 S
Eu11 O53 2.339 1_556 S
Eu11 O54 2.563 . S
Eu11 O55 2.419 . S
Eu11 C75 2.848 . S
N12 C4 1.362 1_554 S
N12 Eu11 2.657 1_654 S
N12 C13 1.334 . S
C13 N12 1.334 . S
C13 C15 1.413 . S
C13 H20 0.929 . S
C14 C2 1.392 1_554 S
C14 C15 1.367 . S
C14 H22 0.930 . S
C15 C13 1.413 . S
C15 C14 1.367 . S
C15 H17 0.930 . S
H16 C9 0.930 1_455 S
H17 C15 0.930 . S
H18 C6 0.930 . S
H19 C7 0.930 . S
H20 C13 0.929 . S
H21 C35 0.930 . S
H22 C14 0.930 . S
H23 C41 0.930 . S
H24 C32 0.929 . S
H25 C39 0.930 . S
H26 C3 0.931 . S
H27 C33 0.930 . S
H28 C66 0.930 . S
H29 C10 0.930 . S
H30 C65 0.931 . S
N31 Eu0 2.657 . S
N31 C32 1.334 1_554 S
N31 C36 1.362 . S
C32 H24 0.929 . S
C32 N31 1.334 1_556 S
C32 C35 1.413 . S
C33 H27 0.930 . S
C33 C34 1.392 1_556 S
C33 C35 1.367 . S
C34 C33 1.392 1_554 S
C34 C36 1.420 . S
C34 C66 1.423 . S
C35 H21 0.930 . S
C35 C32 1.413 . S
C35 C33 1.367 . S
C36 N31 1.362 . S
C36 C34 1.420 . S
C36 C40 1.429 . S
H37 C42 0.930 . S
N38 Eu0 2.609 . S
N38 C40 1.377 . S
N38 C41 1.321 . S
C39 H25 0.930 . S
C39 C41 1.400 . S
C39 C42 1.386 . S
C40 C36 1.429 . S
C40 N38 1.377 . S
C40 C43 1.411 . S
C41 H23 0.930 . S
C41 N38 1.321 . S
C41 C39 1.400 . S
C42 H37 0.930 . S
C42 C39 1.386 . S
C42 C43 1.395 . S
C43 C40 1.411 . S
C43 C42 1.395 . S
C43 C65 1.420 . S
O44 Eu0 2.558 . S
O44 C64 1.257 . S
O45 Eu0 2.612 1_656 S
O45 Eu11 2.380 1_655 S
O45 C56 1.276 1_556 S
O46 Eu11 2.432 . S
O46 C63 1.264 . S
O47 Eu0 2.339 1_556 S
O47 C63 1.254 . S
O48 Eu0 2.563 1_655 S
O48 C56 1.235 . S
O49 Eu0 2.419 . S
O49 C64 1.249 . S
O50 Eu11 2.558 . S
O50 C75 1.257 . S
O51 Eu0 2.380 . S
O51 Eu11 2.612 1_554 S
O51 C67 1.276 . S
O52 Eu0 2.432 . S
O52 C74 1.264 . S
O53 Eu11 2.339 1_554 S
O53 C74 1.254 . S
O54 Eu11 2.563 . S
O54 C67 1.235 1_556 S
O55 Eu11 2.419 . S
O55 C75 1.249 . S
C56 O45 1.276 1_554 S
C56 O48 1.235 . S
C57 C59 1.393 . S
C57 C61 1.395 . S
C57 C64 1.492 1_655 S
C58 C59 1.392 . S
C58 C60 1.386 . S
C59 C57 1.393 . S
C59 C58 1.392 . S
C59 H76 0.930 1_554 S
C60 C58 1.386 . S
C60 C62 1.395 . S
C60 H77 0.930 . S
C61 C57 1.395 . S
C61 C62 1.379 . S
C61 H78 0.930 1_655 S
C62 C60 1.395 . S
C62 C61 1.379 . S
C62 H79 0.930 . S
C63 O46 1.264 . S
C63 O47 1.254 . S
C64 Eu0 2.848 . S
C64 O44 1.257 . S
C64 O49 1.249 . S
C64 C57 1.492 1_455 S
C65 H30 0.931 . S
C65 C43 1.420 . S
C65 C66 1.351 . S
C66 H28 0.930 . S
C66 C34 1.423 . S
C66 C65 1.351 . S
C67 O51 1.276 . S
C67 O54 1.235 1_554 S
C68 C69 1.393 . S
C68 C72 1.395 . S
C68 C75 1.492 . S
C69 C68 1.393 . S
C69 C70 1.392 . S
C69 H80 0.930 1_556 S
C70 C69 1.392 . S
C70 C71 1.386 . S
C71 C70 1.386 . S
C71 C73 1.395 . S
C71 H81 0.930 . S
C72 C68 1.395 . S
C72 C73 1.379 . S
C72 H82 0.930 . S
C73 C71 1.395 . S
C73 C72 1.379 . S
C73 H83 0.930 . S
C74 O52 1.264 . S
C74 O53 1.254 . S
C75 Eu11 2.848 . S
C75 O50 1.257 . S
C75 O55 1.249 . S
C75 C68 1.492 . S
H76 C59 0.930 1_556 S
H77 C60 0.930 . S
H78 C61 0.930 1_455 S
H79 C62 0.930 . S
H80 C69 0.930 1_554 S
H81 C71 0.930 . S
H82 C72 0.930 . S
H83 C73 0.930 . S
Eu84 N115 2.657 1_655 S
Eu84 N122 2.609 1_655 S
Eu84 O128 2.558 . S
Eu84 O129 2.612 . S
Eu84 O131 2.339 1_554 S
Eu84 O132 2.563 . S
Eu84 O133 2.419 . S
Eu84 O135 2.380 1_655 S
Eu84 O136 2.432 . S
Eu84 C148 2.848 . S
C85 C88 1.429 . S
C85 C89 1.411 . S
C85 N92 1.377 . S
C86 C88 1.420 . S
C86 C90 1.423 . S
C86 C98 1.392 1_556 S
C87 C89 1.420 . S
C87 C90 1.351 . S
C87 H110 0.931 . S
C88 C85 1.429 . S
C88 C86 1.420 . S
C88 N96 1.362 1_556 S
C89 C85 1.411 . S
C89 C87 1.420 . S
C89 C94 1.395 . S
C90 C86 1.423 . S
C90 C87 1.351 . S
C90 H102 0.930 . S
C91 C93 1.400 . S
C91 C94 1.386 . S
C91 H103 0.930 . S
N92 C85 1.377 . S
N92 C93 1.321 . S
N92 Eu95 2.609 . S
C93 C91 1.400 . S
C93 N92 1.321 . S
C93 H100 0.930 . S
C94 C89 1.395 . S
C94 C91 1.386 . S
C94 H113 0.930 . S
Eu95 N92 2.609 . S
Eu95 N96 2.657 1_556 S
Eu95 O129 2.380 1_556 S
Eu95 O130 2.432 . S
Eu95 O134 2.558 . S
Eu95 O135 2.612 1_656 S
Eu95 O137 2.339 1_556 S
Eu95 O138 2.563 1_655 S
Eu95 O139 2.419 1_556 S
Eu95 C159 2.848 . S
N96 C88 1.362 1_554 S
N96 Eu95 2.657 1_554 S
N96 C97 1.334 . S
C97 N96 1.334 . S
C97 C99 1.413 . S
C97 H104 0.929 . S
C98 C86 1.392 1_554 S
C98 C99 1.367 . S
C98 H106 0.930 . S
C99 C97 1.413 . S
C99 C98 1.367 . S
C99 H101 0.930 . S
H100 C93 0.930 . S
H101 C99 0.930 . S
H102 C90 0.930 . S
H103 C91 0.930 . S
H104 C97 0.929 . S
H105 C119 0.930 . S
H106 C98 0.930 . S
H107 C125 0.930 1_655 S
H108 C116 0.929 . S
H109 C123 0.930 . S
H110 C87 0.931 . S
H111 C117 0.930 . S
H112 C150 0.930 . S
H113 C94 0.930 . S
H114 C149 0.931 . S
N115 Eu84 2.657 1_455 S
N115 C116 1.334 1_554 S
N115 C120 1.362 . S
C116 H108 0.929 . S
C116 N115 1.334 1_556 S
C116 C119 1.413 . S
C117 H111 0.930 . S
C117 C118 1.392 1_556 S
C117 C119 1.367 . S
C118 C117 1.392 1_554 S
C118 C120 1.420 . S
C118 C150 1.423 . S
C119 H105 0.930 . S
C119 C116 1.413 . S
C119 C117 1.367 . S
C120 N115 1.362 . S
C120 C118 1.420 . S
C120 C124 1.429 . S
H121 C126 0.930 . S
N122 Eu84 2.609 1_455 S
N122 C124 1.377 . S
N122 C125 1.321 . S
C123 H109 0.930 . S
C123 C125 1.400 . S
C123 C126 1.386 . S
C124 C120 1.429 . S
C124 N122 1.377 . S
C124 C127 1.411 . S
C125 H107 0.930 1_455 S
C125 N122 1.321 . S
C125 C123 1.400 . S
C126 H121 0.930 . S
C126 C123 1.386 . S
C126 C127 1.395 . S
C127 C124 1.411 . S
C127 C126 1.395 . S
C127 C149 1.420 . S
O128 Eu84 2.558 . S
O128 C148 1.257 . S
O129 Eu84 2.612 . S
O129 Eu95 2.380 1_554 S
O129 C140 1.276 . S
O130 Eu95 2.432 . S
O130 C147 1.264 . S
O131 Eu84 2.339 1_556 S
O131 C147 1.254 . S
O132 Eu84 2.563 . S
O132 C140 1.235 . S
O133 Eu84 2.419 . S
O133 C148 1.249 . S
O134 Eu95 2.558 . S
O134 C159 1.257 . S
O135 Eu84 2.380 1_455 S
O135 Eu95 2.612 1_454 S
O135 C151 1.276 . S
O136 Eu84 2.432 . S
O136 C158 1.264 . S
O137 Eu95 2.339 1_554 S
O137 C158 1.254 . S
O138 Eu95 2.563 1_455 S
O138 C151 1.235 1_556 S
O139 Eu95 2.419 1_554 S
O139 C159 1.249 1_554 S
C140 O129 1.276 . S
C140 O132 1.235 . S
C141 C143 1.393 . S
C141 C145 1.395 . S
C141 C148 1.492 . S
C142 C143 1.392 . S
C142 C144 1.386 . S
C143 C141 1.393 . S
C143 C142 1.392 . S
C143 H160 0.923 1_554 S
C144 C142 1.386 . S
C144 C146 1.395 . S
C144 H161 0.930 . S
C145 C141 1.395 . S
C145 C146 1.379 . S
C145 H162 0.930 . S
C146 C144 1.395 . S
C146 C145 1.379 . S
C146 H163 0.930 . S
C147 O130 1.264 . S
C147 O131 1.254 . S
C148 Eu84 2.848 . S
C148 O128 1.257 . S
C148 O133 1.249 . S
C148 C141 1.492 . S
C149 H114 0.931 . S
C149 C127 1.420 . S
C149 C150 1.351 . S
C150 H112 0.930 . S
C150 C118 1.423 . S
C150 C149 1.351 . S
C151 O135 1.276 . S
C151 O138 1.235 1_554 S
C152 C153 1.393 . S
C152 C156 1.395 . S
C152 C159 1.492 1_455 S
C153 C152 1.393 . S
C153 C154 1.392 . S
C153 H164 0.930 1_556 S
C154 C153 1.392 . S
C154 C155 1.386 . S
C155 C154 1.386 . S
C155 C157 1.395 . S
C155 H165 0.930 . S
C156 C152 1.395 . S
C156 C157 1.379 . S
C156 H166 0.930 1_455 S
C157 C155 1.395 . S
C157 C156 1.379 . S
C157 H167 0.930 . S
C158 O136 1.264 . S
C158 O137 1.254 . S
C159 Eu95 2.848 . S
C159 O134 1.257 . S
C159 O139 1.249 1_556 S
C159 C152 1.492 1_655 S
H160 C143 0.923 1_556 S
H161 C144 0.930 . S
H162 C145 0.930 . S
H163 C146 0.930 . S
H164 C153 0.930 1_554 S
H165 C155 0.930 . S
H166 C156 0.930 1_655 S
H167 C157 0.930 . S
Eu168 N199 2.657 . S
Eu168 N206 2.609 . S
Eu168 O212 2.558 . S
Eu168 O213 2.612 1_455 S
Eu168 O215 2.339 . S
Eu168 O216 2.563 1_455 S
Eu168 O217 2.419 . S
Eu168 O219 2.380 . S
Eu168 O220 2.432 . S
Eu168 C232 2.848 . S
C169 C172 1.429 . S
C169 C173 1.411 . S
C169 N176 1.377 . S
C170 C172 1.420 . S
C170 C174 1.423 . S
C170 C182 1.392 . S
C171 C173 1.420 . S
C171 C174 1.351 . S
C171 H194 0.931 . S
C172 C169 1.429 . S
C172 C170 1.420 . S
C172 N180 1.362 . S
C173 C169 1.411 . S
C173 C171 1.420 . S
C173 C178 1.395 . S
C174 C170 1.423 . S
C174 C171 1.351 . S
C174 H186 0.930 . S
C175 C177 1.400 . S
C175 C178 1.386 . S
C175 H187 0.930 . S
N176 C169 1.377 . S
N176 C177 1.321 . S
N176 Eu179 2.609 1_655 S
C177 C175 1.400 . S
C177 N176 1.321 . S
C177 H184 0.930 1_655 S
C178 C173 1.395 . S
C178 C175 1.386 . S
C178 H197 0.930 . S
Eu179 N176 2.609 1_455 S
Eu179 N180 2.657 1_455 S
Eu179 O213 2.380 1_455 S
Eu179 O214 2.432 . S
Eu179 O218 2.558 . S
Eu179 O219 2.612 . S
Eu179 O221 2.339 . S
Eu179 O222 2.563 . S
Eu179 O223 2.419 . S
Eu179 C243 2.848 . S
N180 C172 1.362 . S
N180 Eu179 2.657 1_655 S
N180 C181 1.334 . S
C181 N180 1.334 . S
C181 C183 1.413 . S
C181 H188 0.929 . S
C182 C170 1.392 . S
C182 C183 1.367 . S
C182 H190 0.930 . S
C183 C181 1.413 . S
C183 C182 1.367 . S
C183 H185 0.930 . S
H184 C177 0.930 1_455 S
H185 C183 0.930 . S
H186 C174 0.930 . S
H187 C175 0.930 . S
H188 C181 0.929 . S
H189 C203 0.930 . S
H190 C182 0.930 . S
H191 C209 0.930 . S
H192 C200 0.929 . S
H193 C207 0.930 . S
H194 C171 0.931 . S
H195 C201 0.930 . S
H196 C234 0.930 . S
H197 C178 0.930 . S
H198 C233 0.931 . S
N199 Eu168 2.657 . S
N199 C200 1.334 . S
N199 C204 1.362 . S
C200 H192 0.929 . S
C200 N199 1.334 . S
C200 C203 1.413 . S
C201 H195 0.930 . S
C201 C202 1.392 . S
C201 C203 1.367 . S
C202 C201 1.392 . S
C202 C204 1.420 . S
C202 C234 1.423 . S
C203 H189 0.930 . S
C203 C200 1.413 . S
C203 C201 1.367 . S
C204 N199 1.362 . S
C204 C202 1.420 . S
C204 C208 1.429 . S
H205 C210 0.930 . S
N206 Eu168 2.609 . S
N206 C208 1.377 . S
N206 C209 1.321 . S
C207 H193 0.930 . S
C207 C209 1.400 . S
C207 C210 1.386 . S
C208 C204 1.429 . S
C208 N206 1.377 . S
C208 C211 1.411 . S
C209 H191 0.930 . S
C209 N206 1.321 . S
C209 C207 1.400 . S
C210 H205 0.930 . S
C210 C207 1.386 . S
C210 C211 1.395 . S
C211 C208 1.411 . S
C211 C210 1.395 . S
C211 C233 1.420 . S
O212 Eu168 2.558 . S
O212 C232 1.257 . S
O213 Eu168 2.612 1_655 S
O213 Eu179 2.380 1_655 S
O213 C224 1.276 . S
O214 Eu179 2.432 . S
O214 C231 1.264 . S
O215 Eu168 2.339 . S
O215 C231 1.254 . S
O216 Eu168 2.563 1_655 S
O216 C224 1.235 . S
O217 Eu168 2.419 . S
O217 C232 1.249 . S
O218 Eu179 2.558 . S
O218 C243 1.257 . S
O219 Eu168 2.380 . S
O219 Eu179 2.612 . S
O219 C235 1.276 . S
O220 Eu168 2.432 . S
O220 C242 1.264 . S
O221 Eu179 2.339 . S
O221 C242 1.254 . S
O222 Eu179 2.563 . S
O222 C235 1.235 . S
O223 Eu179 2.419 . S
O223 C243 1.249 . S
C224 O213 1.276 . S
C224 O216 1.235 . S
C225 C227 1.393 . S
C225 C229 1.395 . S
C225 C232 1.492 1_655 S
C226 C227 1.392 . S
C226 C228 1.386 . S
C227 C225 1.393 . S
C227 C226 1.392 . S
C227 H244 0.930 . S
C228 C226 1.386 . S
C228 C230 1.395 . S
C228 H245 0.930 . S
C229 C225 1.395 . S
C229 C230 1.379 . S
C229 H246 0.930 1_655 S
C230 C228 1.395 . S
C230 C229 1.379 . S
C230 H247 0.930 . S
C231 O214 1.264 . S
C231 O215 1.254 . S
C232 Eu168 2.848 . S
C232 O212 1.257 . S
C232 O217 1.249 . S
C232 C225 1.492 1_455 S
C233 H198 0.931 . S
C233 C211 1.420 . S
C233 C234 1.351 . S
C234 H196 0.930 . S
C234 C202 1.423 . S
C234 C233 1.351 . S
C235 O219 1.276 . S
C235 O222 1.235 . S
C236 C237 1.393 . S
C236 C240 1.395 . S
C236 C243 1.492 . S
C237 C236 1.393 . S
C237 C238 1.392 . S
C237 H248 0.930 . S
C238 C237 1.392 . S
C238 C239 1.386 . S
C239 C238 1.386 . S
C239 C241 1.395 . S
C239 H249 0.930 . S
C240 C236 1.395 . S
C240 C241 1.379 . S
C240 H250 0.930 . S
C241 C239 1.395 . S
C241 C240 1.379 . S
C241 H251 0.930 . S
C242 O220 1.264 . S
C242 O221 1.254 . S
C243 Eu179 2.848 . S
C243 O218 1.257 . S
C243 O223 1.249 . S
C243 C236 1.492 . S
H244 C227 0.930 . S
H245 C228 0.930 . S
H246 C229 0.930 1_455 S
H247 C230 0.930 . S
H248 C237 0.930 . S
H249 C239 0.930 . S
H250 C240 0.930 . S
H251 C241 0.930 . S
Eu252 N283 2.657 1_655 S
Eu252 N290 2.609 1_655 S
Eu252 O296 2.558 . S
Eu252 O297 2.612 . S
Eu252 O299 2.339 . S
Eu252 O300 2.563 . S
Eu252 O301 2.419 . S
Eu252 O303 2.380 1_655 S
Eu252 O304 2.432 . S
Eu252 C316 2.848 . S
C253 C256 1.429 . S
C253 C257 1.411 . S
C253 N260 1.377 . S
C254 C256 1.420 . S
C254 C258 1.423 . S
C254 C266 1.392 . S
C255 C257 1.420 . S
C255 C258 1.351 . S
C255 H278 0.931 . S
C256 C253 1.429 . S
C256 C254 1.420 . S
C256 N264 1.362 . S
C257 C253 1.411 . S
C257 C255 1.420 . S
C257 C262 1.395 . S
C258 C254 1.423 . S
C258 C255 1.351 . S
C258 H270 0.930 . S
C259 C261 1.400 . S
C259 C262 1.386 . S
C259 H271 0.930 . S
N260 C253 1.377 . S
N260 C261 1.321 . S
N260 Eu263 2.609 . S
C261 C259 1.400 . S
C261 N260 1.321 . S
C261 H268 0.930 . S
C262 C257 1.395 . S
C262 C259 1.386 . S
C262 H281 0.930 . S
Eu263 N260 2.609 . S
Eu263 N264 2.657 . S
Eu263 O297 2.380 . S
Eu263 O298 2.432 . S
Eu263 O302 2.558 . S
Eu263 O303 2.612 1_655 S
Eu263 O305 2.339 . S
Eu263 O306 2.563 1_655 S
Eu263 O307 2.419 . S
Eu263 C327 2.848 . S
N264 C256 1.362 . S
N264 Eu263 2.657 . S
N264 C265 1.334 . S
C265 N264 1.334 . S
C265 C267 1.413 . S
C265 H272 0.929 . S
C266 C254 1.392 . S
C266 C267 1.367 . S
C266 H274 0.930 . S
C267 C265 1.413 . S
C267 C266 1.367 . S
C267 H269 0.930 . S
H268 C261 0.930 . S
H269 C267 0.930 . S
H270 C258 0.930 . S
H271 C259 0.930 . S
H272 C265 0.929 . S
H273 C287 0.930 . S
H274 C266 0.930 . S
H275 C293 0.930 1_655 S
H276 C284 0.929 . S
H277 C291 0.930 . S
H278 C255 0.931 . S
H279 C285 0.930 . S
H280 C318 0.930 . S
H281 C262 0.930 . S
H282 C317 0.931 . S
N283 Eu252 2.657 1_455 S
N283 C284 1.334 . S
N283 C288 1.362 . S
C284 H276 0.929 . S
C284 N283 1.334 . S
C284 C287 1.413 . S
C285 H279 0.930 . S
C285 C286 1.392 . S
C285 C287 1.367 . S
C286 C285 1.392 . S
C286 C288 1.420 . S
C286 C318 1.423 . S
C287 H273 0.930 . S
C287 C284 1.413 . S
C287 C285 1.367 . S
C288 N283 1.362 . S
C288 C286 1.420 . S
C288 C292 1.429 . S
H289 C294 0.930 . S
N290 Eu252 2.609 1_455 S
N290 C292 1.377 . S
N290 C293 1.321 . S
C291 H277 0.930 . S
C291 C293 1.400 . S
C291 C294 1.386 . S
C292 C288 1.429 . S
C292 N290 1.377 . S
C292 C295 1.411 . S
C293 H275 0.930 1_455 S
C293 N290 1.321 . S
C293 C291 1.400 . S
C294 H289 0.930 . S
C294 C291 1.386 . S
C294 C295 1.395 . S
C295 C292 1.411 . S
C295 C294 1.395 . S
C295 C317 1.420 . S
O296 Eu252 2.558 . S
O296 C316 1.257 . S
O297 Eu252 2.612 . S
O297 Eu263 2.380 . S
O297 C308 1.276 . S
O298 Eu263 2.432 . S
O298 C315 1.264 . S
O299 Eu252 2.339 . S
O299 C315 1.254 . S
O300 Eu252 2.563 . S
O300 C308 1.235 . S
O301 Eu252 2.419 . S
O301 C316 1.249 . S
O302 Eu263 2.558 . S
O302 C327 1.257 . S
O303 Eu252 2.380 1_455 S
O303 Eu263 2.612 1_455 S
O303 C319 1.276 . S
O304 Eu252 2.432 . S
O304 C326 1.264 . S
O305 Eu263 2.339 . S
O305 C326 1.254 . S
O306 Eu263 2.563 1_455 S
O306 C319 1.235 . S
O307 Eu263 2.419 . S
O307 C327 1.249 . S
C308 O297 1.276 . S
C308 O300 1.235 . S
C309 C311 1.393 . S
C309 C313 1.395 . S
C309 C316 1.492 . S
C310 C311 1.392 . S
C310 C312 1.386 . S
C311 C309 1.393 . S
C311 C310 1.392 . S
C311 H328 0.930 . S
C312 C310 1.386 . S
C312 C314 1.395 . S
C312 H329 0.930 . S
C313 C309 1.395 . S
C313 C314 1.379 . S
C313 H330 0.930 . S
C314 C312 1.395 . S
C314 C313 1.379 . S
C314 H331 0.930 . S
C315 O298 1.264 . S
C315 O299 1.254 . S
C316 Eu252 2.848 . S
C316 O296 1.257 . S
C316 O301 1.249 . S
C316 C309 1.492 . S
C317 H282 0.931 . S
C317 C295 1.420 . S
C317 C318 1.351 . S
C318 H280 0.930 . S
C318 C286 1.423 . S
C318 C317 1.351 . S
C319 O303 1.276 . S
C319 O306 1.235 . S
C320 C321 1.393 . S
C320 C324 1.395 . S
C320 C327 1.492 1_455 S
C321 C320 1.393 . S
C321 C322 1.392 . S
C321 H332 0.930 . S
C322 C321 1.392 . S
C322 C323 1.386 . S
C323 C322 1.386 . S
C323 C325 1.395 . S
C323 H333 0.930 . S
C324 C320 1.395 . S
C324 C325 1.379 . S
C324 H334 0.930 1_455 S
C325 C323 1.395 . S
C325 C324 1.379 . S
C325 H335 0.930 . S
C326 O304 1.264 . S
C326 O305 1.254 . S
C327 Eu263 2.848 . S
C327 O302 1.257 . S
C327 O307 1.249 . S
C327 C320 1.492 1_655 S
H328 C311 0.930 . S
H329 C312 0.930 . S
H330 C313 0.930 . S
H331 C314 0.930 . S
H332 C321 0.930 . S
H333 C323 0.930 . S
H334 C324 0.930 1_655 S
H335 C325 0.930 . S
Eu336 N367 2.657 . S
Eu336 N374 2.609 . S
Eu336 O380 2.558 . S
Eu336 O381 2.612 1_554 S
Eu336 O383 2.339 1_554 S
Eu336 O384 2.563 . S
Eu336 O385 2.419 . S
Eu336 O387 2.380 . S
Eu336 O388 2.432 . S
Eu336 C400 2.848 . S
C337 C340 1.429 . S
C337 C341 1.411 . S
C337 N344 1.377 . S
C338 C340 1.420 . S
C338 C342 1.423 . S
C338 C350 1.392 1_556 S
C339 C341 1.420 . S
C339 C342 1.351 . S
C339 H362 0.931 . S
C340 C337 1.429 . S
C340 C338 1.420 . S
C340 N348 1.362 1_556 S
C341 C337 1.411 . S
C341 C339 1.420 . S
C341 C346 1.395 . S
C342 C338 1.423 . S
C342 C339 1.351 . S
C342 H354 0.930 . S
C343 C345 1.400 . S
C343 C346 1.386 . S
C343 H355 0.930 . S
N344 C337 1.377 . S
N344 C345 1.321 . S
N344 Eu347 2.609 . S
C345 C343 1.400 . S
C345 N344 1.321 . S
C345 H352 0.930 . S
C346 C341 1.395 . S
C346 C343 1.386 . S
C346 H365 0.930 . S
Eu347 N344 2.609 . S
Eu347 N348 2.657 1_556 S
Eu347 O381 2.380 . S
Eu347 O382 2.432 . S
Eu347 O386 2.558 . S
Eu347 O387 2.612 1_556 S
Eu347 O389 2.339 1_556 S
Eu347 O390 2.563 . S
Eu347 O391 2.419 . S
Eu347 C411 2.848 . S
N348 C340 1.362 1_554 S
N348 Eu347 2.657 1_554 S
N348 C349 1.334 . S
C349 N348 1.334 . S
C349 C351 1.413 . S
C349 H356 0.929 . S
C350 C338 1.392 1_554 S
C350 C351 1.367 . S
C350 H358 0.930 . S
C351 C349 1.413 . S
C351 C350 1.367 . S
C351 H353 0.930 . S
H352 C345 0.930 . S
H353 C351 0.930 . S
H354 C342 0.930 . S
H355 C343 0.930 . S
H356 C349 0.929 . S
H357 C371 0.930 . S
H358 C350 0.930 . S
H359 C377 0.930 . S
H360 C368 0.929 . S
H361 C375 0.930 . S
H362 C339 0.931 . S
H363 C369 0.930 . S
H364 C402 0.930 1_455 S
H365 C346 0.930 . S
H366 C401 0.931 . S
N367 Eu336 2.657 . S
N367 C368 1.334 1_554 S
N367 C372 1.362 . S
C368 H360 0.929 . S
C368 N367 1.334 1_556 S
C368 C371 1.413 . S
C369 H363 0.930 . S
C369 C370 1.392 1_556 S
C369 C371 1.367 . S
C370 C369 1.392 1_554 S
C370 C372 1.420 . S
C370 C402 1.423 . S
C371 H357 0.930 . S
C371 C368 1.413 . S
C371 C369 1.367 . S
C372 N367 1.362 . S
C372 C370 1.420 . S
C372 C376 1.429 . S
H373 C378 0.930 . S
N374 Eu336 2.609 . S
N374 C376 1.377 . S
N374 C377 1.321 . S
C375 H361 0.930 . S
C375 C377 1.400 . S
C375 C378 1.386 . S
C376 C372 1.429 . S
C376 N374 1.377 . S
C376 C379 1.411 . S
C377 H359 0.930 . S
C377 N374 1.321 . S
C377 C375 1.400 . S
C378 H373 0.930 . S
C378 C375 1.386 . S
C378 C379 1.395 . S
C379 C376 1.411 . S
C379 C378 1.395 . S
C379 C401 1.420 . S
O380 Eu336 2.558 . S
O380 C400 1.257 . S
O381 Eu336 2.612 1_556 S
O381 Eu347 2.380 . S
O381 C392 1.276 1_556 S
O382 Eu347 2.432 . S
O382 C399 1.264 . S
O383 Eu336 2.339 1_556 S
O383 C399 1.254 . S
O384 Eu336 2.563 . S
O384 C392 1.235 . S
O385 Eu336 2.419 . S
O385 C400 1.249 . S
O386 Eu347 2.558 . S
O386 C411 1.257 . S
O387 Eu336 2.380 . S
O387 Eu347 2.612 1_554 S
O387 C403 1.276 . S
O388 Eu336 2.432 . S
O388 C410 1.264 . S
O389 Eu347 2.339 1_554 S
O389 C410 1.254 . S
O390 Eu347 2.563 . S
O390 C403 1.235 1_556 S
O391 Eu347 2.419 . S
O391 C411 1.249 . S
C392 O381 1.276 1_554 S
C392 O384 1.235 . S
C393 C395 1.393 . S
C393 C397 1.395 . S
C393 C400 1.492 . S
C394 C395 1.392 . S
C394 C396 1.386 . S
C395 C393 1.393 . S
C395 C394 1.392 . S
C395 H412 0.930 1_554 S
C396 C394 1.386 . S
C396 C398 1.395 . S
C396 H413 0.930 . S
C397 C393 1.395 . S
C397 C398 1.379 . S
C397 H414 0.930 . S
C398 C396 1.395 . S
C398 C397 1.379 . S
C398 H415 0.930 . S
C399 O382 1.264 . S
C399 O383 1.254 . S
C400 Eu336 2.848 . S
C400 O380 1.257 . S
C400 O385 1.249 . S
C400 C393 1.492 . S
C401 H366 0.931 . S
C401 C379 1.420 . S
C401 C402 1.351 . S
C402 H364 0.930 1_655 S
C402 C370 1.423 . S
C402 C401 1.351 . S
C403 O387 1.276 . S
C403 O390 1.235 1_554 S
C404 C405 1.393 . S
C404 C408 1.395 . S
C404 C411 1.492 . S
C405 C404 1.393 . S
C405 C406 1.392 . S
C405 H416 0.930 1_556 S
C406 C405 1.392 . S
C406 C407 1.386 . S
C407 C406 1.386 . S
C407 C409 1.395 . S
C407 H417 0.930 . S
C408 C404 1.395 . S
C408 C409 1.379 . S
C408 H418 0.930 . S
C409 C407 1.395 . S
C409 C408 1.379 . S
C409 H419 0.930 . S
C410 O388 1.264 . S
C410 O389 1.254 . S
C411 Eu347 2.848 . S
C411 O386 1.257 . S
C411 O391 1.249 . S
C411 C404 1.492 . S
H412 C395 0.930 1_556 S
H413 C396 0.930 . S
H414 C397 0.930 . S
H415 C398 0.930 . S
H416 C405 0.930 1_554 S
H417 C407 0.930 . S
H418 C408 0.930 . S
H419 C409 0.930 . S
Eu420 N451 2.657 . S
Eu420 N458 2.609 . S
Eu420 O464 2.558 . S
Eu420 O465 2.612 . S
Eu420 O467 2.339 1_554 S
Eu420 O468 2.563 . S
Eu420 O469 2.419 . S
Eu420 O471 2.380 . S
Eu420 O472 2.432 . S
Eu420 C484 2.848 . S
C421 C424 1.429 . S
C421 C425 1.411 . S
C421 N428 1.377 . S
C422 C424 1.420 . S
C422 C426 1.423 . S
C422 C434 1.392 1_556 S
C423 C425 1.420 . S
C423 C426 1.351 . S
C423 H446 0.931 . S
C424 C421 1.429 . S
C424 C422 1.420 . S
C424 N432 1.362 1_556 S
C425 C421 1.411 . S
C425 C423 1.420 . S
C425 C430 1.395 . S
C426 C422 1.423 . S
C426 C423 1.351 . S
C426 H438 0.930 1_455 S
C427 C429 1.400 . S
C427 C430 1.386 . S
C427 H439 0.930 . S
N428 C421 1.377 . S
N428 C429 1.321 . S
N428 Eu431 2.609 . S
C429 C427 1.400 . S
C429 N428 1.321 . S
C429 H436 0.930 . S
C430 C425 1.395 . S
C430 C427 1.386 . S
C430 H449 0.930 . S
Eu431 N428 2.609 . S
Eu431 N432 2.657 1_556 S
Eu431 O465 2.380 1_556 S
Eu431 O466 2.432 . S
Eu431 O470 2.558 . S
Eu431 O471 2.612 1_556 S
Eu431 O473 2.339 1_556 S
Eu431 O474 2.563 . S
Eu431 O475 2.419 1_556 S
Eu431 C495 2.848 . S
N432 C424 1.362 1_554 S
N432 Eu431 2.657 1_554 S
N432 C433 1.334 . S
C433 N432 1.334 . S
C433 C435 1.413 . S
C433 H440 0.929 . S
C434 C422 1.392 1_554 S
C434 C435 1.367 . S
C434 H442 0.930 . S
C435 C433 1.413 . S
C435 C434 1.367 . S
C435 H437 0.930 . S
H436 C429 0.930 . S
H437 C435 0.930 . S
H438 C426 0.930 1_655 S
H439 C427 0.930 . S
H440 C433 0.929 . S
H441 C455 0.930 . S
H442 C434 0.930 . S
H443 C461 0.930 . S
H444 C452 0.929 . S
H445 C459 0.930 . S
H446 C423 0.931 . S
H447 C453 0.930 . S
H448 C486 0.930 . S
H449 C430 0.930 . S
H450 C485 0.931 . S
N451 Eu420 2.657 . S
N451 C452 1.334 1_554 S
N451 C456 1.362 . S
C452 H444 0.929 . S
C452 N451 1.334 1_556 S
C452 C455 1.413 . S
C453 H447 0.930 . S
C453 C454 1.392 1_556 S
C453 C455 1.367 . S
C454 C453 1.392 1_554 S
C454 C456 1.420 . S
C454 C486 1.423 . S
C455 H441 0.930 . S
C455 C452 1.413 . S
C455 C453 1.367 . S
C456 N451 1.362 . S
C456 C454 1.420 . S
C456 C460 1.429 . S
H457 C462 0.930 . S
N458 Eu420 2.609 . S
N458 C460 1.377 . S
N458 C461 1.321 . S
C459 H445 0.930 . S
C459 C461 1.400 . S
C459 C462 1.386 . S
C460 C456 1.429 . S
C460 N458 1.377 . S
C460 C463 1.411 . S
C461 H443 0.930 . S
C461 N458 1.321 . S
C461 C459 1.400 . S
C462 H457 0.930 . S
C462 C459 1.386 . S
C462 C463 1.395 . S
C463 C460 1.411 . S
C463 C462 1.395 . S
C463 C485 1.420 . S
O464 Eu420 2.558 . S
O464 C484 1.257 . S
O465 Eu420 2.612 . S
O465 Eu431 2.380 1_554 S
O465 C476 1.276 . S
O466 Eu431 2.432 . S
O466 C483 1.264 . S
O467 Eu420 2.339 1_556 S
O467 C483 1.254 . S
O468 Eu420 2.563 . S
O468 C476 1.235 . S
O469 Eu420 2.419 . S
O469 C484 1.249 . S
O470 Eu431 2.558 . S
O470 C495 1.257 . S
O471 Eu420 2.380 . S
O471 Eu431 2.612 1_554 S
O471 C487 1.276 . S
O472 Eu420 2.432 . S
O472 C494 1.264 . S
O473 Eu431 2.339 1_554 S
O473 C494 1.254 . S
O474 Eu431 2.563 . S
O474 C487 1.235 1_556 S
O475 Eu431 2.419 1_554 S
O475 C495 1.249 1_554 S
C476 O465 1.276 . S
C476 O468 1.235 . S
C477 C479 1.393 . S
C477 C481 1.395 . S
C477 C484 1.492 . S
C478 C479 1.392 . S
C478 C480 1.386 . S
C479 C477 1.393 . S
C479 C478 1.392 . S
C479 H496 0.923 1_554 S
C480 C478 1.386 . S
C480 C482 1.395 . S
C480 H497 0.930 . S
C481 C477 1.395 . S
C481 C482 1.379 . S
C481 H498 0.930 . S
C482 C480 1.395 . S
C482 C481 1.379 . S
C482 H499 0.930 . S
C483 O466 1.264 . S
C483 O467 1.254 . S
C484 Eu420 2.848 . S
C484 O464 1.257 . S
C484 O469 1.249 . S
C484 C477 1.492 . S
C485 H450 0.931 . S
C485 C463 1.420 . S
C485 C486 1.351 . S
C486 H448 0.930 . S
C486 C454 1.423 . S
C486 C485 1.351 . S
C487 O471 1.276 . S
C487 O474 1.235 1_554 S
C488 C489 1.393 . S
C488 C492 1.395 . S
C488 C495 1.492 . S
C489 C488 1.393 . S
C489 C490 1.392 . S
C489 H500 0.930 1_556 S
C490 C489 1.392 . S
C490 C491 1.386 . S
C491 C490 1.386 . S
C491 C493 1.395 . S
C491 H501 0.930 . S
C492 C488 1.395 . S
C492 C493 1.379 . S
C492 H502 0.930 . S
C493 C491 1.395 . S
C493 C492 1.379 . S
C493 H503 0.930 . S
C494 O472 1.264 . S
C494 O473 1.254 . S
C495 Eu431 2.848 . S
C495 O470 1.257 . S
C495 O475 1.249 1_556 S
C495 C488 1.492 . S
H496 C479 0.923 1_556 S
H497 C480 0.930 . S
H498 C481 0.930 . S
H499 C482 0.930 . S
H500 C489 0.930 1_554 S
H501 C491 0.930 . S
H502 C492 0.930 . S
H503 C493 0.930 . S
Eu504 N535 2.657 . S
Eu504 N542 2.609 . S
Eu504 O548 2.558 . S
Eu504 O549 2.612 . S
Eu504 O551 2.339 . S
Eu504 O552 2.563 . S
Eu504 O553 2.419 . S
Eu504 O555 2.380 . S
Eu504 O556 2.432 . S
Eu504 C568 2.848 . S
C505 C508 1.429 . S
C505 C509 1.411 . S
C505 N512 1.377 . S
C506 C508 1.420 . S
C506 C510 1.423 . S
C506 C518 1.392 . S
C507 C509 1.420 . S
C507 C510 1.351 . S
C507 H530 0.931 . S
C508 C505 1.429 . S
C508 C506 1.420 . S
C508 N516 1.362 . S
C509 C505 1.411 . S
C509 C507 1.420 . S
C509 C514 1.395 . S
C510 C506 1.423 . S
C510 C507 1.351 . S
C510 H522 0.930 . S
C511 C513 1.400 . S
C511 C514 1.386 . S
C511 H523 0.930 . S
N512 C505 1.377 . S
N512 C513 1.321 . S
N512 Eu515 2.609 . S
C513 C511 1.400 . S
C513 N512 1.321 . S
C513 H520 0.930 . S
C514 C509 1.395 . S
C514 C511 1.386 . S
C514 H533 0.930 . S
Eu515 N512 2.609 . S
Eu515 N516 2.657 . S
Eu515 O549 2.380 . S
Eu515 O550 2.432 . S
Eu515 O554 2.558 . S
Eu515 O555 2.612 . S
Eu515 O557 2.339 . S
Eu515 O558 2.563 . S
Eu515 O559 2.419 . S
Eu515 C579 2.848 . S
N516 C508 1.362 . S
N516 Eu515 2.657 . S
N516 C517 1.334 . S
C517 N516 1.334 . S
C517 C519 1.413 . S
C517 H524 0.929 . S
C518 C506 1.392 . S
C518 C519 1.367 . S
C518 H526 0.930 . S
C519 C517 1.413 . S
C519 C518 1.367 . S
C519 H521 0.930 . S
H520 C513 0.930 . S
H521 C519 0.930 . S
H522 C510 0.930 . S
H523 C511 0.930 . S
H524 C517 0.929 . S
H525 C539 0.930 . S
H526 C518 0.930 . S
H527 C545 0.930 . S
H528 C536 0.929 . S
H529 C543 0.930 . S
H530 C507 0.931 . S
H531 C537 0.930 . S
H532 C570 0.930 1_455 S
H533 C514 0.930 . S
H534 C569 0.931 . S
N535 Eu504 2.657 . S
N535 C536 1.334 . S
N535 C540 1.362 . S
C536 H528 0.929 . S
C536 N535 1.334 . S
C536 C539 1.413 . S
C537 H531 0.930 . S
C537 C538 1.392 . S
C537 C539 1.367 . S
C538 C537 1.392 . S
C538 C540 1.420 . S
C538 C570 1.423 . S
C539 H525 0.930 . S
C539 C536 1.413 . S
C539 C537 1.367 . S
C540 N535 1.362 . S
C540 C538 1.420 . S
C540 C544 1.429 . S
H541 C546 0.930 . S
N542 Eu504 2.609 . S
N542 C544 1.377 . S
N542 C545 1.321 . S
C543 H529 0.930 . S
C543 C545 1.400 . S
C543 C546 1.386 . S
C544 C540 1.429 . S
C544 N542 1.377 . S
C544 C547 1.411 . S
C545 H527 0.930 . S
C545 N542 1.321 . S
C545 C543 1.400 . S
C546 H541 0.930 . S
C546 C543 1.386 . S
C546 C547 1.395 . S
C547 C544 1.411 . S
C547 C546 1.395 . S
C547 C569 1.420 . S
O548 Eu504 2.558 . S
O548 C568 1.257 . S
O549 Eu504 2.612 . S
O549 Eu515 2.380 . S
O549 C560 1.276 . S
O550 Eu515 2.432 . S
O550 C567 1.264 . S
O551 Eu504 2.339 . S
O551 C567 1.254 . S
O552 Eu504 2.563 . S
O552 C560 1.235 . S
O553 Eu504 2.419 . S
O553 C568 1.249 . S
O554 Eu515 2.558 . S
O554 C579 1.257 . S
O555 Eu504 2.380 . S
O555 Eu515 2.612 . S
O555 C571 1.276 . S
O556 Eu504 2.432 . S
O556 C578 1.264 . S
O557 Eu515 2.339 . S
O557 C578 1.254 . S
O558 Eu515 2.563 . S
O558 C571 1.235 . S
O559 Eu515 2.419 . S
O559 C579 1.249 . S
C560 O549 1.276 . S
C560 O552 1.235 . S
C561 C563 1.393 . S
C561 C565 1.395 . S
C561 C568 1.492 . S
C562 C563 1.392 . S
C562 C564 1.386 . S
C563 C561 1.393 . S
C563 C562 1.392 . S
C563 H580 0.930 . S
C564 C562 1.386 . S
C564 C566 1.395 . S
C564 H581 0.930 . S
C565 C561 1.395 . S
C565 C566 1.379 . S
C565 H582 0.930 . S
C566 C564 1.395 . S
C566 C565 1.379 . S
C566 H583 0.930 . S
C567 O550 1.264 . S
C567 O551 1.254 . S
C568 Eu504 2.848 . S
C568 O548 1.257 . S
C568 O553 1.249 . S
C568 C561 1.492 . S
C569 H534 0.931 . S
C569 C547 1.420 . S
C569 C570 1.351 . S
C570 H532 0.930 1_655 S
C570 C538 1.423 . S
C570 C569 1.351 . S
C571 O555 1.276 . S
C571 O558 1.235 . S
C572 C573 1.393 . S
C572 C576 1.395 . S
C572 C579 1.492 . S
C573 C572 1.393 . S
C573 C574 1.392 . S
C573 H584 0.930 . S
C574 C573 1.392 . S
C574 C575 1.386 . S
C575 C574 1.386 . S
C575 C577 1.395 . S
C575 H585 0.930 . S
C576 C572 1.395 . S
C576 C577 1.379 . S
C576 H586 0.930 . S
C577 C575 1.395 . S
C577 C576 1.379 . S
C577 H587 0.930 . S
C578 O556 1.264 . S
C578 O557 1.254 . S
C579 Eu515 2.848 . S
C579 O554 1.257 . S
C579 O559 1.249 . S
C579 C572 1.492 . S
H580 C563 0.930 . S
H581 C564 0.930 . S
H582 C565 0.930 . S
H583 C566 0.930 . S
H584 C573 0.930 . S
H585 C575 0.930 . S
H586 C576 0.930 . S
H587 C577 0.930 . S
Eu588 N619 2.657 . S
Eu588 N626 2.609 . S
Eu588 O632 2.558 . S
Eu588 O633 2.612 . S
Eu588 O635 2.339 . S
Eu588 O636 2.563 . S
Eu588 O637 2.419 . S
Eu588 O639 2.380 . S
Eu588 O640 2.432 . S
Eu588 C652 2.848 . S
C589 C592 1.429 . S
C589 C593 1.411 . S
C589 N596 1.377 . S
C590 C592 1.420 . S
C590 C594 1.423 . S
C590 C602 1.392 . S
C591 C593 1.420 . S
C591 C594 1.351 . S
C591 H614 0.931 . S
C592 C589 1.429 . S
C592 C590 1.420 . S
C592 N600 1.362 . S
C593 C589 1.411 . S
C593 C591 1.420 . S
C593 C598 1.395 . S
C594 C590 1.423 . S
C594 C591 1.351 . S
C594 H606 0.930 1_455 S
C595 C597 1.400 . S
C595 C598 1.386 . S
C595 H607 0.930 . S
N596 C589 1.377 . S
N596 C597 1.321 . S
N596 Eu599 2.609 . S
C597 C595 1.400 . S
C597 N596 1.321 . S
C597 H604 0.930 . S
C598 C593 1.395 . S
C598 C595 1.386 . S
C598 H617 0.930 . S
Eu599 N596 2.609 . S
Eu599 N600 2.657 . S
Eu599 O633 2.380 . S
Eu599 O634 2.432 . S
Eu599 O638 2.558 . S
Eu599 O639 2.612 . S
Eu599 O641 2.339 . S
Eu599 O642 2.563 . S
Eu599 O643 2.419 . S
Eu599 C663 2.848 . S
N600 C592 1.362 . S
N600 Eu599 2.657 . S
N600 C601 1.334 . S
C601 N600 1.334 . S
C601 C603 1.413 . S
C601 H608 0.929 . S
C602 C590 1.392 . S
C602 C603 1.367 . S
C602 H610 0.930 . S
C603 C601 1.413 . S
C603 C602 1.367 . S
C603 H605 0.930 . S
H604 C597 0.930 . S
H605 C603 0.930 . S
H606 C594 0.930 1_655 S
H607 C595 0.930 . S
H608 C601 0.929 . S
H609 C623 0.930 . S
H610 C602 0.930 . S
H611 C629 0.930 . S
H612 C620 0.929 . S
H613 C627 0.930 . S
H614 C591 0.931 . S
H615 C621 0.930 . S
H616 C654 0.930 . S
H617 C598 0.930 . S
H618 C653 0.931 . S
N619 Eu588 2.657 . S
N619 C620 1.334 . S
N619 C624 1.362 . S
C620 H612 0.929 . S
C620 N619 1.334 . S
C620 C623 1.413 . S
C621 H615 0.930 . S
C621 C622 1.392 . S
C621 C623 1.367 . S
C622 C621 1.392 . S
C622 C624 1.420 . S
C622 C654 1.423 . S
C623 H609 0.930 . S
C623 C620 1.413 . S
C623 C621 1.367 . S
C624 N619 1.362 . S
C624 C622 1.420 . S
C624 C628 1.429 . S
H625 C630 0.930 . S
N626 Eu588 2.609 . S
N626 C628 1.377 . S
N626 C629 1.321 . S
C627 H613 0.930 . S
C627 C629 1.400 . S
C627 C630 1.386 . S
C628 C624 1.429 . S
C628 N626 1.377 . S
C628 C631 1.411 . S
C629 H611 0.930 . S
C629 N626 1.321 . S
C629 C627 1.400 . S
C630 H625 0.930 . S
C630 C627 1.386 . S
C630 C631 1.395 . S
C631 C628 1.411 . S
C631 C630 1.395 . S
C631 C653 1.420 . S
O632 Eu588 2.558 . S
O632 C652 1.257 . S
O633 Eu588 2.612 . S
O633 Eu599 2.380 . S
O633 C644 1.276 . S
O634 Eu599 2.432 . S
O634 C651 1.264 . S
O635 Eu588 2.339 . S
O635 C651 1.254 . S
O636 Eu588 2.563 . S
O636 C644 1.235 . S
O637 Eu588 2.419 . S
O637 C652 1.249 . S
O638 Eu599 2.558 . S
O638 C663 1.257 . S
O639 Eu588 2.380 . S
O639 Eu599 2.612 . S
O639 C655 1.276 . S
O640 Eu588 2.432 . S
O640 C662 1.264 . S
O641 Eu599 2.339 . S
O641 C662 1.254 . S
O642 Eu599 2.563 . S
O642 C655 1.235 . S
O643 Eu599 2.419 . S
O643 C663 1.249 . S
C644 O633 1.276 . S
C644 O636 1.235 . S
C645 C647 1.393 . S
C645 C649 1.395 . S
C645 C652 1.492 . S
C646 C647 1.392 . S
C646 C648 1.386 . S
C647 C645 1.393 . S
C647 C646 1.392 . S
C647 H664 0.930 . S
C648 C646 1.386 . S
C648 C650 1.395 . S
C648 H665 0.930 . S
C649 C645 1.395 . S
C649 C650 1.379 . S
C649 H666 0.930 . S
C650 C648 1.395 . S
C650 C649 1.379 . S
C650 H667 0.930 . S
C651 O634 1.264 . S
C651 O635 1.254 . S
C652 Eu588 2.848 . S
C652 O632 1.257 . S
C652 O637 1.249 . S
C652 C645 1.492 . S
C653 H618 0.931 . S
C653 C631 1.420 . S
C653 C654 1.351 . S
C654 H616 0.930 . S
C654 C622 1.423 . S
C654 C653 1.351 . S
C655 O639 1.276 . S
C655 O642 1.235 . S
C656 C657 1.393 . S
C656 C660 1.395 . S
C656 C663 1.492 . S
C657 C656 1.393 . S
C657 C658 1.392 . S
C657 H668 0.930 . S
C658 C657 1.392 . S
C658 C659 1.386 . S
C659 C658 1.386 . S
C659 C661 1.395 . S
C659 H669 0.930 . S
C660 C656 1.395 . S
C660 C661 1.379 . S
C660 H670 0.930 . S
C661 C659 1.395 . S
C661 C660 1.379 . S
C661 H671 0.930 . S
C662 O640 1.264 . S
C662 O641 1.254 . S
C663 Eu599 2.848 . S
C663 O638 1.257 . S
C663 O643 1.249 . S
C663 C656 1.492 . S
H664 C647 0.930 . S
H665 C648 0.930 . S
H666 C649 0.930 . S
H667 C650 0.930 . S
H668 C657 0.930 . S
H669 C659 0.930 . S
H670 C660 0.930 . S
H671 C661 0.930 . S
H672 C678 0.930 . S
H673 C681 0.930 . S
H674 C682 0.930 . S
H675 C683 0.930 . S
H676 C686 0.930 . S
H677 C687 0.930 . S
C678 H672 0.930 . S
C678 C679 1.355 . S
C678 C680 1.415 . S
C679 C678 1.355 . S
C679 C681 1.419 1_554 S
C680 C678 1.415 . S
C680 C685 1.425 1_554 S
C680 C687 1.409 . S
C681 H673 0.930 . S
C681 C679 1.419 1_556 S
C681 C682 1.362 . S
C682 H674 0.930 . S
C682 C681 1.362 . S
C682 C685 1.409 . S
C683 H675 0.930 . S
C683 C684 1.355 1_556 S
C683 C685 1.415 . S
C684 C683 1.355 1_554 S
C684 C686 1.419 . S
C685 C680 1.425 1_556 S
C685 C682 1.409 . S
C685 C683 1.415 . S
C686 H676 0.930 . S
C686 C684 1.419 . S
C686 C687 1.362 . S
C687 H677 0.930 . S
C687 C680 1.409 . S
C687 C686 1.362 . S
H688 C694 0.930 . S
H689 C697 0.930 . S
H690 C698 0.930 . S
H691 C699 0.930 . S
H692 C702 0.930 . S
H693 C703 0.930 . S
C694 H688 0.930 . S
C694 C695 1.355 . S
C694 C696 1.415 . S
C695 C694 1.355 . S
C695 C697 1.419 . S
C696 C694 1.415 . S
C696 C701 1.425 . S
C696 C703 1.409 . S
C697 H689 0.930 . S
C697 C695 1.419 . S
C697 C698 1.362 . S
C698 H690 0.930 . S
C698 C697 1.362 . S
C698 C701 1.409 . S
C699 H691 0.930 . S
C699 C700 1.355 . S
C699 C701 1.415 . S
C700 C699 1.355 . S
C700 C702 1.419 . S
C701 C696 1.425 . S
C701 C698 1.409 . S
C701 C699 1.415 . S
C702 H692 0.930 . S
C702 C700 1.419 . S
C702 C703 1.362 . S
C703 H693 0.930 . S
C703 C696 1.409 . S
C703 C702 1.362 . S
H704 C710 0.930 . S
H705 C713 0.930 . S
H706 C714 0.930 . S
H707 C715 0.930 . S
H708 C718 0.930 . S
H709 C719 0.930 . S
C710 H704 0.930 . S
C710 C711 1.355 . S
C710 C712 1.415 . S
C711 C710 1.355 . S
C711 C713 1.419 . S
C712 C710 1.415 . S
C712 C717 1.425 . S
C712 C719 1.409 . S
C713 H705 0.930 . S
C713 C711 1.419 . S
C713 C714 1.362 . S
C714 H706 0.930 . S
C714 C713 1.362 . S
C714 C717 1.409 . S
C715 H707 0.930 . S
C715 C716 1.355 . S
C715 C717 1.415 . S
C716 C715 1.355 . S
C716 C718 1.419 . S
C717 C712 1.425 . S
C717 C714 1.409 . S
C717 C715 1.415 . S
C718 H708 0.930 . S
C718 C716 1.419 . S
C718 C719 1.362 . S
C719 H709 0.930 . S
C719 C712 1.409 . S
C719 C718 1.362 . S
H720 C726 0.930 . S
H721 C729 0.930 . S
H722 C730 0.930 . S
H723 C731 0.930 . S
H724 C734 0.930 . S
H725 C735 0.930 . S
C726 H720 0.930 . S
C726 C727 1.355 . S
C726 C728 1.415 . S
C727 C726 1.355 . S
C727 C729 1.419 . S
C728 C726 1.415 . S
C728 C733 1.425 . S
C728 C735 1.409 . S
C729 H721 0.930 . S
C729 C727 1.419 . S
C729 C730 1.362 . S
C730 H722 0.930 . S
C730 C729 1.362 . S
C730 C733 1.409 . S
C731 H723 0.930 . S
C731 C732 1.355 . S
C731 C733 1.415 . S
C732 C731 1.355 . S
C732 C734 1.419 . S
C733 C728 1.425 . S
C733 C730 1.409 . S
C733 C731 1.415 . S
C734 H724 0.930 . S
C734 C732 1.419 . S
C734 C735 1.362 . S
C735 H725 0.930 . S
C735 C728 1.409 . S
C735 C734 1.362 . S
H736 C742 0.930 . S
H737 C745 0.930 . S
H738 C746 0.930 1_455 S
H739 C747 0.930 . S
H740 C750 0.930 . S
H741 C751 0.930 . S
C742 H736 0.930 . S
C742 C743 1.355 . S
C742 C744 1.415 1_655 S
C743 C742 1.355 . S
C743 C745 1.419 1_554 S
C744 C742 1.415 1_455 S
C744 C749 1.425 1_554 S
C744 C751 1.409 . S
C745 H737 0.930 . S
C745 C743 1.419 1_556 S
C745 C746 1.362 . S
C746 H738 0.930 1_655 S
C746 C745 1.362 . S
C746 C749 1.409 1_655 S
C747 H739 0.930 . S
C747 C748 1.355 1_556 S
C747 C749 1.415 . S
C748 C747 1.355 1_554 S
C748 C750 1.419 . S
C749 C744 1.425 1_556 S
C749 C746 1.409 1_455 S
C749 C747 1.415 . S
C750 H740 0.930 . S
C750 C748 1.419 . S
C750 C751 1.362 . S
C751 H741 0.930 . S
C751 C744 1.409 . S
C751 C750 1.362 . S
H752 C758 0.930 . S
H753 C761 0.930 . S
H754 C762 0.930 . S
H755 C763 0.930 . S
H756 C766 0.930 . S
H757 C767 0.930 . S
C758 H752 0.930 . S
C758 C759 1.355 . S
C758 C760 1.415 1_455 S
C759 C758 1.355 . S
C759 C761 1.419 1_554 S
C760 C758 1.415 1_655 S
C760 C765 1.425 . S
C760 C767 1.409 . S
C761 H753 0.930 . S
C761 C759 1.419 1_556 S
C761 C762 1.362 1_455 S
C762 H754 0.930 . S
C762 C761 1.362 1_655 S
C762 C765 1.409 1_556 S
C763 H755 0.930 . S
C763 C764 1.355 . S
C763 C765 1.415 . S
C764 C763 1.355 . S
C764 C766 1.419 . S
C765 C760 1.425 . S
C765 C762 1.409 1_554 S
C765 C763 1.415 . S
C766 H756 0.930 . S
C766 C764 1.419 . S
C766 C767 1.362 . S
C767 H757 0.930 . S
C767 C760 1.409 . S
C767 C766 1.362 . S
H768 C774 0.930 . S
H769 C777 0.930 . S
H770 C778 0.930 . S
H771 C779 0.930 . S
H772 C782 0.930 . S
H773 C783 0.930 . S
C774 H768 0.930 . S
C774 C775 1.355 . S
C774 C776 1.415 . S
C775 C774 1.355 . S
C775 C777 1.419 . S
C776 C774 1.415 . S
C776 C781 1.425 . S
C776 C783 1.409 . S
C777 H769 0.930 . S
C777 C775 1.419 . S
C777 C778 1.362 . S
C778 H770 0.930 . S
C778 C777 1.362 . S
C778 C781 1.409 . S
C779 H771 0.930 . S
C779 C780 1.355 . S
C779 C781 1.415 1_655 S
C780 C779 1.355 . S
C780 C782 1.419 . S
C781 C776 1.425 . S
C781 C778 1.409 . S
C781 C779 1.415 1_455 S
C782 H772 0.930 . S
C782 C780 1.419 . S
C782 C783 1.362 1_655 S
C783 H773 0.930 . S
C783 C776 1.409 . S
C783 C782 1.362 1_455 S
H784 C790 0.930 . S
H785 C793 0.930 . S
H786 C794 0.930 . S
H787 C795 0.930 . S
H788 C798 0.930 . S
H789 C799 0.930 . S
C790 H784 0.930 . S
C790 C791 1.355 . S
C790 C792 1.415 . S
C791 C790 1.355 . S
C791 C793 1.419 . S
C792 C790 1.415 . S
C792 C797 1.425 . S
C792 C799 1.409 . S
C793 H785 0.930 . S
C793 C791 1.419 . S
C793 C794 1.362 . S
C794 H786 0.930 . S
C794 C793 1.362 . S
C794 C797 1.409 . S
C795 H787 0.930 . S
C795 C796 1.355 . S
C795 C797 1.415 1_455 S
C796 C795 1.355 . S
C796 C798 1.419 . S
C797 C792 1.425 . S
C797 C794 1.409 . S
C797 C795 1.415 1_655 S
C798 H788 0.930 . S
C798 C796 1.419 . S
C798 C799 1.362 1_455 S
C799 H789 0.930 . S
C799 C792 1.409 . S
C799 C798 1.362 1_655 S
H800 C806 0.930 . S
H801 C809 0.930 . S
H802 C810 0.930 . S
H803 C811 0.930 . S
H804 C814 0.930 . S
H805 C815 0.930 . S
C806 H800 0.930 . S
C806 C807 1.355 . S
C806 C808 1.415 . S
C807 C806 1.355 . S
C807 C809 1.419 1_454 S
C808 C806 1.415 . S
C808 C813 1.425 1_454 S
C808 C815 1.409 . S
C809 H801 0.930 . S
C809 C807 1.419 1_656 S
C809 C810 1.362 . S
C810 H802 0.930 . S
C810 C809 1.362 . S
C810 C813 1.409 . S
C811 H803 0.930 . S
C811 C812 1.355 1_556 S
C811 C813 1.415 . S
C812 C811 1.355 1_554 S
C812 C814 1.419 1_655 S
C813 C808 1.425 1_656 S
C813 C810 1.409 . S
C813 C811 1.415 . S
C814 H804 0.930 . S
C814 C812 1.419 1_455 S
C814 C815 1.362 . S
C815 H805 0.930 . S
C815 C808 1.409 . S
C815 C814 1.362 . S
H816 C822 0.930 . S
H817 C825 0.930 . S
H818 C826 0.930 . S
H819 C827 0.930 . S
H820 C830 0.930 . S
H821 C831 0.930 . S
C822 H816 0.930 . S
C822 C823 1.355 1_655 S
C822 C824 1.415 . S
C823 C822 1.355 1_455 S
C823 C825 1.419 . S
C824 C822 1.415 . S
C824 C829 1.425 1_655 S
C824 C831 1.409 . S
C825 H817 0.930 . S
C825 C823 1.419 . S
C825 C826 1.362 . S
C826 H818 0.930 . S
C826 C825 1.362 . S
C826 C829 1.409 . S
C827 H819 0.930 . S
C827 C828 1.355 1_455 S
C827 C829 1.415 . S
C828 C827 1.355 1_655 S
C828 C830 1.419 . S
C829 C824 1.425 1_455 S
C829 C826 1.409 . S
C829 C827 1.415 . S
C830 H820 0.930 . S
C830 C828 1.419 . S
C830 C831 1.362 . S
C831 H821 0.930 . S
C831 C824 1.409 . S
C831 C830 1.362 . S
H832 C838 0.930 . S
H833 C841 0.930 . S
H834 C842 0.930 . S
H835 C843 0.930 . S
H836 C846 0.930 . S
H837 C847 0.930 . S
C838 H832 0.930 . S
C838 C839 1.355 1_556 S
C838 C840 1.415 . S
C839 C838 1.355 1_554 S
C839 C841 1.419 . S
C840 C838 1.415 . S
C840 C845 1.425 1_566 S
C840 C847 1.409 . S
C841 H833 0.930 . S
C841 C839 1.419 . S
C841 C842 1.362 1_565 S
C842 H834 0.930 . S
C842 C841 1.362 1_545 S
C842 C845 1.409 . S
C843 H835 0.930 . S
C843 C844 1.355 . S
C843 C845 1.415 . S
C844 C843 1.355 . S
C844 C846 1.419 1_554 S
C845 C840 1.425 1_544 S
C845 C842 1.409 . S
C845 C843 1.415 . S
C846 H836 0.930 . S
C846 C844 1.419 1_556 S
C846 C847 1.362 1_545 S
C847 H837 0.930 . S
C847 C840 1.409 . S
C847 C846 1.362 1_565 S
H848 C854 0.930 . S
H849 C857 0.930 . S
H850 C858 0.930 . S
H851 C859 0.930 . S
H852 C862 0.930 . S
H853 C863 0.930 . S
C854 H848 0.930 . S
C854 C855 1.355 . S
C854 C856 1.478 . S
C855 C854 1.355 . S
C855 C857 1.419 . S
C856 C854 1.478 . S
C856 C861 1.361 1_545 S
C856 C863 1.381 1_545 S
C857 H849 0.930 . S
C857 C855 1.419 . S
C857 C858 1.362 . S
C858 H850 0.930 . S
C858 C857 1.362 . S
C858 C861 1.381 1_545 S
C859 H851 0.930 . S
C859 C860 1.355 . S
C859 C861 1.477 . S
C860 C859 1.355 . S
C860 C862 1.419 . S
C861 C856 1.361 1_565 S
C861 C858 1.381 1_565 S
C861 C859 1.477 . S
C862 H852 0.930 . S
C862 C860 1.419 . S
C862 C863 1.362 . S
C863 H853 0.930 . S
C863 C856 1.381 1_565 S
C863 C862 1.362 . S
H864 C870 0.930 . S
H865 C873 0.930 . S
H866 C874 0.930 . S
H867 C875 0.930 . S
H868 C878 0.930 . S
H869 C879 0.930 . S
C870 H864 0.930 . S
C870 C871 1.371 . S
C870 C872 1.415 . S
C871 C870 1.371 . S
C871 C873 1.409 1_554 S
C872 C870 1.415 . S
C872 C877 1.425 1_554 S
C872 C879 1.409 . S
C873 H865 0.930 . S
C873 C871 1.409 1_556 S
C873 C874 1.362 . S
C874 H866 0.930 . S
C874 C873 1.362 . S
C874 C877 1.409 . S
C875 H867 0.930 . S
C875 C876 1.355 1_556 S
C875 C877 1.415 . S
C876 C875 1.355 1_554 S
C876 C878 1.419 . S
C877 C872 1.425 1_556 S
C877 C874 1.409 . S
C877 C875 1.415 . S
C878 H868 0.930 . S
C878 C876 1.419 . S
C878 C879 1.362 . S
C879 H869 0.930 . S
C879 C872 1.409 . S
C879 C878 1.362 . S
H880 C886 0.930 . S
H881 C889 0.930 . S
H882 C890 0.930 . S
H883 C891 0.930 . S
H884 C894 0.930 . S
H885 C895 0.930 . S
C886 H880 0.930 . S
C886 C887 1.355 . S
C886 C888 1.415 . S
C887 C886 1.355 . S
C887 C889 1.419 . S
C888 C886 1.415 . S
C888 C893 1.425 . S
C888 C895 1.409 . S
C889 H881 0.930 . S
C889 C887 1.419 . S
C889 C890 1.362 . S
C890 H882 0.930 . S
C890 C889 1.362 . S
C890 C893 1.409 . S
C891 H883 0.930 . S
C891 C892 1.355 . S
C891 C893 1.415 . S
C892 C891 1.355 . S
C892 C894 1.419 . S
C893 C888 1.425 . S
C893 C890 1.409 . S
C893 C891 1.415 . S
C894 H884 0.930 . S
C894 C892 1.419 . S
C894 C895 1.362 . S
C895 H885 0.930 . S
C895 C888 1.409 . S
C895 C894 1.362 . S
H896 C902 0.930 . S
H897 C905 0.930 . S
H898 C906 0.930 . S
H899 C907 0.930 . S
H900 C910 0.930 . S
H901 C911 0.930 . S
C902 H896 0.930 . S
C902 C903 1.355 . S
C902 C904 1.415 . S
C903 C902 1.355 . S
C903 C905 1.419 . S
C904 C902 1.415 . S
C904 C909 1.425 . S
C904 C911 1.409 . S
C905 H897 0.930 . S
C905 C903 1.419 . S
C905 C906 1.362 . S
C906 H898 0.930 . S
C906 C905 1.362 . S
C906 C909 1.409 . S
C907 H899 0.930 . S
C907 C908 1.355 . S
C907 C909 1.415 . S
C908 C907 1.355 . S
C908 C910 1.419 . S
C909 C904 1.425 . S
C909 C906 1.409 . S
C909 C907 1.415 . S
C910 H900 0.930 . S
C910 C908 1.419 . S
C910 C911 1.362 . S
C911 H901 0.930 . S
C911 C904 1.409 . S
C911 C910 1.362 . S
H912 C918 0.930 . S
H913 C921 0.930 . S
H914 C922 0.930 . S
H915 C923 0.930 . S
H916 C926 0.930 . S
H917 C927 0.930 . S
C918 H912 0.930 . S
C918 C919 1.355 . S
C918 C920 1.415 . S
C919 C918 1.355 . S
C919 C921 1.419 . S
C920 C918 1.415 . S
C920 C925 1.425 . S
C920 C927 1.409 . S
C921 H913 0.930 . S
C921 C919 1.419 . S
C921 C922 1.362 . S
C922 H914 0.930 . S
C922 C921 1.362 . S
C922 C925 1.409 . S
C923 H915 0.930 . S
C923 C924 1.355 . S
C923 C925 1.415 . S
C924 C923 1.355 . S
C924 C926 1.419 . S
C925 C920 1.425 . S
C925 C922 1.409 . S
C925 C923 1.415 . S
C926 H916 0.930 . S
C926 C924 1.419 . S
C926 C927 1.362 . S
C927 H917 0.930 . S
C927 C920 1.409 . S
C927 C926 1.362 . S
H928 C934 0.930 . S
H929 C937 0.930 1_655 S
H930 C938 0.930 . S
H931 C939 0.930 . S
H932 C942 0.930 . S
H933 C943 0.930 . S
C934 H928 0.930 . S
C934 C935 1.355 . S
C934 C936 1.415 . S
C935 C934 1.355 . S
C935 C937 1.419 . S
C936 C934 1.415 . S
C936 C941 1.425 1_455 S
C936 C943 1.409 . S
C937 H929 0.930 1_455 S
C937 C935 1.419 . S
C937 C938 1.362 1_455 S
C938 H930 0.930 . S
C938 C937 1.362 1_655 S
C938 C941 1.409 . S
C939 H931 0.930 . S
C939 C940 1.355 . S
C939 C941 1.415 . S
C940 C939 1.355 . S
C940 C942 1.419 1_655 S
C941 C936 1.425 1_655 S
C941 C938 1.409 . S
C941 C939 1.415 . S
C942 H932 0.930 . S
C942 C940 1.419 1_455 S
C942 C943 1.362 . S
C943 H933 0.930 . S
C943 C936 1.409 . S
C943 C942 1.362 . S
H944 C950 0.930 . S
H945 C953 0.930 . S
H946 C954 0.930 . S
H947 C955 0.930 . S
H948 C958 0.930 . S
H949 C959 0.930 . S
C950 H944 0.930 . S
C950 C951 1.355 . S
C950 C952 1.415 . S
C951 C950 1.355 . S
C951 C953 1.419 1_655 S
C952 C950 1.415 . S
C952 C957 1.425 1_655 S
C952 C959 1.409 . S
C953 H945 0.930 . S
C953 C951 1.419 1_455 S
C953 C954 1.362 . S
C954 H946 0.930 . S
C954 C953 1.362 . S
C954 C957 1.409 . S
C955 H947 0.930 . S
C955 C956 1.355 . S
C955 C957 1.415 . S
C956 C955 1.355 . S
C956 C958 1.419 1_455 S
C957 C952 1.425 1_455 S
C957 C954 1.409 . S
C957 C955 1.415 . S
C958 H948 0.930 . S
C958 C956 1.419 1_655 S
C958 C959 1.362 . S
C959 H949 0.930 . S
C959 C952 1.409 . S
C959 C958 1.362 . S
H960 C966 0.930 . S
H961 C969 0.930 . S
H962 C970 0.930 . S
H963 C971 0.930 . S
H964 C974 0.930 . S
H965 C975 0.930 . S
C966 H960 0.930 . S
C966 C967 1.355 . S
C966 C968 1.415 . S
C967 C966 1.355 . S
C967 C969 1.419 . S
C968 C966 1.415 . S
C968 C973 1.425 . S
C968 C975 1.409 1_655 S
C969 H961 0.930 . S
C969 C967 1.419 . S
C969 C970 1.362 . S
C970 H962 0.930 . S
C970 C969 1.362 . S
C970 C973 1.409 . S
C971 H963 0.930 . S
C971 C972 1.355 1_655 S
C971 C973 1.415 . S
C972 C971 1.355 1_455 S
C972 C974 1.419 . S
C973 C968 1.425 . S
C973 C970 1.409 . S
C973 C971 1.415 . S
C974 H964 0.930 . S
C974 C972 1.419 . S
C974 C975 1.362 . S
C975 H965 0.930 . S
C975 C968 1.409 1_455 S
C975 C974 1.362 . S
H976 C982 0.930 . S
H977 C985 0.930 1_455 S
H978 C986 0.930 . S
H979 C987 0.930 . S
H980 C990 0.930 . S
H981 C991 0.930 . S
C982 H976 0.930 . S
C982 C983 1.355 . S
C982 C984 1.415 . S
C983 C982 1.355 . S
C983 C985 1.419 . S
C984 C982 1.415 . S
C984 C989 1.425 1_655 S
C984 C991 1.409 . S
C985 H977 0.930 1_655 S
C985 C983 1.419 . S
C985 C986 1.362 1_655 S
C986 H978 0.930 . S
C986 C985 1.362 1_455 S
C986 C989 1.409 . S
C987 H979 0.930 . S
C987 C988 1.355 . S
C987 C989 1.415 . S
C988 C987 1.355 . S
C988 C990 1.419 1_455 S
C989 C984 1.425 1_455 S
C989 C986 1.409 . S
C989 C987 1.415 . S
C990 H980 0.930 . S
C990 C988 1.419 1_655 S
C990 C991 1.362 . S
C991 H981 0.930 . S
C991 C984 1.409 . S
C991 C990 1.362 . S
H992 C998 0.930 . S
H993 C1001 0.930 . S
H994 C1002 0.930 . S
H995 C1003 0.930 . S
H996 C1006 0.930 . S
H997 C1007 0.930 . S
C998 H992 0.930 . S
C998 C999 1.355 . S
C998 C1000 1.415 . S
C999 C998 1.355 . S
C999 C1001 1.419 . S
C1000 C998 1.415 . S
C1000 C1005 1.425 . S
C1000 C1007 1.409 . S
C1001 H993 0.930 . S
C1001 C999 1.419 . S
C1001 C1002 1.362 . S
C1002 H994 0.930 . S
C1002 C1001 1.362 . S
C1002 C1005 1.409 . S
C1003 H995 0.930 . S
C1003 C1004 1.355 . S
C1003 C1005 1.415 . S
C1004 C1003 1.355 . S
C1004 C1006 1.419 . S
C1005 C1000 1.425 . S
C1005 C1002 1.409 . S
C1005 C1003 1.415 . S
C1006 H996 0.930 . S
C1006 C1004 1.419 . S
C1006 C1007 1.362 . S
C1007 H997 0.930 . S
C1007 C1000 1.409 . S
C1007 C1006 1.362 . S
H1008 C1014 0.930 . S
H1009 C1017 0.930 . S
H1010 C1018 0.930 . S
H1011 C1019 0.930 . S
H1012 C1022 0.930 . S
H1013 C1023 0.930 . S
C1014 H1008 0.930 . S
C1014 C1015 1.355 . S
C1014 C1016 1.415 . S
C1015 C1014 1.355 . S
C1015 C1017 1.419 . S
C1016 C1014 1.415 . S
C1016 C1021 1.425 . S
C1016 C1023 1.409 . S
C1017 H1009 0.930 . S
C1017 C1015 1.419 . S
C1017 C1018 1.362 . S
C1018 H1010 0.930 . S
C1018 C1017 1.362 . S
C1018 C1021 1.409 . S
C1019 H1011 0.930 . S
C1019 C1020 1.355 . S
C1019 C1021 1.415 . S
C1020 C1019 1.355 . S
C1020 C1022 1.419 . S
C1021 C1016 1.425 . S
C1021 C1018 1.409 . S
C1021 C1019 1.415 . S
C1022 H1012 0.930 . S
C1022 C1020 1.419 . S
C1022 C1023 1.362 . S
C1023 H1013 0.930 . S
C1023 C1016 1.409 . S
C1023 C1022 1.362 . S
H1024 C1030 0.930 . S
H1025 C1033 0.930 . S
H1026 C1034 0.930 . S
H1027 C1035 0.930 . S
H1028 C1038 0.930 . S
H1029 C1039 0.930 . S
C1030 H1024 0.930 . S
C1030 C1031 1.355 . S
C1030 C1032 1.415 . S
C1031 C1030 1.355 . S
C1031 C1033 1.419 . S
C1032 C1030 1.415 . S
C1032 C1037 1.425 . S
C1032 C1039 1.409 . S
C1033 H1025 0.930 . S
C1033 C1031 1.419 . S
C1033 C1034 1.362 . S
C1034 H1026 0.930 . S
C1034 C1033 1.362 . S
C1034 C1037 1.409 . S
C1035 H1027 0.930 . S
C1035 C1036 1.355 . S
C1035 C1037 1.415 . S
C1036 C1035 1.355 . S
C1036 C1038 1.419 . S
C1037 C1032 1.425 . S
C1037 C1034 1.409 . S
C1037 C1035 1.415 . S
C1038 H1028 0.930 . S
C1038 C1036 1.419 . S
C1038 C1039 1.362 . S
C1039 H1029 0.930 . S
C1039 C1032 1.409 . S
C1039 C1038 1.362 . S
H1040 C1046 0.930 . S
H1041 C1049 0.930 . S
H1042 C1050 0.930 . S
H1043 C1051 0.930 . S
H1044 C1054 0.930 . S
H1045 C1055 0.930 . S
C1046 H1040 0.930 . S
C1046 C1047 1.355 . S
C1046 C1048 1.415 . S
C1047 C1046 1.355 . S
C1047 C1049 1.419 . S
C1048 C1046 1.415 . S
C1048 C1053 1.425 . S
C1048 C1055 1.409 . S
C1049 H1041 0.930 . S
C1049 C1047 1.419 . S
C1049 C1050 1.362 . S
C1050 H1042 0.930 . S
C1050 C1049 1.362 . S
C1050 C1053 1.409 . S
C1051 H1043 0.930 . S
C1051 C1052 1.355 . S
C1051 C1053 1.415 . S
C1052 C1051 1.355 . S
C1052 C1054 1.419 . S
C1053 C1048 1.425 . S
C1053 C1050 1.409 . S
C1053 C1051 1.415 . S
C1054 H1044 0.930 . S
C1054 C1052 1.419 . S
C1054 C1055 1.362 . S
C1055 H1045 0.930 . S
C1055 C1048 1.409 . S
C1055 C1054 1.362 . S
C679 C67 2.053 . S
C684 C56 2.053 . S
C695 C151 2.088 . S
C700 C140 2.088 . S
C711 C224 2.081 . S
C716 C235 2.081 . S
C727 C308 2.091 . S
C732 C319 2.091 . S
C743 C403 2.060 . S
C748 C392 2.060 . S
C759 C476 2.084 . S
C764 C487 2.084 . S
C775 C560 2.099 . S
C780 C571 2.099 . S
C791 C655 2.082 . S
C796 C644 2.082 . S
C807 C154 1.801 1_554 S
C812 C58 1.801 . S
C823 C322 1.904 . S
C828 C226 1.904 . S
C839 C394 1.816 . S
C844 C490 1.816 1_554 S
C855 C562 1.906 . S
C860 C658 1.906 . S
C871 C70 1.337 1_554 S
C876 C478 1.350 . S
C887 C406 1.454 1_554 S
C892 C142 1.454 . S
C903 C238 1.345 . S
C908 C646 1.345 . S
C919 C310 1.405 . S
C924 C574 1.405 . S
C935 C74 1.490 . S
C940 C326 1.604 . S
C951 C158 1.604 . S
C956 C242 1.453 . S
C967 C147 1.516 . S
C972 C231 1.580 . S
C983 C315 1.476 . S
C988 C63 1.591 . S
C999 C410 1.536 . S
C1004 C662 1.587 . S
C1015 C494 1.608 . S
C1020 C578 1.460 . S
C1031 C483 1.473 . S
C1036 C567 1.607 . S
C1047 C651 1.534 . S
C1052 C399 1.587 . S
