# Generated by pormake.
# Topology fna, (5)-cn, num edge types: 1
# Building blocks:
#     Node 0, Type 0, BuildingBlock: XOMCOT_clean_sbu_1, # of connection points: 5
#     Node 1, Type 0, BuildingBlock: XOMCOT_clean_sbu_1, # of connection points: 5
#     Node 2, Type 0, BuildingBlock: XOMCOT_clean_sbu_1, # of connection points: 5
#     Node 3, Type 0, BuildingBlock: XOMCOT_clean_sbu_1, # of connection points: 5
#     Node 4, Type 0, BuildingBlock: XOMCOT_clean_sbu_1, # of connection points: 5
#     Node 5, Type 0, BuildingBlock: XOMCOT_clean_sbu_1, # of connection points: 5
#     Node 6, Type 0, BuildingBlock: XOMCOT_clean_sbu_1, # of connection points: 5
#     Node 7, Type 0, BuildingBlock: XOMCOT_clean_sbu_1, # of connection points: 5
#     Node 8, Type 0, BuildingBlock: XOMCOT_clean_sbu_1, # of connection points: 5
#     Node 9, Type 0, BuildingBlock: XOMCOT_clean_sbu_1, # of connection points: 5
#     Node 10, Type 0, BuildingBlock: XOMCOT_clean_sbu_1, # of connection points: 5
#     Node 11, Type 0, BuildingBlock: XOMCOT_clean_sbu_1, # of connection points: 5
#     Edge 12, Type (0, 0), BuildingBlock: ZUJKAS_clean_linker_0, # of connection points: 2
#     Edge 13, Type (0, 0), BuildingBlock: ZUJKAS_clean_linker_0, # of connection points: 2
#     Edge 14, Type (0, 0), BuildingBlock: ZUJKAS_clean_linker_0, # of connection points: 2
#     Edge 15, Type (0, 0), BuildingBlock: ZUJKAS_clean_linker_0, # of connection points: 2
#     Edge 16, Type (0, 0), BuildingBlock: ZUJKAS_clean_linker_0, # of connection points: 2
#     Edge 17, Type (0, 0), BuildingBlock: ZUJKAS_clean_linker_0, # of connection points: 2
#     Edge 18, Type (0, 0), BuildingBlock: ZUJKAS_clean_linker_0, # of connection points: 2
#     Edge 19, Type (0, 0), BuildingBlock: ZUJKAS_clean_linker_0, # of connection points: 2
#     Edge 20, Type (0, 0), BuildingBlock: ZUJKAS_clean_linker_0, # of connection points: 2
#     Edge 21, Type (0, 0), BuildingBlock: ZUJKAS_clean_linker_0, # of connection points: 2
#     Edge 22, Type (0, 0), BuildingBlock: ZUJKAS_clean_linker_0, # of connection points: 2
#     Edge 23, Type (0, 0), BuildingBlock: ZUJKAS_clean_linker_0, # of connection points: 2
#     Edge 24, Type (0, 0), BuildingBlock: ZUJKAS_clean_linker_0, # of connection points: 2
#     Edge 25, Type (0, 0), BuildingBlock: ZUJKAS_clean_linker_0, # of connection points: 2
#     Edge 26, Type (0, 0), BuildingBlock: ZUJKAS_clean_linker_0, # of connection points: 2
#     Edge 27, Type (0, 0), BuildingBlock: ZUJKAS_clean_linker_0, # of connection points: 2
#     Edge 28, Type (0, 0), BuildingBlock: ZUJKAS_clean_linker_0, # of connection points: 2
#     Edge 29, Type (0, 0), BuildingBlock: ZUJKAS_clean_linker_0, # of connection points: 2
#     Edge 30, Type (0, 0), BuildingBlock: ZUJKAS_clean_linker_0, # of connection points: 2
#     Edge 31, Type (0, 0), BuildingBlock: ZUJKAS_clean_linker_0, # of connection points: 2
#     Edge 32, Type (0, 0), BuildingBlock: ZUJKAS_clean_linker_0, # of connection points: 2
#     Edge 33, Type (0, 0), BuildingBlock: ZUJKAS_clean_linker_0, # of connection points: 2
#     Edge 34, Type (0, 0), BuildingBlock: ZUJKAS_clean_linker_0, # of connection points: 2
#     Edge 35, Type (0, 0), BuildingBlock: ZUJKAS_clean_linker_0, # of connection points: 2
#     Edge 36, Type (0, 0), BuildingBlock: ZUJKAS_clean_linker_0, # of connection points: 2
#     Edge 37, Type (0, 0), BuildingBlock: ZUJKAS_clean_linker_0, # of connection points: 2
#     Edge 38, Type (0, 0), BuildingBlock: ZUJKAS_clean_linker_0, # of connection points: 2
#     Edge 39, Type (0, 0), BuildingBlock: ZUJKAS_clean_linker_0, # of connection points: 2
#     Edge 40, Type (0, 0), BuildingBlock: ZUJKAS_clean_linker_0, # of connection points: 2
#     Edge 41, Type (0, 0), BuildingBlock: ZUJKAS_clean_linker_0, # of connection points: 2
# Relax obj value: 0.383
# Max RMSD: 0.207
# Mean RMSD: 0.207
data_MOF--net-fna--node1-XOMCOT_clean_sbu_1--edge1-ZUJKAS_clean_linker_0
_symmetry_space_group_name_H-M    P1
_symmetry_Int_Tables_number       1
_symmetry_cell_setting            triclinic
loop_
_symmetry_equiv_pos_as_xyz
'x, y, z'
_cell_length_a     58.892842
_cell_length_b     58.89288
_cell_length_c     52.409709
_cell_angle_alpha  90.034687
_cell_angle_beta   89.995339
_cell_angle_gamma 120.02574
loop_
_atom_site_label
_atom_site_type_symbol
_atom_site_fract_x
_atom_site_fract_y
_atom_site_fract_z
_atom_type_partial_charge
C0 C 0.38097 0.32261 0.49957 0.0
C1 C 0.38427 0.32996 0.52481 0.0
N2 N 0.36038 0.32031 0.5355 0.0
N3 N 0.35513 0.30854 0.49437 0.0
C4 C 0.34305 0.30743 0.5166 0.0
H5 H 0.39638 0.3267 0.48599 0.0
Co6 Co 0.34091 0.29152 0.46383 0.0
C7 C 0.28611 0.27755 0.46815 0.0
O8 O 0.27968 0.25361 0.46125 0.0
N9 N 0.32721 0.27393 0.43305 0.0
C10 C 0.30847 0.26011 0.39506 0.0
C11 C 0.31522 0.27897 0.41375 0.0
C12 C 0.32789 0.25237 0.42557 0.0
N13 N 0.31635 0.24329 0.40271 0.0
O14 O 0.32428 0.25907 0.48185 0.0
H15 H 0.31142 0.29514 0.41341 0.0
H16 H 0.33702 0.24361 0.43658 0.0
O17 O 0.31026 0.2953 0.46933 0.0
C18 C 0.33861 0.24956 0.48838 0.0
O19 O 0.36334 0.26175 0.48132 0.0
N20 N 0.35874 0.32361 0.44673 0.0
C21 C 0.39756 0.37334 0.43103 0.0
C22 C 0.37626 0.37018 0.44583 0.0
C23 C 0.35698 0.34506 0.45352 0.0
C24 C 0.37822 0.32608 0.43096 0.0
C25 C 0.39765 0.35073 0.42263 0.0
H26 H 0.34202 0.34315 0.46672 0.0
H27 H 0.37971 0.309 0.42624 0.0
H28 H 0.32199 0.29638 0.51914 0.0
H29 H 0.40283 0.3413 0.53457 0.0
H30 H 0.29815 0.25863 0.37751 0.0
H31 H 0.37545 0.387 0.45302 0.0
H32 H 0.41336 0.35211 0.41079 0.0
C33 C 0.05217 0.37334 0.66155 0.0
C34 C 0.04735 0.37607 0.68669 0.0
N35 N 0.03614 0.35224 0.6978 0.0
N36 N 0.04376 0.34788 0.65672 0.0
C37 C 0.0342 0.3355 0.67915 0.0
H38 H 0.062 0.38905 0.64787 0.0
Co39 Co 0.04901 0.33477 0.62647 0.0
C40 C 0.99613 0.28604 0.61897 0.0
O41 O 0.99414 0.29141 0.59509 0.0
N42 N 0.05582 0.32225 0.59556 0.0
C43 C 0.05887 0.3131 0.55475 0.0
C44 C 0.04515 0.31924 0.57204 0.0
C45 C 0.07633 0.31829 0.5917 0.0
N46 N 0.07864 0.31273 0.56719 0.0
O47 O 0.06659 0.32058 0.64554 0.0
H48 H 0.02944 0.32288 0.56715 0.0
H49 H 0.09001 0.3202 0.60636 0.0
O50 O 0.01624 0.30175 0.63205 0.0
C51 C 0.08959 0.33693 0.65322 0.0
O52 O 0.10023 0.3615 0.64588 0.0
N53 N 0.0327 0.35047 0.60882 0.0
C54 C 0.01808 0.38678 0.59358 0.0
C55 C 1.00062 0.36421 0.60728 0.0
C56 C 0.00843 0.34646 0.61503 0.0
C57 C 0.04937 0.37149 0.59435 0.0
C58 C 0.04238 0.38977 0.58634 0.0
H59 H 0.99587 0.33091 0.62792 0.0
H60 H 0.069 0.37517 0.59066 0.0
H61 H 0.02668 0.31475 0.68186 0.0
H62 H 0.05283 0.39438 0.69627 0.0
H63 H 0.0555 0.31064 0.53437 0.0
H64 H 0.98167 0.36107 0.61328 0.0
H65 H 0.05676 0.40711 0.57628 0.0
C66 C 0.68389 0.05236 0.83033 0.0
C67 C 0.6761 0.04757 0.8554 0.0
N68 N 0.68713 0.03468 0.86629 0.0
N69 N 0.69952 0.04227 0.82532 0.0
C70 C 0.70128 0.03177 0.8476 0.0
H71 H 0.67907 0.06313 0.81676 0.0
Co72 Co 0.71711 0.04617 0.79483 0.0
C73 C 0.70879 0.99154 0.78786 0.0
O74 O 0.69939 0.98892 0.7647 0.0
N75 N 0.73572 0.0515 0.76366 0.0
C76 C 0.74681 0.05277 0.72273 0.0
C77 C 0.72724 0.04018 0.74051 0.0
C78 C 0.76051 0.07117 0.75909 0.0
N79 N 0.76778 0.0724 0.73446 0.0
O80 O 0.7493 0.06261 0.81342 0.0
H81 H 0.70753 0.02485 0.73616 0.0
H82 H 0.77262 0.08551 0.77316 0.0
O83 O 0.7155 0.01252 0.80049 0.0
C84 C 0.75733 0.08614 0.82038 0.0
O85 O 0.74441 0.09772 0.81265 0.0
N86 N 0.68477 0.03122 0.77762 0.0
C87 C 0.63466 0.01971 0.76246 0.0
C88 C 0.63821 1.00166 0.7769 0.0
C89 C 0.66344 0.00793 0.78458 0.0
C90 C 0.68178 0.04842 0.76259 0.0
C91 C 0.65695 0.04293 0.75456 0.0
H92 H 0.66548 0.99515 0.798 0.0
H93 H 0.69862 0.06732 0.75823 0.0
H94 H 0.71319 0.02271 0.85015 0.0
H95 H 0.66413 0.05407 0.86508 0.0
H96 H 0.74529 0.0483 0.70256 0.0
H97 H 0.62153 0.9838 0.78392 0.0
H98 H 0.65513 0.05739 0.74336 0.0
C99 C 0.63344 0.68364 0.99861 0.0
C100 C 0.63033 0.67621 0.0238 0.0
N101 N 0.65429 0.68632 0.0345 0.0
N102 N 0.65922 0.69814 0.99335 0.0
C103 C 0.67146 0.69952 0.01556 0.0
H104 H 0.61791 0.6792 0.98505 0.0
Co105 Co 0.67322 0.71513 0.96266 0.0
C106 C 0.71757 0.70392 0.95626 0.0
O107 O 0.70936 0.69283 0.93387 0.0
N108 N 0.68705 0.73332 0.93127 0.0
C109 C 0.69737 0.74395 0.89028 0.0
C110 C 0.68988 0.72448 0.9083 0.0
C111 C 0.69293 0.75828 0.92637 0.0
N112 N 0.69923 0.76525 0.90174 0.0
O113 O 0.6896 0.74742 0.98099 0.0
H114 H 0.68514 0.70462 0.9042 0.0
H115 H 0.69114 0.77087 0.94014 0.0
O116 O 0.7047 0.71259 0.96847 0.0
C117 C 0.67466 0.75665 0.98605 0.0
O118 O 0.65088 0.74511 0.97639 0.0
N119 N 0.65504 0.68261 0.94578 0.0
C120 C 0.61625 0.63286 0.92968 0.0
C121 C 0.63664 0.63584 0.94574 0.0
C122 C 0.65568 0.66087 0.95381 0.0
C123 C 0.63581 0.68015 0.92961 0.0
C124 C 0.6165 0.65553 0.92099 0.0
H125 H 0.66962 0.66252 0.96814 0.0
H126 H 0.63459 0.6973 0.92447 0.0
H127 H 0.69251 0.71097 0.01803 0.0
H128 H 0.61181 0.66443 0.03347 0.0
H129 H 0.70032 0.7422 0.87016 0.0
H130 H 0.63688 0.61893 0.95352 0.0
H131 H 0.60125 0.65424 0.90851 0.0
C132 C 0.95767 0.63206 0.16279 0.0
C133 C 0.96271 0.62887 0.18774 0.0
N134 N 0.97444 0.65256 0.19919 0.0
N135 N 0.96641 0.65767 0.15845 0.0
C136 C 0.97642 0.66966 0.18096 0.0
H137 H 0.94766 0.61664 0.14885 0.0
Co138 Co 0.96205 0.67187 0.12861 0.0
C139 C 0.99989 0.72753 0.13577 0.0
O140 O 0.98097 0.73258 0.13093 0.0
N141 N 0.95681 0.68557 0.09864 0.0
C142 C 0.96093 0.70741 0.06277 0.0
C143 C 0.97405 0.70118 0.08077 0.0
C144 C 0.93343 0.68201 0.09084 0.0
N145 N 0.93535 0.69525 0.06921 0.0
O146 O 0.94423 0.6858 0.1476 0.0
H147 H 0.99485 0.70801 0.08109 0.0
H148 H 0.91537 0.67053 0.1013 0.0
O149 O 0.99528 0.70392 0.13468 0.0
C150 C 0.92088 0.67022 0.15481 0.0
O151 O 0.90959 0.64546 0.14791 0.0
N152 N 0.97833 0.65668 0.11041 0.0
C153 C 0.99361 0.62159 0.09289 0.0
C154 C 0.01113 0.6441 0.1067 0.0
C155 C 1.00307 0.6614 0.11543 0.0
C156 C 0.96168 0.63599 0.09559 0.0
C157 C 0.96894 0.61823 0.08656 0.0
H158 H 0.01599 0.67732 0.12783 0.0
H159 H 0.9419 0.63212 0.09243 0.0
H160 H 0.9846 0.6905 0.18397 0.0
H161 H 0.95727 0.61039 0.19694 0.0
H162 H 0.96953 0.71994 0.04631 0.0
H163 H 0.03046 0.64764 0.11182 0.0
H164 H 0.95456 0.60101 0.07633 0.0
C165 C 0.33137 0.9597 0.33047 0.0
C166 C 0.33894 0.96471 0.35558 0.0
N167 N 0.32623 0.97585 0.36663 0.0
N168 N 0.31419 0.96793 0.32555 0.0
C169 C 0.31131 0.97754 0.34796 0.0
H170 H 0.33729 0.94983 0.31689 0.0
Co171 Co 0.29583 0.96239 0.29523 0.0
C172 C 0.29904 0.01444 0.28604 0.0
O173 O 0.30385 0.01446 0.26161 0.0
N174 N 0.27652 0.95531 0.26416 0.0
C175 C 0.2649 0.95072 0.22307 0.0
C176 C 0.28494 0.96419 0.24023 0.0
C177 C 0.25122 0.93626 0.26072 0.0
N178 N 0.24369 0.93295 0.23601 0.0
O179 O 0.26404 0.94537 0.31434 0.0
H180 H 0.30475 0.97875 0.23511 0.0
H181 H 0.23852 0.92434 0.27591 0.0
O182 O 0.29613 0.99548 0.30014 0.0
C183 C 0.25688 0.92218 0.32178 0.0
O184 O 0.27053 0.91125 0.3144 0.0
N185 N 0.32785 0.97811 0.27759 0.0
C186 C 0.37848 0.9928 0.2612 0.0
C187 C 0.37342 0.01067 0.27418 0.0
C188 C 0.34799 1.00285 0.28251 0.0
C189 C 0.33219 0.96083 0.26417 0.0
C190 C 0.35728 0.96783 0.25558 0.0
H191 H 0.34506 0.016 0.29461 0.0
H192 H 0.31635 0.9409 0.26155 0.0
H193 H 0.29793 0.98489 0.35064 0.0
H194 H 0.35187 0.95938 0.3652 0.0
H195 H 0.26634 0.95294 0.20254 0.0
H196 H 0.38917 0.03012 0.279 0.0
H197 H 0.36026 0.95314 0.24619 0.0
C198 C 0.68994 0.6348 0.3354 0.0
C199 C 0.68257 0.63056 0.31016 0.0
N200 N 0.69168 0.65404 0.2987 0.0
N201 N 0.70329 0.66081 0.33992 0.0
C202 C 0.70422 0.67203 0.31721 0.0
H203 H 0.68632 0.61994 0.34949 0.0
Co204 Co 0.71994 0.6768 0.37027 0.0
C205 C 0.70279 0.71706 0.37345 0.0
O206 O 0.6909 0.70802 0.39543 0.0
N207 N 0.7383 0.69262 0.40061 0.0
C208 C 0.76397 0.72085 0.43035 0.0
C209 C 0.74499 0.71558 0.41233 0.0
C210 C 0.75373 0.68455 0.41188 0.0
N211 N 0.76973 0.70144 0.42985 0.0
O212 O 0.75224 0.69407 0.35226 0.0
H213 H 0.73865 0.72916 0.40705 0.0
H214 H 0.75458 0.66751 0.40556 0.0
O215 O 0.71471 0.70649 0.3627 0.0
C216 C 0.76254 0.67997 0.34782 0.0
O217 O 0.75108 0.65599 0.35698 0.0
N218 N 0.68749 0.65798 0.3877 0.0
C219 C 0.6385 0.61856 0.40515 0.0
C220 C 0.64037 0.636 0.38596 0.0
C221 C 0.66496 0.65535 0.37737 0.0
C222 C 0.68607 0.64196 0.40717 0.0
C223 C 0.6618 0.62231 0.41635 0.0
H224 H 0.6658 0.66693 0.36103 0.0
H225 H 0.7037 0.64304 0.41453 0.0
H226 H 0.71432 0.69302 0.31425 0.0
H227 H 0.67214 0.61167 0.30079 0.0
H228 H 0.77374 0.7384 0.44191 0.0
H229 H 0.62305 0.63356 0.37626 0.0
H230 H 0.66137 0.60939 0.43128 0.0
C231 C 0.0551 0.68085 0.50041 0.0
C232 C 0.05005 0.67285 0.4754 0.0
N233 N 0.03649 0.68328 0.46474 0.0
N234 N 0.04453 0.69601 0.50561 0.0
C235 C 0.03345 0.69728 0.48351 0.0
H236 H 0.06636 0.6765 0.51382 0.0
Co237 Co 0.04864 0.71382 0.53603 0.0
C238 C 0.99296 0.70274 0.54306 0.0
O239 O 0.9902 0.69168 0.56542 0.0
N240 N 0.05426 0.73274 0.567 0.0
C241 C 0.05539 0.74505 0.60752 0.0
C242 C 0.04218 0.72532 0.58995 0.0
C243 C 0.07507 0.75688 0.57151 0.0
N244 N 0.07621 0.76484 0.59586 0.0
O245 O 0.06449 0.74588 0.51715 0.0
H246 H 0.02611 0.7061 0.59449 0.0
H247 H 0.08976 0.76832 0.55746 0.0
O248 O 0.01451 0.71148 0.5308 0.0
C249 C 0.08784 0.75357 0.5098 0.0
O250 O 0.09923 0.7404 0.51729 0.0
N251 N 0.03436 0.6817 0.55359 0.0
C252 C 0.02376 0.63219 0.56993 0.0
C253 C 0.00606 0.63492 0.55409 0.0
C254 C 0.01186 0.65983 0.5459 0.0
C255 C 0.05125 0.6795 0.56981 0.0
C256 C 0.04615 0.65499 0.5785 0.0
H257 H 0.99941 0.66126 0.53161 0.0
H258 H 0.06966 0.69672 0.57475 0.0
H259 H 0.02386 0.70873 0.48114 0.0
H260 H 0.05682 0.66116 0.4656 0.0
H261 H 0.05094 0.7442 0.62766 0.0
H262 H 0.9889 0.61789 0.54646 0.0
H263 H 0.06032 0.65385 0.59081 0.0
C264 C 0.37727 0.05182 0.66821 0.0
C265 C 0.38018 0.04748 0.64295 0.0
N266 N 0.35621 0.03477 0.63214 0.0
N267 N 0.35157 0.04177 0.6733 0.0
C268 C 0.33921 0.03148 0.651 0.0
H269 H 0.39292 0.06241 0.68179 0.0
Co270 Co 0.3377 0.04602 0.70344 0.0
C271 C 0.28251 0.00587 0.69934 0.0
O272 O 0.27645 0.0238 0.70559 0.0
N273 N 0.32433 0.05129 0.73375 0.0
C274 C 0.30569 0.04796 0.77151 0.0
C275 C 0.31218 0.035 0.75353 0.0
C276 C 0.32533 0.07394 0.74024 0.0
N277 N 0.31386 0.07244 0.76293 0.0
O278 O 0.32178 0.06198 0.68448 0.0
H279 H 0.30807 0.01495 0.75465 0.0
H280 H 0.3346 0.09142 0.72864 0.0
O281 O 0.30655 0.01185 0.69854 0.0
C282 C 0.33669 0.08548 0.67723 0.0
O283 O 0.36146 0.09759 0.68422 0.0
N284 N 0.35485 0.03162 0.72144 0.0
C285 C 0.39291 0.01997 0.73777 0.0
C286 C 0.3706 1.0012 0.72456 0.0
C287 C 0.35175 0.00747 0.71641 0.0
C288 C 0.37532 0.04932 0.73587 0.0
C289 C 0.39452 0.04384 0.74436 0.0
H290 H 0.33601 0.99379 0.70425 0.0
H291 H 0.37782 0.06857 0.73916 0.0
H292 H 0.31829 0.02308 0.64833 0.0
H293 H 0.39857 0.05364 0.63321 0.0
H294 H 0.29529 0.03983 0.7892 0.0
H295 H 0.3687 0.98265 0.71884 0.0
H296 H 0.41122 0.05875 0.7548 0.0
C297 C 0.32775 0.37409 0.83598 0.0
C298 C 0.33479 0.37762 0.81069 0.0
N299 N 0.32326 0.35393 0.79928 0.0
N300 N 0.31202 0.34829 0.84057 0.0
C301 C 0.30961 0.33646 0.81784 0.0
H302 H 0.33302 0.38944 0.84997 0.0
Co303 Co 0.29432 0.3345 0.87099 0.0
C304 C 0.2987 0.28603 0.878 0.0
O305 O 0.30437 0.29065 0.90231 0.0
N306 N 0.2756 0.3213 0.90222 0.0
C307 C 0.26469 0.3131 0.94339 0.0
C308 C 0.28442 0.32013 0.92577 0.0
C309 C 0.25041 0.31507 0.90639 0.0
N310 N 0.24327 0.31003 0.93114 0.0
O311 O 0.2622 0.31984 0.85246 0.0
H312 H 0.30432 0.32527 0.93035 0.0
H313 H 0.23781 0.3158 0.8919 0.0
O314 O 0.29496 0.30202 0.86464 0.0
C315 C 0.25473 0.33587 0.84589 0.0
O316 O 0.26816 0.36023 0.85398 0.0
N317 N 0.32671 0.35074 0.88805 0.0
C318 C 0.37779 0.38727 0.90288 0.0
C319 C 0.3726 0.36464 0.88924 0.0
C320 C 0.34696 0.34676 0.8817 0.0
C321 C 0.33118 0.37194 0.9023 0.0
C322 C 0.35652 0.39032 0.91013 0.0
H323 H 0.34388 0.33107 0.86897 0.0
H324 H 0.31521 0.37558 0.90608 0.0
H325 H 0.29691 0.31567 0.81466 0.0
H326 H 0.34707 0.39622 0.80133 0.0
H327 H 0.26634 0.31123 0.96375 0.0
H328 H 0.38838 0.36147 0.88321 0.0
H329 H 0.35955 0.40772 0.92013 0.0
C330 C 0.95667 0.32751 0.99791 0.0
C331 C 0.96097 0.3341 0.97251 0.0
N332 N 0.97347 0.32238 0.96221 0.0
N333 N 0.96658 0.31188 0.00363 0.0
C334 C 0.97666 0.30906 0.98151 0.0
H335 H 0.94634 0.33315 0.01123 0.0
Co336 Co 0.96255 0.29503 0.03455 0.0
C337 C 0.0162 0.30123 0.04205 0.0
O338 O 0.01844 0.3098 0.06554 0.0
N339 N 0.95711 0.27718 0.06622 0.0
C340 C 0.9555 0.26699 0.10747 0.0
C341 C 0.96785 0.28637 0.08945 0.0
C342 C 0.93804 0.25218 0.07096 0.0
N343 N 0.93663 0.24544 0.09577 0.0
O344 O 0.94542 0.26238 0.01675 0.0
H345 H 0.98287 0.3063 0.09356 0.0
H346 H 0.92427 0.23939 0.05682 0.0
O347 O 0.99572 0.29566 0.02904 0.0
C348 C 0.92195 0.25433 0.00965 0.0
O349 O 0.91053 0.26764 0.01663 0.0
N350 N 0.97833 0.32785 0.05087 0.0
C351 C 0.99236 0.37892 0.06536 0.0
C352 C 0.00979 0.37394 0.05143 0.0
C353 C 1.00226 0.3483 0.04406 0.0
C354 C 0.96154 0.33216 0.06521 0.0
C355 C 0.96825 0.35748 0.07287 0.0
H356 H 0.01484 0.3453 0.03119 0.0
H357 H 0.94212 0.31603 0.06932 0.0
H358 H 0.98491 0.29638 0.97932 0.0
H359 H 0.95503 0.34627 0.96236 0.0
H360 H 0.95968 0.26894 0.12771 0.0
H361 H 0.02858 0.38983 0.04517 0.0
H362 H 0.95386 0.36031 0.08306 0.0
C363 C 0.63533 0.9575 0.16808 0.0
C364 C 0.6324 0.96209 0.14292 0.0
N365 N 0.65636 0.97486 0.13208 0.0
N366 N 0.66103 0.96761 0.17318 0.0
C367 C 0.67336 0.97789 0.15087 0.0
H368 H 0.6197 0.94691 0.18166 0.0
Co369 Co 0.67467 0.96419 0.20386 0.0
C370 C 0.72233 0.01776 0.21034 0.0
O371 O 0.7167 0.02002 0.23408 0.0
N372 N 0.68791 0.95935 0.23538 0.0
C373 C 0.69612 0.95768 0.27676 0.0
C374 C 0.68928 0.97006 0.25861 0.0
C375 C 0.69404 0.94044 0.24024 0.0
N376 N 0.699 0.93893 0.26513 0.0
O377 O 0.68961 0.94678 0.18577 0.0
H378 H 0.68418 0.98494 0.26267 0.0
H379 H 0.69324 0.92668 0.22622 0.0
O380 O 0.70704 0.99727 0.19751 0.0
C381 C 0.67407 0.92273 0.18067 0.0
O382 O 0.65031 0.9111 0.19037 0.0
N383 N 0.65806 0.98022 0.22038 0.0
C384 C 0.6212 0.99436 0.23503 0.0
C385 C 0.64348 0.01169 0.2209 0.0
C386 C 0.6615 0.00411 0.21344 0.0
C387 C 0.6371 0.96356 0.23493 0.0
C388 C 0.61859 0.97032 0.24269 0.0
H389 H 0.67692 0.01655 0.20038 0.0
H390 H 0.63383 0.94415 0.23911 0.0
H391 H 0.69436 0.98702 0.1484 0.0
H392 H 0.61397 0.95565 0.13317 0.0
H393 H 0.69785 0.96158 0.29706 0.0
H394 H 0.64629 0.0304 0.21451 0.0
H395 H 0.60144 0.95602 0.25304 0.0
H396 H 0.36163 0.13701 0.66414 0.0
H397 H 0.34791 0.15816 0.6327 0.0
H398 H 0.27636 0.08505 0.61963 0.0
H399 H 0.29009 0.06351 0.65119 0.0
H400 H 0.3039 0.10871 0.57524 0.0
H401 H 0.29254 0.18051 0.63356 0.0
H402 H 0.32301 0.18176 0.64025 0.0
H403 H 0.29255 0.15237 0.64731 0.0
C404 C 0.34279 0.12546 0.65489 0.0
C405 C 0.32697 0.0986 0.66009 0.0
C406 C 0.33486 0.13765 0.63708 0.0
C407 C 0.31092 0.12327 0.62417 0.0
C408 C 0.29477 0.09652 0.62964 0.0
H409 H 0.29183 0.22515 0.51413 0.0
H410 H 0.27734 0.18925 0.54505 0.0
C411 C 0.30264 0.08429 0.64764 0.0
C412 C 0.30451 0.13589 0.60318 0.0
H413 H 0.3043 0.19226 0.58903 0.0
C414 C 0.30326 0.12661 0.57826 0.0
C415 C 0.30318 0.15893 0.60715 0.0
C416 C 0.3026 0.1688 0.63357 0.0
C417 C 0.30316 0.14112 0.5571 0.0
C418 C 0.30472 0.16561 0.56107 0.0
C419 C 0.30347 0.17364 0.586 0.0
C420 C 0.31137 0.18476 0.54014 0.0
C421 C 0.30253 0.13064 0.53068 0.0
C422 C 0.33522 0.19402 0.52716 0.0
C423 C 0.34358 0.2145 0.50969 0.0
C424 C 0.32829 0.22622 0.50493 0.0
C425 C 0.30399 0.21642 0.51735 0.0
C426 C 0.29568 0.19595 0.53499 0.0
H427 H 0.29211 0.10885 0.53066 0.0
H428 H 0.2928 0.13731 0.51687 0.0
H429 H 0.32291 0.13775 0.52414 0.0
H430 H 0.34794 0.18613 0.5313 0.0
H431 H 0.36239 0.22159 0.50044 0.0
H432 H 0.07064 0.29027 0.6788 0.0
H433 H 0.09351 0.27925 0.71139 0.0
H434 H 0.16284 0.35484 0.701 0.0
H435 H 0.1404 0.36589 0.66845 0.0
H436 H 0.17225 0.31163 0.70466 0.0
H437 H 0.10969 0.31414 0.7832 0.0
H438 H 0.09344 0.29287 0.75653 0.0
H439 H 0.11071 0.32775 0.7521 0.0
C440 C 0.09086 0.30439 0.68327 0.0
C441 C 0.10369 0.32902 0.67119 0.0
C442 C 0.10382 0.29811 0.70195 0.0
C443 C 0.12974 0.31636 0.70873 0.0
C444 C 0.14282 0.34051 0.69602 0.0
H445 H 0.23191 0.36435 0.83222 0.0
H446 H 0.19829 0.35358 0.79985 0.0
C447 C 0.12992 0.34682 0.67748 0.0
C448 C 0.14322 0.31125 0.72985 0.0
H449 H 0.14608 0.31032 0.79486 0.0
C450 C 0.16631 0.31079 0.72439 0.0
C451 C 0.1354 0.31037 0.75551 0.0
C452 C 0.11106 0.31144 0.76239 0.0
C453 C 0.18252 0.31075 0.74399 0.0
C454 C 0.1752 0.31088 0.76967 0.0
C455 C 0.15147 0.31005 0.77512 0.0
C456 C 0.19359 0.31559 0.79091 0.0
C457 C 0.20814 0.31227 0.73712 0.0
C458 C 0.20163 0.29748 0.79701 0.0
C459 C 0.22095 0.30361 0.81557 0.0
C460 C 0.23246 0.32794 0.82823 0.0
C461 C 0.22356 0.34552 0.82272 0.0
C462 C 0.20428 0.33937 0.80429 0.0
H463 H 0.21251 0.31568 0.7164 0.0
H464 H 0.22458 0.3283 0.74792 0.0
H465 H 0.20724 0.29358 0.74234 0.0
H466 H 0.19335 0.27889 0.78707 0.0
H467 H 0.22738 0.28965 0.81946 0.0
H468 H 0.78369 0.13817 0.83156 0.0
H469 H 0.81803 0.16072 0.8633 0.0
H470 H 0.81639 0.08836 0.88077 0.0
H471 H 0.78164 0.06542 0.8489 0.0
H472 H 0.81193 0.11399 0.92354 0.0
H473 H 0.89584 0.1832 0.8643 0.0
H474 H 0.86663 0.18411 0.85662 0.0
H475 H 0.86777 0.15451 0.85114 0.0
C476 C 0.79086 0.12707 0.84185 0.0
C477 C 0.77996 0.10002 0.83774 0.0
C478 C 0.81067 0.14006 0.85985 0.0
C479 C 0.82006 0.12631 0.87409 0.0
C480 C 0.80959 0.09936 0.86975 0.0
H481 H 0.94224 0.22791 0.98395 0.0
H482 H 0.91952 0.19231 0.95288 0.0
C483 C 0.78981 0.08632 0.85154 0.0
C484 C 0.83888 0.13988 0.8951 0.0
H485 H 0.89607 0.19617 0.90829 0.0
C486 C 0.83063 0.13162 0.92022 0.0
C487 C 0.86345 0.16262 0.89077 0.0
C488 C 0.87407 0.17147 0.86421 0.0
C489 C 0.84536 0.1467 0.94112 0.0
C490 C 0.86868 0.17074 0.9367 0.0
C491 C 0.87799 0.17788 0.91166 0.0
C492 C 0.88197 0.19016 0.95732 0.0
C493 C 0.83534 0.13721 0.96772 0.0
C494 C 0.86837 0.20069 0.97005 0.0
C495 C 0.88124 0.221 0.98762 0.0
C496 C 0.90804 0.23126 0.99278 0.0
C497 C 0.92154 0.22029 0.98048 0.0
C498 C 0.90863 0.20001 0.96273 0.0
H499 H 0.82304 0.11548 0.96831 0.0
H500 H 0.85173 0.14352 0.98151 0.0
H501 H 0.82295 0.14549 0.97391 0.0
H502 H 0.84795 0.19382 0.96574 0.0
H503 H 0.87029 0.22904 0.99673 0.0
H504 H 0.66214 0.7949 0.98238 0.0
H505 H 0.67054 0.82886 0.01384 0.0
H506 H 0.71268 0.80186 0.06058 0.0
H507 H 0.70551 0.76879 0.02832 0.0
H508 H 0.65088 0.8185 0.05873 0.0
H509 H 0.75844 0.8789 0.07005 0.0
H510 H 0.74351 0.85647 0.04372 0.0
H511 H 0.7472 0.84468 0.07427 0.0
C512 C 0.67381 0.79674 0.99907 0.0
C513 C 0.6832 0.77935 0.00304 0.0
C514 C 0.6786 0.81611 0.01703 0.0
C515 C 0.69237 0.81808 0.03958 0.0
C516 C 0.70262 0.80126 0.0431 0.0
H517 H 0.65564 0.87031 0.17926 0.0
H518 H 0.66317 0.84572 0.14598 0.0
C519 C 0.69838 0.78226 0.02475 0.0
C520 C 0.69284 0.83524 0.06058 0.0
H521 H 0.73232 0.88185 0.10382 0.0
C522 C 0.66879 0.83255 0.06834 0.0
C523 C 0.71617 0.85373 0.0731 0.0
C524 C 0.7428 0.85883 0.06467 0.0
C525 C 0.6673 0.84749 0.08833 0.0
C526 C 0.69039 0.86491 0.10178 0.0
C527 C 0.71458 0.86811 0.09378 0.0
C528 C 0.68951 0.88005 0.12396 0.0
C529 C 0.64097 0.84472 0.09451 0.0
C530 C 0.70322 0.90758 0.1235 0.0
C531 C 0.69941 0.92171 0.14285 0.0
C532 C 0.68163 0.90842 0.16273 0.0
C533 C 0.66917 0.88097 0.16393 0.0
C534 C 0.67337 0.86693 0.14489 0.0
H535 H 0.62736 0.83697 0.07799 0.0
H536 H 0.63187 0.8307 0.11052 0.0
H537 H 0.64301 0.86381 0.10024 0.0
H538 H 0.71589 0.91808 0.10758 0.0
H539 H 0.7092 0.94289 0.14148 0.0
H540 H 0.93992 0.71905 0.17593 0.0
H541 H 0.91817 0.7325 0.20746 0.0
H542 H 0.84985 0.65519 0.20486 0.0
H543 H 0.87113 0.64172 0.17321 0.0
H544 H 0.83821 0.69614 0.2051 0.0
H545 H 0.90834 0.70707 0.28202 0.0
H546 H 0.92199 0.72589 0.2534 0.0
H547 H 0.90642 0.69079 0.25226 0.0
C548 C 0.92016 0.70501 0.1819 0.0
C549 C 0.9073 0.67924 0.17224 0.0
C550 C 0.90784 0.7127 0.19998 0.0
C551 C 0.88257 0.69472 0.20869 0.0
C552 C 0.86939 0.66934 0.19838 0.0
H553 H 0.79057 0.65579 0.33806 0.0
H554 H 0.82312 0.66631 0.30471 0.0
C555 C 0.88162 0.66165 0.18035 0.0
C556 C 0.86995 0.70149 0.22942 0.0
H557 H 0.8718 0.71045 0.29389 0.0
C558 C 0.84573 0.6998 0.22447 0.0
C559 C 0.87988 0.70613 0.25462 0.0
C560 C 0.90549 0.70744 0.2611 0.0
C561 C 0.83042 0.70112 0.24428 0.0
C562 C 0.83987 0.70469 0.26963 0.0
C563 C 0.86476 0.70789 0.27438 0.0
C564 C 0.8226 0.7009 0.29165 0.0
C565 C 0.80351 0.69686 0.23815 0.0
C566 C 0.8121 0.71736 0.29587 0.0
C567 C 0.79329 0.7113 0.31496 0.0
C568 C 0.78484 0.68874 0.33007 0.0
C569 C 0.79649 0.67318 0.32662 0.0
C570 C 0.81519 0.67922 0.30762 0.0
H571 H 0.79771 0.69056 0.21808 0.0
H572 H 0.78855 0.68179 0.25098 0.0
H573 H 0.80335 0.71543 0.24118 0.0
H574 H 0.81788 0.73441 0.28396 0.0
H575 H 0.78469 0.7237 0.31724 0.0
H576 H 0.22896 0.94124 0.34688 0.0
H577 H 0.19403 0.91811 0.37849 0.0
H578 H 0.19964 0.84845 0.36798 0.0
H579 H 0.23415 0.87114 0.33641 0.0
H580 H 0.14717 0.83945 0.3703 0.0
H581 H 0.21017 0.90053 0.4507 0.0
H582 H 0.206 0.91723 0.42394 0.0
H583 H 0.22364 0.89995 0.41993 0.0
C584 C 0.22252 0.9209 0.35113 0.0
C585 C 0.23442 0.90804 0.33928 0.0
C586 C 0.20267 0.90779 0.36925 0.0
C587 C 0.19448 0.88169 0.37571 0.0
C588 C 0.2057 0.86861 0.36324 0.0
H589 H 0.13923 0.77763 0.49639 0.0
H590 H 0.16183 0.81204 0.46478 0.0
C591 C 0.22551 0.88165 0.34526 0.0
C592 C 0.17521 0.86796 0.39631 0.0
H593 H 0.16981 0.86378 0.46119 0.0
C594 C 0.15176 0.84501 0.39018 0.0
C595 C 0.18147 0.8753 0.42217 0.0
C596 C 0.20672 0.89949 0.42978 0.0
C597 C 0.13504 0.82837 0.40931 0.0
C598 C 0.14189 0.83512 0.4352 0.0
C599 C 0.1646 0.85882 0.4413 0.0
C600 C 0.12812 0.81605 0.45594 0.0
C601 C 0.11115 0.80286 0.40173 0.0
C602 C 0.10175 0.80726 0.46184 0.0
C603 C 0.08866 0.78743 0.47999 0.0
C604 C 0.10182 0.77616 0.49242 0.0
C605 C 0.12847 0.78576 0.48706 0.0
C606 C 0.14147 0.80552 0.46906 0.0
H607 H 0.1105 0.79909 0.38089 0.0
H608 H 0.11074 0.7862 0.41206 0.0
H609 H 0.0932 0.80344 0.40701 0.0
H610 H 0.09121 0.81538 0.45209 0.0
H611 H 0.06812 0.78045 0.48377 0.0
H612 H 0.31197 0.1996 0.4246 0.0
H613 H 0.30761 0.16089 0.403 0.0
H614 H 0.3073 0.19465 0.33013 0.0
H615 H 0.3123 0.2339 0.35165 0.0
H616 H 0.2676 0.12594 0.36907 0.0
H617 H 0.36593 0.17576 0.32318 0.0
H618 H 0.3575 0.19031 0.34916 0.0
H619 H 0.34591 0.19034 0.31748 0.0
C620 C 0.31128 0.19899 0.40397 0.0
C621 C 0.31282 0.22005 0.38984 0.0
C622 C 0.30857 0.17673 0.39166 0.0
C623 C 0.30749 0.17504 0.36497 0.0
C624 C 0.30851 0.19574 0.35075 0.0
H625 H 0.30238 0.0569 0.26133 0.0
H626 H 0.30287 0.09513 0.2801 0.0
C627 C 0.31113 0.21805 0.36308 0.0
C628 C 0.30528 0.15152 0.35219 0.0
H629 H 0.33816 0.13101 0.31348 0.0
C630 C 0.28299 0.12702 0.35688 0.0
C631 C 0.32539 0.15301 0.3363 0.0
C632 C 0.35016 0.1787 0.33131 0.0
C633 C 0.28016 0.10395 0.34594 0.0
C634 C 0.30046 0.10537 0.33034 0.0
C635 C 0.32263 0.12993 0.32545 0.0
C636 C 0.29926 0.08163 0.31907 0.0
C637 C 0.25527 0.07835 0.35087 0.0
C638 C 0.29724 0.06135 0.33473 0.0
C639 C 0.29682 0.03935 0.32404 0.0
C640 C 0.29872 0.03734 0.29747 0.0
C641 C 0.30086 0.05776 0.28186 0.0
C642 C 0.30116 0.07967 0.29255 0.0
H643 H 0.23896 0.08156 0.35673 0.0
H644 H 0.2491 0.06562 0.33367 0.0
H645 H 0.25872 0.0678 0.36657 0.0
H646 H 0.29638 0.06269 0.35528 0.0
H647 H 0.29534 0.02412 0.33665 0.0
H648 H 0.23357 0.2477 0.45936 0.0
H649 H 0.19876 0.2555 0.4742 0.0
H650 H 0.25637 0.32732 0.5103 0.0
H651 H 0.29144 0.32 0.49485 0.0
H652 H 0.18518 0.25812 0.52217 0.0
H653 H 0.2127 0.35203 0.4736 0.0
H654 H 0.22713 0.33227 0.46527 0.0
H655 H 0.23868 0.3535 0.4927 0.0
C656 C 0.23889 0.26533 0.47019 0.0
C657 C 0.26529 0.28329 0.47583 0.0
C658 C 0.21894 0.26975 0.47869 0.0
C659 C 0.2249 0.29216 0.4931 0.0
C660 C 0.25128 0.31023 0.49867 0.0
H661 H 0.12916 0.33566 0.58317 0.0
H662 H 0.16442 0.33038 0.56469 0.0
C663 C 0.27132 0.30596 0.48993 0.0
C664 C 0.20333 0.29571 0.50339 0.0
H665 H 0.17963 0.33815 0.50567 0.0
C666 C 0.18391 0.27555 0.51837 0.0
C667 C 0.20161 0.31845 0.49845 0.0
C668 C 0.22099 0.34019 0.48142 0.0
C669 C 0.16308 0.27767 0.52879 0.0
C670 C 0.16162 0.30051 0.52414 0.0
C671 C 0.18093 0.32068 0.5092 0.0
C672 C 0.14024 0.30382 0.53496 0.0
C673 C 0.14289 0.2557 0.54504 0.0
C674 C 0.11504 0.29068 0.52423 0.0
C675 C 0.09482 0.29365 0.53473 0.0
C676 C 0.09944 0.30965 0.55627 0.0
C677 C 0.12481 0.32284 0.56687 0.0
C678 C 0.14504 0.32003 0.55623 0.0
H679 H 0.14821 0.24041 0.54895 0.0
H680 H 0.14051 0.26357 0.56349 0.0
H681 H 0.12364 0.24638 0.53515 0.0
H682 H 0.11103 0.2781 0.50777 0.0
H683 H 0.07549 0.28317 0.52625 0.0
H684 H 0.81505 0.10221 0.75746 0.0
H685 H 0.85467 0.13821 0.73848 0.0
H686 H 0.81521 0.12375 0.66598 0.0
H687 H 0.77529 0.08841 0.68493 0.0
H688 H 0.88539 0.139 0.69745 0.0
H689 H 0.84169 0.20161 0.6779 0.0
H690 H 0.82628 0.17336 0.69858 0.0
H691 H 0.82348 0.16928 0.6645 0.0
C692 C 0.81467 0.10679 0.73753 0.0
C693 C 0.79176 0.09249 0.72285 0.0
C694 C 0.83744 0.12728 0.72667 0.0
C695 C 0.83776 0.13399 0.70094 0.0
C696 C 0.81525 0.11927 0.68602 0.0
H697 H 0.94939 0.25042 0.59742 0.0
H698 H 0.91207 0.21329 0.61797 0.0
C699 C 0.79248 0.0988 0.69685 0.0
C700 C 0.86157 0.15645 0.6897 0.0
H701 H 0.88357 0.21535 0.65982 0.0
C702 C 0.88507 0.15577 0.68935 0.0
C703 C 0.86112 0.17838 0.67924 0.0
C704 C 0.83687 0.18092 0.68025 0.0
C705 C 0.90794 0.1761 0.67815 0.0
C706 C 0.90736 0.19782 0.66737 0.0
C707 C 0.88394 0.19862 0.66799 0.0
C708 C 0.93065 0.2198 0.65493 0.0
C709 C 0.93234 0.17383 0.67735 0.0
C710 C 0.95354 0.23587 0.66891 0.0
C711 C 0.975 0.25717 0.6572 0.0
C712 C 0.97391 0.26289 0.63131 0.0
C713 C 0.95097 0.24662 0.61737 0.0
C714 C 0.92957 0.22538 0.62909 0.0
H715 H 0.9279 0.15341 0.68092 0.0
H716 H 0.94231 0.18036 0.6586 0.0
H717 H 0.94616 0.1866 0.69232 0.0
H718 H 0.95464 0.23222 0.689 0.0
H719 H 0.9923 0.26929 0.66853 0.0
H720 H 0.72509 0.9887 0.83627 0.0
H721 H 0.72659 0.9517 0.85582 0.0
H722 H 0.69701 0.90733 0.78627 0.0
H723 H 0.69561 0.94414 0.76652 0.0
H724 H 0.6848 0.90047 0.86326 0.0
H725 H 0.76142 0.90038 0.80178 0.0
H726 H 0.75591 0.92788 0.80335 0.0
H727 H 0.73479 0.89962 0.78436 0.0
C728 C 0.71903 0.97113 0.82507 0.0
C729 C 0.71028 0.96945 0.79978 0.0
C730 C 0.71991 0.95 0.83629 0.0
C731 C 0.7123 0.9269 0.82238 0.0
C732 C 0.70351 0.92515 0.79718 0.0
H733 H 0.68931 0.77236 0.85259 0.0
H734 H 0.69375 0.81242 0.83385 0.0
C735 C 0.70257 0.9462 0.78598 0.0
C736 C 0.71251 0.9042 0.83446 0.0
H737 H 0.73743 0.86306 0.82843 0.0
C738 C 0.69649 0.89242 0.85581 0.0
C739 C 0.7277 0.89368 0.82464 0.0
C740 C 0.74612 0.90616 0.80241 0.0
C741 C 0.69467 0.86997 0.86718 0.0
C742 C 0.70968 0.8593 0.85721 0.0
C743 C 0.72591 0.87123 0.83601 0.0
C744 C 0.70845 0.8355 0.86831 0.0
C745 C 0.67606 0.85739 0.88927 0.0
C746 C 0.71593 0.83537 0.8937 0.0
C747 C 0.7135 0.81253 0.90445 0.0
C748 C 0.70368 0.78934 0.88999 0.0
C749 C 0.69711 0.78984 0.86425 0.0
C750 C 0.69951 0.81271 0.85353 0.0
H751 H 0.66139 0.86396 0.89046 0.0
H752 H 0.6655 0.83568 0.88765 0.0
H753 H 0.68738 0.86292 0.90735 0.0
H754 H 0.7235 0.85292 0.90528 0.0
H755 H 0.71927 0.81303 0.92414 0.0
H756 H 0.74446 0.73086 0.99901 0.0
H757 H 0.78333 0.73251 0.01784 0.0
H758 H 0.78166 0.67999 0.95949 0.0
H759 H 0.74352 0.67898 0.94012 0.0
H760 H 0.79033 0.69546 0.03823 0.0
H761 H 0.85685 0.7364 0.95544 0.0
H762 H 0.8258 0.73547 0.95695 0.0
H763 H 0.82728 0.70691 0.94712 0.0
C764 C 0.75252 0.71984 0.99007 0.0
C765 C 0.74103 0.705 0.96791 0.0
C766 C 0.77473 0.72078 0.00087 0.0
C767 C 0.78583 0.70684 0.98977 0.0
C768 C 0.77404 0.69161 0.96795 0.0
H769 H 0.88436 0.65755 0.06611 0.0
H770 H 0.84854 0.66138 0.04702 0.0
C771 C 0.75206 0.69089 0.95699 0.0
C772 C 0.80909 0.70736 0.00152 0.0
H773 H 0.86997 0.71675 0.98803 0.0
C774 C 0.80784 0.70036 0.0273 0.0
C775 C 0.83219 0.71422 0.98745 0.0
C776 C 0.83576 0.72395 0.9603 0.0
C777 C 0.82866 0.69925 0.03916 0.0
C778 C 0.85105 0.70449 0.02464 0.0
C779 C 0.85265 0.71231 -0.00092 0.0
C780 C 0.87298 0.70189 0.03554 0.0
C781 C 0.82651 0.69284 0.06725 0.0
C782 C 0.89888 0.72294 0.0344 0.0
C783 C 0.91947 0.7206 0.04491 0.0
C784 C 0.91452 0.69719 0.05687 0.0
C785 C 0.88868 0.67597 0.05745 0.0
C786 C 0.86818 0.6782 0.04666 0.0
H787 H 0.81283 0.69783 0.07704 0.0
H788 H 0.81869 0.67148 0.06963 0.0
H789 H 0.84591 0.70353 0.07682 0.0
H790 H 0.90313 0.74136 0.02576 0.0
H791 H 0.93914 0.73733 0.04433 0.0
H792 H 0.22167 0.93422 0.19087 0.0
H793 H 0.18047 0.89964 0.17269 0.0
H794 H 0.16862 0.85142 0.23878 0.0
H795 H 0.20978 0.88553 0.25691 0.0
H796 H 0.16585 0.84661 0.16141 0.0
H797 H 0.09954 0.85299 0.23277 0.0
H798 H 0.13327 0.87853 0.22885 0.0
H799 H 0.12553 0.84919 0.24614 0.0
C800 C 0.21037 0.91625 0.20152 0.0
C801 C 0.21906 0.91286 0.22549 0.0
C802 C 0.18679 0.89654 0.19113 0.0
C803 C 0.17134 0.87313 0.20454 0.0
C804 C 0.17998 0.86957 0.22834 0.0
H805 H 0.04316 0.7243 0.14957 0.0
H806 H 0.08532 0.75979 0.16512 0.0
C807 C 0.20354 0.88921 0.23873 0.0
C808 C 0.14637 0.85221 0.19352 0.0
H809 H 0.0803 0.81714 0.20393 0.0
C810 C 0.14712 0.8402 0.17063 0.0
C811 C 0.12196 0.84406 0.2055 0.0
C812 C 0.11986 0.85698 0.22956 0.0
C813 C 0.12411 0.81992 0.15961 0.0
C814 C 0.09979 0.81133 0.17194 0.0
C815 C 0.09901 0.82363 0.19462 0.0
C816 C 0.07477 0.78995 0.16145 0.0
C817 C 0.12594 0.8081 0.13469 0.0
C818 C 0.05479 0.79508 0.15446 0.0
C819 C 0.03071 0.77489 0.14562 0.0
C820 C 0.02602 0.74906 0.14376 0.0
C821 C 0.04617 0.74399 0.1506 0.0
C822 C 0.07031 0.76426 0.15941 0.0
H823 H 0.14485 0.8208 0.12481 0.0
H824 H 0.12447 0.78888 0.13847 0.0
H825 H 0.10961 0.80474 0.12175 0.0
H826 H 0.0578 0.81475 0.15598 0.0
H827 H 0.01565 0.77952 0.14058 0.0
H828 H 0.94318 0.68114 0.56187 0.0
H829 H 0.90524 0.68029 0.5422 0.0
H830 H 0.95293 0.72443 0.4782 0.0
H831 H 0.99104 0.7249 0.49753 0.0
H832 H 0.89704 0.72002 0.52972 0.0
H833 H 0.89129 0.66359 0.44278 0.0
H834 H 0.91161 0.66642 0.46974 0.0
H835 H 0.9225 0.69277 0.4471 0.0
C836 C 0.94568 0.69064 0.54357 0.0
C837 C 0.97019 0.70299 0.53124 0.0
C838 C 0.92391 0.69013 0.53234 0.0
C839 C 0.92608 0.70191 0.50853 0.0
C840 C 0.95061 0.71465 0.4963 0.0
H841 H 0.8151 0.74338 0.44641 0.0
H842 H 0.85238 0.74294 0.46599 0.0
C843 C 0.97243 0.71507 0.50748 0.0
C844 C 0.90272 0.70132 0.49697 0.0
H845 H 0.86323 0.68177 0.44425 0.0
C846 C 0.88963 0.71161 0.51105 0.0
C847 C 0.8928 0.68998 0.47277 0.0
C848 C 0.90509 0.67733 0.45729 0.0
C849 C 0.86713 0.71118 0.5015 0.0
C850 C 0.85773 0.70064 0.47695 0.0
C851 C 0.87057 0.69001 0.46299 0.0
C852 C 0.83474 0.70072 0.46533 0.0
C853 C 0.85339 0.7216 0.51802 0.0
C854 C 0.81252 0.67713 0.45793 0.0
C855 C 0.79103 0.67729 0.44665 0.0
C856 C 0.79138 0.70107 0.44246 0.0
C857 C 0.81377 0.72464 0.44985 0.0
C858 C 0.83521 0.72446 0.46104 0.0
H859 H 0.85838 0.7219 0.53851 0.0
H860 H 0.85964 0.74202 0.51222 0.0
H861 H 0.83176 0.70962 0.51584 0.0
H862 H 0.81176 0.65857 0.46098 0.0
H863 H 0.77411 0.6588 0.44132 0.0
H864 H 0.22979 0.98415 0.70652 0.0
H865 H 0.19485 0.94174 0.69125 0.0
H866 H 0.25253 0.92588 0.65806 0.0
H867 H 0.28766 0.96801 0.67392 0.0
H868 H 0.1826 0.92541 0.6431 0.0
H869 H 0.20662 0.85785 0.69444 0.0
H870 H 0.22139 0.89213 0.70258 0.0
H871 H 0.23354 0.88199 0.67597 0.0
C872 C 0.23508 0.97149 0.69626 0.0
C873 C 0.26152 0.9794 0.69155 0.0
C874 C 0.21506 0.94725 0.6875 0.0
C875 C 0.221 0.9304 0.67378 0.0
C876 C 0.24742 0.93819 0.66916 0.0
H877 H 0.12765 0.7913 0.58271 0.0
H878 H 0.16245 0.83151 0.60219 0.0
C879 C 0.26751 0.96236 0.67815 0.0
C880 C 0.19947 0.90544 0.66314 0.0
H881 H 0.17491 0.83914 0.66105 0.0
C882 C 0.18083 0.90655 0.64722 0.0
C883 C 0.19711 0.88077 0.6685 0.0
C884 C 0.21557 0.87801 0.68651 0.0
C885 C 0.16023 0.88379 0.63624 0.0
C886 C 0.15817 0.85929 0.6413 0.0
C887 C 0.17666 0.85805 0.65721 0.0
C888 C 0.13703 0.83477 0.62988 0.0
C889 C 0.14097 0.88601 0.61894 0.0
C890 C 0.11127 0.82327 0.63915 0.0
C891 C 0.09132 0.80025 0.62808 0.0
C892 C 0.09677 0.78848 0.60741 0.0
C893 C 0.12269 0.80008 0.5983 0.0
C894 C 0.14264 0.82294 0.60952 0.0
H895 H 0.14696 0.90674 0.61464 0.0
H896 H 0.13894 0.87551 0.60072 0.0
H897 H 0.1214 0.8766 0.6282 0.0
H898 H 0.10663 0.83215 0.65492 0.0
H899 H 0.07155 0.79186 0.63542 0.0
H900 H 0.30332 0.24703 0.90128 0.0
H901 H 0.30456 0.21019 0.88126 0.0
H902 H 0.29479 0.23611 0.80727 0.0
H903 H 0.29363 0.27317 0.8271 0.0
H904 H 0.26612 0.16956 0.84923 0.0
H905 H 0.36153 0.22978 0.79987 0.0
H906 H 0.3507 0.24246 0.82563 0.0
H907 H 0.33727 0.23921 0.79419 0.0
C908 C 0.30143 0.24496 0.88074 0.0
C909 C 0.29854 0.26321 0.86579 0.0
C910 C 0.30209 0.22383 0.86934 0.0
C911 C 0.3001 0.2206 0.84278 0.0
C912 C 0.29677 0.23848 0.82779 0.0
H913 H 0.30948 0.11088 0.73911 0.0
H914 H 0.30512 0.146 0.75895 0.0
C915 C 0.29599 0.25959 0.83918 0.0
C916 C 0.30155 0.19851 0.83085 0.0
H917 H 0.33878 0.18433 0.79117 0.0
C918 C 0.28201 0.17273 0.83656 0.0
C919 C 0.32231 0.20275 0.81434 0.0
C920 C 0.3443 0.23001 0.80823 0.0
C921 C 0.28241 0.15105 0.82584 0.0
C922 C 0.30327 0.15527 0.80944 0.0
C923 C 0.32281 0.18109 0.80375 0.0
C924 C 0.30513 0.13328 0.79767 0.0
C925 C 0.26015 0.12385 0.8317 0.0
C926 C 0.30671 0.11443 0.81282 0.0
C927 C 0.3092 0.09423 0.80148 0.0
C928 C 0.31053 0.09273 0.77479 0.0
C929 C 0.30893 0.11165 0.75972 0.0
C930 C 0.3063 0.1317 0.77104 0.0
H931 H 0.24249 0.12423 0.83855 0.0
H932 H 0.2547 0.11101 0.81461 0.0
H933 H 0.26635 0.11505 0.84695 0.0
H934 H 0.30647 0.11558 0.83343 0.0
H935 H 0.31071 0.08018 0.8136 0.0
H936 H 0.0192 0.28534 0.99351 0.0
H937 H 0.05601 0.28342 0.97407 0.0
H938 H 0.09992 0.31185 0.04402 0.0
H939 H 0.06325 0.31357 0.06368 0.0
H940 H 0.10699 0.32402 0.96657 0.0
H941 H 0.10644 0.24754 0.02858 0.0
H942 H 0.07928 0.25359 0.02724 0.0
H943 H 0.1078 0.2744 0.04608 0.0
C944 C 0.03662 0.29105 0.00482 0.0
C945 C 0.0382 0.29954 0.03021 0.0
C946 C 0.05764 0.28993 0.99367 0.0
C947 C 0.08055 0.29707 0.00772 0.0
C948 C 0.08222 0.30566 0.03299 0.0
H949 H 0.23539 0.32132 0.97956 0.0
H950 H 0.19491 0.31664 0.9973 0.0
C951 C 0.06125 0.30679 0.04415 0.0
C952 C 0.10316 0.29658 0.99572 0.0
H953 H 0.14429 0.27174 0.00246 0.0
C954 C 0.11499 0.31238 0.97424 0.0
C955 C 0.11359 0.2814 0.00578 0.0
C956 C 0.10099 0.26307 0.02804 0.0
C957 C 0.13747 0.31407 0.96305 0.0
C958 C 0.14815 0.29924 0.97338 0.0
C959 C 0.13611 0.28314 0.99462 0.0
C960 C 0.17224 0.30071 0.9628 0.0
C961 C 0.15011 0.33239 0.94077 0.0
C962 C 0.17277 0.2927 0.93769 0.0
C963 C 0.19588 0.29521 0.92751 0.0
C964 C 0.21894 0.30571 0.94225 0.0
C965 C 0.21805 0.31295 0.96768 0.0
C966 C 0.19493 0.31042 0.97784 0.0
H967 H 0.14312 0.34669 0.93889 0.0
H968 H 0.17179 0.34338 0.94276 0.0
H969 H 0.14515 0.32077 0.92289 0.0
H970 H 0.15532 0.2846 0.92593 0.0
H971 H 0.19566 0.28893 0.90806 0.0
H972 H 0.75661 0.06553 0.23097 0.0
H973 H 0.79395 0.10251 0.21027 0.0
H974 H 0.77828 0.05721 0.14122 0.0
H975 H 0.74062 0.02014 0.16166 0.0
H976 H 0.83875 0.10589 0.18883 0.0
H977 H 0.7812 0.1243 0.1161 0.0
H978 H 0.76612 0.10353 0.14347 0.0
H979 H 0.7757 0.09143 0.11646 0.0
C980 C 0.76103 0.06338 0.21136 0.0
C981 C 0.74544 0.0399 0.19792 0.0
C982 C 0.78243 0.08456 0.19957 0.0
C983 C 0.78867 0.08278 0.17409 0.0
C984 C 0.77349 0.05922 0.16073 0.0
H985 H 0.90938 0.1976 0.07322 0.0
H986 H 0.87438 0.15729 0.09217 0.0
C987 C 0.75203 0.038 0.1725 0.0
C988 C 0.81117 0.10561 0.16168 0.0
H989 H 0.82737 0.14983 0.1132 0.0
C990 C 0.83628 0.11551 0.17229 0.0
C991 C 0.8079 0.11809 0.14007 0.0
C992 C 0.78127 0.109 0.12843 0.0
C993 C 0.85822 0.13749 0.16182 0.0
C994 C 0.8549 0.15016 0.14042 0.0
C995 C 0.82987 0.14006 0.12959 0.0
C996 C 0.87697 0.17436 0.12936 0.0
C997 C 0.88483 0.14678 0.17359 0.0
C998 C 0.89001 0.19738 0.14395 0.0
C999 C 0.90994 0.22053 0.13313 0.0
C1000 C 0.91713 0.2212 0.10741 0.0
C1001 C 0.90416 0.19796 0.09295 0.0
C1002 C 0.88422 0.17483 0.10378 0.0
H1003 H 0.88523 0.13112 0.18505 0.0
H1004 H 0.90027 0.15348 0.15869 0.0
H1005 H 0.88966 0.16356 0.18647 0.0
H1006 H 0.88435 0.19761 0.16357 0.0
H1007 H 0.91912 0.23806 0.14475 0.0
H1008 H 0.72085 0.91237 0.24385 0.0
H1009 H 0.72287 0.87523 0.2623 0.0
H1010 H 0.68774 0.88274 0.33161 0.0
H1011 H 0.68505 0.91942 0.31313 0.0
H1012 H 0.74698 0.87133 0.30855 0.0
H1013 H 0.6388 0.80594 0.30868 0.0
H1014 H 0.65492 0.83595 0.29046 0.0
H1015 H 0.65028 0.837 0.32423 0.0
C1016 C 0.71351 0.9061 0.263 0.0
C1017 C 0.70256 0.91875 0.2769 0.0
C1018 C 0.71482 0.88498 0.27356 0.0
C1019 C 0.70505 0.87598 0.29814 0.0
C1020 C 0.695 0.88913 0.31244 0.0
H1021 H 0.68294 0.74653 0.39309 0.0
H1022 H 0.68462 0.78533 0.37444 0.0
C1023 C 0.69375 0.9103 0.30193 0.0
C1024 C 0.70486 0.85251 0.30863 0.0
H1025 H 0.66385 0.78994 0.32907 0.0
C1026 C 0.72884 0.85347 0.31297 0.0
C1027 C 0.68114 0.82926 0.31428 0.0
C1028 C 0.65478 0.82675 0.309 0.0
C1029 C 0.72974 0.83197 0.32345 0.0
C1030 C 0.706 0.80874 0.32923 0.0
C1031 C 0.68203 0.80776 0.32468 0.0
C1032 C 0.70548 0.78534 0.34045 0.0
C1033 C 0.75611 0.83457 0.32887 0.0
C1034 C 0.71638 0.77223 0.3274 0.0
C1035 C 0.71554 0.75004 0.33806 0.0
C1036 C 0.70355 0.7404 0.3619 0.0
C1037 C 0.69236 0.75341 0.37474 0.0
C1038 C 0.69329 0.77561 0.3641 0.0
H1039 H 0.77196 0.85543 0.32958 0.0
H1040 H 0.75586 0.82507 0.34725 0.0
H1041 H 0.76093 0.82476 0.31345 0.0
H1042 H 0.72534 0.77902 0.30885 0.0
H1043 H 0.7242 0.7404 0.32758 0.0
H1044 H 0.44926 0.38699 0.43215 0.0
H1045 H 0.48766 0.43036 0.42721 0.0
H1046 H 0.43777 0.46369 0.41649 0.0
H1047 H 0.39887 0.41999 0.4209 0.0
H1048 H 0.50131 0.46584 0.38481 0.0
H1049 H 0.48852 0.50756 0.47545 0.0
H1050 H 0.47191 0.4727 0.46941 0.0
H1051 H 0.46085 0.4927 0.45417 0.0
C1052 C 0.44628 0.40336 0.42826 0.0
C1053 C 0.42084 0.39985 0.42673 0.0
C1054 C 0.46834 0.42823 0.42568 0.0
C1055 C 0.46558 0.45026 0.42177 0.0
C1056 C 0.44031 0.44696 0.41992 0.0
H1057 H 0.59009 0.61476 0.40908 0.0
H1058 H 0.54733 0.57465 0.41286 0.0
C1059 C 0.41812 0.42198 0.42242 0.0
C1060 C 0.48937 0.47651 0.41948 0.0
H1061 H 0.52541 0.53507 0.45034 0.0
C1062 C 0.50652 0.48104 0.39906 0.0
C1063 C 0.49604 0.49632 0.43804 0.0
C1064 C 0.47853 0.49219 0.46065 0.0
C1065 C 0.53032 0.50475 0.39681 0.0
C1066 C 0.53746 0.52423 0.41584 0.0
C1067 C 0.51997 0.52003 0.43589 0.0
C1068 C 0.56334 0.54874 0.41548 0.0
C1069 C 0.54755 0.50874 0.37398 0.0
C1070 C 0.58653 0.54755 0.41658 0.0
C1071 C 0.61093 0.57035 0.41426 0.0
C1072 C 0.61272 0.59492 0.41102 0.0
C1073 C 0.58944 0.59615 0.41118 0.0
C1074 C 0.56499 0.57328 0.41346 0.0
H1075 H 0.5362 0.49566 0.3579 0.0
H1076 H 0.5573 0.52938 0.36727 0.0
H1077 H 0.56299 0.50408 0.3794 0.0
H1078 H 0.58573 0.52887 0.41865 0.0
H1079 H 0.62833 0.56851 0.41395 0.0
H1080 H 0.02964 0.41918 0.55196 0.0
H1081 H 0.02654 0.45905 0.54893 0.0
H1082 H 0.99081 0.44367 0.62341 0.0
H1083 H 0.99472 0.40449 0.62708 0.0
H1084 H 0.98442 0.46907 0.55247 0.0
H1085 H 0.05625 0.51634 0.63119 0.0
H1086 H 0.05098 0.48673 0.61569 0.0
H1087 H 0.02817 0.48536 0.63928 0.0
C1088 C 0.02103 0.42422 0.56766 0.0
C1089 C 0.01262 0.40867 0.58983 0.0
C1090 C 0.01913 0.44692 0.56583 0.0
C1091 C 0.00888 0.45454 0.58615 0.0
C1092 C 0.99918 0.43836 0.6077 0.0
H1093 H 0.97843 0.58611 0.58095 0.0
H1094 H 0.97319 0.5423 0.58566 0.0
C1095 C 1.00113 0.41574 0.60959 0.0
C1096 C 0.00962 0.48007 0.58536 0.0
H1097 H 0.03679 0.53986 0.61463 0.0
C1098 C 0.99577 0.48454 0.56609 0.0
C1099 C 0.02474 0.50032 0.60299 0.0
C1100 C 0.04109 0.49714 0.62333 0.0
C1101 C 0.99662 0.50875 0.56399 0.0
C1102 C 0.01142 0.52883 0.58186 0.0
C1103 C 0.02522 0.52432 0.60113 0.0
C1104 C 0.0143 0.55529 0.57995 0.0
C1105 C 0.98235 0.51291 0.5422 0.0
C1106 C 0.03922 0.57718 0.57598 0.0
C1107 C 0.04229 0.60215 0.57341 0.0
C1108 C 0.02049 0.60583 0.57489 0.0
C1109 C 0.99557 0.58391 0.57946 0.0
C1110 C 0.99253 0.55887 0.58207 0.0
H1111 H 0.97678 0.49778 0.5271 0.0
H1112 H 0.96414 0.5118 0.54951 0.0
H1113 H 0.99463 0.53256 0.5335 0.0
H1114 H 0.05629 0.57485 0.5743 0.0
H1115 H 0.06169 0.61844 0.56942 0.0
H1116 H 0.58957 0.97468 0.74836 0.0
H1117 H 0.54525 0.96859 0.744 0.0
H1118 H 0.57518 0.04975 0.76358 0.0
H1119 H 0.61922 0.05599 0.76813 0.0
H1120 H 0.52561 0.00442 0.79204 0.0
H1121 H 0.52306 0.008 0.6858 0.0
H1122 H 0.53608 0.98958 0.70128 0.0
H1123 H 0.55368 0.02465 0.70308 0.0
C1124 C 0.58667 0.99121 0.75166 0.0
C1125 C 0.60797 0.01588 0.75833 0.0
C1126 C 0.56141 0.98771 0.74913 0.0
C1127 C 0.55707 0.00875 0.75345 0.0
C1128 C 0.57822 0.03332 0.7601 0.0
H1129 H 0.44445 0.05541 0.72967 0.0
H1130 H 0.48216 0.04912 0.73427 0.0
C1131 C 0.60341 0.03689 0.76244 0.0
C1132 C 0.53053 0.00546 0.75131 0.0
H1133 H 0.48781 0.00678 0.70816 0.0
C1134 C 0.51705 0.00447 0.77373 0.0
C1135 C 0.51968 0.00574 0.72738 0.0
C1136 C 0.53374 0.0071 0.70288 0.0
C1137 C 0.49319 0.00446 0.77283 0.0
C1138 C 0.4827 0.00551 0.7489 0.0
C1139 C 0.49588 0.00582 0.72646 0.0
C1140 C 0.45946 0.00886 0.74683 0.0
C1141 C 0.47992 0.00455 0.79741 0.0
C1142 C 0.43415 0.98825 0.75246 0.0
C1143 C 0.41242 0.9918 0.74991 0.0
C1144 C 0.41574 0.01609 0.7419 0.0
C1145 C 0.44122 0.03664 0.73642 0.0
C1146 C 0.46279 0.03302 0.73879 0.0
H1147 H 0.49188 0.00616 0.81443 0.0
H1148 H 0.476 0.02114 0.79753 0.0
H1149 H 0.46076 0.98612 0.7989 0.0
H1150 H 0.4312 0.96939 0.75855 0.0
H1151 H 0.39306 0.97561 0.75424 0.0
H1152 H 0.61644 0.58708 0.9195 0.0
H1153 H 0.57839 0.54312 0.91346 0.0
H1154 H 0.52668 0.57465 0.92214 0.0
H1155 H 0.56431 0.61834 0.92854 0.0
H1156 H 0.53626 0.51461 0.94767 0.0
H1157 H 0.50133 0.53228 0.85564 0.0
H1158 H 0.53389 0.55387 0.86782 0.0
H1159 H 0.5064 0.55604 0.87975 0.0
C1160 C 0.59697 0.58466 0.92005 0.0
C1161 C 0.5935 0.60635 0.92424 0.0
C1162 C 0.57527 0.55955 0.91654 0.0
C1163 C 0.54975 0.5557 0.91699 0.0
C1164 C 0.54623 0.57726 0.92113 0.0
H1165 H 0.39865 0.41944 0.94468 0.0
H1166 H 0.44192 0.45878 0.94822 0.0
C1167 C 0.56783 0.6023 0.92467 0.0
C1168 C 0.52661 0.52908 0.91407 0.0
H1169 H 0.47129 0.49373 0.87843 0.0
C1170 C 0.52217 0.5099 0.93239 0.0
C1171 C 0.50842 0.52292 0.89397 0.0
C1172 C 0.51282 0.54226 0.87302 0.0
C1173 C 0.4995 0.48499 0.93164 0.0
C1174 C 0.48068 0.47928 0.91224 0.0
C1175 C 0.48561 0.49818 0.89344 0.0
C1176 C 0.45544 0.4541 0.91124 0.0
C1177 C 0.49594 0.465 0.95158 0.0
C1178 C 0.44858 0.43844 0.88925 0.0
C1179 C 0.42377 0.41615 0.88704 0.0
C1180 C 0.4052 0.40905 0.90676 0.0
C1181 C 0.41241 0.42438 0.92909 0.0
C1182 C 0.43726 0.44674 0.93126 0.0
H1183 H 0.51497 0.46948 0.9602 0.0
H1184 H 0.48322 0.46525 0.96707 0.0
H1185 H 0.48642 0.44494 0.94335 0.0
H1186 H 0.46223 0.44387 0.87348 0.0
H1187 H 0.41879 0.40516 0.86936 0.0
H1188 H 0.98102 0.39923 0.10756 0.0
H1189 H 0.98527 0.44261 0.11195 0.0
H1190 H 0.02028 0.46389 0.03724 0.0
H1191 H 0.01564 0.42053 0.03238 0.0
H1192 H 0.04536 0.50419 0.07663 0.0
H1193 H 0.93746 0.46253 0.06971 0.0
H1194 H 0.94827 0.44799 0.09344 0.0
H1195 H 0.95336 0.44442 0.06024 0.0
C1196 C 0.98969 0.41314 0.09208 0.0
C1197 C 0.99786 0.40626 0.06957 0.0
C1198 C 0.99215 0.43793 0.09465 0.0
C1199 C 1.0028 0.4563 0.07479 0.0
C1200 C 0.01202 0.44997 0.05279 0.0
H1201 H 0.9814 0.59032 0.05029 0.0
H1202 H 0.98583 0.55144 0.04476 0.0
C1203 C 0.00949 0.42519 0.05014 0.0
C1204 C 1.00319 0.48162 0.07636 0.0
H1205 H 0.96305 0.50792 0.07818 0.0
C1206 C 0.02741 0.50506 0.07698 0.0
C1207 C 0.97971 0.48266 0.07641 0.0
C1208 C 0.95318 0.45812 0.07471 0.0
C1209 C 0.02873 0.52956 0.07814 0.0
C1210 C 1.00523 0.53054 0.07879 0.0
C1211 C 0.98104 0.5071 0.07775 0.0
C1212 C 1.0051 0.5556 0.08102 0.0
C1213 C 0.05523 0.5542 0.07833 0.0
C1214 C 0.0147 0.57097 0.10311 0.0
C1215 C 0.01203 0.59308 0.10642 0.0
C1216 C 0.99962 0.60026 0.0877 0.0
C1217 C 0.99081 0.58525 0.06519 0.0
C1218 C 0.99341 0.56308 0.06195 0.0
H1219 H 0.07094 0.55048 0.07149 0.0
H1220 H 0.05511 0.56961 0.06622 0.0
H1221 H 0.06008 0.56183 0.09813 0.0
H1222 H 0.0233 0.56526 0.11829 0.0
H1223 H 0.01855 0.60377 0.12422 0.0
H1224 H 0.42135 0.01887 0.29224 0.0
H1225 H 0.46484 0.02409 0.28649 0.0
H1226 H 0.441 0.98463 0.21386 0.0
H1227 H 0.39745 0.97968 0.21922 0.0
H1228 H 0.46251 0.96329 0.24798 0.0
H1229 H 0.52656 0.07116 0.2388 0.0
H1230 H 0.50459 0.06073 0.2656 0.0
H1231 H 0.49153 0.05474 0.23377 0.0
C1232 C 0.42552 0.01198 0.27466 0.0
C1233 C 0.40585 0.99889 0.25615 0.0
C1234 C 0.45042 0.01493 0.27146 0.0
C1235 C 0.45621 0.00494 0.24967 0.0
C1236 C 0.43692 0.99253 0.23081 0.0
H1237 H 0.60239 0.01678 0.20164 0.0
H1238 H 0.5634 0.02097 0.20628 0.0
C1239 C 0.41202 0.98963 0.23395 0.0
C1240 C 0.48156 0.00545 0.2476 0.0
H1241 H 0.54792 0.04632 0.24484 0.0
C1242 C 0.48119 0.98144 0.2472 0.0
C1243 C 0.50585 0.02915 0.24649 0.0
C1244 C 0.50729 0.05544 0.24596 0.0
C1245 C 0.50449 0.98048 0.24604 0.0
C1246 C 0.52882 0.00417 0.24557 0.0
C1247 C 0.52923 0.0282 0.24555 0.0
C1248 C 0.55395 0.00419 0.24413 0.0
C1249 C 0.5029 0.95411 0.24499 0.0
C1250 C 0.56199 0.99411 0.26423 0.0
C1251 C 0.58447 0.9919 0.26177 0.0
C1252 C 0.59932 0.99977 0.23915 0.0
C1253 C 0.59173 0.01089 0.21949 0.0
C1254 C 0.56932 0.01315 0.22201 0.0
H1255 H 0.48283 0.93808 0.24019 0.0
H1256 H 0.51684 0.9542 0.23065 0.0
H1257 H 0.5083 0.94973 0.26389 0.0
H1258 H 0.55057 0.98744 0.28162 0.0
H1259 H 0.58995 0.98361 0.27741 0.0
H1260 H 0.32731 0.38541 0.75997 0.0
H1261 H 0.33023 0.37764 0.71465 0.0
H1262 H 0.32408 0.30325 0.73246 0.0
H1263 H 0.32073 0.31082 0.77797 0.0
H1264 H 0.3676 0.37239 0.69132 0.0
H1265 H 0.27138 0.28285 0.67517 0.0
H1266 H 0.27859 0.3026 0.70361 0.0
H1267 H 0.28986 0.2794 0.70059 0.0
C1268 C 0.32655 0.36738 0.75424 0.0
C1269 C 0.32394 0.34877 0.77252 0.0
C1270 C 0.32808 0.3629 0.72832 0.0
C1271 C 0.32708 0.33975 0.7201 0.0
C1272 C 0.32426 0.32098 0.73829 0.0
H1273 H 0.38981 0.32341 0.57639 0.0
H1274 H 0.38089 0.32763 0.6211 0.0
C1275 C 0.32247 0.32536 0.76427 0.0
C1276 C 0.33067 0.33618 0.69266 0.0
H1277 H 0.30295 0.29508 0.64179 0.0
C1278 C 0.35338 0.35554 0.68048 0.0
C1279 C 0.31195 0.31438 0.67842 0.0
C1280 C 0.28645 0.29375 0.69002 0.0
C1281 C 0.3581 0.35354 0.65459 0.0
C1282 C 0.33996 0.33119 0.64062 0.0
C1283 C 0.31699 0.31204 0.65262 0.0
C1284 C 0.34464 0.3274 0.61356 0.0
C1285 C 0.3823 0.37565 0.64237 0.0
C1286 C 0.32673 0.32486 0.59454 0.0
C1287 C 0.33171 0.32225 0.56892 0.0
C1288 C 0.35472 0.32216 0.56191 0.0
C1289 C 0.37225 0.32404 0.5811 0.0
C1290 C 0.36717 0.32645 0.60667 0.0
H1291 H 0.38974 0.39423 0.65326 0.0
H1292 H 0.39805 0.37052 0.64202 0.0
H1293 H 0.37833 0.37907 0.62245 0.0
H1294 H 0.30914 0.32542 0.59947 0.0
H1295 H 0.31789 0.3209 0.55454 0.0
H1296 H 0.0243 0.37987 0.73123 0.0
H1297 H 0.0155 0.37153 0.77678 0.0
H1298 H 0.02382 0.30306 0.77066 0.0
H1299 H 0.03323 0.31152 0.72506 0.0
H1300 H 0.97791 0.29634 0.79871 0.0
H1301 H 0.07134 0.38162 0.83174 0.0
H1302 H 0.05397 0.3893 0.80823 0.0
H1303 H 0.06696 0.36844 0.79982 0.0
C1304 C 0.02453 0.36317 0.73954 0.0
C1305 C 0.02967 0.34649 0.72444 0.0
C1306 C 0.01944 0.35842 0.76558 0.0
C1307 C 0.0194 0.33692 0.77707 0.0
C1308 C 0.02389 0.31983 0.76208 0.0
H1309 H 0.01374 0.31765 0.94333 0.0
H1310 H 0.02533 0.31838 0.89823 0.0
C1311 C 0.02909 0.32462 0.73599 0.0
C1312 C 0.01433 0.33227 0.80474 0.0
H1313 H 0.03768 0.36037 0.86293 0.0
C1314 C 0.99108 0.31014 0.81281 0.0
C1315 C 0.03175 0.35017 0.82302 0.0
C1316 C 0.05754 0.37362 0.81537 0.0
C1317 C 0.98422 0.30607 0.83874 0.0
C1318 C 1.00098 0.32473 0.85688 0.0
C1319 C 0.02479 0.34622 0.84891 0.0
C1320 C 0.99348 0.32314 0.88402 0.0
C1321 C 0.95898 0.28202 0.84651 0.0
C1322 C 0.97192 0.32582 0.89086 0.0
C1323 C 0.96535 0.32551 0.91648 0.0
C1324 C 0.98023 0.32252 0.93579 0.0
C1325 C 1.00178 0.31973 0.92887 0.0
C1326 C 0.00846 0.32022 0.90318 0.0
H1327 H 0.952 0.26647 0.83167 0.0
H1328 H 0.96142 0.27393 0.86477 0.0
H1329 H 0.94359 0.28742 0.84928 0.0
H1330 H 0.96036 0.32848 0.87635 0.0
H1331 H 0.94848 0.3274 0.92115 0.0
H1332 H 0.72308 0.02886 0.89376 0.0
H1333 H 0.72104 0.01877 0.93929 0.0
H1334 H 0.64599 0.01457 0.94465 0.0
H1335 H 0.64764 0.02424 0.89917 0.0
H1336 H 0.68444 0.0477 0.98177 0.0
H1337 H 0.67302 0.94808 0.97642 0.0
H1338 H 0.6994 0.97349 0.95823 0.0
H1339 H 0.66608 0.96297 0.94966 0.0
C1340 C 0.70592 0.02533 0.90449 0.0
C1341 C 0.68552 0.0274 0.89278 0.0
C1342 C 0.70483 0.01962 0.93052 0.0
C1343 C 0.68329 0.01578 0.94524 0.0
C1344 C 0.66279 0.01752 0.93358 0.0
H1345 H 0.62776 0.98602 0.09936 0.0
H1346 H 0.63655 0.99704 0.05422 0.0
C1347 C 0.66384 0.02317 0.90761 0.0
C1348 C 0.68242 0.01101 0.97303 0.0
H1349 H 0.67598 0.9658 0.01746 0.0
C1350 C 0.68268 0.02984 0.98961 0.0
C1351 C 0.68037 0.9878 0.98312 0.0
C1352 C 0.67951 0.96677 0.96602 0.0
C1353 C 0.68064 0.02596 0.0161 0.0
C1354 C 0.67771 1.00237 0.02618 0.0
C1355 C 0.67818 0.98384 0.00964 0.0
C1356 C 0.67275 0.99599 0.05367 0.0
C1357 C 0.68173 0.04722 0.03304 0.0
C1358 C 0.68988 0.99113 0.06821 0.0
C1359 C 0.68473 0.98452 0.09403 0.0
C1360 C 0.66223 0.98243 0.10569 0.0
C1361 C 0.64513 0.98726 0.09097 0.0
C1362 C 0.65029 0.99386 0.06522 0.0
H1363 H 0.69179 0.06664 0.02345 0.0
H1364 H 0.66145 0.04256 0.03763 0.0
H1365 H 0.69205 0.04864 0.05122 0.0
H1366 H 0.7072 0.99244 0.05957 0.0
H1367 H 0.69808 0.98052 0.10469 0.0
H1368 H 0.69889 0.69013 0.05382 0.0
H1369 H 0.70842 0.68688 0.09873 0.0
H1370 H 0.63243 0.67483 0.11995 0.0
H1371 H 0.62308 0.67882 0.07538 0.0
H1372 H 0.67343 0.71125 0.15088 0.0
H1373 H 0.67577 0.61846 0.14046 0.0
H1374 H 0.69723 0.64464 0.11952 0.0
H1375 H 0.66234 0.63016 0.11623 0.0
C1376 C 0.68429 0.68698 0.06805 0.0
C1377 C 0.66012 0.68453 0.06092 0.0
C1378 C 0.68967 0.68488 0.09368 0.0
C1379 C 0.67097 0.68025 0.1126 0.0
C1380 C 0.64706 0.67824 0.10561 0.0
H1381 H 0.65326 0.62213 0.266 0.0
H1382 H 0.64982 0.62977 0.2207 0.0
C1383 C 0.64166 0.6803 0.08006 0.0
C1384 C 0.67612 0.67748 0.13978 0.0
H1385 H 0.68548 0.63819 0.18122 0.0
C1386 C 0.6762 0.69536 0.15754 0.0
C1387 C 0.67945 0.65656 0.14837 0.0
C1388 C 0.6785 0.63619 0.13024 0.0
C1389 C 0.67936 0.69281 0.18375 0.0
C1390 C 0.68287 0.67201 0.19232 0.0
C1391 C 0.68295 0.65421 0.17454 0.0
C1392 C 0.68531 0.66764 0.21979 0.0
C1393 C 0.67811 0.71191 0.2021 0.0
C1394 C 0.70652 0.68631 0.23425 0.0
C1395 C 0.70856 0.68198 0.26017 0.0
C1396 C 0.68949 0.65878 0.27206 0.0
C1397 C 0.66839 0.64005 0.25741 0.0
C1398 C 0.66636 0.64443 0.23154 0.0
H1399 H 0.66955 0.72301 0.1931 0.0
H1400 H 0.66627 0.70155 0.21917 0.0
H1401 H 0.69824 0.72623 0.20859 0.0
H1402 H 0.72164 0.70413 0.22542 0.0
H1403 H 0.72532 0.69657 0.27075 0.0
H1404 H 0.97823 0.69289 0.22771 0.0
H1405 H 0.9902 0.70152 0.27283 0.0
H1406 H 0.99829 0.63275 0.2762 0.0
H1407 H 0.98728 0.62451 0.231 0.0
H1408 H 0.96493 0.66965 0.31449 0.0
H1409 H 0.06697 0.689 0.30726 0.0
H1410 H 0.04838 0.68871 0.27975 0.0
H1411 H 0.0435 0.65841 0.29302 0.0
C1412 C 0.98301 0.67986 0.23791 0.0
C1413 C 0.98193 0.65807 0.22566 0.0
C1414 C 0.98964 0.68472 0.26375 0.0
C1415 C 0.99551 0.668 0.27775 0.0
C1416 C 0.99434 0.6462 0.26563 0.0
H1417 H 0.02661 0.64392 0.43185 0.0
H1418 H 0.01625 0.64183 0.38649 0.0
C1419 C 0.98773 0.64134 0.23984 0.0
C1420 C 1.00201 0.67273 0.30525 0.0
H1421 H 0.04835 0.68085 0.34909 0.0
C1422 C 0.98329 0.67242 0.32207 0.0
C1423 C 0.02602 0.67643 0.31503 0.0
C1424 C 0.04748 0.67843 0.2978 0.0
C1425 C 0.98752 0.67464 0.34855 0.0
C1426 C 0.01117 0.67749 0.35833 0.0
C1427 C 0.03015 0.67847 0.34148 0.0
C1428 C 0.01634 0.67859 0.38605 0.0
C1429 C 0.96635 0.67301 0.36595 0.0
C1430 C 0.01979 0.69997 0.4008 0.0
C1431 C 0.0259 0.70132 0.42676 0.0
C1432 C 0.02878 0.68134 0.43835 0.0
C1433 C 0.02493 0.65981 0.42349 0.0
C1434 C 0.01888 0.65851 0.39759 0.0
H1435 H 0.94745 0.66601 0.35576 0.0
H1436 H 0.96313 0.65964 0.38221 0.0
H1437 H 0.97257 0.69276 0.37387 0.0
H1438 H 0.01832 0.71587 0.39212 0.0
H1439 H 0.02912 0.71838 0.4375 0.0
H1440 H 0.38693 0.06052 0.5917 0.0
H1441 H 0.37694 0.04938 0.54664 0.0
H1442 H 0.30185 0.98345 0.56699 0.0
H1443 H 0.31188 0.99432 0.61233 0.0
H1444 H 0.33278 0.97251 0.53142 0.0
H1445 H 0.32291 0.05773 0.50213 0.0
H1446 H 0.35206 0.06612 0.52013 0.0
H1447 H 0.32048 0.04744 0.53498 0.0
C1448 C 0.36835 0.04357 0.58664 0.0
C1449 C 0.35021 0.02824 0.60558 0.0
C1450 C 0.36255 0.03742 0.56087 0.0
C1451 C 0.33853 0.01584 0.55353 0.0
C1452 C 0.3204 1.00035 0.57232 0.0
H1453 H 0.2881 0.97804 0.39406 0.0
H1454 H 0.28888 0.98697 0.43979 0.0
C1455 C 0.32611 0.00662 0.59815 0.0
C1456 C 0.33302 0.00889 0.52622 0.0
H1457 H 0.32738 0.03271 0.46863 0.0
C1458 C 0.33128 0.9855 0.51771 0.0
C1459 C 0.33083 0.02577 0.50847 0.0
C1460 C 0.33141 0.05057 0.51684 0.0
C1461 C 0.32853 0.97907 0.49168 0.0
C1462 C 0.32771 0.99661 0.4738 0.0
C1463 C 0.32828 0.01944 0.48241 0.0
C1464 C 0.32746 0.99209 0.44602 0.0
C1465 C 0.32681 0.95369 0.48346 0.0
C1466 C 0.34916 0.99265 0.43437 0.0
C1467 C 0.34891 0.98782 0.40828 0.0
C1468 C 0.32694 0.98234 0.39327 0.0
C1469 C 0.30544 0.98243 0.40494 0.0
C1470 C 0.30576 0.98736 0.4311 0.0
H1471 H 0.32119 0.93961 0.49955 0.0
H1472 H 0.31235 0.94434 0.46779 0.0
H1473 H 0.34625 0.95783 0.4763 0.0
H1474 H 0.36631 0.9968 0.44551 0.0
H1475 H 0.36598 0.98844 0.39986 0.0
loop_
_geom_bond_atom_site_label_1
_geom_bond_atom_site_label_2
_geom_bond_distance
_geom_bond_site_symmetry_2
_ccdc_geom_bond_type
C0 C1 1.351 . S
C0 N3 1.368 . S
C0 H5 0.931 . S
C1 C0 1.351 . S
C1 N2 1.373 . S
C1 H29 0.930 . S
N2 C1 1.373 . S
N2 C4 1.340 . S
N3 C0 1.368 . S
N3 C4 1.321 . S
N3 Co6 2.135 . S
C4 N2 1.340 . S
C4 N3 1.321 . S
C4 H28 0.930 . S
H5 C0 0.931 . S
Co6 N3 2.135 . S
Co6 N9 2.121 . S
Co6 O14 2.055 . S
Co6 O17 2.039 . S
Co6 N20 2.140 . S
C7 O8 1.227 . S
C7 O17 1.265 . S
O8 C7 1.227 . S
N9 Co6 2.121 . S
N9 C11 1.375 . S
N9 C12 1.313 . S
C10 C11 1.338 . S
C10 N13 1.377 . S
C10 H30 0.930 . S
C11 N9 1.375 . S
C11 C10 1.338 . S
C11 H15 0.931 . S
C12 N9 1.313 . S
C12 N13 1.344 . S
C12 H16 0.930 . S
N13 C10 1.377 . S
N13 C12 1.344 . S
O14 Co6 2.055 . S
O14 C18 1.253 . S
H15 C11 0.931 . S
H16 C12 0.930 . S
O17 Co6 2.039 . S
O17 C7 1.265 . S
C18 O14 1.253 . S
C18 O19 1.227 . S
O19 C18 1.227 . S
N20 Co6 2.140 . S
N20 C23 1.346 . S
N20 C24 1.345 . S
C21 C22 1.387 . S
C21 C25 1.391 . S
C22 C21 1.387 . S
C22 C23 1.369 . S
C22 H31 0.929 . S
C23 N20 1.346 . S
C23 C22 1.369 . S
C23 H26 0.928 . S
C24 N20 1.345 . S
C24 C25 1.371 . S
C24 H27 0.931 . S
C25 C21 1.391 . S
C25 C24 1.371 . S
C25 H32 0.930 . S
H26 C23 0.928 . S
H27 C24 0.931 . S
H28 C4 0.930 . S
H29 C1 0.930 . S
H30 C10 0.930 . S
H31 C22 0.929 . S
H32 C25 0.930 . S
C33 C34 1.351 . S
C33 N36 1.368 . S
C33 H38 0.931 . S
C34 C33 1.351 . S
C34 N35 1.373 . S
C34 H62 0.930 . S
N35 C34 1.373 . S
N35 C37 1.340 . S
N36 C33 1.368 . S
N36 C37 1.321 . S
N36 Co39 2.135 . S
C37 N35 1.340 . S
C37 N36 1.321 . S
C37 H61 0.930 . S
H38 C33 0.931 . S
Co39 N36 2.135 . S
Co39 N42 2.121 . S
Co39 O47 2.055 . S
Co39 O50 2.039 . S
Co39 N53 2.140 . S
C40 O41 1.227 . S
C40 O50 1.265 1_655 S
O41 C40 1.227 . S
N42 Co39 2.121 . S
N42 C44 1.375 . S
N42 C45 1.313 . S
C43 C44 1.338 . S
C43 N46 1.377 . S
C43 H63 0.930 . S
C44 N42 1.375 . S
C44 C43 1.338 . S
C44 H48 0.931 . S
C45 N42 1.313 . S
C45 N46 1.344 . S
C45 H49 0.930 . S
N46 C43 1.377 . S
N46 C45 1.344 . S
O47 Co39 2.055 . S
O47 C51 1.253 . S
H48 C44 0.931 . S
H49 C45 0.930 . S
O50 Co39 2.039 . S
O50 C40 1.265 1_455 S
C51 O47 1.253 . S
C51 O52 1.227 . S
O52 C51 1.227 . S
N53 Co39 2.140 . S
N53 C56 1.346 . S
N53 C57 1.345 . S
C54 C55 1.387 . S
C54 C58 1.391 . S
C55 C54 1.387 . S
C55 C56 1.369 . S
C55 H64 0.929 . S
C56 N53 1.346 . S
C56 C55 1.369 . S
C56 H59 0.928 . S
C57 N53 1.345 . S
C57 C58 1.371 . S
C57 H60 0.931 . S
C58 C54 1.391 . S
C58 C57 1.371 . S
C58 H65 0.930 . S
H59 C56 0.928 . S
H60 C57 0.931 . S
H61 C37 0.930 . S
H62 C34 0.930 . S
H63 C43 0.930 . S
H64 C55 0.929 . S
H65 C58 0.930 . S
C66 C67 1.351 . S
C66 N69 1.368 . S
C66 H71 0.931 . S
C67 C66 1.351 . S
C67 N68 1.373 . S
C67 H95 0.930 . S
N68 C67 1.373 . S
N68 C70 1.340 . S
N69 C66 1.368 . S
N69 C70 1.321 . S
N69 Co72 2.135 . S
C70 N68 1.340 . S
C70 N69 1.321 . S
C70 H94 0.930 . S
H71 C66 0.931 . S
Co72 N69 2.135 . S
Co72 N75 2.121 . S
Co72 O80 2.055 . S
Co72 O83 2.039 . S
Co72 N86 2.140 . S
C73 O74 1.227 . S
C73 O83 1.265 1_565 S
O74 C73 1.227 . S
N75 Co72 2.121 . S
N75 C77 1.375 . S
N75 C78 1.313 . S
C76 C77 1.338 . S
C76 N79 1.377 . S
C76 H96 0.930 . S
C77 N75 1.375 . S
C77 C76 1.338 . S
C77 H81 0.931 . S
C78 N75 1.313 . S
C78 N79 1.344 . S
C78 H82 0.930 . S
N79 C76 1.377 . S
N79 C78 1.344 . S
O80 Co72 2.055 . S
O80 C84 1.253 . S
H81 C77 0.931 . S
H82 C78 0.930 . S
O83 Co72 2.039 . S
O83 C73 1.265 1_545 S
C84 O80 1.253 . S
C84 O85 1.227 . S
O85 C84 1.227 . S
N86 Co72 2.140 . S
N86 C89 1.346 . S
N86 C90 1.345 . S
C87 C88 1.387 . S
C87 C91 1.391 . S
C88 C87 1.387 . S
C88 C89 1.369 . S
C88 H97 0.929 . S
C89 N86 1.346 . S
C89 C88 1.369 . S
C89 H92 0.928 . S
C90 N86 1.345 . S
C90 C91 1.371 . S
C90 H93 0.931 . S
C91 C87 1.391 . S
C91 C90 1.371 . S
C91 H98 0.930 . S
H92 C89 0.928 . S
H93 C90 0.931 . S
H94 C70 0.930 . S
H95 C67 0.930 . S
H96 C76 0.930 . S
H97 C88 0.929 . S
H98 C91 0.930 . S
C99 C100 1.351 . S
C99 N102 1.368 . S
C99 H104 0.931 . S
C100 C99 1.351 . S
C100 N101 1.373 . S
C100 H128 0.930 . S
N101 C100 1.373 . S
N101 C103 1.340 . S
N102 C99 1.368 . S
N102 C103 1.321 . S
N102 Co105 2.135 1_554 S
C103 N101 1.340 . S
C103 N102 1.321 . S
C103 H127 0.930 . S
H104 C99 0.931 . S
Co105 N102 2.135 1_556 S
Co105 N108 2.121 . S
Co105 O113 2.055 1_556 S
Co105 O116 2.039 . S
Co105 N119 2.140 . S
C106 O107 1.227 . S
C106 O116 1.265 . S
O107 C106 1.227 . S
N108 Co105 2.121 . S
N108 C110 1.375 . S
N108 C111 1.313 . S
C109 C110 1.338 . S
C109 N112 1.377 . S
C109 H129 0.930 . S
C110 N108 1.375 . S
C110 C109 1.338 . S
C110 H114 0.931 . S
C111 N108 1.313 . S
C111 N112 1.344 . S
C111 H115 0.930 . S
N112 C109 1.377 . S
N112 C111 1.344 . S
O113 Co105 2.055 1_554 S
O113 C117 1.253 . S
H114 C110 0.931 . S
H115 C111 0.930 . S
O116 Co105 2.039 . S
O116 C106 1.265 . S
C117 O113 1.253 . S
C117 O118 1.227 1_554 S
O118 C117 1.227 1_556 S
N119 Co105 2.140 . S
N119 C122 1.346 . S
N119 C123 1.345 . S
C120 C121 1.387 . S
C120 C124 1.391 . S
C121 C120 1.387 . S
C121 C122 1.369 . S
C121 H130 0.929 . S
C122 N119 1.346 . S
C122 C121 1.369 . S
C122 H125 0.928 . S
C123 N119 1.345 . S
C123 C124 1.371 . S
C123 H126 0.931 . S
C124 C120 1.391 . S
C124 C123 1.371 . S
C124 H131 0.930 . S
H125 C122 0.928 . S
H126 C123 0.931 . S
H127 C103 0.930 . S
H128 C100 0.930 . S
H129 C109 0.930 . S
H130 C121 0.929 . S
H131 C124 0.930 . S
C132 C133 1.351 . S
C132 N135 1.368 . S
C132 H137 0.931 . S
C133 C132 1.351 . S
C133 N134 1.373 . S
C133 H161 0.930 . S
N134 C133 1.373 . S
N134 C136 1.340 . S
N135 C132 1.368 . S
N135 C136 1.321 . S
N135 Co138 2.135 . S
C136 N134 1.340 . S
C136 N135 1.321 . S
C136 H160 0.930 . S
H137 C132 0.931 . S
Co138 N135 2.135 . S
Co138 N141 2.121 . S
Co138 O146 2.055 . S
Co138 O149 2.039 . S
Co138 N152 2.140 . S
C139 O140 1.227 . S
C139 O149 1.265 1_455 S
O140 C139 1.227 . S
N141 Co138 2.121 . S
N141 C143 1.375 . S
N141 C144 1.313 . S
C142 C143 1.338 . S
C142 N145 1.377 . S
C142 H162 0.930 . S
C143 N141 1.375 . S
C143 C142 1.338 . S
C143 H147 0.931 . S
C144 N141 1.313 . S
C144 N145 1.344 . S
C144 H148 0.930 . S
N145 C142 1.377 . S
N145 C144 1.344 . S
O146 Co138 2.055 . S
O146 C150 1.253 . S
H147 C143 0.931 . S
H148 C144 0.930 . S
O149 Co138 2.039 . S
O149 C139 1.265 1_655 S
C150 O146 1.253 . S
C150 O151 1.227 . S
O151 C150 1.227 . S
N152 Co138 2.140 . S
N152 C155 1.346 . S
N152 C156 1.345 . S
C153 C154 1.387 . S
C153 C157 1.391 . S
C154 C153 1.387 . S
C154 C155 1.369 . S
C154 H163 0.929 . S
C155 N152 1.346 . S
C155 C154 1.369 . S
C155 H158 0.928 . S
C156 N152 1.345 . S
C156 C157 1.371 . S
C156 H159 0.931 . S
C157 C153 1.391 . S
C157 C156 1.371 . S
C157 H164 0.930 . S
H158 C155 0.928 . S
H159 C156 0.931 . S
H160 C136 0.930 . S
H161 C133 0.930 . S
H162 C142 0.930 . S
H163 C154 0.929 . S
H164 C157 0.930 . S
C165 C166 1.351 . S
C165 N168 1.368 . S
C165 H170 0.931 . S
C166 C165 1.351 . S
C166 N167 1.373 . S
C166 H194 0.930 . S
N167 C166 1.373 . S
N167 C169 1.340 . S
N168 C165 1.368 . S
N168 C169 1.321 . S
N168 Co171 2.135 . S
C169 N167 1.340 . S
C169 N168 1.321 . S
C169 H193 0.930 . S
H170 C165 0.931 . S
Co171 N168 2.135 . S
Co171 N174 2.121 . S
Co171 O179 2.055 . S
Co171 O182 2.039 . S
Co171 N185 2.140 . S
C172 O173 1.227 . S
C172 O182 1.265 1_545 S
O173 C172 1.227 . S
N174 Co171 2.121 . S
N174 C176 1.375 . S
N174 C177 1.313 . S
C175 C176 1.338 . S
C175 N178 1.377 . S
C175 H195 0.930 . S
C176 N174 1.375 . S
C176 C175 1.338 . S
C176 H180 0.931 . S
C177 N174 1.313 . S
C177 N178 1.344 . S
C177 H181 0.930 . S
N178 C175 1.377 . S
N178 C177 1.344 . S
O179 Co171 2.055 . S
O179 C183 1.253 . S
H180 C176 0.931 . S
H181 C177 0.930 . S
O182 Co171 2.039 . S
O182 C172 1.265 1_565 S
C183 O179 1.253 . S
C183 O184 1.227 . S
O184 C183 1.227 . S
N185 Co171 2.140 . S
N185 C188 1.346 . S
N185 C189 1.345 . S
C186 C187 1.387 . S
C186 C190 1.391 . S
C187 C186 1.387 . S
C187 C188 1.369 . S
C187 H196 0.929 . S
C188 N185 1.346 . S
C188 C187 1.369 . S
C188 H191 0.928 . S
C189 N185 1.345 . S
C189 C190 1.371 . S
C189 H192 0.931 . S
C190 C186 1.391 . S
C190 C189 1.371 . S
C190 H197 0.930 . S
H191 C188 0.928 . S
H192 C189 0.931 . S
H193 C169 0.930 . S
H194 C166 0.930 . S
H195 C175 0.930 . S
H196 C187 0.929 . S
H197 C190 0.930 . S
C198 C199 1.351 . S
C198 N201 1.368 . S
C198 H203 0.931 . S
C199 C198 1.351 . S
C199 N200 1.373 . S
C199 H227 0.930 . S
N200 C199 1.373 . S
N200 C202 1.340 . S
N201 C198 1.368 . S
N201 C202 1.321 . S
N201 Co204 2.135 . S
C202 N200 1.340 . S
C202 N201 1.321 . S
C202 H226 0.930 . S
H203 C198 0.931 . S
Co204 N201 2.135 . S
Co204 N207 2.121 . S
Co204 O212 2.055 . S
Co204 O215 2.039 . S
Co204 N218 2.140 . S
C205 O206 1.227 . S
C205 O215 1.265 . S
O206 C205 1.227 . S
N207 Co204 2.121 . S
N207 C209 1.375 . S
N207 C210 1.313 . S
C208 C209 1.338 . S
C208 N211 1.377 . S
C208 H228 0.930 . S
C209 N207 1.375 . S
C209 C208 1.338 . S
C209 H213 0.931 . S
C210 N207 1.313 . S
C210 N211 1.344 . S
C210 H214 0.930 . S
N211 C208 1.377 . S
N211 C210 1.344 . S
O212 Co204 2.055 . S
O212 C216 1.253 . S
H213 C209 0.931 . S
H214 C210 0.930 . S
O215 Co204 2.039 . S
O215 C205 1.265 . S
C216 O212 1.253 . S
C216 O217 1.227 . S
O217 C216 1.227 . S
N218 Co204 2.140 . S
N218 C221 1.346 . S
N218 C222 1.345 . S
C219 C220 1.387 . S
C219 C223 1.391 . S
C220 C219 1.387 . S
C220 C221 1.369 . S
C220 H229 0.929 . S
C221 N218 1.346 . S
C221 C220 1.369 . S
C221 H224 0.928 . S
C222 N218 1.345 . S
C222 C223 1.371 . S
C222 H225 0.931 . S
C223 C219 1.391 . S
C223 C222 1.371 . S
C223 H230 0.930 . S
H224 C221 0.928 . S
H225 C222 0.931 . S
H226 C202 0.930 . S
H227 C199 0.930 . S
H228 C208 0.930 . S
H229 C220 0.929 . S
H230 C223 0.930 . S
C231 C232 1.351 . S
C231 N234 1.368 . S
C231 H236 0.931 . S
C232 C231 1.351 . S
C232 N233 1.373 . S
C232 H260 0.930 . S
N233 C232 1.373 . S
N233 C235 1.340 . S
N234 C231 1.368 . S
N234 C235 1.321 . S
N234 Co237 2.135 . S
C235 N233 1.340 . S
C235 N234 1.321 . S
C235 H259 0.930 . S
H236 C231 0.931 . S
Co237 N234 2.135 . S
Co237 N240 2.121 . S
Co237 O245 2.055 . S
Co237 O248 2.039 . S
Co237 N251 2.140 . S
C238 O239 1.227 . S
C238 O248 1.265 1_655 S
O239 C238 1.227 . S
N240 Co237 2.121 . S
N240 C242 1.375 . S
N240 C243 1.313 . S
C241 C242 1.338 . S
C241 N244 1.377 . S
C241 H261 0.930 . S
C242 N240 1.375 . S
C242 C241 1.338 . S
C242 H246 0.931 . S
C243 N240 1.313 . S
C243 N244 1.344 . S
C243 H247 0.930 . S
N244 C241 1.377 . S
N244 C243 1.344 . S
O245 Co237 2.055 . S
O245 C249 1.253 . S
H246 C242 0.931 . S
H247 C243 0.930 . S
O248 Co237 2.039 . S
O248 C238 1.265 1_455 S
C249 O245 1.253 . S
C249 O250 1.227 . S
O250 C249 1.227 . S
N251 Co237 2.140 . S
N251 C254 1.346 . S
N251 C255 1.345 . S
C252 C253 1.387 . S
C252 C256 1.391 . S
C253 C252 1.387 . S
C253 C254 1.369 . S
C253 H262 0.929 . S
C254 N251 1.346 . S
C254 C253 1.369 . S
C254 H257 0.928 . S
C255 N251 1.345 . S
C255 C256 1.371 . S
C255 H258 0.931 . S
C256 C252 1.391 . S
C256 C255 1.371 . S
C256 H263 0.930 . S
H257 C254 0.928 . S
H258 C255 0.931 . S
H259 C235 0.930 . S
H260 C232 0.930 . S
H261 C241 0.930 . S
H262 C253 0.929 . S
H263 C256 0.930 . S
C264 C265 1.351 . S
C264 N267 1.368 . S
C264 H269 0.931 . S
C265 C264 1.351 . S
C265 N266 1.373 . S
C265 H293 0.930 . S
N266 C265 1.373 . S
N266 C268 1.340 . S
N267 C264 1.368 . S
N267 C268 1.321 . S
N267 Co270 2.135 . S
C268 N266 1.340 . S
C268 N267 1.321 . S
C268 H292 0.930 . S
H269 C264 0.931 . S
Co270 N267 2.135 . S
Co270 N273 2.121 . S
Co270 O278 2.055 . S
Co270 O281 2.039 . S
Co270 N284 2.140 . S
C271 O272 1.227 . S
C271 O281 1.265 1_565 S
O272 C271 1.227 . S
N273 Co270 2.121 . S
N273 C275 1.375 . S
N273 C276 1.313 . S
C274 C275 1.338 . S
C274 N277 1.377 . S
C274 H294 0.930 . S
C275 N273 1.375 . S
C275 C274 1.338 . S
C275 H279 0.931 . S
C276 N273 1.313 . S
C276 N277 1.344 . S
C276 H280 0.930 . S
N277 C274 1.377 . S
N277 C276 1.344 . S
O278 Co270 2.055 . S
O278 C282 1.253 . S
H279 C275 0.931 . S
H280 C276 0.930 . S
O281 Co270 2.039 . S
O281 C271 1.265 1_545 S
C282 O278 1.253 . S
C282 O283 1.227 . S
O283 C282 1.227 . S
N284 Co270 2.140 . S
N284 C287 1.346 . S
N284 C288 1.345 . S
C285 C286 1.387 . S
C285 C289 1.391 . S
C286 C285 1.387 . S
C286 C287 1.369 . S
C286 H295 0.929 . S
C287 N284 1.346 . S
C287 C286 1.369 . S
C287 H290 0.928 . S
C288 N284 1.345 . S
C288 C289 1.371 . S
C288 H291 0.931 . S
C289 C285 1.391 . S
C289 C288 1.371 . S
C289 H296 0.930 . S
H290 C287 0.928 . S
H291 C288 0.931 . S
H292 C268 0.930 . S
H293 C265 0.930 . S
H294 C274 0.930 . S
H295 C286 0.929 . S
H296 C289 0.930 . S
C297 C298 1.351 . S
C297 N300 1.368 . S
C297 H302 0.931 . S
C298 C297 1.351 . S
C298 N299 1.373 . S
C298 H326 0.930 . S
N299 C298 1.373 . S
N299 C301 1.340 . S
N300 C297 1.368 . S
N300 C301 1.321 . S
N300 Co303 2.135 . S
C301 N299 1.340 . S
C301 N300 1.321 . S
C301 H325 0.930 . S
H302 C297 0.931 . S
Co303 N300 2.135 . S
Co303 N306 2.121 . S
Co303 O311 2.055 . S
Co303 O314 2.039 . S
Co303 N317 2.140 . S
C304 O305 1.227 . S
C304 O314 1.265 . S
O305 C304 1.227 . S
N306 Co303 2.121 . S
N306 C308 1.375 . S
N306 C309 1.313 . S
C307 C308 1.338 . S
C307 N310 1.377 . S
C307 H327 0.930 . S
C308 N306 1.375 . S
C308 C307 1.338 . S
C308 H312 0.931 . S
C309 N306 1.313 . S
C309 N310 1.344 . S
C309 H313 0.930 . S
N310 C307 1.377 . S
N310 C309 1.344 . S
O311 Co303 2.055 . S
O311 C315 1.253 . S
H312 C308 0.931 . S
H313 C309 0.930 . S
O314 Co303 2.039 . S
O314 C304 1.265 . S
C315 O311 1.253 . S
C315 O316 1.227 . S
O316 C315 1.227 . S
N317 Co303 2.140 . S
N317 C320 1.346 . S
N317 C321 1.345 . S
C318 C319 1.387 . S
C318 C322 1.391 . S
C319 C318 1.387 . S
C319 C320 1.369 . S
C319 H328 0.929 . S
C320 N317 1.346 . S
C320 C319 1.369 . S
C320 H323 0.928 . S
C321 N317 1.345 . S
C321 C322 1.371 . S
C321 H324 0.931 . S
C322 C318 1.391 . S
C322 C321 1.371 . S
C322 H329 0.930 . S
H323 C320 0.928 . S
H324 C321 0.931 . S
H325 C301 0.930 . S
H326 C298 0.930 . S
H327 C307 0.930 . S
H328 C319 0.929 . S
H329 C322 0.930 . S
C330 C331 1.351 . S
C330 N333 1.368 . S
C330 H335 0.931 . S
C331 C330 1.351 . S
C331 N332 1.373 . S
C331 H359 0.930 . S
N332 C331 1.373 . S
N332 C334 1.340 . S
N333 C330 1.368 . S
N333 C334 1.321 . S
N333 Co336 2.135 1_556 S
C334 N332 1.340 . S
C334 N333 1.321 . S
C334 H358 0.930 . S
H335 C330 0.931 . S
Co336 N333 2.135 1_554 S
Co336 N339 2.121 . S
Co336 O344 2.055 1_554 S
Co336 O347 2.039 . S
Co336 N350 2.140 . S
C337 O338 1.227 . S
C337 O347 1.265 1_455 S
O338 C337 1.227 . S
N339 Co336 2.121 . S
N339 C341 1.375 . S
N339 C342 1.313 . S
C340 C341 1.338 . S
C340 N343 1.377 . S
C340 H360 0.930 . S
C341 N339 1.375 . S
C341 C340 1.338 . S
C341 H345 0.931 . S
C342 N339 1.313 . S
C342 N343 1.344 . S
C342 H346 0.930 . S
N343 C340 1.377 . S
N343 C342 1.344 . S
O344 Co336 2.055 1_556 S
O344 C348 1.253 . S
H345 C341 0.931 . S
H346 C342 0.930 . S
O347 Co336 2.039 . S
O347 C337 1.265 1_655 S
C348 O344 1.253 . S
C348 O349 1.227 1_556 S
O349 C348 1.227 1_554 S
N350 Co336 2.140 . S
N350 C353 1.346 . S
N350 C354 1.345 . S
C351 C352 1.387 . S
C351 C355 1.391 . S
C352 C351 1.387 . S
C352 C353 1.369 . S
C352 H361 0.929 . S
C353 N350 1.346 . S
C353 C352 1.369 . S
C353 H356 0.928 . S
C354 N350 1.345 . S
C354 C355 1.371 . S
C354 H357 0.931 . S
C355 C351 1.391 . S
C355 C354 1.371 . S
C355 H362 0.930 . S
H356 C353 0.928 . S
H357 C354 0.931 . S
H358 C334 0.930 . S
H359 C331 0.930 . S
H360 C340 0.930 . S
H361 C352 0.929 . S
H362 C355 0.930 . S
C363 C364 1.351 . S
C363 N366 1.368 . S
C363 H368 0.931 . S
C364 C363 1.351 . S
C364 N365 1.373 . S
C364 H392 0.930 . S
N365 C364 1.373 . S
N365 C367 1.340 . S
N366 C363 1.368 . S
N366 C367 1.321 . S
N366 Co369 2.135 . S
C367 N365 1.340 . S
C367 N366 1.321 . S
C367 H391 0.930 . S
H368 C363 0.931 . S
Co369 N366 2.135 . S
Co369 N372 2.121 . S
Co369 O377 2.055 . S
Co369 O380 2.039 . S
Co369 N383 2.140 . S
C370 O371 1.227 . S
C370 O380 1.265 1_545 S
O371 C370 1.227 . S
N372 Co369 2.121 . S
N372 C374 1.375 . S
N372 C375 1.313 . S
C373 C374 1.338 . S
C373 N376 1.377 . S
C373 H393 0.930 . S
C374 N372 1.375 . S
C374 C373 1.338 . S
C374 H378 0.931 . S
C375 N372 1.313 . S
C375 N376 1.344 . S
C375 H379 0.930 . S
N376 C373 1.377 . S
N376 C375 1.344 . S
O377 Co369 2.055 . S
O377 C381 1.253 . S
H378 C374 0.931 . S
H379 C375 0.930 . S
O380 Co369 2.039 . S
O380 C370 1.265 1_565 S
C381 O377 1.253 . S
C381 O382 1.227 . S
O382 C381 1.227 . S
N383 Co369 2.140 . S
N383 C386 1.346 . S
N383 C387 1.345 . S
C384 C385 1.387 . S
C384 C388 1.391 . S
C385 C384 1.387 . S
C385 C386 1.369 . S
C385 H394 0.929 . S
C386 N383 1.346 . S
C386 C385 1.369 . S
C386 H389 0.928 . S
C387 N383 1.345 . S
C387 C388 1.371 . S
C387 H390 0.931 . S
C388 C384 1.391 . S
C388 C387 1.371 . S
C388 H395 0.930 . S
H389 C386 0.928 . S
H390 C387 0.931 . S
H391 C367 0.930 . S
H392 C364 0.930 . S
H393 C373 0.930 . S
H394 C385 0.929 . S
H395 C388 0.930 . S
H396 C404 0.929 . S
H397 C406 0.930 . S
H398 C408 0.930 . S
H399 C411 0.929 . S
H400 C414 0.930 . S
H401 C416 0.960 . S
H402 C416 0.960 . S
H403 C416 0.960 . S
C404 H396 0.929 . S
C404 C405 1.377 . S
C404 C406 1.384 . S
C405 C404 1.377 . S
C405 C411 1.390 . S
C406 H397 0.930 . S
C406 C404 1.384 . S
C406 C407 1.372 . S
C407 C406 1.372 . S
C407 C408 1.400 . S
C407 C412 1.490 . S
C408 H398 0.930 . S
C408 C407 1.400 . S
C408 C411 1.386 . S
H409 C425 0.930 . S
H410 C426 0.931 . S
C411 H399 0.929 . S
C411 C405 1.390 . S
C411 C408 1.386 . S
C412 C407 1.490 . S
C412 C414 1.395 . S
C412 C415 1.403 . S
H413 C419 0.930 . S
C414 H400 0.930 . S
C414 C412 1.395 . S
C414 C417 1.403 . S
C415 C412 1.403 . S
C415 C416 1.524 . S
C415 C419 1.400 . S
C416 H401 0.960 . S
C416 H402 0.960 . S
C416 H403 0.960 . S
C416 C415 1.524 . S
C417 C414 1.403 . S
C417 C418 1.392 . S
C417 C421 1.495 . S
C418 C417 1.392 . S
C418 C419 1.385 . S
C418 C420 1.478 . S
C419 H413 0.930 . S
C419 C415 1.400 . S
C419 C418 1.385 . S
C420 C418 1.478 . S
C420 C422 1.381 . S
C420 C426 1.383 . S
C421 C417 1.495 . S
C421 H427 0.959 . S
C421 H428 0.961 . S
C421 H429 0.960 . S
C422 C420 1.381 . S
C422 C423 1.394 . S
C422 H430 0.930 . S
C423 C422 1.394 . S
C423 C424 1.383 . S
C423 H431 0.929 . S
C424 C423 1.383 . S
C424 C425 1.377 . S
C425 H409 0.930 . S
C425 C424 1.377 . S
C425 C426 1.379 . S
C426 H410 0.931 . S
C426 C420 1.383 . S
C426 C425 1.379 . S
H427 C421 0.959 . S
H428 C421 0.961 . S
H429 C421 0.960 . S
H430 C422 0.930 . S
H431 C423 0.929 . S
H432 C440 0.929 . S
H433 C442 0.930 . S
H434 C444 0.930 . S
H435 C447 0.929 . S
H436 C450 0.930 . S
H437 C452 0.960 . S
H438 C452 0.960 . S
H439 C452 0.960 . S
C440 H432 0.929 . S
C440 C441 1.377 . S
C440 C442 1.384 . S
C441 C440 1.377 . S
C441 C447 1.390 . S
C442 H433 0.930 . S
C442 C440 1.384 . S
C442 C443 1.372 . S
C443 C442 1.372 . S
C443 C444 1.400 . S
C443 C448 1.490 . S
C444 H434 0.930 . S
C444 C443 1.400 . S
C444 C447 1.386 . S
H445 C461 0.930 . S
H446 C462 0.931 . S
C447 H435 0.929 . S
C447 C441 1.390 . S
C447 C444 1.386 . S
C448 C443 1.490 . S
C448 C450 1.395 . S
C448 C451 1.403 . S
H449 C455 0.930 . S
C450 H436 0.930 . S
C450 C448 1.395 . S
C450 C453 1.403 . S
C451 C448 1.403 . S
C451 C452 1.524 . S
C451 C455 1.400 . S
C452 H437 0.960 . S
C452 H438 0.960 . S
C452 H439 0.960 . S
C452 C451 1.524 . S
C453 C450 1.403 . S
C453 C454 1.392 . S
C453 C457 1.495 . S
C454 C453 1.392 . S
C454 C455 1.385 . S
C454 C456 1.478 . S
C455 H449 0.930 . S
C455 C451 1.400 . S
C455 C454 1.385 . S
C456 C454 1.478 . S
C456 C458 1.381 . S
C456 C462 1.383 . S
C457 C453 1.495 . S
C457 H463 0.959 . S
C457 H464 0.961 . S
C457 H465 0.960 . S
C458 C456 1.381 . S
C458 C459 1.394 . S
C458 H466 0.930 . S
C459 C458 1.394 . S
C459 C460 1.383 . S
C459 H467 0.929 . S
C460 C459 1.383 . S
C460 C461 1.377 . S
C461 H445 0.930 . S
C461 C460 1.377 . S
C461 C462 1.379 . S
C462 H446 0.931 . S
C462 C456 1.383 . S
C462 C461 1.379 . S
H463 C457 0.959 . S
H464 C457 0.961 . S
H465 C457 0.960 . S
H466 C458 0.930 . S
H467 C459 0.929 . S
H468 C476 0.929 . S
H469 C478 0.930 . S
H470 C480 0.930 . S
H471 C483 0.929 . S
H472 C486 0.930 . S
H473 C488 0.960 . S
H474 C488 0.960 . S
H475 C488 0.960 . S
C476 H468 0.929 . S
C476 C477 1.377 . S
C476 C478 1.384 . S
C477 C476 1.377 . S
C477 C483 1.390 . S
C478 H469 0.930 . S
C478 C476 1.384 . S
C478 C479 1.372 . S
C479 C478 1.372 . S
C479 C480 1.400 . S
C479 C484 1.490 . S
C480 H470 0.930 . S
C480 C479 1.400 . S
C480 C483 1.386 . S
H481 C497 0.930 1_554 S
H482 C498 0.931 . S
C483 H471 0.929 . S
C483 C477 1.390 . S
C483 C480 1.386 . S
C484 C479 1.490 . S
C484 C486 1.395 . S
C484 C487 1.403 . S
H485 C491 0.930 . S
C486 H472 0.930 . S
C486 C484 1.395 . S
C486 C489 1.403 . S
C487 C484 1.403 . S
C487 C488 1.524 . S
C487 C491 1.400 . S
C488 H473 0.960 . S
C488 H474 0.960 . S
C488 H475 0.960 . S
C488 C487 1.524 . S
C489 C486 1.403 . S
C489 C490 1.392 . S
C489 C493 1.495 . S
C490 C489 1.392 . S
C490 C491 1.385 . S
C490 C492 1.478 . S
C491 H485 0.930 . S
C491 C487 1.400 . S
C491 C490 1.385 . S
C492 C490 1.478 . S
C492 C494 1.381 . S
C492 C498 1.383 . S
C493 C489 1.495 . S
C493 H499 0.959 . S
C493 H500 0.961 . S
C493 H501 0.960 . S
C494 C492 1.381 . S
C494 C495 1.394 . S
C494 H502 0.930 . S
C495 C494 1.394 . S
C495 C496 1.383 . S
C495 H503 0.929 . S
C496 C495 1.383 . S
C496 C497 1.377 . S
C497 H481 0.930 1_556 S
C497 C496 1.377 . S
C497 C498 1.379 . S
C498 H482 0.931 . S
C498 C492 1.383 . S
C498 C497 1.379 . S
H499 C493 0.959 . S
H500 C493 0.961 . S
H501 C493 0.960 . S
H502 C494 0.930 . S
H503 C495 0.929 . S
H504 C512 0.929 1_556 S
H505 C514 0.930 . S
H506 C516 0.930 . S
H507 C519 0.929 . S
H508 C522 0.930 . S
H509 C524 0.960 . S
H510 C524 0.960 . S
H511 C524 0.960 . S
C512 H504 0.929 1_554 S
C512 C513 1.377 . S
C512 C514 1.384 . S
C513 C512 1.377 . S
C513 C519 1.390 . S
C514 H505 0.930 . S
C514 C512 1.384 . S
C514 C515 1.372 . S
C515 C514 1.372 . S
C515 C516 1.400 . S
C515 C520 1.490 . S
C516 H506 0.930 . S
C516 C515 1.400 . S
C516 C519 1.386 . S
H517 C533 0.930 . S
H518 C534 0.931 . S
C519 H507 0.929 . S
C519 C513 1.390 . S
C519 C516 1.386 . S
C520 C515 1.490 . S
C520 C522 1.395 . S
C520 C523 1.403 . S
H521 C527 0.930 . S
C522 H508 0.930 . S
C522 C520 1.395 . S
C522 C525 1.403 . S
C523 C520 1.403 . S
C523 C524 1.524 . S
C523 C527 1.400 . S
C524 H509 0.960 . S
C524 H510 0.960 . S
C524 H511 0.960 . S
C524 C523 1.524 . S
C525 C522 1.403 . S
C525 C526 1.392 . S
C525 C529 1.495 . S
C526 C525 1.392 . S
C526 C527 1.385 . S
C526 C528 1.478 . S
C527 H521 0.930 . S
C527 C523 1.400 . S
C527 C526 1.385 . S
C528 C526 1.478 . S
C528 C530 1.381 . S
C528 C534 1.383 . S
C529 C525 1.495 . S
C529 H535 0.959 . S
C529 H536 0.961 . S
C529 H537 0.960 . S
C530 C528 1.381 . S
C530 C531 1.394 . S
C530 H538 0.930 . S
C531 C530 1.394 . S
C531 C532 1.383 . S
C531 H539 0.929 . S
C532 C531 1.383 . S
C532 C533 1.377 . S
C533 H517 0.930 . S
C533 C532 1.377 . S
C533 C534 1.379 . S
C534 H518 0.931 . S
C534 C528 1.383 . S
C534 C533 1.379 . S
H535 C529 0.959 . S
H536 C529 0.961 . S
H537 C529 0.960 . S
H538 C530 0.930 . S
H539 C531 0.929 . S
H540 C548 0.929 . S
H541 C550 0.930 . S
H542 C552 0.930 . S
H543 C555 0.929 . S
H544 C558 0.930 . S
H545 C560 0.960 . S
H546 C560 0.960 . S
H547 C560 0.960 . S
C548 H540 0.929 . S
C548 C549 1.377 . S
C548 C550 1.384 . S
C549 C548 1.377 . S
C549 C555 1.390 . S
C550 H541 0.930 . S
C550 C548 1.384 . S
C550 C551 1.372 . S
C551 C550 1.372 . S
C551 C552 1.400 . S
C551 C556 1.490 . S
C552 H542 0.930 . S
C552 C551 1.400 . S
C552 C555 1.386 . S
H553 C569 0.930 . S
H554 C570 0.931 . S
C555 H543 0.929 . S
C555 C549 1.390 . S
C555 C552 1.386 . S
C556 C551 1.490 . S
C556 C558 1.395 . S
C556 C559 1.403 . S
H557 C563 0.930 . S
C558 H544 0.930 . S
C558 C556 1.395 . S
C558 C561 1.403 . S
C559 C556 1.403 . S
C559 C560 1.524 . S
C559 C563 1.400 . S
C560 H545 0.960 . S
C560 H546 0.960 . S
C560 H547 0.960 . S
C560 C559 1.524 . S
C561 C558 1.403 . S
C561 C562 1.392 . S
C561 C565 1.495 . S
C562 C561 1.392 . S
C562 C563 1.385 . S
C562 C564 1.478 . S
C563 H557 0.930 . S
C563 C559 1.400 . S
C563 C562 1.385 . S
C564 C562 1.478 . S
C564 C566 1.381 . S
C564 C570 1.383 . S
C565 C561 1.495 . S
C565 H571 0.959 . S
C565 H572 0.961 . S
C565 H573 0.960 . S
C566 C564 1.381 . S
C566 C567 1.394 . S
C566 H574 0.930 . S
C567 C566 1.394 . S
C567 C568 1.383 . S
C567 H575 0.929 . S
C568 C567 1.383 . S
C568 C569 1.377 . S
C569 H553 0.930 . S
C569 C568 1.377 . S
C569 C570 1.379 . S
C570 H554 0.931 . S
C570 C564 1.383 . S
C570 C569 1.379 . S
H571 C565 0.959 . S
H572 C565 0.961 . S
H573 C565 0.960 . S
H574 C566 0.930 . S
H575 C567 0.929 . S
H576 C584 0.929 . S
H577 C586 0.930 . S
H578 C588 0.930 . S
H579 C591 0.929 . S
H580 C594 0.930 . S
H581 C596 0.960 . S
H582 C596 0.960 . S
H583 C596 0.960 . S
C584 H576 0.929 . S
C584 C585 1.377 . S
C584 C586 1.384 . S
C585 C584 1.377 . S
C585 C591 1.390 . S
C586 H577 0.930 . S
C586 C584 1.384 . S
C586 C587 1.372 . S
C587 C586 1.372 . S
C587 C588 1.400 . S
C587 C592 1.490 . S
C588 H578 0.930 . S
C588 C587 1.400 . S
C588 C591 1.386 . S
H589 C605 0.930 . S
H590 C606 0.931 . S
C591 H579 0.929 . S
C591 C585 1.390 . S
C591 C588 1.386 . S
C592 C587 1.490 . S
C592 C594 1.395 . S
C592 C595 1.403 . S
H593 C599 0.930 . S
C594 H580 0.930 . S
C594 C592 1.395 . S
C594 C597 1.403 . S
C595 C592 1.403 . S
C595 C596 1.524 . S
C595 C599 1.400 . S
C596 H581 0.960 . S
C596 H582 0.960 . S
C596 H583 0.960 . S
C596 C595 1.524 . S
C597 C594 1.403 . S
C597 C598 1.392 . S
C597 C601 1.495 . S
C598 C597 1.392 . S
C598 C599 1.385 . S
C598 C600 1.478 . S
C599 H593 0.930 . S
C599 C595 1.400 . S
C599 C598 1.385 . S
C600 C598 1.478 . S
C600 C602 1.381 . S
C600 C606 1.383 . S
C601 C597 1.495 . S
C601 H607 0.959 . S
C601 H608 0.961 . S
C601 H609 0.960 . S
C602 C600 1.381 . S
C602 C603 1.394 . S
C602 H610 0.930 . S
C603 C602 1.394 . S
C603 C604 1.383 . S
C603 H611 0.929 . S
C604 C603 1.383 . S
C604 C605 1.377 . S
C605 H589 0.930 . S
C605 C604 1.377 . S
C605 C606 1.379 . S
C606 H590 0.931 . S
C606 C600 1.383 . S
C606 C605 1.379 . S
H607 C601 0.959 . S
H608 C601 0.961 . S
H609 C601 0.960 . S
H610 C602 0.930 . S
H611 C603 0.929 . S
H612 C620 0.929 . S
H613 C622 0.930 . S
H614 C624 0.930 . S
H615 C627 0.929 . S
H616 C630 0.930 . S
H617 C632 0.960 . S
H618 C632 0.960 . S
H619 C632 0.960 . S
C620 H612 0.929 . S
C620 C621 1.377 . S
C620 C622 1.384 . S
C621 C620 1.377 . S
C621 C627 1.390 . S
C622 H613 0.930 . S
C622 C620 1.384 . S
C622 C623 1.372 . S
C623 C622 1.372 . S
C623 C624 1.400 . S
C623 C628 1.490 . S
C624 H614 0.930 . S
C624 C623 1.400 . S
C624 C627 1.386 . S
H625 C641 0.930 . S
H626 C642 0.931 . S
C627 H615 0.929 . S
C627 C621 1.390 . S
C627 C624 1.386 . S
C628 C623 1.490 . S
C628 C630 1.395 . S
C628 C631 1.403 . S
H629 C635 0.930 . S
C630 H616 0.930 . S
C630 C628 1.395 . S
C630 C633 1.403 . S
C631 C628 1.403 . S
C631 C632 1.524 . S
C631 C635 1.400 . S
C632 H617 0.960 . S
C632 H618 0.960 . S
C632 H619 0.960 . S
C632 C631 1.524 . S
C633 C630 1.403 . S
C633 C634 1.392 . S
C633 C637 1.495 . S
C634 C633 1.392 . S
C634 C635 1.385 . S
C634 C636 1.478 . S
C635 H629 0.930 . S
C635 C631 1.400 . S
C635 C634 1.385 . S
C636 C634 1.478 . S
C636 C638 1.381 . S
C636 C642 1.383 . S
C637 C633 1.495 . S
C637 H643 0.959 . S
C637 H644 0.961 . S
C637 H645 0.960 . S
C638 C636 1.381 . S
C638 C639 1.394 . S
C638 H646 0.930 . S
C639 C638 1.394 . S
C639 C640 1.383 . S
C639 H647 0.929 . S
C640 C639 1.383 . S
C640 C641 1.377 . S
C641 H625 0.930 . S
C641 C640 1.377 . S
C641 C642 1.379 . S
C642 H626 0.931 . S
C642 C636 1.383 . S
C642 C641 1.379 . S
H643 C637 0.959 . S
H644 C637 0.961 . S
H645 C637 0.960 . S
H646 C638 0.930 . S
H647 C639 0.929 . S
H648 C656 0.929 . S
H649 C658 0.930 . S
H650 C660 0.930 . S
H651 C663 0.929 . S
H652 C666 0.930 . S
H653 C668 0.960 . S
H654 C668 0.960 . S
H655 C668 0.960 . S
C656 H648 0.929 . S
C656 C657 1.377 . S
C656 C658 1.384 . S
C657 C656 1.377 . S
C657 C663 1.390 . S
C658 H649 0.930 . S
C658 C656 1.384 . S
C658 C659 1.372 . S
C659 C658 1.372 . S
C659 C660 1.400 . S
C659 C664 1.490 . S
C660 H650 0.930 . S
C660 C659 1.400 . S
C660 C663 1.386 . S
H661 C677 0.930 . S
H662 C678 0.931 . S
C663 H651 0.929 . S
C663 C657 1.390 . S
C663 C660 1.386 . S
C664 C659 1.490 . S
C664 C666 1.395 . S
C664 C667 1.403 . S
H665 C671 0.930 . S
C666 H652 0.930 . S
C666 C664 1.395 . S
C666 C669 1.403 . S
C667 C664 1.403 . S
C667 C668 1.524 . S
C667 C671 1.400 . S
C668 H653 0.960 . S
C668 H654 0.960 . S
C668 H655 0.960 . S
C668 C667 1.524 . S
C669 C666 1.403 . S
C669 C670 1.392 . S
C669 C673 1.495 . S
C670 C669 1.392 . S
C670 C671 1.385 . S
C670 C672 1.478 . S
C671 H665 0.930 . S
C671 C667 1.400 . S
C671 C670 1.385 . S
C672 C670 1.478 . S
C672 C674 1.381 . S
C672 C678 1.383 . S
C673 C669 1.495 . S
C673 H679 0.959 . S
C673 H680 0.961 . S
C673 H681 0.960 . S
C674 C672 1.381 . S
C674 C675 1.394 . S
C674 H682 0.930 . S
C675 C674 1.394 . S
C675 C676 1.383 . S
C675 H683 0.929 . S
C676 C675 1.383 . S
C676 C677 1.377 . S
C677 H661 0.930 . S
C677 C676 1.377 . S
C677 C678 1.379 . S
C678 H662 0.931 . S
C678 C672 1.383 . S
C678 C677 1.379 . S
H679 C673 0.959 . S
H680 C673 0.961 . S
H681 C673 0.960 . S
H682 C674 0.930 . S
H683 C675 0.929 . S
H684 C692 0.929 . S
H685 C694 0.930 . S
H686 C696 0.930 . S
H687 C699 0.929 . S
H688 C702 0.930 . S
H689 C704 0.960 . S
H690 C704 0.960 . S
H691 C704 0.960 . S
C692 H684 0.929 . S
C692 C693 1.377 . S
C692 C694 1.384 . S
C693 C692 1.377 . S
C693 C699 1.390 . S
C694 H685 0.930 . S
C694 C692 1.384 . S
C694 C695 1.372 . S
C695 C694 1.372 . S
C695 C696 1.400 . S
C695 C700 1.490 . S
C696 H686 0.930 . S
C696 C695 1.400 . S
C696 C699 1.386 . S
H697 C713 0.930 . S
H698 C714 0.931 . S
C699 H687 0.929 . S
C699 C693 1.390 . S
C699 C696 1.386 . S
C700 C695 1.490 . S
C700 C702 1.395 . S
C700 C703 1.403 . S
H701 C707 0.930 . S
C702 H688 0.930 . S
C702 C700 1.395 . S
C702 C705 1.403 . S
C703 C700 1.403 . S
C703 C704 1.524 . S
C703 C707 1.400 . S
C704 H689 0.960 . S
C704 H690 0.960 . S
C704 H691 0.960 . S
C704 C703 1.524 . S
C705 C702 1.403 . S
C705 C706 1.392 . S
C705 C709 1.495 . S
C706 C705 1.392 . S
C706 C707 1.385 . S
C706 C708 1.478 . S
C707 H701 0.930 . S
C707 C703 1.400 . S
C707 C706 1.385 . S
C708 C706 1.478 . S
C708 C710 1.381 . S
C708 C714 1.383 . S
C709 C705 1.495 . S
C709 H715 0.959 . S
C709 H716 0.961 . S
C709 H717 0.960 . S
C710 C708 1.381 . S
C710 C711 1.394 . S
C710 H718 0.930 . S
C711 C710 1.394 . S
C711 C712 1.383 . S
C711 H719 0.929 . S
C712 C711 1.383 . S
C712 C713 1.377 . S
C713 H697 0.930 . S
C713 C712 1.377 . S
C713 C714 1.379 . S
C714 H698 0.931 . S
C714 C708 1.383 . S
C714 C713 1.379 . S
H715 C709 0.959 . S
H716 C709 0.961 . S
H717 C709 0.960 . S
H718 C710 0.930 . S
H719 C711 0.929 . S
H720 C728 0.929 . S
H721 C730 0.930 . S
H722 C732 0.930 . S
H723 C735 0.929 . S
H724 C738 0.930 . S
H725 C740 0.960 . S
H726 C740 0.960 . S
H727 C740 0.960 . S
C728 H720 0.929 . S
C728 C729 1.377 . S
C728 C730 1.384 . S
C729 C728 1.377 . S
C729 C735 1.390 . S
C730 H721 0.930 . S
C730 C728 1.384 . S
C730 C731 1.372 . S
C731 C730 1.372 . S
C731 C732 1.400 . S
C731 C736 1.490 . S
C732 H722 0.930 . S
C732 C731 1.400 . S
C732 C735 1.386 . S
H733 C749 0.930 . S
H734 C750 0.931 . S
C735 H723 0.929 . S
C735 C729 1.390 . S
C735 C732 1.386 . S
C736 C731 1.490 . S
C736 C738 1.395 . S
C736 C739 1.403 . S
H737 C743 0.930 . S
C738 H724 0.930 . S
C738 C736 1.395 . S
C738 C741 1.403 . S
C739 C736 1.403 . S
C739 C740 1.524 . S
C739 C743 1.400 . S
C740 H725 0.960 . S
C740 H726 0.960 . S
C740 H727 0.960 . S
C740 C739 1.524 . S
C741 C738 1.403 . S
C741 C742 1.392 . S
C741 C745 1.495 . S
C742 C741 1.392 . S
C742 C743 1.385 . S
C742 C744 1.478 . S
C743 H737 0.930 . S
C743 C739 1.400 . S
C743 C742 1.385 . S
C744 C742 1.478 . S
C744 C746 1.381 . S
C744 C750 1.383 . S
C745 C741 1.495 . S
C745 H751 0.959 . S
C745 H752 0.961 . S
C745 H753 0.960 . S
C746 C744 1.381 . S
C746 C747 1.394 . S
C746 H754 0.930 . S
C747 C746 1.394 . S
C747 C748 1.383 . S
C747 H755 0.929 . S
C748 C747 1.383 . S
C748 C749 1.377 . S
C749 H733 0.930 . S
C749 C748 1.377 . S
C749 C750 1.379 . S
C750 H734 0.931 . S
C750 C744 1.383 . S
C750 C749 1.379 . S
H751 C745 0.959 . S
H752 C745 0.961 . S
H753 C745 0.960 . S
H754 C746 0.930 . S
H755 C747 0.929 . S
H756 C764 0.929 . S
H757 C766 0.930 . S
H758 C768 0.930 . S
H759 C771 0.929 . S
H760 C774 0.930 . S
H761 C776 0.960 . S
H762 C776 0.960 . S
H763 C776 0.960 . S
C764 H756 0.929 . S
C764 C765 1.377 . S
C764 C766 1.384 . S
C765 C764 1.377 . S
C765 C771 1.390 . S
C766 H757 0.930 . S
C766 C764 1.384 . S
C766 C767 1.372 1_556 S
C767 C766 1.372 1_554 S
C767 C768 1.400 . S
C767 C772 1.490 . S
C768 H758 0.930 . S
C768 C767 1.400 . S
C768 C771 1.386 1_554 S
H769 C785 0.930 . S
H770 C786 0.931 . S
C771 H759 0.929 . S
C771 C765 1.390 . S
C771 C768 1.386 1_556 S
C772 C767 1.490 . S
C772 C774 1.395 . S
C772 C775 1.403 . S
H773 C779 0.930 . S
C774 H760 0.930 . S
C774 C772 1.395 . S
C774 C777 1.403 . S
C775 C772 1.403 . S
C775 C776 1.524 1_554 S
C775 C779 1.400 . S
C776 H761 0.960 . S
C776 H762 0.960 . S
C776 H763 0.960 . S
C776 C775 1.524 1_556 S
C777 C774 1.403 . S
C777 C778 1.392 . S
C777 C781 1.495 . S
C778 C777 1.392 . S
C778 C779 1.385 . S
C778 C780 1.478 . S
C779 H773 0.930 . S
C779 C775 1.400 . S
C779 C778 1.385 . S
C780 C778 1.478 . S
C780 C782 1.381 . S
C780 C786 1.383 . S
C781 C777 1.495 . S
C781 H787 0.959 . S
C781 H788 0.961 . S
C781 H789 0.960 . S
C782 C780 1.381 . S
C782 C783 1.394 . S
C782 H790 0.930 . S
C783 C782 1.394 . S
C783 C784 1.383 . S
C783 H791 0.929 . S
C784 C783 1.383 . S
C784 C785 1.377 . S
C785 H769 0.930 . S
C785 C784 1.377 . S
C785 C786 1.379 . S
C786 H770 0.931 . S
C786 C780 1.383 . S
C786 C785 1.379 . S
H787 C781 0.959 . S
H788 C781 0.961 . S
H789 C781 0.960 . S
H790 C782 0.930 . S
H791 C783 0.929 . S
H792 C800 0.929 . S
H793 C802 0.930 . S
H794 C804 0.930 . S
H795 C807 0.929 . S
H796 C810 0.930 . S
H797 C812 0.960 . S
H798 C812 0.960 . S
H799 C812 0.960 . S
C800 H792 0.929 . S
C800 C801 1.377 . S
C800 C802 1.384 . S
C801 C800 1.377 . S
C801 C807 1.390 . S
C802 H793 0.930 . S
C802 C800 1.384 . S
C802 C803 1.372 . S
C803 C802 1.372 . S
C803 C804 1.400 . S
C803 C808 1.490 . S
C804 H794 0.930 . S
C804 C803 1.400 . S
C804 C807 1.386 . S
H805 C821 0.930 . S
H806 C822 0.931 . S
C807 H795 0.929 . S
C807 C801 1.390 . S
C807 C804 1.386 . S
C808 C803 1.490 . S
C808 C810 1.395 . S
C808 C811 1.403 . S
H809 C815 0.930 . S
C810 H796 0.930 . S
C810 C808 1.395 . S
C810 C813 1.403 . S
C811 C808 1.403 . S
C811 C812 1.524 . S
C811 C815 1.400 . S
C812 H797 0.960 . S
C812 H798 0.960 . S
C812 H799 0.960 . S
C812 C811 1.524 . S
C813 C810 1.403 . S
C813 C814 1.392 . S
C813 C817 1.495 . S
C814 C813 1.392 . S
C814 C815 1.385 . S
C814 C816 1.478 . S
C815 H809 0.930 . S
C815 C811 1.400 . S
C815 C814 1.385 . S
C816 C814 1.478 . S
C816 C818 1.381 . S
C816 C822 1.383 . S
C817 C813 1.495 . S
C817 H823 0.959 . S
C817 H824 0.961 . S
C817 H825 0.960 . S
C818 C816 1.381 . S
C818 C819 1.394 . S
C818 H826 0.930 . S
C819 C818 1.394 . S
C819 C820 1.383 . S
C819 H827 0.929 . S
C820 C819 1.383 . S
C820 C821 1.377 . S
C821 H805 0.930 . S
C821 C820 1.377 . S
C821 C822 1.379 . S
C822 H806 0.931 . S
C822 C816 1.383 . S
C822 C821 1.379 . S
H823 C817 0.959 . S
H824 C817 0.961 . S
H825 C817 0.960 . S
H826 C818 0.930 . S
H827 C819 0.929 . S
H828 C836 0.929 . S
H829 C838 0.930 . S
H830 C840 0.930 . S
H831 C843 0.929 . S
H832 C846 0.930 . S
H833 C848 0.960 . S
H834 C848 0.960 . S
H835 C848 0.960 . S
C836 H828 0.929 . S
C836 C837 1.377 . S
C836 C838 1.384 . S
C837 C836 1.377 . S
C837 C843 1.390 . S
C838 H829 0.930 . S
C838 C836 1.384 . S
C838 C839 1.372 . S
C839 C838 1.372 . S
C839 C840 1.400 . S
C839 C844 1.490 . S
C840 H830 0.930 . S
C840 C839 1.400 . S
C840 C843 1.386 . S
H841 C857 0.930 . S
H842 C858 0.931 . S
C843 H831 0.929 . S
C843 C837 1.390 . S
C843 C840 1.386 . S
C844 C839 1.490 . S
C844 C846 1.395 . S
C844 C847 1.403 . S
H845 C851 0.930 . S
C846 H832 0.930 . S
C846 C844 1.395 . S
C846 C849 1.403 . S
C847 C844 1.403 . S
C847 C848 1.524 . S
C847 C851 1.400 . S
C848 H833 0.960 . S
C848 H834 0.960 . S
C848 H835 0.960 . S
C848 C847 1.524 . S
C849 C846 1.403 . S
C849 C850 1.392 . S
C849 C853 1.495 . S
C850 C849 1.392 . S
C850 C851 1.385 . S
C850 C852 1.478 . S
C851 H845 0.930 . S
C851 C847 1.400 . S
C851 C850 1.385 . S
C852 C850 1.478 . S
C852 C854 1.381 . S
C852 C858 1.383 . S
C853 C849 1.495 . S
C853 H859 0.959 . S
C853 H860 0.961 . S
C853 H861 0.960 . S
C854 C852 1.381 . S
C854 C855 1.394 . S
C854 H862 0.930 . S
C855 C854 1.394 . S
C855 C856 1.383 . S
C855 H863 0.929 . S
C856 C855 1.383 . S
C856 C857 1.377 . S
C857 H841 0.930 . S
C857 C856 1.377 . S
C857 C858 1.379 . S
C858 H842 0.931 . S
C858 C852 1.383 . S
C858 C857 1.379 . S
H859 C853 0.959 . S
H860 C853 0.961 . S
H861 C853 0.960 . S
H862 C854 0.930 . S
H863 C855 0.929 . S
H864 C872 0.929 . S
H865 C874 0.930 . S
H866 C876 0.930 . S
H867 C879 0.929 . S
H868 C882 0.930 . S
H869 C884 0.960 . S
H870 C884 0.960 . S
H871 C884 0.960 . S
C872 H864 0.929 . S
C872 C873 1.377 . S
C872 C874 1.384 . S
C873 C872 1.377 . S
C873 C879 1.390 . S
C874 H865 0.930 . S
C874 C872 1.384 . S
C874 C875 1.372 . S
C875 C874 1.372 . S
C875 C876 1.400 . S
C875 C880 1.490 . S
C876 H866 0.930 . S
C876 C875 1.400 . S
C876 C879 1.386 . S
H877 C893 0.930 . S
H878 C894 0.931 . S
C879 H867 0.929 . S
C879 C873 1.390 . S
C879 C876 1.386 . S
C880 C875 1.490 . S
C880 C882 1.395 . S
C880 C883 1.403 . S
H881 C887 0.930 . S
C882 H868 0.930 . S
C882 C880 1.395 . S
C882 C885 1.403 . S
C883 C880 1.403 . S
C883 C884 1.524 . S
C883 C887 1.400 . S
C884 H869 0.960 . S
C884 H870 0.960 . S
C884 H871 0.960 . S
C884 C883 1.524 . S
C885 C882 1.403 . S
C885 C886 1.392 . S
C885 C889 1.495 . S
C886 C885 1.392 . S
C886 C887 1.385 . S
C886 C888 1.478 . S
C887 H881 0.930 . S
C887 C883 1.400 . S
C887 C886 1.385 . S
C888 C886 1.478 . S
C888 C890 1.381 . S
C888 C894 1.383 . S
C889 C885 1.495 . S
C889 H895 0.959 . S
C889 H896 0.961 . S
C889 H897 0.960 . S
C890 C888 1.381 . S
C890 C891 1.394 . S
C890 H898 0.930 . S
C891 C890 1.394 . S
C891 C892 1.383 . S
C891 H899 0.929 . S
C892 C891 1.383 . S
C892 C893 1.377 . S
C893 H877 0.930 . S
C893 C892 1.377 . S
C893 C894 1.379 . S
C894 H878 0.931 . S
C894 C888 1.383 . S
C894 C893 1.379 . S
H895 C889 0.959 . S
H896 C889 0.961 . S
H897 C889 0.960 . S
H898 C890 0.930 . S
H899 C891 0.929 . S
H900 C908 0.929 . S
H901 C910 0.930 . S
H902 C912 0.930 . S
H903 C915 0.929 . S
H904 C918 0.930 . S
H905 C920 0.960 . S
H906 C920 0.960 . S
H907 C920 0.960 . S
C908 H900 0.929 . S
C908 C909 1.377 . S
C908 C910 1.384 . S
C909 C908 1.377 . S
C909 C915 1.390 . S
C910 H901 0.930 . S
C910 C908 1.384 . S
C910 C911 1.372 . S
C911 C910 1.372 . S
C911 C912 1.400 . S
C911 C916 1.490 . S
C912 H902 0.930 . S
C912 C911 1.400 . S
C912 C915 1.386 . S
H913 C929 0.930 . S
H914 C930 0.931 . S
C915 H903 0.929 . S
C915 C909 1.390 . S
C915 C912 1.386 . S
C916 C911 1.490 . S
C916 C918 1.395 . S
C916 C919 1.403 . S
H917 C923 0.930 . S
C918 H904 0.930 . S
C918 C916 1.395 . S
C918 C921 1.403 . S
C919 C916 1.403 . S
C919 C920 1.524 . S
C919 C923 1.400 . S
C920 H905 0.960 . S
C920 H906 0.960 . S
C920 H907 0.960 . S
C920 C919 1.524 . S
C921 C918 1.403 . S
C921 C922 1.392 . S
C921 C925 1.495 . S
C922 C921 1.392 . S
C922 C923 1.385 . S
C922 C924 1.478 . S
C923 H917 0.930 . S
C923 C919 1.400 . S
C923 C922 1.385 . S
C924 C922 1.478 . S
C924 C926 1.381 . S
C924 C930 1.383 . S
C925 C921 1.495 . S
C925 H931 0.959 . S
C925 H932 0.961 . S
C925 H933 0.960 . S
C926 C924 1.381 . S
C926 C927 1.394 . S
C926 H934 0.930 . S
C927 C926 1.394 . S
C927 C928 1.383 . S
C927 H935 0.929 . S
C928 C927 1.383 . S
C928 C929 1.377 . S
C929 H913 0.930 . S
C929 C928 1.377 . S
C929 C930 1.379 . S
C930 H914 0.931 . S
C930 C924 1.383 . S
C930 C929 1.379 . S
H931 C925 0.959 . S
H932 C925 0.961 . S
H933 C925 0.960 . S
H934 C926 0.930 . S
H935 C927 0.929 . S
H936 C944 0.929 . S
H937 C946 0.930 . S
H938 C948 0.930 . S
H939 C951 0.929 . S
H940 C954 0.930 . S
H941 C956 0.960 . S
H942 C956 0.960 . S
H943 C956 0.960 . S
C944 H936 0.929 . S
C944 C945 1.377 1_556 S
C944 C946 1.384 . S
C945 C944 1.377 1_554 S
C945 C951 1.390 . S
C946 H937 0.930 . S
C946 C944 1.384 . S
C946 C947 1.372 . S
C947 C946 1.372 . S
C947 C948 1.400 1_556 S
C947 C952 1.490 . S
C948 H938 0.930 . S
C948 C947 1.400 1_554 S
C948 C951 1.386 . S
H949 C965 0.930 . S
H950 C966 0.931 . S
C951 H939 0.929 . S
C951 C945 1.390 . S
C951 C948 1.386 . S
C952 C947 1.490 . S
C952 C954 1.395 . S
C952 C955 1.403 . S
H953 C959 0.930 . S
C954 H940 0.930 . S
C954 C952 1.395 . S
C954 C957 1.403 . S
C955 C952 1.403 . S
C955 C956 1.524 1_556 S
C955 C959 1.400 . S
C956 H941 0.960 . S
C956 H942 0.960 . S
C956 H943 0.960 . S
C956 C955 1.524 1_554 S
C957 C954 1.403 . S
C957 C958 1.392 . S
C957 C961 1.495 . S
C958 C957 1.392 . S
C958 C959 1.385 . S
C958 C960 1.478 . S
C959 H953 0.930 . S
C959 C955 1.400 . S
C959 C958 1.385 . S
C960 C958 1.478 . S
C960 C962 1.381 . S
C960 C966 1.383 . S
C961 C957 1.495 . S
C961 H967 0.959 . S
C961 H968 0.961 . S
C961 H969 0.960 . S
C962 C960 1.381 . S
C962 C963 1.394 . S
C962 H970 0.930 . S
C963 C962 1.394 . S
C963 C964 1.383 . S
C963 H971 0.929 . S
C964 C963 1.383 . S
C964 C965 1.377 . S
C965 H949 0.930 . S
C965 C964 1.377 . S
C965 C966 1.379 . S
C966 H950 0.931 . S
C966 C960 1.383 . S
C966 C965 1.379 . S
H967 C961 0.959 . S
H968 C961 0.961 . S
H969 C961 0.960 . S
H970 C962 0.930 . S
H971 C963 0.929 . S
H972 C980 0.929 . S
H973 C982 0.930 . S
H974 C984 0.930 . S
H975 C987 0.929 . S
H976 C990 0.930 . S
H977 C992 0.960 . S
H978 C992 0.960 . S
H979 C992 0.960 . S
C980 H972 0.929 . S
C980 C981 1.377 . S
C980 C982 1.384 . S
C981 C980 1.377 . S
C981 C987 1.390 . S
C982 H973 0.930 . S
C982 C980 1.384 . S
C982 C983 1.372 . S
C983 C982 1.372 . S
C983 C984 1.400 . S
C983 C988 1.490 . S
C984 H974 0.930 . S
C984 C983 1.400 . S
C984 C987 1.386 . S
H985 C1001 0.930 . S
H986 C1002 0.931 . S
C987 H975 0.929 . S
C987 C981 1.390 . S
C987 C984 1.386 . S
C988 C983 1.490 . S
C988 C990 1.395 . S
C988 C991 1.403 . S
H989 C995 0.930 . S
C990 H976 0.930 . S
C990 C988 1.395 . S
C990 C993 1.403 . S
C991 C988 1.403 . S
C991 C992 1.524 . S
C991 C995 1.400 . S
C992 H977 0.960 . S
C992 H978 0.960 . S
C992 H979 0.960 . S
C992 C991 1.524 . S
C993 C990 1.403 . S
C993 C994 1.392 . S
C993 C997 1.495 . S
C994 C993 1.392 . S
C994 C995 1.385 . S
C994 C996 1.478 . S
C995 H989 0.930 . S
C995 C991 1.400 . S
C995 C994 1.385 . S
C996 C994 1.478 . S
C996 C998 1.381 . S
C996 C1002 1.383 . S
C997 C993 1.495 . S
C997 H1003 0.959 . S
C997 H1004 0.961 . S
C997 H1005 0.960 . S
C998 C996 1.381 . S
C998 C999 1.394 . S
C998 H1006 0.930 . S
C999 C998 1.394 . S
C999 C1000 1.383 . S
C999 H1007 0.929 . S
C1000 C999 1.383 . S
C1000 C1001 1.377 . S
C1001 H985 0.930 . S
C1001 C1000 1.377 . S
C1001 C1002 1.379 . S
C1002 H986 0.931 . S
C1002 C996 1.383 . S
C1002 C1001 1.379 . S
H1003 C997 0.959 . S
H1004 C997 0.961 . S
H1005 C997 0.960 . S
H1006 C998 0.930 . S
H1007 C999 0.929 . S
H1008 C1016 0.929 . S
H1009 C1018 0.930 . S
H1010 C1020 0.930 . S
H1011 C1023 0.929 . S
H1012 C1026 0.930 . S
H1013 C1028 0.960 . S
H1014 C1028 0.960 . S
H1015 C1028 0.960 . S
C1016 H1008 0.929 . S
C1016 C1017 1.377 . S
C1016 C1018 1.384 . S
C1017 C1016 1.377 . S
C1017 C1023 1.390 . S
C1018 H1009 0.930 . S
C1018 C1016 1.384 . S
C1018 C1019 1.372 . S
C1019 C1018 1.372 . S
C1019 C1020 1.400 . S
C1019 C1024 1.490 . S
C1020 H1010 0.930 . S
C1020 C1019 1.400 . S
C1020 C1023 1.386 . S
H1021 C1037 0.930 . S
H1022 C1038 0.931 . S
C1023 H1011 0.929 . S
C1023 C1017 1.390 . S
C1023 C1020 1.386 . S
C1024 C1019 1.490 . S
C1024 C1026 1.395 . S
C1024 C1027 1.403 . S
H1025 C1031 0.930 . S
C1026 H1012 0.930 . S
C1026 C1024 1.395 . S
C1026 C1029 1.403 . S
C1027 C1024 1.403 . S
C1027 C1028 1.524 . S
C1027 C1031 1.400 . S
C1028 H1013 0.960 . S
C1028 H1014 0.960 . S
C1028 H1015 0.960 . S
C1028 C1027 1.524 . S
C1029 C1026 1.403 . S
C1029 C1030 1.392 . S
C1029 C1033 1.495 . S
C1030 C1029 1.392 . S
C1030 C1031 1.385 . S
C1030 C1032 1.478 . S
C1031 H1025 0.930 . S
C1031 C1027 1.400 . S
C1031 C1030 1.385 . S
C1032 C1030 1.478 . S
C1032 C1034 1.381 . S
C1032 C1038 1.383 . S
C1033 C1029 1.495 . S
C1033 H1039 0.959 . S
C1033 H1040 0.961 . S
C1033 H1041 0.960 . S
C1034 C1032 1.381 . S
C1034 C1035 1.394 . S
C1034 H1042 0.930 . S
C1035 C1034 1.394 . S
C1035 C1036 1.383 . S
C1035 H1043 0.929 . S
C1036 C1035 1.383 . S
C1036 C1037 1.377 . S
C1037 H1021 0.930 . S
C1037 C1036 1.377 . S
C1037 C1038 1.379 . S
C1038 H1022 0.931 . S
C1038 C1032 1.383 . S
C1038 C1037 1.379 . S
H1039 C1033 0.959 . S
H1040 C1033 0.961 . S
H1041 C1033 0.960 . S
H1042 C1034 0.930 . S
H1043 C1035 0.929 . S
H1044 C1052 0.929 . S
H1045 C1054 0.930 . S
H1046 C1056 0.930 . S
H1047 C1059 0.929 . S
H1048 C1062 0.930 . S
H1049 C1064 0.960 . S
H1050 C1064 0.960 . S
H1051 C1064 0.960 . S
C1052 H1044 0.929 . S
C1052 C1053 1.377 . S
C1052 C1054 1.384 . S
C1053 C1052 1.377 . S
C1053 C1059 1.390 . S
C1054 H1045 0.930 . S
C1054 C1052 1.384 . S
C1054 C1055 1.372 . S
C1055 C1054 1.372 . S
C1055 C1056 1.400 . S
C1055 C1060 1.490 . S
C1056 H1046 0.930 . S
C1056 C1055 1.400 . S
C1056 C1059 1.386 . S
H1057 C1073 0.930 . S
H1058 C1074 0.931 . S
C1059 H1047 0.929 . S
C1059 C1053 1.390 . S
C1059 C1056 1.386 . S
C1060 C1055 1.490 . S
C1060 C1062 1.395 . S
C1060 C1063 1.403 . S
H1061 C1067 0.930 . S
C1062 H1048 0.930 . S
C1062 C1060 1.395 . S
C1062 C1065 1.403 . S
C1063 C1060 1.403 . S
C1063 C1064 1.524 . S
C1063 C1067 1.400 . S
C1064 H1049 0.960 . S
C1064 H1050 0.960 . S
C1064 H1051 0.960 . S
C1064 C1063 1.524 . S
C1065 C1062 1.403 . S
C1065 C1066 1.392 . S
C1065 C1069 1.495 . S
C1066 C1065 1.392 . S
C1066 C1067 1.385 . S
C1066 C1068 1.478 . S
C1067 H1061 0.930 . S
C1067 C1063 1.400 . S
C1067 C1066 1.385 . S
C1068 C1066 1.478 . S
C1068 C1070 1.381 . S
C1068 C1074 1.383 . S
C1069 C1065 1.495 . S
C1069 H1075 0.959 . S
C1069 H1076 0.961 . S
C1069 H1077 0.960 . S
C1070 C1068 1.381 . S
C1070 C1071 1.394 . S
C1070 H1078 0.930 . S
C1071 C1070 1.394 . S
C1071 C1072 1.383 . S
C1071 H1079 0.929 . S
C1072 C1071 1.383 . S
C1072 C1073 1.377 . S
C1073 H1057 0.930 . S
C1073 C1072 1.377 . S
C1073 C1074 1.379 . S
C1074 H1058 0.931 . S
C1074 C1068 1.383 . S
C1074 C1073 1.379 . S
H1075 C1069 0.959 . S
H1076 C1069 0.961 . S
H1077 C1069 0.960 . S
H1078 C1070 0.930 . S
H1079 C1071 0.929 . S
H1080 C1088 0.929 . S
H1081 C1090 0.930 . S
H1082 C1092 0.930 . S
H1083 C1095 0.929 . S
H1084 C1098 0.930 . S
H1085 C1100 0.960 . S
H1086 C1100 0.960 . S
H1087 C1100 0.960 . S
C1088 H1080 0.929 . S
C1088 C1089 1.377 . S
C1088 C1090 1.384 . S
C1089 C1088 1.377 . S
C1089 C1095 1.390 . S
C1090 H1081 0.930 . S
C1090 C1088 1.384 . S
C1090 C1091 1.372 . S
C1091 C1090 1.372 . S
C1091 C1092 1.400 . S
C1091 C1096 1.490 . S
C1092 H1082 0.930 . S
C1092 C1091 1.400 . S
C1092 C1095 1.386 . S
H1093 C1109 0.930 . S
H1094 C1110 0.931 . S
C1095 H1083 0.929 . S
C1095 C1089 1.390 . S
C1095 C1092 1.386 . S
C1096 C1091 1.490 . S
C1096 C1098 1.395 . S
C1096 C1099 1.403 . S
H1097 C1103 0.930 . S
C1098 H1084 0.930 . S
C1098 C1096 1.395 . S
C1098 C1101 1.403 . S
C1099 C1096 1.403 . S
C1099 C1100 1.524 . S
C1099 C1103 1.400 . S
C1100 H1085 0.960 . S
C1100 H1086 0.960 . S
C1100 H1087 0.960 . S
C1100 C1099 1.524 . S
C1101 C1098 1.403 . S
C1101 C1102 1.392 . S
C1101 C1105 1.495 . S
C1102 C1101 1.392 . S
C1102 C1103 1.385 . S
C1102 C1104 1.478 . S
C1103 H1097 0.930 . S
C1103 C1099 1.400 . S
C1103 C1102 1.385 . S
C1104 C1102 1.478 . S
C1104 C1106 1.381 . S
C1104 C1110 1.383 . S
C1105 C1101 1.495 . S
C1105 H1111 0.959 . S
C1105 H1112 0.961 . S
C1105 H1113 0.960 . S
C1106 C1104 1.381 . S
C1106 C1107 1.394 . S
C1106 H1114 0.930 . S
C1107 C1106 1.394 . S
C1107 C1108 1.383 . S
C1107 H1115 0.929 . S
C1108 C1107 1.383 . S
C1108 C1109 1.377 . S
C1109 H1093 0.930 . S
C1109 C1108 1.377 . S
C1109 C1110 1.379 . S
C1110 H1094 0.931 . S
C1110 C1104 1.383 . S
C1110 C1109 1.379 . S
H1111 C1105 0.959 . S
H1112 C1105 0.961 . S
H1113 C1105 0.960 . S
H1114 C1106 0.930 . S
H1115 C1107 0.929 . S
H1116 C1124 0.929 . S
H1117 C1126 0.930 . S
H1118 C1128 0.930 . S
H1119 C1131 0.929 . S
H1120 C1134 0.930 . S
H1121 C1136 0.960 . S
H1122 C1136 0.960 . S
H1123 C1136 0.960 . S
C1124 H1116 0.929 . S
C1124 C1125 1.377 . S
C1124 C1126 1.384 . S
C1125 C1124 1.377 . S
C1125 C1131 1.390 . S
C1126 H1117 0.930 . S
C1126 C1124 1.384 . S
C1126 C1127 1.372 . S
C1127 C1126 1.372 . S
C1127 C1128 1.400 . S
C1127 C1132 1.490 . S
C1128 H1118 0.930 . S
C1128 C1127 1.400 . S
C1128 C1131 1.386 . S
H1129 C1145 0.930 . S
H1130 C1146 0.931 . S
C1131 H1119 0.929 . S
C1131 C1125 1.390 . S
C1131 C1128 1.386 . S
C1132 C1127 1.490 . S
C1132 C1134 1.395 . S
C1132 C1135 1.403 . S
H1133 C1139 0.930 . S
C1134 H1120 0.930 . S
C1134 C1132 1.395 . S
C1134 C1137 1.403 . S
C1135 C1132 1.403 . S
C1135 C1136 1.524 . S
C1135 C1139 1.400 . S
C1136 H1121 0.960 . S
C1136 H1122 0.960 . S
C1136 H1123 0.960 . S
C1136 C1135 1.524 . S
C1137 C1134 1.403 . S
C1137 C1138 1.392 . S
C1137 C1141 1.495 . S
C1138 C1137 1.392 . S
C1138 C1139 1.385 . S
C1138 C1140 1.478 . S
C1139 H1133 0.930 . S
C1139 C1135 1.400 . S
C1139 C1138 1.385 . S
C1140 C1138 1.478 . S
C1140 C1142 1.381 . S
C1140 C1146 1.383 . S
C1141 C1137 1.495 . S
C1141 H1147 0.959 . S
C1141 H1148 0.961 . S
C1141 H1149 0.960 . S
C1142 C1140 1.381 . S
C1142 C1143 1.394 . S
C1142 H1150 0.930 . S
C1143 C1142 1.394 . S
C1143 C1144 1.383 . S
C1143 H1151 0.929 . S
C1144 C1143 1.383 . S
C1144 C1145 1.377 . S
C1145 H1129 0.930 . S
C1145 C1144 1.377 . S
C1145 C1146 1.379 . S
C1146 H1130 0.931 . S
C1146 C1140 1.383 . S
C1146 C1145 1.379 . S
H1147 C1141 0.959 . S
H1148 C1141 0.961 . S
H1149 C1141 0.960 . S
H1150 C1142 0.930 . S
H1151 C1143 0.929 . S
H1152 C1160 0.929 . S
H1153 C1162 0.930 . S
H1154 C1164 0.930 . S
H1155 C1167 0.929 . S
H1156 C1170 0.930 . S
H1157 C1172 0.960 . S
H1158 C1172 0.960 . S
H1159 C1172 0.960 . S
C1160 H1152 0.929 . S
C1160 C1161 1.377 . S
C1160 C1162 1.384 . S
C1161 C1160 1.377 . S
C1161 C1167 1.390 . S
C1162 H1153 0.930 . S
C1162 C1160 1.384 . S
C1162 C1163 1.372 . S
C1163 C1162 1.372 . S
C1163 C1164 1.400 . S
C1163 C1168 1.490 . S
C1164 H1154 0.930 . S
C1164 C1163 1.400 . S
C1164 C1167 1.386 . S
H1165 C1181 0.930 . S
H1166 C1182 0.931 . S
C1167 H1155 0.929 . S
C1167 C1161 1.390 . S
C1167 C1164 1.386 . S
C1168 C1163 1.490 . S
C1168 C1170 1.395 . S
C1168 C1171 1.403 . S
H1169 C1175 0.930 . S
C1170 H1156 0.930 . S
C1170 C1168 1.395 . S
C1170 C1173 1.403 . S
C1171 C1168 1.403 . S
C1171 C1172 1.524 . S
C1171 C1175 1.400 . S
C1172 H1157 0.960 . S
C1172 H1158 0.960 . S
C1172 H1159 0.960 . S
C1172 C1171 1.524 . S
C1173 C1170 1.403 . S
C1173 C1174 1.392 . S
C1173 C1177 1.495 . S
C1174 C1173 1.392 . S
C1174 C1175 1.385 . S
C1174 C1176 1.478 . S
C1175 H1169 0.930 . S
C1175 C1171 1.400 . S
C1175 C1174 1.385 . S
C1176 C1174 1.478 . S
C1176 C1178 1.381 . S
C1176 C1182 1.383 . S
C1177 C1173 1.495 . S
C1177 H1183 0.959 . S
C1177 H1184 0.961 . S
C1177 H1185 0.960 . S
C1178 C1176 1.381 . S
C1178 C1179 1.394 . S
C1178 H1186 0.930 . S
C1179 C1178 1.394 . S
C1179 C1180 1.383 . S
C1179 H1187 0.929 . S
C1180 C1179 1.383 . S
C1180 C1181 1.377 . S
C1181 H1165 0.930 . S
C1181 C1180 1.377 . S
C1181 C1182 1.379 . S
C1182 H1166 0.931 . S
C1182 C1176 1.383 . S
C1182 C1181 1.379 . S
H1183 C1177 0.959 . S
H1184 C1177 0.961 . S
H1185 C1177 0.960 . S
H1186 C1178 0.930 . S
H1187 C1179 0.929 . S
H1188 C1196 0.929 . S
H1189 C1198 0.930 . S
H1190 C1200 0.930 . S
H1191 C1203 0.929 . S
H1192 C1206 0.930 . S
H1193 C1208 0.960 . S
H1194 C1208 0.960 . S
H1195 C1208 0.960 . S
C1196 H1188 0.929 . S
C1196 C1197 1.377 . S
C1196 C1198 1.384 . S
C1197 C1196 1.377 . S
C1197 C1203 1.390 . S
C1198 H1189 0.930 . S
C1198 C1196 1.384 . S
C1198 C1199 1.372 . S
C1199 C1198 1.372 . S
C1199 C1200 1.400 . S
C1199 C1204 1.490 . S
C1200 H1190 0.930 . S
C1200 C1199 1.400 . S
C1200 C1203 1.386 . S
H1201 C1217 0.930 . S
H1202 C1218 0.931 . S
C1203 H1191 0.929 . S
C1203 C1197 1.390 . S
C1203 C1200 1.386 . S
C1204 C1199 1.490 . S
C1204 C1206 1.395 . S
C1204 C1207 1.403 . S
H1205 C1211 0.930 . S
C1206 H1192 0.930 . S
C1206 C1204 1.395 . S
C1206 C1209 1.403 . S
C1207 C1204 1.403 . S
C1207 C1208 1.524 . S
C1207 C1211 1.400 . S
C1208 H1193 0.960 . S
C1208 H1194 0.960 . S
C1208 H1195 0.960 . S
C1208 C1207 1.524 . S
C1209 C1206 1.403 . S
C1209 C1210 1.392 . S
C1209 C1213 1.495 1_655 S
C1210 C1209 1.392 . S
C1210 C1211 1.385 . S
C1210 C1212 1.478 . S
C1211 H1205 0.930 . S
C1211 C1207 1.400 . S
C1211 C1210 1.385 . S
C1212 C1210 1.478 . S
C1212 C1214 1.381 . S
C1212 C1218 1.383 . S
C1213 C1209 1.495 1_455 S
C1213 H1219 0.959 . S
C1213 H1220 0.961 . S
C1213 H1221 0.960 . S
C1214 C1212 1.381 . S
C1214 C1215 1.394 . S
C1214 H1222 0.930 . S
C1215 C1214 1.394 . S
C1215 C1216 1.383 . S
C1215 H1223 0.929 . S
C1216 C1215 1.383 . S
C1216 C1217 1.377 . S
C1217 H1201 0.930 . S
C1217 C1216 1.377 . S
C1217 C1218 1.379 . S
C1218 H1202 0.931 . S
C1218 C1212 1.383 . S
C1218 C1217 1.379 . S
H1219 C1213 0.959 . S
H1220 C1213 0.961 . S
H1221 C1213 0.960 . S
H1222 C1214 0.930 . S
H1223 C1215 0.929 . S
H1224 C1232 0.929 . S
H1225 C1234 0.930 . S
H1226 C1236 0.930 . S
H1227 C1239 0.929 . S
H1228 C1242 0.930 . S
H1229 C1244 0.960 . S
H1230 C1244 0.960 . S
H1231 C1244 0.960 . S
C1232 H1224 0.929 . S
C1232 C1233 1.377 . S
C1232 C1234 1.384 . S
C1233 C1232 1.377 . S
C1233 C1239 1.390 . S
C1234 H1225 0.930 . S
C1234 C1232 1.384 . S
C1234 C1235 1.372 . S
C1235 C1234 1.372 . S
C1235 C1236 1.400 . S
C1235 C1240 1.490 . S
C1236 H1226 0.930 . S
C1236 C1235 1.400 . S
C1236 C1239 1.386 . S
H1237 C1253 0.930 . S
H1238 C1254 0.931 . S
C1239 H1227 0.929 . S
C1239 C1233 1.390 . S
C1239 C1236 1.386 . S
C1240 C1235 1.490 . S
C1240 C1242 1.395 . S
C1240 C1243 1.403 . S
H1241 C1247 0.930 . S
C1242 H1228 0.930 . S
C1242 C1240 1.395 . S
C1242 C1245 1.403 . S
C1243 C1240 1.403 . S
C1243 C1244 1.524 . S
C1243 C1247 1.400 . S
C1244 H1229 0.960 . S
C1244 H1230 0.960 . S
C1244 H1231 0.960 . S
C1244 C1243 1.524 . S
C1245 C1242 1.403 . S
C1245 C1246 1.392 . S
C1245 C1249 1.495 . S
C1246 C1245 1.392 . S
C1246 C1247 1.385 . S
C1246 C1248 1.478 . S
C1247 H1241 0.930 . S
C1247 C1243 1.400 . S
C1247 C1246 1.385 . S
C1248 C1246 1.478 . S
C1248 C1250 1.381 . S
C1248 C1254 1.383 . S
C1249 C1245 1.495 . S
C1249 H1255 0.959 . S
C1249 H1256 0.961 . S
C1249 H1257 0.960 . S
C1250 C1248 1.381 . S
C1250 C1251 1.394 . S
C1250 H1258 0.930 . S
C1251 C1250 1.394 . S
C1251 C1252 1.383 . S
C1251 H1259 0.929 . S
C1252 C1251 1.383 . S
C1252 C1253 1.377 . S
C1253 H1237 0.930 . S
C1253 C1252 1.377 . S
C1253 C1254 1.379 . S
C1254 H1238 0.931 . S
C1254 C1248 1.383 . S
C1254 C1253 1.379 . S
H1255 C1249 0.959 . S
H1256 C1249 0.961 . S
H1257 C1249 0.960 . S
H1258 C1250 0.930 . S
H1259 C1251 0.929 . S
H1260 C1268 0.929 . S
H1261 C1270 0.930 . S
H1262 C1272 0.930 . S
H1263 C1275 0.929 . S
H1264 C1278 0.930 . S
H1265 C1280 0.960 . S
H1266 C1280 0.960 . S
H1267 C1280 0.960 . S
C1268 H1260 0.929 . S
C1268 C1269 1.377 . S
C1268 C1270 1.384 . S
C1269 C1268 1.377 . S
C1269 C1275 1.390 . S
C1270 H1261 0.930 . S
C1270 C1268 1.384 . S
C1270 C1271 1.372 . S
C1271 C1270 1.372 . S
C1271 C1272 1.400 . S
C1271 C1276 1.490 . S
C1272 H1262 0.930 . S
C1272 C1271 1.400 . S
C1272 C1275 1.386 . S
H1273 C1289 0.930 . S
H1274 C1290 0.931 . S
C1275 H1263 0.929 . S
C1275 C1269 1.390 . S
C1275 C1272 1.386 . S
C1276 C1271 1.490 . S
C1276 C1278 1.395 . S
C1276 C1279 1.403 . S
H1277 C1283 0.930 . S
C1278 H1264 0.930 . S
C1278 C1276 1.395 . S
C1278 C1281 1.403 . S
C1279 C1276 1.403 . S
C1279 C1280 1.524 . S
C1279 C1283 1.400 . S
C1280 H1265 0.960 . S
C1280 H1266 0.960 . S
C1280 H1267 0.960 . S
C1280 C1279 1.524 . S
C1281 C1278 1.403 . S
C1281 C1282 1.392 . S
C1281 C1285 1.495 . S
C1282 C1281 1.392 . S
C1282 C1283 1.385 . S
C1282 C1284 1.478 . S
C1283 H1277 0.930 . S
C1283 C1279 1.400 . S
C1283 C1282 1.385 . S
C1284 C1282 1.478 . S
C1284 C1286 1.381 . S
C1284 C1290 1.383 . S
C1285 C1281 1.495 . S
C1285 H1291 0.959 . S
C1285 H1292 0.961 . S
C1285 H1293 0.960 . S
C1286 C1284 1.381 . S
C1286 C1287 1.394 . S
C1286 H1294 0.930 . S
C1287 C1286 1.394 . S
C1287 C1288 1.383 . S
C1287 H1295 0.929 . S
C1288 C1287 1.383 . S
C1288 C1289 1.377 . S
C1289 H1273 0.930 . S
C1289 C1288 1.377 . S
C1289 C1290 1.379 . S
C1290 H1274 0.931 . S
C1290 C1284 1.383 . S
C1290 C1289 1.379 . S
H1291 C1285 0.959 . S
H1292 C1285 0.961 . S
H1293 C1285 0.960 . S
H1294 C1286 0.930 . S
H1295 C1287 0.929 . S
H1296 C1304 0.929 . S
H1297 C1306 0.930 . S
H1298 C1308 0.930 . S
H1299 C1311 0.929 . S
H1300 C1314 0.930 . S
H1301 C1316 0.960 . S
H1302 C1316 0.960 . S
H1303 C1316 0.960 . S
C1304 H1296 0.929 . S
C1304 C1305 1.377 1_655 S
C1304 C1306 1.384 . S
C1305 C1304 1.377 1_455 S
C1305 C1311 1.390 . S
C1306 H1297 0.930 . S
C1306 C1304 1.384 . S
C1306 C1307 1.372 1_655 S
C1307 C1306 1.372 1_455 S
C1307 C1308 1.400 . S
C1307 C1312 1.493 . S
C1308 H1298 0.930 . S
C1308 C1307 1.400 . S
C1308 C1311 1.386 . S
H1309 C1325 0.930 . S
H1310 C1326 0.931 . S
C1311 H1299 0.929 . S
C1311 C1305 1.390 . S
C1311 C1308 1.386 . S
C1312 C1307 1.493 . S
C1312 C1314 1.388 1_455 S
C1312 C1315 1.407 . S
H1313 C1319 0.930 . S
C1314 H1300 0.930 . S
C1314 C1312 1.388 1_655 S
C1314 C1317 1.403 . S
C1315 C1312 1.407 . S
C1315 C1316 1.524 . S
C1315 C1319 1.400 . S
C1316 H1301 0.960 . S
C1316 H1302 0.960 . S
C1316 H1303 0.960 . S
C1316 C1315 1.524 . S
C1317 C1314 1.403 . S
C1317 C1318 1.392 . S
C1317 C1321 1.495 . S
C1318 C1317 1.392 . S
C1318 C1319 1.385 1_655 S
C1318 C1320 1.478 . S
C1319 H1313 0.930 . S
C1319 C1315 1.400 . S
C1319 C1318 1.385 1_455 S
C1320 C1318 1.478 . S
C1320 C1322 1.381 . S
C1320 C1326 1.383 1_655 S
C1321 C1317 1.495 . S
C1321 H1327 0.959 . S
C1321 H1328 0.961 . S
C1321 H1329 0.960 . S
C1322 C1320 1.381 . S
C1322 C1323 1.394 . S
C1322 H1330 0.930 . S
C1323 C1322 1.394 . S
C1323 C1324 1.383 . S
C1323 H1331 0.929 . S
C1324 C1323 1.383 . S
C1324 C1325 1.377 1_655 S
C1325 H1309 0.930 . S
C1325 C1324 1.377 1_455 S
C1325 C1326 1.379 . S
C1326 H1310 0.931 . S
C1326 C1320 1.383 1_455 S
C1326 C1325 1.379 . S
H1327 C1321 0.959 . S
H1328 C1321 0.961 . S
H1329 C1321 0.960 . S
H1330 C1322 0.930 . S
H1331 C1323 0.929 . S
H1332 C1340 0.929 . S
H1333 C1342 0.930 . S
H1334 C1344 0.930 . S
H1335 C1347 0.929 . S
H1336 C1350 0.930 . S
H1337 C1352 0.960 . S
H1338 C1352 0.960 . S
H1339 C1352 0.960 . S
C1340 H1332 0.929 . S
C1340 C1341 1.377 . S
C1340 C1342 1.384 . S
C1341 C1340 1.377 . S
C1341 C1347 1.390 1_545 S
C1342 H1333 0.930 . S
C1342 C1340 1.384 . S
C1342 C1343 1.372 . S
C1343 C1342 1.372 . S
C1343 C1344 1.400 1_545 S
C1343 C1348 1.490 . S
C1344 H1334 0.930 . S
C1344 C1343 1.400 1_565 S
C1344 C1347 1.386 . S
H1345 C1361 0.930 . S
H1346 C1362 0.931 . S
C1347 H1335 0.929 . S
C1347 C1341 1.390 1_565 S
C1347 C1344 1.386 . S
C1348 C1343 1.490 . S
C1348 C1350 1.395 . S
C1348 C1351 1.403 1_545 S
H1349 C1355 0.930 . S
C1350 H1336 0.930 . S
C1350 C1348 1.395 . S
C1350 C1353 1.403 1_556 S
C1351 C1348 1.403 1_565 S
C1351 C1352 1.524 . S
C1351 C1355 1.400 1_556 S
C1352 H1337 0.960 . S
C1352 H1338 0.960 . S
C1352 H1339 0.960 . S
C1352 C1351 1.524 . S
C1353 C1350 1.403 1_554 S
C1353 C1354 1.392 . S
C1353 C1357 1.495 . S
C1354 C1353 1.392 . S
C1354 C1355 1.385 1_545 S
C1354 C1356 1.478 1_545 S
C1355 H1349 0.930 . S
C1355 C1351 1.400 1_554 S
C1355 C1354 1.385 1_565 S
C1356 C1354 1.478 1_565 S
C1356 C1358 1.381 1_565 S
C1356 C1362 1.383 . S
C1357 C1353 1.495 . S
C1357 H1363 0.959 . S
C1357 H1364 0.961 . S
C1357 H1365 0.960 . S
C1358 C1356 1.381 1_545 S
C1358 C1359 1.394 . S
C1358 H1366 0.930 . S
C1359 C1358 1.394 . S
C1359 C1360 1.383 1_545 S
C1359 H1367 0.929 . S
C1360 C1359 1.383 1_565 S
C1360 C1361 1.377 . S
C1361 H1345 0.930 . S
C1361 C1360 1.377 . S
C1361 C1362 1.379 . S
C1362 H1346 0.931 . S
C1362 C1356 1.383 . S
C1362 C1361 1.379 . S
H1363 C1357 0.959 . S
H1364 C1357 0.961 . S
H1365 C1357 0.960 . S
H1366 C1358 0.930 . S
H1367 C1359 0.929 . S
H1368 C1376 0.929 . S
H1369 C1378 0.930 . S
H1370 C1380 0.930 . S
H1371 C1383 0.929 . S
H1372 C1386 0.930 . S
H1373 C1388 0.960 . S
H1374 C1388 0.960 . S
H1375 C1388 0.960 . S
C1376 H1368 0.929 . S
C1376 C1377 1.377 . S
C1376 C1378 1.384 . S
C1377 C1376 1.377 . S
C1377 C1383 1.390 . S
C1378 H1369 0.930 . S
C1378 C1376 1.384 . S
C1378 C1379 1.372 . S
C1379 C1378 1.372 . S
C1379 C1380 1.400 . S
C1379 C1384 1.490 . S
C1380 H1370 0.930 . S
C1380 C1379 1.400 . S
C1380 C1383 1.386 . S
H1381 C1397 0.930 . S
H1382 C1398 0.931 . S
C1383 H1371 0.929 . S
C1383 C1377 1.390 . S
C1383 C1380 1.386 . S
C1384 C1379 1.490 . S
C1384 C1386 1.395 . S
C1384 C1387 1.403 . S
H1385 C1391 0.930 . S
C1386 H1372 0.930 . S
C1386 C1384 1.395 . S
C1386 C1389 1.403 . S
C1387 C1384 1.403 . S
C1387 C1388 1.524 . S
C1387 C1391 1.400 . S
C1388 H1373 0.960 . S
C1388 H1374 0.960 . S
C1388 H1375 0.960 . S
C1388 C1387 1.524 . S
C1389 C1386 1.403 . S
C1389 C1390 1.392 . S
C1389 C1393 1.495 . S
C1390 C1389 1.392 . S
C1390 C1391 1.385 . S
C1390 C1392 1.478 . S
C1391 H1385 0.930 . S
C1391 C1387 1.400 . S
C1391 C1390 1.385 . S
C1392 C1390 1.478 . S
C1392 C1394 1.381 . S
C1392 C1398 1.383 . S
C1393 C1389 1.495 . S
C1393 H1399 0.959 . S
C1393 H1400 0.961 . S
C1393 H1401 0.960 . S
C1394 C1392 1.381 . S
C1394 C1395 1.394 . S
C1394 H1402 0.930 . S
C1395 C1394 1.394 . S
C1395 C1396 1.383 . S
C1395 H1403 0.929 . S
C1396 C1395 1.383 . S
C1396 C1397 1.377 . S
C1397 H1381 0.930 . S
C1397 C1396 1.377 . S
C1397 C1398 1.379 . S
C1398 H1382 0.931 . S
C1398 C1392 1.383 . S
C1398 C1397 1.379 . S
H1399 C1393 0.959 . S
H1400 C1393 0.961 . S
H1401 C1393 0.960 . S
H1402 C1394 0.930 . S
H1403 C1395 0.929 . S
H1404 C1412 0.929 . S
H1405 C1414 0.930 . S
H1406 C1416 0.939 . S
H1407 C1419 0.929 1_455 S
H1408 C1422 0.930 . S
H1409 C1424 0.960 . S
H1410 C1424 0.960 . S
H1411 C1424 0.960 . S
C1412 H1404 0.929 . S
C1412 C1413 1.377 . S
C1412 C1414 1.384 . S
C1413 C1412 1.377 . S
C1413 C1419 1.390 . S
C1414 H1405 0.930 . S
C1414 C1412 1.384 . S
C1414 C1415 1.372 . S
C1415 C1414 1.372 . S
C1415 C1416 1.392 1_655 S
C1415 C1420 1.490 . S
C1416 H1406 0.939 . S
C1416 C1415 1.392 1_455 S
C1416 C1419 1.385 1_455 S
H1417 C1433 0.930 . S
H1418 C1434 0.931 . S
C1419 H1407 0.929 1_655 S
C1419 C1413 1.390 . S
C1419 C1416 1.385 1_655 S
C1420 C1415 1.490 . S
C1420 C1422 1.395 . S
C1420 C1423 1.403 1_655 S
H1421 C1427 0.930 . S
C1422 H1408 0.930 . S
C1422 C1420 1.395 . S
C1422 C1425 1.403 . S
C1423 C1420 1.403 1_455 S
C1423 C1424 1.524 . S
C1423 C1427 1.400 . S
C1424 H1409 0.960 . S
C1424 H1410 0.960 . S
C1424 H1411 0.960 . S
C1424 C1423 1.524 . S
C1425 C1422 1.403 . S
C1425 C1426 1.392 . S
C1425 C1429 1.495 . S
C1426 C1425 1.392 . S
C1426 C1427 1.385 1_655 S
C1426 C1428 1.476 1_655 S
C1427 H1421 0.930 . S
C1427 C1423 1.400 . S
C1427 C1426 1.385 1_455 S
C1428 C1426 1.476 1_455 S
C1428 C1430 1.375 1_455 S
C1428 C1434 1.391 . S
C1429 C1425 1.495 . S
C1429 H1435 0.959 . S
C1429 H1436 0.961 . S
C1429 H1437 0.960 . S
C1430 C1428 1.375 1_655 S
C1430 C1431 1.394 1_655 S
C1430 H1438 0.930 . S
C1431 C1430 1.394 1_455 S
C1431 C1432 1.383 . S
C1431 H1439 0.929 . S
C1432 C1431 1.383 . S
C1432 C1433 1.377 . S
C1433 H1417 0.930 . S
C1433 C1432 1.377 . S
C1433 C1434 1.379 . S
C1434 H1418 0.931 . S
C1434 C1428 1.391 . S
C1434 C1433 1.379 . S
H1435 C1429 0.959 . S
H1436 C1429 0.961 . S
H1437 C1429 0.960 . S
H1438 C1430 0.930 . S
H1439 C1431 0.929 . S
H1440 C1448 0.929 . S
H1441 C1450 0.930 . S
H1442 C1452 0.930 . S
H1443 C1455 0.929 . S
H1444 C1458 0.932 . S
H1445 C1460 0.960 . S
H1446 C1460 0.960 . S
H1447 C1460 0.960 1_565 S
C1448 H1440 0.929 . S
C1448 C1449 1.377 . S
C1448 C1450 1.384 . S
C1449 C1448 1.377 . S
C1449 C1455 1.390 1_545 S
C1450 H1441 0.930 . S
C1450 C1448 1.384 . S
C1450 C1451 1.372 . S
C1451 C1450 1.372 . S
C1451 C1452 1.400 1_545 S
C1451 C1456 1.490 . S
C1452 H1442 0.930 . S
C1452 C1451 1.400 1_565 S
C1452 C1455 1.386 . S
H1453 C1469 0.930 . S
H1454 C1470 0.931 . S
C1455 H1443 0.929 . S
C1455 C1449 1.390 1_565 S
C1455 C1452 1.386 . S
C1456 C1451 1.490 . S
C1456 C1458 1.418 . S
C1456 C1459 1.403 . S
H1457 C1463 0.933 . S
C1458 H1444 0.932 . S
C1458 C1456 1.418 . S
C1458 C1461 1.398 1_545 S
C1459 C1456 1.403 . S
C1459 C1460 1.524 . S
C1459 C1463 1.408 . S
C1460 H1445 0.960 . S
C1460 H1446 0.960 . S
C1460 H1447 0.960 1_545 S
C1460 C1459 1.524 . S
C1461 C1458 1.398 1_565 S
C1461 C1462 1.392 . S
C1461 C1465 1.495 . S
C1462 C1461 1.392 . S
C1462 C1463 1.360 1_565 S
C1462 C1464 1.478 . S
C1463 H1457 0.933 . S
C1463 C1459 1.408 . S
C1463 C1462 1.360 1_545 S
C1464 C1462 1.478 . S
C1464 C1466 1.381 1_565 S
C1464 C1470 1.383 . S
C1465 C1461 1.495 . S
C1465 H1471 0.959 . S
C1465 H1472 0.961 . S
C1465 H1473 0.960 1_565 S
C1466 C1464 1.381 1_545 S
C1466 C1467 1.394 . S
C1466 H1474 0.930 . S
C1467 C1466 1.394 . S
C1467 C1468 1.383 1_545 S
C1467 H1475 0.929 . S
C1468 C1467 1.383 1_565 S
C1468 C1469 1.377 . S
C1469 H1453 0.930 . S
C1469 C1468 1.377 . S
C1469 C1470 1.379 . S
C1470 H1454 0.931 . S
C1470 C1464 1.383 . S
C1470 C1469 1.379 . S
H1471 C1465 0.959 . S
H1472 C1465 0.961 . S
H1473 C1465 0.960 1_545 S
H1474 C1466 0.930 . S
H1475 C1467 0.929 . S
C405 C282 0.593 . S
C424 C18 0.617 . S
C441 C51 0.588 . S
C460 C315 0.556 . S
C477 C84 0.602 . S
C496 C348 0.629 . S
C513 C117 0.600 . S
C532 C381 0.606 . S
C549 C150 0.591 . S
C568 C216 0.566 . S
C585 C183 0.586 . S
C604 C249 0.575 . S
C621 N13 1.753 . S
C640 C172 1.713 . S
C657 C7 1.705 . S
C676 N46 1.739 . S
C693 N79 1.752 . S
C712 C40 1.715 . S
C729 C73 1.698 . S
C748 N112 1.754 . S
C765 C106 1.705 . S
C784 N145 1.739 . S
C801 N178 1.753 . S
C820 C139 1.711 . S
C837 C238 1.695 . S
C856 N211 1.761 . S
C873 C271 1.705 . S
C892 N244 1.740 . S
C909 C304 1.703 . S
C928 N277 1.743 . S
C945 C337 1.702 . S
C964 N310 1.746 . S
C981 C370 1.701 . S
C1000 N343 1.748 . S
C1017 N376 1.753 . S
C1036 C205 1.709 . S
C1053 C21 1.246 . S
C1072 C219 1.233 . S
C1089 C54 1.248 . S
C1108 C252 1.235 . S
C1125 C87 1.249 . S
C1144 C285 1.258 . S
C1161 C120 1.251 . S
C1180 C318 1.252 . S
C1197 C351 1.250 . S
C1216 C153 1.244 . S
C1233 C186 1.247 . S
C1252 C384 1.255 . S
C1269 N299 0.608 . S
C1288 N2 0.689 . S
C1305 N35 0.643 . S
C1324 N332 0.543 . S
C1341 N68 0.614 . S
C1360 N365 0.716 . S
C1377 N101 0.646 . S
C1396 N200 0.616 . S
C1413 N134 0.630 . S
C1432 N233 0.706 . S
C1449 N266 0.608 . S
C1468 N167 0.660 . S
