# Generated by pormake.
# Topology rhr-a, (3)-cn, num edge types: 1
# Building blocks:
#     Node 0, Type 0, BuildingBlock: WUSLED_clean_sbu_0, # of connection points: 3
#     Node 1, Type 0, BuildingBlock: WUSLED_clean_sbu_0, # of connection points: 3
#     Node 2, Type 0, BuildingBlock: WUSLED_clean_sbu_0, # of connection points: 3
#     Node 3, Type 0, BuildingBlock: WUSLED_clean_sbu_0, # of connection points: 3
#     Node 4, Type 0, BuildingBlock: WUSLED_clean_sbu_0, # of connection points: 3
#     Node 5, Type 0, BuildingBlock: WUSLED_clean_sbu_0, # of connection points: 3
#     Node 6, Type 0, BuildingBlock: WUSLED_clean_sbu_0, # of connection points: 3
#     Node 7, Type 0, BuildingBlock: WUSLED_clean_sbu_0, # of connection points: 3
#     Node 8, Type 0, BuildingBlock: WUSLED_clean_sbu_0, # of connection points: 3
#     Node 9, Type 0, BuildingBlock: WUSLED_clean_sbu_0, # of connection points: 3
#     Node 10, Type 0, BuildingBlock: WUSLED_clean_sbu_0, # of connection points: 3
#     Node 11, Type 0, BuildingBlock: WUSLED_clean_sbu_0, # of connection points: 3
#     Node 12, Type 0, BuildingBlock: WUSLED_clean_sbu_0, # of connection points: 3
#     Node 13, Type 0, BuildingBlock: WUSLED_clean_sbu_0, # of connection points: 3
#     Node 14, Type 0, BuildingBlock: WUSLED_clean_sbu_0, # of connection points: 3
#     Node 15, Type 0, BuildingBlock: WUSLED_clean_sbu_0, # of connection points: 3
#     Node 16, Type 0, BuildingBlock: WUSLED_clean_sbu_0, # of connection points: 3
#     Node 17, Type 0, BuildingBlock: WUSLED_clean_sbu_0, # of connection points: 3
#     Node 18, Type 0, BuildingBlock: WUSLED_clean_sbu_0, # of connection points: 3
#     Node 19, Type 0, BuildingBlock: WUSLED_clean_sbu_0, # of connection points: 3
#     Node 20, Type 0, BuildingBlock: WUSLED_clean_sbu_0, # of connection points: 3
#     Node 21, Type 0, BuildingBlock: WUSLED_clean_sbu_0, # of connection points: 3
#     Node 22, Type 0, BuildingBlock: WUSLED_clean_sbu_0, # of connection points: 3
#     Node 23, Type 0, BuildingBlock: WUSLED_clean_sbu_0, # of connection points: 3
#     Node 24, Type 0, BuildingBlock: WUSLED_clean_sbu_0, # of connection points: 3
#     Node 25, Type 0, BuildingBlock: WUSLED_clean_sbu_0, # of connection points: 3
#     Node 26, Type 0, BuildingBlock: WUSLED_clean_sbu_0, # of connection points: 3
#     Node 27, Type 0, BuildingBlock: WUSLED_clean_sbu_0, # of connection points: 3
#     Node 28, Type 0, BuildingBlock: WUSLED_clean_sbu_0, # of connection points: 3
#     Node 29, Type 0, BuildingBlock: WUSLED_clean_sbu_0, # of connection points: 3
#     Node 30, Type 0, BuildingBlock: WUSLED_clean_sbu_0, # of connection points: 3
#     Node 31, Type 0, BuildingBlock: WUSLED_clean_sbu_0, # of connection points: 3
#     Node 32, Type 0, BuildingBlock: WUSLED_clean_sbu_0, # of connection points: 3
#     Node 33, Type 0, BuildingBlock: WUSLED_clean_sbu_0, # of connection points: 3
#     Node 34, Type 0, BuildingBlock: WUSLED_clean_sbu_0, # of connection points: 3
#     Node 35, Type 0, BuildingBlock: WUSLED_clean_sbu_0, # of connection points: 3
#     Node 36, Type 0, BuildingBlock: WUSLED_clean_sbu_0, # of connection points: 3
#     Node 37, Type 0, BuildingBlock: WUSLED_clean_sbu_0, # of connection points: 3
#     Node 38, Type 0, BuildingBlock: WUSLED_clean_sbu_0, # of connection points: 3
#     Node 39, Type 0, BuildingBlock: WUSLED_clean_sbu_0, # of connection points: 3
#     Node 40, Type 0, BuildingBlock: WUSLED_clean_sbu_0, # of connection points: 3
#     Node 41, Type 0, BuildingBlock: WUSLED_clean_sbu_0, # of connection points: 3
#     Node 42, Type 0, BuildingBlock: WUSLED_clean_sbu_0, # of connection points: 3
#     Node 43, Type 0, BuildingBlock: WUSLED_clean_sbu_0, # of connection points: 3
#     Node 44, Type 0, BuildingBlock: WUSLED_clean_sbu_0, # of connection points: 3
#     Node 45, Type 0, BuildingBlock: WUSLED_clean_sbu_0, # of connection points: 3
#     Node 46, Type 0, BuildingBlock: WUSLED_clean_sbu_0, # of connection points: 3
#     Node 47, Type 0, BuildingBlock: WUSLED_clean_sbu_0, # of connection points: 3
#     Node 48, Type 0, BuildingBlock: WUSLED_clean_sbu_0, # of connection points: 3
#     Node 49, Type 0, BuildingBlock: WUSLED_clean_sbu_0, # of connection points: 3
#     Node 50, Type 0, BuildingBlock: WUSLED_clean_sbu_0, # of connection points: 3
#     Node 51, Type 0, BuildingBlock: WUSLED_clean_sbu_0, # of connection points: 3
#     Node 52, Type 0, BuildingBlock: WUSLED_clean_sbu_0, # of connection points: 3
#     Node 53, Type 0, BuildingBlock: WUSLED_clean_sbu_0, # of connection points: 3
#     Node 54, Type 0, BuildingBlock: WUSLED_clean_sbu_0, # of connection points: 3
#     Node 55, Type 0, BuildingBlock: WUSLED_clean_sbu_0, # of connection points: 3
#     Node 56, Type 0, BuildingBlock: WUSLED_clean_sbu_0, # of connection points: 3
#     Node 57, Type 0, BuildingBlock: WUSLED_clean_sbu_0, # of connection points: 3
#     Node 58, Type 0, BuildingBlock: WUSLED_clean_sbu_0, # of connection points: 3
#     Node 59, Type 0, BuildingBlock: WUSLED_clean_sbu_0, # of connection points: 3
#     Node 60, Type 0, BuildingBlock: WUSLED_clean_sbu_0, # of connection points: 3
#     Node 61, Type 0, BuildingBlock: WUSLED_clean_sbu_0, # of connection points: 3
#     Node 62, Type 0, BuildingBlock: WUSLED_clean_sbu_0, # of connection points: 3
#     Node 63, Type 0, BuildingBlock: WUSLED_clean_sbu_0, # of connection points: 3
#     Node 64, Type 0, BuildingBlock: WUSLED_clean_sbu_0, # of connection points: 3
#     Node 65, Type 0, BuildingBlock: WUSLED_clean_sbu_0, # of connection points: 3
#     Node 66, Type 0, BuildingBlock: WUSLED_clean_sbu_0, # of connection points: 3
#     Node 67, Type 0, BuildingBlock: WUSLED_clean_sbu_0, # of connection points: 3
#     Node 68, Type 0, BuildingBlock: WUSLED_clean_sbu_0, # of connection points: 3
#     Node 69, Type 0, BuildingBlock: WUSLED_clean_sbu_0, # of connection points: 3
#     Node 70, Type 0, BuildingBlock: WUSLED_clean_sbu_0, # of connection points: 3
#     Node 71, Type 0, BuildingBlock: WUSLED_clean_sbu_0, # of connection points: 3
#     Node 72, Type 0, BuildingBlock: WUSLED_clean_sbu_0, # of connection points: 3
#     Node 73, Type 0, BuildingBlock: WUSLED_clean_sbu_0, # of connection points: 3
#     Node 74, Type 0, BuildingBlock: WUSLED_clean_sbu_0, # of connection points: 3
#     Node 75, Type 0, BuildingBlock: WUSLED_clean_sbu_0, # of connection points: 3
#     Node 76, Type 0, BuildingBlock: WUSLED_clean_sbu_0, # of connection points: 3
#     Node 77, Type 0, BuildingBlock: WUSLED_clean_sbu_0, # of connection points: 3
#     Node 78, Type 0, BuildingBlock: WUSLED_clean_sbu_0, # of connection points: 3
#     Node 79, Type 0, BuildingBlock: WUSLED_clean_sbu_0, # of connection points: 3
#     Node 80, Type 0, BuildingBlock: WUSLED_clean_sbu_0, # of connection points: 3
#     Node 81, Type 0, BuildingBlock: WUSLED_clean_sbu_0, # of connection points: 3
#     Node 82, Type 0, BuildingBlock: WUSLED_clean_sbu_0, # of connection points: 3
#     Node 83, Type 0, BuildingBlock: WUSLED_clean_sbu_0, # of connection points: 3
#     Node 84, Type 0, BuildingBlock: WUSLED_clean_sbu_0, # of connection points: 3
#     Node 85, Type 0, BuildingBlock: WUSLED_clean_sbu_0, # of connection points: 3
#     Node 86, Type 0, BuildingBlock: WUSLED_clean_sbu_0, # of connection points: 3
#     Node 87, Type 0, BuildingBlock: WUSLED_clean_sbu_0, # of connection points: 3
#     Node 88, Type 0, BuildingBlock: WUSLED_clean_sbu_0, # of connection points: 3
#     Node 89, Type 0, BuildingBlock: WUSLED_clean_sbu_0, # of connection points: 3
#     Node 90, Type 0, BuildingBlock: WUSLED_clean_sbu_0, # of connection points: 3
#     Node 91, Type 0, BuildingBlock: WUSLED_clean_sbu_0, # of connection points: 3
#     Node 92, Type 0, BuildingBlock: WUSLED_clean_sbu_0, # of connection points: 3
#     Node 93, Type 0, BuildingBlock: WUSLED_clean_sbu_0, # of connection points: 3
#     Node 94, Type 0, BuildingBlock: WUSLED_clean_sbu_0, # of connection points: 3
#     Node 95, Type 0, BuildingBlock: WUSLED_clean_sbu_0, # of connection points: 3
#     Edge 96, Type (0, 0), BuildingBlock: AJUNOK_clean_linker_0, # of connection points: 2
#     Edge 97, Type (0, 0), BuildingBlock: AJUNOK_clean_linker_0, # of connection points: 2
#     Edge 98, Type (0, 0), BuildingBlock: AJUNOK_clean_linker_0, # of connection points: 2
#     Edge 99, Type (0, 0), BuildingBlock: AJUNOK_clean_linker_0, # of connection points: 2
#     Edge 100, Type (0, 0), BuildingBlock: AJUNOK_clean_linker_0, # of connection points: 2
#     Edge 101, Type (0, 0), BuildingBlock: AJUNOK_clean_linker_0, # of connection points: 2
#     Edge 102, Type (0, 0), BuildingBlock: AJUNOK_clean_linker_0, # of connection points: 2
#     Edge 103, Type (0, 0), BuildingBlock: AJUNOK_clean_linker_0, # of connection points: 2
#     Edge 104, Type (0, 0), BuildingBlock: AJUNOK_clean_linker_0, # of connection points: 2
#     Edge 105, Type (0, 0), BuildingBlock: AJUNOK_clean_linker_0, # of connection points: 2
#     Edge 106, Type (0, 0), BuildingBlock: AJUNOK_clean_linker_0, # of connection points: 2
#     Edge 107, Type (0, 0), BuildingBlock: AJUNOK_clean_linker_0, # of connection points: 2
#     Edge 108, Type (0, 0), BuildingBlock: AJUNOK_clean_linker_0, # of connection points: 2
#     Edge 109, Type (0, 0), BuildingBlock: AJUNOK_clean_linker_0, # of connection points: 2
#     Edge 110, Type (0, 0), BuildingBlock: AJUNOK_clean_linker_0, # of connection points: 2
#     Edge 111, Type (0, 0), BuildingBlock: AJUNOK_clean_linker_0, # of connection points: 2
#     Edge 112, Type (0, 0), BuildingBlock: AJUNOK_clean_linker_0, # of connection points: 2
#     Edge 113, Type (0, 0), BuildingBlock: AJUNOK_clean_linker_0, # of connection points: 2
#     Edge 114, Type (0, 0), BuildingBlock: AJUNOK_clean_linker_0, # of connection points: 2
#     Edge 115, Type (0, 0), BuildingBlock: AJUNOK_clean_linker_0, # of connection points: 2
#     Edge 116, Type (0, 0), BuildingBlock: AJUNOK_clean_linker_0, # of connection points: 2
#     Edge 117, Type (0, 0), BuildingBlock: AJUNOK_clean_linker_0, # of connection points: 2
#     Edge 118, Type (0, 0), BuildingBlock: AJUNOK_clean_linker_0, # of connection points: 2
#     Edge 119, Type (0, 0), BuildingBlock: AJUNOK_clean_linker_0, # of connection points: 2
#     Edge 120, Type (0, 0), BuildingBlock: AJUNOK_clean_linker_0, # of connection points: 2
#     Edge 121, Type (0, 0), BuildingBlock: AJUNOK_clean_linker_0, # of connection points: 2
#     Edge 122, Type (0, 0), BuildingBlock: AJUNOK_clean_linker_0, # of connection points: 2
#     Edge 123, Type (0, 0), BuildingBlock: AJUNOK_clean_linker_0, # of connection points: 2
#     Edge 124, Type (0, 0), BuildingBlock: AJUNOK_clean_linker_0, # of connection points: 2
#     Edge 125, Type (0, 0), BuildingBlock: AJUNOK_clean_linker_0, # of connection points: 2
#     Edge 126, Type (0, 0), BuildingBlock: AJUNOK_clean_linker_0, # of connection points: 2
#     Edge 127, Type (0, 0), BuildingBlock: AJUNOK_clean_linker_0, # of connection points: 2
#     Edge 128, Type (0, 0), BuildingBlock: AJUNOK_clean_linker_0, # of connection points: 2
#     Edge 129, Type (0, 0), BuildingBlock: AJUNOK_clean_linker_0, # of connection points: 2
#     Edge 130, Type (0, 0), BuildingBlock: AJUNOK_clean_linker_0, # of connection points: 2
#     Edge 131, Type (0, 0), BuildingBlock: AJUNOK_clean_linker_0, # of connection points: 2
#     Edge 132, Type (0, 0), BuildingBlock: AJUNOK_clean_linker_0, # of connection points: 2
#     Edge 133, Type (0, 0), BuildingBlock: AJUNOK_clean_linker_0, # of connection points: 2
#     Edge 134, Type (0, 0), BuildingBlock: AJUNOK_clean_linker_0, # of connection points: 2
#     Edge 135, Type (0, 0), BuildingBlock: AJUNOK_clean_linker_0, # of connection points: 2
#     Edge 136, Type (0, 0), BuildingBlock: AJUNOK_clean_linker_0, # of connection points: 2
#     Edge 137, Type (0, 0), BuildingBlock: AJUNOK_clean_linker_0, # of connection points: 2
#     Edge 138, Type (0, 0), BuildingBlock: AJUNOK_clean_linker_0, # of connection points: 2
#     Edge 139, Type (0, 0), BuildingBlock: AJUNOK_clean_linker_0, # of connection points: 2
#     Edge 140, Type (0, 0), BuildingBlock: AJUNOK_clean_linker_0, # of connection points: 2
#     Edge 141, Type (0, 0), BuildingBlock: AJUNOK_clean_linker_0, # of connection points: 2
#     Edge 142, Type (0, 0), BuildingBlock: AJUNOK_clean_linker_0, # of connection points: 2
#     Edge 143, Type (0, 0), BuildingBlock: AJUNOK_clean_linker_0, # of connection points: 2
#     Edge 144, Type (0, 0), BuildingBlock: AJUNOK_clean_linker_0, # of connection points: 2
#     Edge 145, Type (0, 0), BuildingBlock: AJUNOK_clean_linker_0, # of connection points: 2
#     Edge 146, Type (0, 0), BuildingBlock: AJUNOK_clean_linker_0, # of connection points: 2
#     Edge 147, Type (0, 0), BuildingBlock: AJUNOK_clean_linker_0, # of connection points: 2
#     Edge 148, Type (0, 0), BuildingBlock: AJUNOK_clean_linker_0, # of connection points: 2
#     Edge 149, Type (0, 0), BuildingBlock: AJUNOK_clean_linker_0, # of connection points: 2
#     Edge 150, Type (0, 0), BuildingBlock: AJUNOK_clean_linker_0, # of connection points: 2
#     Edge 151, Type (0, 0), BuildingBlock: AJUNOK_clean_linker_0, # of connection points: 2
#     Edge 152, Type (0, 0), BuildingBlock: AJUNOK_clean_linker_0, # of connection points: 2
#     Edge 153, Type (0, 0), BuildingBlock: AJUNOK_clean_linker_0, # of connection points: 2
#     Edge 154, Type (0, 0), BuildingBlock: AJUNOK_clean_linker_0, # of connection points: 2
#     Edge 155, Type (0, 0), BuildingBlock: AJUNOK_clean_linker_0, # of connection points: 2
#     Edge 156, Type (0, 0), BuildingBlock: AJUNOK_clean_linker_0, # of connection points: 2
#     Edge 157, Type (0, 0), BuildingBlock: AJUNOK_clean_linker_0, # of connection points: 2
#     Edge 158, Type (0, 0), BuildingBlock: AJUNOK_clean_linker_0, # of connection points: 2
#     Edge 159, Type (0, 0), BuildingBlock: AJUNOK_clean_linker_0, # of connection points: 2
#     Edge 160, Type (0, 0), BuildingBlock: AJUNOK_clean_linker_0, # of connection points: 2
#     Edge 161, Type (0, 0), BuildingBlock: AJUNOK_clean_linker_0, # of connection points: 2
#     Edge 162, Type (0, 0), BuildingBlock: AJUNOK_clean_linker_0, # of connection points: 2
#     Edge 163, Type (0, 0), BuildingBlock: AJUNOK_clean_linker_0, # of connection points: 2
#     Edge 164, Type (0, 0), BuildingBlock: AJUNOK_clean_linker_0, # of connection points: 2
#     Edge 165, Type (0, 0), BuildingBlock: AJUNOK_clean_linker_0, # of connection points: 2
#     Edge 166, Type (0, 0), BuildingBlock: AJUNOK_clean_linker_0, # of connection points: 2
#     Edge 167, Type (0, 0), BuildingBlock: AJUNOK_clean_linker_0, # of connection points: 2
#     Edge 168, Type (0, 0), BuildingBlock: AJUNOK_clean_linker_0, # of connection points: 2
#     Edge 169, Type (0, 0), BuildingBlock: AJUNOK_clean_linker_0, # of connection points: 2
#     Edge 170, Type (0, 0), BuildingBlock: AJUNOK_clean_linker_0, # of connection points: 2
#     Edge 171, Type (0, 0), BuildingBlock: AJUNOK_clean_linker_0, # of connection points: 2
#     Edge 172, Type (0, 0), BuildingBlock: AJUNOK_clean_linker_0, # of connection points: 2
#     Edge 173, Type (0, 0), BuildingBlock: AJUNOK_clean_linker_0, # of connection points: 2
#     Edge 174, Type (0, 0), BuildingBlock: AJUNOK_clean_linker_0, # of connection points: 2
#     Edge 175, Type (0, 0), BuildingBlock: AJUNOK_clean_linker_0, # of connection points: 2
#     Edge 176, Type (0, 0), BuildingBlock: AJUNOK_clean_linker_0, # of connection points: 2
#     Edge 177, Type (0, 0), BuildingBlock: AJUNOK_clean_linker_0, # of connection points: 2
#     Edge 178, Type (0, 0), BuildingBlock: AJUNOK_clean_linker_0, # of connection points: 2
#     Edge 179, Type (0, 0), BuildingBlock: AJUNOK_clean_linker_0, # of connection points: 2
#     Edge 180, Type (0, 0), BuildingBlock: AJUNOK_clean_linker_0, # of connection points: 2
#     Edge 181, Type (0, 0), BuildingBlock: AJUNOK_clean_linker_0, # of connection points: 2
#     Edge 182, Type (0, 0), BuildingBlock: AJUNOK_clean_linker_0, # of connection points: 2
#     Edge 183, Type (0, 0), BuildingBlock: AJUNOK_clean_linker_0, # of connection points: 2
#     Edge 184, Type (0, 0), BuildingBlock: AJUNOK_clean_linker_0, # of connection points: 2
#     Edge 185, Type (0, 0), BuildingBlock: AJUNOK_clean_linker_0, # of connection points: 2
#     Edge 186, Type (0, 0), BuildingBlock: AJUNOK_clean_linker_0, # of connection points: 2
#     Edge 187, Type (0, 0), BuildingBlock: AJUNOK_clean_linker_0, # of connection points: 2
#     Edge 188, Type (0, 0), BuildingBlock: AJUNOK_clean_linker_0, # of connection points: 2
#     Edge 189, Type (0, 0), BuildingBlock: AJUNOK_clean_linker_0, # of connection points: 2
#     Edge 190, Type (0, 0), BuildingBlock: AJUNOK_clean_linker_0, # of connection points: 2
#     Edge 191, Type (0, 0), BuildingBlock: AJUNOK_clean_linker_0, # of connection points: 2
#     Edge 192, Type (0, 0), BuildingBlock: AJUNOK_clean_linker_0, # of connection points: 2
#     Edge 193, Type (0, 0), BuildingBlock: AJUNOK_clean_linker_0, # of connection points: 2
#     Edge 194, Type (0, 0), BuildingBlock: AJUNOK_clean_linker_0, # of connection points: 2
#     Edge 195, Type (0, 0), BuildingBlock: AJUNOK_clean_linker_0, # of connection points: 2
#     Edge 196, Type (0, 0), BuildingBlock: AJUNOK_clean_linker_0, # of connection points: 2
#     Edge 197, Type (0, 0), BuildingBlock: AJUNOK_clean_linker_0, # of connection points: 2
#     Edge 198, Type (0, 0), BuildingBlock: AJUNOK_clean_linker_0, # of connection points: 2
#     Edge 199, Type (0, 0), BuildingBlock: AJUNOK_clean_linker_0, # of connection points: 2
#     Edge 200, Type (0, 0), BuildingBlock: AJUNOK_clean_linker_0, # of connection points: 2
#     Edge 201, Type (0, 0), BuildingBlock: AJUNOK_clean_linker_0, # of connection points: 2
#     Edge 202, Type (0, 0), BuildingBlock: AJUNOK_clean_linker_0, # of connection points: 2
#     Edge 203, Type (0, 0), BuildingBlock: AJUNOK_clean_linker_0, # of connection points: 2
#     Edge 204, Type (0, 0), BuildingBlock: AJUNOK_clean_linker_0, # of connection points: 2
#     Edge 205, Type (0, 0), BuildingBlock: AJUNOK_clean_linker_0, # of connection points: 2
#     Edge 206, Type (0, 0), BuildingBlock: AJUNOK_clean_linker_0, # of connection points: 2
#     Edge 207, Type (0, 0), BuildingBlock: AJUNOK_clean_linker_0, # of connection points: 2
#     Edge 208, Type (0, 0), BuildingBlock: AJUNOK_clean_linker_0, # of connection points: 2
#     Edge 209, Type (0, 0), BuildingBlock: AJUNOK_clean_linker_0, # of connection points: 2
#     Edge 210, Type (0, 0), BuildingBlock: AJUNOK_clean_linker_0, # of connection points: 2
#     Edge 211, Type (0, 0), BuildingBlock: AJUNOK_clean_linker_0, # of connection points: 2
#     Edge 212, Type (0, 0), BuildingBlock: AJUNOK_clean_linker_0, # of connection points: 2
#     Edge 213, Type (0, 0), BuildingBlock: AJUNOK_clean_linker_0, # of connection points: 2
#     Edge 214, Type (0, 0), BuildingBlock: AJUNOK_clean_linker_0, # of connection points: 2
#     Edge 215, Type (0, 0), BuildingBlock: AJUNOK_clean_linker_0, # of connection points: 2
#     Edge 216, Type (0, 0), BuildingBlock: AJUNOK_clean_linker_0, # of connection points: 2
#     Edge 217, Type (0, 0), BuildingBlock: AJUNOK_clean_linker_0, # of connection points: 2
#     Edge 218, Type (0, 0), BuildingBlock: AJUNOK_clean_linker_0, # of connection points: 2
#     Edge 219, Type (0, 0), BuildingBlock: AJUNOK_clean_linker_0, # of connection points: 2
#     Edge 220, Type (0, 0), BuildingBlock: AJUNOK_clean_linker_0, # of connection points: 2
#     Edge 221, Type (0, 0), BuildingBlock: AJUNOK_clean_linker_0, # of connection points: 2
#     Edge 222, Type (0, 0), BuildingBlock: AJUNOK_clean_linker_0, # of connection points: 2
#     Edge 223, Type (0, 0), BuildingBlock: AJUNOK_clean_linker_0, # of connection points: 2
#     Edge 224, Type (0, 0), BuildingBlock: AJUNOK_clean_linker_0, # of connection points: 2
#     Edge 225, Type (0, 0), BuildingBlock: AJUNOK_clean_linker_0, # of connection points: 2
#     Edge 226, Type (0, 0), BuildingBlock: AJUNOK_clean_linker_0, # of connection points: 2
#     Edge 227, Type (0, 0), BuildingBlock: AJUNOK_clean_linker_0, # of connection points: 2
#     Edge 228, Type (0, 0), BuildingBlock: AJUNOK_clean_linker_0, # of connection points: 2
#     Edge 229, Type (0, 0), BuildingBlock: AJUNOK_clean_linker_0, # of connection points: 2
#     Edge 230, Type (0, 0), BuildingBlock: AJUNOK_clean_linker_0, # of connection points: 2
#     Edge 231, Type (0, 0), BuildingBlock: AJUNOK_clean_linker_0, # of connection points: 2
#     Edge 232, Type (0, 0), BuildingBlock: AJUNOK_clean_linker_0, # of connection points: 2
#     Edge 233, Type (0, 0), BuildingBlock: AJUNOK_clean_linker_0, # of connection points: 2
#     Edge 234, Type (0, 0), BuildingBlock: AJUNOK_clean_linker_0, # of connection points: 2
#     Edge 235, Type (0, 0), BuildingBlock: AJUNOK_clean_linker_0, # of connection points: 2
#     Edge 236, Type (0, 0), BuildingBlock: AJUNOK_clean_linker_0, # of connection points: 2
#     Edge 237, Type (0, 0), BuildingBlock: AJUNOK_clean_linker_0, # of connection points: 2
#     Edge 238, Type (0, 0), BuildingBlock: AJUNOK_clean_linker_0, # of connection points: 2
#     Edge 239, Type (0, 0), BuildingBlock: AJUNOK_clean_linker_0, # of connection points: 2
# Relax obj value: 0.125
# Max RMSD: 0.105
# Mean RMSD: 0.105
data_MOF--net-rhr-a--node1-WUSLED_clean_sbu_0--edge1-AJUNOK_clean_linker_0
_symmetry_space_group_name_H-M    P1
_symmetry_Int_Tables_number       1
_symmetry_cell_setting            triclinic
loop_
_symmetry_equiv_pos_as_xyz
'x, y, z'
_cell_length_a     152.1742
_cell_length_b     152.15424
_cell_length_c     152.15159
_cell_angle_alpha  90.000577
_cell_angle_beta   90.001313
_cell_angle_gamma 90.007651
loop_
_atom_site_label
_atom_site_type_symbol
_atom_site_fract_x
_atom_site_fract_y
_atom_site_fract_z
_atom_type_partial_charge
C0 C 0.07881 0.29071 0.34424 0.0
C1 C 0.07089 0.29327 0.34027 0.0
C2 C 0.07884 0.30295 0.33029 0.0
C3 C 0.0709 0.29935 0.33336 0.0
C4 C 0.08677 0.30033 0.33428 0.0
C5 C 0.08674 0.29425 0.34119 0.0
U6 U 0.06625 0.2759 0.35981 0.0
O7 O 0.0694 0.26286 0.36529 0.0
O8 O 0.06728 0.27408 0.37411 0.0
C9 C 0.06958 0.26578 0.37342 0.0
C10 C 0.07879 0.28452 0.35168 0.0
C11 C 0.07715 0.26305 0.3788 0.0
C12 C 0.09229 0.26479 0.3837 0.0
C13 C 0.08538 0.26718 0.37808 0.0
C14 C 0.08286 0.25403 0.39068 0.0
C15 C 0.09107 0.25823 0.39012 0.0
C16 C 0.07598 0.25641 0.38507 0.0
C17 C 0.04085 0.27513 0.35614 0.0
C18 C 0.02649 0.2786 0.36233 0.0
C19 C 0.02802 0.2663 0.35237 0.0
C20 C 0.03703 0.26801 0.35165 0.0
C21 C 0.02261 0.27174 0.35752 0.0
C22 C 0.03549 0.28031 0.36162 0.0
C23 C 0.05002 0.27787 0.3542 0.0
O24 O 0.07492 0.28743 0.35883 0.0
O25 O 0.07663 0.27639 0.34974 0.0
O26 O 0.05541 0.27187 0.35109 0.0
O27 O 0.0538 0.28322 0.35984 0.0
H28 H 0.06468 0.29064 0.34258 0.0
H29 H 0.06468 0.30137 0.33055 0.0
H30 H 0.09298 0.30297 0.33204 0.0
H31 H 0.09291 0.29235 0.34419 0.0
H32 H 0.09849 0.26824 0.3832 0.0
H33 H 0.08639 0.27235 0.37329 0.0
H34 H 0.08173 0.24893 0.39552 0.0
H35 H 0.06968 0.25315 0.38574 0.0
H36 H 0.02248 0.28294 0.36631 0.0
H37 H 0.02524 0.26087 0.34871 0.0
H38 H 0.04094 0.26393 0.34731 0.0
H39 H 0.03817 0.28592 0.36508 0.0
C40 C 0.71652 0.07921 0.34424 0.0
C41 C 0.71307 0.07135 0.34083 0.0
C42 C 0.70383 0.07963 0.3307 0.0
C43 C 0.70679 0.07157 0.33411 0.0
C44 C 0.70747 0.08747 0.334 0.0
C45 C 0.71374 0.08725 0.34073 0.0
U46 U 0.73168 0.06645 0.35938 0.0
O47 O 0.74485 0.06963 0.36456 0.0
O48 O 0.73385 0.06738 0.37363 0.0
C49 C 0.7421 0.0698 0.37275 0.0
C50 C 0.72288 0.07905 0.35153 0.0
C51 C 0.74496 0.07736 0.37814 0.0
C52 C 0.74194 0.09101 0.38594 0.0
C53 C 0.7393 0.08439 0.38009 0.0
C54 C 0.75604 0.08385 0.38765 0.0
C55 C 0.75026 0.09068 0.38996 0.0
C56 C 0.7534 0.07724 0.38183 0.0
C57 C 0.73246 0.04118 0.35542 0.0
C58 C 0.73415 0.02867 0.36527 0.0
C59 C 0.73581 0.02669 0.34957 0.0
C60 C 0.73426 0.03565 0.34827 0.0
C61 C 0.73555 0.02305 0.35806 0.0
C62 C 0.73261 0.03767 0.36397 0.0
C63 C 0.72964 0.05029 0.35363 0.0
O64 O 0.72014 0.07511 0.35871 0.0
O65 O 0.73096 0.07689 0.34937 0.0
O66 O 0.73561 0.05568 0.35049 0.0
O67 O 0.72443 0.05398 0.35946 0.0
H68 H 0.71517 0.06507 0.34344 0.0
H69 H 0.70411 0.06542 0.33171 0.0
H70 H 0.70547 0.09378 0.33137 0.0
H71 H 0.71637 0.09338 0.34324 0.0
H72 H 0.73736 0.09621 0.38757 0.0
H73 H 0.73276 0.08465 0.37727 0.0
H74 H 0.76257 0.08353 0.39048 0.0
H75 H 0.75789 0.07191 0.38037 0.0
H76 H 0.73406 0.02608 0.3719 0.0
H77 H 0.73683 0.02253 0.34388 0.0
H78 H 0.73415 0.0382 0.34162 0.0
H79 H 0.73129 0.0418 0.36961 0.0
C80 C 0.92871 0.71664 0.34341 0.0
C81 C 0.93662 0.71401 0.33947 0.0
C82 C 0.92859 0.70461 0.32928 0.0
C83 C 0.93657 0.70803 0.33248 0.0
C84 C 0.92068 0.70735 0.3332 0.0
C85 C 0.92074 0.71332 0.34021 0.0
U86 U 0.94115 0.73138 0.35923 0.0
O87 O 0.93761 0.74398 0.36541 0.0
O88 O 0.94045 0.73247 0.37365 0.0
C89 C 0.93763 0.74063 0.37339 0.0
C90 C 0.92875 0.72259 0.35105 0.0
C91 C 0.93006 0.74269 0.37914 0.0
C92 C 0.9152 0.74821 0.38157 0.0
C93 C 0.92208 0.74601 0.37583 0.0
C94 C 0.92412 0.74372 0.39396 0.0
C95 C 0.91614 0.74704 0.39069 0.0
C96 C 0.93099 0.74159 0.38825 0.0
C97 C 0.96632 0.73323 0.35503 0.0
C98 C 0.97872 0.73486 0.36501 0.0
C99 C 0.9808 0.73688 0.34936 0.0
C100 C 0.97187 0.73526 0.34796 0.0
C101 C 0.98438 0.73646 0.35786 0.0
C102 C 0.96976 0.73325 0.36361 0.0
C103 C 0.95727 0.73028 0.35313 0.0
O104 O 0.93291 0.71958 0.35799 0.0
O105 O 0.93058 0.73086 0.34934 0.0
O106 O 0.95166 0.73631 0.35051 0.0
O107 O 0.95384 0.72455 0.3586 0.0
H108 H 0.94285 0.71647 0.3419 0.0
H109 H 0.94278 0.70591 0.32972 0.0
H110 H 0.91444 0.70485 0.33087 0.0
H111 H 0.91458 0.71528 0.34318 0.0
H112 H 0.90913 0.75076 0.37888 0.0
H113 H 0.92117 0.74695 0.36883 0.0
H114 H 0.9251 0.74292 0.40096 0.0
H115 H 0.93709 0.73913 0.39097 0.0
H116 H 0.98127 0.73466 0.37165 0.0
H117 H 0.98498 0.73806 0.34372 0.0
H118 H 0.96935 0.73525 0.3413 0.0
H119 H 0.9656 0.73175 0.36918 0.0
C120 C 0.29137 0.92835 0.34444 0.0
C121 C 0.2939 0.93615 0.34021 0.0
C122 C 0.30421 0.92801 0.33105 0.0
C123 C 0.30025 0.93598 0.33355 0.0
C124 C 0.30151 0.92019 0.3352 0.0
C125 C 0.29516 0.92037 0.34185 0.0
U126 U 0.27597 0.94105 0.35943 0.0
O127 O 0.2628 0.93778 0.36451 0.0
O128 O 0.27371 0.94004 0.37367 0.0
C129 C 0.26547 0.9376 0.37272 0.0
C130 C 0.28496 0.92851 0.35168 0.0
C131 C 0.26273 0.92992 0.37795 0.0
C132 C 0.26454 0.91473 0.38263 0.0
C133 C 0.26706 0.9218 0.37727 0.0
C134 C 0.25328 0.9238 0.38928 0.0
C135 C 0.25761 0.91566 0.3887 0.0
C136 C 0.2558 0.93085 0.38394 0.0
C137 C 0.27484 0.96637 0.3555 0.0
C138 C 0.27628 0.98021 0.36346 0.0
C139 C 0.26779 0.97966 0.35002 0.0
C140 C 0.26957 0.97067 0.34926 0.0
C141 C 0.27128 0.98457 0.35703 0.0
C142 C 0.27805 0.97121 0.36271 0.0
C143 C 0.27785 0.95726 0.35375 0.0
O144 O 0.28763 0.93252 0.35885 0.0
O145 O 0.27687 0.9306 0.34946 0.0
O146 O 0.27203 0.95175 0.3505 0.0
O147 O 0.28308 0.95362 0.35958 0.0
H148 H 0.29103 0.94238 0.34213 0.0
H149 H 0.3022 0.9421 0.33048 0.0
H150 H 0.30431 0.91393 0.33329 0.0
H151 H 0.29326 0.91429 0.34502 0.0
H152 H 0.26801 0.90854 0.38205 0.0
H153 H 0.27243 0.92097 0.37268 0.0
H154 H 0.24807 0.92481 0.39403 0.0
H155 H 0.25242 0.93708 0.3846 0.0
H156 H 0.27921 0.98384 0.36884 0.0
H157 H 0.2639 0.98283 0.34497 0.0
H158 H 0.2671 0.96716 0.34358 0.0
H159 H 0.28222 0.96815 0.36759 0.0
C160 C 0.07928 0.71682 0.66377 0.0
C161 C 0.07144 0.71325 0.66706 0.0
C162 C 0.07971 0.70421 0.67738 0.0
C163 C 0.07165 0.707 0.67381 0.0
C164 C 0.08754 0.70798 0.6742 0.0
C165 C 0.08732 0.71421 0.66743 0.0
U166 U 0.06665 0.73193 0.64842 0.0
O167 O 0.06994 0.74503 0.64314 0.0
O168 O 0.0677 0.73396 0.63416 0.0
C169 C 0.07014 0.74221 0.63498 0.0
C170 C 0.07915 0.72314 0.65643 0.0
C171 C 0.07778 0.74494 0.62965 0.0
C172 C 0.09213 0.74209 0.62317 0.0
C173 C 0.0853 0.73964 0.62886 0.0
C174 C 0.08411 0.75526 0.61923 0.0
C175 C 0.09156 0.74988 0.61821 0.0
C176 C 0.0773 0.75281 0.62489 0.0
C177 C 0.04129 0.73301 0.6521 0.0
C178 C 0.0275 0.73125 0.64413 0.0
C179 C 0.02797 0.74025 0.65723 0.0
C180 C 0.03695 0.73851 0.65811 0.0
C181 C 0.0231 0.73649 0.65034 0.0
C182 C 0.03649 0.72952 0.645 0.0
C183 C 0.0504 0.73008 0.654 0.0
O184 O 0.07524 0.72035 0.64925 0.0
O185 O 0.077 0.73124 0.65852 0.0
O186 O 0.05585 0.73598 0.65719 0.0
O187 O 0.05412 0.72475 0.6483 0.0
H188 H 0.06516 0.71522 0.66433 0.0
H189 H 0.06552 0.70421 0.67612 0.0
H190 H 0.09383 0.70611 0.67695 0.0
H191 H 0.09343 0.71695 0.66502 0.0
H192 H 0.09771 0.73774 0.62243 0.0
H193 H 0.08579 0.73352 0.63247 0.0
H194 H 0.0835 0.76132 0.61554 0.0
H195 H 0.07156 0.75699 0.62541 0.0
H196 H 0.0239 0.72811 0.63885 0.0
H197 H 0.02476 0.74433 0.66211 0.0
H198 H 0.04043 0.7412 0.66371 0.0
H199 H 0.03958 0.72516 0.6403 0.0
C200 C 0.29082 0.07835 0.66358 0.0
C201 C 0.29351 0.07046 0.66752 0.0
C202 C 0.30287 0.07856 0.6777 0.0
C203 C 0.29951 0.07055 0.6745 0.0
C204 C 0.30008 0.08645 0.67377 0.0
C205 C 0.2941 0.08634 0.66677 0.0
U206 U 0.27598 0.06582 0.64794 0.0
O207 O 0.26334 0.06934 0.64185 0.0
O208 O 0.27476 0.06642 0.63353 0.0
C209 C 0.26659 0.06918 0.63384 0.0
C210 C 0.28483 0.07827 0.65598 0.0
C211 C 0.26443 0.07666 0.62804 0.0
C212 C 0.26091 0.09209 0.62553 0.0
C213 C 0.2631 0.08522 0.63128 0.0
C214 C 0.26143 0.08196 0.61326 0.0
C215 C 0.26013 0.09054 0.61644 0.0
C216 C 0.26356 0.07511 0.619 0.0
C217 C 0.27404 0.04068 0.65223 0.0
C218 C 0.27311 0.02792 0.6426 0.0
C219 C 0.26926 0.02655 0.65798 0.0
C220 C 0.27106 0.03548 0.65923 0.0
C221 C 0.27041 0.02264 0.64969 0.0
C222 C 0.27488 0.03688 0.64384 0.0
C223 C 0.27708 0.04972 0.6541 0.0
O224 O 0.28779 0.07406 0.64905 0.0
O225 O 0.27657 0.07646 0.65775 0.0
O226 O 0.27112 0.05538 0.65677 0.0
O227 O 0.2828 0.05313 0.6486 0.0
H228 H 0.29108 0.06421 0.66511 0.0
H229 H 0.30166 0.06436 0.67726 0.0
H230 H 0.30254 0.09271 0.6761 0.0
H231 H 0.2921 0.0925 0.6638 0.0
H232 H 0.25993 0.09864 0.62815 0.0
H233 H 0.26374 0.08658 0.63824 0.0
H234 H 0.2607 0.08053 0.60633 0.0
H235 H 0.26449 0.06856 0.61636 0.0
H236 H 0.27404 0.02508 0.63614 0.0
H237 H 0.26738 0.02263 0.66361 0.0
H238 H 0.27045 0.03824 0.66576 0.0
H239 H 0.27717 0.04074 0.63832 0.0
C240 C 0.92855 0.29088 0.66336 0.0
C241 C 0.93643 0.29332 0.66747 0.0
C242 C 0.92846 0.30322 0.67722 0.0
C243 C 0.93639 0.29945 0.67433 0.0
C244 C 0.92057 0.30072 0.67308 0.0
C245 C 0.92062 0.29459 0.66622 0.0
U246 U 0.94103 0.27567 0.64805 0.0
O247 O 0.93769 0.26255 0.64284 0.0
O248 O 0.93999 0.27357 0.6338 0.0
C249 C 0.93751 0.26533 0.63466 0.0
C250 C 0.92857 0.28459 0.656 0.0
C251 C 0.92993 0.26252 0.62929 0.0
C252 C 0.91627 0.26561 0.62153 0.0
C253 C 0.92292 0.26822 0.62736 0.0
C254 C 0.92337 0.25148 0.61979 0.0
C255 C 0.91655 0.25729 0.61751 0.0
C256 C 0.93 0.25408 0.62559 0.0
C257 C 0.9663 0.27445 0.65184 0.0
C258 C 0.97911 0.27365 0.64227 0.0
C259 C 0.98041 0.2696 0.6576 0.0
C260 C 0.97149 0.27138 0.65882 0.0
C261 C 0.98437 0.27086 0.64934 0.0
C262 C 0.97015 0.27541 0.64349 0.0
C263 C 0.95725 0.27744 0.65371 0.0
O264 O 0.93254 0.28735 0.64884 0.0
O265 O 0.93062 0.27646 0.65807 0.0
O266 O 0.95177 0.27157 0.65689 0.0
O267 O 0.9536 0.28276 0.64796 0.0
H268 H 0.94263 0.29055 0.66531 0.0
H269 H 0.94259 0.30137 0.67726 0.0
H270 H 0.91436 0.3035 0.67517 0.0
H271 H 0.91448 0.29279 0.66311 0.0
H272 H 0.91109 0.27021 0.61991 0.0
H273 H 0.9227 0.27475 0.63018 0.0
H274 H 0.92365 0.24495 0.61696 0.0
H275 H 0.93531 0.24956 0.62703 0.0
H276 H 0.98198 0.27467 0.63583 0.0
H277 H 0.98431 0.26764 0.66322 0.0
H278 H 0.9687 0.27068 0.66534 0.0
H279 H 0.96633 0.27777 0.63797 0.0
C280 C 0.71639 0.92902 0.66372 0.0
C281 C 0.71388 0.93691 0.66778 0.0
C282 C 0.70438 0.92886 0.67786 0.0
C283 C 0.70791 0.93683 0.67478 0.0
C284 C 0.70699 0.92097 0.67381 0.0
C285 C 0.71296 0.92105 0.6668 0.0
U286 U 0.73117 0.94152 0.64798 0.0
O287 O 0.74377 0.93798 0.64182 0.0
O288 O 0.73229 0.94088 0.63357 0.0
C289 C 0.74046 0.93808 0.63383 0.0
C290 C 0.72234 0.92909 0.65609 0.0
C291 C 0.74254 0.93055 0.62804 0.0
C292 C 0.74723 0.91541 0.62561 0.0
C293 C 0.74504 0.92229 0.63137 0.0
C294 C 0.74436 0.92493 0.61319 0.0
C295 C 0.74686 0.91666 0.61646 0.0
C296 C 0.74224 0.93178 0.61892 0.0
C297 C 0.73317 0.96666 0.65223 0.0
C298 C 0.73405 0.97942 0.6426 0.0
C299 C 0.73804 0.98077 0.65795 0.0
C300 C 0.73623 0.97185 0.6592 0.0
C301 C 0.73682 0.98469 0.64967 0.0
C302 C 0.73226 0.97047 0.64385 0.0
C303 C 0.73013 0.95762 0.65412 0.0
O304 O 0.71935 0.9333 0.64917 0.0
O305 O 0.73062 0.93089 0.65781 0.0
O306 O 0.7361 0.95196 0.65677 0.0
O307 O 0.72437 0.95422 0.64866 0.0
H308 H 0.71643 0.94314 0.66545 0.0
H309 H 0.70589 0.94303 0.67764 0.0
H310 H 0.70441 0.91472 0.67605 0.0
H311 H 0.71482 0.9149 0.66373 0.0
H312 H 0.74914 0.90911 0.62831 0.0
H313 H 0.74534 0.92115 0.63839 0.0
H314 H 0.74419 0.92614 0.60617 0.0
H315 H 0.74041 0.93811 0.6162 0.0
H316 H 0.73306 0.98227 0.63615 0.0
H317 H 0.73999 0.98468 0.66356 0.0
H318 H 0.7369 0.96908 0.66573 0.0
H319 H 0.72991 0.96662 0.63835 0.0
C320 C 0.34374 0.07877 0.2907 0.0
C321 C 0.34016 0.07098 0.29411 0.0
C322 C 0.32996 0.07943 0.30312 0.0
C323 C 0.33332 0.07131 0.30026 0.0
C324 C 0.33341 0.08721 0.29949 0.0
C325 C 0.34026 0.08688 0.29335 0.0
U326 U 0.35912 0.06589 0.27586 0.0
O327 O 0.3652 0.06924 0.26316 0.0
O328 O 0.37353 0.06633 0.27458 0.0
C329 C 0.37322 0.06907 0.2664 0.0
C330 C 0.35127 0.07851 0.28462 0.0
C331 C 0.37905 0.07654 0.26422 0.0
C332 C 0.38157 0.09179 0.25999 0.0
C333 C 0.37578 0.08494 0.26217 0.0
C334 C 0.39392 0.08196 0.26197 0.0
C335 C 0.3907 0.09037 0.25994 0.0
C336 C 0.38816 0.07513 0.26409 0.0
C337 C 0.35452 0.04078 0.2743 0.0
C338 C 0.3644 0.02837 0.27224 0.0
C339 C 0.34866 0.02626 0.27113 0.0
C340 C 0.34736 0.03521 0.27274 0.0
C341 C 0.35718 0.02269 0.27109 0.0
C342 C 0.36308 0.03735 0.27384 0.0
C343 C 0.35278 0.04988 0.27719 0.0
O344 O 0.35819 0.07427 0.28757 0.0
O345 O 0.3494 0.07662 0.27641 0.0
O346 O 0.35018 0.05547 0.27114 0.0
O347 O 0.35838 0.05328 0.28282 0.0
H348 H 0.34275 0.06466 0.29211 0.0
H349 H 0.33081 0.06521 0.30294 0.0
H350 H 0.33082 0.09356 0.3014 0.0
H351 H 0.3429 0.09296 0.29075 0.0
H352 H 0.37892 0.09821 0.25843 0.0
H353 H 0.36878 0.08621 0.26223 0.0
H354 H 0.40091 0.08062 0.26182 0.0
H355 H 0.39083 0.0687 0.26559 0.0
H356 H 0.37105 0.02583 0.27209 0.0
H357 H 0.34297 0.02207 0.2703 0.0
H358 H 0.3407 0.03772 0.27309 0.0
H359 H 0.36873 0.04153 0.27498 0.0
C360 C 0.92852 0.34373 0.29033 0.0
C361 C 0.93645 0.34008 0.29331 0.0
C362 C 0.92842 0.32973 0.30252 0.0
C363 C 0.9364 0.33316 0.29937 0.0
C364 C 0.92048 0.33337 0.29946 0.0
C365 C 0.92054 0.34031 0.29341 0.0
U366 U 0.9411 0.35926 0.2755 0.0
O367 O 0.9379 0.36479 0.26248 0.0
O368 O 0.9402 0.37356 0.2737 0.0
C369 C 0.93781 0.37291 0.26542 0.0
C370 C 0.92855 0.3512 0.28417 0.0
C371 C 0.93031 0.37841 0.26272 0.0
C372 C 0.91582 0.38471 0.2653 0.0
C373 C 0.92253 0.37884 0.26768 0.0
C374 C 0.92447 0.38953 0.25284 0.0
C375 C 0.91682 0.39026 0.25797 0.0
C376 C 0.93115 0.38368 0.25521 0.0
C377 C 0.96636 0.35525 0.27451 0.0
C378 C 0.97885 0.36513 0.27297 0.0
C379 C 0.98084 0.34946 0.27105 0.0
C380 C 0.97189 0.34813 0.27259 0.0
C381 C 0.98447 0.35795 0.27145 0.0
C382 C 0.96986 0.3638 0.27449 0.0
C383 C 0.95725 0.35341 0.27732 0.0
O384 O 0.9325 0.35831 0.28707 0.0
O385 O 0.93064 0.34926 0.27602 0.0
O386 O 0.95183 0.35044 0.27129 0.0
O387 O 0.95361 0.35911 0.2827 0.0
H388 H 0.94269 0.34263 0.29099 0.0
H389 H 0.94261 0.33047 0.30159 0.0
H390 H 0.91424 0.33098 0.30189 0.0
H391 H 0.91436 0.34307 0.29121 0.0
H392 H 0.90998 0.38511 0.26935 0.0
H393 H 0.92174 0.37479 0.27348 0.0
H394 H 0.92535 0.39358 0.24706 0.0
H395 H 0.93708 0.38341 0.25127 0.0
H396 H 0.98144 0.37176 0.27316 0.0
H397 H 0.98501 0.34379 0.26994 0.0
H398 H 0.96934 0.34148 0.2726 0.0
H399 H 0.96572 0.36941 0.27591 0.0
C400 C 0.66353 0.92775 0.2909 0.0
C401 C 0.66674 0.93562 0.29449 0.0
C402 C 0.67714 0.92743 0.30351 0.0
C403 C 0.67349 0.93546 0.30073 0.0
C404 C 0.67404 0.91958 0.29972 0.0
C405 C 0.66727 0.91974 0.29349 0.0
U406 U 0.64806 0.94042 0.27602 0.0
O407 O 0.64278 0.93734 0.26286 0.0
O408 O 0.63382 0.93932 0.274 0.0
C409 C 0.63462 0.93706 0.26569 0.0
C410 C 0.6562 0.92784 0.28458 0.0
C411 C 0.62926 0.92951 0.26279 0.0
C412 C 0.62233 0.91533 0.26547 0.0
C413 C 0.62819 0.92198 0.26803 0.0
C414 C 0.61885 0.92351 0.25226 0.0
C415 C 0.61743 0.91614 0.25766 0.0
C416 C 0.62468 0.93013 0.25482 0.0
C417 C 0.65146 0.96587 0.2756 0.0
C418 C 0.64525 0.98017 0.27926 0.0
C419 C 0.65503 0.97879 0.26681 0.0
C420 C 0.65583 0.96976 0.26844 0.0
C421 C 0.64993 0.98413 0.27235 0.0
C422 C 0.64604 0.97116 0.28089 0.0
C423 C 0.65347 0.95669 0.27825 0.0
O424 O 0.64896 0.9316 0.28742 0.0
O425 O 0.65826 0.93015 0.27651 0.0
O426 O 0.65671 0.9514 0.27223 0.0
O427 O 0.64782 0.95278 0.28349 0.0
H428 H 0.66395 0.94187 0.29254 0.0
H429 H 0.67574 0.94161 0.30354 0.0
H430 H 0.67686 0.91331 0.30157 0.0
H431 H 0.66492 0.91361 0.29073 0.0
H432 H 0.62138 0.90972 0.26974 0.0
H433 H 0.63169 0.92136 0.2742 0.0
H434 H 0.61532 0.92422 0.24612 0.0
H435 H 0.62546 0.93586 0.25066 0.0
H436 H 0.64131 0.98413 0.28368 0.0
H437 H 0.6586 0.98163 0.26134 0.0
H438 H 0.66013 0.96591 0.26427 0.0
H439 H 0.64267 0.96843 0.28654 0.0
C440 C 0.07929 0.66336 0.29036 0.0
C441 C 0.07255 0.66967 0.29044 0.0
C442 C 0.07959 0.67728 0.30266 0.0
C443 C 0.07271 0.67657 0.29652 0.0
C444 C 0.08631 0.67092 0.30256 0.0
C445 C 0.08617 0.66405 0.29645 0.0
U446 U 0.06631 0.64808 0.27552 0.0
O447 O 0.06944 0.64237 0.26258 0.0
O448 O 0.06688 0.63374 0.27385 0.0
C449 C 0.06931 0.63427 0.26558 0.0
C450 C 0.07901 0.65586 0.28424 0.0
C451 C 0.07673 0.62861 0.26299 0.0
C452 C 0.09179 0.62348 0.2647 0.0
C453 C 0.08503 0.62933 0.26697 0.0
C454 C 0.08207 0.6163 0.25434 0.0
C455 C 0.09031 0.61679 0.25848 0.0
C456 C 0.07535 0.62214 0.25659 0.0
C457 C 0.04118 0.65257 0.27437 0.0
C458 C 0.02868 0.64274 0.27258 0.0
C459 C 0.02671 0.65845 0.27105 0.0
C460 C 0.03567 0.65973 0.27262 0.0
C461 C 0.02307 0.64997 0.27124 0.0
C462 C 0.03767 0.64402 0.27414 0.0
C463 C 0.0503 0.65431 0.27722 0.0
O464 O 0.07483 0.6489 0.28719 0.0
O465 O 0.07706 0.65775 0.27604 0.0
O466 O 0.05581 0.65711 0.27118 0.0
O467 O 0.0538 0.6486 0.28267 0.0
H468 H 0.06713 0.66921 0.28585 0.0
H469 H 0.06744 0.68136 0.29644 0.0
H470 H 0.09157 0.67113 0.30734 0.0
H471 H 0.09136 0.65918 0.29656 0.0
H472 H 0.09809 0.62402 0.26798 0.0
H473 H 0.08622 0.63431 0.27192 0.0
H474 H 0.0808 0.61134 0.24939 0.0
H475 H 0.069 0.62151 0.25341 0.0
H476 H 0.02608 0.63611 0.27261 0.0
H477 H 0.02255 0.66415 0.27007 0.0
H478 H 0.03823 0.66638 0.27279 0.0
H479 H 0.0418 0.63837 0.27542 0.0
C480 C 0.34461 0.92847 0.71644 0.0
C481 C 0.34048 0.93636 0.71406 0.0
C482 C 0.33054 0.9284 0.70434 0.0
C483 C 0.33351 0.93633 0.70805 0.0
C484 C 0.33468 0.9205 0.7068 0.0
C485 C 0.34165 0.92054 0.71281 0.0
U486 U 0.36003 0.94111 0.73129 0.0
O487 O 0.36577 0.93794 0.74418 0.0
O488 O 0.3744 0.94045 0.73289 0.0
C489 C 0.37387 0.93805 0.74118 0.0
C490 C 0.35214 0.92852 0.72252 0.0
C491 C 0.3796 0.93072 0.74388 0.0
C492 C 0.38247 0.91515 0.74624 0.0
C493 C 0.37689 0.9219 0.74335 0.0
C494 C 0.39352 0.92595 0.75007 0.0
C495 C 0.39081 0.91712 0.74975 0.0
C496 C 0.38796 0.93267 0.74719 0.0
C497 C 0.35559 0.9663 0.73279 0.0
C498 C 0.36361 0.98011 0.73157 0.0
C499 C 0.34997 0.97958 0.73974 0.0
C500 C 0.34923 0.9706 0.73792 0.0
C501 C 0.35707 0.98448 0.73643 0.0
C502 C 0.36288 0.97111 0.72978 0.0
C503 C 0.35388 0.95718 0.72979 0.0
O504 O 0.35914 0.93265 0.71961 0.0
O505 O 0.35026 0.93044 0.73074 0.0
O506 O 0.35102 0.95157 0.73571 0.0
O507 O 0.35955 0.95371 0.72426 0.0
H508 H 0.34271 0.94256 0.71676 0.0
H509 H 0.33059 0.94254 0.70615 0.0
H510 H 0.33252 0.91429 0.70407 0.0
H511 H 0.34478 0.91439 0.71457 0.0
H512 H 0.38023 0.9084 0.74588 0.0
H513 H 0.37046 0.92026 0.74076 0.0
H514 H 0.39998 0.92768 0.75251 0.0
H515 H 0.3902 0.93942 0.74758 0.0
H516 H 0.36907 0.98373 0.72878 0.0
H517 H 0.34485 0.98276 0.74352 0.0
H518 H 0.3435 0.96709 0.74026 0.0
H519 H 0.36786 0.96803 0.72573 0.0
C520 C 0.07874 0.34403 0.71654 0.0
C521 C 0.07082 0.3397 0.71461 0.0
C522 C 0.07831 0.33043 0.70391 0.0
C523 C 0.07061 0.33295 0.70837 0.0
C524 C 0.08626 0.33467 0.706 0.0
C525 C 0.08646 0.34143 0.71225 0.0
U526 U 0.06651 0.35961 0.73158 0.0
O527 O 0.06981 0.36497 0.74464 0.0
O528 O 0.06768 0.37387 0.73349 0.0
C529 C 0.07005 0.37311 0.74176 0.0
C530 C 0.0789 0.35141 0.72279 0.0
C531 C 0.07767 0.37844 0.74449 0.0
C532 C 0.09246 0.38408 0.74212 0.0
C533 C 0.08558 0.37842 0.73973 0.0
C534 C 0.08367 0.38964 0.75417 0.0
C535 C 0.09153 0.38983 0.74932 0.0
C536 C 0.07682 0.384 0.75178 0.0
C537 C 0.04107 0.35617 0.73244 0.0
C538 C 0.02672 0.3624 0.72898 0.0
C539 C 0.02825 0.35248 0.74132 0.0
C540 C 0.03725 0.35172 0.73959 0.0
C541 C 0.02284 0.35763 0.73587 0.0
C542 C 0.03572 0.36165 0.72726 0.0
C543 C 0.05021 0.35418 0.72966 0.0
O544 O 0.07509 0.35863 0.71998 0.0
O545 O 0.07678 0.34943 0.73093 0.0
O546 O 0.0556 0.35098 0.73562 0.0
O547 O 0.05402 0.35981 0.72433 0.0
H548 H 0.06479 0.34161 0.71788 0.0
H549 H 0.06442 0.3297 0.70703 0.0
H550 H 0.09228 0.33288 0.70266 0.0
H551 H 0.09263 0.3447 0.71365 0.0
H552 H 0.09838 0.38416 0.73817 0.0
H553 H 0.08635 0.37418 0.73406 0.0
H554 H 0.08277 0.39395 0.75976 0.0
H555 H 0.07077 0.38411 0.75553 0.0
H556 H 0.02272 0.36638 0.72464 0.0
H557 H 0.02546 0.34885 0.74677 0.0
H558 H 0.04115 0.34738 0.74367 0.0
H559 H 0.03839 0.36508 0.72163 0.0
C560 C 0.6635 0.07901 0.71661 0.0
C561 C 0.66732 0.07106 0.71391 0.0
C562 C 0.67766 0.07901 0.70461 0.0
C563 C 0.67432 0.07105 0.70794 0.0
C564 C 0.67386 0.08696 0.70741 0.0
C565 C 0.66684 0.08695 0.71337 0.0
U566 U 0.64777 0.06638 0.73113 0.0
O567 O 0.64191 0.06944 0.74399 0.0
O568 O 0.63339 0.06716 0.73258 0.0
C569 C 0.63384 0.06943 0.7409 0.0
C570 C 0.6559 0.079 0.72261 0.0
C571 C 0.62814 0.07677 0.74364 0.0
C572 C 0.62521 0.09236 0.74582 0.0
C573 C 0.63078 0.08559 0.74291 0.0
C574 C 0.61433 0.08155 0.75007 0.0
C575 C 0.61697 0.09039 0.74954 0.0
C576 C 0.61987 0.07482 0.74717 0.0
C577 C 0.652 0.0412 0.73228 0.0
C578 C 0.6421 0.02875 0.73397 0.0
C579 C 0.65778 0.02674 0.73584 0.0
C580 C 0.65912 0.03568 0.73421 0.0
C581 C 0.64928 0.02313 0.73552 0.0
C582 C 0.64345 0.03772 0.73236 0.0
C583 C 0.65384 0.0503 0.72945 0.0
O584 O 0.64888 0.07499 0.71958 0.0
O585 O 0.65766 0.07696 0.73082 0.0
O586 O 0.65663 0.05577 0.73553 0.0
O587 O 0.64822 0.05387 0.72395 0.0
H588 H 0.66483 0.06485 0.71635 0.0
H589 H 0.67713 0.06483 0.70592 0.0
H590 H 0.67618 0.09318 0.70485 0.0
H591 H 0.66394 0.09315 0.71535 0.0
H592 H 0.62739 0.09911 0.74529 0.0
H593 H 0.63713 0.08723 0.74015 0.0
H594 H 0.60794 0.07982 0.75269 0.0
H595 H 0.61769 0.06806 0.74773 0.0
H596 H 0.63547 0.02617 0.73384 0.0
H597 H 0.66344 0.02258 0.73697 0.0
H598 H 0.66577 0.03822 0.73416 0.0
H599 H 0.63784 0.04186 0.73094 0.0
C600 C 0.92874 0.66362 0.71668 0.0
C601 C 0.93656 0.6671 0.71323 0.0
C602 C 0.9282 0.67748 0.70435 0.0
C603 C 0.93629 0.67398 0.70712 0.0
C604 C 0.9204 0.67415 0.70804 0.0
C605 C 0.92067 0.66726 0.71413 0.0
U606 U 0.94142 0.64786 0.73134 0.0
O607 O 0.93798 0.64171 0.74399 0.0
O608 O 0.94068 0.63345 0.73247 0.0
C609 C 0.93791 0.63373 0.74064 0.0
C610 C 0.92892 0.65604 0.72269 0.0
C611 C 0.93027 0.62805 0.74273 0.0
C612 C 0.91563 0.62568 0.74884 0.0
C613 C 0.92257 0.63136 0.74666 0.0
C614 C 0.92393 0.61336 0.74315 0.0
C615 C 0.91623 0.61663 0.74706 0.0
C616 C 0.93086 0.619 0.74102 0.0
C617 C 0.96663 0.65204 0.73287 0.0
C618 C 0.97916 0.64218 0.73421 0.0
C619 C 0.98108 0.65781 0.73652 0.0
C620 C 0.97212 0.65913 0.735 0.0
C621 C 0.98475 0.64935 0.73591 0.0
C622 C 0.97017 0.64351 0.73269 0.0
C623 C 0.95754 0.65391 0.73004 0.0
O624 O 0.93303 0.64907 0.71965 0.0
O625 O 0.93088 0.6578 0.73092 0.0
O626 O 0.952 0.65656 0.73612 0.0
O627 O 0.95403 0.64842 0.72437 0.0
H628 H 0.94286 0.66439 0.71515 0.0
H629 H 0.9424 0.6764 0.70439 0.0
H630 H 0.91408 0.67685 0.70619 0.0
H631 H 0.91458 0.6647 0.71678 0.0
H632 H 0.90978 0.62837 0.75187 0.0
H633 H 0.92192 0.6383 0.74809 0.0
H634 H 0.92466 0.6064 0.74187 0.0
H635 H 0.93675 0.61627 0.7381 0.0
H636 H 0.98177 0.63557 0.73386 0.0
H637 H 0.98521 0.66346 0.73779 0.0
H638 H 0.96954 0.66577 0.73514 0.0
H639 H 0.96606 0.63792 0.73111 0.0
C640 C 0.29082 0.34365 0.07888 0.0
C641 C 0.29242 0.33905 0.07104 0.0
C642 C 0.30335 0.32997 0.07843 0.0
C643 C 0.29861 0.33225 0.07083 0.0
C644 C 0.30158 0.33448 0.08631 0.0
C645 C 0.29538 0.34128 0.08652 0.0
U646 U 0.27592 0.35938 0.06665 0.0
O647 O 0.263 0.36498 0.07001 0.0
O648 O 0.27428 0.3737 0.06779 0.0
C649 C 0.26601 0.37309 0.07022 0.0
C650 C 0.28466 0.35111 0.07902 0.0
C651 C 0.26348 0.37841 0.0779 0.0
C652 C 0.26338 0.38126 0.09364 0.0
C653 C 0.26571 0.37591 0.0865 0.0
C654 C 0.25654 0.39159 0.08365 0.0
C655 C 0.25881 0.3892 0.09228 0.0
C656 C 0.25886 0.38625 0.07654 0.0
C657 C 0.27477 0.3559 0.04124 0.0
C658 C 0.27797 0.36245 0.02697 0.0
C659 C 0.26606 0.35201 0.02837 0.0
C660 C 0.26782 0.3512 0.03736 0.0
C661 C 0.27129 0.35744 0.02303 0.0
C662 C 0.27972 0.36166 0.03596 0.0
C663 C 0.27761 0.35386 0.05036 0.0
O664 O 0.28756 0.35827 0.07515 0.0
O665 O 0.27648 0.34924 0.07696 0.0
O666 O 0.27164 0.35078 0.0558 0.0
O667 O 0.28307 0.35941 0.05411 0.0
H668 H 0.28894 0.34078 0.06507 0.0
H669 H 0.29969 0.32878 0.06471 0.0
H670 H 0.30514 0.33288 0.09226 0.0
H671 H 0.29424 0.34477 0.09262 0.0
H672 H 0.26509 0.37916 0.10022 0.0
H673 H 0.26928 0.36986 0.08767 0.0
H674 H 0.25308 0.39768 0.08237 0.0
H675 H 0.2571 0.3883 0.06995 0.0
H676 H 0.28214 0.36666 0.02302 0.0
H677 H 0.26076 0.34818 0.02553 0.0
H678 H 0.26393 0.34664 0.04121 0.0
H679 H 0.2852 0.3653 0.03868 0.0
C680 C 0.29039 0.6634 0.92888 0.0
C681 C 0.29314 0.66714 0.93685 0.0
C682 C 0.30244 0.6775 0.92894 0.0
C683 C 0.29914 0.67412 0.93688 0.0
C684 C 0.29961 0.67377 0.92097 0.0
C685 C 0.29362 0.66678 0.92095 0.0
U686 U 0.27557 0.64765 0.94123 0.0
O687 O 0.26269 0.64197 0.93783 0.0
O688 O 0.27398 0.63332 0.94019 0.0
C689 C 0.26573 0.63388 0.93769 0.0
C690 C 0.28432 0.65586 0.92882 0.0
C691 C 0.26329 0.62854 0.93 0.0
C692 C 0.26431 0.62503 0.91442 0.0
C693 C 0.26654 0.63042 0.92157 0.0
C694 C 0.25552 0.61591 0.92406 0.0
C695 C 0.25884 0.61766 0.91561 0.0
C696 C 0.25774 0.62129 0.93117 0.0
C697 C 0.27409 0.65155 0.96649 0.0
C698 C 0.27341 0.642 0.97932 0.0
C699 C 0.26926 0.65731 0.9806 0.0
C700 C 0.27099 0.65853 0.97166 0.0
C701 C 0.27059 0.64907 0.98457 0.0
C702 C 0.27513 0.64322 0.97035 0.0
C703 C 0.27706 0.65344 0.95743 0.0
O704 O 0.28725 0.64878 0.9328 0.0
O705 O 0.27611 0.65769 0.9308 0.0
O706 O 0.2711 0.65638 0.95191 0.0
O707 O 0.28257 0.64783 0.95385 0.0
H708 H 0.2907 0.66462 0.94305 0.0
H709 H 0.30119 0.67687 0.94312 0.0
H710 H 0.30216 0.67613 0.91476 0.0
H711 H 0.2916 0.66394 0.91474 0.0
H712 H 0.26684 0.62664 0.90797 0.0
H713 H 0.27081 0.63602 0.92053 0.0
H714 H 0.25134 0.61026 0.92521 0.0
H715 H 0.25518 0.61973 0.93763 0.0
H716 H 0.27449 0.63558 0.98221 0.0
H717 H 0.26728 0.66293 0.98449 0.0
H718 H 0.27024 0.66503 0.96886 0.0
H719 H 0.27752 0.63771 0.96653 0.0
C720 C 0.34402 0.29039 0.92828 0.0
C721 C 0.33559 0.28805 0.93129 0.0
C722 C 0.3302 0.30286 0.9284 0.0
C723 C 0.32875 0.2942 0.93129 0.0
C724 C 0.33859 0.30515 0.92527 0.0
C725 C 0.34541 0.29898 0.9252 0.0
U726 U 0.35933 0.27506 0.94086 0.0
O727 O 0.36472 0.26202 0.93751 0.0
O728 O 0.37361 0.27312 0.94001 0.0
C729 C 0.37287 0.26489 0.93746 0.0
C730 C 0.35145 0.28409 0.92846 0.0
C731 C 0.37835 0.26219 0.92992 0.0
C732 C 0.386 0.2654 0.91622 0.0
C733 C 0.38011 0.26789 0.92287 0.0
C734 C 0.38815 0.25137 0.92343 0.0
C735 C 0.39024 0.25718 0.91656 0.0
C736 C 0.38229 0.25387 0.93005 0.0
C737 C 0.35511 0.27377 0.96608 0.0
C738 C 0.36491 0.27199 0.97862 0.0
C739 C 0.34919 0.27041 0.98054 0.0
C740 C 0.34793 0.27199 0.97158 0.0
C741 C 0.35766 0.27063 0.98421 0.0
C742 C 0.36365 0.27355 0.96962 0.0
C743 C 0.35338 0.2767 0.957 0.0
O744 O 0.35856 0.28686 0.9325 0.0
O745 O 0.34953 0.27585 0.93025 0.0
O746 O 0.35038 0.27078 0.95146 0.0
O747 O 0.35917 0.28206 0.95347 0.0
H748 H 0.33426 0.28148 0.93368 0.0
H749 H 0.32231 0.29216 0.93353 0.0
H750 H 0.33993 0.31176 0.92301 0.0
H751 H 0.35183 0.30095 0.92282 0.0
H752 H 0.38747 0.27 0.911 0.0
H753 H 0.3771 0.27434 0.9226 0.0
H754 H 0.39115 0.24492 0.92375 0.0
H755 H 0.38097 0.24935 0.93539 0.0
H756 H 0.37153 0.27203 0.98123 0.0
H757 H 0.34348 0.26942 0.98468 0.0
H758 H 0.3413 0.27215 0.969 0.0
H759 H 0.36931 0.27486 0.96551 0.0
C760 C 0.71662 0.34404 0.92845 0.0
C761 C 0.71678 0.3375 0.93495 0.0
C762 C 0.70434 0.33011 0.92805 0.0
C763 C 0.71071 0.33058 0.93474 0.0
C764 C 0.7042 0.33672 0.92158 0.0
C765 C 0.7103 0.34359 0.92176 0.0
U766 U 0.73158 0.35939 0.94133 0.0
O767 O 0.74446 0.3651 0.93806 0.0
O768 O 0.7332 0.37375 0.94059 0.0
C769 C 0.74144 0.3732 0.93805 0.0
C770 C 0.72274 0.35155 0.92875 0.0
C771 C 0.74387 0.37866 0.93044 0.0
C772 C 0.7442 0.3815 0.91469 0.0
C773 C 0.74186 0.37611 0.9218 0.0
C774 C 0.75058 0.39202 0.9248 0.0
C775 C 0.74855 0.38955 0.91613 0.0
C776 C 0.74826 0.38663 0.93187 0.0
C777 C 0.7331 0.35506 0.96649 0.0
C778 C 0.73421 0.36462 0.97928 0.0
C779 C 0.73765 0.34915 0.98063 0.0
C780 C 0.73587 0.34797 0.9717 0.0
C781 C 0.7367 0.35745 0.98456 0.0
C782 C 0.73245 0.36345 0.97031 0.0
C783 C 0.7301 0.35328 0.95742 0.0
O784 O 0.71981 0.3585 0.93295 0.0
O785 O 0.73096 0.34966 0.93064 0.0
O786 O 0.73604 0.35042 0.95183 0.0
O787 O 0.72459 0.35896 0.95395 0.0
H788 H 0.72155 0.33777 0.94023 0.0
H789 H 0.71098 0.32561 0.93983 0.0
H790 H 0.69924 0.33669 0.91648 0.0
H791 H 0.71 0.34864 0.91675 0.0
H792 H 0.74268 0.37935 0.90809 0.0
H793 H 0.73849 0.36996 0.92056 0.0
H794 H 0.75387 0.39819 0.92613 0.0
H795 H 0.74985 0.38871 0.9385 0.0
H796 H 0.73343 0.3711 0.98213 0.0
H797 H 0.73937 0.34346 0.98455 0.0
H798 H 0.73633 0.34143 0.96892 0.0
H799 H 0.73033 0.36904 0.96646 0.0
C800 C 0.66387 0.71674 0.92806 0.0
C801 C 0.66711 0.71317 0.93593 0.0
C802 C 0.67744 0.70408 0.92772 0.0
C803 C 0.67384 0.7069 0.93576 0.0
C804 C 0.67431 0.70785 0.91988 0.0
C805 C 0.66757 0.71411 0.92005 0.0
U806 U 0.64856 0.73194 0.94062 0.0
O807 O 0.6433 0.74503 0.93729 0.0
O808 O 0.63431 0.73398 0.93957 0.0
C809 C 0.63513 0.74222 0.93712 0.0
C810 C 0.65655 0.72307 0.92816 0.0
C811 C 0.62979 0.74494 0.9295 0.0
C812 C 0.62359 0.74223 0.91499 0.0
C813 C 0.62928 0.73981 0.92184 0.0
C814 C 0.61906 0.75502 0.92331 0.0
C815 C 0.61834 0.74982 0.9157 0.0
C816 C 0.62473 0.75261 0.93012 0.0
C817 C 0.65221 0.73311 0.96597 0.0
C818 C 0.64414 0.7315 0.97972 0.0
C819 C 0.65733 0.74036 0.9793 0.0
C820 C 0.65825 0.73857 0.97032 0.0
C821 C 0.65037 0.7367 0.98414 0.0
C822 C 0.64504 0.72973 0.97074 0.0
C823 C 0.65413 0.73014 0.95688 0.0
O824 O 0.64936 0.72032 0.93207 0.0
O825 O 0.65866 0.73118 0.93027 0.0
O826 O 0.65733 0.73602 0.95141 0.0
O827 O 0.64844 0.7248 0.95317 0.0
H828 H 0.66436 0.71515 0.94219 0.0
H829 H 0.6761 0.70411 0.94191 0.0
H830 H 0.67709 0.70597 0.9136 0.0
H831 H 0.6652 0.71685 0.91392 0.0
H832 H 0.62308 0.738 0.90929 0.0
H833 H 0.63312 0.73385 0.92124 0.0
H834 H 0.61514 0.76093 0.92403 0.0
H835 H 0.62503 0.75665 0.93598 0.0
H836 H 0.6388 0.72843 0.98329 0.0
H837 H 0.66223 0.74441 0.98251 0.0
H838 H 0.6639 0.74119 0.96687 0.0
H839 H 0.64031 0.7254 0.96763 0.0
C840 C 0.71657 0.66296 0.07913 0.0
C841 C 0.71757 0.67015 0.07342 0.0
C842 C 0.70412 0.67672 0.07908 0.0
C843 C 0.71142 0.67699 0.07342 0.0
C844 C 0.70312 0.66951 0.08476 0.0
C845 C 0.70932 0.66271 0.08481 0.0
U846 U 0.73176 0.64757 0.06661 0.0
O847 O 0.7448 0.64219 0.06993 0.0
O848 O 0.73369 0.63328 0.06763 0.0
C849 C 0.74194 0.63404 0.0701 0.0
C850 C 0.72282 0.65553 0.07902 0.0
C851 C 0.74457 0.62876 0.07779 0.0
C852 C 0.74227 0.62357 0.09275 0.0
C853 C 0.73982 0.62898 0.08569 0.0
C854 C 0.75433 0.6178 0.08411 0.0
C855 C 0.74956 0.61792 0.09202 0.0
C856 C 0.75186 0.62318 0.07708 0.0
C857 C 0.73294 0.65162 0.04134 0.0
C858 C 0.73459 0.64181 0.02881 0.0
C859 C 0.73631 0.65751 0.02688 0.0
C860 C 0.73478 0.65878 0.03584 0.0
C861 C 0.73599 0.64904 0.02321 0.0
C862 C 0.73307 0.64309 0.03781 0.0
C863 C 0.73005 0.65339 0.05044 0.0
O864 O 0.72 0.64842 0.07501 0.0
O865 O 0.73103 0.65746 0.07713 0.0
O866 O 0.73599 0.65643 0.05593 0.0
O867 O 0.72472 0.64761 0.05402 0.0
H868 H 0.72305 0.67044 0.06888 0.0
H869 H 0.71226 0.6824 0.06887 0.0
H870 H 0.69755 0.66914 0.08918 0.0
H871 H 0.70839 0.6572 0.08923 0.0
H872 H 0.73846 0.62379 0.09876 0.0
H873 H 0.73416 0.63325 0.08637 0.0
H874 H 0.75983 0.61337 0.08326 0.0
H875 H 0.75558 0.62288 0.07101 0.0
H876 H 0.73447 0.63519 0.02619 0.0
H877 H 0.73734 0.66321 0.02274 0.0
H878 H 0.73468 0.66542 0.03842 0.0
H879 H 0.73172 0.63744 0.04192 0.0
C880 C 0.34406 0.71623 0.07879 0.0
C881 C 0.34041 0.71299 0.07096 0.0
C882 C 0.33026 0.70383 0.07931 0.0
C883 C 0.33355 0.70686 0.07122 0.0
C884 C 0.33378 0.70729 0.08713 0.0
C885 C 0.34065 0.71341 0.08687 0.0
U886 U 0.35965 0.73102 0.06606 0.0
O887 O 0.36563 0.74375 0.06945 0.0
O888 O 0.37405 0.73234 0.06678 0.0
C889 C 0.37367 0.74055 0.06942 0.0
C890 C 0.3516 0.7223 0.07859 0.0
C891 C 0.37935 0.74285 0.07695 0.0
C892 C 0.3816 0.74648 0.09239 0.0
C893 C 0.37599 0.74409 0.08547 0.0
C894 C 0.39398 0.74627 0.08239 0.0
C895 C 0.39066 0.74762 0.09091 0.0
C896 C 0.38838 0.74393 0.0755 0.0
C897 C 0.35554 0.73269 0.04089 0.0
C898 C 0.36515 0.73344 0.02811 0.0
C899 C 0.34987 0.73767 0.02679 0.0
C900 C 0.3486 0.73586 0.03571 0.0
C901 C 0.35812 0.73634 0.02285 0.0
C902 C 0.36389 0.73166 0.03705 0.0
C903 C 0.35362 0.7297 0.04993 0.0
O904 O 0.35858 0.71932 0.07446 0.0
O905 O 0.34976 0.73051 0.07664 0.0
O906 O 0.35086 0.73569 0.05552 0.0
O907 O 0.35914 0.72405 0.05344 0.0
H908 H 0.34295 0.71511 0.06465 0.0
H909 H 0.33098 0.70431 0.06509 0.0
H910 H 0.33125 0.70524 0.09346 0.0
H911 H 0.34335 0.71588 0.09297 0.0
H912 H 0.37888 0.74735 0.09891 0.0
H913 H 0.36904 0.74324 0.08677 0.0
H914 H 0.40091 0.74714 0.08103 0.0
H915 H 0.39111 0.74302 0.06898 0.0
H916 H 0.37158 0.73237 0.02524 0.0
H917 H 0.34428 0.73971 0.02288 0.0
H918 H 0.34209 0.73662 0.03849 0.0
H919 H 0.36937 0.72923 0.04089 0.0
C920 C 0.66327 0.29123 0.07933 0.0
C921 C 0.6671 0.29424 0.0715 0.0
C922 C 0.67702 0.30369 0.0798 0.0
C923 C 0.67393 0.30041 0.07173 0.0
C924 C 0.67331 0.30046 0.08764 0.0
C925 C 0.66647 0.29431 0.0874 0.0
U926 U 0.64788 0.27642 0.06647 0.0
O927 O 0.64198 0.26361 0.0697 0.0
O928 O 0.6335 0.27497 0.06703 0.0
C929 C 0.63392 0.26672 0.06957 0.0
C930 C 0.65577 0.28512 0.07912 0.0
C931 C 0.62818 0.26429 0.07699 0.0
C932 C 0.62542 0.26216 0.09262 0.0
C933 C 0.6311 0.26455 0.08575 0.0
C934 C 0.61387 0.25931 0.08204 0.0
C935 C 0.61674 0.25951 0.09082 0.0
C936 C 0.61954 0.26165 0.07521 0.0
C937 C 0.65227 0.27507 0.04134 0.0
C938 C 0.64234 0.27322 0.02892 0.0
C939 C 0.65804 0.2716 0.02685 0.0
C940 C 0.65939 0.27324 0.03579 0.0
C941 C 0.64953 0.27179 0.02327 0.0
C942 C 0.6437 0.27484 0.03789 0.0
C943 C 0.65408 0.27795 0.05042 0.0
O944 O 0.64879 0.28806 0.07497 0.0
O945 O 0.65767 0.27692 0.07714 0.0
O946 O 0.65681 0.2719 0.05596 0.0
O947 O 0.64846 0.2835 0.05392 0.0
H948 H 0.66472 0.29192 0.0652 0.0
H949 H 0.67664 0.30278 0.06559 0.0
H950 H 0.67568 0.30272 0.09396 0.0
H951 H 0.66363 0.29201 0.09351 0.0
H952 H 0.62777 0.2625 0.09933 0.0
H953 H 0.63774 0.26663 0.08727 0.0
H954 H 0.60725 0.25725 0.08045 0.0
H955 H 0.61716 0.26141 0.0685 0.0
H956 H 0.6357 0.27325 0.02637 0.0
H957 H 0.6637 0.27056 0.02266 0.0
H958 H 0.66605 0.2734 0.0383 0.0
H959 H 0.63809 0.27618 0.04206 0.0
C960 C 0.92854 0.71714 0.66348 0.0
C961 C 0.93639 0.71366 0.66687 0.0
C962 C 0.9281 0.70467 0.67721 0.0
C963 C 0.93617 0.70748 0.67368 0.0
C964 C 0.92028 0.70836 0.67395 0.0
C965 C 0.9205 0.71452 0.66712 0.0
U966 U 0.94119 0.73203 0.64792 0.0
O967 O 0.94019 0.73373 0.6336 0.0
O968 O 0.93786 0.74497 0.64233 0.0
C969 C 0.9377 0.74198 0.63422 0.0
C970 C 0.92868 0.72332 0.65603 0.0
C971 C 0.93 0.74445 0.6289 0.0
C972 C 0.91459 0.74285 0.62491 0.0
C973 C 0.92171 0.74067 0.63036 0.0
C974 C 0.92397 0.75268 0.61662 0.0
C975 C 0.91568 0.7488 0.6179 0.0
C976 C 0.93105 0.75051 0.62205 0.0
C977 C 0.96653 0.73325 0.65178 0.0
C978 C 0.98037 0.73141 0.64392 0.0
C979 C 0.97986 0.74043 0.65701 0.0
C980 C 0.97086 0.73874 0.65781 0.0
C981 C 0.98476 0.73663 0.65016 0.0
C982 C 0.97136 0.72974 0.64471 0.0
C983 C 0.95741 0.73036 0.65364 0.0
O984 O 0.93078 0.73147 0.65798 0.0
O985 O 0.93265 0.72042 0.64893 0.0
O986 O 0.95375 0.7249 0.64802 0.0
O987 O 0.95192 0.73631 0.65666 0.0
H988 H 0.94267 0.71563 0.66415 0.0
H989 H 0.9423 0.70475 0.67606 0.0
H990 H 0.91398 0.70648 0.67667 0.0
H991 H 0.91439 0.71719 0.66463 0.0
H992 H 0.90825 0.73988 0.62618 0.0
H993 H 0.92076 0.736 0.63565 0.0
H994 H 0.92503 0.75725 0.61126 0.0
H995 H 0.93741 0.75348 0.62082 0.0
H996 H 0.98399 0.72824 0.63867 0.0
H997 H 0.98305 0.7445 0.6619 0.0
H998 H 0.96735 0.74146 0.66338 0.0
H999 H 0.96828 0.72539 0.64 0.0
C1000 C 0.29087 0.92867 0.66351 0.0
C1001 C 0.29338 0.93656 0.66758 0.0
C1002 C 0.30322 0.92854 0.67736 0.0
C1003 C 0.29951 0.9365 0.67444 0.0
C1004 C 0.30065 0.92066 0.67326 0.0
C1005 C 0.29451 0.92073 0.6664 0.0
U1006 U 0.27559 0.94108 0.64816 0.0
O1007 O 0.27355 0.93999 0.6339 0.0
O1008 O 0.26254 0.93758 0.6429 0.0
C1009 C 0.26536 0.93737 0.63474 0.0
C1010 C 0.2846 0.9287 0.65613 0.0
C1011 C 0.26279 0.92961 0.62951 0.0
C1012 C 0.26611 0.91545 0.62282 0.0
C1013 C 0.26851 0.92245 0.62831 0.0
C1014 C 0.25217 0.92255 0.61987 0.0
C1015 C 0.25793 0.91545 0.6185 0.0
C1016 C 0.25459 0.92954 0.62533 0.0
C1017 C 0.27409 0.96635 0.652 0.0
C1018 C 0.27317 0.97917 0.64245 0.0
C1019 C 0.26926 0.98044 0.65782 0.0
C1020 C 0.27107 0.97151 0.65902 0.0
C1021 C 0.27043 0.98441 0.64956 0.0
C1022 C 0.27495 0.97022 0.64365 0.0
C1023 C 0.27715 0.95731 0.65384 0.0
O1024 O 0.27645 0.93068 0.65819 0.0
O1025 O 0.28735 0.93272 0.649 0.0
O1026 O 0.28252 0.95374 0.64809 0.0
O1027 O 0.27132 0.95177 0.65699 0.0
H1028 H 0.29066 0.94277 0.66539 0.0
H1029 H 0.30149 0.94269 0.67734 0.0
H1030 H 0.30337 0.91443 0.67538 0.0
H1031 H 0.29265 0.91458 0.66333 0.0
H1032 H 0.27068 0.91007 0.62188 0.0
H1033 H 0.27488 0.92235 0.6315 0.0
H1034 H 0.24591 0.92284 0.6165 0.0
H1035 H 0.2501 0.93502 0.62613 0.0
H1036 H 0.27412 0.98206 0.63601 0.0
H1037 H 0.26735 0.98432 0.66348 0.0
H1038 H 0.27044 0.96871 0.66554 0.0
H1039 H 0.27728 0.9664 0.6381 0.0
C1040 C 0.07832 0.29067 0.66315 0.0
C1041 C 0.07045 0.29265 0.66753 0.0
C1042 C 0.07809 0.3033 0.67674 0.0
C1043 C 0.07033 0.29889 0.67428 0.0
C1044 C 0.08599 0.30115 0.67244 0.0
C1045 C 0.08609 0.2949 0.66569 0.0
U1046 U 0.06597 0.27542 0.64782 0.0
O1047 O 0.06698 0.27338 0.63356 0.0
O1048 O 0.06935 0.26234 0.64255 0.0
C1049 C 0.06948 0.26515 0.63438 0.0
C1050 C 0.07839 0.28438 0.65579 0.0
C1051 C 0.07704 0.26239 0.62896 0.0
C1052 C 0.09091 0.26546 0.62157 0.0
C1053 C 0.08425 0.26796 0.62744 0.0
C1054 C 0.0834 0.25167 0.61896 0.0
C1055 C 0.09043 0.25737 0.6171 0.0
C1056 C 0.07676 0.25418 0.6248 0.0
C1057 C 0.04069 0.27418 0.65167 0.0
C1058 C 0.02783 0.27347 0.64215 0.0
C1059 C 0.02658 0.2694 0.65748 0.0
C1060 C 0.03552 0.27112 0.65867 0.0
C1061 C 0.02259 0.2707 0.64924 0.0
C1062 C 0.03681 0.27517 0.64333 0.0
C1063 C 0.04976 0.27715 0.65351 0.0
O1064 O 0.07638 0.27623 0.65785 0.0
O1065 O 0.07443 0.28712 0.64862 0.0
O1066 O 0.05339 0.28249 0.64777 0.0
O1067 O 0.05524 0.27126 0.65665 0.0
H1068 H 0.06438 0.28941 0.66567 0.0
H1069 H 0.06418 0.30027 0.67759 0.0
H1070 H 0.09205 0.30444 0.67419 0.0
H1071 H 0.09222 0.29345 0.66237 0.0
H1072 H 0.09627 0.26996 0.62029 0.0
H1073 H 0.08463 0.27432 0.63062 0.0
H1074 H 0.08295 0.24532 0.61578 0.0
H1075 H 0.07129 0.24976 0.62593 0.0
H1076 H 0.02494 0.27452 0.63573 0.0
H1077 H 0.02269 0.26746 0.66311 0.0
H1078 H 0.03833 0.2704 0.66517 0.0
H1079 H 0.04062 0.27753 0.63781 0.0
C1080 C 0.71716 0.07876 0.66365 0.0
C1081 C 0.71436 0.07083 0.66744 0.0
C1082 C 0.70497 0.07886 0.67764 0.0
C1083 C 0.70829 0.07088 0.67436 0.0
C1084 C 0.70787 0.08679 0.67386 0.0
C1085 C 0.71392 0.08673 0.66693 0.0
U1086 U 0.73206 0.06623 0.6481 0.0
O1087 O 0.73381 0.06716 0.63379 0.0
O1088 O 0.74503 0.06954 0.64254 0.0
C1089 C 0.74207 0.06961 0.63442 0.0
C1090 C 0.72331 0.07873 0.65617 0.0
C1091 C 0.74467 0.07718 0.62897 0.0
C1092 C 0.74252 0.09214 0.62371 0.0
C1093 C 0.74021 0.08525 0.62939 0.0
C1094 C 0.75388 0.08302 0.6173 0.0
C1095 C 0.74934 0.09107 0.61755 0.0
C1096 C 0.75157 0.07616 0.62295 0.0
C1097 C 0.7334 0.04099 0.65207 0.0
C1098 C 0.73416 0.02817 0.6425 0.0
C1099 C 0.73818 0.02687 0.65784 0.0
C1100 C 0.73643 0.0358 0.65906 0.0
C1101 C 0.73692 0.02291 0.64959 0.0
C1102 C 0.73243 0.03714 0.64372 0.0
C1103 C 0.73044 0.05006 0.65393 0.0
O1104 O 0.73148 0.0767 0.65809 0.0
O1105 O 0.72041 0.07473 0.64908 0.0
O1106 O 0.72499 0.05365 0.64827 0.0
O1107 O 0.73639 0.05556 0.65692 0.0
H1108 H 0.7168 0.0646 0.665 0.0
H1109 H 0.7062 0.06467 0.67715 0.0
H1110 H 0.70531 0.09303 0.67613 0.0
H1111 H 0.71599 0.09291 0.66405 0.0
H1112 H 0.73881 0.09821 0.62397 0.0
H1113 H 0.73484 0.08615 0.63398 0.0
H1114 H 0.75919 0.08201 0.61266 0.0
H1115 H 0.7551 0.06999 0.62253 0.0
H1116 H 0.73314 0.0253 0.63607 0.0
H1117 H 0.74012 0.02297 0.66347 0.0
H1118 H 0.73714 0.0386 0.66557 0.0
H1119 H 0.73009 0.04097 0.6382 0.0
C1120 C 0.92819 0.29045 0.3437 0.0
C1121 C 0.93616 0.29338 0.34011 0.0
C1122 C 0.92825 0.30262 0.32969 0.0
C1123 C 0.93619 0.29944 0.33318 0.0
C1124 C 0.92027 0.2996 0.33328 0.0
C1125 C 0.92025 0.29356 0.34022 0.0
U1126 U 0.94064 0.27573 0.35943 0.0
O1127 O 0.93956 0.27396 0.37372 0.0
O1128 O 0.93749 0.26269 0.36494 0.0
C1129 C 0.93728 0.26565 0.37305 0.0
C1130 C 0.92814 0.28429 0.35117 0.0
C1131 C 0.92976 0.26285 0.3785 0.0
C1132 C 0.91529 0.26534 0.38486 0.0
C1133 C 0.92197 0.26777 0.37898 0.0
C1134 C 0.924 0.25289 0.38958 0.0
C1135 C 0.91634 0.25798 0.39037 0.0
C1136 C 0.93065 0.25531 0.38372 0.0
C1137 C 0.96606 0.27501 0.35592 0.0
C1138 C 0.98038 0.27853 0.36219 0.0
C1139 C 0.97895 0.26622 0.35223 0.0
C1140 C 0.96993 0.2679 0.35145 0.0
C1141 C 0.98431 0.27168 0.35741 0.0
C1142 C 0.97138 0.28021 0.36142 0.0
C1143 C 0.9569 0.27772 0.35391 0.0
O1144 O 0.93033 0.27615 0.34927 0.0
O1145 O 0.93195 0.28722 0.35835 0.0
O1146 O 0.95308 0.28309 0.3595 0.0
O1147 O 0.95154 0.27169 0.35079 0.0
H1148 H 0.94236 0.29104 0.34271 0.0
H1149 H 0.94243 0.30162 0.33054 0.0
H1150 H 0.91405 0.30205 0.33084 0.0
H1151 H 0.91404 0.29139 0.34294 0.0
H1152 H 0.90944 0.26937 0.38531 0.0
H1153 H 0.92115 0.2736 0.37498 0.0
H1154 H 0.92491 0.24708 0.3936 0.0
H1155 H 0.93659 0.2514 0.38342 0.0
H1156 H 0.98435 0.28288 0.36619 0.0
H1157 H 0.98177 0.26079 0.34858 0.0
H1158 H 0.96607 0.26381 0.34709 0.0
H1159 H 0.96866 0.28581 0.36487 0.0
C1160 C 0.71678 0.92848 0.34439 0.0
C1161 C 0.71311 0.93626 0.34105 0.0
C1162 C 0.70425 0.92782 0.33072 0.0
C1163 C 0.7069 0.93593 0.33427 0.0
C1164 C 0.70812 0.92006 0.33394 0.0
C1165 C 0.71432 0.9204 0.34074 0.0
U1166 U 0.7317 0.9414 0.35969 0.0
O1167 O 0.73368 0.94045 0.37397 0.0
O1168 O 0.7448 0.93829 0.36505 0.0
C1169 C 0.74195 0.93807 0.3732 0.0
C1170 C 0.72306 0.92874 0.35176 0.0
C1171 C 0.74463 0.93039 0.37846 0.0
C1172 C 0.74253 0.91531 0.38339 0.0
C1173 C 0.74009 0.92237 0.37799 0.0
C1174 C 0.75417 0.92417 0.38967 0.0
C1175 C 0.74961 0.91614 0.3893 0.0
C1176 C 0.75172 0.93121 0.38429 0.0
C1177 C 0.73249 0.96667 0.35562 0.0
C1178 C 0.73413 0.97922 0.36541 0.0
C1179 C 0.73585 0.98113 0.3497 0.0
C1180 C 0.73432 0.97216 0.34845 0.0
C1181 C 0.73555 0.98481 0.35817 0.0
C1182 C 0.7326 0.97022 0.36414 0.0
C1183 C 0.72971 0.95753 0.35386 0.0
O1184 O 0.73115 0.93093 0.34969 0.0
O1185 O 0.7202 0.9327 0.35888 0.0
O1186 O 0.72444 0.95387 0.35965 0.0
O1187 O 0.73572 0.95214 0.35081 0.0
H1188 H 0.71497 0.94258 0.34377 0.0
H1189 H 0.70403 0.94201 0.33193 0.0
H1190 H 0.70636 0.91373 0.33121 0.0
H1191 H 0.71714 0.91433 0.34318 0.0
H1192 H 0.73889 0.90921 0.38297 0.0
H1193 H 0.73459 0.92161 0.37352 0.0
H1194 H 0.7595 0.9251 0.39429 0.0
H1195 H 0.75527 0.93736 0.38479 0.0
H1196 H 0.73402 0.98185 0.37202 0.0
H1197 H 0.73689 0.98526 0.344 0.0
H1198 H 0.73424 0.96957 0.34181 0.0
H1199 H 0.73126 0.96611 0.3698 0.0
C1200 C 0.07839 0.71631 0.34423 0.0
C1201 C 0.07491 0.7078 0.34526 0.0
C1202 C 0.07896 0.70405 0.33022 0.0
C1203 C 0.07518 0.70176 0.33834 0.0
C1204 C 0.08238 0.71257 0.32916 0.0
C1205 C 0.08215 0.71861 0.33611 0.0
U1206 U 0.066 0.73195 0.35952 0.0
O1207 O 0.06703 0.73407 0.37376 0.0
O1208 O 0.06958 0.74501 0.36472 0.0
C1209 C 0.06968 0.74225 0.3729 0.0
C1210 C 0.07825 0.72276 0.35156 0.0
C1211 C 0.07742 0.74473 0.37818 0.0
C1212 C 0.0923 0.74202 0.3834 0.0
C1213 C 0.08526 0.73987 0.37785 0.0
C1214 C 0.08383 0.75405 0.38947 0.0
C1215 C 0.0916 0.74906 0.38937 0.0
C1216 C 0.07681 0.75189 0.38394 0.0
C1217 C 0.04072 0.73331 0.35562 0.0
C1218 C 0.02815 0.73492 0.3654 0.0
C1219 C 0.02632 0.73697 0.34973 0.0
C1220 C 0.03527 0.73536 0.34847 0.0
C1221 C 0.02261 0.73653 0.35817 0.0
C1222 C 0.03713 0.73331 0.36414 0.0
C1223 C 0.04978 0.73032 0.35383 0.0
O1224 O 0.07637 0.73093 0.34944 0.0
O1225 O 0.0744 0.72022 0.35887 0.0
O1226 O 0.05336 0.72501 0.35963 0.0
O1227 O 0.05529 0.73618 0.35069 0.0
H1228 H 0.07199 0.70576 0.35142 0.0
H1229 H 0.07254 0.69523 0.33937 0.0
H1230 H 0.08516 0.71461 0.32293 0.0
H1231 H 0.08489 0.7251 0.33511 0.0
H1232 H 0.09826 0.73816 0.38304 0.0
H1233 H 0.08587 0.73434 0.37341 0.0
H1234 H 0.08307 0.75948 0.39401 0.0
H1235 H 0.07081 0.75572 0.38429 0.0
H1236 H 0.0255 0.73469 0.372 0.0
H1237 H 0.02222 0.73816 0.34403 0.0
H1238 H 0.03788 0.73536 0.34184 0.0
H1239 H 0.0412 0.73179 0.36978 0.0
C1240 C 0.2903 0.07923 0.34399 0.0
C1241 C 0.2937 0.07138 0.34053 0.0
C1242 C 0.30282 0.07966 0.3303 0.0
C1243 C 0.2999 0.07159 0.33374 0.0
C1244 C 0.29923 0.0875 0.33364 0.0
C1245 C 0.29304 0.08728 0.34045 0.0
U1246 U 0.27532 0.06648 0.35931 0.0
O1247 O 0.2734 0.06734 0.37359 0.0
O1248 O 0.26225 0.06968 0.36474 0.0
C1249 C 0.26513 0.06975 0.37288 0.0
C1250 C 0.28404 0.07907 0.35137 0.0
C1251 C 0.2624 0.07725 0.37838 0.0
C1252 C 0.26516 0.09153 0.38508 0.0
C1253 C 0.26756 0.08487 0.37916 0.0
C1254 C 0.25227 0.08316 0.38923 0.0
C1255 C 0.25759 0.09063 0.39033 0.0
C1256 C 0.25467 0.07653 0.38334 0.0
C1257 C 0.27431 0.04116 0.35532 0.0
C1258 C 0.27593 0.02739 0.36335 0.0
C1259 C 0.26745 0.02774 0.3499 0.0
C1260 C 0.2691 0.03675 0.3491 0.0
C1261 C 0.271 0.02292 0.35694 0.0
C1262 C 0.27756 0.03641 0.36256 0.0
C1263 C 0.27717 0.0503 0.35352 0.0
O1264 O 0.27592 0.07695 0.34932 0.0
O1265 O 0.28688 0.0751 0.3585 0.0
O1266 O 0.28254 0.05397 0.35921 0.0
O1267 O 0.27122 0.05576 0.35045 0.0
H1268 H 0.29163 0.06509 0.34317 0.0
H1269 H 0.30255 0.06545 0.33131 0.0
H1270 H 0.3012 0.09381 0.331 0.0
H1271 H 0.29043 0.0934 0.34299 0.0
H1272 H 0.26936 0.09723 0.38577 0.0
H1273 H 0.27354 0.08557 0.37536 0.0
H1274 H 0.24631 0.08237 0.39305 0.0
H1275 H 0.25057 0.07073 0.3828 0.0
H1276 H 0.2789 0.02383 0.36876 0.0
H1277 H 0.26361 0.02449 0.34487 0.0
H1278 H 0.26659 0.0402 0.3434 0.0
H1279 H 0.28168 0.03956 0.36743 0.0
C1280 C 0.66323 0.9289 0.71719 0.0
C1281 C 0.66724 0.93681 0.71462 0.0
C1282 C 0.67728 0.92879 0.70506 0.0
C1283 C 0.67419 0.93676 0.7086 0.0
C1284 C 0.67327 0.92089 0.7077 0.0
C1285 C 0.66631 0.92095 0.71372 0.0
U1286 U 0.64761 0.94151 0.7319 0.0
O1287 O 0.63326 0.9406 0.73351 0.0
O1288 O 0.64191 0.93831 0.74481 0.0
C1289 C 0.63382 0.93817 0.74178 0.0
C1290 C 0.65571 0.92895 0.72327 0.0
C1291 C 0.62845 0.9305 0.74427 0.0
C1292 C 0.62537 0.91481 0.74398 0.0
C1293 C 0.63074 0.92195 0.74169 0.0
C1294 C 0.61544 0.92473 0.7515 0.0
C1295 C 0.61761 0.91614 0.74886 0.0
C1296 C 0.62081 0.93183 0.74922 0.0
C1297 C 0.65173 0.96676 0.73295 0.0
C1298 C 0.64191 0.9793 0.73443 0.0
C1299 C 0.65759 0.98123 0.73635 0.0
C1300 C 0.65887 0.97226 0.73486 0.0
C1301 C 0.64912 0.9849 0.73592 0.0
C1302 C 0.6432 0.9703 0.73295 0.0
C1303 C 0.65353 0.95764 0.73017 0.0
O1304 O 0.65757 0.93101 0.73146 0.0
O1305 O 0.64865 0.93294 0.72031 0.0
O1306 O 0.64787 0.95403 0.72474 0.0
O1307 O 0.65641 0.9522 0.73623 0.0
H1308 H 0.66491 0.94302 0.7172 0.0
H1309 H 0.67701 0.94297 0.70656 0.0
H1310 H 0.67552 0.91465 0.7051 0.0
H1311 H 0.66329 0.91478 0.71562 0.0
H1312 H 0.6273 0.90826 0.74198 0.0
H1313 H 0.63665 0.9208 0.73788 0.0
H1314 H 0.60949 0.92598 0.75521 0.0
H1315 H 0.61893 0.93839 0.75126 0.0
H1316 H 0.6353 0.98192 0.73422 0.0
H1317 H 0.66328 0.98537 0.73744 0.0
H1318 H 0.66551 0.96968 0.73486 0.0
H1319 H 0.63757 0.96618 0.73155 0.0
C1320 C 0.07919 0.66337 0.71709 0.0
C1321 C 0.07136 0.66669 0.71351 0.0
C1322 C 0.07967 0.67701 0.70451 0.0
C1323 C 0.0716 0.67346 0.70728 0.0
C1324 C 0.08748 0.6738 0.70828 0.0
C1325 C 0.08724 0.66702 0.7145 0.0
U1326 U 0.0664 0.64806 0.73208 0.0
O1327 O 0.06733 0.6338 0.73411 0.0
O1328 O 0.06954 0.64276 0.74521 0.0
C1329 C 0.06972 0.6346 0.74238 0.0
C1330 C 0.07902 0.65602 0.72339 0.0
C1331 C 0.07726 0.62918 0.74522 0.0
C1332 C 0.091 0.62152 0.74222 0.0
C1333 C 0.08439 0.6274 0.73961 0.0
C1334 C 0.08363 0.61944 0.75617 0.0
C1335 C 0.09057 0.61731 0.75044 0.0
C1336 C 0.07704 0.62529 0.75357 0.0
C1337 C 0.04112 0.65198 0.73284 0.0
C1338 C 0.02857 0.64215 0.7342 0.0
C1339 C 0.02667 0.65779 0.73643 0.0
C1340 C 0.03564 0.65909 0.73491 0.0
C1341 C 0.02299 0.64934 0.73587 0.0
C1342 C 0.03756 0.64345 0.7327 0.0
C1343 C 0.05024 0.65381 0.73006 0.0
O1344 O 0.07683 0.6581 0.73148 0.0
O1345 O 0.0751 0.64886 0.72057 0.0
O1346 O 0.05395 0.64805 0.72479 0.0
O1347 O 0.05562 0.65691 0.73607 0.0
H1348 H 0.06507 0.66398 0.71547 0.0
H1349 H 0.06548 0.67579 0.7045 0.0
H1350 H 0.09379 0.67653 0.70643 0.0
H1351 H 0.09334 0.66458 0.71724 0.0
H1352 H 0.09628 0.62002 0.73768 0.0
H1353 H 0.08472 0.63037 0.73315 0.0
H1354 H 0.08323 0.61646 0.76263 0.0
H1355 H 0.07164 0.62661 0.75801 0.0
H1356 H 0.02593 0.63554 0.73388 0.0
H1357 H 0.02255 0.66346 0.73767 0.0
H1358 H 0.03823 0.66572 0.73503 0.0
H1359 H 0.04166 0.63784 0.73116 0.0
C1360 C 0.34402 0.07878 0.71704 0.0
C1361 C 0.34018 0.07084 0.71435 0.0
C1362 C 0.33 0.07878 0.70488 0.0
C1363 C 0.33325 0.07083 0.7083 0.0
C1364 C 0.33384 0.08673 0.70764 0.0
C1365 C 0.34078 0.08672 0.71369 0.0
U1366 U 0.35952 0.06633 0.732 0.0
O1367 O 0.37383 0.06721 0.73375 0.0
O1368 O 0.36509 0.06964 0.74496 0.0
C1369 C 0.37321 0.06967 0.74201 0.0
C1370 C 0.35149 0.0788 0.72319 0.0
C1371 C 0.37869 0.07723 0.74459 0.0
C1372 C 0.38336 0.09244 0.74295 0.0
C1373 C 0.37771 0.08552 0.74065 0.0
C1374 C 0.39089 0.08288 0.7532 0.0
C1375 C 0.39006 0.09117 0.74921 0.0
C1376 C 0.38526 0.07599 0.75092 0.0
C1377 C 0.35544 0.04104 0.73335 0.0
C1378 C 0.36353 0.02728 0.73195 0.0
C1379 C 0.34991 0.02764 0.74014 0.0
C1380 C 0.34912 0.03664 0.73845 0.0
C1381 C 0.35702 0.02281 0.73675 0.0
C1382 C 0.36276 0.0363 0.73027 0.0
C1383 C 0.35365 0.05015 0.73041 0.0
O1384 O 0.34957 0.07682 0.73138 0.0
O1385 O 0.35858 0.07479 0.72032 0.0
O1386 O 0.35931 0.05374 0.72494 0.0
O1387 O 0.35067 0.05569 0.73633 0.0
H1388 H 0.34263 0.06463 0.71685 0.0
H1389 H 0.33057 0.06459 0.70617 0.0
H1390 H 0.33146 0.09295 0.70513 0.0
H1391 H 0.34366 0.09292 0.71569 0.0
H1392 H 0.38265 0.09871 0.73965 0.0
H1393 H 0.37269 0.08658 0.73572 0.0
H1394 H 0.39595 0.0817 0.75807 0.0
H1395 H 0.38611 0.06964 0.75402 0.0
H1396 H 0.369 0.02373 0.7291 0.0
H1397 H 0.3448 0.02438 0.74388 0.0
H1398 H 0.34337 0.04009 0.74083 0.0
H1399 H 0.36771 0.03945 0.72625 0.0
C1400 C 0.92839 0.34425 0.7167 0.0
C1401 C 0.9363 0.34016 0.71427 0.0
C1402 C 0.92837 0.33038 0.70437 0.0
C1403 C 0.93629 0.3333 0.70814 0.0
C1404 C 0.92047 0.33449 0.70684 0.0
C1405 C 0.92048 0.34136 0.71297 0.0
U1406 U 0.9409 0.3597 0.73169 0.0
O1407 O 0.9398 0.37395 0.73373 0.0
O1408 O 0.93771 0.36497 0.74483 0.0
C1409 C 0.93746 0.37313 0.742 0.0
C1410 C 0.92839 0.35162 0.72297 0.0
C1411 C 0.9299 0.37849 0.74488 0.0
C1412 C 0.91597 0.38583 0.74199 0.0
C1413 C 0.92261 0.37998 0.7394 0.0
C1414 C 0.92365 0.38846 0.75569 0.0
C1415 C 0.91654 0.3903 0.75008 0.0
C1416 C 0.93027 0.38263 0.7531 0.0
C1417 C 0.96631 0.35618 0.73241 0.0
C1418 C 0.98068 0.36238 0.72894 0.0
C1419 C 0.97913 0.35248 0.74129 0.0
C1420 C 0.97013 0.35173 0.73956 0.0
C1421 C 0.98455 0.35762 0.73584 0.0
C1422 C 0.97168 0.36164 0.72722 0.0
C1423 C 0.95716 0.35422 0.72964 0.0
O1424 O 0.93057 0.34959 0.73108 0.0
O1425 O 0.93224 0.35882 0.72014 0.0
O1426 O 0.95335 0.3599 0.72437 0.0
O1427 O 0.95179 0.35099 0.7356 0.0
H1428 H 0.94248 0.34235 0.71705 0.0
H1429 H 0.9425 0.33039 0.70624 0.0
H1430 H 0.91427 0.33237 0.70406 0.0
H1431 H 0.91432 0.34444 0.71477 0.0
H1432 H 0.91056 0.38711 0.73755 0.0
H1433 H 0.92217 0.37682 0.73304 0.0
H1434 H 0.92416 0.39164 0.76203 0.0
H1435 H 0.9358 0.38153 0.75744 0.0
H1436 H 0.98468 0.36636 0.7246 0.0
H1437 H 0.98191 0.34885 0.74674 0.0
H1438 H 0.96622 0.3474 0.74365 0.0
H1439 H 0.96901 0.36508 0.72158 0.0
C1440 C 0.66294 0.07898 0.29106 0.0
C1441 C 0.66639 0.07115 0.29452 0.0
C1442 C 0.67658 0.07951 0.30364 0.0
C1443 C 0.67316 0.07142 0.30075 0.0
C1444 C 0.67323 0.08732 0.29998 0.0
C1445 C 0.66645 0.08705 0.29376 0.0
U1446 U 0.64751 0.06612 0.27625 0.0
O1447 O 0.63324 0.06721 0.27427 0.0
O1448 O 0.64218 0.06913 0.26312 0.0
C1449 C 0.63402 0.06944 0.26596 0.0
C1450 C 0.65558 0.07877 0.28477 0.0
C1451 C 0.62879 0.07708 0.26314 0.0
C1452 C 0.62438 0.09239 0.26458 0.0
C1453 C 0.62976 0.08535 0.26713 0.0
C1454 C 0.61713 0.08299 0.25397 0.0
C1455 C 0.618 0.09128 0.25796 0.0
C1456 C 0.62248 0.07598 0.25653 0.0
C1457 C 0.6511 0.0407 0.27576 0.0
C1458 C 0.64503 0.02631 0.27938 0.0
C1459 C 0.65477 0.02785 0.26691 0.0
C1460 C 0.65549 0.03688 0.26857 0.0
C1461 C 0.64973 0.02244 0.27244 0.0
C1462 C 0.64574 0.03533 0.28105 0.0
C1463 C 0.65303 0.04989 0.27845 0.0
O1464 O 0.65763 0.07646 0.27671 0.0
O1465 O 0.6484 0.07494 0.28766 0.0
O1466 O 0.64734 0.05373 0.2837 0.0
O1467 O 0.65623 0.05522 0.27244 0.0
H1468 H 0.66377 0.06485 0.29249 0.0
H1469 H 0.67559 0.0653 0.30345 0.0
H1470 H 0.67586 0.09364 0.30192 0.0
H1471 H 0.66391 0.09315 0.29111 0.0
H1472 H 0.62518 0.0987 0.26778 0.0
H1473 H 0.63459 0.08632 0.27227 0.0
H1474 H 0.61214 0.08185 0.24902 0.0
H1475 H 0.6216 0.06963 0.25343 0.0
H1476 H 0.64114 0.0223 0.28379 0.0
H1477 H 0.65835 0.02507 0.26142 0.0
H1478 H 0.65973 0.04079 0.26441 0.0
H1479 H 0.64236 0.03801 0.28671 0.0
C1480 C 0.9288 0.66329 0.29011 0.0
C1481 C 0.9367 0.66723 0.2928 0.0
C1482 C 0.92863 0.67739 0.30218 0.0
C1483 C 0.93662 0.6742 0.2988 0.0
C1484 C 0.92073 0.67345 0.29942 0.0
C1485 C 0.92082 0.66647 0.29343 0.0
U1486 U 0.94151 0.64781 0.27536 0.0
O1487 O 0.94083 0.63347 0.27375 0.0
O1488 O 0.93831 0.64207 0.26244 0.0
C1489 C 0.93839 0.63398 0.26547 0.0
C1490 C 0.92889 0.65576 0.28403 0.0
C1491 C 0.93094 0.62834 0.26291 0.0
C1492 C 0.9159 0.6232 0.26474 0.0
C1493 C 0.92267 0.62906 0.26696 0.0
C1494 C 0.92554 0.61603 0.2543 0.0
C1495 C 0.91733 0.61651 0.25851 0.0
C1496 C 0.93228 0.62187 0.2565 0.0
C1497 C 0.96669 0.65226 0.27422 0.0
C1498 C 0.97927 0.64252 0.27254 0.0
C1499 C 0.98112 0.65824 0.2709 0.0
C1500 C 0.97215 0.65946 0.27243 0.0
C1501 C 0.98483 0.64979 0.27116 0.0
C1502 C 0.97027 0.64374 0.27407 0.0
C1503 C 0.95756 0.65396 0.27703 0.0
O1504 O 0.93088 0.65763 0.27584 0.0
O1505 O 0.93297 0.64874 0.28698 0.0
O1506 O 0.95404 0.64826 0.28249 0.0
O1507 O 0.95206 0.65676 0.27099 0.0
H1508 H 0.94294 0.66483 0.29033 0.0
H1509 H 0.94282 0.67696 0.30093 0.0
H1510 H 0.91448 0.67578 0.3019 0.0
H1511 H 0.91466 0.66351 0.29143 0.0
H1512 H 0.90963 0.62373 0.26807 0.0
H1513 H 0.92152 0.63404 0.27192 0.0
H1514 H 0.92677 0.61107 0.24935 0.0
H1515 H 0.93859 0.62125 0.25327 0.0
H1516 H 0.98192 0.63591 0.27263 0.0
H1517 H 0.98523 0.66397 0.26989 0.0
H1518 H 0.96953 0.66608 0.27255 0.0
H1519 H 0.96617 0.63807 0.27539 0.0
C1520 C 0.34479 0.92838 0.2911 0.0
C1521 C 0.34053 0.93617 0.29361 0.0
C1522 C 0.33137 0.92801 0.30391 0.0
C1523 C 0.33386 0.93598 0.29995 0.0
C1524 C 0.33555 0.9202 0.30124 0.0
C1525 C 0.34222 0.92039 0.2949 0.0
U1526 U 0.3596 0.94117 0.27565 0.0
O1527 O 0.37385 0.94048 0.27345 0.0
O1528 O 0.3648 0.93788 0.26252 0.0
C1529 C 0.373 0.93791 0.26524 0.0
C1530 C 0.35205 0.92857 0.28471 0.0
C1531 C 0.37844 0.93034 0.26257 0.0
C1532 C 0.38486 0.91596 0.2654 0.0
C1533 C 0.37914 0.92278 0.26782 0.0
C1534 C 0.38903 0.9241 0.25237 0.0
C1535 C 0.38994 0.91659 0.25769 0.0
C1536 C 0.38334 0.9309 0.25479 0.0
C1537 C 0.35512 0.96634 0.27449 0.0
C1538 C 0.3648 0.97891 0.27234 0.0
C1539 C 0.34903 0.98075 0.27125 0.0
C1540 C 0.34787 0.97179 0.27291 0.0
C1541 C 0.35749 0.98446 0.27118 0.0
C1542 C 0.36363 0.96992 0.27399 0.0
C1543 C 0.35353 0.95724 0.27745 0.0
O1544 O 0.34982 0.93054 0.2766 0.0
O1545 O 0.35915 0.93271 0.28736 0.0
O1546 O 0.35944 0.95376 0.2827 0.0
O1547 O 0.35048 0.95169 0.27157 0.0
H1548 H 0.34243 0.9424 0.29074 0.0
H1549 H 0.33077 0.94209 0.30188 0.0
H1550 H 0.33365 0.91394 0.30404 0.0
H1551 H 0.34541 0.91432 0.29301 0.0
H1552 H 0.38552 0.91034 0.26971 0.0
H1553 H 0.37542 0.92223 0.27386 0.0
H1554 H 0.39281 0.92476 0.24638 0.0
H1555 H 0.38288 0.93668 0.25066 0.0
H1556 H 0.3714 0.98156 0.27216 0.0
H1557 H 0.34327 0.98485 0.27042 0.0
H1558 H 0.34125 0.96918 0.27329 0.0
H1559 H 0.36935 0.96584 0.27514 0.0
C1560 C 0.0786 0.34403 0.29087 0.0
C1561 C 0.0707 0.34003 0.29346 0.0
C1562 C 0.07873 0.3301 0.30314 0.0
C1563 C 0.07076 0.33314 0.29956 0.0
C1564 C 0.08662 0.33411 0.30049 0.0
C1565 C 0.08656 0.34101 0.29439 0.0
U1566 U 0.06611 0.35944 0.27579 0.0
O1567 O 0.06715 0.37371 0.27381 0.0
O1568 O 0.06945 0.36476 0.26272 0.0
C1569 C 0.06968 0.37291 0.26558 0.0
C1570 C 0.07857 0.35143 0.28464 0.0
C1571 C 0.07742 0.37815 0.26297 0.0
C1572 C 0.09171 0.38463 0.26611 0.0
C1573 C 0.08472 0.37913 0.26854 0.0
C1574 C 0.0843 0.38802 0.25244 0.0
C1575 C 0.09156 0.38916 0.25805 0.0
C1576 C 0.07731 0.38256 0.25488 0.0
C1577 C 0.04082 0.35549 0.27465 0.0
C1578 C 0.02828 0.3653 0.27306 0.0
C1579 C 0.02639 0.34962 0.27109 0.0
C1580 C 0.03535 0.34834 0.27268 0.0
C1581 C 0.02271 0.35808 0.2715 0.0
C1582 C 0.03727 0.36402 0.27463 0.0
C1583 C 0.04991 0.35369 0.27754 0.0
O1584 O 0.07652 0.34941 0.2765 0.0
O1585 O 0.07459 0.35856 0.28746 0.0
O1586 O 0.05353 0.35946 0.28287 0.0
O1587 O 0.05537 0.35062 0.2716 0.0
H1588 H 0.06449 0.34231 0.29084 0.0
H1589 H 0.06456 0.33031 0.3016 0.0
H1590 H 0.09286 0.3319 0.30312 0.0
H1591 H 0.09272 0.34402 0.29247 0.0
H1592 H 0.09722 0.38538 0.27056 0.0
H1593 H 0.08495 0.37576 0.27481 0.0
H1594 H 0.08388 0.39157 0.24629 0.0
H1595 H 0.07172 0.38193 0.25052 0.0
H1596 H 0.02565 0.37191 0.27325 0.0
H1597 H 0.02227 0.34393 0.26995 0.0
H1598 H 0.03794 0.34171 0.27269 0.0
H1599 H 0.04136 0.36965 0.27609 0.0
C1600 C 0.71685 0.66297 0.92868 0.0
C1601 C 0.71324 0.66637 0.93647 0.0
C1602 C 0.7044 0.67673 0.92803 0.0
C1603 C 0.70708 0.67319 0.93614 0.0
C1604 C 0.70821 0.67344 0.92027 0.0
C1605 C 0.71436 0.6666 0.92059 0.0
U1606 U 0.73161 0.6476 0.94165 0.0
O1607 O 0.73343 0.63328 0.9408 0.0
O1608 O 0.74465 0.64209 0.93864 0.0
C1609 C 0.74173 0.63395 0.93851 0.0
C1610 C 0.72305 0.65554 0.92894 0.0
C1611 C 0.74447 0.62855 0.93096 0.0
C1612 C 0.74395 0.62482 0.91541 0.0
C1613 C 0.74137 0.63022 0.92242 0.0
C1614 C 0.75276 0.61609 0.92539 0.0
C1615 C 0.74971 0.61771 0.91682 0.0
C1616 C 0.75018 0.62147 0.93238 0.0
C1617 C 0.73245 0.65177 0.96687 0.0
C1618 C 0.7342 0.64192 0.97937 0.0
C1619 C 0.73589 0.65762 0.98134 0.0
C1620 C 0.73428 0.65891 0.97239 0.0
C1621 C 0.73565 0.64913 0.98497 0.0
C1622 C 0.7326 0.64322 0.97038 0.0
C1623 C 0.72965 0.65355 0.95775 0.0
O1624 O 0.73117 0.65754 0.93112 0.0
O1625 O 0.72013 0.64846 0.93293 0.0
O1626 O 0.72432 0.6478 0.95411 0.0
O1627 O 0.73569 0.65652 0.95234 0.0
H1628 H 0.71512 0.66366 0.94278 0.0
H1629 H 0.70426 0.67557 0.94223 0.0
H1630 H 0.70644 0.67617 0.91393 0.0
H1631 H 0.71712 0.66411 0.91452 0.0
H1632 H 0.74148 0.6262 0.90888 0.0
H1633 H 0.73693 0.63565 0.92121 0.0
H1634 H 0.75701 0.61054 0.92675 0.0
H1635 H 0.75258 0.62005 0.93893 0.0
H1636 H 0.73413 0.63529 0.98196 0.0
H1637 H 0.73695 0.66331 0.98549 0.0
H1638 H 0.73417 0.66556 0.96983 0.0
H1639 H 0.73126 0.63758 0.96625 0.0
C1640 C 0.7168 0.34444 0.07899 0.0
C1641 C 0.7137 0.3406 0.0712 0.0
C1642 C 0.70423 0.3308 0.07962 0.0
C1643 C 0.70747 0.33384 0.07151 0.0
C1644 C 0.70754 0.33452 0.08741 0.0
C1645 C 0.71376 0.3413 0.0871 0.0
U1646 U 0.73184 0.35958 0.06605 0.0
O1647 O 0.73368 0.3739 0.06674 0.0
O1648 O 0.74483 0.36512 0.06926 0.0
C1649 C 0.74193 0.37326 0.06921 0.0
C1650 C 0.72305 0.35183 0.07872 0.0
C1651 C 0.74451 0.37878 0.07674 0.0
C1652 C 0.74304 0.38332 0.09201 0.0
C1653 C 0.74074 0.37767 0.08509 0.0
C1654 C 0.75296 0.39113 0.08231 0.0
C1655 C 0.74914 0.39016 0.09067 0.0
C1656 C 0.75067 0.38549 0.07543 0.0
C1657 C 0.73311 0.35523 0.04088 0.0
C1658 C 0.73419 0.36473 0.02804 0.0
C1659 C 0.73764 0.34926 0.02676 0.0
C1660 C 0.73587 0.34812 0.0357 0.0
C1661 C 0.73669 0.35754 0.02279 0.0
C1662 C 0.73244 0.3636 0.03701 0.0
C1663 C 0.73015 0.3535 0.04997 0.0
O1664 O 0.73118 0.34977 0.07668 0.0
O1665 O 0.72021 0.35886 0.07459 0.0
O1666 O 0.72474 0.35925 0.05349 0.0
O1667 O 0.73609 0.35057 0.05551 0.0
H1668 H 0.716 0.34294 0.06487 0.0
H1669 H 0.70504 0.33111 0.06539 0.0
H1670 H 0.70532 0.33219 0.09376 0.0
H1671 H 0.71613 0.34414 0.09318 0.0
H1672 H 0.73987 0.38249 0.09833 0.0
H1673 H 0.73593 0.37254 0.08621 0.0
H1674 H 0.75771 0.39629 0.08109 0.0
H1675 H 0.75365 0.38645 0.06903 0.0
H1676 H 0.7334 0.3712 0.02515 0.0
H1677 H 0.73937 0.34355 0.02287 0.0
H1678 H 0.73635 0.3416 0.03852 0.0
H1679 H 0.73032 0.36921 0.04085 0.0
C1680 C 0.66324 0.71625 0.07814 0.0
C1681 C 0.66428 0.71032 0.07114 0.0
C1682 C 0.67708 0.70388 0.07826 0.0
C1683 C 0.6711 0.70415 0.07123 0.0
C1684 C 0.67612 0.70991 0.08519 0.0
C1685 C 0.66924 0.71603 0.08514 0.0
U1686 U 0.64786 0.73181 0.06606 0.0
O1687 O 0.63362 0.73392 0.06724 0.0
O1688 O 0.64269 0.74486 0.06971 0.0
C1689 C 0.63451 0.74209 0.06988 0.0
C1690 C 0.65595 0.72266 0.07824 0.0
C1691 C 0.62929 0.74459 0.07765 0.0
C1692 C 0.62413 0.74187 0.09255 0.0
C1693 C 0.62964 0.73971 0.08548 0.0
C1694 C 0.61804 0.75391 0.08412 0.0
C1695 C 0.61816 0.74891 0.09188 0.0
C1696 C 0.62354 0.75176 0.07707 0.0
C1697 C 0.65148 0.73329 0.04067 0.0
C1698 C 0.64366 0.73163 0.02678 0.0
C1699 C 0.6568 0.74057 0.02743 0.0
C1700 C 0.65756 0.73879 0.03642 0.0
C1701 C 0.64995 0.73685 0.02247 0.0
C1702 C 0.64441 0.72986 0.03578 0.0
C1703 C 0.65333 0.73023 0.04975 0.0
O1704 O 0.65808 0.7308 0.0763 0.0
O1705 O 0.64862 0.72008 0.07444 0.0
O1706 O 0.6476 0.72489 0.05339 0.0
O1707 O 0.65657 0.73602 0.05528 0.0
H1708 H 0.65979 0.71041 0.06561 0.0
H1709 H 0.67172 0.6996 0.06579 0.0
H1710 H 0.68058 0.70977 0.09074 0.0
H1711 H 0.66857 0.72056 0.0906 0.0
H1712 H 0.62449 0.73799 0.09851 0.0
H1713 H 0.63408 0.73418 0.08608 0.0
H1714 H 0.6135 0.75935 0.08338 0.0
H1715 H 0.62317 0.75559 0.07108 0.0
H1716 H 0.63841 0.72852 0.02311 0.0
H1717 H 0.66174 0.74462 0.0243 0.0
H1718 H 0.66314 0.74144 0.03997 0.0
H1719 H 0.63967 0.7255 0.0388 0.0
C1720 C 0.29037 0.66318 0.07888 0.0
C1721 C 0.29367 0.66676 0.07103 0.0
C1722 C 0.30298 0.67679 0.07935 0.0
C1723 C 0.29991 0.67351 0.07127 0.0
C1724 C 0.29949 0.67333 0.08719 0.0
C1725 C 0.29325 0.66656 0.08694 0.0
U1726 U 0.27534 0.64792 0.06608 0.0
O1727 O 0.27338 0.63364 0.06694 0.0
O1728 O 0.26226 0.64254 0.06928 0.0
C1729 C 0.26511 0.63438 0.06935 0.0
C1730 C 0.28409 0.65582 0.07869 0.0
C1731 C 0.26236 0.6289 0.07685 0.0
C1732 C 0.26507 0.62226 0.09117 0.0
C1733 C 0.2675 0.62815 0.08449 0.0
C1734 C 0.25221 0.61808 0.08278 0.0
C1735 C 0.25751 0.61702 0.09027 0.0
C1736 C 0.25463 0.62394 0.07613 0.0
C1737 C 0.27427 0.65182 0.04085 0.0
C1738 C 0.27349 0.64219 0.02808 0.0
C1739 C 0.26946 0.65752 0.0267 0.0
C1740 C 0.27123 0.65879 0.03563 0.0
C1741 C 0.27071 0.64925 0.02279 0.0
C1742 C 0.27523 0.64346 0.03703 0.0
C1743 C 0.2772 0.65372 0.04992 0.0
O1744 O 0.27598 0.6579 0.07656 0.0
O1745 O 0.28691 0.6487 0.07471 0.0
O1746 O 0.28255 0.64801 0.05358 0.0
O1747 O 0.27124 0.6568 0.05537 0.0
H1748 H 0.29149 0.66424 0.06474 0.0
H1749 H 0.30249 0.67604 0.06513 0.0
H1750 H 0.30157 0.67585 0.09351 0.0
H1751 H 0.29073 0.66392 0.09306 0.0
H1752 H 0.26926 0.62159 0.09688 0.0
H1753 H 0.27348 0.63195 0.08519 0.0
H1754 H 0.24625 0.61427 0.08199 0.0
H1755 H 0.25055 0.62447 0.07032 0.0
H1756 H 0.27451 0.63575 0.02524 0.0
H1757 H 0.26751 0.66313 0.02277 0.0
H1758 H 0.27052 0.66532 0.03839 0.0
H1759 H 0.27756 0.63795 0.04089 0.0
C1760 C 0.34422 0.29033 0.0783 0.0
C1761 C 0.33951 0.29199 0.07055 0.0
C1762 C 0.33052 0.30285 0.07815 0.0
C1763 C 0.33271 0.29817 0.07048 0.0
C1764 C 0.33514 0.30102 0.08595 0.0
C1765 C 0.34195 0.29483 0.08602 0.0
U1766 U 0.35952 0.2753 0.06573 0.0
O1767 O 0.37385 0.2736 0.06637 0.0
O1768 O 0.36518 0.26238 0.06902 0.0
C1769 C 0.37329 0.26535 0.06888 0.0
C1770 C 0.35168 0.28417 0.07829 0.0
C1771 C 0.37894 0.26283 0.07634 0.0
C1772 C 0.38379 0.26445 0.0915 0.0
C1773 C 0.37796 0.26663 0.0847 0.0
C1774 C 0.39148 0.25453 0.0817 0.0
C1775 C 0.39072 0.2585 0.09001 0.0
C1776 C 0.38565 0.2567 0.07493 0.0
C1777 C 0.3551 0.274 0.04056 0.0
C1778 C 0.3649 0.27216 0.02804 0.0
C1779 C 0.34918 0.2706 0.02612 0.0
C1780 C 0.34792 0.27221 0.03507 0.0
C1781 C 0.35765 0.27078 0.02245 0.0
C1782 C 0.36364 0.27376 0.03703 0.0
C1783 C 0.35338 0.2769 0.04966 0.0
O1784 O 0.34973 0.27597 0.07637 0.0
O1785 O 0.35872 0.28701 0.07417 0.0
O1786 O 0.35911 0.28235 0.05315 0.0
O1787 O 0.35054 0.27091 0.05521 0.0
H1788 H 0.34116 0.28856 0.06453 0.0
H1789 H 0.32916 0.2993 0.06441 0.0
H1790 H 0.33362 0.30453 0.09195 0.0
H1791 H 0.34553 0.29364 0.09206 0.0
H1792 H 0.38305 0.26758 0.09785 0.0
H1793 H 0.37279 0.27138 0.0859 0.0
H1794 H 0.39663 0.24979 0.08041 0.0
H1795 H 0.38648 0.25366 0.06854 0.0
H1796 H 0.37152 0.27218 0.02542 0.0
H1797 H 0.34347 0.2696 0.02199 0.0
H1798 H 0.34129 0.27239 0.03766 0.0
H1799 H 0.3693 0.27507 0.04114 0.0
C1800 C 0.29128 0.34447 0.92899 0.0
C1801 C 0.29676 0.34298 0.93628 0.0
C1802 C 0.30322 0.33022 0.92905 0.0
C1803 C 0.30271 0.33598 0.93627 0.0
C1804 C 0.29765 0.33169 0.92181 0.0
C1805 C 0.29174 0.33875 0.92178 0.0
U1806 U 0.27632 0.36028 0.94113 0.0
O1807 O 0.27493 0.37465 0.94022 0.0
O1808 O 0.26356 0.36614 0.93764 0.0
C1809 C 0.26672 0.37419 0.93759 0.0
C1810 C 0.28514 0.35198 0.92886 0.0
C1811 C 0.26434 0.3799 0.93008 0.0
C1812 C 0.25886 0.38219 0.91519 0.0
C1813 C 0.26151 0.3765 0.92196 0.0
C1814 C 0.26198 0.3947 0.92452 0.0
C1815 C 0.25903 0.39136 0.91642 0.0
C1816 C 0.26459 0.38903 0.93125 0.0
C1817 C 0.27486 0.3565 0.9665 0.0
C1818 C 0.27801 0.36284 0.98088 0.0
C1819 C 0.2661 0.35243 0.97929 0.0
C1820 C 0.26789 0.35176 0.97029 0.0
C1821 C 0.27132 0.35777 0.98473 0.0
C1822 C 0.27979 0.36218 0.97188 0.0
C1823 C 0.27775 0.35455 0.95738 0.0
O1824 O 0.27692 0.35014 0.93078 0.0
O1825 O 0.28798 0.35918 0.9327 0.0
O1826 O 0.28334 0.36005 0.95375 0.0
O1827 O 0.27178 0.35165 0.95184 0.0
H1828 H 0.29651 0.34729 0.94194 0.0
H1829 H 0.30705 0.33519 0.94186 0.0
H1830 H 0.29786 0.32736 0.91615 0.0
H1831 H 0.28755 0.33976 0.91612 0.0
H1832 H 0.2565 0.37941 0.90908 0.0
H1833 H 0.26123 0.36947 0.92087 0.0
H1834 H 0.26226 0.40172 0.92565 0.0
H1835 H 0.26673 0.39181 0.93746 0.0
H1836 H 0.28217 0.36698 0.9849 0.0
H1837 H 0.2608 0.34856 0.98205 0.0
H1838 H 0.26401 0.34725 0.96637 0.0
H1839 H 0.28528 0.36585 0.96924 0.0
C1840 C 0.66276 0.2911 0.92905 0.0
C1841 C 0.6619 0.29944 0.93296 0.0
C1842 C 0.67679 0.30333 0.92852 0.0
C1843 C 0.66883 0.30547 0.9327 0.0
C1844 C 0.67768 0.29497 0.92468 0.0
C1845 C 0.67072 0.28895 0.92489 0.0
U1846 U 0.64756 0.27559 0.94161 0.0
O1847 O 0.63331 0.27341 0.94069 0.0
O1848 O 0.64238 0.26247 0.93824 0.0
C1849 C 0.63418 0.26519 0.93817 0.0
C1850 C 0.65544 0.28464 0.92922 0.0
C1851 C 0.62882 0.26253 0.93055 0.0
C1852 C 0.62355 0.26476 0.91561 0.0
C1853 C 0.62918 0.26709 0.92253 0.0
C1854 C 0.61732 0.25319 0.9246 0.0
C1855 C 0.61749 0.25783 0.9166 0.0
C1856 C 0.62293 0.25552 0.93149 0.0
C1857 C 0.65162 0.27456 0.96689 0.0
C1858 C 0.6419 0.27291 0.97949 0.0
C1859 C 0.65761 0.27117 0.98131 0.0
C1860 C 0.65882 0.27272 0.97234 0.0
C1861 C 0.64916 0.27149 0.98504 0.0
C1862 C 0.64311 0.27444 0.97049 0.0
C1863 C 0.65333 0.27745 0.95778 0.0
O1864 O 0.65759 0.2765 0.93118 0.0
O1865 O 0.64813 0.2872 0.93305 0.0
O1866 O 0.64748 0.28268 0.95417 0.0
O1867 O 0.65646 0.27153 0.95232 0.0
H1868 H 0.65587 0.30135 0.93622 0.0
H1869 H 0.66793 0.31187 0.93568 0.0
H1870 H 0.68379 0.29304 0.92158 0.0
H1871 H 0.67158 0.28258 0.92183 0.0
H1872 H 0.62374 0.26855 0.90959 0.0
H1873 H 0.63367 0.27255 0.9217 0.0
H1874 H 0.61276 0.2478 0.92555 0.0
H1875 H 0.62256 0.25192 0.93763 0.0
H1876 H 0.6353 0.27302 0.98216 0.0
H1877 H 0.66334 0.27014 0.98541 0.0
H1878 H 0.66544 0.27281 0.96971 0.0
H1879 H 0.63744 0.2758 0.96641 0.0
C1880 C 0.34355 0.71685 0.92893 0.0
C1881 C 0.33984 0.71405 0.9369 0.0
C1882 C 0.32952 0.7047 0.92898 0.0
C1883 C 0.3329 0.70801 0.93693 0.0
C1884 C 0.33323 0.70758 0.92101 0.0
C1885 C 0.34018 0.71361 0.921 0.0
U1886 U 0.35927 0.73181 0.94121 0.0
O1887 O 0.37355 0.73363 0.93999 0.0
O1888 O 0.3647 0.74481 0.93777 0.0
C1889 C 0.37281 0.74186 0.93745 0.0
C1890 C 0.35102 0.723 0.92887 0.0
C1891 C 0.37802 0.74443 0.92968 0.0
C1892 C 0.38449 0.74122 0.9154 0.0
C1893 C 0.37901 0.73882 0.92241 0.0
C1894 C 0.38785 0.75494 0.92272 0.0
C1895 C 0.389 0.74929 0.9155 0.0
C1896 C 0.38241 0.75254 0.92973 0.0
C1897 C 0.35566 0.73316 0.96654 0.0
C1898 C 0.36524 0.73372 0.97936 0.0
C1899 C 0.34999 0.73804 0.98067 0.0
C1900 C 0.34874 0.73633 0.97173 0.0
C1901 C 0.35821 0.73661 0.98462 0.0
C1902 C 0.36399 0.73203 0.97039 0.0
C1903 C 0.35372 0.7302 0.95748 0.0
O1904 O 0.34911 0.73117 0.93092 0.0
O1905 O 0.35817 0.72013 0.93276 0.0
O1906 O 0.35937 0.72478 0.95381 0.0
O1907 O 0.35062 0.73612 0.95202 0.0
H1908 H 0.34235 0.71649 0.9431 0.0
H1909 H 0.33016 0.70592 0.94316 0.0
H1910 H 0.33088 0.70503 0.9148 0.0
H1911 H 0.34299 0.71567 0.91479 0.0
H1912 H 0.38525 0.73673 0.90992 0.0
H1913 H 0.37566 0.73254 0.92223 0.0
H1914 H 0.39138 0.76111 0.92309 0.0
H1915 H 0.38177 0.75694 0.93529 0.0
H1916 H 0.37165 0.73257 0.98223 0.0
H1917 H 0.34439 0.74007 0.98457 0.0
H1918 H 0.34224 0.73715 0.96894 0.0
H1919 H 0.36946 0.72958 0.96655 0.0
C1920 C 0.57886 0.7903 0.84353 0.0
C1921 C 0.57088 0.7932 0.83991 0.0
C1922 C 0.57879 0.80241 0.82946 0.0
C1923 C 0.57085 0.79923 0.83296 0.0
C1924 C 0.58677 0.79941 0.83306 0.0
C1925 C 0.58679 0.7934 0.84003 0.0
U1926 U 0.56642 0.77559 0.85927 0.0
O1927 O 0.56965 0.76264 0.8649 0.0
O1928 O 0.56742 0.77394 0.87358 0.0
C1929 C 0.5698 0.76566 0.87299 0.0
C1930 C 0.5789 0.7842 0.85104 0.0
C1931 C 0.5774 0.76305 0.8784 0.0
C1932 C 0.59254 0.76494 0.88322 0.0
C1933 C 0.58559 0.76724 0.87761 0.0
C1934 C 0.58323 0.75415 0.89031 0.0
C1935 C 0.59141 0.75841 0.88968 0.0
C1936 C 0.57631 0.75645 0.88472 0.0
C1937 C 0.54114 0.77457 0.85543 0.0
C1938 C 0.52869 0.77318 0.86538 0.0
C1939 C 0.52664 0.77096 0.84976 0.0
C1940 C 0.53559 0.77249 0.84837 0.0
C1941 C 0.52304 0.77152 0.85824 0.0
C1942 C 0.53767 0.7747 0.86399 0.0
C1943 C 0.55023 0.77736 0.85351 0.0
O1944 O 0.57501 0.78716 0.85816 0.0
O1945 O 0.57681 0.77603 0.8492 0.0
O1946 O 0.55564 0.77131 0.85055 0.0
O1947 O 0.55391 0.78279 0.85913 0.0
H1948 H 0.56468 0.79087 0.84252 0.0
H1949 H 0.56461 0.8014 0.83031 0.0
H1950 H 0.59299 0.80187 0.83062 0.0
H1951 H 0.59301 0.79126 0.84277 0.0
H1952 H 0.59872 0.76844 0.88267 0.0
H1953 H 0.58655 0.77239 0.87278 0.0
H1954 H 0.58216 0.74907 0.89519 0.0
H1955 H 0.57004 0.75314 0.88542 0.0
H1956 H 0.52612 0.7735 0.87201 0.0
H1957 H 0.52246 0.76973 0.84412 0.0
H1958 H 0.53812 0.77238 0.84171 0.0
H1959 H 0.54182 0.77624 0.86956 0.0
C1960 C 0.21677 0.5792 0.84381 0.0
C1961 C 0.21431 0.57132 0.8397 0.0
C1962 C 0.20443 0.57931 0.82995 0.0
C1963 C 0.20818 0.57137 0.83284 0.0
C1964 C 0.20694 0.58719 0.83409 0.0
C1965 C 0.21308 0.58713 0.84095 0.0
U1966 U 0.23192 0.5666 0.85902 0.0
O1967 O 0.24501 0.56983 0.86432 0.0
O1968 O 0.23397 0.56749 0.8733 0.0
C1969 C 0.24221 0.56995 0.87249 0.0
C1970 C 0.22303 0.57914 0.85119 0.0
C1971 C 0.2449 0.5776 0.87781 0.0
C1972 C 0.24266 0.59254 0.88307 0.0
C1973 C 0.2402 0.58554 0.8776 0.0
C1974 C 0.25462 0.58378 0.88887 0.0
C1975 C 0.2499 0.59173 0.88877 0.0
C1976 C 0.25214 0.5768 0.88344 0.0
C1977 C 0.233 0.54137 0.85478 0.0
C1978 C 0.2351 0.52888 0.86456 0.0
C1979 C 0.23616 0.5269 0.8488 0.0
C1980 C 0.23454 0.53585 0.84757 0.0
C1981 C 0.23623 0.52326 0.8573 0.0
C1982 C 0.23349 0.53787 0.86331 0.0
C1983 C 0.2301 0.55048 0.85309 0.0
O1984 O 0.22026 0.57511 0.8583 0.0
O1985 O 0.23117 0.57713 0.84912 0.0
O1986 O 0.23604 0.55597 0.85005 0.0
O1987 O 0.22483 0.55403 0.85894 0.0
H1988 H 0.21707 0.56511 0.84186 0.0
H1989 H 0.20625 0.56517 0.82991 0.0
H1990 H 0.20418 0.59341 0.83199 0.0
H1991 H 0.21489 0.59328 0.84406 0.0
H1992 H 0.2389 0.59858 0.88286 0.0
H1993 H 0.23457 0.58627 0.8733 0.0
H1994 H 0.26009 0.58287 0.89334 0.0
H1995 H 0.25582 0.57071 0.88373 0.0
H1996 H 0.23528 0.52629 0.87119 0.0
H1997 H 0.23696 0.52274 0.84308 0.0
H1998 H 0.23417 0.53841 0.84093 0.0
H1999 H 0.23238 0.54201 0.869 0.0
C2000 C 0.4288 0.21741 0.84361 0.0
C2001 C 0.43673 0.21461 0.83981 0.0
C2002 C 0.4287 0.20536 0.82949 0.0
C2003 C 0.43668 0.20861 0.83283 0.0
C2004 C 0.42077 0.20826 0.83326 0.0
C2005 C 0.42083 0.21424 0.84026 0.0
U2006 U 0.44146 0.23202 0.85925 0.0
O2007 O 0.43828 0.24488 0.8651 0.0
O2008 O 0.44075 0.2335 0.8736 0.0
C2009 C 0.43835 0.24178 0.87317 0.0
C2010 C 0.42885 0.22344 0.85117 0.0
C2011 C 0.43092 0.24432 0.87883 0.0
C2012 C 0.41574 0.24283 0.88367 0.0
C2013 C 0.42252 0.24064 0.87779 0.0
C2014 C 0.42567 0.25249 0.8915 0.0
C2015 C 0.41731 0.24865 0.89068 0.0
C2016 C 0.4324 0.25033 0.88565 0.0
C2017 C 0.46665 0.23316 0.85501 0.0
C2018 C 0.47914 0.23468 0.86489 0.0
C2019 C 0.48112 0.23668 0.84923 0.0
C2020 C 0.47217 0.23513 0.8479 0.0
C2021 C 0.48475 0.23625 0.85771 0.0
C2022 C 0.47016 0.23314 0.86356 0.0
C2023 C 0.45754 0.23036 0.85318 0.0
O2024 O 0.43288 0.22044 0.8582 0.0
O2025 O 0.43088 0.23164 0.84937 0.0
O2026 O 0.45207 0.23644 0.8504 0.0
O2027 O 0.45397 0.22485 0.85879 0.0
H2028 H 0.44296 0.21699 0.84231 0.0
H2029 H 0.44289 0.20652 0.83005 0.0
H2030 H 0.41453 0.20575 0.83093 0.0
H2031 H 0.41465 0.2163 0.84313 0.0
H2032 H 0.40935 0.23979 0.88287 0.0
H2033 H 0.42125 0.23599 0.87255 0.0
H2034 H 0.42702 0.25713 0.89673 0.0
H2035 H 0.43883 0.25327 0.88652 0.0
H2036 H 0.48174 0.23446 0.87152 0.0
H2037 H 0.48527 0.23784 0.84356 0.0
H2038 H 0.4696 0.23515 0.84125 0.0
H2039 H 0.46603 0.23169 0.86917 0.0
C2040 C 0.7905 0.42859 0.8437 0.0
C2041 C 0.79322 0.43656 0.83995 0.0
C2042 C 0.80268 0.42867 0.8297 0.0
C2043 C 0.79928 0.4366 0.83302 0.0
C2044 C 0.79988 0.4207 0.83347 0.0
C2045 C 0.79383 0.42066 0.84041 0.0
U2046 U 0.77547 0.44082 0.8594 0.0
O2047 O 0.76245 0.43737 0.86476 0.0
O2048 O 0.7736 0.43956 0.87366 0.0
C2049 C 0.76536 0.43705 0.87289 0.0
C2050 C 0.78432 0.42851 0.85115 0.0
C2051 C 0.76275 0.42928 0.87809 0.0
C2052 C 0.76582 0.41488 0.88436 0.0
C2053 C 0.76824 0.4219 0.87889 0.0
C2054 C 0.75234 0.42245 0.8881 0.0
C2055 C 0.75786 0.4151 0.88905 0.0
C2056 C 0.75476 0.42946 0.88266 0.0
C2057 C 0.7741 0.46621 0.85587 0.0
C2058 C 0.77581 0.48001 0.86384 0.0
C2059 C 0.7668 0.47951 0.85075 0.0
C2060 C 0.76856 0.47053 0.84987 0.0
C2061 C 0.77055 0.48439 0.85764 0.0
C2062 C 0.77757 0.47102 0.86297 0.0
C2063 C 0.77709 0.45713 0.85393 0.0
O2064 O 0.78717 0.43239 0.85832 0.0
O2065 O 0.77615 0.43055 0.84922 0.0
O2066 O 0.77121 0.45164 0.85075 0.0
O2067 O 0.7825 0.45344 0.85956 0.0
H2068 H 0.7907 0.44275 0.84241 0.0
H2069 H 0.8013 0.44284 0.83024 0.0
H2070 H 0.80251 0.41449 0.83117 0.0
H2071 H 0.79183 0.41445 0.84326 0.0
H2072 H 0.77021 0.40931 0.88497 0.0
H2073 H 0.77444 0.42162 0.8754 0.0
H2074 H 0.74626 0.42292 0.89177 0.0
H2075 H 0.75046 0.43512 0.88218 0.0
H2076 H 0.77895 0.48361 0.86912 0.0
H2077 H 0.7627 0.48271 0.84588 0.0
H2078 H 0.76588 0.46705 0.84427 0.0
H2079 H 0.78195 0.46794 0.86766 0.0
C2080 C 0.57832 0.21627 0.16349 0.0
C2081 C 0.57049 0.21463 0.16809 0.0
C2082 C 0.57796 0.20386 0.17729 0.0
C2083 C 0.57032 0.2085 0.17494 0.0
C2084 C 0.58584 0.20568 0.1728 0.0
C2085 C 0.586 0.21181 0.16593 0.0
U2086 U 0.56604 0.23123 0.14785 0.0
O2087 O 0.56953 0.24397 0.14196 0.0
O2088 O 0.56685 0.23261 0.13346 0.0
C2089 C 0.56951 0.24082 0.1339 0.0
C2090 C 0.57841 0.22232 0.15595 0.0
C2091 C 0.57701 0.24318 0.1282 0.0
C2092 C 0.5922 0.24776 0.12594 0.0
C2093 C 0.58539 0.24511 0.13158 0.0
C2094 C 0.58238 0.24642 0.1135 0.0
C2095 C 0.59075 0.24849 0.11683 0.0
C2096 C 0.5756 0.24381 0.11911 0.0
C2097 C 0.54079 0.23303 0.152 0.0
C2098 C 0.527 0.23163 0.14397 0.0
C2099 C 0.52749 0.24007 0.15744 0.0
C2100 C 0.53647 0.23828 0.15824 0.0
C2101 C 0.5226 0.2366 0.15041 0.0
C2102 C 0.53599 0.22987 0.14475 0.0
C2103 C 0.54988 0.23 0.15382 0.0
O2104 O 0.5743 0.21942 0.14893 0.0
O2105 O 0.57658 0.23057 0.15776 0.0
O2106 O 0.55551 0.23592 0.15665 0.0
O2107 O 0.55336 0.22437 0.14827 0.0
H2108 H 0.56449 0.21803 0.1663 0.0
H2109 H 0.56419 0.20738 0.1784 0.0
H2110 H 0.59182 0.2022 0.17445 0.0
H2111 H 0.5921 0.21298 0.16245 0.0
H2112 H 0.59853 0.24943 0.12873 0.0
H2113 H 0.58665 0.24469 0.13858 0.0
H2114 H 0.58106 0.24683 0.10651 0.0
H2115 H 0.5692 0.24235 0.11636 0.0
H2116 H 0.5234 0.22872 0.13856 0.0
H2117 H 0.52429 0.24394 0.16249 0.0
H2118 H 0.53996 0.24073 0.16394 0.0
H2119 H 0.53909 0.22572 0.13986 0.0
C2120 C 0.79068 0.57868 0.16356 0.0
C2121 C 0.79428 0.57087 0.1669 0.0
C2122 C 0.80319 0.57924 0.17725 0.0
C2123 C 0.80048 0.57115 0.17369 0.0
C2124 C 0.79938 0.58703 0.17403 0.0
C2125 C 0.79319 0.58675 0.16723 0.0
U2126 U 0.77579 0.56593 0.14807 0.0
O2127 O 0.76281 0.56918 0.14253 0.0
O2128 O 0.77402 0.56692 0.13376 0.0
C2129 C 0.76576 0.56934 0.13441 0.0
C2130 C 0.78446 0.57849 0.15614 0.0
C2131 C 0.7632 0.57701 0.12907 0.0
C2132 C 0.76405 0.59258 0.12553 0.0
C2133 C 0.76635 0.58548 0.13094 0.0
C2134 C 0.75537 0.58283 0.11643 0.0
C2135 C 0.7586 0.59131 0.11815 0.0
C2136 C 0.75766 0.57575 0.12183 0.0
C2137 C 0.77464 0.54066 0.15189 0.0
C2138 C 0.77409 0.52784 0.14231 0.0
C2139 C 0.76977 0.52652 0.15757 0.0
C2140 C 0.77148 0.53546 0.15882 0.0
C2141 C 0.77119 0.52257 0.14934 0.0
C2142 C 0.77577 0.53681 0.14356 0.0
C2143 C 0.77754 0.54974 0.15381 0.0
O2144 O 0.78736 0.57453 0.14903 0.0
O2145 O 0.77633 0.57635 0.15812 0.0
O2146 O 0.77156 0.55518 0.15684 0.0
O2147 O 0.78296 0.55341 0.14817 0.0
H2148 H 0.79238 0.56458 0.16417 0.0
H2149 H 0.8033 0.56505 0.17603 0.0
H2150 H 0.80118 0.59334 0.17678 0.0
H2151 H 0.79043 0.59283 0.16478 0.0
H2152 H 0.76652 0.59906 0.12713 0.0
H2153 H 0.77062 0.58657 0.13653 0.0
H2154 H 0.75121 0.58162 0.11078 0.0
H2155 H 0.75518 0.56926 0.12028 0.0
H2156 H 0.77523 0.52497 0.13589 0.0
H2157 H 0.76773 0.52261 0.16316 0.0
H2158 H 0.77065 0.53825 0.16532 0.0
H2159 H 0.77821 0.54065 0.13808 0.0
C2160 C 0.42815 0.79184 0.16273 0.0
C2161 C 0.43592 0.79419 0.16712 0.0
C2162 C 0.42781 0.80454 0.17626 0.0
C2163 C 0.43575 0.80047 0.17384 0.0
C2164 C 0.42002 0.802 0.17198 0.0
C2165 C 0.42019 0.79573 0.16525 0.0
U2166 U 0.44093 0.77664 0.14766 0.0
O2167 O 0.43764 0.76372 0.14204 0.0
O2168 O 0.44034 0.77489 0.1333 0.0
C2169 C 0.43777 0.76667 0.13391 0.0
C2170 C 0.42834 0.7856 0.15534 0.0
C2171 C 0.43035 0.7641 0.12821 0.0
C2172 C 0.41484 0.76102 0.12571 0.0
C2173 C 0.42166 0.76373 0.13131 0.0
C2174 C 0.42531 0.75917 0.11388 0.0
C2175 C 0.4166 0.7587 0.11693 0.0
C2176 C 0.4321 0.76184 0.11945 0.0
C2177 C 0.46611 0.77507 0.15212 0.0
C2178 C 0.47986 0.77606 0.14395 0.0
C2179 C 0.47943 0.76829 0.15782 0.0
C2180 C 0.47046 0.77012 0.15858 0.0
C2181 C 0.48428 0.77139 0.15059 0.0
C2182 C 0.47087 0.77787 0.14469 0.0
C2183 C 0.45701 0.77812 0.1538 0.0
O2184 O 0.43255 0.78838 0.14833 0.0
O2185 O 0.43025 0.77742 0.1574 0.0
O2186 O 0.45138 0.77225 0.15671 0.0
O2187 O 0.45356 0.78362 0.14809 0.0
H2188 H 0.44214 0.79126 0.16525 0.0
H2189 H 0.44186 0.80229 0.17701 0.0
H2190 H 0.41377 0.80489 0.17382 0.0
H2191 H 0.41413 0.79397 0.16197 0.0
H2192 H 0.40822 0.7606 0.1283 0.0
H2193 H 0.42016 0.76545 0.13805 0.0
H2194 H 0.42688 0.7575 0.10713 0.0
H2195 H 0.43875 0.7621 0.11693 0.0
H2196 H 0.48343 0.7787 0.13839 0.0
H2197 H 0.48265 0.76465 0.16303 0.0
H2198 H 0.46699 0.76795 0.1644 0.0
H2199 H 0.46775 0.78177 0.13962 0.0
C2200 C 0.21638 0.42877 0.16384 0.0
C2201 C 0.21454 0.43668 0.16821 0.0
C2202 C 0.20364 0.42927 0.17731 0.0
C2203 C 0.20825 0.43692 0.17491 0.0
C2204 C 0.20564 0.42133 0.17302 0.0
C2205 C 0.21195 0.42109 0.16632 0.0
U2206 U 0.23197 0.44078 0.1486 0.0
O2207 O 0.24506 0.43718 0.14351 0.0
O2208 O 0.23416 0.4396 0.13437 0.0
C2209 C 0.24234 0.43696 0.13531 0.0
C2210 C 0.22274 0.42856 0.15655 0.0
C2211 C 0.24492 0.42917 0.13014 0.0
C2212 C 0.24189 0.41465 0.12416 0.0
C2213 C 0.23951 0.42171 0.12958 0.0
C2214 C 0.25518 0.42234 0.11998 0.0
C2215 C 0.24974 0.4149 0.11927 0.0
C2216 C 0.25279 0.42939 0.12537 0.0
C2217 C 0.23354 0.46614 0.15238 0.0
C2218 C 0.23245 0.47988 0.14421 0.0
C2219 C 0.2403 0.4795 0.15803 0.0
C2220 C 0.23852 0.47052 0.1588 0.0
C2221 C 0.23712 0.48433 0.15083 0.0
C2222 C 0.23067 0.47088 0.14497 0.0
C2223 C 0.23043 0.45707 0.15415 0.0
O2224 O 0.22014 0.43251 0.14933 0.0
O2225 O 0.2309 0.43046 0.15868 0.0
O2226 O 0.23618 0.4515 0.15741 0.0
O2227 O 0.22512 0.45348 0.14836 0.0
H2228 H 0.21793 0.44267 0.1664 0.0
H2229 H 0.20698 0.44309 0.17822 0.0
H2230 H 0.20219 0.41533 0.17472 0.0
H2231 H 0.21329 0.41493 0.163 0.0
H2232 H 0.23757 0.409 0.12373 0.0
H2233 H 0.2334 0.42141 0.13322 0.0
H2234 H 0.26116 0.42283 0.11616 0.0
H2235 H 0.25703 0.43511 0.12568 0.0
H2236 H 0.22976 0.48344 0.13866 0.0
H2237 H 0.24394 0.48274 0.16322 0.0
H2238 H 0.24073 0.46707 0.16463 0.0
H2239 H 0.22674 0.46774 0.13994 0.0
C2240 C 0.84445 0.57865 0.79127 0.0
C2241 C 0.83976 0.57085 0.79282 0.0
C2242 C 0.83069 0.57829 0.80372 0.0
C2243 C 0.83293 0.57068 0.79897 0.0
C2244 C 0.83528 0.58613 0.802 0.0
C2245 C 0.84212 0.5863 0.79584 0.0
U2246 U 0.85988 0.56621 0.7763 0.0
O2247 O 0.86549 0.56942 0.76336 0.0
O2248 O 0.87423 0.56702 0.77458 0.0
C2249 C 0.87362 0.56936 0.76629 0.0
C2250 C 0.85193 0.57872 0.78514 0.0
C2251 C 0.87924 0.57675 0.76353 0.0
C2252 C 0.88272 0.59235 0.76279 0.0
C2253 C 0.87721 0.58551 0.76561 0.0
C2254 C 0.89232 0.58172 0.75585 0.0
C2255 C 0.8903 0.59052 0.75779 0.0
C2256 C 0.88684 0.57492 0.75867 0.0
C2257 C 0.85563 0.54104 0.77486 0.0
C2258 C 0.86515 0.52822 0.77381 0.0
C2259 C 0.84973 0.52697 0.7701 0.0
C2260 C 0.84857 0.53589 0.77194 0.0
C2261 C 0.858 0.52299 0.77115 0.0
C2262 C 0.86399 0.53717 0.77562 0.0
C2263 C 0.85386 0.55011 0.77788 0.0
O2264 O 0.859 0.57467 0.788 0.0
O2265 O 0.85004 0.5768 0.77692 0.0
O2266 O 0.85092 0.55567 0.77195 0.0
O2267 O 0.85956 0.55361 0.78333 0.0
H2268 H 0.84145 0.56488 0.78933 0.0
H2269 H 0.8294 0.56459 0.80001 0.0
H2270 H 0.83372 0.59209 0.80557 0.0
H2271 H 0.84568 0.59237 0.79474 0.0
H2272 H 0.88102 0.59907 0.76441 0.0
H2273 H 0.87137 0.58704 0.7694 0.0
H2274 H 0.89822 0.58007 0.75223 0.0
H2275 H 0.88855 0.5682 0.75706 0.0
H2276 H 0.8716 0.52533 0.77467 0.0
H2277 H 0.84405 0.52309 0.76825 0.0
H2278 H 0.84205 0.53871 0.77139 0.0
H2279 H 0.86956 0.54099 0.77787 0.0
C2280 C 0.4291 0.84373 0.79098 0.0
C2281 C 0.437 0.83982 0.79369 0.0
C2282 C 0.42892 0.82956 0.80297 0.0
C2283 C 0.43692 0.83281 0.79965 0.0
C2284 C 0.42102 0.83344 0.80015 0.0
C2285 C 0.42111 0.84046 0.7942 0.0
U2286 U 0.44158 0.85954 0.77627 0.0
O2287 O 0.43803 0.86575 0.76369 0.0
O2288 O 0.44091 0.87396 0.77521 0.0
C2289 C 0.43812 0.87372 0.76703 0.0
C2290 C 0.42916 0.85137 0.78505 0.0
C2291 C 0.43059 0.8795 0.76496 0.0
C2292 C 0.41539 0.88191 0.7605 0.0
C2293 C 0.42228 0.87617 0.76265 0.0
C2294 C 0.42499 0.89435 0.76302 0.0
C2295 C 0.41667 0.89107 0.76072 0.0
C2296 C 0.43186 0.88863 0.76512 0.0
C2297 C 0.46672 0.85539 0.77428 0.0
C2298 C 0.47947 0.86504 0.77352 0.0
C2299 C 0.48084 0.84975 0.76932 0.0
C2300 C 0.47192 0.84846 0.77112 0.0
C2301 C 0.48475 0.85802 0.77064 0.0
C2302 C 0.47053 0.86375 0.77529 0.0
C2303 C 0.4577 0.85344 0.77731 0.0
O2304 O 0.43335 0.8583 0.78808 0.0
O2305 O 0.43098 0.84968 0.77678 0.0
O2306 O 0.45205 0.85081 0.77132 0.0
O2307 O 0.45427 0.85887 0.78309 0.0
H2308 H 0.44324 0.84229 0.7913 0.0
H2309 H 0.44312 0.83009 0.80183 0.0
H2310 H 0.41476 0.83106 0.80257 0.0
H2311 H 0.41495 0.8434 0.79218 0.0
H2312 H 0.40904 0.87922 0.75874 0.0
H2313 H 0.42111 0.86915 0.76248 0.0
H2314 H 0.42623 0.90136 0.76308 0.0
H2315 H 0.43822 0.89135 0.76681 0.0
H2316 H 0.48232 0.87148 0.77458 0.0
H2317 H 0.48475 0.84417 0.76729 0.0
H2318 H 0.46916 0.84194 0.77037 0.0
H2319 H 0.46668 0.86923 0.77772 0.0
C2320 C 0.16364 0.42851 0.79046 0.0
C2321 C 0.16787 0.43637 0.79279 0.0
C2322 C 0.1776 0.42838 0.8027 0.0
C2323 C 0.17477 0.43631 0.79887 0.0
C2324 C 0.17335 0.42052 0.80031 0.0
C2325 C 0.16644 0.42058 0.79423 0.0
U2326 U 0.14822 0.44119 0.77562 0.0
O2327 O 0.14274 0.43804 0.76257 0.0
O2328 O 0.13392 0.44031 0.77376 0.0
C2329 C 0.1346 0.43792 0.76549 0.0
C2330 C 0.1562 0.42858 0.78429 0.0
C2331 C 0.1292 0.43034 0.76281 0.0
C2332 C 0.12383 0.41543 0.765 0.0
C2333 C 0.12946 0.42233 0.76739 0.0
C2334 C 0.11778 0.42442 0.75334 0.0
C2335 C 0.11786 0.41643 0.758 0.0
C2336 C 0.1234 0.43129 0.75572 0.0
C2337 C 0.15233 0.46644 0.77473 0.0
C2338 C 0.14251 0.47898 0.77322 0.0
C2339 C 0.1582 0.48092 0.77137 0.0
C2340 C 0.15948 0.47195 0.77287 0.0
C2341 C 0.14973 0.48458 0.77176 0.0
C2342 C 0.1438 0.46998 0.7747 0.0
C2343 C 0.15412 0.45731 0.77751 0.0
O2344 O 0.1491 0.43256 0.78718 0.0
O2345 O 0.15815 0.43068 0.77614 0.0
O2346 O 0.15709 0.4519 0.77147 0.0
O2347 O 0.14838 0.45367 0.78285 0.0
H2348 H 0.16575 0.44256 0.78999 0.0
H2349 H 0.17778 0.44249 0.80071 0.0
H2350 H 0.17539 0.41431 0.80314 0.0
H2351 H 0.16324 0.41446 0.79252 0.0
H2352 H 0.12395 0.40941 0.76881 0.0
H2353 H 0.13389 0.42148 0.7729 0.0
H2354 H 0.1133 0.42538 0.74789 0.0
H2355 H 0.12311 0.43742 0.75211 0.0
H2356 H 0.1359 0.4816 0.7734 0.0
H2357 H 0.16389 0.48506 0.7703 0.0
H2358 H 0.16612 0.46936 0.77289 0.0
H2359 H 0.13816 0.46586 0.77608 0.0
C2360 C 0.57864 0.16406 0.79044 0.0
C2361 C 0.5707 0.16793 0.7931 0.0
C2362 C 0.57868 0.17833 0.8023 0.0
C2363 C 0.57072 0.17499 0.799 0.0
C2364 C 0.58662 0.1745 0.79952 0.0
C2365 C 0.5866 0.16742 0.79363 0.0
U2366 U 0.56617 0.14796 0.7761 0.0
O2367 O 0.56957 0.14162 0.76354 0.0
O2368 O 0.56692 0.13353 0.7752 0.0
C2369 C 0.5696 0.13368 0.76699 0.0
C2370 C 0.57863 0.15634 0.7846 0.0
C2371 C 0.57715 0.12793 0.76488 0.0
C2372 C 0.59228 0.12558 0.76014 0.0
C2373 C 0.58538 0.1313 0.76232 0.0
C2374 C 0.58286 0.11311 0.76313 0.0
C2375 C 0.5911 0.11642 0.76058 0.0
C2376 C 0.57598 0.1188 0.76525 0.0
C2377 C 0.54094 0.15204 0.77458 0.0
C2378 C 0.52835 0.1422 0.77371 0.0
C2379 C 0.52651 0.15771 0.77068 0.0
C2380 C 0.53548 0.15906 0.77214 0.0
C2381 C 0.5228 0.14931 0.77169 0.0
C2382 C 0.53735 0.14355 0.77515 0.0
C2383 C 0.55003 0.15399 0.77735 0.0
O2384 O 0.57457 0.1494 0.78776 0.0
O2385 O 0.57669 0.15791 0.77633 0.0
O2386 O 0.55554 0.15655 0.77121 0.0
O2387 O 0.55358 0.14861 0.78311 0.0
H2388 H 0.56448 0.16542 0.79069 0.0
H2389 H 0.56451 0.17782 0.80101 0.0
H2390 H 0.59285 0.17682 0.80207 0.0
H2391 H 0.59278 0.16448 0.79168 0.0
H2392 H 0.59856 0.1283 0.75818 0.0
H2393 H 0.58647 0.13833 0.76197 0.0
H2394 H 0.5817 0.10609 0.76336 0.0
H2395 H 0.56968 0.11605 0.76714 0.0
H2396 H 0.52569 0.13563 0.77437 0.0
H2397 H 0.52241 0.16333 0.76916 0.0
H2398 H 0.5381 0.16567 0.77169 0.0
H2399 H 0.54142 0.13801 0.77698 0.0
C2400 C 0.84418 0.42818 0.21673 0.0
C2401 C 0.84072 0.43603 0.21333 0.0
C2402 C 0.83058 0.42773 0.20411 0.0
C2403 C 0.83397 0.4358 0.20708 0.0
C2404 C 0.83393 0.41989 0.20771 0.0
C2405 C 0.84069 0.42012 0.21394 0.0
U2406 U 0.85937 0.44094 0.23186 0.0
O2407 O 0.86474 0.4377 0.24493 0.0
O2408 O 0.87365 0.44012 0.23384 0.0
C2409 C 0.87291 0.43769 0.2421 0.0
C2410 C 0.85153 0.42835 0.22304 0.0
C2411 C 0.87843 0.43021 0.24483 0.0
C2412 C 0.88452 0.4156 0.24243 0.0
C2413 C 0.87863 0.4223 0.24006 0.0
C2414 C 0.88982 0.42454 0.25448 0.0
C2415 C 0.89032 0.41675 0.24954 0.0
C2416 C 0.88395 0.43121 0.25213 0.0
C2417 C 0.85532 0.46623 0.23297 0.0
C2418 C 0.86332 0.48004 0.23144 0.0
C2419 C 0.84988 0.47959 0.23993 0.0
C2420 C 0.84909 0.47059 0.23821 0.0
C2421 C 0.8569 0.48446 0.23641 0.0
C2422 C 0.86254 0.47103 0.22974 0.0
C2423 C 0.85354 0.4571 0.23004 0.0
O2424 O 0.85865 0.43236 0.22026 0.0
O2425 O 0.84942 0.43043 0.23115 0.0
O2426 O 0.85045 0.4516 0.23596 0.0
O2427 O 0.85927 0.45347 0.22469 0.0
H2428 H 0.84331 0.44232 0.21543 0.0
H2429 H 0.83153 0.44194 0.20443 0.0
H2430 H 0.83133 0.41358 0.2057 0.0
H2431 H 0.84324 0.41401 0.21655 0.0
H2432 H 0.88475 0.40965 0.23853 0.0
H2433 H 0.87439 0.42139 0.23441 0.0
H2434 H 0.89407 0.42554 0.2601 0.0
H2435 H 0.88386 0.43724 0.25591 0.0
H2436 H 0.86871 0.48362 0.22849 0.0
H2437 H 0.84484 0.4828 0.2438 0.0
H2438 H 0.8434 0.46711 0.2407 0.0
H2439 H 0.86742 0.46792 0.22559 0.0
C2440 C 0.57849 0.844 0.21656 0.0
C2441 C 0.5707 0.83934 0.21488 0.0
C2442 C 0.57822 0.83042 0.20391 0.0
C2443 C 0.57058 0.8326 0.20863 0.0
C2444 C 0.58605 0.83499 0.20575 0.0
C2445 C 0.58617 0.84174 0.21202 0.0
U2446 U 0.56608 0.8592 0.23184 0.0
O2447 O 0.56947 0.86465 0.24483 0.0
O2448 O 0.56685 0.8735 0.23374 0.0
C2449 C 0.56939 0.8728 0.24197 0.0
C2450 C 0.57854 0.85138 0.22282 0.0
C2451 C 0.57687 0.87837 0.24457 0.0
C2452 C 0.59178 0.8838 0.24248 0.0
C2453 C 0.585 0.87796 0.24022 0.0
C2454 C 0.58243 0.89033 0.25358 0.0
C2455 C 0.59048 0.89016 0.24907 0.0
C2456 C 0.57569 0.8845 0.25134 0.0
C2457 C 0.54089 0.85502 0.23329 0.0
C2458 C 0.52815 0.86464 0.2345 0.0
C2459 C 0.5267 0.84913 0.23773 0.0
C2460 C 0.53564 0.84793 0.23595 0.0
C2461 C 0.52282 0.85747 0.23688 0.0
C2462 C 0.53711 0.86344 0.23275 0.0
C2463 C 0.54995 0.85324 0.23027 0.0
O2464 O 0.57446 0.85848 0.22008 0.0
O2465 O 0.57664 0.84934 0.231 0.0
O2466 O 0.55551 0.85024 0.23616 0.0
O2467 O 0.55346 0.85898 0.22485 0.0
H2468 H 0.56471 0.84099 0.21835 0.0
H2469 H 0.56449 0.82908 0.20749 0.0
H2470 H 0.59203 0.83347 0.20221 0.0
H2471 H 0.59224 0.84527 0.21322 0.0
H2472 H 0.59793 0.88352 0.23891 0.0
H2473 H 0.58604 0.87324 0.23499 0.0
H2474 H 0.5813 0.89503 0.25881 0.0
H2475 H 0.56948 0.88489 0.25481 0.0
H2476 H 0.52533 0.87114 0.2338 0.0
H2477 H 0.52275 0.84344 0.23936 0.0
H2478 H 0.53838 0.84136 0.23633 0.0
H2479 H 0.54101 0.86904 0.23071 0.0
C2480 C 0.16358 0.57888 0.2165 0.0
C2481 C 0.16827 0.57109 0.21493 0.0
C2482 C 0.17716 0.5785 0.20386 0.0
C2483 C 0.17502 0.57091 0.20869 0.0
C2484 C 0.17255 0.58633 0.20558 0.0
C2485 C 0.1658 0.5865 0.21184 0.0
U2486 U 0.14819 0.56661 0.23173 0.0
O2487 O 0.14289 0.56999 0.2448 0.0
O2488 O 0.13393 0.56764 0.23373 0.0
C2489 C 0.13473 0.57011 0.24197 0.0
C2490 C 0.15621 0.57899 0.22277 0.0
C2491 C 0.12929 0.57765 0.24475 0.0
C2492 C 0.12194 0.59155 0.24176 0.0
C2493 C 0.12784 0.58493 0.23925 0.0
C2494 C 0.11916 0.58387 0.25542 0.0
C2495 C 0.11737 0.59097 0.24978 0.0
C2496 C 0.12503 0.57727 0.25291 0.0
C2497 C 0.15189 0.54133 0.23303 0.0
C2498 C 0.14219 0.52862 0.23388 0.0
C2499 C 0.15753 0.52716 0.23784 0.0
C2500 C 0.15884 0.53608 0.23606 0.0
C2501 C 0.14923 0.5233 0.23663 0.0
C2502 C 0.1435 0.53757 0.23213 0.0
C2503 C 0.15383 0.55037 0.23003 0.0
O2504 O 0.14903 0.57505 0.22002 0.0
O2505 O 0.15823 0.577 0.23093 0.0
O2506 O 0.15698 0.55585 0.23592 0.0
O2507 O 0.14813 0.55402 0.22466 0.0
H2508 H 0.16665 0.56513 0.21849 0.0
H2509 H 0.17857 0.56483 0.20764 0.0
H2510 H 0.17404 0.59227 0.20196 0.0
H2511 H 0.16224 0.59257 0.21296 0.0
H2512 H 0.12071 0.59697 0.23731 0.0
H2513 H 0.1311 0.58537 0.23293 0.0
H2514 H 0.11589 0.58334 0.26172 0.0
H2515 H 0.12609 0.57174 0.25727 0.0
H2516 H 0.13573 0.52581 0.2329 0.0
H2517 H 0.16313 0.52321 0.23977 0.0
H2518 H 0.16539 0.53881 0.23672 0.0
H2519 H 0.13801 0.54145 0.2298 0.0
C2520 C 0.42827 0.1629 0.21626 0.0
C2521 C 0.43619 0.16689 0.21372 0.0
C2522 C 0.42821 0.17708 0.20428 0.0
C2523 C 0.43616 0.1739 0.20776 0.0
C2524 C 0.42028 0.17311 0.20692 0.0
C2525 C 0.42032 0.16608 0.21286 0.0
U2526 U 0.44083 0.14731 0.23102 0.0
O2527 O 0.43758 0.14142 0.24382 0.0
O2528 O 0.44015 0.13291 0.23244 0.0
C2529 C 0.4377 0.13335 0.24072 0.0
C2530 C 0.4283 0.15531 0.22227 0.0
C2531 C 0.43037 0.12757 0.24332 0.0
C2532 C 0.41482 0.12472 0.24586 0.0
C2533 C 0.42156 0.13035 0.24302 0.0
C2534 C 0.42561 0.11349 0.24916 0.0
C2535 C 0.4168 0.11627 0.24908 0.0
C2536 C 0.43231 0.11909 0.24633 0.0
C2537 C 0.46601 0.15171 0.23272 0.0
C2538 C 0.4798 0.14363 0.23157 0.0
C2539 C 0.47928 0.15726 0.23974 0.0
C2540 C 0.47032 0.15804 0.23788 0.0
C2541 C 0.48417 0.15015 0.23645 0.0
C2542 C 0.47081 0.1444 0.22972 0.0
C2543 C 0.45692 0.15345 0.22968 0.0
O2544 O 0.43244 0.14834 0.2193 0.0
O2545 O 0.43018 0.1571 0.23051 0.0
O2546 O 0.45128 0.15625 0.2356 0.0
O2547 O 0.45347 0.14786 0.22407 0.0
H2548 H 0.44239 0.16452 0.21628 0.0
H2549 H 0.44236 0.17684 0.20587 0.0
H2550 H 0.41407 0.1753 0.20423 0.0
H2551 H 0.41415 0.16305 0.21472 0.0
H2552 H 0.40808 0.12702 0.24569 0.0
H2553 H 0.41992 0.13686 0.24067 0.0
H2554 H 0.42733 0.10695 0.25138 0.0
H2555 H 0.43905 0.11681 0.24655 0.0
H2556 H 0.4834 0.13816 0.22879 0.0
H2557 H 0.48246 0.16237 0.24355 0.0
H2558 H 0.46681 0.16379 0.24021 0.0
H2559 H 0.46773 0.13943 0.22566 0.0
C2560 C 0.79126 0.84461 0.57893 0.0
C2561 C 0.7888 0.83626 0.5758 0.0
C2562 C 0.80347 0.83057 0.57886 0.0
C2563 C 0.79483 0.82931 0.57582 0.0
C2564 C 0.80586 0.83888 0.58211 0.0
C2565 C 0.79981 0.84581 0.58216 0.0
U2566 U 0.77623 0.86011 0.56622 0.0
O2567 O 0.7634 0.86592 0.56948 0.0
O2568 O 0.77472 0.8745 0.56691 0.0
C2569 C 0.76645 0.87401 0.56935 0.0
C2570 C 0.78513 0.85218 0.57869 0.0
C2571 C 0.76381 0.87974 0.57671 0.0
C2572 C 0.7616 0.88263 0.5923 0.0
C2573 C 0.76448 0.87706 0.58552 0.0
C2574 C 0.75751 0.8936 0.58151 0.0
C2575 C 0.75796 0.89091 0.59034 0.0
C2576 C 0.76038 0.88806 0.57478 0.0
C2577 C 0.77448 0.85582 0.54111 0.0
C2578 C 0.77334 0.86548 0.52839 0.0
C2579 C 0.76967 0.85006 0.52699 0.0
C2580 C 0.77155 0.8488 0.5359 0.0
C2581 C 0.77069 0.85838 0.5231 0.0
C2582 C 0.77519 0.86422 0.53733 0.0
C2583 C 0.77756 0.85397 0.55014 0.0
O2584 O 0.78804 0.85917 0.57453 0.0
O2585 O 0.77683 0.85044 0.57696 0.0
O2586 O 0.77165 0.85115 0.55577 0.0
O2587 O 0.78315 0.85959 0.55358 0.0
H2588 H 0.78225 0.83509 0.57329 0.0
H2589 H 0.7927 0.82293 0.57349 0.0
H2590 H 0.81246 0.84008 0.58448 0.0
H2591 H 0.80187 0.85217 0.58462 0.0
H2592 H 0.76206 0.88041 0.59904 0.0
H2593 H 0.76716 0.87067 0.58714 0.0
H2594 H 0.75495 0.90002 0.57981 0.0
H2595 H 0.75987 0.89027 0.56803 0.0
H2596 H 0.77417 0.87196 0.52557 0.0
H2597 H 0.76782 0.84442 0.52306 0.0
H2598 H 0.77103 0.84225 0.53864 0.0
H2599 H 0.77743 0.86977 0.54119 0.0
C2600 C 0.79076 0.16308 0.4288 0.0
C2601 C 0.79327 0.16715 0.43669 0.0
C2602 C 0.80286 0.17715 0.42865 0.0
C2603 C 0.79928 0.17411 0.43662 0.0
C2604 C 0.80028 0.17306 0.42076 0.0
C2605 C 0.79427 0.16609 0.42084 0.0
U2606 U 0.77584 0.14764 0.44142 0.0
O2607 O 0.76297 0.1419 0.43809 0.0
O2608 O 0.77423 0.13329 0.44074 0.0
C2609 C 0.76598 0.1338 0.43823 0.0
C2610 C 0.78466 0.15556 0.42888 0.0
C2611 C 0.76348 0.12813 0.4308 0.0
C2612 C 0.76481 0.12348 0.41554 0.0
C2613 C 0.767 0.12932 0.42234 0.0
C2614 C 0.75546 0.11536 0.42555 0.0
C2615 C 0.75914 0.11634 0.41713 0.0
C2616 C 0.75763 0.12118 0.43231 0.0
C2617 C 0.77431 0.15192 0.46658 0.0
C2618 C 0.77335 0.14237 0.4794 0.0
C2619 C 0.76957 0.15777 0.48069 0.0
C2620 C 0.77136 0.15896 0.47176 0.0
C2621 C 0.77068 0.1495 0.48465 0.0
C2622 C 0.77512 0.14356 0.47044 0.0
C2623 C 0.7773 0.15373 0.45752 0.0
O2624 O 0.78756 0.14855 0.43301 0.0
O2625 O 0.77645 0.15745 0.43079 0.0
O2626 O 0.77136 0.15657 0.45193 0.0
O2627 O 0.78284 0.14808 0.45403 0.0
H2628 H 0.79065 0.16487 0.44291 0.0
H2629 H 0.80127 0.17699 0.44282 0.0
H2630 H 0.80291 0.17527 0.41453 0.0
H2631 H 0.79241 0.16302 0.41469 0.0
H2632 H 0.76772 0.1244 0.40911 0.0
H2633 H 0.77152 0.13467 0.42106 0.0
H2634 H 0.75094 0.11003 0.42692 0.0
H2635 H 0.75481 0.12019 0.43877 0.0
H2636 H 0.77426 0.13592 0.48227 0.0
H2637 H 0.7677 0.16343 0.48458 0.0
H2638 H 0.77077 0.16548 0.46896 0.0
H2639 H 0.77738 0.138 0.46661 0.0
C2640 C 0.84433 0.79137 0.42832 0.0
C2641 C 0.836 0.78891 0.43151 0.0
C2642 C 0.83028 0.80358 0.42847 0.0
C2643 C 0.82905 0.79494 0.43152 0.0
C2644 C 0.83857 0.80596 0.42514 0.0
C2645 C 0.84551 0.79992 0.42506 0.0
U2646 U 0.85992 0.77652 0.44109 0.0
O2647 O 0.86569 0.76363 0.438 0.0
O2648 O 0.87429 0.77498 0.44034 0.0
C2649 C 0.87378 0.76667 0.43803 0.0
C2650 C 0.85191 0.78524 0.42855 0.0
C2651 C 0.87943 0.76394 0.43066 0.0
C2652 C 0.88255 0.7625 0.41502 0.0
C2653 C 0.87706 0.76539 0.42185 0.0
C2654 C 0.89285 0.75681 0.42575 0.0
C2655 C 0.89046 0.75808 0.41691 0.0
C2656 C 0.88738 0.75969 0.43254 0.0
C2657 C 0.85563 0.77524 0.46625 0.0
C2658 C 0.86554 0.7735 0.4787 0.0
C2659 C 0.84986 0.7717 0.48073 0.0
C2660 C 0.84852 0.77333 0.47179 0.0
C2661 C 0.85836 0.772 0.48433 0.0
C2662 C 0.86419 0.77511 0.46973 0.0
C2663 C 0.85381 0.77813 0.45717 0.0
O2664 O 0.85893 0.78822 0.43262 0.0
O2665 O 0.85019 0.77697 0.43039 0.0
O2666 O 0.85099 0.77211 0.45165 0.0
O2667 O 0.85946 0.78362 0.45364 0.0
H2668 H 0.83485 0.78236 0.43404 0.0
H2669 H 0.82269 0.79281 0.43391 0.0
H2670 H 0.83975 0.81256 0.42276 0.0
H2671 H 0.85184 0.80197 0.42255 0.0
H2672 H 0.88057 0.7636 0.40827 0.0
H2673 H 0.87095 0.76869 0.42027 0.0
H2674 H 0.89899 0.75364 0.42743 0.0
H2675 H 0.88935 0.75857 0.43929 0.0
H2676 H 0.87218 0.77362 0.48127 0.0
H2677 H 0.8442 0.77059 0.4849 0.0
H2678 H 0.84186 0.77341 0.46925 0.0
H2679 H 0.86981 0.77651 0.46558 0.0
C2680 C 0.21645 0.84395 0.4285 0.0
C2681 C 0.21475 0.8394 0.43634 0.0
C2682 C 0.20383 0.83035 0.4289 0.0
C2683 C 0.20852 0.83264 0.43653 0.0
C2684 C 0.20569 0.83481 0.42102 0.0
C2685 C 0.21193 0.84157 0.42083 0.0
U2686 U 0.23171 0.85938 0.44069 0.0
O2687 O 0.24466 0.86483 0.43718 0.0
O2688 O 0.23355 0.87368 0.43967 0.0
C2689 C 0.24177 0.87297 0.43709 0.0
C2690 C 0.22268 0.85135 0.42837 0.0
C2691 C 0.24424 0.87831 0.42941 0.0
C2692 C 0.24277 0.88227 0.41398 0.0
C2693 C 0.24055 0.87682 0.42108 0.0
C2694 C 0.25245 0.89064 0.42343 0.0
C2695 C 0.24867 0.88931 0.41511 0.0
C2696 C 0.25024 0.8852 0.43051 0.0
C2697 C 0.23327 0.8555 0.46601 0.0
C2698 C 0.2319 0.86359 0.47978 0.0
C2699 C 0.24025 0.85006 0.47935 0.0
C2700 C 0.23848 0.84925 0.47037 0.0
C2701 C 0.23682 0.85714 0.4842 0.0
C2702 C 0.23014 0.86279 0.47078 0.0
C2703 C 0.23023 0.85367 0.45693 0.0
O2704 O 0.21992 0.85849 0.43237 0.0
O2705 O 0.23087 0.84936 0.43027 0.0
O2706 O 0.23608 0.85059 0.45136 0.0
O2707 O 0.22478 0.85934 0.45335 0.0
H2708 H 0.2182 0.84113 0.44233 0.0
H2709 H 0.20736 0.8292 0.44266 0.0
H2710 H 0.20217 0.8332 0.41504 0.0
H2711 H 0.21315 0.84503 0.41472 0.0
H2712 H 0.23987 0.88097 0.40761 0.0
H2713 H 0.23592 0.8715 0.4201 0.0
H2714 H 0.25698 0.89602 0.42453 0.0
H2715 H 0.25315 0.88646 0.43689 0.0
H2716 H 0.22901 0.86902 0.48335 0.0
H2717 H 0.24409 0.845 0.48257 0.0
H2718 H 0.2409 0.84352 0.4669 0.0
H2719 H 0.22602 0.86768 0.46767 0.0
C2720 C 0.16354 0.21673 0.42835 0.0
C2721 C 0.16996 0.21677 0.43498 0.0
C2722 C 0.17739 0.20435 0.42808 0.0
C2723 C 0.17683 0.21065 0.43483 0.0
C2724 C 0.17089 0.20432 0.42149 0.0
C2725 C 0.16406 0.21048 0.42161 0.0
U2726 U 0.14825 0.23185 0.44107 0.0
O2727 O 0.14281 0.24488 0.43776 0.0
O2728 O 0.13396 0.23375 0.4402 0.0
C2729 C 0.13467 0.24199 0.43769 0.0
C2730 C 0.15611 0.22295 0.42856 0.0
C2731 C 0.12924 0.24462 0.4301 0.0
C2732 C 0.12306 0.24187 0.4156 0.0
C2733 C 0.12875 0.23948 0.42245 0.0
C2734 C 0.11849 0.25467 0.42389 0.0
C2735 C 0.1178 0.24946 0.41629 0.0
C2736 C 0.12416 0.25228 0.43071 0.0
C2737 C 0.15229 0.23326 0.46629 0.0
C2738 C 0.14269 0.23422 0.47906 0.0
C2739 C 0.15808 0.238 0.48042 0.0
C2740 C 0.15931 0.2362 0.47149 0.0
C2741 C 0.14979 0.23688 0.48434 0.0
C2742 C 0.14391 0.23245 0.4701 0.0
C2743 C 0.15413 0.23024 0.45723 0.0
O2744 O 0.14906 0.2201 0.43266 0.0
O2745 O 0.15808 0.23114 0.4305 0.0
O2746 O 0.15716 0.23614 0.45169 0.0
O2747 O 0.14842 0.22483 0.45367 0.0
H2748 H 0.16963 0.2215 0.4403 0.0
H2749 H 0.18172 0.21083 0.44001 0.0
H2750 H 0.17098 0.19942 0.41633 0.0
H2751 H 0.15911 0.21028 0.4165 0.0
H2752 H 0.12257 0.23764 0.4099 0.0
H2753 H 0.13261 0.23353 0.42186 0.0
H2754 H 0.11457 0.26057 0.42459 0.0
H2755 H 0.12446 0.25634 0.43656 0.0
H2756 H 0.13623 0.23331 0.48191 0.0
H2757 H 0.16373 0.23985 0.48434 0.0
H2758 H 0.16584 0.23678 0.46872 0.0
H2759 H 0.13837 0.23019 0.46625 0.0
C2760 C 0.21605 0.1633 0.57892 0.0
C2761 C 0.21474 0.16815 0.57118 0.0
C2762 C 0.20369 0.17714 0.5785 0.0
C2763 C 0.20864 0.17503 0.57098 0.0
C2764 C 0.20519 0.17239 0.5863 0.0
C2765 C 0.2113 0.16551 0.58649 0.0
U2766 U 0.2309 0.14767 0.56655 0.0
O2767 O 0.24367 0.14177 0.56989 0.0
O2768 O 0.23229 0.13327 0.56728 0.0
C2769 C 0.24055 0.1337 0.56977 0.0
C2770 C 0.22208 0.15573 0.579 0.0
C2771 C 0.24313 0.1279 0.5771 0.0
C2772 C 0.24651 0.12521 0.59252 0.0
C2773 C 0.24362 0.13088 0.58583 0.0
C2774 C 0.24826 0.11354 0.58184 0.0
C2775 C 0.249 0.11652 0.59056 0.0
C2776 C 0.24538 0.11918 0.5752 0.0
C2777 C 0.23264 0.15184 0.5414 0.0
C2778 C 0.23365 0.14218 0.52867 0.0
C2779 C 0.23751 0.15756 0.52728 0.0
C2780 C 0.23565 0.15883 0.53619 0.0
C2781 C 0.23638 0.14925 0.52338 0.0
C2782 C 0.23182 0.14345 0.53761 0.0
C2783 C 0.2296 0.15373 0.55043 0.0
O2784 O 0.21914 0.14873 0.57489 0.0
O2785 O 0.23033 0.15751 0.57715 0.0
O2786 O 0.23555 0.15653 0.55604 0.0
O2787 O 0.22398 0.14817 0.5539 0.0
H2788 H 0.21836 0.16654 0.56526 0.0
H2789 H 0.20777 0.17868 0.56493 0.0
H2790 H 0.20147 0.17386 0.59219 0.0
H2791 H 0.21222 0.16183 0.59251 0.0
H2792 H 0.24697 0.12767 0.59919 0.0
H2793 H 0.24186 0.13758 0.58745 0.0
H2794 H 0.2499 0.10682 0.58016 0.0
H2795 H 0.24499 0.11673 0.56852 0.0
H2796 H 0.23273 0.13571 0.52585 0.0
H2797 H 0.23942 0.16318 0.52335 0.0
H2798 H 0.23625 0.16537 0.53894 0.0
H2799 H 0.22952 0.13793 0.54148 0.0
C2800 C 0.84423 0.21659 0.57851 0.0
C2801 C 0.83967 0.21485 0.57068 0.0
C2802 C 0.83054 0.20407 0.57823 0.0
C2803 C 0.83286 0.20867 0.57055 0.0
C2804 C 0.83501 0.20599 0.5861 0.0
C2805 C 0.84182 0.21218 0.58622 0.0
U2806 U 0.85958 0.23169 0.56608 0.0
O2807 O 0.86523 0.24459 0.56947 0.0
O2808 O 0.87391 0.23339 0.56678 0.0
C2809 C 0.87335 0.24163 0.56931 0.0
C2810 C 0.85169 0.22276 0.57856 0.0
C2811 C 0.87901 0.24415 0.57675 0.0
C2812 C 0.8837 0.24278 0.59199 0.0
C2813 C 0.87786 0.24059 0.58519 0.0
C2814 C 0.89176 0.2522 0.582 0.0
C2815 C 0.89081 0.24848 0.5904 0.0
C2816 C 0.88593 0.25004 0.57524 0.0
C2817 C 0.85533 0.23322 0.5409 0.0
C2818 C 0.86485 0.23413 0.52806 0.0
C2819 C 0.84945 0.23792 0.5268 0.0
C2820 C 0.84828 0.23616 0.53574 0.0
C2821 C 0.85771 0.23678 0.52282 0.0
C2822 C 0.86368 0.23239 0.53703 0.0
C2823 C 0.85354 0.23022 0.54997 0.0
O2824 O 0.85875 0.21994 0.57446 0.0
O2825 O 0.84975 0.23097 0.57668 0.0
O2826 O 0.85064 0.23615 0.55555 0.0
O2827 O 0.85921 0.22471 0.55346 0.0
H2828 H 0.84143 0.21822 0.56466 0.0
H2829 H 0.82943 0.20746 0.56443 0.0
H2830 H 0.83337 0.20254 0.59211 0.0
H2831 H 0.84528 0.21344 0.59232 0.0
H2832 H 0.88281 0.23984 0.59841 0.0
H2833 H 0.87254 0.23604 0.58647 0.0
H2834 H 0.89706 0.25675 0.58063 0.0
H2835 H 0.8869 0.25288 0.56878 0.0
H2836 H 0.87129 0.2332 0.52517 0.0
H2837 H 0.84378 0.23977 0.52291 0.0
H2838 H 0.84177 0.23676 0.53855 0.0
H2839 H 0.86925 0.23013 0.54086 0.0
C2840 C 0.16341 0.79071 0.57865 0.0
C2841 C 0.16816 0.7922 0.57089 0.0
C2842 C 0.17707 0.80326 0.57828 0.0
C2843 C 0.17495 0.79839 0.57071 0.0
C2844 C 0.17242 0.8016 0.5861 0.0
C2845 C 0.16562 0.79539 0.58627 0.0
U2846 U 0.14792 0.77572 0.56626 0.0
O2847 O 0.14235 0.76277 0.56957 0.0
O2848 O 0.13361 0.77398 0.56715 0.0
C2849 C 0.13423 0.76572 0.56962 0.0
C2850 C 0.15595 0.78454 0.57874 0.0
C2851 C 0.12877 0.76316 0.57719 0.0
C2852 C 0.1242 0.76481 0.59244 0.0
C2853 C 0.12981 0.76709 0.58548 0.0
C2854 C 0.11658 0.75458 0.58291 0.0
C2855 C 0.11747 0.75857 0.5912 0.0
C2856 C 0.12218 0.75685 0.57599 0.0
C2857 C 0.15198 0.77456 0.54102 0.0
C2858 C 0.14209 0.77294 0.52855 0.0
C2859 C 0.15777 0.77115 0.52652 0.0
C2860 C 0.1591 0.77269 0.53548 0.0
C2861 C 0.14927 0.77149 0.52291 0.0
C2862 C 0.14342 0.77447 0.53753 0.0
C2863 C 0.15381 0.77741 0.55012 0.0
O2864 O 0.14885 0.78739 0.57475 0.0
O2865 O 0.15787 0.77635 0.57676 0.0
O2866 O 0.15675 0.7714 0.55559 0.0
O2867 O 0.14812 0.78282 0.55371 0.0
H2868 H 0.16655 0.78863 0.56494 0.0
H2869 H 0.17854 0.79939 0.56464 0.0
H2870 H 0.17389 0.80526 0.59202 0.0
H2871 H 0.16201 0.79434 0.59232 0.0
H2872 H 0.12496 0.7681 0.5987 0.0
H2873 H 0.13485 0.77201 0.58652 0.0
H2874 H 0.11149 0.74973 0.58176 0.0
H2875 H 0.12128 0.75375 0.56964 0.0
H2876 H 0.13545 0.77308 0.52597 0.0
H2877 H 0.16344 0.77008 0.52235 0.0
H2878 H 0.16575 0.77276 0.53802 0.0
H2879 H 0.13781 0.77584 0.54169 0.0
C2880 C 0.42828 0.2168 0.16352 0.0
C2881 C 0.4362 0.21414 0.16741 0.0
C2882 C 0.42823 0.2045 0.17741 0.0
C2883 C 0.43618 0.20802 0.17428 0.0
C2884 C 0.4203 0.20724 0.17352 0.0
C2885 C 0.42033 0.21335 0.16663 0.0
U2886 U 0.44073 0.23193 0.14813 0.0
O2887 O 0.43975 0.2339 0.13386 0.0
O2888 O 0.43739 0.245 0.14278 0.0
C2889 C 0.43727 0.24214 0.13463 0.0
C2890 C 0.42828 0.22304 0.15612 0.0
C2891 C 0.42973 0.2449 0.12917 0.0
C2892 C 0.41598 0.24179 0.12158 0.0
C2893 C 0.4226 0.23927 0.12749 0.0
C2894 C 0.42337 0.25569 0.11925 0.0
C2895 C 0.41643 0.24994 0.11723 0.0
C2896 C 0.42996 0.25318 0.12514 0.0
C2897 C 0.46606 0.2332 0.15203 0.0
C2898 C 0.47985 0.23171 0.14401 0.0
C2899 C 0.4794 0.24018 0.15746 0.0
C2900 C 0.47041 0.23845 0.15826 0.0
C2901 C 0.48427 0.23668 0.15043 0.0
C2902 C 0.47084 0.22999 0.14479 0.0
C2903 C 0.45695 0.23023 0.15384 0.0
O2904 O 0.4303 0.23119 0.15814 0.0
O2905 O 0.43226 0.22025 0.14898 0.0
O2906 O 0.45332 0.22486 0.14813 0.0
O2907 O 0.45143 0.23611 0.15696 0.0
H2908 H 0.44241 0.21674 0.16508 0.0
H2909 H 0.44239 0.20604 0.17716 0.0
H2910 H 0.41408 0.20452 0.17567 0.0
H2911 H 0.41415 0.2153 0.16368 0.0
H2912 H 0.41069 0.23724 0.12016 0.0
H2913 H 0.42225 0.23286 0.13057 0.0
H2914 H 0.42379 0.26209 0.11616 0.0
H2915 H 0.43538 0.25764 0.12639 0.0
H2916 H 0.48343 0.22877 0.13861 0.0
H2917 H 0.48262 0.24405 0.1625 0.0
H2918 H 0.46694 0.24093 0.16396 0.0
H2919 H 0.46773 0.22584 0.13992 0.0
C2920 C 0.79089 0.42826 0.16326 0.0
C2921 C 0.7943 0.4361 0.16673 0.0
C2922 C 0.80347 0.42778 0.1769 0.0
C2923 C 0.80053 0.43586 0.17349 0.0
C2924 C 0.79986 0.41995 0.17354 0.0
C2925 C 0.79364 0.4202 0.16676 0.0
U2926 U 0.77583 0.44096 0.14792 0.0
O2927 O 0.77384 0.43997 0.13365 0.0
O2928 O 0.76275 0.43769 0.14258 0.0
C2929 C 0.7656 0.43751 0.13442 0.0
C2930 C 0.7846 0.42843 0.1559 0.0
C2931 C 0.7629 0.42988 0.12907 0.0
C2932 C 0.76582 0.4156 0.12246 0.0
C2933 C 0.76827 0.42243 0.12816 0.0
C2934 C 0.7525 0.42348 0.11876 0.0
C2935 C 0.75795 0.4161 0.11763 0.0
C2936 C 0.75495 0.43029 0.12442 0.0
C2937 C 0.77471 0.46625 0.15173 0.0
C2938 C 0.77412 0.4791 0.1422 0.0
C2939 C 0.76981 0.48035 0.15747 0.0
C2940 C 0.77154 0.47141 0.15869 0.0
C2941 C 0.77122 0.48434 0.14925 0.0
C2942 C 0.77582 0.47013 0.14342 0.0
C2943 C 0.77764 0.45717 0.15361 0.0
O2944 O 0.77649 0.43055 0.15797 0.0
O2945 O 0.78742 0.43238 0.14875 0.0
O2946 O 0.78298 0.4535 0.1479 0.0
O2947 O 0.7717 0.45172 0.15673 0.0
H2948 H 0.79222 0.44239 0.16412 0.0
H2949 H 0.80319 0.44199 0.17594 0.0
H2950 H 0.80184 0.41364 0.17615 0.0
H2951 H 0.79103 0.41408 0.1642 0.0
H2952 H 0.77023 0.41008 0.12163 0.0
H2953 H 0.77444 0.42199 0.13168 0.0
H2954 H 0.74638 0.42404 0.11517 0.0
H2955 H 0.75071 0.43598 0.12504 0.0
H2956 H 0.77526 0.482 0.1358 0.0
H2957 H 0.76776 0.48423 0.16308 0.0
H2958 H 0.77072 0.46859 0.16518 0.0
H2959 H 0.77827 0.46633 0.13792 0.0
C2960 C 0.57854 0.79087 0.16294 0.0
C2961 C 0.57074 0.79251 0.16759 0.0
C2962 C 0.57825 0.80341 0.17662 0.0
C2963 C 0.57061 0.7987 0.17439 0.0
C2964 C 0.58608 0.80161 0.17205 0.0
C2965 C 0.58622 0.7954 0.16525 0.0
U2966 U 0.56613 0.77576 0.14758 0.0
O2967 O 0.56704 0.77391 0.13326 0.0
O2968 O 0.56942 0.76277 0.14211 0.0
C2969 C 0.56948 0.76565 0.13396 0.0
C2970 C 0.5786 0.78467 0.15551 0.0
C2971 C 0.57705 0.76301 0.12854 0.0
C2972 C 0.59262 0.76347 0.12491 0.0
C2973 C 0.58559 0.76601 0.13031 0.0
C2974 C 0.58263 0.75491 0.11595 0.0
C2975 C 0.59122 0.75785 0.11769 0.0
C2976 C 0.57563 0.75745 0.12133 0.0
C2977 C 0.54085 0.7744 0.1518 0.0
C2978 C 0.52706 0.77565 0.14375 0.0
C2979 C 0.52747 0.76778 0.15756 0.0
C2980 C 0.53648 0.76947 0.15826 0.0
C2981 C 0.52262 0.77102 0.1504 0.0
C2982 C 0.53608 0.77732 0.14443 0.0
C2983 C 0.54998 0.77737 0.15348 0.0
O2984 O 0.57666 0.77648 0.15748 0.0
O2985 O 0.57456 0.78747 0.14841 0.0
O2986 O 0.55352 0.78278 0.14774 0.0
O2987 O 0.55554 0.77149 0.1565 0.0
H2988 H 0.56475 0.78905 0.16591 0.0
H2989 H 0.56452 0.79981 0.1779 0.0
H2990 H 0.59206 0.80514 0.17361 0.0
H2991 H 0.59229 0.79423 0.16172 0.0
H2992 H 0.59916 0.76586 0.12639 0.0
H2993 H 0.5868 0.77034 0.13584 0.0
H2994 H 0.58128 0.75078 0.11032 0.0
H2995 H 0.56907 0.75512 0.11982 0.0
H2996 H 0.52348 0.77838 0.13823 0.0
H2997 H 0.52423 0.76417 0.16278 0.0
H2998 H 0.53995 0.76721 0.16405 0.0
H2999 H 0.53922 0.78122 0.13937 0.0
C3000 C 0.2168 0.57857 0.16298 0.0
C3001 C 0.21523 0.57083 0.16774 0.0
C3002 C 0.20424 0.57835 0.17663 0.0
C3003 C 0.20903 0.57072 0.17453 0.0
C3004 C 0.20597 0.58613 0.17195 0.0
C3005 C 0.21218 0.58623 0.16516 0.0
U3006 U 0.23205 0.5661 0.14779 0.0
O3007 O 0.2339 0.5668 0.13348 0.0
O3008 O 0.24502 0.56949 0.14228 0.0
C3009 C 0.24213 0.56935 0.13413 0.0
C3010 C 0.22302 0.57859 0.15556 0.0
C3011 C 0.24471 0.57681 0.12851 0.0
C3012 C 0.24237 0.59154 0.12272 0.0
C3013 C 0.24012 0.58482 0.12863 0.0
C3014 C 0.25392 0.58238 0.11672 0.0
C3015 C 0.24917 0.59031 0.11658 0.0
C3016 C 0.25169 0.5757 0.12261 0.0
C3017 C 0.23358 0.54088 0.15216 0.0
C3018 C 0.23249 0.52709 0.14407 0.0
C3019 C 0.24027 0.52754 0.15793 0.0
C3020 C 0.2385 0.53653 0.15864 0.0
C3021 C 0.23712 0.52267 0.15074 0.0
C3022 C 0.23074 0.5361 0.14477 0.0
C3023 C 0.23054 0.54999 0.15383 0.0
O3024 O 0.23122 0.57673 0.15758 0.0
O3025 O 0.22027 0.57445 0.1485 0.0
O3026 O 0.22509 0.55346 0.1481 0.0
O3027 O 0.2364 0.55561 0.1568 0.0
H3028 H 0.21876 0.56484 0.16616 0.0
H3029 H 0.20798 0.56468 0.17814 0.0
H3030 H 0.20237 0.5921 0.17341 0.0
H3031 H 0.2133 0.59226 0.16154 0.0
H3032 H 0.23862 0.59759 0.12277 0.0
H3033 H 0.23472 0.5858 0.13317 0.0
H3034 H 0.25931 0.58131 0.11219 0.0
H3035 H 0.25533 0.56958 0.12245 0.0
H3036 H 0.22982 0.52351 0.13853 0.0
H3037 H 0.24388 0.52432 0.16316 0.0
H3038 H 0.2407 0.54001 0.16445 0.0
H3039 H 0.22685 0.53922 0.13968 0.0
C3040 C 0.42889 0.79035 0.84424 0.0
C3041 C 0.43682 0.79308 0.84039 0.0
C3042 C 0.42881 0.80241 0.83013 0.0
C3043 C 0.43678 0.79907 0.83342 0.0
C3044 C 0.42088 0.7996 0.83397 0.0
C3045 C 0.42093 0.79361 0.84096 0.0
U3046 U 0.44145 0.77571 0.85996 0.0
O3047 O 0.44052 0.77419 0.87432 0.0
O3048 O 0.43824 0.76283 0.86573 0.0
C3049 C 0.4381 0.76591 0.8738 0.0
C3050 C 0.42891 0.7843 0.85179 0.0
C3051 C 0.43046 0.76341 0.87921 0.0
C3052 C 0.4147 0.76279 0.88187 0.0
C3053 C 0.42182 0.76517 0.87651 0.0
C3054 C 0.42482 0.75687 0.89264 0.0
C3055 C 0.41613 0.75866 0.89003 0.0
C3056 C 0.4319 0.75924 0.88729 0.0
C3057 C 0.46669 0.77458 0.85587 0.0
C3058 C 0.47926 0.77322 0.86568 0.0
C3059 C 0.48112 0.77095 0.85004 0.0
C3060 C 0.47216 0.77248 0.84875 0.0
C3061 C 0.48482 0.77152 0.85848 0.0
C3062 C 0.47027 0.77474 0.86439 0.0
C3063 C 0.45758 0.77738 0.85404 0.0
O3064 O 0.43096 0.77611 0.84999 0.0
O3065 O 0.4329 0.7873 0.85885 0.0
O3066 O 0.45398 0.78285 0.85968 0.0
O3067 O 0.45213 0.77132 0.85119 0.0
H3068 H 0.44304 0.79066 0.84288 0.0
H3069 H 0.44301 0.80125 0.83073 0.0
H3070 H 0.41464 0.80203 0.83156 0.0
H3071 H 0.41474 0.79157 0.84385 0.0
H3072 H 0.40809 0.76412 0.87961 0.0
H3073 H 0.42058 0.76838 0.87027 0.0
H3074 H 0.42615 0.75375 0.8989 0.0
H3075 H 0.43853 0.75784 0.88949 0.0
H3076 H 0.48191 0.77355 0.87228 0.0
H3077 H 0.48523 0.7697 0.84436 0.0
H3078 H 0.46955 0.77235 0.84213 0.0
H3079 H 0.46618 0.7763 0.87001 0.0
C3080 C 0.21672 0.42896 0.84403 0.0
C3081 C 0.2144 0.43676 0.83968 0.0
C3082 C 0.20464 0.42861 0.82994 0.0
C3083 C 0.2084 0.43659 0.83271 0.0
C3084 C 0.20703 0.42081 0.8343 0.0
C3085 C 0.21303 0.42099 0.84127 0.0
U3086 U 0.23146 0.44186 0.85938 0.0
O3087 O 0.2329 0.4414 0.87378 0.0
O3088 O 0.24427 0.43869 0.86531 0.0
C3089 C 0.24115 0.43887 0.87337 0.0
C3090 C 0.22275 0.42917 0.85159 0.0
C3091 C 0.24356 0.43144 0.87911 0.0
C3092 C 0.24476 0.41577 0.88216 0.0
C3093 C 0.24243 0.42266 0.87648 0.0
C3094 C 0.24931 0.42638 0.89312 0.0
C3095 C 0.24822 0.41757 0.89055 0.0
C3096 C 0.24702 0.43323 0.88745 0.0
C3097 C 0.23286 0.46695 0.85468 0.0
C3098 C 0.23502 0.47941 0.86449 0.0
C3099 C 0.23603 0.48143 0.84873 0.0
C3100 C 0.23438 0.47248 0.84748 0.0
C3101 C 0.23614 0.48504 0.85723 0.0
C3102 C 0.23339 0.47042 0.86322 0.0
C3103 C 0.22997 0.45784 0.853 0.0
O3104 O 0.23097 0.43108 0.84973 0.0
O3105 O 0.21978 0.4334 0.8585 0.0
O3106 O 0.22442 0.45444 0.85868 0.0
O3107 O 0.236 0.45226 0.85034 0.0
H3108 H 0.21715 0.443 0.84176 0.0
H3109 H 0.20656 0.44273 0.82961 0.0
H3110 H 0.20426 0.41456 0.8323 0.0
H3111 H 0.21474 0.41491 0.84457 0.0
H3112 H 0.24373 0.40905 0.88005 0.0
H3113 H 0.23972 0.42115 0.87007 0.0
H3114 H 0.252 0.42798 0.89951 0.0
H3115 H 0.24794 0.43996 0.8896 0.0
H3116 H 0.23523 0.48198 0.87112 0.0
H3117 H 0.23682 0.4856 0.84302 0.0
H3118 H 0.23398 0.46994 0.84083 0.0
H3119 H 0.23229 0.46626 0.8689 0.0
C3120 C 0.57885 0.2176 0.84347 0.0
C3121 C 0.57089 0.21488 0.83969 0.0
C3122 C 0.5788 0.20553 0.82938 0.0
C3123 C 0.57086 0.20888 0.83272 0.0
C3124 C 0.58677 0.20835 0.83314 0.0
C3125 C 0.58679 0.21434 0.84013 0.0
U3126 U 0.56638 0.23229 0.8592 0.0
O3127 O 0.56732 0.23392 0.87352 0.0
O3128 O 0.56961 0.24524 0.86486 0.0
C3129 C 0.56974 0.2422 0.87295 0.0
C3130 C 0.57888 0.22368 0.85101 0.0
C3131 C 0.57732 0.24479 0.8784 0.0
C3132 C 0.59204 0.24223 0.88415 0.0
C3133 C 0.58517 0.23993 0.87843 0.0
C3134 C 0.58335 0.25437 0.88968 0.0
C3135 C 0.59116 0.24943 0.8899 0.0
C3136 C 0.57651 0.25207 0.88398 0.0
C3137 C 0.54111 0.23335 0.85516 0.0
C3138 C 0.52857 0.23477 0.865 0.0
C3139 C 0.52665 0.23686 0.84934 0.0
C3140 C 0.53562 0.23535 0.84804 0.0
C3141 C 0.52298 0.23636 0.8578 0.0
C3142 C 0.53757 0.23327 0.8637 0.0
C3143 C 0.55022 0.23056 0.85333 0.0
O3144 O 0.57682 0.23186 0.84918 0.0
O3145 O 0.57495 0.22071 0.8581 0.0
O3146 O 0.55385 0.22513 0.85899 0.0
O3147 O 0.55566 0.23662 0.85043 0.0
H3148 H 0.56469 0.21735 0.84219 0.0
H3149 H 0.56463 0.20685 0.82994 0.0
H3150 H 0.59298 0.20576 0.83081 0.0
H3151 H 0.59299 0.21634 0.84299 0.0
H3152 H 0.59791 0.23821 0.88426 0.0
H3153 H 0.58592 0.23427 0.87418 0.0
H3154 H 0.58249 0.25997 0.89398 0.0
H3155 H 0.57051 0.2559 0.88405 0.0
H3156 H 0.52595 0.23451 0.87161 0.0
H3157 H 0.52252 0.23803 0.84366 0.0
H3158 H 0.5382 0.23541 0.8414 0.0
H3159 H 0.54168 0.23179 0.86931 0.0
C3160 C 0.79081 0.57849 0.84438 0.0
C3161 C 0.79245 0.5707 0.83973 0.0
C3162 C 0.80341 0.57818 0.83075 0.0
C3163 C 0.79867 0.57055 0.83295 0.0
C3164 C 0.8016 0.58602 0.83532 0.0
C3165 C 0.79537 0.58616 0.84209 0.0
U3166 U 0.77558 0.56628 0.85986 0.0
O3167 O 0.77373 0.56736 0.87415 0.0
O3168 O 0.76262 0.56982 0.8653 0.0
C3169 C 0.76553 0.56996 0.87343 0.0
C3170 C 0.78458 0.57859 0.85178 0.0
C3171 C 0.76307 0.57768 0.87875 0.0
C3172 C 0.7657 0.5926 0.88387 0.0
C3173 C 0.76785 0.58556 0.87832 0.0
C3174 C 0.75384 0.58402 0.89014 0.0
C3175 C 0.75875 0.59186 0.88994 0.0
C3176 C 0.756 0.57701 0.88461 0.0
C3177 C 0.77406 0.54093 0.85612 0.0
C3178 C 0.77574 0.52708 0.86402 0.0
C3179 C 0.76677 0.52766 0.8509 0.0
C3180 C 0.76855 0.53664 0.85007 0.0
C3181 C 0.77051 0.52273 0.85777 0.0
C3182 C 0.7775 0.53608 0.86321 0.0
C3183 C 0.77707 0.55001 0.85424 0.0
O3184 O 0.7764 0.57665 0.8498 0.0
O3185 O 0.78736 0.57461 0.85893 0.0
O3186 O 0.78253 0.55363 0.85988 0.0
O3187 O 0.77122 0.55556 0.85113 0.0
H3188 H 0.78897 0.56471 0.84139 0.0
H3189 H 0.79978 0.56446 0.82944 0.0
H3190 H 0.80516 0.59199 0.83378 0.0
H3191 H 0.7942 0.59223 0.84562 0.0
H3192 H 0.76949 0.59861 0.88344 0.0
H3193 H 0.77331 0.58622 0.8738 0.0
H3194 H 0.74848 0.58323 0.89475 0.0
H3195 H 0.75224 0.57097 0.88503 0.0
H3196 H 0.77887 0.52345 0.86928 0.0
H3197 H 0.7627 0.52449 0.84599 0.0
H3198 H 0.76588 0.54016 0.84449 0.0
H3199 H 0.78186 0.53913 0.86793 0.0
C3200 C 0.1625 0.42935 0.21666 0.0
C3201 C 0.16703 0.43718 0.21486 0.0
C3202 C 0.17627 0.42955 0.20423 0.0
C3203 C 0.17387 0.43728 0.20871 0.0
C3204 C 0.17183 0.42168 0.20621 0.0
C3205 C 0.16499 0.42159 0.21236 0.0
U3206 U 0.14699 0.44176 0.23166 0.0
O3207 O 0.13265 0.44087 0.23329 0.0
O3208 O 0.14133 0.43838 0.24454 0.0
C3209 C 0.13323 0.43832 0.24153 0.0
C3210 C 0.15502 0.42931 0.22279 0.0
C3211 C 0.12781 0.43068 0.24397 0.0
C3212 C 0.12512 0.41492 0.2445 0.0
C3213 C 0.13049 0.42204 0.24215 0.0
C3214 C 0.11437 0.42502 0.25049 0.0
C3215 C 0.11697 0.41634 0.24866 0.0
C3216 C 0.11973 0.4321 0.24816 0.0
C3217 C 0.15114 0.46698 0.23318 0.0
C3218 C 0.14169 0.47988 0.23394 0.0
C3219 C 0.15704 0.48104 0.23799 0.0
C3220 C 0.15817 0.4721 0.23624 0.0
C3221 C 0.14882 0.48507 0.23672 0.0
C3222 C 0.14283 0.47091 0.23221 0.0
C3223 C 0.15293 0.45791 0.23019 0.0
O3224 O 0.15691 0.43123 0.231 0.0
O3225 O 0.14796 0.43338 0.21992 0.0
O3226 O 0.14727 0.45439 0.22469 0.0
O3227 O 0.15585 0.45234 0.23612 0.0
H3228 H 0.16521 0.44323 0.21814 0.0
H3229 H 0.17728 0.4434 0.20746 0.0
H3230 H 0.17352 0.41564 0.20285 0.0
H3231 H 0.16155 0.41549 0.21367 0.0
H3232 H 0.12737 0.40831 0.24313 0.0
H3233 H 0.13671 0.42081 0.23892 0.0
H3234 H 0.10812 0.42634 0.25363 0.0
H3235 H 0.11755 0.43873 0.2496 0.0
H3236 H 0.13529 0.48282 0.23291 0.0
H3237 H 0.1627 0.48489 0.23994 0.0
H3238 H 0.16466 0.46924 0.23695 0.0
H3239 H 0.13728 0.46713 0.22985 0.0
C3240 C 0.57831 0.16316 0.2171 0.0
C3241 C 0.57047 0.16771 0.21539 0.0
C3242 C 0.57795 0.17681 0.20454 0.0
C3243 C 0.5703 0.17449 0.20918 0.0
C3244 C 0.58583 0.17235 0.20642 0.0
C3245 C 0.58599 0.16556 0.21263 0.0
U3246 U 0.56606 0.14768 0.23226 0.0
O3247 O 0.56707 0.13337 0.23406 0.0
O3248 O 0.56953 0.14219 0.24521 0.0
C3249 C 0.56964 0.13406 0.24228 0.0
C3250 C 0.57842 0.15573 0.22331 0.0
C3251 C 0.57734 0.12873 0.24473 0.0
C3252 C 0.59265 0.12449 0.24288 0.0
C3253 C 0.58555 0.12995 0.2407 0.0
C3254 C 0.58344 0.11666 0.25323 0.0
C3255 C 0.59164 0.1177 0.24909 0.0
C3256 C 0.57637 0.12211 0.25106 0.0
C3257 C 0.54074 0.15161 0.23369 0.0
C3258 C 0.52697 0.14354 0.23223 0.0
C3259 C 0.52733 0.15715 0.24045 0.0
C3260 C 0.53633 0.15792 0.23879 0.0
C3261 C 0.5225 0.15006 0.23702 0.0
C3262 C 0.53599 0.1443 0.23058 0.0
C3263 C 0.54984 0.15341 0.23072 0.0
O3264 O 0.57648 0.15769 0.2315 0.0
O3265 O 0.57443 0.1486 0.22051 0.0
O3266 O 0.55343 0.14775 0.22528 0.0
O3267 O 0.55538 0.15646 0.23662 0.0
H3268 H 0.56447 0.16595 0.2188 0.0
H3269 H 0.56417 0.17792 0.20801 0.0
H3270 H 0.59182 0.17398 0.20293 0.0
H3271 H 0.5921 0.16211 0.21386 0.0
H3272 H 0.59892 0.12557 0.2397 0.0
H3273 H 0.58643 0.13507 0.23583 0.0
H3274 H 0.58243 0.11147 0.25801 0.0
H3275 H 0.57008 0.12106 0.25423 0.0
H3276 H 0.52341 0.13809 0.22936 0.0
H3277 H 0.52407 0.16226 0.24419 0.0
H3278 H 0.53979 0.16367 0.24119 0.0
H3279 H 0.53914 0.13935 0.22655 0.0
C3280 C 0.84404 0.57904 0.21695 0.0
C3281 C 0.84075 0.57118 0.21339 0.0
C3282 C 0.83038 0.57943 0.2044 0.0
C3283 C 0.83398 0.57138 0.20717 0.0
C3284 C 0.83355 0.58726 0.20816 0.0
C3285 C 0.84034 0.58706 0.21436 0.0
U3286 U 0.85934 0.56637 0.23205 0.0
O3287 O 0.87361 0.5673 0.23405 0.0
O3288 O 0.86468 0.56964 0.24514 0.0
C3289 C 0.87284 0.56975 0.2423 0.0
C3290 C 0.8514 0.57891 0.22325 0.0
C3291 C 0.8783 0.57729 0.24506 0.0
C3292 C 0.88559 0.59122 0.24207 0.0
C3293 C 0.87968 0.5846 0.23958 0.0
C3294 C 0.88853 0.58348 0.25566 0.0
C3295 C 0.89024 0.59062 0.25004 0.0
C3296 C 0.88265 0.57688 0.25318 0.0
C3297 C 0.85539 0.54104 0.23314 0.0
C3298 C 0.86336 0.52723 0.23154 0.0
C3299 C 0.84995 0.52767 0.24006 0.0
C3300 C 0.84917 0.53667 0.23838 0.0
C3301 C 0.85695 0.52281 0.23651 0.0
C3302 C 0.8626 0.53625 0.22987 0.0
C3303 C 0.8536 0.55018 0.23023 0.0
O3304 O 0.84932 0.57681 0.23136 0.0
O3305 O 0.85855 0.57495 0.22045 0.0
O3306 O 0.85933 0.55384 0.22489 0.0
O3307 O 0.85049 0.55566 0.23614 0.0
H3308 H 0.8435 0.56491 0.21535 0.0
H3309 H 0.83168 0.56524 0.20439 0.0
H3310 H 0.83078 0.59355 0.2063 0.0
H3311 H 0.84275 0.59318 0.21709 0.0
H3312 H 0.88676 0.59666 0.23762 0.0
H3313 H 0.87636 0.58507 0.2333 0.0
H3314 H 0.89186 0.58294 0.26193 0.0
H3315 H 0.88164 0.57132 0.25752 0.0
H3316 H 0.86874 0.52365 0.22856 0.0
H3317 H 0.84491 0.52445 0.24393 0.0
H3318 H 0.84349 0.54015 0.2409 0.0
H3319 H 0.86746 0.53937 0.22572 0.0
C3320 C 0.42852 0.84518 0.21616 0.0
C3321 C 0.43625 0.84076 0.21374 0.0
C3322 C 0.42801 0.8317 0.20342 0.0
C3323 C 0.43599 0.83406 0.20744 0.0
C3324 C 0.42026 0.83602 0.20601 0.0
C3325 C 0.42052 0.84272 0.21231 0.0
U3326 U 0.44141 0.86006 0.23149 0.0
O3327 O 0.4408 0.87436 0.2335 0.0
O3328 O 0.43812 0.86546 0.24452 0.0
C3329 C 0.43824 0.87363 0.24172 0.0
C3330 C 0.42878 0.8525 0.22248 0.0
C3331 C 0.43072 0.87916 0.24429 0.0
C3332 C 0.41554 0.88392 0.2426 0.0
C3333 C 0.42245 0.87826 0.2403 0.0
C3334 C 0.42509 0.89133 0.25296 0.0
C3335 C 0.41681 0.89056 0.24893 0.0
C3336 C 0.43196 0.88568 0.25067 0.0
C3337 C 0.46654 0.85555 0.23294 0.0
C3338 C 0.4794 0.86498 0.23425 0.0
C3339 C 0.4806 0.84945 0.23749 0.0
C3340 C 0.47166 0.84838 0.23563 0.0
C3341 C 0.4846 0.85774 0.23668 0.0
C3342 C 0.47044 0.86391 0.23243 0.0
C3343 C 0.45746 0.8539 0.22988 0.0
O3344 O 0.43072 0.85034 0.23062 0.0
O3345 O 0.43299 0.85953 0.21976 0.0
O3346 O 0.45403 0.85973 0.2245 0.0
O3347 O 0.45185 0.85093 0.23573 0.0
H3348 H 0.44249 0.84258 0.21664 0.0
H3349 H 0.44207 0.83086 0.20556 0.0
H3350 H 0.41399 0.83422 0.20317 0.0
H3351 H 0.41448 0.84603 0.21413 0.0
H3352 H 0.40929 0.88326 0.23927 0.0
H3353 H 0.42138 0.87328 0.23533 0.0
H3354 H 0.42626 0.89634 0.25788 0.0
H3355 H 0.4383 0.88647 0.25382 0.0
H3356 H 0.48232 0.87144 0.23358 0.0
H3357 H 0.48445 0.8437 0.23915 0.0
H3358 H 0.46882 0.84186 0.23599 0.0
H3359 H 0.46664 0.86957 0.23036 0.0
C3360 C 0.16301 0.57894 0.79091 0.0
C3361 C 0.16722 0.5711 0.79331 0.0
C3362 C 0.17709 0.5792 0.80299 0.0
C3363 C 0.17419 0.57122 0.79932 0.0
C3364 C 0.17286 0.58704 0.80052 0.0
C3365 C 0.16588 0.58691 0.79452 0.0
U3366 U 0.14762 0.56612 0.77615 0.0
O3367 O 0.13327 0.56672 0.77454 0.0
O3368 O 0.14186 0.56927 0.76323 0.0
C3369 C 0.13377 0.56915 0.76626 0.0
C3370 C 0.15548 0.5788 0.78482 0.0
C3371 C 0.1281 0.57656 0.7637 0.0
C3372 C 0.12329 0.59176 0.76512 0.0
C3373 C 0.12914 0.58498 0.76735 0.0
C3374 C 0.11546 0.58181 0.75547 0.0
C3375 C 0.11629 0.59019 0.75928 0.0
C3376 C 0.12129 0.57507 0.75768 0.0
C3377 C 0.15211 0.54097 0.77501 0.0
C3378 C 0.14237 0.52837 0.77339 0.0
C3379 C 0.15807 0.52655 0.77156 0.0
C3380 C 0.1593 0.53552 0.77312 0.0
C3381 C 0.14962 0.52283 0.77191 0.0
C3382 C 0.1436 0.53737 0.77494 0.0
C3383 C 0.15382 0.55009 0.77783 0.0
O3384 O 0.15737 0.57681 0.77663 0.0
O3385 O 0.14849 0.57467 0.78777 0.0
O3386 O 0.14813 0.5536 0.7833 0.0
O3387 O 0.1566 0.5556 0.77178 0.0
H3388 H 0.16505 0.56487 0.79062 0.0
H3389 H 0.17718 0.56505 0.80122 0.0
H3390 H 0.17495 0.59328 0.80323 0.0
H3391 H 0.16269 0.59302 0.79274 0.0
H3392 H 0.12409 0.59816 0.76813 0.0
H3393 H 0.13437 0.58626 0.772 0.0
H3394 H 0.11025 0.58045 0.75081 0.0
H3395 H 0.12042 0.56863 0.75476 0.0
H3396 H 0.13577 0.52571 0.77354 0.0
H3397 H 0.16379 0.52245 0.77047 0.0
H3398 H 0.16592 0.53814 0.77317 0.0
H3399 H 0.13793 0.54145 0.77632 0.0
C3400 C 0.42861 0.16423 0.79016 0.0
C3401 C 0.43657 0.16794 0.79299 0.0
C3402 C 0.42862 0.17827 0.80229 0.0
C3403 C 0.43657 0.17489 0.79902 0.0
C3404 C 0.42066 0.17457 0.79938 0.0
C3405 C 0.42067 0.16761 0.79336 0.0
U3406 U 0.44108 0.14842 0.77551 0.0
O3407 O 0.43996 0.13413 0.77379 0.0
O3408 O 0.43788 0.14287 0.7625 0.0
C3409 C 0.4376 0.13477 0.76551 0.0
C3410 C 0.42859 0.15672 0.78405 0.0
C3411 C 0.42995 0.12944 0.76282 0.0
C3412 C 0.41557 0.12303 0.76568 0.0
C3413 C 0.42242 0.1287 0.76811 0.0
C3414 C 0.42358 0.11899 0.75254 0.0
C3415 C 0.41612 0.11804 0.75791 0.0
C3416 C 0.43042 0.12464 0.75497 0.0
C3417 C 0.46641 0.15209 0.77465 0.0
C3418 C 0.47899 0.14224 0.77376 0.0
C3419 C 0.48085 0.15775 0.77075 0.0
C3420 C 0.47188 0.1591 0.77222 0.0
C3421 C 0.48455 0.14935 0.77174 0.0
C3422 C 0.47 0.14359 0.77521 0.0
C3423 C 0.4573 0.15404 0.77739 0.0
O3424 O 0.43076 0.15857 0.7759 0.0
O3425 O 0.43243 0.14958 0.78703 0.0
O3426 O 0.45355 0.14843 0.78278 0.0
O3427 O 0.45195 0.15706 0.77132 0.0
H3428 H 0.44278 0.16542 0.79059 0.0
H3429 H 0.4428 0.17762 0.80113 0.0
H3430 H 0.41444 0.17692 0.8019 0.0
H3431 H 0.41447 0.16479 0.79127 0.0
H3432 H 0.40998 0.12234 0.77003 0.0
H3433 H 0.42194 0.13235 0.77421 0.0
H3434 H 0.42418 0.11528 0.74649 0.0
H3435 H 0.43616 0.12512 0.75079 0.0
H3436 H 0.48164 0.13566 0.77441 0.0
H3437 H 0.48496 0.16336 0.76924 0.0
H3438 H 0.46928 0.16572 0.77178 0.0
H3439 H 0.46592 0.13805 0.77703 0.0
C3440 C 0.8439 0.42892 0.79049 0.0
C3441 C 0.84004 0.43684 0.79321 0.0
C3442 C 0.82984 0.42882 0.8026 0.0
C3443 C 0.83309 0.43679 0.79923 0.0
C3444 C 0.83369 0.42089 0.79978 0.0
C3445 C 0.84066 0.42095 0.79377 0.0
U3446 U 0.85943 0.44153 0.77569 0.0
O3447 O 0.87376 0.44079 0.77408 0.0
O3448 O 0.86515 0.43829 0.76278 0.0
C3449 C 0.87324 0.43836 0.7658 0.0
C3450 C 0.85142 0.42896 0.78439 0.0
C3451 C 0.87887 0.43092 0.76323 0.0
C3452 C 0.88393 0.41583 0.76495 0.0
C3453 C 0.87808 0.42261 0.76718 0.0
C3454 C 0.89124 0.42556 0.75468 0.0
C3455 C 0.89069 0.41731 0.7588 0.0
C3456 C 0.88541 0.4323 0.7569 0.0
C3457 C 0.85528 0.46672 0.77437 0.0
C3458 C 0.86492 0.47946 0.77346 0.0
C3459 C 0.84951 0.4809 0.76979 0.0
C3460 C 0.84826 0.47197 0.77152 0.0
C3461 C 0.85782 0.48479 0.77088 0.0
C3462 C 0.86368 0.47049 0.77516 0.0
C3463 C 0.85342 0.45764 0.77729 0.0
O3464 O 0.84955 0.43095 0.7762 0.0
O3465 O 0.85847 0.43301 0.78733 0.0
O3466 O 0.85905 0.45408 0.7828 0.0
O3467 O 0.85054 0.45212 0.7713 0.0
H3468 H 0.84246 0.44306 0.79073 0.0
H3469 H 0.83025 0.443 0.80126 0.0
H3470 H 0.83144 0.41466 0.80238 0.0
H3471 H 0.84359 0.41477 0.79177 0.0
H3472 H 0.88335 0.40953 0.7682 0.0
H3473 H 0.87305 0.42142 0.77208 0.0
H3474 H 0.89626 0.42683 0.74979 0.0
H3475 H 0.88609 0.43865 0.75374 0.0
H3476 H 0.8714 0.48228 0.77435 0.0
H3477 H 0.84386 0.48486 0.768 0.0
H3478 H 0.84171 0.46922 0.77094 0.0
H3479 H 0.86922 0.4666 0.77735 0.0
C3480 C 0.57869 0.84361 0.79021 0.0
C3481 C 0.57073 0.83999 0.79316 0.0
C3482 C 0.5787 0.82956 0.80233 0.0
C3483 C 0.57074 0.83304 0.79919 0.0
C3484 C 0.58665 0.83317 0.79931 0.0
C3485 C 0.58665 0.84013 0.79329 0.0
U3486 U 0.56634 0.85932 0.77533 0.0
O3487 O 0.56749 0.87361 0.77355 0.0
O3488 O 0.5697 0.8648 0.76234 0.0
C3489 C 0.56996 0.87291 0.7653 0.0
C3490 C 0.57873 0.85109 0.78408 0.0
C3491 C 0.57768 0.87817 0.7627 0.0
C3492 C 0.59234 0.88395 0.76548 0.0
C3493 C 0.58532 0.87847 0.76788 0.0
C3494 C 0.58424 0.8887 0.75263 0.0
C3495 C 0.59187 0.88914 0.75784 0.0
C3496 C 0.57724 0.88326 0.75504 0.0
C3497 C 0.54104 0.85561 0.77401 0.0
C3498 C 0.52822 0.86519 0.7734 0.0
C3499 C 0.52692 0.84992 0.76911 0.0
C3500 C 0.53585 0.84867 0.77084 0.0
C3501 C 0.52296 0.85815 0.77051 0.0
C3502 C 0.53718 0.86394 0.77511 0.0
C3503 C 0.55009 0.85369 0.77697 0.0
O3504 O 0.57667 0.8492 0.77591 0.0
O3505 O 0.57482 0.85823 0.78698 0.0
O3506 O 0.55375 0.85934 0.78239 0.0
O3507 O 0.55556 0.85062 0.77103 0.0
H3508 H 0.56452 0.84259 0.79083 0.0
H3509 H 0.56451 0.83038 0.80138 0.0
H3510 H 0.59289 0.83073 0.80174 0.0
H3511 H 0.59285 0.84287 0.79112 0.0
H3512 H 0.59813 0.88416 0.76963 0.0
H3513 H 0.5858 0.87458 0.77382 0.0
H3514 H 0.58358 0.89277 0.74683 0.0
H3515 H 0.57138 0.88316 0.75099 0.0
H3516 H 0.52534 0.8716 0.77453 0.0
H3517 H 0.52302 0.84432 0.76708 0.0
H3518 H 0.53865 0.84217 0.77004 0.0
H3519 H 0.54101 0.86942 0.77755 0.0
C3520 C 0.2163 0.16269 0.4293 0.0
C3521 C 0.20788 0.16178 0.43303 0.0
C3522 C 0.20408 0.17674 0.42872 0.0
C3523 C 0.20186 0.16872 0.43274 0.0
C3524 C 0.21252 0.17767 0.42505 0.0
C3525 C 0.21853 0.17071 0.4253 0.0
U3526 U 0.23184 0.14746 0.44182 0.0
O3527 O 0.23394 0.1332 0.44092 0.0
O3528 O 0.24491 0.14222 0.43837 0.0
C3529 C 0.24216 0.13402 0.43838 0.0
C3530 C 0.22273 0.15535 0.42947 0.0
C3531 C 0.24481 0.12855 0.43084 0.0
C3532 C 0.24249 0.12289 0.41605 0.0
C3533 C 0.24022 0.12872 0.42284 0.0
C3534 C 0.2541 0.11689 0.42514 0.0
C3535 C 0.24934 0.11678 0.41722 0.0
C3536 C 0.25184 0.1227 0.43188 0.0
C3537 C 0.23316 0.15138 0.46708 0.0
C3538 C 0.23399 0.14187 0.47993 0.0
C3539 C 0.2379 0.15724 0.48118 0.0
C3540 C 0.23615 0.15841 0.47224 0.0
C3541 C 0.23669 0.149 0.48517 0.0
C3542 C 0.23227 0.14304 0.47096 0.0
C3543 C 0.23014 0.1532 0.45802 0.0
O3544 O 0.23089 0.15748 0.43138 0.0
O3545 O 0.22017 0.14805 0.43334 0.0
O3546 O 0.22481 0.14743 0.45442 0.0
O3547 O 0.23601 0.15634 0.4525 0.0
H3548 H 0.2059 0.1557 0.43615 0.0
H3549 H 0.1954 0.16777 0.43558 0.0
H3550 H 0.21451 0.18382 0.42207 0.0
H3551 H 0.22496 0.17161 0.42237 0.0
H3552 H 0.23873 0.12296 0.41001 0.0
H3553 H 0.23477 0.13321 0.42191 0.0
H3554 H 0.25952 0.11238 0.42615 0.0
H3555 H 0.25549 0.1225 0.43799 0.0
H3556 H 0.23301 0.13544 0.48283 0.0
H3557 H 0.23979 0.16291 0.48506 0.0
H3558 H 0.2368 0.16492 0.46942 0.0
H3559 H 0.22996 0.13749 0.46715 0.0
C3560 C 0.21654 0.84431 0.57838 0.0
C3561 C 0.21506 0.83951 0.57064 0.0
C3562 C 0.20411 0.83053 0.57813 0.0
C3563 C 0.20892 0.83266 0.57052 0.0
C3564 C 0.20576 0.83524 0.58592 0.0
C3565 C 0.21191 0.84209 0.58603 0.0
U3566 U 0.23154 0.85985 0.566 0.0
O3567 O 0.23313 0.8742 0.56688 0.0
O3568 O 0.24439 0.86556 0.56942 0.0
C3569 C 0.24135 0.87365 0.56945 0.0
C3570 C 0.22265 0.85181 0.57842 0.0
C3571 C 0.24377 0.87912 0.57707 0.0
C3572 C 0.2446 0.88174 0.59283 0.0
C3573 C 0.24224 0.87634 0.58574 0.0
C3574 C 0.25001 0.89272 0.58266 0.0
C3575 C 0.24848 0.89002 0.59136 0.0
C3576 C 0.24767 0.88733 0.5756 0.0
C3577 C 0.2332 0.8557 0.54074 0.0
C3578 C 0.23184 0.86371 0.52692 0.0
C3579 C 0.2402 0.85019 0.52744 0.0
C3580 C 0.23841 0.84942 0.53642 0.0
C3581 C 0.23677 0.85724 0.52254 0.0
C3582 C 0.23007 0.86296 0.53593 0.0
C3583 C 0.23017 0.85392 0.54983 0.0
O3584 O 0.23087 0.84994 0.57654 0.0
O3585 O 0.21977 0.85885 0.57433 0.0
O3586 O 0.22463 0.85954 0.55334 0.0
O3587 O 0.23606 0.851 0.55544 0.0
H3588 H 0.21859 0.84113 0.56467 0.0
H3589 H 0.20792 0.82904 0.56448 0.0
H3590 H 0.20214 0.83376 0.59187 0.0
H3591 H 0.21296 0.84573 0.59206 0.0
H3592 H 0.24347 0.8794 0.59946 0.0
H3593 H 0.23924 0.87 0.58701 0.0
H3594 H 0.25292 0.89907 0.5813 0.0
H3595 H 0.24888 0.8896 0.56895 0.0
H3596 H 0.22896 0.86912 0.52331 0.0
H3597 H 0.24404 0.84511 0.52425 0.0
H3598 H 0.24083 0.84372 0.53993 0.0
H3599 H 0.22595 0.86787 0.53901 0.0
C3600 C 0.16297 0.21695 0.57839 0.0
C3601 C 0.16786 0.21549 0.5707 0.0
C3602 C 0.17667 0.20442 0.57822 0.0
C3603 C 0.17467 0.2093 0.57063 0.0
C3604 C 0.17187 0.20605 0.58596 0.0
C3605 C 0.16506 0.21225 0.58603 0.0
U3606 U 0.14764 0.23201 0.56585 0.0
O3607 O 0.13331 0.2337 0.56653 0.0
O3608 O 0.14199 0.24492 0.56919 0.0
C3609 C 0.13387 0.24195 0.56905 0.0
C3610 C 0.15551 0.22311 0.57837 0.0
C3611 C 0.12822 0.24448 0.57649 0.0
C3612 C 0.12316 0.24275 0.59158 0.0
C3613 C 0.12904 0.24056 0.58481 0.0
C3614 C 0.11577 0.25294 0.58183 0.0
C3615 C 0.11636 0.24885 0.59009 0.0
C3616 C 0.12163 0.25076 0.5751 0.0
C3617 C 0.15194 0.23349 0.54067 0.0
C3618 C 0.14245 0.23436 0.5278 0.0
C3619 C 0.15785 0.23817 0.52657 0.0
C3620 C 0.159 0.23642 0.53551 0.0
C3621 C 0.1496 0.23701 0.52257 0.0
C3622 C 0.14359 0.23264 0.53677 0.0
C3623 C 0.15371 0.2305 0.54974 0.0
O3624 O 0.15745 0.23131 0.57647 0.0
O3625 O 0.14847 0.22027 0.57424 0.0
O3626 O 0.14803 0.22501 0.55324 0.0
O3627 O 0.15659 0.23644 0.55532 0.0
H3628 H 0.16635 0.21907 0.56474 0.0
H3629 H 0.17836 0.20833 0.56462 0.0
H3630 H 0.17325 0.20238 0.5919 0.0
H3631 H 0.16135 0.21328 0.59202 0.0
H3632 H 0.12378 0.23952 0.59789 0.0
H3633 H 0.1341 0.2357 0.586 0.0
H3634 H 0.11072 0.25778 0.58055 0.0
H3635 H 0.12092 0.2539 0.56874 0.0
H3636 H 0.13602 0.23343 0.52489 0.0
H3637 H 0.16353 0.24001 0.52269 0.0
H3638 H 0.1655 0.23703 0.53834 0.0
H3639 H 0.13802 0.23038 0.54059 0.0
C3640 C 0.79071 0.16337 0.57853 0.0
C3641 C 0.7925 0.16789 0.57069 0.0
C3642 C 0.80333 0.17698 0.57822 0.0
C3643 C 0.79873 0.17465 0.57054 0.0
C3644 C 0.80137 0.17255 0.5861 0.0
C3645 C 0.79512 0.16578 0.58624 0.0
U3646 U 0.77547 0.14802 0.56622 0.0
O3647 O 0.77352 0.13374 0.5672 0.0
O3648 O 0.76244 0.14266 0.56962 0.0
C3649 C 0.76529 0.1345 0.56971 0.0
C3650 C 0.78445 0.15599 0.57862 0.0
C3651 C 0.76265 0.1291 0.57732 0.0
C3652 C 0.76523 0.12328 0.592 0.0
C3653 C 0.76758 0.12896 0.58512 0.0
C3654 C 0.7529 0.11802 0.58342 0.0
C3655 C 0.7579 0.11769 0.59118 0.0
C3656 C 0.75525 0.12368 0.57657 0.0
C3657 C 0.7741 0.15194 0.54095 0.0
C3658 C 0.77323 0.14238 0.52814 0.0
C3659 C 0.76939 0.15776 0.52682 0.0
C3660 C 0.77115 0.15896 0.53576 0.0
C3661 C 0.77056 0.14949 0.52287 0.0
C3662 C 0.77496 0.14357 0.53711 0.0
C3663 C 0.7771 0.15378 0.55001 0.0
O3664 O 0.77628 0.15801 0.57666 0.0
O3665 O 0.7872 0.14884 0.57463 0.0
O3666 O 0.78248 0.14805 0.5536 0.0
O3667 O 0.77122 0.15686 0.55553 0.0
H3668 H 0.78912 0.16613 0.56467 0.0
H3669 H 0.79996 0.17806 0.56442 0.0
H3670 H 0.80481 0.17418 0.59212 0.0
H3671 H 0.79383 0.16236 0.59235 0.0
H3672 H 0.76929 0.12308 0.59784 0.0
H3673 H 0.77334 0.13309 0.58582 0.0
H3674 H 0.7472 0.11383 0.58261 0.0
H3675 H 0.75136 0.1237 0.5706 0.0
H3676 H 0.77417 0.13593 0.52527 0.0
H3677 H 0.76753 0.16342 0.52292 0.0
H3678 H 0.77053 0.16549 0.53855 0.0
H3679 H 0.77723 0.13803 0.54095 0.0
C3680 C 0.84441 0.79093 0.5783 0.0
C3681 C 0.84312 0.79654 0.57108 0.0
C3682 C 0.83041 0.80316 0.57824 0.0
C3683 C 0.83625 0.80264 0.57108 0.0
C3684 C 0.83168 0.79748 0.58543 0.0
C3685 C 0.83862 0.79142 0.58545 0.0
U3686 U 0.85984 0.77568 0.56604 0.0
O3687 O 0.87408 0.77355 0.5672 0.0
O3688 O 0.86501 0.76255 0.56934 0.0
C3689 C 0.87319 0.7653 0.56959 0.0
C3690 C 0.85172 0.78456 0.5784 0.0
C3691 C 0.8784 0.76256 0.57729 0.0
C3692 C 0.88304 0.76436 0.59249 0.0
C3693 C 0.87766 0.76685 0.58543 0.0
C3694 C 0.88984 0.75322 0.58338 0.0
C3695 C 0.8892 0.75752 0.59154 0.0
C3696 C 0.88448 0.75571 0.57634 0.0
C3697 C 0.85606 0.77479 0.5407 0.0
C3698 C 0.86585 0.77329 0.52813 0.0
C3699 C 0.85017 0.77131 0.52626 0.0
C3700 C 0.84891 0.77284 0.53523 0.0
C3701 C 0.85862 0.77175 0.52256 0.0
C3702 C 0.86458 0.77481 0.53713 0.0
C3703 C 0.85426 0.77763 0.54981 0.0
O3704 O 0.84963 0.77644 0.57631 0.0
O3705 O 0.85905 0.78723 0.57468 0.0
O3706 O 0.86007 0.78285 0.55352 0.0
O3707 O 0.85108 0.77167 0.5552 0.0
H3708 H 0.84749 0.79627 0.56546 0.0
H3709 H 0.83561 0.80706 0.56554 0.0
H3710 H 0.82729 0.7977 0.59103 0.0
H3711 H 0.83947 0.78712 0.59106 0.0
H3712 H 0.88241 0.7678 0.59869 0.0
H3713 H 0.87301 0.77217 0.58627 0.0
H3714 H 0.89466 0.74809 0.58236 0.0
H3715 H 0.8852 0.75237 0.57009 0.0
H3716 H 0.87245 0.77351 0.52549 0.0
H3717 H 0.84447 0.77018 0.52214 0.0
H3718 H 0.84228 0.77282 0.53783 0.0
H3719 H 0.87022 0.77626 0.54122 0.0
C3720 C 0.79072 0.84458 0.42935 0.0
C3721 C 0.79637 0.84327 0.43654 0.0
C3722 C 0.8029 0.83054 0.42933 0.0
C3723 C 0.80245 0.83638 0.43649 0.0
C3724 C 0.79717 0.83182 0.42219 0.0
C3725 C 0.79114 0.83878 0.4222 0.0
U3726 U 0.77538 0.86005 0.44152 0.0
O3727 O 0.77346 0.87433 0.44046 0.0
O3728 O 0.7624 0.86542 0.43799 0.0
C3729 C 0.76525 0.87358 0.43788 0.0
C3730 C 0.7844 0.85195 0.42925 0.0
C3731 C 0.76276 0.8789 0.43019 0.0
C3732 C 0.76403 0.88265 0.41469 0.0
C3733 C 0.76623 0.87721 0.4218 0.0
C3734 C 0.75479 0.8914 0.42425 0.0
C3735 C 0.75835 0.88987 0.41586 0.0
C3736 C 0.75699 0.88597 0.43133 0.0
C3737 C 0.7739 0.85621 0.46681 0.0
C3738 C 0.77303 0.86575 0.47964 0.0
C3739 C 0.76917 0.85037 0.48092 0.0
C3740 C 0.77093 0.84918 0.47198 0.0
C3741 C 0.77035 0.85863 0.48489 0.0
C3742 C 0.77477 0.86457 0.47067 0.0
C3743 C 0.77693 0.85437 0.45776 0.0
O3744 O 0.77623 0.8499 0.43119 0.0
O3745 O 0.78707 0.85921 0.4331 0.0
O3746 O 0.78232 0.86009 0.45417 0.0
O3747 O 0.77105 0.85128 0.45223 0.0
H3748 H 0.79616 0.84764 0.44215 0.0
H3749 H 0.80691 0.83573 0.442 0.0
H3750 H 0.79734 0.82742 0.41659 0.0
H3751 H 0.78681 0.83964 0.41661 0.0
H3752 H 0.76675 0.8812 0.40827 0.0
H3753 H 0.77069 0.87175 0.42079 0.0
H3754 H 0.75045 0.89692 0.42538 0.0
H3755 H 0.75426 0.88738 0.43776 0.0
H3756 H 0.77398 0.87219 0.48252 0.0
H3757 H 0.76731 0.8447 0.48481 0.0
H3758 H 0.7703 0.84267 0.46918 0.0
H3759 H 0.77706 0.87012 0.46684 0.0
C3760 C 0.16281 0.79085 0.42882 0.0
C3761 C 0.16744 0.79254 0.43662 0.0
C3762 C 0.17654 0.80333 0.42905 0.0
C3763 C 0.17426 0.79871 0.43673 0.0
C3764 C 0.172 0.80147 0.42121 0.0
C3765 C 0.16518 0.79529 0.42111 0.0
U3766 U 0.14735 0.77593 0.44132 0.0
O3767 O 0.13303 0.77416 0.44043 0.0
O3768 O 0.1418 0.76295 0.43813 0.0
C3769 C 0.13367 0.76588 0.43805 0.0
C3770 C 0.15535 0.78469 0.42879 0.0
C3771 C 0.12824 0.76323 0.43049 0.0
C3772 C 0.1246 0.76368 0.41491 0.0
C3773 C 0.13001 0.76623 0.42194 0.0
C3774 C 0.11566 0.75512 0.42492 0.0
C3775 C 0.11739 0.75805 0.41633 0.0
C3776 C 0.12104 0.75767 0.43191 0.0
C3777 C 0.15157 0.7748 0.46655 0.0
C3778 C 0.14182 0.77314 0.47912 0.0
C3779 C 0.15751 0.7713 0.48096 0.0
C3780 C 0.15875 0.77289 0.472 0.0
C3781 C 0.14906 0.77163 0.48467 0.0
C3782 C 0.14306 0.77472 0.47013 0.0
C3783 C 0.15332 0.77766 0.45744 0.0
O3784 O 0.15726 0.77651 0.43079 0.0
O3785 O 0.14826 0.78757 0.4328 0.0
O3786 O 0.14757 0.78304 0.45387 0.0
O3787 O 0.15625 0.77166 0.45196 0.0
H3788 H 0.16571 0.78915 0.44264 0.0
H3789 H 0.17775 0.79987 0.44282 0.0
H3790 H 0.1736 0.80494 0.4152 0.0
H3791 H 0.16167 0.79407 0.41503 0.0
H3792 H 0.12607 0.76606 0.40837 0.0
H3793 H 0.13553 0.77055 0.42072 0.0
H3794 H 0.11003 0.75098 0.42628 0.0
H3795 H 0.11953 0.75535 0.43848 0.0
H3796 H 0.13521 0.77328 0.48177 0.0
H3797 H 0.16323 0.77019 0.48507 0.0
H3798 H 0.16537 0.77294 0.46939 0.0
H3799 H 0.1374 0.77613 0.46605 0.0
C3800 C 0.8438 0.21672 0.42874 0.0
C3801 C 0.83978 0.21415 0.43664 0.0
C3802 C 0.82988 0.20444 0.42863 0.0
C3803 C 0.8329 0.20805 0.43659 0.0
C3804 C 0.83392 0.20707 0.42073 0.0
C3805 C 0.84081 0.21317 0.42079 0.0
U3806 U 0.85913 0.2318 0.44131 0.0
O3807 O 0.87342 0.23371 0.44046 0.0
O3808 O 0.86455 0.24483 0.43803 0.0
C3809 C 0.8727 0.24197 0.43801 0.0
C3810 C 0.85122 0.22294 0.42879 0.0
C3811 C 0.87822 0.24468 0.43052 0.0
C3812 C 0.88426 0.24228 0.41589 0.0
C3813 C 0.87841 0.2399 0.42262 0.0
C3814 C 0.88956 0.25436 0.4248 0.0
C3815 C 0.89003 0.24942 0.41701 0.0
C3816 C 0.88373 0.25199 0.43149 0.0
C3817 C 0.85511 0.23309 0.46654 0.0
C3818 C 0.8647 0.23402 0.47932 0.0
C3819 C 0.84931 0.23782 0.48067 0.0
C3820 C 0.84809 0.23603 0.47174 0.0
C3821 C 0.85759 0.23669 0.4846 0.0
C3822 C 0.86348 0.23227 0.47036 0.0
C3823 C 0.85327 0.23011 0.45747 0.0
O3824 O 0.84921 0.2311 0.4308 0.0
O3825 O 0.85832 0.22013 0.43283 0.0
O3826 O 0.85899 0.22471 0.45389 0.0
O3827 O 0.85023 0.23602 0.45196 0.0
H3828 H 0.84205 0.2168 0.44286 0.0
H3829 H 0.83006 0.20602 0.44279 0.0
H3830 H 0.83172 0.20441 0.4145 0.0
H3831 H 0.84384 0.21507 0.41464 0.0
H3832 H 0.88447 0.23837 0.40994 0.0
H3833 H 0.87417 0.23424 0.42173 0.0
H3834 H 0.89379 0.26 0.42577 0.0
H3835 H 0.88364 0.25579 0.43751 0.0
H3836 H 0.87115 0.23311 0.48218 0.0
H3837 H 0.84366 0.23968 0.48458 0.0
H3838 H 0.84155 0.23663 0.46896 0.0
H3839 H 0.86902 0.23001 0.46652 0.0
C3840 C 0.0961 0.25577 0.4056 0.0
C3841 C 0.09811 0.25605 0.39657 0.0
C3842 C 0.10251 0.25368 0.41187 0.0
C3843 C 0.11121 0.25172 0.4094 0.0
H3844 H 0.08951 0.25724 0.40785 0.0
H3845 H 0.10061 0.25349 0.41873 0.0
S3846 S 0.1199 0.25153 0.38661 0.0
N3847 N 0.10943 0.25414 0.38546 0.0
N3848 N 0.12152 0.25029 0.39728 0.0
C3849 C 0.11332 0.25197 0.4004 0.0
C3850 C 0.10678 0.25415 0.39399 0.0
C3851 C 0.75405 0.11246 0.40186 0.0
C3852 C 0.7572 0.10977 0.41013 0.0
C3853 C 0.75181 0.10628 0.39535 0.0
C3854 C 0.75277 0.09719 0.39684 0.0
H3855 H 0.75316 0.11939 0.40046 0.0
H3856 H 0.74934 0.10862 0.3891 0.0
S3857 S 0.76093 0.08678 0.41734 0.0
N3858 N 0.76135 0.09743 0.41937 0.0
N3859 N 0.75707 0.08585 0.40724 0.0
C3860 C 0.75601 0.09444 0.40506 0.0
C3861 C 0.75823 0.10072 0.41167 0.0
C3862 C 0.90511 0.75787 0.39657 0.0
C3863 C 0.90895 0.74945 0.39688 0.0
C3864 C 0.89892 0.76053 0.4029 0.0
C3865 C 0.89634 0.75488 0.40976 0.0
H3866 H 0.90714 0.76253 0.39159 0.0
H3867 H 0.89638 0.76718 0.4026 0.0
S3868 S 0.90347 0.73174 0.4127 0.0
N3869 N 0.90905 0.73519 0.40406 0.0
N3870 N 0.89742 0.74016 0.41589 0.0
C3871 C 0.89981 0.74631 0.40986 0.0
C3872 C 0.90611 0.74361 0.40345 0.0
C3873 C 0.25961 0.89777 0.40607 0.0
C3874 C 0.25081 0.89543 0.40775 0.0
C3875 C 0.26177 0.90407 0.39968 0.0
C3876 C 0.25521 0.90835 0.39477 0.0
H3877 H 0.26488 0.89478 0.40982 0.0
H3878 H 0.26861 0.90582 0.3988 0.0
S3879 S 0.23121 0.9043 0.39628 0.0
N3880 N 0.23552 0.89771 0.40375 0.0
N3881 N 0.23958 0.90944 0.39166 0.0
C3882 C 0.24641 0.90588 0.39619 0.0
C3883 C 0.24421 0.89945 0.40268 0.0
C3884 C 0.09581 0.75451 0.60299 0.0
C3885 C 0.09839 0.75219 0.61157 0.0
C3886 C 0.10202 0.75658 0.59651 0.0
C3887 C 0.11109 0.75647 0.59833 0.0
H3888 H 0.08891 0.75462 0.60123 0.0
H3889 H 0.09968 0.75832 0.59001 0.0
S3890 S 0.12132 0.75094 0.61976 0.0
N3891 N 0.11066 0.75003 0.62157 0.0
N3892 N 0.12235 0.75383 0.60934 0.0
C3893 C 0.11378 0.75422 0.60689 0.0
C3894 C 0.10743 0.75207 0.6135 0.0
C3895 C 0.24769 0.10929 0.6054 0.0
C3896 C 0.25237 0.11049 0.59751 0.0
C3897 C 0.25039 0.10303 0.61166 0.0
C3898 C 0.25785 0.09775 0.61023 0.0
H3899 H 0.24174 0.11299 0.60662 0.0
H3900 H 0.24643 0.1021 0.6175 0.0
S3901 S 0.2731 0.09925 0.59127 0.0
N3902 N 0.26536 0.10653 0.58908 0.0
N3903 N 0.27037 0.09479 0.60077 0.0
C3904 C 0.26281 0.09919 0.60257 0.0
C3905 C 0.26009 0.10555 0.59623 0.0
C3906 C 0.89474 0.25354 0.60567 0.0
C3907 C 0.8974 0.25041 0.59738 0.0
C3908 C 0.90095 0.25577 0.61216 0.0
C3909 C 0.91003 0.25482 0.61063 0.0
H3910 H 0.88782 0.25443 0.60709 0.0
H3911 H 0.89862 0.25822 0.61843 0.0
S3912 S 0.92037 0.2467 0.59008 0.0
N3913 N 0.90971 0.24629 0.58809 0.0
N3914 N 0.92133 0.25054 0.60019 0.0
C3915 C 0.91274 0.2516 0.6024 0.0
C3916 C 0.90645 0.24939 0.5958 0.0
C3917 C 0.75998 0.89882 0.60474 0.0
C3918 C 0.75468 0.89683 0.59742 0.0
C3919 C 0.7573 0.90503 0.61105 0.0
C3920 C 0.74921 0.90946 0.61026 0.0
H3921 H 0.76639 0.8958 0.60543 0.0
H3922 H 0.76171 0.90659 0.61641 0.0
S3923 S 0.73237 0.90566 0.59306 0.0
N3924 N 0.74056 0.89911 0.59029 0.0
N3925 N 0.73556 0.91076 0.60209 0.0
C3926 C 0.74368 0.90721 0.60321 0.0
C3927 C 0.7464 0.90091 0.59682 0.0
C3928 C 0.39595 0.10235 0.2498 0.0
C3929 C 0.39694 0.09757 0.25766 0.0
C3930 C 0.40225 0.1086 0.24718 0.0
C3931 C 0.40976 0.11028 0.25232 0.0
H3932 H 0.39043 0.10105 0.2455 0.0
H3933 H 0.40139 0.1119 0.24093 0.0
S3934 S 0.41472 0.10044 0.27409 0.0
N3935 N 0.40553 0.09558 0.27097 0.0
N3936 N 0.4173 0.10731 0.26609 0.0
C3937 C 0.41058 0.10584 0.2604 0.0
C3938 C 0.40419 0.09949 0.26305 0.0
C3939 C 0.90117 0.39478 0.25499 0.0
C3940 C 0.9101 0.39705 0.25584 0.0
C3941 C 0.8948 0.40114 0.25285 0.0
C3942 C 0.89712 0.41002 0.25163 0.0
H3943 H 0.8991 0.38803 0.25588 0.0
H3944 H 0.888 0.39912 0.25225 0.0
S3945 S 0.91959 0.41937 0.25322 0.0
N3946 N 0.92089 0.40882 0.25541 0.0
N3947 N 0.90899 0.4207 0.25133 0.0
C3948 C 0.90602 0.41236 0.25249 0.0
C3949 C 0.91249 0.4059 0.25461 0.0
C3950 C 0.61249 0.90052 0.25522 0.0
C3951 C 0.61055 0.90957 0.25535 0.0
C3952 C 0.60603 0.89427 0.25304 0.0
C3953 C 0.59736 0.89684 0.25106 0.0
H3954 H 0.61907 0.89826 0.25675 0.0
H3955 H 0.60778 0.88737 0.25305 0.0
S3956 S 0.58891 0.9197 0.25051 0.0
N3957 N 0.59932 0.92075 0.25336 0.0
N3958 N 0.58725 0.90906 0.24921 0.0
C3959 C 0.59536 0.90586 0.25116 0.0
C3960 C 0.60193 0.9122 0.25331 0.0
C3961 C 0.10575 0.61281 0.254 0.0
C3962 C 0.09723 0.61017 0.25646 0.0
C3963 C 0.11223 0.60659 0.25179 0.0
C3964 C 0.11047 0.59751 0.25211 0.0
H3965 H 0.10737 0.61973 0.25364 0.0
H3966 H 0.11869 0.6089 0.24989 0.0
S3967 S 0.08925 0.58719 0.25829 0.0
N3968 N 0.08744 0.59785 0.25924 0.0
N3969 N 0.09955 0.58622 0.25503 0.0
C3970 C 0.10199 0.5948 0.25463 0.0
C3971 C 0.0954 0.60111 0.25681 0.0
C3972 C 0.40487 0.89639 0.75042 0.0
C3973 C 0.40945 0.89726 0.75841 0.0
C3974 C 0.39864 0.90268 0.74776 0.0
C3975 C 0.39676 0.91006 0.75302 0.0
H3976 H 0.40635 0.89097 0.74604 0.0
H3977 H 0.39551 0.90192 0.74142 0.0
S3978 S 0.40599 0.91467 0.77512 0.0
N3979 N 0.41101 0.90559 0.77194 0.0
N3980 N 0.39931 0.91735 0.76701 0.0
C3981 C 0.40098 0.91076 0.76122 0.0
C3982 C 0.40732 0.90438 0.7639 0.0
C3983 C 0.09612 0.40525 0.75276 0.0
C3984 C 0.09847 0.39639 0.75152 0.0
C3985 C 0.10244 0.41164 0.75482 0.0
C3986 C 0.11137 0.40943 0.75579 0.0
H3987 H 0.08934 0.4073 0.75205 0.0
H3988 H 0.10029 0.41836 0.75575 0.0
S3989 S 0.12096 0.38716 0.75326 0.0
N3990 N 0.11035 0.38572 0.75148 0.0
N3991 N 0.12225 0.39775 0.75528 0.0
C3992 C 0.11382 0.40059 0.75459 0.0
C3993 C 0.10737 0.39408 0.75244 0.0
C3994 C 0.60273 0.11102 0.75013 0.0
C3995 C 0.59833 0.11025 0.75823 0.0
C3996 C 0.60897 0.10473 0.74746 0.0
C3997 C 0.61103 0.09746 0.75281 0.0
H3998 H 0.60111 0.11633 0.74568 0.0
H3999 H 0.61196 0.1054 0.74104 0.0
S4000 S 0.60231 0.09319 0.77518 0.0
N4001 N 0.59713 0.10216 0.77195 0.0
N4002 N 0.60885 0.09041 0.76698 0.0
C4003 C 0.60699 0.09688 0.76111 0.0
C4004 C 0.60065 0.10325 0.76381 0.0
C4005 C 0.90557 0.6104 0.75807 0.0
C4006 C 0.90898 0.61051 0.74946 0.0
C4007 C 0.89932 0.6041 0.76066 0.0
C4008 C 0.89623 0.5977 0.75473 0.0
H4009 H 0.908 0.61501 0.76292 0.0
H4010 H 0.89712 0.60405 0.76743 0.0
S4011 S 0.9021 0.596 0.73111 0.0
N4012 N 0.90813 0.60424 0.7348 0.0
N4013 N 0.89637 0.59247 0.73963 0.0
C4014 C 0.89927 0.59803 0.746 0.0
C4015 C 0.90563 0.60441 0.74338 0.0
C4016 C 0.24795 0.39867 0.10033 0.0
C4017 C 0.25648 0.39512 0.09974 0.0
C4018 C 0.24575 0.40481 0.10685 0.0
C4019 C 0.25201 0.40771 0.11302 0.0
H4020 H 0.24296 0.39678 0.09562 0.0
H4021 H 0.23918 0.40754 0.10688 0.0
S4022 S 0.27512 0.40011 0.11465 0.0
N4023 N 0.27113 0.39475 0.1061 0.0
N4024 N 0.26696 0.40618 0.11843 0.0
C4025 C 0.26048 0.40401 0.11268 0.0
C4026 C 0.26272 0.39774 0.10604 0.0
C4027 C 0.2479 0.60892 0.90684 0.0
C4028 C 0.25665 0.61164 0.90818 0.0
C4029 C 0.24575 0.60273 0.90035 0.0
C4030 C 0.25226 0.59894 0.89498 0.0
H4031 H 0.24269 0.61153 0.91093 0.0
H4032 H 0.23896 0.60068 0.89973 0.0
S4033 S 0.27608 0.60413 0.8955 0.0
N4034 N 0.27183 0.61025 0.90339 0.0
N4035 N 0.26775 0.59873 0.89111 0.0
C4036 C 0.26099 0.60179 0.89607 0.0
C4037 C 0.26319 0.60812 0.90267 0.0
C4038 C 0.39551 0.25565 0.90092 0.0
C4039 C 0.39713 0.25483 0.91 0.0
C4040 C 0.40199 0.25348 0.89468 0.0
C4041 C 0.41036 0.25056 0.89731 0.0
H4042 H 0.38917 0.25793 0.89862 0.0
H4043 H 0.40049 0.25426 0.88777 0.0
S4044 S 0.41793 0.24727 0.92026 0.0
N4045 N 0.40775 0.25091 0.92127 0.0
N4046 N 0.41984 0.24677 0.90959 0.0
C4047 C 0.41204 0.24968 0.90636 0.0
C4048 C 0.40545 0.25182 0.91268 0.0
C4049 C 0.75942 0.39918 0.90827 0.0
C4050 C 0.75095 0.39548 0.90869 0.0
C4051 C 0.76168 0.40527 0.90173 0.0
C4052 C 0.75554 0.40797 0.89537 0.0
H4053 H 0.76434 0.39742 0.91312 0.0
H4054 H 0.76822 0.4081 0.90182 0.0
S4055 S 0.7326 0.39997 0.89326 0.0
N4056 N 0.73646 0.39478 0.90198 0.0
N4057 N 0.74075 0.40613 0.88961 0.0
C4058 C 0.74712 0.40415 0.89555 0.0
C4059 C 0.74482 0.39792 0.90221 0.0
C4060 C 0.59655 0.75603 0.90514 0.0
C4061 C 0.5985 0.7563 0.8961 0.0
C4062 C 0.60302 0.75399 0.91138 0.0
C4063 C 0.6117 0.75206 0.90885 0.0
H4064 H 0.58997 0.75747 0.90743 0.0
H4065 H 0.60115 0.75381 0.91825 0.0
S4066 S 0.62026 0.75188 0.88601 0.0
N4067 N 0.60977 0.75443 0.88492 0.0
N4068 N 0.62195 0.75067 0.89667 0.0
C4069 C 0.61377 0.75231 0.89984 0.0
C4070 C 0.60717 0.75444 0.89347 0.0
C4071 C 0.74763 0.59994 0.10932 0.0
C4072 C 0.75637 0.5987 0.1121 0.0
C4073 C 0.74544 0.60638 0.10308 0.0
C4074 C 0.75192 0.61178 0.09929 0.0
H4075 H 0.74243 0.59582 0.11192 0.0
H4076 H 0.73866 0.60692 0.10099 0.0
S4077 S 0.77572 0.61152 0.10461 0.0
N4078 N 0.77151 0.60363 0.11075 0.0
N4079 N 0.76738 0.6158 0.09914 0.0
C4080 C 0.76065 0.61079 0.1022 0.0
C4081 C 0.76287 0.60425 0.10858 0.0
C4082 C 0.41086 0.74817 0.10561 0.0
C4083 C 0.4095 0.75565 0.11089 0.0
C4084 C 0.40464 0.7455 0.09936 0.0
C4085 C 0.39676 0.75018 0.09813 0.0
H4086 H 0.41685 0.74437 0.10625 0.0
H4087 H 0.40604 0.73976 0.09539 0.0
S4088 S 0.38999 0.77027 0.11019 0.0
N4089 N 0.39964 0.76771 0.11444 0.0
N4090 N 0.38791 0.76266 0.10272 0.0
C4091 C 0.3952 0.75756 0.10349 0.0
C4092 C 0.40156 0.7603 0.10986 0.0
C4093 C 0.60203 0.26067 0.09813 0.0
C4094 C 0.61054 0.25705 0.098 0.0
C4095 C 0.59579 0.25801 0.10437 0.0
C4096 C 0.59777 0.2516 0.11073 0.0
H4097 H 0.60015 0.26557 0.09331 0.0
H4098 H 0.58932 0.26098 0.10416 0.0
S4099 S 0.61907 0.23997 0.11316 0.0
N4100 N 0.62063 0.2467 0.10479 0.0
N4101 N 0.60888 0.24167 0.1165 0.0
C4102 C 0.60631 0.24803 0.11079 0.0
C4103 C 0.61269 0.25076 0.10443 0.0
C4104 C 0.90012 0.76177 0.60316 0.0
C4105 C 0.89529 0.75516 0.59885 0.0
C4106 C 0.90653 0.75967 0.60946 0.0
C4107 C 0.90832 0.75088 0.61176 0.0
H4108 H 0.89915 0.76861 0.60145 0.0
H4109 H 0.9102 0.76497 0.61248 0.0
S4110 S 0.89712 0.73116 0.60278 0.0
N4111 N 0.8924 0.73949 0.59768 0.0
N4112 N 0.90452 0.73554 0.6094 0.0
C4113 C 0.90334 0.74423 0.6077 0.0
C4114 C 0.89683 0.74637 0.60127 0.0
C4115 C 0.26156 0.90606 0.60545 0.0
C4116 C 0.25561 0.90836 0.61215 0.0
C4117 C 0.25926 0.89999 0.59889 0.0
C4118 C 0.25095 0.89591 0.5988 0.0
H4119 H 0.26795 0.90918 0.60511 0.0
H4120 H 0.26401 0.89854 0.59379 0.0
S4121 S 0.23318 0.89928 0.61516 0.0
N4122 N 0.24121 0.90575 0.61855 0.0
N4123 N 0.23685 0.89444 0.60616 0.0
C4124 C 0.24504 0.89796 0.60561 0.0
C4125 C 0.24737 0.90417 0.61227 0.0
C4126 C 0.10607 0.25555 0.61197 0.0
C4127 C 0.097 0.25504 0.61022 0.0
C4128 C 0.11232 0.25338 0.6055 0.0
C4129 C 0.10971 0.25078 0.59701 0.0
H4130 H 0.10836 0.25757 0.6184 0.0
H4131 H 0.11924 0.25389 0.6071 0.0
S4132 S 0.08677 0.24842 0.58909 0.0
N4133 N 0.08575 0.25178 0.59936 0.0
N4134 N 0.09744 0.24765 0.58728 0.0
C4135 C 0.10066 0.25023 0.5952 0.0
C4136 C 0.09433 0.25237 0.60178 0.0
C4137 C 0.75218 0.09592 0.60207 0.0
C4138 C 0.75148 0.09808 0.61104 0.0
C4139 C 0.75422 0.1023 0.59575 0.0
C4140 C 0.75571 0.11112 0.59812 0.0
H4141 H 0.75106 0.08923 0.5999 0.0
H4142 H 0.75472 0.10029 0.58894 0.0
S4143 S 0.7547 0.12023 0.62072 0.0
N4144 N 0.7525 0.10967 0.62199 0.0
N4145 N 0.75625 0.12171 0.61008 0.0
C4146 C 0.75504 0.11339 0.60706 0.0
C4147 C 0.75292 0.10688 0.61352 0.0
C4148 C 0.90072 0.25492 0.39498 0.0
C4149 C 0.90967 0.25582 0.3972 0.0
C4150 C 0.89441 0.25274 0.40138 0.0
C4151 C 0.89679 0.25153 0.41024 0.0
H4152 H 0.89862 0.25581 0.38824 0.0
H4153 H 0.8876 0.25211 0.3994 0.0
S4154 S 0.9193 0.25324 0.41945 0.0
N4155 N 0.92053 0.25543 0.4089 0.0
N4156 N 0.90872 0.25129 0.42085 0.0
C4157 C 0.9057 0.25244 0.41253 0.0
C4158 C 0.91211 0.25459 0.40603 0.0
C4159 C 0.74536 0.90484 0.40055 0.0
C4160 C 0.75194 0.90886 0.39543 0.0
C4161 C 0.74747 0.89855 0.40697 0.0
C4162 C 0.75623 0.89597 0.40848 0.0
H4163 H 0.73856 0.90677 0.39979 0.0
H4164 H 0.7422 0.89577 0.41086 0.0
S4165 S 0.77583 0.90411 0.39646 0.0
N4166 N 0.76752 0.90944 0.39196 0.0
N4167 N 0.7715 0.89775 0.40411 0.0
C4168 C 0.76284 0.89973 0.40321 0.0
C4169 C 0.76069 0.90615 0.39669 0.0
C4170 C 0.1079 0.76195 0.40338 0.0
C4171 C 0.11145 0.75549 0.40897 0.0
C4172 C 0.10165 0.75979 0.39693 0.0
C4173 C 0.09877 0.75107 0.39574 0.0
H4174 H 0.10974 0.76878 0.4042 0.0
H4175 H 0.09896 0.76502 0.39291 0.0
S4176 S 0.10643 0.73162 0.40832 0.0
N4177 N 0.11198 0.73993 0.41256 0.0
N4178 N 0.10016 0.7359 0.40056 0.0
C4179 C 0.10248 0.74451 0.4011 0.0
C4180 C 0.10882 0.74671 0.40768 0.0
C4181 C 0.255 0.10627 0.39515 0.0
C4182 C 0.25545 0.09726 0.39721 0.0
C4183 C 0.2529 0.11256 0.40161 0.0
C4184 C 0.25132 0.11007 0.41038 0.0
H4185 H 0.2562 0.10846 0.38849 0.0
H4186 H 0.25264 0.11943 0.39975 0.0
S4187 S 0.25173 0.08733 0.41918 0.0
N4188 N 0.25421 0.0862 0.40868 0.0
N4189 N 0.25021 0.09796 0.42073 0.0
C4190 C 0.25175 0.10108 0.41251 0.0
C4191 C 0.25382 0.0947 0.40595 0.0
C4192 C 0.60838 0.90784 0.75975 0.0
C4193 C 0.61165 0.90869 0.75113 0.0
C4194 C 0.60223 0.90131 0.76193 0.0
C4195 C 0.59905 0.8954 0.75556 0.0
H4196 H 0.61051 0.91233 0.76484 0.0
H4197 H 0.59974 0.90107 0.76859 0.0
S4198 S 0.60582 0.89453 0.73214 0.0
N4199 N 0.61142 0.90287 0.73625 0.0
N4200 N 0.59999 0.89053 0.74037 0.0
C4201 C 0.60245 0.89602 0.74697 0.0
C4202 C 0.60873 0.90265 0.74476 0.0
C4203 C 0.11237 0.60551 0.75437 0.0
C4204 C 0.10969 0.59715 0.7573 0.0
C4205 C 0.10617 0.612 0.75213 0.0
C4206 C 0.09708 0.61041 0.75289 0.0
H4207 H 0.11929 0.60698 0.75364 0.0
H4208 H 0.10851 0.61833 0.74985 0.0
S4209 S 0.0867 0.58967 0.76043 0.0
N4210 N 0.09735 0.58772 0.76102 0.0
N4211 N 0.08575 0.59983 0.75676 0.0
C4212 C 0.09435 0.60211 0.7559 0.0
C4213 C 0.10063 0.5955 0.75812 0.0
C4214 C 0.41179 0.10283 0.75331 0.0
C4215 C 0.40926 0.11143 0.75561 0.0
C4216 C 0.40554 0.09639 0.75123 0.0
C4217 C 0.39649 0.09826 0.75132 0.0
H4218 H 0.41868 0.10103 0.75321 0.0
H4219 H 0.40784 0.08987 0.7495 0.0
S4220 S 0.38637 0.11976 0.75681 0.0
N4221 N 0.39704 0.12151 0.75774 0.0
N4222 N 0.38528 0.10934 0.75393 0.0
C4223 C 0.39384 0.10684 0.75356 0.0
C4224 C 0.40022 0.11341 0.75571 0.0
C4225 C 0.89469 0.4019 0.75427 0.0
C4226 C 0.89732 0.41039 0.75683 0.0
C4227 C 0.90092 0.39542 0.75206 0.0
C4228 C 0.91 0.39717 0.75247 0.0
H4229 H 0.88777 0.40029 0.75382 0.0
H4230 H 0.89861 0.38899 0.75007 0.0
S4231 S 0.92028 0.41832 0.75897 0.0
N4232 N 0.90962 0.42013 0.75983 0.0
N4233 N 0.92127 0.40805 0.75562 0.0
C4234 C 0.91269 0.40562 0.75511 0.0
C4235 C 0.90637 0.4122 0.7573 0.0
C4236 C 0.60098 0.10951 0.25998 0.0
C4237 C 0.59896 0.11153 0.25117 0.0
C4238 C 0.60736 0.10319 0.26212 0.0
C4239 C 0.61193 0.09858 0.25553 0.0
H4240 H 0.5975 0.11276 0.26528 0.0
H4241 H 0.6085 0.1017 0.26898 0.0
S4242 S 0.60946 0.10171 0.23147 0.0
N4243 N 0.60228 0.10858 0.23582 0.0
N4244 N 0.61435 0.09683 0.23983 0.0
C4245 C 0.61017 0.10073 0.2467 0.0
C4246 C 0.60369 0.10717 0.24453 0.0
C4247 C 0.90186 0.61248 0.25417 0.0
C4248 C 0.91041 0.60986 0.25656 0.0
C4249 C 0.89537 0.60625 0.25202 0.0
C4250 C 0.89716 0.59717 0.25233 0.0
H4251 H 0.90022 0.6194 0.25382 0.0
H4252 H 0.88889 0.60855 0.25018 0.0
S4253 S 0.91845 0.58691 0.25834 0.0
N4254 N 0.92024 0.59757 0.25926 0.0
N4255 N 0.90812 0.58591 0.25516 0.0
C4256 C 0.90566 0.59449 0.25478 0.0
C4257 C 0.91225 0.60081 0.25691 0.0
C4258 C 0.41162 0.90604 0.25109 0.0
C4259 C 0.40973 0.89698 0.25107 0.0
C4260 C 0.40517 0.91228 0.25318 0.0
C4261 C 0.39656 0.90974 0.25539 0.0
H4262 H 0.41815 0.90834 0.24943 0.0
H4263 H 0.40699 0.91916 0.25317 0.0
S4264 S 0.38817 0.88685 0.25629 0.0
N4265 N 0.3986 0.88578 0.25348 0.0
N4266 N 0.38644 0.89752 0.25731 0.0
C4267 C 0.39455 0.90071 0.25538 0.0
C4268 C 0.40113 0.89433 0.25322 0.0
C4269 C 0.10724 0.40859 0.25951 0.0
C4270 C 0.11109 0.40888 0.25109 0.0
C4271 C 0.10118 0.40202 0.26179 0.0
C4272 C 0.09865 0.39551 0.25572 0.0
H4273 H 0.10886 0.41355 0.26436 0.0
H4274 H 0.09823 0.40221 0.26827 0.0
S4275 S 0.10708 0.39305 0.23297 0.0
N4276 N 0.11211 0.4019 0.23676 0.0
N4277 N 0.10081 0.38949 0.24109 0.0
C4278 C 0.10262 0.39558 0.24737 0.0
C4279 C 0.10882 0.40225 0.24505 0.0
C4280 C 0.7458 0.60807 0.90399 0.0
C4281 C 0.75228 0.61175 0.90947 0.0
C4282 C 0.74797 0.60181 0.89756 0.0
C4283 C 0.75672 0.59904 0.89629 0.0
H4284 H 0.73896 0.60982 0.90487 0.0
H4285 H 0.74274 0.59903 0.89361 0.0
S4286 S 0.7762 0.60706 0.90859 0.0
N4287 N 0.76787 0.61252 0.91289 0.0
N4288 N 0.77192 0.60067 0.90092 0.0
C4289 C 0.76329 0.60288 0.90155 0.0
C4290 C 0.76108 0.60923 0.90811 0.0
C4291 C 0.75101 0.40562 0.096 0.0
C4292 C 0.75128 0.39655 0.09778 0.0
C4293 C 0.75311 0.41184 0.10247 0.0
C4294 C 0.75562 0.40926 0.111 0.0
H4295 H 0.74912 0.40795 0.08955 0.0
H4296 H 0.75287 0.41874 0.10074 0.0
S4297 S 0.75733 0.38632 0.11908 0.0
N4298 N 0.75427 0.38528 0.10871 0.0
N4299 N 0.75812 0.39699 0.12091 0.0
C4300 C 0.7559 0.40021 0.11289 0.0
C4301 C 0.75372 0.39386 0.10629 0.0
C4302 C 0.60416 0.76177 0.10821 0.0
C4303 C 0.59858 0.75529 0.11176 0.0
C4304 C 0.61061 0.75962 0.10196 0.0
C4305 C 0.6118 0.7509 0.09907 0.0
H4306 H 0.60334 0.76859 0.11006 0.0
H4307 H 0.61463 0.76485 0.09928 0.0
S4308 S 0.59924 0.73144 0.10671 0.0
N4309 N 0.59499 0.73973 0.11227 0.0
N4310 N 0.60699 0.73573 0.10045 0.0
C4311 C 0.60645 0.74433 0.10278 0.0
C4312 C 0.59987 0.74652 0.10912 0.0
C4313 C 0.25276 0.60589 0.11226 0.0
C4314 C 0.25115 0.5971 0.10982 0.0
C4315 C 0.25488 0.61229 0.10593 0.0
C4316 C 0.25532 0.61018 0.09693 0.0
H4317 H 0.2525 0.60778 0.11911 0.0
H4318 H 0.2561 0.61897 0.10809 0.0
S4319 S 0.25155 0.58816 0.08713 0.0
N4320 N 0.25001 0.58668 0.09777 0.0
N4321 N 0.25406 0.59865 0.08594 0.0
C4322 C 0.25367 0.60143 0.09442 0.0
C4323 C 0.25158 0.59492 0.10085 0.0
C4324 C 0.40082 0.25164 0.11192 0.0
C4325 C 0.40992 0.25229 0.1103 0.0
C4326 C 0.39463 0.25381 0.1054 0.0
C4327 C 0.39731 0.25657 0.09698 0.0
H4328 H 0.39849 0.24949 0.11829 0.0
H4329 H 0.3877 0.25317 0.1069 0.0
S4330 S 0.42031 0.25937 0.0894 0.0
N4331 N 0.42125 0.25587 0.09963 0.0
N4332 N 0.40966 0.26001 0.08746 0.0
C4333 C 0.40637 0.25727 0.0953 0.0
C4334 C 0.41266 0.25513 0.10193 0.0
C4335 C 0.24762 0.41076 0.90552 0.0
C4336 C 0.25058 0.41039 0.89677 0.0
C4337 C 0.25022 0.40447 0.91173 0.0
C4338 C 0.25592 0.39754 0.90947 0.0
H4339 H 0.24329 0.41601 0.90761 0.0
H4340 H 0.24778 0.40508 0.91839 0.0
S4341 S 0.26566 0.39365 0.88745 0.0
N4342 N 0.25954 0.40252 0.88614 0.0
N4343 N 0.26447 0.3907 0.89783 0.0
C4344 C 0.25881 0.39698 0.9007 0.0
C4345 C 0.25614 0.4034 0.89435 0.0
C4346 C 0.59573 0.25286 0.90534 0.0
C4347 C 0.59809 0.25156 0.89649 0.0
C4348 C 0.60205 0.25486 0.91175 0.0
C4349 C 0.611 0.2557 0.90958 0.0
H4350 H 0.58893 0.25225 0.90736 0.0
H4351 H 0.59987 0.25583 0.91846 0.0
S4352 S 0.62066 0.25297 0.88735 0.0
N4353 N 0.61003 0.25133 0.88587 0.0
N4354 N 0.62193 0.255 0.89794 0.0
C4355 C 0.61347 0.25444 0.90075 0.0
C4356 C 0.60702 0.25236 0.89422 0.0
C4357 C 0.40842 0.74782 0.89981 0.0
C4358 C 0.40868 0.75622 0.89592 0.0
C4359 C 0.40186 0.74554 0.90588 0.0
C4360 C 0.39533 0.7516 0.90838 0.0
H4361 H 0.41339 0.74298 0.89821 0.0
H4362 H 0.40207 0.73908 0.90886 0.0
S4363 S 0.39279 0.7743 0.89984 0.0
N4364 N 0.40165 0.77052 0.89483 0.0
N4365 N 0.38926 0.7662 0.90615 0.0
C4366 C 0.39537 0.75993 0.90437 0.0
C4367 C 0.40203 0.76224 0.89816 0.0
C4368 C 0.08366 0.31749 0.32418 0.0
C4369 C 0.07886 0.30965 0.32315 0.0
C4370 C 0.08363 0.32402 0.31766 0.0
C4371 C 0.0788 0.32296 0.30984 0.0
H4372 H 0.08734 0.31868 0.33016 0.0
H4373 H 0.08729 0.33001 0.31883 0.0
S4374 S 0.0658 0.30331 0.30355 0.0
N4375 N 0.06959 0.30097 0.31345 0.0
N4376 N 0.06953 0.31322 0.30121 0.0
C4377 C 0.07411 0.31508 0.30865 0.0
C4378 C 0.07414 0.30843 0.31529 0.0
C4379 C 0.69096 0.07431 0.30987 0.0
C4380 C 0.68353 0.07978 0.31052 0.0
C4381 C 0.69751 0.07434 0.31637 0.0
C4382 C 0.69689 0.07984 0.32379 0.0
H4383 H 0.69176 0.07001 0.30425 0.0
H4384 H 0.70314 0.07006 0.31556 0.0
S4385 S 0.67842 0.0949 0.32897 0.0
N4386 N 0.67573 0.09052 0.31941 0.0
N4387 N 0.68801 0.09057 0.33161 0.0
C4388 C 0.68946 0.08528 0.32456 0.0
C4389 C 0.68279 0.08525 0.31794 0.0
C4390 C 0.92354 0.69019 0.32307 0.0
C4391 C 0.92852 0.69792 0.32212 0.0
C4392 C 0.92354 0.68365 0.31657 0.0
C4393 C 0.92854 0.68458 0.30884 0.0
H4394 H 0.91973 0.68909 0.32899 0.0
H4395 H 0.91974 0.67774 0.31769 0.0
S4396 S 0.94208 0.70394 0.30276 0.0
N4397 N 0.93816 0.70638 0.31258 0.0
N4398 N 0.93817 0.6941 0.30036 0.0
C4399 C 0.93342 0.69236 0.30771 0.0
C4400 C 0.93341 0.69902 0.31434 0.0
C4401 C 0.31647 0.93228 0.30963 0.0
C4402 C 0.32451 0.92787 0.31089 0.0
C4403 C 0.30994 0.93228 0.31616 0.0
C4404 C 0.31119 0.92787 0.3242 0.0
H4405 H 0.31518 0.93569 0.30351 0.0
H4406 H 0.30383 0.93569 0.31486 0.0
S4407 S 0.33135 0.916 0.33107 0.0
N4408 N 0.33353 0.91941 0.321 0.0
N4409 N 0.32129 0.91942 0.33324 0.0
C4410 C 0.31924 0.92354 0.32558 0.0
C4411 C 0.32589 0.92354 0.31895 0.0
C4412 C 0.0743 0.69782 0.69163 0.0
C4413 C 0.07994 0.69729 0.68431 0.0
C4414 C 0.0743 0.69129 0.69815 0.0
C4415 C 0.07992 0.68396 0.69761 0.0
H4416 H 0.0699 0.70337 0.69236 0.0
H4417 H 0.06989 0.69201 0.7037 0.0
S4418 S 0.09544 0.6791 0.67943 0.0
N4419 N 0.09097 0.6886 0.67669 0.0
N4420 N 0.09096 0.67635 0.68892 0.0
C4421 C 0.08553 0.68331 0.69028 0.0
C4422 C 0.08554 0.68996 0.68365 0.0
C4423 C 0.31724 0.08372 0.68392 0.0
C4424 C 0.30954 0.07867 0.68487 0.0
C4425 C 0.32376 0.08377 0.69045 0.0
C4426 C 0.32285 0.07878 0.69819 0.0
H4427 H 0.31833 0.08753 0.67801 0.0
H4428 H 0.32964 0.08762 0.68934 0.0
S4429 S 0.30358 0.0651 0.70423 0.0
N4430 N 0.30114 0.06898 0.69439 0.0
N4431 N 0.31338 0.06908 0.70665 0.0
C4432 C 0.3151 0.07384 0.6993 0.0
C4433 C 0.30846 0.07379 0.69265 0.0
C4434 C 0.92375 0.32439 0.68971 0.0
C4435 C 0.92836 0.32325 0.69765 0.0
C4436 C 0.92378 0.31787 0.68319 0.0
C4437 C 0.92841 0.30994 0.68434 0.0
H4438 H 0.92022 0.33044 0.68845 0.0
H4439 H 0.92026 0.31911 0.67712 0.0
S4440 S 0.94086 0.30338 0.70426 0.0
N4441 N 0.93724 0.31337 0.70651 0.0
N4442 N 0.93729 0.30111 0.69426 0.0
C4443 C 0.93291 0.30865 0.69231 0.0
C4444 C 0.93289 0.3153 0.69896 0.0
C4445 C 0.6899 0.92392 0.68402 0.0
C4446 C 0.69771 0.92877 0.68504 0.0
C4447 C 0.68339 0.9239 0.69055 0.0
C4448 C 0.68443 0.92874 0.69837 0.0
H4449 H 0.68873 0.92023 0.67804 0.0
H4450 H 0.67742 0.9202 0.68938 0.0
S4451 S 0.70399 0.94189 0.70461 0.0
N4452 N 0.70634 0.93811 0.69471 0.0
N4453 N 0.69411 0.93808 0.70698 0.0
C4454 C 0.69227 0.93348 0.69955 0.0
C4455 C 0.69891 0.9335 0.69289 0.0
C4456 C 0.30903 0.07437 0.31593 0.0
C4457 C 0.30971 0.07987 0.32334 0.0
C4458 C 0.31555 0.07432 0.30939 0.0
C4459 C 0.32301 0.07976 0.31001 0.0
H4460 H 0.30338 0.07011 0.31514 0.0
H4461 H 0.31472 0.07001 0.30378 0.0
S4462 S 0.32826 0.09487 0.32843 0.0
N4463 N 0.31866 0.09058 0.33111 0.0
N4464 N 0.33089 0.09048 0.31886 0.0
C4465 C 0.3238 0.08524 0.31742 0.0
C4466 C 0.31716 0.08529 0.32407 0.0
C4467 C 0.93364 0.31683 0.3233 0.0
C4468 C 0.92831 0.3093 0.32254 0.0
C4469 C 0.93369 0.32334 0.31677 0.0
C4470 C 0.9284 0.3226 0.30922 0.0
H4471 H 0.93771 0.31777 0.32907 0.0
H4472 H 0.93778 0.32909 0.31773 0.0
S4473 S 0.91389 0.3038 0.30367 0.0
N4474 N 0.91802 0.30123 0.31337 0.0
N4475 N 0.9181 0.31347 0.3011 0.0
C4476 C 0.92316 0.31503 0.30829 0.0
C4477 C 0.92312 0.30839 0.31494 0.0
C4478 C 0.69133 0.933 0.30989 0.0
C4479 C 0.68408 0.92727 0.31042 0.0
C4480 C 0.69784 0.9331 0.31643 0.0
C4481 C 0.69736 0.92747 0.32376 0.0
H4482 H 0.69201 0.93742 0.30434 0.0
H4483 H 0.70333 0.93758 0.31572 0.0
S4484 S 0.67939 0.9117 0.3286 0.0
N4485 N 0.67661 0.91613 0.31909 0.0
N4486 N 0.68882 0.91631 0.33136 0.0
C4487 C 0.69012 0.92176 0.3244 0.0
C4488 C 0.68349 0.92166 0.31774 0.0
C4489 C 0.07184 0.68617 0.31419 0.0
C4490 C 0.07955 0.68441 0.30938 0.0
C4491 C 0.0717 0.69257 0.32083 0.0
C4492 C 0.07924 0.69752 0.32291 0.0
H4493 H 0.06591 0.68246 0.31294 0.0
H4494 H 0.06561 0.69366 0.32438 0.0
S4495 S 0.10102 0.69566 0.31209 0.0
N4496 N 0.09484 0.68837 0.30695 0.0
N4497 N 0.09463 0.70023 0.31957 0.0
C4498 C 0.08696 0.69591 0.31807 0.0
C4499 C 0.0871 0.68939 0.3113 0.0
C4500 C 0.31785 0.92376 0.68328 0.0
C4501 C 0.30997 0.92846 0.68445 0.0
C4502 C 0.3244 0.92371 0.68977 0.0
C4503 C 0.32335 0.92837 0.69769 0.0
H4504 H 0.31903 0.9202 0.67723 0.0
H4505 H 0.33042 0.92013 0.68849 0.0
S4506 S 0.30363 0.94108 0.70433 0.0
N4507 N 0.30127 0.93747 0.69437 0.0
N4508 N 0.31359 0.93739 0.70656 0.0
C4509 C 0.31544 0.93297 0.69902 0.0
C4510 C 0.30876 0.93302 0.69241 0.0
C4511 C 0.08423 0.31663 0.69704 0.0
C4512 C 0.07804 0.3235 0.697 0.0
C4513 C 0.08418 0.3101 0.69051 0.0
C4514 C 0.07793 0.3102 0.68368 0.0
H4515 H 0.08912 0.31625 0.7022 0.0
H4516 H 0.08903 0.3049 0.69084 0.0
S4517 S 0.06076 0.32716 0.68018 0.0
N4518 N 0.06579 0.33025 0.68928 0.0
N4519 N 0.06569 0.31802 0.67704 0.0
C4520 C 0.07177 0.31709 0.68352 0.0
C4521 C 0.07182 0.32372 0.69016 0.0
C4522 C 0.68425 0.07344 0.69057 0.0
C4523 C 0.68485 0.07895 0.69797 0.0
C4524 C 0.69082 0.0734 0.68409 0.0
C4525 C 0.69825 0.07887 0.68475 0.0
H4526 H 0.67858 0.06923 0.68969 0.0
H4527 H 0.68998 0.06916 0.67843 0.0
S4528 S 0.70337 0.09391 0.70325 0.0
N4529 N 0.69375 0.08962 0.70587 0.0
N4530 N 0.70608 0.08954 0.69369 0.0
C4531 C 0.69902 0.08429 0.69221 0.0
C4532 C 0.69233 0.08433 0.69881 0.0
C4533 C 0.93347 0.69183 0.69805 0.0
C4534 C 0.92791 0.68445 0.69747 0.0
C4535 C 0.93345 0.69837 0.69153 0.0
C4536 C 0.92787 0.69777 0.68417 0.0
H4537 H 0.93783 0.69259 0.70363 0.0
H4538 H 0.9378 0.70395 0.69228 0.0
S4539 S 0.91258 0.67944 0.67918 0.0
N4540 N 0.91702 0.67673 0.6887 0.0
N4541 N 0.91698 0.68898 0.67647 0.0
C4542 C 0.92234 0.69039 0.68347 0.0
C4543 C 0.92236 0.68375 0.69011 0.0
C4544 C 0.31698 0.30985 0.08451 0.0
C4545 C 0.32356 0.30972 0.078 0.0
C4546 C 0.31045 0.31637 0.08457 0.0
C4547 C 0.31024 0.32302 0.07814 0.0
H4548 H 0.31685 0.30483 0.08955 0.0
H4549 H 0.30548 0.31617 0.08967 0.0
S4550 S 0.32637 0.32604 0.06009 0.0
N4551 N 0.32971 0.31709 0.06523 0.0
N4552 N 0.31746 0.32932 0.06535 0.0
C4553 C 0.31683 0.32301 0.07165 0.0
C4554 C 0.32347 0.31638 0.07158 0.0
C4555 C 0.32304 0.69058 0.93448 0.0
C4556 C 0.32237 0.69802 0.92903 0.0
C4557 C 0.31653 0.68404 0.93447 0.0
C4558 C 0.30909 0.68469 0.92901 0.0
H4559 H 0.32873 0.6897 0.93867 0.0
H4560 H 0.31742 0.67835 0.93865 0.0
S4561 S 0.30377 0.70328 0.91416 0.0
N4562 N 0.31337 0.70594 0.91847 0.0
N4563 N 0.30115 0.69365 0.91845 0.0
C4564 C 0.30824 0.69219 0.92368 0.0
C4565 C 0.31487 0.69885 0.92369 0.0
C4566 C 0.32157 0.31504 0.92134 0.0
C4567 C 0.32303 0.30955 0.92863 0.0
C4568 C 0.31506 0.32158 0.92147 0.0
C4569 C 0.30975 0.32291 0.92893 0.0
H4570 H 0.32551 0.31429 0.91543 0.0
H4571 H 0.31431 0.32572 0.91576 0.0
S4572 S 0.31075 0.31016 0.94971 0.0
N4573 N 0.31858 0.30588 0.94355 0.0
N4574 N 0.30617 0.31795 0.9437 0.0
C4575 C 0.31104 0.31737 0.93623 0.0
C4576 C 0.31769 0.31074 0.9361 0.0
C4577 C 0.6931 0.32087 0.93583 0.0
C4578 C 0.69764 0.32295 0.92804 0.0
C4579 C 0.68647 0.31447 0.93593 0.0
C4580 C 0.68411 0.30985 0.92827 0.0
H4581 H 0.69456 0.32434 0.94186 0.0
H4582 H 0.68313 0.31313 0.9421 0.0
S4583 S 0.69419 0.31261 0.90622 0.0
N4584 N 0.69955 0.31963 0.91253 0.0
N4585 N 0.68693 0.30778 0.91267 0.0
C4586 C 0.68869 0.31177 0.92046 0.0
C4587 C 0.69547 0.31829 0.92036 0.0
C4588 C 0.69811 0.69107 0.93331 0.0
C4589 C 0.69756 0.68373 0.9277 0.0
C4590 C 0.69162 0.69764 0.93324 0.0
C4591 C 0.68434 0.69713 0.92755 0.0
H4592 H 0.70362 0.69177 0.93776 0.0
H4593 H 0.69235 0.70319 0.93763 0.0
S4594 S 0.67947 0.67894 0.91205 0.0
N4595 N 0.68891 0.67614 0.91661 0.0
N4596 N 0.67676 0.68847 0.91648 0.0
C4597 C 0.68368 0.68979 0.92196 0.0
C4598 C 0.69028 0.68311 0.92203 0.0
C4599 C 0.68197 0.68818 0.07747 0.0
C4600 C 0.68413 0.69712 0.07845 0.0
C4601 C 0.68846 0.68164 0.07775 0.0
C4602 C 0.69738 0.6838 0.07889 0.0
H4603 H 0.67518 0.68622 0.07657 0.0
H4604 H 0.6865 0.67484 0.07697 0.0
S4605 S 0.70651 0.70624 0.08165 0.0
N4606 N 0.69582 0.7078 0.08055 0.0
N4607 N 0.70804 0.69551 0.08102 0.0
C4608 C 0.69964 0.69272 0.07982 0.0
C4609 C 0.69302 0.69937 0.07963 0.0
C4610 C 0.3092 0.69123 0.07425 0.0
C4611 C 0.30992 0.6837 0.07958 0.0
C4612 C 0.31576 0.69773 0.07424 0.0
C4613 C 0.32329 0.69696 0.07956 0.0
H4614 H 0.3035 0.69213 0.07009 0.0
H4615 H 0.3149 0.70344 0.07007 0.0
S4616 S 0.32866 0.67819 0.09419 0.0
N4617 N 0.31898 0.67565 0.08998 0.0
N4618 N 0.33128 0.68784 0.08997 0.0
C4619 C 0.32412 0.68942 0.08486 0.0
C4620 C 0.31745 0.68281 0.08487 0.0
C4621 C 0.69162 0.30967 0.07489 0.0
C4622 C 0.68397 0.31059 0.08001 0.0
C4623 C 0.69816 0.31619 0.07484 0.0
C4624 C 0.6973 0.32388 0.07991 0.0
H4625 H 0.69259 0.30383 0.07093 0.0
H4626 H 0.70396 0.31517 0.07085 0.0
S4627 S 0.67822 0.3298 0.09389 0.0
N4628 N 0.67572 0.32002 0.08992 0.0
N4629 N 0.68798 0.33224 0.08983 0.0
C4630 C 0.68965 0.32492 0.085 0.0
C4631 C 0.683 0.31829 0.08504 0.0
C4632 C 0.57338 0.82314 0.81656 0.0
C4633 C 0.57867 0.8224 0.80901 0.0
C4634 C 0.5734 0.81662 0.82308 0.0
C4635 C 0.57872 0.80909 0.82231 0.0
H4636 H 0.5693 0.82889 0.81752 0.0
H4637 H 0.56934 0.81756 0.82885 0.0
S4638 S 0.59314 0.80358 0.80344 0.0
N4639 N 0.58895 0.81326 0.80088 0.0
N4640 N 0.58899 0.801 0.81313 0.0
C4641 C 0.58391 0.80817 0.81471 0.0
C4642 C 0.58388 0.81482 0.80807 0.0
C4643 C 0.1832 0.58397 0.81755 0.0
C4644 C 0.18429 0.57931 0.80963 0.0
C4645 C 0.18977 0.584 0.82403 0.0
C4646 C 0.19769 0.57937 0.82285 0.0
H4647 H 0.17715 0.58749 0.81883 0.0
H4648 H 0.18856 0.58754 0.83008 0.0
S4649 S 0.20413 0.56681 0.80296 0.0
N4650 N 0.19413 0.5704 0.80075 0.0
N4651 N 0.20647 0.57045 0.81291 0.0
C4652 C 0.19894 0.57483 0.81489 0.0
C4653 C 0.19225 0.5748 0.80829 0.0
C4654 C 0.4341 0.18472 0.81644 0.0
C4655 C 0.42866 0.18541 0.80899 0.0
C4656 C 0.43412 0.19122 0.82297 0.0
C4657 C 0.4287 0.19869 0.82233 0.0
H4658 H 0.43827 0.17901 0.81731 0.0
H4659 H 0.4383 0.19032 0.82867 0.0
S4660 S 0.41386 0.20407 0.80374 0.0
N4661 N 0.41813 0.19444 0.80108 0.0
N4662 N 0.41816 0.20667 0.81336 0.0
C4663 C 0.42336 0.19956 0.81483 0.0
C4664 C 0.42334 0.19293 0.80817 0.0
C4665 C 0.81673 0.4343 0.82318 0.0
C4666 C 0.80936 0.42875 0.82255 0.0
C4667 C 0.82326 0.43433 0.81667 0.0
C4668 C 0.82268 0.42881 0.80927 0.0
H4669 H 0.81755 0.43854 0.82884 0.0
H4670 H 0.8289 0.4386 0.81752 0.0
S4671 S 0.80429 0.41367 0.80407 0.0
N4672 N 0.80158 0.41801 0.81364 0.0
N4673 N 0.81385 0.41807 0.80141 0.0
C4674 C 0.81526 0.42337 0.80846 0.0
C4675 C 0.8086 0.42333 0.81509 0.0
C4676 C 0.58411 0.19044 0.19752 0.0
C4677 C 0.57771 0.18376 0.19764 0.0
C4678 C 0.58411 0.19695 0.19097 0.0
C4679 C 0.57772 0.19702 0.18429 0.0
H4680 H 0.58913 0.19068 0.20257 0.0
H4681 H 0.58913 0.20199 0.19118 0.0
S4682 S 0.55994 0.18061 0.18124 0.0
N4683 N 0.56507 0.17738 0.19024 0.0
N4684 N 0.56508 0.18958 0.17796 0.0
C4685 C 0.57133 0.19034 0.18429 0.0
C4686 C 0.57132 0.18372 0.19096 0.0
C4687 C 0.8096 0.57391 0.19153 0.0
C4688 C 0.8101 0.57954 0.1842 0.0
C4689 C 0.81613 0.57395 0.19805 0.0
C4690 C 0.82342 0.57963 0.1975 0.0
H4691 H 0.80408 0.56947 0.19226 0.0
H4692 H 0.81544 0.56955 0.2036 0.0
S4693 S 0.82818 0.59516 0.1793 0.0
N4694 N 0.81871 0.59062 0.17657 0.0
N4695 N 0.83096 0.59071 0.1888 0.0
C4696 C 0.82403 0.58523 0.19017 0.0
C4697 C 0.81739 0.58519 0.18354 0.0
C4698 C 0.43206 0.81671 0.19775 0.0
C4699 C 0.42781 0.82482 0.19644 0.0
C4700 C 0.43201 0.81018 0.19122 0.0
C4701 C 0.42771 0.81151 0.18314 0.0
H4702 H 0.43538 0.81536 0.2039 0.0
H4703 H 0.43529 0.804 0.19255 0.0
S4704 S 0.41629 0.83189 0.17615 0.0
N4705 N 0.41963 0.83401 0.18625 0.0
N4706 N 0.41954 0.82176 0.17401 0.0
C4707 C 0.42354 0.81964 0.18171 0.0
C4708 C 0.42359 0.82628 0.18835 0.0
C4709 C 0.19001 0.42336 0.19748 0.0
C4710 C 0.18328 0.4297 0.1974 0.0
C4711 C 0.19659 0.42329 0.191 0.0
C4712 C 0.19669 0.42956 0.1842 0.0
H4713 H 0.19023 0.41844 0.20262 0.0
H4714 H 0.20168 0.41832 0.19137 0.0
S4715 S 0.18016 0.44713 0.18062 0.0
N4716 N 0.17688 0.44214 0.18968 0.0
N4717 N 0.18922 0.44201 0.17754 0.0
C4718 C 0.18995 0.43589 0.184 0.0
C4719 C 0.18326 0.43596 0.19059 0.0
C4720 C 0.81709 0.58452 0.81074 0.0
C4721 C 0.82369 0.57804 0.81057 0.0
C4722 C 0.81053 0.58449 0.81723 0.0
C4723 C 0.81031 0.57797 0.82381 0.0
H4724 H 0.81696 0.58962 0.80578 0.0
H4725 H 0.80555 0.58957 0.81707 0.0
S4726 S 0.82647 0.55994 0.82668 0.0
N4727 N 0.82984 0.56519 0.8178 0.0
N4728 N 0.81754 0.56513 0.82998 0.0
C4729 C 0.81692 0.5715 0.82375 0.0
C4730 C 0.82359 0.57153 0.81714 0.0
C4731 C 0.42374 0.82329 0.81731 0.0
C4732 C 0.42882 0.82238 0.80964 0.0
C4733 C 0.42371 0.81677 0.82384 0.0
C4734 C 0.42876 0.80907 0.82295 0.0
H4735 H 0.41988 0.82918 0.81838 0.0
H4736 H 0.41983 0.81786 0.82971 0.0
S4737 S 0.44257 0.80312 0.80375 0.0
N4738 N 0.43861 0.81292 0.80128 0.0
N4739 N 0.43856 0.80067 0.81354 0.0
C4740 C 0.43374 0.80799 0.81523 0.0
C4741 C 0.43377 0.81464 0.80858 0.0
C4742 C 0.19002 0.42389 0.82394 0.0
C4743 C 0.19799 0.42844 0.82276 0.0
C4744 C 0.18353 0.42383 0.8174 0.0
C4745 C 0.18473 0.42833 0.8094 0.0
H4746 H 0.18872 0.42048 0.83005 0.0
H4747 H 0.17743 0.42038 0.81869 0.0
S4748 S 0.20473 0.44056 0.8027 0.0
N4749 N 0.20694 0.4371 0.81274 0.0
N4750 N 0.19473 0.437 0.80045 0.0
C4751 C 0.19273 0.43276 0.80806 0.0
C4752 C 0.19936 0.43282 0.81472 0.0
C4753 C 0.5732 0.19146 0.82287 0.0
C4754 C 0.57872 0.19885 0.82222 0.0
C4755 C 0.57317 0.18493 0.81636 0.0
C4756 C 0.57866 0.18552 0.80894 0.0
H4757 H 0.56899 0.19062 0.82855 0.0
H4758 H 0.56894 0.17927 0.81725 0.0
S4759 S 0.5937 0.20397 0.80367 0.0
N4760 N 0.5894 0.20667 0.81327 0.0
N4761 N 0.58934 0.19439 0.80104 0.0
C4762 C 0.58407 0.19297 0.80811 0.0
C4763 C 0.5841 0.19963 0.81474 0.0
C4764 C 0.80971 0.43299 0.19129 0.0
C4765 C 0.81037 0.42754 0.18384 0.0
C4766 C 0.81622 0.43298 0.19783 0.0
C4767 C 0.82366 0.42751 0.19718 0.0
H4768 H 0.80407 0.43726 0.1921 0.0
H4769 H 0.8154 0.43724 0.20347 0.0
S4770 S 0.82888 0.41253 0.17865 0.0
N4771 N 0.8193 0.41686 0.17599 0.0
N4772 N 0.83152 0.41684 0.18825 0.0
C4773 C 0.82444 0.42209 0.18972 0.0
C4774 C 0.81782 0.4221 0.18307 0.0
C4775 C 0.58451 0.81042 0.19021 0.0
C4776 C 0.57804 0.81027 0.18359 0.0
C4777 C 0.5845 0.81691 0.19677 0.0
C4778 C 0.57802 0.82352 0.19697 0.0
H4779 H 0.58958 0.80542 0.19035 0.0
H4780 H 0.58957 0.81672 0.20177 0.0
S4781 S 0.56005 0.82649 0.18076 0.0
N4782 N 0.56525 0.81759 0.1774 0.0
N4783 N 0.56524 0.82976 0.18971 0.0
C4784 C 0.57157 0.8235 0.19035 0.0
C4785 C 0.57158 0.81689 0.18367 0.0
C4786 C 0.19715 0.58475 0.19011 0.0
C4787 C 0.19737 0.57817 0.1836 0.0
C4788 C 0.19064 0.58478 0.19666 0.0
C4789 C 0.18409 0.57825 0.19695 0.0
H4790 H 0.20209 0.58987 0.19019 0.0
H4791 H 0.19077 0.58993 0.20157 0.0
S4792 S 0.18133 0.55998 0.18102 0.0
N4793 N 0.1902 0.56522 0.17761 0.0
N4794 N 0.17799 0.56528 0.18988 0.0
C4795 C 0.18419 0.57169 0.19043 0.0
C4796 C 0.19081 0.57165 0.18377 0.0
C4797 C 0.4339 0.18386 0.19037 0.0
C4798 C 0.42824 0.1843 0.19768 0.0
C4799 C 0.43391 0.19045 0.18392 0.0
C4800 C 0.42825 0.19775 0.1845 0.0
H4801 H 0.43826 0.17829 0.18955 0.0
H4802 H 0.43826 0.18974 0.17833 0.0
S4803 S 0.41276 0.20245 0.20274 0.0
N4804 N 0.41722 0.19292 0.2054 0.0
N4805 N 0.41724 0.2053 0.19327 0.0
C4806 C 0.42268 0.19836 0.19186 0.0
C4807 C 0.42268 0.19165 0.19844 0.0
C4808 C 0.82186 0.81506 0.58585 0.0
C4809 C 0.82321 0.80982 0.57834 0.0
C4810 C 0.81542 0.82166 0.58598 0.0
C4811 C 0.81004 0.82329 0.57863 0.0
H4812 H 0.82593 0.81418 0.59161 0.0
H4813 H 0.81466 0.82554 0.59191 0.0
S4814 S 0.81072 0.81122 0.55743 0.0
N4815 N 0.81837 0.80647 0.56348 0.0
N4816 N 0.80648 0.81905 0.56363 0.0
C4817 C 0.81124 0.81801 0.57112 0.0
C4818 C 0.81778 0.81127 0.57099 0.0
C4819 C 0.82386 0.18987 0.42377 0.0
C4820 C 0.82277 0.19771 0.42857 0.0
C4821 C 0.81737 0.18332 0.42378 0.0
C4822 C 0.80952 0.18433 0.42857 0.0
H4823 H 0.82985 0.18871 0.42012 0.0
H4824 H 0.81858 0.17733 0.42013 0.0
S4825 S 0.80309 0.20396 0.44154 0.0
N4826 N 0.81299 0.20634 0.43779 0.0
N4827 N 0.8008 0.19403 0.4378 0.0
C4828 C 0.80827 0.19221 0.43325 0.0
C4829 C 0.81488 0.19889 0.43325 0.0
C4830 C 0.82132 0.81553 0.42143 0.0
C4831 C 0.82301 0.81015 0.42876 0.0
C4832 C 0.81472 0.82197 0.42162 0.0
C4833 C 0.80955 0.82333 0.42917 0.0
H4834 H 0.82515 0.81477 0.41545 0.0
H4835 H 0.8138 0.82604 0.41587 0.0
S4836 S 0.81114 0.81084 0.45008 0.0
N4837 N 0.81891 0.8066 0.4438 0.0
N4838 N 0.80634 0.8185 0.44407 0.0
C4839 C 0.81106 0.8179 0.43651 0.0
C4840 C 0.8178 0.81135 0.43632 0.0
C4841 C 0.19674 0.81675 0.42276 0.0
C4842 C 0.19691 0.82343 0.42916 0.0
C4843 C 0.19017 0.81025 0.42279 0.0
C4844 C 0.18353 0.81019 0.42923 0.0
H4845 H 0.20175 0.8165 0.41771 0.0
H4846 H 0.19034 0.80521 0.41777 0.0
S4847 S 0.18062 0.82661 0.44702 0.0
N4848 N 0.18959 0.82982 0.44184 0.0
N4849 N 0.17728 0.81764 0.4419 0.0
C4850 C 0.18358 0.81687 0.43562 0.0
C4851 C 0.19026 0.82348 0.43558 0.0
C4852 C 0.18643 0.19298 0.43589 0.0
C4853 C 0.1845 0.19762 0.42812 0.0
C4854 C 0.19281 0.18633 0.43603 0.0
C4855 C 0.19757 0.18406 0.42842 0.0
H4856 H 0.18285 0.19437 0.44187 0.0
H4857 H 0.19403 0.18291 0.44217 0.0
S4858 S 0.19525 0.19441 0.40645 0.0
N4859 N 0.18812 0.1997 0.41269 0.0
N4860 N 0.19994 0.18706 0.4129 0.0
C4861 C 0.19581 0.18873 0.42064 0.0
C4862 C 0.18931 0.19552 0.4205 0.0
C4863 C 0.19651 0.19062 0.58481 0.0
C4864 C 0.19687 0.18416 0.5782 0.0
C4865 C 0.19002 0.19718 0.58474 0.0
C4866 C 0.18362 0.19753 0.57806 0.0
H4867 H 0.20133 0.19065 0.59005 0.0
H4868 H 0.19003 0.20206 0.58993 0.0
S4869 S 0.18125 0.18174 0.55962 0.0
N4870 N 0.18999 0.17827 0.56504 0.0
N4871 N 0.1778 0.19056 0.56491 0.0
C4872 C 0.18386 0.19106 0.57146 0.0
C4873 C 0.19047 0.18439 0.57153 0.0
C4874 C 0.81032 0.19062 0.58439 0.0
C4875 C 0.81024 0.1839 0.57802 0.0
C4876 C 0.81687 0.19713 0.58439 0.0
C4877 C 0.82358 0.19719 0.57802 0.0
H4878 H 0.80525 0.19088 0.58937 0.0
H4879 H 0.81663 0.20221 0.58938 0.0
S4880 S 0.82674 0.18067 0.56035 0.0
N4881 N 0.81772 0.17746 0.56546 0.0
N4882 N 0.82999 0.18968 0.56546 0.0
C4883 C 0.82362 0.19046 0.57167 0.0
C4884 C 0.81696 0.18384 0.57167 0.0
C4885 C 0.19704 0.81704 0.58453 0.0
C4886 C 0.19727 0.82353 0.57794 0.0
C4887 C 0.19054 0.81048 0.58457 0.0
C4888 C 0.18402 0.81016 0.57801 0.0
H4889 H 0.20196 0.81699 0.58968 0.0
H4890 H 0.19065 0.80559 0.58974 0.0
S4891 S 0.1813 0.82601 0.55967 0.0
N4892 N 0.19014 0.82946 0.56493 0.0
N4893 N 0.17795 0.81717 0.565 0.0
C4894 C 0.18413 0.81665 0.57143 0.0
C4895 C 0.19075 0.82332 0.57139 0.0
C4896 C 0.99882 0.27092 0.36528 0.0
C4897 C 0.99405 0.27072 0.35735 0.0
C4898 C 0.00805 0.27094 0.3653 0.0
C4899 C 0.01287 0.27075 0.3574 0.0
H4900 H 0.99539 0.27121 0.37151 0.0
H4901 H 0.01145 0.27124 0.37155 0.0
S4902 S 1.00353 0.27051 0.33487 0.0
N4903 N 0.99486 0.27048 0.34139 0.0
N4904 N 0.01216 0.2705 0.34144 0.0
C4905 C 0.00818 0.27039 0.34944 0.0
C4906 C 0.99879 0.27038 0.34941 0.0
C4907 C 0.74271 0.99931 0.35484 0.0
C4908 C 0.73613 0.99452 0.35925 0.0
C4909 C 0.74271 0.00854 0.35481 0.0
C4910 C 0.73613 0.01335 0.35919 0.0
H4911 H 0.74778 0.99589 0.3512 0.0
H4912 H 0.74778 0.01194 0.35115 0.0
S4913 S 0.71739 0.00397 0.37167 0.0
N4914 N 0.72289 0.9953 0.36815 0.0
N4915 N 0.72289 0.01261 0.3681 0.0
C4916 C 0.72967 0.00864 0.36385 0.0
C4917 C 0.72967 0.99925 0.36388 0.0
C4918 C 0.00812 0.74375 0.35494 0.0
C4919 C 0.01289 0.73709 0.35923 0.0
C4920 C 0.99889 0.74374 0.35486 0.0
C4921 C 0.99407 0.73705 0.35907 0.0
H4922 H 0.01155 0.74891 0.35143 0.0
H4923 H 0.9955 0.74889 0.3513 0.0
S4924 S 1.00341 0.71804 0.37115 0.0
N4925 N 0.01208 0.72364 0.36781 0.0
N4926 N 0.99478 0.72361 0.36766 0.0
C4927 C 0.99876 0.7305 0.3636 0.0
C4928 C 0.00815 0.73051 0.36368 0.0
C4929 C 0.2723 0.00834 0.34943 0.0
C4930 C 0.27031 0.01315 0.35707 0.0
C4931 C 0.27237 0.99913 0.34945 0.0
C4932 C 0.27045 0.99433 0.35712 0.0
H4933 H 0.27411 0.01172 0.34343 0.0
H4934 H 0.27423 0.99575 0.34346 0.0
S4935 S 0.2639 0.00374 0.37864 0.0
N4936 N 0.26574 0.01241 0.37237 0.0
N4937 N 0.26586 0.99507 0.3724 0.0
C4938 C 0.26818 0.99904 0.36475 0.0
C4939 C 0.26811 0.00844 0.36473 0.0
C4940 C 0.99928 0.73571 0.65782 0.0
C4941 C 0.99452 0.73738 0.65007 0.0
C4942 C 0.00849 0.73568 0.65787 0.0
C4943 C 0.01334 0.73731 0.65016 0.0
H4944 H 0.99587 0.73413 0.66387 0.0
H4945 H 0.01183 0.73407 0.66394 0.0
S4946 S 0.00405 0.74296 0.62833 0.0
N4947 N 0.99535 0.74134 0.63461 0.0
N4948 N 0.01269 0.74128 0.6347 0.0
C4949 C 0.00868 0.73926 0.64241 0.0
C4950 C 0.99927 0.73929 0.64237 0.0
C4951 C 0.27656 0.00815 0.64483 0.0
C4952 C 0.26964 0.01293 0.6487 0.0
C4953 C 0.27656 0.99893 0.6448 0.0
C4954 C 0.26965 0.99412 0.64863 0.0
H4955 H 0.28221 0.01156 0.64216 0.0
H4956 H 0.28222 0.99556 0.64211 0.0
S4957 S 0.24939 1.00349 0.65845 0.0
N4958 N 0.25527 0.01217 0.65564 0.0
N4959 N 0.25528 0.99483 0.65557 0.0
C4960 C 0.26248 0.99882 0.65211 0.0
C4961 C 0.26248 0.00821 0.65214 0.0
C4962 C 0.99888 0.27701 0.6446 0.0
C4963 C 0.99407 0.27007 0.64837 0.0
C4964 C 0.0081 0.27698 0.64458 0.0
C4965 C 0.01288 0.26999 0.64832 0.0
H4966 H 0.99551 0.28272 0.642 0.0
H4967 H 0.01151 0.28265 0.64196 0.0
S4968 S 1.00341 0.24965 0.65787 0.0
N4969 N 0.99476 0.25561 0.65512 0.0
N4970 N 0.0121 0.25553 0.65507 0.0
C4971 C 0.00815 0.2628 0.6517 0.0
C4972 C 0.99876 0.26284 0.65173 0.0
C4973 C 0.7307 0.00842 0.64486 0.0
C4974 C 0.73766 0.0132 0.64864 0.0
C4975 C 0.73068 0.9992 0.64488 0.0
C4976 C 0.73761 0.99439 0.64868 0.0
H4977 H 0.72503 0.01182 0.64223 0.0
H4978 H 0.72499 0.99581 0.64226 0.0
S4979 S 0.75799 0.00377 0.65824 0.0
N4980 N 0.7521 0.01244 0.65544 0.0
N4981 N 0.75205 0.99511 0.65548 0.0
C4982 C 0.74483 0.99909 0.65206 0.0
C4983 C 0.74485 0.00848 0.65204 0.0
C4984 C 0.35383 0.99892 0.2641 0.0
C4985 C 0.35851 0.99417 0.27052 0.0
C4986 C 0.35376 0.00814 0.26408 0.0
C4987 C 0.35836 0.01299 0.27047 0.0
H4988 H 0.35002 0.99546 0.25918 0.0
H4989 H 0.34989 0.01151 0.25914 0.0
S4990 S 0.37158 0.00373 0.28875 0.0
N4991 N 0.3679 0.99504 0.28341 0.0
N4992 N 0.36777 0.01234 0.28337 0.0
C4993 C 0.36329 0.00833 0.27676 0.0
C4994 C 0.36336 0.99894 0.27679 0.0
C4995 C 0.999 0.35482 0.26425 0.0
C4996 C 0.99418 0.3591 0.27089 0.0
C4997 C 0.00822 0.35486 0.26426 0.0
C4998 C 0.013 0.35916 0.27092 0.0
H4999 H 0.9956 0.35125 0.25911 0.0
H5000 H 0.01165 0.3513 0.25913 0.0
S5001 S 1.00352 0.37126 0.28986 0.0
N5002 N 0.99489 0.36778 0.28429 0.0
N5003 N 0.01219 0.36784 0.28431 0.0
C5004 C 0.00826 0.36368 0.27745 0.0
C5005 C 0.99887 0.36365 0.27744 0.0
C5006 C 0.64202 0.99863 0.27174 0.0
C5007 C 0.64995 0.99387 0.27142 0.0
C5008 C 0.64198 0.00786 0.27177 0.0
C5009 C 0.64986 0.0127 0.27146 0.0
H5010 H 0.63581 0.99518 0.27212 0.0
H5011 H 0.63572 0.01124 0.27216 0.0
S5012 S 0.6724 1.0034 0.27087 0.0
N5013 N 0.6659 0.99472 0.27093 0.0
N5014 N 0.66581 0.01202 0.27098 0.0
C5015 C 0.65782 0.00802 0.27098 0.0
C5016 C 0.65787 0.99863 0.27096 0.0
C5017 C 0.99934 0.6532 0.26406 0.0
C5018 C 0.99455 0.64874 0.2706 0.0
C5019 C 0.00856 0.65325 0.26408 0.0
C5020 C 0.01337 0.64884 0.27064 0.0
H5021 H 0.99592 0.65685 0.25899 0.0
H5022 H 0.01197 0.65693 0.25903 0.0
S5023 S 0.00398 0.63627 0.28932 0.0
N5024 N 0.99532 0.63979 0.28382 0.0
N5025 N 0.01263 0.63988 0.28385 0.0
C5026 C 0.00866 0.64415 0.27708 0.0
C5027 C 0.99927 0.6441 0.27706 0.0
C5028 C 0.34954 0.99904 0.73518 0.0
C5029 C 0.35716 0.99423 0.73727 0.0
C5030 C 0.34953 0.00825 0.73526 0.0
C5031 C 0.35713 0.01305 0.73743 0.0
H5032 H 0.3436 0.99567 0.73317 0.0
H5033 H 0.34357 0.01164 0.73331 0.0
S5034 S 0.37853 1.00362 0.74432 0.0
N5035 N 0.37234 0.99495 0.7422 0.0
N5036 N 0.37231 0.01229 0.74235 0.0
C5037 C 0.36472 0.00833 0.7398 0.0
C5038 C 0.36474 0.99893 0.73972 0.0
C5039 C 0.00831 0.36545 0.73664 0.0
C5040 C 0.0131 0.35754 0.73687 0.0
C5041 C 0.99908 0.36545 0.73663 0.0
C5042 C 0.99428 0.35754 0.73685 0.0
H5043 H 0.01172 0.37169 0.73632 0.0
H5044 H 0.99566 0.37169 0.7363 0.0
S5045 S 0.00369 0.33504 0.7372 0.0
N5046 N 0.01234 0.34159 0.73719 0.0
N5047 N 0.99504 0.34158 0.73718 0.0
C5048 C 0.999 0.34959 0.73725 0.0
C5049 C 0.00839 0.3496 0.73726 0.0
C5050 C 0.6524 0.00869 0.74289 0.0
C5051 C 0.64812 0.01343 0.7362 0.0
C5052 C 0.65236 0.99946 0.74299 0.0
C5053 C 0.64803 0.99462 0.7364 0.0
H5054 H 0.65599 0.01214 0.74798 0.0
H5055 H 0.65592 0.99609 0.74815 0.0
S5056 S 0.63591 0.00388 0.71737 0.0
N5057 N 0.63941 0.01258 0.72283 0.0
N5058 N 0.63933 0.99527 0.72301 0.0
C5059 C 0.6435 0.99928 0.72982 0.0
C5060 C 0.64355 0.00867 0.72972 0.0
C5061 C 0.00849 0.65239 0.74315 0.0
C5062 C 0.01328 0.64823 0.73641 0.0
C5063 C 0.99927 0.65239 0.74317 0.0
C5064 C 0.99446 0.64824 0.73643 0.0
H5065 H 0.01191 0.65584 0.74836 0.0
H5066 H 0.99586 0.65584 0.74838 0.0
S5067 S 0.00385 0.63653 0.71721 0.0
N5068 N 0.01251 0.63985 0.72283 0.0
N5069 N 0.9952 0.63986 0.72285 0.0
C5070 C 0.99916 0.64385 0.72979 0.0
C5071 C 0.00856 0.64385 0.72978 0.0
C5072 C 0.27022 0.36544 0.99933 0.0
C5073 C 0.27033 0.35757 0.99446 0.0
C5074 C 0.27021 0.36536 0.00856 0.0
C5075 C 0.27031 0.35741 0.01329 0.0
H5076 H 0.27029 0.37172 0.99597 0.0
H5077 H 0.27028 0.37158 0.01203 0.0
S5078 S 0.27093 0.33499 1.00368 0.0
N5079 N 0.27068 0.34161 0.99509 0.0
N5080 N 0.27066 0.34146 0.01239 0.0
C5081 C 0.27026 0.34949 0.0085 0.0
C5082 C 0.27027 0.34957 0.99911 0.0
C5083 C 0.27688 0.64447 0.00829 0.0
C5084 C 0.26993 0.64824 0.01309 0.0
C5085 C 0.27685 0.64442 0.99907 0.0
C5086 C 0.26986 0.64814 0.99428 0.0
H5087 H 0.28259 0.64189 0.01168 0.0
H5088 H 0.28254 0.64182 0.99567 0.0
S5089 S 0.24949 0.65765 0.00371 0.0
N5090 N 0.25545 0.65494 0.01237 0.0
N5091 N 0.25538 0.65485 0.99504 0.0
C5092 C 0.26265 0.65151 0.999 0.0
C5093 C 0.26269 0.65156 0.00839 0.0
C5094 C 0.3543 0.26359 0.00797 0.0
C5095 C 0.35875 0.27016 0.01274 0.0
C5096 C 0.35431 0.26355 0.99875 0.0
C5097 C 0.35875 0.27008 0.99392 0.0
H5098 H 0.35062 0.25856 0.0114 0.0
H5099 H 0.35063 0.25849 0.99535 0.0
S5100 S 0.37131 0.28879 1.00326 0.0
N5101 N 0.36773 0.28334 0.01194 0.0
N5102 N 0.36773 0.28327 0.99463 0.0
C5103 C 0.36343 0.27653 0.99861 0.0
C5104 C 0.36343 0.27657 0.00801 0.0
C5105 C 0.73067 0.36247 0.00827 0.0
C5106 C 0.73748 0.35845 0.01308 0.0
C5107 C 0.73068 0.36245 0.99905 0.0
C5108 C 0.73749 0.35841 0.99427 0.0
H5109 H 0.72509 0.36531 0.01166 0.0
H5110 H 0.7251 0.36527 0.99565 0.0
S5111 S 0.75747 0.34812 0.00371 0.0
N5112 N 0.75166 0.35114 0.01236 0.0
N5113 N 0.75167 0.35109 0.99503 0.0
C5114 C 0.74456 0.35477 0.99899 0.0
C5115 C 0.74455 0.35479 0.00838 0.0
C5116 C 0.65781 0.73586 0.99879 0.0
C5117 C 0.65014 0.73755 0.99389 0.0
C5118 C 0.65771 0.7359 0.008 0.0
C5119 C 0.64994 0.73763 0.01271 0.0
H5120 H 0.66389 0.7342 0.99548 0.0
H5121 H 0.66371 0.73426 0.01145 0.0
S5122 S 0.62831 0.7434 1.00304 0.0
N5123 N 0.63472 0.74166 0.99445 0.0
N5124 N 0.63453 0.74173 0.01179 0.0
C5125 C 0.64229 0.73961 0.00791 0.0
C5126 C 0.64239 0.73958 0.99851 0.0
C5127 C 0.74295 0.65237 0.99942 0.0
C5128 C 0.73632 0.648 0.99467 0.0
C5129 C 0.74304 0.65235 0.00865 0.0
C5130 C 0.7365 0.64795 0.01349 0.0
H5131 H 0.748 0.65602 0.99597 0.0
H5132 H 0.74815 0.65598 0.01202 0.0
S5133 S 0.71764 0.63556 0.00422 0.0
N5134 N 0.72307 0.63911 0.99553 0.0
N5135 N 0.72323 0.63907 0.01284 0.0
C5136 C 0.72998 0.64333 0.00883 0.0
C5137 C 0.7299 0.64335 0.99943 0.0
C5138 C 0.36282 0.73024 0.99909 0.0
C5139 C 0.35917 0.73729 0.99434 0.0
C5140 C 0.3628 0.73018 0.00831 0.0
C5141 C 0.35912 0.73715 0.01315 0.0
H5142 H 0.36537 0.72454 0.99567 0.0
H5143 H 0.36533 0.72443 0.01167 0.0
S5144 S 0.3499 0.75772 0.00387 0.0
N5145 N 0.35261 0.75183 0.99517 0.0
N5146 N 0.35256 0.7517 0.0125 0.0
C5147 C 0.35586 0.74444 0.00849 0.0
C5148 C 0.35589 0.74451 0.99909 0.0
C5149 C 0.65259 0.26443 0.99957 0.0
C5150 C 0.64814 0.27097 0.99476 0.0
C5151 C 0.65268 0.26451 0.00879 0.0
C5152 C 0.64833 0.27113 0.01358 0.0
H5153 H 0.6562 0.25933 0.99616 0.0
H5154 H 0.65636 0.25946 0.01221 0.0
S5155 S 0.63581 0.28981 0.00414 0.0
N5156 N 0.63927 0.28423 0.9955 0.0
N5157 N 0.63944 0.28437 0.0128 0.0
C5158 C 0.64365 0.27755 0.00886 0.0
C5159 C 0.64355 0.27748 0.99947 0.0
C5160 C 0.50852 0.76424 0.85532 0.0
C5161 C 0.51335 0.77097 0.85943 0.0
C5162 C 0.4993 0.76424 0.85537 0.0
C5163 C 0.49453 0.77098 0.85955 0.0
H5164 H 0.51191 0.75903 0.85184 0.0
H5165 H 0.49586 0.75903 0.85194 0.0
S5166 S 0.50402 0.79018 0.87121 0.0
N5167 N 0.51265 0.78455 0.86783 0.0
N5168 N 0.49534 0.78455 0.86794 0.0
C5169 C 0.49927 0.77761 0.86392 0.0
C5170 C 0.50866 0.77761 0.86386 0.0
C5171 C 0.24324 0.50875 0.85372 0.0
C5172 C 0.23686 0.51356 0.8584 0.0
C5173 C 0.24322 0.49953 0.8537 0.0
C5174 C 0.23682 0.49474 0.85836 0.0
H5175 H 0.24816 0.51216 0.84986 0.0
H5176 H 0.24812 0.49611 0.84983 0.0
S5177 S 0.21865 0.50417 0.87163 0.0
N5178 N 0.22402 0.51282 0.86786 0.0
N5179 N 0.22398 0.49551 0.86783 0.0
C5180 C 0.23058 0.49946 0.86329 0.0
C5181 C 0.2306 0.50885 0.86331 0.0
C5182 C 0.49924 0.24353 0.85462 0.0
C5183 C 0.49446 0.23684 0.85885 0.0
C5184 C 0.50847 0.24356 0.85465 0.0
C5185 C 0.51327 0.23689 0.8589 0.0
H5186 H 0.49583 0.24868 0.85109 0.0
H5187 H 0.51187 0.24873 0.85114 0.0
S5188 S 0.50388 0.21782 0.87085 0.0
N5189 N 0.49522 0.22338 0.86743 0.0
N5190 N 0.51253 0.22343 0.86747 0.0
C5191 C 0.50857 0.2303 0.86337 0.0
C5192 C 0.49917 0.23028 0.86335 0.0
C5193 C 0.77136 0.50819 0.85011 0.0
C5194 C 0.7697 0.51297 0.85786 0.0
C5195 C 0.77137 0.49898 0.85008 0.0
C5196 C 0.76973 0.49415 0.8578 0.0
H5197 H 0.77296 0.51159 0.84407 0.0
H5198 H 0.77298 0.49563 0.84401 0.0
S5199 S 0.76409 0.50348 0.87961 0.0
N5200 N 0.76572 0.51217 0.87331 0.0
N5201 N 0.76575 0.49483 0.87326 0.0
C5202 C 0.76779 0.49883 0.86554 0.0
C5203 C 0.76777 0.50823 0.86557 0.0
C5204 C 0.49883 0.23545 0.15796 0.0
C5205 C 0.49403 0.23743 0.15031 0.0
C5206 C 0.50804 0.23544 0.15796 0.0
C5207 C 0.51285 0.2374 0.1503 0.0
H5208 H 0.49545 0.23362 0.16395 0.0
H5209 H 0.51142 0.23358 0.16395 0.0
S5210 S 0.50344 0.24392 0.12877 0.0
N5211 N 0.49477 0.24203 0.13503 0.0
N5212 N 0.51211 0.242 0.13502 0.0
C5213 C 0.50814 0.23965 0.14267 0.0
C5214 C 0.49873 0.23967 0.14267 0.0
C5215 C 0.7775 0.50808 0.14471 0.0
C5216 C 0.77047 0.51286 0.14836 0.0
C5217 C 0.7775 0.49886 0.14469 0.0
C5218 C 0.77048 0.49405 0.14832 0.0
H5219 H 0.78323 0.51148 0.1422 0.0
H5220 H 0.78324 0.49548 0.14217 0.0
S5221 S 0.74994 0.50342 0.15752 0.0
N5222 N 0.7559 0.5121 0.15487 0.0
N5223 N 0.75591 0.49476 0.15483 0.0
C5224 C 0.76322 0.49874 0.15158 0.0
C5225 C 0.76321 0.50814 0.1516 0.0
C5226 C 0.50811 0.77274 0.15794 0.0
C5227 C 0.51285 0.77036 0.15036 0.0
C5228 C 0.4989 0.77283 0.15799 0.0
C5229 C 0.49403 0.77055 0.15046 0.0
H5230 H 0.51153 0.77483 0.16382 0.0
H5231 H 0.49557 0.77499 0.1639 0.0
S5232 S 0.50326 0.76295 0.12921 0.0
N5233 N 0.51198 0.76506 0.13532 0.0
N5234 N 0.49464 0.76522 0.13541 0.0
C5235 C 0.49868 0.7679 0.14291 0.0
C5236 C 0.50808 0.76781 0.14286 0.0
C5237 C 0.23552 0.50812 0.15823 0.0
C5238 C 0.23787 0.51291 0.15067 0.0
C5239 C 0.23553 0.49891 0.15825 0.0
C5240 C 0.23787 0.49409 0.15071 0.0
H5241 H 0.2334 0.51151 0.16412 0.0
H5242 H 0.2334 0.49555 0.16416 0.0
S5243 S 0.24538 0.50345 0.12949 0.0
N5244 N 0.24319 0.51213 0.13563 0.0
N5245 N 0.24318 0.49479 0.13566 0.0
C5246 C 0.24047 0.49878 0.14318 0.0
C5247 C 0.24047 0.50818 0.14316 0.0
C5248 C 0.86281 0.50843 0.77714 0.0
C5249 C 0.85892 0.51329 0.7703 0.0
C5250 C 0.86277 0.49921 0.77707 0.0
C5251 C 0.85883 0.49449 0.77017 0.0
H5252 H 0.86556 0.51177 0.78279 0.0
H5253 H 0.86548 0.49577 0.78268 0.0
S5254 S 0.8489 0.50408 0.75007 0.0
N5255 N 0.85184 0.51269 0.75599 0.0
N5256 N 0.85176 0.49536 0.75587 0.0
C5257 C 0.85532 0.49926 0.76306 0.0
C5258 C 0.85537 0.50865 0.76313 0.0
C5259 C 0.49925 0.86273 0.77684 0.0
C5260 C 0.49445 0.85903 0.76985 0.0
C5261 C 0.50847 0.86276 0.77681 0.0
C5262 C 0.51325 0.8591 0.76978 0.0
H5263 H 0.49587 0.86526 0.78257 0.0
H5264 H 0.51187 0.86532 0.78252 0.0
S5265 S 0.50381 0.84978 0.74933 0.0
N5266 N 0.49515 0.85245 0.75531 0.0
N5267 N 0.51249 0.85252 0.75525 0.0
C5268 C 0.50853 0.85581 0.76255 0.0
C5269 C 0.49914 0.85577 0.76259 0.0
C5270 C 0.15294 0.49913 0.76464 0.0
C5271 C 0.14863 0.49429 0.77125 0.0
C5272 C 0.15292 0.50836 0.76468 0.0
C5273 C 0.14858 0.51311 0.77132 0.0
H5274 H 0.15653 0.49575 0.75951 0.0
H5275 H 0.15649 0.5118 0.75957 0.0
S5276 S 0.13641 0.5036 0.79019 0.0
N5277 N 0.1399 0.49497 0.78461 0.0
N5278 N 0.13985 0.51228 0.78468 0.0
C5279 C 0.14404 0.50836 0.77783 0.0
C5280 C 0.14406 0.49897 0.77779 0.0
C5281 C 0.49905 0.15205 0.76432 0.0
C5282 C 0.49426 0.14824 0.77127 0.0
C5283 C 0.50828 0.15204 0.76431 0.0
C5284 C 0.51308 0.14823 0.77124 0.0
H5285 H 0.49564 0.15524 0.75895 0.0
H5286 H 0.51169 0.15522 0.75893 0.0
S5287 S 0.50369 0.13753 0.79104 0.0
N5288 N 0.49503 0.14057 0.78526 0.0
N5289 N 0.51234 0.14056 0.78523 0.0
C5290 C 0.50837 0.14419 0.7781 0.0
C5291 C 0.49898 0.1442 0.77811 0.0
C5292 C 0.84938 0.49904 0.23525 0.0
C5293 C 0.85703 0.49422 0.23719 0.0
C5294 C 0.84939 0.50825 0.23528 0.0
C5295 C 0.85705 0.51304 0.23724 0.0
H5296 H 0.84338 0.49567 0.23342 0.0
H5297 H 0.8434 0.51164 0.23347 0.0
S5298 S 0.87859 0.50359 0.24365 0.0
N5299 N 0.87233 0.49493 0.24174 0.0
N5300 N 0.87235 0.51227 0.24178 0.0
C5301 C 0.86469 0.50832 0.23944 0.0
C5302 C 0.86468 0.49891 0.23942 0.0
C5303 C 0.50839 0.86262 0.23086 0.0
C5304 C 0.51312 0.85846 0.23763 0.0
C5305 C 0.49917 0.86268 0.23081 0.0
C5306 C 0.49431 0.85859 0.23753 0.0
H5307 H 0.51183 0.86551 0.22533 0.0
H5308 H 0.49583 0.86562 0.22525 0.0
S5309 S 0.50354 0.84793 0.25743 0.0
N5310 N 0.51225 0.85095 0.25171 0.0
N5311 N 0.49492 0.85107 0.25161 0.0
C5312 C 0.49896 0.85481 0.24458 0.0
C5313 C 0.50835 0.85475 0.24463 0.0
C5314 C 0.14434 0.50883 0.23047 0.0
C5315 C 0.14818 0.5136 0.23741 0.0
C5316 C 0.14424 0.49961 0.2305 0.0
C5317 C 0.14797 0.49479 0.23746 0.0
H5318 H 0.14175 0.51224 0.22479 0.0
H5319 H 0.14157 0.49624 0.22482 0.0
S5320 S 0.15766 0.50415 0.25779 0.0
N5321 N 0.15497 0.51283 0.25185 0.0
N5322 N 0.15477 0.49549 0.2519 0.0
C5323 C 0.15141 0.49948 0.24465 0.0
C5324 C 0.15152 0.50888 0.24462 0.0
C5325 C 0.49877 0.15762 0.2353 0.0
C5326 C 0.49392 0.15002 0.23735 0.0
C5327 C 0.50798 0.1576 0.23545 0.0
C5328 C 0.51273 0.14998 0.23765 0.0
H5329 H 0.49544 0.16358 0.23329 0.0
H5330 H 0.5114 0.16355 0.23354 0.0
S5331 S 0.50317 0.1286 0.24443 0.0
N5332 N 0.49455 0.13483 0.24227 0.0
N5333 N 0.51188 0.13479 0.24253 0.0
C5334 C 0.50797 0.1424 0.23997 0.0
C5335 C 0.49857 0.14242 0.23982 0.0
C5336 C 0.77665 0.86333 0.50858 0.0
C5337 C 0.76981 0.8594 0.51341 0.0
C5338 C 0.77657 0.8634 0.49937 0.0
C5339 C 0.76964 0.85954 0.49461 0.0
H5340 H 0.78232 0.86603 0.51194 0.0
H5341 H 0.78218 0.86614 0.49594 0.0
S5342 S 0.74954 0.84955 0.50413 0.0
N5343 N 0.75549 0.85237 0.51276 0.0
N5344 N 0.75532 0.8525 0.49543 0.0
C5345 C 0.76254 0.856 0.49936 0.0
C5346 C 0.76263 0.85593 0.50875 0.0
C5347 C 0.77674 0.14468 0.50839 0.0
C5348 C 0.76982 0.14855 0.51316 0.0
C5349 C 0.77677 0.14468 0.49917 0.0
C5350 C 0.76988 0.14855 0.49435 0.0
H5351 H 0.78237 0.14198 0.5118 0.0
H5352 H 0.78242 0.14198 0.4958 0.0
S5353 S 0.74963 0.1584 0.50369 0.0
N5354 N 0.75547 0.15553 0.51238 0.0
N5355 N 0.75553 0.15554 0.49504 0.0
C5356 C 0.76271 0.15203 0.49904 0.0
C5357 C 0.76268 0.15203 0.50843 0.0
C5358 C 0.85527 0.76469 0.4988 0.0
C5359 C 0.85954 0.77136 0.49402 0.0
C5360 C 0.85534 0.76463 0.50803 0.0
C5361 C 0.85968 0.77124 0.51284 0.0
H5362 H 0.85167 0.75959 0.49538 0.0
H5363 H 0.85179 0.75948 0.51143 0.0
S5364 S 0.87177 0.79023 0.50347 0.0
N5365 N 0.86825 0.78473 0.4948 0.0
N5366 N 0.86837 0.78462 0.51211 0.0
C5367 C 0.86419 0.7778 0.50814 0.0
C5368 C 0.86412 0.77786 0.49874 0.0
C5369 C 0.23554 0.84966 0.50799 0.0
C5370 C 0.23756 0.85732 0.51278 0.0
C5371 C 0.23556 0.84964 0.49878 0.0
C5372 C 0.23759 0.85727 0.49396 0.0
H5373 H 0.23365 0.8437 0.51138 0.0
H5374 H 0.23367 0.84365 0.49542 0.0
S5375 S 0.24424 0.87878 0.50333 0.0
N5376 N 0.24228 0.87256 0.51201 0.0
N5377 N 0.2423 0.87252 0.49467 0.0
C5378 C 0.23989 0.8649 0.49865 0.0
C5379 C 0.23987 0.86492 0.50806 0.0
C5380 C 0.14486 0.23083 0.50806 0.0
C5381 C 0.14871 0.23775 0.51285 0.0
C5382 C 0.14491 0.2308 0.49884 0.0
C5383 C 0.14881 0.23768 0.49404 0.0
H5384 H 0.14214 0.2252 0.51146 0.0
H5385 H 0.14222 0.22514 0.49545 0.0
S5386 S 0.15862 0.25794 0.50343 0.0
N5387 N 0.15571 0.25209 0.5121 0.0
N5388 N 0.1558 0.25203 0.49477 0.0
C5389 C 0.15227 0.24485 0.49874 0.0
C5390 C 0.15222 0.24489 0.50814 0.0
C5391 C 0.23036 0.14436 0.50887 0.0
C5392 C 0.23724 0.14823 0.51369 0.0
C5393 C 0.23043 0.14429 0.49965 0.0
C5394 C 0.23739 0.1481 0.49489 0.0
H5395 H 0.22467 0.14171 0.51223 0.0
H5396 H 0.2248 0.1416 0.49623 0.0
S5397 S 0.25759 0.15791 0.50439 0.0
N5398 N 0.25162 0.15514 0.51303 0.0
N5399 N 0.25177 0.15501 0.49569 0.0
C5400 C 0.24453 0.15157 0.49963 0.0
C5401 C 0.24445 0.15164 0.50902 0.0
C5402 C 0.86245 0.2306 0.4991 0.0
C5403 C 0.85857 0.23749 0.4943 0.0
C5404 C 0.86248 0.23062 0.50832 0.0
C5405 C 0.85863 0.23753 0.51311 0.0
H5406 H 0.86514 0.22494 0.49571 0.0
H5407 H 0.86519 0.22498 0.51172 0.0
S5408 S 0.84875 0.25773 0.50369 0.0
N5409 N 0.85159 0.25184 0.49503 0.0
N5410 N 0.85164 0.25188 0.51236 0.0
C5411 C 0.85513 0.24468 0.5084 0.0
C5412 C 0.8551 0.24465 0.499 0.0
C5413 C 0.15237 0.76439 0.49913 0.0
C5414 C 0.14801 0.77102 0.49439 0.0
C5415 C 0.15242 0.76435 0.50836 0.0
C5416 C 0.14812 0.77095 0.51321 0.0
H5417 H 0.15595 0.75929 0.49568 0.0
H5418 H 0.15604 0.75923 0.51173 0.0
S5419 S 0.13582 0.78986 0.50394 0.0
N5420 N 0.13925 0.78436 0.49524 0.0
N5421 N 0.13935 0.78429 0.51255 0.0
C5422 C 0.14351 0.77748 0.50854 0.0
C5423 C 0.14346 0.77751 0.49915 0.0
loop_
_geom_bond_atom_site_label_1
_geom_bond_atom_site_label_2
_geom_bond_distance
_geom_bond_site_symmetry_2
_ccdc_geom_bond_type
C0 C1 1.264 . S
C0 C5 1.479 . S
C0 C10 1.465 . S
C1 C0 1.264 . S
C1 C3 1.339 . S
C1 H28 0.931 . S
C2 C3 1.395 . S
C2 C4 1.320 . S
C3 C1 1.339 . S
C3 C2 1.395 . S
C3 H29 0.929 . S
C4 C2 1.320 . S
C4 C5 1.405 . S
C4 H30 0.930 . S
C5 C0 1.479 . S
C5 C4 1.405 . S
C5 H31 0.931 . S
U6 O7 2.454 . S
U6 O8 2.458 . S
U6 C9 2.984 . S
U6 C10 2.847 . S
U6 C23 2.882 . S
U6 O24 2.441 . S
U6 O25 2.420 . S
U6 O26 2.455 . S
U6 O27 2.449 . S
O7 U6 2.454 . S
O7 C9 1.353 . S
O8 U6 2.458 . S
O8 C9 1.286 . S
C9 U6 2.984 . S
C9 O7 1.353 . S
C9 O8 1.286 . S
C9 C11 1.363 . S
C10 C0 1.465 . S
C10 U6 2.847 . S
C10 O24 1.249 . S
C10 O25 1.202 . S
C11 C9 1.363 . S
C11 C13 1.408 . S
C11 C16 1.342 . S
C12 C13 1.310 . S
C12 C15 1.461 . S
C12 H32 0.932 . S
C13 C11 1.408 . S
C13 C12 1.310 . S
C13 H33 0.930 . S
C14 C15 1.474 . S
C14 C16 1.285 . S
C14 H34 0.929 . S
C15 C12 1.461 . S
C15 C14 1.474 . S
C16 C11 1.342 . S
C16 C14 1.285 . S
C16 H35 0.930 . S
C17 C20 1.424 . S
C17 C22 1.245 . S
C17 C23 1.428 . S
C18 C21 1.260 . S
C18 C22 1.477 . S
C18 H36 0.932 . S
C19 C20 1.384 . S
C19 C21 1.479 . S
C19 H37 0.929 . S
C20 C17 1.424 . S
C20 C19 1.384 . S
C20 H38 0.928 . S
C21 C18 1.260 . S
C21 C19 1.479 . S
C22 C17 1.245 . S
C22 C18 1.477 . S
C22 H39 0.932 . S
C23 U6 2.882 . S
C23 C17 1.428 . S
C23 O26 1.301 . S
C23 O27 1.282 . S
O24 U6 2.441 . S
O24 C10 1.249 . S
O25 U6 2.420 . S
O25 C10 1.202 . S
O26 U6 2.455 . S
O26 C23 1.301 . S
O27 U6 2.449 . S
O27 C23 1.282 . S
H28 C1 0.931 . S
H29 C3 0.929 . S
H30 C4 0.930 . S
H31 C5 0.931 . S
H32 C12 0.932 . S
H33 C13 0.930 . S
H34 C14 0.929 . S
H35 C16 0.930 . S
H36 C18 0.932 . S
H37 C19 0.929 . S
H38 C20 0.928 . S
H39 C22 0.932 . S
C40 C41 1.264 . S
C40 C45 1.479 . S
C40 C50 1.465 . S
C41 C40 1.264 . S
C41 C43 1.339 . S
C41 H68 0.931 . S
C42 C43 1.395 . S
C42 C44 1.320 . S
C43 C41 1.339 . S
C43 C42 1.395 . S
C43 H69 0.929 . S
C44 C42 1.320 . S
C44 C45 1.405 . S
C44 H70 0.930 . S
C45 C40 1.479 . S
C45 C44 1.405 . S
C45 H71 0.931 . S
U46 O47 2.454 . S
U46 O48 2.458 . S
U46 C49 2.984 . S
U46 C50 2.847 . S
U46 C63 2.882 . S
U46 O64 2.441 . S
U46 O65 2.420 . S
U46 O66 2.455 . S
U46 O67 2.449 . S
O47 U46 2.454 . S
O47 C49 1.353 . S
O48 U46 2.458 . S
O48 C49 1.286 . S
C49 U46 2.984 . S
C49 O47 1.353 . S
C49 O48 1.286 . S
C49 C51 1.363 . S
C50 C40 1.465 . S
C50 U46 2.847 . S
C50 O64 1.249 . S
C50 O65 1.202 . S
C51 C49 1.363 . S
C51 C53 1.408 . S
C51 C56 1.342 . S
C52 C53 1.310 . S
C52 C55 1.461 . S
C52 H72 0.932 . S
C53 C51 1.408 . S
C53 C52 1.310 . S
C53 H73 0.930 . S
C54 C55 1.474 . S
C54 C56 1.285 . S
C54 H74 0.929 . S
C55 C52 1.461 . S
C55 C54 1.474 . S
C56 C51 1.342 . S
C56 C54 1.285 . S
C56 H75 0.930 . S
C57 C60 1.424 . S
C57 C62 1.245 . S
C57 C63 1.428 . S
C58 C61 1.260 . S
C58 C62 1.477 . S
C58 H76 0.932 . S
C59 C60 1.384 . S
C59 C61 1.479 . S
C59 H77 0.929 . S
C60 C57 1.424 . S
C60 C59 1.384 . S
C60 H78 0.928 . S
C61 C58 1.260 . S
C61 C59 1.479 . S
C62 C57 1.245 . S
C62 C58 1.477 . S
C62 H79 0.932 . S
C63 U46 2.882 . S
C63 C57 1.428 . S
C63 O66 1.301 . S
C63 O67 1.282 . S
O64 U46 2.441 . S
O64 C50 1.249 . S
O65 U46 2.420 . S
O65 C50 1.202 . S
O66 U46 2.455 . S
O66 C63 1.301 . S
O67 U46 2.449 . S
O67 C63 1.282 . S
H68 C41 0.931 . S
H69 C43 0.929 . S
H70 C44 0.930 . S
H71 C45 0.931 . S
H72 C52 0.932 . S
H73 C53 0.930 . S
H74 C54 0.929 . S
H75 C56 0.930 . S
H76 C58 0.932 . S
H77 C59 0.929 . S
H78 C60 0.928 . S
H79 C62 0.932 . S
C80 C81 1.264 . S
C80 C85 1.479 . S
C80 C90 1.465 . S
C81 C80 1.264 . S
C81 C83 1.339 . S
C81 H108 0.931 . S
C82 C83 1.395 . S
C82 C84 1.320 . S
C83 C81 1.339 . S
C83 C82 1.395 . S
C83 H109 0.929 . S
C84 C82 1.320 . S
C84 C85 1.405 . S
C84 H110 0.930 . S
C85 C80 1.479 . S
C85 C84 1.405 . S
C85 H111 0.931 . S
U86 O87 2.454 . S
U86 O88 2.458 . S
U86 C89 2.984 . S
U86 C90 2.847 . S
U86 C103 2.882 . S
U86 O104 2.441 . S
U86 O105 2.420 . S
U86 O106 2.455 . S
U86 O107 2.449 . S
O87 U86 2.454 . S
O87 C89 1.353 . S
O88 U86 2.458 . S
O88 C89 1.286 . S
C89 U86 2.984 . S
C89 O87 1.353 . S
C89 O88 1.286 . S
C89 C91 1.363 . S
C90 C80 1.465 . S
C90 U86 2.847 . S
C90 O104 1.249 . S
C90 O105 1.202 . S
C91 C89 1.363 . S
C91 C93 1.408 . S
C91 C96 1.342 . S
C92 C93 1.310 . S
C92 C95 1.461 . S
C92 H112 0.932 . S
C93 C91 1.408 . S
C93 C92 1.310 . S
C93 H113 0.930 . S
C94 C95 1.474 . S
C94 C96 1.285 . S
C94 H114 0.929 . S
C95 C92 1.461 . S
C95 C94 1.474 . S
C96 C91 1.342 . S
C96 C94 1.285 . S
C96 H115 0.930 . S
C97 C100 1.424 . S
C97 C102 1.245 . S
C97 C103 1.428 . S
C98 C101 1.260 . S
C98 C102 1.477 . S
C98 H116 0.932 . S
C99 C100 1.384 . S
C99 C101 1.479 . S
C99 H117 0.929 . S
C100 C97 1.424 . S
C100 C99 1.384 . S
C100 H118 0.928 . S
C101 C98 1.260 . S
C101 C99 1.479 . S
C102 C97 1.245 . S
C102 C98 1.477 . S
C102 H119 0.932 . S
C103 U86 2.882 . S
C103 C97 1.428 . S
C103 O106 1.301 . S
C103 O107 1.282 . S
O104 U86 2.441 . S
O104 C90 1.249 . S
O105 U86 2.420 . S
O105 C90 1.202 . S
O106 U86 2.455 . S
O106 C103 1.301 . S
O107 U86 2.449 . S
O107 C103 1.282 . S
H108 C81 0.931 . S
H109 C83 0.929 . S
H110 C84 0.930 . S
H111 C85 0.931 . S
H112 C92 0.932 . S
H113 C93 0.930 . S
H114 C94 0.929 . S
H115 C96 0.930 . S
H116 C98 0.932 . S
H117 C99 0.929 . S
H118 C100 0.928 . S
H119 C102 0.932 . S
C120 C121 1.264 . S
C120 C125 1.479 . S
C120 C130 1.465 . S
C121 C120 1.264 . S
C121 C123 1.339 . S
C121 H148 0.931 . S
C122 C123 1.395 . S
C122 C124 1.320 . S
C123 C121 1.339 . S
C123 C122 1.395 . S
C123 H149 0.929 . S
C124 C122 1.320 . S
C124 C125 1.405 . S
C124 H150 0.930 . S
C125 C120 1.479 . S
C125 C124 1.405 . S
C125 H151 0.931 . S
U126 O127 2.454 . S
U126 O128 2.458 . S
U126 C129 2.984 . S
U126 C130 2.847 . S
U126 C143 2.882 . S
U126 O144 2.441 . S
U126 O145 2.420 . S
U126 O146 2.455 . S
U126 O147 2.449 . S
O127 U126 2.454 . S
O127 C129 1.353 . S
O128 U126 2.458 . S
O128 C129 1.286 . S
C129 U126 2.984 . S
C129 O127 1.353 . S
C129 O128 1.286 . S
C129 C131 1.363 . S
C130 C120 1.465 . S
C130 U126 2.847 . S
C130 O144 1.249 . S
C130 O145 1.202 . S
C131 C129 1.363 . S
C131 C133 1.408 . S
C131 C136 1.342 . S
C132 C133 1.310 . S
C132 C135 1.461 . S
C132 H152 0.932 . S
C133 C131 1.408 . S
C133 C132 1.310 . S
C133 H153 0.930 . S
C134 C135 1.474 . S
C134 C136 1.285 . S
C134 H154 0.929 . S
C135 C132 1.461 . S
C135 C134 1.474 . S
C136 C131 1.342 . S
C136 C134 1.285 . S
C136 H155 0.930 . S
C137 C140 1.424 . S
C137 C142 1.245 . S
C137 C143 1.428 . S
C138 C141 1.260 . S
C138 C142 1.477 . S
C138 H156 0.932 . S
C139 C140 1.384 . S
C139 C141 1.479 . S
C139 H157 0.929 . S
C140 C137 1.424 . S
C140 C139 1.384 . S
C140 H158 0.928 . S
C141 C138 1.260 . S
C141 C139 1.479 . S
C142 C137 1.245 . S
C142 C138 1.477 . S
C142 H159 0.932 . S
C143 U126 2.882 . S
C143 C137 1.428 . S
C143 O146 1.301 . S
C143 O147 1.282 . S
O144 U126 2.441 . S
O144 C130 1.249 . S
O145 U126 2.420 . S
O145 C130 1.202 . S
O146 U126 2.455 . S
O146 C143 1.301 . S
O147 U126 2.449 . S
O147 C143 1.282 . S
H148 C121 0.931 . S
H149 C123 0.929 . S
H150 C124 0.930 . S
H151 C125 0.931 . S
H152 C132 0.932 . S
H153 C133 0.930 . S
H154 C134 0.929 . S
H155 C136 0.930 . S
H156 C138 0.932 . S
H157 C139 0.929 . S
H158 C140 0.928 . S
H159 C142 0.932 . S
C160 C161 1.264 . S
C160 C165 1.479 . S
C160 C170 1.465 . S
C161 C160 1.264 . S
C161 C163 1.339 . S
C161 H188 0.931 . S
C162 C163 1.395 . S
C162 C164 1.320 . S
C163 C161 1.339 . S
C163 C162 1.395 . S
C163 H189 0.929 . S
C164 C162 1.320 . S
C164 C165 1.405 . S
C164 H190 0.930 . S
C165 C160 1.479 . S
C165 C164 1.405 . S
C165 H191 0.931 . S
U166 O167 2.454 . S
U166 O168 2.458 . S
U166 C169 2.984 . S
U166 C170 2.847 . S
U166 C183 2.882 . S
U166 O184 2.441 . S
U166 O185 2.420 . S
U166 O186 2.455 . S
U166 O187 2.449 . S
O167 U166 2.454 . S
O167 C169 1.353 . S
O168 U166 2.458 . S
O168 C169 1.286 . S
C169 U166 2.984 . S
C169 O167 1.353 . S
C169 O168 1.286 . S
C169 C171 1.363 . S
C170 C160 1.465 . S
C170 U166 2.847 . S
C170 O184 1.249 . S
C170 O185 1.202 . S
C171 C169 1.363 . S
C171 C173 1.408 . S
C171 C176 1.342 . S
C172 C173 1.310 . S
C172 C175 1.461 . S
C172 H192 0.932 . S
C173 C171 1.408 . S
C173 C172 1.310 . S
C173 H193 0.930 . S
C174 C175 1.474 . S
C174 C176 1.285 . S
C174 H194 0.929 . S
C175 C172 1.461 . S
C175 C174 1.474 . S
C176 C171 1.342 . S
C176 C174 1.285 . S
C176 H195 0.930 . S
C177 C180 1.424 . S
C177 C182 1.245 . S
C177 C183 1.428 . S
C178 C181 1.260 . S
C178 C182 1.477 . S
C178 H196 0.932 . S
C179 C180 1.384 . S
C179 C181 1.479 . S
C179 H197 0.929 . S
C180 C177 1.424 . S
C180 C179 1.384 . S
C180 H198 0.928 . S
C181 C178 1.260 . S
C181 C179 1.479 . S
C182 C177 1.245 . S
C182 C178 1.477 . S
C182 H199 0.932 . S
C183 U166 2.882 . S
C183 C177 1.428 . S
C183 O186 1.301 . S
C183 O187 1.282 . S
O184 U166 2.441 . S
O184 C170 1.249 . S
O185 U166 2.420 . S
O185 C170 1.202 . S
O186 U166 2.455 . S
O186 C183 1.301 . S
O187 U166 2.449 . S
O187 C183 1.282 . S
H188 C161 0.931 . S
H189 C163 0.929 . S
H190 C164 0.930 . S
H191 C165 0.931 . S
H192 C172 0.932 . S
H193 C173 0.930 . S
H194 C174 0.929 . S
H195 C176 0.930 . S
H196 C178 0.932 . S
H197 C179 0.929 . S
H198 C180 0.928 . S
H199 C182 0.932 . S
C200 C201 1.264 . S
C200 C205 1.479 . S
C200 C210 1.465 . S
C201 C200 1.264 . S
C201 C203 1.339 . S
C201 H228 0.931 . S
C202 C203 1.395 . S
C202 C204 1.320 . S
C203 C201 1.339 . S
C203 C202 1.395 . S
C203 H229 0.929 . S
C204 C202 1.320 . S
C204 C205 1.405 . S
C204 H230 0.930 . S
C205 C200 1.479 . S
C205 C204 1.405 . S
C205 H231 0.931 . S
U206 O207 2.454 . S
U206 O208 2.458 . S
U206 C209 2.984 . S
U206 C210 2.847 . S
U206 C223 2.882 . S
U206 O224 2.441 . S
U206 O225 2.420 . S
U206 O226 2.455 . S
U206 O227 2.449 . S
O207 U206 2.454 . S
O207 C209 1.353 . S
O208 U206 2.458 . S
O208 C209 1.286 . S
C209 U206 2.984 . S
C209 O207 1.353 . S
C209 O208 1.286 . S
C209 C211 1.363 . S
C210 C200 1.465 . S
C210 U206 2.847 . S
C210 O224 1.249 . S
C210 O225 1.202 . S
C211 C209 1.363 . S
C211 C213 1.408 . S
C211 C216 1.342 . S
C212 C213 1.310 . S
C212 C215 1.461 . S
C212 H232 0.932 . S
C213 C211 1.408 . S
C213 C212 1.310 . S
C213 H233 0.930 . S
C214 C215 1.474 . S
C214 C216 1.285 . S
C214 H234 0.929 . S
C215 C212 1.461 . S
C215 C214 1.474 . S
C216 C211 1.342 . S
C216 C214 1.285 . S
C216 H235 0.930 . S
C217 C220 1.424 . S
C217 C222 1.245 . S
C217 C223 1.428 . S
C218 C221 1.260 . S
C218 C222 1.477 . S
C218 H236 0.932 . S
C219 C220 1.384 . S
C219 C221 1.479 . S
C219 H237 0.929 . S
C220 C217 1.424 . S
C220 C219 1.384 . S
C220 H238 0.928 . S
C221 C218 1.260 . S
C221 C219 1.479 . S
C222 C217 1.245 . S
C222 C218 1.477 . S
C222 H239 0.932 . S
C223 U206 2.882 . S
C223 C217 1.428 . S
C223 O226 1.301 . S
C223 O227 1.282 . S
O224 U206 2.441 . S
O224 C210 1.249 . S
O225 U206 2.420 . S
O225 C210 1.202 . S
O226 U206 2.455 . S
O226 C223 1.301 . S
O227 U206 2.449 . S
O227 C223 1.282 . S
H228 C201 0.931 . S
H229 C203 0.929 . S
H230 C204 0.930 . S
H231 C205 0.931 . S
H232 C212 0.932 . S
H233 C213 0.930 . S
H234 C214 0.929 . S
H235 C216 0.930 . S
H236 C218 0.932 . S
H237 C219 0.929 . S
H238 C220 0.928 . S
H239 C222 0.932 . S
C240 C241 1.264 . S
C240 C245 1.479 . S
C240 C250 1.465 . S
C241 C240 1.264 . S
C241 C243 1.339 . S
C241 H268 0.931 . S
C242 C243 1.395 . S
C242 C244 1.320 . S
C243 C241 1.339 . S
C243 C242 1.395 . S
C243 H269 0.929 . S
C244 C242 1.320 . S
C244 C245 1.405 . S
C244 H270 0.930 . S
C245 C240 1.479 . S
C245 C244 1.405 . S
C245 H271 0.931 . S
U246 O247 2.454 . S
U246 O248 2.458 . S
U246 C249 2.984 . S
U246 C250 2.847 . S
U246 C263 2.882 . S
U246 O264 2.441 . S
U246 O265 2.420 . S
U246 O266 2.455 . S
U246 O267 2.449 . S
O247 U246 2.454 . S
O247 C249 1.353 . S
O248 U246 2.458 . S
O248 C249 1.286 . S
C249 U246 2.984 . S
C249 O247 1.353 . S
C249 O248 1.286 . S
C249 C251 1.363 . S
C250 C240 1.465 . S
C250 U246 2.847 . S
C250 O264 1.249 . S
C250 O265 1.202 . S
C251 C249 1.363 . S
C251 C253 1.408 . S
C251 C256 1.342 . S
C252 C253 1.310 . S
C252 C255 1.461 . S
C252 H272 0.932 . S
C253 C251 1.408 . S
C253 C252 1.310 . S
C253 H273 0.930 . S
C254 C255 1.474 . S
C254 C256 1.285 . S
C254 H274 0.929 . S
C255 C252 1.461 . S
C255 C254 1.474 . S
C256 C251 1.342 . S
C256 C254 1.285 . S
C256 H275 0.930 . S
C257 C260 1.424 . S
C257 C262 1.245 . S
C257 C263 1.428 . S
C258 C261 1.260 . S
C258 C262 1.477 . S
C258 H276 0.932 . S
C259 C260 1.384 . S
C259 C261 1.479 . S
C259 H277 0.929 . S
C260 C257 1.424 . S
C260 C259 1.384 . S
C260 H278 0.928 . S
C261 C258 1.260 . S
C261 C259 1.479 . S
C262 C257 1.245 . S
C262 C258 1.477 . S
C262 H279 0.932 . S
C263 U246 2.882 . S
C263 C257 1.428 . S
C263 O266 1.301 . S
C263 O267 1.282 . S
O264 U246 2.441 . S
O264 C250 1.249 . S
O265 U246 2.420 . S
O265 C250 1.202 . S
O266 U246 2.455 . S
O266 C263 1.301 . S
O267 U246 2.449 . S
O267 C263 1.282 . S
H268 C241 0.931 . S
H269 C243 0.929 . S
H270 C244 0.930 . S
H271 C245 0.931 . S
H272 C252 0.932 . S
H273 C253 0.930 . S
H274 C254 0.929 . S
H275 C256 0.930 . S
H276 C258 0.932 . S
H277 C259 0.929 . S
H278 C260 0.928 . S
H279 C262 0.932 . S
C280 C281 1.264 . S
C280 C285 1.479 . S
C280 C290 1.465 . S
C281 C280 1.264 . S
C281 C283 1.339 . S
C281 H308 0.931 . S
C282 C283 1.395 . S
C282 C284 1.320 . S
C283 C281 1.339 . S
C283 C282 1.395 . S
C283 H309 0.929 . S
C284 C282 1.320 . S
C284 C285 1.405 . S
C284 H310 0.930 . S
C285 C280 1.479 . S
C285 C284 1.405 . S
C285 H311 0.931 . S
U286 O287 2.454 . S
U286 O288 2.458 . S
U286 C289 2.984 . S
U286 C290 2.847 . S
U286 C303 2.882 . S
U286 O304 2.441 . S
U286 O305 2.420 . S
U286 O306 2.455 . S
U286 O307 2.449 . S
O287 U286 2.454 . S
O287 C289 1.353 . S
O288 U286 2.458 . S
O288 C289 1.286 . S
C289 U286 2.984 . S
C289 O287 1.353 . S
C289 O288 1.286 . S
C289 C291 1.363 . S
C290 C280 1.465 . S
C290 U286 2.847 . S
C290 O304 1.249 . S
C290 O305 1.202 . S
C291 C289 1.363 . S
C291 C293 1.408 . S
C291 C296 1.342 . S
C292 C293 1.310 . S
C292 C295 1.461 . S
C292 H312 0.932 . S
C293 C291 1.408 . S
C293 C292 1.310 . S
C293 H313 0.930 . S
C294 C295 1.474 . S
C294 C296 1.285 . S
C294 H314 0.929 . S
C295 C292 1.461 . S
C295 C294 1.474 . S
C296 C291 1.342 . S
C296 C294 1.285 . S
C296 H315 0.930 . S
C297 C300 1.424 . S
C297 C302 1.245 . S
C297 C303 1.428 . S
C298 C301 1.260 . S
C298 C302 1.477 . S
C298 H316 0.932 . S
C299 C300 1.384 . S
C299 C301 1.479 . S
C299 H317 0.929 . S
C300 C297 1.424 . S
C300 C299 1.384 . S
C300 H318 0.928 . S
C301 C298 1.260 . S
C301 C299 1.479 . S
C302 C297 1.245 . S
C302 C298 1.477 . S
C302 H319 0.932 . S
C303 U286 2.882 . S
C303 C297 1.428 . S
C303 O306 1.301 . S
C303 O307 1.282 . S
O304 U286 2.441 . S
O304 C290 1.249 . S
O305 U286 2.420 . S
O305 C290 1.202 . S
O306 U286 2.455 . S
O306 C303 1.301 . S
O307 U286 2.449 . S
O307 C303 1.282 . S
H308 C281 0.931 . S
H309 C283 0.929 . S
H310 C284 0.930 . S
H311 C285 0.931 . S
H312 C292 0.932 . S
H313 C293 0.930 . S
H314 C294 0.929 . S
H315 C296 0.930 . S
H316 C298 0.932 . S
H317 C299 0.929 . S
H318 C300 0.928 . S
H319 C302 0.932 . S
C320 C321 1.264 . S
C320 C325 1.479 . S
C320 C330 1.465 . S
C321 C320 1.264 . S
C321 C323 1.339 . S
C321 H348 0.931 . S
C322 C323 1.395 . S
C322 C324 1.320 . S
C323 C321 1.339 . S
C323 C322 1.395 . S
C323 H349 0.929 . S
C324 C322 1.320 . S
C324 C325 1.405 . S
C324 H350 0.930 . S
C325 C320 1.479 . S
C325 C324 1.405 . S
C325 H351 0.931 . S
U326 O327 2.454 . S
U326 O328 2.458 . S
U326 C329 2.984 . S
U326 C330 2.847 . S
U326 C343 2.882 . S
U326 O344 2.441 . S
U326 O345 2.420 . S
U326 O346 2.455 . S
U326 O347 2.449 . S
O327 U326 2.454 . S
O327 C329 1.353 . S
O328 U326 2.458 . S
O328 C329 1.286 . S
C329 U326 2.984 . S
C329 O327 1.353 . S
C329 O328 1.286 . S
C329 C331 1.363 . S
C330 C320 1.465 . S
C330 U326 2.847 . S
C330 O344 1.249 . S
C330 O345 1.202 . S
C331 C329 1.363 . S
C331 C333 1.408 . S
C331 C336 1.342 . S
C332 C333 1.310 . S
C332 C335 1.461 . S
C332 H352 0.932 . S
C333 C331 1.408 . S
C333 C332 1.310 . S
C333 H353 0.930 . S
C334 C335 1.474 . S
C334 C336 1.285 . S
C334 H354 0.929 . S
C335 C332 1.461 . S
C335 C334 1.474 . S
C336 C331 1.342 . S
C336 C334 1.285 . S
C336 H355 0.930 . S
C337 C340 1.424 . S
C337 C342 1.245 . S
C337 C343 1.428 . S
C338 C341 1.260 . S
C338 C342 1.477 . S
C338 H356 0.932 . S
C339 C340 1.384 . S
C339 C341 1.479 . S
C339 H357 0.929 . S
C340 C337 1.424 . S
C340 C339 1.384 . S
C340 H358 0.928 . S
C341 C338 1.260 . S
C341 C339 1.479 . S
C342 C337 1.245 . S
C342 C338 1.477 . S
C342 H359 0.932 . S
C343 U326 2.882 . S
C343 C337 1.428 . S
C343 O346 1.301 . S
C343 O347 1.282 . S
O344 U326 2.441 . S
O344 C330 1.249 . S
O345 U326 2.420 . S
O345 C330 1.202 . S
O346 U326 2.455 . S
O346 C343 1.301 . S
O347 U326 2.449 . S
O347 C343 1.282 . S
H348 C321 0.931 . S
H349 C323 0.929 . S
H350 C324 0.930 . S
H351 C325 0.931 . S
H352 C332 0.932 . S
H353 C333 0.930 . S
H354 C334 0.929 . S
H355 C336 0.930 . S
H356 C338 0.932 . S
H357 C339 0.929 . S
H358 C340 0.928 . S
H359 C342 0.932 . S
C360 C361 1.264 . S
C360 C365 1.479 . S
C360 C370 1.465 . S
C361 C360 1.264 . S
C361 C363 1.339 . S
C361 H388 0.931 . S
C362 C363 1.395 . S
C362 C364 1.320 . S
C363 C361 1.339 . S
C363 C362 1.395 . S
C363 H389 0.929 . S
C364 C362 1.320 . S
C364 C365 1.405 . S
C364 H390 0.930 . S
C365 C360 1.479 . S
C365 C364 1.405 . S
C365 H391 0.931 . S
U366 O367 2.454 . S
U366 O368 2.458 . S
U366 C369 2.984 . S
U366 C370 2.847 . S
U366 C383 2.882 . S
U366 O384 2.441 . S
U366 O385 2.420 . S
U366 O386 2.455 . S
U366 O387 2.449 . S
O367 U366 2.454 . S
O367 C369 1.353 . S
O368 U366 2.458 . S
O368 C369 1.286 . S
C369 U366 2.984 . S
C369 O367 1.353 . S
C369 O368 1.286 . S
C369 C371 1.363 . S
C370 C360 1.465 . S
C370 U366 2.847 . S
C370 O384 1.249 . S
C370 O385 1.202 . S
C371 C369 1.363 . S
C371 C373 1.408 . S
C371 C376 1.342 . S
C372 C373 1.310 . S
C372 C375 1.461 . S
C372 H392 0.932 . S
C373 C371 1.408 . S
C373 C372 1.310 . S
C373 H393 0.930 . S
C374 C375 1.474 . S
C374 C376 1.285 . S
C374 H394 0.929 . S
C375 C372 1.461 . S
C375 C374 1.474 . S
C376 C371 1.342 . S
C376 C374 1.285 . S
C376 H395 0.930 . S
C377 C380 1.424 . S
C377 C382 1.245 . S
C377 C383 1.428 . S
C378 C381 1.260 . S
C378 C382 1.477 . S
C378 H396 0.932 . S
C379 C380 1.384 . S
C379 C381 1.479 . S
C379 H397 0.929 . S
C380 C377 1.424 . S
C380 C379 1.384 . S
C380 H398 0.928 . S
C381 C378 1.260 . S
C381 C379 1.479 . S
C382 C377 1.245 . S
C382 C378 1.477 . S
C382 H399 0.932 . S
C383 U366 2.882 . S
C383 C377 1.428 . S
C383 O386 1.301 . S
C383 O387 1.282 . S
O384 U366 2.441 . S
O384 C370 1.249 . S
O385 U366 2.420 . S
O385 C370 1.202 . S
O386 U366 2.455 . S
O386 C383 1.301 . S
O387 U366 2.449 . S
O387 C383 1.282 . S
H388 C361 0.931 . S
H389 C363 0.929 . S
H390 C364 0.930 . S
H391 C365 0.931 . S
H392 C372 0.932 . S
H393 C373 0.930 . S
H394 C374 0.929 . S
H395 C376 0.930 . S
H396 C378 0.932 . S
H397 C379 0.929 . S
H398 C380 0.928 . S
H399 C382 0.932 . S
C400 C401 1.264 . S
C400 C405 1.479 . S
C400 C410 1.465 . S
C401 C400 1.264 . S
C401 C403 1.339 . S
C401 H428 0.931 . S
C402 C403 1.395 . S
C402 C404 1.320 . S
C403 C401 1.339 . S
C403 C402 1.395 . S
C403 H429 0.929 . S
C404 C402 1.320 . S
C404 C405 1.405 . S
C404 H430 0.930 . S
C405 C400 1.479 . S
C405 C404 1.405 . S
C405 H431 0.931 . S
U406 O407 2.454 . S
U406 O408 2.458 . S
U406 C409 2.984 . S
U406 C410 2.847 . S
U406 C423 2.882 . S
U406 O424 2.441 . S
U406 O425 2.420 . S
U406 O426 2.455 . S
U406 O427 2.449 . S
O407 U406 2.454 . S
O407 C409 1.353 . S
O408 U406 2.458 . S
O408 C409 1.286 . S
C409 U406 2.984 . S
C409 O407 1.353 . S
C409 O408 1.286 . S
C409 C411 1.363 . S
C410 C400 1.465 . S
C410 U406 2.847 . S
C410 O424 1.249 . S
C410 O425 1.202 . S
C411 C409 1.363 . S
C411 C413 1.408 . S
C411 C416 1.342 . S
C412 C413 1.310 . S
C412 C415 1.461 . S
C412 H432 0.932 . S
C413 C411 1.408 . S
C413 C412 1.310 . S
C413 H433 0.930 . S
C414 C415 1.474 . S
C414 C416 1.285 . S
C414 H434 0.929 . S
C415 C412 1.461 . S
C415 C414 1.474 . S
C416 C411 1.342 . S
C416 C414 1.285 . S
C416 H435 0.930 . S
C417 C420 1.424 . S
C417 C422 1.245 . S
C417 C423 1.428 . S
C418 C421 1.260 . S
C418 C422 1.477 . S
C418 H436 0.932 . S
C419 C420 1.384 . S
C419 C421 1.479 . S
C419 H437 0.929 . S
C420 C417 1.424 . S
C420 C419 1.384 . S
C420 H438 0.928 . S
C421 C418 1.260 . S
C421 C419 1.479 . S
C422 C417 1.245 . S
C422 C418 1.477 . S
C422 H439 0.932 . S
C423 U406 2.882 . S
C423 C417 1.428 . S
C423 O426 1.301 . S
C423 O427 1.282 . S
O424 U406 2.441 . S
O424 C410 1.249 . S
O425 U406 2.420 . S
O425 C410 1.202 . S
O426 U406 2.455 . S
O426 C423 1.301 . S
O427 U406 2.449 . S
O427 C423 1.282 . S
H428 C401 0.931 . S
H429 C403 0.929 . S
H430 C404 0.930 . S
H431 C405 0.931 . S
H432 C412 0.932 . S
H433 C413 0.930 . S
H434 C414 0.929 . S
H435 C416 0.930 . S
H436 C418 0.932 . S
H437 C419 0.929 . S
H438 C420 0.928 . S
H439 C422 0.932 . S
C440 C441 1.264 . S
C440 C445 1.479 . S
C440 C450 1.465 . S
C441 C440 1.264 . S
C441 C443 1.339 . S
C441 H468 0.931 . S
C442 C443 1.395 . S
C442 C444 1.320 . S
C443 C441 1.339 . S
C443 C442 1.395 . S
C443 H469 0.929 . S
C444 C442 1.320 . S
C444 C445 1.405 . S
C444 H470 0.930 . S
C445 C440 1.479 . S
C445 C444 1.405 . S
C445 H471 0.931 . S
U446 O447 2.454 . S
U446 O448 2.458 . S
U446 C449 2.984 . S
U446 C450 2.847 . S
U446 C463 2.882 . S
U446 O464 2.441 . S
U446 O465 2.420 . S
U446 O466 2.455 . S
U446 O467 2.449 . S
O447 U446 2.454 . S
O447 C449 1.353 . S
O448 U446 2.458 . S
O448 C449 1.286 . S
C449 U446 2.984 . S
C449 O447 1.353 . S
C449 O448 1.286 . S
C449 C451 1.363 . S
C450 C440 1.465 . S
C450 U446 2.847 . S
C450 O464 1.249 . S
C450 O465 1.202 . S
C451 C449 1.363 . S
C451 C453 1.408 . S
C451 C456 1.342 . S
C452 C453 1.310 . S
C452 C455 1.461 . S
C452 H472 0.932 . S
C453 C451 1.408 . S
C453 C452 1.310 . S
C453 H473 0.930 . S
C454 C455 1.474 . S
C454 C456 1.285 . S
C454 H474 0.929 . S
C455 C452 1.461 . S
C455 C454 1.474 . S
C456 C451 1.342 . S
C456 C454 1.285 . S
C456 H475 0.930 . S
C457 C460 1.424 . S
C457 C462 1.245 . S
C457 C463 1.428 . S
C458 C461 1.260 . S
C458 C462 1.477 . S
C458 H476 0.932 . S
C459 C460 1.384 . S
C459 C461 1.479 . S
C459 H477 0.929 . S
C460 C457 1.424 . S
C460 C459 1.384 . S
C460 H478 0.928 . S
C461 C458 1.260 . S
C461 C459 1.479 . S
C462 C457 1.245 . S
C462 C458 1.477 . S
C462 H479 0.932 . S
C463 U446 2.882 . S
C463 C457 1.428 . S
C463 O466 1.301 . S
C463 O467 1.282 . S
O464 U446 2.441 . S
O464 C450 1.249 . S
O465 U446 2.420 . S
O465 C450 1.202 . S
O466 U446 2.455 . S
O466 C463 1.301 . S
O467 U446 2.449 . S
O467 C463 1.282 . S
H468 C441 0.931 . S
H469 C443 0.929 . S
H470 C444 0.930 . S
H471 C445 0.931 . S
H472 C452 0.932 . S
H473 C453 0.930 . S
H474 C454 0.929 . S
H475 C456 0.930 . S
H476 C458 0.932 . S
H477 C459 0.929 . S
H478 C460 0.928 . S
H479 C462 0.932 . S
C480 C481 1.264 . S
C480 C485 1.479 . S
C480 C490 1.465 . S
C481 C480 1.264 . S
C481 C483 1.339 . S
C481 H508 0.931 . S
C482 C483 1.395 . S
C482 C484 1.320 . S
C483 C481 1.339 . S
C483 C482 1.395 . S
C483 H509 0.929 . S
C484 C482 1.320 . S
C484 C485 1.405 . S
C484 H510 0.930 . S
C485 C480 1.479 . S
C485 C484 1.405 . S
C485 H511 0.931 . S
U486 O487 2.454 . S
U486 O488 2.458 . S
U486 C489 2.984 . S
U486 C490 2.847 . S
U486 C503 2.882 . S
U486 O504 2.441 . S
U486 O505 2.420 . S
U486 O506 2.455 . S
U486 O507 2.449 . S
O487 U486 2.454 . S
O487 C489 1.353 . S
O488 U486 2.458 . S
O488 C489 1.286 . S
C489 U486 2.984 . S
C489 O487 1.353 . S
C489 O488 1.286 . S
C489 C491 1.363 . S
C490 C480 1.465 . S
C490 U486 2.847 . S
C490 O504 1.249 . S
C490 O505 1.202 . S
C491 C489 1.363 . S
C491 C493 1.408 . S
C491 C496 1.342 . S
C492 C493 1.310 . S
C492 C495 1.461 . S
C492 H512 0.932 . S
C493 C491 1.408 . S
C493 C492 1.310 . S
C493 H513 0.930 . S
C494 C495 1.474 . S
C494 C496 1.285 . S
C494 H514 0.929 . S
C495 C492 1.461 . S
C495 C494 1.474 . S
C496 C491 1.342 . S
C496 C494 1.285 . S
C496 H515 0.930 . S
C497 C500 1.424 . S
C497 C502 1.245 . S
C497 C503 1.428 . S
C498 C501 1.260 . S
C498 C502 1.477 . S
C498 H516 0.932 . S
C499 C500 1.384 . S
C499 C501 1.479 . S
C499 H517 0.929 . S
C500 C497 1.424 . S
C500 C499 1.384 . S
C500 H518 0.928 . S
C501 C498 1.260 . S
C501 C499 1.479 . S
C502 C497 1.245 . S
C502 C498 1.477 . S
C502 H519 0.932 . S
C503 U486 2.882 . S
C503 C497 1.428 . S
C503 O506 1.301 . S
C503 O507 1.282 . S
O504 U486 2.441 . S
O504 C490 1.249 . S
O505 U486 2.420 . S
O505 C490 1.202 . S
O506 U486 2.455 . S
O506 C503 1.301 . S
O507 U486 2.449 . S
O507 C503 1.282 . S
H508 C481 0.931 . S
H509 C483 0.929 . S
H510 C484 0.930 . S
H511 C485 0.931 . S
H512 C492 0.932 . S
H513 C493 0.930 . S
H514 C494 0.929 . S
H515 C496 0.930 . S
H516 C498 0.932 . S
H517 C499 0.929 . S
H518 C500 0.928 . S
H519 C502 0.932 . S
C520 C521 1.264 . S
C520 C525 1.479 . S
C520 C530 1.465 . S
C521 C520 1.264 . S
C521 C523 1.339 . S
C521 H548 0.931 . S
C522 C523 1.395 . S
C522 C524 1.320 . S
C523 C521 1.339 . S
C523 C522 1.395 . S
C523 H549 0.929 . S
C524 C522 1.320 . S
C524 C525 1.405 . S
C524 H550 0.930 . S
C525 C520 1.479 . S
C525 C524 1.405 . S
C525 H551 0.931 . S
U526 O527 2.454 . S
U526 O528 2.458 . S
U526 C529 2.984 . S
U526 C530 2.847 . S
U526 C543 2.882 . S
U526 O544 2.441 . S
U526 O545 2.420 . S
U526 O546 2.455 . S
U526 O547 2.449 . S
O527 U526 2.454 . S
O527 C529 1.353 . S
O528 U526 2.458 . S
O528 C529 1.286 . S
C529 U526 2.984 . S
C529 O527 1.353 . S
C529 O528 1.286 . S
C529 C531 1.363 . S
C530 C520 1.465 . S
C530 U526 2.847 . S
C530 O544 1.249 . S
C530 O545 1.202 . S
C531 C529 1.363 . S
C531 C533 1.408 . S
C531 C536 1.342 . S
C532 C533 1.310 . S
C532 C535 1.461 . S
C532 H552 0.932 . S
C533 C531 1.408 . S
C533 C532 1.310 . S
C533 H553 0.930 . S
C534 C535 1.474 . S
C534 C536 1.285 . S
C534 H554 0.929 . S
C535 C532 1.461 . S
C535 C534 1.474 . S
C536 C531 1.342 . S
C536 C534 1.285 . S
C536 H555 0.930 . S
C537 C540 1.424 . S
C537 C542 1.245 . S
C537 C543 1.428 . S
C538 C541 1.260 . S
C538 C542 1.477 . S
C538 H556 0.932 . S
C539 C540 1.384 . S
C539 C541 1.479 . S
C539 H557 0.929 . S
C540 C537 1.424 . S
C540 C539 1.384 . S
C540 H558 0.928 . S
C541 C538 1.260 . S
C541 C539 1.479 . S
C542 C537 1.245 . S
C542 C538 1.477 . S
C542 H559 0.932 . S
C543 U526 2.882 . S
C543 C537 1.428 . S
C543 O546 1.301 . S
C543 O547 1.282 . S
O544 U526 2.441 . S
O544 C530 1.249 . S
O545 U526 2.420 . S
O545 C530 1.202 . S
O546 U526 2.455 . S
O546 C543 1.301 . S
O547 U526 2.449 . S
O547 C543 1.282 . S
H548 C521 0.931 . S
H549 C523 0.929 . S
H550 C524 0.930 . S
H551 C525 0.931 . S
H552 C532 0.932 . S
H553 C533 0.930 . S
H554 C534 0.929 . S
H555 C536 0.930 . S
H556 C538 0.932 . S
H557 C539 0.929 . S
H558 C540 0.928 . S
H559 C542 0.932 . S
C560 C561 1.264 . S
C560 C565 1.479 . S
C560 C570 1.465 . S
C561 C560 1.264 . S
C561 C563 1.339 . S
C561 H588 0.931 . S
C562 C563 1.395 . S
C562 C564 1.320 . S
C563 C561 1.339 . S
C563 C562 1.395 . S
C563 H589 0.929 . S
C564 C562 1.320 . S
C564 C565 1.405 . S
C564 H590 0.930 . S
C565 C560 1.479 . S
C565 C564 1.405 . S
C565 H591 0.931 . S
U566 O567 2.454 . S
U566 O568 2.458 . S
U566 C569 2.984 . S
U566 C570 2.847 . S
U566 C583 2.882 . S
U566 O584 2.441 . S
U566 O585 2.420 . S
U566 O586 2.455 . S
U566 O587 2.449 . S
O567 U566 2.454 . S
O567 C569 1.353 . S
O568 U566 2.458 . S
O568 C569 1.286 . S
C569 U566 2.984 . S
C569 O567 1.353 . S
C569 O568 1.286 . S
C569 C571 1.363 . S
C570 C560 1.465 . S
C570 U566 2.847 . S
C570 O584 1.249 . S
C570 O585 1.202 . S
C571 C569 1.363 . S
C571 C573 1.408 . S
C571 C576 1.342 . S
C572 C573 1.310 . S
C572 C575 1.461 . S
C572 H592 0.932 . S
C573 C571 1.408 . S
C573 C572 1.310 . S
C573 H593 0.930 . S
C574 C575 1.474 . S
C574 C576 1.285 . S
C574 H594 0.929 . S
C575 C572 1.461 . S
C575 C574 1.474 . S
C576 C571 1.342 . S
C576 C574 1.285 . S
C576 H595 0.930 . S
C577 C580 1.424 . S
C577 C582 1.245 . S
C577 C583 1.428 . S
C578 C581 1.260 . S
C578 C582 1.477 . S
C578 H596 0.932 . S
C579 C580 1.384 . S
C579 C581 1.479 . S
C579 H597 0.929 . S
C580 C577 1.424 . S
C580 C579 1.384 . S
C580 H598 0.928 . S
C581 C578 1.260 . S
C581 C579 1.479 . S
C582 C577 1.245 . S
C582 C578 1.477 . S
C582 H599 0.932 . S
C583 U566 2.882 . S
C583 C577 1.428 . S
C583 O586 1.301 . S
C583 O587 1.282 . S
O584 U566 2.441 . S
O584 C570 1.249 . S
O585 U566 2.420 . S
O585 C570 1.202 . S
O586 U566 2.455 . S
O586 C583 1.301 . S
O587 U566 2.449 . S
O587 C583 1.282 . S
H588 C561 0.931 . S
H589 C563 0.929 . S
H590 C564 0.930 . S
H591 C565 0.931 . S
H592 C572 0.932 . S
H593 C573 0.930 . S
H594 C574 0.929 . S
H595 C576 0.930 . S
H596 C578 0.932 . S
H597 C579 0.929 . S
H598 C580 0.928 . S
H599 C582 0.932 . S
C600 C601 1.264 . S
C600 C605 1.479 . S
C600 C610 1.465 . S
C601 C600 1.264 . S
C601 C603 1.339 . S
C601 H628 0.931 . S
C602 C603 1.395 . S
C602 C604 1.320 . S
C603 C601 1.339 . S
C603 C602 1.395 . S
C603 H629 0.929 . S
C604 C602 1.320 . S
C604 C605 1.405 . S
C604 H630 0.930 . S
C605 C600 1.479 . S
C605 C604 1.405 . S
C605 H631 0.931 . S
U606 O607 2.454 . S
U606 O608 2.458 . S
U606 C609 2.984 . S
U606 C610 2.847 . S
U606 C623 2.882 . S
U606 O624 2.441 . S
U606 O625 2.420 . S
U606 O626 2.455 . S
U606 O627 2.449 . S
O607 U606 2.454 . S
O607 C609 1.353 . S
O608 U606 2.458 . S
O608 C609 1.286 . S
C609 U606 2.984 . S
C609 O607 1.353 . S
C609 O608 1.286 . S
C609 C611 1.363 . S
C610 C600 1.465 . S
C610 U606 2.847 . S
C610 O624 1.249 . S
C610 O625 1.202 . S
C611 C609 1.363 . S
C611 C613 1.408 . S
C611 C616 1.342 . S
C612 C613 1.310 . S
C612 C615 1.461 . S
C612 H632 0.932 . S
C613 C611 1.408 . S
C613 C612 1.310 . S
C613 H633 0.930 . S
C614 C615 1.474 . S
C614 C616 1.285 . S
C614 H634 0.929 . S
C615 C612 1.461 . S
C615 C614 1.474 . S
C616 C611 1.342 . S
C616 C614 1.285 . S
C616 H635 0.930 . S
C617 C620 1.424 . S
C617 C622 1.245 . S
C617 C623 1.428 . S
C618 C621 1.260 . S
C618 C622 1.477 . S
C618 H636 0.932 . S
C619 C620 1.384 . S
C619 C621 1.479 . S
C619 H637 0.929 . S
C620 C617 1.424 . S
C620 C619 1.384 . S
C620 H638 0.928 . S
C621 C618 1.260 . S
C621 C619 1.479 . S
C622 C617 1.245 . S
C622 C618 1.477 . S
C622 H639 0.932 . S
C623 U606 2.882 . S
C623 C617 1.428 . S
C623 O626 1.301 . S
C623 O627 1.282 . S
O624 U606 2.441 . S
O624 C610 1.249 . S
O625 U606 2.420 . S
O625 C610 1.202 . S
O626 U606 2.455 . S
O626 C623 1.301 . S
O627 U606 2.449 . S
O627 C623 1.282 . S
H628 C601 0.931 . S
H629 C603 0.929 . S
H630 C604 0.930 . S
H631 C605 0.931 . S
H632 C612 0.932 . S
H633 C613 0.930 . S
H634 C614 0.929 . S
H635 C616 0.930 . S
H636 C618 0.932 . S
H637 C619 0.929 . S
H638 C620 0.928 . S
H639 C622 0.932 . S
C640 C641 1.264 . S
C640 C645 1.479 . S
C640 C650 1.465 . S
C641 C640 1.264 . S
C641 C643 1.339 . S
C641 H668 0.931 . S
C642 C643 1.395 . S
C642 C644 1.320 . S
C643 C641 1.339 . S
C643 C642 1.395 . S
C643 H669 0.929 . S
C644 C642 1.320 . S
C644 C645 1.405 . S
C644 H670 0.930 . S
C645 C640 1.479 . S
C645 C644 1.405 . S
C645 H671 0.931 . S
U646 O647 2.454 . S
U646 O648 2.458 . S
U646 C649 2.984 . S
U646 C650 2.847 . S
U646 C663 2.882 . S
U646 O664 2.441 . S
U646 O665 2.420 . S
U646 O666 2.455 . S
U646 O667 2.449 . S
O647 U646 2.454 . S
O647 C649 1.353 . S
O648 U646 2.458 . S
O648 C649 1.286 . S
C649 U646 2.984 . S
C649 O647 1.353 . S
C649 O648 1.286 . S
C649 C651 1.363 . S
C650 C640 1.465 . S
C650 U646 2.847 . S
C650 O664 1.249 . S
C650 O665 1.202 . S
C651 C649 1.363 . S
C651 C653 1.408 . S
C651 C656 1.342 . S
C652 C653 1.310 . S
C652 C655 1.461 . S
C652 H672 0.932 . S
C653 C651 1.408 . S
C653 C652 1.310 . S
C653 H673 0.930 . S
C654 C655 1.474 . S
C654 C656 1.285 . S
C654 H674 0.929 . S
C655 C652 1.461 . S
C655 C654 1.474 . S
C656 C651 1.342 . S
C656 C654 1.285 . S
C656 H675 0.930 . S
C657 C660 1.424 . S
C657 C662 1.245 . S
C657 C663 1.428 . S
C658 C661 1.260 . S
C658 C662 1.477 . S
C658 H676 0.932 . S
C659 C660 1.384 . S
C659 C661 1.479 . S
C659 H677 0.929 . S
C660 C657 1.424 . S
C660 C659 1.384 . S
C660 H678 0.928 . S
C661 C658 1.260 . S
C661 C659 1.479 . S
C662 C657 1.245 . S
C662 C658 1.477 . S
C662 H679 0.932 . S
C663 U646 2.882 . S
C663 C657 1.428 . S
C663 O666 1.301 . S
C663 O667 1.282 . S
O664 U646 2.441 . S
O664 C650 1.249 . S
O665 U646 2.420 . S
O665 C650 1.202 . S
O666 U646 2.455 . S
O666 C663 1.301 . S
O667 U646 2.449 . S
O667 C663 1.282 . S
H668 C641 0.931 . S
H669 C643 0.929 . S
H670 C644 0.930 . S
H671 C645 0.931 . S
H672 C652 0.932 . S
H673 C653 0.930 . S
H674 C654 0.929 . S
H675 C656 0.930 . S
H676 C658 0.932 . S
H677 C659 0.929 . S
H678 C660 0.928 . S
H679 C662 0.932 . S
C680 C681 1.264 . S
C680 C685 1.479 . S
C680 C690 1.465 . S
C681 C680 1.264 . S
C681 C683 1.339 . S
C681 H708 0.931 . S
C682 C683 1.395 . S
C682 C684 1.320 . S
C683 C681 1.339 . S
C683 C682 1.395 . S
C683 H709 0.929 . S
C684 C682 1.320 . S
C684 C685 1.405 . S
C684 H710 0.930 . S
C685 C680 1.479 . S
C685 C684 1.405 . S
C685 H711 0.931 . S
U686 O687 2.454 . S
U686 O688 2.458 . S
U686 C689 2.984 . S
U686 C690 2.847 . S
U686 C703 2.882 . S
U686 O704 2.441 . S
U686 O705 2.420 . S
U686 O706 2.455 . S
U686 O707 2.449 . S
O687 U686 2.454 . S
O687 C689 1.353 . S
O688 U686 2.458 . S
O688 C689 1.286 . S
C689 U686 2.984 . S
C689 O687 1.353 . S
C689 O688 1.286 . S
C689 C691 1.363 . S
C690 C680 1.465 . S
C690 U686 2.847 . S
C690 O704 1.249 . S
C690 O705 1.202 . S
C691 C689 1.363 . S
C691 C693 1.408 . S
C691 C696 1.342 . S
C692 C693 1.310 . S
C692 C695 1.461 . S
C692 H712 0.932 . S
C693 C691 1.408 . S
C693 C692 1.310 . S
C693 H713 0.930 . S
C694 C695 1.474 . S
C694 C696 1.285 . S
C694 H714 0.929 . S
C695 C692 1.461 . S
C695 C694 1.474 . S
C696 C691 1.342 . S
C696 C694 1.285 . S
C696 H715 0.930 . S
C697 C700 1.424 . S
C697 C702 1.245 . S
C697 C703 1.428 . S
C698 C701 1.260 . S
C698 C702 1.477 . S
C698 H716 0.932 . S
C699 C700 1.384 . S
C699 C701 1.479 . S
C699 H717 0.929 . S
C700 C697 1.424 . S
C700 C699 1.384 . S
C700 H718 0.928 . S
C701 C698 1.260 . S
C701 C699 1.479 . S
C702 C697 1.245 . S
C702 C698 1.477 . S
C702 H719 0.932 . S
C703 U686 2.882 . S
C703 C697 1.428 . S
C703 O706 1.301 . S
C703 O707 1.282 . S
O704 U686 2.441 . S
O704 C690 1.249 . S
O705 U686 2.420 . S
O705 C690 1.202 . S
O706 U686 2.455 . S
O706 C703 1.301 . S
O707 U686 2.449 . S
O707 C703 1.282 . S
H708 C681 0.931 . S
H709 C683 0.929 . S
H710 C684 0.930 . S
H711 C685 0.931 . S
H712 C692 0.932 . S
H713 C693 0.930 . S
H714 C694 0.929 . S
H715 C696 0.930 . S
H716 C698 0.932 . S
H717 C699 0.929 . S
H718 C700 0.928 . S
H719 C702 0.932 . S
C720 C721 1.264 . S
C720 C725 1.479 . S
C720 C730 1.465 . S
C721 C720 1.264 . S
C721 C723 1.339 . S
C721 H748 0.931 . S
C722 C723 1.395 . S
C722 C724 1.320 . S
C723 C721 1.339 . S
C723 C722 1.395 . S
C723 H749 0.929 . S
C724 C722 1.320 . S
C724 C725 1.405 . S
C724 H750 0.930 . S
C725 C720 1.479 . S
C725 C724 1.405 . S
C725 H751 0.931 . S
U726 O727 2.454 . S
U726 O728 2.458 . S
U726 C729 2.984 . S
U726 C730 2.847 . S
U726 C743 2.882 . S
U726 O744 2.441 . S
U726 O745 2.420 . S
U726 O746 2.455 . S
U726 O747 2.449 . S
O727 U726 2.454 . S
O727 C729 1.353 . S
O728 U726 2.458 . S
O728 C729 1.286 . S
C729 U726 2.984 . S
C729 O727 1.353 . S
C729 O728 1.286 . S
C729 C731 1.363 . S
C730 C720 1.465 . S
C730 U726 2.847 . S
C730 O744 1.249 . S
C730 O745 1.202 . S
C731 C729 1.363 . S
C731 C733 1.408 . S
C731 C736 1.342 . S
C732 C733 1.310 . S
C732 C735 1.461 . S
C732 H752 0.932 . S
C733 C731 1.408 . S
C733 C732 1.310 . S
C733 H753 0.930 . S
C734 C735 1.474 . S
C734 C736 1.285 . S
C734 H754 0.929 . S
C735 C732 1.461 . S
C735 C734 1.474 . S
C736 C731 1.342 . S
C736 C734 1.285 . S
C736 H755 0.930 . S
C737 C740 1.424 . S
C737 C742 1.245 . S
C737 C743 1.428 . S
C738 C741 1.260 . S
C738 C742 1.477 . S
C738 H756 0.932 . S
C739 C740 1.384 . S
C739 C741 1.479 . S
C739 H757 0.929 . S
C740 C737 1.424 . S
C740 C739 1.384 . S
C740 H758 0.928 . S
C741 C738 1.260 . S
C741 C739 1.479 . S
C742 C737 1.245 . S
C742 C738 1.477 . S
C742 H759 0.932 . S
C743 U726 2.882 . S
C743 C737 1.428 . S
C743 O746 1.301 . S
C743 O747 1.282 . S
O744 U726 2.441 . S
O744 C730 1.249 . S
O745 U726 2.420 . S
O745 C730 1.202 . S
O746 U726 2.455 . S
O746 C743 1.301 . S
O747 U726 2.449 . S
O747 C743 1.282 . S
H748 C721 0.931 . S
H749 C723 0.929 . S
H750 C724 0.930 . S
H751 C725 0.931 . S
H752 C732 0.932 . S
H753 C733 0.930 . S
H754 C734 0.929 . S
H755 C736 0.930 . S
H756 C738 0.932 . S
H757 C739 0.929 . S
H758 C740 0.928 . S
H759 C742 0.932 . S
C760 C761 1.264 . S
C760 C765 1.479 . S
C760 C770 1.465 . S
C761 C760 1.264 . S
C761 C763 1.339 . S
C761 H788 0.931 . S
C762 C763 1.395 . S
C762 C764 1.320 . S
C763 C761 1.339 . S
C763 C762 1.395 . S
C763 H789 0.929 . S
C764 C762 1.320 . S
C764 C765 1.405 . S
C764 H790 0.930 . S
C765 C760 1.479 . S
C765 C764 1.405 . S
C765 H791 0.931 . S
U766 O767 2.454 . S
U766 O768 2.458 . S
U766 C769 2.984 . S
U766 C770 2.847 . S
U766 C783 2.882 . S
U766 O784 2.441 . S
U766 O785 2.420 . S
U766 O786 2.455 . S
U766 O787 2.449 . S
O767 U766 2.454 . S
O767 C769 1.353 . S
O768 U766 2.458 . S
O768 C769 1.286 . S
C769 U766 2.984 . S
C769 O767 1.353 . S
C769 O768 1.286 . S
C769 C771 1.363 . S
C770 C760 1.465 . S
C770 U766 2.847 . S
C770 O784 1.249 . S
C770 O785 1.202 . S
C771 C769 1.363 . S
C771 C773 1.408 . S
C771 C776 1.342 . S
C772 C773 1.310 . S
C772 C775 1.461 . S
C772 H792 0.932 . S
C773 C771 1.408 . S
C773 C772 1.310 . S
C773 H793 0.930 . S
C774 C775 1.474 . S
C774 C776 1.285 . S
C774 H794 0.929 . S
C775 C772 1.461 . S
C775 C774 1.474 . S
C776 C771 1.342 . S
C776 C774 1.285 . S
C776 H795 0.930 . S
C777 C780 1.424 . S
C777 C782 1.245 . S
C777 C783 1.428 . S
C778 C781 1.260 . S
C778 C782 1.477 . S
C778 H796 0.932 . S
C779 C780 1.384 . S
C779 C781 1.479 . S
C779 H797 0.929 . S
C780 C777 1.424 . S
C780 C779 1.384 . S
C780 H798 0.928 . S
C781 C778 1.260 . S
C781 C779 1.479 . S
C782 C777 1.245 . S
C782 C778 1.477 . S
C782 H799 0.932 . S
C783 U766 2.882 . S
C783 C777 1.428 . S
C783 O786 1.301 . S
C783 O787 1.282 . S
O784 U766 2.441 . S
O784 C770 1.249 . S
O785 U766 2.420 . S
O785 C770 1.202 . S
O786 U766 2.455 . S
O786 C783 1.301 . S
O787 U766 2.449 . S
O787 C783 1.282 . S
H788 C761 0.931 . S
H789 C763 0.929 . S
H790 C764 0.930 . S
H791 C765 0.931 . S
H792 C772 0.932 . S
H793 C773 0.930 . S
H794 C774 0.929 . S
H795 C776 0.930 . S
H796 C778 0.932 . S
H797 C779 0.929 . S
H798 C780 0.928 . S
H799 C782 0.932 . S
C800 C801 1.264 . S
C800 C805 1.479 . S
C800 C810 1.465 . S
C801 C800 1.264 . S
C801 C803 1.339 . S
C801 H828 0.931 . S
C802 C803 1.395 . S
C802 C804 1.320 . S
C803 C801 1.339 . S
C803 C802 1.395 . S
C803 H829 0.929 . S
C804 C802 1.320 . S
C804 C805 1.405 . S
C804 H830 0.930 . S
C805 C800 1.479 . S
C805 C804 1.405 . S
C805 H831 0.931 . S
U806 O807 2.454 . S
U806 O808 2.458 . S
U806 C809 2.984 . S
U806 C810 2.847 . S
U806 C823 2.882 . S
U806 O824 2.441 . S
U806 O825 2.420 . S
U806 O826 2.455 . S
U806 O827 2.449 . S
O807 U806 2.454 . S
O807 C809 1.353 . S
O808 U806 2.458 . S
O808 C809 1.286 . S
C809 U806 2.984 . S
C809 O807 1.353 . S
C809 O808 1.286 . S
C809 C811 1.363 . S
C810 C800 1.465 . S
C810 U806 2.847 . S
C810 O824 1.249 . S
C810 O825 1.202 . S
C811 C809 1.363 . S
C811 C813 1.408 . S
C811 C816 1.342 . S
C812 C813 1.310 . S
C812 C815 1.461 . S
C812 H832 0.932 . S
C813 C811 1.408 . S
C813 C812 1.310 . S
C813 H833 0.930 . S
C814 C815 1.474 . S
C814 C816 1.285 . S
C814 H834 0.929 . S
C815 C812 1.461 . S
C815 C814 1.474 . S
C816 C811 1.342 . S
C816 C814 1.285 . S
C816 H835 0.930 . S
C817 C820 1.424 . S
C817 C822 1.245 . S
C817 C823 1.428 . S
C818 C821 1.260 . S
C818 C822 1.477 . S
C818 H836 0.932 . S
C819 C820 1.384 . S
C819 C821 1.479 . S
C819 H837 0.929 . S
C820 C817 1.424 . S
C820 C819 1.384 . S
C820 H838 0.928 . S
C821 C818 1.260 . S
C821 C819 1.479 . S
C822 C817 1.245 . S
C822 C818 1.477 . S
C822 H839 0.932 . S
C823 U806 2.882 . S
C823 C817 1.428 . S
C823 O826 1.301 . S
C823 O827 1.282 . S
O824 U806 2.441 . S
O824 C810 1.249 . S
O825 U806 2.420 . S
O825 C810 1.202 . S
O826 U806 2.455 . S
O826 C823 1.301 . S
O827 U806 2.449 . S
O827 C823 1.282 . S
H828 C801 0.931 . S
H829 C803 0.929 . S
H830 C804 0.930 . S
H831 C805 0.931 . S
H832 C812 0.932 . S
H833 C813 0.930 . S
H834 C814 0.929 . S
H835 C816 0.930 . S
H836 C818 0.932 . S
H837 C819 0.929 . S
H838 C820 0.928 . S
H839 C822 0.932 . S
C840 C841 1.264 . S
C840 C845 1.479 . S
C840 C850 1.465 . S
C841 C840 1.264 . S
C841 C843 1.339 . S
C841 H868 0.931 . S
C842 C843 1.395 . S
C842 C844 1.320 . S
C843 C841 1.339 . S
C843 C842 1.395 . S
C843 H869 0.929 . S
C844 C842 1.320 . S
C844 C845 1.405 . S
C844 H870 0.930 . S
C845 C840 1.479 . S
C845 C844 1.405 . S
C845 H871 0.931 . S
U846 O847 2.454 . S
U846 O848 2.458 . S
U846 C849 2.984 . S
U846 C850 2.847 . S
U846 C863 2.882 . S
U846 O864 2.441 . S
U846 O865 2.420 . S
U846 O866 2.455 . S
U846 O867 2.449 . S
O847 U846 2.454 . S
O847 C849 1.353 . S
O848 U846 2.458 . S
O848 C849 1.286 . S
C849 U846 2.984 . S
C849 O847 1.353 . S
C849 O848 1.286 . S
C849 C851 1.363 . S
C850 C840 1.465 . S
C850 U846 2.847 . S
C850 O864 1.249 . S
C850 O865 1.202 . S
C851 C849 1.363 . S
C851 C853 1.408 . S
C851 C856 1.342 . S
C852 C853 1.310 . S
C852 C855 1.461 . S
C852 H872 0.932 . S
C853 C851 1.408 . S
C853 C852 1.310 . S
C853 H873 0.930 . S
C854 C855 1.474 . S
C854 C856 1.285 . S
C854 H874 0.929 . S
C855 C852 1.461 . S
C855 C854 1.474 . S
C856 C851 1.342 . S
C856 C854 1.285 . S
C856 H875 0.930 . S
C857 C860 1.424 . S
C857 C862 1.245 . S
C857 C863 1.428 . S
C858 C861 1.260 . S
C858 C862 1.477 . S
C858 H876 0.932 . S
C859 C860 1.384 . S
C859 C861 1.479 . S
C859 H877 0.929 . S
C860 C857 1.424 . S
C860 C859 1.384 . S
C860 H878 0.928 . S
C861 C858 1.260 . S
C861 C859 1.479 . S
C862 C857 1.245 . S
C862 C858 1.477 . S
C862 H879 0.932 . S
C863 U846 2.882 . S
C863 C857 1.428 . S
C863 O866 1.301 . S
C863 O867 1.282 . S
O864 U846 2.441 . S
O864 C850 1.249 . S
O865 U846 2.420 . S
O865 C850 1.202 . S
O866 U846 2.455 . S
O866 C863 1.301 . S
O867 U846 2.449 . S
O867 C863 1.282 . S
H868 C841 0.931 . S
H869 C843 0.929 . S
H870 C844 0.930 . S
H871 C845 0.931 . S
H872 C852 0.932 . S
H873 C853 0.930 . S
H874 C854 0.929 . S
H875 C856 0.930 . S
H876 C858 0.932 . S
H877 C859 0.929 . S
H878 C860 0.928 . S
H879 C862 0.932 . S
C880 C881 1.264 . S
C880 C885 1.479 . S
C880 C890 1.465 . S
C881 C880 1.264 . S
C881 C883 1.339 . S
C881 H908 0.931 . S
C882 C883 1.395 . S
C882 C884 1.320 . S
C883 C881 1.339 . S
C883 C882 1.395 . S
C883 H909 0.929 . S
C884 C882 1.320 . S
C884 C885 1.405 . S
C884 H910 0.930 . S
C885 C880 1.479 . S
C885 C884 1.405 . S
C885 H911 0.931 . S
U886 O887 2.454 . S
U886 O888 2.458 . S
U886 C889 2.984 . S
U886 C890 2.847 . S
U886 C903 2.882 . S
U886 O904 2.441 . S
U886 O905 2.420 . S
U886 O906 2.455 . S
U886 O907 2.449 . S
O887 U886 2.454 . S
O887 C889 1.353 . S
O888 U886 2.458 . S
O888 C889 1.286 . S
C889 U886 2.984 . S
C889 O887 1.353 . S
C889 O888 1.286 . S
C889 C891 1.363 . S
C890 C880 1.465 . S
C890 U886 2.847 . S
C890 O904 1.249 . S
C890 O905 1.202 . S
C891 C889 1.363 . S
C891 C893 1.408 . S
C891 C896 1.342 . S
C892 C893 1.310 . S
C892 C895 1.461 . S
C892 H912 0.932 . S
C893 C891 1.408 . S
C893 C892 1.310 . S
C893 H913 0.930 . S
C894 C895 1.474 . S
C894 C896 1.285 . S
C894 H914 0.929 . S
C895 C892 1.461 . S
C895 C894 1.474 . S
C896 C891 1.342 . S
C896 C894 1.285 . S
C896 H915 0.930 . S
C897 C900 1.424 . S
C897 C902 1.245 . S
C897 C903 1.428 . S
C898 C901 1.260 . S
C898 C902 1.477 . S
C898 H916 0.932 . S
C899 C900 1.384 . S
C899 C901 1.479 . S
C899 H917 0.929 . S
C900 C897 1.424 . S
C900 C899 1.384 . S
C900 H918 0.928 . S
C901 C898 1.260 . S
C901 C899 1.479 . S
C902 C897 1.245 . S
C902 C898 1.477 . S
C902 H919 0.932 . S
C903 U886 2.882 . S
C903 C897 1.428 . S
C903 O906 1.301 . S
C903 O907 1.282 . S
O904 U886 2.441 . S
O904 C890 1.249 . S
O905 U886 2.420 . S
O905 C890 1.202 . S
O906 U886 2.455 . S
O906 C903 1.301 . S
O907 U886 2.449 . S
O907 C903 1.282 . S
H908 C881 0.931 . S
H909 C883 0.929 . S
H910 C884 0.930 . S
H911 C885 0.931 . S
H912 C892 0.932 . S
H913 C893 0.930 . S
H914 C894 0.929 . S
H915 C896 0.930 . S
H916 C898 0.932 . S
H917 C899 0.929 . S
H918 C900 0.928 . S
H919 C902 0.932 . S
C920 C921 1.264 . S
C920 C925 1.479 . S
C920 C930 1.465 . S
C921 C920 1.264 . S
C921 C923 1.339 . S
C921 H948 0.931 . S
C922 C923 1.395 . S
C922 C924 1.320 . S
C923 C921 1.339 . S
C923 C922 1.395 . S
C923 H949 0.929 . S
C924 C922 1.320 . S
C924 C925 1.405 . S
C924 H950 0.930 . S
C925 C920 1.479 . S
C925 C924 1.405 . S
C925 H951 0.931 . S
U926 O927 2.454 . S
U926 O928 2.458 . S
U926 C929 2.984 . S
U926 C930 2.847 . S
U926 C943 2.882 . S
U926 O944 2.441 . S
U926 O945 2.420 . S
U926 O946 2.455 . S
U926 O947 2.449 . S
O927 U926 2.454 . S
O927 C929 1.353 . S
O928 U926 2.458 . S
O928 C929 1.286 . S
C929 U926 2.984 . S
C929 O927 1.353 . S
C929 O928 1.286 . S
C929 C931 1.363 . S
C930 C920 1.465 . S
C930 U926 2.847 . S
C930 O944 1.249 . S
C930 O945 1.202 . S
C931 C929 1.363 . S
C931 C933 1.408 . S
C931 C936 1.342 . S
C932 C933 1.310 . S
C932 C935 1.461 . S
C932 H952 0.932 . S
C933 C931 1.408 . S
C933 C932 1.310 . S
C933 H953 0.930 . S
C934 C935 1.474 . S
C934 C936 1.285 . S
C934 H954 0.929 . S
C935 C932 1.461 . S
C935 C934 1.474 . S
C936 C931 1.342 . S
C936 C934 1.285 . S
C936 H955 0.930 . S
C937 C940 1.424 . S
C937 C942 1.245 . S
C937 C943 1.428 . S
C938 C941 1.260 . S
C938 C942 1.477 . S
C938 H956 0.932 . S
C939 C940 1.384 . S
C939 C941 1.479 . S
C939 H957 0.929 . S
C940 C937 1.424 . S
C940 C939 1.384 . S
C940 H958 0.928 . S
C941 C938 1.260 . S
C941 C939 1.479 . S
C942 C937 1.245 . S
C942 C938 1.477 . S
C942 H959 0.932 . S
C943 U926 2.882 . S
C943 C937 1.428 . S
C943 O946 1.301 . S
C943 O947 1.282 . S
O944 U926 2.441 . S
O944 C930 1.249 . S
O945 U926 2.420 . S
O945 C930 1.202 . S
O946 U926 2.455 . S
O946 C943 1.301 . S
O947 U926 2.449 . S
O947 C943 1.282 . S
H948 C921 0.931 . S
H949 C923 0.929 . S
H950 C924 0.930 . S
H951 C925 0.931 . S
H952 C932 0.932 . S
H953 C933 0.930 . S
H954 C934 0.929 . S
H955 C936 0.930 . S
H956 C938 0.932 . S
H957 C939 0.929 . S
H958 C940 0.928 . S
H959 C942 0.932 . S
C960 C961 1.264 . S
C960 C965 1.479 . S
C960 C970 1.465 . S
C961 C960 1.264 . S
C961 C963 1.339 . S
C961 H988 0.931 . S
C962 C963 1.395 . S
C962 C964 1.320 . S
C963 C961 1.339 . S
C963 C962 1.395 . S
C963 H989 0.929 . S
C964 C962 1.320 . S
C964 C965 1.405 . S
C964 H990 0.930 . S
C965 C960 1.479 . S
C965 C964 1.405 . S
C965 H991 0.931 . S
U966 O967 2.454 . S
U966 O968 2.458 . S
U966 C969 2.984 . S
U966 C970 2.847 . S
U966 C983 2.882 . S
U966 O984 2.441 . S
U966 O985 2.420 . S
U966 O986 2.455 . S
U966 O987 2.449 . S
O967 U966 2.454 . S
O967 C969 1.353 . S
O968 U966 2.458 . S
O968 C969 1.286 . S
C969 U966 2.984 . S
C969 O967 1.353 . S
C969 O968 1.286 . S
C969 C971 1.363 . S
C970 C960 1.465 . S
C970 U966 2.847 . S
C970 O984 1.249 . S
C970 O985 1.202 . S
C971 C969 1.363 . S
C971 C973 1.408 . S
C971 C976 1.342 . S
C972 C973 1.310 . S
C972 C975 1.461 . S
C972 H992 0.932 . S
C973 C971 1.408 . S
C973 C972 1.310 . S
C973 H993 0.930 . S
C974 C975 1.474 . S
C974 C976 1.285 . S
C974 H994 0.929 . S
C975 C972 1.461 . S
C975 C974 1.474 . S
C976 C971 1.342 . S
C976 C974 1.285 . S
C976 H995 0.930 . S
C977 C980 1.424 . S
C977 C982 1.245 . S
C977 C983 1.428 . S
C978 C981 1.260 . S
C978 C982 1.477 . S
C978 H996 0.932 . S
C979 C980 1.384 . S
C979 C981 1.479 . S
C979 H997 0.929 . S
C980 C977 1.424 . S
C980 C979 1.384 . S
C980 H998 0.928 . S
C981 C978 1.260 . S
C981 C979 1.479 . S
C982 C977 1.245 . S
C982 C978 1.477 . S
C982 H999 0.932 . S
C983 U966 2.882 . S
C983 C977 1.428 . S
C983 O986 1.301 . S
C983 O987 1.282 . S
O984 U966 2.441 . S
O984 C970 1.249 . S
O985 U966 2.420 . S
O985 C970 1.202 . S
O986 U966 2.455 . S
O986 C983 1.301 . S
O987 U966 2.449 . S
O987 C983 1.282 . S
H988 C961 0.931 . S
H989 C963 0.929 . S
H990 C964 0.930 . S
H991 C965 0.931 . S
H992 C972 0.932 . S
H993 C973 0.930 . S
H994 C974 0.929 . S
H995 C976 0.930 . S
H996 C978 0.932 . S
H997 C979 0.929 . S
H998 C980 0.928 . S
H999 C982 0.932 . S
C1000 C1001 1.264 . S
C1000 C1005 1.479 . S
C1000 C1010 1.465 . S
C1001 C1000 1.264 . S
C1001 C1003 1.339 . S
C1001 H1028 0.931 . S
C1002 C1003 1.395 . S
C1002 C1004 1.320 . S
C1003 C1001 1.339 . S
C1003 C1002 1.395 . S
C1003 H1029 0.929 . S
C1004 C1002 1.320 . S
C1004 C1005 1.405 . S
C1004 H1030 0.930 . S
C1005 C1000 1.479 . S
C1005 C1004 1.405 . S
C1005 H1031 0.931 . S
U1006 O1007 2.454 . S
U1006 O1008 2.458 . S
U1006 C1009 2.984 . S
U1006 C1010 2.847 . S
U1006 C1023 2.882 . S
U1006 O1024 2.441 . S
U1006 O1025 2.420 . S
U1006 O1026 2.455 . S
U1006 O1027 2.449 . S
O1007 U1006 2.454 . S
O1007 C1009 1.353 . S
O1008 U1006 2.458 . S
O1008 C1009 1.286 . S
C1009 U1006 2.984 . S
C1009 O1007 1.353 . S
C1009 O1008 1.286 . S
C1009 C1011 1.363 . S
C1010 C1000 1.465 . S
C1010 U1006 2.847 . S
C1010 O1024 1.249 . S
C1010 O1025 1.202 . S
C1011 C1009 1.363 . S
C1011 C1013 1.408 . S
C1011 C1016 1.342 . S
C1012 C1013 1.310 . S
C1012 C1015 1.461 . S
C1012 H1032 0.932 . S
C1013 C1011 1.408 . S
C1013 C1012 1.310 . S
C1013 H1033 0.930 . S
C1014 C1015 1.474 . S
C1014 C1016 1.285 . S
C1014 H1034 0.929 . S
C1015 C1012 1.461 . S
C1015 C1014 1.474 . S
C1016 C1011 1.342 . S
C1016 C1014 1.285 . S
C1016 H1035 0.930 . S
C1017 C1020 1.424 . S
C1017 C1022 1.245 . S
C1017 C1023 1.428 . S
C1018 C1021 1.260 . S
C1018 C1022 1.477 . S
C1018 H1036 0.932 . S
C1019 C1020 1.384 . S
C1019 C1021 1.479 . S
C1019 H1037 0.929 . S
C1020 C1017 1.424 . S
C1020 C1019 1.384 . S
C1020 H1038 0.928 . S
C1021 C1018 1.260 . S
C1021 C1019 1.479 . S
C1022 C1017 1.245 . S
C1022 C1018 1.477 . S
C1022 H1039 0.932 . S
C1023 U1006 2.882 . S
C1023 C1017 1.428 . S
C1023 O1026 1.301 . S
C1023 O1027 1.282 . S
O1024 U1006 2.441 . S
O1024 C1010 1.249 . S
O1025 U1006 2.420 . S
O1025 C1010 1.202 . S
O1026 U1006 2.455 . S
O1026 C1023 1.301 . S
O1027 U1006 2.449 . S
O1027 C1023 1.282 . S
H1028 C1001 0.931 . S
H1029 C1003 0.929 . S
H1030 C1004 0.930 . S
H1031 C1005 0.931 . S
H1032 C1012 0.932 . S
H1033 C1013 0.930 . S
H1034 C1014 0.929 . S
H1035 C1016 0.930 . S
H1036 C1018 0.932 . S
H1037 C1019 0.929 . S
H1038 C1020 0.928 . S
H1039 C1022 0.932 . S
C1040 C1041 1.264 . S
C1040 C1045 1.479 . S
C1040 C1050 1.465 . S
C1041 C1040 1.264 . S
C1041 C1043 1.339 . S
C1041 H1068 0.931 . S
C1042 C1043 1.395 . S
C1042 C1044 1.320 . S
C1043 C1041 1.339 . S
C1043 C1042 1.395 . S
C1043 H1069 0.929 . S
C1044 C1042 1.320 . S
C1044 C1045 1.405 . S
C1044 H1070 0.930 . S
C1045 C1040 1.479 . S
C1045 C1044 1.405 . S
C1045 H1071 0.931 . S
U1046 O1047 2.454 . S
U1046 O1048 2.458 . S
U1046 C1049 2.984 . S
U1046 C1050 2.847 . S
U1046 C1063 2.882 . S
U1046 O1064 2.441 . S
U1046 O1065 2.420 . S
U1046 O1066 2.455 . S
U1046 O1067 2.449 . S
O1047 U1046 2.454 . S
O1047 C1049 1.353 . S
O1048 U1046 2.458 . S
O1048 C1049 1.286 . S
C1049 U1046 2.984 . S
C1049 O1047 1.353 . S
C1049 O1048 1.286 . S
C1049 C1051 1.363 . S
C1050 C1040 1.465 . S
C1050 U1046 2.847 . S
C1050 O1064 1.249 . S
C1050 O1065 1.202 . S
C1051 C1049 1.363 . S
C1051 C1053 1.408 . S
C1051 C1056 1.342 . S
C1052 C1053 1.310 . S
C1052 C1055 1.461 . S
C1052 H1072 0.932 . S
C1053 C1051 1.408 . S
C1053 C1052 1.310 . S
C1053 H1073 0.930 . S
C1054 C1055 1.474 . S
C1054 C1056 1.285 . S
C1054 H1074 0.929 . S
C1055 C1052 1.461 . S
C1055 C1054 1.474 . S
C1056 C1051 1.342 . S
C1056 C1054 1.285 . S
C1056 H1075 0.930 . S
C1057 C1060 1.424 . S
C1057 C1062 1.245 . S
C1057 C1063 1.428 . S
C1058 C1061 1.260 . S
C1058 C1062 1.477 . S
C1058 H1076 0.932 . S
C1059 C1060 1.384 . S
C1059 C1061 1.479 . S
C1059 H1077 0.929 . S
C1060 C1057 1.424 . S
C1060 C1059 1.384 . S
C1060 H1078 0.928 . S
C1061 C1058 1.260 . S
C1061 C1059 1.479 . S
C1062 C1057 1.245 . S
C1062 C1058 1.477 . S
C1062 H1079 0.932 . S
C1063 U1046 2.882 . S
C1063 C1057 1.428 . S
C1063 O1066 1.301 . S
C1063 O1067 1.282 . S
O1064 U1046 2.441 . S
O1064 C1050 1.249 . S
O1065 U1046 2.420 . S
O1065 C1050 1.202 . S
O1066 U1046 2.455 . S
O1066 C1063 1.301 . S
O1067 U1046 2.449 . S
O1067 C1063 1.282 . S
H1068 C1041 0.931 . S
H1069 C1043 0.929 . S
H1070 C1044 0.930 . S
H1071 C1045 0.931 . S
H1072 C1052 0.932 . S
H1073 C1053 0.930 . S
H1074 C1054 0.929 . S
H1075 C1056 0.930 . S
H1076 C1058 0.932 . S
H1077 C1059 0.929 . S
H1078 C1060 0.928 . S
H1079 C1062 0.932 . S
C1080 C1081 1.264 . S
C1080 C1085 1.479 . S
C1080 C1090 1.465 . S
C1081 C1080 1.264 . S
C1081 C1083 1.339 . S
C1081 H1108 0.931 . S
C1082 C1083 1.395 . S
C1082 C1084 1.320 . S
C1083 C1081 1.339 . S
C1083 C1082 1.395 . S
C1083 H1109 0.929 . S
C1084 C1082 1.320 . S
C1084 C1085 1.405 . S
C1084 H1110 0.930 . S
C1085 C1080 1.479 . S
C1085 C1084 1.405 . S
C1085 H1111 0.931 . S
U1086 O1087 2.454 . S
U1086 O1088 2.458 . S
U1086 C1089 2.984 . S
U1086 C1090 2.847 . S
U1086 C1103 2.882 . S
U1086 O1104 2.441 . S
U1086 O1105 2.420 . S
U1086 O1106 2.455 . S
U1086 O1107 2.449 . S
O1087 U1086 2.454 . S
O1087 C1089 1.353 . S
O1088 U1086 2.458 . S
O1088 C1089 1.286 . S
C1089 U1086 2.984 . S
C1089 O1087 1.353 . S
C1089 O1088 1.286 . S
C1089 C1091 1.363 . S
C1090 C1080 1.465 . S
C1090 U1086 2.847 . S
C1090 O1104 1.249 . S
C1090 O1105 1.202 . S
C1091 C1089 1.363 . S
C1091 C1093 1.408 . S
C1091 C1096 1.342 . S
C1092 C1093 1.310 . S
C1092 C1095 1.461 . S
C1092 H1112 0.932 . S
C1093 C1091 1.408 . S
C1093 C1092 1.310 . S
C1093 H1113 0.930 . S
C1094 C1095 1.474 . S
C1094 C1096 1.285 . S
C1094 H1114 0.929 . S
C1095 C1092 1.461 . S
C1095 C1094 1.474 . S
C1096 C1091 1.342 . S
C1096 C1094 1.285 . S
C1096 H1115 0.930 . S
C1097 C1100 1.424 . S
C1097 C1102 1.245 . S
C1097 C1103 1.428 . S
C1098 C1101 1.260 . S
C1098 C1102 1.477 . S
C1098 H1116 0.932 . S
C1099 C1100 1.384 . S
C1099 C1101 1.479 . S
C1099 H1117 0.929 . S
C1100 C1097 1.424 . S
C1100 C1099 1.384 . S
C1100 H1118 0.928 . S
C1101 C1098 1.260 . S
C1101 C1099 1.479 . S
C1102 C1097 1.245 . S
C1102 C1098 1.477 . S
C1102 H1119 0.932 . S
C1103 U1086 2.882 . S
C1103 C1097 1.428 . S
C1103 O1106 1.301 . S
C1103 O1107 1.282 . S
O1104 U1086 2.441 . S
O1104 C1090 1.249 . S
O1105 U1086 2.420 . S
O1105 C1090 1.202 . S
O1106 U1086 2.455 . S
O1106 C1103 1.301 . S
O1107 U1086 2.449 . S
O1107 C1103 1.282 . S
H1108 C1081 0.931 . S
H1109 C1083 0.929 . S
H1110 C1084 0.930 . S
H1111 C1085 0.931 . S
H1112 C1092 0.932 . S
H1113 C1093 0.930 . S
H1114 C1094 0.929 . S
H1115 C1096 0.930 . S
H1116 C1098 0.932 . S
H1117 C1099 0.929 . S
H1118 C1100 0.928 . S
H1119 C1102 0.932 . S
C1120 C1121 1.264 . S
C1120 C1125 1.479 . S
C1120 C1130 1.465 . S
C1121 C1120 1.264 . S
C1121 C1123 1.339 . S
C1121 H1148 0.931 . S
C1122 C1123 1.395 . S
C1122 C1124 1.320 . S
C1123 C1121 1.339 . S
C1123 C1122 1.395 . S
C1123 H1149 0.929 . S
C1124 C1122 1.320 . S
C1124 C1125 1.405 . S
C1124 H1150 0.930 . S
C1125 C1120 1.479 . S
C1125 C1124 1.405 . S
C1125 H1151 0.931 . S
U1126 O1127 2.454 . S
U1126 O1128 2.458 . S
U1126 C1129 2.984 . S
U1126 C1130 2.847 . S
U1126 C1143 2.882 . S
U1126 O1144 2.441 . S
U1126 O1145 2.420 . S
U1126 O1146 2.455 . S
U1126 O1147 2.449 . S
O1127 U1126 2.454 . S
O1127 C1129 1.353 . S
O1128 U1126 2.458 . S
O1128 C1129 1.286 . S
C1129 U1126 2.984 . S
C1129 O1127 1.353 . S
C1129 O1128 1.286 . S
C1129 C1131 1.363 . S
C1130 C1120 1.465 . S
C1130 U1126 2.847 . S
C1130 O1144 1.249 . S
C1130 O1145 1.202 . S
C1131 C1129 1.363 . S
C1131 C1133 1.408 . S
C1131 C1136 1.342 . S
C1132 C1133 1.310 . S
C1132 C1135 1.461 . S
C1132 H1152 0.932 . S
C1133 C1131 1.408 . S
C1133 C1132 1.310 . S
C1133 H1153 0.930 . S
C1134 C1135 1.474 . S
C1134 C1136 1.285 . S
C1134 H1154 0.929 . S
C1135 C1132 1.461 . S
C1135 C1134 1.474 . S
C1136 C1131 1.342 . S
C1136 C1134 1.285 . S
C1136 H1155 0.930 . S
C1137 C1140 1.424 . S
C1137 C1142 1.245 . S
C1137 C1143 1.428 . S
C1138 C1141 1.260 . S
C1138 C1142 1.477 . S
C1138 H1156 0.932 . S
C1139 C1140 1.384 . S
C1139 C1141 1.479 . S
C1139 H1157 0.929 . S
C1140 C1137 1.424 . S
C1140 C1139 1.384 . S
C1140 H1158 0.928 . S
C1141 C1138 1.260 . S
C1141 C1139 1.479 . S
C1142 C1137 1.245 . S
C1142 C1138 1.477 . S
C1142 H1159 0.932 . S
C1143 U1126 2.882 . S
C1143 C1137 1.428 . S
C1143 O1146 1.301 . S
C1143 O1147 1.282 . S
O1144 U1126 2.441 . S
O1144 C1130 1.249 . S
O1145 U1126 2.420 . S
O1145 C1130 1.202 . S
O1146 U1126 2.455 . S
O1146 C1143 1.301 . S
O1147 U1126 2.449 . S
O1147 C1143 1.282 . S
H1148 C1121 0.931 . S
H1149 C1123 0.929 . S
H1150 C1124 0.930 . S
H1151 C1125 0.931 . S
H1152 C1132 0.932 . S
H1153 C1133 0.930 . S
H1154 C1134 0.929 . S
H1155 C1136 0.930 . S
H1156 C1138 0.932 . S
H1157 C1139 0.929 . S
H1158 C1140 0.928 . S
H1159 C1142 0.932 . S
C1160 C1161 1.264 . S
C1160 C1165 1.479 . S
C1160 C1170 1.465 . S
C1161 C1160 1.264 . S
C1161 C1163 1.339 . S
C1161 H1188 0.931 . S
C1162 C1163 1.395 . S
C1162 C1164 1.320 . S
C1163 C1161 1.339 . S
C1163 C1162 1.395 . S
C1163 H1189 0.929 . S
C1164 C1162 1.320 . S
C1164 C1165 1.405 . S
C1164 H1190 0.930 . S
C1165 C1160 1.479 . S
C1165 C1164 1.405 . S
C1165 H1191 0.931 . S
U1166 O1167 2.454 . S
U1166 O1168 2.458 . S
U1166 C1169 2.984 . S
U1166 C1170 2.847 . S
U1166 C1183 2.882 . S
U1166 O1184 2.441 . S
U1166 O1185 2.420 . S
U1166 O1186 2.455 . S
U1166 O1187 2.449 . S
O1167 U1166 2.454 . S
O1167 C1169 1.353 . S
O1168 U1166 2.458 . S
O1168 C1169 1.286 . S
C1169 U1166 2.984 . S
C1169 O1167 1.353 . S
C1169 O1168 1.286 . S
C1169 C1171 1.363 . S
C1170 C1160 1.465 . S
C1170 U1166 2.847 . S
C1170 O1184 1.249 . S
C1170 O1185 1.202 . S
C1171 C1169 1.363 . S
C1171 C1173 1.408 . S
C1171 C1176 1.342 . S
C1172 C1173 1.310 . S
C1172 C1175 1.461 . S
C1172 H1192 0.932 . S
C1173 C1171 1.408 . S
C1173 C1172 1.310 . S
C1173 H1193 0.930 . S
C1174 C1175 1.474 . S
C1174 C1176 1.285 . S
C1174 H1194 0.929 . S
C1175 C1172 1.461 . S
C1175 C1174 1.474 . S
C1176 C1171 1.342 . S
C1176 C1174 1.285 . S
C1176 H1195 0.930 . S
C1177 C1180 1.424 . S
C1177 C1182 1.245 . S
C1177 C1183 1.428 . S
C1178 C1181 1.260 . S
C1178 C1182 1.477 . S
C1178 H1196 0.932 . S
C1179 C1180 1.384 . S
C1179 C1181 1.479 . S
C1179 H1197 0.929 . S
C1180 C1177 1.424 . S
C1180 C1179 1.384 . S
C1180 H1198 0.928 . S
C1181 C1178 1.260 . S
C1181 C1179 1.479 . S
C1182 C1177 1.245 . S
C1182 C1178 1.477 . S
C1182 H1199 0.932 . S
C1183 U1166 2.882 . S
C1183 C1177 1.428 . S
C1183 O1186 1.301 . S
C1183 O1187 1.282 . S
O1184 U1166 2.441 . S
O1184 C1170 1.249 . S
O1185 U1166 2.420 . S
O1185 C1170 1.202 . S
O1186 U1166 2.455 . S
O1186 C1183 1.301 . S
O1187 U1166 2.449 . S
O1187 C1183 1.282 . S
H1188 C1161 0.931 . S
H1189 C1163 0.929 . S
H1190 C1164 0.930 . S
H1191 C1165 0.931 . S
H1192 C1172 0.932 . S
H1193 C1173 0.930 . S
H1194 C1174 0.929 . S
H1195 C1176 0.930 . S
H1196 C1178 0.932 . S
H1197 C1179 0.929 . S
H1198 C1180 0.928 . S
H1199 C1182 0.932 . S
C1200 C1201 1.264 . S
C1200 C1205 1.479 . S
C1200 C1210 1.465 . S
C1201 C1200 1.264 . S
C1201 C1203 1.339 . S
C1201 H1228 0.931 . S
C1202 C1203 1.395 . S
C1202 C1204 1.320 . S
C1203 C1201 1.339 . S
C1203 C1202 1.395 . S
C1203 H1229 0.929 . S
C1204 C1202 1.320 . S
C1204 C1205 1.405 . S
C1204 H1230 0.930 . S
C1205 C1200 1.479 . S
C1205 C1204 1.405 . S
C1205 H1231 0.931 . S
U1206 O1207 2.454 . S
U1206 O1208 2.458 . S
U1206 C1209 2.984 . S
U1206 C1210 2.847 . S
U1206 C1223 2.882 . S
U1206 O1224 2.441 . S
U1206 O1225 2.420 . S
U1206 O1226 2.455 . S
U1206 O1227 2.449 . S
O1207 U1206 2.454 . S
O1207 C1209 1.353 . S
O1208 U1206 2.458 . S
O1208 C1209 1.286 . S
C1209 U1206 2.984 . S
C1209 O1207 1.353 . S
C1209 O1208 1.286 . S
C1209 C1211 1.363 . S
C1210 C1200 1.465 . S
C1210 U1206 2.847 . S
C1210 O1224 1.249 . S
C1210 O1225 1.202 . S
C1211 C1209 1.363 . S
C1211 C1213 1.408 . S
C1211 C1216 1.342 . S
C1212 C1213 1.310 . S
C1212 C1215 1.461 . S
C1212 H1232 0.932 . S
C1213 C1211 1.408 . S
C1213 C1212 1.310 . S
C1213 H1233 0.930 . S
C1214 C1215 1.474 . S
C1214 C1216 1.285 . S
C1214 H1234 0.929 . S
C1215 C1212 1.461 . S
C1215 C1214 1.474 . S
C1216 C1211 1.342 . S
C1216 C1214 1.285 . S
C1216 H1235 0.930 . S
C1217 C1220 1.424 . S
C1217 C1222 1.245 . S
C1217 C1223 1.428 . S
C1218 C1221 1.260 . S
C1218 C1222 1.477 . S
C1218 H1236 0.932 . S
C1219 C1220 1.384 . S
C1219 C1221 1.479 . S
C1219 H1237 0.929 . S
C1220 C1217 1.424 . S
C1220 C1219 1.384 . S
C1220 H1238 0.928 . S
C1221 C1218 1.260 . S
C1221 C1219 1.479 . S
C1222 C1217 1.245 . S
C1222 C1218 1.477 . S
C1222 H1239 0.932 . S
C1223 U1206 2.882 . S
C1223 C1217 1.428 . S
C1223 O1226 1.301 . S
C1223 O1227 1.282 . S
O1224 U1206 2.441 . S
O1224 C1210 1.249 . S
O1225 U1206 2.420 . S
O1225 C1210 1.202 . S
O1226 U1206 2.455 . S
O1226 C1223 1.301 . S
O1227 U1206 2.449 . S
O1227 C1223 1.282 . S
H1228 C1201 0.931 . S
H1229 C1203 0.929 . S
H1230 C1204 0.930 . S
H1231 C1205 0.931 . S
H1232 C1212 0.932 . S
H1233 C1213 0.930 . S
H1234 C1214 0.929 . S
H1235 C1216 0.930 . S
H1236 C1218 0.932 . S
H1237 C1219 0.929 . S
H1238 C1220 0.928 . S
H1239 C1222 0.932 . S
C1240 C1241 1.264 . S
C1240 C1245 1.479 . S
C1240 C1250 1.465 . S
C1241 C1240 1.264 . S
C1241 C1243 1.339 . S
C1241 H1268 0.931 . S
C1242 C1243 1.395 . S
C1242 C1244 1.320 . S
C1243 C1241 1.339 . S
C1243 C1242 1.395 . S
C1243 H1269 0.929 . S
C1244 C1242 1.320 . S
C1244 C1245 1.405 . S
C1244 H1270 0.930 . S
C1245 C1240 1.479 . S
C1245 C1244 1.405 . S
C1245 H1271 0.931 . S
U1246 O1247 2.454 . S
U1246 O1248 2.458 . S
U1246 C1249 2.984 . S
U1246 C1250 2.847 . S
U1246 C1263 2.882 . S
U1246 O1264 2.441 . S
U1246 O1265 2.420 . S
U1246 O1266 2.455 . S
U1246 O1267 2.449 . S
O1247 U1246 2.454 . S
O1247 C1249 1.353 . S
O1248 U1246 2.458 . S
O1248 C1249 1.286 . S
C1249 U1246 2.984 . S
C1249 O1247 1.353 . S
C1249 O1248 1.286 . S
C1249 C1251 1.363 . S
C1250 C1240 1.465 . S
C1250 U1246 2.847 . S
C1250 O1264 1.249 . S
C1250 O1265 1.202 . S
C1251 C1249 1.363 . S
C1251 C1253 1.408 . S
C1251 C1256 1.342 . S
C1252 C1253 1.310 . S
C1252 C1255 1.461 . S
C1252 H1272 0.932 . S
C1253 C1251 1.408 . S
C1253 C1252 1.310 . S
C1253 H1273 0.930 . S
C1254 C1255 1.474 . S
C1254 C1256 1.285 . S
C1254 H1274 0.929 . S
C1255 C1252 1.461 . S
C1255 C1254 1.474 . S
C1256 C1251 1.342 . S
C1256 C1254 1.285 . S
C1256 H1275 0.930 . S
C1257 C1260 1.424 . S
C1257 C1262 1.245 . S
C1257 C1263 1.428 . S
C1258 C1261 1.260 . S
C1258 C1262 1.477 . S
C1258 H1276 0.932 . S
C1259 C1260 1.384 . S
C1259 C1261 1.479 . S
C1259 H1277 0.929 . S
C1260 C1257 1.424 . S
C1260 C1259 1.384 . S
C1260 H1278 0.928 . S
C1261 C1258 1.260 . S
C1261 C1259 1.479 . S
C1262 C1257 1.245 . S
C1262 C1258 1.477 . S
C1262 H1279 0.932 . S
C1263 U1246 2.882 . S
C1263 C1257 1.428 . S
C1263 O1266 1.301 . S
C1263 O1267 1.282 . S
O1264 U1246 2.441 . S
O1264 C1250 1.249 . S
O1265 U1246 2.420 . S
O1265 C1250 1.202 . S
O1266 U1246 2.455 . S
O1266 C1263 1.301 . S
O1267 U1246 2.449 . S
O1267 C1263 1.282 . S
H1268 C1241 0.931 . S
H1269 C1243 0.929 . S
H1270 C1244 0.930 . S
H1271 C1245 0.931 . S
H1272 C1252 0.932 . S
H1273 C1253 0.930 . S
H1274 C1254 0.929 . S
H1275 C1256 0.930 . S
H1276 C1258 0.932 . S
H1277 C1259 0.929 . S
H1278 C1260 0.928 . S
H1279 C1262 0.932 . S
C1280 C1281 1.264 . S
C1280 C1285 1.479 . S
C1280 C1290 1.465 . S
C1281 C1280 1.264 . S
C1281 C1283 1.339 . S
C1281 H1308 0.931 . S
C1282 C1283 1.395 . S
C1282 C1284 1.320 . S
C1283 C1281 1.339 . S
C1283 C1282 1.395 . S
C1283 H1309 0.929 . S
C1284 C1282 1.320 . S
C1284 C1285 1.405 . S
C1284 H1310 0.930 . S
C1285 C1280 1.479 . S
C1285 C1284 1.405 . S
C1285 H1311 0.931 . S
U1286 O1287 2.454 . S
U1286 O1288 2.458 . S
U1286 C1289 2.984 . S
U1286 C1290 2.847 . S
U1286 C1303 2.882 . S
U1286 O1304 2.441 . S
U1286 O1305 2.420 . S
U1286 O1306 2.455 . S
U1286 O1307 2.449 . S
O1287 U1286 2.454 . S
O1287 C1289 1.353 . S
O1288 U1286 2.458 . S
O1288 C1289 1.286 . S
C1289 U1286 2.984 . S
C1289 O1287 1.353 . S
C1289 O1288 1.286 . S
C1289 C1291 1.363 . S
C1290 C1280 1.465 . S
C1290 U1286 2.847 . S
C1290 O1304 1.249 . S
C1290 O1305 1.202 . S
C1291 C1289 1.363 . S
C1291 C1293 1.408 . S
C1291 C1296 1.342 . S
C1292 C1293 1.310 . S
C1292 C1295 1.461 . S
C1292 H1312 0.932 . S
C1293 C1291 1.408 . S
C1293 C1292 1.310 . S
C1293 H1313 0.930 . S
C1294 C1295 1.474 . S
C1294 C1296 1.285 . S
C1294 H1314 0.929 . S
C1295 C1292 1.461 . S
C1295 C1294 1.474 . S
C1296 C1291 1.342 . S
C1296 C1294 1.285 . S
C1296 H1315 0.930 . S
C1297 C1300 1.424 . S
C1297 C1302 1.245 . S
C1297 C1303 1.428 . S
C1298 C1301 1.260 . S
C1298 C1302 1.477 . S
C1298 H1316 0.932 . S
C1299 C1300 1.384 . S
C1299 C1301 1.479 . S
C1299 H1317 0.929 . S
C1300 C1297 1.424 . S
C1300 C1299 1.384 . S
C1300 H1318 0.928 . S
C1301 C1298 1.260 . S
C1301 C1299 1.479 . S
C1302 C1297 1.245 . S
C1302 C1298 1.477 . S
C1302 H1319 0.932 . S
C1303 U1286 2.882 . S
C1303 C1297 1.428 . S
C1303 O1306 1.301 . S
C1303 O1307 1.282 . S
O1304 U1286 2.441 . S
O1304 C1290 1.249 . S
O1305 U1286 2.420 . S
O1305 C1290 1.202 . S
O1306 U1286 2.455 . S
O1306 C1303 1.301 . S
O1307 U1286 2.449 . S
O1307 C1303 1.282 . S
H1308 C1281 0.931 . S
H1309 C1283 0.929 . S
H1310 C1284 0.930 . S
H1311 C1285 0.931 . S
H1312 C1292 0.932 . S
H1313 C1293 0.930 . S
H1314 C1294 0.929 . S
H1315 C1296 0.930 . S
H1316 C1298 0.932 . S
H1317 C1299 0.929 . S
H1318 C1300 0.928 . S
H1319 C1302 0.932 . S
C1320 C1321 1.264 . S
C1320 C1325 1.479 . S
C1320 C1330 1.465 . S
C1321 C1320 1.264 . S
C1321 C1323 1.339 . S
C1321 H1348 0.931 . S
C1322 C1323 1.395 . S
C1322 C1324 1.320 . S
C1323 C1321 1.339 . S
C1323 C1322 1.395 . S
C1323 H1349 0.929 . S
C1324 C1322 1.320 . S
C1324 C1325 1.405 . S
C1324 H1350 0.930 . S
C1325 C1320 1.479 . S
C1325 C1324 1.405 . S
C1325 H1351 0.931 . S
U1326 O1327 2.454 . S
U1326 O1328 2.458 . S
U1326 C1329 2.984 . S
U1326 C1330 2.847 . S
U1326 C1343 2.882 . S
U1326 O1344 2.441 . S
U1326 O1345 2.420 . S
U1326 O1346 2.455 . S
U1326 O1347 2.449 . S
O1327 U1326 2.454 . S
O1327 C1329 1.353 . S
O1328 U1326 2.458 . S
O1328 C1329 1.286 . S
C1329 U1326 2.984 . S
C1329 O1327 1.353 . S
C1329 O1328 1.286 . S
C1329 C1331 1.363 . S
C1330 C1320 1.465 . S
C1330 U1326 2.847 . S
C1330 O1344 1.249 . S
C1330 O1345 1.202 . S
C1331 C1329 1.363 . S
C1331 C1333 1.408 . S
C1331 C1336 1.342 . S
C1332 C1333 1.310 . S
C1332 C1335 1.461 . S
C1332 H1352 0.932 . S
C1333 C1331 1.408 . S
C1333 C1332 1.310 . S
C1333 H1353 0.930 . S
C1334 C1335 1.474 . S
C1334 C1336 1.285 . S
C1334 H1354 0.929 . S
C1335 C1332 1.461 . S
C1335 C1334 1.474 . S
C1336 C1331 1.342 . S
C1336 C1334 1.285 . S
C1336 H1355 0.930 . S
C1337 C1340 1.424 . S
C1337 C1342 1.245 . S
C1337 C1343 1.428 . S
C1338 C1341 1.260 . S
C1338 C1342 1.477 . S
C1338 H1356 0.932 . S
C1339 C1340 1.384 . S
C1339 C1341 1.479 . S
C1339 H1357 0.929 . S
C1340 C1337 1.424 . S
C1340 C1339 1.384 . S
C1340 H1358 0.928 . S
C1341 C1338 1.260 . S
C1341 C1339 1.479 . S
C1342 C1337 1.245 . S
C1342 C1338 1.477 . S
C1342 H1359 0.932 . S
C1343 U1326 2.882 . S
C1343 C1337 1.428 . S
C1343 O1346 1.301 . S
C1343 O1347 1.282 . S
O1344 U1326 2.441 . S
O1344 C1330 1.249 . S
O1345 U1326 2.420 . S
O1345 C1330 1.202 . S
O1346 U1326 2.455 . S
O1346 C1343 1.301 . S
O1347 U1326 2.449 . S
O1347 C1343 1.282 . S
H1348 C1321 0.931 . S
H1349 C1323 0.929 . S
H1350 C1324 0.930 . S
H1351 C1325 0.931 . S
H1352 C1332 0.932 . S
H1353 C1333 0.930 . S
H1354 C1334 0.929 . S
H1355 C1336 0.930 . S
H1356 C1338 0.932 . S
H1357 C1339 0.929 . S
H1358 C1340 0.928 . S
H1359 C1342 0.932 . S
C1360 C1361 1.264 . S
C1360 C1365 1.479 . S
C1360 C1370 1.465 . S
C1361 C1360 1.264 . S
C1361 C1363 1.339 . S
C1361 H1388 0.931 . S
C1362 C1363 1.395 . S
C1362 C1364 1.320 . S
C1363 C1361 1.339 . S
C1363 C1362 1.395 . S
C1363 H1389 0.929 . S
C1364 C1362 1.320 . S
C1364 C1365 1.405 . S
C1364 H1390 0.930 . S
C1365 C1360 1.479 . S
C1365 C1364 1.405 . S
C1365 H1391 0.931 . S
U1366 O1367 2.454 . S
U1366 O1368 2.458 . S
U1366 C1369 2.984 . S
U1366 C1370 2.847 . S
U1366 C1383 2.882 . S
U1366 O1384 2.441 . S
U1366 O1385 2.420 . S
U1366 O1386 2.455 . S
U1366 O1387 2.449 . S
O1367 U1366 2.454 . S
O1367 C1369 1.353 . S
O1368 U1366 2.458 . S
O1368 C1369 1.286 . S
C1369 U1366 2.984 . S
C1369 O1367 1.353 . S
C1369 O1368 1.286 . S
C1369 C1371 1.363 . S
C1370 C1360 1.465 . S
C1370 U1366 2.847 . S
C1370 O1384 1.249 . S
C1370 O1385 1.202 . S
C1371 C1369 1.363 . S
C1371 C1373 1.408 . S
C1371 C1376 1.342 . S
C1372 C1373 1.310 . S
C1372 C1375 1.461 . S
C1372 H1392 0.932 . S
C1373 C1371 1.408 . S
C1373 C1372 1.310 . S
C1373 H1393 0.930 . S
C1374 C1375 1.474 . S
C1374 C1376 1.285 . S
C1374 H1394 0.929 . S
C1375 C1372 1.461 . S
C1375 C1374 1.474 . S
C1376 C1371 1.342 . S
C1376 C1374 1.285 . S
C1376 H1395 0.930 . S
C1377 C1380 1.424 . S
C1377 C1382 1.245 . S
C1377 C1383 1.428 . S
C1378 C1381 1.260 . S
C1378 C1382 1.477 . S
C1378 H1396 0.932 . S
C1379 C1380 1.384 . S
C1379 C1381 1.479 . S
C1379 H1397 0.929 . S
C1380 C1377 1.424 . S
C1380 C1379 1.384 . S
C1380 H1398 0.928 . S
C1381 C1378 1.260 . S
C1381 C1379 1.479 . S
C1382 C1377 1.245 . S
C1382 C1378 1.477 . S
C1382 H1399 0.932 . S
C1383 U1366 2.882 . S
C1383 C1377 1.428 . S
C1383 O1386 1.301 . S
C1383 O1387 1.282 . S
O1384 U1366 2.441 . S
O1384 C1370 1.249 . S
O1385 U1366 2.420 . S
O1385 C1370 1.202 . S
O1386 U1366 2.455 . S
O1386 C1383 1.301 . S
O1387 U1366 2.449 . S
O1387 C1383 1.282 . S
H1388 C1361 0.931 . S
H1389 C1363 0.929 . S
H1390 C1364 0.930 . S
H1391 C1365 0.931 . S
H1392 C1372 0.932 . S
H1393 C1373 0.930 . S
H1394 C1374 0.929 . S
H1395 C1376 0.930 . S
H1396 C1378 0.932 . S
H1397 C1379 0.929 . S
H1398 C1380 0.928 . S
H1399 C1382 0.932 . S
C1400 C1401 1.264 . S
C1400 C1405 1.479 . S
C1400 C1410 1.465 . S
C1401 C1400 1.264 . S
C1401 C1403 1.339 . S
C1401 H1428 0.931 . S
C1402 C1403 1.395 . S
C1402 C1404 1.320 . S
C1403 C1401 1.339 . S
C1403 C1402 1.395 . S
C1403 H1429 0.929 . S
C1404 C1402 1.320 . S
C1404 C1405 1.405 . S
C1404 H1430 0.930 . S
C1405 C1400 1.479 . S
C1405 C1404 1.405 . S
C1405 H1431 0.931 . S
U1406 O1407 2.454 . S
U1406 O1408 2.458 . S
U1406 C1409 2.984 . S
U1406 C1410 2.847 . S
U1406 C1423 2.882 . S
U1406 O1424 2.441 . S
U1406 O1425 2.420 . S
U1406 O1426 2.455 . S
U1406 O1427 2.449 . S
O1407 U1406 2.454 . S
O1407 C1409 1.353 . S
O1408 U1406 2.458 . S
O1408 C1409 1.286 . S
C1409 U1406 2.984 . S
C1409 O1407 1.353 . S
C1409 O1408 1.286 . S
C1409 C1411 1.363 . S
C1410 C1400 1.465 . S
C1410 U1406 2.847 . S
C1410 O1424 1.249 . S
C1410 O1425 1.202 . S
C1411 C1409 1.363 . S
C1411 C1413 1.408 . S
C1411 C1416 1.342 . S
C1412 C1413 1.310 . S
C1412 C1415 1.461 . S
C1412 H1432 0.932 . S
C1413 C1411 1.408 . S
C1413 C1412 1.310 . S
C1413 H1433 0.930 . S
C1414 C1415 1.474 . S
C1414 C1416 1.285 . S
C1414 H1434 0.929 . S
C1415 C1412 1.461 . S
C1415 C1414 1.474 . S
C1416 C1411 1.342 . S
C1416 C1414 1.285 . S
C1416 H1435 0.930 . S
C1417 C1420 1.424 . S
C1417 C1422 1.245 . S
C1417 C1423 1.428 . S
C1418 C1421 1.260 . S
C1418 C1422 1.477 . S
C1418 H1436 0.932 . S
C1419 C1420 1.384 . S
C1419 C1421 1.479 . S
C1419 H1437 0.929 . S
C1420 C1417 1.424 . S
C1420 C1419 1.384 . S
C1420 H1438 0.928 . S
C1421 C1418 1.260 . S
C1421 C1419 1.479 . S
C1422 C1417 1.245 . S
C1422 C1418 1.477 . S
C1422 H1439 0.932 . S
C1423 U1406 2.882 . S
C1423 C1417 1.428 . S
C1423 O1426 1.301 . S
C1423 O1427 1.282 . S
O1424 U1406 2.441 . S
O1424 C1410 1.249 . S
O1425 U1406 2.420 . S
O1425 C1410 1.202 . S
O1426 U1406 2.455 . S
O1426 C1423 1.301 . S
O1427 U1406 2.449 . S
O1427 C1423 1.282 . S
H1428 C1401 0.931 . S
H1429 C1403 0.929 . S
H1430 C1404 0.930 . S
H1431 C1405 0.931 . S
H1432 C1412 0.932 . S
H1433 C1413 0.930 . S
H1434 C1414 0.929 . S
H1435 C1416 0.930 . S
H1436 C1418 0.932 . S
H1437 C1419 0.929 . S
H1438 C1420 0.928 . S
H1439 C1422 0.932 . S
C1440 C1441 1.264 . S
C1440 C1445 1.479 . S
C1440 C1450 1.465 . S
C1441 C1440 1.264 . S
C1441 C1443 1.339 . S
C1441 H1468 0.931 . S
C1442 C1443 1.395 . S
C1442 C1444 1.320 . S
C1443 C1441 1.339 . S
C1443 C1442 1.395 . S
C1443 H1469 0.929 . S
C1444 C1442 1.320 . S
C1444 C1445 1.405 . S
C1444 H1470 0.930 . S
C1445 C1440 1.479 . S
C1445 C1444 1.405 . S
C1445 H1471 0.931 . S
U1446 O1447 2.454 . S
U1446 O1448 2.458 . S
U1446 C1449 2.984 . S
U1446 C1450 2.847 . S
U1446 C1463 2.882 . S
U1446 O1464 2.441 . S
U1446 O1465 2.420 . S
U1446 O1466 2.455 . S
U1446 O1467 2.449 . S
O1447 U1446 2.454 . S
O1447 C1449 1.353 . S
O1448 U1446 2.458 . S
O1448 C1449 1.286 . S
C1449 U1446 2.984 . S
C1449 O1447 1.353 . S
C1449 O1448 1.286 . S
C1449 C1451 1.363 . S
C1450 C1440 1.465 . S
C1450 U1446 2.847 . S
C1450 O1464 1.249 . S
C1450 O1465 1.202 . S
C1451 C1449 1.363 . S
C1451 C1453 1.408 . S
C1451 C1456 1.342 . S
C1452 C1453 1.310 . S
C1452 C1455 1.461 . S
C1452 H1472 0.932 . S
C1453 C1451 1.408 . S
C1453 C1452 1.310 . S
C1453 H1473 0.930 . S
C1454 C1455 1.474 . S
C1454 C1456 1.285 . S
C1454 H1474 0.929 . S
C1455 C1452 1.461 . S
C1455 C1454 1.474 . S
C1456 C1451 1.342 . S
C1456 C1454 1.285 . S
C1456 H1475 0.930 . S
C1457 C1460 1.424 . S
C1457 C1462 1.245 . S
C1457 C1463 1.428 . S
C1458 C1461 1.260 . S
C1458 C1462 1.477 . S
C1458 H1476 0.932 . S
C1459 C1460 1.384 . S
C1459 C1461 1.479 . S
C1459 H1477 0.929 . S
C1460 C1457 1.424 . S
C1460 C1459 1.384 . S
C1460 H1478 0.928 . S
C1461 C1458 1.260 . S
C1461 C1459 1.479 . S
C1462 C1457 1.245 . S
C1462 C1458 1.477 . S
C1462 H1479 0.932 . S
C1463 U1446 2.882 . S
C1463 C1457 1.428 . S
C1463 O1466 1.301 . S
C1463 O1467 1.282 . S
O1464 U1446 2.441 . S
O1464 C1450 1.249 . S
O1465 U1446 2.420 . S
O1465 C1450 1.202 . S
O1466 U1446 2.455 . S
O1466 C1463 1.301 . S
O1467 U1446 2.449 . S
O1467 C1463 1.282 . S
H1468 C1441 0.931 . S
H1469 C1443 0.929 . S
H1470 C1444 0.930 . S
H1471 C1445 0.931 . S
H1472 C1452 0.932 . S
H1473 C1453 0.930 . S
H1474 C1454 0.929 . S
H1475 C1456 0.930 . S
H1476 C1458 0.932 . S
H1477 C1459 0.929 . S
H1478 C1460 0.928 . S
H1479 C1462 0.932 . S
C1480 C1481 1.264 . S
C1480 C1485 1.479 . S
C1480 C1490 1.465 . S
C1481 C1480 1.264 . S
C1481 C1483 1.339 . S
C1481 H1508 0.931 . S
C1482 C1483 1.395 . S
C1482 C1484 1.320 . S
C1483 C1481 1.339 . S
C1483 C1482 1.395 . S
C1483 H1509 0.929 . S
C1484 C1482 1.320 . S
C1484 C1485 1.405 . S
C1484 H1510 0.930 . S
C1485 C1480 1.479 . S
C1485 C1484 1.405 . S
C1485 H1511 0.931 . S
U1486 O1487 2.454 . S
U1486 O1488 2.458 . S
U1486 C1489 2.984 . S
U1486 C1490 2.847 . S
U1486 C1503 2.882 . S
U1486 O1504 2.441 . S
U1486 O1505 2.420 . S
U1486 O1506 2.455 . S
U1486 O1507 2.449 . S
O1487 U1486 2.454 . S
O1487 C1489 1.353 . S
O1488 U1486 2.458 . S
O1488 C1489 1.286 . S
C1489 U1486 2.984 . S
C1489 O1487 1.353 . S
C1489 O1488 1.286 . S
C1489 C1491 1.363 . S
C1490 C1480 1.465 . S
C1490 U1486 2.847 . S
C1490 O1504 1.249 . S
C1490 O1505 1.202 . S
C1491 C1489 1.363 . S
C1491 C1493 1.408 . S
C1491 C1496 1.342 . S
C1492 C1493 1.310 . S
C1492 C1495 1.461 . S
C1492 H1512 0.932 . S
C1493 C1491 1.408 . S
C1493 C1492 1.310 . S
C1493 H1513 0.930 . S
C1494 C1495 1.474 . S
C1494 C1496 1.285 . S
C1494 H1514 0.929 . S
C1495 C1492 1.461 . S
C1495 C1494 1.474 . S
C1496 C1491 1.342 . S
C1496 C1494 1.285 . S
C1496 H1515 0.930 . S
C1497 C1500 1.424 . S
C1497 C1502 1.245 . S
C1497 C1503 1.428 . S
C1498 C1501 1.260 . S
C1498 C1502 1.477 . S
C1498 H1516 0.932 . S
C1499 C1500 1.384 . S
C1499 C1501 1.479 . S
C1499 H1517 0.929 . S
C1500 C1497 1.424 . S
C1500 C1499 1.384 . S
C1500 H1518 0.928 . S
C1501 C1498 1.260 . S
C1501 C1499 1.479 . S
C1502 C1497 1.245 . S
C1502 C1498 1.477 . S
C1502 H1519 0.932 . S
C1503 U1486 2.882 . S
C1503 C1497 1.428 . S
C1503 O1506 1.301 . S
C1503 O1507 1.282 . S
O1504 U1486 2.441 . S
O1504 C1490 1.249 . S
O1505 U1486 2.420 . S
O1505 C1490 1.202 . S
O1506 U1486 2.455 . S
O1506 C1503 1.301 . S
O1507 U1486 2.449 . S
O1507 C1503 1.282 . S
H1508 C1481 0.931 . S
H1509 C1483 0.929 . S
H1510 C1484 0.930 . S
H1511 C1485 0.931 . S
H1512 C1492 0.932 . S
H1513 C1493 0.930 . S
H1514 C1494 0.929 . S
H1515 C1496 0.930 . S
H1516 C1498 0.932 . S
H1517 C1499 0.929 . S
H1518 C1500 0.928 . S
H1519 C1502 0.932 . S
C1520 C1521 1.264 . S
C1520 C1525 1.479 . S
C1520 C1530 1.465 . S
C1521 C1520 1.264 . S
C1521 C1523 1.339 . S
C1521 H1548 0.931 . S
C1522 C1523 1.395 . S
C1522 C1524 1.320 . S
C1523 C1521 1.339 . S
C1523 C1522 1.395 . S
C1523 H1549 0.929 . S
C1524 C1522 1.320 . S
C1524 C1525 1.405 . S
C1524 H1550 0.930 . S
C1525 C1520 1.479 . S
C1525 C1524 1.405 . S
C1525 H1551 0.931 . S
U1526 O1527 2.454 . S
U1526 O1528 2.458 . S
U1526 C1529 2.984 . S
U1526 C1530 2.847 . S
U1526 C1543 2.882 . S
U1526 O1544 2.441 . S
U1526 O1545 2.420 . S
U1526 O1546 2.455 . S
U1526 O1547 2.449 . S
O1527 U1526 2.454 . S
O1527 C1529 1.353 . S
O1528 U1526 2.458 . S
O1528 C1529 1.286 . S
C1529 U1526 2.984 . S
C1529 O1527 1.353 . S
C1529 O1528 1.286 . S
C1529 C1531 1.363 . S
C1530 C1520 1.465 . S
C1530 U1526 2.847 . S
C1530 O1544 1.249 . S
C1530 O1545 1.202 . S
C1531 C1529 1.363 . S
C1531 C1533 1.408 . S
C1531 C1536 1.342 . S
C1532 C1533 1.310 . S
C1532 C1535 1.461 . S
C1532 H1552 0.932 . S
C1533 C1531 1.408 . S
C1533 C1532 1.310 . S
C1533 H1553 0.930 . S
C1534 C1535 1.474 . S
C1534 C1536 1.285 . S
C1534 H1554 0.929 . S
C1535 C1532 1.461 . S
C1535 C1534 1.474 . S
C1536 C1531 1.342 . S
C1536 C1534 1.285 . S
C1536 H1555 0.930 . S
C1537 C1540 1.424 . S
C1537 C1542 1.245 . S
C1537 C1543 1.428 . S
C1538 C1541 1.260 . S
C1538 C1542 1.477 . S
C1538 H1556 0.932 . S
C1539 C1540 1.384 . S
C1539 C1541 1.479 . S
C1539 H1557 0.929 . S
C1540 C1537 1.424 . S
C1540 C1539 1.384 . S
C1540 H1558 0.928 . S
C1541 C1538 1.260 . S
C1541 C1539 1.479 . S
C1542 C1537 1.245 . S
C1542 C1538 1.477 . S
C1542 H1559 0.932 . S
C1543 U1526 2.882 . S
C1543 C1537 1.428 . S
C1543 O1546 1.301 . S
C1543 O1547 1.282 . S
O1544 U1526 2.441 . S
O1544 C1530 1.249 . S
O1545 U1526 2.420 . S
O1545 C1530 1.202 . S
O1546 U1526 2.455 . S
O1546 C1543 1.301 . S
O1547 U1526 2.449 . S
O1547 C1543 1.282 . S
H1548 C1521 0.931 . S
H1549 C1523 0.929 . S
H1550 C1524 0.930 . S
H1551 C1525 0.931 . S
H1552 C1532 0.932 . S
H1553 C1533 0.930 . S
H1554 C1534 0.929 . S
H1555 C1536 0.930 . S
H1556 C1538 0.932 . S
H1557 C1539 0.929 . S
H1558 C1540 0.928 . S
H1559 C1542 0.932 . S
C1560 C1561 1.264 . S
C1560 C1565 1.479 . S
C1560 C1570 1.465 . S
C1561 C1560 1.264 . S
C1561 C1563 1.339 . S
C1561 H1588 0.931 . S
C1562 C1563 1.395 . S
C1562 C1564 1.320 . S
C1563 C1561 1.339 . S
C1563 C1562 1.395 . S
C1563 H1589 0.929 . S
C1564 C1562 1.320 . S
C1564 C1565 1.405 . S
C1564 H1590 0.930 . S
C1565 C1560 1.479 . S
C1565 C1564 1.405 . S
C1565 H1591 0.931 . S
U1566 O1567 2.454 . S
U1566 O1568 2.458 . S
U1566 C1569 2.984 . S
U1566 C1570 2.847 . S
U1566 C1583 2.882 . S
U1566 O1584 2.441 . S
U1566 O1585 2.420 . S
U1566 O1586 2.455 . S
U1566 O1587 2.449 . S
O1567 U1566 2.454 . S
O1567 C1569 1.353 . S
O1568 U1566 2.458 . S
O1568 C1569 1.286 . S
C1569 U1566 2.984 . S
C1569 O1567 1.353 . S
C1569 O1568 1.286 . S
C1569 C1571 1.363 . S
C1570 C1560 1.465 . S
C1570 U1566 2.847 . S
C1570 O1584 1.249 . S
C1570 O1585 1.202 . S
C1571 C1569 1.363 . S
C1571 C1573 1.408 . S
C1571 C1576 1.342 . S
C1572 C1573 1.310 . S
C1572 C1575 1.461 . S
C1572 H1592 0.932 . S
C1573 C1571 1.408 . S
C1573 C1572 1.310 . S
C1573 H1593 0.930 . S
C1574 C1575 1.474 . S
C1574 C1576 1.285 . S
C1574 H1594 0.929 . S
C1575 C1572 1.461 . S
C1575 C1574 1.474 . S
C1576 C1571 1.342 . S
C1576 C1574 1.285 . S
C1576 H1595 0.930 . S
C1577 C1580 1.424 . S
C1577 C1582 1.245 . S
C1577 C1583 1.428 . S
C1578 C1581 1.260 . S
C1578 C1582 1.477 . S
C1578 H1596 0.932 . S
C1579 C1580 1.384 . S
C1579 C1581 1.479 . S
C1579 H1597 0.929 . S
C1580 C1577 1.424 . S
C1580 C1579 1.384 . S
C1580 H1598 0.928 . S
C1581 C1578 1.260 . S
C1581 C1579 1.479 . S
C1582 C1577 1.245 . S
C1582 C1578 1.477 . S
C1582 H1599 0.932 . S
C1583 U1566 2.882 . S
C1583 C1577 1.428 . S
C1583 O1586 1.301 . S
C1583 O1587 1.282 . S
O1584 U1566 2.441 . S
O1584 C1570 1.249 . S
O1585 U1566 2.420 . S
O1585 C1570 1.202 . S
O1586 U1566 2.455 . S
O1586 C1583 1.301 . S
O1587 U1566 2.449 . S
O1587 C1583 1.282 . S
H1588 C1561 0.931 . S
H1589 C1563 0.929 . S
H1590 C1564 0.930 . S
H1591 C1565 0.931 . S
H1592 C1572 0.932 . S
H1593 C1573 0.930 . S
H1594 C1574 0.929 . S
H1595 C1576 0.930 . S
H1596 C1578 0.932 . S
H1597 C1579 0.929 . S
H1598 C1580 0.928 . S
H1599 C1582 0.932 . S
C1600 C1601 1.264 . S
C1600 C1605 1.479 . S
C1600 C1610 1.465 . S
C1601 C1600 1.264 . S
C1601 C1603 1.339 . S
C1601 H1628 0.931 . S
C1602 C1603 1.395 . S
C1602 C1604 1.320 . S
C1603 C1601 1.339 . S
C1603 C1602 1.395 . S
C1603 H1629 0.929 . S
C1604 C1602 1.320 . S
C1604 C1605 1.405 . S
C1604 H1630 0.930 . S
C1605 C1600 1.479 . S
C1605 C1604 1.405 . S
C1605 H1631 0.931 . S
U1606 O1607 2.454 . S
U1606 O1608 2.458 . S
U1606 C1609 2.984 . S
U1606 C1610 2.847 . S
U1606 C1623 2.882 . S
U1606 O1624 2.441 . S
U1606 O1625 2.420 . S
U1606 O1626 2.455 . S
U1606 O1627 2.449 . S
O1607 U1606 2.454 . S
O1607 C1609 1.353 . S
O1608 U1606 2.458 . S
O1608 C1609 1.286 . S
C1609 U1606 2.984 . S
C1609 O1607 1.353 . S
C1609 O1608 1.286 . S
C1609 C1611 1.363 . S
C1610 C1600 1.465 . S
C1610 U1606 2.847 . S
C1610 O1624 1.249 . S
C1610 O1625 1.202 . S
C1611 C1609 1.363 . S
C1611 C1613 1.408 . S
C1611 C1616 1.342 . S
C1612 C1613 1.310 . S
C1612 C1615 1.461 . S
C1612 H1632 0.932 . S
C1613 C1611 1.408 . S
C1613 C1612 1.310 . S
C1613 H1633 0.930 . S
C1614 C1615 1.474 . S
C1614 C1616 1.285 . S
C1614 H1634 0.929 . S
C1615 C1612 1.461 . S
C1615 C1614 1.474 . S
C1616 C1611 1.342 . S
C1616 C1614 1.285 . S
C1616 H1635 0.930 . S
C1617 C1620 1.424 . S
C1617 C1622 1.245 . S
C1617 C1623 1.428 . S
C1618 C1621 1.260 . S
C1618 C1622 1.477 . S
C1618 H1636 0.932 . S
C1619 C1620 1.384 . S
C1619 C1621 1.479 . S
C1619 H1637 0.929 . S
C1620 C1617 1.424 . S
C1620 C1619 1.384 . S
C1620 H1638 0.928 . S
C1621 C1618 1.260 . S
C1621 C1619 1.479 . S
C1622 C1617 1.245 . S
C1622 C1618 1.477 . S
C1622 H1639 0.932 . S
C1623 U1606 2.882 . S
C1623 C1617 1.428 . S
C1623 O1626 1.301 . S
C1623 O1627 1.282 . S
O1624 U1606 2.441 . S
O1624 C1610 1.249 . S
O1625 U1606 2.420 . S
O1625 C1610 1.202 . S
O1626 U1606 2.455 . S
O1626 C1623 1.301 . S
O1627 U1606 2.449 . S
O1627 C1623 1.282 . S
H1628 C1601 0.931 . S
H1629 C1603 0.929 . S
H1630 C1604 0.930 . S
H1631 C1605 0.931 . S
H1632 C1612 0.932 . S
H1633 C1613 0.930 . S
H1634 C1614 0.929 . S
H1635 C1616 0.930 . S
H1636 C1618 0.932 . S
H1637 C1619 0.929 . S
H1638 C1620 0.928 . S
H1639 C1622 0.932 . S
C1640 C1641 1.264 . S
C1640 C1645 1.479 . S
C1640 C1650 1.465 . S
C1641 C1640 1.264 . S
C1641 C1643 1.339 . S
C1641 H1668 0.931 . S
C1642 C1643 1.395 . S
C1642 C1644 1.320 . S
C1643 C1641 1.339 . S
C1643 C1642 1.395 . S
C1643 H1669 0.929 . S
C1644 C1642 1.320 . S
C1644 C1645 1.405 . S
C1644 H1670 0.930 . S
C1645 C1640 1.479 . S
C1645 C1644 1.405 . S
C1645 H1671 0.931 . S
U1646 O1647 2.454 . S
U1646 O1648 2.458 . S
U1646 C1649 2.984 . S
U1646 C1650 2.847 . S
U1646 C1663 2.882 . S
U1646 O1664 2.441 . S
U1646 O1665 2.420 . S
U1646 O1666 2.455 . S
U1646 O1667 2.449 . S
O1647 U1646 2.454 . S
O1647 C1649 1.353 . S
O1648 U1646 2.458 . S
O1648 C1649 1.286 . S
C1649 U1646 2.984 . S
C1649 O1647 1.353 . S
C1649 O1648 1.286 . S
C1649 C1651 1.363 . S
C1650 C1640 1.465 . S
C1650 U1646 2.847 . S
C1650 O1664 1.249 . S
C1650 O1665 1.202 . S
C1651 C1649 1.363 . S
C1651 C1653 1.408 . S
C1651 C1656 1.342 . S
C1652 C1653 1.310 . S
C1652 C1655 1.461 . S
C1652 H1672 0.932 . S
C1653 C1651 1.408 . S
C1653 C1652 1.310 . S
C1653 H1673 0.930 . S
C1654 C1655 1.474 . S
C1654 C1656 1.285 . S
C1654 H1674 0.929 . S
C1655 C1652 1.461 . S
C1655 C1654 1.474 . S
C1656 C1651 1.342 . S
C1656 C1654 1.285 . S
C1656 H1675 0.930 . S
C1657 C1660 1.424 . S
C1657 C1662 1.245 . S
C1657 C1663 1.428 . S
C1658 C1661 1.260 . S
C1658 C1662 1.477 . S
C1658 H1676 0.932 . S
C1659 C1660 1.384 . S
C1659 C1661 1.479 . S
C1659 H1677 0.929 . S
C1660 C1657 1.424 . S
C1660 C1659 1.384 . S
C1660 H1678 0.928 . S
C1661 C1658 1.260 . S
C1661 C1659 1.479 . S
C1662 C1657 1.245 . S
C1662 C1658 1.477 . S
C1662 H1679 0.932 . S
C1663 U1646 2.882 . S
C1663 C1657 1.428 . S
C1663 O1666 1.301 . S
C1663 O1667 1.282 . S
O1664 U1646 2.441 . S
O1664 C1650 1.249 . S
O1665 U1646 2.420 . S
O1665 C1650 1.202 . S
O1666 U1646 2.455 . S
O1666 C1663 1.301 . S
O1667 U1646 2.449 . S
O1667 C1663 1.282 . S
H1668 C1641 0.931 . S
H1669 C1643 0.929 . S
H1670 C1644 0.930 . S
H1671 C1645 0.931 . S
H1672 C1652 0.932 . S
H1673 C1653 0.930 . S
H1674 C1654 0.929 . S
H1675 C1656 0.930 . S
H1676 C1658 0.932 . S
H1677 C1659 0.929 . S
H1678 C1660 0.928 . S
H1679 C1662 0.932 . S
C1680 C1681 1.264 . S
C1680 C1685 1.479 . S
C1680 C1690 1.465 . S
C1681 C1680 1.264 . S
C1681 C1683 1.339 . S
C1681 H1708 0.931 . S
C1682 C1683 1.395 . S
C1682 C1684 1.320 . S
C1683 C1681 1.339 . S
C1683 C1682 1.395 . S
C1683 H1709 0.929 . S
C1684 C1682 1.320 . S
C1684 C1685 1.405 . S
C1684 H1710 0.930 . S
C1685 C1680 1.479 . S
C1685 C1684 1.405 . S
C1685 H1711 0.931 . S
U1686 O1687 2.454 . S
U1686 O1688 2.458 . S
U1686 C1689 2.984 . S
U1686 C1690 2.847 . S
U1686 C1703 2.882 . S
U1686 O1704 2.441 . S
U1686 O1705 2.420 . S
U1686 O1706 2.455 . S
U1686 O1707 2.449 . S
O1687 U1686 2.454 . S
O1687 C1689 1.353 . S
O1688 U1686 2.458 . S
O1688 C1689 1.286 . S
C1689 U1686 2.984 . S
C1689 O1687 1.353 . S
C1689 O1688 1.286 . S
C1689 C1691 1.363 . S
C1690 C1680 1.465 . S
C1690 U1686 2.847 . S
C1690 O1704 1.249 . S
C1690 O1705 1.202 . S
C1691 C1689 1.363 . S
C1691 C1693 1.408 . S
C1691 C1696 1.342 . S
C1692 C1693 1.310 . S
C1692 C1695 1.461 . S
C1692 H1712 0.932 . S
C1693 C1691 1.408 . S
C1693 C1692 1.310 . S
C1693 H1713 0.930 . S
C1694 C1695 1.474 . S
C1694 C1696 1.285 . S
C1694 H1714 0.929 . S
C1695 C1692 1.461 . S
C1695 C1694 1.474 . S
C1696 C1691 1.342 . S
C1696 C1694 1.285 . S
C1696 H1715 0.930 . S
C1697 C1700 1.424 . S
C1697 C1702 1.245 . S
C1697 C1703 1.428 . S
C1698 C1701 1.260 . S
C1698 C1702 1.477 . S
C1698 H1716 0.932 . S
C1699 C1700 1.384 . S
C1699 C1701 1.479 . S
C1699 H1717 0.929 . S
C1700 C1697 1.424 . S
C1700 C1699 1.384 . S
C1700 H1718 0.928 . S
C1701 C1698 1.260 . S
C1701 C1699 1.479 . S
C1702 C1697 1.245 . S
C1702 C1698 1.477 . S
C1702 H1719 0.932 . S
C1703 U1686 2.882 . S
C1703 C1697 1.428 . S
C1703 O1706 1.301 . S
C1703 O1707 1.282 . S
O1704 U1686 2.441 . S
O1704 C1690 1.249 . S
O1705 U1686 2.420 . S
O1705 C1690 1.202 . S
O1706 U1686 2.455 . S
O1706 C1703 1.301 . S
O1707 U1686 2.449 . S
O1707 C1703 1.282 . S
H1708 C1681 0.931 . S
H1709 C1683 0.929 . S
H1710 C1684 0.930 . S
H1711 C1685 0.931 . S
H1712 C1692 0.932 . S
H1713 C1693 0.930 . S
H1714 C1694 0.929 . S
H1715 C1696 0.930 . S
H1716 C1698 0.932 . S
H1717 C1699 0.929 . S
H1718 C1700 0.928 . S
H1719 C1702 0.932 . S
C1720 C1721 1.264 . S
C1720 C1725 1.479 . S
C1720 C1730 1.465 . S
C1721 C1720 1.264 . S
C1721 C1723 1.339 . S
C1721 H1748 0.931 . S
C1722 C1723 1.395 . S
C1722 C1724 1.320 . S
C1723 C1721 1.339 . S
C1723 C1722 1.395 . S
C1723 H1749 0.929 . S
C1724 C1722 1.320 . S
C1724 C1725 1.405 . S
C1724 H1750 0.930 . S
C1725 C1720 1.479 . S
C1725 C1724 1.405 . S
C1725 H1751 0.931 . S
U1726 O1727 2.454 . S
U1726 O1728 2.458 . S
U1726 C1729 2.984 . S
U1726 C1730 2.847 . S
U1726 C1743 2.882 . S
U1726 O1744 2.441 . S
U1726 O1745 2.420 . S
U1726 O1746 2.455 . S
U1726 O1747 2.449 . S
O1727 U1726 2.454 . S
O1727 C1729 1.353 . S
O1728 U1726 2.458 . S
O1728 C1729 1.286 . S
C1729 U1726 2.984 . S
C1729 O1727 1.353 . S
C1729 O1728 1.286 . S
C1729 C1731 1.363 . S
C1730 C1720 1.465 . S
C1730 U1726 2.847 . S
C1730 O1744 1.249 . S
C1730 O1745 1.202 . S
C1731 C1729 1.363 . S
C1731 C1733 1.408 . S
C1731 C1736 1.342 . S
C1732 C1733 1.310 . S
C1732 C1735 1.461 . S
C1732 H1752 0.932 . S
C1733 C1731 1.408 . S
C1733 C1732 1.310 . S
C1733 H1753 0.930 . S
C1734 C1735 1.474 . S
C1734 C1736 1.285 . S
C1734 H1754 0.929 . S
C1735 C1732 1.461 . S
C1735 C1734 1.474 . S
C1736 C1731 1.342 . S
C1736 C1734 1.285 . S
C1736 H1755 0.930 . S
C1737 C1740 1.424 . S
C1737 C1742 1.245 . S
C1737 C1743 1.428 . S
C1738 C1741 1.260 . S
C1738 C1742 1.477 . S
C1738 H1756 0.932 . S
C1739 C1740 1.384 . S
C1739 C1741 1.479 . S
C1739 H1757 0.929 . S
C1740 C1737 1.424 . S
C1740 C1739 1.384 . S
C1740 H1758 0.928 . S
C1741 C1738 1.260 . S
C1741 C1739 1.479 . S
C1742 C1737 1.245 . S
C1742 C1738 1.477 . S
C1742 H1759 0.932 . S
C1743 U1726 2.882 . S
C1743 C1737 1.428 . S
C1743 O1746 1.301 . S
C1743 O1747 1.282 . S
O1744 U1726 2.441 . S
O1744 C1730 1.249 . S
O1745 U1726 2.420 . S
O1745 C1730 1.202 . S
O1746 U1726 2.455 . S
O1746 C1743 1.301 . S
O1747 U1726 2.449 . S
O1747 C1743 1.282 . S
H1748 C1721 0.931 . S
H1749 C1723 0.929 . S
H1750 C1724 0.930 . S
H1751 C1725 0.931 . S
H1752 C1732 0.932 . S
H1753 C1733 0.930 . S
H1754 C1734 0.929 . S
H1755 C1736 0.930 . S
H1756 C1738 0.932 . S
H1757 C1739 0.929 . S
H1758 C1740 0.928 . S
H1759 C1742 0.932 . S
C1760 C1761 1.264 . S
C1760 C1765 1.479 . S
C1760 C1770 1.465 . S
C1761 C1760 1.264 . S
C1761 C1763 1.339 . S
C1761 H1788 0.931 . S
C1762 C1763 1.395 . S
C1762 C1764 1.320 . S
C1763 C1761 1.339 . S
C1763 C1762 1.395 . S
C1763 H1789 0.929 . S
C1764 C1762 1.320 . S
C1764 C1765 1.405 . S
C1764 H1790 0.930 . S
C1765 C1760 1.479 . S
C1765 C1764 1.405 . S
C1765 H1791 0.931 . S
U1766 O1767 2.454 . S
U1766 O1768 2.458 . S
U1766 C1769 2.984 . S
U1766 C1770 2.847 . S
U1766 C1783 2.882 . S
U1766 O1784 2.441 . S
U1766 O1785 2.420 . S
U1766 O1786 2.455 . S
U1766 O1787 2.449 . S
O1767 U1766 2.454 . S
O1767 C1769 1.353 . S
O1768 U1766 2.458 . S
O1768 C1769 1.286 . S
C1769 U1766 2.984 . S
C1769 O1767 1.353 . S
C1769 O1768 1.286 . S
C1769 C1771 1.363 . S
C1770 C1760 1.465 . S
C1770 U1766 2.847 . S
C1770 O1784 1.249 . S
C1770 O1785 1.202 . S
C1771 C1769 1.363 . S
C1771 C1773 1.408 . S
C1771 C1776 1.342 . S
C1772 C1773 1.310 . S
C1772 C1775 1.461 . S
C1772 H1792 0.932 . S
C1773 C1771 1.408 . S
C1773 C1772 1.310 . S
C1773 H1793 0.930 . S
C1774 C1775 1.474 . S
C1774 C1776 1.285 . S
C1774 H1794 0.929 . S
C1775 C1772 1.461 . S
C1775 C1774 1.474 . S
C1776 C1771 1.342 . S
C1776 C1774 1.285 . S
C1776 H1795 0.930 . S
C1777 C1780 1.424 . S
C1777 C1782 1.245 . S
C1777 C1783 1.428 . S
C1778 C1781 1.260 . S
C1778 C1782 1.477 . S
C1778 H1796 0.932 . S
C1779 C1780 1.384 . S
C1779 C1781 1.479 . S
C1779 H1797 0.929 . S
C1780 C1777 1.424 . S
C1780 C1779 1.384 . S
C1780 H1798 0.928 . S
C1781 C1778 1.260 . S
C1781 C1779 1.479 . S
C1782 C1777 1.245 . S
C1782 C1778 1.477 . S
C1782 H1799 0.932 . S
C1783 U1766 2.882 . S
C1783 C1777 1.428 . S
C1783 O1786 1.301 . S
C1783 O1787 1.282 . S
O1784 U1766 2.441 . S
O1784 C1770 1.249 . S
O1785 U1766 2.420 . S
O1785 C1770 1.202 . S
O1786 U1766 2.455 . S
O1786 C1783 1.301 . S
O1787 U1766 2.449 . S
O1787 C1783 1.282 . S
H1788 C1761 0.931 . S
H1789 C1763 0.929 . S
H1790 C1764 0.930 . S
H1791 C1765 0.931 . S
H1792 C1772 0.932 . S
H1793 C1773 0.930 . S
H1794 C1774 0.929 . S
H1795 C1776 0.930 . S
H1796 C1778 0.932 . S
H1797 C1779 0.929 . S
H1798 C1780 0.928 . S
H1799 C1782 0.932 . S
C1800 C1801 1.264 . S
C1800 C1805 1.479 . S
C1800 C1810 1.465 . S
C1801 C1800 1.264 . S
C1801 C1803 1.339 . S
C1801 H1828 0.931 . S
C1802 C1803 1.395 . S
C1802 C1804 1.320 . S
C1803 C1801 1.339 . S
C1803 C1802 1.395 . S
C1803 H1829 0.929 . S
C1804 C1802 1.320 . S
C1804 C1805 1.405 . S
C1804 H1830 0.930 . S
C1805 C1800 1.479 . S
C1805 C1804 1.405 . S
C1805 H1831 0.931 . S
U1806 O1807 2.454 . S
U1806 O1808 2.458 . S
U1806 C1809 2.984 . S
U1806 C1810 2.847 . S
U1806 C1823 2.882 . S
U1806 O1824 2.441 . S
U1806 O1825 2.420 . S
U1806 O1826 2.455 . S
U1806 O1827 2.449 . S
O1807 U1806 2.454 . S
O1807 C1809 1.353 . S
O1808 U1806 2.458 . S
O1808 C1809 1.286 . S
C1809 U1806 2.984 . S
C1809 O1807 1.353 . S
C1809 O1808 1.286 . S
C1809 C1811 1.363 . S
C1810 C1800 1.465 . S
C1810 U1806 2.847 . S
C1810 O1824 1.249 . S
C1810 O1825 1.202 . S
C1811 C1809 1.363 . S
C1811 C1813 1.408 . S
C1811 C1816 1.342 . S
C1812 C1813 1.310 . S
C1812 C1815 1.461 . S
C1812 H1832 0.932 . S
C1813 C1811 1.408 . S
C1813 C1812 1.310 . S
C1813 H1833 0.930 . S
C1814 C1815 1.474 . S
C1814 C1816 1.285 . S
C1814 H1834 0.929 . S
C1815 C1812 1.461 . S
C1815 C1814 1.474 . S
C1816 C1811 1.342 . S
C1816 C1814 1.285 . S
C1816 H1835 0.930 . S
C1817 C1820 1.424 . S
C1817 C1822 1.245 . S
C1817 C1823 1.428 . S
C1818 C1821 1.260 . S
C1818 C1822 1.477 . S
C1818 H1836 0.932 . S
C1819 C1820 1.384 . S
C1819 C1821 1.479 . S
C1819 H1837 0.929 . S
C1820 C1817 1.424 . S
C1820 C1819 1.384 . S
C1820 H1838 0.928 . S
C1821 C1818 1.260 . S
C1821 C1819 1.479 . S
C1822 C1817 1.245 . S
C1822 C1818 1.477 . S
C1822 H1839 0.932 . S
C1823 U1806 2.882 . S
C1823 C1817 1.428 . S
C1823 O1826 1.301 . S
C1823 O1827 1.282 . S
O1824 U1806 2.441 . S
O1824 C1810 1.249 . S
O1825 U1806 2.420 . S
O1825 C1810 1.202 . S
O1826 U1806 2.455 . S
O1826 C1823 1.301 . S
O1827 U1806 2.449 . S
O1827 C1823 1.282 . S
H1828 C1801 0.931 . S
H1829 C1803 0.929 . S
H1830 C1804 0.930 . S
H1831 C1805 0.931 . S
H1832 C1812 0.932 . S
H1833 C1813 0.930 . S
H1834 C1814 0.929 . S
H1835 C1816 0.930 . S
H1836 C1818 0.932 . S
H1837 C1819 0.929 . S
H1838 C1820 0.928 . S
H1839 C1822 0.932 . S
C1840 C1841 1.264 . S
C1840 C1845 1.479 . S
C1840 C1850 1.465 . S
C1841 C1840 1.264 . S
C1841 C1843 1.339 . S
C1841 H1868 0.931 . S
C1842 C1843 1.395 . S
C1842 C1844 1.320 . S
C1843 C1841 1.339 . S
C1843 C1842 1.395 . S
C1843 H1869 0.929 . S
C1844 C1842 1.320 . S
C1844 C1845 1.405 . S
C1844 H1870 0.930 . S
C1845 C1840 1.479 . S
C1845 C1844 1.405 . S
C1845 H1871 0.931 . S
U1846 O1847 2.454 . S
U1846 O1848 2.458 . S
U1846 C1849 2.984 . S
U1846 C1850 2.847 . S
U1846 C1863 2.882 . S
U1846 O1864 2.441 . S
U1846 O1865 2.420 . S
U1846 O1866 2.455 . S
U1846 O1867 2.449 . S
O1847 U1846 2.454 . S
O1847 C1849 1.353 . S
O1848 U1846 2.458 . S
O1848 C1849 1.286 . S
C1849 U1846 2.984 . S
C1849 O1847 1.353 . S
C1849 O1848 1.286 . S
C1849 C1851 1.363 . S
C1850 C1840 1.465 . S
C1850 U1846 2.847 . S
C1850 O1864 1.249 . S
C1850 O1865 1.202 . S
C1851 C1849 1.363 . S
C1851 C1853 1.408 . S
C1851 C1856 1.342 . S
C1852 C1853 1.310 . S
C1852 C1855 1.461 . S
C1852 H1872 0.932 . S
C1853 C1851 1.408 . S
C1853 C1852 1.310 . S
C1853 H1873 0.930 . S
C1854 C1855 1.474 . S
C1854 C1856 1.285 . S
C1854 H1874 0.929 . S
C1855 C1852 1.461 . S
C1855 C1854 1.474 . S
C1856 C1851 1.342 . S
C1856 C1854 1.285 . S
C1856 H1875 0.930 . S
C1857 C1860 1.424 . S
C1857 C1862 1.245 . S
C1857 C1863 1.428 . S
C1858 C1861 1.260 . S
C1858 C1862 1.477 . S
C1858 H1876 0.932 . S
C1859 C1860 1.384 . S
C1859 C1861 1.479 . S
C1859 H1877 0.929 . S
C1860 C1857 1.424 . S
C1860 C1859 1.384 . S
C1860 H1878 0.928 . S
C1861 C1858 1.260 . S
C1861 C1859 1.479 . S
C1862 C1857 1.245 . S
C1862 C1858 1.477 . S
C1862 H1879 0.932 . S
C1863 U1846 2.882 . S
C1863 C1857 1.428 . S
C1863 O1866 1.301 . S
C1863 O1867 1.282 . S
O1864 U1846 2.441 . S
O1864 C1850 1.249 . S
O1865 U1846 2.420 . S
O1865 C1850 1.202 . S
O1866 U1846 2.455 . S
O1866 C1863 1.301 . S
O1867 U1846 2.449 . S
O1867 C1863 1.282 . S
H1868 C1841 0.931 . S
H1869 C1843 0.929 . S
H1870 C1844 0.930 . S
H1871 C1845 0.931 . S
H1872 C1852 0.932 . S
H1873 C1853 0.930 . S
H1874 C1854 0.929 . S
H1875 C1856 0.930 . S
H1876 C1858 0.932 . S
H1877 C1859 0.929 . S
H1878 C1860 0.928 . S
H1879 C1862 0.932 . S
C1880 C1881 1.264 . S
C1880 C1885 1.479 . S
C1880 C1890 1.465 . S
C1881 C1880 1.264 . S
C1881 C1883 1.339 . S
C1881 H1908 0.931 . S
C1882 C1883 1.395 . S
C1882 C1884 1.320 . S
C1883 C1881 1.339 . S
C1883 C1882 1.395 . S
C1883 H1909 0.929 . S
C1884 C1882 1.320 . S
C1884 C1885 1.405 . S
C1884 H1910 0.930 . S
C1885 C1880 1.479 . S
C1885 C1884 1.405 . S
C1885 H1911 0.931 . S
U1886 O1887 2.454 . S
U1886 O1888 2.458 . S
U1886 C1889 2.984 . S
U1886 C1890 2.847 . S
U1886 C1903 2.882 . S
U1886 O1904 2.441 . S
U1886 O1905 2.420 . S
U1886 O1906 2.455 . S
U1886 O1907 2.449 . S
O1887 U1886 2.454 . S
O1887 C1889 1.353 . S
O1888 U1886 2.458 . S
O1888 C1889 1.286 . S
C1889 U1886 2.984 . S
C1889 O1887 1.353 . S
C1889 O1888 1.286 . S
C1889 C1891 1.363 . S
C1890 C1880 1.465 . S
C1890 U1886 2.847 . S
C1890 O1904 1.249 . S
C1890 O1905 1.202 . S
C1891 C1889 1.363 . S
C1891 C1893 1.408 . S
C1891 C1896 1.342 . S
C1892 C1893 1.310 . S
C1892 C1895 1.461 . S
C1892 H1912 0.932 . S
C1893 C1891 1.408 . S
C1893 C1892 1.310 . S
C1893 H1913 0.930 . S
C1894 C1895 1.474 . S
C1894 C1896 1.285 . S
C1894 H1914 0.929 . S
C1895 C1892 1.461 . S
C1895 C1894 1.474 . S
C1896 C1891 1.342 . S
C1896 C1894 1.285 . S
C1896 H1915 0.930 . S
C1897 C1900 1.424 . S
C1897 C1902 1.245 . S
C1897 C1903 1.428 . S
C1898 C1901 1.260 . S
C1898 C1902 1.477 . S
C1898 H1916 0.932 . S
C1899 C1900 1.384 . S
C1899 C1901 1.479 . S
C1899 H1917 0.929 . S
C1900 C1897 1.424 . S
C1900 C1899 1.384 . S
C1900 H1918 0.928 . S
C1901 C1898 1.260 . S
C1901 C1899 1.479 . S
C1902 C1897 1.245 . S
C1902 C1898 1.477 . S
C1902 H1919 0.932 . S
C1903 U1886 2.882 . S
C1903 C1897 1.428 . S
C1903 O1906 1.301 . S
C1903 O1907 1.282 . S
O1904 U1886 2.441 . S
O1904 C1890 1.249 . S
O1905 U1886 2.420 . S
O1905 C1890 1.202 . S
O1906 U1886 2.455 . S
O1906 C1903 1.301 . S
O1907 U1886 2.449 . S
O1907 C1903 1.282 . S
H1908 C1881 0.931 . S
H1909 C1883 0.929 . S
H1910 C1884 0.930 . S
H1911 C1885 0.931 . S
H1912 C1892 0.932 . S
H1913 C1893 0.930 . S
H1914 C1894 0.929 . S
H1915 C1896 0.930 . S
H1916 C1898 0.932 . S
H1917 C1899 0.929 . S
H1918 C1900 0.928 . S
H1919 C1902 0.932 . S
C1920 C1921 1.264 . S
C1920 C1925 1.479 . S
C1920 C1930 1.465 . S
C1921 C1920 1.264 . S
C1921 C1923 1.339 . S
C1921 H1948 0.931 . S
C1922 C1923 1.395 . S
C1922 C1924 1.320 . S
C1923 C1921 1.339 . S
C1923 C1922 1.395 . S
C1923 H1949 0.929 . S
C1924 C1922 1.320 . S
C1924 C1925 1.405 . S
C1924 H1950 0.930 . S
C1925 C1920 1.479 . S
C1925 C1924 1.405 . S
C1925 H1951 0.931 . S
U1926 O1927 2.454 . S
U1926 O1928 2.458 . S
U1926 C1929 2.984 . S
U1926 C1930 2.847 . S
U1926 C1943 2.882 . S
U1926 O1944 2.441 . S
U1926 O1945 2.420 . S
U1926 O1946 2.455 . S
U1926 O1947 2.449 . S
O1927 U1926 2.454 . S
O1927 C1929 1.353 . S
O1928 U1926 2.458 . S
O1928 C1929 1.286 . S
C1929 U1926 2.984 . S
C1929 O1927 1.353 . S
C1929 O1928 1.286 . S
C1929 C1931 1.363 . S
C1930 C1920 1.465 . S
C1930 U1926 2.847 . S
C1930 O1944 1.249 . S
C1930 O1945 1.202 . S
C1931 C1929 1.363 . S
C1931 C1933 1.408 . S
C1931 C1936 1.342 . S
C1932 C1933 1.310 . S
C1932 C1935 1.461 . S
C1932 H1952 0.932 . S
C1933 C1931 1.408 . S
C1933 C1932 1.310 . S
C1933 H1953 0.930 . S
C1934 C1935 1.474 . S
C1934 C1936 1.285 . S
C1934 H1954 0.929 . S
C1935 C1932 1.461 . S
C1935 C1934 1.474 . S
C1936 C1931 1.342 . S
C1936 C1934 1.285 . S
C1936 H1955 0.930 . S
C1937 C1940 1.424 . S
C1937 C1942 1.245 . S
C1937 C1943 1.428 . S
C1938 C1941 1.260 . S
C1938 C1942 1.477 . S
C1938 H1956 0.932 . S
C1939 C1940 1.384 . S
C1939 C1941 1.479 . S
C1939 H1957 0.929 . S
C1940 C1937 1.424 . S
C1940 C1939 1.384 . S
C1940 H1958 0.928 . S
C1941 C1938 1.260 . S
C1941 C1939 1.479 . S
C1942 C1937 1.245 . S
C1942 C1938 1.477 . S
C1942 H1959 0.932 . S
C1943 U1926 2.882 . S
C1943 C1937 1.428 . S
C1943 O1946 1.301 . S
C1943 O1947 1.282 . S
O1944 U1926 2.441 . S
O1944 C1930 1.249 . S
O1945 U1926 2.420 . S
O1945 C1930 1.202 . S
O1946 U1926 2.455 . S
O1946 C1943 1.301 . S
O1947 U1926 2.449 . S
O1947 C1943 1.282 . S
H1948 C1921 0.931 . S
H1949 C1923 0.929 . S
H1950 C1924 0.930 . S
H1951 C1925 0.931 . S
H1952 C1932 0.932 . S
H1953 C1933 0.930 . S
H1954 C1934 0.929 . S
H1955 C1936 0.930 . S
H1956 C1938 0.932 . S
H1957 C1939 0.929 . S
H1958 C1940 0.928 . S
H1959 C1942 0.932 . S
C1960 C1961 1.264 . S
C1960 C1965 1.479 . S
C1960 C1970 1.465 . S
C1961 C1960 1.264 . S
C1961 C1963 1.339 . S
C1961 H1988 0.931 . S
C1962 C1963 1.395 . S
C1962 C1964 1.320 . S
C1963 C1961 1.339 . S
C1963 C1962 1.395 . S
C1963 H1989 0.929 . S
C1964 C1962 1.320 . S
C1964 C1965 1.405 . S
C1964 H1990 0.930 . S
C1965 C1960 1.479 . S
C1965 C1964 1.405 . S
C1965 H1991 0.931 . S
U1966 O1967 2.454 . S
U1966 O1968 2.458 . S
U1966 C1969 2.984 . S
U1966 C1970 2.847 . S
U1966 C1983 2.882 . S
U1966 O1984 2.441 . S
U1966 O1985 2.420 . S
U1966 O1986 2.455 . S
U1966 O1987 2.449 . S
O1967 U1966 2.454 . S
O1967 C1969 1.353 . S
O1968 U1966 2.458 . S
O1968 C1969 1.286 . S
C1969 U1966 2.984 . S
C1969 O1967 1.353 . S
C1969 O1968 1.286 . S
C1969 C1971 1.363 . S
C1970 C1960 1.465 . S
C1970 U1966 2.847 . S
C1970 O1984 1.249 . S
C1970 O1985 1.202 . S
C1971 C1969 1.363 . S
C1971 C1973 1.408 . S
C1971 C1976 1.342 . S
C1972 C1973 1.310 . S
C1972 C1975 1.461 . S
C1972 H1992 0.932 . S
C1973 C1971 1.408 . S
C1973 C1972 1.310 . S
C1973 H1993 0.930 . S
C1974 C1975 1.474 . S
C1974 C1976 1.285 . S
C1974 H1994 0.929 . S
C1975 C1972 1.461 . S
C1975 C1974 1.474 . S
C1976 C1971 1.342 . S
C1976 C1974 1.285 . S
C1976 H1995 0.930 . S
C1977 C1980 1.424 . S
C1977 C1982 1.245 . S
C1977 C1983 1.428 . S
C1978 C1981 1.260 . S
C1978 C1982 1.477 . S
C1978 H1996 0.932 . S
C1979 C1980 1.384 . S
C1979 C1981 1.479 . S
C1979 H1997 0.929 . S
C1980 C1977 1.424 . S
C1980 C1979 1.384 . S
C1980 H1998 0.928 . S
C1981 C1978 1.260 . S
C1981 C1979 1.479 . S
C1982 C1977 1.245 . S
C1982 C1978 1.477 . S
C1982 H1999 0.932 . S
C1983 U1966 2.882 . S
C1983 C1977 1.428 . S
C1983 O1986 1.301 . S
C1983 O1987 1.282 . S
O1984 U1966 2.441 . S
O1984 C1970 1.249 . S
O1985 U1966 2.420 . S
O1985 C1970 1.202 . S
O1986 U1966 2.455 . S
O1986 C1983 1.301 . S
O1987 U1966 2.449 . S
O1987 C1983 1.282 . S
H1988 C1961 0.931 . S
H1989 C1963 0.929 . S
H1990 C1964 0.930 . S
H1991 C1965 0.931 . S
H1992 C1972 0.932 . S
H1993 C1973 0.930 . S
H1994 C1974 0.929 . S
H1995 C1976 0.930 . S
H1996 C1978 0.932 . S
H1997 C1979 0.929 . S
H1998 C1980 0.928 . S
H1999 C1982 0.932 . S
C2000 C2001 1.264 . S
C2000 C2005 1.479 . S
C2000 C2010 1.465 . S
C2001 C2000 1.264 . S
C2001 C2003 1.339 . S
C2001 H2028 0.931 . S
C2002 C2003 1.395 . S
C2002 C2004 1.320 . S
C2003 C2001 1.339 . S
C2003 C2002 1.395 . S
C2003 H2029 0.929 . S
C2004 C2002 1.320 . S
C2004 C2005 1.405 . S
C2004 H2030 0.930 . S
C2005 C2000 1.479 . S
C2005 C2004 1.405 . S
C2005 H2031 0.931 . S
U2006 O2007 2.454 . S
U2006 O2008 2.458 . S
U2006 C2009 2.984 . S
U2006 C2010 2.847 . S
U2006 C2023 2.882 . S
U2006 O2024 2.441 . S
U2006 O2025 2.420 . S
U2006 O2026 2.455 . S
U2006 O2027 2.449 . S
O2007 U2006 2.454 . S
O2007 C2009 1.353 . S
O2008 U2006 2.458 . S
O2008 C2009 1.286 . S
C2009 U2006 2.984 . S
C2009 O2007 1.353 . S
C2009 O2008 1.286 . S
C2009 C2011 1.363 . S
C2010 C2000 1.465 . S
C2010 U2006 2.847 . S
C2010 O2024 1.249 . S
C2010 O2025 1.202 . S
C2011 C2009 1.363 . S
C2011 C2013 1.408 . S
C2011 C2016 1.342 . S
C2012 C2013 1.310 . S
C2012 C2015 1.461 . S
C2012 H2032 0.932 . S
C2013 C2011 1.408 . S
C2013 C2012 1.310 . S
C2013 H2033 0.930 . S
C2014 C2015 1.474 . S
C2014 C2016 1.285 . S
C2014 H2034 0.929 . S
C2015 C2012 1.461 . S
C2015 C2014 1.474 . S
C2016 C2011 1.342 . S
C2016 C2014 1.285 . S
C2016 H2035 0.930 . S
C2017 C2020 1.424 . S
C2017 C2022 1.245 . S
C2017 C2023 1.428 . S
C2018 C2021 1.260 . S
C2018 C2022 1.477 . S
C2018 H2036 0.932 . S
C2019 C2020 1.384 . S
C2019 C2021 1.479 . S
C2019 H2037 0.929 . S
C2020 C2017 1.424 . S
C2020 C2019 1.384 . S
C2020 H2038 0.928 . S
C2021 C2018 1.260 . S
C2021 C2019 1.479 . S
C2022 C2017 1.245 . S
C2022 C2018 1.477 . S
C2022 H2039 0.932 . S
C2023 U2006 2.882 . S
C2023 C2017 1.428 . S
C2023 O2026 1.301 . S
C2023 O2027 1.282 . S
O2024 U2006 2.441 . S
O2024 C2010 1.249 . S
O2025 U2006 2.420 . S
O2025 C2010 1.202 . S
O2026 U2006 2.455 . S
O2026 C2023 1.301 . S
O2027 U2006 2.449 . S
O2027 C2023 1.282 . S
H2028 C2001 0.931 . S
H2029 C2003 0.929 . S
H2030 C2004 0.930 . S
H2031 C2005 0.931 . S
H2032 C2012 0.932 . S
H2033 C2013 0.930 . S
H2034 C2014 0.929 . S
H2035 C2016 0.930 . S
H2036 C2018 0.932 . S
H2037 C2019 0.929 . S
H2038 C2020 0.928 . S
H2039 C2022 0.932 . S
C2040 C2041 1.264 . S
C2040 C2045 1.479 . S
C2040 C2050 1.465 . S
C2041 C2040 1.264 . S
C2041 C2043 1.339 . S
C2041 H2068 0.931 . S
C2042 C2043 1.395 . S
C2042 C2044 1.320 . S
C2043 C2041 1.339 . S
C2043 C2042 1.395 . S
C2043 H2069 0.929 . S
C2044 C2042 1.320 . S
C2044 C2045 1.405 . S
C2044 H2070 0.930 . S
C2045 C2040 1.479 . S
C2045 C2044 1.405 . S
C2045 H2071 0.931 . S
U2046 O2047 2.454 . S
U2046 O2048 2.458 . S
U2046 C2049 2.984 . S
U2046 C2050 2.847 . S
U2046 C2063 2.882 . S
U2046 O2064 2.441 . S
U2046 O2065 2.420 . S
U2046 O2066 2.455 . S
U2046 O2067 2.449 . S
O2047 U2046 2.454 . S
O2047 C2049 1.353 . S
O2048 U2046 2.458 . S
O2048 C2049 1.286 . S
C2049 U2046 2.984 . S
C2049 O2047 1.353 . S
C2049 O2048 1.286 . S
C2049 C2051 1.363 . S
C2050 C2040 1.465 . S
C2050 U2046 2.847 . S
C2050 O2064 1.249 . S
C2050 O2065 1.202 . S
C2051 C2049 1.363 . S
C2051 C2053 1.408 . S
C2051 C2056 1.342 . S
C2052 C2053 1.310 . S
C2052 C2055 1.461 . S
C2052 H2072 0.932 . S
C2053 C2051 1.408 . S
C2053 C2052 1.310 . S
C2053 H2073 0.930 . S
C2054 C2055 1.474 . S
C2054 C2056 1.285 . S
C2054 H2074 0.929 . S
C2055 C2052 1.461 . S
C2055 C2054 1.474 . S
C2056 C2051 1.342 . S
C2056 C2054 1.285 . S
C2056 H2075 0.930 . S
C2057 C2060 1.424 . S
C2057 C2062 1.245 . S
C2057 C2063 1.428 . S
C2058 C2061 1.260 . S
C2058 C2062 1.477 . S
C2058 H2076 0.932 . S
C2059 C2060 1.384 . S
C2059 C2061 1.479 . S
C2059 H2077 0.929 . S
C2060 C2057 1.424 . S
C2060 C2059 1.384 . S
C2060 H2078 0.928 . S
C2061 C2058 1.260 . S
C2061 C2059 1.479 . S
C2062 C2057 1.245 . S
C2062 C2058 1.477 . S
C2062 H2079 0.932 . S
C2063 U2046 2.882 . S
C2063 C2057 1.428 . S
C2063 O2066 1.301 . S
C2063 O2067 1.282 . S
O2064 U2046 2.441 . S
O2064 C2050 1.249 . S
O2065 U2046 2.420 . S
O2065 C2050 1.202 . S
O2066 U2046 2.455 . S
O2066 C2063 1.301 . S
O2067 U2046 2.449 . S
O2067 C2063 1.282 . S
H2068 C2041 0.931 . S
H2069 C2043 0.929 . S
H2070 C2044 0.930 . S
H2071 C2045 0.931 . S
H2072 C2052 0.932 . S
H2073 C2053 0.930 . S
H2074 C2054 0.929 . S
H2075 C2056 0.930 . S
H2076 C2058 0.932 . S
H2077 C2059 0.929 . S
H2078 C2060 0.928 . S
H2079 C2062 0.932 . S
C2080 C2081 1.264 . S
C2080 C2085 1.479 . S
C2080 C2090 1.465 . S
C2081 C2080 1.264 . S
C2081 C2083 1.339 . S
C2081 H2108 0.931 . S
C2082 C2083 1.395 . S
C2082 C2084 1.320 . S
C2083 C2081 1.339 . S
C2083 C2082 1.395 . S
C2083 H2109 0.929 . S
C2084 C2082 1.320 . S
C2084 C2085 1.405 . S
C2084 H2110 0.930 . S
C2085 C2080 1.479 . S
C2085 C2084 1.405 . S
C2085 H2111 0.931 . S
U2086 O2087 2.454 . S
U2086 O2088 2.458 . S
U2086 C2089 2.984 . S
U2086 C2090 2.847 . S
U2086 C2103 2.882 . S
U2086 O2104 2.441 . S
U2086 O2105 2.420 . S
U2086 O2106 2.455 . S
U2086 O2107 2.449 . S
O2087 U2086 2.454 . S
O2087 C2089 1.353 . S
O2088 U2086 2.458 . S
O2088 C2089 1.286 . S
C2089 U2086 2.984 . S
C2089 O2087 1.353 . S
C2089 O2088 1.286 . S
C2089 C2091 1.363 . S
C2090 C2080 1.465 . S
C2090 U2086 2.847 . S
C2090 O2104 1.249 . S
C2090 O2105 1.202 . S
C2091 C2089 1.363 . S
C2091 C2093 1.408 . S
C2091 C2096 1.342 . S
C2092 C2093 1.310 . S
C2092 C2095 1.461 . S
C2092 H2112 0.932 . S
C2093 C2091 1.408 . S
C2093 C2092 1.310 . S
C2093 H2113 0.930 . S
C2094 C2095 1.474 . S
C2094 C2096 1.285 . S
C2094 H2114 0.929 . S
C2095 C2092 1.461 . S
C2095 C2094 1.474 . S
C2096 C2091 1.342 . S
C2096 C2094 1.285 . S
C2096 H2115 0.930 . S
C2097 C2100 1.424 . S
C2097 C2102 1.245 . S
C2097 C2103 1.428 . S
C2098 C2101 1.260 . S
C2098 C2102 1.477 . S
C2098 H2116 0.932 . S
C2099 C2100 1.384 . S
C2099 C2101 1.479 . S
C2099 H2117 0.929 . S
C2100 C2097 1.424 . S
C2100 C2099 1.384 . S
C2100 H2118 0.928 . S
C2101 C2098 1.260 . S
C2101 C2099 1.479 . S
C2102 C2097 1.245 . S
C2102 C2098 1.477 . S
C2102 H2119 0.932 . S
C2103 U2086 2.882 . S
C2103 C2097 1.428 . S
C2103 O2106 1.301 . S
C2103 O2107 1.282 . S
O2104 U2086 2.441 . S
O2104 C2090 1.249 . S
O2105 U2086 2.420 . S
O2105 C2090 1.202 . S
O2106 U2086 2.455 . S
O2106 C2103 1.301 . S
O2107 U2086 2.449 . S
O2107 C2103 1.282 . S
H2108 C2081 0.931 . S
H2109 C2083 0.929 . S
H2110 C2084 0.930 . S
H2111 C2085 0.931 . S
H2112 C2092 0.932 . S
H2113 C2093 0.930 . S
H2114 C2094 0.929 . S
H2115 C2096 0.930 . S
H2116 C2098 0.932 . S
H2117 C2099 0.929 . S
H2118 C2100 0.928 . S
H2119 C2102 0.932 . S
C2120 C2121 1.264 . S
C2120 C2125 1.479 . S
C2120 C2130 1.465 . S
C2121 C2120 1.264 . S
C2121 C2123 1.339 . S
C2121 H2148 0.931 . S
C2122 C2123 1.395 . S
C2122 C2124 1.320 . S
C2123 C2121 1.339 . S
C2123 C2122 1.395 . S
C2123 H2149 0.929 . S
C2124 C2122 1.320 . S
C2124 C2125 1.405 . S
C2124 H2150 0.930 . S
C2125 C2120 1.479 . S
C2125 C2124 1.405 . S
C2125 H2151 0.931 . S
U2126 O2127 2.454 . S
U2126 O2128 2.458 . S
U2126 C2129 2.984 . S
U2126 C2130 2.847 . S
U2126 C2143 2.882 . S
U2126 O2144 2.441 . S
U2126 O2145 2.420 . S
U2126 O2146 2.455 . S
U2126 O2147 2.449 . S
O2127 U2126 2.454 . S
O2127 C2129 1.353 . S
O2128 U2126 2.458 . S
O2128 C2129 1.286 . S
C2129 U2126 2.984 . S
C2129 O2127 1.353 . S
C2129 O2128 1.286 . S
C2129 C2131 1.363 . S
C2130 C2120 1.465 . S
C2130 U2126 2.847 . S
C2130 O2144 1.249 . S
C2130 O2145 1.202 . S
C2131 C2129 1.363 . S
C2131 C2133 1.408 . S
C2131 C2136 1.342 . S
C2132 C2133 1.310 . S
C2132 C2135 1.461 . S
C2132 H2152 0.932 . S
C2133 C2131 1.408 . S
C2133 C2132 1.310 . S
C2133 H2153 0.930 . S
C2134 C2135 1.474 . S
C2134 C2136 1.285 . S
C2134 H2154 0.929 . S
C2135 C2132 1.461 . S
C2135 C2134 1.474 . S
C2136 C2131 1.342 . S
C2136 C2134 1.285 . S
C2136 H2155 0.930 . S
C2137 C2140 1.424 . S
C2137 C2142 1.245 . S
C2137 C2143 1.428 . S
C2138 C2141 1.260 . S
C2138 C2142 1.477 . S
C2138 H2156 0.932 . S
C2139 C2140 1.384 . S
C2139 C2141 1.479 . S
C2139 H2157 0.929 . S
C2140 C2137 1.424 . S
C2140 C2139 1.384 . S
C2140 H2158 0.928 . S
C2141 C2138 1.260 . S
C2141 C2139 1.479 . S
C2142 C2137 1.245 . S
C2142 C2138 1.477 . S
C2142 H2159 0.932 . S
C2143 U2126 2.882 . S
C2143 C2137 1.428 . S
C2143 O2146 1.301 . S
C2143 O2147 1.282 . S
O2144 U2126 2.441 . S
O2144 C2130 1.249 . S
O2145 U2126 2.420 . S
O2145 C2130 1.202 . S
O2146 U2126 2.455 . S
O2146 C2143 1.301 . S
O2147 U2126 2.449 . S
O2147 C2143 1.282 . S
H2148 C2121 0.931 . S
H2149 C2123 0.929 . S
H2150 C2124 0.930 . S
H2151 C2125 0.931 . S
H2152 C2132 0.932 . S
H2153 C2133 0.930 . S
H2154 C2134 0.929 . S
H2155 C2136 0.930 . S
H2156 C2138 0.932 . S
H2157 C2139 0.929 . S
H2158 C2140 0.928 . S
H2159 C2142 0.932 . S
C2160 C2161 1.264 . S
C2160 C2165 1.479 . S
C2160 C2170 1.465 . S
C2161 C2160 1.264 . S
C2161 C2163 1.339 . S
C2161 H2188 0.931 . S
C2162 C2163 1.395 . S
C2162 C2164 1.320 . S
C2163 C2161 1.339 . S
C2163 C2162 1.395 . S
C2163 H2189 0.929 . S
C2164 C2162 1.320 . S
C2164 C2165 1.405 . S
C2164 H2190 0.930 . S
C2165 C2160 1.479 . S
C2165 C2164 1.405 . S
C2165 H2191 0.931 . S
U2166 O2167 2.454 . S
U2166 O2168 2.458 . S
U2166 C2169 2.984 . S
U2166 C2170 2.847 . S
U2166 C2183 2.882 . S
U2166 O2184 2.441 . S
U2166 O2185 2.420 . S
U2166 O2186 2.455 . S
U2166 O2187 2.449 . S
O2167 U2166 2.454 . S
O2167 C2169 1.353 . S
O2168 U2166 2.458 . S
O2168 C2169 1.286 . S
C2169 U2166 2.984 . S
C2169 O2167 1.353 . S
C2169 O2168 1.286 . S
C2169 C2171 1.363 . S
C2170 C2160 1.465 . S
C2170 U2166 2.847 . S
C2170 O2184 1.249 . S
C2170 O2185 1.202 . S
C2171 C2169 1.363 . S
C2171 C2173 1.408 . S
C2171 C2176 1.342 . S
C2172 C2173 1.310 . S
C2172 C2175 1.461 . S
C2172 H2192 0.932 . S
C2173 C2171 1.408 . S
C2173 C2172 1.310 . S
C2173 H2193 0.930 . S
C2174 C2175 1.474 . S
C2174 C2176 1.285 . S
C2174 H2194 0.929 . S
C2175 C2172 1.461 . S
C2175 C2174 1.474 . S
C2176 C2171 1.342 . S
C2176 C2174 1.285 . S
C2176 H2195 0.930 . S
C2177 C2180 1.424 . S
C2177 C2182 1.245 . S
C2177 C2183 1.428 . S
C2178 C2181 1.260 . S
C2178 C2182 1.477 . S
C2178 H2196 0.932 . S
C2179 C2180 1.384 . S
C2179 C2181 1.479 . S
C2179 H2197 0.929 . S
C2180 C2177 1.424 . S
C2180 C2179 1.384 . S
C2180 H2198 0.928 . S
C2181 C2178 1.260 . S
C2181 C2179 1.479 . S
C2182 C2177 1.245 . S
C2182 C2178 1.477 . S
C2182 H2199 0.932 . S
C2183 U2166 2.882 . S
C2183 C2177 1.428 . S
C2183 O2186 1.301 . S
C2183 O2187 1.282 . S
O2184 U2166 2.441 . S
O2184 C2170 1.249 . S
O2185 U2166 2.420 . S
O2185 C2170 1.202 . S
O2186 U2166 2.455 . S
O2186 C2183 1.301 . S
O2187 U2166 2.449 . S
O2187 C2183 1.282 . S
H2188 C2161 0.931 . S
H2189 C2163 0.929 . S
H2190 C2164 0.930 . S
H2191 C2165 0.931 . S
H2192 C2172 0.932 . S
H2193 C2173 0.930 . S
H2194 C2174 0.929 . S
H2195 C2176 0.930 . S
H2196 C2178 0.932 . S
H2197 C2179 0.929 . S
H2198 C2180 0.928 . S
H2199 C2182 0.932 . S
C2200 C2201 1.264 . S
C2200 C2205 1.479 . S
C2200 C2210 1.465 . S
C2201 C2200 1.264 . S
C2201 C2203 1.339 . S
C2201 H2228 0.931 . S
C2202 C2203 1.395 . S
C2202 C2204 1.320 . S
C2203 C2201 1.339 . S
C2203 C2202 1.395 . S
C2203 H2229 0.929 . S
C2204 C2202 1.320 . S
C2204 C2205 1.405 . S
C2204 H2230 0.930 . S
C2205 C2200 1.479 . S
C2205 C2204 1.405 . S
C2205 H2231 0.931 . S
U2206 O2207 2.454 . S
U2206 O2208 2.458 . S
U2206 C2209 2.984 . S
U2206 C2210 2.847 . S
U2206 C2223 2.882 . S
U2206 O2224 2.441 . S
U2206 O2225 2.420 . S
U2206 O2226 2.455 . S
U2206 O2227 2.449 . S
O2207 U2206 2.454 . S
O2207 C2209 1.353 . S
O2208 U2206 2.458 . S
O2208 C2209 1.286 . S
C2209 U2206 2.984 . S
C2209 O2207 1.353 . S
C2209 O2208 1.286 . S
C2209 C2211 1.363 . S
C2210 C2200 1.465 . S
C2210 U2206 2.847 . S
C2210 O2224 1.249 . S
C2210 O2225 1.202 . S
C2211 C2209 1.363 . S
C2211 C2213 1.408 . S
C2211 C2216 1.342 . S
C2212 C2213 1.310 . S
C2212 C2215 1.461 . S
C2212 H2232 0.932 . S
C2213 C2211 1.408 . S
C2213 C2212 1.310 . S
C2213 H2233 0.930 . S
C2214 C2215 1.474 . S
C2214 C2216 1.285 . S
C2214 H2234 0.929 . S
C2215 C2212 1.461 . S
C2215 C2214 1.474 . S
C2216 C2211 1.342 . S
C2216 C2214 1.285 . S
C2216 H2235 0.930 . S
C2217 C2220 1.424 . S
C2217 C2222 1.245 . S
C2217 C2223 1.428 . S
C2218 C2221 1.260 . S
C2218 C2222 1.477 . S
C2218 H2236 0.932 . S
C2219 C2220 1.384 . S
C2219 C2221 1.479 . S
C2219 H2237 0.929 . S
C2220 C2217 1.424 . S
C2220 C2219 1.384 . S
C2220 H2238 0.928 . S
C2221 C2218 1.260 . S
C2221 C2219 1.479 . S
C2222 C2217 1.245 . S
C2222 C2218 1.477 . S
C2222 H2239 0.932 . S
C2223 U2206 2.882 . S
C2223 C2217 1.428 . S
C2223 O2226 1.301 . S
C2223 O2227 1.282 . S
O2224 U2206 2.441 . S
O2224 C2210 1.249 . S
O2225 U2206 2.420 . S
O2225 C2210 1.202 . S
O2226 U2206 2.455 . S
O2226 C2223 1.301 . S
O2227 U2206 2.449 . S
O2227 C2223 1.282 . S
H2228 C2201 0.931 . S
H2229 C2203 0.929 . S
H2230 C2204 0.930 . S
H2231 C2205 0.931 . S
H2232 C2212 0.932 . S
H2233 C2213 0.930 . S
H2234 C2214 0.929 . S
H2235 C2216 0.930 . S
H2236 C2218 0.932 . S
H2237 C2219 0.929 . S
H2238 C2220 0.928 . S
H2239 C2222 0.932 . S
C2240 C2241 1.264 . S
C2240 C2245 1.479 . S
C2240 C2250 1.465 . S
C2241 C2240 1.264 . S
C2241 C2243 1.339 . S
C2241 H2268 0.931 . S
C2242 C2243 1.395 . S
C2242 C2244 1.320 . S
C2243 C2241 1.339 . S
C2243 C2242 1.395 . S
C2243 H2269 0.929 . S
C2244 C2242 1.320 . S
C2244 C2245 1.405 . S
C2244 H2270 0.930 . S
C2245 C2240 1.479 . S
C2245 C2244 1.405 . S
C2245 H2271 0.931 . S
U2246 O2247 2.454 . S
U2246 O2248 2.458 . S
U2246 C2249 2.984 . S
U2246 C2250 2.847 . S
U2246 C2263 2.882 . S
U2246 O2264 2.441 . S
U2246 O2265 2.420 . S
U2246 O2266 2.455 . S
U2246 O2267 2.449 . S
O2247 U2246 2.454 . S
O2247 C2249 1.353 . S
O2248 U2246 2.458 . S
O2248 C2249 1.286 . S
C2249 U2246 2.984 . S
C2249 O2247 1.353 . S
C2249 O2248 1.286 . S
C2249 C2251 1.363 . S
C2250 C2240 1.465 . S
C2250 U2246 2.847 . S
C2250 O2264 1.249 . S
C2250 O2265 1.202 . S
C2251 C2249 1.363 . S
C2251 C2253 1.408 . S
C2251 C2256 1.342 . S
C2252 C2253 1.310 . S
C2252 C2255 1.461 . S
C2252 H2272 0.932 . S
C2253 C2251 1.408 . S
C2253 C2252 1.310 . S
C2253 H2273 0.930 . S
C2254 C2255 1.474 . S
C2254 C2256 1.285 . S
C2254 H2274 0.929 . S
C2255 C2252 1.461 . S
C2255 C2254 1.474 . S
C2256 C2251 1.342 . S
C2256 C2254 1.285 . S
C2256 H2275 0.930 . S
C2257 C2260 1.424 . S
C2257 C2262 1.245 . S
C2257 C2263 1.428 . S
C2258 C2261 1.260 . S
C2258 C2262 1.477 . S
C2258 H2276 0.932 . S
C2259 C2260 1.384 . S
C2259 C2261 1.479 . S
C2259 H2277 0.929 . S
C2260 C2257 1.424 . S
C2260 C2259 1.384 . S
C2260 H2278 0.928 . S
C2261 C2258 1.260 . S
C2261 C2259 1.479 . S
C2262 C2257 1.245 . S
C2262 C2258 1.477 . S
C2262 H2279 0.932 . S
C2263 U2246 2.882 . S
C2263 C2257 1.428 . S
C2263 O2266 1.301 . S
C2263 O2267 1.282 . S
O2264 U2246 2.441 . S
O2264 C2250 1.249 . S
O2265 U2246 2.420 . S
O2265 C2250 1.202 . S
O2266 U2246 2.455 . S
O2266 C2263 1.301 . S
O2267 U2246 2.449 . S
O2267 C2263 1.282 . S
H2268 C2241 0.931 . S
H2269 C2243 0.929 . S
H2270 C2244 0.930 . S
H2271 C2245 0.931 . S
H2272 C2252 0.932 . S
H2273 C2253 0.930 . S
H2274 C2254 0.929 . S
H2275 C2256 0.930 . S
H2276 C2258 0.932 . S
H2277 C2259 0.929 . S
H2278 C2260 0.928 . S
H2279 C2262 0.932 . S
C2280 C2281 1.264 . S
C2280 C2285 1.479 . S
C2280 C2290 1.465 . S
C2281 C2280 1.264 . S
C2281 C2283 1.339 . S
C2281 H2308 0.931 . S
C2282 C2283 1.395 . S
C2282 C2284 1.320 . S
C2283 C2281 1.339 . S
C2283 C2282 1.395 . S
C2283 H2309 0.929 . S
C2284 C2282 1.320 . S
C2284 C2285 1.405 . S
C2284 H2310 0.930 . S
C2285 C2280 1.479 . S
C2285 C2284 1.405 . S
C2285 H2311 0.931 . S
U2286 O2287 2.454 . S
U2286 O2288 2.458 . S
U2286 C2289 2.984 . S
U2286 C2290 2.847 . S
U2286 C2303 2.882 . S
U2286 O2304 2.441 . S
U2286 O2305 2.420 . S
U2286 O2306 2.455 . S
U2286 O2307 2.449 . S
O2287 U2286 2.454 . S
O2287 C2289 1.353 . S
O2288 U2286 2.458 . S
O2288 C2289 1.286 . S
C2289 U2286 2.984 . S
C2289 O2287 1.353 . S
C2289 O2288 1.286 . S
C2289 C2291 1.363 . S
C2290 C2280 1.465 . S
C2290 U2286 2.847 . S
C2290 O2304 1.249 . S
C2290 O2305 1.202 . S
C2291 C2289 1.363 . S
C2291 C2293 1.408 . S
C2291 C2296 1.342 . S
C2292 C2293 1.310 . S
C2292 C2295 1.461 . S
C2292 H2312 0.932 . S
C2293 C2291 1.408 . S
C2293 C2292 1.310 . S
C2293 H2313 0.930 . S
C2294 C2295 1.474 . S
C2294 C2296 1.285 . S
C2294 H2314 0.929 . S
C2295 C2292 1.461 . S
C2295 C2294 1.474 . S
C2296 C2291 1.342 . S
C2296 C2294 1.285 . S
C2296 H2315 0.930 . S
C2297 C2300 1.424 . S
C2297 C2302 1.245 . S
C2297 C2303 1.428 . S
C2298 C2301 1.260 . S
C2298 C2302 1.477 . S
C2298 H2316 0.932 . S
C2299 C2300 1.384 . S
C2299 C2301 1.479 . S
C2299 H2317 0.929 . S
C2300 C2297 1.424 . S
C2300 C2299 1.384 . S
C2300 H2318 0.928 . S
C2301 C2298 1.260 . S
C2301 C2299 1.479 . S
C2302 C2297 1.245 . S
C2302 C2298 1.477 . S
C2302 H2319 0.932 . S
C2303 U2286 2.882 . S
C2303 C2297 1.428 . S
C2303 O2306 1.301 . S
C2303 O2307 1.282 . S
O2304 U2286 2.441 . S
O2304 C2290 1.249 . S
O2305 U2286 2.420 . S
O2305 C2290 1.202 . S
O2306 U2286 2.455 . S
O2306 C2303 1.301 . S
O2307 U2286 2.449 . S
O2307 C2303 1.282 . S
H2308 C2281 0.931 . S
H2309 C2283 0.929 . S
H2310 C2284 0.930 . S
H2311 C2285 0.931 . S
H2312 C2292 0.932 . S
H2313 C2293 0.930 . S
H2314 C2294 0.929 . S
H2315 C2296 0.930 . S
H2316 C2298 0.932 . S
H2317 C2299 0.929 . S
H2318 C2300 0.928 . S
H2319 C2302 0.932 . S
C2320 C2321 1.264 . S
C2320 C2325 1.479 . S
C2320 C2330 1.465 . S
C2321 C2320 1.264 . S
C2321 C2323 1.339 . S
C2321 H2348 0.931 . S
C2322 C2323 1.395 . S
C2322 C2324 1.320 . S
C2323 C2321 1.339 . S
C2323 C2322 1.395 . S
C2323 H2349 0.929 . S
C2324 C2322 1.320 . S
C2324 C2325 1.405 . S
C2324 H2350 0.930 . S
C2325 C2320 1.479 . S
C2325 C2324 1.405 . S
C2325 H2351 0.931 . S
U2326 O2327 2.454 . S
U2326 O2328 2.458 . S
U2326 C2329 2.984 . S
U2326 C2330 2.847 . S
U2326 C2343 2.882 . S
U2326 O2344 2.441 . S
U2326 O2345 2.420 . S
U2326 O2346 2.455 . S
U2326 O2347 2.449 . S
O2327 U2326 2.454 . S
O2327 C2329 1.353 . S
O2328 U2326 2.458 . S
O2328 C2329 1.286 . S
C2329 U2326 2.984 . S
C2329 O2327 1.353 . S
C2329 O2328 1.286 . S
C2329 C2331 1.363 . S
C2330 C2320 1.465 . S
C2330 U2326 2.847 . S
C2330 O2344 1.249 . S
C2330 O2345 1.202 . S
C2331 C2329 1.363 . S
C2331 C2333 1.408 . S
C2331 C2336 1.342 . S
C2332 C2333 1.310 . S
C2332 C2335 1.461 . S
C2332 H2352 0.932 . S
C2333 C2331 1.408 . S
C2333 C2332 1.310 . S
C2333 H2353 0.930 . S
C2334 C2335 1.474 . S
C2334 C2336 1.285 . S
C2334 H2354 0.929 . S
C2335 C2332 1.461 . S
C2335 C2334 1.474 . S
C2336 C2331 1.342 . S
C2336 C2334 1.285 . S
C2336 H2355 0.930 . S
C2337 C2340 1.424 . S
C2337 C2342 1.245 . S
C2337 C2343 1.428 . S
C2338 C2341 1.260 . S
C2338 C2342 1.477 . S
C2338 H2356 0.932 . S
C2339 C2340 1.384 . S
C2339 C2341 1.479 . S
C2339 H2357 0.929 . S
C2340 C2337 1.424 . S
C2340 C2339 1.384 . S
C2340 H2358 0.928 . S
C2341 C2338 1.260 . S
C2341 C2339 1.479 . S
C2342 C2337 1.245 . S
C2342 C2338 1.477 . S
C2342 H2359 0.932 . S
C2343 U2326 2.882 . S
C2343 C2337 1.428 . S
C2343 O2346 1.301 . S
C2343 O2347 1.282 . S
O2344 U2326 2.441 . S
O2344 C2330 1.249 . S
O2345 U2326 2.420 . S
O2345 C2330 1.202 . S
O2346 U2326 2.455 . S
O2346 C2343 1.301 . S
O2347 U2326 2.449 . S
O2347 C2343 1.282 . S
H2348 C2321 0.931 . S
H2349 C2323 0.929 . S
H2350 C2324 0.930 . S
H2351 C2325 0.931 . S
H2352 C2332 0.932 . S
H2353 C2333 0.930 . S
H2354 C2334 0.929 . S
H2355 C2336 0.930 . S
H2356 C2338 0.932 . S
H2357 C2339 0.929 . S
H2358 C2340 0.928 . S
H2359 C2342 0.932 . S
C2360 C2361 1.264 . S
C2360 C2365 1.479 . S
C2360 C2370 1.465 . S
C2361 C2360 1.264 . S
C2361 C2363 1.339 . S
C2361 H2388 0.931 . S
C2362 C2363 1.395 . S
C2362 C2364 1.320 . S
C2363 C2361 1.339 . S
C2363 C2362 1.395 . S
C2363 H2389 0.929 . S
C2364 C2362 1.320 . S
C2364 C2365 1.405 . S
C2364 H2390 0.930 . S
C2365 C2360 1.479 . S
C2365 C2364 1.405 . S
C2365 H2391 0.931 . S
U2366 O2367 2.454 . S
U2366 O2368 2.458 . S
U2366 C2369 2.984 . S
U2366 C2370 2.847 . S
U2366 C2383 2.882 . S
U2366 O2384 2.441 . S
U2366 O2385 2.420 . S
U2366 O2386 2.455 . S
U2366 O2387 2.449 . S
O2367 U2366 2.454 . S
O2367 C2369 1.353 . S
O2368 U2366 2.458 . S
O2368 C2369 1.286 . S
C2369 U2366 2.984 . S
C2369 O2367 1.353 . S
C2369 O2368 1.286 . S
C2369 C2371 1.363 . S
C2370 C2360 1.465 . S
C2370 U2366 2.847 . S
C2370 O2384 1.249 . S
C2370 O2385 1.202 . S
C2371 C2369 1.363 . S
C2371 C2373 1.408 . S
C2371 C2376 1.342 . S
C2372 C2373 1.310 . S
C2372 C2375 1.461 . S
C2372 H2392 0.932 . S
C2373 C2371 1.408 . S
C2373 C2372 1.310 . S
C2373 H2393 0.930 . S
C2374 C2375 1.474 . S
C2374 C2376 1.285 . S
C2374 H2394 0.929 . S
C2375 C2372 1.461 . S
C2375 C2374 1.474 . S
C2376 C2371 1.342 . S
C2376 C2374 1.285 . S
C2376 H2395 0.930 . S
C2377 C2380 1.424 . S
C2377 C2382 1.245 . S
C2377 C2383 1.428 . S
C2378 C2381 1.260 . S
C2378 C2382 1.477 . S
C2378 H2396 0.932 . S
C2379 C2380 1.384 . S
C2379 C2381 1.479 . S
C2379 H2397 0.929 . S
C2380 C2377 1.424 . S
C2380 C2379 1.384 . S
C2380 H2398 0.928 . S
C2381 C2378 1.260 . S
C2381 C2379 1.479 . S
C2382 C2377 1.245 . S
C2382 C2378 1.477 . S
C2382 H2399 0.932 . S
C2383 U2366 2.882 . S
C2383 C2377 1.428 . S
C2383 O2386 1.301 . S
C2383 O2387 1.282 . S
O2384 U2366 2.441 . S
O2384 C2370 1.249 . S
O2385 U2366 2.420 . S
O2385 C2370 1.202 . S
O2386 U2366 2.455 . S
O2386 C2383 1.301 . S
O2387 U2366 2.449 . S
O2387 C2383 1.282 . S
H2388 C2361 0.931 . S
H2389 C2363 0.929 . S
H2390 C2364 0.930 . S
H2391 C2365 0.931 . S
H2392 C2372 0.932 . S
H2393 C2373 0.930 . S
H2394 C2374 0.929 . S
H2395 C2376 0.930 . S
H2396 C2378 0.932 . S
H2397 C2379 0.929 . S
H2398 C2380 0.928 . S
H2399 C2382 0.932 . S
C2400 C2401 1.264 . S
C2400 C2405 1.479 . S
C2400 C2410 1.465 . S
C2401 C2400 1.264 . S
C2401 C2403 1.339 . S
C2401 H2428 0.931 . S
C2402 C2403 1.395 . S
C2402 C2404 1.320 . S
C2403 C2401 1.339 . S
C2403 C2402 1.395 . S
C2403 H2429 0.929 . S
C2404 C2402 1.320 . S
C2404 C2405 1.405 . S
C2404 H2430 0.930 . S
C2405 C2400 1.479 . S
C2405 C2404 1.405 . S
C2405 H2431 0.931 . S
U2406 O2407 2.454 . S
U2406 O2408 2.458 . S
U2406 C2409 2.984 . S
U2406 C2410 2.847 . S
U2406 C2423 2.882 . S
U2406 O2424 2.441 . S
U2406 O2425 2.420 . S
U2406 O2426 2.455 . S
U2406 O2427 2.449 . S
O2407 U2406 2.454 . S
O2407 C2409 1.353 . S
O2408 U2406 2.458 . S
O2408 C2409 1.286 . S
C2409 U2406 2.984 . S
C2409 O2407 1.353 . S
C2409 O2408 1.286 . S
C2409 C2411 1.363 . S
C2410 C2400 1.465 . S
C2410 U2406 2.847 . S
C2410 O2424 1.249 . S
C2410 O2425 1.202 . S
C2411 C2409 1.363 . S
C2411 C2413 1.408 . S
C2411 C2416 1.342 . S
C2412 C2413 1.310 . S
C2412 C2415 1.461 . S
C2412 H2432 0.932 . S
C2413 C2411 1.408 . S
C2413 C2412 1.310 . S
C2413 H2433 0.930 . S
C2414 C2415 1.474 . S
C2414 C2416 1.285 . S
C2414 H2434 0.929 . S
C2415 C2412 1.461 . S
C2415 C2414 1.474 . S
C2416 C2411 1.342 . S
C2416 C2414 1.285 . S
C2416 H2435 0.930 . S
C2417 C2420 1.424 . S
C2417 C2422 1.245 . S
C2417 C2423 1.428 . S
C2418 C2421 1.260 . S
C2418 C2422 1.477 . S
C2418 H2436 0.932 . S
C2419 C2420 1.384 . S
C2419 C2421 1.479 . S
C2419 H2437 0.929 . S
C2420 C2417 1.424 . S
C2420 C2419 1.384 . S
C2420 H2438 0.928 . S
C2421 C2418 1.260 . S
C2421 C2419 1.479 . S
C2422 C2417 1.245 . S
C2422 C2418 1.477 . S
C2422 H2439 0.932 . S
C2423 U2406 2.882 . S
C2423 C2417 1.428 . S
C2423 O2426 1.301 . S
C2423 O2427 1.282 . S
O2424 U2406 2.441 . S
O2424 C2410 1.249 . S
O2425 U2406 2.420 . S
O2425 C2410 1.202 . S
O2426 U2406 2.455 . S
O2426 C2423 1.301 . S
O2427 U2406 2.449 . S
O2427 C2423 1.282 . S
H2428 C2401 0.931 . S
H2429 C2403 0.929 . S
H2430 C2404 0.930 . S
H2431 C2405 0.931 . S
H2432 C2412 0.932 . S
H2433 C2413 0.930 . S
H2434 C2414 0.929 . S
H2435 C2416 0.930 . S
H2436 C2418 0.932 . S
H2437 C2419 0.929 . S
H2438 C2420 0.928 . S
H2439 C2422 0.932 . S
C2440 C2441 1.264 . S
C2440 C2445 1.479 . S
C2440 C2450 1.465 . S
C2441 C2440 1.264 . S
C2441 C2443 1.339 . S
C2441 H2468 0.931 . S
C2442 C2443 1.395 . S
C2442 C2444 1.320 . S
C2443 C2441 1.339 . S
C2443 C2442 1.395 . S
C2443 H2469 0.929 . S
C2444 C2442 1.320 . S
C2444 C2445 1.405 . S
C2444 H2470 0.930 . S
C2445 C2440 1.479 . S
C2445 C2444 1.405 . S
C2445 H2471 0.931 . S
U2446 O2447 2.454 . S
U2446 O2448 2.458 . S
U2446 C2449 2.984 . S
U2446 C2450 2.847 . S
U2446 C2463 2.882 . S
U2446 O2464 2.441 . S
U2446 O2465 2.420 . S
U2446 O2466 2.455 . S
U2446 O2467 2.449 . S
O2447 U2446 2.454 . S
O2447 C2449 1.353 . S
O2448 U2446 2.458 . S
O2448 C2449 1.286 . S
C2449 U2446 2.984 . S
C2449 O2447 1.353 . S
C2449 O2448 1.286 . S
C2449 C2451 1.363 . S
C2450 C2440 1.465 . S
C2450 U2446 2.847 . S
C2450 O2464 1.249 . S
C2450 O2465 1.202 . S
C2451 C2449 1.363 . S
C2451 C2453 1.408 . S
C2451 C2456 1.342 . S
C2452 C2453 1.310 . S
C2452 C2455 1.461 . S
C2452 H2472 0.932 . S
C2453 C2451 1.408 . S
C2453 C2452 1.310 . S
C2453 H2473 0.930 . S
C2454 C2455 1.474 . S
C2454 C2456 1.285 . S
C2454 H2474 0.929 . S
C2455 C2452 1.461 . S
C2455 C2454 1.474 . S
C2456 C2451 1.342 . S
C2456 C2454 1.285 . S
C2456 H2475 0.930 . S
C2457 C2460 1.424 . S
C2457 C2462 1.245 . S
C2457 C2463 1.428 . S
C2458 C2461 1.260 . S
C2458 C2462 1.477 . S
C2458 H2476 0.932 . S
C2459 C2460 1.384 . S
C2459 C2461 1.479 . S
C2459 H2477 0.929 . S
C2460 C2457 1.424 . S
C2460 C2459 1.384 . S
C2460 H2478 0.928 . S
C2461 C2458 1.260 . S
C2461 C2459 1.479 . S
C2462 C2457 1.245 . S
C2462 C2458 1.477 . S
C2462 H2479 0.932 . S
C2463 U2446 2.882 . S
C2463 C2457 1.428 . S
C2463 O2466 1.301 . S
C2463 O2467 1.282 . S
O2464 U2446 2.441 . S
O2464 C2450 1.249 . S
O2465 U2446 2.420 . S
O2465 C2450 1.202 . S
O2466 U2446 2.455 . S
O2466 C2463 1.301 . S
O2467 U2446 2.449 . S
O2467 C2463 1.282 . S
H2468 C2441 0.931 . S
H2469 C2443 0.929 . S
H2470 C2444 0.930 . S
H2471 C2445 0.931 . S
H2472 C2452 0.932 . S
H2473 C2453 0.930 . S
H2474 C2454 0.929 . S
H2475 C2456 0.930 . S
H2476 C2458 0.932 . S
H2477 C2459 0.929 . S
H2478 C2460 0.928 . S
H2479 C2462 0.932 . S
C2480 C2481 1.264 . S
C2480 C2485 1.479 . S
C2480 C2490 1.465 . S
C2481 C2480 1.264 . S
C2481 C2483 1.339 . S
C2481 H2508 0.931 . S
C2482 C2483 1.395 . S
C2482 C2484 1.320 . S
C2483 C2481 1.339 . S
C2483 C2482 1.395 . S
C2483 H2509 0.929 . S
C2484 C2482 1.320 . S
C2484 C2485 1.405 . S
C2484 H2510 0.930 . S
C2485 C2480 1.479 . S
C2485 C2484 1.405 . S
C2485 H2511 0.931 . S
U2486 O2487 2.454 . S
U2486 O2488 2.458 . S
U2486 C2489 2.984 . S
U2486 C2490 2.847 . S
U2486 C2503 2.882 . S
U2486 O2504 2.441 . S
U2486 O2505 2.420 . S
U2486 O2506 2.455 . S
U2486 O2507 2.449 . S
O2487 U2486 2.454 . S
O2487 C2489 1.353 . S
O2488 U2486 2.458 . S
O2488 C2489 1.286 . S
C2489 U2486 2.984 . S
C2489 O2487 1.353 . S
C2489 O2488 1.286 . S
C2489 C2491 1.363 . S
C2490 C2480 1.465 . S
C2490 U2486 2.847 . S
C2490 O2504 1.249 . S
C2490 O2505 1.202 . S
C2491 C2489 1.363 . S
C2491 C2493 1.408 . S
C2491 C2496 1.342 . S
C2492 C2493 1.310 . S
C2492 C2495 1.461 . S
C2492 H2512 0.932 . S
C2493 C2491 1.408 . S
C2493 C2492 1.310 . S
C2493 H2513 0.930 . S
C2494 C2495 1.474 . S
C2494 C2496 1.285 . S
C2494 H2514 0.929 . S
C2495 C2492 1.461 . S
C2495 C2494 1.474 . S
C2496 C2491 1.342 . S
C2496 C2494 1.285 . S
C2496 H2515 0.930 . S
C2497 C2500 1.424 . S
C2497 C2502 1.245 . S
C2497 C2503 1.428 . S
C2498 C2501 1.260 . S
C2498 C2502 1.477 . S
C2498 H2516 0.932 . S
C2499 C2500 1.384 . S
C2499 C2501 1.479 . S
C2499 H2517 0.929 . S
C2500 C2497 1.424 . S
C2500 C2499 1.384 . S
C2500 H2518 0.928 . S
C2501 C2498 1.260 . S
C2501 C2499 1.479 . S
C2502 C2497 1.245 . S
C2502 C2498 1.477 . S
C2502 H2519 0.932 . S
C2503 U2486 2.882 . S
C2503 C2497 1.428 . S
C2503 O2506 1.301 . S
C2503 O2507 1.282 . S
O2504 U2486 2.441 . S
O2504 C2490 1.249 . S
O2505 U2486 2.420 . S
O2505 C2490 1.202 . S
O2506 U2486 2.455 . S
O2506 C2503 1.301 . S
O2507 U2486 2.449 . S
O2507 C2503 1.282 . S
H2508 C2481 0.931 . S
H2509 C2483 0.929 . S
H2510 C2484 0.930 . S
H2511 C2485 0.931 . S
H2512 C2492 0.932 . S
H2513 C2493 0.930 . S
H2514 C2494 0.929 . S
H2515 C2496 0.930 . S
H2516 C2498 0.932 . S
H2517 C2499 0.929 . S
H2518 C2500 0.928 . S
H2519 C2502 0.932 . S
C2520 C2521 1.264 . S
C2520 C2525 1.479 . S
C2520 C2530 1.465 . S
C2521 C2520 1.264 . S
C2521 C2523 1.339 . S
C2521 H2548 0.931 . S
C2522 C2523 1.395 . S
C2522 C2524 1.320 . S
C2523 C2521 1.339 . S
C2523 C2522 1.395 . S
C2523 H2549 0.929 . S
C2524 C2522 1.320 . S
C2524 C2525 1.405 . S
C2524 H2550 0.930 . S
C2525 C2520 1.479 . S
C2525 C2524 1.405 . S
C2525 H2551 0.931 . S
U2526 O2527 2.454 . S
U2526 O2528 2.458 . S
U2526 C2529 2.984 . S
U2526 C2530 2.847 . S
U2526 C2543 2.882 . S
U2526 O2544 2.441 . S
U2526 O2545 2.420 . S
U2526 O2546 2.455 . S
U2526 O2547 2.449 . S
O2527 U2526 2.454 . S
O2527 C2529 1.353 . S
O2528 U2526 2.458 . S
O2528 C2529 1.286 . S
C2529 U2526 2.984 . S
C2529 O2527 1.353 . S
C2529 O2528 1.286 . S
C2529 C2531 1.363 . S
C2530 C2520 1.465 . S
C2530 U2526 2.847 . S
C2530 O2544 1.249 . S
C2530 O2545 1.202 . S
C2531 C2529 1.363 . S
C2531 C2533 1.408 . S
C2531 C2536 1.342 . S
C2532 C2533 1.310 . S
C2532 C2535 1.461 . S
C2532 H2552 0.932 . S
C2533 C2531 1.408 . S
C2533 C2532 1.310 . S
C2533 H2553 0.930 . S
C2534 C2535 1.474 . S
C2534 C2536 1.285 . S
C2534 H2554 0.929 . S
C2535 C2532 1.461 . S
C2535 C2534 1.474 . S
C2536 C2531 1.342 . S
C2536 C2534 1.285 . S
C2536 H2555 0.930 . S
C2537 C2540 1.424 . S
C2537 C2542 1.245 . S
C2537 C2543 1.428 . S
C2538 C2541 1.260 . S
C2538 C2542 1.477 . S
C2538 H2556 0.932 . S
C2539 C2540 1.384 . S
C2539 C2541 1.479 . S
C2539 H2557 0.929 . S
C2540 C2537 1.424 . S
C2540 C2539 1.384 . S
C2540 H2558 0.928 . S
C2541 C2538 1.260 . S
C2541 C2539 1.479 . S
C2542 C2537 1.245 . S
C2542 C2538 1.477 . S
C2542 H2559 0.932 . S
C2543 U2526 2.882 . S
C2543 C2537 1.428 . S
C2543 O2546 1.301 . S
C2543 O2547 1.282 . S
O2544 U2526 2.441 . S
O2544 C2530 1.249 . S
O2545 U2526 2.420 . S
O2545 C2530 1.202 . S
O2546 U2526 2.455 . S
O2546 C2543 1.301 . S
O2547 U2526 2.449 . S
O2547 C2543 1.282 . S
H2548 C2521 0.931 . S
H2549 C2523 0.929 . S
H2550 C2524 0.930 . S
H2551 C2525 0.931 . S
H2552 C2532 0.932 . S
H2553 C2533 0.930 . S
H2554 C2534 0.929 . S
H2555 C2536 0.930 . S
H2556 C2538 0.932 . S
H2557 C2539 0.929 . S
H2558 C2540 0.928 . S
H2559 C2542 0.932 . S
C2560 C2561 1.264 . S
C2560 C2565 1.479 . S
C2560 C2570 1.465 . S
C2561 C2560 1.264 . S
C2561 C2563 1.339 . S
C2561 H2588 0.931 . S
C2562 C2563 1.395 . S
C2562 C2564 1.320 . S
C2563 C2561 1.339 . S
C2563 C2562 1.395 . S
C2563 H2589 0.929 . S
C2564 C2562 1.320 . S
C2564 C2565 1.405 . S
C2564 H2590 0.930 . S
C2565 C2560 1.479 . S
C2565 C2564 1.405 . S
C2565 H2591 0.931 . S
U2566 O2567 2.454 . S
U2566 O2568 2.458 . S
U2566 C2569 2.984 . S
U2566 C2570 2.847 . S
U2566 C2583 2.882 . S
U2566 O2584 2.441 . S
U2566 O2585 2.420 . S
U2566 O2586 2.455 . S
U2566 O2587 2.449 . S
O2567 U2566 2.454 . S
O2567 C2569 1.353 . S
O2568 U2566 2.458 . S
O2568 C2569 1.286 . S
C2569 U2566 2.984 . S
C2569 O2567 1.353 . S
C2569 O2568 1.286 . S
C2569 C2571 1.363 . S
C2570 C2560 1.465 . S
C2570 U2566 2.847 . S
C2570 O2584 1.249 . S
C2570 O2585 1.202 . S
C2571 C2569 1.363 . S
C2571 C2573 1.408 . S
C2571 C2576 1.342 . S
C2572 C2573 1.310 . S
C2572 C2575 1.461 . S
C2572 H2592 0.932 . S
C2573 C2571 1.408 . S
C2573 C2572 1.310 . S
C2573 H2593 0.930 . S
C2574 C2575 1.474 . S
C2574 C2576 1.285 . S
C2574 H2594 0.929 . S
C2575 C2572 1.461 . S
C2575 C2574 1.474 . S
C2576 C2571 1.342 . S
C2576 C2574 1.285 . S
C2576 H2595 0.930 . S
C2577 C2580 1.424 . S
C2577 C2582 1.245 . S
C2577 C2583 1.428 . S
C2578 C2581 1.260 . S
C2578 C2582 1.477 . S
C2578 H2596 0.932 . S
C2579 C2580 1.384 . S
C2579 C2581 1.479 . S
C2579 H2597 0.929 . S
C2580 C2577 1.424 . S
C2580 C2579 1.384 . S
C2580 H2598 0.928 . S
C2581 C2578 1.260 . S
C2581 C2579 1.479 . S
C2582 C2577 1.245 . S
C2582 C2578 1.477 . S
C2582 H2599 0.932 . S
C2583 U2566 2.882 . S
C2583 C2577 1.428 . S
C2583 O2586 1.301 . S
C2583 O2587 1.282 . S
O2584 U2566 2.441 . S
O2584 C2570 1.249 . S
O2585 U2566 2.420 . S
O2585 C2570 1.202 . S
O2586 U2566 2.455 . S
O2586 C2583 1.301 . S
O2587 U2566 2.449 . S
O2587 C2583 1.282 . S
H2588 C2561 0.931 . S
H2589 C2563 0.929 . S
H2590 C2564 0.930 . S
H2591 C2565 0.931 . S
H2592 C2572 0.932 . S
H2593 C2573 0.930 . S
H2594 C2574 0.929 . S
H2595 C2576 0.930 . S
H2596 C2578 0.932 . S
H2597 C2579 0.929 . S
H2598 C2580 0.928 . S
H2599 C2582 0.932 . S
C2600 C2601 1.264 . S
C2600 C2605 1.479 . S
C2600 C2610 1.465 . S
C2601 C2600 1.264 . S
C2601 C2603 1.339 . S
C2601 H2628 0.931 . S
C2602 C2603 1.395 . S
C2602 C2604 1.320 . S
C2603 C2601 1.339 . S
C2603 C2602 1.395 . S
C2603 H2629 0.929 . S
C2604 C2602 1.320 . S
C2604 C2605 1.405 . S
C2604 H2630 0.930 . S
C2605 C2600 1.479 . S
C2605 C2604 1.405 . S
C2605 H2631 0.931 . S
U2606 O2607 2.454 . S
U2606 O2608 2.458 . S
U2606 C2609 2.984 . S
U2606 C2610 2.847 . S
U2606 C2623 2.882 . S
U2606 O2624 2.441 . S
U2606 O2625 2.420 . S
U2606 O2626 2.455 . S
U2606 O2627 2.449 . S
O2607 U2606 2.454 . S
O2607 C2609 1.353 . S
O2608 U2606 2.458 . S
O2608 C2609 1.286 . S
C2609 U2606 2.984 . S
C2609 O2607 1.353 . S
C2609 O2608 1.286 . S
C2609 C2611 1.363 . S
C2610 C2600 1.465 . S
C2610 U2606 2.847 . S
C2610 O2624 1.249 . S
C2610 O2625 1.202 . S
C2611 C2609 1.363 . S
C2611 C2613 1.408 . S
C2611 C2616 1.342 . S
C2612 C2613 1.310 . S
C2612 C2615 1.461 . S
C2612 H2632 0.932 . S
C2613 C2611 1.408 . S
C2613 C2612 1.310 . S
C2613 H2633 0.930 . S
C2614 C2615 1.474 . S
C2614 C2616 1.285 . S
C2614 H2634 0.929 . S
C2615 C2612 1.461 . S
C2615 C2614 1.474 . S
C2616 C2611 1.342 . S
C2616 C2614 1.285 . S
C2616 H2635 0.930 . S
C2617 C2620 1.424 . S
C2617 C2622 1.245 . S
C2617 C2623 1.428 . S
C2618 C2621 1.260 . S
C2618 C2622 1.477 . S
C2618 H2636 0.932 . S
C2619 C2620 1.384 . S
C2619 C2621 1.479 . S
C2619 H2637 0.929 . S
C2620 C2617 1.424 . S
C2620 C2619 1.384 . S
C2620 H2638 0.928 . S
C2621 C2618 1.260 . S
C2621 C2619 1.479 . S
C2622 C2617 1.245 . S
C2622 C2618 1.477 . S
C2622 H2639 0.932 . S
C2623 U2606 2.882 . S
C2623 C2617 1.428 . S
C2623 O2626 1.301 . S
C2623 O2627 1.282 . S
O2624 U2606 2.441 . S
O2624 C2610 1.249 . S
O2625 U2606 2.420 . S
O2625 C2610 1.202 . S
O2626 U2606 2.455 . S
O2626 C2623 1.301 . S
O2627 U2606 2.449 . S
O2627 C2623 1.282 . S
H2628 C2601 0.931 . S
H2629 C2603 0.929 . S
H2630 C2604 0.930 . S
H2631 C2605 0.931 . S
H2632 C2612 0.932 . S
H2633 C2613 0.930 . S
H2634 C2614 0.929 . S
H2635 C2616 0.930 . S
H2636 C2618 0.932 . S
H2637 C2619 0.929 . S
H2638 C2620 0.928 . S
H2639 C2622 0.932 . S
C2640 C2641 1.264 . S
C2640 C2645 1.479 . S
C2640 C2650 1.465 . S
C2641 C2640 1.264 . S
C2641 C2643 1.339 . S
C2641 H2668 0.931 . S
C2642 C2643 1.395 . S
C2642 C2644 1.320 . S
C2643 C2641 1.339 . S
C2643 C2642 1.395 . S
C2643 H2669 0.929 . S
C2644 C2642 1.320 . S
C2644 C2645 1.405 . S
C2644 H2670 0.930 . S
C2645 C2640 1.479 . S
C2645 C2644 1.405 . S
C2645 H2671 0.931 . S
U2646 O2647 2.454 . S
U2646 O2648 2.458 . S
U2646 C2649 2.984 . S
U2646 C2650 2.847 . S
U2646 C2663 2.882 . S
U2646 O2664 2.441 . S
U2646 O2665 2.420 . S
U2646 O2666 2.455 . S
U2646 O2667 2.449 . S
O2647 U2646 2.454 . S
O2647 C2649 1.353 . S
O2648 U2646 2.458 . S
O2648 C2649 1.286 . S
C2649 U2646 2.984 . S
C2649 O2647 1.353 . S
C2649 O2648 1.286 . S
C2649 C2651 1.363 . S
C2650 C2640 1.465 . S
C2650 U2646 2.847 . S
C2650 O2664 1.249 . S
C2650 O2665 1.202 . S
C2651 C2649 1.363 . S
C2651 C2653 1.408 . S
C2651 C2656 1.342 . S
C2652 C2653 1.310 . S
C2652 C2655 1.461 . S
C2652 H2672 0.932 . S
C2653 C2651 1.408 . S
C2653 C2652 1.310 . S
C2653 H2673 0.930 . S
C2654 C2655 1.474 . S
C2654 C2656 1.285 . S
C2654 H2674 0.929 . S
C2655 C2652 1.461 . S
C2655 C2654 1.474 . S
C2656 C2651 1.342 . S
C2656 C2654 1.285 . S
C2656 H2675 0.930 . S
C2657 C2660 1.424 . S
C2657 C2662 1.245 . S
C2657 C2663 1.428 . S
C2658 C2661 1.260 . S
C2658 C2662 1.477 . S
C2658 H2676 0.932 . S
C2659 C2660 1.384 . S
C2659 C2661 1.479 . S
C2659 H2677 0.929 . S
C2660 C2657 1.424 . S
C2660 C2659 1.384 . S
C2660 H2678 0.928 . S
C2661 C2658 1.260 . S
C2661 C2659 1.479 . S
C2662 C2657 1.245 . S
C2662 C2658 1.477 . S
C2662 H2679 0.932 . S
C2663 U2646 2.882 . S
C2663 C2657 1.428 . S
C2663 O2666 1.301 . S
C2663 O2667 1.282 . S
O2664 U2646 2.441 . S
O2664 C2650 1.249 . S
O2665 U2646 2.420 . S
O2665 C2650 1.202 . S
O2666 U2646 2.455 . S
O2666 C2663 1.301 . S
O2667 U2646 2.449 . S
O2667 C2663 1.282 . S
H2668 C2641 0.931 . S
H2669 C2643 0.929 . S
H2670 C2644 0.930 . S
H2671 C2645 0.931 . S
H2672 C2652 0.932 . S
H2673 C2653 0.930 . S
H2674 C2654 0.929 . S
H2675 C2656 0.930 . S
H2676 C2658 0.932 . S
H2677 C2659 0.929 . S
H2678 C2660 0.928 . S
H2679 C2662 0.932 . S
C2680 C2681 1.264 . S
C2680 C2685 1.479 . S
C2680 C2690 1.465 . S
C2681 C2680 1.264 . S
C2681 C2683 1.339 . S
C2681 H2708 0.931 . S
C2682 C2683 1.395 . S
C2682 C2684 1.320 . S
C2683 C2681 1.339 . S
C2683 C2682 1.395 . S
C2683 H2709 0.929 . S
C2684 C2682 1.320 . S
C2684 C2685 1.405 . S
C2684 H2710 0.930 . S
C2685 C2680 1.479 . S
C2685 C2684 1.405 . S
C2685 H2711 0.931 . S
U2686 O2687 2.454 . S
U2686 O2688 2.458 . S
U2686 C2689 2.984 . S
U2686 C2690 2.847 . S
U2686 C2703 2.882 . S
U2686 O2704 2.441 . S
U2686 O2705 2.420 . S
U2686 O2706 2.455 . S
U2686 O2707 2.449 . S
O2687 U2686 2.454 . S
O2687 C2689 1.353 . S
O2688 U2686 2.458 . S
O2688 C2689 1.286 . S
C2689 U2686 2.984 . S
C2689 O2687 1.353 . S
C2689 O2688 1.286 . S
C2689 C2691 1.363 . S
C2690 C2680 1.465 . S
C2690 U2686 2.847 . S
C2690 O2704 1.249 . S
C2690 O2705 1.202 . S
C2691 C2689 1.363 . S
C2691 C2693 1.408 . S
C2691 C2696 1.342 . S
C2692 C2693 1.310 . S
C2692 C2695 1.461 . S
C2692 H2712 0.932 . S
C2693 C2691 1.408 . S
C2693 C2692 1.310 . S
C2693 H2713 0.930 . S
C2694 C2695 1.474 . S
C2694 C2696 1.285 . S
C2694 H2714 0.929 . S
C2695 C2692 1.461 . S
C2695 C2694 1.474 . S
C2696 C2691 1.342 . S
C2696 C2694 1.285 . S
C2696 H2715 0.930 . S
C2697 C2700 1.424 . S
C2697 C2702 1.245 . S
C2697 C2703 1.428 . S
C2698 C2701 1.260 . S
C2698 C2702 1.477 . S
C2698 H2716 0.932 . S
C2699 C2700 1.384 . S
C2699 C2701 1.479 . S
C2699 H2717 0.929 . S
C2700 C2697 1.424 . S
C2700 C2699 1.384 . S
C2700 H2718 0.928 . S
C2701 C2698 1.260 . S
C2701 C2699 1.479 . S
C2702 C2697 1.245 . S
C2702 C2698 1.477 . S
C2702 H2719 0.932 . S
C2703 U2686 2.882 . S
C2703 C2697 1.428 . S
C2703 O2706 1.301 . S
C2703 O2707 1.282 . S
O2704 U2686 2.441 . S
O2704 C2690 1.249 . S
O2705 U2686 2.420 . S
O2705 C2690 1.202 . S
O2706 U2686 2.455 . S
O2706 C2703 1.301 . S
O2707 U2686 2.449 . S
O2707 C2703 1.282 . S
H2708 C2681 0.931 . S
H2709 C2683 0.929 . S
H2710 C2684 0.930 . S
H2711 C2685 0.931 . S
H2712 C2692 0.932 . S
H2713 C2693 0.930 . S
H2714 C2694 0.929 . S
H2715 C2696 0.930 . S
H2716 C2698 0.932 . S
H2717 C2699 0.929 . S
H2718 C2700 0.928 . S
H2719 C2702 0.932 . S
C2720 C2721 1.264 . S
C2720 C2725 1.479 . S
C2720 C2730 1.465 . S
C2721 C2720 1.264 . S
C2721 C2723 1.339 . S
C2721 H2748 0.931 . S
C2722 C2723 1.395 . S
C2722 C2724 1.320 . S
C2723 C2721 1.339 . S
C2723 C2722 1.395 . S
C2723 H2749 0.929 . S
C2724 C2722 1.320 . S
C2724 C2725 1.405 . S
C2724 H2750 0.930 . S
C2725 C2720 1.479 . S
C2725 C2724 1.405 . S
C2725 H2751 0.931 . S
U2726 O2727 2.454 . S
U2726 O2728 2.458 . S
U2726 C2729 2.984 . S
U2726 C2730 2.847 . S
U2726 C2743 2.882 . S
U2726 O2744 2.441 . S
U2726 O2745 2.420 . S
U2726 O2746 2.455 . S
U2726 O2747 2.449 . S
O2727 U2726 2.454 . S
O2727 C2729 1.353 . S
O2728 U2726 2.458 . S
O2728 C2729 1.286 . S
C2729 U2726 2.984 . S
C2729 O2727 1.353 . S
C2729 O2728 1.286 . S
C2729 C2731 1.363 . S
C2730 C2720 1.465 . S
C2730 U2726 2.847 . S
C2730 O2744 1.249 . S
C2730 O2745 1.202 . S
C2731 C2729 1.363 . S
C2731 C2733 1.408 . S
C2731 C2736 1.342 . S
C2732 C2733 1.310 . S
C2732 C2735 1.461 . S
C2732 H2752 0.932 . S
C2733 C2731 1.408 . S
C2733 C2732 1.310 . S
C2733 H2753 0.930 . S
C2734 C2735 1.474 . S
C2734 C2736 1.285 . S
C2734 H2754 0.929 . S
C2735 C2732 1.461 . S
C2735 C2734 1.474 . S
C2736 C2731 1.342 . S
C2736 C2734 1.285 . S
C2736 H2755 0.930 . S
C2737 C2740 1.424 . S
C2737 C2742 1.245 . S
C2737 C2743 1.428 . S
C2738 C2741 1.260 . S
C2738 C2742 1.477 . S
C2738 H2756 0.932 . S
C2739 C2740 1.384 . S
C2739 C2741 1.479 . S
C2739 H2757 0.929 . S
C2740 C2737 1.424 . S
C2740 C2739 1.384 . S
C2740 H2758 0.928 . S
C2741 C2738 1.260 . S
C2741 C2739 1.479 . S
C2742 C2737 1.245 . S
C2742 C2738 1.477 . S
C2742 H2759 0.932 . S
C2743 U2726 2.882 . S
C2743 C2737 1.428 . S
C2743 O2746 1.301 . S
C2743 O2747 1.282 . S
O2744 U2726 2.441 . S
O2744 C2730 1.249 . S
O2745 U2726 2.420 . S
O2745 C2730 1.202 . S
O2746 U2726 2.455 . S
O2746 C2743 1.301 . S
O2747 U2726 2.449 . S
O2747 C2743 1.282 . S
H2748 C2721 0.931 . S
H2749 C2723 0.929 . S
H2750 C2724 0.930 . S
H2751 C2725 0.931 . S
H2752 C2732 0.932 . S
H2753 C2733 0.930 . S
H2754 C2734 0.929 . S
H2755 C2736 0.930 . S
H2756 C2738 0.932 . S
H2757 C2739 0.929 . S
H2758 C2740 0.928 . S
H2759 C2742 0.932 . S
C2760 C2761 1.264 . S
C2760 C2765 1.479 . S
C2760 C2770 1.465 . S
C2761 C2760 1.264 . S
C2761 C2763 1.339 . S
C2761 H2788 0.931 . S
C2762 C2763 1.395 . S
C2762 C2764 1.320 . S
C2763 C2761 1.339 . S
C2763 C2762 1.395 . S
C2763 H2789 0.929 . S
C2764 C2762 1.320 . S
C2764 C2765 1.405 . S
C2764 H2790 0.930 . S
C2765 C2760 1.479 . S
C2765 C2764 1.405 . S
C2765 H2791 0.931 . S
U2766 O2767 2.454 . S
U2766 O2768 2.458 . S
U2766 C2769 2.984 . S
U2766 C2770 2.847 . S
U2766 C2783 2.882 . S
U2766 O2784 2.441 . S
U2766 O2785 2.420 . S
U2766 O2786 2.455 . S
U2766 O2787 2.449 . S
O2767 U2766 2.454 . S
O2767 C2769 1.353 . S
O2768 U2766 2.458 . S
O2768 C2769 1.286 . S
C2769 U2766 2.984 . S
C2769 O2767 1.353 . S
C2769 O2768 1.286 . S
C2769 C2771 1.363 . S
C2770 C2760 1.465 . S
C2770 U2766 2.847 . S
C2770 O2784 1.249 . S
C2770 O2785 1.202 . S
C2771 C2769 1.363 . S
C2771 C2773 1.408 . S
C2771 C2776 1.342 . S
C2772 C2773 1.310 . S
C2772 C2775 1.461 . S
C2772 H2792 0.932 . S
C2773 C2771 1.408 . S
C2773 C2772 1.310 . S
C2773 H2793 0.930 . S
C2774 C2775 1.474 . S
C2774 C2776 1.285 . S
C2774 H2794 0.929 . S
C2775 C2772 1.461 . S
C2775 C2774 1.474 . S
C2776 C2771 1.342 . S
C2776 C2774 1.285 . S
C2776 H2795 0.930 . S
C2777 C2780 1.424 . S
C2777 C2782 1.245 . S
C2777 C2783 1.428 . S
C2778 C2781 1.260 . S
C2778 C2782 1.477 . S
C2778 H2796 0.932 . S
C2779 C2780 1.384 . S
C2779 C2781 1.479 . S
C2779 H2797 0.929 . S
C2780 C2777 1.424 . S
C2780 C2779 1.384 . S
C2780 H2798 0.928 . S
C2781 C2778 1.260 . S
C2781 C2779 1.479 . S
C2782 C2777 1.245 . S
C2782 C2778 1.477 . S
C2782 H2799 0.932 . S
C2783 U2766 2.882 . S
C2783 C2777 1.428 . S
C2783 O2786 1.301 . S
C2783 O2787 1.282 . S
O2784 U2766 2.441 . S
O2784 C2770 1.249 . S
O2785 U2766 2.420 . S
O2785 C2770 1.202 . S
O2786 U2766 2.455 . S
O2786 C2783 1.301 . S
O2787 U2766 2.449 . S
O2787 C2783 1.282 . S
H2788 C2761 0.931 . S
H2789 C2763 0.929 . S
H2790 C2764 0.930 . S
H2791 C2765 0.931 . S
H2792 C2772 0.932 . S
H2793 C2773 0.930 . S
H2794 C2774 0.929 . S
H2795 C2776 0.930 . S
H2796 C2778 0.932 . S
H2797 C2779 0.929 . S
H2798 C2780 0.928 . S
H2799 C2782 0.932 . S
C2800 C2801 1.264 . S
C2800 C2805 1.479 . S
C2800 C2810 1.465 . S
C2801 C2800 1.264 . S
C2801 C2803 1.339 . S
C2801 H2828 0.931 . S
C2802 C2803 1.395 . S
C2802 C2804 1.320 . S
C2803 C2801 1.339 . S
C2803 C2802 1.395 . S
C2803 H2829 0.929 . S
C2804 C2802 1.320 . S
C2804 C2805 1.405 . S
C2804 H2830 0.930 . S
C2805 C2800 1.479 . S
C2805 C2804 1.405 . S
C2805 H2831 0.931 . S
U2806 O2807 2.454 . S
U2806 O2808 2.458 . S
U2806 C2809 2.984 . S
U2806 C2810 2.847 . S
U2806 C2823 2.882 . S
U2806 O2824 2.441 . S
U2806 O2825 2.420 . S
U2806 O2826 2.455 . S
U2806 O2827 2.449 . S
O2807 U2806 2.454 . S
O2807 C2809 1.353 . S
O2808 U2806 2.458 . S
O2808 C2809 1.286 . S
C2809 U2806 2.984 . S
C2809 O2807 1.353 . S
C2809 O2808 1.286 . S
C2809 C2811 1.363 . S
C2810 C2800 1.465 . S
C2810 U2806 2.847 . S
C2810 O2824 1.249 . S
C2810 O2825 1.202 . S
C2811 C2809 1.363 . S
C2811 C2813 1.408 . S
C2811 C2816 1.342 . S
C2812 C2813 1.310 . S
C2812 C2815 1.461 . S
C2812 H2832 0.932 . S
C2813 C2811 1.408 . S
C2813 C2812 1.310 . S
C2813 H2833 0.930 . S
C2814 C2815 1.474 . S
C2814 C2816 1.285 . S
C2814 H2834 0.929 . S
C2815 C2812 1.461 . S
C2815 C2814 1.474 . S
C2816 C2811 1.342 . S
C2816 C2814 1.285 . S
C2816 H2835 0.930 . S
C2817 C2820 1.424 . S
C2817 C2822 1.245 . S
C2817 C2823 1.428 . S
C2818 C2821 1.260 . S
C2818 C2822 1.477 . S
C2818 H2836 0.932 . S
C2819 C2820 1.384 . S
C2819 C2821 1.479 . S
C2819 H2837 0.929 . S
C2820 C2817 1.424 . S
C2820 C2819 1.384 . S
C2820 H2838 0.928 . S
C2821 C2818 1.260 . S
C2821 C2819 1.479 . S
C2822 C2817 1.245 . S
C2822 C2818 1.477 . S
C2822 H2839 0.932 . S
C2823 U2806 2.882 . S
C2823 C2817 1.428 . S
C2823 O2826 1.301 . S
C2823 O2827 1.282 . S
O2824 U2806 2.441 . S
O2824 C2810 1.249 . S
O2825 U2806 2.420 . S
O2825 C2810 1.202 . S
O2826 U2806 2.455 . S
O2826 C2823 1.301 . S
O2827 U2806 2.449 . S
O2827 C2823 1.282 . S
H2828 C2801 0.931 . S
H2829 C2803 0.929 . S
H2830 C2804 0.930 . S
H2831 C2805 0.931 . S
H2832 C2812 0.932 . S
H2833 C2813 0.930 . S
H2834 C2814 0.929 . S
H2835 C2816 0.930 . S
H2836 C2818 0.932 . S
H2837 C2819 0.929 . S
H2838 C2820 0.928 . S
H2839 C2822 0.932 . S
C2840 C2841 1.264 . S
C2840 C2845 1.479 . S
C2840 C2850 1.465 . S
C2841 C2840 1.264 . S
C2841 C2843 1.339 . S
C2841 H2868 0.931 . S
C2842 C2843 1.395 . S
C2842 C2844 1.320 . S
C2843 C2841 1.339 . S
C2843 C2842 1.395 . S
C2843 H2869 0.929 . S
C2844 C2842 1.320 . S
C2844 C2845 1.405 . S
C2844 H2870 0.930 . S
C2845 C2840 1.479 . S
C2845 C2844 1.405 . S
C2845 H2871 0.931 . S
U2846 O2847 2.454 . S
U2846 O2848 2.458 . S
U2846 C2849 2.984 . S
U2846 C2850 2.847 . S
U2846 C2863 2.882 . S
U2846 O2864 2.441 . S
U2846 O2865 2.420 . S
U2846 O2866 2.455 . S
U2846 O2867 2.449 . S
O2847 U2846 2.454 . S
O2847 C2849 1.353 . S
O2848 U2846 2.458 . S
O2848 C2849 1.286 . S
C2849 U2846 2.984 . S
C2849 O2847 1.353 . S
C2849 O2848 1.286 . S
C2849 C2851 1.363 . S
C2850 C2840 1.465 . S
C2850 U2846 2.847 . S
C2850 O2864 1.249 . S
C2850 O2865 1.202 . S
C2851 C2849 1.363 . S
C2851 C2853 1.408 . S
C2851 C2856 1.342 . S
C2852 C2853 1.310 . S
C2852 C2855 1.461 . S
C2852 H2872 0.932 . S
C2853 C2851 1.408 . S
C2853 C2852 1.310 . S
C2853 H2873 0.930 . S
C2854 C2855 1.474 . S
C2854 C2856 1.285 . S
C2854 H2874 0.929 . S
C2855 C2852 1.461 . S
C2855 C2854 1.474 . S
C2856 C2851 1.342 . S
C2856 C2854 1.285 . S
C2856 H2875 0.930 . S
C2857 C2860 1.424 . S
C2857 C2862 1.245 . S
C2857 C2863 1.428 . S
C2858 C2861 1.260 . S
C2858 C2862 1.477 . S
C2858 H2876 0.932 . S
C2859 C2860 1.384 . S
C2859 C2861 1.479 . S
C2859 H2877 0.929 . S
C2860 C2857 1.424 . S
C2860 C2859 1.384 . S
C2860 H2878 0.928 . S
C2861 C2858 1.260 . S
C2861 C2859 1.479 . S
C2862 C2857 1.245 . S
C2862 C2858 1.477 . S
C2862 H2879 0.932 . S
C2863 U2846 2.882 . S
C2863 C2857 1.428 . S
C2863 O2866 1.301 . S
C2863 O2867 1.282 . S
O2864 U2846 2.441 . S
O2864 C2850 1.249 . S
O2865 U2846 2.420 . S
O2865 C2850 1.202 . S
O2866 U2846 2.455 . S
O2866 C2863 1.301 . S
O2867 U2846 2.449 . S
O2867 C2863 1.282 . S
H2868 C2841 0.931 . S
H2869 C2843 0.929 . S
H2870 C2844 0.930 . S
H2871 C2845 0.931 . S
H2872 C2852 0.932 . S
H2873 C2853 0.930 . S
H2874 C2854 0.929 . S
H2875 C2856 0.930 . S
H2876 C2858 0.932 . S
H2877 C2859 0.929 . S
H2878 C2860 0.928 . S
H2879 C2862 0.932 . S
C2880 C2881 1.264 . S
C2880 C2885 1.479 . S
C2880 C2890 1.465 . S
C2881 C2880 1.264 . S
C2881 C2883 1.339 . S
C2881 H2908 0.931 . S
C2882 C2883 1.395 . S
C2882 C2884 1.320 . S
C2883 C2881 1.339 . S
C2883 C2882 1.395 . S
C2883 H2909 0.929 . S
C2884 C2882 1.320 . S
C2884 C2885 1.405 . S
C2884 H2910 0.930 . S
C2885 C2880 1.479 . S
C2885 C2884 1.405 . S
C2885 H2911 0.931 . S
U2886 O2887 2.454 . S
U2886 O2888 2.458 . S
U2886 C2889 2.984 . S
U2886 C2890 2.847 . S
U2886 C2903 2.882 . S
U2886 O2904 2.441 . S
U2886 O2905 2.420 . S
U2886 O2906 2.455 . S
U2886 O2907 2.449 . S
O2887 U2886 2.454 . S
O2887 C2889 1.353 . S
O2888 U2886 2.458 . S
O2888 C2889 1.286 . S
C2889 U2886 2.984 . S
C2889 O2887 1.353 . S
C2889 O2888 1.286 . S
C2889 C2891 1.363 . S
C2890 C2880 1.465 . S
C2890 U2886 2.847 . S
C2890 O2904 1.249 . S
C2890 O2905 1.202 . S
C2891 C2889 1.363 . S
C2891 C2893 1.408 . S
C2891 C2896 1.342 . S
C2892 C2893 1.310 . S
C2892 C2895 1.461 . S
C2892 H2912 0.932 . S
C2893 C2891 1.408 . S
C2893 C2892 1.310 . S
C2893 H2913 0.930 . S
C2894 C2895 1.474 . S
C2894 C2896 1.285 . S
C2894 H2914 0.929 . S
C2895 C2892 1.461 . S
C2895 C2894 1.474 . S
C2896 C2891 1.342 . S
C2896 C2894 1.285 . S
C2896 H2915 0.930 . S
C2897 C2900 1.424 . S
C2897 C2902 1.245 . S
C2897 C2903 1.428 . S
C2898 C2901 1.260 . S
C2898 C2902 1.477 . S
C2898 H2916 0.932 . S
C2899 C2900 1.384 . S
C2899 C2901 1.479 . S
C2899 H2917 0.929 . S
C2900 C2897 1.424 . S
C2900 C2899 1.384 . S
C2900 H2918 0.928 . S
C2901 C2898 1.260 . S
C2901 C2899 1.479 . S
C2902 C2897 1.245 . S
C2902 C2898 1.477 . S
C2902 H2919 0.932 . S
C2903 U2886 2.882 . S
C2903 C2897 1.428 . S
C2903 O2906 1.301 . S
C2903 O2907 1.282 . S
O2904 U2886 2.441 . S
O2904 C2890 1.249 . S
O2905 U2886 2.420 . S
O2905 C2890 1.202 . S
O2906 U2886 2.455 . S
O2906 C2903 1.301 . S
O2907 U2886 2.449 . S
O2907 C2903 1.282 . S
H2908 C2881 0.931 . S
H2909 C2883 0.929 . S
H2910 C2884 0.930 . S
H2911 C2885 0.931 . S
H2912 C2892 0.932 . S
H2913 C2893 0.930 . S
H2914 C2894 0.929 . S
H2915 C2896 0.930 . S
H2916 C2898 0.932 . S
H2917 C2899 0.929 . S
H2918 C2900 0.928 . S
H2919 C2902 0.932 . S
C2920 C2921 1.264 . S
C2920 C2925 1.479 . S
C2920 C2930 1.465 . S
C2921 C2920 1.264 . S
C2921 C2923 1.339 . S
C2921 H2948 0.931 . S
C2922 C2923 1.395 . S
C2922 C2924 1.320 . S
C2923 C2921 1.339 . S
C2923 C2922 1.395 . S
C2923 H2949 0.929 . S
C2924 C2922 1.320 . S
C2924 C2925 1.405 . S
C2924 H2950 0.930 . S
C2925 C2920 1.479 . S
C2925 C2924 1.405 . S
C2925 H2951 0.931 . S
U2926 O2927 2.454 . S
U2926 O2928 2.458 . S
U2926 C2929 2.984 . S
U2926 C2930 2.847 . S
U2926 C2943 2.882 . S
U2926 O2944 2.441 . S
U2926 O2945 2.420 . S
U2926 O2946 2.455 . S
U2926 O2947 2.449 . S
O2927 U2926 2.454 . S
O2927 C2929 1.353 . S
O2928 U2926 2.458 . S
O2928 C2929 1.286 . S
C2929 U2926 2.984 . S
C2929 O2927 1.353 . S
C2929 O2928 1.286 . S
C2929 C2931 1.363 . S
C2930 C2920 1.465 . S
C2930 U2926 2.847 . S
C2930 O2944 1.249 . S
C2930 O2945 1.202 . S
C2931 C2929 1.363 . S
C2931 C2933 1.408 . S
C2931 C2936 1.342 . S
C2932 C2933 1.310 . S
C2932 C2935 1.461 . S
C2932 H2952 0.932 . S
C2933 C2931 1.408 . S
C2933 C2932 1.310 . S
C2933 H2953 0.930 . S
C2934 C2935 1.474 . S
C2934 C2936 1.285 . S
C2934 H2954 0.929 . S
C2935 C2932 1.461 . S
C2935 C2934 1.474 . S
C2936 C2931 1.342 . S
C2936 C2934 1.285 . S
C2936 H2955 0.930 . S
C2937 C2940 1.424 . S
C2937 C2942 1.245 . S
C2937 C2943 1.428 . S
C2938 C2941 1.260 . S
C2938 C2942 1.477 . S
C2938 H2956 0.932 . S
C2939 C2940 1.384 . S
C2939 C2941 1.479 . S
C2939 H2957 0.929 . S
C2940 C2937 1.424 . S
C2940 C2939 1.384 . S
C2940 H2958 0.928 . S
C2941 C2938 1.260 . S
C2941 C2939 1.479 . S
C2942 C2937 1.245 . S
C2942 C2938 1.477 . S
C2942 H2959 0.932 . S
C2943 U2926 2.882 . S
C2943 C2937 1.428 . S
C2943 O2946 1.301 . S
C2943 O2947 1.282 . S
O2944 U2926 2.441 . S
O2944 C2930 1.249 . S
O2945 U2926 2.420 . S
O2945 C2930 1.202 . S
O2946 U2926 2.455 . S
O2946 C2943 1.301 . S
O2947 U2926 2.449 . S
O2947 C2943 1.282 . S
H2948 C2921 0.931 . S
H2949 C2923 0.929 . S
H2950 C2924 0.930 . S
H2951 C2925 0.931 . S
H2952 C2932 0.932 . S
H2953 C2933 0.930 . S
H2954 C2934 0.929 . S
H2955 C2936 0.930 . S
H2956 C2938 0.932 . S
H2957 C2939 0.929 . S
H2958 C2940 0.928 . S
H2959 C2942 0.932 . S
C2960 C2961 1.264 . S
C2960 C2965 1.479 . S
C2960 C2970 1.465 . S
C2961 C2960 1.264 . S
C2961 C2963 1.339 . S
C2961 H2988 0.931 . S
C2962 C2963 1.395 . S
C2962 C2964 1.320 . S
C2963 C2961 1.339 . S
C2963 C2962 1.395 . S
C2963 H2989 0.929 . S
C2964 C2962 1.320 . S
C2964 C2965 1.405 . S
C2964 H2990 0.930 . S
C2965 C2960 1.479 . S
C2965 C2964 1.405 . S
C2965 H2991 0.931 . S
U2966 O2967 2.454 . S
U2966 O2968 2.458 . S
U2966 C2969 2.984 . S
U2966 C2970 2.847 . S
U2966 C2983 2.882 . S
U2966 O2984 2.441 . S
U2966 O2985 2.420 . S
U2966 O2986 2.455 . S
U2966 O2987 2.449 . S
O2967 U2966 2.454 . S
O2967 C2969 1.353 . S
O2968 U2966 2.458 . S
O2968 C2969 1.286 . S
C2969 U2966 2.984 . S
C2969 O2967 1.353 . S
C2969 O2968 1.286 . S
C2969 C2971 1.363 . S
C2970 C2960 1.465 . S
C2970 U2966 2.847 . S
C2970 O2984 1.249 . S
C2970 O2985 1.202 . S
C2971 C2969 1.363 . S
C2971 C2973 1.408 . S
C2971 C2976 1.342 . S
C2972 C2973 1.310 . S
C2972 C2975 1.461 . S
C2972 H2992 0.932 . S
C2973 C2971 1.408 . S
C2973 C2972 1.310 . S
C2973 H2993 0.930 . S
C2974 C2975 1.474 . S
C2974 C2976 1.285 . S
C2974 H2994 0.929 . S
C2975 C2972 1.461 . S
C2975 C2974 1.474 . S
C2976 C2971 1.342 . S
C2976 C2974 1.285 . S
C2976 H2995 0.930 . S
C2977 C2980 1.424 . S
C2977 C2982 1.245 . S
C2977 C2983 1.428 . S
C2978 C2981 1.260 . S
C2978 C2982 1.477 . S
C2978 H2996 0.932 . S
C2979 C2980 1.384 . S
C2979 C2981 1.479 . S
C2979 H2997 0.929 . S
C2980 C2977 1.424 . S
C2980 C2979 1.384 . S
C2980 H2998 0.928 . S
C2981 C2978 1.260 . S
C2981 C2979 1.479 . S
C2982 C2977 1.245 . S
C2982 C2978 1.477 . S
C2982 H2999 0.932 . S
C2983 U2966 2.882 . S
C2983 C2977 1.428 . S
C2983 O2986 1.301 . S
C2983 O2987 1.282 . S
O2984 U2966 2.441 . S
O2984 C2970 1.249 . S
O2985 U2966 2.420 . S
O2985 C2970 1.202 . S
O2986 U2966 2.455 . S
O2986 C2983 1.301 . S
O2987 U2966 2.449 . S
O2987 C2983 1.282 . S
H2988 C2961 0.931 . S
H2989 C2963 0.929 . S
H2990 C2964 0.930 . S
H2991 C2965 0.931 . S
H2992 C2972 0.932 . S
H2993 C2973 0.930 . S
H2994 C2974 0.929 . S
H2995 C2976 0.930 . S
H2996 C2978 0.932 . S
H2997 C2979 0.929 . S
H2998 C2980 0.928 . S
H2999 C2982 0.932 . S
C3000 C3001 1.264 . S
C3000 C3005 1.479 . S
C3000 C3010 1.465 . S
C3001 C3000 1.264 . S
C3001 C3003 1.339 . S
C3001 H3028 0.931 . S
C3002 C3003 1.395 . S
C3002 C3004 1.320 . S
C3003 C3001 1.339 . S
C3003 C3002 1.395 . S
C3003 H3029 0.929 . S
C3004 C3002 1.320 . S
C3004 C3005 1.405 . S
C3004 H3030 0.930 . S
C3005 C3000 1.479 . S
C3005 C3004 1.405 . S
C3005 H3031 0.931 . S
U3006 O3007 2.454 . S
U3006 O3008 2.458 . S
U3006 C3009 2.984 . S
U3006 C3010 2.847 . S
U3006 C3023 2.882 . S
U3006 O3024 2.441 . S
U3006 O3025 2.420 . S
U3006 O3026 2.455 . S
U3006 O3027 2.449 . S
O3007 U3006 2.454 . S
O3007 C3009 1.353 . S
O3008 U3006 2.458 . S
O3008 C3009 1.286 . S
C3009 U3006 2.984 . S
C3009 O3007 1.353 . S
C3009 O3008 1.286 . S
C3009 C3011 1.363 . S
C3010 C3000 1.465 . S
C3010 U3006 2.847 . S
C3010 O3024 1.249 . S
C3010 O3025 1.202 . S
C3011 C3009 1.363 . S
C3011 C3013 1.408 . S
C3011 C3016 1.342 . S
C3012 C3013 1.310 . S
C3012 C3015 1.461 . S
C3012 H3032 0.932 . S
C3013 C3011 1.408 . S
C3013 C3012 1.310 . S
C3013 H3033 0.930 . S
C3014 C3015 1.474 . S
C3014 C3016 1.285 . S
C3014 H3034 0.929 . S
C3015 C3012 1.461 . S
C3015 C3014 1.474 . S
C3016 C3011 1.342 . S
C3016 C3014 1.285 . S
C3016 H3035 0.930 . S
C3017 C3020 1.424 . S
C3017 C3022 1.245 . S
C3017 C3023 1.428 . S
C3018 C3021 1.260 . S
C3018 C3022 1.477 . S
C3018 H3036 0.932 . S
C3019 C3020 1.384 . S
C3019 C3021 1.479 . S
C3019 H3037 0.929 . S
C3020 C3017 1.424 . S
C3020 C3019 1.384 . S
C3020 H3038 0.928 . S
C3021 C3018 1.260 . S
C3021 C3019 1.479 . S
C3022 C3017 1.245 . S
C3022 C3018 1.477 . S
C3022 H3039 0.932 . S
C3023 U3006 2.882 . S
C3023 C3017 1.428 . S
C3023 O3026 1.301 . S
C3023 O3027 1.282 . S
O3024 U3006 2.441 . S
O3024 C3010 1.249 . S
O3025 U3006 2.420 . S
O3025 C3010 1.202 . S
O3026 U3006 2.455 . S
O3026 C3023 1.301 . S
O3027 U3006 2.449 . S
O3027 C3023 1.282 . S
H3028 C3001 0.931 . S
H3029 C3003 0.929 . S
H3030 C3004 0.930 . S
H3031 C3005 0.931 . S
H3032 C3012 0.932 . S
H3033 C3013 0.930 . S
H3034 C3014 0.929 . S
H3035 C3016 0.930 . S
H3036 C3018 0.932 . S
H3037 C3019 0.929 . S
H3038 C3020 0.928 . S
H3039 C3022 0.932 . S
C3040 C3041 1.264 . S
C3040 C3045 1.479 . S
C3040 C3050 1.465 . S
C3041 C3040 1.264 . S
C3041 C3043 1.339 . S
C3041 H3068 0.931 . S
C3042 C3043 1.395 . S
C3042 C3044 1.320 . S
C3043 C3041 1.339 . S
C3043 C3042 1.395 . S
C3043 H3069 0.929 . S
C3044 C3042 1.320 . S
C3044 C3045 1.405 . S
C3044 H3070 0.930 . S
C3045 C3040 1.479 . S
C3045 C3044 1.405 . S
C3045 H3071 0.931 . S
U3046 O3047 2.454 . S
U3046 O3048 2.458 . S
U3046 C3049 2.984 . S
U3046 C3050 2.847 . S
U3046 C3063 2.882 . S
U3046 O3064 2.441 . S
U3046 O3065 2.420 . S
U3046 O3066 2.455 . S
U3046 O3067 2.449 . S
O3047 U3046 2.454 . S
O3047 C3049 1.353 . S
O3048 U3046 2.458 . S
O3048 C3049 1.286 . S
C3049 U3046 2.984 . S
C3049 O3047 1.353 . S
C3049 O3048 1.286 . S
C3049 C3051 1.363 . S
C3050 C3040 1.465 . S
C3050 U3046 2.847 . S
C3050 O3064 1.249 . S
C3050 O3065 1.202 . S
C3051 C3049 1.363 . S
C3051 C3053 1.408 . S
C3051 C3056 1.342 . S
C3052 C3053 1.310 . S
C3052 C3055 1.461 . S
C3052 H3072 0.932 . S
C3053 C3051 1.408 . S
C3053 C3052 1.310 . S
C3053 H3073 0.930 . S
C3054 C3055 1.474 . S
C3054 C3056 1.285 . S
C3054 H3074 0.929 . S
C3055 C3052 1.461 . S
C3055 C3054 1.474 . S
C3056 C3051 1.342 . S
C3056 C3054 1.285 . S
C3056 H3075 0.930 . S
C3057 C3060 1.424 . S
C3057 C3062 1.245 . S
C3057 C3063 1.428 . S
C3058 C3061 1.260 . S
C3058 C3062 1.477 . S
C3058 H3076 0.932 . S
C3059 C3060 1.384 . S
C3059 C3061 1.479 . S
C3059 H3077 0.929 . S
C3060 C3057 1.424 . S
C3060 C3059 1.384 . S
C3060 H3078 0.928 . S
C3061 C3058 1.260 . S
C3061 C3059 1.479 . S
C3062 C3057 1.245 . S
C3062 C3058 1.477 . S
C3062 H3079 0.932 . S
C3063 U3046 2.882 . S
C3063 C3057 1.428 . S
C3063 O3066 1.301 . S
C3063 O3067 1.282 . S
O3064 U3046 2.441 . S
O3064 C3050 1.249 . S
O3065 U3046 2.420 . S
O3065 C3050 1.202 . S
O3066 U3046 2.455 . S
O3066 C3063 1.301 . S
O3067 U3046 2.449 . S
O3067 C3063 1.282 . S
H3068 C3041 0.931 . S
H3069 C3043 0.929 . S
H3070 C3044 0.930 . S
H3071 C3045 0.931 . S
H3072 C3052 0.932 . S
H3073 C3053 0.930 . S
H3074 C3054 0.929 . S
H3075 C3056 0.930 . S
H3076 C3058 0.932 . S
H3077 C3059 0.929 . S
H3078 C3060 0.928 . S
H3079 C3062 0.932 . S
C3080 C3081 1.264 . S
C3080 C3085 1.479 . S
C3080 C3090 1.465 . S
C3081 C3080 1.264 . S
C3081 C3083 1.339 . S
C3081 H3108 0.931 . S
C3082 C3083 1.395 . S
C3082 C3084 1.320 . S
C3083 C3081 1.339 . S
C3083 C3082 1.395 . S
C3083 H3109 0.929 . S
C3084 C3082 1.320 . S
C3084 C3085 1.405 . S
C3084 H3110 0.930 . S
C3085 C3080 1.479 . S
C3085 C3084 1.405 . S
C3085 H3111 0.931 . S
U3086 O3087 2.454 . S
U3086 O3088 2.458 . S
U3086 C3089 2.984 . S
U3086 C3090 2.847 . S
U3086 C3103 2.882 . S
U3086 O3104 2.441 . S
U3086 O3105 2.420 . S
U3086 O3106 2.455 . S
U3086 O3107 2.449 . S
O3087 U3086 2.454 . S
O3087 C3089 1.353 . S
O3088 U3086 2.458 . S
O3088 C3089 1.286 . S
C3089 U3086 2.984 . S
C3089 O3087 1.353 . S
C3089 O3088 1.286 . S
C3089 C3091 1.363 . S
C3090 C3080 1.465 . S
C3090 U3086 2.847 . S
C3090 O3104 1.249 . S
C3090 O3105 1.202 . S
C3091 C3089 1.363 . S
C3091 C3093 1.408 . S
C3091 C3096 1.342 . S
C3092 C3093 1.310 . S
C3092 C3095 1.461 . S
C3092 H3112 0.932 . S
C3093 C3091 1.408 . S
C3093 C3092 1.310 . S
C3093 H3113 0.930 . S
C3094 C3095 1.474 . S
C3094 C3096 1.285 . S
C3094 H3114 0.929 . S
C3095 C3092 1.461 . S
C3095 C3094 1.474 . S
C3096 C3091 1.342 . S
C3096 C3094 1.285 . S
C3096 H3115 0.930 . S
C3097 C3100 1.424 . S
C3097 C3102 1.245 . S
C3097 C3103 1.428 . S
C3098 C3101 1.260 . S
C3098 C3102 1.477 . S
C3098 H3116 0.932 . S
C3099 C3100 1.384 . S
C3099 C3101 1.479 . S
C3099 H3117 0.929 . S
C3100 C3097 1.424 . S
C3100 C3099 1.384 . S
C3100 H3118 0.928 . S
C3101 C3098 1.260 . S
C3101 C3099 1.479 . S
C3102 C3097 1.245 . S
C3102 C3098 1.477 . S
C3102 H3119 0.932 . S
C3103 U3086 2.882 . S
C3103 C3097 1.428 . S
C3103 O3106 1.301 . S
C3103 O3107 1.282 . S
O3104 U3086 2.441 . S
O3104 C3090 1.249 . S
O3105 U3086 2.420 . S
O3105 C3090 1.202 . S
O3106 U3086 2.455 . S
O3106 C3103 1.301 . S
O3107 U3086 2.449 . S
O3107 C3103 1.282 . S
H3108 C3081 0.931 . S
H3109 C3083 0.929 . S
H3110 C3084 0.930 . S
H3111 C3085 0.931 . S
H3112 C3092 0.932 . S
H3113 C3093 0.930 . S
H3114 C3094 0.929 . S
H3115 C3096 0.930 . S
H3116 C3098 0.932 . S
H3117 C3099 0.929 . S
H3118 C3100 0.928 . S
H3119 C3102 0.932 . S
C3120 C3121 1.264 . S
C3120 C3125 1.479 . S
C3120 C3130 1.465 . S
C3121 C3120 1.264 . S
C3121 C3123 1.339 . S
C3121 H3148 0.931 . S
C3122 C3123 1.395 . S
C3122 C3124 1.320 . S
C3123 C3121 1.339 . S
C3123 C3122 1.395 . S
C3123 H3149 0.929 . S
C3124 C3122 1.320 . S
C3124 C3125 1.405 . S
C3124 H3150 0.930 . S
C3125 C3120 1.479 . S
C3125 C3124 1.405 . S
C3125 H3151 0.931 . S
U3126 O3127 2.454 . S
U3126 O3128 2.458 . S
U3126 C3129 2.984 . S
U3126 C3130 2.847 . S
U3126 C3143 2.882 . S
U3126 O3144 2.441 . S
U3126 O3145 2.420 . S
U3126 O3146 2.455 . S
U3126 O3147 2.449 . S
O3127 U3126 2.454 . S
O3127 C3129 1.353 . S
O3128 U3126 2.458 . S
O3128 C3129 1.286 . S
C3129 U3126 2.984 . S
C3129 O3127 1.353 . S
C3129 O3128 1.286 . S
C3129 C3131 1.363 . S
C3130 C3120 1.465 . S
C3130 U3126 2.847 . S
C3130 O3144 1.249 . S
C3130 O3145 1.202 . S
C3131 C3129 1.363 . S
C3131 C3133 1.408 . S
C3131 C3136 1.342 . S
C3132 C3133 1.310 . S
C3132 C3135 1.461 . S
C3132 H3152 0.932 . S
C3133 C3131 1.408 . S
C3133 C3132 1.310 . S
C3133 H3153 0.930 . S
C3134 C3135 1.474 . S
C3134 C3136 1.285 . S
C3134 H3154 0.929 . S
C3135 C3132 1.461 . S
C3135 C3134 1.474 . S
C3136 C3131 1.342 . S
C3136 C3134 1.285 . S
C3136 H3155 0.930 . S
C3137 C3140 1.424 . S
C3137 C3142 1.245 . S
C3137 C3143 1.428 . S
C3138 C3141 1.260 . S
C3138 C3142 1.477 . S
C3138 H3156 0.932 . S
C3139 C3140 1.384 . S
C3139 C3141 1.479 . S
C3139 H3157 0.929 . S
C3140 C3137 1.424 . S
C3140 C3139 1.384 . S
C3140 H3158 0.928 . S
C3141 C3138 1.260 . S
C3141 C3139 1.479 . S
C3142 C3137 1.245 . S
C3142 C3138 1.477 . S
C3142 H3159 0.932 . S
C3143 U3126 2.882 . S
C3143 C3137 1.428 . S
C3143 O3146 1.301 . S
C3143 O3147 1.282 . S
O3144 U3126 2.441 . S
O3144 C3130 1.249 . S
O3145 U3126 2.420 . S
O3145 C3130 1.202 . S
O3146 U3126 2.455 . S
O3146 C3143 1.301 . S
O3147 U3126 2.449 . S
O3147 C3143 1.282 . S
H3148 C3121 0.931 . S
H3149 C3123 0.929 . S
H3150 C3124 0.930 . S
H3151 C3125 0.931 . S
H3152 C3132 0.932 . S
H3153 C3133 0.930 . S
H3154 C3134 0.929 . S
H3155 C3136 0.930 . S
H3156 C3138 0.932 . S
H3157 C3139 0.929 . S
H3158 C3140 0.928 . S
H3159 C3142 0.932 . S
C3160 C3161 1.264 . S
C3160 C3165 1.479 . S
C3160 C3170 1.465 . S
C3161 C3160 1.264 . S
C3161 C3163 1.339 . S
C3161 H3188 0.931 . S
C3162 C3163 1.395 . S
C3162 C3164 1.320 . S
C3163 C3161 1.339 . S
C3163 C3162 1.395 . S
C3163 H3189 0.929 . S
C3164 C3162 1.320 . S
C3164 C3165 1.405 . S
C3164 H3190 0.930 . S
C3165 C3160 1.479 . S
C3165 C3164 1.405 . S
C3165 H3191 0.931 . S
U3166 O3167 2.454 . S
U3166 O3168 2.458 . S
U3166 C3169 2.984 . S
U3166 C3170 2.847 . S
U3166 C3183 2.882 . S
U3166 O3184 2.441 . S
U3166 O3185 2.420 . S
U3166 O3186 2.455 . S
U3166 O3187 2.449 . S
O3167 U3166 2.454 . S
O3167 C3169 1.353 . S
O3168 U3166 2.458 . S
O3168 C3169 1.286 . S
C3169 U3166 2.984 . S
C3169 O3167 1.353 . S
C3169 O3168 1.286 . S
C3169 C3171 1.363 . S
C3170 C3160 1.465 . S
C3170 U3166 2.847 . S
C3170 O3184 1.249 . S
C3170 O3185 1.202 . S
C3171 C3169 1.363 . S
C3171 C3173 1.408 . S
C3171 C3176 1.342 . S
C3172 C3173 1.310 . S
C3172 C3175 1.461 . S
C3172 H3192 0.932 . S
C3173 C3171 1.408 . S
C3173 C3172 1.310 . S
C3173 H3193 0.930 . S
C3174 C3175 1.474 . S
C3174 C3176 1.285 . S
C3174 H3194 0.929 . S
C3175 C3172 1.461 . S
C3175 C3174 1.474 . S
C3176 C3171 1.342 . S
C3176 C3174 1.285 . S
C3176 H3195 0.930 . S
C3177 C3180 1.424 . S
C3177 C3182 1.245 . S
C3177 C3183 1.428 . S
C3178 C3181 1.260 . S
C3178 C3182 1.477 . S
C3178 H3196 0.932 . S
C3179 C3180 1.384 . S
C3179 C3181 1.479 . S
C3179 H3197 0.929 . S
C3180 C3177 1.424 . S
C3180 C3179 1.384 . S
C3180 H3198 0.928 . S
C3181 C3178 1.260 . S
C3181 C3179 1.479 . S
C3182 C3177 1.245 . S
C3182 C3178 1.477 . S
C3182 H3199 0.932 . S
C3183 U3166 2.882 . S
C3183 C3177 1.428 . S
C3183 O3186 1.301 . S
C3183 O3187 1.282 . S
O3184 U3166 2.441 . S
O3184 C3170 1.249 . S
O3185 U3166 2.420 . S
O3185 C3170 1.202 . S
O3186 U3166 2.455 . S
O3186 C3183 1.301 . S
O3187 U3166 2.449 . S
O3187 C3183 1.282 . S
H3188 C3161 0.931 . S
H3189 C3163 0.929 . S
H3190 C3164 0.930 . S
H3191 C3165 0.931 . S
H3192 C3172 0.932 . S
H3193 C3173 0.930 . S
H3194 C3174 0.929 . S
H3195 C3176 0.930 . S
H3196 C3178 0.932 . S
H3197 C3179 0.929 . S
H3198 C3180 0.928 . S
H3199 C3182 0.932 . S
C3200 C3201 1.264 . S
C3200 C3205 1.479 . S
C3200 C3210 1.465 . S
C3201 C3200 1.264 . S
C3201 C3203 1.339 . S
C3201 H3228 0.931 . S
C3202 C3203 1.395 . S
C3202 C3204 1.320 . S
C3203 C3201 1.339 . S
C3203 C3202 1.395 . S
C3203 H3229 0.929 . S
C3204 C3202 1.320 . S
C3204 C3205 1.405 . S
C3204 H3230 0.930 . S
C3205 C3200 1.479 . S
C3205 C3204 1.405 . S
C3205 H3231 0.931 . S
U3206 O3207 2.454 . S
U3206 O3208 2.458 . S
U3206 C3209 2.984 . S
U3206 C3210 2.847 . S
U3206 C3223 2.882 . S
U3206 O3224 2.441 . S
U3206 O3225 2.420 . S
U3206 O3226 2.455 . S
U3206 O3227 2.449 . S
O3207 U3206 2.454 . S
O3207 C3209 1.353 . S
O3208 U3206 2.458 . S
O3208 C3209 1.286 . S
C3209 U3206 2.984 . S
C3209 O3207 1.353 . S
C3209 O3208 1.286 . S
C3209 C3211 1.363 . S
C3210 C3200 1.465 . S
C3210 U3206 2.847 . S
C3210 O3224 1.249 . S
C3210 O3225 1.202 . S
C3211 C3209 1.363 . S
C3211 C3213 1.408 . S
C3211 C3216 1.342 . S
C3212 C3213 1.310 . S
C3212 C3215 1.461 . S
C3212 H3232 0.932 . S
C3213 C3211 1.408 . S
C3213 C3212 1.310 . S
C3213 H3233 0.930 . S
C3214 C3215 1.474 . S
C3214 C3216 1.285 . S
C3214 H3234 0.929 . S
C3215 C3212 1.461 . S
C3215 C3214 1.474 . S
C3216 C3211 1.342 . S
C3216 C3214 1.285 . S
C3216 H3235 0.930 . S
C3217 C3220 1.424 . S
C3217 C3222 1.245 . S
C3217 C3223 1.428 . S
C3218 C3221 1.260 . S
C3218 C3222 1.477 . S
C3218 H3236 0.932 . S
C3219 C3220 1.384 . S
C3219 C3221 1.479 . S
C3219 H3237 0.929 . S
C3220 C3217 1.424 . S
C3220 C3219 1.384 . S
C3220 H3238 0.928 . S
C3221 C3218 1.260 . S
C3221 C3219 1.479 . S
C3222 C3217 1.245 . S
C3222 C3218 1.477 . S
C3222 H3239 0.932 . S
C3223 U3206 2.882 . S
C3223 C3217 1.428 . S
C3223 O3226 1.301 . S
C3223 O3227 1.282 . S
O3224 U3206 2.441 . S
O3224 C3210 1.249 . S
O3225 U3206 2.420 . S
O3225 C3210 1.202 . S
O3226 U3206 2.455 . S
O3226 C3223 1.301 . S
O3227 U3206 2.449 . S
O3227 C3223 1.282 . S
H3228 C3201 0.931 . S
H3229 C3203 0.929 . S
H3230 C3204 0.930 . S
H3231 C3205 0.931 . S
H3232 C3212 0.932 . S
H3233 C3213 0.930 . S
H3234 C3214 0.929 . S
H3235 C3216 0.930 . S
H3236 C3218 0.932 . S
H3237 C3219 0.929 . S
H3238 C3220 0.928 . S
H3239 C3222 0.932 . S
C3240 C3241 1.264 . S
C3240 C3245 1.479 . S
C3240 C3250 1.465 . S
C3241 C3240 1.264 . S
C3241 C3243 1.339 . S
C3241 H3268 0.931 . S
C3242 C3243 1.395 . S
C3242 C3244 1.320 . S
C3243 C3241 1.339 . S
C3243 C3242 1.395 . S
C3243 H3269 0.929 . S
C3244 C3242 1.320 . S
C3244 C3245 1.405 . S
C3244 H3270 0.930 . S
C3245 C3240 1.479 . S
C3245 C3244 1.405 . S
C3245 H3271 0.931 . S
U3246 O3247 2.454 . S
U3246 O3248 2.458 . S
U3246 C3249 2.984 . S
U3246 C3250 2.847 . S
U3246 C3263 2.882 . S
U3246 O3264 2.441 . S
U3246 O3265 2.420 . S
U3246 O3266 2.455 . S
U3246 O3267 2.449 . S
O3247 U3246 2.454 . S
O3247 C3249 1.353 . S
O3248 U3246 2.458 . S
O3248 C3249 1.286 . S
C3249 U3246 2.984 . S
C3249 O3247 1.353 . S
C3249 O3248 1.286 . S
C3249 C3251 1.363 . S
C3250 C3240 1.465 . S
C3250 U3246 2.847 . S
C3250 O3264 1.249 . S
C3250 O3265 1.202 . S
C3251 C3249 1.363 . S
C3251 C3253 1.408 . S
C3251 C3256 1.342 . S
C3252 C3253 1.310 . S
C3252 C3255 1.461 . S
C3252 H3272 0.932 . S
C3253 C3251 1.408 . S
C3253 C3252 1.310 . S
C3253 H3273 0.930 . S
C3254 C3255 1.474 . S
C3254 C3256 1.285 . S
C3254 H3274 0.929 . S
C3255 C3252 1.461 . S
C3255 C3254 1.474 . S
C3256 C3251 1.342 . S
C3256 C3254 1.285 . S
C3256 H3275 0.930 . S
C3257 C3260 1.424 . S
C3257 C3262 1.245 . S
C3257 C3263 1.428 . S
C3258 C3261 1.260 . S
C3258 C3262 1.477 . S
C3258 H3276 0.932 . S
C3259 C3260 1.384 . S
C3259 C3261 1.479 . S
C3259 H3277 0.929 . S
C3260 C3257 1.424 . S
C3260 C3259 1.384 . S
C3260 H3278 0.928 . S
C3261 C3258 1.260 . S
C3261 C3259 1.479 . S
C3262 C3257 1.245 . S
C3262 C3258 1.477 . S
C3262 H3279 0.932 . S
C3263 U3246 2.882 . S
C3263 C3257 1.428 . S
C3263 O3266 1.301 . S
C3263 O3267 1.282 . S
O3264 U3246 2.441 . S
O3264 C3250 1.249 . S
O3265 U3246 2.420 . S
O3265 C3250 1.202 . S
O3266 U3246 2.455 . S
O3266 C3263 1.301 . S
O3267 U3246 2.449 . S
O3267 C3263 1.282 . S
H3268 C3241 0.931 . S
H3269 C3243 0.929 . S
H3270 C3244 0.930 . S
H3271 C3245 0.931 . S
H3272 C3252 0.932 . S
H3273 C3253 0.930 . S
H3274 C3254 0.929 . S
H3275 C3256 0.930 . S
H3276 C3258 0.932 . S
H3277 C3259 0.929 . S
H3278 C3260 0.928 . S
H3279 C3262 0.932 . S
C3280 C3281 1.264 . S
C3280 C3285 1.479 . S
C3280 C3290 1.465 . S
C3281 C3280 1.264 . S
C3281 C3283 1.339 . S
C3281 H3308 0.931 . S
C3282 C3283 1.395 . S
C3282 C3284 1.320 . S
C3283 C3281 1.339 . S
C3283 C3282 1.395 . S
C3283 H3309 0.929 . S
C3284 C3282 1.320 . S
C3284 C3285 1.405 . S
C3284 H3310 0.930 . S
C3285 C3280 1.479 . S
C3285 C3284 1.405 . S
C3285 H3311 0.931 . S
U3286 O3287 2.454 . S
U3286 O3288 2.458 . S
U3286 C3289 2.984 . S
U3286 C3290 2.847 . S
U3286 C3303 2.882 . S
U3286 O3304 2.441 . S
U3286 O3305 2.420 . S
U3286 O3306 2.455 . S
U3286 O3307 2.449 . S
O3287 U3286 2.454 . S
O3287 C3289 1.353 . S
O3288 U3286 2.458 . S
O3288 C3289 1.286 . S
C3289 U3286 2.984 . S
C3289 O3287 1.353 . S
C3289 O3288 1.286 . S
C3289 C3291 1.363 . S
C3290 C3280 1.465 . S
C3290 U3286 2.847 . S
C3290 O3304 1.249 . S
C3290 O3305 1.202 . S
C3291 C3289 1.363 . S
C3291 C3293 1.408 . S
C3291 C3296 1.342 . S
C3292 C3293 1.310 . S
C3292 C3295 1.461 . S
C3292 H3312 0.932 . S
C3293 C3291 1.408 . S
C3293 C3292 1.310 . S
C3293 H3313 0.930 . S
C3294 C3295 1.474 . S
C3294 C3296 1.285 . S
C3294 H3314 0.929 . S
C3295 C3292 1.461 . S
C3295 C3294 1.474 . S
C3296 C3291 1.342 . S
C3296 C3294 1.285 . S
C3296 H3315 0.930 . S
C3297 C3300 1.424 . S
C3297 C3302 1.245 . S
C3297 C3303 1.428 . S
C3298 C3301 1.260 . S
C3298 C3302 1.477 . S
C3298 H3316 0.932 . S
C3299 C3300 1.384 . S
C3299 C3301 1.479 . S
C3299 H3317 0.929 . S
C3300 C3297 1.424 . S
C3300 C3299 1.384 . S
C3300 H3318 0.928 . S
C3301 C3298 1.260 . S
C3301 C3299 1.479 . S
C3302 C3297 1.245 . S
C3302 C3298 1.477 . S
C3302 H3319 0.932 . S
C3303 U3286 2.882 . S
C3303 C3297 1.428 . S
C3303 O3306 1.301 . S
C3303 O3307 1.282 . S
O3304 U3286 2.441 . S
O3304 C3290 1.249 . S
O3305 U3286 2.420 . S
O3305 C3290 1.202 . S
O3306 U3286 2.455 . S
O3306 C3303 1.301 . S
O3307 U3286 2.449 . S
O3307 C3303 1.282 . S
H3308 C3281 0.931 . S
H3309 C3283 0.929 . S
H3310 C3284 0.930 . S
H3311 C3285 0.931 . S
H3312 C3292 0.932 . S
H3313 C3293 0.930 . S
H3314 C3294 0.929 . S
H3315 C3296 0.930 . S
H3316 C3298 0.932 . S
H3317 C3299 0.929 . S
H3318 C3300 0.928 . S
H3319 C3302 0.932 . S
C3320 C3321 1.264 . S
C3320 C3325 1.479 . S
C3320 C3330 1.465 . S
C3321 C3320 1.264 . S
C3321 C3323 1.339 . S
C3321 H3348 0.931 . S
C3322 C3323 1.395 . S
C3322 C3324 1.320 . S
C3323 C3321 1.339 . S
C3323 C3322 1.395 . S
C3323 H3349 0.929 . S
C3324 C3322 1.320 . S
C3324 C3325 1.405 . S
C3324 H3350 0.930 . S
C3325 C3320 1.479 . S
C3325 C3324 1.405 . S
C3325 H3351 0.931 . S
U3326 O3327 2.454 . S
U3326 O3328 2.458 . S
U3326 C3329 2.984 . S
U3326 C3330 2.847 . S
U3326 C3343 2.882 . S
U3326 O3344 2.441 . S
U3326 O3345 2.420 . S
U3326 O3346 2.455 . S
U3326 O3347 2.449 . S
O3327 U3326 2.454 . S
O3327 C3329 1.353 . S
O3328 U3326 2.458 . S
O3328 C3329 1.286 . S
C3329 U3326 2.984 . S
C3329 O3327 1.353 . S
C3329 O3328 1.286 . S
C3329 C3331 1.363 . S
C3330 C3320 1.465 . S
C3330 U3326 2.847 . S
C3330 O3344 1.249 . S
C3330 O3345 1.202 . S
C3331 C3329 1.363 . S
C3331 C3333 1.408 . S
C3331 C3336 1.342 . S
C3332 C3333 1.310 . S
C3332 C3335 1.461 . S
C3332 H3352 0.932 . S
C3333 C3331 1.408 . S
C3333 C3332 1.310 . S
C3333 H3353 0.930 . S
C3334 C3335 1.474 . S
C3334 C3336 1.285 . S
C3334 H3354 0.929 . S
C3335 C3332 1.461 . S
C3335 C3334 1.474 . S
C3336 C3331 1.342 . S
C3336 C3334 1.285 . S
C3336 H3355 0.930 . S
C3337 C3340 1.424 . S
C3337 C3342 1.245 . S
C3337 C3343 1.428 . S
C3338 C3341 1.260 . S
C3338 C3342 1.477 . S
C3338 H3356 0.932 . S
C3339 C3340 1.384 . S
C3339 C3341 1.479 . S
C3339 H3357 0.929 . S
C3340 C3337 1.424 . S
C3340 C3339 1.384 . S
C3340 H3358 0.928 . S
C3341 C3338 1.260 . S
C3341 C3339 1.479 . S
C3342 C3337 1.245 . S
C3342 C3338 1.477 . S
C3342 H3359 0.932 . S
C3343 U3326 2.882 . S
C3343 C3337 1.428 . S
C3343 O3346 1.301 . S
C3343 O3347 1.282 . S
O3344 U3326 2.441 . S
O3344 C3330 1.249 . S
O3345 U3326 2.420 . S
O3345 C3330 1.202 . S
O3346 U3326 2.455 . S
O3346 C3343 1.301 . S
O3347 U3326 2.449 . S
O3347 C3343 1.282 . S
H3348 C3321 0.931 . S
H3349 C3323 0.929 . S
H3350 C3324 0.930 . S
H3351 C3325 0.931 . S
H3352 C3332 0.932 . S
H3353 C3333 0.930 . S
H3354 C3334 0.929 . S
H3355 C3336 0.930 . S
H3356 C3338 0.932 . S
H3357 C3339 0.929 . S
H3358 C3340 0.928 . S
H3359 C3342 0.932 . S
C3360 C3361 1.264 . S
C3360 C3365 1.479 . S
C3360 C3370 1.465 . S
C3361 C3360 1.264 . S
C3361 C3363 1.339 . S
C3361 H3388 0.931 . S
C3362 C3363 1.395 . S
C3362 C3364 1.320 . S
C3363 C3361 1.339 . S
C3363 C3362 1.395 . S
C3363 H3389 0.929 . S
C3364 C3362 1.320 . S
C3364 C3365 1.405 . S
C3364 H3390 0.930 . S
C3365 C3360 1.479 . S
C3365 C3364 1.405 . S
C3365 H3391 0.931 . S
U3366 O3367 2.454 . S
U3366 O3368 2.458 . S
U3366 C3369 2.984 . S
U3366 C3370 2.847 . S
U3366 C3383 2.882 . S
U3366 O3384 2.441 . S
U3366 O3385 2.420 . S
U3366 O3386 2.455 . S
U3366 O3387 2.449 . S
O3367 U3366 2.454 . S
O3367 C3369 1.353 . S
O3368 U3366 2.458 . S
O3368 C3369 1.286 . S
C3369 U3366 2.984 . S
C3369 O3367 1.353 . S
C3369 O3368 1.286 . S
C3369 C3371 1.363 . S
C3370 C3360 1.465 . S
C3370 U3366 2.847 . S
C3370 O3384 1.249 . S
C3370 O3385 1.202 . S
C3371 C3369 1.363 . S
C3371 C3373 1.408 . S
C3371 C3376 1.342 . S
C3372 C3373 1.310 . S
C3372 C3375 1.461 . S
C3372 H3392 0.932 . S
C3373 C3371 1.408 . S
C3373 C3372 1.310 . S
C3373 H3393 0.930 . S
C3374 C3375 1.474 . S
C3374 C3376 1.285 . S
C3374 H3394 0.929 . S
C3375 C3372 1.461 . S
C3375 C3374 1.474 . S
C3376 C3371 1.342 . S
C3376 C3374 1.285 . S
C3376 H3395 0.930 . S
C3377 C3380 1.424 . S
C3377 C3382 1.245 . S
C3377 C3383 1.428 . S
C3378 C3381 1.260 . S
C3378 C3382 1.477 . S
C3378 H3396 0.932 . S
C3379 C3380 1.384 . S
C3379 C3381 1.479 . S
C3379 H3397 0.929 . S
C3380 C3377 1.424 . S
C3380 C3379 1.384 . S
C3380 H3398 0.928 . S
C3381 C3378 1.260 . S
C3381 C3379 1.479 . S
C3382 C3377 1.245 . S
C3382 C3378 1.477 . S
C3382 H3399 0.932 . S
C3383 U3366 2.882 . S
C3383 C3377 1.428 . S
C3383 O3386 1.301 . S
C3383 O3387 1.282 . S
O3384 U3366 2.441 . S
O3384 C3370 1.249 . S
O3385 U3366 2.420 . S
O3385 C3370 1.202 . S
O3386 U3366 2.455 . S
O3386 C3383 1.301 . S
O3387 U3366 2.449 . S
O3387 C3383 1.282 . S
H3388 C3361 0.931 . S
H3389 C3363 0.929 . S
H3390 C3364 0.930 . S
H3391 C3365 0.931 . S
H3392 C3372 0.932 . S
H3393 C3373 0.930 . S
H3394 C3374 0.929 . S
H3395 C3376 0.930 . S
H3396 C3378 0.932 . S
H3397 C3379 0.929 . S
H3398 C3380 0.928 . S
H3399 C3382 0.932 . S
C3400 C3401 1.264 . S
C3400 C3405 1.479 . S
C3400 C3410 1.465 . S
C3401 C3400 1.264 . S
C3401 C3403 1.339 . S
C3401 H3428 0.931 . S
C3402 C3403 1.395 . S
C3402 C3404 1.320 . S
C3403 C3401 1.339 . S
C3403 C3402 1.395 . S
C3403 H3429 0.929 . S
C3404 C3402 1.320 . S
C3404 C3405 1.405 . S
C3404 H3430 0.930 . S
C3405 C3400 1.479 . S
C3405 C3404 1.405 . S
C3405 H3431 0.931 . S
U3406 O3407 2.454 . S
U3406 O3408 2.458 . S
U3406 C3409 2.984 . S
U3406 C3410 2.847 . S
U3406 C3423 2.882 . S
U3406 O3424 2.441 . S
U3406 O3425 2.420 . S
U3406 O3426 2.455 . S
U3406 O3427 2.449 . S
O3407 U3406 2.454 . S
O3407 C3409 1.353 . S
O3408 U3406 2.458 . S
O3408 C3409 1.286 . S
C3409 U3406 2.984 . S
C3409 O3407 1.353 . S
C3409 O3408 1.286 . S
C3409 C3411 1.363 . S
C3410 C3400 1.465 . S
C3410 U3406 2.847 . S
C3410 O3424 1.249 . S
C3410 O3425 1.202 . S
C3411 C3409 1.363 . S
C3411 C3413 1.408 . S
C3411 C3416 1.342 . S
C3412 C3413 1.310 . S
C3412 C3415 1.461 . S
C3412 H3432 0.932 . S
C3413 C3411 1.408 . S
C3413 C3412 1.310 . S
C3413 H3433 0.930 . S
C3414 C3415 1.474 . S
C3414 C3416 1.285 . S
C3414 H3434 0.929 . S
C3415 C3412 1.461 . S
C3415 C3414 1.474 . S
C3416 C3411 1.342 . S
C3416 C3414 1.285 . S
C3416 H3435 0.930 . S
C3417 C3420 1.424 . S
C3417 C3422 1.245 . S
C3417 C3423 1.428 . S
C3418 C3421 1.260 . S
C3418 C3422 1.477 . S
C3418 H3436 0.932 . S
C3419 C3420 1.384 . S
C3419 C3421 1.479 . S
C3419 H3437 0.929 . S
C3420 C3417 1.424 . S
C3420 C3419 1.384 . S
C3420 H3438 0.928 . S
C3421 C3418 1.260 . S
C3421 C3419 1.479 . S
C3422 C3417 1.245 . S
C3422 C3418 1.477 . S
C3422 H3439 0.932 . S
C3423 U3406 2.882 . S
C3423 C3417 1.428 . S
C3423 O3426 1.301 . S
C3423 O3427 1.282 . S
O3424 U3406 2.441 . S
O3424 C3410 1.249 . S
O3425 U3406 2.420 . S
O3425 C3410 1.202 . S
O3426 U3406 2.455 . S
O3426 C3423 1.301 . S
O3427 U3406 2.449 . S
O3427 C3423 1.282 . S
H3428 C3401 0.931 . S
H3429 C3403 0.929 . S
H3430 C3404 0.930 . S
H3431 C3405 0.931 . S
H3432 C3412 0.932 . S
H3433 C3413 0.930 . S
H3434 C3414 0.929 . S
H3435 C3416 0.930 . S
H3436 C3418 0.932 . S
H3437 C3419 0.929 . S
H3438 C3420 0.928 . S
H3439 C3422 0.932 . S
C3440 C3441 1.264 . S
C3440 C3445 1.479 . S
C3440 C3450 1.465 . S
C3441 C3440 1.264 . S
C3441 C3443 1.339 . S
C3441 H3468 0.931 . S
C3442 C3443 1.395 . S
C3442 C3444 1.320 . S
C3443 C3441 1.339 . S
C3443 C3442 1.395 . S
C3443 H3469 0.929 . S
C3444 C3442 1.320 . S
C3444 C3445 1.405 . S
C3444 H3470 0.930 . S
C3445 C3440 1.479 . S
C3445 C3444 1.405 . S
C3445 H3471 0.931 . S
U3446 O3447 2.454 . S
U3446 O3448 2.458 . S
U3446 C3449 2.984 . S
U3446 C3450 2.847 . S
U3446 C3463 2.882 . S
U3446 O3464 2.441 . S
U3446 O3465 2.420 . S
U3446 O3466 2.455 . S
U3446 O3467 2.449 . S
O3447 U3446 2.454 . S
O3447 C3449 1.353 . S
O3448 U3446 2.458 . S
O3448 C3449 1.286 . S
C3449 U3446 2.984 . S
C3449 O3447 1.353 . S
C3449 O3448 1.286 . S
C3449 C3451 1.363 . S
C3450 C3440 1.465 . S
C3450 U3446 2.847 . S
C3450 O3464 1.249 . S
C3450 O3465 1.202 . S
C3451 C3449 1.363 . S
C3451 C3453 1.408 . S
C3451 C3456 1.342 . S
C3452 C3453 1.310 . S
C3452 C3455 1.461 . S
C3452 H3472 0.932 . S
C3453 C3451 1.408 . S
C3453 C3452 1.310 . S
C3453 H3473 0.930 . S
C3454 C3455 1.474 . S
C3454 C3456 1.285 . S
C3454 H3474 0.929 . S
C3455 C3452 1.461 . S
C3455 C3454 1.474 . S
C3456 C3451 1.342 . S
C3456 C3454 1.285 . S
C3456 H3475 0.930 . S
C3457 C3460 1.424 . S
C3457 C3462 1.245 . S
C3457 C3463 1.428 . S
C3458 C3461 1.260 . S
C3458 C3462 1.477 . S
C3458 H3476 0.932 . S
C3459 C3460 1.384 . S
C3459 C3461 1.479 . S
C3459 H3477 0.929 . S
C3460 C3457 1.424 . S
C3460 C3459 1.384 . S
C3460 H3478 0.928 . S
C3461 C3458 1.260 . S
C3461 C3459 1.479 . S
C3462 C3457 1.245 . S
C3462 C3458 1.477 . S
C3462 H3479 0.932 . S
C3463 U3446 2.882 . S
C3463 C3457 1.428 . S
C3463 O3466 1.301 . S
C3463 O3467 1.282 . S
O3464 U3446 2.441 . S
O3464 C3450 1.249 . S
O3465 U3446 2.420 . S
O3465 C3450 1.202 . S
O3466 U3446 2.455 . S
O3466 C3463 1.301 . S
O3467 U3446 2.449 . S
O3467 C3463 1.282 . S
H3468 C3441 0.931 . S
H3469 C3443 0.929 . S
H3470 C3444 0.930 . S
H3471 C3445 0.931 . S
H3472 C3452 0.932 . S
H3473 C3453 0.930 . S
H3474 C3454 0.929 . S
H3475 C3456 0.930 . S
H3476 C3458 0.932 . S
H3477 C3459 0.929 . S
H3478 C3460 0.928 . S
H3479 C3462 0.932 . S
C3480 C3481 1.264 . S
C3480 C3485 1.479 . S
C3480 C3490 1.465 . S
C3481 C3480 1.264 . S
C3481 C3483 1.339 . S
C3481 H3508 0.931 . S
C3482 C3483 1.395 . S
C3482 C3484 1.320 . S
C3483 C3481 1.339 . S
C3483 C3482 1.395 . S
C3483 H3509 0.929 . S
C3484 C3482 1.320 . S
C3484 C3485 1.405 . S
C3484 H3510 0.930 . S
C3485 C3480 1.479 . S
C3485 C3484 1.405 . S
C3485 H3511 0.931 . S
U3486 O3487 2.454 . S
U3486 O3488 2.458 . S
U3486 C3489 2.984 . S
U3486 C3490 2.847 . S
U3486 C3503 2.882 . S
U3486 O3504 2.441 . S
U3486 O3505 2.420 . S
U3486 O3506 2.455 . S
U3486 O3507 2.449 . S
O3487 U3486 2.454 . S
O3487 C3489 1.353 . S
O3488 U3486 2.458 . S
O3488 C3489 1.286 . S
C3489 U3486 2.984 . S
C3489 O3487 1.353 . S
C3489 O3488 1.286 . S
C3489 C3491 1.363 . S
C3490 C3480 1.465 . S
C3490 U3486 2.847 . S
C3490 O3504 1.249 . S
C3490 O3505 1.202 . S
C3491 C3489 1.363 . S
C3491 C3493 1.408 . S
C3491 C3496 1.342 . S
C3492 C3493 1.310 . S
C3492 C3495 1.461 . S
C3492 H3512 0.932 . S
C3493 C3491 1.408 . S
C3493 C3492 1.310 . S
C3493 H3513 0.930 . S
C3494 C3495 1.474 . S
C3494 C3496 1.285 . S
C3494 H3514 0.929 . S
C3495 C3492 1.461 . S
C3495 C3494 1.474 . S
C3496 C3491 1.342 . S
C3496 C3494 1.285 . S
C3496 H3515 0.930 . S
C3497 C3500 1.424 . S
C3497 C3502 1.245 . S
C3497 C3503 1.428 . S
C3498 C3501 1.260 . S
C3498 C3502 1.477 . S
C3498 H3516 0.932 . S
C3499 C3500 1.384 . S
C3499 C3501 1.479 . S
C3499 H3517 0.929 . S
C3500 C3497 1.424 . S
C3500 C3499 1.384 . S
C3500 H3518 0.928 . S
C3501 C3498 1.260 . S
C3501 C3499 1.479 . S
C3502 C3497 1.245 . S
C3502 C3498 1.477 . S
C3502 H3519 0.932 . S
C3503 U3486 2.882 . S
C3503 C3497 1.428 . S
C3503 O3506 1.301 . S
C3503 O3507 1.282 . S
O3504 U3486 2.441 . S
O3504 C3490 1.249 . S
O3505 U3486 2.420 . S
O3505 C3490 1.202 . S
O3506 U3486 2.455 . S
O3506 C3503 1.301 . S
O3507 U3486 2.449 . S
O3507 C3503 1.282 . S
H3508 C3481 0.931 . S
H3509 C3483 0.929 . S
H3510 C3484 0.930 . S
H3511 C3485 0.931 . S
H3512 C3492 0.932 . S
H3513 C3493 0.930 . S
H3514 C3494 0.929 . S
H3515 C3496 0.930 . S
H3516 C3498 0.932 . S
H3517 C3499 0.929 . S
H3518 C3500 0.928 . S
H3519 C3502 0.932 . S
C3520 C3521 1.264 . S
C3520 C3525 1.479 . S
C3520 C3530 1.465 . S
C3521 C3520 1.264 . S
C3521 C3523 1.339 . S
C3521 H3548 0.931 . S
C3522 C3523 1.395 . S
C3522 C3524 1.320 . S
C3523 C3521 1.339 . S
C3523 C3522 1.395 . S
C3523 H3549 0.929 . S
C3524 C3522 1.320 . S
C3524 C3525 1.405 . S
C3524 H3550 0.930 . S
C3525 C3520 1.479 . S
C3525 C3524 1.405 . S
C3525 H3551 0.931 . S
U3526 O3527 2.454 . S
U3526 O3528 2.458 . S
U3526 C3529 2.984 . S
U3526 C3530 2.847 . S
U3526 C3543 2.882 . S
U3526 O3544 2.441 . S
U3526 O3545 2.420 . S
U3526 O3546 2.455 . S
U3526 O3547 2.449 . S
O3527 U3526 2.454 . S
O3527 C3529 1.353 . S
O3528 U3526 2.458 . S
O3528 C3529 1.286 . S
C3529 U3526 2.984 . S
C3529 O3527 1.353 . S
C3529 O3528 1.286 . S
C3529 C3531 1.363 . S
C3530 C3520 1.465 . S
C3530 U3526 2.847 . S
C3530 O3544 1.249 . S
C3530 O3545 1.202 . S
C3531 C3529 1.363 . S
C3531 C3533 1.408 . S
C3531 C3536 1.342 . S
C3532 C3533 1.310 . S
C3532 C3535 1.461 . S
C3532 H3552 0.932 . S
C3533 C3531 1.408 . S
C3533 C3532 1.310 . S
C3533 H3553 0.930 . S
C3534 C3535 1.474 . S
C3534 C3536 1.285 . S
C3534 H3554 0.929 . S
C3535 C3532 1.461 . S
C3535 C3534 1.474 . S
C3536 C3531 1.342 . S
C3536 C3534 1.285 . S
C3536 H3555 0.930 . S
C3537 C3540 1.424 . S
C3537 C3542 1.245 . S
C3537 C3543 1.428 . S
C3538 C3541 1.260 . S
C3538 C3542 1.477 . S
C3538 H3556 0.932 . S
C3539 C3540 1.384 . S
C3539 C3541 1.479 . S
C3539 H3557 0.929 . S
C3540 C3537 1.424 . S
C3540 C3539 1.384 . S
C3540 H3558 0.928 . S
C3541 C3538 1.260 . S
C3541 C3539 1.479 . S
C3542 C3537 1.245 . S
C3542 C3538 1.477 . S
C3542 H3559 0.932 . S
C3543 U3526 2.882 . S
C3543 C3537 1.428 . S
C3543 O3546 1.301 . S
C3543 O3547 1.282 . S
O3544 U3526 2.441 . S
O3544 C3530 1.249 . S
O3545 U3526 2.420 . S
O3545 C3530 1.202 . S
O3546 U3526 2.455 . S
O3546 C3543 1.301 . S
O3547 U3526 2.449 . S
O3547 C3543 1.282 . S
H3548 C3521 0.931 . S
H3549 C3523 0.929 . S
H3550 C3524 0.930 . S
H3551 C3525 0.931 . S
H3552 C3532 0.932 . S
H3553 C3533 0.930 . S
H3554 C3534 0.929 . S
H3555 C3536 0.930 . S
H3556 C3538 0.932 . S
H3557 C3539 0.929 . S
H3558 C3540 0.928 . S
H3559 C3542 0.932 . S
C3560 C3561 1.264 . S
C3560 C3565 1.479 . S
C3560 C3570 1.465 . S
C3561 C3560 1.264 . S
C3561 C3563 1.339 . S
C3561 H3588 0.931 . S
C3562 C3563 1.395 . S
C3562 C3564 1.320 . S
C3563 C3561 1.339 . S
C3563 C3562 1.395 . S
C3563 H3589 0.929 . S
C3564 C3562 1.320 . S
C3564 C3565 1.405 . S
C3564 H3590 0.930 . S
C3565 C3560 1.479 . S
C3565 C3564 1.405 . S
C3565 H3591 0.931 . S
U3566 O3567 2.454 . S
U3566 O3568 2.458 . S
U3566 C3569 2.984 . S
U3566 C3570 2.847 . S
U3566 C3583 2.882 . S
U3566 O3584 2.441 . S
U3566 O3585 2.420 . S
U3566 O3586 2.455 . S
U3566 O3587 2.449 . S
O3567 U3566 2.454 . S
O3567 C3569 1.353 . S
O3568 U3566 2.458 . S
O3568 C3569 1.286 . S
C3569 U3566 2.984 . S
C3569 O3567 1.353 . S
C3569 O3568 1.286 . S
C3569 C3571 1.363 . S
C3570 C3560 1.465 . S
C3570 U3566 2.847 . S
C3570 O3584 1.249 . S
C3570 O3585 1.202 . S
C3571 C3569 1.363 . S
C3571 C3573 1.408 . S
C3571 C3576 1.342 . S
C3572 C3573 1.310 . S
C3572 C3575 1.461 . S
C3572 H3592 0.932 . S
C3573 C3571 1.408 . S
C3573 C3572 1.310 . S
C3573 H3593 0.930 . S
C3574 C3575 1.474 . S
C3574 C3576 1.285 . S
C3574 H3594 0.929 . S
C3575 C3572 1.461 . S
C3575 C3574 1.474 . S
C3576 C3571 1.342 . S
C3576 C3574 1.285 . S
C3576 H3595 0.930 . S
C3577 C3580 1.424 . S
C3577 C3582 1.245 . S
C3577 C3583 1.428 . S
C3578 C3581 1.260 . S
C3578 C3582 1.477 . S
C3578 H3596 0.932 . S
C3579 C3580 1.384 . S
C3579 C3581 1.479 . S
C3579 H3597 0.929 . S
C3580 C3577 1.424 . S
C3580 C3579 1.384 . S
C3580 H3598 0.928 . S
C3581 C3578 1.260 . S
C3581 C3579 1.479 . S
C3582 C3577 1.245 . S
C3582 C3578 1.477 . S
C3582 H3599 0.932 . S
C3583 U3566 2.882 . S
C3583 C3577 1.428 . S
C3583 O3586 1.301 . S
C3583 O3587 1.282 . S
O3584 U3566 2.441 . S
O3584 C3570 1.249 . S
O3585 U3566 2.420 . S
O3585 C3570 1.202 . S
O3586 U3566 2.455 . S
O3586 C3583 1.301 . S
O3587 U3566 2.449 . S
O3587 C3583 1.282 . S
H3588 C3561 0.931 . S
H3589 C3563 0.929 . S
H3590 C3564 0.930 . S
H3591 C3565 0.931 . S
H3592 C3572 0.932 . S
H3593 C3573 0.930 . S
H3594 C3574 0.929 . S
H3595 C3576 0.930 . S
H3596 C3578 0.932 . S
H3597 C3579 0.929 . S
H3598 C3580 0.928 . S
H3599 C3582 0.932 . S
C3600 C3601 1.264 . S
C3600 C3605 1.479 . S
C3600 C3610 1.465 . S
C3601 C3600 1.264 . S
C3601 C3603 1.339 . S
C3601 H3628 0.931 . S
C3602 C3603 1.395 . S
C3602 C3604 1.320 . S
C3603 C3601 1.339 . S
C3603 C3602 1.395 . S
C3603 H3629 0.929 . S
C3604 C3602 1.320 . S
C3604 C3605 1.405 . S
C3604 H3630 0.930 . S
C3605 C3600 1.479 . S
C3605 C3604 1.405 . S
C3605 H3631 0.931 . S
U3606 O3607 2.454 . S
U3606 O3608 2.458 . S
U3606 C3609 2.984 . S
U3606 C3610 2.847 . S
U3606 C3623 2.882 . S
U3606 O3624 2.441 . S
U3606 O3625 2.420 . S
U3606 O3626 2.455 . S
U3606 O3627 2.449 . S
O3607 U3606 2.454 . S
O3607 C3609 1.353 . S
O3608 U3606 2.458 . S
O3608 C3609 1.286 . S
C3609 U3606 2.984 . S
C3609 O3607 1.353 . S
C3609 O3608 1.286 . S
C3609 C3611 1.363 . S
C3610 C3600 1.465 . S
C3610 U3606 2.847 . S
C3610 O3624 1.249 . S
C3610 O3625 1.202 . S
C3611 C3609 1.363 . S
C3611 C3613 1.408 . S
C3611 C3616 1.342 . S
C3612 C3613 1.310 . S
C3612 C3615 1.461 . S
C3612 H3632 0.932 . S
C3613 C3611 1.408 . S
C3613 C3612 1.310 . S
C3613 H3633 0.930 . S
C3614 C3615 1.474 . S
C3614 C3616 1.285 . S
C3614 H3634 0.929 . S
C3615 C3612 1.461 . S
C3615 C3614 1.474 . S
C3616 C3611 1.342 . S
C3616 C3614 1.285 . S
C3616 H3635 0.930 . S
C3617 C3620 1.424 . S
C3617 C3622 1.245 . S
C3617 C3623 1.428 . S
C3618 C3621 1.260 . S
C3618 C3622 1.477 . S
C3618 H3636 0.932 . S
C3619 C3620 1.384 . S
C3619 C3621 1.479 . S
C3619 H3637 0.929 . S
C3620 C3617 1.424 . S
C3620 C3619 1.384 . S
C3620 H3638 0.928 . S
C3621 C3618 1.260 . S
C3621 C3619 1.479 . S
C3622 C3617 1.245 . S
C3622 C3618 1.477 . S
C3622 H3639 0.932 . S
C3623 U3606 2.882 . S
C3623 C3617 1.428 . S
C3623 O3626 1.301 . S
C3623 O3627 1.282 . S
O3624 U3606 2.441 . S
O3624 C3610 1.249 . S
O3625 U3606 2.420 . S
O3625 C3610 1.202 . S
O3626 U3606 2.455 . S
O3626 C3623 1.301 . S
O3627 U3606 2.449 . S
O3627 C3623 1.282 . S
H3628 C3601 0.931 . S
H3629 C3603 0.929 . S
H3630 C3604 0.930 . S
H3631 C3605 0.931 . S
H3632 C3612 0.932 . S
H3633 C3613 0.930 . S
H3634 C3614 0.929 . S
H3635 C3616 0.930 . S
H3636 C3618 0.932 . S
H3637 C3619 0.929 . S
H3638 C3620 0.928 . S
H3639 C3622 0.932 . S
C3640 C3641 1.264 . S
C3640 C3645 1.479 . S
C3640 C3650 1.465 . S
C3641 C3640 1.264 . S
C3641 C3643 1.339 . S
C3641 H3668 0.931 . S
C3642 C3643 1.395 . S
C3642 C3644 1.320 . S
C3643 C3641 1.339 . S
C3643 C3642 1.395 . S
C3643 H3669 0.929 . S
C3644 C3642 1.320 . S
C3644 C3645 1.405 . S
C3644 H3670 0.930 . S
C3645 C3640 1.479 . S
C3645 C3644 1.405 . S
C3645 H3671 0.931 . S
U3646 O3647 2.454 . S
U3646 O3648 2.458 . S
U3646 C3649 2.984 . S
U3646 C3650 2.847 . S
U3646 C3663 2.882 . S
U3646 O3664 2.441 . S
U3646 O3665 2.420 . S
U3646 O3666 2.455 . S
U3646 O3667 2.449 . S
O3647 U3646 2.454 . S
O3647 C3649 1.353 . S
O3648 U3646 2.458 . S
O3648 C3649 1.286 . S
C3649 U3646 2.984 . S
C3649 O3647 1.353 . S
C3649 O3648 1.286 . S
C3649 C3651 1.363 . S
C3650 C3640 1.465 . S
C3650 U3646 2.847 . S
C3650 O3664 1.249 . S
C3650 O3665 1.202 . S
C3651 C3649 1.363 . S
C3651 C3653 1.408 . S
C3651 C3656 1.342 . S
C3652 C3653 1.310 . S
C3652 C3655 1.461 . S
C3652 H3672 0.932 . S
C3653 C3651 1.408 . S
C3653 C3652 1.310 . S
C3653 H3673 0.930 . S
C3654 C3655 1.474 . S
C3654 C3656 1.285 . S
C3654 H3674 0.929 . S
C3655 C3652 1.461 . S
C3655 C3654 1.474 . S
C3656 C3651 1.342 . S
C3656 C3654 1.285 . S
C3656 H3675 0.930 . S
C3657 C3660 1.424 . S
C3657 C3662 1.245 . S
C3657 C3663 1.428 . S
C3658 C3661 1.260 . S
C3658 C3662 1.477 . S
C3658 H3676 0.932 . S
C3659 C3660 1.384 . S
C3659 C3661 1.479 . S
C3659 H3677 0.929 . S
C3660 C3657 1.424 . S
C3660 C3659 1.384 . S
C3660 H3678 0.928 . S
C3661 C3658 1.260 . S
C3661 C3659 1.479 . S
C3662 C3657 1.245 . S
C3662 C3658 1.477 . S
C3662 H3679 0.932 . S
C3663 U3646 2.882 . S
C3663 C3657 1.428 . S
C3663 O3666 1.301 . S
C3663 O3667 1.282 . S
O3664 U3646 2.441 . S
O3664 C3650 1.249 . S
O3665 U3646 2.420 . S
O3665 C3650 1.202 . S
O3666 U3646 2.455 . S
O3666 C3663 1.301 . S
O3667 U3646 2.449 . S
O3667 C3663 1.282 . S
H3668 C3641 0.931 . S
H3669 C3643 0.929 . S
H3670 C3644 0.930 . S
H3671 C3645 0.931 . S
H3672 C3652 0.932 . S
H3673 C3653 0.930 . S
H3674 C3654 0.929 . S
H3675 C3656 0.930 . S
H3676 C3658 0.932 . S
H3677 C3659 0.929 . S
H3678 C3660 0.928 . S
H3679 C3662 0.932 . S
C3680 C3681 1.264 . S
C3680 C3685 1.479 . S
C3680 C3690 1.465 . S
C3681 C3680 1.264 . S
C3681 C3683 1.339 . S
C3681 H3708 0.931 . S
C3682 C3683 1.395 . S
C3682 C3684 1.320 . S
C3683 C3681 1.339 . S
C3683 C3682 1.395 . S
C3683 H3709 0.929 . S
C3684 C3682 1.320 . S
C3684 C3685 1.405 . S
C3684 H3710 0.930 . S
C3685 C3680 1.479 . S
C3685 C3684 1.405 . S
C3685 H3711 0.931 . S
U3686 O3687 2.454 . S
U3686 O3688 2.458 . S
U3686 C3689 2.984 . S
U3686 C3690 2.847 . S
U3686 C3703 2.882 . S
U3686 O3704 2.441 . S
U3686 O3705 2.420 . S
U3686 O3706 2.455 . S
U3686 O3707 2.449 . S
O3687 U3686 2.454 . S
O3687 C3689 1.353 . S
O3688 U3686 2.458 . S
O3688 C3689 1.286 . S
C3689 U3686 2.984 . S
C3689 O3687 1.353 . S
C3689 O3688 1.286 . S
C3689 C3691 1.363 . S
C3690 C3680 1.465 . S
C3690 U3686 2.847 . S
C3690 O3704 1.249 . S
C3690 O3705 1.202 . S
C3691 C3689 1.363 . S
C3691 C3693 1.408 . S
C3691 C3696 1.342 . S
C3692 C3693 1.310 . S
C3692 C3695 1.461 . S
C3692 H3712 0.932 . S
C3693 C3691 1.408 . S
C3693 C3692 1.310 . S
C3693 H3713 0.930 . S
C3694 C3695 1.474 . S
C3694 C3696 1.285 . S
C3694 H3714 0.929 . S
C3695 C3692 1.461 . S
C3695 C3694 1.474 . S
C3696 C3691 1.342 . S
C3696 C3694 1.285 . S
C3696 H3715 0.930 . S
C3697 C3700 1.424 . S
C3697 C3702 1.245 . S
C3697 C3703 1.428 . S
C3698 C3701 1.260 . S
C3698 C3702 1.477 . S
C3698 H3716 0.932 . S
C3699 C3700 1.384 . S
C3699 C3701 1.479 . S
C3699 H3717 0.929 . S
C3700 C3697 1.424 . S
C3700 C3699 1.384 . S
C3700 H3718 0.928 . S
C3701 C3698 1.260 . S
C3701 C3699 1.479 . S
C3702 C3697 1.245 . S
C3702 C3698 1.477 . S
C3702 H3719 0.932 . S
C3703 U3686 2.882 . S
C3703 C3697 1.428 . S
C3703 O3706 1.301 . S
C3703 O3707 1.282 . S
O3704 U3686 2.441 . S
O3704 C3690 1.249 . S
O3705 U3686 2.420 . S
O3705 C3690 1.202 . S
O3706 U3686 2.455 . S
O3706 C3703 1.301 . S
O3707 U3686 2.449 . S
O3707 C3703 1.282 . S
H3708 C3681 0.931 . S
H3709 C3683 0.929 . S
H3710 C3684 0.930 . S
H3711 C3685 0.931 . S
H3712 C3692 0.932 . S
H3713 C3693 0.930 . S
H3714 C3694 0.929 . S
H3715 C3696 0.930 . S
H3716 C3698 0.932 . S
H3717 C3699 0.929 . S
H3718 C3700 0.928 . S
H3719 C3702 0.932 . S
C3720 C3721 1.264 . S
C3720 C3725 1.479 . S
C3720 C3730 1.465 . S
C3721 C3720 1.264 . S
C3721 C3723 1.339 . S
C3721 H3748 0.931 . S
C3722 C3723 1.395 . S
C3722 C3724 1.320 . S
C3723 C3721 1.339 . S
C3723 C3722 1.395 . S
C3723 H3749 0.929 . S
C3724 C3722 1.320 . S
C3724 C3725 1.405 . S
C3724 H3750 0.930 . S
C3725 C3720 1.479 . S
C3725 C3724 1.405 . S
C3725 H3751 0.931 . S
U3726 O3727 2.454 . S
U3726 O3728 2.458 . S
U3726 C3729 2.984 . S
U3726 C3730 2.847 . S
U3726 C3743 2.882 . S
U3726 O3744 2.441 . S
U3726 O3745 2.420 . S
U3726 O3746 2.455 . S
U3726 O3747 2.449 . S
O3727 U3726 2.454 . S
O3727 C3729 1.353 . S
O3728 U3726 2.458 . S
O3728 C3729 1.286 . S
C3729 U3726 2.984 . S
C3729 O3727 1.353 . S
C3729 O3728 1.286 . S
C3729 C3731 1.363 . S
C3730 C3720 1.465 . S
C3730 U3726 2.847 . S
C3730 O3744 1.249 . S
C3730 O3745 1.202 . S
C3731 C3729 1.363 . S
C3731 C3733 1.408 . S
C3731 C3736 1.342 . S
C3732 C3733 1.310 . S
C3732 C3735 1.461 . S
C3732 H3752 0.932 . S
C3733 C3731 1.408 . S
C3733 C3732 1.310 . S
C3733 H3753 0.930 . S
C3734 C3735 1.474 . S
C3734 C3736 1.285 . S
C3734 H3754 0.929 . S
C3735 C3732 1.461 . S
C3735 C3734 1.474 . S
C3736 C3731 1.342 . S
C3736 C3734 1.285 . S
C3736 H3755 0.930 . S
C3737 C3740 1.424 . S
C3737 C3742 1.245 . S
C3737 C3743 1.428 . S
C3738 C3741 1.260 . S
C3738 C3742 1.477 . S
C3738 H3756 0.932 . S
C3739 C3740 1.384 . S
C3739 C3741 1.479 . S
C3739 H3757 0.929 . S
C3740 C3737 1.424 . S
C3740 C3739 1.384 . S
C3740 H3758 0.928 . S
C3741 C3738 1.260 . S
C3741 C3739 1.479 . S
C3742 C3737 1.245 . S
C3742 C3738 1.477 . S
C3742 H3759 0.932 . S
C3743 U3726 2.882 . S
C3743 C3737 1.428 . S
C3743 O3746 1.301 . S
C3743 O3747 1.282 . S
O3744 U3726 2.441 . S
O3744 C3730 1.249 . S
O3745 U3726 2.420 . S
O3745 C3730 1.202 . S
O3746 U3726 2.455 . S
O3746 C3743 1.301 . S
O3747 U3726 2.449 . S
O3747 C3743 1.282 . S
H3748 C3721 0.931 . S
H3749 C3723 0.929 . S
H3750 C3724 0.930 . S
H3751 C3725 0.931 . S
H3752 C3732 0.932 . S
H3753 C3733 0.930 . S
H3754 C3734 0.929 . S
H3755 C3736 0.930 . S
H3756 C3738 0.932 . S
H3757 C3739 0.929 . S
H3758 C3740 0.928 . S
H3759 C3742 0.932 . S
C3760 C3761 1.264 . S
C3760 C3765 1.479 . S
C3760 C3770 1.465 . S
C3761 C3760 1.264 . S
C3761 C3763 1.339 . S
C3761 H3788 0.931 . S
C3762 C3763 1.395 . S
C3762 C3764 1.320 . S
C3763 C3761 1.339 . S
C3763 C3762 1.395 . S
C3763 H3789 0.929 . S
C3764 C3762 1.320 . S
C3764 C3765 1.405 . S
C3764 H3790 0.930 . S
C3765 C3760 1.479 . S
C3765 C3764 1.405 . S
C3765 H3791 0.931 . S
U3766 O3767 2.454 . S
U3766 O3768 2.458 . S
U3766 C3769 2.984 . S
U3766 C3770 2.847 . S
U3766 C3783 2.882 . S
U3766 O3784 2.441 . S
U3766 O3785 2.420 . S
U3766 O3786 2.455 . S
U3766 O3787 2.449 . S
O3767 U3766 2.454 . S
O3767 C3769 1.353 . S
O3768 U3766 2.458 . S
O3768 C3769 1.286 . S
C3769 U3766 2.984 . S
C3769 O3767 1.353 . S
C3769 O3768 1.286 . S
C3769 C3771 1.363 . S
C3770 C3760 1.465 . S
C3770 U3766 2.847 . S
C3770 O3784 1.249 . S
C3770 O3785 1.202 . S
C3771 C3769 1.363 . S
C3771 C3773 1.408 . S
C3771 C3776 1.342 . S
C3772 C3773 1.310 . S
C3772 C3775 1.461 . S
C3772 H3792 0.932 . S
C3773 C3771 1.408 . S
C3773 C3772 1.310 . S
C3773 H3793 0.930 . S
C3774 C3775 1.474 . S
C3774 C3776 1.285 . S
C3774 H3794 0.929 . S
C3775 C3772 1.461 . S
C3775 C3774 1.474 . S
C3776 C3771 1.342 . S
C3776 C3774 1.285 . S
C3776 H3795 0.930 . S
C3777 C3780 1.424 . S
C3777 C3782 1.245 . S
C3777 C3783 1.428 . S
C3778 C3781 1.260 . S
C3778 C3782 1.477 . S
C3778 H3796 0.932 . S
C3779 C3780 1.384 . S
C3779 C3781 1.479 . S
C3779 H3797 0.929 . S
C3780 C3777 1.424 . S
C3780 C3779 1.384 . S
C3780 H3798 0.928 . S
C3781 C3778 1.260 . S
C3781 C3779 1.479 . S
C3782 C3777 1.245 . S
C3782 C3778 1.477 . S
C3782 H3799 0.932 . S
C3783 U3766 2.882 . S
C3783 C3777 1.428 . S
C3783 O3786 1.301 . S
C3783 O3787 1.282 . S
O3784 U3766 2.441 . S
O3784 C3770 1.249 . S
O3785 U3766 2.420 . S
O3785 C3770 1.202 . S
O3786 U3766 2.455 . S
O3786 C3783 1.301 . S
O3787 U3766 2.449 . S
O3787 C3783 1.282 . S
H3788 C3761 0.931 . S
H3789 C3763 0.929 . S
H3790 C3764 0.930 . S
H3791 C3765 0.931 . S
H3792 C3772 0.932 . S
H3793 C3773 0.930 . S
H3794 C3774 0.929 . S
H3795 C3776 0.930 . S
H3796 C3778 0.932 . S
H3797 C3779 0.929 . S
H3798 C3780 0.928 . S
H3799 C3782 0.932 . S
C3800 C3801 1.264 . S
C3800 C3805 1.479 . S
C3800 C3810 1.465 . S
C3801 C3800 1.264 . S
C3801 C3803 1.339 . S
C3801 H3828 0.931 . S
C3802 C3803 1.395 . S
C3802 C3804 1.320 . S
C3803 C3801 1.339 . S
C3803 C3802 1.395 . S
C3803 H3829 0.929 . S
C3804 C3802 1.320 . S
C3804 C3805 1.405 . S
C3804 H3830 0.930 . S
C3805 C3800 1.479 . S
C3805 C3804 1.405 . S
C3805 H3831 0.931 . S
U3806 O3807 2.454 . S
U3806 O3808 2.458 . S
U3806 C3809 2.984 . S
U3806 C3810 2.847 . S
U3806 C3823 2.882 . S
U3806 O3824 2.441 . S
U3806 O3825 2.420 . S
U3806 O3826 2.455 . S
U3806 O3827 2.449 . S
O3807 U3806 2.454 . S
O3807 C3809 1.353 . S
O3808 U3806 2.458 . S
O3808 C3809 1.286 . S
C3809 U3806 2.984 . S
C3809 O3807 1.353 . S
C3809 O3808 1.286 . S
C3809 C3811 1.363 . S
C3810 C3800 1.465 . S
C3810 U3806 2.847 . S
C3810 O3824 1.249 . S
C3810 O3825 1.202 . S
C3811 C3809 1.363 . S
C3811 C3813 1.408 . S
C3811 C3816 1.342 . S
C3812 C3813 1.310 . S
C3812 C3815 1.461 . S
C3812 H3832 0.932 . S
C3813 C3811 1.408 . S
C3813 C3812 1.310 . S
C3813 H3833 0.930 . S
C3814 C3815 1.474 . S
C3814 C3816 1.285 . S
C3814 H3834 0.929 . S
C3815 C3812 1.461 . S
C3815 C3814 1.474 . S
C3816 C3811 1.342 . S
C3816 C3814 1.285 . S
C3816 H3835 0.930 . S
C3817 C3820 1.424 . S
C3817 C3822 1.245 . S
C3817 C3823 1.428 . S
C3818 C3821 1.260 . S
C3818 C3822 1.477 . S
C3818 H3836 0.932 . S
C3819 C3820 1.384 . S
C3819 C3821 1.479 . S
C3819 H3837 0.929 . S
C3820 C3817 1.424 . S
C3820 C3819 1.384 . S
C3820 H3838 0.928 . S
C3821 C3818 1.260 . S
C3821 C3819 1.479 . S
C3822 C3817 1.245 . S
C3822 C3818 1.477 . S
C3822 H3839 0.932 . S
C3823 U3806 2.882 . S
C3823 C3817 1.428 . S
C3823 O3826 1.301 . S
C3823 O3827 1.282 . S
O3824 U3806 2.441 . S
O3824 C3810 1.249 . S
O3825 U3806 2.420 . S
O3825 C3810 1.202 . S
O3826 U3806 2.455 . S
O3826 C3823 1.301 . S
O3827 U3806 2.449 . S
O3827 C3823 1.282 . S
H3828 C3801 0.931 . S
H3829 C3803 0.929 . S
H3830 C3804 0.930 . S
H3831 C3805 0.931 . S
H3832 C3812 0.932 . S
H3833 C3813 0.930 . S
H3834 C3814 0.929 . S
H3835 C3816 0.930 . S
H3836 C3818 0.932 . S
H3837 C3819 0.929 . S
H3838 C3820 0.928 . S
H3839 C3822 0.932 . S
C3840 C3841 1.369 . S
C3840 C3842 1.419 . S
C3840 H3844 0.930 . S
C3841 C3840 1.369 . S
C3841 C3850 1.429 . S
C3842 C3840 1.419 . S
C3842 C3843 1.363 . S
C3842 H3845 0.929 . S
C3843 C3842 1.363 . S
C3843 C3849 1.428 . S
H3844 C3840 0.930 . S
H3845 C3842 0.929 . S
S3846 N3847 1.613 . S
S3846 N3848 1.610 . S
N3847 S3846 1.613 . S
N3847 C3850 1.350 . S
N3848 S3846 1.610 . S
N3848 C3849 1.351 . S
C3849 C3843 1.428 . S
C3849 N3848 1.351 . S
C3849 C3850 1.434 . S
C3850 C3841 1.429 . S
C3850 N3847 1.350 . S
C3850 C3849 1.434 . S
C3851 C3852 1.369 . S
C3851 C3853 1.419 . S
C3851 H3855 0.930 . S
C3852 C3851 1.369 . S
C3852 C3861 1.429 . S
C3853 C3851 1.419 . S
C3853 C3854 1.363 . S
C3853 H3856 0.929 . S
C3854 C3853 1.363 . S
C3854 C3860 1.428 . S
H3855 C3851 0.930 . S
H3856 C3853 0.929 . S
S3857 N3858 1.613 . S
S3857 N3859 1.610 . S
N3858 S3857 1.613 . S
N3858 C3861 1.350 . S
N3859 S3857 1.610 . S
N3859 C3860 1.351 . S
C3860 C3854 1.428 . S
C3860 N3859 1.351 . S
C3860 C3861 1.434 . S
C3861 C3852 1.429 . S
C3861 N3858 1.350 . S
C3861 C3860 1.434 . S
C3862 C3863 1.369 . S
C3862 C3864 1.419 . S
C3862 H3866 0.930 . S
C3863 C3862 1.369 . S
C3863 C3872 1.429 . S
C3864 C3862 1.419 . S
C3864 C3865 1.363 . S
C3864 H3867 0.929 . S
C3865 C3864 1.363 . S
C3865 C3871 1.428 . S
H3866 C3862 0.930 . S
H3867 C3864 0.929 . S
S3868 N3869 1.613 . S
S3868 N3870 1.610 . S
N3869 S3868 1.613 . S
N3869 C3872 1.350 . S
N3870 S3868 1.610 . S
N3870 C3871 1.351 . S
C3871 C3865 1.428 . S
C3871 N3870 1.351 . S
C3871 C3872 1.434 . S
C3872 C3863 1.429 . S
C3872 N3869 1.350 . S
C3872 C3871 1.434 . S
C3873 C3874 1.369 . S
C3873 C3875 1.419 . S
C3873 H3877 0.930 . S
C3874 C3873 1.369 . S
C3874 C3883 1.429 . S
C3875 C3873 1.419 . S
C3875 C3876 1.363 . S
C3875 H3878 0.929 . S
C3876 C3875 1.363 . S
C3876 C3882 1.428 . S
H3877 C3873 0.930 . S
H3878 C3875 0.929 . S
S3879 N3880 1.613 . S
S3879 N3881 1.610 . S
N3880 S3879 1.613 . S
N3880 C3883 1.350 . S
N3881 S3879 1.610 . S
N3881 C3882 1.351 . S
C3882 C3876 1.428 . S
C3882 N3881 1.351 . S
C3882 C3883 1.434 . S
C3883 C3874 1.429 . S
C3883 N3880 1.350 . S
C3883 C3882 1.434 . S
C3884 C3885 1.369 . S
C3884 C3886 1.419 . S
C3884 H3888 0.930 . S
C3885 C3884 1.369 . S
C3885 C3894 1.429 . S
C3886 C3884 1.419 . S
C3886 C3887 1.363 . S
C3886 H3889 0.929 . S
C3887 C3886 1.363 . S
C3887 C3893 1.428 . S
H3888 C3884 0.930 . S
H3889 C3886 0.929 . S
S3890 N3891 1.613 . S
S3890 N3892 1.610 . S
N3891 S3890 1.613 . S
N3891 C3894 1.350 . S
N3892 S3890 1.610 . S
N3892 C3893 1.351 . S
C3893 C3887 1.428 . S
C3893 N3892 1.351 . S
C3893 C3894 1.434 . S
C3894 C3885 1.429 . S
C3894 N3891 1.350 . S
C3894 C3893 1.434 . S
C3895 C3896 1.369 . S
C3895 C3897 1.419 . S
C3895 H3899 0.930 . S
C3896 C3895 1.369 . S
C3896 C3905 1.429 . S
C3897 C3895 1.419 . S
C3897 C3898 1.363 . S
C3897 H3900 0.929 . S
C3898 C3897 1.363 . S
C3898 C3904 1.428 . S
H3899 C3895 0.930 . S
H3900 C3897 0.929 . S
S3901 N3902 1.613 . S
S3901 N3903 1.610 . S
N3902 S3901 1.613 . S
N3902 C3905 1.350 . S
N3903 S3901 1.610 . S
N3903 C3904 1.351 . S
C3904 C3898 1.428 . S
C3904 N3903 1.351 . S
C3904 C3905 1.434 . S
C3905 C3896 1.429 . S
C3905 N3902 1.350 . S
C3905 C3904 1.434 . S
C3906 C3907 1.369 . S
C3906 C3908 1.419 . S
C3906 H3910 0.930 . S
C3907 C3906 1.369 . S
C3907 C3916 1.429 . S
C3908 C3906 1.419 . S
C3908 C3909 1.363 . S
C3908 H3911 0.929 . S
C3909 C3908 1.363 . S
C3909 C3915 1.428 . S
H3910 C3906 0.930 . S
H3911 C3908 0.929 . S
S3912 N3913 1.613 . S
S3912 N3914 1.610 . S
N3913 S3912 1.613 . S
N3913 C3916 1.350 . S
N3914 S3912 1.610 . S
N3914 C3915 1.351 . S
C3915 C3909 1.428 . S
C3915 N3914 1.351 . S
C3915 C3916 1.434 . S
C3916 C3907 1.429 . S
C3916 N3913 1.350 . S
C3916 C3915 1.434 . S
C3917 C3918 1.369 . S
C3917 C3919 1.419 . S
C3917 H3921 0.930 . S
C3918 C3917 1.369 . S
C3918 C3927 1.429 . S
C3919 C3917 1.419 . S
C3919 C3920 1.363 . S
C3919 H3922 0.929 . S
C3920 C3919 1.363 . S
C3920 C3926 1.428 . S
H3921 C3917 0.930 . S
H3922 C3919 0.929 . S
S3923 N3924 1.613 . S
S3923 N3925 1.610 . S
N3924 S3923 1.613 . S
N3924 C3927 1.350 . S
N3925 S3923 1.610 . S
N3925 C3926 1.351 . S
C3926 C3920 1.428 . S
C3926 N3925 1.351 . S
C3926 C3927 1.434 . S
C3927 C3918 1.429 . S
C3927 N3924 1.350 . S
C3927 C3926 1.434 . S
C3928 C3929 1.369 . S
C3928 C3930 1.419 . S
C3928 H3932 0.930 . S
C3929 C3928 1.369 . S
C3929 C3938 1.429 . S
C3930 C3928 1.419 . S
C3930 C3931 1.363 . S
C3930 H3933 0.929 . S
C3931 C3930 1.363 . S
C3931 C3937 1.428 . S
H3932 C3928 0.930 . S
H3933 C3930 0.929 . S
S3934 N3935 1.613 . S
S3934 N3936 1.610 . S
N3935 S3934 1.613 . S
N3935 C3938 1.350 . S
N3936 S3934 1.610 . S
N3936 C3937 1.351 . S
C3937 C3931 1.428 . S
C3937 N3936 1.351 . S
C3937 C3938 1.434 . S
C3938 C3929 1.429 . S
C3938 N3935 1.350 . S
C3938 C3937 1.434 . S
C3939 C3940 1.369 . S
C3939 C3941 1.419 . S
C3939 H3943 0.930 . S
C3940 C3939 1.369 . S
C3940 C3949 1.429 . S
C3941 C3939 1.419 . S
C3941 C3942 1.363 . S
C3941 H3944 0.929 . S
C3942 C3941 1.363 . S
C3942 C3948 1.428 . S
H3943 C3939 0.930 . S
H3944 C3941 0.929 . S
S3945 N3946 1.613 . S
S3945 N3947 1.610 . S
N3946 S3945 1.613 . S
N3946 C3949 1.350 . S
N3947 S3945 1.610 . S
N3947 C3948 1.351 . S
C3948 C3942 1.428 . S
C3948 N3947 1.351 . S
C3948 C3949 1.434 . S
C3949 C3940 1.429 . S
C3949 N3946 1.350 . S
C3949 C3948 1.434 . S
C3950 C3951 1.369 . S
C3950 C3952 1.419 . S
C3950 H3954 0.930 . S
C3951 C3950 1.369 . S
C3951 C3960 1.429 . S
C3952 C3950 1.419 . S
C3952 C3953 1.363 . S
C3952 H3955 0.929 . S
C3953 C3952 1.363 . S
C3953 C3959 1.428 . S
H3954 C3950 0.930 . S
H3955 C3952 0.929 . S
S3956 N3957 1.613 . S
S3956 N3958 1.610 . S
N3957 S3956 1.613 . S
N3957 C3960 1.350 . S
N3958 S3956 1.610 . S
N3958 C3959 1.351 . S
C3959 C3953 1.428 . S
C3959 N3958 1.351 . S
C3959 C3960 1.434 . S
C3960 C3951 1.429 . S
C3960 N3957 1.350 . S
C3960 C3959 1.434 . S
C3961 C3962 1.369 . S
C3961 C3963 1.419 . S
C3961 H3965 0.930 . S
C3962 C3961 1.369 . S
C3962 C3971 1.429 . S
C3963 C3961 1.419 . S
C3963 C3964 1.363 . S
C3963 H3966 0.929 . S
C3964 C3963 1.363 . S
C3964 C3970 1.428 . S
H3965 C3961 0.930 . S
H3966 C3963 0.929 . S
S3967 N3968 1.613 . S
S3967 N3969 1.610 . S
N3968 S3967 1.613 . S
N3968 C3971 1.350 . S
N3969 S3967 1.610 . S
N3969 C3970 1.351 . S
C3970 C3964 1.428 . S
C3970 N3969 1.351 . S
C3970 C3971 1.434 . S
C3971 C3962 1.429 . S
C3971 N3968 1.350 . S
C3971 C3970 1.434 . S
C3972 C3973 1.369 . S
C3972 C3974 1.419 . S
C3972 H3976 0.930 . S
C3973 C3972 1.369 . S
C3973 C3982 1.429 . S
C3974 C3972 1.419 . S
C3974 C3975 1.363 . S
C3974 H3977 0.929 . S
C3975 C3974 1.363 . S
C3975 C3981 1.428 . S
H3976 C3972 0.930 . S
H3977 C3974 0.929 . S
S3978 N3979 1.613 . S
S3978 N3980 1.610 . S
N3979 S3978 1.613 . S
N3979 C3982 1.350 . S
N3980 S3978 1.610 . S
N3980 C3981 1.351 . S
C3981 C3975 1.428 . S
C3981 N3980 1.351 . S
C3981 C3982 1.434 . S
C3982 C3973 1.429 . S
C3982 N3979 1.350 . S
C3982 C3981 1.434 . S
C3983 C3984 1.369 . S
C3983 C3985 1.419 . S
C3983 H3987 0.930 . S
C3984 C3983 1.369 . S
C3984 C3993 1.429 . S
C3985 C3983 1.419 . S
C3985 C3986 1.363 . S
C3985 H3988 0.929 . S
C3986 C3985 1.363 . S
C3986 C3992 1.428 . S
H3987 C3983 0.930 . S
H3988 C3985 0.929 . S
S3989 N3990 1.613 . S
S3989 N3991 1.610 . S
N3990 S3989 1.613 . S
N3990 C3993 1.350 . S
N3991 S3989 1.610 . S
N3991 C3992 1.351 . S
C3992 C3986 1.428 . S
C3992 N3991 1.351 . S
C3992 C3993 1.434 . S
C3993 C3984 1.429 . S
C3993 N3990 1.350 . S
C3993 C3992 1.434 . S
C3994 C3995 1.369 . S
C3994 C3996 1.419 . S
C3994 H3998 0.930 . S
C3995 C3994 1.369 . S
C3995 C4004 1.429 . S
C3996 C3994 1.419 . S
C3996 C3997 1.363 . S
C3996 H3999 0.929 . S
C3997 C3996 1.363 . S
C3997 C4003 1.428 . S
H3998 C3994 0.930 . S
H3999 C3996 0.929 . S
S4000 N4001 1.613 . S
S4000 N4002 1.610 . S
N4001 S4000 1.613 . S
N4001 C4004 1.350 . S
N4002 S4000 1.610 . S
N4002 C4003 1.351 . S
C4003 C3997 1.428 . S
C4003 N4002 1.351 . S
C4003 C4004 1.434 . S
C4004 C3995 1.429 . S
C4004 N4001 1.350 . S
C4004 C4003 1.434 . S
C4005 C4006 1.369 . S
C4005 C4007 1.419 . S
C4005 H4009 0.930 . S
C4006 C4005 1.369 . S
C4006 C4015 1.429 . S
C4007 C4005 1.419 . S
C4007 C4008 1.363 . S
C4007 H4010 0.929 . S
C4008 C4007 1.363 . S
C4008 C4014 1.428 . S
H4009 C4005 0.930 . S
H4010 C4007 0.929 . S
S4011 N4012 1.613 . S
S4011 N4013 1.610 . S
N4012 S4011 1.613 . S
N4012 C4015 1.350 . S
N4013 S4011 1.610 . S
N4013 C4014 1.351 . S
C4014 C4008 1.428 . S
C4014 N4013 1.351 . S
C4014 C4015 1.434 . S
C4015 C4006 1.429 . S
C4015 N4012 1.350 . S
C4015 C4014 1.434 . S
C4016 C4017 1.369 . S
C4016 C4018 1.419 . S
C4016 H4020 0.930 . S
C4017 C4016 1.369 . S
C4017 C4026 1.429 . S
C4018 C4016 1.419 . S
C4018 C4019 1.363 . S
C4018 H4021 0.929 . S
C4019 C4018 1.363 . S
C4019 C4025 1.428 . S
H4020 C4016 0.930 . S
H4021 C4018 0.929 . S
S4022 N4023 1.613 . S
S4022 N4024 1.610 . S
N4023 S4022 1.613 . S
N4023 C4026 1.350 . S
N4024 S4022 1.610 . S
N4024 C4025 1.351 . S
C4025 C4019 1.428 . S
C4025 N4024 1.351 . S
C4025 C4026 1.434 . S
C4026 C4017 1.429 . S
C4026 N4023 1.350 . S
C4026 C4025 1.434 . S
C4027 C4028 1.369 . S
C4027 C4029 1.419 . S
C4027 H4031 0.930 . S
C4028 C4027 1.369 . S
C4028 C4037 1.429 . S
C4029 C4027 1.419 . S
C4029 C4030 1.363 . S
C4029 H4032 0.929 . S
C4030 C4029 1.363 . S
C4030 C4036 1.428 . S
H4031 C4027 0.930 . S
H4032 C4029 0.929 . S
S4033 N4034 1.613 . S
S4033 N4035 1.610 . S
N4034 S4033 1.613 . S
N4034 C4037 1.350 . S
N4035 S4033 1.610 . S
N4035 C4036 1.351 . S
C4036 C4030 1.428 . S
C4036 N4035 1.351 . S
C4036 C4037 1.434 . S
C4037 C4028 1.429 . S
C4037 N4034 1.350 . S
C4037 C4036 1.434 . S
C4038 C4039 1.369 . S
C4038 C4040 1.419 . S
C4038 H4042 0.930 . S
C4039 C4038 1.369 . S
C4039 C4048 1.429 . S
C4040 C4038 1.419 . S
C4040 C4041 1.363 . S
C4040 H4043 0.929 . S
C4041 C4040 1.363 . S
C4041 C4047 1.428 . S
H4042 C4038 0.930 . S
H4043 C4040 0.929 . S
S4044 N4045 1.613 . S
S4044 N4046 1.610 . S
N4045 S4044 1.613 . S
N4045 C4048 1.350 . S
N4046 S4044 1.610 . S
N4046 C4047 1.351 . S
C4047 C4041 1.428 . S
C4047 N4046 1.351 . S
C4047 C4048 1.434 . S
C4048 C4039 1.429 . S
C4048 N4045 1.350 . S
C4048 C4047 1.434 . S
C4049 C4050 1.369 . S
C4049 C4051 1.419 . S
C4049 H4053 0.930 . S
C4050 C4049 1.369 . S
C4050 C4059 1.429 . S
C4051 C4049 1.419 . S
C4051 C4052 1.363 . S
C4051 H4054 0.929 . S
C4052 C4051 1.363 . S
C4052 C4058 1.428 . S
H4053 C4049 0.930 . S
H4054 C4051 0.929 . S
S4055 N4056 1.613 . S
S4055 N4057 1.610 . S
N4056 S4055 1.613 . S
N4056 C4059 1.350 . S
N4057 S4055 1.610 . S
N4057 C4058 1.351 . S
C4058 C4052 1.428 . S
C4058 N4057 1.351 . S
C4058 C4059 1.434 . S
C4059 C4050 1.429 . S
C4059 N4056 1.350 . S
C4059 C4058 1.434 . S
C4060 C4061 1.369 . S
C4060 C4062 1.419 . S
C4060 H4064 0.930 . S
C4061 C4060 1.369 . S
C4061 C4070 1.429 . S
C4062 C4060 1.419 . S
C4062 C4063 1.363 . S
C4062 H4065 0.929 . S
C4063 C4062 1.363 . S
C4063 C4069 1.428 . S
H4064 C4060 0.930 . S
H4065 C4062 0.929 . S
S4066 N4067 1.613 . S
S4066 N4068 1.610 . S
N4067 S4066 1.613 . S
N4067 C4070 1.350 . S
N4068 S4066 1.610 . S
N4068 C4069 1.351 . S
C4069 C4063 1.428 . S
C4069 N4068 1.351 . S
C4069 C4070 1.434 . S
C4070 C4061 1.429 . S
C4070 N4067 1.350 . S
C4070 C4069 1.434 . S
C4071 C4072 1.369 . S
C4071 C4073 1.419 . S
C4071 H4075 0.930 . S
C4072 C4071 1.369 . S
C4072 C4081 1.429 . S
C4073 C4071 1.419 . S
C4073 C4074 1.363 . S
C4073 H4076 0.929 . S
C4074 C4073 1.363 . S
C4074 C4080 1.428 . S
H4075 C4071 0.930 . S
H4076 C4073 0.929 . S
S4077 N4078 1.613 . S
S4077 N4079 1.610 . S
N4078 S4077 1.613 . S
N4078 C4081 1.350 . S
N4079 S4077 1.610 . S
N4079 C4080 1.351 . S
C4080 C4074 1.428 . S
C4080 N4079 1.351 . S
C4080 C4081 1.434 . S
C4081 C4072 1.429 . S
C4081 N4078 1.350 . S
C4081 C4080 1.434 . S
C4082 C4083 1.369 . S
C4082 C4084 1.419 . S
C4082 H4086 0.930 . S
C4083 C4082 1.369 . S
C4083 C4092 1.429 . S
C4084 C4082 1.419 . S
C4084 C4085 1.363 . S
C4084 H4087 0.929 . S
C4085 C4084 1.363 . S
C4085 C4091 1.428 . S
H4086 C4082 0.930 . S
H4087 C4084 0.929 . S
S4088 N4089 1.613 . S
S4088 N4090 1.610 . S
N4089 S4088 1.613 . S
N4089 C4092 1.350 . S
N4090 S4088 1.610 . S
N4090 C4091 1.351 . S
C4091 C4085 1.428 . S
C4091 N4090 1.351 . S
C4091 C4092 1.434 . S
C4092 C4083 1.429 . S
C4092 N4089 1.350 . S
C4092 C4091 1.434 . S
C4093 C4094 1.369 . S
C4093 C4095 1.419 . S
C4093 H4097 0.930 . S
C4094 C4093 1.369 . S
C4094 C4103 1.429 . S
C4095 C4093 1.419 . S
C4095 C4096 1.363 . S
C4095 H4098 0.929 . S
C4096 C4095 1.363 . S
C4096 C4102 1.428 . S
H4097 C4093 0.930 . S
H4098 C4095 0.929 . S
S4099 N4100 1.613 . S
S4099 N4101 1.610 . S
N4100 S4099 1.613 . S
N4100 C4103 1.350 . S
N4101 S4099 1.610 . S
N4101 C4102 1.351 . S
C4102 C4096 1.428 . S
C4102 N4101 1.351 . S
C4102 C4103 1.434 . S
C4103 C4094 1.429 . S
C4103 N4100 1.350 . S
C4103 C4102 1.434 . S
C4104 C4105 1.369 . S
C4104 C4106 1.419 . S
C4104 H4108 0.930 . S
C4105 C4104 1.369 . S
C4105 C4114 1.429 . S
C4106 C4104 1.419 . S
C4106 C4107 1.363 . S
C4106 H4109 0.929 . S
C4107 C4106 1.363 . S
C4107 C4113 1.428 . S
H4108 C4104 0.930 . S
H4109 C4106 0.929 . S
S4110 N4111 1.613 . S
S4110 N4112 1.610 . S
N4111 S4110 1.613 . S
N4111 C4114 1.350 . S
N4112 S4110 1.610 . S
N4112 C4113 1.351 . S
C4113 C4107 1.428 . S
C4113 N4112 1.351 . S
C4113 C4114 1.434 . S
C4114 C4105 1.429 . S
C4114 N4111 1.350 . S
C4114 C4113 1.434 . S
C4115 C4116 1.369 . S
C4115 C4117 1.419 . S
C4115 H4119 0.930 . S
C4116 C4115 1.369 . S
C4116 C4125 1.429 . S
C4117 C4115 1.419 . S
C4117 C4118 1.363 . S
C4117 H4120 0.929 . S
C4118 C4117 1.363 . S
C4118 C4124 1.428 . S
H4119 C4115 0.930 . S
H4120 C4117 0.929 . S
S4121 N4122 1.613 . S
S4121 N4123 1.610 . S
N4122 S4121 1.613 . S
N4122 C4125 1.350 . S
N4123 S4121 1.610 . S
N4123 C4124 1.351 . S
C4124 C4118 1.428 . S
C4124 N4123 1.351 . S
C4124 C4125 1.434 . S
C4125 C4116 1.429 . S
C4125 N4122 1.350 . S
C4125 C4124 1.434 . S
C4126 C4127 1.369 . S
C4126 C4128 1.419 . S
C4126 H4130 0.930 . S
C4127 C4126 1.369 . S
C4127 C4136 1.429 . S
C4128 C4126 1.419 . S
C4128 C4129 1.363 . S
C4128 H4131 0.929 . S
C4129 C4128 1.363 . S
C4129 C4135 1.428 . S
H4130 C4126 0.930 . S
H4131 C4128 0.929 . S
S4132 N4133 1.613 . S
S4132 N4134 1.610 . S
N4133 S4132 1.613 . S
N4133 C4136 1.350 . S
N4134 S4132 1.610 . S
N4134 C4135 1.351 . S
C4135 C4129 1.428 . S
C4135 N4134 1.351 . S
C4135 C4136 1.434 . S
C4136 C4127 1.429 . S
C4136 N4133 1.350 . S
C4136 C4135 1.434 . S
C4137 C4138 1.369 . S
C4137 C4139 1.419 . S
C4137 H4141 0.930 . S
C4138 C4137 1.369 . S
C4138 C4147 1.429 . S
C4139 C4137 1.419 . S
C4139 C4140 1.363 . S
C4139 H4142 0.929 . S
C4140 C4139 1.363 . S
C4140 C4146 1.428 . S
H4141 C4137 0.930 . S
H4142 C4139 0.929 . S
S4143 N4144 1.613 . S
S4143 N4145 1.610 . S
N4144 S4143 1.613 . S
N4144 C4147 1.350 . S
N4145 S4143 1.610 . S
N4145 C4146 1.351 . S
C4146 C4140 1.428 . S
C4146 N4145 1.351 . S
C4146 C4147 1.434 . S
C4147 C4138 1.429 . S
C4147 N4144 1.350 . S
C4147 C4146 1.434 . S
C4148 C4149 1.369 . S
C4148 C4150 1.419 . S
C4148 H4152 0.930 . S
C4149 C4148 1.369 . S
C4149 C4158 1.429 . S
C4150 C4148 1.419 . S
C4150 C4151 1.363 . S
C4150 H4153 0.929 . S
C4151 C4150 1.363 . S
C4151 C4157 1.428 . S
H4152 C4148 0.930 . S
H4153 C4150 0.929 . S
S4154 N4155 1.613 . S
S4154 N4156 1.610 . S
N4155 S4154 1.613 . S
N4155 C4158 1.350 . S
N4156 S4154 1.610 . S
N4156 C4157 1.351 . S
C4157 C4151 1.428 . S
C4157 N4156 1.351 . S
C4157 C4158 1.434 . S
C4158 C4149 1.429 . S
C4158 N4155 1.350 . S
C4158 C4157 1.434 . S
C4159 C4160 1.369 . S
C4159 C4161 1.419 . S
C4159 H4163 0.930 . S
C4160 C4159 1.369 . S
C4160 C4169 1.429 . S
C4161 C4159 1.419 . S
C4161 C4162 1.363 . S
C4161 H4164 0.929 . S
C4162 C4161 1.363 . S
C4162 C4168 1.428 . S
H4163 C4159 0.930 . S
H4164 C4161 0.929 . S
S4165 N4166 1.613 . S
S4165 N4167 1.610 . S
N4166 S4165 1.613 . S
N4166 C4169 1.350 . S
N4167 S4165 1.610 . S
N4167 C4168 1.351 . S
C4168 C4162 1.428 . S
C4168 N4167 1.351 . S
C4168 C4169 1.434 . S
C4169 C4160 1.429 . S
C4169 N4166 1.350 . S
C4169 C4168 1.434 . S
C4170 C4171 1.369 . S
C4170 C4172 1.419 . S
C4170 H4174 0.930 . S
C4171 C4170 1.369 . S
C4171 C4180 1.429 . S
C4172 C4170 1.419 . S
C4172 C4173 1.363 . S
C4172 H4175 0.929 . S
C4173 C4172 1.363 . S
C4173 C4179 1.428 . S
H4174 C4170 0.930 . S
H4175 C4172 0.929 . S
S4176 N4177 1.613 . S
S4176 N4178 1.610 . S
N4177 S4176 1.613 . S
N4177 C4180 1.350 . S
N4178 S4176 1.610 . S
N4178 C4179 1.351 . S
C4179 C4173 1.428 . S
C4179 N4178 1.351 . S
C4179 C4180 1.434 . S
C4180 C4171 1.429 . S
C4180 N4177 1.350 . S
C4180 C4179 1.434 . S
C4181 C4182 1.369 . S
C4181 C4183 1.419 . S
C4181 H4185 0.930 . S
C4182 C4181 1.369 . S
C4182 C4191 1.429 . S
C4183 C4181 1.419 . S
C4183 C4184 1.363 . S
C4183 H4186 0.929 . S
C4184 C4183 1.363 . S
C4184 C4190 1.428 . S
H4185 C4181 0.930 . S
H4186 C4183 0.929 . S
S4187 N4188 1.613 . S
S4187 N4189 1.610 . S
N4188 S4187 1.613 . S
N4188 C4191 1.350 . S
N4189 S4187 1.610 . S
N4189 C4190 1.351 . S
C4190 C4184 1.428 . S
C4190 N4189 1.351 . S
C4190 C4191 1.434 . S
C4191 C4182 1.429 . S
C4191 N4188 1.350 . S
C4191 C4190 1.434 . S
C4192 C4193 1.369 . S
C4192 C4194 1.419 . S
C4192 H4196 0.930 . S
C4193 C4192 1.369 . S
C4193 C4202 1.429 . S
C4194 C4192 1.419 . S
C4194 C4195 1.363 . S
C4194 H4197 0.929 . S
C4195 C4194 1.363 . S
C4195 C4201 1.428 . S
H4196 C4192 0.930 . S
H4197 C4194 0.929 . S
S4198 N4199 1.613 . S
S4198 N4200 1.610 . S
N4199 S4198 1.613 . S
N4199 C4202 1.350 . S
N4200 S4198 1.610 . S
N4200 C4201 1.351 . S
C4201 C4195 1.428 . S
C4201 N4200 1.351 . S
C4201 C4202 1.434 . S
C4202 C4193 1.429 . S
C4202 N4199 1.350 . S
C4202 C4201 1.434 . S
C4203 C4204 1.369 . S
C4203 C4205 1.419 . S
C4203 H4207 0.930 . S
C4204 C4203 1.369 . S
C4204 C4213 1.429 . S
C4205 C4203 1.419 . S
C4205 C4206 1.363 . S
C4205 H4208 0.929 . S
C4206 C4205 1.363 . S
C4206 C4212 1.428 . S
H4207 C4203 0.930 . S
H4208 C4205 0.929 . S
S4209 N4210 1.613 . S
S4209 N4211 1.610 . S
N4210 S4209 1.613 . S
N4210 C4213 1.350 . S
N4211 S4209 1.610 . S
N4211 C4212 1.351 . S
C4212 C4206 1.428 . S
C4212 N4211 1.351 . S
C4212 C4213 1.434 . S
C4213 C4204 1.429 . S
C4213 N4210 1.350 . S
C4213 C4212 1.434 . S
C4214 C4215 1.369 . S
C4214 C4216 1.419 . S
C4214 H4218 0.930 . S
C4215 C4214 1.369 . S
C4215 C4224 1.429 . S
C4216 C4214 1.419 . S
C4216 C4217 1.363 . S
C4216 H4219 0.929 . S
C4217 C4216 1.363 . S
C4217 C4223 1.428 . S
H4218 C4214 0.930 . S
H4219 C4216 0.929 . S
S4220 N4221 1.613 . S
S4220 N4222 1.610 . S
N4221 S4220 1.613 . S
N4221 C4224 1.350 . S
N4222 S4220 1.610 . S
N4222 C4223 1.351 . S
C4223 C4217 1.428 . S
C4223 N4222 1.351 . S
C4223 C4224 1.434 . S
C4224 C4215 1.429 . S
C4224 N4221 1.350 . S
C4224 C4223 1.434 . S
C4225 C4226 1.369 . S
C4225 C4227 1.419 . S
C4225 H4229 0.930 . S
C4226 C4225 1.369 . S
C4226 C4235 1.429 . S
C4227 C4225 1.419 . S
C4227 C4228 1.363 . S
C4227 H4230 0.929 . S
C4228 C4227 1.363 . S
C4228 C4234 1.428 . S
H4229 C4225 0.930 . S
H4230 C4227 0.929 . S
S4231 N4232 1.613 . S
S4231 N4233 1.610 . S
N4232 S4231 1.613 . S
N4232 C4235 1.350 . S
N4233 S4231 1.610 . S
N4233 C4234 1.351 . S
C4234 C4228 1.428 . S
C4234 N4233 1.351 . S
C4234 C4235 1.434 . S
C4235 C4226 1.429 . S
C4235 N4232 1.350 . S
C4235 C4234 1.434 . S
C4236 C4237 1.369 . S
C4236 C4238 1.419 . S
C4236 H4240 0.930 . S
C4237 C4236 1.369 . S
C4237 C4246 1.429 . S
C4238 C4236 1.419 . S
C4238 C4239 1.363 . S
C4238 H4241 0.929 . S
C4239 C4238 1.363 . S
C4239 C4245 1.428 . S
H4240 C4236 0.930 . S
H4241 C4238 0.929 . S
S4242 N4243 1.613 . S
S4242 N4244 1.610 . S
N4243 S4242 1.613 . S
N4243 C4246 1.350 . S
N4244 S4242 1.610 . S
N4244 C4245 1.351 . S
C4245 C4239 1.428 . S
C4245 N4244 1.351 . S
C4245 C4246 1.434 . S
C4246 C4237 1.429 . S
C4246 N4243 1.350 . S
C4246 C4245 1.434 . S
C4247 C4248 1.369 . S
C4247 C4249 1.419 . S
C4247 H4251 0.930 . S
C4248 C4247 1.369 . S
C4248 C4257 1.429 . S
C4249 C4247 1.419 . S
C4249 C4250 1.363 . S
C4249 H4252 0.929 . S
C4250 C4249 1.363 . S
C4250 C4256 1.428 . S
H4251 C4247 0.930 . S
H4252 C4249 0.929 . S
S4253 N4254 1.613 . S
S4253 N4255 1.610 . S
N4254 S4253 1.613 . S
N4254 C4257 1.350 . S
N4255 S4253 1.610 . S
N4255 C4256 1.351 . S
C4256 C4250 1.428 . S
C4256 N4255 1.351 . S
C4256 C4257 1.434 . S
C4257 C4248 1.429 . S
C4257 N4254 1.350 . S
C4257 C4256 1.434 . S
C4258 C4259 1.369 . S
C4258 C4260 1.419 . S
C4258 H4262 0.930 . S
C4259 C4258 1.369 . S
C4259 C4268 1.429 . S
C4260 C4258 1.419 . S
C4260 C4261 1.363 . S
C4260 H4263 0.929 . S
C4261 C4260 1.363 . S
C4261 C4267 1.428 . S
H4262 C4258 0.930 . S
H4263 C4260 0.929 . S
S4264 N4265 1.613 . S
S4264 N4266 1.610 . S
N4265 S4264 1.613 . S
N4265 C4268 1.350 . S
N4266 S4264 1.610 . S
N4266 C4267 1.351 . S
C4267 C4261 1.428 . S
C4267 N4266 1.351 . S
C4267 C4268 1.434 . S
C4268 C4259 1.429 . S
C4268 N4265 1.350 . S
C4268 C4267 1.434 . S
C4269 C4270 1.369 . S
C4269 C4271 1.419 . S
C4269 H4273 0.930 . S
C4270 C4269 1.369 . S
C4270 C4279 1.429 . S
C4271 C4269 1.419 . S
C4271 C4272 1.363 . S
C4271 H4274 0.929 . S
C4272 C4271 1.363 . S
C4272 C4278 1.428 . S
H4273 C4269 0.930 . S
H4274 C4271 0.929 . S
S4275 N4276 1.613 . S
S4275 N4277 1.610 . S
N4276 S4275 1.613 . S
N4276 C4279 1.350 . S
N4277 S4275 1.610 . S
N4277 C4278 1.351 . S
C4278 C4272 1.428 . S
C4278 N4277 1.351 . S
C4278 C4279 1.434 . S
C4279 C4270 1.429 . S
C4279 N4276 1.350 . S
C4279 C4278 1.434 . S
C4280 C4281 1.369 . S
C4280 C4282 1.419 . S
C4280 H4284 0.930 . S
C4281 C4280 1.369 . S
C4281 C4290 1.429 . S
C4282 C4280 1.419 . S
C4282 C4283 1.363 . S
C4282 H4285 0.929 . S
C4283 C4282 1.363 . S
C4283 C4289 1.428 . S
H4284 C4280 0.930 . S
H4285 C4282 0.929 . S
S4286 N4287 1.613 . S
S4286 N4288 1.610 . S
N4287 S4286 1.613 . S
N4287 C4290 1.350 . S
N4288 S4286 1.610 . S
N4288 C4289 1.351 . S
C4289 C4283 1.428 . S
C4289 N4288 1.351 . S
C4289 C4290 1.434 . S
C4290 C4281 1.429 . S
C4290 N4287 1.350 . S
C4290 C4289 1.434 . S
C4291 C4292 1.369 . S
C4291 C4293 1.419 . S
C4291 H4295 0.930 . S
C4292 C4291 1.369 . S
C4292 C4301 1.429 . S
C4293 C4291 1.419 . S
C4293 C4294 1.363 . S
C4293 H4296 0.929 . S
C4294 C4293 1.363 . S
C4294 C4300 1.428 . S
H4295 C4291 0.930 . S
H4296 C4293 0.929 . S
S4297 N4298 1.613 . S
S4297 N4299 1.610 . S
N4298 S4297 1.613 . S
N4298 C4301 1.350 . S
N4299 S4297 1.610 . S
N4299 C4300 1.351 . S
C4300 C4294 1.428 . S
C4300 N4299 1.351 . S
C4300 C4301 1.434 . S
C4301 C4292 1.429 . S
C4301 N4298 1.350 . S
C4301 C4300 1.434 . S
C4302 C4303 1.369 . S
C4302 C4304 1.419 . S
C4302 H4306 0.930 . S
C4303 C4302 1.369 . S
C4303 C4312 1.429 . S
C4304 C4302 1.419 . S
C4304 C4305 1.363 . S
C4304 H4307 0.929 . S
C4305 C4304 1.363 . S
C4305 C4311 1.428 . S
H4306 C4302 0.930 . S
H4307 C4304 0.929 . S
S4308 N4309 1.613 . S
S4308 N4310 1.610 . S
N4309 S4308 1.613 . S
N4309 C4312 1.350 . S
N4310 S4308 1.610 . S
N4310 C4311 1.351 . S
C4311 C4305 1.428 . S
C4311 N4310 1.351 . S
C4311 C4312 1.434 . S
C4312 C4303 1.429 . S
C4312 N4309 1.350 . S
C4312 C4311 1.434 . S
C4313 C4314 1.369 . S
C4313 C4315 1.419 . S
C4313 H4317 0.930 . S
C4314 C4313 1.369 . S
C4314 C4323 1.429 . S
C4315 C4313 1.419 . S
C4315 C4316 1.363 . S
C4315 H4318 0.929 . S
C4316 C4315 1.363 . S
C4316 C4322 1.428 . S
H4317 C4313 0.930 . S
H4318 C4315 0.929 . S
S4319 N4320 1.613 . S
S4319 N4321 1.610 . S
N4320 S4319 1.613 . S
N4320 C4323 1.350 . S
N4321 S4319 1.610 . S
N4321 C4322 1.351 . S
C4322 C4316 1.428 . S
C4322 N4321 1.351 . S
C4322 C4323 1.434 . S
C4323 C4314 1.429 . S
C4323 N4320 1.350 . S
C4323 C4322 1.434 . S
C4324 C4325 1.369 . S
C4324 C4326 1.419 . S
C4324 H4328 0.930 . S
C4325 C4324 1.369 . S
C4325 C4334 1.429 . S
C4326 C4324 1.419 . S
C4326 C4327 1.363 . S
C4326 H4329 0.929 . S
C4327 C4326 1.363 . S
C4327 C4333 1.428 . S
H4328 C4324 0.930 . S
H4329 C4326 0.929 . S
S4330 N4331 1.613 . S
S4330 N4332 1.610 . S
N4331 S4330 1.613 . S
N4331 C4334 1.350 . S
N4332 S4330 1.610 . S
N4332 C4333 1.351 . S
C4333 C4327 1.428 . S
C4333 N4332 1.351 . S
C4333 C4334 1.434 . S
C4334 C4325 1.429 . S
C4334 N4331 1.350 . S
C4334 C4333 1.434 . S
C4335 C4336 1.369 . S
C4335 C4337 1.419 . S
C4335 H4339 0.930 . S
C4336 C4335 1.369 . S
C4336 C4345 1.429 . S
C4337 C4335 1.419 . S
C4337 C4338 1.363 . S
C4337 H4340 0.929 . S
C4338 C4337 1.363 . S
C4338 C4344 1.428 . S
H4339 C4335 0.930 . S
H4340 C4337 0.929 . S
S4341 N4342 1.613 . S
S4341 N4343 1.610 . S
N4342 S4341 1.613 . S
N4342 C4345 1.350 . S
N4343 S4341 1.610 . S
N4343 C4344 1.351 . S
C4344 C4338 1.428 . S
C4344 N4343 1.351 . S
C4344 C4345 1.434 . S
C4345 C4336 1.429 . S
C4345 N4342 1.350 . S
C4345 C4344 1.434 . S
C4346 C4347 1.369 . S
C4346 C4348 1.419 . S
C4346 H4350 0.930 . S
C4347 C4346 1.369 . S
C4347 C4356 1.429 . S
C4348 C4346 1.419 . S
C4348 C4349 1.363 . S
C4348 H4351 0.929 . S
C4349 C4348 1.363 . S
C4349 C4355 1.428 . S
H4350 C4346 0.930 . S
H4351 C4348 0.929 . S
S4352 N4353 1.613 . S
S4352 N4354 1.610 . S
N4353 S4352 1.613 . S
N4353 C4356 1.350 . S
N4354 S4352 1.610 . S
N4354 C4355 1.351 . S
C4355 C4349 1.428 . S
C4355 N4354 1.351 . S
C4355 C4356 1.434 . S
C4356 C4347 1.429 . S
C4356 N4353 1.350 . S
C4356 C4355 1.434 . S
C4357 C4358 1.369 . S
C4357 C4359 1.419 . S
C4357 H4361 0.930 . S
C4358 C4357 1.369 . S
C4358 C4367 1.429 . S
C4359 C4357 1.419 . S
C4359 C4360 1.363 . S
C4359 H4362 0.929 . S
C4360 C4359 1.363 . S
C4360 C4366 1.428 . S
H4361 C4357 0.930 . S
H4362 C4359 0.929 . S
S4363 N4364 1.613 . S
S4363 N4365 1.610 . S
N4364 S4363 1.613 . S
N4364 C4367 1.350 . S
N4365 S4363 1.610 . S
N4365 C4366 1.351 . S
C4366 C4360 1.428 . S
C4366 N4365 1.351 . S
C4366 C4367 1.434 . S
C4367 C4358 1.429 . S
C4367 N4364 1.350 . S
C4367 C4366 1.434 . S
C4368 C4369 1.369 . S
C4368 C4370 1.419 . S
C4368 H4372 0.930 . S
C4369 C4368 1.369 . S
C4369 C4378 1.429 . S
C4370 C4368 1.419 . S
C4370 C4371 1.363 . S
C4370 H4373 0.929 . S
C4371 C4370 1.363 . S
C4371 C4377 1.428 . S
H4372 C4368 0.930 . S
H4373 C4370 0.929 . S
S4374 N4375 1.613 . S
S4374 N4376 1.610 . S
N4375 S4374 1.613 . S
N4375 C4378 1.350 . S
N4376 S4374 1.610 . S
N4376 C4377 1.351 . S
C4377 C4371 1.428 . S
C4377 N4376 1.351 . S
C4377 C4378 1.434 . S
C4378 C4369 1.429 . S
C4378 N4375 1.350 . S
C4378 C4377 1.434 . S
C4379 C4380 1.369 . S
C4379 C4381 1.419 . S
C4379 H4383 0.930 . S
C4380 C4379 1.369 . S
C4380 C4389 1.429 . S
C4381 C4379 1.419 . S
C4381 C4382 1.363 . S
C4381 H4384 0.929 . S
C4382 C4381 1.363 . S
C4382 C4388 1.428 . S
H4383 C4379 0.930 . S
H4384 C4381 0.929 . S
S4385 N4386 1.613 . S
S4385 N4387 1.610 . S
N4386 S4385 1.613 . S
N4386 C4389 1.350 . S
N4387 S4385 1.610 . S
N4387 C4388 1.351 . S
C4388 C4382 1.428 . S
C4388 N4387 1.351 . S
C4388 C4389 1.434 . S
C4389 C4380 1.429 . S
C4389 N4386 1.350 . S
C4389 C4388 1.434 . S
C4390 C4391 1.369 . S
C4390 C4392 1.419 . S
C4390 H4394 0.930 . S
C4391 C4390 1.369 . S
C4391 C4400 1.429 . S
C4392 C4390 1.419 . S
C4392 C4393 1.363 . S
C4392 H4395 0.929 . S
C4393 C4392 1.363 . S
C4393 C4399 1.428 . S
H4394 C4390 0.930 . S
H4395 C4392 0.929 . S
S4396 N4397 1.613 . S
S4396 N4398 1.610 . S
N4397 S4396 1.613 . S
N4397 C4400 1.350 . S
N4398 S4396 1.610 . S
N4398 C4399 1.351 . S
C4399 C4393 1.428 . S
C4399 N4398 1.351 . S
C4399 C4400 1.434 . S
C4400 C4391 1.429 . S
C4400 N4397 1.350 . S
C4400 C4399 1.434 . S
C4401 C4402 1.369 . S
C4401 C4403 1.419 . S
C4401 H4405 0.930 . S
C4402 C4401 1.369 . S
C4402 C4411 1.429 . S
C4403 C4401 1.419 . S
C4403 C4404 1.363 . S
C4403 H4406 0.929 . S
C4404 C4403 1.363 . S
C4404 C4410 1.428 . S
H4405 C4401 0.930 . S
H4406 C4403 0.929 . S
S4407 N4408 1.613 . S
S4407 N4409 1.610 . S
N4408 S4407 1.613 . S
N4408 C4411 1.350 . S
N4409 S4407 1.610 . S
N4409 C4410 1.351 . S
C4410 C4404 1.428 . S
C4410 N4409 1.351 . S
C4410 C4411 1.434 . S
C4411 C4402 1.429 . S
C4411 N4408 1.350 . S
C4411 C4410 1.434 . S
C4412 C4413 1.369 . S
C4412 C4414 1.419 . S
C4412 H4416 0.930 . S
C4413 C4412 1.369 . S
C4413 C4422 1.429 . S
C4414 C4412 1.419 . S
C4414 C4415 1.363 . S
C4414 H4417 0.929 . S
C4415 C4414 1.363 . S
C4415 C4421 1.428 . S
H4416 C4412 0.930 . S
H4417 C4414 0.929 . S
S4418 N4419 1.613 . S
S4418 N4420 1.610 . S
N4419 S4418 1.613 . S
N4419 C4422 1.350 . S
N4420 S4418 1.610 . S
N4420 C4421 1.351 . S
C4421 C4415 1.428 . S
C4421 N4420 1.351 . S
C4421 C4422 1.434 . S
C4422 C4413 1.429 . S
C4422 N4419 1.350 . S
C4422 C4421 1.434 . S
C4423 C4424 1.369 . S
C4423 C4425 1.419 . S
C4423 H4427 0.930 . S
C4424 C4423 1.369 . S
C4424 C4433 1.429 . S
C4425 C4423 1.419 . S
C4425 C4426 1.363 . S
C4425 H4428 0.929 . S
C4426 C4425 1.363 . S
C4426 C4432 1.428 . S
H4427 C4423 0.930 . S
H4428 C4425 0.929 . S
S4429 N4430 1.613 . S
S4429 N4431 1.610 . S
N4430 S4429 1.613 . S
N4430 C4433 1.350 . S
N4431 S4429 1.610 . S
N4431 C4432 1.351 . S
C4432 C4426 1.428 . S
C4432 N4431 1.351 . S
C4432 C4433 1.434 . S
C4433 C4424 1.429 . S
C4433 N4430 1.350 . S
C4433 C4432 1.434 . S
C4434 C4435 1.369 . S
C4434 C4436 1.419 . S
C4434 H4438 0.930 . S
C4435 C4434 1.369 . S
C4435 C4444 1.429 . S
C4436 C4434 1.419 . S
C4436 C4437 1.363 . S
C4436 H4439 0.929 . S
C4437 C4436 1.363 . S
C4437 C4443 1.428 . S
H4438 C4434 0.930 . S
H4439 C4436 0.929 . S
S4440 N4441 1.613 . S
S4440 N4442 1.610 . S
N4441 S4440 1.613 . S
N4441 C4444 1.350 . S
N4442 S4440 1.610 . S
N4442 C4443 1.351 . S
C4443 C4437 1.428 . S
C4443 N4442 1.351 . S
C4443 C4444 1.434 . S
C4444 C4435 1.429 . S
C4444 N4441 1.350 . S
C4444 C4443 1.434 . S
C4445 C4446 1.369 . S
C4445 C4447 1.419 . S
C4445 H4449 0.930 . S
C4446 C4445 1.369 . S
C4446 C4455 1.429 . S
C4447 C4445 1.419 . S
C4447 C4448 1.363 . S
C4447 H4450 0.929 . S
C4448 C4447 1.363 . S
C4448 C4454 1.428 . S
H4449 C4445 0.930 . S
H4450 C4447 0.929 . S
S4451 N4452 1.613 . S
S4451 N4453 1.610 . S
N4452 S4451 1.613 . S
N4452 C4455 1.350 . S
N4453 S4451 1.610 . S
N4453 C4454 1.351 . S
C4454 C4448 1.428 . S
C4454 N4453 1.351 . S
C4454 C4455 1.434 . S
C4455 C4446 1.429 . S
C4455 N4452 1.350 . S
C4455 C4454 1.434 . S
C4456 C4457 1.369 . S
C4456 C4458 1.419 . S
C4456 H4460 0.930 . S
C4457 C4456 1.369 . S
C4457 C4466 1.429 . S
C4458 C4456 1.419 . S
C4458 C4459 1.363 . S
C4458 H4461 0.929 . S
C4459 C4458 1.363 . S
C4459 C4465 1.428 . S
H4460 C4456 0.930 . S
H4461 C4458 0.929 . S
S4462 N4463 1.613 . S
S4462 N4464 1.610 . S
N4463 S4462 1.613 . S
N4463 C4466 1.350 . S
N4464 S4462 1.610 . S
N4464 C4465 1.351 . S
C4465 C4459 1.428 . S
C4465 N4464 1.351 . S
C4465 C4466 1.434 . S
C4466 C4457 1.429 . S
C4466 N4463 1.350 . S
C4466 C4465 1.434 . S
C4467 C4468 1.369 . S
C4467 C4469 1.419 . S
C4467 H4471 0.930 . S
C4468 C4467 1.369 . S
C4468 C4477 1.429 . S
C4469 C4467 1.419 . S
C4469 C4470 1.363 . S
C4469 H4472 0.929 . S
C4470 C4469 1.363 . S
C4470 C4476 1.428 . S
H4471 C4467 0.930 . S
H4472 C4469 0.929 . S
S4473 N4474 1.613 . S
S4473 N4475 1.610 . S
N4474 S4473 1.613 . S
N4474 C4477 1.350 . S
N4475 S4473 1.610 . S
N4475 C4476 1.351 . S
C4476 C4470 1.428 . S
C4476 N4475 1.351 . S
C4476 C4477 1.434 . S
C4477 C4468 1.429 . S
C4477 N4474 1.350 . S
C4477 C4476 1.434 . S
C4478 C4479 1.369 . S
C4478 C4480 1.419 . S
C4478 H4482 0.930 . S
C4479 C4478 1.369 . S
C4479 C4488 1.429 . S
C4480 C4478 1.419 . S
C4480 C4481 1.363 . S
C4480 H4483 0.929 . S
C4481 C4480 1.363 . S
C4481 C4487 1.428 . S
H4482 C4478 0.930 . S
H4483 C4480 0.929 . S
S4484 N4485 1.613 . S
S4484 N4486 1.610 . S
N4485 S4484 1.613 . S
N4485 C4488 1.350 . S
N4486 S4484 1.610 . S
N4486 C4487 1.351 . S
C4487 C4481 1.428 . S
C4487 N4486 1.351 . S
C4487 C4488 1.434 . S
C4488 C4479 1.429 . S
C4488 N4485 1.350 . S
C4488 C4487 1.434 . S
C4489 C4490 1.369 . S
C4489 C4491 1.419 . S
C4489 H4493 0.930 . S
C4490 C4489 1.369 . S
C4490 C4499 1.429 . S
C4491 C4489 1.419 . S
C4491 C4492 1.363 . S
C4491 H4494 0.929 . S
C4492 C4491 1.363 . S
C4492 C4498 1.428 . S
H4493 C4489 0.930 . S
H4494 C4491 0.929 . S
S4495 N4496 1.613 . S
S4495 N4497 1.610 . S
N4496 S4495 1.613 . S
N4496 C4499 1.350 . S
N4497 S4495 1.610 . S
N4497 C4498 1.351 . S
C4498 C4492 1.428 . S
C4498 N4497 1.351 . S
C4498 C4499 1.434 . S
C4499 C4490 1.429 . S
C4499 N4496 1.350 . S
C4499 C4498 1.434 . S
C4500 C4501 1.369 . S
C4500 C4502 1.419 . S
C4500 H4504 0.930 . S
C4501 C4500 1.369 . S
C4501 C4510 1.429 . S
C4502 C4500 1.419 . S
C4502 C4503 1.363 . S
C4502 H4505 0.929 . S
C4503 C4502 1.363 . S
C4503 C4509 1.428 . S
H4504 C4500 0.930 . S
H4505 C4502 0.929 . S
S4506 N4507 1.613 . S
S4506 N4508 1.610 . S
N4507 S4506 1.613 . S
N4507 C4510 1.350 . S
N4508 S4506 1.610 . S
N4508 C4509 1.351 . S
C4509 C4503 1.428 . S
C4509 N4508 1.351 . S
C4509 C4510 1.434 . S
C4510 C4501 1.429 . S
C4510 N4507 1.350 . S
C4510 C4509 1.434 . S
C4511 C4512 1.369 . S
C4511 C4513 1.419 . S
C4511 H4515 0.930 . S
C4512 C4511 1.369 . S
C4512 C4521 1.429 . S
C4513 C4511 1.419 . S
C4513 C4514 1.363 . S
C4513 H4516 0.929 . S
C4514 C4513 1.363 . S
C4514 C4520 1.428 . S
H4515 C4511 0.930 . S
H4516 C4513 0.929 . S
S4517 N4518 1.613 . S
S4517 N4519 1.610 . S
N4518 S4517 1.613 . S
N4518 C4521 1.350 . S
N4519 S4517 1.610 . S
N4519 C4520 1.351 . S
C4520 C4514 1.428 . S
C4520 N4519 1.351 . S
C4520 C4521 1.434 . S
C4521 C4512 1.429 . S
C4521 N4518 1.350 . S
C4521 C4520 1.434 . S
C4522 C4523 1.369 . S
C4522 C4524 1.419 . S
C4522 H4526 0.930 . S
C4523 C4522 1.369 . S
C4523 C4532 1.429 . S
C4524 C4522 1.419 . S
C4524 C4525 1.363 . S
C4524 H4527 0.929 . S
C4525 C4524 1.363 . S
C4525 C4531 1.428 . S
H4526 C4522 0.930 . S
H4527 C4524 0.929 . S
S4528 N4529 1.613 . S
S4528 N4530 1.610 . S
N4529 S4528 1.613 . S
N4529 C4532 1.350 . S
N4530 S4528 1.610 . S
N4530 C4531 1.351 . S
C4531 C4525 1.428 . S
C4531 N4530 1.351 . S
C4531 C4532 1.434 . S
C4532 C4523 1.429 . S
C4532 N4529 1.350 . S
C4532 C4531 1.434 . S
C4533 C4534 1.369 . S
C4533 C4535 1.419 . S
C4533 H4537 0.930 . S
C4534 C4533 1.369 . S
C4534 C4543 1.429 . S
C4535 C4533 1.419 . S
C4535 C4536 1.363 . S
C4535 H4538 0.929 . S
C4536 C4535 1.363 . S
C4536 C4542 1.428 . S
H4537 C4533 0.930 . S
H4538 C4535 0.929 . S
S4539 N4540 1.613 . S
S4539 N4541 1.610 . S
N4540 S4539 1.613 . S
N4540 C4543 1.350 . S
N4541 S4539 1.610 . S
N4541 C4542 1.351 . S
C4542 C4536 1.428 . S
C4542 N4541 1.351 . S
C4542 C4543 1.434 . S
C4543 C4534 1.429 . S
C4543 N4540 1.350 . S
C4543 C4542 1.434 . S
C4544 C4545 1.369 . S
C4544 C4546 1.419 . S
C4544 H4548 0.930 . S
C4545 C4544 1.369 . S
C4545 C4554 1.429 . S
C4546 C4544 1.419 . S
C4546 C4547 1.363 . S
C4546 H4549 0.929 . S
C4547 C4546 1.363 . S
C4547 C4553 1.428 . S
H4548 C4544 0.930 . S
H4549 C4546 0.929 . S
S4550 N4551 1.613 . S
S4550 N4552 1.610 . S
N4551 S4550 1.613 . S
N4551 C4554 1.350 . S
N4552 S4550 1.610 . S
N4552 C4553 1.351 . S
C4553 C4547 1.428 . S
C4553 N4552 1.351 . S
C4553 C4554 1.434 . S
C4554 C4545 1.429 . S
C4554 N4551 1.350 . S
C4554 C4553 1.434 . S
C4555 C4556 1.369 . S
C4555 C4557 1.419 . S
C4555 H4559 0.930 . S
C4556 C4555 1.369 . S
C4556 C4565 1.429 . S
C4557 C4555 1.419 . S
C4557 C4558 1.363 . S
C4557 H4560 0.929 . S
C4558 C4557 1.363 . S
C4558 C4564 1.428 . S
H4559 C4555 0.930 . S
H4560 C4557 0.929 . S
S4561 N4562 1.613 . S
S4561 N4563 1.610 . S
N4562 S4561 1.613 . S
N4562 C4565 1.350 . S
N4563 S4561 1.610 . S
N4563 C4564 1.351 . S
C4564 C4558 1.428 . S
C4564 N4563 1.351 . S
C4564 C4565 1.434 . S
C4565 C4556 1.429 . S
C4565 N4562 1.350 . S
C4565 C4564 1.434 . S
C4566 C4567 1.369 . S
C4566 C4568 1.419 . S
C4566 H4570 0.930 . S
C4567 C4566 1.369 . S
C4567 C4576 1.429 . S
C4568 C4566 1.419 . S
C4568 C4569 1.363 . S
C4568 H4571 0.929 . S
C4569 C4568 1.363 . S
C4569 C4575 1.428 . S
H4570 C4566 0.930 . S
H4571 C4568 0.929 . S
S4572 N4573 1.613 . S
S4572 N4574 1.610 . S
N4573 S4572 1.613 . S
N4573 C4576 1.350 . S
N4574 S4572 1.610 . S
N4574 C4575 1.351 . S
C4575 C4569 1.428 . S
C4575 N4574 1.351 . S
C4575 C4576 1.434 . S
C4576 C4567 1.429 . S
C4576 N4573 1.350 . S
C4576 C4575 1.434 . S
C4577 C4578 1.369 . S
C4577 C4579 1.419 . S
C4577 H4581 0.930 . S
C4578 C4577 1.369 . S
C4578 C4587 1.429 . S
C4579 C4577 1.419 . S
C4579 C4580 1.363 . S
C4579 H4582 0.929 . S
C4580 C4579 1.363 . S
C4580 C4586 1.428 . S
H4581 C4577 0.930 . S
H4582 C4579 0.929 . S
S4583 N4584 1.613 . S
S4583 N4585 1.610 . S
N4584 S4583 1.613 . S
N4584 C4587 1.350 . S
N4585 S4583 1.610 . S
N4585 C4586 1.351 . S
C4586 C4580 1.428 . S
C4586 N4585 1.351 . S
C4586 C4587 1.434 . S
C4587 C4578 1.429 . S
C4587 N4584 1.350 . S
C4587 C4586 1.434 . S
C4588 C4589 1.369 . S
C4588 C4590 1.419 . S
C4588 H4592 0.930 . S
C4589 C4588 1.369 . S
C4589 C4598 1.429 . S
C4590 C4588 1.419 . S
C4590 C4591 1.363 . S
C4590 H4593 0.929 . S
C4591 C4590 1.363 . S
C4591 C4597 1.428 . S
H4592 C4588 0.930 . S
H4593 C4590 0.929 . S
S4594 N4595 1.613 . S
S4594 N4596 1.610 . S
N4595 S4594 1.613 . S
N4595 C4598 1.350 . S
N4596 S4594 1.610 . S
N4596 C4597 1.351 . S
C4597 C4591 1.428 . S
C4597 N4596 1.351 . S
C4597 C4598 1.434 . S
C4598 C4589 1.429 . S
C4598 N4595 1.350 . S
C4598 C4597 1.434 . S
C4599 C4600 1.369 . S
C4599 C4601 1.419 . S
C4599 H4603 0.930 . S
C4600 C4599 1.369 . S
C4600 C4609 1.429 . S
C4601 C4599 1.419 . S
C4601 C4602 1.363 . S
C4601 H4604 0.929 . S
C4602 C4601 1.363 . S
C4602 C4608 1.428 . S
H4603 C4599 0.930 . S
H4604 C4601 0.929 . S
S4605 N4606 1.613 . S
S4605 N4607 1.610 . S
N4606 S4605 1.613 . S
N4606 C4609 1.350 . S
N4607 S4605 1.610 . S
N4607 C4608 1.351 . S
C4608 C4602 1.428 . S
C4608 N4607 1.351 . S
C4608 C4609 1.434 . S
C4609 C4600 1.429 . S
C4609 N4606 1.350 . S
C4609 C4608 1.434 . S
C4610 C4611 1.369 . S
C4610 C4612 1.419 . S
C4610 H4614 0.930 . S
C4611 C4610 1.369 . S
C4611 C4620 1.429 . S
C4612 C4610 1.419 . S
C4612 C4613 1.363 . S
C4612 H4615 0.929 . S
C4613 C4612 1.363 . S
C4613 C4619 1.428 . S
H4614 C4610 0.930 . S
H4615 C4612 0.929 . S
S4616 N4617 1.613 . S
S4616 N4618 1.610 . S
N4617 S4616 1.613 . S
N4617 C4620 1.350 . S
N4618 S4616 1.610 . S
N4618 C4619 1.351 . S
C4619 C4613 1.428 . S
C4619 N4618 1.351 . S
C4619 C4620 1.434 . S
C4620 C4611 1.429 . S
C4620 N4617 1.350 . S
C4620 C4619 1.434 . S
C4621 C4622 1.369 . S
C4621 C4623 1.419 . S
C4621 H4625 0.930 . S
C4622 C4621 1.369 . S
C4622 C4631 1.429 . S
C4623 C4621 1.419 . S
C4623 C4624 1.363 . S
C4623 H4626 0.929 . S
C4624 C4623 1.363 . S
C4624 C4630 1.428 . S
H4625 C4621 0.930 . S
H4626 C4623 0.929 . S
S4627 N4628 1.613 . S
S4627 N4629 1.610 . S
N4628 S4627 1.613 . S
N4628 C4631 1.350 . S
N4629 S4627 1.610 . S
N4629 C4630 1.351 . S
C4630 C4624 1.428 . S
C4630 N4629 1.351 . S
C4630 C4631 1.434 . S
C4631 C4622 1.429 . S
C4631 N4628 1.350 . S
C4631 C4630 1.434 . S
C4632 C4633 1.369 . S
C4632 C4634 1.419 . S
C4632 H4636 0.930 . S
C4633 C4632 1.369 . S
C4633 C4642 1.429 . S
C4634 C4632 1.419 . S
C4634 C4635 1.363 . S
C4634 H4637 0.929 . S
C4635 C4634 1.363 . S
C4635 C4641 1.428 . S
H4636 C4632 0.930 . S
H4637 C4634 0.929 . S
S4638 N4639 1.613 . S
S4638 N4640 1.610 . S
N4639 S4638 1.613 . S
N4639 C4642 1.350 . S
N4640 S4638 1.610 . S
N4640 C4641 1.351 . S
C4641 C4635 1.428 . S
C4641 N4640 1.351 . S
C4641 C4642 1.434 . S
C4642 C4633 1.429 . S
C4642 N4639 1.350 . S
C4642 C4641 1.434 . S
C4643 C4644 1.369 . S
C4643 C4645 1.419 . S
C4643 H4647 0.930 . S
C4644 C4643 1.369 . S
C4644 C4653 1.429 . S
C4645 C4643 1.419 . S
C4645 C4646 1.363 . S
C4645 H4648 0.929 . S
C4646 C4645 1.363 . S
C4646 C4652 1.428 . S
H4647 C4643 0.930 . S
H4648 C4645 0.929 . S
S4649 N4650 1.613 . S
S4649 N4651 1.610 . S
N4650 S4649 1.613 . S
N4650 C4653 1.350 . S
N4651 S4649 1.610 . S
N4651 C4652 1.351 . S
C4652 C4646 1.428 . S
C4652 N4651 1.351 . S
C4652 C4653 1.434 . S
C4653 C4644 1.429 . S
C4653 N4650 1.350 . S
C4653 C4652 1.434 . S
C4654 C4655 1.369 . S
C4654 C4656 1.419 . S
C4654 H4658 0.930 . S
C4655 C4654 1.369 . S
C4655 C4664 1.429 . S
C4656 C4654 1.419 . S
C4656 C4657 1.363 . S
C4656 H4659 0.929 . S
C4657 C4656 1.363 . S
C4657 C4663 1.428 . S
H4658 C4654 0.930 . S
H4659 C4656 0.929 . S
S4660 N4661 1.613 . S
S4660 N4662 1.610 . S
N4661 S4660 1.613 . S
N4661 C4664 1.350 . S
N4662 S4660 1.610 . S
N4662 C4663 1.351 . S
C4663 C4657 1.428 . S
C4663 N4662 1.351 . S
C4663 C4664 1.434 . S
C4664 C4655 1.429 . S
C4664 N4661 1.350 . S
C4664 C4663 1.434 . S
C4665 C4666 1.369 . S
C4665 C4667 1.419 . S
C4665 H4669 0.930 . S
C4666 C4665 1.369 . S
C4666 C4675 1.429 . S
C4667 C4665 1.419 . S
C4667 C4668 1.363 . S
C4667 H4670 0.929 . S
C4668 C4667 1.363 . S
C4668 C4674 1.428 . S
H4669 C4665 0.930 . S
H4670 C4667 0.929 . S
S4671 N4672 1.613 . S
S4671 N4673 1.610 . S
N4672 S4671 1.613 . S
N4672 C4675 1.350 . S
N4673 S4671 1.610 . S
N4673 C4674 1.351 . S
C4674 C4668 1.428 . S
C4674 N4673 1.351 . S
C4674 C4675 1.434 . S
C4675 C4666 1.429 . S
C4675 N4672 1.350 . S
C4675 C4674 1.434 . S
C4676 C4677 1.369 . S
C4676 C4678 1.419 . S
C4676 H4680 0.930 . S
C4677 C4676 1.369 . S
C4677 C4686 1.429 . S
C4678 C4676 1.419 . S
C4678 C4679 1.363 . S
C4678 H4681 0.929 . S
C4679 C4678 1.363 . S
C4679 C4685 1.428 . S
H4680 C4676 0.930 . S
H4681 C4678 0.929 . S
S4682 N4683 1.613 . S
S4682 N4684 1.610 . S
N4683 S4682 1.613 . S
N4683 C4686 1.350 . S
N4684 S4682 1.610 . S
N4684 C4685 1.351 . S
C4685 C4679 1.428 . S
C4685 N4684 1.351 . S
C4685 C4686 1.434 . S
C4686 C4677 1.429 . S
C4686 N4683 1.350 . S
C4686 C4685 1.434 . S
C4687 C4688 1.369 . S
C4687 C4689 1.419 . S
C4687 H4691 0.930 . S
C4688 C4687 1.369 . S
C4688 C4697 1.429 . S
C4689 C4687 1.419 . S
C4689 C4690 1.363 . S
C4689 H4692 0.929 . S
C4690 C4689 1.363 . S
C4690 C4696 1.428 . S
H4691 C4687 0.930 . S
H4692 C4689 0.929 . S
S4693 N4694 1.613 . S
S4693 N4695 1.610 . S
N4694 S4693 1.613 . S
N4694 C4697 1.350 . S
N4695 S4693 1.610 . S
N4695 C4696 1.351 . S
C4696 C4690 1.428 . S
C4696 N4695 1.351 . S
C4696 C4697 1.434 . S
C4697 C4688 1.429 . S
C4697 N4694 1.350 . S
C4697 C4696 1.434 . S
C4698 C4699 1.369 . S
C4698 C4700 1.419 . S
C4698 H4702 0.930 . S
C4699 C4698 1.369 . S
C4699 C4708 1.429 . S
C4700 C4698 1.419 . S
C4700 C4701 1.363 . S
C4700 H4703 0.929 . S
C4701 C4700 1.363 . S
C4701 C4707 1.428 . S
H4702 C4698 0.930 . S
H4703 C4700 0.929 . S
S4704 N4705 1.613 . S
S4704 N4706 1.610 . S
N4705 S4704 1.613 . S
N4705 C4708 1.350 . S
N4706 S4704 1.610 . S
N4706 C4707 1.351 . S
C4707 C4701 1.428 . S
C4707 N4706 1.351 . S
C4707 C4708 1.434 . S
C4708 C4699 1.429 . S
C4708 N4705 1.350 . S
C4708 C4707 1.434 . S
C4709 C4710 1.369 . S
C4709 C4711 1.419 . S
C4709 H4713 0.930 . S
C4710 C4709 1.369 . S
C4710 C4719 1.429 . S
C4711 C4709 1.419 . S
C4711 C4712 1.363 . S
C4711 H4714 0.929 . S
C4712 C4711 1.363 . S
C4712 C4718 1.428 . S
H4713 C4709 0.930 . S
H4714 C4711 0.929 . S
S4715 N4716 1.613 . S
S4715 N4717 1.610 . S
N4716 S4715 1.613 . S
N4716 C4719 1.350 . S
N4717 S4715 1.610 . S
N4717 C4718 1.351 . S
C4718 C4712 1.428 . S
C4718 N4717 1.351 . S
C4718 C4719 1.434 . S
C4719 C4710 1.429 . S
C4719 N4716 1.350 . S
C4719 C4718 1.434 . S
C4720 C4721 1.369 . S
C4720 C4722 1.419 . S
C4720 H4724 0.930 . S
C4721 C4720 1.369 . S
C4721 C4730 1.429 . S
C4722 C4720 1.419 . S
C4722 C4723 1.363 . S
C4722 H4725 0.929 . S
C4723 C4722 1.363 . S
C4723 C4729 1.428 . S
H4724 C4720 0.930 . S
H4725 C4722 0.929 . S
S4726 N4727 1.613 . S
S4726 N4728 1.610 . S
N4727 S4726 1.613 . S
N4727 C4730 1.350 . S
N4728 S4726 1.610 . S
N4728 C4729 1.351 . S
C4729 C4723 1.428 . S
C4729 N4728 1.351 . S
C4729 C4730 1.434 . S
C4730 C4721 1.429 . S
C4730 N4727 1.350 . S
C4730 C4729 1.434 . S
C4731 C4732 1.369 . S
C4731 C4733 1.419 . S
C4731 H4735 0.930 . S
C4732 C4731 1.369 . S
C4732 C4741 1.429 . S
C4733 C4731 1.419 . S
C4733 C4734 1.363 . S
C4733 H4736 0.929 . S
C4734 C4733 1.363 . S
C4734 C4740 1.428 . S
H4735 C4731 0.930 . S
H4736 C4733 0.929 . S
S4737 N4738 1.613 . S
S4737 N4739 1.610 . S
N4738 S4737 1.613 . S
N4738 C4741 1.350 . S
N4739 S4737 1.610 . S
N4739 C4740 1.351 . S
C4740 C4734 1.428 . S
C4740 N4739 1.351 . S
C4740 C4741 1.434 . S
C4741 C4732 1.429 . S
C4741 N4738 1.350 . S
C4741 C4740 1.434 . S
C4742 C4743 1.369 . S
C4742 C4744 1.419 . S
C4742 H4746 0.930 . S
C4743 C4742 1.369 . S
C4743 C4752 1.429 . S
C4744 C4742 1.419 . S
C4744 C4745 1.363 . S
C4744 H4747 0.929 . S
C4745 C4744 1.363 . S
C4745 C4751 1.428 . S
H4746 C4742 0.930 . S
H4747 C4744 0.929 . S
S4748 N4749 1.613 . S
S4748 N4750 1.610 . S
N4749 S4748 1.613 . S
N4749 C4752 1.350 . S
N4750 S4748 1.610 . S
N4750 C4751 1.351 . S
C4751 C4745 1.428 . S
C4751 N4750 1.351 . S
C4751 C4752 1.434 . S
C4752 C4743 1.429 . S
C4752 N4749 1.350 . S
C4752 C4751 1.434 . S
C4753 C4754 1.369 . S
C4753 C4755 1.419 . S
C4753 H4757 0.930 . S
C4754 C4753 1.369 . S
C4754 C4763 1.429 . S
C4755 C4753 1.419 . S
C4755 C4756 1.363 . S
C4755 H4758 0.929 . S
C4756 C4755 1.363 . S
C4756 C4762 1.428 . S
H4757 C4753 0.930 . S
H4758 C4755 0.929 . S
S4759 N4760 1.613 . S
S4759 N4761 1.610 . S
N4760 S4759 1.613 . S
N4760 C4763 1.350 . S
N4761 S4759 1.610 . S
N4761 C4762 1.351 . S
C4762 C4756 1.428 . S
C4762 N4761 1.351 . S
C4762 C4763 1.434 . S
C4763 C4754 1.429 . S
C4763 N4760 1.350 . S
C4763 C4762 1.434 . S
C4764 C4765 1.369 . S
C4764 C4766 1.419 . S
C4764 H4768 0.930 . S
C4765 C4764 1.369 . S
C4765 C4774 1.429 . S
C4766 C4764 1.419 . S
C4766 C4767 1.363 . S
C4766 H4769 0.929 . S
C4767 C4766 1.363 . S
C4767 C4773 1.428 . S
H4768 C4764 0.930 . S
H4769 C4766 0.929 . S
S4770 N4771 1.613 . S
S4770 N4772 1.610 . S
N4771 S4770 1.613 . S
N4771 C4774 1.350 . S
N4772 S4770 1.610 . S
N4772 C4773 1.351 . S
C4773 C4767 1.428 . S
C4773 N4772 1.351 . S
C4773 C4774 1.434 . S
C4774 C4765 1.429 . S
C4774 N4771 1.350 . S
C4774 C4773 1.434 . S
C4775 C4776 1.369 . S
C4775 C4777 1.419 . S
C4775 H4779 0.930 . S
C4776 C4775 1.369 . S
C4776 C4785 1.429 . S
C4777 C4775 1.419 . S
C4777 C4778 1.363 . S
C4777 H4780 0.929 . S
C4778 C4777 1.363 . S
C4778 C4784 1.428 . S
H4779 C4775 0.930 . S
H4780 C4777 0.929 . S
S4781 N4782 1.613 . S
S4781 N4783 1.610 . S
N4782 S4781 1.613 . S
N4782 C4785 1.350 . S
N4783 S4781 1.610 . S
N4783 C4784 1.351 . S
C4784 C4778 1.428 . S
C4784 N4783 1.351 . S
C4784 C4785 1.434 . S
C4785 C4776 1.429 . S
C4785 N4782 1.350 . S
C4785 C4784 1.434 . S
C4786 C4787 1.369 . S
C4786 C4788 1.419 . S
C4786 H4790 0.930 . S
C4787 C4786 1.369 . S
C4787 C4796 1.429 . S
C4788 C4786 1.419 . S
C4788 C4789 1.363 . S
C4788 H4791 0.929 . S
C4789 C4788 1.363 . S
C4789 C4795 1.428 . S
H4790 C4786 0.930 . S
H4791 C4788 0.929 . S
S4792 N4793 1.613 . S
S4792 N4794 1.610 . S
N4793 S4792 1.613 . S
N4793 C4796 1.350 . S
N4794 S4792 1.610 . S
N4794 C4795 1.351 . S
C4795 C4789 1.428 . S
C4795 N4794 1.351 . S
C4795 C4796 1.434 . S
C4796 C4787 1.429 . S
C4796 N4793 1.350 . S
C4796 C4795 1.434 . S
C4797 C4798 1.369 . S
C4797 C4799 1.419 . S
C4797 H4801 0.930 . S
C4798 C4797 1.369 . S
C4798 C4807 1.429 . S
C4799 C4797 1.419 . S
C4799 C4800 1.363 . S
C4799 H4802 0.929 . S
C4800 C4799 1.363 . S
C4800 C4806 1.428 . S
H4801 C4797 0.930 . S
H4802 C4799 0.929 . S
S4803 N4804 1.613 . S
S4803 N4805 1.610 . S
N4804 S4803 1.613 . S
N4804 C4807 1.350 . S
N4805 S4803 1.610 . S
N4805 C4806 1.351 . S
C4806 C4800 1.428 . S
C4806 N4805 1.351 . S
C4806 C4807 1.434 . S
C4807 C4798 1.429 . S
C4807 N4804 1.350 . S
C4807 C4806 1.434 . S
C4808 C4809 1.369 . S
C4808 C4810 1.419 . S
C4808 H4812 0.930 . S
C4809 C4808 1.369 . S
C4809 C4818 1.429 . S
C4810 C4808 1.419 . S
C4810 C4811 1.363 . S
C4810 H4813 0.929 . S
C4811 C4810 1.363 . S
C4811 C4817 1.428 . S
H4812 C4808 0.930 . S
H4813 C4810 0.929 . S
S4814 N4815 1.613 . S
S4814 N4816 1.610 . S
N4815 S4814 1.613 . S
N4815 C4818 1.350 . S
N4816 S4814 1.610 . S
N4816 C4817 1.351 . S
C4817 C4811 1.428 . S
C4817 N4816 1.351 . S
C4817 C4818 1.434 . S
C4818 C4809 1.429 . S
C4818 N4815 1.350 . S
C4818 C4817 1.434 . S
C4819 C4820 1.369 . S
C4819 C4821 1.419 . S
C4819 H4823 0.930 . S
C4820 C4819 1.369 . S
C4820 C4829 1.429 . S
C4821 C4819 1.419 . S
C4821 C4822 1.363 . S
C4821 H4824 0.929 . S
C4822 C4821 1.363 . S
C4822 C4828 1.428 . S
H4823 C4819 0.930 . S
H4824 C4821 0.929 . S
S4825 N4826 1.613 . S
S4825 N4827 1.610 . S
N4826 S4825 1.613 . S
N4826 C4829 1.350 . S
N4827 S4825 1.610 . S
N4827 C4828 1.351 . S
C4828 C4822 1.428 . S
C4828 N4827 1.351 . S
C4828 C4829 1.434 . S
C4829 C4820 1.429 . S
C4829 N4826 1.350 . S
C4829 C4828 1.434 . S
C4830 C4831 1.369 . S
C4830 C4832 1.419 . S
C4830 H4834 0.930 . S
C4831 C4830 1.369 . S
C4831 C4840 1.429 . S
C4832 C4830 1.419 . S
C4832 C4833 1.363 . S
C4832 H4835 0.929 . S
C4833 C4832 1.363 . S
C4833 C4839 1.428 . S
H4834 C4830 0.930 . S
H4835 C4832 0.929 . S
S4836 N4837 1.613 . S
S4836 N4838 1.610 . S
N4837 S4836 1.613 . S
N4837 C4840 1.350 . S
N4838 S4836 1.610 . S
N4838 C4839 1.351 . S
C4839 C4833 1.428 . S
C4839 N4838 1.351 . S
C4839 C4840 1.434 . S
C4840 C4831 1.429 . S
C4840 N4837 1.350 . S
C4840 C4839 1.434 . S
C4841 C4842 1.369 . S
C4841 C4843 1.419 . S
C4841 H4845 0.930 . S
C4842 C4841 1.369 . S
C4842 C4851 1.429 . S
C4843 C4841 1.419 . S
C4843 C4844 1.363 . S
C4843 H4846 0.929 . S
C4844 C4843 1.363 . S
C4844 C4850 1.428 . S
H4845 C4841 0.930 . S
H4846 C4843 0.929 . S
S4847 N4848 1.613 . S
S4847 N4849 1.610 . S
N4848 S4847 1.613 . S
N4848 C4851 1.350 . S
N4849 S4847 1.610 . S
N4849 C4850 1.351 . S
C4850 C4844 1.428 . S
C4850 N4849 1.351 . S
C4850 C4851 1.434 . S
C4851 C4842 1.429 . S
C4851 N4848 1.350 . S
C4851 C4850 1.434 . S
C4852 C4853 1.369 . S
C4852 C4854 1.419 . S
C4852 H4856 0.930 . S
C4853 C4852 1.369 . S
C4853 C4862 1.429 . S
C4854 C4852 1.419 . S
C4854 C4855 1.363 . S
C4854 H4857 0.929 . S
C4855 C4854 1.363 . S
C4855 C4861 1.428 . S
H4856 C4852 0.930 . S
H4857 C4854 0.929 . S
S4858 N4859 1.613 . S
S4858 N4860 1.610 . S
N4859 S4858 1.613 . S
N4859 C4862 1.350 . S
N4860 S4858 1.610 . S
N4860 C4861 1.351 . S
C4861 C4855 1.428 . S
C4861 N4860 1.351 . S
C4861 C4862 1.434 . S
C4862 C4853 1.429 . S
C4862 N4859 1.350 . S
C4862 C4861 1.434 . S
C4863 C4864 1.369 . S
C4863 C4865 1.419 . S
C4863 H4867 0.930 . S
C4864 C4863 1.369 . S
C4864 C4873 1.429 . S
C4865 C4863 1.419 . S
C4865 C4866 1.363 . S
C4865 H4868 0.929 . S
C4866 C4865 1.363 . S
C4866 C4872 1.428 . S
H4867 C4863 0.930 . S
H4868 C4865 0.929 . S
S4869 N4870 1.613 . S
S4869 N4871 1.610 . S
N4870 S4869 1.613 . S
N4870 C4873 1.350 . S
N4871 S4869 1.610 . S
N4871 C4872 1.351 . S
C4872 C4866 1.428 . S
C4872 N4871 1.351 . S
C4872 C4873 1.434 . S
C4873 C4864 1.429 . S
C4873 N4870 1.350 . S
C4873 C4872 1.434 . S
C4874 C4875 1.369 . S
C4874 C4876 1.419 . S
C4874 H4878 0.930 . S
C4875 C4874 1.369 . S
C4875 C4884 1.429 . S
C4876 C4874 1.419 . S
C4876 C4877 1.363 . S
C4876 H4879 0.929 . S
C4877 C4876 1.363 . S
C4877 C4883 1.428 . S
H4878 C4874 0.930 . S
H4879 C4876 0.929 . S
S4880 N4881 1.613 . S
S4880 N4882 1.610 . S
N4881 S4880 1.613 . S
N4881 C4884 1.350 . S
N4882 S4880 1.610 . S
N4882 C4883 1.351 . S
C4883 C4877 1.428 . S
C4883 N4882 1.351 . S
C4883 C4884 1.434 . S
C4884 C4875 1.429 . S
C4884 N4881 1.350 . S
C4884 C4883 1.434 . S
C4885 C4886 1.369 . S
C4885 C4887 1.419 . S
C4885 H4889 0.930 . S
C4886 C4885 1.369 . S
C4886 C4895 1.429 . S
C4887 C4885 1.419 . S
C4887 C4888 1.363 . S
C4887 H4890 0.929 . S
C4888 C4887 1.363 . S
C4888 C4894 1.428 . S
H4889 C4885 0.930 . S
H4890 C4887 0.929 . S
S4891 N4892 1.613 . S
S4891 N4893 1.610 . S
N4892 S4891 1.613 . S
N4892 C4895 1.350 . S
N4893 S4891 1.610 . S
N4893 C4894 1.351 . S
C4894 C4888 1.428 . S
C4894 N4893 1.351 . S
C4894 C4895 1.434 . S
C4895 C4886 1.429 . S
C4895 N4892 1.350 . S
C4895 C4894 1.434 . S
C4896 C4897 1.369 . S
C4896 C4898 1.419 1_655 S
C4896 H4900 0.930 . S
C4897 C4896 1.369 . S
C4897 C4906 1.429 . S
C4898 C4896 1.419 1_455 S
C4898 C4899 1.363 . S
C4898 H4901 0.929 . S
C4899 C4898 1.363 . S
C4899 C4905 1.428 . S
H4900 C4896 0.930 . S
H4901 C4898 0.929 . S
S4902 N4903 1.624 1_455 S
S4902 N4904 1.599 . S
N4903 S4902 1.624 1_655 S
N4903 C4906 1.350 . S
N4904 S4902 1.599 . S
N4904 C4905 1.351 . S
C4905 C4899 1.428 . S
C4905 N4904 1.351 . S
C4905 C4906 1.434 1_455 S
C4906 C4897 1.429 . S
C4906 N4903 1.350 . S
C4906 C4905 1.434 1_655 S
C4907 C4908 1.369 . S
C4907 C4909 1.419 1_565 S
C4907 H4911 0.930 . S
C4908 C4907 1.369 . S
C4908 C4917 1.429 . S
C4909 C4907 1.419 1_545 S
C4909 C4910 1.363 . S
C4909 H4912 0.929 . S
C4910 C4909 1.363 . S
C4910 C4916 1.428 . S
H4911 C4907 0.930 . S
H4912 C4909 0.929 . S
S4913 N4914 1.624 1_545 S
S4913 N4915 1.599 . S
N4914 S4913 1.624 1_565 S
N4914 C4917 1.350 . S
N4915 S4913 1.599 . S
N4915 C4916 1.351 . S
C4916 C4910 1.428 . S
C4916 N4915 1.351 . S
C4916 C4917 1.434 1_545 S
C4917 C4908 1.429 . S
C4917 N4914 1.350 . S
C4917 C4916 1.434 1_565 S
C4918 C4919 1.369 . S
C4918 C4920 1.419 1_455 S
C4918 H4922 0.930 . S
C4919 C4918 1.369 . S
C4919 C4928 1.429 . S
C4920 C4918 1.419 1_655 S
C4920 C4921 1.363 . S
C4920 H4923 0.929 . S
C4921 C4920 1.363 . S
C4921 C4927 1.428 . S
H4922 C4918 0.930 . S
H4923 C4920 0.929 . S
S4924 N4925 1.624 1_655 S
S4924 N4926 1.599 . S
N4925 S4924 1.624 1_455 S
N4925 C4928 1.350 . S
N4926 S4924 1.599 . S
N4926 C4927 1.351 . S
C4927 C4921 1.428 . S
C4927 N4926 1.351 . S
C4927 C4928 1.434 1_655 S
C4928 C4919 1.429 . S
C4928 N4925 1.350 . S
C4928 C4927 1.434 1_455 S
C4929 C4930 1.369 . S
C4929 C4931 1.419 1_545 S
C4929 H4933 0.930 . S
C4930 C4929 1.369 . S
C4930 C4939 1.429 . S
C4931 C4929 1.419 1_565 S
C4931 C4932 1.363 . S
C4931 H4934 0.929 . S
C4932 C4931 1.363 . S
C4932 C4938 1.428 . S
H4933 C4929 0.930 . S
H4934 C4931 0.929 . S
S4935 N4936 1.624 1_565 S
S4935 N4937 1.599 . S
N4936 S4935 1.624 1_545 S
N4936 C4939 1.350 . S
N4937 S4935 1.599 . S
N4937 C4938 1.351 . S
C4938 C4932 1.428 . S
C4938 N4937 1.351 . S
C4938 C4939 1.434 1_565 S
C4939 C4930 1.429 . S
C4939 N4936 1.350 . S
C4939 C4938 1.434 1_545 S
C4940 C4941 1.369 . S
C4940 C4942 1.419 1_655 S
C4940 H4944 0.930 . S
C4941 C4940 1.369 . S
C4941 C4950 1.429 . S
C4942 C4940 1.419 1_455 S
C4942 C4943 1.363 . S
C4942 H4945 0.929 . S
C4943 C4942 1.363 . S
C4943 C4949 1.428 . S
H4944 C4940 0.930 . S
H4945 C4942 0.929 . S
S4946 N4947 1.624 1_455 S
S4946 N4948 1.599 . S
N4947 S4946 1.624 1_655 S
N4947 C4950 1.350 . S
N4948 S4946 1.599 . S
N4948 C4949 1.351 . S
C4949 C4943 1.428 . S
C4949 N4948 1.351 . S
C4949 C4950 1.434 1_455 S
C4950 C4941 1.429 . S
C4950 N4947 1.350 . S
C4950 C4949 1.434 1_655 S
C4951 C4952 1.369 . S
C4951 C4953 1.419 1_545 S
C4951 H4955 0.930 . S
C4952 C4951 1.369 . S
C4952 C4961 1.429 . S
C4953 C4951 1.419 1_565 S
C4953 C4954 1.363 . S
C4953 H4956 0.929 . S
C4954 C4953 1.363 . S
C4954 C4960 1.428 . S
H4955 C4951 0.930 . S
H4956 C4953 0.929 . S
S4957 N4958 1.624 1_565 S
S4957 N4959 1.599 . S
N4958 S4957 1.624 1_545 S
N4958 C4961 1.350 . S
N4959 S4957 1.599 . S
N4959 C4960 1.351 . S
C4960 C4954 1.428 . S
C4960 N4959 1.351 . S
C4960 C4961 1.434 1_565 S
C4961 C4952 1.429 . S
C4961 N4958 1.350 . S
C4961 C4960 1.434 1_545 S
C4962 C4963 1.369 . S
C4962 C4964 1.419 1_655 S
C4962 H4966 0.930 . S
C4963 C4962 1.369 . S
C4963 C4972 1.429 . S
C4964 C4962 1.419 1_455 S
C4964 C4965 1.363 . S
C4964 H4967 0.929 . S
C4965 C4964 1.363 . S
C4965 C4971 1.428 . S
H4966 C4962 0.930 . S
H4967 C4964 0.929 . S
S4968 N4969 1.624 1_455 S
S4968 N4970 1.599 . S
N4969 S4968 1.624 1_655 S
N4969 C4972 1.350 . S
N4970 S4968 1.599 . S
N4970 C4971 1.351 . S
C4971 C4965 1.428 . S
C4971 N4970 1.351 . S
C4971 C4972 1.434 1_455 S
C4972 C4963 1.429 . S
C4972 N4969 1.350 . S
C4972 C4971 1.434 1_655 S
C4973 C4974 1.369 . S
C4973 C4975 1.419 1_545 S
C4973 H4977 0.930 . S
C4974 C4973 1.369 . S
C4974 C4983 1.429 . S
C4975 C4973 1.419 1_565 S
C4975 C4976 1.363 . S
C4975 H4978 0.929 . S
C4976 C4975 1.363 . S
C4976 C4982 1.428 . S
H4977 C4973 0.930 . S
H4978 C4975 0.929 . S
S4979 N4980 1.624 1_565 S
S4979 N4981 1.599 . S
N4980 S4979 1.624 1_545 S
N4980 C4983 1.350 . S
N4981 S4979 1.599 . S
N4981 C4982 1.351 . S
C4982 C4976 1.428 . S
C4982 N4981 1.351 . S
C4982 C4983 1.434 1_565 S
C4983 C4974 1.429 . S
C4983 N4980 1.350 . S
C4983 C4982 1.434 1_545 S
C4984 C4985 1.369 . S
C4984 C4986 1.419 1_565 S
C4984 H4988 0.930 . S
C4985 C4984 1.369 . S
C4985 C4994 1.429 . S
C4986 C4984 1.419 1_545 S
C4986 C4987 1.363 . S
C4986 H4989 0.929 . S
C4987 C4986 1.363 . S
C4987 C4993 1.428 . S
H4988 C4984 0.930 . S
H4989 C4986 0.929 . S
S4990 N4991 1.624 1_545 S
S4990 N4992 1.599 . S
N4991 S4990 1.624 1_565 S
N4991 C4994 1.350 . S
N4992 S4990 1.599 . S
N4992 C4993 1.351 . S
C4993 C4987 1.428 . S
C4993 N4992 1.351 . S
C4993 C4994 1.434 1_545 S
C4994 C4985 1.429 . S
C4994 N4991 1.350 . S
C4994 C4993 1.434 1_565 S
C4995 C4996 1.369 . S
C4995 C4997 1.419 1_655 S
C4995 H4999 0.930 . S
C4996 C4995 1.369 . S
C4996 C5005 1.429 . S
C4997 C4995 1.419 1_455 S
C4997 C4998 1.363 . S
C4997 H5000 0.929 . S
C4998 C4997 1.363 . S
C4998 C5004 1.428 . S
H4999 C4995 0.930 . S
H5000 C4997 0.929 . S
S5001 N5002 1.624 1_455 S
S5001 N5003 1.599 . S
N5002 S5001 1.624 1_655 S
N5002 C5005 1.350 . S
N5003 S5001 1.599 . S
N5003 C5004 1.351 . S
C5004 C4998 1.428 . S
C5004 N5003 1.351 . S
C5004 C5005 1.434 1_455 S
C5005 C4996 1.429 . S
C5005 N5002 1.350 . S
C5005 C5004 1.434 1_655 S
C5006 C5007 1.369 . S
C5006 C5008 1.419 1_565 S
C5006 H5010 0.930 . S
C5007 C5006 1.369 . S
C5007 C5016 1.429 . S
C5008 C5006 1.419 1_545 S
C5008 C5009 1.363 . S
C5008 H5011 0.929 . S
C5009 C5008 1.363 . S
C5009 C5015 1.428 . S
H5010 C5006 0.930 . S
H5011 C5008 0.929 . S
S5012 N5013 1.624 1_545 S
S5012 N5014 1.599 . S
N5013 S5012 1.624 1_565 S
N5013 C5016 1.350 . S
N5014 S5012 1.599 . S
N5014 C5015 1.351 . S
C5015 C5009 1.428 . S
C5015 N5014 1.351 . S
C5015 C5016 1.434 1_545 S
C5016 C5007 1.429 . S
C5016 N5013 1.350 . S
C5016 C5015 1.434 1_565 S
C5017 C5018 1.369 . S
C5017 C5019 1.419 1_655 S
C5017 H5021 0.930 . S
C5018 C5017 1.369 . S
C5018 C5027 1.429 . S
C5019 C5017 1.419 1_455 S
C5019 C5020 1.363 . S
C5019 H5022 0.929 . S
C5020 C5019 1.363 . S
C5020 C5026 1.428 . S
H5021 C5017 0.930 . S
H5022 C5019 0.929 . S
S5023 N5024 1.624 1_455 S
S5023 N5025 1.599 . S
N5024 S5023 1.624 1_655 S
N5024 C5027 1.350 . S
N5025 S5023 1.599 . S
N5025 C5026 1.351 . S
C5026 C5020 1.428 . S
C5026 N5025 1.351 . S
C5026 C5027 1.434 1_455 S
C5027 C5018 1.429 . S
C5027 N5024 1.350 . S
C5027 C5026 1.434 1_655 S
C5028 C5029 1.369 . S
C5028 C5030 1.419 1_565 S
C5028 H5032 0.930 . S
C5029 C5028 1.369 . S
C5029 C5038 1.429 . S
C5030 C5028 1.419 1_545 S
C5030 C5031 1.363 . S
C5030 H5033 0.929 . S
C5031 C5030 1.363 . S
C5031 C5037 1.428 . S
H5032 C5028 0.930 . S
H5033 C5030 0.929 . S
S5034 N5035 1.624 1_545 S
S5034 N5036 1.599 . S
N5035 S5034 1.624 1_565 S
N5035 C5038 1.350 . S
N5036 S5034 1.599 . S
N5036 C5037 1.351 . S
C5037 C5031 1.428 . S
C5037 N5036 1.351 . S
C5037 C5038 1.434 1_545 S
C5038 C5029 1.429 . S
C5038 N5035 1.350 . S
C5038 C5037 1.434 1_565 S
C5039 C5040 1.369 . S
C5039 C5041 1.419 1_455 S
C5039 H5043 0.930 . S
C5040 C5039 1.369 . S
C5040 C5049 1.429 . S
C5041 C5039 1.419 1_655 S
C5041 C5042 1.363 . S
C5041 H5044 0.929 . S
C5042 C5041 1.363 . S
C5042 C5048 1.428 . S
H5043 C5039 0.930 . S
H5044 C5041 0.929 . S
S5045 N5046 1.624 1_655 S
S5045 N5047 1.599 . S
N5046 S5045 1.624 1_455 S
N5046 C5049 1.350 . S
N5047 S5045 1.599 . S
N5047 C5048 1.351 . S
C5048 C5042 1.428 . S
C5048 N5047 1.351 . S
C5048 C5049 1.434 1_655 S
C5049 C5040 1.429 . S
C5049 N5046 1.350 . S
C5049 C5048 1.434 1_455 S
C5050 C5051 1.369 . S
C5050 C5052 1.419 1_545 S
C5050 H5054 0.930 . S
C5051 C5050 1.369 . S
C5051 C5060 1.429 . S
C5052 C5050 1.419 1_565 S
C5052 C5053 1.363 . S
C5052 H5055 0.929 . S
C5053 C5052 1.363 . S
C5053 C5059 1.428 . S
H5054 C5050 0.930 . S
H5055 C5052 0.929 . S
S5056 N5057 1.624 1_565 S
S5056 N5058 1.599 . S
N5057 S5056 1.624 1_545 S
N5057 C5060 1.350 . S
N5058 S5056 1.599 . S
N5058 C5059 1.351 . S
C5059 C5053 1.428 . S
C5059 N5058 1.351 . S
C5059 C5060 1.434 1_565 S
C5060 C5051 1.429 . S
C5060 N5057 1.350 . S
C5060 C5059 1.434 1_545 S
C5061 C5062 1.369 . S
C5061 C5063 1.419 1_455 S
C5061 H5065 0.930 . S
C5062 C5061 1.369 . S
C5062 C5071 1.429 . S
C5063 C5061 1.419 1_655 S
C5063 C5064 1.363 . S
C5063 H5066 0.929 . S
C5064 C5063 1.363 . S
C5064 C5070 1.428 . S
H5065 C5061 0.930 . S
H5066 C5063 0.929 . S
S5067 N5068 1.624 1_655 S
S5067 N5069 1.599 . S
N5068 S5067 1.624 1_455 S
N5068 C5071 1.350 . S
N5069 S5067 1.599 . S
N5069 C5070 1.351 . S
C5070 C5064 1.428 . S
C5070 N5069 1.351 . S
C5070 C5071 1.434 1_655 S
C5071 C5062 1.429 . S
C5071 N5068 1.350 . S
C5071 C5070 1.434 1_455 S
C5072 C5073 1.369 . S
C5072 C5074 1.419 1_556 S
C5072 H5076 0.930 . S
C5073 C5072 1.369 . S
C5073 C5082 1.429 . S
C5074 C5072 1.419 1_554 S
C5074 C5075 1.363 . S
C5074 H5077 0.929 . S
C5075 C5074 1.363 . S
C5075 C5081 1.428 . S
H5076 C5072 0.930 . S
H5077 C5074 0.929 . S
S5078 N5079 1.624 1_554 S
S5078 N5080 1.599 . S
N5079 S5078 1.624 1_556 S
N5079 C5082 1.350 . S
N5080 S5078 1.599 . S
N5080 C5081 1.351 . S
C5081 C5075 1.428 . S
C5081 N5080 1.351 . S
C5081 C5082 1.434 1_554 S
C5082 C5073 1.429 . S
C5082 N5079 1.350 . S
C5082 C5081 1.434 1_556 S
C5083 C5084 1.369 . S
C5083 C5085 1.419 1_554 S
C5083 H5087 0.930 . S
C5084 C5083 1.369 . S
C5084 C5093 1.429 . S
C5085 C5083 1.419 1_556 S
C5085 C5086 1.363 . S
C5085 H5088 0.929 . S
C5086 C5085 1.363 . S
C5086 C5092 1.428 . S
H5087 C5083 0.930 . S
H5088 C5085 0.929 . S
S5089 N5090 1.624 1_556 S
S5089 N5091 1.599 . S
N5090 S5089 1.624 1_554 S
N5090 C5093 1.350 . S
N5091 S5089 1.599 . S
N5091 C5092 1.351 . S
C5092 C5086 1.428 . S
C5092 N5091 1.351 . S
C5092 C5093 1.434 1_556 S
C5093 C5084 1.429 . S
C5093 N5090 1.350 . S
C5093 C5092 1.434 1_554 S
C5094 C5095 1.369 . S
C5094 C5096 1.419 1_554 S
C5094 H5098 0.930 . S
C5095 C5094 1.369 . S
C5095 C5104 1.429 . S
C5096 C5094 1.419 1_556 S
C5096 C5097 1.363 . S
C5096 H5099 0.929 . S
C5097 C5096 1.363 . S
C5097 C5103 1.428 . S
H5098 C5094 0.930 . S
H5099 C5096 0.929 . S
S5100 N5101 1.624 1_556 S
S5100 N5102 1.599 . S
N5101 S5100 1.624 1_554 S
N5101 C5104 1.350 . S
N5102 S5100 1.599 . S
N5102 C5103 1.351 . S
C5103 C5097 1.428 . S
C5103 N5102 1.351 . S
C5103 C5104 1.434 1_556 S
C5104 C5095 1.429 . S
C5104 N5101 1.350 . S
C5104 C5103 1.434 1_554 S
C5105 C5106 1.369 . S
C5105 C5107 1.419 1_554 S
C5105 H5109 0.930 . S
C5106 C5105 1.369 . S
C5106 C5115 1.429 . S
C5107 C5105 1.419 1_556 S
C5107 C5108 1.363 . S
C5107 H5110 0.929 . S
C5108 C5107 1.363 . S
C5108 C5114 1.428 . S
H5109 C5105 0.930 . S
H5110 C5107 0.929 . S
S5111 N5112 1.624 1_556 S
S5111 N5113 1.599 . S
N5112 S5111 1.624 1_554 S
N5112 C5115 1.350 . S
N5113 S5111 1.599 . S
N5113 C5114 1.351 . S
C5114 C5108 1.428 . S
C5114 N5113 1.351 . S
C5114 C5115 1.434 1_556 S
C5115 C5106 1.429 . S
C5115 N5112 1.350 . S
C5115 C5114 1.434 1_554 S
C5116 C5117 1.369 . S
C5116 C5118 1.419 1_556 S
C5116 H5120 0.930 . S
C5117 C5116 1.369 . S
C5117 C5126 1.429 . S
C5118 C5116 1.419 1_554 S
C5118 C5119 1.363 . S
C5118 H5121 0.929 . S
C5119 C5118 1.363 . S
C5119 C5125 1.428 . S
H5120 C5116 0.930 . S
H5121 C5118 0.929 . S
S5122 N5123 1.624 1_554 S
S5122 N5124 1.599 . S
N5123 S5122 1.624 1_556 S
N5123 C5126 1.350 . S
N5124 S5122 1.599 . S
N5124 C5125 1.351 . S
C5125 C5119 1.428 . S
C5125 N5124 1.351 . S
C5125 C5126 1.434 1_554 S
C5126 C5117 1.429 . S
C5126 N5123 1.350 . S
C5126 C5125 1.434 1_556 S
C5127 C5128 1.369 . S
C5127 C5129 1.419 1_556 S
C5127 H5131 0.930 . S
C5128 C5127 1.369 . S
C5128 C5137 1.429 . S
C5129 C5127 1.419 1_554 S
C5129 C5130 1.363 . S
C5129 H5132 0.929 . S
C5130 C5129 1.363 . S
C5130 C5136 1.428 . S
H5131 C5127 0.930 . S
H5132 C5129 0.929 . S
S5133 N5134 1.624 1_554 S
S5133 N5135 1.599 . S
N5134 S5133 1.624 1_556 S
N5134 C5137 1.350 . S
N5135 S5133 1.599 . S
N5135 C5136 1.351 . S
C5136 C5130 1.428 . S
C5136 N5135 1.351 . S
C5136 C5137 1.434 1_554 S
C5137 C5128 1.429 . S
C5137 N5134 1.350 . S
C5137 C5136 1.434 1_556 S
C5138 C5139 1.369 . S
C5138 C5140 1.419 1_556 S
C5138 H5142 0.930 . S
C5139 C5138 1.369 . S
C5139 C5148 1.429 . S
C5140 C5138 1.419 1_554 S
C5140 C5141 1.363 . S
C5140 H5143 0.929 . S
C5141 C5140 1.363 . S
C5141 C5147 1.428 . S
H5142 C5138 0.930 . S
H5143 C5140 0.929 . S
S5144 N5145 1.624 1_554 S
S5144 N5146 1.599 . S
N5145 S5144 1.624 1_556 S
N5145 C5148 1.350 . S
N5146 S5144 1.599 . S
N5146 C5147 1.351 . S
C5147 C5141 1.428 . S
C5147 N5146 1.351 . S
C5147 C5148 1.434 1_554 S
C5148 C5139 1.429 . S
C5148 N5145 1.350 . S
C5148 C5147 1.434 1_556 S
C5149 C5150 1.369 . S
C5149 C5151 1.419 1_556 S
C5149 H5153 0.930 . S
C5150 C5149 1.369 . S
C5150 C5159 1.429 . S
C5151 C5149 1.419 1_554 S
C5151 C5152 1.363 . S
C5151 H5154 0.929 . S
C5152 C5151 1.363 . S
C5152 C5158 1.428 . S
H5153 C5149 0.930 . S
H5154 C5151 0.929 . S
S5155 N5156 1.624 1_554 S
S5155 N5157 1.599 . S
N5156 S5155 1.624 1_556 S
N5156 C5159 1.350 . S
N5157 S5155 1.599 . S
N5157 C5158 1.351 . S
C5158 C5152 1.428 . S
C5158 N5157 1.351 . S
C5158 C5159 1.434 1_554 S
C5159 C5150 1.429 . S
C5159 N5156 1.350 . S
C5159 C5158 1.434 1_556 S
C5160 C5161 1.369 . S
C5160 C5162 1.419 . S
C5160 H5164 0.930 . S
C5161 C5160 1.369 . S
C5161 C5170 1.429 . S
C5162 C5160 1.419 . S
C5162 C5163 1.363 . S
C5162 H5165 0.929 . S
C5163 C5162 1.363 . S
C5163 C5169 1.428 . S
H5164 C5160 0.930 . S
H5165 C5162 0.929 . S
S5166 N5167 1.613 . S
S5166 N5168 1.610 . S
N5167 S5166 1.613 . S
N5167 C5170 1.350 . S
N5168 S5166 1.610 . S
N5168 C5169 1.351 . S
C5169 C5163 1.428 . S
C5169 N5168 1.351 . S
C5169 C5170 1.434 . S
C5170 C5161 1.429 . S
C5170 N5167 1.350 . S
C5170 C5169 1.434 . S
C5171 C5172 1.369 . S
C5171 C5173 1.419 . S
C5171 H5175 0.930 . S
C5172 C5171 1.369 . S
C5172 C5181 1.429 . S
C5173 C5171 1.419 . S
C5173 C5174 1.363 . S
C5173 H5176 0.929 . S
C5174 C5173 1.363 . S
C5174 C5180 1.428 . S
H5175 C5171 0.930 . S
H5176 C5173 0.929 . S
S5177 N5178 1.613 . S
S5177 N5179 1.610 . S
N5178 S5177 1.613 . S
N5178 C5181 1.350 . S
N5179 S5177 1.610 . S
N5179 C5180 1.351 . S
C5180 C5174 1.428 . S
C5180 N5179 1.351 . S
C5180 C5181 1.434 . S
C5181 C5172 1.429 . S
C5181 N5178 1.350 . S
C5181 C5180 1.434 . S
C5182 C5183 1.369 . S
C5182 C5184 1.419 . S
C5182 H5186 0.930 . S
C5183 C5182 1.369 . S
C5183 C5192 1.429 . S
C5184 C5182 1.419 . S
C5184 C5185 1.363 . S
C5184 H5187 0.929 . S
C5185 C5184 1.363 . S
C5185 C5191 1.428 . S
H5186 C5182 0.930 . S
H5187 C5184 0.929 . S
S5188 N5189 1.613 . S
S5188 N5190 1.610 . S
N5189 S5188 1.613 . S
N5189 C5192 1.350 . S
N5190 S5188 1.610 . S
N5190 C5191 1.351 . S
C5191 C5185 1.428 . S
C5191 N5190 1.351 . S
C5191 C5192 1.434 . S
C5192 C5183 1.429 . S
C5192 N5189 1.350 . S
C5192 C5191 1.434 . S
C5193 C5194 1.369 . S
C5193 C5195 1.419 . S
C5193 H5197 0.930 . S
C5194 C5193 1.369 . S
C5194 C5203 1.429 . S
C5195 C5193 1.419 . S
C5195 C5196 1.363 . S
C5195 H5198 0.929 . S
C5196 C5195 1.363 . S
C5196 C5202 1.428 . S
H5197 C5193 0.930 . S
H5198 C5195 0.929 . S
S5199 N5200 1.613 . S
S5199 N5201 1.610 . S
N5200 S5199 1.613 . S
N5200 C5203 1.350 . S
N5201 S5199 1.610 . S
N5201 C5202 1.351 . S
C5202 C5196 1.428 . S
C5202 N5201 1.351 . S
C5202 C5203 1.434 . S
C5203 C5194 1.429 . S
C5203 N5200 1.350 . S
C5203 C5202 1.434 . S
C5204 C5205 1.369 . S
C5204 C5206 1.419 . S
C5204 H5208 0.930 . S
C5205 C5204 1.369 . S
C5205 C5214 1.429 . S
C5206 C5204 1.419 . S
C5206 C5207 1.363 . S
C5206 H5209 0.929 . S
C5207 C5206 1.363 . S
C5207 C5213 1.428 . S
H5208 C5204 0.930 . S
H5209 C5206 0.929 . S
S5210 N5211 1.613 . S
S5210 N5212 1.610 . S
N5211 S5210 1.613 . S
N5211 C5214 1.350 . S
N5212 S5210 1.610 . S
N5212 C5213 1.351 . S
C5213 C5207 1.428 . S
C5213 N5212 1.351 . S
C5213 C5214 1.434 . S
C5214 C5205 1.429 . S
C5214 N5211 1.350 . S
C5214 C5213 1.434 . S
C5215 C5216 1.369 . S
C5215 C5217 1.419 . S
C5215 H5219 0.930 . S
C5216 C5215 1.369 . S
C5216 C5225 1.429 . S
C5217 C5215 1.419 . S
C5217 C5218 1.363 . S
C5217 H5220 0.929 . S
C5218 C5217 1.363 . S
C5218 C5224 1.428 . S
H5219 C5215 0.930 . S
H5220 C5217 0.929 . S
S5221 N5222 1.613 . S
S5221 N5223 1.610 . S
N5222 S5221 1.613 . S
N5222 C5225 1.350 . S
N5223 S5221 1.610 . S
N5223 C5224 1.351 . S
C5224 C5218 1.428 . S
C5224 N5223 1.351 . S
C5224 C5225 1.434 . S
C5225 C5216 1.429 . S
C5225 N5222 1.350 . S
C5225 C5224 1.434 . S
C5226 C5227 1.369 . S
C5226 C5228 1.419 . S
C5226 H5230 0.930 . S
C5227 C5226 1.369 . S
C5227 C5236 1.429 . S
C5228 C5226 1.419 . S
C5228 C5229 1.363 . S
C5228 H5231 0.929 . S
C5229 C5228 1.363 . S
C5229 C5235 1.428 . S
H5230 C5226 0.930 . S
H5231 C5228 0.929 . S
S5232 N5233 1.613 . S
S5232 N5234 1.610 . S
N5233 S5232 1.613 . S
N5233 C5236 1.350 . S
N5234 S5232 1.610 . S
N5234 C5235 1.351 . S
C5235 C5229 1.428 . S
C5235 N5234 1.351 . S
C5235 C5236 1.434 . S
C5236 C5227 1.429 . S
C5236 N5233 1.350 . S
C5236 C5235 1.434 . S
C5237 C5238 1.369 . S
C5237 C5239 1.419 . S
C5237 H5241 0.930 . S
C5238 C5237 1.369 . S
C5238 C5247 1.429 . S
C5239 C5237 1.419 . S
C5239 C5240 1.363 . S
C5239 H5242 0.929 . S
C5240 C5239 1.363 . S
C5240 C5246 1.428 . S
H5241 C5237 0.930 . S
H5242 C5239 0.929 . S
S5243 N5244 1.613 . S
S5243 N5245 1.610 . S
N5244 S5243 1.613 . S
N5244 C5247 1.350 . S
N5245 S5243 1.610 . S
N5245 C5246 1.351 . S
C5246 C5240 1.428 . S
C5246 N5245 1.351 . S
C5246 C5247 1.434 . S
C5247 C5238 1.429 . S
C5247 N5244 1.350 . S
C5247 C5246 1.434 . S
C5248 C5249 1.369 . S
C5248 C5250 1.419 . S
C5248 H5252 0.930 . S
C5249 C5248 1.369 . S
C5249 C5258 1.429 . S
C5250 C5248 1.419 . S
C5250 C5251 1.363 . S
C5250 H5253 0.929 . S
C5251 C5250 1.363 . S
C5251 C5257 1.428 . S
H5252 C5248 0.930 . S
H5253 C5250 0.929 . S
S5254 N5255 1.613 . S
S5254 N5256 1.610 . S
N5255 S5254 1.613 . S
N5255 C5258 1.350 . S
N5256 S5254 1.610 . S
N5256 C5257 1.351 . S
C5257 C5251 1.428 . S
C5257 N5256 1.351 . S
C5257 C5258 1.434 . S
C5258 C5249 1.429 . S
C5258 N5255 1.350 . S
C5258 C5257 1.434 . S
C5259 C5260 1.369 . S
C5259 C5261 1.419 . S
C5259 H5263 0.930 . S
C5260 C5259 1.369 . S
C5260 C5269 1.429 . S
C5261 C5259 1.419 . S
C5261 C5262 1.363 . S
C5261 H5264 0.929 . S
C5262 C5261 1.363 . S
C5262 C5268 1.428 . S
H5263 C5259 0.930 . S
H5264 C5261 0.929 . S
S5265 N5266 1.613 . S
S5265 N5267 1.610 . S
N5266 S5265 1.613 . S
N5266 C5269 1.350 . S
N5267 S5265 1.610 . S
N5267 C5268 1.351 . S
C5268 C5262 1.428 . S
C5268 N5267 1.351 . S
C5268 C5269 1.434 . S
C5269 C5260 1.429 . S
C5269 N5266 1.350 . S
C5269 C5268 1.434 . S
C5270 C5271 1.369 . S
C5270 C5272 1.419 . S
C5270 H5274 0.930 . S
C5271 C5270 1.369 . S
C5271 C5280 1.429 . S
C5272 C5270 1.419 . S
C5272 C5273 1.363 . S
C5272 H5275 0.929 . S
C5273 C5272 1.363 . S
C5273 C5279 1.428 . S
H5274 C5270 0.930 . S
H5275 C5272 0.929 . S
S5276 N5277 1.613 . S
S5276 N5278 1.610 . S
N5277 S5276 1.613 . S
N5277 C5280 1.350 . S
N5278 S5276 1.610 . S
N5278 C5279 1.351 . S
C5279 C5273 1.428 . S
C5279 N5278 1.351 . S
C5279 C5280 1.434 . S
C5280 C5271 1.429 . S
C5280 N5277 1.350 . S
C5280 C5279 1.434 . S
C5281 C5282 1.369 . S
C5281 C5283 1.419 . S
C5281 H5285 0.930 . S
C5282 C5281 1.369 . S
C5282 C5291 1.429 . S
C5283 C5281 1.419 . S
C5283 C5284 1.363 . S
C5283 H5286 0.929 . S
C5284 C5283 1.363 . S
C5284 C5290 1.428 . S
H5285 C5281 0.930 . S
H5286 C5283 0.929 . S
S5287 N5288 1.613 . S
S5287 N5289 1.610 . S
N5288 S5287 1.613 . S
N5288 C5291 1.350 . S
N5289 S5287 1.610 . S
N5289 C5290 1.351 . S
C5290 C5284 1.428 . S
C5290 N5289 1.351 . S
C5290 C5291 1.434 . S
C5291 C5282 1.429 . S
C5291 N5288 1.350 . S
C5291 C5290 1.434 . S
C5292 C5293 1.369 . S
C5292 C5294 1.419 . S
C5292 H5296 0.930 . S
C5293 C5292 1.369 . S
C5293 C5302 1.429 . S
C5294 C5292 1.419 . S
C5294 C5295 1.363 . S
C5294 H5297 0.929 . S
C5295 C5294 1.363 . S
C5295 C5301 1.428 . S
H5296 C5292 0.930 . S
H5297 C5294 0.929 . S
S5298 N5299 1.613 . S
S5298 N5300 1.610 . S
N5299 S5298 1.613 . S
N5299 C5302 1.350 . S
N5300 S5298 1.610 . S
N5300 C5301 1.351 . S
C5301 C5295 1.428 . S
C5301 N5300 1.351 . S
C5301 C5302 1.434 . S
C5302 C5293 1.429 . S
C5302 N5299 1.350 . S
C5302 C5301 1.434 . S
C5303 C5304 1.369 . S
C5303 C5305 1.419 . S
C5303 H5307 0.930 . S
C5304 C5303 1.369 . S
C5304 C5313 1.429 . S
C5305 C5303 1.419 . S
C5305 C5306 1.363 . S
C5305 H5308 0.929 . S
C5306 C5305 1.363 . S
C5306 C5312 1.428 . S
H5307 C5303 0.930 . S
H5308 C5305 0.929 . S
S5309 N5310 1.613 . S
S5309 N5311 1.610 . S
N5310 S5309 1.613 . S
N5310 C5313 1.350 . S
N5311 S5309 1.610 . S
N5311 C5312 1.351 . S
C5312 C5306 1.428 . S
C5312 N5311 1.351 . S
C5312 C5313 1.434 . S
C5313 C5304 1.429 . S
C5313 N5310 1.350 . S
C5313 C5312 1.434 . S
C5314 C5315 1.369 . S
C5314 C5316 1.419 . S
C5314 H5318 0.930 . S
C5315 C5314 1.369 . S
C5315 C5324 1.429 . S
C5316 C5314 1.419 . S
C5316 C5317 1.363 . S
C5316 H5319 0.929 . S
C5317 C5316 1.363 . S
C5317 C5323 1.428 . S
H5318 C5314 0.930 . S
H5319 C5316 0.929 . S
S5320 N5321 1.613 . S
S5320 N5322 1.610 . S
N5321 S5320 1.613 . S
N5321 C5324 1.350 . S
N5322 S5320 1.610 . S
N5322 C5323 1.351 . S
C5323 C5317 1.428 . S
C5323 N5322 1.351 . S
C5323 C5324 1.434 . S
C5324 C5315 1.429 . S
C5324 N5321 1.350 . S
C5324 C5323 1.434 . S
C5325 C5326 1.369 . S
C5325 C5327 1.419 . S
C5325 H5329 0.930 . S
C5326 C5325 1.369 . S
C5326 C5335 1.429 . S
C5327 C5325 1.419 . S
C5327 C5328 1.363 . S
C5327 H5330 0.929 . S
C5328 C5327 1.363 . S
C5328 C5334 1.428 . S
H5329 C5325 0.930 . S
H5330 C5327 0.929 . S
S5331 N5332 1.613 . S
S5331 N5333 1.610 . S
N5332 S5331 1.613 . S
N5332 C5335 1.350 . S
N5333 S5331 1.610 . S
N5333 C5334 1.351 . S
C5334 C5328 1.428 . S
C5334 N5333 1.351 . S
C5334 C5335 1.434 . S
C5335 C5326 1.429 . S
C5335 N5332 1.350 . S
C5335 C5334 1.434 . S
C5336 C5337 1.369 . S
C5336 C5338 1.419 . S
C5336 H5340 0.930 . S
C5337 C5336 1.369 . S
C5337 C5346 1.429 . S
C5338 C5336 1.419 . S
C5338 C5339 1.363 . S
C5338 H5341 0.929 . S
C5339 C5338 1.363 . S
C5339 C5345 1.428 . S
H5340 C5336 0.930 . S
H5341 C5338 0.929 . S
S5342 N5343 1.613 . S
S5342 N5344 1.610 . S
N5343 S5342 1.613 . S
N5343 C5346 1.350 . S
N5344 S5342 1.610 . S
N5344 C5345 1.351 . S
C5345 C5339 1.428 . S
C5345 N5344 1.351 . S
C5345 C5346 1.434 . S
C5346 C5337 1.429 . S
C5346 N5343 1.350 . S
C5346 C5345 1.434 . S
C5347 C5348 1.369 . S
C5347 C5349 1.419 . S
C5347 H5351 0.930 . S
C5348 C5347 1.369 . S
C5348 C5357 1.429 . S
C5349 C5347 1.419 . S
C5349 C5350 1.363 . S
C5349 H5352 0.929 . S
C5350 C5349 1.363 . S
C5350 C5356 1.428 . S
H5351 C5347 0.930 . S
H5352 C5349 0.929 . S
S5353 N5354 1.613 . S
S5353 N5355 1.610 . S
N5354 S5353 1.613 . S
N5354 C5357 1.350 . S
N5355 S5353 1.610 . S
N5355 C5356 1.351 . S
C5356 C5350 1.428 . S
C5356 N5355 1.351 . S
C5356 C5357 1.434 . S
C5357 C5348 1.429 . S
C5357 N5354 1.350 . S
C5357 C5356 1.434 . S
C5358 C5359 1.369 . S
C5358 C5360 1.419 . S
C5358 H5362 0.930 . S
C5359 C5358 1.369 . S
C5359 C5368 1.429 . S
C5360 C5358 1.419 . S
C5360 C5361 1.363 . S
C5360 H5363 0.929 . S
C5361 C5360 1.363 . S
C5361 C5367 1.428 . S
H5362 C5358 0.930 . S
H5363 C5360 0.929 . S
S5364 N5365 1.613 . S
S5364 N5366 1.610 . S
N5365 S5364 1.613 . S
N5365 C5368 1.350 . S
N5366 S5364 1.610 . S
N5366 C5367 1.351 . S
C5367 C5361 1.428 . S
C5367 N5366 1.351 . S
C5367 C5368 1.434 . S
C5368 C5359 1.429 . S
C5368 N5365 1.350 . S
C5368 C5367 1.434 . S
C5369 C5370 1.369 . S
C5369 C5371 1.419 . S
C5369 H5373 0.930 . S
C5370 C5369 1.369 . S
C5370 C5379 1.429 . S
C5371 C5369 1.419 . S
C5371 C5372 1.363 . S
C5371 H5374 0.929 . S
C5372 C5371 1.363 . S
C5372 C5378 1.428 . S
H5373 C5369 0.930 . S
H5374 C5371 0.929 . S
S5375 N5376 1.613 . S
S5375 N5377 1.610 . S
N5376 S5375 1.613 . S
N5376 C5379 1.350 . S
N5377 S5375 1.610 . S
N5377 C5378 1.351 . S
C5378 C5372 1.428 . S
C5378 N5377 1.351 . S
C5378 C5379 1.434 . S
C5379 C5370 1.429 . S
C5379 N5376 1.350 . S
C5379 C5378 1.434 . S
C5380 C5381 1.369 . S
C5380 C5382 1.419 . S
C5380 H5384 0.930 . S
C5381 C5380 1.369 . S
C5381 C5390 1.429 . S
C5382 C5380 1.419 . S
C5382 C5383 1.363 . S
C5382 H5385 0.929 . S
C5383 C5382 1.363 . S
C5383 C5389 1.428 . S
H5384 C5380 0.930 . S
H5385 C5382 0.929 . S
S5386 N5387 1.613 . S
S5386 N5388 1.610 . S
N5387 S5386 1.613 . S
N5387 C5390 1.350 . S
N5388 S5386 1.610 . S
N5388 C5389 1.351 . S
C5389 C5383 1.428 . S
C5389 N5388 1.351 . S
C5389 C5390 1.434 . S
C5390 C5381 1.429 . S
C5390 N5387 1.350 . S
C5390 C5389 1.434 . S
C5391 C5392 1.369 . S
C5391 C5393 1.419 . S
C5391 H5395 0.930 . S
C5392 C5391 1.369 . S
C5392 C5401 1.429 . S
C5393 C5391 1.419 . S
C5393 C5394 1.363 . S
C5393 H5396 0.929 . S
C5394 C5393 1.363 . S
C5394 C5400 1.428 . S
H5395 C5391 0.930 . S
H5396 C5393 0.929 . S
S5397 N5398 1.613 . S
S5397 N5399 1.610 . S
N5398 S5397 1.613 . S
N5398 C5401 1.350 . S
N5399 S5397 1.610 . S
N5399 C5400 1.351 . S
C5400 C5394 1.428 . S
C5400 N5399 1.351 . S
C5400 C5401 1.434 . S
C5401 C5392 1.429 . S
C5401 N5398 1.350 . S
C5401 C5400 1.434 . S
C5402 C5403 1.369 . S
C5402 C5404 1.419 . S
C5402 H5406 0.930 . S
C5403 C5402 1.369 . S
C5403 C5412 1.429 . S
C5404 C5402 1.419 . S
C5404 C5405 1.363 . S
C5404 H5407 0.929 . S
C5405 C5404 1.363 . S
C5405 C5411 1.428 . S
H5406 C5402 0.930 . S
H5407 C5404 0.929 . S
S5408 N5409 1.613 . S
S5408 N5410 1.610 . S
N5409 S5408 1.613 . S
N5409 C5412 1.350 . S
N5410 S5408 1.610 . S
N5410 C5411 1.351 . S
C5411 C5405 1.428 . S
C5411 N5410 1.351 . S
C5411 C5412 1.434 . S
C5412 C5403 1.429 . S
C5412 N5409 1.350 . S
C5412 C5411 1.434 . S
C5413 C5414 1.369 . S
C5413 C5415 1.419 . S
C5413 H5417 0.930 . S
C5414 C5413 1.369 . S
C5414 C5423 1.429 . S
C5415 C5413 1.419 . S
C5415 C5416 1.363 . S
C5415 H5418 0.929 . S
C5416 C5415 1.363 . S
C5416 C5422 1.428 . S
H5417 C5413 0.930 . S
H5418 C5415 0.929 . S
S5419 N5420 1.613 . S
S5419 N5421 1.610 . S
N5420 S5419 1.613 . S
N5420 C5423 1.350 . S
N5421 S5419 1.610 . S
N5421 C5422 1.351 . S
C5422 C5416 1.428 . S
C5422 N5421 1.351 . S
C5422 C5423 1.434 . S
C5423 C5414 1.429 . S
C5423 N5420 1.350 . S
C5423 C5422 1.434 . S
C3841 C15 1.724 . S
C3843 C2735 1.718 . S
C3852 C2615 1.716 . S
C3854 C55 1.723 . S
C3863 C95 1.715 . S
C3865 C2655 1.724 . S
C3874 C2695 1.715 . S
C3876 C135 1.725 . S
C3885 C175 1.721 . S
C3887 C2855 1.721 . S
C3896 C2775 1.721 . S
C3898 C215 1.719 . S
C3907 C2815 1.716 . S
C3909 C255 1.723 . S
C3918 C2575 1.722 . S
C3920 C295 1.719 . S
C3929 C335 1.715 . S
C3931 C2535 1.724 . S
C3940 C375 1.718 . S
C3942 C2415 1.721 . S
C3951 C415 1.719 . S
C3953 C2455 1.721 . S
C3962 C455 1.717 . S
C3964 C2495 1.723 . S
C3973 C2295 1.715 . S
C3975 C495 1.724 . S
C3984 C535 1.723 . S
C3986 C2335 1.719 . S
C3995 C2375 1.715 . S
C3997 C575 1.724 . S
C4006 C615 1.715 . S
C4008 C2255 1.724 . S
C4017 C655 1.717 . S
C4019 C2215 1.724 . S
C4028 C695 1.715 . S
C4030 C1975 1.725 . S
C4039 C735 1.720 . S
C4041 C2015 1.720 . S
C4050 C775 1.717 . S
C4052 C2055 1.723 . S
C4061 C1935 1.724 . S
C4063 C815 1.718 . S
C4072 C2135 1.715 . S
C4074 C855 1.725 . S
C4083 C2175 1.718 . S
C4085 C895 1.723 . S
C4094 C935 1.725 . S
C4096 C2095 1.717 . S
C4105 C3695 1.713 . S
C4107 C975 1.703 . S
C4116 C1015 1.710 . S
C4118 C3575 1.705 . S
C4127 C1055 1.711 . S
C4129 C3615 1.704 . S
C4138 C1095 1.705 . S
C4140 C3655 1.708 . S
C4149 C1135 1.709 . S
C4151 C3815 1.706 . S
C4160 C1175 1.713 . S
C4162 C3735 1.703 . S
C4171 C3775 1.712 . S
C4173 C1215 1.703 . S
C4182 C1255 1.710 . S
C4184 C3535 1.705 . S
C4193 C1295 1.701 . S
C4195 C3495 1.711 . S
C4204 C3375 1.706 . S
C4206 C1335 1.707 . S
C4215 C3415 1.703 . S
C4217 C1375 1.710 . S
C4226 C3455 1.707 . S
C4228 C1415 1.707 . S
C4237 C3255 1.703 . S
C4239 C1455 1.710 . S
C4248 C1495 1.707 . S
C4250 C3295 1.707 . S
C4259 C3335 1.707 . S
C4261 C1535 1.707 . S
C4270 C3215 1.701 . S
C4272 C1575 1.711 . S
C4281 C1615 1.712 . S
C4283 C3175 1.703 . S
C4292 C1655 1.708 . S
C4294 C2935 1.707 . S
C4303 C2975 1.712 . S
C4305 C1695 1.703 . S
C4314 C3015 1.708 . S
C4316 C1735 1.706 . S
C4325 C2895 1.711 . S
C4327 C1775 1.704 . S
C4336 C3095 1.709 . S
C4338 C1815 1.706 . S
C4347 C3135 1.704 . S
C4349 C1855 1.709 . S
C4358 C3055 1.701 . S
C4360 C1895 1.711 . S
C4369 C2 1.732 . S
C4371 C1562 1.699 . S
C4380 C1442 1.696 . S
C4382 C42 1.733 . S
C4391 C82 1.732 . S
C4393 C1482 1.699 . S
C4402 C1522 1.695 . S
C4404 C122 1.733 . S
C4413 C162 1.733 . S
C4415 C1322 1.696 . S
C4424 C202 1.732 . S
C4426 C1362 1.698 . S
C4435 C1402 1.699 . S
C4437 C242 1.732 . S
C4446 C282 1.732 . S
C4448 C1282 1.699 . S
C4457 C1242 1.697 . S
C4459 C322 1.732 . S
C4468 C1122 1.700 . S
C4470 C362 1.732 . S
C4479 C402 1.733 . S
C4481 C1162 1.696 . S
C4490 C442 1.733 . S
C4492 C1202 1.697 . S
C4501 C1002 1.699 . S
C4503 C482 1.732 . S
C4512 C522 1.732 . S
C4514 C1042 1.695 . S
C4523 C562 1.732 . S
C4525 C1082 1.699 . S
C4534 C602 1.733 . S
C4536 C962 1.695 . S
C4545 C1762 1.694 . S
C4547 C642 1.732 . S
C4556 C1882 1.700 . S
C4558 C682 1.732 . S
C4567 C722 1.732 . S
C4569 C1802 1.698 . S
C4578 C762 1.733 . S
C4580 C1842 1.697 . S
C4589 C1602 1.697 . S
C4591 C802 1.732 . S
C4600 C1682 1.700 . S
C4602 C842 1.732 . S
C4611 C1722 1.696 . S
C4613 C882 1.733 . S
C4622 C922 1.732 . S
C4624 C1642 1.695 . S
C4633 C3482 1.700 . S
C4635 C1922 1.732 . S
C4644 C3362 1.699 . S
C4646 C1962 1.732 . S
C4655 C3402 1.700 . S
C4657 C2002 1.732 . S
C4666 C2042 1.732 . S
C4668 C3442 1.698 . S
C4677 C3242 1.694 . S
C4679 C2082 1.732 . S
C4688 C2122 1.733 . S
C4690 C3282 1.696 . S
C4699 C3322 1.695 . S
C4701 C2162 1.732 . S
C4710 C3202 1.694 . S
C4712 C2202 1.732 . S
C4721 C2242 1.732 . S
C4723 C3162 1.696 . S
C4732 C2282 1.732 . S
C4734 C3042 1.698 . S
C4743 C3082 1.699 . S
C4745 C2322 1.732 . S
C4754 C3122 1.700 . S
C4756 C2362 1.732 . S
C4765 C2922 1.696 . S
C4767 C2402 1.733 . S
C4776 C2962 1.694 . S
C4778 C2442 1.732 . S
C4787 C3002 1.694 . S
C4789 C2482 1.732 . S
C4798 C2522 1.732 . S
C4800 C2882 1.697 . S
C4809 C3682 1.696 . S
C4811 C2562 1.732 . S
C4820 C3802 1.698 . S
C4822 C2602 1.732 . S
C4831 C2642 1.732 . S
C4833 C3722 1.698 . S
C4842 C2682 1.732 . S
C4844 C3762 1.695 . S
C4853 C2722 1.733 . S
C4855 C3522 1.697 . S
C4864 C2762 1.732 . S
C4866 C3602 1.697 . S
C4875 C3642 1.694 . S
C4877 C2802 1.732 . S
C4886 C3562 1.694 . S
C4888 C2842 1.732 . S
C4897 C1141 1.552 . S
C4899 C21 1.590 . S
C4908 C1181 1.553 . S
C4910 C61 1.593 . S
C4919 C1221 1.549 . S
C4921 C101 1.591 . S
C4930 C1261 1.556 . S
C4932 C141 1.593 . S
C4941 C981 1.555 . S
C4943 C181 1.593 . S
C4952 C221 1.589 . S
C4954 C1021 1.555 . S
C4963 C261 1.589 . S
C4965 C1061 1.553 . S
C4974 C1101 1.558 . S
C4976 C301 1.592 . S
C4985 C1541 1.553 . S
C4987 C341 1.593 . S
C4996 C381 1.594 . S
C4998 C1581 1.554 . S
C5007 C421 1.590 . S
C5009 C1461 1.551 . S
C5018 C1501 1.549 . S
C5020 C461 1.590 . S
C5029 C501 1.593 . S
C5031 C1381 1.557 . S
C5040 C541 1.589 . S
C5042 C1421 1.551 . S
C5051 C581 1.593 . S
C5053 C1301 1.552 . S
C5062 C1341 1.550 . S
C5064 C621 1.590 . S
C5073 C1821 1.552 . S
C5075 C661 1.590 . S
C5084 C1741 1.555 . S
C5086 C701 1.590 . S
C5095 C1781 1.550 . S
C5097 C741 1.592 . S
C5106 C1661 1.554 . S
C5108 C781 1.590 . S
C5117 C821 1.592 . S
C5119 C1701 1.557 . S
C5128 C1621 1.550 . S
C5130 C861 1.592 . S
C5139 C1901 1.558 . S
C5141 C901 1.592 . S
C5150 C1861 1.549 . S
C5152 C941 1.591 . S
C5161 C1941 1.592 . S
C5163 C3061 1.551 . S
C5172 C1981 1.594 . S
C5174 C3101 1.556 . S
C5183 C2021 1.594 . S
C5185 C3141 1.554 . S
C5194 C3181 1.555 . S
C5196 C2061 1.593 . S
C5205 C2901 1.556 . S
C5207 C2101 1.593 . S
C5216 C2141 1.589 . S
C5218 C2941 1.555 . S
C5227 C2981 1.556 . S
C5229 C2181 1.593 . S
C5238 C3021 1.558 . S
C5240 C2221 1.592 . S
C5249 C2261 1.589 . S
C5251 C3461 1.554 . S
C5260 C2301 1.590 . S
C5262 C3501 1.555 . S
C5271 C2341 1.591 . S
C5273 C3381 1.550 . S
C5282 C3421 1.551 . S
C5284 C2381 1.590 . S
C5293 C2421 1.592 . S
C5295 C3301 1.557 . S
C5304 C2461 1.589 . S
C5306 C3341 1.551 . S
C5315 C2501 1.591 . S
C5317 C3221 1.556 . S
C5326 C2541 1.592 . S
C5328 C3261 1.557 . S
C5337 C2581 1.589 . S
C5339 C3741 1.554 . S
C5348 C3661 1.556 . S
C5350 C2621 1.590 . S
C5359 C2661 1.591 . S
C5361 C3701 1.550 . S
C5370 C3581 1.556 . S
C5372 C2701 1.593 . S
C5381 C3621 1.558 . S
C5383 C2741 1.592 . S
C5392 C2781 1.591 . S
C5394 C3541 1.556 . S
C5403 C3821 1.557 . S
C5405 C2821 1.591 . S
C5414 C3781 1.549 . S
C5416 C2861 1.591 . S
