# Generated by pormake.
# Topology ukv, (4)-cn, num edge types: 1
# Building blocks:
#     Node 0, Type 0, BuildingBlock: UXUYUI_clean_sbu_0, # of connection points: 4
#     Node 1, Type 0, BuildingBlock: UXUYUI_clean_sbu_0, # of connection points: 4
#     Node 2, Type 0, BuildingBlock: UXUYUI_clean_sbu_0, # of connection points: 4
#     Node 3, Type 0, BuildingBlock: UXUYUI_clean_sbu_0, # of connection points: 4
#     Node 4, Type 0, BuildingBlock: UXUYUI_clean_sbu_0, # of connection points: 4
#     Node 5, Type 0, BuildingBlock: UXUYUI_clean_sbu_0, # of connection points: 4
#     Node 6, Type 0, BuildingBlock: UXUYUI_clean_sbu_0, # of connection points: 4
#     Node 7, Type 0, BuildingBlock: UXUYUI_clean_sbu_0, # of connection points: 4
#     Node 8, Type 0, BuildingBlock: UXUYUI_clean_sbu_0, # of connection points: 4
#     Node 9, Type 0, BuildingBlock: UXUYUI_clean_sbu_0, # of connection points: 4
#     Node 10, Type 0, BuildingBlock: UXUYUI_clean_sbu_0, # of connection points: 4
#     Node 11, Type 0, BuildingBlock: UXUYUI_clean_sbu_0, # of connection points: 4
#     Node 12, Type 0, BuildingBlock: UXUYUI_clean_sbu_0, # of connection points: 4
#     Node 13, Type 0, BuildingBlock: UXUYUI_clean_sbu_0, # of connection points: 4
#     Node 14, Type 0, BuildingBlock: UXUYUI_clean_sbu_0, # of connection points: 4
#     Node 15, Type 0, BuildingBlock: UXUYUI_clean_sbu_0, # of connection points: 4
#     Node 16, Type 0, BuildingBlock: UXUYUI_clean_sbu_0, # of connection points: 4
#     Node 17, Type 0, BuildingBlock: UXUYUI_clean_sbu_0, # of connection points: 4
#     Node 18, Type 0, BuildingBlock: UXUYUI_clean_sbu_0, # of connection points: 4
#     Node 19, Type 0, BuildingBlock: UXUYUI_clean_sbu_0, # of connection points: 4
#     Node 20, Type 0, BuildingBlock: UXUYUI_clean_sbu_0, # of connection points: 4
#     Node 21, Type 0, BuildingBlock: UXUYUI_clean_sbu_0, # of connection points: 4
#     Node 22, Type 0, BuildingBlock: UXUYUI_clean_sbu_0, # of connection points: 4
#     Node 23, Type 0, BuildingBlock: UXUYUI_clean_sbu_0, # of connection points: 4
#     Node 24, Type 0, BuildingBlock: UXUYUI_clean_sbu_0, # of connection points: 4
#     Node 25, Type 0, BuildingBlock: UXUYUI_clean_sbu_0, # of connection points: 4
#     Node 26, Type 0, BuildingBlock: UXUYUI_clean_sbu_0, # of connection points: 4
#     Node 27, Type 0, BuildingBlock: UXUYUI_clean_sbu_0, # of connection points: 4
#     Node 28, Type 0, BuildingBlock: UXUYUI_clean_sbu_0, # of connection points: 4
#     Node 29, Type 0, BuildingBlock: UXUYUI_clean_sbu_0, # of connection points: 4
#     Node 30, Type 0, BuildingBlock: UXUYUI_clean_sbu_0, # of connection points: 4
#     Node 31, Type 0, BuildingBlock: UXUYUI_clean_sbu_0, # of connection points: 4
#     Node 32, Type 0, BuildingBlock: UXUYUI_clean_sbu_0, # of connection points: 4
#     Node 33, Type 0, BuildingBlock: UXUYUI_clean_sbu_0, # of connection points: 4
#     Node 34, Type 0, BuildingBlock: UXUYUI_clean_sbu_0, # of connection points: 4
#     Node 35, Type 0, BuildingBlock: UXUYUI_clean_sbu_0, # of connection points: 4
#     Edge 36, Type (0, 0), BuildingBlock: EZIPEK_clean_linker_0, # of connection points: 2
#     Edge 37, Type (0, 0), BuildingBlock: EZIPEK_clean_linker_0, # of connection points: 2
#     Edge 38, Type (0, 0), BuildingBlock: EZIPEK_clean_linker_0, # of connection points: 2
#     Edge 39, Type (0, 0), BuildingBlock: EZIPEK_clean_linker_0, # of connection points: 2
#     Edge 40, Type (0, 0), BuildingBlock: EZIPEK_clean_linker_0, # of connection points: 2
#     Edge 41, Type (0, 0), BuildingBlock: EZIPEK_clean_linker_0, # of connection points: 2
#     Edge 42, Type (0, 0), BuildingBlock: EZIPEK_clean_linker_0, # of connection points: 2
#     Edge 43, Type (0, 0), BuildingBlock: EZIPEK_clean_linker_0, # of connection points: 2
#     Edge 44, Type (0, 0), BuildingBlock: EZIPEK_clean_linker_0, # of connection points: 2
#     Edge 45, Type (0, 0), BuildingBlock: EZIPEK_clean_linker_0, # of connection points: 2
#     Edge 46, Type (0, 0), BuildingBlock: EZIPEK_clean_linker_0, # of connection points: 2
#     Edge 47, Type (0, 0), BuildingBlock: EZIPEK_clean_linker_0, # of connection points: 2
#     Edge 48, Type (0, 0), BuildingBlock: EZIPEK_clean_linker_0, # of connection points: 2
#     Edge 49, Type (0, 0), BuildingBlock: EZIPEK_clean_linker_0, # of connection points: 2
#     Edge 50, Type (0, 0), BuildingBlock: EZIPEK_clean_linker_0, # of connection points: 2
#     Edge 51, Type (0, 0), BuildingBlock: EZIPEK_clean_linker_0, # of connection points: 2
#     Edge 52, Type (0, 0), BuildingBlock: EZIPEK_clean_linker_0, # of connection points: 2
#     Edge 53, Type (0, 0), BuildingBlock: EZIPEK_clean_linker_0, # of connection points: 2
#     Edge 54, Type (0, 0), BuildingBlock: EZIPEK_clean_linker_0, # of connection points: 2
#     Edge 55, Type (0, 0), BuildingBlock: EZIPEK_clean_linker_0, # of connection points: 2
#     Edge 56, Type (0, 0), BuildingBlock: EZIPEK_clean_linker_0, # of connection points: 2
#     Edge 57, Type (0, 0), BuildingBlock: EZIPEK_clean_linker_0, # of connection points: 2
#     Edge 58, Type (0, 0), BuildingBlock: EZIPEK_clean_linker_0, # of connection points: 2
#     Edge 59, Type (0, 0), BuildingBlock: EZIPEK_clean_linker_0, # of connection points: 2
#     Edge 60, Type (0, 0), BuildingBlock: EZIPEK_clean_linker_0, # of connection points: 2
#     Edge 61, Type (0, 0), BuildingBlock: EZIPEK_clean_linker_0, # of connection points: 2
#     Edge 62, Type (0, 0), BuildingBlock: EZIPEK_clean_linker_0, # of connection points: 2
#     Edge 63, Type (0, 0), BuildingBlock: EZIPEK_clean_linker_0, # of connection points: 2
#     Edge 64, Type (0, 0), BuildingBlock: EZIPEK_clean_linker_0, # of connection points: 2
#     Edge 65, Type (0, 0), BuildingBlock: EZIPEK_clean_linker_0, # of connection points: 2
#     Edge 66, Type (0, 0), BuildingBlock: EZIPEK_clean_linker_0, # of connection points: 2
#     Edge 67, Type (0, 0), BuildingBlock: EZIPEK_clean_linker_0, # of connection points: 2
#     Edge 68, Type (0, 0), BuildingBlock: EZIPEK_clean_linker_0, # of connection points: 2
#     Edge 69, Type (0, 0), BuildingBlock: EZIPEK_clean_linker_0, # of connection points: 2
#     Edge 70, Type (0, 0), BuildingBlock: EZIPEK_clean_linker_0, # of connection points: 2
#     Edge 71, Type (0, 0), BuildingBlock: EZIPEK_clean_linker_0, # of connection points: 2
#     Edge 72, Type (0, 0), BuildingBlock: EZIPEK_clean_linker_0, # of connection points: 2
#     Edge 73, Type (0, 0), BuildingBlock: EZIPEK_clean_linker_0, # of connection points: 2
#     Edge 74, Type (0, 0), BuildingBlock: EZIPEK_clean_linker_0, # of connection points: 2
#     Edge 75, Type (0, 0), BuildingBlock: EZIPEK_clean_linker_0, # of connection points: 2
#     Edge 76, Type (0, 0), BuildingBlock: EZIPEK_clean_linker_0, # of connection points: 2
#     Edge 77, Type (0, 0), BuildingBlock: EZIPEK_clean_linker_0, # of connection points: 2
#     Edge 78, Type (0, 0), BuildingBlock: EZIPEK_clean_linker_0, # of connection points: 2
#     Edge 79, Type (0, 0), BuildingBlock: EZIPEK_clean_linker_0, # of connection points: 2
#     Edge 80, Type (0, 0), BuildingBlock: EZIPEK_clean_linker_0, # of connection points: 2
#     Edge 81, Type (0, 0), BuildingBlock: EZIPEK_clean_linker_0, # of connection points: 2
#     Edge 82, Type (0, 0), BuildingBlock: EZIPEK_clean_linker_0, # of connection points: 2
#     Edge 83, Type (0, 0), BuildingBlock: EZIPEK_clean_linker_0, # of connection points: 2
#     Edge 84, Type (0, 0), BuildingBlock: EZIPEK_clean_linker_0, # of connection points: 2
#     Edge 85, Type (0, 0), BuildingBlock: EZIPEK_clean_linker_0, # of connection points: 2
#     Edge 86, Type (0, 0), BuildingBlock: EZIPEK_clean_linker_0, # of connection points: 2
#     Edge 87, Type (0, 0), BuildingBlock: EZIPEK_clean_linker_0, # of connection points: 2
#     Edge 88, Type (0, 0), BuildingBlock: EZIPEK_clean_linker_0, # of connection points: 2
#     Edge 89, Type (0, 0), BuildingBlock: EZIPEK_clean_linker_0, # of connection points: 2
#     Edge 90, Type (0, 0), BuildingBlock: EZIPEK_clean_linker_0, # of connection points: 2
#     Edge 91, Type (0, 0), BuildingBlock: EZIPEK_clean_linker_0, # of connection points: 2
#     Edge 92, Type (0, 0), BuildingBlock: EZIPEK_clean_linker_0, # of connection points: 2
#     Edge 93, Type (0, 0), BuildingBlock: EZIPEK_clean_linker_0, # of connection points: 2
#     Edge 94, Type (0, 0), BuildingBlock: EZIPEK_clean_linker_0, # of connection points: 2
#     Edge 95, Type (0, 0), BuildingBlock: EZIPEK_clean_linker_0, # of connection points: 2
#     Edge 96, Type (0, 0), BuildingBlock: EZIPEK_clean_linker_0, # of connection points: 2
#     Edge 97, Type (0, 0), BuildingBlock: EZIPEK_clean_linker_0, # of connection points: 2
#     Edge 98, Type (0, 0), BuildingBlock: EZIPEK_clean_linker_0, # of connection points: 2
#     Edge 99, Type (0, 0), BuildingBlock: EZIPEK_clean_linker_0, # of connection points: 2
#     Edge 100, Type (0, 0), BuildingBlock: EZIPEK_clean_linker_0, # of connection points: 2
#     Edge 101, Type (0, 0), BuildingBlock: EZIPEK_clean_linker_0, # of connection points: 2
#     Edge 102, Type (0, 0), BuildingBlock: EZIPEK_clean_linker_0, # of connection points: 2
#     Edge 103, Type (0, 0), BuildingBlock: EZIPEK_clean_linker_0, # of connection points: 2
#     Edge 104, Type (0, 0), BuildingBlock: EZIPEK_clean_linker_0, # of connection points: 2
#     Edge 105, Type (0, 0), BuildingBlock: EZIPEK_clean_linker_0, # of connection points: 2
#     Edge 106, Type (0, 0), BuildingBlock: EZIPEK_clean_linker_0, # of connection points: 2
#     Edge 107, Type (0, 0), BuildingBlock: EZIPEK_clean_linker_0, # of connection points: 2
# Relax obj value: 0.386
# Max RMSD: 0.229
# Mean RMSD: 0.228
data_MOF--net-ukv--node1-UXUYUI_clean_sbu_0--edge1-EZIPEK_clean_linker_0
_symmetry_space_group_name_H-M    P1
_symmetry_Int_Tables_number       1
_symmetry_cell_setting            triclinic
loop_
_symmetry_equiv_pos_as_xyz
'x, y, z'
_cell_length_a     115.85343
_cell_length_b     115.85371
_cell_length_c     23.816152
_cell_angle_alpha  90.008793
_cell_angle_beta   90.001549
_cell_angle_gamma 119.99611
loop_
_atom_site_label
_atom_site_type_symbol
_atom_site_fract_x
_atom_site_fract_y
_atom_site_fract_z
_atom_type_partial_charge
Li0 Li 0.24314 0.08018 0.05825 0.0
Li1 Li 0.23649 0.05672 0.04912 0.0
Li2 Li 0.25773 0.07362 0.01037 0.0
Li3 Li 0.23739 0.06896 0.96406 0.0
C4 C 0.25007 0.06943 0.14755 0.0
N5 N 0.24532 0.06571 0.26166 0.0
C6 C 0.23778 0.06675 0.16949 0.0
C7 C 0.25993 0.07018 0.18364 0.0
C8 C 0.23558 0.06492 0.22727 0.0
C9 C 0.25734 0.06828 0.24122 0.0
C10 C 0.21234 0.05827 0.03282 0.0
C11 C 0.19128 0.04176 0.99361 0.0
N12 N 0.18483 0.04374 0.03699 0.0
C13 C 0.20549 0.06026 0.07667 0.0
C14 C 0.20518 0.04905 0.99063 0.0
C15 C 0.19159 0.05277 0.07816 0.0
C16 C 0.23131 0.09521 0.08331 0.0
N17 N 0.24129 0.09304 0.10003 0.0
C18 C 0.24696 0.10853 0.17533 0.0
C19 C 0.24916 0.09953 0.14479 0.0
C20 C 0.23654 0.11073 0.15957 0.0
C21 C 0.22866 0.104 0.11301 0.0
H22 H 0.22528 0.08992 0.04731 0.0
H23 H 0.25703 0.09761 0.15714 0.0
C24 C 0.23676 0.03589 0.10565 0.0
N25 N 0.22852 0.04067 0.09215 0.0
C26 C 0.23282 0.0257 0.14521 0.0
C27 C 0.21184 0.02529 0.155 0.0
C28 C 0.21617 0.03546 0.11526 0.0
C29 C 0.22033 0.02053 0.17092 0.0
H30 H 0.24663 0.04042 0.08748 0.0
H31 H 0.20987 0.03952 0.10502 0.0
C32 C 0.26413 0.0981 0.97778 0.0
N33 N 0.28836 0.12101 0.961 0.0
C34 C 0.26842 0.10284 0.92341 0.0
C35 C 0.27218 0.10498 0.0236 0.0
C36 C 0.28069 0.11446 0.9158 0.0
C37 C 0.2844 0.11654 0.01426 0.0
C38 C 0.23858 0.04636 0.93735 0.0
C39 C 0.2453 0.04656 0.8883 0.0
C40 C 0.22591 0.03552 0.94803 0.0
C41 C 0.2391 0.03605 0.8501 0.0
C42 C 0.22005 0.02519 0.90883 0.0
N43 N 0.2267 0.02567 0.86104 0.0
C44 C 0.2852 0.08201 0.03164 0.0
C45 C 0.27857 0.08067 0.93647 0.0
C46 C 0.2985 0.08723 0.01533 0.0
N47 N 0.27563 0.079 0.99216 0.0
C48 C 0.29169 0.08603 0.91841 0.0
C49 C 0.30183 0.08951 0.95812 0.0
H50 H 0.28257 0.08068 0.07565 0.0
H51 H 0.27073 0.0783 0.90622 0.0
C52 C 0.22208 0.0752 0.89371 0.0
N53 N 0.23128 0.07117 0.89373 0.0
C54 C 0.22165 0.08284 0.84933 0.0
C55 C 0.23951 0.08121 0.80432 0.0
C56 C 0.23951 0.0735 0.84927 0.0
C57 C 0.23099 0.08653 0.80588 0.0
H58 H 0.2162 0.07389 0.93086 0.0
H59 H 0.24723 0.07087 0.85189 0.0
O60 O 0.25241 0.07108 0.09097 0.0
O61 O 0.22596 0.06555 0.03068 0.0
O62 O 0.25233 0.08653 0.98607 0.0
O63 O 0.24457 0.05657 0.97525 0.0
H64 H 0.23002 0.06606 0.14223 0.0
H65 H 0.26947 0.07217 0.16732 0.0
H66 H 0.22611 0.06282 0.24476 0.0
H67 H 0.26488 0.06883 0.26964 0.0
H68 H 0.18562 0.03457 0.96127 0.0
H69 H 0.21084 0.06744 0.10945 0.0
H70 H 0.21027 0.04767 0.95549 0.0
H71 H 0.18617 0.05414 0.11205 0.0
H72 H 0.25315 0.11356 0.21138 0.0
H73 H 0.22051 0.10546 0.10017 0.0
H74 H 0.23959 0.02222 0.15704 0.0
H75 H 0.20215 0.02147 0.17446 0.0
H76 H 0.26244 0.09753 0.88741 0.0
H77 H 0.26915 0.10128 0.06584 0.0
H78 H 0.28413 0.11824 0.87394 0.0
H79 H 0.29076 0.12192 0.04932 0.0
H80 H 0.2552 0.05476 0.87975 0.0
H81 H 0.22063 0.03505 0.98611 0.0
H82 H 0.24416 0.03612 0.81181 0.0
H83 H 0.21021 0.01678 0.91646 0.0
H84 H 0.30615 0.08985 0.04688 0.0
H85 H 0.29397 0.08772 0.87403 0.0
H86 H 0.21516 0.08705 0.852 0.0
H87 H 0.24699 0.08415 0.77178 0.0
Li88 Li 0.94306 0.18514 0.04861 0.0
Li89 Li 0.92031 0.16832 0.06473 0.0
Li90 Li 0.9291 0.17307 0.97064 0.0
Li91 Li 0.9257 0.18923 0.01967 0.0
C92 C 0.93828 0.15935 0.07171 0.0
N93 N 0.94561 0.14642 0.14908 0.0
C94 C 0.9409 0.16377 0.12736 0.0
C95 C 0.93935 0.14834 0.05547 0.0
C96 C 0.94462 0.15711 0.16581 0.0
C97 C 0.94307 0.14193 0.0952 0.0
C98 C 0.92177 0.18824 0.13473 0.0
C99 C 0.89985 0.18287 0.1663 0.0
N100 N 0.90543 0.19153 0.20979 0.0
C101 C 0.92728 0.19705 0.1799 0.0
C102 C 0.90793 0.18106 0.12798 0.0
C103 C 0.91886 0.19859 0.21731 0.0
C104 C 0.96274 0.20385 0.11682 0.0
N105 N 0.96018 0.19346 0.0825 0.0
C106 C 0.97972 0.19347 0.11454 0.0
C107 C 0.96857 0.18844 0.07946 0.0
C108 C 0.98212 0.20368 0.15256 0.0
C109 C 0.97373 0.20914 0.15256 0.0
H110 H 0.95589 0.20762 0.11812 0.0
H111 H 0.96623 0.18012 0.05204 0.0
C112 C 0.89845 0.14311 0.08226 0.0
N113 N 0.90832 0.15376 0.10975 0.0
C114 C 0.88954 0.13171 0.11195 0.0
C115 C 0.90135 0.14241 0.1975 0.0
C116 C 0.9099 0.15367 0.16627 0.0
C117 C 0.89103 0.13131 0.17016 0.0
H118 H 0.89756 0.14347 0.03716 0.0
H119 H 0.91784 0.16229 0.187 0.0
C120 C 0.95275 0.19564 0.94347 0.0
N121 N 0.97506 0.2018 0.87976 0.0
C122 C 0.95957 0.20787 0.9156 0.0
C123 C 0.95727 0.18652 0.93873 0.0
C124 C 0.97082 0.21081 0.88364 0.0
C125 C 0.96857 0.18983 0.9064 0.0
C126 C 0.90434 0.17144 0.95535 0.0
C127 C 0.91011 0.18067 0.91175 0.0
C128 C 0.89052 0.16311 0.95701 0.0
C129 C 0.90194 0.18149 0.87072 0.0
C130 C 0.88268 0.16422 0.91513 0.0
N131 N 0.8885 0.17334 0.87332 0.0
C132 C 0.91777 0.15042 0.90867 0.0
C133 C 0.9285 0.16961 0.85054 0.0
C134 C 0.91094 0.14248 0.86282 0.0
N135 N 0.92593 0.16375 0.90205 0.0
C136 C 0.92189 0.16199 0.80326 0.0
C137 C 0.91253 0.1484 0.81 0.0
H138 H 0.91569 0.14617 0.95042 0.0
H139 H 0.93475 0.1803 0.84682 0.0
C140 C 0.92962 0.21425 0.98578 0.0
N141 N 0.92051 0.20229 0.00797 0.0
C142 C 0.92563 0.22311 0.96638 0.0
C143 C 0.90312 0.20742 0.99557 0.0
C144 C 0.90752 0.19887 0.01422 0.0
C145 C 0.91218 0.21953 0.97023 0.0
H146 H 0.93985 0.21662 0.98074 0.0
H147 H 0.90039 0.1892 0.03061 0.0
O148 O 0.93462 0.16567 0.03305 0.0
O149 O 0.92996 0.18657 0.09826 0.0
O150 O 0.94171 0.19271 0.97482 0.0
O151 O 0.91203 0.17102 0.99807 0.0
H152 H 0.94012 0.17226 0.14081 0.0
H153 H 0.93732 0.14478 0.01256 0.0
H154 H 0.94671 0.16045 0.20895 0.0
H155 H 0.94394 0.13339 0.0832 0.0
H156 H 0.88913 0.17738 0.16147 0.0
H157 H 0.93796 0.20262 0.18613 0.0
H158 H 0.90342 0.17413 0.09365 0.0
H159 H 0.92301 0.20539 0.2524 0.0
H160 H 0.98609 0.1891 0.11371 0.0
H161 H 0.9754 0.21706 0.18136 0.0
H162 H 0.88162 0.12331 0.0899 0.0
H163 H 0.90265 0.14237 0.24253 0.0
H164 H 0.95619 0.21503 0.91856 0.0
H165 H 0.95215 0.17697 0.95945 0.0
H166 H 0.97619 0.22024 0.8619 0.0
H167 H 0.97217 0.18286 0.90244 0.0
H168 H 0.92077 0.18732 0.91011 0.0
H169 H 0.88588 0.15601 0.99079 0.0
H170 H 0.90628 0.1886 0.83681 0.0
H171 H 0.87196 0.15788 0.91603 0.0
H172 H 0.90372 0.13204 0.86924 0.0
H173 H 0.9232 0.1668 0.76292 0.0
H174 H 0.93281 0.23236 0.94653 0.0
H175 H 0.89264 0.20436 0.99849 0.0
Li176 Li 0.81699 0.75858 0.04953 0.0
Li177 Li 0.83527 0.75413 0.05633 0.0
Li178 Li 0.82845 0.75964 0.96273 0.0
Li179 Li 0.81365 0.7385 0.00798 0.0
C180 C 0.84261 0.78362 0.04821 0.0
N181 N 0.85658 0.80991 0.0826 0.0
C182 C 0.84898 0.78693 0.10042 0.0
C183 C 0.84362 0.79373 0.01296 0.0
C184 C 0.85591 0.80026 0.11721 0.0
C185 C 0.85065 0.80695 0.03126 0.0
C186 C 0.80933 0.74097 0.13386 0.0
C187 C 0.7875 0.73115 0.17569 0.0
N188 N 0.7932 0.73636 0.22622 0.0
C189 C 0.81499 0.74626 0.18611 0.0
C190 C 0.79549 0.73335 0.12846 0.0
C191 C 0.80666 0.74383 0.23233 0.0
C192 C 0.79548 0.76235 0.08529 0.0
N193 N 0.80842 0.76588 0.09473 0.0
C194 C 0.80916 0.77826 0.17629 0.0
C195 C 0.81523 0.77357 0.13947 0.0
C196 C 0.79587 0.7748 0.1675 0.0
C197 C 0.78896 0.76676 0.1214 0.0
H198 H 0.79012 0.75585 0.05055 0.0
H199 H 0.82521 0.77564 0.148 0.0
C200 C 0.86249 0.76652 0.07734 0.0
N201 N 0.85046 0.75671 0.0961 0.0
C202 C 0.8741 0.76964 0.10684 0.0
C203 C 0.86072 0.75213 0.17304 0.0
C204 C 0.84935 0.74945 0.14262 0.0
C205 C 0.87322 0.76242 0.15537 0.0
H206 H 0.86299 0.77212 0.04016 0.0
H207 H 0.83963 0.74171 0.15639 0.0
C208 C 0.80436 0.75826 0.94476 0.0
N209 N 0.79555 0.77271 0.88414 0.0
C210 C 0.79511 0.75218 0.90146 0.0
C211 C 0.80913 0.77168 0.95718 0.0
C212 C 0.79078 0.75966 0.87128 0.0
C213 C 0.80455 0.77881 0.92614 0.0
C214 C 0.83284 0.7342 0.96774 0.0
C215 C 0.83085 0.72984 0.91203 0.0
C216 C 0.8352 0.72701 0.00879 0.0
C217 C 0.83147 0.71845 0.89812 0.0
C218 C 0.83567 0.71563 0.99327 0.0
N219 N 0.83386 0.71164 0.93869 0.0
C220 C 0.84973 0.77568 0.89497 0.0
C221 C 0.83054 0.75945 0.84632 0.0
C222 C 0.85789 0.77659 0.85016 0.0
N223 N 0.83646 0.76675 0.89311 0.0
C224 C 0.83835 0.75997 0.80066 0.0
C225 C 0.85225 0.76805 0.80409 0.0
H226 H 0.85421 0.78086 0.93372 0.0
H227 H 0.82007 0.75199 0.84727 0.0
C228 C 0.79923 0.71031 0.02495 0.0
N229 N 0.8021 0.72043 0.98854 0.0
C230 C 0.79178 0.69708 0.00686 0.0
C231 C 0.79031 0.70505 0.91468 0.0
C232 C 0.79773 0.71808 0.93452 0.0
C233 C 0.78741 0.69443 0.95095 0.0
H234 H 0.80303 0.71252 0.06743 0.0
H235 H 0.80043 0.72637 0.90638 0.0
O236 O 0.83606 0.77064 0.03039 0.0
O237 O 0.81731 0.74316 0.0882 0.0
O238 O 0.80881 0.75108 0.97403 0.0
O239 O 0.8324 0.7454 0.98215 0.0
H240 H 0.84844 0.77925 0.12803 0.0
H241 H 0.83913 0.79143 0.97164 0.0
H242 H 0.86077 0.80294 0.15774 0.0
H243 H 0.85145 0.81487 0.0045 0.0
H244 H 0.77676 0.7253 0.17219 0.0
H245 H 0.82569 0.75225 0.19081 0.0
H246 H 0.79098 0.72923 0.08817 0.0
H247 H 0.81088 0.74789 0.27303 0.0
H248 H 0.81467 0.78427 0.21207 0.0
H249 H 0.77862 0.76379 0.11404 0.0
H250 H 0.88361 0.7777 0.09255 0.0
H251 H 0.85977 0.74645 0.21061 0.0
H252 H 0.79133 0.7418 0.89118 0.0
H253 H 0.81618 0.7765 0.99076 0.0
H254 H 0.78363 0.75508 0.83762 0.0
H255 H 0.80814 0.7892 0.93547 0.0
H256 H 0.82885 0.73518 0.87983 0.0
H257 H 0.83657 0.73014 0.05222 0.0
H258 H 0.83 0.71499 0.85512 0.0
H259 H 0.83749 0.70997 0.0246 0.0
H260 H 0.8686 0.78276 0.85414 0.0
H261 H 0.83379 0.75311 0.76594 0.0
H262 H 0.78977 0.68903 0.03554 0.0
H263 H 0.78716 0.70326 0.87118 0.0
Li264 Li 0.07652 0.26365 0.47748 0.0
Li265 Li 0.07169 0.24426 0.53026 0.0
Li266 Li 0.08333 0.24836 0.43648 0.0
Li267 Li 0.05941 0.24218 0.44452 0.0
C268 C 0.09898 0.26793 0.54061 0.0
N269 N 0.11839 0.28661 0.6104 0.0
C270 C 0.09545 0.27347 0.58488 0.0
C271 C 0.1124 0.27204 0.53132 0.0
C272 C 0.1054 0.28283 0.61993 0.0
C273 C 0.12207 0.28149 0.5671 0.0
C274 C 0.05077 0.24693 0.55922 0.0
C275 C 0.03205 0.22917 0.60779 0.0
N276 N 0.03339 0.23784 0.6492 0.0
C277 C 0.05192 0.25569 0.60208 0.0
C278 C 0.04072 0.23358 0.56191 0.0
C279 C 0.04306 0.25089 0.6473 0.0
C280 C 0.07322 0.28548 0.50654 0.0
N281 N 0.08206 0.28206 0.4861 0.0
C282 C 0.09998 0.3044 0.49621 0.0
C283 C 0.09514 0.29129 0.47871 0.0
C284 C 0.09122 0.30797 0.52078 0.0
C285 C 0.07763 0.29852 0.52433 0.0
H286 H 0.06286 0.27793 0.51151 0.0
H287 H 0.10194 0.28829 0.46225 0.0
C288 C 0.07833 0.22964 0.60003 0.0
N289 N 0.07365 0.23831 0.60204 0.0
C290 C 0.08586 0.22903 0.64441 0.0
C291 C 0.08262 0.24542 0.69398 0.0
C292 C 0.07495 0.24555 0.64903 0.0
C293 C 0.08873 0.23763 0.69023 0.0
H294 H 0.07754 0.22436 0.56151 0.0
H295 H 0.07148 0.25261 0.64925 0.0
C296 C 0.07678 0.26765 0.36994 0.0
N297 N 0.08278 0.29093 0.31463 0.0
C298 C 0.06695 0.27113 0.36224 0.0
C299 C 0.08964 0.27595 0.34935 0.0
C300 C 0.07019 0.28296 0.3342 0.0
C301 C 0.09248 0.2877 0.32153 0.0
C302 C 0.0602 0.21874 0.4534 0.0
C303 C 0.06176 0.21412 0.40136 0.0
C304 C 0.05061 0.20988 0.49106 0.0
C305 C 0.05341 0.20074 0.38716 0.0
C306 C 0.04247 0.19658 0.47533 0.0
N307 N 0.04401 0.19233 0.4241 0.0
C308 C 0.10423 0.24297 0.42423 0.0
C309 C 0.09506 0.24536 0.33879 0.0
C310 C 0.11299 0.24018 0.39492 0.0
N311 N 0.09561 0.24557 0.39577 0.0
C312 C 0.10357 0.24254 0.30785 0.0
C313 C 0.11264 0.23992 0.33611 0.0
H314 H 0.10423 0.243 0.46965 0.0
H315 H 0.08793 0.24727 0.31754 0.0
C316 C 0.03179 0.23187 0.41427 0.0
N317 N 0.04378 0.23321 0.40017 0.0
C318 C 0.02126 0.22643 0.37572 0.0
C319 C 0.03568 0.22395 0.30932 0.0
C320 C 0.04589 0.22946 0.34887 0.0
C321 C 0.02327 0.22254 0.32249 0.0
H322 H 0.03051 0.23539 0.4545 0.0
H323 H 0.05568 0.23116 0.33805 0.0
O324 O 0.08943 0.25879 0.50551 0.0
O325 O 0.05938 0.25144 0.5147 0.0
O326 O 0.07389 0.25631 0.39854 0.0
O327 O 0.06826 0.2318 0.46801 0.0
H328 H 0.08517 0.27076 0.5914 0.0
H329 H 0.11533 0.26798 0.49679 0.0
H330 H 0.1028 0.28715 0.6545 0.0
H331 H 0.13249 0.28472 0.56054 0.0
H332 H 0.02424 0.21885 0.61042 0.0
H333 H 0.05968 0.26605 0.60089 0.0
H334 H 0.03959 0.22672 0.52879 0.0
H335 H 0.04388 0.25754 0.68093 0.0
H336 H 0.11054 0.31153 0.49303 0.0
H337 H 0.07067 0.30105 0.54318 0.0
H338 H 0.09059 0.22304 0.64026 0.0
H339 H 0.08479 0.25224 0.72872 0.0
H340 H 0.05696 0.2648 0.3782 0.0
H341 H 0.09736 0.27341 0.35537 0.0
H342 H 0.06271 0.28582 0.32811 0.0
H343 H 0.1024 0.29426 0.30558 0.0
H344 H 0.06928 0.22081 0.37209 0.0
H345 H 0.04955 0.21321 0.53218 0.0
H346 H 0.05443 0.19705 0.34681 0.0
H347 H 0.03496 0.18962 0.50396 0.0
H348 H 0.11996 0.23826 0.41768 0.0
H349 H 0.10315 0.24246 0.2624 0.0
H350 H 0.0118 0.22559 0.38662 0.0
H351 H 0.03754 0.22117 0.2683 0.0
Li352 Li 0.75216 0.82583 0.5199 0.0
Li353 Li 0.73143 0.80935 0.48011 0.0
Li354 Li 0.75345 0.81314 0.4419 0.0
Li355 Li 0.74631 0.82969 0.43047 0.0
C356 C 0.75121 0.80238 0.55654 0.0
N357 N 0.76344 0.79464 0.63576 0.0
C358 C 0.74441 0.79584 0.6055 0.0
C359 C 0.76415 0.8048 0.54762 0.0
C360 C 0.75079 0.79205 0.64512 0.0
C361 C 0.77018 0.80086 0.58822 0.0
C362 C 0.7294 0.82723 0.54711 0.0
C363 C 0.71629 0.83448 0.59924 0.0
N364 N 0.71526 0.82629 0.64226 0.0
C365 C 0.72819 0.8189 0.59192 0.0
C366 C 0.72341 0.8351 0.55086 0.0
C367 C 0.72102 0.81857 0.63961 0.0
C368 C 0.7592 0.84724 0.5856 0.0
N369 N 0.75974 0.83579 0.58722 0.0
C370 C 0.76664 0.83976 0.68335 0.0
C371 C 0.76372 0.83208 0.63436 0.0
C372 C 0.76526 0.85113 0.68305 0.0
C373 C 0.76189 0.85506 0.6332 0.0
H374 H 0.75598 0.84996 0.54778 0.0
H375 H 0.76412 0.82298 0.63491 0.0
C376 C 0.71041 0.7856 0.52653 0.0
N377 N 0.71345 0.79681 0.49698 0.0
C378 C 0.69758 0.77766 0.54815 0.0
C379 C 0.6912 0.79269 0.50635 0.0
C380 C 0.70413 0.80034 0.48576 0.0
C381 C 0.68794 0.78138 0.53883 0.0
H382 H 0.71809 0.78313 0.53526 0.0
H383 H 0.70693 0.80947 0.46321 0.0
C384 C 0.77508 0.8434 0.47312 0.0
N385 N 0.79746 0.86523 0.51685 0.0
C386 C 0.77653 0.85611 0.46959 0.0
C387 C 0.78511 0.84185 0.49835 0.0
C388 C 0.78789 0.86701 0.49208 0.0
C389 C 0.79632 0.85299 0.52037 0.0
C390 C 0.73509 0.81349 0.34728 0.0
C391 C 0.7439 0.81487 0.30429 0.0
C392 C 0.72418 0.81514 0.33549 0.0
C393 C 0.7417 0.81798 0.25011 0.0
C394 C 0.72234 0.81828 0.28079 0.0
N395 N 0.73107 0.81962 0.2396 0.0
C396 C 0.7543 0.79213 0.38701 0.0
C397 C 0.77457 0.81282 0.38466 0.0
C398 C 0.75953 0.78647 0.35049 0.0
N399 N 0.7618 0.8051 0.40268 0.0
C400 C 0.78022 0.80756 0.34835 0.0
C401 C 0.77257 0.79431 0.33027 0.0
H402 H 0.74408 0.78635 0.40119 0.0
H403 H 0.78017 0.82319 0.39686 0.0
C404 C 0.74007 0.84894 0.39204 0.0
N405 N 0.74771 0.84329 0.38218 0.0
C406 C 0.74237 0.86026 0.36227 0.0
C407 C 0.76003 0.85941 0.3115 0.0
C408 C 0.75745 0.84816 0.34251 0.0
C409 C 0.75255 0.86565 0.32203 0.0
H410 H 0.73246 0.84486 0.42403 0.0
H411 H 0.76351 0.84356 0.33642 0.0
O412 O 0.7451 0.80611 0.51711 0.0
O413 O 0.7365 0.82782 0.49999 0.0
O414 O 0.76391 0.83256 0.45208 0.0
O415 O 0.73728 0.81082 0.40089 0.0
H416 H 0.73432 0.7937 0.61302 0.0
H417 H 0.76948 0.80963 0.50974 0.0
H418 H 0.74567 0.78705 0.68328 0.0
H419 H 0.78022 0.80274 0.58188 0.0
H420 H 0.71161 0.84052 0.60262 0.0
H421 H 0.73279 0.81281 0.59005 0.0
H422 H 0.72426 0.84167 0.51688 0.0
H423 H 0.72004 0.81217 0.67453 0.0
H424 H 0.76932 0.83657 0.7215 0.0
H425 H 0.76082 0.86383 0.63175 0.0
H426 H 0.69533 0.76901 0.57341 0.0
H427 H 0.68395 0.79583 0.49892 0.0
H428 H 0.76887 0.85756 0.45071 0.0
H429 H 0.78428 0.83216 0.50106 0.0
H430 H 0.78906 0.87687 0.49003 0.0
H431 H 0.80412 0.8519 0.54024 0.0
H432 H 0.75243 0.8137 0.31271 0.0
H433 H 0.71732 0.81418 0.36838 0.0
H434 H 0.74847 0.81913 0.21647 0.0
H435 H 0.71401 0.81968 0.27111 0.0
H436 H 0.75339 0.77624 0.33693 0.0
H437 H 0.79029 0.81383 0.33313 0.0
H438 H 0.73642 0.86489 0.37099 0.0
H439 H 0.76794 0.86339 0.28057 0.0
Li440 Li 0.1706 0.92682 0.52552 0.0
Li441 Li 0.18687 0.92346 0.47765 0.0
Li442 Li 0.18343 0.94283 0.45322 0.0
Li443 Li 0.16662 0.9198 0.43143 0.0
C444 C 0.19436 0.94792 0.56869 0.0
N445 N 0.2027 0.96551 0.658 0.0
C446 C 0.20085 0.94608 0.61442 0.0
C447 C 0.19231 0.95882 0.56807 0.0
C448 C 0.20494 0.95505 0.65925 0.0
C449 C 0.19654 0.96756 0.61371 0.0
C450 C 0.16837 0.90167 0.53557 0.0
C451 C 0.15994 0.87972 0.57496 0.0
N452 N 0.16821 0.88516 0.61974 0.0
C453 C 0.17678 0.90704 0.58201 0.0
C454 C 0.15985 0.8879 0.53203 0.0
C455 C 0.17656 0.89854 0.6241 0.0
C456 C 0.14907 0.91096 0.58833 0.0
N457 N 0.16078 0.92259 0.59421 0.0
C458 C 0.15759 0.92218 0.69357 0.0
C459 C 0.16499 0.9285 0.64533 0.0
C460 C 0.14594 0.90974 0.68828 0.0
C461 C 0.14146 0.90434 0.63494 0.0
H462 H 0.14605 0.90635 0.54749 0.0
H463 H 0.17431 0.93771 0.6493 0.0
C464 C 0.21092 0.92579 0.51609 0.0
N465 N 0.19945 0.91772 0.48786 0.0
C466 C 0.21904 0.92084 0.53474 0.0
C467 C 0.20371 0.89961 0.49229 0.0
C468 C 0.19589 0.90496 0.47452 0.0
C469 C 0.21523 0.90751 0.52392 0.0
H470 H 0.21342 0.93586 0.52648 0.0
H471 H 0.18659 0.89872 0.45288 0.0
C472 C 0.15359 0.93434 0.48821 0.0
N473 N 0.13238 0.93516 0.53723 0.0
C474 C 0.14069 0.9234 0.484 0.0
C475 C 0.15565 0.94577 0.51667 0.0
C476 C 0.13011 0.92398 0.50926 0.0
C477 C 0.14481 0.94597 0.54134 0.0
C478 C 0.18282 0.92621 0.34787 0.0
C479 C 0.18096 0.93415 0.3089 0.0
C480 C 0.18155 0.91408 0.33088 0.0
C481 C 0.17776 0.92977 0.25344 0.0
C482 C 0.17832 0.91004 0.27505 0.0
N483 N 0.1765 0.9179 0.23782 0.0
C484 C 0.20491 0.96664 0.41194 0.0
C485 C 0.18343 0.96406 0.39821 0.0
C486 C 0.21058 0.97764 0.376 0.0
N487 N 0.19154 0.95999 0.42118 0.0
C488 C 0.18867 0.97495 0.36186 0.0
C489 C 0.20231 0.98158 0.34939 0.0
H490 H 0.211 0.96291 0.42972 0.0
H491 H 0.1728 0.95832 0.40518 0.0
C492 C 0.14804 0.89607 0.37619 0.0
N493 N 0.15299 0.90944 0.37949 0.0
C494 C 0.13695 0.88825 0.34259 0.0
C495 C 0.13641 0.90816 0.31617 0.0
C496 C 0.14756 0.9156 0.3499 0.0
C497 C 0.13098 0.89432 0.31274 0.0
H498 H 0.15256 0.89149 0.40044 0.0
H499 H 0.15168 0.92625 0.35391 0.0
O500 O 0.19035 0.93928 0.52424 0.0
O501 O 0.16823 0.90981 0.49411 0.0
O502 O 0.16411 0.93391 0.46412 0.0
O503 O 0.18554 0.93012 0.40272 0.0
H504 H 0.20269 0.9378 0.61548 0.0
H505 H 0.18756 0.96055 0.53266 0.0
H506 H 0.2099 0.9537 0.69502 0.0
H507 H 0.19496 0.97601 0.61383 0.0
H508 H 0.1534 0.86904 0.57274 0.0
H509 H 0.18336 0.91764 0.58569 0.0
H510 H 0.15321 0.88356 0.49659 0.0
H511 H 0.18301 0.90258 0.66029 0.0
H512 H 0.16122 0.92656 0.73453 0.0
H513 H 0.1325 0.89476 0.62968 0.0
H514 H 0.22785 0.92712 0.55938 0.0
H515 H 0.20051 0.88925 0.48373 0.0
H516 H 0.13886 0.91444 0.46231 0.0
H517 H 0.16549 0.95442 0.51958 0.0
H518 H 0.12011 0.91554 0.50675 0.0
H519 H 0.14629 0.95474 0.56369 0.0
H520 H 0.18186 0.94354 0.32142 0.0
H521 H 0.18288 0.9078 0.36067 0.0
H522 H 0.17624 0.93579 0.22286 0.0
H523 H 0.17721 0.90063 0.26136 0.0
H524 H 0.22113 0.98255 0.3666 0.0
H525 H 0.18207 0.97775 0.34143 0.0
H526 H 0.13295 0.87758 0.34043 0.0
H527 H 0.13199 0.91307 0.2934 0.0
Li528 Li 0.75745 0.91902 0.93242 0.0
Li529 Li 0.76252 0.93005 0.02705 0.0
Li530 Li 0.74086 0.92372 0.97676 0.0
Li531 Li 0.76163 0.94126 0.94249 0.0
C532 C 0.74047 0.89863 0.99882 0.0
N533 N 0.7263 0.87125 0.98688 0.0
C534 C 0.74416 0.89066 0.02923 0.0
C535 C 0.72963 0.89268 0.96206 0.0
C536 C 0.73685 0.87684 0.02273 0.0
C537 C 0.72258 0.87881 0.95667 0.0
C538 C 0.78584 0.94529 0.94596 0.0
C539 C 0.80389 0.96742 0.9658 0.0
N540 N 0.80891 0.96797 0.91361 0.0
C541 C 0.79122 0.94601 0.8927 0.0
C542 C 0.79223 0.95602 0.98301 0.0
C543 C 0.80288 0.9576 0.87706 0.0
C544 C 0.75659 0.90387 0.83709 0.0
N545 N 0.76018 0.9066 0.89189 0.0
C546 C 0.76781 0.89088 0.89348 0.0
C547 C 0.76588 0.90051 0.92008 0.0
C548 C 0.76407 0.88779 0.83717 0.0
C549 C 0.75847 0.89441 0.80864 0.0
H550 H 0.75224 0.90901 0.81566 0.0
H551 H 0.7688 0.90307 0.96347 0.0
C552 C 0.76151 0.92821 0.1441 0.0
N553 N 0.76818 0.92787 0.09777 0.0
C554 C 0.76052 0.92053 0.19103 0.0
C555 C 0.77408 0.91317 0.14253 0.0
C556 C 0.77496 0.92112 0.09701 0.0
C557 C 0.76615 0.91227 0.1886 0.0
H558 H 0.7557 0.93317 0.14224 0.0
H559 H 0.77964 0.92059 0.05853 0.0
C560 C 0.73813 0.92701 0.86319 0.0
N561 N 0.71954 0.92766 0.79249 0.0
C562 C 0.73722 0.93857 0.85891 0.0
C563 C 0.72958 0.91578 0.83147 0.0
C564 C 0.72777 0.9387 0.82288 0.0
C565 C 0.72024 0.9163 0.79604 0.0
C566 C 0.75322 0.9517 0.02997 0.0
C567 C 0.74361 0.95417 0.0066 0.0
C568 C 0.76255 0.9608 0.06783 0.0
C569 C 0.7437 0.96593 0.02047 0.0
C570 C 0.76229 0.97244 0.08069 0.0
N571 N 0.75297 0.97475 0.05686 0.0
C572 C 0.72014 0.91205 0.05071 0.0
C573 C 0.71296 0.91674 0.9648 0.0
C574 C 0.70736 0.90659 0.07314 0.0
N575 N 0.72269 0.9169 0.99738 0.0
C576 C 0.69999 0.91136 0.98564 0.0
C577 C 0.69715 0.90619 0.0403 0.0
H578 H 0.7281 0.9124 0.07579 0.0
H579 H 0.71516 0.92073 0.92284 0.0
C580 C 0.77052 0.95564 0.84438 0.0
N581 N 0.76981 0.95756 0.90036 0.0
C582 C 0.77579 0.9664 0.80745 0.0
C583 C 0.77987 0.98108 0.8864 0.0
C584 C 0.77455 0.97 0.922 0.0
C585 C 0.78039 0.97923 0.82848 0.0
H586 H 0.76688 0.94567 0.82838 0.0
H587 H 0.77424 0.97138 0.96659 0.0
O588 O 0.74767 0.9122 0.00381 0.0
O589 O 0.77417 0.93427 0.96127 0.0
O590 O 0.74742 0.92667 0.89751 0.0
O591 O 0.75326 0.94022 0.01738 0.0
H592 H 0.75266 0.89513 0.05712 0.0
H593 H 0.72675 0.8987 0.93765 0.0
H594 H 0.73959 0.87056 0.04604 0.0
H595 H 0.71417 0.87408 0.92834 0.0
H596 H 0.8089 0.97586 0.99384 0.0
H597 H 0.78632 0.93778 0.86354 0.0
H598 H 0.78813 0.9556 0.0243 0.0
H599 H 0.80711 0.95836 0.8358 0.0
H600 H 0.77212 0.88588 0.91642 0.0
H601 H 0.75547 0.89215 0.7651 0.0
H602 H 0.75423 0.91987 0.22594 0.0
H603 H 0.77843 0.90681 0.13951 0.0
H604 H 0.74368 0.94734 0.88317 0.0
H605 H 0.73011 0.90674 0.83437 0.0
H606 H 0.72696 0.94758 0.81918 0.0
H607 H 0.71354 0.90768 0.77137 0.0
H608 H 0.73613 0.94706 0.97832 0.0
H609 H 0.76996 0.95893 0.08672 0.0
H610 H 0.73636 0.96802 0.00247 0.0
H611 H 0.76951 0.97963 0.10959 0.0
H612 H 0.70542 0.90266 0.1155 0.0
H613 H 0.69225 0.91116 0.95943 0.0
H614 H 0.77615 0.96472 0.7629 0.0
H615 H 0.78347 0.99095 0.90367 0.0
Li616 Li 0.08175 0.83139 0.9423 0.0
Li617 Li 0.07041 0.82793 0.03478 0.0
Li618 Li 0.07533 0.81088 0.99235 0.0
Li619 Li 0.05884 0.81456 0.952 0.0
C620 C 0.10125 0.83841 0.01306 0.0
N621 N 0.12788 0.85745 0.00186 0.0
C622 C 0.10678 0.84993 0.04594 0.0
C623 C 0.10931 0.83655 0.97469 0.0
C624 C 0.12025 0.85944 0.03972 0.0
C625 C 0.12272 0.8463 0.9695 0.0
C626 C 0.05837 0.83694 0.93628 0.0
C627 C 0.03876 0.83913 0.93463 0.0
N628 N 0.04044 0.84159 0.8785 0.0
C629 C 0.05995 0.83953 0.87865 0.0
C630 C 0.04773 0.83677 0.96463 0.0
C631 C 0.05075 0.84184 0.85017 0.0
C632 C 0.09905 0.84453 0.84886 0.0
N633 N 0.09425 0.84593 0.89886 0.0
C634 C 0.10706 0.86966 0.89262 0.0
C635 C 0.09797 0.85813 0.92087 0.0
C636 C 0.1121 0.86852 0.84082 0.0
C637 C 0.1081 0.85582 0.81883 0.0
H638 H 0.09579 0.83468 0.83226 0.0
H639 H 0.09383 0.85888 0.96054 0.0
C640 C 0.07873 0.83519 0.14288 0.0
N641 N 0.07237 0.83768 0.10083 0.0
C642 C 0.08598 0.84499 0.1827 0.0
C643 C 0.0784 0.85896 0.1398 0.0
C644 C 0.07159 0.84902 0.09961 0.0
C645 C 0.08648 0.8573 0.17918 0.0
H646 H 0.07949 0.82625 0.14152 0.0
H647 H 0.06685 0.85091 0.06452 0.0
C648 C 0.07381 0.80259 0.89084 0.0
N649 N 0.0755 0.78095 0.85279 0.0
C650 C 0.0625 0.78989 0.89034 0.0
C651 C 0.08595 0.8043 0.87147 0.0
C652 C 0.06356 0.77908 0.871 0.0
C653 C 0.08661 0.79323 0.85259 0.0
C654 C 0.04558 0.8012 0.04463 0.0
C655 C 0.03756 0.78811 0.02585 0.0
C656 C 0.04009 0.80706 0.07865 0.0
C657 C 0.02411 0.78113 0.04102 0.0
C658 C 0.0266 0.79974 0.09299 0.0
N659 N 0.01896 0.78704 0.07399 0.0
C660 C 0.09315 0.8031 0.03357 0.0
C661 C 0.07141 0.78495 0.01732 0.0
C662 C 0.0973 0.79454 0.05443 0.0
N663 N 0.08045 0.79823 0.01516 0.0
C664 C 0.07515 0.77598 0.0379 0.0
C665 C 0.08823 0.78085 0.05683 0.0
H666 H 0.10003 0.81367 0.0335 0.0
H667 H 0.06127 0.78134 0.00394 0.0
C668 C 0.0445 0.80534 0.85288 0.0
N669 N 0.04271 0.80706 0.90808 0.0
C670 C 0.0339 0.80065 0.81525 0.0
C671 C 0.01973 0.79994 0.89121 0.0
C672 C 0.03064 0.80463 0.92759 0.0
C673 C 0.02137 0.79789 0.83442 0.0
H674 H 0.05425 0.80783 0.83765 0.0
H675 H 0.02952 0.80664 0.97087 0.0
O676 O 0.08796 0.82916 0.01747 0.0
O677 O 0.06707 0.83432 0.96457 0.0
O678 O 0.07301 0.81327 0.91065 0.0
O679 O 0.05879 0.80816 0.03075 0.0
H680 H 0.10071 0.85155 0.07562 0.0
H681 H 0.1052 0.82773 0.94872 0.0
H682 H 0.12465 0.86841 0.06487 0.0
H683 H 0.12903 0.84501 0.93963 0.0
H684 H 0.03042 0.83895 0.95592 0.0
H685 H 0.0681 0.83961 0.85608 0.0
H686 H 0.04632 0.83464 0.00916 0.0
H687 H 0.05179 0.84378 0.80549 0.0
H688 H 0.11001 0.87934 0.91048 0.0
H689 H 0.11187 0.8547 0.7788 0.0
H690 H 0.09205 0.84341 0.21291 0.0
H691 H 0.07858 0.86837 0.13639 0.0
H692 H 0.05303 0.78836 0.90548 0.0
H693 H 0.09478 0.81406 0.87095 0.0
H694 H 0.0549 0.76918 0.87077 0.0
H695 H 0.09596 0.79439 0.83774 0.0
H696 H 0.04163 0.78342 -0.00053 0.0
H697 H 0.04616 0.81717 0.09365 0.0
H698 H 0.01777 0.77102 0.02652 0.0
H699 H 0.02221 0.80416 0.11914 0.0
H700 H 0.10743 0.79856 0.06932 0.0
H701 H 0.06792 0.76544 0.03977 0.0
H702 H 0.03549 0.79933 0.77144 0.0
H703 H 0.01017 0.79807 0.90691 0.0
Li704 Li 0.18813 0.26124 0.99255 0.0
Li705 Li 0.18309 0.24096 0.94583 0.0
Li706 Li 0.16781 0.249 0.93773 0.0
Li707 Li 0.17026 0.24017 0.02591 0.0
C708 C 0.18932 0.26934 0.88188 0.0
N709 N 0.19533 0.29249 0.8251 0.0
C710 C 0.19584 0.27215 0.83008 0.0
C711 C 0.18587 0.27832 0.90483 0.0
C712 C 0.19878 0.2839 0.802 0.0
C713 C 0.189 0.28996 0.87549 0.0
C714 C 0.20282 0.24983 0.02776 0.0
C715 C 0.22128 0.25088 0.07898 0.0
N716 N 0.22944 0.2572 0.0347 0.0
C717 C 0.21139 0.25634 0.98275 0.0
C718 C 0.20779 0.24708 0.07626 0.0
C719 C 0.22481 0.25998 0.98708 0.0
C720 C 0.19764 0.28167 0.06914 0.0
N721 N 0.201 0.27824 0.01979 0.0
C722 C 0.22087 0.29947 0.01384 0.0
C723 C 0.21245 0.28672 0.99227 0.0
C724 C 0.21725 0.30345 0.06338 0.0
C725 C 0.20562 0.29433 0.09162 0.0
H726 H 0.18857 0.27462 0.09037 0.0
H727 H 0.21487 0.2837 0.95308 0.0
C728 C 0.18916 0.23358 0.84553 0.0
N729 N 0.19003 0.23221 0.90179 0.0
C730 C 0.1941 0.22789 0.808 0.0
C731 C 0.20057 0.21924 0.88701 0.0
C732 C 0.19551 0.22515 0.9232 0.0
C733 C 0.19992 0.22069 0.82877 0.0
H734 H 0.18465 0.23917 0.8299 0.0
H735 H 0.19601 0.22418 0.96817 0.0
C736 C 0.15875 0.25704 0.02923 0.0
N737 N 0.13606 0.25786 0.05805 0.0
C738 C 0.14616 0.24598 0.01976 0.0
C739 C 0.1598 0.2686 0.05257 0.0
C740 C 0.13481 0.24654 0.03505 0.0
C741 C 0.14821 0.26881 0.06682 0.0
C742 C 0.15947 0.21728 0.96214 0.0
C743 C 0.14885 0.20748 0.93108 0.0
C744 C 0.16606 0.21354 0.00097 0.0
C745 C 0.14502 0.19409 0.93922 0.0
C746 C 0.16194 0.20005 0.00786 0.0
N747 N 0.1516 0.19069 0.97709 0.0
C748 C 0.14902 0.23934 0.85258 0.0
C749 C 0.1512 0.25888 0.89491 0.0
C750 C 0.13836 0.23786 0.8201 0.0
N751 N 0.15505 0.24959 0.88962 0.0
C752 C 0.14044 0.25768 0.86379 0.0
C753 C 0.13387 0.24699 0.8264 0.0
H754 H 0.15233 0.23214 0.84926 0.0
H755 H 0.15618 0.26697 0.92448 0.0
C756 C 0.16775 0.23879 0.14124 0.0
N757 N 0.16119 0.23235 0.09375 0.0
C758 C 0.16059 0.23784 0.18982 0.0
C759 C 0.14024 0.22282 0.14066 0.0
C760 C 0.14782 0.22374 0.09356 0.0
C761 C 0.14662 0.2306 0.18808 0.0
H762 H 0.17835 0.24577 0.13963 0.0
H763 H 0.14287 0.21884 0.05501 0.0
O764 O 0.18654 0.2579 0.90979 0.0
O765 O 0.18961 0.2461 0.02482 0.0
O766 O 0.17 0.25693 0.01249 0.0
O767 O 0.16334 0.23042 0.95412 0.0
H768 H 0.19863 0.26534 0.81183 0.0
H769 H 0.18092 0.27643 0.94496 0.0
H770 H 0.20383 0.2862 0.76187 0.0
H771 H 0.18642 0.297 0.89285 0.0
H772 H 0.22526 0.24881 0.11629 0.0
H773 H 0.20777 0.25854 0.94477 0.0
H774 H 0.20127 0.24204 0.11145 0.0
H775 H 0.23155 0.265 0.95255 0.0
H776 H 0.22984 0.30631 0.99125 0.0
H777 H 0.2026 0.29711 0.13002 0.0
H778 H 0.19347 0.22914 0.76324 0.0
H779 H 0.20501 0.21369 0.90408 0.0
H780 H 0.14514 0.23717 -0.0005 0.0
H781 H 0.16945 0.27737 0.05904 0.0
H782 H 0.125 0.23803 0.02799 0.0
H783 H 0.14887 0.27769 0.08497 0.0
H784 H 0.14361 0.21019 0.90097 0.0
H785 H 0.17427 0.22093 0.02559 0.0
H786 H 0.13683 0.18641 0.91541 0.0
H787 H 0.16697 0.19703 0.03768 0.0
H788 H 0.13348 0.22956 0.79122 0.0
H789 H 0.1372 0.26491 0.86906 0.0
H790 H 0.16577 0.24393 0.22594 0.0
H791 H 0.12946 0.21711 0.13822 0.0
Li792 Li 0.94262 0.75973 0.54941 0.0
Li793 Li 0.9254 0.73886 0.51231 0.0
Li794 Li 0.92971 0.75927 0.46752 0.0
Li795 Li 0.91836 0.75334 0.55928 0.0
C796 C 0.95422 0.75935 0.44794 0.0
N797 N 0.97876 0.77434 0.39672 0.0
C798 C 0.96254 0.75397 0.43954 0.0
C799 C 0.95838 0.77232 0.42992 0.0
C800 C 0.97491 0.76171 0.41369 0.0
C801 C 0.97082 0.77975 0.40422 0.0
C802 C 0.92544 0.73305 0.61625 0.0
C803 C 0.91012 0.712 0.65905 0.0
N804 N 0.91985 0.70869 0.65963 0.0
C805 C 0.93532 0.72948 0.61746 0.0
C806 C 0.91275 0.72429 0.63732 0.0
C807 C 0.93228 0.7171 0.6395 0.0
C808 C 0.95894 0.77676 0.63248 0.0
N809 N 0.95856 0.7683 0.59195 0.0
C810 C 0.97892 0.77029 0.62538 0.0
C811 C 0.96826 0.76501 0.58756 0.0
C812 C 0.9794 0.77886 0.6681 0.0
C813 C 0.96938 0.78224 0.67114 0.0
H814 H 0.95089 0.7789 0.63582 0.0
H815 H 0.96748 0.75791 0.55621 0.0
C816 C 0.90645 0.71176 0.5021 0.0
N817 N 0.91965 0.72072 0.49648 0.0
C818 C 0.90134 0.69871 0.48321 0.0
C819 C 0.92359 0.70422 0.45507 0.0
C820 C 0.92827 0.7172 0.47446 0.0
C821 C 0.90993 0.69495 0.45849 0.0
H822 H 0.89983 0.71491 0.5194 0.0
H823 H 0.93869 0.72457 0.47021 0.0
C824 C 0.93847 0.78382 0.52718 0.0
N825 N 0.94783 0.81071 0.51126 0.0
C826 C 0.92958 0.78867 0.52538 0.0
C827 C 0.95215 0.79271 0.52184 0.0
C828 C 0.9345 0.80228 0.51704 0.0
C829 C 0.95667 0.80625 0.51353 0.0
C830 C 0.90123 0.74257 0.46254 0.0
C831 C 0.89798 0.7526 0.4685 0.0
C832 C 0.89315 0.73139 0.42965 0.0
C833 C 0.88654 0.75117 0.44239 0.0
C834 C 0.8819 0.73042 0.40351 0.0
N835 N 0.87883 0.74023 0.41052 0.0
C836 C 0.92083 0.75513 0.3596 0.0
C837 C 0.92996 0.77789 0.38412 0.0
C838 C 0.91429 0.75667 0.31369 0.0
N839 N 0.92769 0.76542 0.39573 0.0
C840 C 0.92399 0.78 0.33719 0.0
C841 C 0.91527 0.76905 0.30396 0.0
H842 H 0.91933 0.74537 0.36966 0.0
H843 H 0.93562 0.78598 0.41284 0.0
C844 C 0.91016 0.76625 0.63462 0.0
N845 N 0.90579 0.75481 0.60471 0.0
C846 C 0.90119 0.76841 0.66544 0.0
C847 C 0.88342 0.74682 0.63531 0.0
C848 C 0.89275 0.74509 0.60482 0.0
C849 C 0.88768 0.75864 0.66558 0.0
H850 H 0.92061 0.77375 0.63395 0.0
H851 H 0.88959 0.73609 0.58063 0.0
O852 O 0.94211 0.75189 0.47361 0.0
O853 O 0.92809 0.74491 0.59309 0.0
O854 O 0.93386 0.77053 0.53593 0.0
O855 O 0.91221 0.7436 0.48888 0.0
H856 H 0.95955 0.74398 0.45337 0.0
H857 H 0.95211 0.77664 0.43565 0.0
H858 H 0.98145 0.75769 0.40721 0.0
H859 H 0.97415 0.78981 0.39023 0.0
H860 H 0.90032 0.70508 0.67525 0.0
H861 H 0.94516 0.73613 0.60089 0.0
H862 H 0.905 0.7269 0.63633 0.0
H863 H 0.93979 0.71416 0.64042 0.0
H864 H 0.98649 0.76744 0.62247 0.0
H865 H 0.96946 0.78875 0.70398 0.0
H866 H 0.89074 0.69173 0.48618 0.0
H867 H 0.93042 0.70156 0.43597 0.0
H868 H 0.91899 0.78203 0.5303 0.0
H869 H 0.95922 0.78922 0.52411 0.0
H870 H 0.92772 0.80614 0.51526 0.0
H871 H 0.96722 0.81321 0.50903 0.0
H872 H 0.90416 0.76135 0.49336 0.0
H873 H 0.89558 0.72358 0.42406 0.0
H874 H 0.88383 0.75879 0.44732 0.0
H875 H 0.87558 0.72184 0.3778 0.0
H876 H 0.9078 0.74806 0.28836 0.0
H877 H 0.92512 0.78975 0.32999 0.0
H878 H 0.90473 0.77756 0.68906 0.0
H879 H 0.87304 0.73907 0.63528 0.0
Li880 Li 0.24265 0.18382 0.54828 0.0
Li881 Li 0.26444 0.18994 0.50792 0.0
Li882 Li 0.24443 0.1729 0.46775 0.0
Li883 Li 0.25059 0.1683 0.55686 0.0
C884 C 0.24285 0.19252 0.42979 0.0
N885 N 0.22808 0.19198 0.33778 0.0
C886 C 0.24916 0.19792 0.37866 0.0
C887 C 0.22904 0.18691 0.43428 0.0
C888 C 0.24151 0.19754 0.33258 0.0
C889 C 0.22174 0.18672 0.38724 0.0
C890 C 0.26142 0.19593 0.62779 0.0
C891 C 0.26137 0.20231 0.72409 0.0
N892 N 0.26583 0.21507 0.70724 0.0
C893 C 0.26593 0.20909 0.61135 0.0
C894 C 0.25908 0.19248 0.68454 0.0
C895 C 0.26811 0.21862 0.65218 0.0
C896 C 0.22651 0.18252 0.63656 0.0
N897 N 0.2331 0.19003 0.59112 0.0
C898 C 0.22795 0.20682 0.61762 0.0
C899 C 0.23384 0.20191 0.5806 0.0
C900 C 0.22138 0.1994 0.66559 0.0
C901 C 0.22054 0.18706 0.67469 0.0
H902 H 0.22629 0.17321 0.64406 0.0
H903 H 0.23934 0.20774 0.54452 0.0
C904 C 0.28484 0.20331 0.43288 0.0
N905 N 0.28212 0.20282 0.48861 0.0
C906 C 0.29789 0.21079 0.41359 0.0
C907 C 0.30514 0.21741 0.50943 0.0
C908 C 0.2919 0.20972 0.52698 0.0
C909 C 0.30818 0.21775 0.45223 0.0
H910 H 0.27691 0.19736 0.40374 0.0
H911 H 0.28951 0.20879 0.57123 0.0
C912 C 0.22447 0.15114 0.52675 0.0
N913 N 0.20817 0.12385 0.51781 0.0
C914 C 0.22911 0.14344 0.50042 0.0
C915 C 0.21153 0.14495 0.54843 0.0
C916 C 0.22073 0.12966 0.49649 0.0
C917 C 0.20343 0.13114 0.54336 0.0
C918 C 0.27167 0.17089 0.49063 0.0
C919 C 0.27569 0.16568 0.44674 0.0
C920 C 0.27934 0.17529 0.53961 0.0
C921 C 0.28732 0.16498 0.45253 0.0
C922 C 0.29091 0.17443 0.54375 0.0
N923 N 0.29463 0.16934 0.50049 0.0
C924 C 0.24831 0.16705 0.36171 0.0
C925 C 0.22526 0.15572 0.38411 0.0
C926 C 0.246 0.15883 0.31562 0.0
N927 N 0.23812 0.16488 0.39644 0.0
C928 C 0.22246 0.14729 0.33777 0.0
C929 C 0.23308 0.14838 0.30521 0.0
H930 H 0.2584 0.17448 0.37254 0.0
H931 H 0.21735 0.1542 0.41259 0.0
C932 C 0.24297 0.15261 0.65277 0.0
N933 N 0.24948 0.15445 0.60321 0.0
C934 C 0.23994 0.14155 0.68608 0.0
C935 C 0.25039 0.13448 0.6167 0.0
C936 C 0.25319 0.14566 0.58464 0.0
C937 C 0.24359 0.13233 0.66767 0.0
H938 H 0.23974 0.15951 0.6654 0.0
H939 H 0.25783 0.14699 0.54405 0.0
O940 O 0.25006 0.19242 0.475 0.0
O941 O 0.25916 0.18645 0.58838 0.0
O942 O 0.23262 0.16459 0.53348 0.0
O943 O 0.26048 0.17196 0.48468 0.0
H944 H 0.25984 0.20232 0.3745 0.0
H945 H 0.224 0.1826 0.4735 0.0
H946 H 0.24625 0.20163 0.29266 0.0
H947 H 0.21104 0.18235 0.38999 0.0
H948 H 0.25961 0.1998 0.76819 0.0
H949 H 0.26765 0.21187 0.56748 0.0
H950 H 0.25556 0.18234 0.69792 0.0
H951 H 0.27159 0.22884 0.6401 0.0
H952 H 0.22879 0.21642 0.60981 0.0
H953 H 0.21558 0.18118 0.71154 0.0
H954 H 0.30002 0.21076 0.36931 0.0
H955 H 0.31297 0.22257 0.54015 0.0
H956 H 0.23909 0.14802 0.48345 0.0
H957 H 0.20783 0.15075 0.56928 0.0
H958 H 0.22423 0.12357 0.47667 0.0
H959 H 0.1934 0.12622 0.56 0.0
H960 H 0.26989 0.16223 0.40852 0.0
H961 H 0.27646 0.17937 0.57409 0.0
H962 H 0.29054 0.16098 0.41884 0.0
H963 H 0.29695 0.17783 0.58133 0.0
H964 H 0.25437 0.15996 0.29094 0.0
H965 H 0.21236 0.13932 0.33037 0.0
H966 H 0.23464 0.14007 0.72528 0.0
H967 H 0.25325 0.12746 0.60151 0.0
Li968 Li 0.82938 0.07026 0.4643 0.0
Li969 Li 0.83394 0.08224 0.55861 0.0
Li970 Li 0.81691 0.05939 0.54803 0.0
Li971 Li 0.81323 0.07556 0.50621 0.0
C972 C 0.8392 0.05883 0.56522 0.0
N973 N 0.84395 0.04147 0.62722 0.0
C974 C 0.84316 0.06164 0.62134 0.0
C975 C 0.83781 0.04727 0.54044 0.0
C976 C 0.84547 0.05272 0.65203 0.0
C977 C 0.84021 0.03859 0.57255 0.0
C978 C 0.83181 0.0992 0.46629 0.0
C979 C 0.8348 0.12099 0.48495 0.0
N980 N 0.8319 0.12191 0.43037 0.0
C981 C 0.82867 0.10028 0.41064 0.0
C982 C 0.83485 0.1096 0.5039 0.0
C983 C 0.82891 0.1119 0.39313 0.0
C984 C 0.83347 0.0727 0.34755 0.0
N985 N 0.83893 0.07236 0.39759 0.0
C986 C 0.86092 0.08517 0.36075 0.0
C987 C 0.85231 0.07786 0.40429 0.0
C988 C 0.8556 0.08683 0.31061 0.0
C989 C 0.84173 0.0799 0.30277 0.0
H990 H 0.82282 0.06869 0.34441 0.0
H991 H 0.85631 0.07783 0.44529 0.0
C992 C 0.84705 0.09664 0.65692 0.0
N993 N 0.84821 0.09531 0.60086 0.0
C994 C 0.85811 0.10582 0.68775 0.0
C995 C 0.87119 0.11216 0.6023 0.0
C996 C 0.8599 0.10281 0.57319 0.0
C997 C 0.87033 0.11359 0.66028 0.0
H998 H 0.83762 0.09042 0.67767 0.0
H999 H 0.86046 0.10141 0.52856 0.0
C1000 C 0.80382 0.04628 0.44742 0.0
N1001 N 0.79158 0.0211 0.40044 0.0
C1002 C 0.78992 0.03863 0.44559 0.0
C1003 C 0.81149 0.04121 0.42456 0.0
C1004 C 0.78392 0.02589 0.4219 0.0
C1005 C 0.80512 0.02843 0.4012 0.0
C1006 C 0.80345 0.06925 0.61346 0.0
C1007 C 0.79192 0.05895 0.58902 0.0
C1008 C 0.80258 0.07475 0.66439 0.0
C1009 C 0.77969 0.0543 0.61605 0.0
C1010 C 0.79016 0.06983 0.69013 0.0
N1011 N 0.77907 0.05979 0.66563 0.0
C1012 C 0.81108 0.0461 0.6496 0.0
C1013 C 0.803 0.03081 0.5737 0.0
C1014 C 0.80643 0.03571 0.68824 0.0
N1015 N 0.80929 0.04354 0.59351 0.0
C1016 C 0.7981 0.02007 0.61105 0.0
C1017 C 0.79985 0.02255 0.6689 0.0
H1018 H 0.81632 0.05629 0.66435 0.0
H1019 H 0.80188 0.02891 0.52923 0.0
C1020 C 0.79419 0.07627 0.43588 0.0
N1021 N 0.80116 0.08132 0.48426 0.0
C1022 C 0.78651 0.0814 0.4138 0.0
C1023 C 0.79311 0.09662 0.49247 0.0
C1024 C 0.80058 0.09113 0.51329 0.0
C1025 C 0.78619 0.09189 0.44167 0.0
H1026 H 0.79498 0.06858 0.41344 0.0
H1027 H 0.80633 0.09501 0.5514 0.0
O1028 O 0.83657 0.06729 0.53496 0.0
O1029 O 0.83193 0.08803 0.48388 0.0
O1030 O 0.80983 0.05881 0.46992 0.0
O1031 O 0.81558 0.07396 0.58799 0.0
H1032 H 0.84426 0.07052 0.64126 0.0
H1033 H 0.83487 0.04497 0.49699 0.0
H1034 H 0.84844 0.05472 0.69563 0.0
H1035 H 0.83909 0.02956 0.55402 0.0
H1036 H 0.8371 0.1291 0.5136 0.0
H1037 H 0.82616 0.09226 0.38116 0.0
H1038 H 0.83714 0.10886 0.54732 0.0
H1039 H 0.82669 0.11295 0.34994 0.0
H1040 H 0.87158 0.09056 0.36807 0.0
H1041 H 0.83739 0.0812 0.26471 0.0
H1042 H 0.85719 0.1068 0.73253 0.0
H1043 H 0.88049 0.11811 0.58009 0.0
H1044 H 0.78382 0.04248 0.46222 0.0
H1045 H 0.82223 0.04704 0.42486 0.0
H1046 H 0.77317 0.01983 0.42046 0.0
H1047 H 0.81093 0.02436 0.38364 0.0
H1048 H 0.79241 0.05457 0.54976 0.0
H1049 H 0.81143 0.08273 0.68383 0.0
H1050 H 0.77069 0.04632 0.59762 0.0
H1051 H 0.78934 0.07399 0.72959 0.0
H1052 H 0.80797 0.03788 0.73274 0.0
H1053 H 0.79311 0.00997 0.59509 0.0
H1054 H 0.78129 0.07758 0.37444 0.0
H1055 H 0.79304 0.10474 0.51476 0.0
Li1056 Li 0.91581 0.41333 0.39988 0.0
Li1057 Li 0.90666 0.3891 0.38131 0.0
Li1058 Li 0.92951 0.40609 0.34577 0.0
Li1059 Li 0.9099 0.4048 0.30889 0.0
C1060 C 0.9232 0.40097 0.48242 0.0
N1061 N 0.92327 0.3995 0.5982 0.0
C1062 C 0.91134 0.3963 0.51249 0.0
C1063 C 0.93512 0.40492 0.51121 0.0
C1064 C 0.91158 0.39564 0.571 0.0
C1065 C 0.93494 0.40409 0.56977 0.0
C1066 C 0.88695 0.39863 0.34783 0.0
C1067 C 0.86714 0.38596 0.29213 0.0
N1068 N 0.86547 0.39677 0.28955 0.0
C1069 C 0.885 0.40959 0.34495 0.0
C1070 C 0.87794 0.3867 0.32144 0.0
C1071 C 0.87409 0.40845 0.31514 0.0
C1072 C 0.92343 0.43811 0.45988 0.0
N1073 N 0.91417 0.42502 0.45229 0.0
C1074 C 0.89859 0.42738 0.5102 0.0
C1075 C 0.902 0.41957 0.47736 0.0
C1076 C 0.90786 0.4409 0.5176 0.0
C1077 C 0.92047 0.44626 0.49281 0.0
H1078 H 0.93297 0.44242 0.43943 0.0
H1079 H 0.89471 0.40922 0.47031 0.0
C1080 C 0.90365 0.36565 0.42879 0.0
N1081 N 0.89707 0.37231 0.41697 0.0
C1082 C 0.89807 0.35482 0.46563 0.0
C1083 C 0.87886 0.35769 0.47568 0.0
C1084 C 0.88479 0.36843 0.43855 0.0
C1085 C 0.88571 0.35101 0.49042 0.0
H1086 H 0.91354 0.36921 0.41204 0.0
H1087 H 0.87998 0.37418 0.42973 0.0
C1088 C 0.93801 0.43272 0.34406 0.0
N1089 N 0.96173 0.45579 0.36734 0.0
C1090 C 0.94168 0.44438 0.31368 0.0
C1091 C 0.94651 0.43282 0.38612 0.0
C1092 C 0.95366 0.45595 0.32624 0.0
C1093 C 0.95844 0.44456 0.3972 0.0
C1094 C 0.91022 0.38394 0.25735 0.0
C1095 C 0.91756 0.38914 0.20804 0.0
C1096 C 0.89829 0.37175 0.25594 0.0
C1097 C 0.9127 0.38213 0.15775 0.0
C1098 C 0.89378 0.36504 0.20482 0.0
N1099 N 0.90101 0.37034 0.1572 0.0
C1100 C 0.95453 0.40631 0.3563 0.0
C1101 C 0.95116 0.41639 0.27595 0.0
C1102 C 0.96753 0.41027 0.33873 0.0
N1103 N 0.94676 0.40957 0.32499 0.0
C1104 C 0.964 0.42056 0.25705 0.0
C1105 C 0.97237 0.41765 0.28895 0.0
H1106 H 0.95075 0.40091 0.39524 0.0
H1107 H 0.94475 0.41891 0.25228 0.0
C1108 C 0.9072 0.42222 0.24343 0.0
N1109 N 0.90342 0.40907 0.24256 0.0
C1110 C 0.90488 0.42815 0.19759 0.0
C1111 C 0.89378 0.40669 0.15138 0.0
C1112 C 0.8964 0.40113 0.19855 0.0
C1113 C 0.89842 0.42044 0.1505 0.0
H1114 H 0.91211 0.42817 0.27993 0.0
H1115 H 0.89298 0.3906 0.1995 0.0
O1116 O 0.92323 0.40178 0.42511 0.0
O1117 O 0.89783 0.39969 0.37509 0.0
O1118 O 0.92654 0.42119 0.33029 0.0
O1119 O 0.9149 0.39049 0.30717 0.0
H1120 H 0.90205 0.39329 0.49095 0.0
H1121 H 0.9444 0.40858 0.48856 0.0
H1122 H 0.90246 0.39205 0.59479 0.0
H1123 H 0.94409 0.4071 0.59261 0.0
H1124 H 0.86012 0.37682 0.27123 0.0
H1125 H 0.89196 0.41895 0.36464 0.0
H1126 H 0.87934 0.37816 0.32307 0.0
H1127 H 0.87252 0.41688 0.31212 0.0
H1128 H 0.88877 0.42298 0.52896 0.0
H1129 H 0.92782 0.4567 0.49799 0.0
H1130 H 0.90359 0.34988 0.47673 0.0
H1131 H 0.86935 0.35499 0.49468 0.0
H1132 H 0.9354 0.44451 0.28034 0.0
H1133 H 0.944 0.42397 0.41006 0.0
H1134 H 0.95659 0.46503 0.30305 0.0
H1135 H 0.96508 0.44474 0.42956 0.0
H1136 H 0.92684 0.39851 0.2085 0.0
H1137 H 0.8926 0.36751 0.29394 0.0
H1138 H 0.91823 0.38607 0.11917 0.0
H1139 H 0.88455 0.35563 0.20303 0.0
H1140 H 0.97383 0.40792 0.36417 0.0
H1141 H 0.96751 0.42628 0.21858 0.0
H1142 H 0.90833 0.43874 0.19844 0.0
H1143 H 0.88854 0.40048 0.11567 0.0
Li1144 Li 0.60882 0.51608 0.38417 0.0
Li1145 Li 0.58544 0.49885 0.39185 0.0
Li1146 Li 0.59752 0.50413 0.29842 0.0
Li1147 Li 0.5919 0.51962 0.3411 0.0
C1148 C 0.60698 0.48951 0.37254 0.0
N1149 N 0.61965 0.47472 0.38147 0.0
C1150 C 0.60557 0.48216 0.42124 0.0
C1151 C 0.61465 0.48911 0.32801 0.0
C1152 C 0.6121 0.47481 0.42504 0.0
C1153 C 0.62102 0.48164 0.33345 0.0
C1154 C 0.59489 0.51701 0.47971 0.0
C1155 C 0.59349 0.52496 0.57165 0.0
N1156 N 0.59719 0.51659 0.59508 0.0
C1157 C 0.59866 0.50849 0.50471 0.0
C1158 C 0.59229 0.52532 0.51338 0.0
C1159 C 0.59978 0.50842 0.56307 0.0
C1160 C 0.62778 0.53642 0.45142 0.0
N1161 N 0.62469 0.52445 0.42858 0.0
C1162 C 0.64186 0.52387 0.48193 0.0
C1163 C 0.6316 0.51821 0.44245 0.0
C1164 C 0.64494 0.53599 0.50728 0.0
C1165 C 0.63793 0.5424 0.49127 0.0
H1166 H 0.622 0.54106 0.44015 0.0
H1167 H 0.62899 0.50871 0.4241 0.0
C1168 C 0.5711 0.47226 0.42357 0.0
N1169 N 0.57239 0.48439 0.43389 0.0
C1170 C 0.56213 0.46115 0.45452 0.0
C1171 C 0.55548 0.47512 0.50424 0.0
C1172 C 0.56475 0.48602 0.47284 0.0
C1173 C 0.55425 0.46257 0.49548 0.0
H1174 H 0.57718 0.47126 0.39167 0.0
H1175 H 0.56593 0.49578 0.47979 0.0
C1176 C 0.62077 0.52845 0.27773 0.0
N1177 N 0.64393 0.53784 0.21578 0.0
C1178 C 0.6236 0.53769 0.23466 0.0
C1179 C 0.62977 0.52408 0.28956 0.0
C1180 C 0.63534 0.54229 0.20373 0.0
C1181 C 0.64141 0.52892 0.25772 0.0
C1182 C 0.56888 0.50109 0.29484 0.0
C1183 C 0.56798 0.5021 0.23673 0.0
C1184 C 0.55873 0.50016 0.32952 0.0
C1185 C 0.55689 0.50218 0.21418 0.0
C1186 C 0.54779 0.50027 0.30534 0.0
N1187 N 0.5471 0.50125 0.24866 0.0
C1188 C 0.58568 0.48264 0.23224 0.0
C1189 C 0.60125 0.50149 0.17991 0.0
C1190 C 0.57957 0.4758 0.18322 0.0
N1191 N 0.5959 0.49541 0.22972 0.0
C1192 C 0.59559 0.49484 0.12946 0.0
C1193 C 0.58414 0.48216 0.13137 0.0
H1194 H 0.58148 0.47824 0.27256 0.0
H1195 H 0.60912 0.51179 0.17913 0.0
C1196 C 0.58004 0.53589 0.35612 0.0
N1197 N 0.58605 0.53158 0.31938 0.0
C1198 C 0.57462 0.54358 0.33695 0.0
C1199 C 0.58181 0.54227 0.2429 0.0
C1200 C 0.58718 0.53474 0.26392 0.0
C1201 C 0.57534 0.54664 0.2796 0.0
H1202 H 0.57912 0.53304 0.39983 0.0
H1203 H 0.59184 0.53097 0.2357 0.0
O1204 O 0.60057 0.49669 0.36778 0.0
O1205 O 0.59389 0.51738 0.42255 0.0
O1206 O 0.60927 0.52383 0.30808 0.0
O1207 O 0.57967 0.50102 0.31766 0.0
H1208 H 0.59948 0.48207 0.4558 0.0
H1209 H 0.61565 0.49448 0.28951 0.0
H1210 H 0.61115 0.46914 0.46258 0.0
H1211 H 0.62703 0.48132 0.29941 0.0
H1212 H 0.59151 0.53134 0.59823 0.0
H1213 H 0.6008 0.5021 0.47927 0.0
H1214 H 0.5894 0.53202 0.49468 0.0
H1215 H 0.60274 0.5019 0.58291 0.0
H1216 H 0.64716 0.51872 0.49352 0.0
H1217 H 0.64011 0.55177 0.51029 0.0
H1218 H 0.56139 0.45158 0.44697 0.0
H1219 H 0.54953 0.47649 0.53573 0.0
H1220 H 0.61677 0.54123 0.22509 0.0
H1221 H 0.62783 0.51708 0.323 0.0
H1222 H 0.63763 0.5494 0.17015 0.0
H1223 H 0.64844 0.52558 0.26641 0.0
H1224 H 0.57582 0.50292 0.20945 0.0
H1225 H 0.55933 0.49944 0.37461 0.0
H1226 H 0.55607 0.50299 0.16928 0.0
H1227 H 0.53987 0.4996 0.33164 0.0
H1228 H 0.57079 0.46598 0.18587 0.0
H1229 H 0.59932 0.49994 0.08981 0.0
H1230 H 0.56956 0.54675 0.36604 0.0
H1231 H 0.58239 0.5444 0.19838 0.0
Li1232 Li 0.50011 0.08581 0.39836 0.0
Li1233 Li 0.48234 0.09212 0.38553 0.0
Li1234 Li 0.47852 0.07092 0.35416 0.0
Li1235 Li 0.49384 0.09028 0.3024 0.0
C1236 C 0.47341 0.0667 0.46084 0.0
N1237 N 0.45526 0.04342 0.51388 0.0
C1238 C 0.45992 0.06294 0.46211 0.0
C1239 C 0.47771 0.0587 0.48679 0.0
C1240 C 0.45089 0.05111 0.48906 0.0
C1241 C 0.46837 0.04695 0.51336 0.0
C1242 C 0.5086 0.11589 0.37319 0.0
C1243 C 0.51556 0.13796 0.33838 0.0
N1244 N 0.5228 0.14325 0.38599 0.0
C1245 C 0.51627 0.12154 0.42138 0.0
C1246 C 0.50837 0.12416 0.33098 0.0
C1247 C 0.52331 0.1354 0.42724 0.0
C1248 C 0.52581 0.09004 0.41191 0.0
N1249 N 0.51492 0.08839 0.44048 0.0
C1250 C 0.52607 0.09154 0.52811 0.0
C1251 C 0.51483 0.08915 0.49737 0.0
C1252 C 0.53739 0.09315 0.49969 0.0
C1253 C 0.53724 0.09238 0.44098 0.0
H1254 H 0.52558 0.08955 0.36653 0.0
H1255 H 0.50604 0.08794 0.51868 0.0
C1256 C 0.46208 0.09799 0.41723 0.0
N1257 N 0.47489 0.10098 0.42587 0.0
C1258 C 0.45614 0.10301 0.45345 0.0
C1259 C 0.47675 0.11418 0.50608 0.0
C1260 C 0.48224 0.10889 0.46918 0.0
C1261 C 0.4635 0.11106 0.4988 0.0
H1262 H 0.45632 0.09129 0.38362 0.0
H1263 H 0.49215 0.11059 0.47662 0.0
C1264 C 0.49644 0.06621 0.294 0.0
N1265 N 0.49634 0.04727 0.22318 0.0
C1266 C 0.48809 0.06184 0.24708 0.0
C1267 C 0.50462 0.06081 0.30537 0.0
C1268 C 0.48826 0.05235 0.21151 0.0
C1269 C 0.50442 0.05124 0.26905 0.0
C1270 C 0.47029 0.08922 0.27416 0.0
C1271 C 0.46273 0.08208 0.22764 0.0
C1272 C 0.47377 0.10255 0.28087 0.0
C1273 C 0.45882 0.08843 0.18844 0.0
C1274 C 0.46966 0.10855 0.2408 0.0
N1275 N 0.46234 0.10143 0.19578 0.0
C1276 C 0.45419 0.04926 0.31657 0.0
C1277 C 0.46901 0.04317 0.35801 0.0
C1278 C 0.44566 0.03611 0.29983 0.0
N1279 N 0.46574 0.05255 0.34387 0.0
C1280 C 0.46075 0.0299 0.34235 0.0
C1281 C 0.44911 0.02637 0.31174 0.0
H1282 H 0.45188 0.05694 0.30581 0.0
H1283 H 0.47834 0.04611 0.37915 0.0
C1284 C 0.51616 0.10374 0.23803 0.0
N1285 N 0.50269 0.09643 0.23275 0.0
C1286 C 0.52433 0.10438 0.19385 0.0
C1287 C 0.50463 0.09081 0.13813 0.0
C1288 C 0.4968 0.09059 0.18325 0.0
C1289 C 0.5185 0.0972 0.14462 0.0
H1290 H 0.52053 0.10786 0.27844 0.0
H1291 H 0.48609 0.08452 0.18064 0.0
O1292 O 0.48233 0.07807 0.43355 0.0
O1293 O 0.50179 0.10235 0.36649 0.0
O1294 O 0.49648 0.07554 0.32927 0.0
O1295 O 0.47427 0.08313 0.31256 0.0
H1296 H 0.45646 0.06904 0.44198 0.0
H1297 H 0.48812 0.06147 0.4859 0.0
H1298 H 0.4404 0.04802 0.49012 0.0
H1299 H 0.47152 0.04061 0.5334 0.0
H1300 H 0.51544 0.14448 0.30615 0.0
H1301 H 0.51671 0.11528 0.45407 0.0
H1302 H 0.50284 0.11997 0.29263 0.0
H1303 H 0.5292 0.1399 0.46451 0.0
H1304 H 0.52592 0.09202 0.57351 0.0
H1305 H 0.54583 0.09352 0.41811 0.0
H1306 H 0.44584 0.10033 0.44729 0.0
H1307 H 0.48259 0.12024 0.54117 0.0
H1308 H 0.4814 0.06561 0.2387 0.0
H1309 H 0.51104 0.06398 0.34189 0.0
H1310 H 0.48191 0.04895 0.17484 0.0
H1311 H 0.51072 0.047 0.27724 0.0
H1312 H 0.46002 0.07176 0.22159 0.0
H1313 H 0.47956 0.10822 0.31663 0.0
H1314 H 0.45301 0.08304 0.15214 0.0
H1315 H 0.4723 0.11887 0.24549 0.0
H1316 H 0.43676 0.03365 0.276 0.0
H1317 H 0.46369 0.02259 0.35177 0.0
H1318 H 0.53502 0.10925 0.20011 0.0
H1319 H 0.49988 0.08507 0.10071 0.0
Li1320 Li 0.74297 0.59547 0.81982 0.0
Li1321 Li 0.73659 0.57405 0.869 0.0
Li1322 Li 0.74719 0.57789 0.77623 0.0
Li1323 Li 0.72513 0.57374 0.78523 0.0
C1324 C 0.76739 0.592 0.84485 0.0
N1325 N 0.79374 0.5985 0.83734 0.0
C1326 C 0.7714 0.58329 0.86571 0.0
C1327 C 0.77675 0.60402 0.82014 0.0
C1328 C 0.78478 0.58675 0.86151 0.0
C1329 C 0.79004 0.60713 0.8168 0.0
C1330 C 0.71913 0.58107 0.90608 0.0
C1331 C 0.70028 0.56797 0.96629 0.0
N1332 N 0.70616 0.57722 0.0076 0.0
C1333 C 0.7249 0.59053 0.94884 0.0
C1334 C 0.70665 0.56977 0.91459 0.0
C1335 C 0.71822 0.58837 -2e-05 0.0
C1336 C 0.74777 0.62229 0.80515 0.0
N1337 N 0.7502 0.61385 0.83604 0.0
C1338 C 0.76374 0.63129 0.90017 0.0
C1339 C 0.75799 0.61808 0.88272 0.0
C1340 C 0.76139 0.64018 0.86927 0.0
C1341 C 0.75332 0.63564 0.82121 0.0
H1342 H 0.74154 0.61868 0.76826 0.0
H1343 H 0.7597 0.61114 0.9066 0.0
C1344 C 0.73645 0.55611 0.95223 0.0
N1345 N 0.73876 0.56862 0.94122 0.0
C1346 C 0.74319 0.55404 0.9964 0.0
C1347 C 0.75394 0.57757 0.01796 0.0
C1348 C 0.74685 0.57915 0.97437 0.0
C1349 C 0.75263 0.56505 0.02736 0.0
H1350 H 0.73046 0.54804 0.92375 0.0
H1351 H 0.74895 0.58904 0.96312 0.0
C1352 C 0.73497 0.58841 0.68999 0.0
N1353 N 0.72448 0.5883 0.58571 0.0
C1354 C 0.7368 0.58172 0.64505 0.0
C1355 C 0.72775 0.59497 0.68198 0.0
C1356 C 0.73138 0.58175 0.59268 0.0
C1357 C 0.72258 0.59486 0.62887 0.0
C1358 C 0.72198 0.54886 0.79815 0.0
C1359 C 0.72236 0.54144 0.75263 0.0
C1360 C 0.71132 0.54308 0.83575 0.0
C1361 C 0.71188 0.52842 0.74481 0.0
C1362 C 0.70103 0.53003 0.82653 0.0
N1363 N 0.70151 0.52304 0.78158 0.0
C1364 C 0.76008 0.56379 0.74841 0.0
C1365 C 0.76786 0.58398 0.69761 0.0
C1366 C 0.76899 0.56105 0.72026 0.0
N1367 N 0.7596 0.57502 0.7362 0.0
C1368 C 0.7769 0.58161 0.66829 0.0
C1369 C 0.77742 0.56999 0.67949 0.0
H1370 H 0.7535 0.55697 0.78 0.0
H1371 H 0.76733 0.59288 0.68937 0.0
C1372 C 0.69883 0.56837 0.75699 0.0
N1373 N 0.70872 0.56572 0.74414 0.0
C1374 C 0.68756 0.56359 0.72253 0.0
C1375 C 0.69685 0.55338 0.66289 0.0
C1376 C 0.70788 0.55835 0.69827 0.0
C1377 C 0.68662 0.55611 0.67466 0.0
H1378 H 0.69988 0.57453 0.79292 0.0
H1379 H 0.71605 0.55677 0.68778 0.0
O1380 O 0.75425 0.58853 0.84682 0.0
O1381 O 0.72555 0.58297 0.85581 0.0
O1382 O 0.74041 0.5887 0.74129 0.0
O1383 O 0.73214 0.56163 0.80636 0.0
H1384 H 0.76417 0.57386 0.88397 0.0
H1385 H 0.77376 0.61079 0.80315 0.0
H1386 H 0.78801 0.58007 0.87712 0.0
H1387 H 0.79741 0.61638 0.79764 0.0
H1388 H 0.69064 0.55924 0.97351 0.0
H1389 H 0.73446 0.59942 0.94272 0.0
H1390 H 0.70188 0.56251 0.88148 0.0
H1391 H 0.72262 0.59557 0.03359 0.0
H1392 H 0.76996 0.63456 0.93735 0.0
H1393 H 0.75141 0.64236 0.7965 0.0
H1394 H 0.74208 0.54427 0.00263 0.0
H1395 H 0.76119 0.58624 0.04107 0.0
H1396 H 0.74223 0.57646 0.65062 0.0
H1397 H 0.72605 0.60001 0.71649 0.0
H1398 H 0.73267 0.57657 0.55759 0.0
H1399 H 0.71698 0.59992 0.62204 0.0
H1400 H 0.73059 0.54575 0.72327 0.0
H1401 H 0.71105 0.54857 0.87191 0.0
H1402 H 0.71198 0.5226 0.7095 0.0
H1403 H 0.69268 0.52546 0.85521 0.0
H1404 H 0.7692 0.552 0.72952 0.0
H1405 H 0.78331 0.58865 0.63683 0.0
H1406 H 0.67985 0.56596 0.73221 0.0
H1407 H 0.69646 0.54778 0.62581 0.0
Li1408 Li 0.39938 0.14464 0.81515 0.0
Li1409 Li 0.41986 0.16098 0.85711 0.0
Li1410 Li 0.41463 0.16508 0.76675 0.0
Li1411 Li 0.42162 0.14845 0.77969 0.0
C1412 C 0.39705 0.16256 0.88107 0.0
N1413 N 0.38246 0.16181 0.97432 0.0
C1414 C 0.39518 0.15393 0.92556 0.0
C1415 C 0.39153 0.17086 0.88421 0.0
C1416 C 0.38777 0.15368 0.97226 0.0
C1417 C 0.38417 0.17032 0.93165 0.0
C1418 C 0.41866 0.13747 0.89432 0.0
C1419 C 0.4374 0.13577 0.92793 0.0
N1420 N 0.43044 0.12959 0.97511 0.0
C1421 C 0.41164 0.13097 0.94296 0.0
C1422 C 0.43159 0.13977 0.88654 0.0
C1423 C 0.41779 0.12711 0.98336 0.0
C1424 C 0.37817 0.12112 0.86153 0.0
N1425 N 0.38128 0.13209 0.83009 0.0
C1426 C 0.35883 0.12762 0.83444 0.0
C1427 C 0.37192 0.13535 0.81562 0.0
C1428 C 0.35548 0.11659 0.86908 0.0
C1429 C 0.36523 0.1132 0.88194 0.0
H1430 H 0.38586 0.11885 0.87269 0.0
H1431 H 0.37478 0.14432 0.79175 0.0
C1432 C 0.42681 0.18248 0.92169 0.0
N1433 N 0.42692 0.17082 0.92505 0.0
C1434 C 0.42912 0.19033 0.9689 0.0
C1435 C 0.43241 0.1745 0.02271 0.0
C1436 C 0.42999 0.16685 0.9739 0.0
C1437 C 0.43155 0.18615 0.02031 0.0
H1438 H 0.42416 0.18532 0.88268 0.0
H1439 H 0.43002 0.15757 0.97586 0.0
C1440 C 0.40402 0.14909 0.68258 0.0
N1441 N 0.40099 0.15563 0.57414 0.0
C1442 C 0.4133 0.15077 0.64124 0.0
C1443 C 0.39316 0.15065 0.66872 0.0
C1444 C 0.41159 0.15408 0.58665 0.0
C1445 C 0.39182 0.154 0.61369 0.0
C1446 C 0.4432 0.17858 0.81254 0.0
C1447 C 0.44495 0.1914 0.8079 0.0
C1448 C 0.45291 0.17681 0.83964 0.0
C1449 C 0.45628 0.20218 0.83118 0.0
C1450 C 0.4641 0.18785 0.86239 0.0
N1451 N 0.46553 0.2002 0.85778 0.0
C1452 C 0.40819 0.18393 0.72554 0.0
C1453 C 0.4264 0.18386 0.68019 0.0
C1454 C 0.41036 0.1951 0.69489 0.0
N1455 N 0.41628 0.1787 0.71813 0.0
C1456 C 0.42889 0.19498 0.64843 0.0
C1457 C 0.4209 0.20077 0.65636 0.0
H1458 H 0.40024 0.17959 0.75603 0.0
H1459 H 0.43276 0.17955 0.67589 0.0
C1460 C 0.42255 0.12768 0.72348 0.0
N1461 N 0.43013 0.14049 0.74117 0.0
C1462 C 0.42783 0.12222 0.68617 0.0
C1463 C 0.44872 0.14312 0.68764 0.0
C1464 C 0.44302 0.1482 0.72468 0.0
C1465 C 0.44098 0.13009 0.66724 0.0
H1466 H 0.41224 0.12193 0.73639 0.0
H1467 H 0.44867 0.15845 0.73838 0.0
O1468 O 0.40442 0.1631 0.83499 0.0
O1469 O 0.41278 0.14126 0.85406 0.0
O1470 O 0.40574 0.14627 0.73665 0.0
O1471 O 0.43207 0.16784 0.79059 0.0
H1472 H 0.39944 0.14753 0.92419 0.0
H1473 H 0.39294 0.1777 0.85052 0.0
H1474 H 0.38626 0.14703 0.00691 0.0
H1475 H 0.37985 0.17669 0.93457 0.0
H1476 H 0.44743 0.13755 0.92245 0.0
H1477 H 0.40157 0.12894 0.94971 0.0
H1478 H 0.43709 0.14454 0.84889 0.0
H1479 H 0.4125 0.12214 0.02129 0.0
H1480 H 0.35152 0.13051 0.82416 0.0
H1481 H 0.36292 0.10477 0.9088 0.0
H1482 H 0.42841 0.19928 0.96587 0.0
H1483 H 0.43432 0.1711 0.06212 0.0
H1484 H 0.42182 0.1497 0.65124 0.0
H1485 H 0.38594 0.14948 0.70031 0.0
H1486 H 0.41873 0.15547 0.55429 0.0
H1487 H 0.38352 0.15534 0.60245 0.0
H1488 H 0.43755 0.19301 0.78756 0.0
H1489 H 0.45185 0.16704 0.84322 0.0
H1490 H 0.45769 0.21212 0.82829 0.0
H1491 H 0.47164 0.1866 0.8837 0.0
H1492 H 0.404 0.19936 0.70144 0.0
H1493 H 0.43707 0.19917 0.61874 0.0
H1494 H 0.42163 0.11215 0.67081 0.0
H1495 H 0.45887 0.14942 0.67343 0.0
Li1496 Li 0.83634 0.26004 0.85985 0.0
Li1497 Li 0.85437 0.25781 0.82422 0.0
Li1498 Li 0.84835 0.27436 0.78279 0.0
Li1499 Li 0.83307 0.24969 0.77195 0.0
C1500 C 0.85772 0.28137 0.90575 0.0
N1501 N 0.86225 0.29618 0.00247 0.0
C1502 C 0.85969 0.27667 0.95683 0.0
C1503 C 0.85819 0.29365 0.90366 0.0
C1504 C 0.86192 0.28429 0.00534 0.0
C1505 C 0.86047 0.30099 0.95308 0.0
C1506 C 0.83617 0.23153 0.83845 0.0
C1507 C 0.8397 0.21606 0.78353 0.0
N1508 N 0.83634 0.20784 0.82876 0.0
C1509 C 0.83274 0.22291 0.88436 0.0
C1510 C 0.83967 0.22808 0.78761 0.0
C1511 C 0.83289 0.21098 0.87863 0.0
C1512 C 0.81728 0.24384 0.93336 0.0
N1513 N 0.82611 0.25706 0.92718 0.0
C1514 C 0.8191 0.26176 0.01466 0.0
C1515 C 0.8269 0.2661 0.96587 0.0
C1516 C 0.81052 0.24805 0.02281 0.0
C1517 C 0.80946 0.2391 0.98113 0.0
H1518 H 0.81631 0.23687 0.90111 0.0
H1519 H 0.83358 0.27661 0.95928 0.0
C1520 C 0.87865 0.2569 0.81192 0.0
N1521 N 0.86807 0.2543 0.84517 0.0
C1522 C 0.88771 0.25293 0.82896 0.0
C1523 C 0.87499 0.24416 0.91451 0.0
C1524 C 0.86628 0.24834 0.89607 0.0
C1525 C 0.8857 0.24625 0.88035 0.0
H1526 H 0.8799 0.2618 0.77192 0.0
H1527 H 0.85784 0.24651 0.92173 0.0
C1528 C 0.81915 0.26519 0.81705 0.0
N1529 N 0.7998 0.26786 0.87356 0.0
C1530 C 0.80631 0.25425 0.82275 0.0
C1531 C 0.82213 0.27751 0.83962 0.0
C1532 C 0.79667 0.2558 0.85166 0.0
C1533 C 0.81221 0.27866 0.86809 0.0
C1534 C 0.85418 0.26012 0.68825 0.0
C1535 C 0.85073 0.26676 0.6485 0.0
C1536 C 0.86034 0.253 0.67063 0.0
C1537 C 0.85339 0.26606 0.59177 0.0
C1538 C 0.86283 0.25254 0.61351 0.0
N1539 N 0.85933 0.25902 0.57559 0.0
C1540 C 0.86874 0.29733 0.73202 0.0
C1541 C 0.84703 0.29418 0.71904 0.0
C1542 C 0.87402 0.3079 0.69389 0.0
N1543 N 0.85545 0.29061 0.743 0.0
C1544 C 0.85188 0.30466 0.68056 0.0
C1545 C 0.86547 0.31142 0.66696 0.0
H1546 H 0.8751 0.29404 0.75087 0.0
H1547 H 0.83645 0.28842 0.72748 0.0
C1548 C 0.8098 0.22521 0.75481 0.0
N1549 N 0.81932 0.23614 0.72724 0.0
C1550 C 0.79856 0.2156 0.72633 0.0
C1551 C 0.80699 0.22872 0.64165 0.0
C1552 C 0.81809 0.23807 0.67175 0.0
C1553 C 0.79706 0.21743 0.66928 0.0
H1554 H 0.81072 0.22416 0.79941 0.0
H1555 H 0.82546 0.24702 0.65119 0.0
O1556 O 0.85573 0.27418 0.85767 0.0
O1557 O 0.83642 0.24342 0.84411 0.0
O1558 O 0.82885 0.26377 0.79071 0.0
O1559 O 0.85195 0.26092 0.74423 0.0
H1560 H 0.85942 0.26721 0.95905 0.0
H1561 H 0.85682 0.29748 0.86428 0.0
H1562 H 0.86337 0.28074 0.04526 0.0
H1563 H 0.86082 0.31049 0.95218 0.0
H1564 H 0.84239 0.21328 0.74439 0.0
H1565 H 0.83011 0.22547 0.9242 0.0
H1566 H 0.84228 0.23455 0.75162 0.0
H1567 H 0.83029 0.20425 0.91389 0.0
H1568 H 0.8199 0.2689 0.04595 0.0
H1569 H 0.80271 0.22848 0.98583 0.0
H1570 H 0.89594 0.25469 0.80186 0.0
H1571 H 0.87322 0.23904 0.95439 0.0
H1572 H 0.80386 0.24464 0.80568 0.0
H1573 H 0.83205 0.28606 0.8358 0.0
H1574 H 0.78672 0.24739 0.85683 0.0
H1575 H 0.81439 0.28811 0.88611 0.0
H1576 H 0.84582 0.27219 0.66108 0.0
H1577 H 0.86318 0.24787 0.7007 0.0
H1578 H 0.85068 0.27107 0.56058 0.0
H1579 H 0.86757 0.24704 0.59935 0.0
H1580 H 0.88455 0.31292 0.68382 0.0
H1581 H 0.84507 0.30715 0.66003 0.0
H1582 H 0.79099 0.20699 0.74868 0.0
H1583 H 0.80603 0.23038 0.59756 0.0
Li1584 Li 0.42703 0.27573 0.27709 0.0
Li1585 Li 0.40599 0.25867 0.31149 0.0
Li1586 Li 0.42744 0.2643 0.36109 0.0
Li1587 Li 0.42206 0.25357 0.26844 0.0
C1588 C 0.42432 0.28745 0.37732 0.0
N1589 N 0.43525 0.3119 0.43029 0.0
C1590 C 0.41723 0.29428 0.37984 0.0
C1591 C 0.43688 0.29296 0.40241 0.0
C1592 C 0.42296 0.30666 0.40659 0.0
C1593 C 0.44225 0.30535 0.42883 0.0
C1594 C 0.40519 0.26624 0.20395 0.0
C1595 C 0.39324 0.26673 0.12189 0.0
N1596 N 0.39137 0.27626 0.14657 0.0
C1597 C 0.40315 0.27604 0.22848 0.0
C1598 C 0.40021 0.26155 0.1502 0.0
C1599 C 0.39614 0.28098 0.19881 0.0
C1600 C 0.43598 0.28997 0.1784 0.0
N1601 N 0.43546 0.292 0.23442 0.0
C1602 C 0.44626 0.31557 0.21996 0.0
C1603 C 0.44055 0.30452 0.25574 0.0
C1604 C 0.44674 0.31361 0.16213 0.0
C1605 C 0.4416 0.30068 0.1413 0.0
H1606 H 0.43201 0.27996 0.16246 0.0
H1607 H 0.44023 0.30603 0.30019 0.0
C1608 C 0.38578 0.25328 0.38546 0.0
N1609 N 0.38795 0.2527 0.32972 0.0
C1610 C 0.37286 0.24827 0.40572 0.0
C1611 C 0.36464 0.24242 0.31054 0.0
C1612 C 0.37775 0.24749 0.29207 0.0
C1613 C 0.36216 0.24267 0.36804 0.0
H1614 H 0.39411 0.25738 0.41431 0.0
H1615 H 0.37974 0.24695 0.2481 0.0
C1616 C 0.45025 0.277 0.26595 0.0
N1617 N 0.47243 0.29475 0.2053 0.0
C1618 C 0.45197 0.27405 0.21072 0.0
C1619 C 0.4599 0.28891 0.29054 0.0
C1620 C 0.46323 0.28317 0.18072 0.0
C1621 C 0.47101 0.29778 0.2591 0.0
C1622 C 0.40652 0.2333 0.33283 0.0
C1623 C 0.41266 0.22665 0.35601 0.0
C1624 C 0.39495 0.2262 0.30078 0.0
C1625 C 0.40708 0.21297 0.34703 0.0
C1626 C 0.38968 0.21252 0.29269 0.0
N1627 N 0.3958 0.20625 0.3158 0.0
C1628 C 0.42598 0.26136 0.47748 0.0
C1629 C 0.4412 0.25652 0.43084 0.0
C1630 C 0.42558 0.25378 0.52383 0.0
N1631 N 0.43327 0.26205 0.43155 0.0
C1632 C 0.44094 0.24871 0.47584 0.0
C1633 C 0.43248 0.24671 0.52133 0.0
H1634 H 0.41934 0.26539 0.47562 0.0
H1635 H 0.44641 0.2568 0.39271 0.0
C1636 C 0.41707 0.23485 0.18129 0.0
N1637 N 0.4243 0.24081 0.22812 0.0
C1638 C 0.41895 0.22538 0.15291 0.0
C1639 C 0.43549 0.22825 0.22212 0.0
C1640 C 0.4334 0.23776 0.24879 0.0
C1641 C 0.42829 0.22207 0.17335 0.0
H1642 H 0.40987 0.23746 0.16617 0.0
H1643 H 0.43895 0.24268 0.28631 0.0
O1644 O 0.41879 0.27526 0.35184 0.0
O1645 O 0.41214 0.2613 0.23175 0.0
O1646 O 0.43909 0.26837 0.29545 0.0
O1647 O 0.41205 0.24676 0.33971 0.0
H1648 H 0.4074 0.29006 0.36137 0.0
H1649 H 0.44242 0.28774 0.40147 0.0
H1650 H 0.41762 0.31209 0.40864 0.0
H1651 H 0.45199 0.30977 0.44819 0.0
H1652 H 0.38933 0.26319 0.08027 0.0
H1653 H 0.40695 0.27982 0.26982 0.0
H1654 H 0.40174 0.254 0.13055 0.0
H1655 H 0.39451 0.28857 0.2173 0.0
H1656 H 0.45022 0.3255 0.23706 0.0
H1657 H 0.44189 0.29891 0.09679 0.0
H1658 H 0.37118 0.24851 0.45035 0.0
H1659 H 0.3565 0.23803 0.28069 0.0
H1660 H 0.44458 0.26492 0.19084 0.0
H1661 H 0.45878 0.29134 0.33327 0.0
H1662 H 0.46463 0.28106 0.1378 0.0
H1663 H 0.4785 0.30708 0.27745 0.0
H1664 H 0.42173 0.23202 0.38018 0.0
H1665 H 0.3902 0.23122 0.28167 0.0
H1666 H 0.41175 0.20771 0.36469 0.0
H1667 H 0.38075 0.20691 0.26782 0.0
H1668 H 0.41885 0.25226 0.55825 0.0
H1669 H 0.44625 0.24324 0.47275 0.0
H1670 H 0.41321 0.22068 0.11541 0.0
H1671 H 0.4427 0.22582 0.23891 0.0
Li1672 Li 0.73708 0.16261 0.36377 0.0
Li1673 Li 0.74841 0.17025 0.27097 0.0
Li1674 Li 0.72659 0.1515 0.27612 0.0
Li1675 Li 0.7448 0.14904 0.30798 0.0
C1676 C 0.72184 0.17133 0.28423 0.0
N1677 N 0.69967 0.17243 0.24953 0.0
C1678 C 0.72148 0.17603 0.2306 0.0
C1679 C 0.71101 0.16733 0.32048 0.0
C1680 C 0.71015 0.17647 0.21375 0.0
C1681 C 0.69988 0.16794 0.30208 0.0
C1682 C 0.76856 0.17691 0.33722 0.0
C1683 C 0.79033 0.18606 0.29501 0.0
N1684 N 0.79462 0.19734 0.32599 0.0
C1685 C 0.77319 0.18859 0.36861 0.0
C1686 C 0.77721 0.17561 0.30018 0.0
C1687 C 0.7864 0.1988 0.36241 0.0
C1688 C 0.73937 0.162 0.47935 0.0
N1689 N 0.73789 0.16899 0.43688 0.0
C1690 C 0.74905 0.18918 0.48923 0.0
C1691 C 0.74183 0.18212 0.44203 0.0
C1692 C 0.75207 0.18252 0.53076 0.0
C1693 C 0.74636 0.16863 0.52771 0.0
H1694 H 0.73656 0.15168 0.47293 0.0
H1695 H 0.74095 0.18746 0.40654 0.0
C1696 C 0.76501 0.18604 0.18145 0.0
N1697 N 0.75979 0.18623 0.23225 0.0
C1698 C 0.77336 0.19798 0.15373 0.0
C1699 C 0.7707 0.21003 0.23103 0.0
C1700 C 0.76232 0.19785 0.25705 0.0
C1701 C 0.77625 0.21009 0.17875 0.0
H1702 H 0.76268 0.17665 0.16252 0.0
H1703 H 0.75787 0.19763 0.29727 0.0
C1704 C 0.71509 0.13325 0.36046 0.0
N1705 N 0.68969 0.11305 0.3862 0.0
C1706 C 0.70979 0.12092 0.33351 0.0
C1707 C 0.70753 0.13529 0.40085 0.0
C1708 C 0.69691 0.11085 0.34697 0.0
C1709 C 0.6947 0.12495 0.41322 0.0
C1710 C 0.74316 0.14419 0.19913 0.0
C1711 C 0.73217 0.13166 0.1875 0.0
C1712 C 0.75573 0.14737 0.17873 0.0
C1713 C 0.73395 0.12253 0.15573 0.0
C1714 C 0.7571 0.13794 0.14729 0.0
N1715 N 0.74627 0.12583 0.13652 0.0
C1716 C 0.7128 0.14609 0.17615 0.0
C1717 C 0.69786 0.13697 0.25282 0.0
C1718 C 0.70224 0.14119 0.13826 0.0
N1719 N 0.7105 0.14371 0.23216 0.0
C1720 C 0.68696 0.13179 0.21624 0.0
C1721 C 0.68919 0.13385 0.15833 0.0
H1722 H 0.72291 0.15185 0.16084 0.0
H1723 H 0.69616 0.13571 0.29745 0.0
C1724 C 0.76314 0.14263 0.35416 0.0
N1725 N 0.75202 0.1376 0.32158 0.0
C1726 C 0.76836 0.13461 0.37054 0.0
C1727 C 0.75049 0.11621 0.32045 0.0
C1728 C 0.7456 0.12461 0.30493 0.0
C1729 C 0.76194 0.12125 0.35393 0.0
H1730 H 0.76778 0.15279 0.36893 0.0
H1731 H 0.73651 0.12065 0.28095 0.0
O1732 O 0.73263 0.17041 0.30079 0.0
O1733 O 0.75556 0.16692 0.3415 0.0
O1734 O 0.72773 0.14319 0.34848 0.0
O1735 O 0.74166 0.1533 0.23014 0.0
H1736 H 0.7298 0.17913 0.20208 0.0
H1737 H 0.71117 0.16367 0.36211 0.0
H1738 H 0.70967 0.17996 0.17218 0.0
H1739 H 0.69138 0.16479 0.3295 0.0
H1740 H 0.79711 0.1852 0.26632 0.0
H1741 H 0.76665 0.18985 0.39705 0.0
H1742 H 0.77379 0.16666 0.27551 0.0
H1743 H 0.79009 0.2079 0.3864 0.0
H1744 H 0.75339 0.19991 0.49048 0.0
H1745 H 0.7486 0.16328 0.55913 0.0
H1746 H 0.77756 0.1978 0.11333 0.0
H1747 H 0.77281 0.21926 0.25121 0.0
H1748 H 0.71552 0.11918 0.30227 0.0
H1749 H 0.71153 0.14476 0.4223 0.0
H1750 H 0.69264 0.10127 0.32621 0.0
H1751 H 0.68871 0.12639 0.44424 0.0
H1752 H 0.7224 0.1289 0.20351 0.0
H1753 H 0.76434 0.15701 0.18707 0.0
H1754 H 0.72554 0.11279 0.14666 0.0
H1755 H 0.76678 0.14027 0.13141 0.0
H1756 H 0.70422 0.14302 0.09374 0.0
H1757 H 0.67692 0.1263 0.23281 0.0
H1758 H 0.77716 0.13872 0.39685 0.0
H1759 H 0.74528 0.10587 0.30741 0.0
Li1760 Li 0.85383 0.59702 0.32424 0.0
Li1761 Li 0.85059 0.57494 0.289 0.0
Li1762 Li 0.83277 0.58067 0.278 0.0
Li1763 Li 0.83847 0.57633 0.36875 0.0
C1764 C 0.85207 0.59896 0.20515 0.0
N1765 N 0.85405 0.61682 0.12368 0.0
C1766 C 0.85594 0.59797 0.15063 0.0
C1767 C 0.84919 0.60901 0.21829 0.0
C1768 C 0.85689 0.60711 0.11001 0.0
C1769 C 0.85025 0.61795 0.1765 0.0
C1770 C 0.86104 0.58184 0.41431 0.0
C1771 C 0.86191 0.56694 0.48266 0.0
N1772 N 0.86567 0.57657 0.52254 0.0
C1773 C 0.86506 0.59164 0.45579 0.0
C1774 C 0.85957 0.56943 0.42764 0.0
C1775 C 0.8673 0.58876 0.51032 0.0
C1776 C 0.86242 0.62026 0.38394 0.0
N1777 N 0.86584 0.61522 0.33953 0.0
C1778 C 0.88582 0.63606 0.32535 0.0
C1779 C 0.87727 0.62276 0.31012 0.0
C1780 C 0.88245 0.64144 0.37106 0.0
C1781 C 0.87063 0.63343 0.4005 0.0
H1782 H 0.85337 0.61396 0.40694 0.0
H1783 H 0.87974 0.61843 0.27517 0.0
C1784 C 0.85065 0.55602 0.21653 0.0
N1785 N 0.85871 0.56699 0.24765 0.0
C1786 C 0.85611 0.55097 0.17828 0.0
C1787 C 0.8781 0.56867 0.20438 0.0
C1788 C 0.8722 0.57329 0.24278 0.0
C1789 C 0.86997 0.55748 0.17123 0.0
H1790 H 0.83995 0.55151 0.21983 0.0
H1791 H 0.87833 0.58221 0.26698 0.0
C1792 C 0.82423 0.59149 0.35886 0.0
N1793 N 0.80123 0.59236 0.38001 0.0
C1794 C 0.81217 0.57971 0.36748 0.0
C1795 C 0.82461 0.60373 0.36127 0.0
C1796 C 0.80064 0.58035 0.37785 0.0
C1797 C 0.81288 0.60396 0.37213 0.0
C1798 C 0.82375 0.55096 0.32124 0.0
C1799 C 0.80988 0.54507 0.32414 0.0
C1800 C 0.82976 0.54342 0.33456 0.0
C1801 C 0.80228 0.53181 0.3414 0.0
C1802 C 0.8218 0.53018 0.35152 0.0
N1803 N 0.80834 0.52471 0.35465 0.0
C1804 C 0.81162 0.56575 0.20547 0.0
C1805 C 0.81473 0.58726 0.22379 0.0
C1806 C 0.80033 0.56244 0.17333 0.0
N1807 N 0.81846 0.57791 0.2304 0.0
C1808 C 0.8035 0.58438 0.19184 0.0
C1809 C 0.79617 0.57182 0.16661 0.0
H1810 H 0.81488 0.55856 0.21105 0.0
H1811 H 0.82038 0.59688 0.24369 0.0
C1812 C 0.83255 0.58132 0.4729 0.0
N1813 N 0.83098 0.57073 0.44223 0.0
C1814 C 0.82461 0.57939 0.51962 0.0
C1815 C 0.8147 0.55559 0.50711 0.0
C1816 C 0.82281 0.558 0.45995 0.0
C1817 C 0.81508 0.56643 0.53516 0.0
H1818 H 0.83919 0.59133 0.45822 0.0
H1819 H 0.82185 0.5497 0.43585 0.0
O1820 O 0.85112 0.5901 0.24532 0.0
O1821 O 0.85847 0.58435 0.36103 0.0
O1822 O 0.83557 0.59109 0.34665 0.0
O1823 O 0.83136 0.56388 0.30373 0.0
H1824 H 0.8582 0.59023 0.13987 0.0
H1825 H 0.84612 0.60988 0.26021 0.0
H1826 H 0.85989 0.60648 0.06762 0.0
H1827 H 0.84805 0.62577 0.18606 0.0
H1828 H 0.86073 0.55735 0.49365 0.0
H1829 H 0.86632 0.60132 0.44614 0.0
H1830 H 0.85665 0.56181 0.39589 0.0
H1831 H 0.87032 0.59622 0.54295 0.0
H1832 H 0.89493 0.64206 0.30197 0.0
H1833 H 0.86782 0.63734 0.436 0.0
H1834 H 0.8496 0.54238 0.15292 0.0
H1835 H 0.88883 0.57395 0.19945 0.0
H1836 H 0.81172 0.57018 0.36587 0.0
H1837 H 0.83384 0.61295 0.35418 0.0
H1838 H 0.79121 0.57129 0.38398 0.0
H1839 H 0.81302 0.61336 0.37396 0.0
H1840 H 0.80501 0.55065 0.31304 0.0
H1841 H 0.84043 0.54772 0.33162 0.0
H1842 H 0.79154 0.52716 0.34409 0.0
H1843 H 0.82632 0.52425 0.36213 0.0
H1844 H 0.7949 0.55272 0.15377 0.0
H1845 H 0.80056 0.59184 0.18678 0.0
H1846 H 0.82519 0.58795 0.5408 0.0
H1847 H 0.80748 0.54545 0.51869 0.0
Li1848 Li 0.60814 0.09155 0.88495 0.0
Li1849 Li 0.59225 0.07075 0.84334 0.0
Li1850 Li 0.59575 0.09162 0.80478 0.0
Li1851 Li 0.58495 0.08421 0.89449 0.0
C1852 C 0.61797 0.08103 0.80545 0.0
N1853 N 0.63656 0.07276 0.80075 0.0
C1854 C 0.61983 0.07468 0.8516 0.0
C1855 C 0.62556 0.08317 0.75694 0.0
C1856 C 0.62928 0.07057 0.8484 0.0
C1857 C 0.63491 0.07891 0.75537 0.0
C1858 C 0.58595 0.06453 0.95645 0.0
C1859 C 0.5649 0.04426 0.96854 0.0
N1860 N 0.56881 0.04272 0.0205 0.0
C1861 C 0.58977 0.06275 0.00994 0.0
C1862 C 0.57341 0.05522 0.93554 0.0
C1863 C 0.58096 0.05166 0.04169 0.0
C1864 C 0.622 0.10096 0.98326 0.0
N1865 N 0.62407 0.10052 0.92734 0.0
C1866 C 0.64765 0.11183 0.94118 0.0
C1867 C 0.63657 0.10593 0.90556 0.0
C1868 C 0.6457 0.11219 0.99915 0.0
C1869 C 0.63274 0.1068 0.02021 0.0
H1870 H 0.61193 0.09663 0.99913 0.0
H1871 H 0.63793 0.10553 0.86083 0.0
C1872 C 0.58137 0.04954 0.77009 0.0
N1873 N 0.58762 0.05327 0.82063 0.0
C1874 C 0.57648 0.03659 0.75049 0.0
C1875 C 0.58509 0.03169 0.83418 0.0
C1876 C 0.58977 0.04477 0.8524 0.0
C1877 C 0.57817 0.02751 0.78313 0.0
H1878 H 0.57992 0.05659 0.74566 0.0
H1879 H 0.59481 0.04802 0.89239 0.0
C1880 C 0.6088 0.11529 0.86277 0.0
N1881 N 0.62795 0.14142 0.84098 0.0
C1882 C 0.6082 0.12574 0.88929 0.0
C1883 C 0.61914 0.11815 0.82499 0.0
C1884 C 0.61797 0.13888 0.87775 0.0
C1885 C 0.62872 0.13142 0.8146 0.0
C1886 C 0.56715 0.07471 0.80493 0.0
C1887 C 0.5655 0.08581 0.81088 0.0
C1888 C 0.5566 0.06274 0.7848 0.0
C1889 C 0.55339 0.08481 0.79565 0.0
C1890 C 0.5446 0.0621 0.77044 0.0
N1891 N 0.54327 0.07307 0.77597 0.0
C1892 C 0.59324 0.09168 0.68916 0.0
C1893 C 0.58997 0.10792 0.73595 0.0
C1894 C 0.58674 0.09259 0.64144 0.0
N1895 N 0.5941 0.09881 0.73589 0.0
C1896 C 0.5831 0.10888 0.68973 0.0
C1897 C 0.58077 0.10056 0.64329 0.0
H1898 H 0.59634 0.0843 0.69097 0.0
H1899 H 0.5906 0.11329 0.77401 0.0
C1900 C 0.57629 0.09552 0.97476 0.0
N1901 N 0.57193 0.08453 0.94185 0.0
C1902 C 0.56727 0.09736 0.00685 0.0
C1903 C 0.54946 0.07641 0.9713 0.0
C1904 C 0.55884 0.07493 0.94014 0.0
C1905 C 0.5537 0.08779 0.00473 0.0
H1906 H 0.58676 0.10295 0.97532 0.0
H1907 H 0.55562 0.06629 0.91359 0.0
O1908 O 0.60879 0.08517 0.80722 0.0
O1909 O 0.59456 0.07535 0.9251 0.0
O1910 O 0.5993 0.10239 0.87412 0.0
O1911 O 0.5787 0.07527 0.82187 0.0
H1912 H 0.61411 0.07296 0.88962 0.0
H1913 H 0.62423 0.08807 0.72086 0.0
H1914 H 0.63083 0.06566 0.88382 0.0
H1915 H 0.64085 0.0805 0.71807 0.0
H1916 H 0.55518 0.03697 0.9528 0.0
H1917 H 0.59945 0.06986 0.0267 0.0
H1918 H 0.57027 0.05634 0.89421 0.0
H1919 H 0.58379 0.05016 0.08316 0.0
H1920 H 0.65759 0.11597 0.92395 0.0
H1921 H 0.63098 0.10696 0.06481 0.0
H1922 H 0.57113 0.03358 0.71099 0.0
H1923 H 0.58646 0.02481 0.86026 0.0
H1924 H 0.60025 0.12372 0.91849 0.0
H1925 H 0.6198 0.11026 0.8038 0.0
H1926 H 0.61762 0.14705 0.89802 0.0
H1927 H 0.63678 0.13376 0.78555 0.0
H1928 H 0.57337 0.09499 0.82847 0.0
H1929 H 0.55761 0.05398 0.78093 0.0
H1930 H 0.55199 0.09332 0.80008 0.0
H1931 H 0.53635 0.05289 0.75482 0.0
H1932 H 0.58509 0.08606 0.60609 0.0
H1933 H 0.57861 0.11512 0.69228 0.0
H1934 H 0.5708 0.10619 0.03266 0.0
H1935 H 0.53902 0.06884 0.96921 0.0
Li1936 Li 0.90806 0.51717 0.88535 0.0
Li1937 Li 0.92897 0.51942 0.85585 0.0
Li1938 Li 0.90825 0.50395 0.80382 0.0
Li1939 Li 0.91249 0.49834 0.89777 0.0
C1940 C 0.91142 0.53018 0.78272 0.0
N1941 N 0.90026 0.5429 0.72482 0.0
C1942 C 0.91801 0.5441 0.78026 0.0
C1943 C 0.89926 0.52276 0.75483 0.0
C1944 C 0.91217 0.55034 0.75106 0.0
C1945 C 0.89375 0.52936 0.72607 0.0
C1946 C 0.93264 0.5256 0.96216 0.0
C1947 C 0.95207 0.53176 0.01929 0.0
N1948 N 0.95511 0.54471 0.01729 0.0
C1949 C 0.93592 0.53896 0.96101 0.0
C1950 C 0.94073 0.52194 0.99179 0.0
C1951 C 0.94734 0.54848 0.98901 0.0
C1952 C 0.89044 0.51763 0.96234 0.0
N1953 N 0.89987 0.52553 0.92438 0.0
C1954 C 0.89949 0.54474 0.9585 0.0
C1955 C 0.90435 0.53883 0.92129 0.0
C1956 C 0.88996 0.53682 0.99875 0.0
C1957 C 0.88521 0.52308 -0.00024 0.0
H1958 H 0.88735 0.50716 0.96497 0.0
H1959 H 0.91215 0.54497 0.89207 0.0
C1960 C 0.95593 0.52709 0.83362 0.0
N1961 N 0.94745 0.5318 0.84312 0.0
C1962 C 0.96892 0.53564 0.81558 0.0
C1963 C 0.96441 0.55388 0.81804 0.0
C1964 C 0.9515 0.54496 0.83666 0.0
C1965 C 0.97316 0.54913 0.80647 0.0
H1966 H 0.95249 0.51662 0.83755 0.0
H1967 H 0.94457 0.54845 0.84407 0.0
C1968 C 0.88277 0.49133 0.86034 0.0
N1969 N 0.85554 0.47821 0.84252 0.0
C1970 C 0.87519 0.47749 0.86632 0.0
C1971 C 0.87642 0.49851 0.84626 0.0
C1972 C 0.86146 0.47103 0.85685 0.0
C1973 C 0.86267 0.49169 0.83717 0.0
C1974 C 0.92728 0.49213 0.8346 0.0
C1975 C 0.92336 0.48182 0.79569 0.0
C1976 C 0.93517 0.49285 0.88036 0.0
C1977 C 0.92731 0.47233 0.80334 0.0
C1978 C 0.9389 0.48317 0.88668 0.0
N1979 N 0.93491 0.47318 0.84836 0.0
C1980 C 0.91283 0.49852 0.6978 0.0
C1981 C 0.89017 0.4847 0.72369 0.0
C1982 C 0.91155 0.48969 0.65532 0.0
N1983 N 0.90245 0.49546 0.73293 0.0
C1984 C 0.88837 0.47571 0.68077 0.0
C1985 C 0.89943 0.47777 0.64897 0.0
H1986 H 0.92251 0.50701 0.70693 0.0
H1987 H 0.88209 0.48243 0.75228 0.0
C1988 C 0.91127 0.48372 0.99635 0.0
N1989 N 0.90846 0.48297 0.94063 0.0
C1990 C 0.90835 0.47219 0.02611 0.0
C1991 C 0.89951 0.45938 0.94079 0.0
C1992 C 0.90257 0.47113 0.91278 0.0
C1993 C 0.90249 0.45992 0.99795 0.0
H1994 H 0.91579 0.49325 0.0175 0.0
H1995 H 0.90035 0.47084 0.86854 0.0
O1996 O 0.91709 0.52392 0.81075 0.0
O1997 O 0.92162 0.51619 0.9341 0.0
O1998 O 0.89623 0.49781 0.86989 0.0
O1999 O 0.92316 0.5013 0.82863 0.0
H2000 H 0.92747 0.55006 0.80106 0.0
H2001 H 0.89408 0.51201 0.75539 0.0
H2002 H 0.91713 0.5611 0.74923 0.0
H2003 H 0.8843 0.52371 0.70465 0.0
H2004 H 0.95844 0.52907 0.04225 0.0
H2005 H 0.92985 0.54199 0.93795 0.0
H2006 H 0.9383 0.51165 0.99374 0.0
H2007 H 0.95004 0.55887 0.98806 0.0
H2008 H 0.90342 0.55541 0.95715 0.0
H2009 H 0.87792 0.51675 0.03065 0.0
H2010 H 0.97544 0.53168 0.80653 0.0
H2011 H 0.9674 0.56424 0.81105 0.0
H2012 H 0.87984 0.47175 0.87786 0.0
H2013 H 0.882 0.50924 0.84294 0.0
H2014 H 0.85551 0.46032 0.86096 0.0
H2015 H 0.85766 0.49714 0.82609 0.0
H2016 H 0.91727 0.48109 0.76019 0.0
H2017 H 0.93826 0.50072 0.91098 0.0
H2018 H 0.92429 0.46427 0.77356 0.0
H2019 H 0.94492 0.48356 0.92215 0.0
H2020 H 0.92022 0.49156 0.63103 0.0
H2021 H 0.87887 0.46662 0.6763 0.0
H2022 H 0.91074 0.47283 0.07038 0.0
H2023 H 0.89499 0.45002 0.91815 0.0
Li2024 Li 0.4952 0.40531 0.80302 0.0
Li2025 Li 0.50358 0.41768 0.89166 0.0
Li2026 Li 0.4861 0.39494 0.88934 0.0
Li2027 Li 0.48152 0.41201 0.85427 0.0
C2028 C 0.50804 0.39364 0.88871 0.0
N2029 N 0.51362 0.37571 0.94114 0.0
C2030 C 0.51381 0.39642 0.94213 0.0
C2031 C 0.50534 0.38186 0.86153 0.0
C2032 C 0.5165 0.3872 0.96804 0.0
C2033 C 0.50817 0.37289 0.88886 0.0
C2034 C 0.50279 0.4367 0.82383 0.0
C2035 C 0.50405 0.45543 0.87352 0.0
N2036 N 0.51018 0.46334 0.82835 0.0
C2037 C 0.5091 0.445 0.77793 0.0
C2038 C 0.50025 0.44194 0.8721 0.0
C2039 C 0.51277 0.45844 0.78103 0.0
C2040 C 0.49717 0.41215 0.69211 0.0
N2041 N 0.50146 0.40622 0.72933 0.0
C2042 C 0.52082 0.41217 0.67417 0.0
C2043 C 0.51272 0.40559 0.72029 0.0
C2044 C 0.51732 0.41961 0.6387 0.0
C2045 C 0.50501 0.41894 0.64597 0.0
H2046 H 0.48848 0.41294 0.70176 0.0
H2047 H 0.51614 0.40128 0.75189 0.0
C2048 C 0.51962 0.43136 0.98474 0.0
N2049 N 0.51915 0.43077 0.92777 0.0
C2050 C 0.53133 0.44055 0.01183 0.0
C2051 C 0.5417 0.44851 0.92103 0.0
C2052 C 0.52984 0.43905 0.89567 0.0
C2053 C 0.54251 0.44918 0.97973 0.0
H2054 H 0.51096 0.42457 0.00898 0.0
H2055 H 0.52914 0.43824 0.8504 0.0
C2056 C 0.47131 0.38769 0.7713 0.0
N2057 N 0.46253 0.37485 0.66928 0.0
C2058 C 0.46278 0.39004 0.73782 0.0
C2059 C 0.47515 0.37863 0.75338 0.0
C2060 C 0.45851 0.3835 0.68625 0.0
C2061 C 0.47067 0.37229 0.70154 0.0
C2062 C 0.47575 0.40574 0.96754 0.0
C2063 C 0.46341 0.39492 0.95199 0.0
C2064 C 0.47706 0.41197 0.01927 0.0
C2065 C 0.4526 0.39054 0.98858 0.0
C2066 C 0.46599 0.40731 0.05459 0.0
N2067 N 0.45409 0.39677 0.03867 0.0
C2068 C 0.48288 0.3811 0.98874 0.0
C2069 C 0.47057 0.36694 0.91302 0.0
C2070 C 0.47786 0.37031 0.02546 0.0
N2071 N 0.47918 0.37924 0.93381 0.0
C2072 C 0.46525 0.35584 0.94846 0.0
C2073 C 0.46889 0.35756 0.00533 0.0
H2074 H 0.48964 0.39102 0.00412 0.0
H2075 H 0.4677 0.3658 0.86929 0.0
C2076 C 0.47056 0.42312 0.78651 0.0
N2077 N 0.46988 0.41893 0.84037 0.0
C2078 C 0.46307 0.42886 0.76935 0.0
C2079 C 0.45422 0.42593 0.86351 0.0
C2080 C 0.46199 0.42031 0.87904 0.0
C2081 C 0.45481 0.43028 0.80811 0.0
H2082 H 0.47704 0.42208 0.75687 0.0
H2083 H 0.46181 0.41726 0.92196 0.0
O2084 O 0.50499 0.40238 0.86333 0.0
O2085 O 0.49911 0.42351 0.82123 0.0
O2086 O 0.47571 0.39409 0.8217 0.0
O2087 O 0.48663 0.41003 0.93334 0.0
H2088 H 0.51599 0.40549 0.96375 0.0
H2089 H 0.50111 0.37965 0.81982 0.0
H2090 H 0.52084 0.38916 0.00962 0.0
H2091 H 0.50604 0.36368 0.86848 0.0
H2092 H 0.50213 0.45962 0.91053 0.0
H2093 H 0.51115 0.44108 0.74031 0.0
H2094 H 0.49537 0.43566 0.90803 0.0
H2095 H 0.51766 0.46499 0.74582 0.0
H2096 H 0.53035 0.41263 0.66965 0.0
H2097 H 0.50212 0.42469 0.61952 0.0
H2098 H 0.53169 0.44096 0.05728 0.0
H2099 H 0.55017 0.45514 0.89536 0.0
H2100 H 0.45945 0.39678 0.75155 0.0
H2101 H 0.48159 0.37657 0.77911 0.0
H2102 H 0.45196 0.38528 0.65979 0.0
H2103 H 0.47366 0.36533 0.68699 0.0
H2104 H 0.46217 0.38994 0.91225 0.0
H2105 H 0.48655 0.42031 0.03201 0.0
H2106 H 0.44301 0.38218 0.97714 0.0
H2107 H 0.46686 0.41205 0.09474 0.0
H2108 H 0.48078 0.3719 0.06925 0.0
H2109 H 0.45829 0.34606 0.93202 0.0
H2110 H 0.46376 0.43222 0.7264 0.0
H2111 H 0.44799 0.42705 0.89438 0.0
Li2112 Li 0.56888 0.72482 0.71688 0.0
Li2113 Li 0.57536 0.74812 0.72345 0.0
Li2114 Li 0.56984 0.73669 0.63211 0.0
Li2115 Li 0.59063 0.7418 0.67842 0.0
C2116 C 0.5447 0.7248 0.69961 0.0
N2117 N 0.51753 0.70746 0.7044 0.0
C2118 C 0.53698 0.72649 0.74039 0.0
C2119 C 0.53857 0.71442 0.66082 0.0
C2120 C 0.52327 0.71758 0.74227 0.0
C2121 C 0.52483 0.70572 0.66403 0.0
C2122 C 0.58244 0.73713 0.81483 0.0
C2123 C 0.58878 0.73265 0.90516 0.0
N2124 N 0.57768 0.7319 0.92827 0.0
C2125 C 0.57109 0.73628 0.83946 0.0
C2126 C 0.59135 0.73527 0.84786 0.0
C2127 C 0.56887 0.73365 0.89687 0.0
C2128 C 0.56676 0.70116 0.75791 0.0
N2129 N 0.56075 0.70868 0.75897 0.0
C2130 C 0.54618 0.6953 0.83256 0.0
C2131 C 0.55056 0.70589 0.79494 0.0
C2132 C 0.55244 0.68763 0.8333 0.0
C2133 C 0.5627 0.69046 0.79497 0.0
H2134 H 0.57504 0.7038 0.7298 0.0
H2135 H 0.54627 0.71226 0.79665 0.0
C2136 C 0.56357 0.7633 0.74895 0.0
N2137 N 0.57386 0.76143 0.76357 0.0
C2138 C 0.56139 0.77251 0.77789 0.0
C2139 C 0.58072 0.77797 0.83518 0.0
C2140 C 0.58246 0.76857 0.80544 0.0
C2141 C 0.57002 0.77991 0.8216 0.0
H2142 H 0.55694 0.75749 0.71526 0.0
H2143 H 0.59053 0.76684 0.81623 0.0
C2144 C 0.57346 0.71588 0.60079 0.0
N2145 N 0.56582 0.69815 0.51221 0.0
C2146 C 0.58153 0.71901 0.5532 0.0
C2147 C 0.56166 0.7036 0.60392 0.0
C2148 C 0.57745 0.70995 0.50868 0.0
C2149 C 0.55793 0.69481 0.55855 0.0
C2150 C 0.59504 0.76728 0.65449 0.0
C2151 C 0.59654 0.77617 0.6117 0.0
C2152 C 0.60394 0.77168 0.69966 0.0
C2153 C 0.60685 0.7894 0.61509 0.0
C2154 C 0.61413 0.78498 0.70151 0.0
N2155 N 0.61536 0.79349 0.65957 0.0
C2156 C 0.55277 0.73947 0.55447 0.0
C2157 C 0.57406 0.74414 0.5221 0.0
C2158 C 0.55165 0.7467 0.5099 0.0
N2159 N 0.56406 0.73873 0.56056 0.0
C2160 C 0.57341 0.75155 0.47746 0.0
C2161 C 0.56242 0.75342 0.47293 0.0
H2162 H 0.54532 0.73578 0.58717 0.0
H2163 H 0.58321 0.74408 0.52979 0.0
C2164 C 0.61702 0.74618 0.69788 0.0
N2165 N 0.60856 0.74719 0.66126 0.0
C2166 C 0.63028 0.75079 0.68243 0.0
C2167 C 0.6257 0.75723 0.59215 0.0
C2168 C 0.61259 0.75249 0.60918 0.0
C2169 C 0.63468 0.75647 0.62911 0.0
H2170 H 0.61351 0.74193 0.73904 0.0
H2171 H 0.60562 0.75316 0.58111 0.0
O2172 O 0.55814 0.73342 0.69746 0.0
O2173 O 0.58466 0.73936 0.75839 0.0
O2174 O 0.57734 0.72458 0.64496 0.0
O2175 O 0.58505 0.75428 0.65139 0.0
H2176 H 0.54157 0.73452 0.77064 0.0
H2177 H 0.54433 0.71322 0.62805 0.0
H2178 H 0.51719 0.71871 0.77384 0.0
H2179 H 0.51997 0.69764 0.63426 0.0
H2180 H 0.59558 0.73118 0.93122 0.0
H2181 H 0.56395 0.73744 0.81442 0.0
H2182 H 0.60013 0.73579 0.82938 0.0
H2183 H 0.5601 0.73292 0.9164 0.0
H2184 H 0.53832 0.69339 0.86213 0.0
H2185 H 0.56776 0.68473 0.795 0.0
H2186 H 0.55301 0.77376 0.76683 0.0
H2187 H 0.58748 0.78351 0.86906 0.0
H2188 H 0.59086 0.72832 0.55066 0.0
H2189 H 0.55549 0.70084 0.6411 0.0
H2190 H 0.58356 0.71229 0.4714 0.0
H2191 H 0.54879 0.6853 0.56027 0.0
H2192 H 0.58985 0.77286 0.5761 0.0
H2193 H 0.60303 0.76489 0.73279 0.0
H2194 H 0.60812 0.79639 0.5823 0.0
H2195 H 0.62108 0.78853 0.73623 0.0
H2196 H 0.54315 0.74821 0.5078 0.0
H2197 H 0.58194 0.75681 0.45001 0.0
H2198 H 0.63705 0.7501 0.71177 0.0
H2199 H 0.62885 0.76159 0.55079 0.0
Li2200 Li 0.27304 0.8475 0.72222 0.0
Li2201 Li 0.24983 0.83019 0.72754 0.0
Li2202 Li 0.26251 0.83598 0.63534 0.0
Li2203 Li 0.25611 0.85155 0.6765 0.0
C2204 C 0.27392 0.82474 0.72562 0.0
N2205 N 0.29195 0.81817 0.76956 0.0
C2206 C 0.27223 0.81965 0.78008 0.0
C2207 C 0.28462 0.82624 0.69308 0.0
C2208 C 0.2815 0.81646 0.80167 0.0
C2209 C 0.29367 0.82292 0.71616 0.0
C2210 C 0.24989 0.85022 0.7954 0.0
C2211 C 0.22955 0.8504 0.8152 0.0
N2212 N 0.23332 0.85331 0.86983 0.0
C2213 C 0.25358 0.85327 0.85169 0.0
C2214 C 0.23778 0.84879 0.77696 0.0
C2215 C 0.24506 0.85476 0.88869 0.0
C2216 C 0.3008 0.86421 0.75121 0.0
N2217 N 0.28839 0.85498 0.76892 0.0
C2218 C 0.2964 0.85566 0.86204 0.0
C2219 C 0.28603 0.85074 0.82314 0.0
C2220 C 0.30927 0.8651 0.84486 0.0
C2221 C 0.3115 0.86941 0.78884 0.0
H2222 H 0.30237 0.86765 0.70828 0.0
H2223 H 0.27602 0.84355 0.83616 0.0
C2224 C 0.23535 0.80318 0.74854 0.0
N2225 N 0.23698 0.81497 0.76783 0.0
C2226 C 0.22684 0.79128 0.7762 0.0
C2227 C 0.22154 0.80381 0.84225 0.0
C2228 C 0.23026 0.81549 0.81367 0.0
C2229 C 0.21987 0.79158 0.82368 0.0
H2230 H 0.24091 0.80309 0.71227 0.0
H2231 H 0.23175 0.8249 0.82881 0.0
C2232 C 0.28245 0.86095 0.60321 0.0
N2233 N 0.29976 0.87172 0.51358 0.0
C2234 C 0.28058 0.86876 0.56353 0.0
C2235 C 0.29315 0.85867 0.59746 0.0
C2236 C 0.28944 0.8741 0.51846 0.0
C2237 C 0.30178 0.86419 0.55183 0.0
C2238 C 0.2322 0.82806 0.62948 0.0
C2239 C 0.23072 0.82742 0.57113 0.0
C2240 C 0.22091 0.82323 0.66368 0.0
C2241 C 0.21799 0.82217 0.54794 0.0
C2242 C 0.20836 0.81806 0.6389 0.0
N2243 N 0.20717 0.81764 0.58203 0.0
C2244 C 0.25173 0.81418 0.57107 0.0
C2245 C 0.26626 0.83294 0.5159 0.0
C2246 C 0.24572 0.80673 0.52312 0.0
N2247 N 0.26134 0.82718 0.56671 0.0
C2248 C 0.26075 0.82568 0.46653 0.0
C2249 C 0.2498 0.8127 0.47026 0.0
H2250 H 0.24783 0.80999 0.61197 0.0
H2251 H 0.27363 0.84337 0.51311 0.0
C2252 C 0.25165 0.87378 0.68746 0.0
N2253 N 0.25064 0.86385 0.65358 0.0
C2254 C 0.24689 0.88211 0.66917 0.0
C2255 C 0.24073 0.8702 0.58084 0.0
C2256 C 0.24561 0.86216 0.60073 0.0
C2257 C 0.24118 0.88016 0.61556 0.0
H2258 H 0.25596 0.8751 0.72889 0.0
H2259 H 0.24543 0.85456 0.57394 0.0
O2260 O 0.26508 0.82812 0.70407 0.0
O2261 O 0.25815 0.84874 0.75878 0.0
O2262 O 0.27393 0.85573 0.64778 0.0
O2263 O 0.24458 0.83297 0.65294 0.0
H2264 H 0.26391 0.81832 0.80559 0.0
H2265 H 0.28588 0.82987 0.65041 0.0
H2266 H 0.2804 0.81264 0.84396 0.0
H2267 H 0.30204 0.8241 0.69158 0.0
H2268 H 0.22016 0.84932 0.80144 0.0
H2269 H 0.26294 0.85447 0.86667 0.0
H2270 H 0.23478 0.84651 0.7336 0.0
H2271 H 0.24778 0.85709 0.93239 0.0
H2272 H 0.2944 0.85222 0.90514 0.0
H2273 H 0.32136 0.87679 0.77467 0.0
H2274 H 0.22585 0.78199 0.76135 0.0
H2275 H 0.21637 0.80433 0.87922 0.0
H2276 H 0.27242 0.87072 0.56753 0.0
H2277 H 0.29475 0.85269 0.62783 0.0
H2278 H 0.2881 0.88015 0.48739 0.0
H2279 H 0.31009 0.86248 0.5468 0.0
H2280 H 0.23933 0.83107 0.54405 0.0
H2281 H 0.2218 0.82341 0.70888 0.0
H2282 H 0.21671 0.8217 0.50287 0.0
H2283 H 0.19955 0.81433 0.66491 0.0
H2284 H 0.23735 0.7967 0.52736 0.0
H2285 H 0.26416 0.8305 0.42613 0.0
H2286 H 0.24744 0.88981 0.69668 0.0
H2287 H 0.2365 0.86858 0.53905 0.0
Li2288 Li 0.15369 0.42506 0.72071 0.0
Li2289 Li 0.17018 0.41865 0.72198 0.0
Li2290 Li 0.16604 0.42624 0.63637 0.0
Li2291 Li 0.14963 0.404 0.6736 0.0
C2292 C 0.17547 0.44929 0.69717 0.0
N2293 N 0.18039 0.47496 0.68017 0.0
C2294 C 0.18614 0.46001 0.72432 0.0
C2295 C 0.1673 0.45163 0.66135 0.0
C2296 C 0.18846 0.47291 0.71519 0.0
C2297 C 0.16995 0.46468 0.65331 0.0
C2298 C 0.15274 0.40407 0.80576 0.0
C2299 C 0.14826 0.38601 0.86876 0.0
N2300 N 0.15468 0.39498 0.91056 0.0
C2301 C 0.15921 0.4131 0.84941 0.0
C2302 C 0.14715 0.39041 0.81548 0.0
C2303 C 0.16012 0.40831 0.90206 0.0
C2304 C 0.1331 0.42973 0.7596 0.0
N2305 N 0.14604 0.43298 0.76564 0.0
C2306 C 0.14869 0.44677 0.84476 0.0
C2307 C 0.15388 0.4414 0.80675 0.0
C2308 C 0.13534 0.44346 0.84006 0.0
C2309 C 0.1275 0.43495 0.79662 0.0
H2310 H 0.12708 0.42291 0.72681 0.0
H2311 H 0.16412 0.44375 0.81072 0.0
C2312 C 0.19645 0.43173 0.75669 0.0
N2313 N 0.18487 0.41999 0.76369 0.0
C2314 C 0.20789 0.43425 0.78603 0.0
C2315 C 0.19544 0.41235 0.82787 0.0
C2316 C 0.18425 0.41022 0.79745 0.0
C2317 C 0.20733 0.42454 0.82261 0.0
H2318 H 0.19676 0.4392 0.72864 0.0
H2319 H 0.17509 0.40083 0.80129 0.0
C2320 C 0.13945 0.41425 0.59382 0.0
N2321 N 0.12536 0.40513 0.49464 0.0
C2322 C 0.14348 0.40832 0.55304 0.0
C2323 C 0.12825 0.41552 0.5842 0.0
C2324 C 0.13623 0.40378 0.50317 0.0
C2325 C 0.12126 0.41087 0.53376 0.0
C2326 C 0.17457 0.40342 0.65452 0.0
C2327 C 0.18727 0.40824 0.63162 0.0
C2328 C 0.16878 0.39161 0.68564 0.0
C2329 C 0.194 0.4012 0.64049 0.0
C2330 C 0.1758 0.38484 0.69345 0.0
N2331 N 0.18817 0.38974 0.67097 0.0
C2332 C 0.18843 0.43859 0.5765 0.0
C2333 C 0.17033 0.43596 0.52052 0.0
C2334 C 0.19621 0.44067 0.5291 0.0
N2335 N 0.1755 0.43536 0.57104 0.0
C2336 C 0.17786 0.43813 0.47162 0.0
C2337 C 0.1906 0.43955 0.47596 0.0
H2338 H 0.19225 0.43819 0.61746 0.0
H2339 H 0.1601 0.43368 0.51745 0.0
C2340 C 0.1247 0.37946 0.67554 0.0
N2341 N 0.13697 0.38628 0.65148 0.0
C2342 C 0.1156 0.36653 0.6574 0.0
C2343 C 0.13194 0.36807 0.59 0.0
C2344 C 0.14067 0.38088 0.60934 0.0
C2345 C 0.1193 0.36077 0.61426 0.0
H2346 H 0.12201 0.38404 0.70874 0.0
H2347 H 0.15043 0.38654 0.59054 0.0
O2348 O 0.17305 0.43661 0.70653 0.0
O2349 O 0.15173 0.40853 0.75388 0.0
O2350 O 0.14612 0.41841 0.64377 0.0
O2351 O 0.16789 0.4103 0.64747 0.0
H2352 H 0.19253 0.45837 0.75243 0.0
H2353 H 0.15899 0.44353 0.63992 0.0
H2354 H 0.19668 0.48129 0.73601 0.0
H2355 H 0.1637 0.46663 0.62572 0.0
H2356 H 0.14402 0.37547 0.87687 0.0
H2357 H 0.16367 0.4237 0.84246 0.0
H2358 H 0.14203 0.38329 0.78219 0.0
H2359 H 0.16521 0.41519 0.93611 0.0
H2360 H 0.15496 0.45329 0.87794 0.0
H2361 H 0.11713 0.43223 0.79216 0.0
H2362 H 0.21697 0.44375 0.78132 0.0
H2363 H 0.19479 0.40468 0.85591 0.0
H2364 H 0.1522 0.40738 0.55948 0.0
H2365 H 0.12495 0.42003 0.61551 0.0
H2366 H 0.13927 0.3992 0.47122 0.0
H2367 H 0.11256 0.41178 0.52576 0.0
H2368 H 0.19194 0.4173 0.60721 0.0
H2369 H 0.15904 0.3878 0.70437 0.0
H2370 H 0.20385 0.40485 0.62312 0.0
H2371 H 0.17145 0.37572 0.71771 0.0
H2372 H 0.20609 0.44193 0.53372 0.0
H2373 H 0.17337 0.43742 0.43095 0.0
H2374 H 0.10587 0.36107 0.67684 0.0
H2375 H 0.13503 0.36385 0.55665 0.0
Li2376 Li 0.40707 0.92941 0.16251 0.0
Li2377 Li 0.40306 0.90812 0.19954 0.0
Li2378 Li 0.41463 0.91622 0.10677 0.0
Li2379 Li 0.3908 0.90785 0.11656 0.0
C2380 C 0.43247 0.93443 0.19906 0.0
N2381 N 0.45699 0.95501 0.2337 0.0
C2382 C 0.43513 0.93737 0.25616 0.0
C2383 C 0.44243 0.94183 0.15972 0.0
C2384 C 0.44754 0.94784 0.27282 0.0
C2385 C 0.45471 0.95224 0.17799 0.0
C2386 C 0.38229 0.90942 0.23998 0.0
C2387 C 0.36592 0.89057 0.2929 0.0
N2388 N 0.36694 0.8989 0.3353 0.0
C2389 C 0.38307 0.91781 0.28378 0.0
C2390 C 0.37355 0.89571 0.24429 0.0
C2391 C 0.37527 0.91229 0.33173 0.0
C2392 C 0.4113 0.95606 0.15166 0.0
N2393 N 0.41129 0.94679 0.18677 0.0
C2394 C 0.41982 0.96254 0.26194 0.0
C2395 C 0.41492 0.94965 0.24153 0.0
C2396 C 0.42074 0.97248 0.22575 0.0
C2397 C 0.41607 0.96911 0.17042 0.0
H2398 H 0.40797 0.95344 0.10877 0.0
H2399 H 0.41428 0.94196 0.26909 0.0
C2400 C 0.40915 0.89119 0.25745 0.0
N2401 N 0.40508 0.90024 0.26543 0.0
C2402 C 0.41675 0.88945 0.29845 0.0
C2403 C 0.41472 0.90544 0.35691 0.0
C2404 C 0.40709 0.90681 0.31495 0.0
C2405 C 0.42025 0.89728 0.34713 0.0
H2406 H 0.40787 0.88653 0.21685 0.0
H2407 H 0.40431 0.91438 0.31916 0.0
C2408 C 0.41084 0.9335 0.03693 0.0
N2409 N 0.42394 0.95079 0.94914 0.0
C2410 C 0.40528 0.93073 0.98308 0.0
C2411 C 0.42296 0.94518 0.04617 0.0
C2412 C 0.41208 0.93956 0.93923 0.0
C2413 C 0.42946 0.95377 0.00128 0.0
C2414 C 0.39352 0.88586 0.10538 0.0
C2415 C 0.39615 0.88383 0.05009 0.0
C2416 C 0.38371 0.87519 0.13612 0.0
C2417 C 0.38865 0.87122 0.02593 0.0
C2418 C 0.37643 0.86272 0.11049 0.0
N2419 N 0.37901 0.86102 0.05635 0.0
C2420 C 0.43648 0.91299 0.09111 0.0
C2421 C 0.42828 0.91665 0.0056 0.0
C2422 C 0.44594 0.91118 0.06229 0.0
N2423 N 0.42794 0.91569 0.06254 0.0
C2424 C 0.43755 0.91485 0.97506 0.0
C2425 C 0.44641 0.91199 0.00364 0.0
H2426 H 0.43578 0.91202 0.13634 0.0
H2427 H 0.42112 0.91839 0.98379 0.0
C2428 C 0.36268 0.89544 0.09501 0.0
N2429 N 0.37486 0.89876 0.07386 0.0
C2430 C 0.35141 0.8894 0.06046 0.0
C2431 C 0.36547 0.89033 0.98349 0.0
C2432 C 0.37641 0.8963 0.0194 0.0
C2433 C 0.35284 0.88692 0.00395 0.0
H2434 H 0.36174 0.89769 0.13825 0.0
H2435 H 0.38623 0.8992 0.00359 0.0
O2436 O 0.42038 0.92409 0.18202 0.0
O2437 O 0.38992 0.91461 0.19287 0.0
O2438 O 0.40437 0.92487 0.08026 0.0
O2439 O 0.40071 0.89817 0.12963 0.0
H2440 H 0.42771 0.93167 0.28747 0.0
H2441 H 0.4408 0.93954 0.11549 0.0
H2442 H 0.44966 0.95023 0.31688 0.0
H2443 H 0.46246 0.95806 0.14786 0.0
H2444 H 0.35915 0.87996 0.29686 0.0
H2445 H 0.38963 0.92847 0.28083 0.0
H2446 H 0.37264 0.88912 0.21033 0.0
H2447 H 0.37583 0.91866 0.36608 0.0
H2448 H 0.42322 0.96483 0.30502 0.0
H2449 H 0.41657 0.97659 0.14171 0.0
H2450 H 0.42106 0.88323 0.28961 0.0
H2451 H 0.41747 0.91174 0.39381 0.0
H2452 H 0.39581 0.92187 0.97509 0.0
H2453 H 0.4272 0.94772 0.08773 0.0
H2454 H 0.40792 0.93748 0.89732 0.0
H2455 H 0.43886 0.96283 0.00797 0.0
H2456 H 0.40379 0.89195 0.02585 0.0
H2457 H 0.38181 0.87647 0.17945 0.0
H2458 H 0.39049 0.86955 0.98299 0.0
H2459 H 0.36876 0.85439 0.13372 0.0
H2460 H 0.45266 0.90896 0.08528 0.0
H2461 H 0.43769 0.91548 0.92966 0.0
H2462 H 0.34174 0.8869 0.0772 0.0
H2463 H 0.36687 0.88857 0.93999 0.0
Li2464 Li 0.06814 0.47553 0.14019 0.0
Li2465 Li 0.08821 0.49195 0.18652 0.0
Li2466 Li 0.08325 0.4969 0.09107 0.0
Li2467 Li 0.09006 0.48059 0.10627 0.0
C2468 C 0.06472 0.49468 0.19987 0.0
N2469 N 0.04772 0.49604 0.27758 0.0
C2470 C 0.05992 0.48577 0.24492 0.0
C2471 C 0.06066 0.50412 0.19374 0.0
C2472 C 0.05141 0.48668 0.28398 0.0
C2473 C 0.05209 0.50467 0.23356 0.0
C2474 C 0.08577 0.47002 0.22932 0.0
C2475 C 0.10358 0.47361 0.29222 0.0
N2476 N 0.09444 0.46555 0.33082 0.0
C2477 C 0.07654 0.46175 0.2696 0.0
C2478 C 0.09939 0.47597 0.24067 0.0
C2479 C 0.08113 0.45962 0.32064 0.0
C2480 C 0.04736 0.45008 0.17183 0.0
N2481 N 0.05004 0.46225 0.15292 0.0
C2482 C 0.02759 0.45689 0.1697 0.0
C2483 C 0.04036 0.4656 0.14975 0.0
C2484 C 0.02481 0.44464 0.19278 0.0
C2485 C 0.03471 0.44105 0.19252 0.0
H2486 H 0.05523 0.44765 0.17338 0.0
H2487 H 0.04274 0.47535 0.13481 0.0
C2488 C 0.10314 0.51479 0.24828 0.0
N2489 N 0.09464 0.50152 0.25527 0.0
C2490 C 0.10422 0.52379 0.28975 0.0
C2491 C 0.0886 0.5052 0.34656 0.0
C2492 C 0.08806 0.49655 0.30457 0.0
C2493 C 0.09618 0.51897 0.33771 0.0
H2494 H 0.10798 0.51851 0.20819 0.0
H2495 H 0.08121 0.48603 0.3091 0.0
C2496 C 0.06415 0.47594 0.02592 0.0
N2497 N 0.04301 0.4707 0.95619 0.0
C2498 C 0.06011 0.46614 0.98447 0.0
C2499 C 0.05741 0.48307 0.03198 0.0
C2500 C 0.0494 0.46364 0.94961 0.0
C2501 C 0.04676 0.48028 0.9963 0.0
C2502 C 0.11247 0.50345 0.09992 0.0
C2503 C 0.11439 0.50487 0.04185 0.0
C2504 C 0.12298 0.50537 0.13482 0.0
C2505 C 0.12674 0.50791 0.01949 0.0
C2506 C 0.1352 0.50843 0.11086 0.0
N2507 N 0.1368 0.5096 0.05417 0.0
C2508 C 0.0868 0.5222 0.07251 0.0
C2509 C 0.08626 0.51078 0.98892 0.0
C2510 C 0.08905 0.53339 0.04179 0.0
N2511 N 0.08534 0.51119 0.04569 0.0
C2512 C 0.08868 0.52181 0.95659 0.0
C2513 C 0.09005 0.53324 0.98322 0.0
H2514 H 0.08636 0.52232 0.11784 0.0
H2515 H 0.08526 0.50194 0.96892 0.0
C2516 C 0.1075 0.46955 0.09023 0.0
N2517 N 0.09928 0.4734 0.06636 0.0
C2518 C 0.114 0.46464 0.0566 0.0
C2519 C 0.10337 0.46769 0.97502 0.0
C2520 C 0.09717 0.47257 0.00996 0.0
C2521 C 0.11187 0.46366 0.99836 0.0
H2522 H 0.10907 0.47034 0.13507 0.0
H2523 H 0.09077 0.47589 0.99193 0.0
O2524 O 0.07285 0.4938 0.16045 0.0
O2525 O 0.0815 0.47227 0.17907 0.0
O2526 O 0.07463 0.47845 0.06026 0.0
O2527 O 0.10033 0.50009 0.12244 0.0
H2528 H 0.06258 0.4781 0.24919 0.0
H2529 H 0.06403 0.51092 0.15849 0.0
H2530 H 0.04769 0.47987 0.31917 0.0
H2531 H 0.04892 0.51198 0.22949 0.0
H2532 H 0.1141 0.47821 0.30158 0.0
H2533 H 0.06596 0.45715 0.262 0.0
H2534 H 0.10664 0.48244 0.2102 0.0
H2535 H 0.07411 0.4533 0.35226 0.0
H2536 H 0.02012 0.45991 0.16957 0.0
H2537 H 0.03281 0.43165 0.21017 0.0
H2538 H 0.11011 0.5344 0.28181 0.0
H2539 H 0.08228 0.50123 0.38321 0.0
H2540 H 0.06518 0.4605 0.97933 0.0
H2541 H 0.0603 0.49064 0.06397 0.0
H2542 H 0.04617 0.45607 0.91734 0.0
H2543 H 0.04146 0.48571 0.00056 0.0
H2544 H 0.10635 0.5034 0.01427 0.0
H2545 H 0.12174 0.50453 0.17993 0.0
H2546 H 0.12832 0.50888 0.97457 0.0
H2547 H 0.1434 0.50988 0.13733 0.0
H2548 H 0.09008 0.54209 0.06337 0.0
H2549 H 0.08941 0.52144 0.91135 0.0
H2550 H 0.12058 0.46164 0.07562 0.0
H2551 H 0.10161 0.46711 0.93016 0.0
Li2552 Li 0.50418 0.59452 0.19189 0.0
Li2553 Li 0.52031 0.59022 0.14755 0.0
Li2554 Li 0.51701 0.60882 0.11375 0.0
Li2555 Li 0.5002 0.58526 0.09765 0.0
C2556 C 0.52807 0.61679 0.22708 0.0
N2557 N 0.53657 0.63705 0.30532 0.0
C2558 C 0.53572 0.61711 0.2731 0.0
C2559 C 0.52488 0.62685 0.22057 0.0
C2560 C 0.53988 0.62741 0.31229 0.0
C2561 C 0.52923 0.63699 0.26063 0.0
C2562 C 0.50256 0.56699 0.19116 0.0
C2563 C 0.50421 0.54711 0.18303 0.0
N2564 N 0.50464 0.54646 0.23995 0.0
C2565 C 0.50302 0.56612 0.24962 0.0
C2566 C 0.50319 0.55743 0.15758 0.0
C2567 C 0.50408 0.55567 0.27345 0.0
C2568 C 0.48261 0.58013 0.25619 0.0
N2569 N 0.49453 0.5916 0.25987 0.0
C2570 C 0.492 0.59236 0.35921 0.0
C2571 C 0.49919 0.59801 0.30977 0.0
C2572 C 0.48011 0.58007 0.35633 0.0
C2573 C 0.47517 0.5742 0.30407 0.0
H2574 H 0.47937 0.575 0.21644 0.0
H2575 H 0.50878 0.60699 0.31199 0.0
C2576 C 0.53833 0.58059 0.12363 0.0
N2577 N 0.53278 0.58456 0.1641 0.0
C2578 C 0.54629 0.57515 0.13872 0.0
C2579 C 0.54279 0.57824 0.23645 0.0
C2580 C 0.53508 0.58376 0.21953 0.0
C2581 C 0.54832 0.57371 0.1958 0.0
H2582 H 0.53632 0.58134 0.07987 0.0
H2583 H 0.53046 0.58692 0.25069 0.0
C2584 C 0.48652 0.60023 0.14283 0.0
N2585 N 0.46413 0.60069 0.18 0.0
C2586 C 0.47387 0.58897 0.13694 0.0
C2587 C 0.48772 0.61178 0.16707 0.0
C2588 C 0.46269 0.58938 0.15614 0.0
C2589 C 0.4763 0.6118 0.18576 0.0
C2590 C 0.51683 0.59125 0.01427 0.0
C2591 C 0.51697 0.59985 0.97277 0.0
C2592 C 0.51412 0.57846 -0.00048 0.0
C2593 C 0.51426 0.59545 0.91717 0.0
C2594 C 0.51142 0.57441 0.94348 0.0
N2595 N 0.51154 0.58292 0.90382 0.0
C2596 C 0.5382 0.63189 0.06503 0.0
C2597 C 0.51679 0.62974 0.05617 0.0
C2598 C 0.54364 0.64278 0.02847 0.0
N2599 N 0.52496 0.62553 0.07724 0.0
C2600 C 0.52181 0.64057 0.01957 0.0
C2601 C 0.53531 0.64699 0.00455 0.0
H2602 H 0.54435 0.62808 0.08148 0.0
H2603 H 0.50625 0.62426 0.06553 0.0
C2604 C 0.47901 0.56055 0.06036 0.0
N2605 N 0.48638 0.57376 0.04835 0.0
C2606 C 0.46784 0.55227 0.02807 0.0
C2607 C 0.47198 0.5714 0.97205 0.0
C2608 C 0.48308 0.5793 0.00538 0.0
C2609 C 0.46424 0.55776 0.98372 0.0
H2610 H 0.48156 0.55651 0.096 0.0
H2611 H 0.48887 0.58993 0.99809 0.0
O2612 O 0.5239 0.60676 0.18838 0.0
O2613 O 0.50157 0.57719 0.16691 0.0
O2614 O 0.49762 0.60001 0.12445 0.0
O2615 O 0.51916 0.59527 0.06915 0.0
H2616 H 0.53839 0.60948 0.27864 0.0
H2617 H 0.51916 0.62688 0.18491 0.0
H2618 H 0.54576 0.62775 0.34822 0.0
H2619 H 0.52679 0.64482 0.25614 0.0
H2620 H 0.50471 0.53965 0.15751 0.0
H2621 H 0.5028 0.57353 0.27641 0.0
H2622 H 0.50298 0.558 0.11232 0.0
H2623 H 0.5045 0.55491 0.3186 0.0
H2624 H 0.49604 0.59705 0.39933 0.0
H2625 H 0.46606 0.56466 0.30078 0.0
H2626 H 0.55044 0.57169 0.1065 0.0
H2627 H 0.54418 0.57722 0.28078 0.0
H2628 H 0.47266 0.57991 0.1186 0.0
H2629 H 0.49734 0.62066 0.17133 0.0
H2630 H 0.45288 0.5807 0.15219 0.0
H2631 H 0.47711 0.62066 0.20475 0.0
H2632 H 0.51903 0.60978 0.98331 0.0
H2633 H 0.51397 0.57168 0.0311 0.0
H2634 H 0.51427 0.60198 0.88467 0.0
H2635 H 0.5092 0.5645 0.93155 0.0
H2636 H 0.55408 0.64752 0.01717 0.0
H2637 H 0.51516 0.64358 0.00134 0.0
H2638 H 0.46197 0.54176 0.03799 0.0
H2639 H 0.46935 0.57586 0.93805 0.0
Li2640 Li 0.08967 0.60711 0.60641 0.0
Li2641 Li 0.06891 0.59103 0.64753 0.0
Li2642 Li 0.08968 0.59376 0.68306 0.0
Li2643 Li 0.0819 0.58401 0.59157 0.0
C2644 C 0.07975 0.61644 0.69052 0.0
N2645 N 0.072 0.63533 0.70214 0.0
C2646 C 0.07365 0.61916 0.6458 0.0
C2647 C 0.0819 0.62333 0.74112 0.0
C2648 C 0.06981 0.62875 0.65251 0.0
C2649 C 0.07791 0.63284 0.74618 0.0
C2650 C 0.06218 0.58603 0.53449 0.0
C2651 C 0.04177 0.56521 0.5204 0.0
N2652 N 0.03987 0.56988 0.47091 0.0
C2653 C 0.06002 0.59062 0.48352 0.0
C2654 C 0.05298 0.57322 0.55314 0.0
C2655 C 0.04869 0.58231 0.45196 0.0
C2656 C 0.09897 0.62155 0.50997 0.0
N2657 N 0.09885 0.62334 0.56631 0.0
C2658 C 0.11106 0.647 0.55517 0.0
C2659 C 0.10482 0.63572 0.58961 0.0
C2660 C 0.11113 0.64535 0.49682 0.0
C2661 C 0.10509 0.63249 0.47418 0.0
H2662 H 0.09421 0.61156 0.4929 0.0
H2663 H 0.10466 0.63683 0.63464 0.0
C2664 C 0.04774 0.57919 0.72047 0.0
N2665 N 0.0516 0.58646 0.67239 0.0
C2666 C 0.03495 0.57444 0.74163 0.0
C2667 C 0.03051 0.58538 0.66497 0.0
C2668 C 0.04338 0.58977 0.64474 0.0
C2669 C 0.02614 0.5774 0.71336 0.0
H2670 H 0.05459 0.57689 0.74186 0.0
H2671 H 0.04674 0.59562 0.60665 0.0
C2672 C 0.11322 0.60701 0.62422 0.0
N2673 N 0.13959 0.62546 0.64586 0.0
C2674 C 0.12339 0.60641 0.59522 0.0
C2675 C 0.11646 0.61698 0.66437 0.0
C2676 C 0.13666 0.61583 0.60674 0.0
C2677 C 0.12985 0.62622 0.67465 0.0
C2678 C 0.07265 0.56529 0.67787 0.0
C2679 C 0.08373 0.56374 0.66918 0.0
C2680 C 0.06076 0.55452 0.6975 0.0
C2681 C 0.08283 0.55153 0.68152 0.0
C2682 C 0.06022 0.54243 0.70895 0.0
N2683 N 0.07119 0.54121 0.70097 0.0
C2684 C 0.09019 0.59053 0.79812 0.0
C2685 C 0.10574 0.58682 0.74788 0.0
C2686 C 0.09107 0.58363 0.84448 0.0
N2687 N 0.09696 0.59136 0.75028 0.0
C2688 C 0.10659 0.57949 0.79255 0.0
C2689 C 0.09856 0.57719 0.83997 0.0
H2690 H 0.08309 0.594 0.79825 0.0
H2691 H 0.1109 0.58752 0.7091 0.0
C2692 C 0.09283 0.57668 0.50504 0.0
N2693 N 0.08212 0.57166 0.53991 0.0
C2694 C 0.095 0.5682 0.47071 0.0
C2695 C 0.07487 0.54953 0.50793 0.0
C2696 C 0.07299 0.55841 0.54098 0.0
C2697 C 0.08609 0.55446 0.47299 0.0
H2698 H 0.09989 0.58727 0.50506 0.0
H2699 H 0.06451 0.55467 0.56884 0.0
O2700 O 0.08362 0.6071 0.68535 0.0
O2701 O 0.07322 0.59419 0.56573 0.0
O2702 O 0.10019 0.59786 0.61287 0.0
O2703 O 0.07313 0.57699 0.66407 0.0
H2704 H 0.07192 0.61399 0.60624 0.0
H2705 H 0.0866 0.62133 0.77613 0.0
H2706 H 0.0651 0.63096 0.61823 0.0
H2707 H 0.07951 0.63824 0.78513 0.0
H2708 H 0.03456 0.55529 0.5344 0.0
H2709 H 0.06703 0.60053 0.46857 0.0
H2710 H 0.05439 0.56947 0.59252 0.0
H2711 H 0.0469 0.58574 0.41244 0.0
H2712 H 0.1157 0.65686 0.57362 0.0
H2713 H 0.10504 0.63096 0.42928 0.0
H2714 H 0.03187 0.56835 0.77917 0.0
H2715 H 0.0239 0.58784 0.64241 0.0
H2716 H 0.12106 0.59874 0.56412 0.0
H2717 H 0.10878 0.61762 0.68743 0.0
H2718 H 0.14463 0.61549 0.58456 0.0
H2719 H 0.13249 0.634 0.70553 0.0
H2720 H 0.09281 0.57176 0.65168 0.0
H2721 H 0.052 0.55545 0.70333 0.0
H2722 H 0.09134 0.55021 0.67501 0.0
H2723 H 0.05109 0.53403 0.72427 0.0
H2724 H 0.08478 0.58202 0.88071 0.0
H2725 H 0.11251 0.57468 0.78811 0.0
H2726 H 0.10368 0.57225 0.44373 0.0
H2727 H 0.06778 0.53895 0.51002 0.0
Li2728 Li 0.41484 0.50231 0.6066 0.0
Li2729 Li 0.40208 0.49668 0.69848 0.0
Li2730 Li 0.40883 0.48159 0.65677 0.0
Li2731 Li 0.3923 0.4845 0.61334 0.0
C2732 C 0.43225 0.501 0.6948 0.0
N2733 N 0.45625 0.50261 0.72092 0.0
C2734 C 0.43549 0.50025 0.75069 0.0
C2735 C 0.44115 0.50241 0.65213 0.0
C2736 C 0.4477 0.50115 0.76307 0.0
C2737 C 0.45323 0.50321 0.6662 0.0
C2738 C 0.39063 0.50611 0.59606 0.0
C2739 C 0.36977 0.50575 0.5845 0.0
N2740 N 0.3731 0.50985 0.53043 0.0
C2741 C 0.39389 0.51043 0.54052 0.0
C2742 C 0.37852 0.50386 0.61844 0.0
C2743 C 0.38488 0.51222 0.50797 0.0
C2744 C 0.43009 0.51637 0.51147 0.0
N2745 N 0.42794 0.51713 0.56706 0.0
C2746 C 0.44421 0.5403 0.56924 0.0
C2747 C 0.43477 0.52872 0.59628 0.0
C2748 C 0.44648 0.53984 0.51177 0.0
C2749 C 0.43941 0.52773 0.48271 0.0
H2750 H 0.42443 0.50701 0.48949 0.0
H2751 H 0.43275 0.52894 0.64051 0.0
C2752 C 0.40568 0.50046 0.81298 0.0
N2753 N 0.40317 0.50548 0.766 0.0
C2754 C 0.4133 0.50905 0.8561 0.0
C2755 C 0.4141 0.52742 0.80429 0.0
C2756 C 0.40656 0.5185 0.7619 0.0
C2757 C 0.41824 0.52276 0.85 0.0
H2758 H 0.40332 0.49017 0.81368 0.0
H2759 H 0.4049 0.52224 0.72292 0.0
C2760 C 0.40343 0.47231 0.54834 0.0
N2761 N 0.395 0.44835 0.49381 0.0
C2762 C 0.39354 0.46043 0.57214 0.0
C2763 C 0.40905 0.47201 0.49682 0.0
C2764 C 0.38941 0.44842 0.54392 0.0
C2765 C 0.40465 0.4598 0.46991 0.0
C2766 C 0.37894 0.47053 0.71245 0.0
C2767 C 0.37193 0.45661 0.71429 0.0
C2768 C 0.37313 0.47763 0.73435 0.0
C2769 C 0.35909 0.45 0.73703 0.0
C2770 C 0.36028 0.47066 0.75678 0.0
N2771 N 0.35358 0.45711 0.75758 0.0
C2772 C 0.41263 0.46573 0.73353 0.0
C2773 C 0.42332 0.46771 0.6461 0.0
C2774 C 0.41825 0.45855 0.75604 0.0
N2775 N 0.41535 0.47023 0.67973 0.0
C2776 C 0.42907 0.46046 0.66679 0.0
C2777 C 0.42665 0.45598 0.72254 0.0
H2778 H 0.40643 0.46811 0.75943 0.0
H2779 H 0.42553 0.47166 0.60388 0.0
C2780 C 0.37957 0.4784 0.51023 0.0
N2781 N 0.37676 0.47633 0.56606 0.0
C2782 C 0.36937 0.47317 0.47057 0.0
C2783 C 0.35341 0.46378 0.54627 0.0
C2784 C 0.36395 0.46925 0.58463 0.0
C2785 C 0.35615 0.46574 0.48866 0.0
H2786 H 0.3898 0.48426 0.49644 0.0
H2787 H 0.36182 0.46789 0.62889 0.0
O2788 O 0.42036 0.50017 0.68181 0.0
O2789 O 0.39919 0.50397 0.62807 0.0
O2790 O 0.4076 0.48424 0.57483 0.0
O2791 O 0.39156 0.47713 0.69088 0.0
H2792 H 0.42868 0.49901 0.78421 0.0
H2793 H 0.4387 0.50273 0.60856 0.0
H2794 H 0.45036 0.50064 0.80617 0.0
H2795 H 0.46021 0.50429 0.6336 0.0
H2796 H 0.36032 0.50395 0.60114 0.0
H2797 H 0.4032 0.5122 0.52246 0.0
H2798 H 0.37587 0.50062 0.6614 0.0
H2799 H 0.38723 0.51545 0.46478 0.0
H2800 H 0.44959 0.54953 0.59257 0.0
H2801 H 0.44104 0.52714 0.43826 0.0
H2802 H 0.41651 0.50525 0.89067 0.0
H2803 H 0.41795 0.53799 0.79834 0.0
H2804 H 0.38907 0.46047 0.61182 0.0
H2805 H 0.41671 0.48113 0.47782 0.0
H2806 H 0.38174 0.43915 0.56185 0.0
H2807 H 0.40891 0.45942 0.42999 0.0
H2808 H 0.37635 0.45095 0.69836 0.0
H2809 H 0.37846 0.48839 0.73398 0.0
H2810 H 0.35353 0.43923 0.73846 0.0
H2811 H 0.35565 0.47603 0.77358 0.0
H2812 H 0.41632 0.45528 0.79936 0.0
H2813 H 0.43563 0.4587 0.64028 0.0
H2814 H 0.37174 0.47488 0.42627 0.0
H2815 H 0.34324 0.45812 0.56127 0.0
Li2816 Li 0.52212 0.92929 0.64906 0.0
Li2817 Li 0.51799 0.90817 0.6163 0.0
Li2818 Li 0.50149 0.91534 0.59624 0.0
Li2819 Li 0.50503 0.90966 0.69419 0.0
C2820 C 0.53202 0.92868 0.54103 0.0
N2821 N 0.55576 0.93814 0.48347 0.0
C2822 C 0.54386 0.93258 0.57032 0.0
C2823 C 0.53223 0.92955 0.48249 0.0
C2824 C 0.55577 0.93735 0.54045 0.0
C2825 C 0.54434 0.93438 0.45415 0.0
C2826 C 0.52783 0.90809 0.723 0.0
C2827 C 0.5218 0.88685 0.76479 0.0
N2828 N 0.53454 0.89189 0.78311 0.0
C2829 C 0.54086 0.91308 0.74237 0.0
C2830 C 0.51821 0.89488 0.73435 0.0
C2831 C 0.54406 0.90473 0.77264 0.0
C2832 C 0.5403 0.94949 0.71881 0.0
N2833 N 0.53488 0.94723 0.66654 0.0
C2834 C 0.54575 0.9706 0.64797 0.0
C2835 C 0.53757 0.95741 0.63071 0.0
C2836 C 0.55111 0.97318 0.70237 0.0
C2837 C 0.54853 0.96249 0.73771 0.0
H2838 H 0.53783 0.94117 0.74653 0.0
H2839 H 0.53297 0.95528 0.58964 0.0
C2840 C 0.51806 0.89146 0.53443 0.0
N2841 N 0.52528 0.89885 0.57906 0.0
C2842 C 0.52349 0.8862 0.49708 0.0
C2843 C 0.54362 0.896 0.55311 0.0
C2844 C 0.53777 0.90106 0.58956 0.0
C2845 C 0.5365 0.88871 0.50577 0.0
H2846 H 0.5083 0.89019 0.52642 0.0
H2847 H 0.54344 0.90733 0.62434 0.0
C2848 C 0.50452 0.93638 0.6848 0.0
N2849 N 0.5058 0.95953 0.72245 0.0
C2850 C 0.50596 0.93939 0.74204 0.0
C2851 C 0.50391 0.94521 0.64657 0.0
C2852 C 0.50652 0.95112 0.7603 0.0
C2853 C 0.50458 0.95687 0.66645 0.0
C2854 C 0.4882 0.88543 0.62835 0.0
C2855 C 0.47512 0.88288 0.62252 0.0
C2856 C 0.49056 0.87478 0.63442 0.0
C2857 C 0.4646 0.86973 0.62403 0.0
C2858 C 0.47977 0.86177 0.63576 0.0
N2859 N 0.46712 0.85954 0.63063 0.0
C2860 C 0.48642 0.90739 0.4971 0.0
C2861 C 0.4787 0.91655 0.56695 0.0
C2862 C 0.4754 0.90434 0.46335 0.0
N2863 N 0.48782 0.91338 0.54769 0.0
C2864 C 0.4676 0.91377 0.53443 0.0
C2865 C 0.46587 0.90753 0.48226 0.0
H2866 H 0.4937 0.90471 0.48371 0.0
H2867 H 0.47987 0.92089 0.60819 0.0
C2868 C 0.50063 0.90597 0.81346 0.0
N2869 N 0.49504 0.90391 0.7615 0.0
C2870 C 0.49331 0.90565 0.86082 0.0
C2871 C 0.47463 0.90065 0.80015 0.0
C2872 C 0.48222 0.90099 0.7543 0.0
C2873 C 0.48035 0.9035 0.85369 0.0
H2874 H 0.51104 0.90892 0.81778 0.0
H2875 H 0.4783 0.90011 0.71243 0.0
O2876 O 0.52017 0.92356 0.56912 0.0
O2877 O 0.52466 0.91614 0.69266 0.0
O2878 O 0.50353 0.92474 0.66638 0.0
O2879 O 0.49866 0.89822 0.62575 0.0
H2880 H 0.54386 0.93176 0.61556 0.0
H2881 H 0.52311 0.92644 0.45922 0.0
H2882 H 0.565 0.94036 0.56255 0.0
H2883 H 0.54465 0.93508 0.40882 0.0
H2884 H 0.51443 0.87661 0.77393 0.0
H2885 H 0.54843 0.92329 0.73379 0.0
H2886 H 0.50806 0.89092 0.72038 0.0
H2887 H 0.55412 0.90845 0.78775 0.0
H2888 H 0.54749 0.9787 0.62009 0.0
H2889 H 0.55245 0.96422 0.78009 0.0
H2890 H 0.51784 0.8807 0.46058 0.0
H2891 H 0.55374 0.89818 0.5604 0.0
H2892 H 0.50662 0.93273 0.77197 0.0
H2893 H 0.50294 0.94307 0.60202 0.0
H2894 H 0.50758 0.95356 0.80453 0.0
H2895 H 0.50411 0.96379 0.63738 0.0
H2896 H 0.47309 0.89096 0.61686 0.0
H2897 H 0.50063 0.87653 0.63775 0.0
H2898 H 0.45443 0.86763 0.61979 0.0
H2899 H 0.48146 0.85345 0.64064 0.0
H2900 H 0.47426 0.89949 0.42319 0.0
H2901 H 0.46034 0.91628 0.55002 0.0
H2902 H 0.498 0.90802 0.90178 0.0
H2903 H 0.4647 0.8991 0.79345 0.0
Li2904 Li 0.27361 0.42223 0.22426 0.0
Li2905 Li 0.25513 0.40048 0.19839 0.0
Li2906 Li 0.26103 0.41998 0.14103 0.0
Li2907 Li 0.25093 0.41769 0.23285 0.0
C2908 C 0.27697 0.41219 0.1045 0.0
N2909 N 0.28609 0.41358 0.99612 0.0
C2910 C 0.27108 0.40095 0.06984 0.0
C2911 C 0.28752 0.42412 0.08409 0.0
C2912 C 0.27583 0.40186 0.01517 0.0
C2913 C 0.29198 0.42463 0.02916 0.0
C2914 C 0.25845 0.39861 0.30392 0.0
C2915 C 0.24555 0.37802 0.35454 0.0
N2916 N 0.25664 0.37691 0.36012 0.0
C2917 C 0.26972 0.39727 0.31014 0.0
C2918 C 0.24626 0.38892 0.32629 0.0
C2919 C 0.2686 0.38623 0.33873 0.0
C2920 C 0.28884 0.43385 0.3181 0.0
N2921 N 0.29002 0.43111 0.26359 0.0
C2922 C 0.31349 0.44017 0.27445 0.0
C2923 C 0.302 0.43411 0.24116 0.0
C2924 C 0.31245 0.44304 0.33086 0.0
C2925 C 0.30001 0.43991 0.35265 0.0
H2926 H 0.27915 0.43119 0.33483 0.0
H2927 H 0.3026 0.43165 0.1979 0.0
C2928 C 0.23603 0.37334 0.18343 0.0
N2929 N 0.24921 0.38198 0.19193 0.0
C2930 C 0.23171 0.36024 0.16734 0.0
C2931 C 0.25456 0.36504 0.17041 0.0
C2932 C 0.25843 0.37804 0.18724 0.0
C2933 C 0.24109 0.35613 0.15905 0.0
H2934 H 0.22895 0.37676 0.18602 0.0
H2935 H 0.26888 0.38522 0.19316 0.0
C2936 C 0.27548 0.44567 0.21946 0.0
N2937 N 0.295 0.46964 0.26321 0.0
C2938 C 0.27363 0.45004 0.27163 0.0
C2939 C 0.28719 0.45355 0.18926 0.0
C2940 C 0.28363 0.46218 0.29308 0.0
C2941 C 0.29696 0.46562 0.21219 0.0
C2942 C 0.23044 0.40389 0.16879 0.0
C2943 C 0.22625 0.41021 0.13063 0.0
C2944 C 0.22173 0.39587 0.21102 0.0
C2945 C 0.21342 0.40838 0.13521 0.0
C2946 C 0.20899 0.39431 0.21433 0.0
N2947 N 0.20513 0.40055 0.17666 0.0
C2948 C 0.25165 0.41427 0.03317 0.0
C2949 C 0.26296 0.43747 0.05276 0.0
C2950 C 0.24576 0.41613 0.98575 0.0
N2951 N 0.25957 0.42478 0.06671 0.0
C2952 C 0.2574 0.43982 0.00502 0.0
C2953 C 0.24807 0.42892 0.97319 0.0
H2954 H 0.24875 0.40426 0.04653 0.0
H2955 H 0.26895 0.44557 0.0812 0.0
C2956 C 0.23534 0.41771 0.32522 0.0
N2957 N 0.23964 0.42228 0.27247 0.0
C2958 C 0.22699 0.42127 0.35314 0.0
C2959 C 0.22774 0.4342 0.27196 0.0
C2960 C 0.23617 0.4305 0.24584 0.0
C2961 C 0.22314 0.42959 0.32629 0.0
H2962 H 0.23838 0.4113 0.34545 0.0
H2963 H 0.2399 0.43408 0.20405 0.0
O2964 O 0.27232 0.41158 0.15786 0.0
O2965 O 0.25925 0.40915 0.27469 0.0
O2966 O 0.266 0.43363 0.19851 0.0
O2967 O 0.2431 0.40583 0.16575 0.0
H2968 H 0.26279 0.39167 0.08457 0.0
H2969 H 0.29215 0.43293 0.11023 0.0
H2970 H 0.27131 0.39325 0.9878 0.0
H2971 H 0.30011 0.43382 0.01276 0.0
H2972 H 0.23617 0.37042 0.37192 0.0
H2973 H 0.27919 0.40458 0.29246 0.0
H2974 H 0.23742 0.38976 0.32156 0.0
H2975 H 0.27723 0.38504 0.34368 0.0
H2976 H 0.32301 0.44246 0.25678 0.0
H2977 H 0.29895 0.44197 0.39612 0.0
H2978 H 0.22125 0.35359 0.15838 0.0
H2979 H 0.26203 0.36216 0.1638 0.0
H2980 H 0.26466 0.44403 0.29572 0.0
H2981 H 0.28875 0.45034 0.14877 0.0
H2982 H 0.28238 0.46563 0.33358 0.0
H2983 H 0.30612 0.47178 0.18947 0.0
H2984 H 0.23288 0.41659 0.09827 0.0
H2985 H 0.22486 0.39113 0.24173 0.0
H2986 H 0.21008 0.41325 0.10601 0.0
H2987 H 0.2022 0.38823 0.24709 0.0
H2988 H 0.23858 0.40754 0.96202 0.0
H2989 H 0.2593 0.4498 0.99621 0.0
H2990 H 0.22352 0.41754 0.3951 0.0
H2991 H 0.22486 0.44058 0.25023 0.0
Li2992 Li 0.57748 0.85252 0.21498 0.0
Li2993 Li 0.59892 0.85585 0.17762 0.0
Li2994 Li 0.57755 0.84115 0.12955 0.0
Li2995 Li 0.58235 0.83493 0.21966 0.0
C2996 C 0.57908 0.86565 0.11512 0.0
N2997 N 0.56463 0.87558 0.06232 0.0
C2998 C 0.58562 0.87835 0.09105 0.0
C2999 C 0.56518 0.85799 0.11229 0.0
C3000 C 0.57814 0.8832 0.06454 0.0
C3001 C 0.55806 0.8632 0.08544 0.0
C3002 C 0.59372 0.84883 0.30873 0.0
C3003 C 0.60493 0.84193 0.37446 0.0
N3004 N 0.59551 0.8397 0.4137 0.0
C3005 C 0.58417 0.84652 0.34978 0.0
C3006 C 0.60423 0.84659 0.32118 0.0
C3007 C 0.58525 0.84189 0.40258 0.0
C3008 C 0.55638 0.8546 0.26398 0.0
N3009 N 0.5698 0.86094 0.2562 0.0
C3010 C 0.57307 0.87777 0.32254 0.0
C3011 C 0.57814 0.87242 0.28372 0.0
C3012 C 0.55932 0.87116 0.33282 0.0
C3013 C 0.55088 0.85961 0.30239 0.0
H3014 H 0.55004 0.84539 0.24205 0.0
H3015 H 0.58879 0.87708 0.2773 0.0
C3016 C 0.61987 0.86896 0.10474 0.0
N3017 N 0.61704 0.8676 0.16052 0.0
C3018 C 0.63304 0.87607 0.08644 0.0
C3019 C 0.64016 0.8806 0.18345 0.0
C3020 C 0.62679 0.87338 0.19997 0.0
C3021 C 0.64332 0.88178 0.12608 0.0
H3022 H 0.61188 0.86416 0.07456 0.0
H3023 H 0.62422 0.87201 0.24406 0.0
C3024 C 0.55589 0.8206 0.18321 0.0
N3025 N 0.53701 0.79443 0.15993 0.0
C3026 C 0.55978 0.81179 0.16216 0.0
C3027 C 0.54237 0.81606 0.19246 0.0
C3028 C 0.5501 0.79861 0.15073 0.0
C3029 C 0.53298 0.80281 0.18034 0.0
C3030 C 0.59963 0.83205 0.13791 0.0
C3031 C 0.59505 0.82144 0.10002 0.0
C3032 C 0.61212 0.83691 0.16313 0.0
C3033 C 0.60302 0.81584 0.08809 0.0
C3034 C 0.6198 0.83106 0.15002 0.0
N3035 N 0.61513 0.82074 0.11309 0.0
C3036 C 0.5819 0.83713 0.02157 0.0
C3037 C 0.55878 0.82541 0.04254 0.0
C3038 C 0.57986 0.82914 0.97482 0.0
N3039 N 0.57156 0.83457 0.05612 0.0
C3040 C 0.55626 0.8172 0.9957 0.0
C3041 C 0.56705 0.81853 0.96376 0.0
H3042 H 0.59194 0.84442 0.03379 0.0
H3043 H 0.55072 0.82361 0.07063 0.0
C3044 C 0.56845 0.81529 0.2998 0.0
N3045 N 0.57919 0.81996 0.2651 0.0
C3046 C 0.5648 0.8041 0.3331 0.0
C3047 C 0.58338 0.80268 0.29476 0.0
C3048 C 0.58668 0.81393 0.26216 0.0
C3049 C 0.57232 0.7977 0.33049 0.0
H3050 H 0.56267 0.82028 0.30145 0.0
H3051 H 0.59519 0.81777 0.23479 0.0
O3052 O 0.58631 0.86084 0.14134 0.0
O3053 O 0.59262 0.85299 0.25627 0.0
O3054 O 0.56517 0.83355 0.19536 0.0
O3055 O 0.59209 0.83787 0.14898 0.0
H3056 H 0.59638 0.88439 0.09289 0.0
H3057 H 0.55992 0.84814 0.13055 0.0
H3058 H 0.58307 0.89301 0.04575 0.0
H3059 H 0.54731 0.85738 0.08296 0.0
H3060 H 0.61295 0.84006 0.38456 0.0
H3061 H 0.57591 0.8481 0.34077 0.0
H3062 H 0.61168 0.84829 0.28989 0.0
H3063 H 0.57789 0.83998 0.43463 0.0
H3064 H 0.5798 0.88669 0.34568 0.0
H3065 H 0.54022 0.8543 0.30969 0.0
H3066 H 0.63523 0.87679 0.04193 0.0
H3067 H 0.64795 0.88487 0.21488 0.0
H3068 H 0.57014 0.81504 0.1549 0.0
H3069 H 0.53914 0.8227 0.20875 0.0
H3070 H 0.55301 0.7917 0.13458 0.0
H3071 H 0.52249 0.79918 0.18724 0.0
H3072 H 0.58544 0.81753 0.07999 0.0
H3073 H 0.6158 0.84499 0.19298 0.0
H3074 H 0.59957 0.80762 0.05887 0.0
H3075 H 0.62947 0.83472 0.1693 0.0
H3076 H 0.58837 0.83042 0.95076 0.0
H3077 H 0.54625 0.80911 0.98778 0.0
H3078 H 0.55628 0.80051 0.36082 0.0
H3079 H 0.58943 0.79798 0.2925 0.0
Li3080 Li 0.16165 0.73743 0.13593 0.0
Li3081 Li 0.1694 0.74914 0.22513 0.0
Li3082 Li 0.15177 0.72617 0.22204 0.0
Li3083 Li 0.14773 0.74373 0.18901 0.0
C3084 C 0.17365 0.72487 0.2202 0.0
N3085 N 0.17871 0.70631 0.26996 0.0
C3086 C 0.18028 0.72767 0.27176 0.0
C3087 C 0.16972 0.7127 0.19363 0.0
C3088 C 0.18272 0.71814 0.29629 0.0
C3089 C 0.17233 0.70342 0.21958 0.0
C3090 C 0.17545 0.76834 0.15447 0.0
C3091 C 0.18643 0.79082 0.19053 0.0
N3092 N 0.19696 0.79401 0.15602 0.0
C3093 C 0.18639 0.77186 0.11941 0.0
C3094 C 0.17546 0.77791 0.19028 0.0
C3095 C 0.19715 0.78489 0.12072 0.0
C3096 C 0.16516 0.7457 0.02705 0.0
N3097 N 0.16785 0.73808 0.062 0.0
C3098 C 0.18532 0.74025 0.00191 0.0
C3099 C 0.1773 0.7348 0.04949 0.0
C3100 C 0.18377 0.74947 0.96909 0.0
C3101 C 0.17308 0.75157 0.98004 0.0
H3102 H 0.15788 0.74848 0.03915 0.0
H3103 H 0.17946 0.72904 0.079 0.0
C3104 C 0.18437 0.76646 0.3142 0.0
N3105 N 0.18506 0.76146 0.26356 0.0
C3106 C 0.19604 0.77533 0.34238 0.0
C3107 C 0.20886 0.77376 0.26554 0.0
C3108 C 0.19695 0.7648 0.23917 0.0
C3109 C 0.20843 0.779 0.31795 0.0
H3110 H 0.17477 0.7635 0.33277 0.0
H3111 H 0.19714 0.76047 0.19917 0.0
C3112 C 0.13776 0.72088 0.10162 0.0
N3113 N 0.12947 0.71071 0.99496 0.0
C3114 C 0.1319 0.72619 0.06662 0.0
C3115 C 0.13933 0.71034 0.08254 0.0
C3116 C 0.12779 0.72092 0.0128 0.0
C3117 C 0.1351 0.70535 0.02842 0.0
C3118 C 0.14302 0.74217 0.29622 0.0
C3119 C 0.13104 0.73077 0.31053 0.0
C3120 C 0.14506 0.75475 0.31082 0.0
C3121 C 0.12127 0.73216 0.33913 0.0
C3122 C 0.13504 0.75571 0.33927 0.0
N3123 N 0.12345 0.74449 0.35272 0.0
C3124 C 0.14891 0.7124 0.32017 0.0
C3125 C 0.13552 0.6982 0.24651 0.0
C3126 C 0.14385 0.70176 0.35768 0.0
N3127 N 0.14469 0.71045 0.26591 0.0
C3128 C 0.13013 0.68724 0.28283 0.0
C3129 C 0.13428 0.68908 0.33908 0.0
H3130 H 0.15607 0.72231 0.33445 0.0
H3131 H 0.13224 0.697 0.20332 0.0
C3132 C 0.13909 0.76132 0.15503 0.0
N3133 N 0.1349 0.74918 0.1786 0.0
C3134 C 0.12989 0.76511 0.13918 0.0
C3135 C 0.11215 0.74387 0.17246 0.0
C3136 C 0.12173 0.74047 0.18771 0.0
C3137 C 0.11628 0.75626 0.14728 0.0
H3138 H 0.14953 0.76786 0.14638 0.0
H3139 H 0.11865 0.7307 0.20473 0.0
O3140 O 0.17083 0.7339 0.19628 0.0
O3141 O 0.16496 0.75553 0.15484 0.0
O3142 O 0.14204 0.72603 0.15412 0.0
O3143 O 0.15261 0.74106 0.26724 0.0
H3144 H 0.18334 0.73701 0.29301 0.0
H3145 H 0.16462 0.71041 0.15366 0.0
H3146 H 0.18775 0.72013 0.33638 0.0
H3147 H 0.16926 0.69392 0.19972 0.0
H3148 H 0.18659 0.79829 0.21832 0.0
H3149 H 0.18668 0.76456 0.09218 0.0
H3150 H 0.16715 0.77535 0.21815 0.0
H3151 H 0.2057 0.78771 0.09394 0.0
H3152 H 0.19349 0.73844 0.99421 0.0
H3153 H 0.17163 0.7586 0.95541 0.0
H3154 H 0.19544 0.77929 0.38282 0.0
H3155 H 0.2183 0.77647 0.2457 0.0
H3156 H 0.13065 0.73439 0.08054 0.0
H3157 H 0.14385 0.70612 0.10912 0.0
H3158 H 0.12329 0.72498 0.98516 0.0
H3159 H 0.13631 0.69724 0.01301 0.0
H3160 H 0.12919 0.72097 0.29908 0.0
H3161 H 0.15426 0.76367 0.29997 0.0
H3162 H 0.11193 0.72343 0.35026 0.0
H3163 H 0.13646 0.76538 0.35059 0.0
H3164 H 0.14716 0.70344 0.40098 0.0
H3165 H 0.12269 0.67752 0.2676 0.0
H3166 H 0.13332 0.77469 0.11926 0.0
H3167 H 0.10167 0.7368 0.17858 0.0
C3168 C 0.20679 0.98743 0.24754 0.0
C3169 C 0.20761 0.99169 0.30406 0.0
C3170 C 0.21829 0.01497 0.2734 0.0
C3171 C 0.21636 0.0106 0.21669 0.0
N3172 N 0.20765 0.99283 0.14862 0.0
N3173 N 0.21283 0.00911 0.37155 0.0
C3174 C 0.21034 0.99686 0.2034 0.0
C3175 C 0.21304 0.00537 0.31726 0.0
N3176 N 0.20283 0.97438 0.23624 0.0
N3177 N 0.22541 0.0283 0.28516 0.0
H3178 H 0.2094 0.00236 0.40489 0.0
H3179 H 0.21522 0.0187 0.38328 0.0
H3180 H 0.22924 0.03562 0.25405 0.0
H3181 H 0.2284 0.03215 0.32542 0.0
H3182 H 0.20342 0.97091 0.19665 0.0
H3183 H 0.19984 0.9671 0.26732 0.0
H3184 H 0.20191 0.98292 0.13636 0.0
H3185 H 0.21041 0.99949 0.1151 0.0
C3186 C 0.99122 0.20016 0.24257 0.0
C3187 C 0.99292 0.20822 0.19489 0.0
C3188 C 0.0138 0.22612 0.23388 0.0
C3189 C 0.01267 0.21764 0.27914 0.0
N3190 N 0.00157 0.19591 0.32235 0.0
N3191 N 0.0067 0.22787 0.14004 0.0
C3192 C 0.00173 0.20445 0.28232 0.0
C3193 C 0.00448 0.22093 0.18905 0.0
N3194 N 0.97938 0.18865 0.25097 0.0
N3195 N 0.02352 0.23925 0.23472 0.0
H3196 H 7e-05 0.22435 0.1063 0.0
H3197 H 0.01561 0.23654 0.13086 0.0
H3198 H 0.0305 0.24345 0.26698 0.0
H3199 H 0.02398 0.24626 0.20608 0.0
H3200 H 0.97701 0.18314 0.28797 0.0
H3201 H 0.97144 0.18511 0.22279 0.0
H3202 H 0.99463 0.18576 0.32293 0.0
H3203 H 0.00904 0.19874 0.35252 0.0
C3204 C 0.78179 0.77947 0.30444 0.0
C3205 C 0.778 0.78887 0.288 0.0
C3206 C 0.78622 0.78934 0.19264 0.0
C3207 C 0.78914 0.77925 0.20806 0.0
N3208 N 0.78727 0.76277 0.27493 0.0
N3209 N 0.77405 0.80077 0.2143 0.0
C3210 C 0.7862 0.77374 0.26295 0.0
C3211 C 0.77946 0.79323 0.23139 0.0
N3212 N 0.78163 0.77638 0.35995 0.0
N3213 N 0.79036 0.79558 0.14185 0.0
H3214 H 0.76896 0.80376 0.2414 0.0
H3215 H 0.77355 0.80305 0.17241 0.0
H3216 H 0.79533 0.79302 0.11226 0.0
H3217 H 0.78985 0.80402 0.13087 0.0
H3218 H 0.78568 0.77074 0.37517 0.0
H3219 H 0.77844 0.78037 0.39159 0.0
H3220 H 0.78398 0.75746 0.31236 0.0
H3221 H 0.79033 0.75823 0.24533 0.0
C3222 C 0.79899 0.99694 0.77144 0.0
C3223 C 0.7855 0.99066 0.78919 0.0
C3224 C 0.78164 0.0058 0.73058 0.0
C3225 C 0.79483 0.01141 0.70965 0.0
N3226 N 0.8157 0.0116 0.7044 0.0
N3227 N 0.76345 0.98777 0.78168 0.0
C3228 C 0.80342 0.00678 0.72852 0.0
C3229 C 0.77667 0.99474 0.76774 0.0
N3230 N 0.80758 0.99367 0.79656 0.0
N3231 N 0.77399 0.01128 0.71586 0.0
H3232 H 0.75951 0.97984 0.81001 0.0
H3233 H 0.7562 0.98921 0.76251 0.0
H3234 H 0.77715 0.01913 0.6874 0.0
H3235 H 0.7649 0.00869 0.73456 0.0
H3236 H 0.81783 0.99882 0.78998 0.0
H3237 H 0.8046 0.98634 0.82746 0.0
H3238 H 0.82191 0.00767 0.71173 0.0
H3239 H 0.81937 0.01901 0.67369 0.0
C3240 C 0.00983 0.80222 0.75506 0.0
C3241 C 0.01013 0.79314 0.79417 0.0
C3242 C 0.98949 0.77502 0.75431 0.0
C3243 C 0.99001 0.7838 0.71149 0.0
N3244 N 0.0015 0.80526 0.66614 0.0
N3245 N 0.0014 0.77059 0.82702 0.0
C3246 C 0.0004 0.79729 0.71055 0.0
C3247 C 0.00025 0.77944 0.79284 0.0
N3248 N 0.01838 0.8156 0.76135 0.0
N3249 N 0.97852 0.7626 0.75919 0.0
H3250 H 0.00904 0.77346 0.85635 0.0
H3251 H 0.99539 0.76029 0.82342 0.0
H3252 H 0.97044 0.75898 0.73172 0.0
H3253 H 0.97691 0.75631 0.79313 0.0
H3254 H 0.01775 0.82284 0.73782 0.0
H3255 H 0.0254 0.81955 0.79357 0.0
H3256 H 0.00966 0.81474 0.65993 0.0
H3257 H 0.99475 0.80199 0.63282 0.0
C3258 C 0.22467 0.21523 0.74405 0.0
C3259 C 0.21587 0.20478 0.70781 0.0
C3260 C 0.19667 0.20352 0.75674 0.0
C3261 C 0.20546 0.21486 0.78898 0.0
N3262 N 0.22773 0.23282 0.80796 0.0
N3263 N 0.1936 0.19016 0.67375 0.0
C3264 C 0.21945 0.22107 0.78127 0.0
C3265 C 0.20188 0.19922 0.71257 0.0
N3266 N 0.23796 0.21929 0.74411 0.0
N3267 N 0.18337 0.19668 0.76938 0.0
H3268 H 0.19707 0.18678 0.64078 0.0
H3269 H 0.18344 0.18682 0.67133 0.0
H3270 H 0.17922 0.19954 0.80159 0.0
H3271 H 0.17666 0.18756 0.75137 0.0
H3272 H 0.24464 0.2258 0.77384 0.0
H3273 H 0.24217 0.21529 0.71728 0.0
H3274 H 0.23786 0.2386 0.79906 0.0
H3275 H 0.22432 0.23738 0.83589 0.0
C3276 C 0.86915 0.31742 0.56482 0.0
C3277 C 0.8706 0.32157 0.62175 0.0
C3278 C 0.88282 0.34497 0.59252 0.0
C3279 C 0.88047 0.34082 0.53551 0.0
N3280 N 0.87005 0.32337 0.46654 0.0
N3281 N 0.8771 0.33903 0.69038 0.0
C3282 C 0.87325 0.3271 0.52139 0.0
C3283 C 0.87696 0.33529 0.6358 0.0
N3284 N 0.86421 0.30424 0.55242 0.0
N3285 N 0.89096 0.35815 0.6052 0.0
H3286 H 0.8731 0.33219 0.72328 0.0
H3287 H 0.88025 0.34878 0.70269 0.0
H3288 H 0.89529 0.36557 0.57467 0.0
H3289 H 0.89428 0.36166 0.64563 0.0
H3290 H 0.86427 0.30073 0.51226 0.0
H3291 H 0.86091 0.29683 0.58305 0.0
H3292 H 0.86356 0.31362 0.45393 0.0
H3293 H 0.87312 0.33021 0.43359 0.0
C3294 C 0.65244 0.53596 0.60612 0.0
C3295 C 0.65528 0.54175 0.55171 0.0
C3296 C 0.67763 0.55855 0.58262 0.0
C3297 C 0.67539 0.55173 0.63449 0.0
N3298 N 0.66123 0.53322 0.69444 0.0
N3299 N 0.67097 0.55755 0.48548 0.0
C3300 C 0.66291 0.54027 0.64613 0.0
C3301 C 0.66797 0.55282 0.53924 0.0
N3302 N 0.63967 0.52658 0.61985 0.0
N3303 N 0.68887 0.57065 0.5754 0.0
H3304 H 0.66414 0.55366 0.45256 0.0
H3305 H 0.68053 0.5646 0.47249 0.0
H3306 H 0.69602 0.57519 0.60679 0.0
H3307 H 0.6905 0.57676 0.54072 0.0
H3308 H 0.63669 0.52298 0.66045 0.0
H3309 H 0.63175 0.52319 0.59158 0.0
H3310 H 0.65291 0.52395 0.70236 0.0
H3311 H 0.6686 0.53621 0.72516 0.0
C3312 C 0.44802 0.12981 0.56781 0.0
C3313 C 0.4464 0.12494 0.62366 0.0
C3314 C 0.45412 0.10962 0.59509 0.0
C3315 C 0.45716 0.11557 0.541 0.0
N3316 N 0.45879 0.13254 0.47761 0.0
N3317 N 0.44961 0.11162 0.69291 0.0
C3318 C 0.45458 0.12599 0.52773 0.0
C3319 C 0.4499 0.1152 0.63801 0.0
N3320 N 0.44293 0.13777 0.55267 0.0
N3321 N 0.45489 0.09839 0.60495 0.0
H3322 H 0.44654 0.11548 0.72553 0.0
H3323 H 0.45345 0.10569 0.70675 0.0
H3324 H 0.45783 0.09394 0.57441 0.0
H3325 H 0.45146 0.0928 0.64166 0.0
H3326 H 0.44254 0.14046 0.51131 0.0
H3327 H 0.438 0.14073 0.58076 0.0
H3328 H 0.45853 0.14119 0.46813 0.0
H3329 H 0.46355 0.12997 0.44702 0.0
C3330 C 0.44458 0.33049 0.10415 0.0
C3331 C 0.4525 0.32505 0.12282 0.0
C3332 C 0.47061 0.34001 0.06001 0.0
C3333 C 0.46309 0.34612 0.0446 0.0
N3334 N 0.44385 0.3487 0.05735 0.0
N3335 N 0.47355 0.32558 0.12521 0.0
C3336 C 0.45032 0.34178 0.06813 0.0
C3337 C 0.46567 0.33008 0.1026 0.0
N3338 N 0.43147 0.32461 0.11955 0.0
N3339 N 0.48231 0.34349 0.03287 0.0
H3340 H 0.47021 0.31822 0.1561 0.0
H3341 H 0.48368 0.32981 0.11671 0.0
H3342 H 0.4863 0.35084 0.00191 0.0
H3343 H 0.48758 0.33844 0.03778 0.0
H3344 H 0.42477 0.32713 0.10226 0.0
H3345 H 0.42698 0.31647 0.14672 0.0
H3346 H 0.43524 0.34699 0.07824 0.0
H3347 H 0.44762 0.35688 0.03037 0.0
C3348 C 0.67311 0.11519 0.09661 0.0
C3349 C 0.67792 0.12823 0.11816 0.0
C3350 C 0.6626 0.13125 0.05699 0.0
C3351 C 0.65714 0.11788 0.03852 0.0
N3352 N 0.65583 0.09648 0.04486 0.0
N3353 N 0.67649 0.14824 0.12475 0.0
C3354 C 0.66203 0.10967 0.05941 0.0
C3355 C 0.67245 0.13615 0.09997 0.0
N3356 N 0.67937 0.10824 0.11073 0.0
N3357 N 0.65857 0.13932 0.03241 0.0
H3358 H 0.68388 0.15224 0.15554 0.0
H3359 H 0.67194 0.1539 0.1179 0.0
H3360 H 0.65124 0.13598 0.00139 0.0
H3361 H 0.66312 0.14953 0.03953 0.0
H3362 H 0.67739 0.09937 0.09149 0.0
H3363 H 0.68724 0.11178 0.13926 0.0
H3364 H 0.65787 0.08959 0.06363 0.0
H3365 H 0.64793 0.09216 0.01643 0.0
C3366 C 0.88341 0.54688 0.14196 0.0
C3367 C 0.87583 0.55295 0.12692 0.0
C3368 C 0.87717 0.54815 0.0276 0.0
C3369 C 0.88553 0.54294 0.04233 0.0
N3370 N 0.89911 0.54012 0.11173 0.0
N3371 N 0.86803 0.56209 0.05501 0.0
C3372 C 0.88941 0.54314 0.09905 0.0
C3373 C 0.87347 0.5544 0.06953 0.0
N3374 N 0.88444 0.5442 0.19704 0.0
N3375 N 0.87235 0.54667 0.97411 0.0
H3376 H 0.86539 0.56702 0.08451 0.0
H3377 H 0.86732 0.56461 0.01369 0.0
H3378 H 0.8748 0.5421 0.94221 0.0
H3379 H 0.86504 0.54895 0.96254 0.0
H3380 H 0.88859 0.53847 0.20989 0.0
H3381 H 0.88011 0.5467 0.22975 0.0
H3382 H 0.9033 0.54142 0.15156 0.0
H3383 H 0.9039 0.53754 0.08132 0.0
C3384 C 0.54056 0.66355 0.8618 0.0
C3385 C 0.54871 0.67715 0.87655 0.0
C3386 C 0.54793 0.67105 0.97566 0.0
C3387 C 0.5404 0.65742 0.96046 0.0
N3388 N 0.53165 0.64044 0.8887 0.0
N3389 N 0.56227 0.69385 0.94488 0.0
C3390 C 0.53734 0.65359 0.90333 0.0
C3391 C 0.55303 0.68091 0.93279 0.0
N3392 N 0.53551 0.66018 0.80862 0.0
N3393 N 0.54983 0.67459 0.0311 0.0
H3394 H 0.56622 0.70134 0.91453 0.0
H3395 H 0.56686 0.69697 0.98387 0.0
H3396 H 0.5464 0.66763 0.06363 0.0
H3397 H 0.55391 0.68438 0.04505 0.0
H3398 H 0.52829 0.65058 0.79699 0.0
H3399 H 0.53778 0.6672 0.77687 0.0
H3400 H 0.53048 0.63714 0.84731 0.0
H3401 H 0.52911 0.63285 0.91797 0.0
C3402 C 0.33575 0.86774 0.94711 0.0
C3403 C 0.34126 0.88114 0.96523 0.0
C3404 C 0.32497 0.88358 0.90843 0.0
C3405 C 0.32034 0.87064 0.88612 0.0
N3406 N 0.32235 0.85098 0.87787 0.0
N3407 N 0.34262 0.90255 0.95718 0.0
C3408 C 0.326 0.86285 0.90377 0.0
C3409 C 0.33627 0.88927 0.94437 0.0
N3410 N 0.3396 0.85961 0.9724 0.0
N3411 N 0.31832 0.89027 0.89654 0.0
H3412 H 0.3509 0.90711 0.98363 0.0
H3413 H 0.34039 0.90929 0.93811 0.0
H3414 H 0.31005 0.88647 0.87004 0.0
H3415 H 0.32029 0.89907 0.91651 0.0
H3416 H 0.33497 0.84938 0.96526 0.0
H3417 H 0.34673 0.86287 0.00427 0.0
H3418 H 0.32714 0.84552 0.88453 0.0
H3419 H 0.31519 0.84705 0.84613 0.0
C3420 C 0.12046 0.43995 0.92265 0.0
C3421 C 0.12954 0.44866 0.88169 0.0
C3422 C 0.12879 0.46751 0.9244 0.0
C3423 C 0.11854 0.45855 0.96095 0.0
N3424 N 0.1032 0.436 0.99001 0.0
N3425 N 0.141 0.47035 0.83809 0.0
C3426 C 0.114 0.44469 0.95892 0.0
C3427 C 0.13338 0.46237 0.88112 0.0
N3428 N 0.11832 0.42728 0.92803 0.0
N3429 N 0.13433 0.48096 0.93196 0.0
H3430 H 0.14448 0.46692 0.80538 0.0
H3431 H 0.14292 0.48006 0.83213 0.0
H3432 H 0.13127 0.48507 0.96359 0.0
H3433 H 0.14274 0.488 0.9104 0.0
H3434 H 0.11294 0.42097 0.961 0.0
H3435 H 0.1229 0.42345 0.90238 0.0
H3436 H 0.0985 0.42569 0.98537 0.0
H3437 H 0.09823 0.43907 0.0174 0.0
C3438 C 0.10998 0.66321 0.44196 0.0
C3439 C 0.11733 0.657 0.45865 0.0
C3440 C 0.1353 0.6711 0.3935 0.0
C3441 C 0.12833 0.67786 0.37947 0.0
N3442 N 0.11016 0.68198 0.39604 0.0
N3443 N 0.13768 0.65613 0.45761 0.0
C3444 C 0.11597 0.67438 0.40533 0.0
C3445 C 0.13021 0.66127 0.4365 0.0
N3446 N 0.09711 0.65815 0.45971 0.0
N3447 N 0.14661 0.67385 0.36463 0.0
H3448 H 0.1342 0.64884 0.48883 0.0
H3449 H 0.14765 0.65978 0.44759 0.0
H3450 H 0.15071 0.68112 0.33338 0.0
H3451 H 0.15139 0.66831 0.36851 0.0
H3452 H 0.0907 0.66121 0.44387 0.0
H3453 H 0.09247 0.65017 0.4876 0.0
H3454 H 0.10198 0.68091 0.41852 0.0
H3455 H 0.11412 0.69009 0.36862 0.0
C3456 C 0.33968 0.44649 0.43053 0.0
C3457 C 0.3452 0.46 0.44698 0.0
C3458 C 0.33063 0.46283 0.38062 0.0
C3459 C 0.32426 0.44902 0.36819 0.0
N3460 N 0.32143 0.42723 0.38552 0.0
N3461 N 0.34518 0.48078 0.44328 0.0
C3462 C 0.32846 0.44071 0.39414 0.0
C3463 C 0.34049 0.46813 0.42343 0.0
N3464 N 0.34538 0.43928 0.44872 0.0
N3465 N 0.32739 0.47088 0.35064 0.0
H3466 H 0.35254 0.48505 0.4741 0.0
H3467 H 0.34114 0.48673 0.43238 0.0
H3468 H 0.32012 0.46728 0.31931 0.0
H3469 H 0.33259 0.48123 0.35349 0.0
H3470 H 0.34279 0.42988 0.43334 0.0
H3471 H 0.35347 0.44311 0.47623 0.0
H3472 H 0.323 0.42047 0.40827 0.0
H3473 H 0.31332 0.42265 0.35824 0.0
C3474 C 0.5477 0.89203 0.41245 0.0
C3475 C 0.54294 0.88454 0.46278 0.0
C3476 C 0.55036 0.86924 0.43036 0.0
C3477 C 0.55384 0.87591 0.37778 0.0
N3478 N 0.55439 0.89258 0.31553 0.0
N3479 N 0.53819 0.8652 0.51779 0.0
C3480 C 0.55215 0.88705 0.36794 0.0
C3481 C 0.54387 0.87292 0.47134 0.0
N3482 N 0.54827 0.90407 0.40783 0.0
N3483 N 0.55362 0.85964 0.44165 0.0
H3484 H 0.53356 0.86772 0.54918 0.0
H3485 H 0.53718 0.85582 0.52334 0.0
H3486 H 0.55833 0.85662 0.41261 0.0
H3487 H 0.55266 0.85542 0.48119 0.0
H3488 H 0.55294 0.91067 0.37477 0.0
H3489 H 0.54505 0.90802 0.4395 0.0
H3490 H 0.55192 0.89974 0.30397 0.0
H3491 H 0.55779 0.88927 0.28205 0.0
C3492 C 0.24788 0.12203 0.75137 0.0
C3493 C 0.24035 0.12047 0.70221 0.0
C3494 C 0.22713 0.09635 0.71855 0.0
C3495 C 0.23393 0.09813 0.77006 0.0
N3496 N 0.24907 0.11286 0.84095 0.0
N3497 N 0.22166 0.10668 0.64224 0.0
C3498 C 0.24382 0.11104 0.78807 0.0
C3499 C 0.22965 0.10776 0.68654 0.0
N3500 N 0.25916 0.13393 0.76208 0.0
N3501 N 0.21844 0.08376 0.69993 0.0
H3502 H 0.22325 0.11482 0.61774 0.0
H3503 H 0.21289 0.09797 0.63223 0.0
H3504 H 0.21614 0.07525 0.72324 0.0
H3505 H 0.21423 0.08169 0.65999 0.0
H3506 H 0.2659 0.13523 0.79379 0.0
H3507 H 0.26246 0.14225 0.73619 0.0
H3508 H 0.25521 0.12221 0.85858 0.0
H3509 H 0.24637 0.10509 0.8694 0.0
C3510 C 0.88252 0.13509 0.71268 0.0
C3511 C 0.88214 0.12341 0.6925 0.0
C3512 C 0.90357 0.13013 0.73808 0.0
C3513 C 0.90289 0.1407 0.76485 0.0
N3514 N 0.89069 0.15214 0.78417 0.0
N3515 N 0.89157 0.10896 0.68938 0.0
C3516 C 0.89216 0.14298 0.75353 0.0
C3517 C 0.89254 0.12073 0.70563 0.0
N3518 N 0.87375 0.13871 0.6923 0.0
N3519 N 0.9148 0.12917 0.74343 0.0
H3520 H 0.88365 0.10184 0.66552 0.0
H3521 H 0.89807 0.10579 0.70296 0.0
H3522 H 0.92302 0.13593 0.76703 0.0
H3523 H 0.91646 0.12245 0.7207 0.0
H3524 H 0.87445 0.14784 0.70117 0.0
H3525 H 0.86655 0.13314 0.66218 0.0
H3526 H 0.88222 0.15309 0.78231 0.0
H3527 H 0.89739 0.15801 0.81517 0.0
C3528 C 0.8724 0.768 0.67748 0.0
C3529 C 0.87811 0.76061 0.69968 0.0
C3530 C 0.86569 0.75695 0.78715 0.0
C3531 C 0.86092 0.76536 0.76704 0.0
N3532 N 0.86048 0.77991 0.69604 0.0
N3533 N 0.88166 0.74939 0.77733 0.0
C3534 C 0.86444 0.77114 0.71286 0.0
C3535 C 0.87513 0.75542 0.75495 0.0
N3536 N 0.87441 0.77177 0.62231 0.0
N3537 N 0.86092 0.75015 0.83651 0.0
H3538 H 0.88841 0.74775 0.75463 0.0
H3539 H 0.88117 0.74688 0.81958 0.0
H3540 H 0.85429 0.75125 0.8624 0.0
H3541 H 0.8627 0.74263 0.84991 0.0
H3542 H 0.86948 0.77599 0.60182 0.0
H3543 H 0.88036 0.7698 0.59558 0.0
H3544 H 0.86384 0.78558 0.65956 0.0
H3545 H 0.85443 0.78218 0.72067 0.0
C3546 C 0.10912 0.23604 0.81248 0.0
C3547 C 0.12222 0.24524 0.79372 0.0
C3548 C 0.11328 0.24958 0.70821 0.0
C3549 C 0.10016 0.24053 0.72728 0.0
N3550 N 0.08523 0.22653 0.7996 0.0
N3551 N 0.13695 0.26219 0.72881 0.0
C3552 C 0.09797 0.23417 0.78017 0.0
C3553 C 0.12434 0.25245 0.74308 0.0
N3554 N 0.10742 0.22893 0.86067 0.0
N3555 N 0.11516 0.25517 0.65596 0.0
H3556 H 0.14539 0.26416 0.75191 0.0
H3557 H 0.13907 0.26894 0.69623 0.0
H3558 H 0.10736 0.25401 0.63034 0.0
H3559 H 0.12439 0.26038 0.63631 0.0
H3560 H 0.09832 0.22102 0.87372 0.0
H3561 H 0.11531 0.23053 0.88684 0.0
H3562 H 0.08286 0.22265 0.84003 0.0
H3563 H 0.07688 0.2247 0.77612 0.0
C3564 C 0.75484 0.85479 0.76769 0.0
C3565 C 0.76642 0.85877 0.73464 0.0
C3566 C 0.77769 0.8805 0.78166 0.0
C3567 C 0.76546 0.87724 0.80813 0.0
N3568 N 0.74265 0.86136 0.83087 0.0
N3569 N 0.78911 0.87467 0.71114 0.0
C3570 C 0.75416 0.8643 0.80321 0.0
C3571 C 0.77803 0.87134 0.7428 0.0
N3572 N 0.74446 0.84197 0.76406 0.0
N3573 N 0.78888 0.89238 0.79343 0.0
H3574 H 0.7898 0.86786 0.68464 0.0
H3575 H 0.79745 0.88416 0.70959 0.0
H3576 H 0.78885 0.89944 0.82052 0.0
H3577 H 0.79839 0.89499 0.77947 0.0
H3578 H 0.73608 0.838 0.7897 0.0
H3579 H 0.74459 0.83488 0.73755 0.0
H3580 H 0.73355 0.85271 0.82473 0.0
H3581 H 0.74205 0.86789 0.85934 0.0
C3582 C 0.14336 0.89381 0.76503 0.0
C3583 C 0.13866 0.90155 0.7376 0.0
C3584 C 0.11676 0.88827 0.78124 0.0
C3585 C 0.12149 0.88061 0.8091 0.0
N3586 N 0.13998 0.87813 0.8394 0.0
N3587 N 0.12233 0.90849 0.72979 0.0
C3588 C 0.13505 0.88407 0.80489 0.0
C3589 C 0.12582 0.89957 0.74942 0.0
N3590 N 0.15542 0.89521 0.75066 0.0
N3591 N 0.10349 0.88434 0.78257 0.0
H3592 H 0.12886 0.91686 0.70637 0.0
H3593 H 0.11356 0.90832 0.74106 0.0
H3594 H 0.09649 0.87606 0.80506 0.0
H3595 H 0.09922 0.88865 0.75798 0.0
H3596 H 0.1586 0.88868 0.76384 0.0
H3597 H 0.16196 0.90242 0.72257 0.0
H3598 H 0.15008 0.88117 0.84216 0.0
H3599 H 0.13413 0.87096 0.86915 0.0
C3600 C 0.74994 0.8888 0.21684 0.0
C3601 C 0.76187 0.90098 0.22819 0.0
C3602 C 0.76684 0.8903 0.30619 0.0
C3603 C 0.75552 0.87793 0.29123 0.0
N3604 N 0.73614 0.86528 0.23265 0.0
N3605 N 0.78213 0.9134 0.28112 0.0
C3606 C 0.74703 0.87719 0.24698 0.0
C3607 C 0.77042 0.90177 0.27249 0.0
N3608 N 0.7412 0.8878 0.1762 0.0
N3609 N 0.77388 0.8911 0.35355 0.0
H3610 H 0.7847 0.92212 0.25893 0.0
H3611 H 0.7896 0.9143 0.30811 0.0
H3612 H 0.77153 0.88289 0.37903 0.0
H3613 H 0.78143 0.9 0.37012 0.0
H3614 H 0.74226 0.89572 0.15164 0.0
H3615 H 0.74226 0.89572 0.15164 0.0
H3616 H 0.72971 0.86438 0.20009 0.0
H3617 H 0.73366 0.8563 0.25244 0.0
C3618 C 0.09534 0.86909 0.27102 0.0
C3619 C 0.0968 0.86872 0.21197 0.0
C3620 C 0.12033 0.88605 0.21891 0.0
C3621 C 0.11902 0.88613 0.27792 0.0
N3622 N 0.10497 0.88009 0.3598 0.0
N3623 N 0.11067 0.87847 0.129 0.0
C3624 C 0.10639 0.87835 0.30394 0.0
C3625 C 0.10911 0.87776 0.18579 0.0
N3626 N 0.08347 0.86029 0.29552 0.0
N3627 N 0.13245 0.89374 0.19378 0.0
H3628 H 0.10309 0.87299 0.10025 0.0
H3629 H 0.10309 0.87299 0.10025 0.0
H3630 H 0.14118 0.89981 0.21609 0.0
H3631 H 0.13379 0.89384 0.15039 0.0
H3632 H 0.08209 0.85881 0.33865 0.0
H3633 H 0.07499 0.85401 0.27217 0.0
H3634 H 0.09586 0.8757 0.38058 0.0
H3635 H 0.11288 0.8868 0.3849 0.0
C3636 C 0.13978 0.24589 0.23272 0.0
C3637 C 0.13871 0.23312 0.23041 0.0
C3638 C 0.12044 0.22461 0.29867 0.0
C3639 C 0.12219 0.23761 0.30346 0.0
N3640 N 0.13564 0.2612 0.28618 0.0
N3641 N 0.12984 0.21102 0.26851 0.0
C3642 C 0.13257 0.24844 0.27407 0.0
C3643 C 0.12959 0.22267 0.26575 0.0
N3644 N 0.14705 0.25537 0.19337 0.0
N3645 N 0.10975 0.21406 0.32365 0.0
H3646 H 0.13648 0.20936 0.24503 0.0
H3647 H 0.12434 0.20352 0.29747 0.0
H3648 H 0.1029 0.21512 0.34832 0.0
H3649 H 0.10711 0.20417 0.3166 0.0
H3650 H 0.14699 0.26429 0.1898 0.0
H3651 H 0.15211 0.25386 0.16064 0.0
H3652 H 0.14403 0.26957 0.27026 0.0
H3653 H 0.13057 0.26347 0.3165 0.0
C3654 C 0.89523 0.76339 0.17093 0.0
C3655 C 0.88522 0.7661 0.19001 0.0
C3656 C 0.89565 0.77212 0.28268 0.0
C3657 C 0.90599 0.76988 0.2632 0.0
N3658 N 0.91744 0.76678 0.18541 0.0
N3659 N 0.87811 0.77673 0.2577 0.0
C3660 C 0.90637 0.76664 0.20605 0.0
C3661 C 0.88618 0.7717 0.24385 0.0
N3662 N 0.89379 0.75713 0.12062 0.0
N3663 N 0.89427 0.77376 0.33864 0.0
H3664 H 0.87112 0.7767 0.22998 0.0
H3665 H 0.8793 0.78215 0.29431 0.0
H3666 H 0.90072 0.7739 0.36935 0.0
H3667 H 0.88598 0.7738 0.35534 0.0
H3668 H 0.90002 0.75359 0.10744 0.0
H3669 H 0.88573 0.75453 0.09382 0.0
H3670 H 0.91883 0.76568 0.14295 0.0
H3671 H 0.92583 0.76933 0.21011 0.0
C3672 C 0.22869 0.11569 0.24917 0.0
C3673 C 0.23357 0.11962 0.19385 0.0
C3674 C 0.2339 0.14074 0.20773 0.0
C3675 C 0.2313 0.13773 0.26562 0.0
N3676 N 0.22808 0.12297 0.34349 0.0
N3677 N 0.24193 0.13633 0.12095 0.0
C3678 C 0.22902 0.1253 0.28692 0.0
C3679 C 0.23634 0.13222 0.17287 0.0
N3680 N 0.22365 0.10273 0.2655 0.0
N3681 N 0.23403 0.15174 0.18631 0.0
H3682 H 0.24396 0.13042 0.0943 0.0
H3683 H 0.24552 0.14598 0.10599 0.0
H3684 H 0.23222 0.1581 0.21108 0.0
H3685 H 0.23467 0.15385 0.14354 0.0
H3686 H 0.21875 0.09903 0.30359 0.0
H3687 H 0.22316 0.09537 0.23866 0.0
H3688 H 0.22799 0.11472 0.36134 0.0
H3689 H 0.22859 0.12981 0.37319 0.0
C3690 C 0.8646 0.11026 0.27679 0.0
C3691 C 0.86431 0.09788 0.2723 0.0
C3692 C 0.8818 0.10743 0.20044 0.0
C3693 C 0.88146 0.11952 0.20311 0.0
N3694 N 0.87151 0.13201 0.23972 0.0
N3695 N 0.87109 0.08392 0.22467 0.0
C3696 C 0.87248 0.12072 0.23965 0.0
C3697 C 0.87247 0.09623 0.23249 0.0
N3698 N 0.85761 0.11253 0.31698 0.0
N3699 N 0.89144 0.10687 0.16941 0.0
H3700 H 0.86449 0.0756 0.24815 0.0
H3701 H 0.87571 0.08169 0.19235 0.0
H3702 H 0.89846 0.11488 0.14566 0.0
H3703 H 0.89315 0.09887 0.17042 0.0
H3704 H 0.85191 0.1057 0.34803 0.0
H3705 H 0.85191 0.1057 0.34803 0.0
H3706 H 0.86503 0.13322 0.26637 0.0
H3707 H 0.87672 0.13988 0.21179 0.0
C3708 C 0.90771 0.43276 0.06116 0.0
C3709 C 0.89714 0.42732 0.10059 0.0
C3710 C 0.88815 0.4407 0.06088 0.0
C3711 C 0.8999 0.4477 0.02829 0.0
N3712 N 0.92095 0.45068 0.99597 0.0
N3713 N 0.87698 0.42541 0.13811 0.0
C3714 C 0.90961 0.44365 0.02722 0.0
C3715 C 0.88712 0.43093 0.0998 0.0
N3716 N 0.916 0.42758 0.05697 0.0
N3717 N 0.87803 0.44344 0.05439 0.0
H3718 H 0.87564 0.41773 0.16508 0.0
H3719 H 0.87023 0.42871 0.14477 0.0
H3720 H 0.8786 0.45066 0.02655 0.0
H3721 H 0.86871 0.43793 0.07311 0.0
H3722 H 0.92319 0.43023 0.02581 0.0
H3723 H 0.91493 0.41971 0.08197 0.0
H3724 H 0.92914 0.44929 0.99834 0.0
H3725 H 0.92253 0.45851 0.96952 0.0
C3726 C 0.57552 0.46442 0.0574 0.0
C3727 C 0.57582 0.47582 0.08091 0.0
C3728 C 0.55561 0.47103 0.02905 0.0
C3729 C 0.55486 0.4592 0.00833 0.0
N3730 N 0.56503 0.44572 0.99264 0.0
N3731 N 0.56806 0.49167 0.08108 0.0
C3732 C 0.5652 0.4563 0.01898 0.0
C3733 C 0.56652 0.47972 0.06371 0.0
N3734 N 0.58484 0.46116 0.0738 0.0
N3735 N 0.54554 0.4736 0.01735 0.0
H3736 H 0.57565 0.49812 0.1079 0.0
H3737 H 0.56246 0.49575 0.06605 0.0
H3738 H 0.53781 0.46785 0.98953 0.0
H3739 H 0.54445 0.48106 0.03658 0.0
H3740 H 0.58447 0.45224 0.06385 0.0
H3741 H 0.59294 0.46737 0.09926 0.0
H3742 H 0.57277 0.44364 0.99449 0.0
H3743 H 0.55739 0.43936 0.96562 0.0
C3744 C 0.53897 0.08242 0.08877 0.0
C3745 C 0.544 0.08966 0.03827 0.0
C3746 C 0.53178 0.1016 0.05561 0.0
C3747 C 0.52664 0.09419 0.1058 0.0
N3748 N 0.52463 0.07656 0.16786 0.0
N3749 N 0.54361 0.1044 0.96781 0.0
C3750 C 0.52991 0.08431 0.12136 0.0
C3751 C 0.53995 0.09878 0.01997 0.0
N3752 N 0.5429 0.07368 0.10645 0.0
N3753 N 0.52922 0.11163 0.04321 0.0
H3754 H 0.54959 0.10254 0.9408 0.0
H3755 H 0.53997 0.11008 0.9494 0.0
H3756 H 0.52301 0.11369 0.06778 0.0
H3757 H 0.53381 0.11842 0.01071 0.0
H3758 H 0.53939 0.0682 0.14355 0.0
H3759 H 0.54979 0.07206 0.0848 0.0
H3760 H 0.51771 0.077 0.19452 0.0
H3761 H 0.51771 0.077 0.19452 0.0
C3762 C 0.76147 0.56428 0.12281 0.0
C3763 C 0.76262 0.56422 0.06355 0.0
C3764 C 0.78566 0.56895 0.07204 0.0
C3765 C 0.78442 0.56866 0.13129 0.0
N3766 N 0.77065 0.56363 0.2137 0.0
N3767 N 0.77458 0.56344 0.98188 0.0
C3768 C 0.77214 0.56557 0.15693 0.0
C3769 C 0.77432 0.56552 0.03825 0.0
N3770 N 0.75031 0.56344 0.14625 0.0
N3771 N 0.79786 0.57316 0.048 0.0
H3772 H 0.76656 0.56107 0.95536 0.0
H3773 H 0.78227 0.56281 0.96215 0.0
H3774 H 0.80645 0.57574 0.07121 0.0
H3775 H 0.79974 0.57517 0.00532 0.0
H3776 H 0.74945 0.56503 0.18869 0.0
H3777 H 0.74204 0.56176 0.12246 0.0
H3778 H 0.7616 0.56009 0.23444 0.0
H3779 H 0.77832 0.5646 0.23985 0.0
C3780 C 0.42055 0.18961 0.10411 0.0
C3781 C 0.43218 0.19382 0.07109 0.0
C3782 C 0.44212 0.21626 0.1107 0.0
C3783 C 0.43043 0.21209 0.14329 0.0
N3784 N 0.4103 0.19422 0.18323 0.0
N3785 N 0.45522 0.20967 0.0535 0.0
C3786 C 0.42023 0.19853 0.14409 0.0
C3787 C 0.44341 0.20667 0.07834 0.0
N3788 N 0.40954 0.17742 0.09483 0.0
N3789 N 0.45158 0.22946 0.10788 0.0
H3790 H 0.45632 0.20274 0.02952 0.0
H3791 H 0.46413 0.21848 0.06094 0.0
H3792 H 0.45099 0.23683 0.13064 0.0
H3793 H 0.45956 0.23327 0.07992 0.0
H3794 H 0.40024 0.17451 0.11238 0.0
H3795 H 0.40945 0.17046 0.06683 0.0
H3796 H 0.40327 0.18421 0.18936 0.0
H3797 H 0.40984 0.20055 0.21321 0.0
C3798 C 0.78864 0.23792 0.07214 0.0
C3799 C 0.80248 0.24249 0.07439 0.0
C3800 C 0.79932 0.2283 0.1557 0.0
C3801 C 0.78535 0.22278 0.14995 0.0
N3802 N 0.76673 0.22427 0.11378 0.0
N3803 N 0.82153 0.24506 0.12541 0.0
C3804 C 0.78002 0.22834 0.112 0.0
C3805 C 0.808 0.23876 0.1191 0.0
N3806 N 0.78376 0.24224 0.02981 0.0
N3807 N 0.80417 0.22306 0.19431 0.0
H3808 H 0.82804 0.25267 0.09865 0.0
H3809 H 0.82632 0.24358 0.15925 0.0
H3810 H 0.79807 0.21578 0.22324 0.0
H3811 H 0.8141 0.2255 0.19682 0.0
H3812 H 0.77368 0.23826 0.02113 0.0
H3813 H 0.78999 0.24975 0.00195 0.0
H3814 H 0.7623 0.22858 0.09037 0.0
H3815 H 0.76018 0.21708 0.14197 0.0
C3816 C 0.43726 0.23679 0.60592 0.0
C3817 C 0.42891 0.23535 0.55975 0.0
C3818 C 0.41538 0.21134 0.57741 0.0
C3819 C 0.42356 0.21275 0.62398 0.0
N3820 N 0.44092 0.2268 0.68889 0.0
N3821 N 0.4093 0.221 0.50348 0.0
C3822 C 0.43415 0.22549 0.64006 0.0
C3823 C 0.41777 0.22269 0.5465 0.0
N3824 N 0.44834 0.24889 0.61605 0.0
N3825 N 0.40525 0.19905 0.56181 0.0
H3826 H 0.41003 0.22867 0.47809 0.0
H3827 H 0.41003 0.22867 0.47809 0.0
H3828 H 0.40319 0.19025 0.58222 0.0
H3829 H 0.39905 0.19766 0.5276 0.0
H3830 H 0.45571 0.25037 0.64483 0.0
H3831 H 0.45053 0.25745 0.59331 0.0
H3832 H 0.44785 0.23591 0.7062 0.0
H3833 H 0.43893 0.21872 0.71459 0.0
C3834 C 0.78636 0.19901 0.59916 0.0
C3835 C 0.7851 0.20755 0.63805 0.0
C3836 C 0.76141 0.19767 0.61438 0.0
C3837 C 0.76314 0.19039 0.57054 0.0
N3838 N 0.77787 0.18574 0.5151 0.0
N3839 N 0.77196 0.21622 0.67937 0.0
C3840 C 0.77576 0.19142 0.56144 0.0
C3841 C 0.77274 0.20716 0.64511 0.0
N3842 N 0.79761 0.19798 0.59895 0.0
N3843 N 0.74891 0.19532 0.62706 0.0
H3844 H 0.78002 0.22329 0.70277 0.0
H3845 H 0.76364 0.21741 0.68149 0.0
H3846 H 0.74045 0.18842 0.60516 0.0
H3847 H 0.74679 0.19932 0.66206 0.0
H3848 H 0.7985 0.19084 0.57571 0.0
H3849 H 0.80562 0.20342 0.62603 0.0
H3850 H 0.78727 0.18759 0.50278 0.0
H3851 H 0.77047 0.18007 0.48597 0.0
C3852 C 0.79902 0.57012 0.66705 0.0
C3853 C 0.78631 0.56692 0.64601 0.0
C3854 C 0.79177 0.56152 0.55415 0.0
C3855 C 0.80448 0.5646 0.57514 0.0
N3856 N 0.81919 0.56894 0.65352 0.0
N3857 N 0.76926 0.55645 0.57539 0.0
C3858 C 0.80776 0.56794 0.63245 0.0
C3859 C 0.78225 0.56156 0.59144 0.0
N3860 N 0.80291 0.57573 0.71911 0.0
N3861 N 0.78907 0.55942 0.49797 0.0
H3862 H 0.76204 0.55647 0.60149 0.0
H3863 H 0.76536 0.5511 0.53838 0.0
H3864 H 0.79566 0.55922 0.46878 0.0
H3865 H 0.78066 0.55883 0.47942 0.0
H3866 H 0.81257 0.57967 0.73445 0.0
H3867 H 0.79664 0.57719 0.74597 0.0
H3868 H 0.82165 0.57019 0.69599 0.0
H3869 H 0.82571 0.56732 0.62888 0.0
C3870 C 0.55798 0.08611 0.60254 0.0
C3871 C 0.57022 0.09842 0.60229 0.0
C3872 C 0.56094 0.1075 0.53435 0.0
C3873 C 0.54909 0.09489 0.532 0.0
N3874 N 0.53761 0.07138 0.55286 0.0
N3875 N 0.5843 0.11996 0.56068 0.0
C3876 C 0.54803 0.08393 0.5626 0.0
C3877 C 0.572 0.10887 0.56586 0.0
N3878 N 0.55548 0.07676 0.64294 0.0
N3879 N 0.56144 0.11826 0.50834 0.0
H3880 H 0.59259 0.1212 0.58306 0.0
H3881 H 0.58656 0.12736 0.53081 0.0
H3882 H 0.55355 0.11761 0.48472 0.0
H3883 H 0.56924 0.12798 0.5136 0.0
H3884 H 0.54619 0.06828 0.64847 0.0
H3885 H 0.56222 0.07803 0.67456 0.0
H3886 H 0.5371 0.06283 0.5696 0.0
H3887 H 0.53012 0.06937 0.52366 0.0
C3888 C 0.90406 0.44864 0.61013 0.0
C3889 C 0.90433 0.44949 0.55086 0.0
C3890 C 0.89921 0.46765 0.55544 0.0
C3891 C 0.89914 0.4669 0.61493 0.0
N3892 N 0.90019 0.4554 0.69887 0.0
N3893 N 0.89961 0.45772 0.46605 0.0
C3894 C 0.90095 0.45698 0.64205 0.0
C3895 C 0.90115 0.45841 0.52311 0.0
N3896 N 0.90699 0.43996 0.63678 0.0
N3897 N 0.89779 0.47747 0.53012 0.0
H3898 H 0.90097 0.45107 0.44124 0.0
H3899 H 0.89605 0.46298 0.44348 0.0
H3900 H 0.89557 0.48386 0.55251 0.0
H3901 H 0.89936 0.47969 0.48751 0.0
H3902 H 0.90694 0.43913 0.68044 0.0
H3903 H 0.90969 0.43379 0.61555 0.0
H3904 H 0.89781 0.46085 0.72666 0.0
H3905 H 0.89781 0.46085 0.72666 0.0
C3906 C 0.53368 0.44004 0.50762 0.0
C3907 C 0.54517 0.45107 0.53115 0.0
C3908 C 0.53821 0.44159 0.62505 0.0
C3909 C 0.52736 0.42999 0.60116 0.0
N3910 N 0.51602 0.41709 0.51927 0.0
N3911 N 0.56006 0.46073 0.61003 0.0
C3912 C 0.52549 0.42887 0.54217 0.0
C3913 C 0.54796 0.45134 0.58922 0.0
N3914 N 0.53026 0.44047 0.45304 0.0
N3915 N 0.53887 0.44368 0.68179 0.0
H3916 H 0.5676 0.46794 0.58494 0.0
H3917 H 0.5631 0.46052 0.65103 0.0
H3918 H 0.53177 0.43703 0.70994 0.0
H3919 H 0.54577 0.45265 0.70042 0.0
H3920 H 0.52127 0.43334 0.43534 0.0
H3921 H 0.5359 0.44855 0.42664 0.0
H3922 H 0.51505 0.41523 0.47624 0.0
H3923 H 0.50988 0.40874 0.5436 0.0
C3924 C 0.57315 0.78847 0.42423 0.0
C3925 C 0.569 0.78617 0.36736 0.0
C3926 C 0.55993 0.76214 0.37969 0.0
C3927 C 0.56354 0.7644 0.43718 0.0
N3928 N 0.5713 0.77924 0.51713 0.0
N3929 N 0.55668 0.77099 0.2924 0.0
C3930 C 0.56942 0.77743 0.46038 0.0
C3931 C 0.56185 0.77303 0.34546 0.0
N3932 N 0.58111 0.80123 0.4431 0.0
N3933 N 0.55498 0.74964 0.35772 0.0
H3934 H 0.55805 0.77877 0.26606 0.0
H3935 H 0.55024 0.7616 0.27583 0.0
H3936 H 0.55298 0.74138 0.38225 0.0
H3937 H 0.55357 0.74756 0.31494 0.0
H3938 H 0.5858 0.80353 0.48209 0.0
H3939 H 0.58395 0.80962 0.41811 0.0
H3940 H 0.57416 0.78826 0.53719 0.0
H3941 H 0.56895 0.77146 0.54516 0.0
C3942 C 0.24017 0.79314 0.40536 0.0
C3943 C 0.24153 0.80559 0.42056 0.0
C3944 C 0.22393 0.8019 0.35371 0.0
C3945 C 0.22086 0.78851 0.3475 0.0
N3946 N 0.2255 0.7709 0.36988 0.0
N3947 N 0.23381 0.82149 0.41251 0.0
C3948 C 0.22895 0.78402 0.37327 0.0
C3949 C 0.23334 0.81002 0.39496 0.0
N3950 N 0.24962 0.79008 0.42188 0.0
N3951 N 0.21784 0.80684 0.32008 0.0
H3952 H 0.24042 0.8278 0.44283 0.0
H3953 H 0.22691 0.82425 0.40008 0.0
H3954 H 0.21093 0.80112 0.28925 0.0
H3955 H 0.22063 0.81689 0.31888 0.0
H3956 H 0.24984 0.78167 0.40805 0.0
H3957 H 0.258 0.7967 0.44503 0.0
H3958 H 0.23016 0.76678 0.39311 0.0
H3959 H 0.2173 0.76386 0.34707 0.0
C3960 C 0.20987 0.44859 0.4096 0.0
C3961 C 0.19743 0.4378 0.42681 0.0
C3962 C 0.20054 0.4229 0.36361 0.0
C3963 C 0.21391 0.43305 0.35498 0.0
N3964 N 0.23179 0.45551 0.37162 0.0
N3965 N 0.1814 0.41415 0.42483 0.0
C3966 C 0.21869 0.44598 0.37773 0.0
C3967 C 0.19276 0.42483 0.40439 0.0
N3968 N 0.21322 0.4613 0.42417 0.0
N3969 N 0.19531 0.41143 0.33276 0.0
H3970 H 0.17537 0.41492 0.4553 0.0
H3971 H 0.1785 0.40432 0.41482 0.0
H3972 H 0.20078 0.40975 0.30232 0.0
H3973 H 0.18523 0.40422 0.33334 0.0
H3974 H 0.22163 0.46973 0.40891 0.0
H3975 H 0.20685 0.46341 0.44742 0.0
H3976 H 0.23618 0.46461 0.39258 0.0
H3977 H 0.23856 0.45397 0.3486 0.0
C3978 C 0.44139 0.89358 0.46089 0.0
C3979 C 0.45414 0.90451 0.44715 0.0
C3980 C 0.4448 0.9096 0.36531 0.0
C3981 C 0.43186 0.89926 0.38078 0.0
N3982 N 0.41742 0.88217 0.44558 0.0
N3983 N 0.46802 0.92328 0.38731 0.0
C3984 C 0.43003 0.89142 0.42923 0.0
C3985 C 0.45582 0.91258 0.39979 0.0
N3986 N 0.44027 0.88503 0.50288 0.0
N3987 N 0.44699 0.91698 0.31779 0.0
H3988 H 0.47647 0.92619 0.41201 0.0
H3989 H 0.46959 0.92943 0.35273 0.0
H3990 H 0.43963 0.91551 0.28878 0.0
H3991 H 0.43963 0.91551 0.28878 0.0
H3992 H 0.43157 0.87613 0.51152 0.0
H3993 H 0.44838 0.88633 0.52682 0.0
H3994 H 0.41521 0.87711 0.48368 0.0
H3995 H 0.40898 0.8801 0.42225 0.0
C3996 C 0.09782 0.54143 0.45826 0.0
C3997 C 0.08859 0.54523 0.43891 0.0
C3998 C 0.08485 0.53231 0.35266 0.0
C3999 C 0.09374 0.52812 0.37279 0.0
N4000 N 0.10772 0.52738 0.4458 0.0
N4001 N 0.07225 0.54347 0.37161 0.0
C4002 C 0.09996 0.53232 0.42597 0.0
C4003 C 0.08181 0.54044 0.38715 0.0
N4004 N 0.10464 0.54671 0.50718 0.0
N4005 N 0.07947 0.52865 0.30004 0.0
H4006 H 0.07022 0.54995 0.39427 0.0
H4007 H 0.06573 0.53902 0.33814 0.0
H4008 H 0.08066 0.52197 0.27479 0.0
H4009 H 0.07436 0.5327 0.27973 0.0
H4010 H 0.11256 0.5456 0.52089 0.0
H4011 H 0.10283 0.55284 0.53338 0.0
H4012 H 0.11144 0.52882 0.4865 0.0
H4013 H 0.10991 0.52114 0.42216 0.0
C4014 C 0.45246 0.56107 0.46061 0.0
C4015 C 0.45628 0.55198 0.48146 0.0
C4016 C 0.47734 0.56358 0.43047 0.0
C4017 C 0.47332 0.57229 0.40716 0.0
N4018 N 0.45879 0.58151 0.4088 0.0
N4019 N 0.47298 0.5455 0.49257 0.0
C4020 C 0.46142 0.57176 0.42537 0.0
C4021 C 0.46897 0.55367 0.46898 0.0
N4022 N 0.44001 0.55904 0.47205 0.0
N4023 N 0.48898 0.56418 0.41545 0.0
H4024 H 0.46725 0.53814 0.52188 0.0
H4025 H 0.48221 0.54635 0.48372 0.0
H4026 H 0.49584 0.57108 0.38716 0.0
H4027 H 0.49584 0.57108 0.38716 0.0
H4028 H 0.43599 0.56436 0.45334 0.0
H4029 H 0.4333 0.55147 0.49848 0.0
H4030 H 0.45088 0.58245 0.4239 0.0
H4031 H 0.46527 0.5894 0.38304 0.0
C4032 C 0.10646 0.56792 0.917 0.0
C4033 C 0.09625 0.56632 0.87947 0.0
C4034 C 0.08159 0.54376 0.91554 0.0
C4035 C 0.09214 0.54489 0.94943 0.0
N4036 N 0.11524 0.55723 0.97734 0.0
N4037 N 0.07412 0.55181 0.84047 0.0
C4038 C 0.10475 0.55679 0.9491 0.0
C4039 C 0.08391 0.5541 0.87803 0.0
N4040 N 0.1176 0.58016 0.92298 0.0
N4041 N 0.06921 0.53266 0.91832 0.0
H4042 H 0.07489 0.5585 0.80943 0.0
H4043 H 0.07489 0.5585 0.80943 0.0
H4044 H 0.06677 0.52489 0.94659 0.0
H4045 H 0.06125 0.53149 0.89367 0.0
H4046 H 0.12479 0.58236 0.95377 0.0
H4047 H 0.11914 0.58848 0.90003 0.0
H4048 H 0.12501 0.56504 0.9738 0.0
H4049 H 0.11438 0.54927 0.00108 0.0
C4050 C 0.43946 0.54585 0.96834 0.0
C4051 C 0.45238 0.54915 0.9492 0.0
C4052 C 0.44292 0.53618 0.86375 0.0
C4053 C 0.42989 0.53225 0.88373 0.0
N4054 N 0.41544 0.53222 0.95637 0.0
N4055 N 0.46657 0.54753 0.879 0.0
C4056 C 0.42806 0.53681 0.93643 0.0
C4057 C 0.45412 0.54435 0.89713 0.0
N4058 N 0.4382 0.55169 0.01608 0.0
N4059 N 0.44504 0.53214 0.81295 0.0
H4060 H 0.47522 0.5534 0.90215 0.0
H4061 H 0.4682 0.54414 0.84084 0.0
H4062 H 0.43754 0.52614 0.78466 0.0
H4063 H 0.43754 0.52614 0.78466 0.0
H4064 H 0.42926 0.55081 0.02973 0.0
H4065 H 0.44633 0.55822 0.04059 0.0
H4066 H 0.4133 0.53396 0.99685 0.0
H4067 H 0.40694 0.52596 0.93309 0.0
C4068 C 0.47601 0.91886 0.91298 0.0
C4069 C 0.47313 0.9057 0.90009 0.0
C4070 C 0.45325 0.89656 0.95997 0.0
C4071 C 0.45609 0.90975 0.97175 0.0
N4072 N 0.4708 0.93354 0.96429 0.0
N4073 N 0.46082 0.8822 0.91954 0.0
C4074 C 0.46772 0.92087 0.95024 0.0
C4075 C 0.46229 0.89459 0.92633 0.0
N4076 N 0.48648 0.92979 0.88943 0.0
N4077 N 0.4416 0.88596 0.97864 0.0
H4078 H 0.46733 0.88053 0.89515 0.0
H4079 H 0.4539 0.87379 0.94143 0.0
H4080 H 0.43484 0.88703 0.00393 0.0
H4081 H 0.43816 0.87615 0.96648 0.0
H4082 H 0.49318 0.92946 0.86117 0.0
H4083 H 0.49318 0.92946 0.86117 0.0
H4084 H 0.47923 0.94197 0.94878 0.0
H4085 H 0.46513 0.93559 0.99229 0.0
C4086 C 0.22923 0.42546 0.83843 0.0
C4087 C 0.21887 0.42748 0.85878 0.0
C4088 C 0.22854 0.43204 0.95298 0.0
C4089 C 0.2391 0.43027 0.93261 0.0
N4090 N 0.25112 0.42809 0.85481 0.0
N4091 N 0.21023 0.43573 0.9308 0.0
C4092 C 0.23996 0.42789 0.87477 0.0
C4093 C 0.21907 0.43179 0.91459 0.0
N4094 N 0.22853 0.42078 0.78512 0.0
N4095 N 0.22705 0.43315 0.00935 0.0
H4096 H 0.20295 0.43543 0.90411 0.0
H4097 H 0.21085 0.44039 0.96898 0.0
H4098 H 0.2338 0.43363 0.03938 0.0
H4099 H 0.21858 0.43263 0.027 0.0
H4100 H 0.23495 0.41768 0.76974 0.0
H4101 H 0.22096 0.41919 0.75707 0.0
H4102 H 0.25295 0.4276 0.81234 0.0
H4103 H 0.25914 0.42992 0.88064 0.0
C4104 C 0.57003 0.80155 0.83298 0.0
C4105 C 0.5675 0.78916 0.85556 0.0
C4106 C 0.56369 0.79563 0.94839 0.0
C4107 C 0.5656 0.80779 0.92543 0.0
N4108 N 0.56782 0.82118 0.8445 0.0
N4109 N 0.5585 0.77298 0.93028 0.0
C4110 C 0.56785 0.81036 0.8671 0.0
C4111 C 0.5632 0.78574 0.91187 0.0
N4112 N 0.57512 0.80517 0.77999 0.0
N4113 N 0.56318 0.7938 0.00528 0.0
H4114 H 0.55791 0.76542 0.9045 0.0
H4115 H 0.55396 0.76959 0.96926 0.0
H4116 H 0.56369 0.8008 0.03412 0.0
H4117 H 0.56343 0.78582 0.02417 0.0
H4118 H 0.57853 0.81466 0.7635 0.0
H4119 H 0.57687 0.799 0.75378 0.0
H4120 H 0.56816 0.82295 0.8015 0.0
H4121 H 0.56621 0.82777 0.86867 0.0
C4122 C 0.19891 0.76937 0.83666 0.0
C4123 C 0.21154 0.77932 0.8568 0.0
C4124 C 0.20676 0.76865 0.94899 0.0
C4125 C 0.19419 0.75848 0.92874 0.0
N4126 N 0.17975 0.7473 0.85038 0.0
N4127 N 0.22903 0.7862 0.92553 0.0
C4128 C 0.19077 0.75823 0.87139 0.0
C4129 C 0.21597 0.77818 0.91081 0.0
N4130 N 0.1944 0.77091 0.78574 0.0
N4131 N 0.20962 0.76984 0.00511 0.0
H4132 H 0.23609 0.79326 0.89831 0.0
H4133 H 0.23313 0.78491 0.96231 0.0
H4134 H 0.20325 0.76325 0.03533 0.0
H4135 H 0.21791 0.77806 0.02245 0.0
H4136 H 0.1847 0.76476 0.77162 0.0
H4137 H 0.20009 0.77893 0.75911 0.0
H4138 H 0.17735 0.74597 0.80785 0.0
H4139 H 0.1737 0.73898 0.87501 0.0
C4140 C 0.33297 0.0959 0.87888 0.0
C4141 C 0.34203 0.10924 0.89493 0.0
C4142 C 0.32469 0.10974 0.95192 0.0
C4143 C 0.31593 0.09609 0.93931 0.0
N4144 N 0.3126 0.0754 0.90065 0.0
N4145 N 0.34755 0.12772 0.9573 0.0
C4146 C 0.32035 0.08892 0.90577 0.0
C4147 C 0.3382 0.11582 0.93476 0.0
N4148 N 0.33619 0.09009 0.83637 0.0
N4149 N 0.31998 0.1171 0.97784 0.0
H4150 H 0.35762 0.13239 0.94658 0.0
H4151 H 0.34556 0.13229 0.99062 0.0
H4152 H 0.31008 0.11314 0.99025 0.0
H4153 H 0.3256 0.12741 0.98237 0.0
H4154 H 0.32942 0.08093 0.81878 0.0
H4155 H 0.34529 0.09492 0.81528 0.0
H4156 H 0.31585 0.06947 0.88134 0.0
H4157 H 0.30336 0.06996 0.92038 0.0
C4158 C 0.9 0.22309 0.8918 0.0
C4159 C 0.90718 0.22768 0.94285 0.0
C4160 C 0.90305 0.24645 0.94385 0.0
C4161 C 0.8942 0.24067 0.89783 0.0
N4162 N 0.88298 0.22264 0.83146 0.0
N4163 N 0.91505 0.2432 0.02006 0.0
C4164 C 0.89242 0.22883 0.87228 0.0
C4165 C 0.9087 0.23931 0.96939 0.0
N4166 N 0.90057 0.21334 0.86169 0.0
N4167 N 0.90613 0.25882 0.96257 0.0
H4168 H 0.9195 0.23833 0.03945 0.0
H4169 H 0.91516 0.25069 0.04465 0.0
H4170 H 0.90216 0.26429 0.94448 0.0
H4171 H 0.91346 0.26414 0.99247 0.0
H4172 H 0.89662 0.21048 0.82147 0.0
H4173 H 0.90614 0.20901 0.87465 0.0
H4174 H 0.88015 0.21316 0.81618 0.0
H4175 H 0.87717 0.22647 0.8158 0.0
C4176 C 0.78131 0.66307 0.87427 0.0
C4177 C 0.7677 0.65431 0.88714 0.0
C4178 C 0.76666 0.67224 0.93751 0.0
C4179 C 0.78056 0.68058 0.92913 0.0
N4180 N 0.80159 0.68362 0.89631 0.0
N4181 N 0.74763 0.64979 0.93583 0.0
C4182 C 0.78802 0.67592 0.89922 0.0
C4183 C 0.7604 0.65869 0.91996 0.0
N4184 N 0.78773 0.65917 0.8372 0.0
N4185 N 0.75942 0.67736 0.96113 0.0
H4186 H 0.74263 0.63987 0.92272 0.0
H4187 H 0.74227 0.65195 0.96495 0.0
H4188 H 0.76374 0.68717 0.97541 0.0
H4189 H 0.74905 0.67224 0.96288 0.0
H4190 H 0.79721 0.66557 0.82137 0.0
H4191 H 0.78314 0.64977 0.81844 0.0
H4192 H 0.80776 0.68024 0.88065 0.0
H4193 H 0.80684 0.69313 0.91376 0.0
C4194 C 0.10351 0.34492 0.54258 0.0
C4195 C 0.11022 0.34697 0.59466 0.0
C4196 C 0.10175 0.32299 0.60317 0.0
C4197 C 0.09663 0.32121 0.54777 0.0
N4198 N 0.09289 0.33022 0.46308 0.0
N4199 N 0.11671 0.33835 0.67328 0.0
C4200 C 0.09746 0.33209 0.51713 0.0
C4201 C 0.10948 0.33609 0.62501 0.0
N4202 N 0.10285 0.35523 0.51798 0.0
N4203 N 0.09912 0.31211 0.63497 0.0
H4204 H 0.12228 0.34777 0.69132 0.0
H4205 H 0.11793 0.33108 0.6936 0.0
H4206 H 0.09362 0.30236 0.62007 0.0
H4207 H 0.10139 0.31262 0.67752 0.0
H4208 H 0.09709 0.35416 0.48272 0.0
H4209 H 0.10722 0.36474 0.53568 0.0
H4210 H 0.09455 0.33797 0.43611 0.0
H4211 H 0.08804 0.32087 0.44389 0.0
C4212 C 0.66471 0.76168 0.54479 0.0
C4213 C 0.6747 0.77411 0.56639 0.0
C4214 C 0.65866 0.77463 0.63188 0.0
C4215 C 0.64876 0.76199 0.61163 0.0
N4216 N 0.64287 0.74217 0.55791 0.0
N4217 N 0.68219 0.79092 0.63863 0.0
C4218 C 0.65197 0.75509 0.57091 0.0
C4219 C 0.67198 0.78011 0.61262 0.0
N4220 N 0.66721 0.75648 0.49792 0.0
N4221 N 0.65521 0.78168 0.66743 0.0
H4222 H 0.69209 0.79519 0.6257 0.0
H4223 H 0.68105 0.79492 0.676 0.0
H4224 H 0.64558 0.778 0.68293 0.0
H4225 H 0.66165 0.79159 0.67828 0.0
H4226 H 0.65989 0.74824 0.47634 0.0
H4227 H 0.67647 0.76096 0.47804 0.0
H4228 H 0.64503 0.73615 0.53272 0.0
H4229 H 0.63345 0.73707 0.57642 0.0
C4230 C 0.23483 0.90376 0.52726 0.0
C4231 C 0.22254 0.90142 0.55012 0.0
C4232 C 0.2226 0.88535 0.61683 0.0
C4233 C 0.23521 0.88817 0.59588 0.0
N4234 N 0.25456 0.90176 0.53911 0.0
N4235 N 0.20616 0.89237 0.62416 0.0
C4236 C 0.24171 0.89792 0.55346 0.0
C4237 C 0.21687 0.89294 0.59729 0.0
N4238 N 0.23966 0.91118 0.47941 0.0
N4239 N 0.21581 0.87503 0.65352 0.0
H4240 H 0.2017 0.89782 0.61111 0.0
H4241 H 0.20245 0.88748 0.66223 0.0
H4242 H 0.21966 0.86923 0.66914 0.0
H4243 H 0.20594 0.87152 0.66507 0.0
H4244 H 0.24778 0.91202 0.45711 0.0
H4245 H 0.23496 0.91574 0.45955 0.0
H4246 H 0.26033 0.90974 0.51258 0.0
H4247 H 0.25988 0.89768 0.55762 0.0
C4248 C 0.67542 0.88594 0.06469 0.0
C4249 C 0.68341 0.90003 0.06299 0.0
C4250 C 0.66502 0.90225 0.10194 0.0
C4251 C 0.65737 0.88819 0.10702 0.0
N4252 N 0.65585 0.86667 0.10263 0.0
N4253 N 0.68684 0.92171 0.08752 0.0
C4254 C 0.66275 0.88003 0.09115 0.0
C4255 C 0.6785 0.90824 0.08378 0.0
N4256 N 0.67979 0.87821 0.03938 0.0
N4257 N 0.65927 0.90984 0.11285 0.0
H4258 H 0.69672 0.92645 0.07392 0.0
H4259 H 0.68432 0.92809 0.10789 0.0
H4260 H 0.64951 0.90581 0.12737 0.0
H4261 H 0.66381 0.91997 0.10387 0.0
H4262 H 0.67383 0.86797 0.03365 0.0
H4263 H 0.68906 0.88217 0.01988 0.0
H4264 H 0.65983 0.86043 0.09769 0.0
H4265 H 0.64649 0.86197 0.12168 0.0
C4266 C 0.10355 0.75861 0.06781 0.0
C4267 C 0.10651 0.7599 0.12604 0.0
C4268 C 0.09366 0.77122 0.1397 0.0
C4269 C 0.09264 0.77188 0.08059 0.0
N4270 N 0.09662 0.76652 0.98741 0.0
N4271 N 0.10468 0.76739 0.21824 0.0
C4272 C 0.0974 0.76547 0.04431 0.0
C4273 C 0.10147 0.76602 0.16246 0.0
N4274 N 0.10663 0.7508 0.03526 0.0
N4275 N 0.08713 0.77557 0.17381 0.0
H4276 H 0.11004 0.76333 0.23654 0.0
H4277 H 0.10269 0.77314 0.2459 0.0
H4278 H 0.08138 0.77948 0.15812 0.0
H4279 H 0.08643 0.77429 0.21717 0.0
H4280 H 0.10365 0.74842 0.99362 0.0
H4281 H 0.11123 0.74573 0.05135 0.0
H4282 H 0.10133 0.76349 0.95859 0.0
H4283 H 0.09182 0.77113 0.96876 0.0
C4284 C 0.23623 0.33236 0.16396 0.0
C4285 C 0.23682 0.34302 0.13241 0.0
C4286 C 0.22519 0.32791 0.05423 0.0
C4287 C 0.2251 0.31732 0.08465 0.0
N4288 N 0.23322 0.31008 0.16241 0.0
N4289 N 0.23533 0.35177 0.04248 0.0
C4290 C 0.2315 0.31976 0.13769 0.0
C4291 C 0.23243 0.34105 0.07582 0.0
N4292 N 0.23963 0.3341 0.21953 0.0
N4293 N 0.21774 0.32535 0.00647 0.0
H4294 H 0.2408 0.36159 0.05671 0.0
H4295 H 0.23352 0.351 -0.00059 0.0
H4296 H 0.21199 0.31584 0.98959 0.0
H4297 H 0.21629 0.33251 0.98635 0.0
H4298 H 0.23799 0.32631 0.24622 0.0
H4299 H 0.2432 0.34321 0.24008 0.0
H4300 H 0.2389 0.31167 0.1985 0.0
H4301 H 0.23001 0.30081 0.14382 0.0
C4302 C 0.89057 0.66585 0.35948 0.0
C4303 C 0.89113 0.65548 0.38878 0.0
C4304 C 0.90472 0.67114 0.46272 0.0
C4305 C 0.90439 0.68155 0.4328 0.0
N4306 N 0.89965 0.68964 0.34759 0.0
N4307 N 0.90084 0.64852 0.46124 0.0
C4308 C 0.89816 0.67915 0.37943 0.0
C4309 C 0.8989 0.65823 0.43824 0.0
N4310 N 0.88231 0.6629 0.31415 0.0
N4311 N 0.91014 0.67349 0.51539 0.0
H4312 H 0.89669 0.63896 0.44421 0.0
H4313 H 0.90742 0.6502 0.49408 0.0
H4314 H 0.91473 0.68289 0.53411 0.0
H4315 H 0.90933 0.666 0.54205 0.0
H4316 H 0.88023 0.66975 0.29518 0.0
H4317 H 0.87677 0.65332 0.29761 0.0
H4318 H 0.89654 0.6887 0.30598 0.0
H4319 H 0.90504 0.69952 0.36112 0.0
C4320 C 0.32882 0.2169 0.42969 0.0
C4321 C 0.32221 0.2244 0.43282 0.0
C4322 C 0.34206 0.24414 0.39641 0.0
C4323 C 0.34832 0.23638 0.38956 0.0
N4324 N 0.34748 0.21517 0.39348 0.0
N4325 N 0.32164 0.24456 0.41455 0.0
C4326 C 0.34165 0.22269 0.40454 0.0
C4327 C 0.32859 0.23788 0.41498 0.0
N4328 N 0.32291 0.20431 0.45179 0.0
N4329 N 0.34912 0.25755 0.38616 0.0
H4330 H 0.31191 0.24041 0.42967 0.0
H4331 H 0.32513 0.25387 0.39623 0.0
H4332 H 0.35885 0.26237 0.37072 0.0
H4333 H 0.34571 0.26408 0.39615 0.0
H4334 H 0.32774 0.19884 0.45668 0.0
H4335 H 0.31337 0.19958 0.46916 0.0
H4336 H 0.34258 0.20484 0.39723 0.0
H4337 H 0.35704 0.21914 0.37671 0.0
C4338 C 0.78518 0.10726 0.36989 0.0
C4339 C 0.77927 0.09848 0.41611 0.0
C4340 C 0.7616 0.10424 0.42045 0.0
C4341 C 0.76722 0.11258 0.37283 0.0
N4342 N 0.78264 0.12009 0.29535 0.0
N4343 N 0.76063 0.08656 0.47855 0.0
C4344 C 0.77849 0.11347 0.34538 0.0
C4345 C 0.76708 0.09634 0.43934 0.0
N4346 N 0.79747 0.1101 0.35096 0.0
N4347 N 0.75134 0.10425 0.44882 0.0
H4348 H 0.7644 0.08062 0.49334 0.0
H4349 H 0.75105 0.08355 0.49294 0.0
H4350 H 0.74688 0.10968 0.43559 0.0
H4351 H 0.74783 0.09961 0.48748 0.0
H4352 H 0.80302 0.11761 0.32209 0.0
H4353 H 0.80261 0.10562 0.36722 0.0
H4354 H 0.78991 0.11991 0.2702 0.0
H4355 H 0.77801 0.12483 0.27643 0.0
C4356 C 0.98906 0.4175 0.22266 0.0
C4357 C 0.98637 0.42305 0.27058 0.0
C4358 C 0.0098 0.44058 0.27466 0.0
C4359 C 0.01194 0.43629 0.2219 0.0
N4360 N 0.00367 0.42114 0.14345 0.0
N4361 N 0.99376 0.44053 0.33997 0.0
C4362 C 0.00163 0.42477 0.1955 0.0
C4363 C 0.99666 0.43469 0.29649 0.0
N4364 N 0.97959 0.40525 0.20354 0.0
N4365 N 0.02037 0.45023 0.30407 0.0
H4366 H 0.98429 0.43649 0.35764 0.0
H4367 H 0.00051 0.44989 0.35593 0.0
H4368 H 0.03015 0.45473 0.28932 0.0
H4369 H 0.01965 0.45287 0.34518 0.0
H4370 H 0.98132 0.40008 0.172 0.0
H4371 H 0.9703 0.39972 0.2228 0.0
H4372 H 0.9961 0.41376 0.11917 0.0
H4373 H 0.01281 0.42612 0.12274 0.0
C4374 C 0.56915 0.57436 0.22987 0.0
C4375 C 0.55556 0.5668 0.21372 0.0
C4376 C 0.55484 0.54615 0.24304 0.0
C4377 C 0.56857 0.55365 0.2571 0.0
N4378 N 0.58935 0.57445 0.25813 0.0
N4379 N 0.53581 0.54555 0.19745 0.0
C4380 C 0.5759 0.56765 0.24878 0.0
C4381 C 0.54851 0.55269 0.21804 0.0
N4382 N 0.57548 0.58798 0.22823 0.0
N4383 N 0.54779 0.53281 0.25486 0.0
H4384 H 0.53071 0.55 0.18039 0.0
H4385 H 0.5306 0.53522 0.19347 0.0
H4386 H 0.55217 0.52758 0.27131 0.0
H4387 H 0.53747 0.52702 0.25191 0.0
H4388 H 0.58485 0.59417 0.24543 0.0
H4389 H 0.57104 0.5932 0.2121 0.0
H4390 H 0.59558 0.58437 0.24711 0.0
H4391 H 0.59451 0.56993 0.27404 0.0
C4392 C 0.42127 0.99065 0.28539 0.0
C4393 C 0.4275 0.98654 0.24502 0.0
C4394 C 0.44677 0.00912 0.2423 0.0
C4395 C 0.4413 0.01278 0.28757 0.0
N4396 N 0.42407 0.00677 0.35694 0.0
N4397 N 0.44711 0.99118 0.19179 0.0
C4398 C 0.4287 0.00349 0.31034 0.0
C4399 C 0.44049 0.9956 0.22511 0.0
N4400 N 0.40818 0.98238 0.29891 0.0
N4401 N 0.45779 0.01864 0.21476 0.0
H4402 H 0.44296 0.98132 0.17853 0.0
H4403 H 0.45715 0.99703 0.18139 0.0
H4404 H 0.46256 0.02869 0.22571 0.0
H4405 H 0.46141 0.01679 0.17782 0.0
H4406 H 0.40269 0.98529 0.32378 0.0
H4407 H 0.40246 0.97293 0.28125 0.0
H4408 H 0.41566 -4e-05 0.37917 0.0
H4409 H 0.42922 0.01611 0.37607 0.0
C4410 C 0.57852 0.009 0.72943 0.0
C4411 C 0.57171 0.01336 0.76547 0.0
C4412 C 0.55136 0.99162 0.75815 0.0
C4413 C 0.55833 0.98701 0.72438 0.0
N4414 N 0.57885 0.99038 0.68409 0.0
N4415 N 0.55247 0.00851 0.8216 0.0
C4416 C 0.57203 0.99544 0.71178 0.0
C4417 C 0.55837 0.00455 0.78217 0.0
N4418 N 0.59107 0.01792 0.71112 0.0
N4419 N 0.5379 0.98378 0.76548 0.0
H4420 H 0.55715 0.01804 0.83906 0.0
H4421 H 0.54335 0.00209 0.84036 0.0
H4422 H 0.53245 0.97418 0.7492 0.0
H4423 H 0.53193 0.98709 0.78392 0.0
H4424 H 0.59604 0.01582 0.6799 0.0
H4425 H 0.59628 0.02779 0.72491 0.0
H4426 H 0.58914 0.99555 0.67861 0.0
H4427 H 0.57432 0.98055 0.66987 0.0
C4428 C 0.00973 0.5755 0.78676 0.0
C4429 C 0.01221 0.57155 0.73377 0.0
C4430 C 0.98842 0.55544 0.72378 0.0
C4431 C 0.98637 0.55784 0.78029 0.0
N4432 N 0.9952 0.56936 0.86792 0.0
N4433 N 0.00419 0.55646 0.65465 0.0
C4434 C 0.99703 0.56776 0.81238 0.0
C4435 C 0.00161 0.56125 0.70268 0.0
N4436 N 0.01948 0.58677 0.81209 0.0
N4437 N 0.97774 0.54772 0.69008 0.0
H4438 H 0.01372 0.56024 0.63796 0.0
H4439 H 0.99702 0.54796 0.63397 0.0
H4440 H 0.96791 0.54341 0.70403 0.0
H4441 H 0.97857 0.54671 0.64703 0.0
H4442 H 0.01789 0.59087 0.84814 0.0
H4443 H 0.02884 0.59273 0.79402 0.0
H4444 H 0.00297 0.57537 0.895 0.0
H4445 H 0.98603 0.56391 0.88808 0.0
C4446 C 0.44645 0.45712 0.77046 0.0
C4447 C 0.43354 0.44928 0.74693 0.0
C4448 C 0.43437 0.42887 0.76518 0.0
C4449 C 0.44708 0.43669 0.79034 0.0
N4450 N 0.46456 0.45784 0.82458 0.0
N4451 N 0.4143 0.42781 0.72835 0.0
C4452 C 0.45291 0.45071 0.79534 0.0
C4453 C 0.42722 0.43516 0.74628 0.0
N4454 N 0.45264 0.47072 0.7676 0.0
N4455 N 0.42933 0.41548 0.75798 0.0
H4456 H 0.40893 0.43212 0.71252 0.0
H4457 H 0.40858 0.41751 0.7324 0.0
H4458 H 0.43404 0.41045 0.77334 0.0
H4459 H 0.4209 0.40942 0.73419 0.0
H4460 H 0.46259 0.47706 0.77785 0.0
H4461 H 0.44802 0.47577 0.75154 0.0
H4462 H 0.46864 0.46784 0.83515 0.0
H4463 H 0.46977 0.45352 0.84198 0.0
loop_
_geom_bond_atom_site_label_1
_geom_bond_atom_site_label_2
_geom_bond_distance
_geom_bond_site_symmetry_2
_ccdc_geom_bond_type
Li0 N17 1.990 . S
Li0 O60 1.956 . S
Li0 O61 1.970 . S
Li0 O62 1.961 . S
Li1 N25 1.990 . S
Li1 O60 1.970 . S
Li1 O61 1.956 . S
Li1 O63 1.961 1_554 S
Li2 N47 1.990 . S
Li2 O60 1.961 . S
Li2 O62 1.956 . S
Li2 O63 1.970 1_554 S
Li3 N53 1.990 . S
Li3 O61 1.961 1_556 S
Li3 O62 1.970 1_556 S
Li3 O63 1.956 . S
C4 C6 1.348 . S
C4 C7 1.356 . S
C4 O60 1.325 . S
N5 C8 1.314 . S
N5 C9 1.279 . S
C6 C4 1.348 . S
C6 C8 1.353 . S
C6 H64 0.929 . S
C7 C4 1.356 . S
C7 C9 1.358 . S
C7 H65 0.930 . S
C8 N5 1.314 . S
C8 C6 1.353 . S
C8 H66 0.930 . S
C9 N5 1.279 . S
C9 C7 1.358 . S
C9 H67 0.930 . S
C10 C13 1.348 . S
C10 C14 1.356 . S
C10 O61 1.325 . S
C11 N12 1.279 . S
C11 C14 1.358 . S
C11 H68 0.930 . S
N12 C11 1.279 . S
N12 C15 1.314 . S
C13 C10 1.348 . S
C13 C15 1.353 . S
C13 H69 0.929 . S
C14 C10 1.356 . S
C14 C11 1.358 . S
C14 H70 0.930 . S
C15 N12 1.314 . S
C15 C13 1.353 . S
C15 H71 0.930 . S
C16 N17 1.314 . S
C16 C21 1.353 . S
C16 H22 0.930 . S
N17 Li0 1.990 . S
N17 C16 1.314 . S
N17 C19 1.279 . S
C18 C19 1.358 . S
C18 C20 1.356 . S
C18 H72 0.930 . S
C19 N17 1.279 . S
C19 C18 1.358 . S
C19 H23 0.930 . S
C20 C18 1.356 . S
C20 C21 1.348 . S
C21 C16 1.353 . S
C21 C20 1.348 . S
C21 H73 0.929 . S
H22 C16 0.930 . S
H23 C19 0.930 . S
C24 N25 1.314 . S
C24 C26 1.353 . S
C24 H30 0.930 . S
N25 Li1 1.990 . S
N25 C24 1.314 . S
N25 C28 1.279 . S
C26 C24 1.353 . S
C26 C29 1.348 . S
C26 H74 0.929 . S
C27 C28 1.358 . S
C27 C29 1.356 . S
C27 H75 0.930 . S
C28 N25 1.279 . S
C28 C27 1.358 . S
C28 H31 0.930 . S
C29 C26 1.348 . S
C29 C27 1.356 . S
H30 C24 0.930 . S
H31 C28 0.930 . S
C32 C34 1.348 1_554 S
C32 C35 1.356 . S
C32 O62 1.325 . S
N33 C36 1.314 . S
N33 C37 1.279 1_556 S
C34 C32 1.348 1_556 S
C34 C36 1.353 . S
C34 H76 0.929 . S
C35 C32 1.356 . S
C35 C37 1.358 . S
C35 H77 0.930 . S
C36 N33 1.314 . S
C36 C34 1.353 . S
C36 H78 0.930 . S
C37 N33 1.279 1_554 S
C37 C35 1.358 . S
C37 H79 0.930 . S
C38 C39 1.348 . S
C38 C40 1.356 . S
C38 O63 1.325 . S
C39 C38 1.348 . S
C39 C41 1.353 . S
C39 H80 0.929 . S
C40 C38 1.356 . S
C40 C42 1.358 . S
C40 H81 0.930 . S
C41 C39 1.353 . S
C41 N43 1.314 . S
C41 H82 0.930 . S
C42 C40 1.358 . S
C42 N43 1.279 . S
C42 H83 0.930 . S
N43 C41 1.314 . S
N43 C42 1.279 . S
C44 C46 1.353 . S
C44 N47 1.314 . S
C44 H50 0.930 . S
C45 N47 1.279 1_556 S
C45 C48 1.358 . S
C45 H51 0.930 . S
C46 C44 1.353 . S
C46 C49 1.348 1_554 S
C46 H84 0.929 . S
N47 Li2 1.990 . S
N47 C44 1.314 . S
N47 C45 1.279 1_554 S
C48 C45 1.358 . S
C48 C49 1.356 . S
C48 H85 0.930 . S
C49 C46 1.348 1_556 S
C49 C48 1.356 . S
H50 C44 0.930 . S
H51 C45 0.930 . S
C52 N53 1.314 . S
C52 C54 1.353 . S
C52 H58 0.930 . S
N53 Li3 1.990 . S
N53 C52 1.314 . S
N53 C56 1.279 . S
C54 C52 1.353 . S
C54 C57 1.348 . S
C54 H86 0.929 . S
C55 C56 1.358 . S
C55 C57 1.356 . S
C55 H87 0.930 . S
C56 N53 1.279 . S
C56 C55 1.358 . S
C56 H59 0.930 . S
C57 C54 1.348 . S
C57 C55 1.356 . S
H58 C52 0.930 . S
H59 C56 0.930 . S
O60 Li0 1.956 . S
O60 Li1 1.970 . S
O60 Li2 1.961 . S
O60 C4 1.325 . S
O61 Li0 1.970 . S
O61 Li1 1.956 . S
O61 Li3 1.961 1_554 S
O61 C10 1.325 . S
O62 Li0 1.961 . S
O62 Li2 1.956 . S
O62 Li3 1.970 1_554 S
O62 C32 1.325 . S
O63 Li1 1.961 1_556 S
O63 Li2 1.970 1_556 S
O63 Li3 1.956 . S
O63 C38 1.325 . S
H64 C6 0.929 . S
H65 C7 0.930 . S
H66 C8 0.930 . S
H67 C9 0.930 . S
H68 C11 0.930 . S
H69 C13 0.929 . S
H70 C14 0.930 . S
H71 C15 0.930 . S
H72 C18 0.930 . S
H73 C21 0.929 . S
H74 C26 0.929 . S
H75 C27 0.930 . S
H76 C34 0.929 . S
H77 C35 0.930 . S
H78 C36 0.930 . S
H79 C37 0.930 . S
H80 C39 0.929 . S
H81 C40 0.930 . S
H82 C41 0.930 . S
H83 C42 0.930 . S
H84 C46 0.929 . S
H85 C48 0.930 . S
H86 C54 0.929 . S
H87 C55 0.930 . S
Li88 N105 1.990 . S
Li88 O148 1.956 . S
Li88 O149 1.970 . S
Li88 O150 1.961 1_554 S
Li89 N113 1.990 . S
Li89 O148 1.970 . S
Li89 O149 1.956 . S
Li89 O151 1.961 . S
Li90 N135 1.990 . S
Li90 O148 1.961 1_556 S
Li90 O150 1.956 . S
Li90 O151 1.970 1_556 S
Li91 N141 1.990 . S
Li91 O149 1.961 . S
Li91 O150 1.970 1_554 S
Li91 O151 1.956 . S
C92 C94 1.348 . S
C92 C95 1.356 . S
C92 O148 1.325 . S
N93 C96 1.314 . S
N93 C97 1.279 . S
C94 C92 1.348 . S
C94 C96 1.353 . S
C94 H152 0.929 . S
C95 C92 1.356 . S
C95 C97 1.358 . S
C95 H153 0.930 . S
C96 N93 1.314 . S
C96 C94 1.353 . S
C96 H154 0.930 . S
C97 N93 1.279 . S
C97 C95 1.358 . S
C97 H155 0.930 . S
C98 C101 1.348 . S
C98 C102 1.356 . S
C98 O149 1.325 . S
C99 N100 1.279 . S
C99 C102 1.358 . S
C99 H156 0.930 . S
N100 C99 1.279 . S
N100 C103 1.314 . S
C101 C98 1.348 . S
C101 C103 1.353 . S
C101 H157 0.929 . S
C102 C98 1.356 . S
C102 C99 1.358 . S
C102 H158 0.930 . S
C103 N100 1.314 . S
C103 C101 1.353 . S
C103 H159 0.930 . S
C104 N105 1.314 . S
C104 C109 1.353 . S
C104 H110 0.930 . S
N105 Li88 1.990 . S
N105 C104 1.314 . S
N105 C107 1.279 . S
C106 C107 1.358 . S
C106 C108 1.356 . S
C106 H160 0.930 . S
C107 N105 1.279 . S
C107 C106 1.358 . S
C107 H111 0.930 . S
C108 C106 1.356 . S
C108 C109 1.348 . S
C109 C104 1.353 . S
C109 C108 1.348 . S
C109 H161 0.929 . S
H110 C104 0.930 . S
H111 C107 0.930 . S
C112 N113 1.314 . S
C112 C114 1.353 . S
C112 H118 0.930 . S
N113 Li89 1.990 . S
N113 C112 1.314 . S
N113 C116 1.279 . S
C114 C112 1.353 . S
C114 C117 1.348 . S
C114 H162 0.929 . S
C115 C116 1.358 . S
C115 C117 1.356 . S
C115 H163 0.930 . S
C116 N113 1.279 . S
C116 C115 1.358 . S
C116 H119 0.930 . S
C117 C114 1.348 . S
C117 C115 1.356 . S
H118 C112 0.930 . S
H119 C116 0.930 . S
C120 C122 1.348 . S
C120 C123 1.356 . S
C120 O150 1.325 . S
N121 C124 1.314 . S
N121 C125 1.279 . S
C122 C120 1.348 . S
C122 C124 1.353 . S
C122 H164 0.929 . S
C123 C120 1.356 . S
C123 C125 1.358 . S
C123 H165 0.930 . S
C124 N121 1.314 . S
C124 C122 1.353 . S
C124 H166 0.930 . S
C125 N121 1.279 . S
C125 C123 1.358 . S
C125 H167 0.930 . S
C126 C127 1.348 1_554 S
C126 C128 1.356 . S
C126 O151 1.325 . S
C127 C126 1.348 1_556 S
C127 C129 1.353 . S
C127 H168 0.929 . S
C128 C126 1.356 . S
C128 C130 1.358 . S
C128 H169 0.930 . S
C129 C127 1.353 . S
C129 N131 1.314 . S
C129 H170 0.930 . S
C130 C128 1.358 . S
C130 N131 1.279 1_554 S
C130 H171 0.930 . S
N131 C129 1.314 . S
N131 C130 1.279 1_556 S
C132 C134 1.353 . S
C132 N135 1.314 . S
C132 H138 0.930 . S
C133 N135 1.279 . S
C133 C136 1.358 . S
C133 H139 0.930 . S
C134 C132 1.353 . S
C134 C137 1.348 . S
C134 H172 0.929 . S
N135 Li90 1.990 . S
N135 C132 1.314 . S
N135 C133 1.279 . S
C136 C133 1.358 . S
C136 C137 1.356 . S
C136 H173 0.930 . S
C137 C134 1.348 . S
C137 C136 1.356 . S
H138 C132 0.930 . S
H139 C133 0.930 . S
C140 N141 1.314 . S
C140 C142 1.353 . S
C140 H146 0.930 . S
N141 Li91 1.990 . S
N141 C140 1.314 . S
N141 C144 1.279 1_554 S
C142 C140 1.353 . S
C142 C145 1.348 1_554 S
C142 H174 0.929 . S
C143 C144 1.358 . S
C143 C145 1.356 . S
C143 H175 0.930 . S
C144 N141 1.279 1_556 S
C144 C143 1.358 . S
C144 H147 0.930 . S
C145 C142 1.348 1_556 S
C145 C143 1.356 . S
H146 C140 0.930 . S
H147 C144 0.930 . S
O148 Li88 1.956 . S
O148 Li89 1.970 . S
O148 Li90 1.961 1_554 S
O148 C92 1.325 . S
O149 Li88 1.970 . S
O149 Li89 1.956 . S
O149 Li91 1.961 . S
O149 C98 1.325 . S
O150 Li88 1.961 1_556 S
O150 Li90 1.956 . S
O150 Li91 1.970 1_556 S
O150 C120 1.325 . S
O151 Li89 1.961 . S
O151 Li90 1.970 1_554 S
O151 Li91 1.956 . S
O151 C126 1.325 . S
H152 C94 0.929 . S
H153 C95 0.930 . S
H154 C96 0.930 . S
H155 C97 0.930 . S
H156 C99 0.930 . S
H157 C101 0.929 . S
H158 C102 0.930 . S
H159 C103 0.930 . S
H160 C106 0.930 . S
H161 C109 0.929 . S
H162 C114 0.929 . S
H163 C115 0.930 . S
H164 C122 0.929 . S
H165 C123 0.930 . S
H166 C124 0.930 . S
H167 C125 0.930 . S
H168 C127 0.929 . S
H169 C128 0.930 . S
H170 C129 0.930 . S
H171 C130 0.930 . S
H172 C134 0.929 . S
H173 C136 0.930 . S
H174 C142 0.929 . S
H175 C143 0.930 . S
Li176 N193 1.990 . S
Li176 O236 1.956 . S
Li176 O237 1.970 . S
Li176 O238 1.961 1_554 S
Li177 N201 1.990 . S
Li177 O236 1.970 . S
Li177 O237 1.956 . S
Li177 O239 1.961 . S
Li178 N223 1.990 . S
Li178 O236 1.961 1_556 S
Li178 O238 1.956 . S
Li178 O239 1.970 1_556 S
Li179 N229 1.990 . S
Li179 O237 1.961 . S
Li179 O238 1.970 1_554 S
Li179 O239 1.956 . S
C180 C182 1.348 . S
C180 C183 1.356 . S
C180 O236 1.325 . S
N181 C184 1.314 . S
N181 C185 1.279 . S
C182 C180 1.348 . S
C182 C184 1.353 . S
C182 H240 0.929 . S
C183 C180 1.356 . S
C183 C185 1.358 . S
C183 H241 0.930 . S
C184 N181 1.314 . S
C184 C182 1.353 . S
C184 H242 0.930 . S
C185 N181 1.279 . S
C185 C183 1.358 . S
C185 H243 0.930 . S
C186 C189 1.348 . S
C186 C190 1.356 . S
C186 O237 1.325 . S
C187 N188 1.279 . S
C187 C190 1.358 . S
C187 H244 0.930 . S
N188 C187 1.279 . S
N188 C191 1.314 . S
C189 C186 1.348 . S
C189 C191 1.353 . S
C189 H245 0.929 . S
C190 C186 1.356 . S
C190 C187 1.358 . S
C190 H246 0.930 . S
C191 N188 1.314 . S
C191 C189 1.353 . S
C191 H247 0.930 . S
C192 N193 1.314 . S
C192 C197 1.353 . S
C192 H198 0.930 . S
N193 Li176 1.990 . S
N193 C192 1.314 . S
N193 C195 1.279 . S
C194 C195 1.358 . S
C194 C196 1.356 . S
C194 H248 0.930 . S
C195 N193 1.279 . S
C195 C194 1.358 . S
C195 H199 0.930 . S
C196 C194 1.356 . S
C196 C197 1.348 . S
C197 C192 1.353 . S
C197 C196 1.348 . S
C197 H249 0.929 . S
H198 C192 0.930 . S
H199 C195 0.930 . S
C200 N201 1.314 . S
C200 C202 1.353 . S
C200 H206 0.930 . S
N201 Li177 1.990 . S
N201 C200 1.314 . S
N201 C204 1.279 . S
C202 C200 1.353 . S
C202 C205 1.348 . S
C202 H250 0.929 . S
C203 C204 1.358 . S
C203 C205 1.356 . S
C203 H251 0.930 . S
C204 N201 1.279 . S
C204 C203 1.358 . S
C204 H207 0.930 . S
C205 C202 1.348 . S
C205 C203 1.356 . S
H206 C200 0.930 . S
H207 C204 0.930 . S
C208 C210 1.348 . S
C208 C211 1.356 . S
C208 O238 1.325 . S
N209 C212 1.314 . S
N209 C213 1.279 . S
C210 C208 1.348 . S
C210 C212 1.353 . S
C210 H252 0.929 . S
C211 C208 1.356 . S
C211 C213 1.358 . S
C211 H253 0.930 . S
C212 N209 1.314 . S
C212 C210 1.353 . S
C212 H254 0.930 . S
C213 N209 1.279 . S
C213 C211 1.358 . S
C213 H255 0.930 . S
C214 C215 1.348 1_554 S
C214 C216 1.356 . S
C214 O239 1.325 . S
C215 C214 1.348 1_556 S
C215 C217 1.353 . S
C215 H256 0.929 . S
C216 C214 1.356 . S
C216 C218 1.358 . S
C216 H257 0.930 . S
C217 C215 1.353 . S
C217 N219 1.314 . S
C217 H258 0.930 . S
C218 C216 1.358 . S
C218 N219 1.279 1_554 S
C218 H259 0.930 . S
N219 C217 1.314 . S
N219 C218 1.279 1_556 S
C220 C222 1.353 . S
C220 N223 1.314 . S
C220 H226 0.930 . S
C221 N223 1.279 . S
C221 C224 1.358 . S
C221 H227 0.930 . S
C222 C220 1.353 . S
C222 C225 1.348 . S
C222 H260 0.929 . S
N223 Li178 1.990 . S
N223 C220 1.314 . S
N223 C221 1.279 . S
C224 C221 1.358 . S
C224 C225 1.356 . S
C224 H261 0.930 . S
C225 C222 1.348 . S
C225 C224 1.356 . S
H226 C220 0.930 . S
H227 C221 0.930 . S
C228 N229 1.314 . S
C228 C230 1.353 . S
C228 H234 0.930 . S
N229 Li179 1.990 . S
N229 C228 1.314 . S
N229 C232 1.279 1_554 S
C230 C228 1.353 . S
C230 C233 1.348 1_554 S
C230 H262 0.929 . S
C231 C232 1.358 . S
C231 C233 1.356 . S
C231 H263 0.930 . S
C232 N229 1.279 1_556 S
C232 C231 1.358 . S
C232 H235 0.930 . S
C233 C230 1.348 1_556 S
C233 C231 1.356 . S
H234 C228 0.930 . S
H235 C232 0.930 . S
O236 Li176 1.956 . S
O236 Li177 1.970 . S
O236 Li178 1.961 1_554 S
O236 C180 1.325 . S
O237 Li176 1.970 . S
O237 Li177 1.956 . S
O237 Li179 1.961 . S
O237 C186 1.325 . S
O238 Li176 1.961 1_556 S
O238 Li178 1.956 . S
O238 Li179 1.970 1_556 S
O238 C208 1.325 . S
O239 Li177 1.961 . S
O239 Li178 1.970 1_554 S
O239 Li179 1.956 . S
O239 C214 1.325 . S
H240 C182 0.929 . S
H241 C183 0.930 . S
H242 C184 0.930 . S
H243 C185 0.930 . S
H244 C187 0.930 . S
H245 C189 0.929 . S
H246 C190 0.930 . S
H247 C191 0.930 . S
H248 C194 0.930 . S
H249 C197 0.929 . S
H250 C202 0.929 . S
H251 C203 0.930 . S
H252 C210 0.929 . S
H253 C211 0.930 . S
H254 C212 0.930 . S
H255 C213 0.930 . S
H256 C215 0.929 . S
H257 C216 0.930 . S
H258 C217 0.930 . S
H259 C218 0.930 . S
H260 C222 0.929 . S
H261 C224 0.930 . S
H262 C230 0.929 . S
H263 C231 0.930 . S
Li264 N281 1.990 . S
Li264 O324 1.956 . S
Li264 O325 1.970 . S
Li264 O326 1.961 . S
Li265 N289 1.990 . S
Li265 O324 1.970 . S
Li265 O325 1.956 . S
Li265 O327 1.961 . S
Li266 N311 1.990 . S
Li266 O324 1.961 . S
Li266 O326 1.956 . S
Li266 O327 1.970 . S
Li267 N317 1.990 . S
Li267 O325 1.961 . S
Li267 O326 1.970 . S
Li267 O327 1.956 . S
C268 C270 1.348 . S
C268 C271 1.356 . S
C268 O324 1.325 . S
N269 C272 1.314 . S
N269 C273 1.279 . S
C270 C268 1.348 . S
C270 C272 1.353 . S
C270 H328 0.929 . S
C271 C268 1.356 . S
C271 C273 1.358 . S
C271 H329 0.930 . S
C272 N269 1.314 . S
C272 C270 1.353 . S
C272 H330 0.930 . S
C273 N269 1.279 . S
C273 C271 1.358 . S
C273 H331 0.930 . S
C274 C277 1.348 . S
C274 C278 1.356 . S
C274 O325 1.325 . S
C275 N276 1.279 . S
C275 C278 1.358 . S
C275 H332 0.930 . S
N276 C275 1.279 . S
N276 C279 1.314 . S
C277 C274 1.348 . S
C277 C279 1.353 . S
C277 H333 0.929 . S
C278 C274 1.356 . S
C278 C275 1.358 . S
C278 H334 0.930 . S
C279 N276 1.314 . S
C279 C277 1.353 . S
C279 H335 0.930 . S
C280 N281 1.314 . S
C280 C285 1.353 . S
C280 H286 0.930 . S
N281 Li264 1.990 . S
N281 C280 1.314 . S
N281 C283 1.279 . S
C282 C283 1.358 . S
C282 C284 1.356 . S
C282 H336 0.930 . S
C283 N281 1.279 . S
C283 C282 1.358 . S
C283 H287 0.930 . S
C284 C282 1.356 . S
C284 C285 1.348 . S
C285 C280 1.353 . S
C285 C284 1.348 . S
C285 H337 0.929 . S
H286 C280 0.930 . S
H287 C283 0.930 . S
C288 N289 1.314 . S
C288 C290 1.353 . S
C288 H294 0.930 . S
N289 Li265 1.990 . S
N289 C288 1.314 . S
N289 C292 1.279 . S
C290 C288 1.353 . S
C290 C293 1.348 . S
C290 H338 0.929 . S
C291 C292 1.358 . S
C291 C293 1.356 . S
C291 H339 0.930 . S
C292 N289 1.279 . S
C292 C291 1.358 . S
C292 H295 0.930 . S
C293 C290 1.348 . S
C293 C291 1.356 . S
H294 C288 0.930 . S
H295 C292 0.930 . S
C296 C298 1.348 . S
C296 C299 1.356 . S
C296 O326 1.325 . S
N297 C300 1.314 . S
N297 C301 1.279 . S
C298 C296 1.348 . S
C298 C300 1.353 . S
C298 H340 0.929 . S
C299 C296 1.356 . S
C299 C301 1.358 . S
C299 H341 0.930 . S
C300 N297 1.314 . S
C300 C298 1.353 . S
C300 H342 0.930 . S
C301 N297 1.279 . S
C301 C299 1.358 . S
C301 H343 0.930 . S
C302 C303 1.348 . S
C302 C304 1.356 . S
C302 O327 1.325 . S
C303 C302 1.348 . S
C303 C305 1.353 . S
C303 H344 0.929 . S
C304 C302 1.356 . S
C304 C306 1.358 . S
C304 H345 0.930 . S
C305 C303 1.353 . S
C305 N307 1.314 . S
C305 H346 0.930 . S
C306 C304 1.358 . S
C306 N307 1.279 . S
C306 H347 0.930 . S
N307 C305 1.314 . S
N307 C306 1.279 . S
C308 C310 1.353 . S
C308 N311 1.314 . S
C308 H314 0.930 . S
C309 N311 1.279 . S
C309 C312 1.358 . S
C309 H315 0.930 . S
C310 C308 1.353 . S
C310 C313 1.348 . S
C310 H348 0.929 . S
N311 Li266 1.990 . S
N311 C308 1.314 . S
N311 C309 1.279 . S
C312 C309 1.358 . S
C312 C313 1.356 . S
C312 H349 0.930 . S
C313 C310 1.348 . S
C313 C312 1.356 . S
H314 C308 0.930 . S
H315 C309 0.930 . S
C316 N317 1.314 . S
C316 C318 1.353 . S
C316 H322 0.930 . S
N317 Li267 1.990 . S
N317 C316 1.314 . S
N317 C320 1.279 . S
C318 C316 1.353 . S
C318 C321 1.348 . S
C318 H350 0.929 . S
C319 C320 1.358 . S
C319 C321 1.356 . S
C319 H351 0.930 . S
C320 N317 1.279 . S
C320 C319 1.358 . S
C320 H323 0.930 . S
C321 C318 1.348 . S
C321 C319 1.356 . S
H322 C316 0.930 . S
H323 C320 0.930 . S
O324 Li264 1.956 . S
O324 Li265 1.970 . S
O324 Li266 1.961 . S
O324 C268 1.325 . S
O325 Li264 1.970 . S
O325 Li265 1.956 . S
O325 Li267 1.961 . S
O325 C274 1.325 . S
O326 Li264 1.961 . S
O326 Li266 1.956 . S
O326 Li267 1.970 . S
O326 C296 1.325 . S
O327 Li265 1.961 . S
O327 Li266 1.970 . S
O327 Li267 1.956 . S
O327 C302 1.325 . S
H328 C270 0.929 . S
H329 C271 0.930 . S
H330 C272 0.930 . S
H331 C273 0.930 . S
H332 C275 0.930 . S
H333 C277 0.929 . S
H334 C278 0.930 . S
H335 C279 0.930 . S
H336 C282 0.930 . S
H337 C285 0.929 . S
H338 C290 0.929 . S
H339 C291 0.930 . S
H340 C298 0.929 . S
H341 C299 0.930 . S
H342 C300 0.930 . S
H343 C301 0.930 . S
H344 C303 0.929 . S
H345 C304 0.930 . S
H346 C305 0.930 . S
H347 C306 0.930 . S
H348 C310 0.929 . S
H349 C312 0.930 . S
H350 C318 0.929 . S
H351 C319 0.930 . S
Li352 N369 1.990 . S
Li352 O412 1.956 . S
Li352 O413 1.970 . S
Li352 O414 1.961 . S
Li353 N377 1.990 . S
Li353 O412 1.970 . S
Li353 O413 1.956 . S
Li353 O415 1.961 . S
Li354 N399 1.990 . S
Li354 O412 1.961 . S
Li354 O414 1.956 . S
Li354 O415 1.970 . S
Li355 N405 1.990 . S
Li355 O413 1.961 . S
Li355 O414 1.970 . S
Li355 O415 1.956 . S
C356 C358 1.348 . S
C356 C359 1.356 . S
C356 O412 1.325 . S
N357 C360 1.314 . S
N357 C361 1.279 . S
C358 C356 1.348 . S
C358 C360 1.353 . S
C358 H416 0.929 . S
C359 C356 1.356 . S
C359 C361 1.358 . S
C359 H417 0.930 . S
C360 N357 1.314 . S
C360 C358 1.353 . S
C360 H418 0.930 . S
C361 N357 1.279 . S
C361 C359 1.358 . S
C361 H419 0.930 . S
C362 C365 1.348 . S
C362 C366 1.356 . S
C362 O413 1.325 . S
C363 N364 1.279 . S
C363 C366 1.358 . S
C363 H420 0.930 . S
N364 C363 1.279 . S
N364 C367 1.314 . S
C365 C362 1.348 . S
C365 C367 1.353 . S
C365 H421 0.929 . S
C366 C362 1.356 . S
C366 C363 1.358 . S
C366 H422 0.930 . S
C367 N364 1.314 . S
C367 C365 1.353 . S
C367 H423 0.930 . S
C368 N369 1.314 . S
C368 C373 1.353 . S
C368 H374 0.930 . S
N369 Li352 1.990 . S
N369 C368 1.314 . S
N369 C371 1.279 . S
C370 C371 1.358 . S
C370 C372 1.356 . S
C370 H424 0.930 . S
C371 N369 1.279 . S
C371 C370 1.358 . S
C371 H375 0.930 . S
C372 C370 1.356 . S
C372 C373 1.348 . S
C373 C368 1.353 . S
C373 C372 1.348 . S
C373 H425 0.929 . S
H374 C368 0.930 . S
H375 C371 0.930 . S
C376 N377 1.314 . S
C376 C378 1.353 . S
C376 H382 0.930 . S
N377 Li353 1.990 . S
N377 C376 1.314 . S
N377 C380 1.279 . S
C378 C376 1.353 . S
C378 C381 1.348 . S
C378 H426 0.929 . S
C379 C380 1.358 . S
C379 C381 1.356 . S
C379 H427 0.930 . S
C380 N377 1.279 . S
C380 C379 1.358 . S
C380 H383 0.930 . S
C381 C378 1.348 . S
C381 C379 1.356 . S
H382 C376 0.930 . S
H383 C380 0.930 . S
C384 C386 1.348 . S
C384 C387 1.356 . S
C384 O414 1.325 . S
N385 C388 1.314 . S
N385 C389 1.279 . S
C386 C384 1.348 . S
C386 C388 1.353 . S
C386 H428 0.929 . S
C387 C384 1.356 . S
C387 C389 1.358 . S
C387 H429 0.930 . S
C388 N385 1.314 . S
C388 C386 1.353 . S
C388 H430 0.930 . S
C389 N385 1.279 . S
C389 C387 1.358 . S
C389 H431 0.930 . S
C390 C391 1.348 . S
C390 C392 1.356 . S
C390 O415 1.325 . S
C391 C390 1.348 . S
C391 C393 1.353 . S
C391 H432 0.929 . S
C392 C390 1.356 . S
C392 C394 1.358 . S
C392 H433 0.930 . S
C393 C391 1.353 . S
C393 N395 1.314 . S
C393 H434 0.930 . S
C394 C392 1.358 . S
C394 N395 1.279 . S
C394 H435 0.930 . S
N395 C393 1.314 . S
N395 C394 1.279 . S
C396 C398 1.353 . S
C396 N399 1.314 . S
C396 H402 0.930 . S
C397 N399 1.279 . S
C397 C400 1.358 . S
C397 H403 0.930 . S
C398 C396 1.353 . S
C398 C401 1.348 . S
C398 H436 0.929 . S
N399 Li354 1.990 . S
N399 C396 1.314 . S
N399 C397 1.279 . S
C400 C397 1.358 . S
C400 C401 1.356 . S
C400 H437 0.930 . S
C401 C398 1.348 . S
C401 C400 1.356 . S
H402 C396 0.930 . S
H403 C397 0.930 . S
C404 N405 1.314 . S
C404 C406 1.353 . S
C404 H410 0.930 . S
N405 Li355 1.990 . S
N405 C404 1.314 . S
N405 C408 1.279 . S
C406 C404 1.353 . S
C406 C409 1.348 . S
C406 H438 0.929 . S
C407 C408 1.358 . S
C407 C409 1.356 . S
C407 H439 0.930 . S
C408 N405 1.279 . S
C408 C407 1.358 . S
C408 H411 0.930 . S
C409 C406 1.348 . S
C409 C407 1.356 . S
H410 C404 0.930 . S
H411 C408 0.930 . S
O412 Li352 1.956 . S
O412 Li353 1.970 . S
O412 Li354 1.961 . S
O412 C356 1.325 . S
O413 Li352 1.970 . S
O413 Li353 1.956 . S
O413 Li355 1.961 . S
O413 C362 1.325 . S
O414 Li352 1.961 . S
O414 Li354 1.956 . S
O414 Li355 1.970 . S
O414 C384 1.325 . S
O415 Li353 1.961 . S
O415 Li354 1.970 . S
O415 Li355 1.956 . S
O415 C390 1.325 . S
H416 C358 0.929 . S
H417 C359 0.930 . S
H418 C360 0.930 . S
H419 C361 0.930 . S
H420 C363 0.930 . S
H421 C365 0.929 . S
H422 C366 0.930 . S
H423 C367 0.930 . S
H424 C370 0.930 . S
H425 C373 0.929 . S
H426 C378 0.929 . S
H427 C379 0.930 . S
H428 C386 0.929 . S
H429 C387 0.930 . S
H430 C388 0.930 . S
H431 C389 0.930 . S
H432 C391 0.929 . S
H433 C392 0.930 . S
H434 C393 0.930 . S
H435 C394 0.930 . S
H436 C398 0.929 . S
H437 C400 0.930 . S
H438 C406 0.929 . S
H439 C407 0.930 . S
Li440 N457 1.990 . S
Li440 O500 1.956 . S
Li440 O501 1.970 . S
Li440 O502 1.961 . S
Li441 N465 1.990 . S
Li441 O500 1.970 . S
Li441 O501 1.956 . S
Li441 O503 1.961 . S
Li442 N487 1.990 . S
Li442 O500 1.961 . S
Li442 O502 1.956 . S
Li442 O503 1.970 . S
Li443 N493 1.990 . S
Li443 O501 1.961 . S
Li443 O502 1.970 . S
Li443 O503 1.956 . S
C444 C446 1.348 . S
C444 C447 1.356 . S
C444 O500 1.325 . S
N445 C448 1.314 . S
N445 C449 1.279 . S
C446 C444 1.348 . S
C446 C448 1.353 . S
C446 H504 0.929 . S
C447 C444 1.356 . S
C447 C449 1.358 . S
C447 H505 0.930 . S
C448 N445 1.314 . S
C448 C446 1.353 . S
C448 H506 0.930 . S
C449 N445 1.279 . S
C449 C447 1.358 . S
C449 H507 0.930 . S
C450 C453 1.348 . S
C450 C454 1.356 . S
C450 O501 1.325 . S
C451 N452 1.279 . S
C451 C454 1.358 . S
C451 H508 0.930 . S
N452 C451 1.279 . S
N452 C455 1.314 . S
C453 C450 1.348 . S
C453 C455 1.353 . S
C453 H509 0.929 . S
C454 C450 1.356 . S
C454 C451 1.358 . S
C454 H510 0.930 . S
C455 N452 1.314 . S
C455 C453 1.353 . S
C455 H511 0.930 . S
C456 N457 1.314 . S
C456 C461 1.353 . S
C456 H462 0.930 . S
N457 Li440 1.990 . S
N457 C456 1.314 . S
N457 C459 1.279 . S
C458 C459 1.358 . S
C458 C460 1.356 . S
C458 H512 0.930 . S
C459 N457 1.279 . S
C459 C458 1.358 . S
C459 H463 0.930 . S
C460 C458 1.356 . S
C460 C461 1.348 . S
C461 C456 1.353 . S
C461 C460 1.348 . S
C461 H513 0.929 . S
H462 C456 0.930 . S
H463 C459 0.930 . S
C464 N465 1.314 . S
C464 C466 1.353 . S
C464 H470 0.930 . S
N465 Li441 1.990 . S
N465 C464 1.314 . S
N465 C468 1.279 . S
C466 C464 1.353 . S
C466 C469 1.348 . S
C466 H514 0.929 . S
C467 C468 1.358 . S
C467 C469 1.356 . S
C467 H515 0.930 . S
C468 N465 1.279 . S
C468 C467 1.358 . S
C468 H471 0.930 . S
C469 C466 1.348 . S
C469 C467 1.356 . S
H470 C464 0.930 . S
H471 C468 0.930 . S
C472 C474 1.348 . S
C472 C475 1.356 . S
C472 O502 1.325 . S
N473 C476 1.314 . S
N473 C477 1.279 . S
C474 C472 1.348 . S
C474 C476 1.353 . S
C474 H516 0.929 . S
C475 C472 1.356 . S
C475 C477 1.358 . S
C475 H517 0.930 . S
C476 N473 1.314 . S
C476 C474 1.353 . S
C476 H518 0.930 . S
C477 N473 1.279 . S
C477 C475 1.358 . S
C477 H519 0.930 . S
C478 C479 1.348 . S
C478 C480 1.356 . S
C478 O503 1.325 . S
C479 C478 1.348 . S
C479 C481 1.353 . S
C479 H520 0.929 . S
C480 C478 1.356 . S
C480 C482 1.358 . S
C480 H521 0.930 . S
C481 C479 1.353 . S
C481 N483 1.314 . S
C481 H522 0.930 . S
C482 C480 1.358 . S
C482 N483 1.279 . S
C482 H523 0.930 . S
N483 C481 1.314 . S
N483 C482 1.279 . S
C484 C486 1.353 . S
C484 N487 1.314 . S
C484 H490 0.930 . S
C485 N487 1.279 . S
C485 C488 1.358 . S
C485 H491 0.930 . S
C486 C484 1.353 . S
C486 C489 1.348 . S
C486 H524 0.929 . S
N487 Li442 1.990 . S
N487 C484 1.314 . S
N487 C485 1.279 . S
C488 C485 1.358 . S
C488 C489 1.356 . S
C488 H525 0.930 . S
C489 C486 1.348 . S
C489 C488 1.356 . S
H490 C484 0.930 . S
H491 C485 0.930 . S
C492 N493 1.314 . S
C492 C494 1.353 . S
C492 H498 0.930 . S
N493 Li443 1.990 . S
N493 C492 1.314 . S
N493 C496 1.279 . S
C494 C492 1.353 . S
C494 C497 1.348 . S
C494 H526 0.929 . S
C495 C496 1.358 . S
C495 C497 1.356 . S
C495 H527 0.930 . S
C496 N493 1.279 . S
C496 C495 1.358 . S
C496 H499 0.930 . S
C497 C494 1.348 . S
C497 C495 1.356 . S
H498 C492 0.930 . S
H499 C496 0.930 . S
O500 Li440 1.956 . S
O500 Li441 1.970 . S
O500 Li442 1.961 . S
O500 C444 1.325 . S
O501 Li440 1.970 . S
O501 Li441 1.956 . S
O501 Li443 1.961 . S
O501 C450 1.325 . S
O502 Li440 1.961 . S
O502 Li442 1.956 . S
O502 Li443 1.970 . S
O502 C472 1.325 . S
O503 Li441 1.961 . S
O503 Li442 1.970 . S
O503 Li443 1.956 . S
O503 C478 1.325 . S
H504 C446 0.929 . S
H505 C447 0.930 . S
H506 C448 0.930 . S
H507 C449 0.930 . S
H508 C451 0.930 . S
H509 C453 0.929 . S
H510 C454 0.930 . S
H511 C455 0.930 . S
H512 C458 0.930 . S
H513 C461 0.929 . S
H514 C466 0.929 . S
H515 C467 0.930 . S
H516 C474 0.929 . S
H517 C475 0.930 . S
H518 C476 0.930 . S
H519 C477 0.930 . S
H520 C479 0.929 . S
H521 C480 0.930 . S
H522 C481 0.930 . S
H523 C482 0.930 . S
H524 C486 0.929 . S
H525 C488 0.930 . S
H526 C494 0.929 . S
H527 C495 0.930 . S
Li528 N545 1.990 . S
Li528 O588 1.956 . S
Li528 O589 1.970 . S
Li528 O590 1.961 . S
Li529 N553 1.984 1_556 S
Li529 O588 1.974 . S
Li529 O589 1.963 . S
Li529 O591 1.960 1_556 S
Li530 N575 1.990 . S
Li530 O588 1.961 . S
Li530 O590 1.956 . S
Li530 O591 1.970 1_556 S
Li531 N581 1.990 . S
Li531 O589 1.961 . S
Li531 O590 1.970 . S
Li531 O591 1.956 1_556 S
C532 C534 1.348 1_556 S
C532 C535 1.356 . S
C532 O588 1.325 . S
N533 C536 1.314 1_556 S
N533 C537 1.279 . S
C534 C532 1.348 1_554 S
C534 C536 1.353 . S
C534 H592 0.929 . S
C535 C532 1.356 . S
C535 C537 1.358 . S
C535 H593 0.930 . S
C536 N533 1.314 1_554 S
C536 C534 1.353 . S
C536 H594 0.930 . S
C537 N533 1.279 . S
C537 C535 1.358 . S
C537 H595 0.930 . S
C538 C541 1.348 . S
C538 C542 1.356 . S
C538 O589 1.325 . S
C539 N540 1.279 . S
C539 C542 1.358 . S
C539 H596 0.930 . S
N540 C539 1.279 . S
N540 C543 1.314 . S
C541 C538 1.348 . S
C541 C543 1.353 . S
C541 H597 0.929 . S
C542 C538 1.356 . S
C542 C539 1.358 . S
C542 H598 0.930 . S
C543 N540 1.314 . S
C543 C541 1.353 . S
C543 H599 0.930 . S
C544 N545 1.314 . S
C544 C549 1.353 . S
C544 H550 0.930 . S
N545 Li528 1.990 . S
N545 C544 1.314 . S
N545 C547 1.279 . S
C546 C547 1.358 . S
C546 C548 1.356 . S
C546 H600 0.930 . S
C547 N545 1.279 . S
C547 C546 1.358 . S
C547 H551 0.930 . S
C548 C546 1.356 . S
C548 C549 1.348 . S
C549 C544 1.353 . S
C549 C548 1.348 . S
C549 H601 0.929 . S
H550 C544 0.930 . S
H551 C547 0.930 . S
C552 N553 1.314 . S
C552 C554 1.353 . S
C552 H558 0.930 . S
N553 Li529 1.984 1_554 S
N553 C552 1.314 . S
N553 C556 1.279 . S
C554 C552 1.353 . S
C554 C557 1.348 . S
C554 H602 0.929 . S
C555 C556 1.358 . S
C555 C557 1.356 . S
C555 H603 0.930 . S
C556 N553 1.279 . S
C556 C555 1.358 . S
C556 H559 0.930 . S
C557 C554 1.348 . S
C557 C555 1.356 . S
H558 C552 0.930 . S
H559 C556 0.930 . S
C560 C562 1.348 . S
C560 C563 1.356 . S
C560 O590 1.325 . S
N561 C564 1.314 . S
N561 C565 1.279 . S
C562 C560 1.348 . S
C562 C564 1.353 . S
C562 H604 0.929 . S
C563 C560 1.356 . S
C563 C565 1.358 . S
C563 H605 0.930 . S
C564 N561 1.314 . S
C564 C562 1.353 . S
C564 H606 0.930 . S
C565 N561 1.279 . S
C565 C563 1.358 . S
C565 H607 0.930 . S
C566 C567 1.348 . S
C566 C568 1.356 . S
C566 O591 1.325 . S
C567 C566 1.348 . S
C567 C569 1.353 . S
C567 H608 0.929 . S
C568 C566 1.356 . S
C568 C570 1.358 . S
C568 H609 0.930 . S
C569 C567 1.353 . S
C569 N571 1.314 . S
C569 H610 0.930 . S
C570 C568 1.358 . S
C570 N571 1.279 . S
C570 H611 0.930 . S
N571 C569 1.314 . S
N571 C570 1.279 . S
C572 C574 1.353 . S
C572 N575 1.314 1_554 S
C572 H578 0.930 . S
C573 N575 1.279 . S
C573 C576 1.358 . S
C573 H579 0.930 . S
C574 C572 1.353 . S
C574 C577 1.348 . S
C574 H612 0.929 . S
N575 Li530 1.990 . S
N575 C572 1.314 1_556 S
N575 C573 1.279 . S
C576 C573 1.358 . S
C576 C577 1.356 1_556 S
C576 H613 0.930 . S
C577 C574 1.348 . S
C577 C576 1.356 1_554 S
H578 C572 0.930 . S
H579 C573 0.930 . S
C580 N581 1.314 . S
C580 C582 1.353 . S
C580 H586 0.930 . S
N581 Li531 1.990 . S
N581 C580 1.314 . S
N581 C584 1.279 . S
C582 C580 1.353 . S
C582 C585 1.348 . S
C582 H614 0.929 . S
C583 C584 1.358 . S
C583 C585 1.356 . S
C583 H615 0.930 . S
C584 N581 1.279 . S
C584 C583 1.358 . S
C584 H587 0.930 . S
C585 C582 1.348 . S
C585 C583 1.356 . S
H586 C580 0.930 . S
H587 C584 0.930 . S
O588 Li528 1.956 . S
O588 Li529 1.974 . S
O588 Li530 1.961 . S
O588 C532 1.325 . S
O589 Li528 1.970 . S
O589 Li529 1.963 . S
O589 Li531 1.961 . S
O589 C538 1.325 . S
O590 Li528 1.961 . S
O590 Li530 1.956 . S
O590 Li531 1.970 . S
O590 C560 1.325 . S
O591 Li529 1.960 1_554 S
O591 Li530 1.970 1_554 S
O591 Li531 1.956 1_554 S
O591 C566 1.325 . S
H592 C534 0.929 . S
H593 C535 0.930 . S
H594 C536 0.930 . S
H595 C537 0.930 . S
H596 C539 0.930 . S
H597 C541 0.929 . S
H598 C542 0.930 . S
H599 C543 0.930 . S
H600 C546 0.930 . S
H601 C549 0.929 . S
H602 C554 0.929 . S
H603 C555 0.930 . S
H604 C562 0.929 . S
H605 C563 0.930 . S
H606 C564 0.930 . S
H607 C565 0.930 . S
H608 C567 0.929 . S
H609 C568 0.930 . S
H610 C569 0.930 . S
H611 C570 0.930 . S
H612 C574 0.929 . S
H613 C576 0.930 . S
H614 C582 0.929 . S
H615 C583 0.930 . S
Li616 N633 1.990 . S
Li616 O676 1.956 . S
Li616 O677 1.970 . S
Li616 O678 1.961 . S
Li617 N641 1.984 1_556 S
Li617 O676 1.974 . S
Li617 O677 1.963 . S
Li617 O679 1.960 1_556 S
Li618 N663 1.990 . S
Li618 O676 1.961 . S
Li618 O678 1.956 . S
Li618 O679 1.970 1_556 S
Li619 N669 1.990 . S
Li619 O677 1.961 . S
Li619 O678 1.970 . S
Li619 O679 1.956 1_556 S
C620 C622 1.348 1_556 S
C620 C623 1.356 . S
C620 O676 1.325 . S
N621 C624 1.314 1_556 S
N621 C625 1.279 . S
C622 C620 1.348 1_554 S
C622 C624 1.353 . S
C622 H680 0.929 . S
C623 C620 1.356 . S
C623 C625 1.358 . S
C623 H681 0.930 . S
C624 N621 1.314 1_554 S
C624 C622 1.353 . S
C624 H682 0.930 . S
C625 N621 1.279 . S
C625 C623 1.358 . S
C625 H683 0.930 . S
C626 C629 1.348 . S
C626 C630 1.356 . S
C626 O677 1.325 . S
C627 N628 1.279 . S
C627 C630 1.358 . S
C627 H684 0.930 . S
N628 C627 1.279 . S
N628 C631 1.314 . S
C629 C626 1.348 . S
C629 C631 1.353 . S
C629 H685 0.929 . S
C630 C626 1.356 . S
C630 C627 1.358 . S
C630 H686 0.930 . S
C631 N628 1.314 . S
C631 C629 1.353 . S
C631 H687 0.930 . S
C632 N633 1.314 . S
C632 C637 1.353 . S
C632 H638 0.930 . S
N633 Li616 1.990 . S
N633 C632 1.314 . S
N633 C635 1.279 . S
C634 C635 1.358 . S
C634 C636 1.356 . S
C634 H688 0.930 . S
C635 N633 1.279 . S
C635 C634 1.358 . S
C635 H639 0.930 . S
C636 C634 1.356 . S
C636 C637 1.348 . S
C637 C632 1.353 . S
C637 C636 1.348 . S
C637 H689 0.929 . S
H638 C632 0.930 . S
H639 C635 0.930 . S
C640 N641 1.314 . S
C640 C642 1.353 . S
C640 H646 0.930 . S
N641 Li617 1.984 1_554 S
N641 C640 1.314 . S
N641 C644 1.279 . S
C642 C640 1.353 . S
C642 C645 1.348 . S
C642 H690 0.929 . S
C643 C644 1.358 . S
C643 C645 1.356 . S
C643 H691 0.930 . S
C644 N641 1.279 . S
C644 C643 1.358 . S
C644 H647 0.930 . S
C645 C642 1.348 . S
C645 C643 1.356 . S
H646 C640 0.930 . S
H647 C644 0.930 . S
C648 C650 1.348 . S
C648 C651 1.356 . S
C648 O678 1.325 . S
N649 C652 1.314 . S
N649 C653 1.279 . S
C650 C648 1.348 . S
C650 C652 1.353 . S
C650 H692 0.929 . S
C651 C648 1.356 . S
C651 C653 1.358 . S
C651 H693 0.930 . S
C652 N649 1.314 . S
C652 C650 1.353 . S
C652 H694 0.930 . S
C653 N649 1.279 . S
C653 C651 1.358 . S
C653 H695 0.930 . S
C654 C655 1.348 . S
C654 C656 1.356 . S
C654 O679 1.325 . S
C655 C654 1.348 . S
C655 C657 1.353 . S
C655 H696 0.929 . S
C656 C654 1.356 . S
C656 C658 1.358 . S
C656 H697 0.930 . S
C657 C655 1.353 . S
C657 N659 1.314 . S
C657 H698 0.930 . S
C658 C656 1.358 . S
C658 N659 1.279 . S
C658 H699 0.930 . S
N659 C657 1.314 . S
N659 C658 1.279 . S
C660 C662 1.353 . S
C660 N663 1.314 1_554 S
C660 H666 0.930 . S
C661 N663 1.279 . S
C661 C664 1.358 . S
C661 H667 0.930 . S
C662 C660 1.353 . S
C662 C665 1.348 . S
C662 H700 0.929 . S
N663 Li618 1.990 . S
N663 C660 1.314 1_556 S
N663 C661 1.279 . S
C664 C661 1.358 . S
C664 C665 1.356 1_556 S
C664 H701 0.930 . S
C665 C662 1.348 . S
C665 C664 1.356 1_554 S
H666 C660 0.930 . S
H667 C661 0.930 . S
C668 N669 1.314 . S
C668 C670 1.353 . S
C668 H674 0.930 . S
N669 Li619 1.990 . S
N669 C668 1.314 . S
N669 C672 1.279 . S
C670 C668 1.353 . S
C670 C673 1.348 . S
C670 H702 0.929 . S
C671 C672 1.358 . S
C671 C673 1.356 . S
C671 H703 0.930 . S
C672 N669 1.279 . S
C672 C671 1.358 . S
C672 H675 0.930 . S
C673 C670 1.348 . S
C673 C671 1.356 . S
H674 C668 0.930 . S
H675 C672 0.930 . S
O676 Li616 1.956 . S
O676 Li617 1.974 . S
O676 Li618 1.961 . S
O676 C620 1.325 . S
O677 Li616 1.970 . S
O677 Li617 1.963 . S
O677 Li619 1.961 . S
O677 C626 1.325 . S
O678 Li616 1.961 . S
O678 Li618 1.956 . S
O678 Li619 1.970 . S
O678 C648 1.325 . S
O679 Li617 1.960 1_554 S
O679 Li618 1.970 1_554 S
O679 Li619 1.956 1_554 S
O679 C654 1.325 . S
H680 C622 0.929 . S
H681 C623 0.930 . S
H682 C624 0.930 . S
H683 C625 0.930 . S
H684 C627 0.930 . S
H685 C629 0.929 . S
H686 C630 0.930 . S
H687 C631 0.930 . S
H688 C634 0.930 . S
H689 C637 0.929 . S
H690 C642 0.929 . S
H691 C643 0.930 . S
H692 C650 0.929 . S
H693 C651 0.930 . S
H694 C652 0.930 . S
H695 C653 0.930 . S
H696 C655 0.929 . S
H697 C656 0.930 . S
H698 C657 0.930 . S
H699 C658 0.930 . S
H700 C662 0.929 . S
H701 C664 0.930 . S
H702 C670 0.929 . S
H703 C671 0.930 . S
Li704 N721 1.990 . S
Li704 O764 1.956 . S
Li704 O765 1.970 1_556 S
Li704 O766 1.961 . S
Li705 N729 1.990 . S
Li705 O764 1.970 . S
Li705 O765 1.956 1_556 S
Li705 O767 1.961 . S
Li706 N751 1.990 . S
Li706 O764 1.961 . S
Li706 O766 1.956 . S
Li706 O767 1.970 . S
Li707 N757 1.986 1_556 S
Li707 O765 1.961 1_556 S
Li707 O766 1.973 . S
Li707 O767 1.961 . S
C708 C710 1.348 . S
C708 C711 1.356 . S
C708 O764 1.325 . S
N709 C712 1.314 . S
N709 C713 1.279 . S
C710 C708 1.348 . S
C710 C712 1.353 . S
C710 H768 0.929 . S
C711 C708 1.356 . S
C711 C713 1.358 . S
C711 H769 0.930 . S
C712 N709 1.314 . S
C712 C710 1.353 . S
C712 H770 0.930 . S
C713 N709 1.279 . S
C713 C711 1.358 . S
C713 H771 0.930 . S
C714 C717 1.348 . S
C714 C718 1.356 . S
C714 O765 1.325 . S
C715 N716 1.279 . S
C715 C718 1.358 . S
C715 H772 0.930 . S
N716 C715 1.279 . S
N716 C719 1.314 . S
C717 C714 1.348 . S
C717 C719 1.353 . S
C717 H773 0.929 . S
C718 C714 1.356 . S
C718 C715 1.358 . S
C718 H774 0.930 . S
C719 N716 1.314 . S
C719 C717 1.353 . S
C719 H775 0.930 . S
C720 N721 1.314 1_554 S
C720 C725 1.353 . S
C720 H726 0.930 . S
N721 Li704 1.990 . S
N721 C720 1.314 1_556 S
N721 C723 1.279 . S
C722 C723 1.358 . S
C722 C724 1.356 1_556 S
C722 H776 0.930 . S
C723 N721 1.279 . S
C723 C722 1.358 . S
C723 H727 0.930 . S
C724 C722 1.356 1_554 S
C724 C725 1.348 . S
C725 C720 1.353 . S
C725 C724 1.348 . S
C725 H777 0.929 . S
H726 C720 0.930 . S
H727 C723 0.930 . S
C728 N729 1.314 . S
C728 C730 1.353 . S
C728 H734 0.930 . S
N729 Li705 1.990 . S
N729 C728 1.314 . S
N729 C732 1.279 . S
C730 C728 1.353 . S
C730 C733 1.348 . S
C730 H778 0.929 . S
C731 C732 1.358 . S
C731 C733 1.356 . S
C731 H779 0.930 . S
C732 N729 1.279 . S
C732 C731 1.358 . S
C732 H735 0.930 . S
C733 C730 1.348 . S
C733 C731 1.356 . S
H734 C728 0.930 . S
H735 C732 0.930 . S
C736 C738 1.348 1_556 S
C736 C739 1.356 . S
C736 O766 1.325 . S
N737 C740 1.314 1_556 S
N737 C741 1.279 . S
C738 C736 1.348 1_554 S
C738 C740 1.353 . S
C738 H780 0.929 . S
C739 C736 1.356 . S
C739 C741 1.358 . S
C739 H781 0.930 . S
C740 N737 1.314 1_554 S
C740 C738 1.353 . S
C740 H782 0.930 . S
C741 N737 1.279 . S
C741 C739 1.358 . S
C741 H783 0.930 . S
C742 C743 1.348 . S
C742 C744 1.356 . S
C742 O767 1.325 . S
C743 C742 1.348 . S
C743 C745 1.353 . S
C743 H784 0.929 . S
C744 C742 1.356 . S
C744 C746 1.358 . S
C744 H785 0.930 . S
C745 C743 1.353 . S
C745 N747 1.314 . S
C745 H786 0.930 . S
C746 C744 1.358 . S
C746 N747 1.279 . S
C746 H787 0.930 . S
N747 C745 1.314 . S
N747 C746 1.279 . S
C748 C750 1.353 . S
C748 N751 1.314 . S
C748 H754 0.930 . S
C749 N751 1.279 . S
C749 C752 1.358 . S
C749 H755 0.930 . S
C750 C748 1.353 . S
C750 C753 1.348 . S
C750 H788 0.929 . S
N751 Li706 1.990 . S
N751 C748 1.314 . S
N751 C749 1.279 . S
C752 C749 1.358 . S
C752 C753 1.356 . S
C752 H789 0.930 . S
C753 C750 1.348 . S
C753 C752 1.356 . S
H754 C748 0.930 . S
H755 C749 0.930 . S
C756 N757 1.314 . S
C756 C758 1.353 . S
C756 H762 0.930 . S
N757 Li707 1.986 1_554 S
N757 C756 1.314 . S
N757 C760 1.279 . S
C758 C756 1.353 . S
C758 C761 1.348 . S
C758 H790 0.929 . S
C759 C760 1.358 . S
C759 C761 1.356 . S
C759 H791 0.930 . S
C760 N757 1.279 . S
C760 C759 1.358 . S
C760 H763 0.930 . S
C761 C758 1.348 . S
C761 C759 1.356 . S
H762 C756 0.930 . S
H763 C760 0.930 . S
O764 Li704 1.956 . S
O764 Li705 1.970 . S
O764 Li706 1.961 . S
O764 C708 1.325 . S
O765 Li704 1.970 1_554 S
O765 Li705 1.956 1_554 S
O765 Li707 1.961 1_554 S
O765 C714 1.325 . S
O766 Li704 1.961 . S
O766 Li706 1.956 . S
O766 Li707 1.973 . S
O766 C736 1.325 . S
O767 Li705 1.961 . S
O767 Li706 1.970 . S
O767 Li707 1.961 . S
O767 C742 1.325 . S
H768 C710 0.929 . S
H769 C711 0.930 . S
H770 C712 0.930 . S
H771 C713 0.930 . S
H772 C715 0.930 . S
H773 C717 0.929 . S
H774 C718 0.930 . S
H775 C719 0.930 . S
H776 C722 0.930 . S
H777 C725 0.929 . S
H778 C730 0.929 . S
H779 C731 0.930 . S
H780 C738 0.929 . S
H781 C739 0.930 . S
H782 C740 0.930 . S
H783 C741 0.930 . S
H784 C743 0.929 . S
H785 C744 0.930 . S
H786 C745 0.930 . S
H787 C746 0.930 . S
H788 C750 0.929 . S
H789 C752 0.930 . S
H790 C758 0.929 . S
H791 C759 0.930 . S
Li792 N809 1.990 . S
Li792 O852 1.956 . S
Li792 O853 1.970 . S
Li792 O854 1.961 . S
Li793 N817 1.990 . S
Li793 O852 1.970 . S
Li793 O853 1.956 . S
Li793 O855 1.961 . S
Li794 N839 1.990 . S
Li794 O852 1.961 . S
Li794 O854 1.956 . S
Li794 O855 1.970 . S
Li795 N845 1.990 . S
Li795 O853 1.961 . S
Li795 O854 1.970 . S
Li795 O855 1.956 . S
C796 C798 1.348 . S
C796 C799 1.356 . S
C796 O852 1.325 . S
N797 C800 1.314 . S
N797 C801 1.279 . S
C798 C796 1.348 . S
C798 C800 1.353 . S
C798 H856 0.929 . S
C799 C796 1.356 . S
C799 C801 1.358 . S
C799 H857 0.930 . S
C800 N797 1.314 . S
C800 C798 1.353 . S
C800 H858 0.930 . S
C801 N797 1.279 . S
C801 C799 1.358 . S
C801 H859 0.930 . S
C802 C805 1.348 . S
C802 C806 1.356 . S
C802 O853 1.325 . S
C803 N804 1.279 . S
C803 C806 1.358 . S
C803 H860 0.930 . S
N804 C803 1.279 . S
N804 C807 1.314 . S
C805 C802 1.348 . S
C805 C807 1.353 . S
C805 H861 0.929 . S
C806 C802 1.356 . S
C806 C803 1.358 . S
C806 H862 0.930 . S
C807 N804 1.314 . S
C807 C805 1.353 . S
C807 H863 0.930 . S
C808 N809 1.314 . S
C808 C813 1.353 . S
C808 H814 0.930 . S
N809 Li792 1.990 . S
N809 C808 1.314 . S
N809 C811 1.279 . S
C810 C811 1.358 . S
C810 C812 1.356 . S
C810 H864 0.930 . S
C811 N809 1.279 . S
C811 C810 1.358 . S
C811 H815 0.930 . S
C812 C810 1.356 . S
C812 C813 1.348 . S
C813 C808 1.353 . S
C813 C812 1.348 . S
C813 H865 0.929 . S
H814 C808 0.930 . S
H815 C811 0.930 . S
C816 N817 1.314 . S
C816 C818 1.353 . S
C816 H822 0.930 . S
N817 Li793 1.990 . S
N817 C816 1.314 . S
N817 C820 1.279 . S
C818 C816 1.353 . S
C818 C821 1.348 . S
C818 H866 0.929 . S
C819 C820 1.358 . S
C819 C821 1.356 . S
C819 H867 0.930 . S
C820 N817 1.279 . S
C820 C819 1.358 . S
C820 H823 0.930 . S
C821 C818 1.348 . S
C821 C819 1.356 . S
H822 C816 0.930 . S
H823 C820 0.930 . S
C824 C826 1.348 . S
C824 C827 1.356 . S
C824 O854 1.325 . S
N825 C828 1.314 . S
N825 C829 1.279 . S
C826 C824 1.348 . S
C826 C828 1.353 . S
C826 H868 0.929 . S
C827 C824 1.356 . S
C827 C829 1.358 . S
C827 H869 0.930 . S
C828 N825 1.314 . S
C828 C826 1.353 . S
C828 H870 0.930 . S
C829 N825 1.279 . S
C829 C827 1.358 . S
C829 H871 0.930 . S
C830 C831 1.348 . S
C830 C832 1.356 . S
C830 O855 1.325 . S
C831 C830 1.348 . S
C831 C833 1.353 . S
C831 H872 0.929 . S
C832 C830 1.356 . S
C832 C834 1.358 . S
C832 H873 0.930 . S
C833 C831 1.353 . S
C833 N835 1.314 . S
C833 H874 0.930 . S
C834 C832 1.358 . S
C834 N835 1.279 . S
C834 H875 0.930 . S
N835 C833 1.314 . S
N835 C834 1.279 . S
C836 C838 1.353 . S
C836 N839 1.314 . S
C836 H842 0.930 . S
C837 N839 1.279 . S
C837 C840 1.358 . S
C837 H843 0.930 . S
C838 C836 1.353 . S
C838 C841 1.348 . S
C838 H876 0.929 . S
N839 Li794 1.990 . S
N839 C836 1.314 . S
N839 C837 1.279 . S
C840 C837 1.358 . S
C840 C841 1.356 . S
C840 H877 0.930 . S
C841 C838 1.348 . S
C841 C840 1.356 . S
H842 C836 0.930 . S
H843 C837 0.930 . S
C844 N845 1.314 . S
C844 C846 1.353 . S
C844 H850 0.930 . S
N845 Li795 1.990 . S
N845 C844 1.314 . S
N845 C848 1.279 . S
C846 C844 1.353 . S
C846 C849 1.348 . S
C846 H878 0.929 . S
C847 C848 1.358 . S
C847 C849 1.356 . S
C847 H879 0.930 . S
C848 N845 1.279 . S
C848 C847 1.358 . S
C848 H851 0.930 . S
C849 C846 1.348 . S
C849 C847 1.356 . S
H850 C844 0.930 . S
H851 C848 0.930 . S
O852 Li792 1.956 . S
O852 Li793 1.970 . S
O852 Li794 1.961 . S
O852 C796 1.325 . S
O853 Li792 1.970 . S
O853 Li793 1.956 . S
O853 Li795 1.961 . S
O853 C802 1.325 . S
O854 Li792 1.961 . S
O854 Li794 1.956 . S
O854 Li795 1.970 . S
O854 C824 1.325 . S
O855 Li793 1.961 . S
O855 Li794 1.970 . S
O855 Li795 1.956 . S
O855 C830 1.325 . S
H856 C798 0.929 . S
H857 C799 0.930 . S
H858 C800 0.930 . S
H859 C801 0.930 . S
H860 C803 0.930 . S
H861 C805 0.929 . S
H862 C806 0.930 . S
H863 C807 0.930 . S
H864 C810 0.930 . S
H865 C813 0.929 . S
H866 C818 0.929 . S
H867 C819 0.930 . S
H868 C826 0.929 . S
H869 C827 0.930 . S
H870 C828 0.930 . S
H871 C829 0.930 . S
H872 C831 0.929 . S
H873 C832 0.930 . S
H874 C833 0.930 . S
H875 C834 0.930 . S
H876 C838 0.929 . S
H877 C840 0.930 . S
H878 C846 0.929 . S
H879 C847 0.930 . S
Li880 N897 1.990 . S
Li880 O940 1.956 . S
Li880 O941 1.970 . S
Li880 O942 1.961 . S
Li881 N905 1.990 . S
Li881 O940 1.970 . S
Li881 O941 1.956 . S
Li881 O943 1.961 . S
Li882 N927 1.990 . S
Li882 O940 1.961 . S
Li882 O942 1.956 . S
Li882 O943 1.970 . S
Li883 N933 1.990 . S
Li883 O941 1.961 . S
Li883 O942 1.970 . S
Li883 O943 1.956 . S
C884 C886 1.348 . S
C884 C887 1.356 . S
C884 O940 1.325 . S
N885 C888 1.314 . S
N885 C889 1.279 . S
C886 C884 1.348 . S
C886 C888 1.353 . S
C886 H944 0.929 . S
C887 C884 1.356 . S
C887 C889 1.358 . S
C887 H945 0.930 . S
C888 N885 1.314 . S
C888 C886 1.353 . S
C888 H946 0.930 . S
C889 N885 1.279 . S
C889 C887 1.358 . S
C889 H947 0.930 . S
C890 C893 1.348 . S
C890 C894 1.356 . S
C890 O941 1.325 . S
C891 N892 1.279 . S
C891 C894 1.358 . S
C891 H948 0.930 . S
N892 C891 1.279 . S
N892 C895 1.314 . S
C893 C890 1.348 . S
C893 C895 1.353 . S
C893 H949 0.929 . S
C894 C890 1.356 . S
C894 C891 1.358 . S
C894 H950 0.930 . S
C895 N892 1.314 . S
C895 C893 1.353 . S
C895 H951 0.930 . S
C896 N897 1.314 . S
C896 C901 1.353 . S
C896 H902 0.930 . S
N897 Li880 1.990 . S
N897 C896 1.314 . S
N897 C899 1.279 . S
C898 C899 1.358 . S
C898 C900 1.356 . S
C898 H952 0.930 . S
C899 N897 1.279 . S
C899 C898 1.358 . S
C899 H903 0.930 . S
C900 C898 1.356 . S
C900 C901 1.348 . S
C901 C896 1.353 . S
C901 C900 1.348 . S
C901 H953 0.929 . S
H902 C896 0.930 . S
H903 C899 0.930 . S
C904 N905 1.314 . S
C904 C906 1.353 . S
C904 H910 0.930 . S
N905 Li881 1.990 . S
N905 C904 1.314 . S
N905 C908 1.279 . S
C906 C904 1.353 . S
C906 C909 1.348 . S
C906 H954 0.929 . S
C907 C908 1.358 . S
C907 C909 1.356 . S
C907 H955 0.930 . S
C908 N905 1.279 . S
C908 C907 1.358 . S
C908 H911 0.930 . S
C909 C906 1.348 . S
C909 C907 1.356 . S
H910 C904 0.930 . S
H911 C908 0.930 . S
C912 C914 1.348 . S
C912 C915 1.356 . S
C912 O942 1.325 . S
N913 C916 1.314 . S
N913 C917 1.279 . S
C914 C912 1.348 . S
C914 C916 1.353 . S
C914 H956 0.929 . S
C915 C912 1.356 . S
C915 C917 1.358 . S
C915 H957 0.930 . S
C916 N913 1.314 . S
C916 C914 1.353 . S
C916 H958 0.930 . S
C917 N913 1.279 . S
C917 C915 1.358 . S
C917 H959 0.930 . S
C918 C919 1.348 . S
C918 C920 1.356 . S
C918 O943 1.325 . S
C919 C918 1.348 . S
C919 C921 1.353 . S
C919 H960 0.929 . S
C920 C918 1.356 . S
C920 C922 1.358 . S
C920 H961 0.930 . S
C921 C919 1.353 . S
C921 N923 1.314 . S
C921 H962 0.930 . S
C922 C920 1.358 . S
C922 N923 1.279 . S
C922 H963 0.930 . S
N923 C921 1.314 . S
N923 C922 1.279 . S
C924 C926 1.353 . S
C924 N927 1.314 . S
C924 H930 0.930 . S
C925 N927 1.279 . S
C925 C928 1.358 . S
C925 H931 0.930 . S
C926 C924 1.353 . S
C926 C929 1.348 . S
C926 H964 0.929 . S
N927 Li882 1.990 . S
N927 C924 1.314 . S
N927 C925 1.279 . S
C928 C925 1.358 . S
C928 C929 1.356 . S
C928 H965 0.930 . S
C929 C926 1.348 . S
C929 C928 1.356 . S
H930 C924 0.930 . S
H931 C925 0.930 . S
C932 N933 1.314 . S
C932 C934 1.353 . S
C932 H938 0.930 . S
N933 Li883 1.990 . S
N933 C932 1.314 . S
N933 C936 1.279 . S
C934 C932 1.353 . S
C934 C937 1.348 . S
C934 H966 0.929 . S
C935 C936 1.358 . S
C935 C937 1.356 . S
C935 H967 0.930 . S
C936 N933 1.279 . S
C936 C935 1.358 . S
C936 H939 0.930 . S
C937 C934 1.348 . S
C937 C935 1.356 . S
H938 C932 0.930 . S
H939 C936 0.930 . S
O940 Li880 1.956 . S
O940 Li881 1.970 . S
O940 Li882 1.961 . S
O940 C884 1.325 . S
O941 Li880 1.970 . S
O941 Li881 1.956 . S
O941 Li883 1.961 . S
O941 C890 1.325 . S
O942 Li880 1.961 . S
O942 Li882 1.956 . S
O942 Li883 1.970 . S
O942 C912 1.325 . S
O943 Li881 1.961 . S
O943 Li882 1.970 . S
O943 Li883 1.956 . S
O943 C918 1.325 . S
H944 C886 0.929 . S
H945 C887 0.930 . S
H946 C888 0.930 . S
H947 C889 0.930 . S
H948 C891 0.930 . S
H949 C893 0.929 . S
H950 C894 0.930 . S
H951 C895 0.930 . S
H952 C898 0.930 . S
H953 C901 0.929 . S
H954 C906 0.929 . S
H955 C907 0.930 . S
H956 C914 0.929 . S
H957 C915 0.930 . S
H958 C916 0.930 . S
H959 C917 0.930 . S
H960 C919 0.929 . S
H961 C920 0.930 . S
H962 C921 0.930 . S
H963 C922 0.930 . S
H964 C926 0.929 . S
H965 C928 0.930 . S
H966 C934 0.929 . S
H967 C935 0.930 . S
Li968 N985 1.990 . S
Li968 O1028 1.956 . S
Li968 O1029 1.970 . S
Li968 O1030 1.961 . S
Li969 N993 1.990 . S
Li969 O1028 1.970 . S
Li969 O1029 1.956 . S
Li969 O1031 1.961 . S
Li970 N1015 1.990 . S
Li970 O1028 1.961 . S
Li970 O1030 1.956 . S
Li970 O1031 1.970 . S
Li971 N1021 1.990 . S
Li971 O1029 1.961 . S
Li971 O1030 1.970 . S
Li971 O1031 1.956 . S
C972 C974 1.348 . S
C972 C975 1.356 . S
C972 O1028 1.325 . S
N973 C976 1.314 . S
N973 C977 1.279 . S
C974 C972 1.348 . S
C974 C976 1.353 . S
C974 H1032 0.929 . S
C975 C972 1.356 . S
C975 C977 1.358 . S
C975 H1033 0.930 . S
C976 N973 1.314 . S
C976 C974 1.353 . S
C976 H1034 0.930 . S
C977 N973 1.279 . S
C977 C975 1.358 . S
C977 H1035 0.930 . S
C978 C981 1.348 . S
C978 C982 1.356 . S
C978 O1029 1.325 . S
C979 N980 1.279 . S
C979 C982 1.358 . S
C979 H1036 0.930 . S
N980 C979 1.279 . S
N980 C983 1.314 . S
C981 C978 1.348 . S
C981 C983 1.353 . S
C981 H1037 0.929 . S
C982 C978 1.356 . S
C982 C979 1.358 . S
C982 H1038 0.930 . S
C983 N980 1.314 . S
C983 C981 1.353 . S
C983 H1039 0.930 . S
C984 N985 1.314 . S
C984 C989 1.353 . S
C984 H990 0.930 . S
N985 Li968 1.990 . S
N985 C984 1.314 . S
N985 C987 1.279 . S
C986 C987 1.358 . S
C986 C988 1.356 . S
C986 H1040 0.930 . S
C987 N985 1.279 . S
C987 C986 1.358 . S
C987 H991 0.930 . S
C988 C986 1.356 . S
C988 C989 1.348 . S
C989 C984 1.353 . S
C989 C988 1.348 . S
C989 H1041 0.929 . S
H990 C984 0.930 . S
H991 C987 0.930 . S
C992 N993 1.314 . S
C992 C994 1.353 . S
C992 H998 0.930 . S
N993 Li969 1.990 . S
N993 C992 1.314 . S
N993 C996 1.279 . S
C994 C992 1.353 . S
C994 C997 1.348 . S
C994 H1042 0.929 . S
C995 C996 1.358 . S
C995 C997 1.356 . S
C995 H1043 0.930 . S
C996 N993 1.279 . S
C996 C995 1.358 . S
C996 H999 0.930 . S
C997 C994 1.348 . S
C997 C995 1.356 . S
H998 C992 0.930 . S
H999 C996 0.930 . S
C1000 C1002 1.348 . S
C1000 C1003 1.356 . S
C1000 O1030 1.325 . S
N1001 C1004 1.314 . S
N1001 C1005 1.279 . S
C1002 C1000 1.348 . S
C1002 C1004 1.353 . S
C1002 H1044 0.929 . S
C1003 C1000 1.356 . S
C1003 C1005 1.358 . S
C1003 H1045 0.930 . S
C1004 N1001 1.314 . S
C1004 C1002 1.353 . S
C1004 H1046 0.930 . S
C1005 N1001 1.279 . S
C1005 C1003 1.358 . S
C1005 H1047 0.930 . S
C1006 C1007 1.348 . S
C1006 C1008 1.356 . S
C1006 O1031 1.325 . S
C1007 C1006 1.348 . S
C1007 C1009 1.353 . S
C1007 H1048 0.929 . S
C1008 C1006 1.356 . S
C1008 C1010 1.358 . S
C1008 H1049 0.930 . S
C1009 C1007 1.353 . S
C1009 N1011 1.314 . S
C1009 H1050 0.930 . S
C1010 C1008 1.358 . S
C1010 N1011 1.279 . S
C1010 H1051 0.930 . S
N1011 C1009 1.314 . S
N1011 C1010 1.279 . S
C1012 C1014 1.353 . S
C1012 N1015 1.314 . S
C1012 H1018 0.930 . S
C1013 N1015 1.279 . S
C1013 C1016 1.358 . S
C1013 H1019 0.930 . S
C1014 C1012 1.353 . S
C1014 C1017 1.348 . S
C1014 H1052 0.929 . S
N1015 Li970 1.990 . S
N1015 C1012 1.314 . S
N1015 C1013 1.279 . S
C1016 C1013 1.358 . S
C1016 C1017 1.356 . S
C1016 H1053 0.930 . S
C1017 C1014 1.348 . S
C1017 C1016 1.356 . S
H1018 C1012 0.930 . S
H1019 C1013 0.930 . S
C1020 N1021 1.314 . S
C1020 C1022 1.353 . S
C1020 H1026 0.930 . S
N1021 Li971 1.990 . S
N1021 C1020 1.314 . S
N1021 C1024 1.279 . S
C1022 C1020 1.353 . S
C1022 C1025 1.348 . S
C1022 H1054 0.929 . S
C1023 C1024 1.358 . S
C1023 C1025 1.356 . S
C1023 H1055 0.930 . S
C1024 N1021 1.279 . S
C1024 C1023 1.358 . S
C1024 H1027 0.930 . S
C1025 C1022 1.348 . S
C1025 C1023 1.356 . S
H1026 C1020 0.930 . S
H1027 C1024 0.930 . S
O1028 Li968 1.956 . S
O1028 Li969 1.970 . S
O1028 Li970 1.961 . S
O1028 C972 1.325 . S
O1029 Li968 1.970 . S
O1029 Li969 1.956 . S
O1029 Li971 1.961 . S
O1029 C978 1.325 . S
O1030 Li968 1.961 . S
O1030 Li970 1.956 . S
O1030 Li971 1.970 . S
O1030 C1000 1.325 . S
O1031 Li969 1.961 . S
O1031 Li970 1.970 . S
O1031 Li971 1.956 . S
O1031 C1006 1.325 . S
H1032 C974 0.929 . S
H1033 C975 0.930 . S
H1034 C976 0.930 . S
H1035 C977 0.930 . S
H1036 C979 0.930 . S
H1037 C981 0.929 . S
H1038 C982 0.930 . S
H1039 C983 0.930 . S
H1040 C986 0.930 . S
H1041 C989 0.929 . S
H1042 C994 0.929 . S
H1043 C995 0.930 . S
H1044 C1002 0.929 . S
H1045 C1003 0.930 . S
H1046 C1004 0.930 . S
H1047 C1005 0.930 . S
H1048 C1007 0.929 . S
H1049 C1008 0.930 . S
H1050 C1009 0.930 . S
H1051 C1010 0.930 . S
H1052 C1014 0.929 . S
H1053 C1016 0.930 . S
H1054 C1022 0.929 . S
H1055 C1023 0.930 . S
Li1056 N1073 1.990 . S
Li1056 O1116 1.956 . S
Li1056 O1117 1.970 . S
Li1056 O1118 1.961 . S
Li1057 N1081 1.990 . S
Li1057 O1116 1.970 . S
Li1057 O1117 1.956 . S
Li1057 O1119 1.961 . S
Li1058 N1103 1.990 . S
Li1058 O1116 1.961 . S
Li1058 O1118 1.956 . S
Li1058 O1119 1.970 . S
Li1059 N1109 1.990 . S
Li1059 O1117 1.961 . S
Li1059 O1118 1.970 . S
Li1059 O1119 1.956 . S
C1060 C1062 1.348 . S
C1060 C1063 1.356 . S
C1060 O1116 1.325 . S
N1061 C1064 1.314 . S
N1061 C1065 1.279 . S
C1062 C1060 1.348 . S
C1062 C1064 1.353 . S
C1062 H1120 0.929 . S
C1063 C1060 1.356 . S
C1063 C1065 1.358 . S
C1063 H1121 0.930 . S
C1064 N1061 1.314 . S
C1064 C1062 1.353 . S
C1064 H1122 0.930 . S
C1065 N1061 1.279 . S
C1065 C1063 1.358 . S
C1065 H1123 0.930 . S
C1066 C1069 1.348 . S
C1066 C1070 1.356 . S
C1066 O1117 1.325 . S
C1067 N1068 1.279 . S
C1067 C1070 1.358 . S
C1067 H1124 0.930 . S
N1068 C1067 1.279 . S
N1068 C1071 1.314 . S
C1069 C1066 1.348 . S
C1069 C1071 1.353 . S
C1069 H1125 0.929 . S
C1070 C1066 1.356 . S
C1070 C1067 1.358 . S
C1070 H1126 0.930 . S
C1071 N1068 1.314 . S
C1071 C1069 1.353 . S
C1071 H1127 0.930 . S
C1072 N1073 1.314 . S
C1072 C1077 1.353 . S
C1072 H1078 0.930 . S
N1073 Li1056 1.990 . S
N1073 C1072 1.314 . S
N1073 C1075 1.279 . S
C1074 C1075 1.358 . S
C1074 C1076 1.356 . S
C1074 H1128 0.930 . S
C1075 N1073 1.279 . S
C1075 C1074 1.358 . S
C1075 H1079 0.930 . S
C1076 C1074 1.356 . S
C1076 C1077 1.348 . S
C1077 C1072 1.353 . S
C1077 C1076 1.348 . S
C1077 H1129 0.929 . S
H1078 C1072 0.930 . S
H1079 C1075 0.930 . S
C1080 N1081 1.314 . S
C1080 C1082 1.353 . S
C1080 H1086 0.930 . S
N1081 Li1057 1.990 . S
N1081 C1080 1.314 . S
N1081 C1084 1.279 . S
C1082 C1080 1.353 . S
C1082 C1085 1.348 . S
C1082 H1130 0.929 . S
C1083 C1084 1.358 . S
C1083 C1085 1.356 . S
C1083 H1131 0.930 . S
C1084 N1081 1.279 . S
C1084 C1083 1.358 . S
C1084 H1087 0.930 . S
C1085 C1082 1.348 . S
C1085 C1083 1.356 . S
H1086 C1080 0.930 . S
H1087 C1084 0.930 . S
C1088 C1090 1.348 . S
C1088 C1091 1.356 . S
C1088 O1118 1.325 . S
N1089 C1092 1.314 . S
N1089 C1093 1.279 . S
C1090 C1088 1.348 . S
C1090 C1092 1.353 . S
C1090 H1132 0.929 . S
C1091 C1088 1.356 . S
C1091 C1093 1.358 . S
C1091 H1133 0.930 . S
C1092 N1089 1.314 . S
C1092 C1090 1.353 . S
C1092 H1134 0.930 . S
C1093 N1089 1.279 . S
C1093 C1091 1.358 . S
C1093 H1135 0.930 . S
C1094 C1095 1.348 . S
C1094 C1096 1.356 . S
C1094 O1119 1.325 . S
C1095 C1094 1.348 . S
C1095 C1097 1.353 . S
C1095 H1136 0.929 . S
C1096 C1094 1.356 . S
C1096 C1098 1.358 . S
C1096 H1137 0.930 . S
C1097 C1095 1.353 . S
C1097 N1099 1.314 . S
C1097 H1138 0.930 . S
C1098 C1096 1.358 . S
C1098 N1099 1.279 . S
C1098 H1139 0.930 . S
N1099 C1097 1.314 . S
N1099 C1098 1.279 . S
C1100 C1102 1.353 . S
C1100 N1103 1.314 . S
C1100 H1106 0.930 . S
C1101 N1103 1.279 . S
C1101 C1104 1.358 . S
C1101 H1107 0.930 . S
C1102 C1100 1.353 . S
C1102 C1105 1.348 . S
C1102 H1140 0.929 . S
N1103 Li1058 1.990 . S
N1103 C1100 1.314 . S
N1103 C1101 1.279 . S
C1104 C1101 1.358 . S
C1104 C1105 1.356 . S
C1104 H1141 0.930 . S
C1105 C1102 1.348 . S
C1105 C1104 1.356 . S
H1106 C1100 0.930 . S
H1107 C1101 0.930 . S
C1108 N1109 1.314 . S
C1108 C1110 1.353 . S
C1108 H1114 0.930 . S
N1109 Li1059 1.990 . S
N1109 C1108 1.314 . S
N1109 C1112 1.279 . S
C1110 C1108 1.353 . S
C1110 C1113 1.348 . S
C1110 H1142 0.929 . S
C1111 C1112 1.358 . S
C1111 C1113 1.356 . S
C1111 H1143 0.930 . S
C1112 N1109 1.279 . S
C1112 C1111 1.358 . S
C1112 H1115 0.930 . S
C1113 C1110 1.348 . S
C1113 C1111 1.356 . S
H1114 C1108 0.930 . S
H1115 C1112 0.930 . S
O1116 Li1056 1.956 . S
O1116 Li1057 1.970 . S
O1116 Li1058 1.961 . S
O1116 C1060 1.325 . S
O1117 Li1056 1.970 . S
O1117 Li1057 1.956 . S
O1117 Li1059 1.961 . S
O1117 C1066 1.325 . S
O1118 Li1056 1.961 . S
O1118 Li1058 1.956 . S
O1118 Li1059 1.970 . S
O1118 C1088 1.325 . S
O1119 Li1057 1.961 . S
O1119 Li1058 1.970 . S
O1119 Li1059 1.956 . S
O1119 C1094 1.325 . S
H1120 C1062 0.929 . S
H1121 C1063 0.930 . S
H1122 C1064 0.930 . S
H1123 C1065 0.930 . S
H1124 C1067 0.930 . S
H1125 C1069 0.929 . S
H1126 C1070 0.930 . S
H1127 C1071 0.930 . S
H1128 C1074 0.930 . S
H1129 C1077 0.929 . S
H1130 C1082 0.929 . S
H1131 C1083 0.930 . S
H1132 C1090 0.929 . S
H1133 C1091 0.930 . S
H1134 C1092 0.930 . S
H1135 C1093 0.930 . S
H1136 C1095 0.929 . S
H1137 C1096 0.930 . S
H1138 C1097 0.930 . S
H1139 C1098 0.930 . S
H1140 C1102 0.929 . S
H1141 C1104 0.930 . S
H1142 C1110 0.929 . S
H1143 C1111 0.930 . S
Li1144 N1161 1.990 . S
Li1144 O1204 1.956 . S
Li1144 O1205 1.970 . S
Li1144 O1206 1.961 . S
Li1145 N1169 1.990 . S
Li1145 O1204 1.970 . S
Li1145 O1205 1.956 . S
Li1145 O1207 1.961 . S
Li1146 N1191 1.990 . S
Li1146 O1204 1.961 . S
Li1146 O1206 1.956 . S
Li1146 O1207 1.970 . S
Li1147 N1197 1.990 . S
Li1147 O1205 1.961 . S
Li1147 O1206 1.970 . S
Li1147 O1207 1.956 . S
C1148 C1150 1.348 . S
C1148 C1151 1.356 . S
C1148 O1204 1.325 . S
N1149 C1152 1.314 . S
N1149 C1153 1.279 . S
C1150 C1148 1.348 . S
C1150 C1152 1.353 . S
C1150 H1208 0.929 . S
C1151 C1148 1.356 . S
C1151 C1153 1.358 . S
C1151 H1209 0.930 . S
C1152 N1149 1.314 . S
C1152 C1150 1.353 . S
C1152 H1210 0.930 . S
C1153 N1149 1.279 . S
C1153 C1151 1.358 . S
C1153 H1211 0.930 . S
C1154 C1157 1.348 . S
C1154 C1158 1.356 . S
C1154 O1205 1.325 . S
C1155 N1156 1.279 . S
C1155 C1158 1.358 . S
C1155 H1212 0.930 . S
N1156 C1155 1.279 . S
N1156 C1159 1.314 . S
C1157 C1154 1.348 . S
C1157 C1159 1.353 . S
C1157 H1213 0.929 . S
C1158 C1154 1.356 . S
C1158 C1155 1.358 . S
C1158 H1214 0.930 . S
C1159 N1156 1.314 . S
C1159 C1157 1.353 . S
C1159 H1215 0.930 . S
C1160 N1161 1.314 . S
C1160 C1165 1.353 . S
C1160 H1166 0.930 . S
N1161 Li1144 1.990 . S
N1161 C1160 1.314 . S
N1161 C1163 1.279 . S
C1162 C1163 1.358 . S
C1162 C1164 1.356 . S
C1162 H1216 0.930 . S
C1163 N1161 1.279 . S
C1163 C1162 1.358 . S
C1163 H1167 0.930 . S
C1164 C1162 1.356 . S
C1164 C1165 1.348 . S
C1165 C1160 1.353 . S
C1165 C1164 1.348 . S
C1165 H1217 0.929 . S
H1166 C1160 0.930 . S
H1167 C1163 0.930 . S
C1168 N1169 1.314 . S
C1168 C1170 1.353 . S
C1168 H1174 0.930 . S
N1169 Li1145 1.990 . S
N1169 C1168 1.314 . S
N1169 C1172 1.279 . S
C1170 C1168 1.353 . S
C1170 C1173 1.348 . S
C1170 H1218 0.929 . S
C1171 C1172 1.358 . S
C1171 C1173 1.356 . S
C1171 H1219 0.930 . S
C1172 N1169 1.279 . S
C1172 C1171 1.358 . S
C1172 H1175 0.930 . S
C1173 C1170 1.348 . S
C1173 C1171 1.356 . S
H1174 C1168 0.930 . S
H1175 C1172 0.930 . S
C1176 C1178 1.348 . S
C1176 C1179 1.356 . S
C1176 O1206 1.325 . S
N1177 C1180 1.314 . S
N1177 C1181 1.279 . S
C1178 C1176 1.348 . S
C1178 C1180 1.353 . S
C1178 H1220 0.929 . S
C1179 C1176 1.356 . S
C1179 C1181 1.358 . S
C1179 H1221 0.930 . S
C1180 N1177 1.314 . S
C1180 C1178 1.353 . S
C1180 H1222 0.930 . S
C1181 N1177 1.279 . S
C1181 C1179 1.358 . S
C1181 H1223 0.930 . S
C1182 C1183 1.348 . S
C1182 C1184 1.356 . S
C1182 O1207 1.325 . S
C1183 C1182 1.348 . S
C1183 C1185 1.353 . S
C1183 H1224 0.929 . S
C1184 C1182 1.356 . S
C1184 C1186 1.358 . S
C1184 H1225 0.930 . S
C1185 C1183 1.353 . S
C1185 N1187 1.314 . S
C1185 H1226 0.930 . S
C1186 C1184 1.358 . S
C1186 N1187 1.279 . S
C1186 H1227 0.930 . S
N1187 C1185 1.314 . S
N1187 C1186 1.279 . S
C1188 C1190 1.353 . S
C1188 N1191 1.314 . S
C1188 H1194 0.930 . S
C1189 N1191 1.279 . S
C1189 C1192 1.358 . S
C1189 H1195 0.930 . S
C1190 C1188 1.353 . S
C1190 C1193 1.348 . S
C1190 H1228 0.929 . S
N1191 Li1146 1.990 . S
N1191 C1188 1.314 . S
N1191 C1189 1.279 . S
C1192 C1189 1.358 . S
C1192 C1193 1.356 . S
C1192 H1229 0.930 . S
C1193 C1190 1.348 . S
C1193 C1192 1.356 . S
H1194 C1188 0.930 . S
H1195 C1189 0.930 . S
C1196 N1197 1.314 . S
C1196 C1198 1.353 . S
C1196 H1202 0.930 . S
N1197 Li1147 1.990 . S
N1197 C1196 1.314 . S
N1197 C1200 1.279 . S
C1198 C1196 1.353 . S
C1198 C1201 1.348 . S
C1198 H1230 0.929 . S
C1199 C1200 1.358 . S
C1199 C1201 1.356 . S
C1199 H1231 0.930 . S
C1200 N1197 1.279 . S
C1200 C1199 1.358 . S
C1200 H1203 0.930 . S
C1201 C1198 1.348 . S
C1201 C1199 1.356 . S
H1202 C1196 0.930 . S
H1203 C1200 0.930 . S
O1204 Li1144 1.956 . S
O1204 Li1145 1.970 . S
O1204 Li1146 1.961 . S
O1204 C1148 1.325 . S
O1205 Li1144 1.970 . S
O1205 Li1145 1.956 . S
O1205 Li1147 1.961 . S
O1205 C1154 1.325 . S
O1206 Li1144 1.961 . S
O1206 Li1146 1.956 . S
O1206 Li1147 1.970 . S
O1206 C1176 1.325 . S
O1207 Li1145 1.961 . S
O1207 Li1146 1.970 . S
O1207 Li1147 1.956 . S
O1207 C1182 1.325 . S
H1208 C1150 0.929 . S
H1209 C1151 0.930 . S
H1210 C1152 0.930 . S
H1211 C1153 0.930 . S
H1212 C1155 0.930 . S
H1213 C1157 0.929 . S
H1214 C1158 0.930 . S
H1215 C1159 0.930 . S
H1216 C1162 0.930 . S
H1217 C1165 0.929 . S
H1218 C1170 0.929 . S
H1219 C1171 0.930 . S
H1220 C1178 0.929 . S
H1221 C1179 0.930 . S
H1222 C1180 0.930 . S
H1223 C1181 0.930 . S
H1224 C1183 0.929 . S
H1225 C1184 0.930 . S
H1226 C1185 0.930 . S
H1227 C1186 0.930 . S
H1228 C1190 0.929 . S
H1229 C1192 0.930 . S
H1230 C1198 0.929 . S
H1231 C1199 0.930 . S
Li1232 N1249 1.990 . S
Li1232 O1292 1.956 . S
Li1232 O1293 1.970 . S
Li1232 O1294 1.961 . S
Li1233 N1257 1.990 . S
Li1233 O1292 1.970 . S
Li1233 O1293 1.956 . S
Li1233 O1295 1.961 . S
Li1234 N1279 1.990 . S
Li1234 O1292 1.961 . S
Li1234 O1294 1.956 . S
Li1234 O1295 1.970 . S
Li1235 N1285 1.990 . S
Li1235 O1293 1.961 . S
Li1235 O1294 1.970 . S
Li1235 O1295 1.956 . S
C1236 C1238 1.348 . S
C1236 C1239 1.356 . S
C1236 O1292 1.325 . S
N1237 C1240 1.314 . S
N1237 C1241 1.279 . S
C1238 C1236 1.348 . S
C1238 C1240 1.353 . S
C1238 H1296 0.929 . S
C1239 C1236 1.356 . S
C1239 C1241 1.358 . S
C1239 H1297 0.930 . S
C1240 N1237 1.314 . S
C1240 C1238 1.353 . S
C1240 H1298 0.930 . S
C1241 N1237 1.279 . S
C1241 C1239 1.358 . S
C1241 H1299 0.930 . S
C1242 C1245 1.348 . S
C1242 C1246 1.356 . S
C1242 O1293 1.325 . S
C1243 N1244 1.279 . S
C1243 C1246 1.358 . S
C1243 H1300 0.930 . S
N1244 C1243 1.279 . S
N1244 C1247 1.314 . S
C1245 C1242 1.348 . S
C1245 C1247 1.353 . S
C1245 H1301 0.929 . S
C1246 C1242 1.356 . S
C1246 C1243 1.358 . S
C1246 H1302 0.930 . S
C1247 N1244 1.314 . S
C1247 C1245 1.353 . S
C1247 H1303 0.930 . S
C1248 N1249 1.314 . S
C1248 C1253 1.353 . S
C1248 H1254 0.930 . S
N1249 Li1232 1.990 . S
N1249 C1248 1.314 . S
N1249 C1251 1.279 . S
C1250 C1251 1.358 . S
C1250 C1252 1.356 . S
C1250 H1304 0.930 . S
C1251 N1249 1.279 . S
C1251 C1250 1.358 . S
C1251 H1255 0.930 . S
C1252 C1250 1.356 . S
C1252 C1253 1.348 . S
C1253 C1248 1.353 . S
C1253 C1252 1.348 . S
C1253 H1305 0.929 . S
H1254 C1248 0.930 . S
H1255 C1251 0.930 . S
C1256 N1257 1.314 . S
C1256 C1258 1.353 . S
C1256 H1262 0.930 . S
N1257 Li1233 1.990 . S
N1257 C1256 1.314 . S
N1257 C1260 1.279 . S
C1258 C1256 1.353 . S
C1258 C1261 1.348 . S
C1258 H1306 0.929 . S
C1259 C1260 1.358 . S
C1259 C1261 1.356 . S
C1259 H1307 0.930 . S
C1260 N1257 1.279 . S
C1260 C1259 1.358 . S
C1260 H1263 0.930 . S
C1261 C1258 1.348 . S
C1261 C1259 1.356 . S
H1262 C1256 0.930 . S
H1263 C1260 0.930 . S
C1264 C1266 1.348 . S
C1264 C1267 1.356 . S
C1264 O1294 1.325 . S
N1265 C1268 1.314 . S
N1265 C1269 1.279 . S
C1266 C1264 1.348 . S
C1266 C1268 1.353 . S
C1266 H1308 0.929 . S
C1267 C1264 1.356 . S
C1267 C1269 1.358 . S
C1267 H1309 0.930 . S
C1268 N1265 1.314 . S
C1268 C1266 1.353 . S
C1268 H1310 0.930 . S
C1269 N1265 1.279 . S
C1269 C1267 1.358 . S
C1269 H1311 0.930 . S
C1270 C1271 1.348 . S
C1270 C1272 1.356 . S
C1270 O1295 1.325 . S
C1271 C1270 1.348 . S
C1271 C1273 1.353 . S
C1271 H1312 0.929 . S
C1272 C1270 1.356 . S
C1272 C1274 1.358 . S
C1272 H1313 0.930 . S
C1273 C1271 1.353 . S
C1273 N1275 1.314 . S
C1273 H1314 0.930 . S
C1274 C1272 1.358 . S
C1274 N1275 1.279 . S
C1274 H1315 0.930 . S
N1275 C1273 1.314 . S
N1275 C1274 1.279 . S
C1276 C1278 1.353 . S
C1276 N1279 1.314 . S
C1276 H1282 0.930 . S
C1277 N1279 1.279 . S
C1277 C1280 1.358 . S
C1277 H1283 0.930 . S
C1278 C1276 1.353 . S
C1278 C1281 1.348 . S
C1278 H1316 0.929 . S
N1279 Li1234 1.990 . S
N1279 C1276 1.314 . S
N1279 C1277 1.279 . S
C1280 C1277 1.358 . S
C1280 C1281 1.356 . S
C1280 H1317 0.930 . S
C1281 C1278 1.348 . S
C1281 C1280 1.356 . S
H1282 C1276 0.930 . S
H1283 C1277 0.930 . S
C1284 N1285 1.314 . S
C1284 C1286 1.353 . S
C1284 H1290 0.930 . S
N1285 Li1235 1.990 . S
N1285 C1284 1.314 . S
N1285 C1288 1.279 . S
C1286 C1284 1.353 . S
C1286 C1289 1.348 . S
C1286 H1318 0.929 . S
C1287 C1288 1.358 . S
C1287 C1289 1.356 . S
C1287 H1319 0.930 . S
C1288 N1285 1.279 . S
C1288 C1287 1.358 . S
C1288 H1291 0.930 . S
C1289 C1286 1.348 . S
C1289 C1287 1.356 . S
H1290 C1284 0.930 . S
H1291 C1288 0.930 . S
O1292 Li1232 1.956 . S
O1292 Li1233 1.970 . S
O1292 Li1234 1.961 . S
O1292 C1236 1.325 . S
O1293 Li1232 1.970 . S
O1293 Li1233 1.956 . S
O1293 Li1235 1.961 . S
O1293 C1242 1.325 . S
O1294 Li1232 1.961 . S
O1294 Li1234 1.956 . S
O1294 Li1235 1.970 . S
O1294 C1264 1.325 . S
O1295 Li1233 1.961 . S
O1295 Li1234 1.970 . S
O1295 Li1235 1.956 . S
O1295 C1270 1.325 . S
H1296 C1238 0.929 . S
H1297 C1239 0.930 . S
H1298 C1240 0.930 . S
H1299 C1241 0.930 . S
H1300 C1243 0.930 . S
H1301 C1245 0.929 . S
H1302 C1246 0.930 . S
H1303 C1247 0.930 . S
H1304 C1250 0.930 . S
H1305 C1253 0.929 . S
H1306 C1258 0.929 . S
H1307 C1259 0.930 . S
H1308 C1266 0.929 . S
H1309 C1267 0.930 . S
H1310 C1268 0.930 . S
H1311 C1269 0.930 . S
H1312 C1271 0.929 . S
H1313 C1272 0.930 . S
H1314 C1273 0.930 . S
H1315 C1274 0.930 . S
H1316 C1278 0.929 . S
H1317 C1280 0.930 . S
H1318 C1286 0.929 . S
H1319 C1287 0.930 . S
Li1320 N1337 1.990 . S
Li1320 O1380 1.956 . S
Li1320 O1381 1.970 . S
Li1320 O1382 1.961 . S
Li1321 N1345 1.990 . S
Li1321 O1380 1.970 . S
Li1321 O1381 1.956 . S
Li1321 O1383 1.961 . S
Li1322 N1367 1.990 . S
Li1322 O1380 1.961 . S
Li1322 O1382 1.956 . S
Li1322 O1383 1.970 . S
Li1323 N1373 1.990 . S
Li1323 O1381 1.961 . S
Li1323 O1382 1.970 . S
Li1323 O1383 1.956 . S
C1324 C1326 1.348 . S
C1324 C1327 1.356 . S
C1324 O1380 1.325 . S
N1325 C1328 1.314 . S
N1325 C1329 1.279 . S
C1326 C1324 1.348 . S
C1326 C1328 1.353 . S
C1326 H1384 0.929 . S
C1327 C1324 1.356 . S
C1327 C1329 1.358 . S
C1327 H1385 0.930 . S
C1328 N1325 1.314 . S
C1328 C1326 1.353 . S
C1328 H1386 0.930 . S
C1329 N1325 1.279 . S
C1329 C1327 1.358 . S
C1329 H1387 0.930 . S
C1330 C1333 1.348 . S
C1330 C1334 1.356 . S
C1330 O1381 1.325 . S
C1331 N1332 1.279 . S
C1331 C1334 1.358 . S
C1331 H1388 0.930 . S
N1332 C1331 1.279 . S
N1332 C1335 1.314 . S
C1333 C1330 1.348 . S
C1333 C1335 1.353 . S
C1333 H1389 0.929 . S
C1334 C1330 1.356 . S
C1334 C1331 1.358 . S
C1334 H1390 0.930 . S
C1335 N1332 1.314 . S
C1335 C1333 1.353 . S
C1335 H1391 0.930 . S
C1336 N1337 1.314 . S
C1336 C1341 1.353 . S
C1336 H1342 0.930 . S
N1337 Li1320 1.990 . S
N1337 C1336 1.314 . S
N1337 C1339 1.279 . S
C1338 C1339 1.358 . S
C1338 C1340 1.356 . S
C1338 H1392 0.930 . S
C1339 N1337 1.279 . S
C1339 C1338 1.358 . S
C1339 H1343 0.930 . S
C1340 C1338 1.356 . S
C1340 C1341 1.348 . S
C1341 C1336 1.353 . S
C1341 C1340 1.348 . S
C1341 H1393 0.929 . S
H1342 C1336 0.930 . S
H1343 C1339 0.930 . S
C1344 N1345 1.314 . S
C1344 C1346 1.353 . S
C1344 H1350 0.930 . S
N1345 Li1321 1.990 . S
N1345 C1344 1.314 . S
N1345 C1348 1.279 . S
C1346 C1344 1.353 . S
C1346 C1349 1.348 . S
C1346 H1394 0.929 . S
C1347 C1348 1.358 . S
C1347 C1349 1.356 . S
C1347 H1395 0.930 1_556 S
C1348 N1345 1.279 . S
C1348 C1347 1.358 . S
C1348 H1351 0.930 . S
C1349 C1346 1.348 . S
C1349 C1347 1.356 . S
H1350 C1344 0.930 . S
H1351 C1348 0.930 . S
C1352 C1354 1.348 . S
C1352 C1355 1.356 . S
C1352 O1382 1.325 . S
N1353 C1356 1.314 . S
N1353 C1357 1.279 . S
C1354 C1352 1.348 . S
C1354 C1356 1.353 . S
C1354 H1396 0.929 . S
C1355 C1352 1.356 . S
C1355 C1357 1.358 . S
C1355 H1397 0.930 . S
C1356 N1353 1.314 . S
C1356 C1354 1.353 . S
C1356 H1398 0.930 . S
C1357 N1353 1.279 . S
C1357 C1355 1.358 . S
C1357 H1399 0.930 . S
C1358 C1359 1.348 . S
C1358 C1360 1.356 . S
C1358 O1383 1.325 . S
C1359 C1358 1.348 . S
C1359 C1361 1.353 . S
C1359 H1400 0.929 . S
C1360 C1358 1.356 . S
C1360 C1362 1.358 . S
C1360 H1401 0.930 . S
C1361 C1359 1.353 . S
C1361 N1363 1.314 . S
C1361 H1402 0.930 . S
C1362 C1360 1.358 . S
C1362 N1363 1.279 . S
C1362 H1403 0.930 . S
N1363 C1361 1.314 . S
N1363 C1362 1.279 . S
C1364 C1366 1.353 . S
C1364 N1367 1.314 . S
C1364 H1370 0.930 . S
C1365 N1367 1.279 . S
C1365 C1368 1.358 . S
C1365 H1371 0.930 . S
C1366 C1364 1.353 . S
C1366 C1369 1.348 . S
C1366 H1404 0.929 . S
N1367 Li1322 1.990 . S
N1367 C1364 1.314 . S
N1367 C1365 1.279 . S
C1368 C1365 1.358 . S
C1368 C1369 1.356 . S
C1368 H1405 0.930 . S
C1369 C1366 1.348 . S
C1369 C1368 1.356 . S
H1370 C1364 0.930 . S
H1371 C1365 0.930 . S
C1372 N1373 1.314 . S
C1372 C1374 1.353 . S
C1372 H1378 0.930 . S
N1373 Li1323 1.990 . S
N1373 C1372 1.314 . S
N1373 C1376 1.279 . S
C1374 C1372 1.353 . S
C1374 C1377 1.348 . S
C1374 H1406 0.929 . S
C1375 C1376 1.358 . S
C1375 C1377 1.356 . S
C1375 H1407 0.930 . S
C1376 N1373 1.279 . S
C1376 C1375 1.358 . S
C1376 H1379 0.930 . S
C1377 C1374 1.348 . S
C1377 C1375 1.356 . S
H1378 C1372 0.930 . S
H1379 C1376 0.930 . S
O1380 Li1320 1.956 . S
O1380 Li1321 1.970 . S
O1380 Li1322 1.961 . S
O1380 C1324 1.325 . S
O1381 Li1320 1.970 . S
O1381 Li1321 1.956 . S
O1381 Li1323 1.961 . S
O1381 C1330 1.325 . S
O1382 Li1320 1.961 . S
O1382 Li1322 1.956 . S
O1382 Li1323 1.970 . S
O1382 C1352 1.325 . S
O1383 Li1321 1.961 . S
O1383 Li1322 1.970 . S
O1383 Li1323 1.956 . S
O1383 C1358 1.325 . S
H1384 C1326 0.929 . S
H1385 C1327 0.930 . S
H1386 C1328 0.930 . S
H1387 C1329 0.930 . S
H1388 C1331 0.930 . S
H1389 C1333 0.929 . S
H1390 C1334 0.930 . S
H1391 C1335 0.930 . S
H1392 C1338 0.930 . S
H1393 C1341 0.929 . S
H1394 C1346 0.929 . S
H1395 C1347 0.930 1_554 S
H1396 C1354 0.929 . S
H1397 C1355 0.930 . S
H1398 C1356 0.930 . S
H1399 C1357 0.930 . S
H1400 C1359 0.929 . S
H1401 C1360 0.930 . S
H1402 C1361 0.930 . S
H1403 C1362 0.930 . S
H1404 C1366 0.929 . S
H1405 C1368 0.930 . S
H1406 C1374 0.929 . S
H1407 C1375 0.930 . S
Li1408 N1425 1.990 . S
Li1408 O1468 1.956 . S
Li1408 O1469 1.970 . S
Li1408 O1470 1.961 . S
Li1409 N1433 1.990 . S
Li1409 O1468 1.970 . S
Li1409 O1469 1.956 . S
Li1409 O1471 1.961 . S
Li1410 N1455 1.990 . S
Li1410 O1468 1.961 . S
Li1410 O1470 1.956 . S
Li1410 O1471 1.970 . S
Li1411 N1461 1.990 . S
Li1411 O1469 1.961 . S
Li1411 O1470 1.970 . S
Li1411 O1471 1.956 . S
C1412 C1414 1.348 . S
C1412 C1415 1.356 . S
C1412 O1468 1.325 . S
N1413 C1416 1.314 . S
N1413 C1417 1.279 . S
C1414 C1412 1.348 . S
C1414 C1416 1.353 . S
C1414 H1472 0.929 . S
C1415 C1412 1.356 . S
C1415 C1417 1.358 . S
C1415 H1473 0.930 . S
C1416 N1413 1.314 . S
C1416 C1414 1.353 . S
C1416 H1474 0.930 . S
C1417 N1413 1.279 . S
C1417 C1415 1.358 . S
C1417 H1475 0.930 . S
C1418 C1421 1.348 . S
C1418 C1422 1.356 . S
C1418 O1469 1.325 . S
C1419 N1420 1.279 . S
C1419 C1422 1.358 . S
C1419 H1476 0.930 . S
N1420 C1419 1.279 . S
N1420 C1423 1.314 . S
C1421 C1418 1.348 . S
C1421 C1423 1.353 . S
C1421 H1477 0.929 . S
C1422 C1418 1.356 . S
C1422 C1419 1.358 . S
C1422 H1478 0.930 . S
C1423 N1420 1.314 . S
C1423 C1421 1.353 . S
C1423 H1479 0.930 . S
C1424 N1425 1.314 . S
C1424 C1429 1.353 . S
C1424 H1430 0.930 . S
N1425 Li1408 1.990 . S
N1425 C1424 1.314 . S
N1425 C1427 1.279 . S
C1426 C1427 1.358 . S
C1426 C1428 1.356 . S
C1426 H1480 0.930 . S
C1427 N1425 1.279 . S
C1427 C1426 1.358 . S
C1427 H1431 0.930 . S
C1428 C1426 1.356 . S
C1428 C1429 1.348 . S
C1429 C1424 1.353 . S
C1429 C1428 1.348 . S
C1429 H1481 0.929 . S
H1430 C1424 0.930 . S
H1431 C1427 0.930 . S
C1432 N1433 1.314 . S
C1432 C1434 1.353 . S
C1432 H1438 0.930 . S
N1433 Li1409 1.990 . S
N1433 C1432 1.314 . S
N1433 C1436 1.279 . S
C1434 C1432 1.353 . S
C1434 C1437 1.348 . S
C1434 H1482 0.929 . S
C1435 C1436 1.358 . S
C1435 C1437 1.356 . S
C1435 H1483 0.930 1_556 S
C1436 N1433 1.279 . S
C1436 C1435 1.358 . S
C1436 H1439 0.930 . S
C1437 C1434 1.348 . S
C1437 C1435 1.356 . S
H1438 C1432 0.930 . S
H1439 C1436 0.930 . S
C1440 C1442 1.348 . S
C1440 C1443 1.356 . S
C1440 O1470 1.325 . S
N1441 C1444 1.314 . S
N1441 C1445 1.279 . S
C1442 C1440 1.348 . S
C1442 C1444 1.353 . S
C1442 H1484 0.929 . S
C1443 C1440 1.356 . S
C1443 C1445 1.358 . S
C1443 H1485 0.930 . S
C1444 N1441 1.314 . S
C1444 C1442 1.353 . S
C1444 H1486 0.930 . S
C1445 N1441 1.279 . S
C1445 C1443 1.358 . S
C1445 H1487 0.930 . S
C1446 C1447 1.348 . S
C1446 C1448 1.356 . S
C1446 O1471 1.325 . S
C1447 C1446 1.348 . S
C1447 C1449 1.353 . S
C1447 H1488 0.929 . S
C1448 C1446 1.356 . S
C1448 C1450 1.358 . S
C1448 H1489 0.930 . S
C1449 C1447 1.353 . S
C1449 N1451 1.314 . S
C1449 H1490 0.930 . S
C1450 C1448 1.358 . S
C1450 N1451 1.279 . S
C1450 H1491 0.930 . S
N1451 C1449 1.314 . S
N1451 C1450 1.279 . S
C1452 C1454 1.353 . S
C1452 N1455 1.314 . S
C1452 H1458 0.930 . S
C1453 N1455 1.279 . S
C1453 C1456 1.358 . S
C1453 H1459 0.930 . S
C1454 C1452 1.353 . S
C1454 C1457 1.348 . S
C1454 H1492 0.929 . S
N1455 Li1410 1.990 . S
N1455 C1452 1.314 . S
N1455 C1453 1.279 . S
C1456 C1453 1.358 . S
C1456 C1457 1.356 . S
C1456 H1493 0.930 . S
C1457 C1454 1.348 . S
C1457 C1456 1.356 . S
H1458 C1452 0.930 . S
H1459 C1453 0.930 . S
C1460 N1461 1.314 . S
C1460 C1462 1.353 . S
C1460 H1466 0.930 . S
N1461 Li1411 1.990 . S
N1461 C1460 1.314 . S
N1461 C1464 1.279 . S
C1462 C1460 1.353 . S
C1462 C1465 1.348 . S
C1462 H1494 0.929 . S
C1463 C1464 1.358 . S
C1463 C1465 1.356 . S
C1463 H1495 0.930 . S
C1464 N1461 1.279 . S
C1464 C1463 1.358 . S
C1464 H1467 0.930 . S
C1465 C1462 1.348 . S
C1465 C1463 1.356 . S
H1466 C1460 0.930 . S
H1467 C1464 0.930 . S
O1468 Li1408 1.956 . S
O1468 Li1409 1.970 . S
O1468 Li1410 1.961 . S
O1468 C1412 1.325 . S
O1469 Li1408 1.970 . S
O1469 Li1409 1.956 . S
O1469 Li1411 1.961 . S
O1469 C1418 1.325 . S
O1470 Li1408 1.961 . S
O1470 Li1410 1.956 . S
O1470 Li1411 1.970 . S
O1470 C1440 1.325 . S
O1471 Li1409 1.961 . S
O1471 Li1410 1.970 . S
O1471 Li1411 1.956 . S
O1471 C1446 1.325 . S
H1472 C1414 0.929 . S
H1473 C1415 0.930 . S
H1474 C1416 0.930 . S
H1475 C1417 0.930 . S
H1476 C1419 0.930 . S
H1477 C1421 0.929 . S
H1478 C1422 0.930 . S
H1479 C1423 0.930 . S
H1480 C1426 0.930 . S
H1481 C1429 0.929 . S
H1482 C1434 0.929 . S
H1483 C1435 0.930 1_554 S
H1484 C1442 0.929 . S
H1485 C1443 0.930 . S
H1486 C1444 0.930 . S
H1487 C1445 0.930 . S
H1488 C1447 0.929 . S
H1489 C1448 0.930 . S
H1490 C1449 0.930 . S
H1491 C1450 0.930 . S
H1492 C1454 0.929 . S
H1493 C1456 0.930 . S
H1494 C1462 0.929 . S
H1495 C1463 0.930 . S
Li1496 N1513 1.990 . S
Li1496 O1556 1.956 . S
Li1496 O1557 1.970 . S
Li1496 O1558 1.961 . S
Li1497 N1521 1.990 . S
Li1497 O1556 1.970 . S
Li1497 O1557 1.956 . S
Li1497 O1559 1.961 . S
Li1498 N1543 1.990 . S
Li1498 O1556 1.961 . S
Li1498 O1558 1.956 . S
Li1498 O1559 1.970 . S
Li1499 N1549 1.990 . S
Li1499 O1557 1.961 . S
Li1499 O1558 1.970 . S
Li1499 O1559 1.956 . S
C1500 C1502 1.348 . S
C1500 C1503 1.356 . S
C1500 O1556 1.325 . S
N1501 C1504 1.314 . S
N1501 C1505 1.279 . S
C1502 C1500 1.348 . S
C1502 C1504 1.353 . S
C1502 H1560 0.929 . S
C1503 C1500 1.356 . S
C1503 C1505 1.358 . S
C1503 H1561 0.930 . S
C1504 N1501 1.314 . S
C1504 C1502 1.353 . S
C1504 H1562 0.930 . S
C1505 N1501 1.279 . S
C1505 C1503 1.358 . S
C1505 H1563 0.930 . S
C1506 C1509 1.348 . S
C1506 C1510 1.356 . S
C1506 O1557 1.325 . S
C1507 N1508 1.279 . S
C1507 C1510 1.358 . S
C1507 H1564 0.930 . S
N1508 C1507 1.279 . S
N1508 C1511 1.314 . S
C1509 C1506 1.348 . S
C1509 C1511 1.353 . S
C1509 H1565 0.929 . S
C1510 C1506 1.356 . S
C1510 C1507 1.358 . S
C1510 H1566 0.930 . S
C1511 N1508 1.314 . S
C1511 C1509 1.353 . S
C1511 H1567 0.930 . S
C1512 N1513 1.314 . S
C1512 C1517 1.353 . S
C1512 H1518 0.930 . S
N1513 Li1496 1.990 . S
N1513 C1512 1.314 . S
N1513 C1515 1.279 . S
C1514 C1515 1.358 . S
C1514 C1516 1.356 . S
C1514 H1568 0.930 1_556 S
C1515 N1513 1.279 . S
C1515 C1514 1.358 . S
C1515 H1519 0.930 . S
C1516 C1514 1.356 . S
C1516 C1517 1.348 . S
C1517 C1512 1.353 . S
C1517 C1516 1.348 . S
C1517 H1569 0.929 . S
H1518 C1512 0.930 . S
H1519 C1515 0.930 . S
C1520 N1521 1.314 . S
C1520 C1522 1.353 . S
C1520 H1526 0.930 . S
N1521 Li1497 1.990 . S
N1521 C1520 1.314 . S
N1521 C1524 1.279 . S
C1522 C1520 1.353 . S
C1522 C1525 1.348 . S
C1522 H1570 0.929 . S
C1523 C1524 1.358 . S
C1523 C1525 1.356 . S
C1523 H1571 0.930 . S
C1524 N1521 1.279 . S
C1524 C1523 1.358 . S
C1524 H1527 0.930 . S
C1525 C1522 1.348 . S
C1525 C1523 1.356 . S
H1526 C1520 0.930 . S
H1527 C1524 0.930 . S
C1528 C1530 1.348 . S
C1528 C1531 1.356 . S
C1528 O1558 1.325 . S
N1529 C1532 1.314 . S
N1529 C1533 1.279 . S
C1530 C1528 1.348 . S
C1530 C1532 1.353 . S
C1530 H1572 0.929 . S
C1531 C1528 1.356 . S
C1531 C1533 1.358 . S
C1531 H1573 0.930 . S
C1532 N1529 1.314 . S
C1532 C1530 1.353 . S
C1532 H1574 0.930 . S
C1533 N1529 1.279 . S
C1533 C1531 1.358 . S
C1533 H1575 0.930 . S
C1534 C1535 1.348 . S
C1534 C1536 1.356 . S
C1534 O1559 1.325 . S
C1535 C1534 1.348 . S
C1535 C1537 1.353 . S
C1535 H1576 0.929 . S
C1536 C1534 1.356 . S
C1536 C1538 1.358 . S
C1536 H1577 0.930 . S
C1537 C1535 1.353 . S
C1537 N1539 1.314 . S
C1537 H1578 0.930 . S
C1538 C1536 1.358 . S
C1538 N1539 1.279 . S
C1538 H1579 0.930 . S
N1539 C1537 1.314 . S
N1539 C1538 1.279 . S
C1540 C1542 1.353 . S
C1540 N1543 1.314 . S
C1540 H1546 0.930 . S
C1541 N1543 1.279 . S
C1541 C1544 1.358 . S
C1541 H1547 0.930 . S
C1542 C1540 1.353 . S
C1542 C1545 1.348 . S
C1542 H1580 0.929 . S
N1543 Li1498 1.990 . S
N1543 C1540 1.314 . S
N1543 C1541 1.279 . S
C1544 C1541 1.358 . S
C1544 C1545 1.356 . S
C1544 H1581 0.930 . S
C1545 C1542 1.348 . S
C1545 C1544 1.356 . S
H1546 C1540 0.930 . S
H1547 C1541 0.930 . S
C1548 N1549 1.314 . S
C1548 C1550 1.353 . S
C1548 H1554 0.930 . S
N1549 Li1499 1.990 . S
N1549 C1548 1.314 . S
N1549 C1552 1.279 . S
C1550 C1548 1.353 . S
C1550 C1553 1.348 . S
C1550 H1582 0.929 . S
C1551 C1552 1.358 . S
C1551 C1553 1.356 . S
C1551 H1583 0.930 . S
C1552 N1549 1.279 . S
C1552 C1551 1.358 . S
C1552 H1555 0.930 . S
C1553 C1550 1.348 . S
C1553 C1551 1.356 . S
H1554 C1548 0.930 . S
H1555 C1552 0.930 . S
O1556 Li1496 1.956 . S
O1556 Li1497 1.970 . S
O1556 Li1498 1.961 . S
O1556 C1500 1.325 . S
O1557 Li1496 1.970 . S
O1557 Li1497 1.956 . S
O1557 Li1499 1.961 . S
O1557 C1506 1.325 . S
O1558 Li1496 1.961 . S
O1558 Li1498 1.956 . S
O1558 Li1499 1.970 . S
O1558 C1528 1.325 . S
O1559 Li1497 1.961 . S
O1559 Li1498 1.970 . S
O1559 Li1499 1.956 . S
O1559 C1534 1.325 . S
H1560 C1502 0.929 . S
H1561 C1503 0.930 . S
H1562 C1504 0.930 . S
H1563 C1505 0.930 . S
H1564 C1507 0.930 . S
H1565 C1509 0.929 . S
H1566 C1510 0.930 . S
H1567 C1511 0.930 . S
H1568 C1514 0.930 1_554 S
H1569 C1517 0.929 . S
H1570 C1522 0.929 . S
H1571 C1523 0.930 . S
H1572 C1530 0.929 . S
H1573 C1531 0.930 . S
H1574 C1532 0.930 . S
H1575 C1533 0.930 . S
H1576 C1535 0.929 . S
H1577 C1536 0.930 . S
H1578 C1537 0.930 . S
H1579 C1538 0.930 . S
H1580 C1542 0.929 . S
H1581 C1544 0.930 . S
H1582 C1550 0.929 . S
H1583 C1551 0.930 . S
Li1584 N1601 1.990 . S
Li1584 O1644 1.956 . S
Li1584 O1645 1.970 . S
Li1584 O1646 1.961 . S
Li1585 N1609 1.990 . S
Li1585 O1644 1.970 . S
Li1585 O1645 1.956 . S
Li1585 O1647 1.961 . S
Li1586 N1631 1.990 . S
Li1586 O1644 1.961 . S
Li1586 O1646 1.956 . S
Li1586 O1647 1.970 . S
Li1587 N1637 1.990 . S
Li1587 O1645 1.961 . S
Li1587 O1646 1.970 . S
Li1587 O1647 1.956 . S
C1588 C1590 1.348 . S
C1588 C1591 1.356 . S
C1588 O1644 1.325 . S
N1589 C1592 1.314 . S
N1589 C1593 1.279 . S
C1590 C1588 1.348 . S
C1590 C1592 1.353 . S
C1590 H1648 0.929 . S
C1591 C1588 1.356 . S
C1591 C1593 1.358 . S
C1591 H1649 0.930 . S
C1592 N1589 1.314 . S
C1592 C1590 1.353 . S
C1592 H1650 0.930 . S
C1593 N1589 1.279 . S
C1593 C1591 1.358 . S
C1593 H1651 0.930 . S
C1594 C1597 1.348 . S
C1594 C1598 1.356 . S
C1594 O1645 1.325 . S
C1595 N1596 1.279 . S
C1595 C1598 1.358 . S
C1595 H1652 0.930 . S
N1596 C1595 1.279 . S
N1596 C1599 1.314 . S
C1597 C1594 1.348 . S
C1597 C1599 1.353 . S
C1597 H1653 0.929 . S
C1598 C1594 1.356 . S
C1598 C1595 1.358 . S
C1598 H1654 0.930 . S
C1599 N1596 1.314 . S
C1599 C1597 1.353 . S
C1599 H1655 0.930 . S
C1600 N1601 1.314 . S
C1600 C1605 1.353 . S
C1600 H1606 0.930 . S
N1601 Li1584 1.990 . S
N1601 C1600 1.314 . S
N1601 C1603 1.279 . S
C1602 C1603 1.358 . S
C1602 C1604 1.356 . S
C1602 H1656 0.930 . S
C1603 N1601 1.279 . S
C1603 C1602 1.358 . S
C1603 H1607 0.930 . S
C1604 C1602 1.356 . S
C1604 C1605 1.348 . S
C1605 C1600 1.353 . S
C1605 C1604 1.348 . S
C1605 H1657 0.929 . S
H1606 C1600 0.930 . S
H1607 C1603 0.930 . S
C1608 N1609 1.314 . S
C1608 C1610 1.353 . S
C1608 H1614 0.930 . S
N1609 Li1585 1.990 . S
N1609 C1608 1.314 . S
N1609 C1612 1.279 . S
C1610 C1608 1.353 . S
C1610 C1613 1.348 . S
C1610 H1658 0.929 . S
C1611 C1612 1.358 . S
C1611 C1613 1.356 . S
C1611 H1659 0.930 . S
C1612 N1609 1.279 . S
C1612 C1611 1.358 . S
C1612 H1615 0.930 . S
C1613 C1610 1.348 . S
C1613 C1611 1.356 . S
H1614 C1608 0.930 . S
H1615 C1612 0.930 . S
C1616 C1618 1.348 . S
C1616 C1619 1.356 . S
C1616 O1646 1.325 . S
N1617 C1620 1.314 . S
N1617 C1621 1.279 . S
C1618 C1616 1.348 . S
C1618 C1620 1.353 . S
C1618 H1660 0.929 . S
C1619 C1616 1.356 . S
C1619 C1621 1.358 . S
C1619 H1661 0.930 . S
C1620 N1617 1.314 . S
C1620 C1618 1.353 . S
C1620 H1662 0.930 . S
C1621 N1617 1.279 . S
C1621 C1619 1.358 . S
C1621 H1663 0.930 . S
C1622 C1623 1.348 . S
C1622 C1624 1.356 . S
C1622 O1647 1.325 . S
C1623 C1622 1.348 . S
C1623 C1625 1.353 . S
C1623 H1664 0.929 . S
C1624 C1622 1.356 . S
C1624 C1626 1.358 . S
C1624 H1665 0.930 . S
C1625 C1623 1.353 . S
C1625 N1627 1.314 . S
C1625 H1666 0.930 . S
C1626 C1624 1.358 . S
C1626 N1627 1.279 . S
C1626 H1667 0.930 . S
N1627 C1625 1.314 . S
N1627 C1626 1.279 . S
C1628 C1630 1.353 . S
C1628 N1631 1.314 . S
C1628 H1634 0.930 . S
C1629 N1631 1.279 . S
C1629 C1632 1.358 . S
C1629 H1635 0.930 . S
C1630 C1628 1.353 . S
C1630 C1633 1.348 . S
C1630 H1668 0.929 . S
N1631 Li1586 1.990 . S
N1631 C1628 1.314 . S
N1631 C1629 1.279 . S
C1632 C1629 1.358 . S
C1632 C1633 1.356 . S
C1632 H1669 0.930 . S
C1633 C1630 1.348 . S
C1633 C1632 1.356 . S
H1634 C1628 0.930 . S
H1635 C1629 0.930 . S
C1636 N1637 1.314 . S
C1636 C1638 1.353 . S
C1636 H1642 0.930 . S
N1637 Li1587 1.990 . S
N1637 C1636 1.314 . S
N1637 C1640 1.279 . S
C1638 C1636 1.353 . S
C1638 C1641 1.348 . S
C1638 H1670 0.929 . S
C1639 C1640 1.358 . S
C1639 C1641 1.356 . S
C1639 H1671 0.930 . S
C1640 N1637 1.279 . S
C1640 C1639 1.358 . S
C1640 H1643 0.930 . S
C1641 C1638 1.348 . S
C1641 C1639 1.356 . S
H1642 C1636 0.930 . S
H1643 C1640 0.930 . S
O1644 Li1584 1.956 . S
O1644 Li1585 1.970 . S
O1644 Li1586 1.961 . S
O1644 C1588 1.325 . S
O1645 Li1584 1.970 . S
O1645 Li1585 1.956 . S
O1645 Li1587 1.961 . S
O1645 C1594 1.325 . S
O1646 Li1584 1.961 . S
O1646 Li1586 1.956 . S
O1646 Li1587 1.970 . S
O1646 C1616 1.325 . S
O1647 Li1585 1.961 . S
O1647 Li1586 1.970 . S
O1647 Li1587 1.956 . S
O1647 C1622 1.325 . S
H1648 C1590 0.929 . S
H1649 C1591 0.930 . S
H1650 C1592 0.930 . S
H1651 C1593 0.930 . S
H1652 C1595 0.930 . S
H1653 C1597 0.929 . S
H1654 C1598 0.930 . S
H1655 C1599 0.930 . S
H1656 C1602 0.930 . S
H1657 C1605 0.929 . S
H1658 C1610 0.929 . S
H1659 C1611 0.930 . S
H1660 C1618 0.929 . S
H1661 C1619 0.930 . S
H1662 C1620 0.930 . S
H1663 C1621 0.930 . S
H1664 C1623 0.929 . S
H1665 C1624 0.930 . S
H1666 C1625 0.930 . S
H1667 C1626 0.930 . S
H1668 C1630 0.929 . S
H1669 C1632 0.930 . S
H1670 C1638 0.929 . S
H1671 C1639 0.930 . S
Li1672 N1689 1.990 . S
Li1672 O1732 1.956 . S
Li1672 O1733 1.970 . S
Li1672 O1734 1.961 . S
Li1673 N1697 1.990 . S
Li1673 O1732 1.970 . S
Li1673 O1733 1.956 . S
Li1673 O1735 1.961 . S
Li1674 N1719 1.990 . S
Li1674 O1732 1.961 . S
Li1674 O1734 1.956 . S
Li1674 O1735 1.970 . S
Li1675 N1725 1.990 . S
Li1675 O1733 1.961 . S
Li1675 O1734 1.970 . S
Li1675 O1735 1.956 . S
C1676 C1678 1.348 . S
C1676 C1679 1.356 . S
C1676 O1732 1.325 . S
N1677 C1680 1.314 . S
N1677 C1681 1.279 . S
C1678 C1676 1.348 . S
C1678 C1680 1.353 . S
C1678 H1736 0.929 . S
C1679 C1676 1.356 . S
C1679 C1681 1.358 . S
C1679 H1737 0.930 . S
C1680 N1677 1.314 . S
C1680 C1678 1.353 . S
C1680 H1738 0.930 . S
C1681 N1677 1.279 . S
C1681 C1679 1.358 . S
C1681 H1739 0.930 . S
C1682 C1685 1.348 . S
C1682 C1686 1.356 . S
C1682 O1733 1.325 . S
C1683 N1684 1.279 . S
C1683 C1686 1.358 . S
C1683 H1740 0.930 . S
N1684 C1683 1.279 . S
N1684 C1687 1.314 . S
C1685 C1682 1.348 . S
C1685 C1687 1.353 . S
C1685 H1741 0.929 . S
C1686 C1682 1.356 . S
C1686 C1683 1.358 . S
C1686 H1742 0.930 . S
C1687 N1684 1.314 . S
C1687 C1685 1.353 . S
C1687 H1743 0.930 . S
C1688 N1689 1.314 . S
C1688 C1693 1.353 . S
C1688 H1694 0.930 . S
N1689 Li1672 1.990 . S
N1689 C1688 1.314 . S
N1689 C1691 1.279 . S
C1690 C1691 1.358 . S
C1690 C1692 1.356 . S
C1690 H1744 0.930 . S
C1691 N1689 1.279 . S
C1691 C1690 1.358 . S
C1691 H1695 0.930 . S
C1692 C1690 1.356 . S
C1692 C1693 1.348 . S
C1693 C1688 1.353 . S
C1693 C1692 1.348 . S
C1693 H1745 0.929 . S
H1694 C1688 0.930 . S
H1695 C1691 0.930 . S
C1696 N1697 1.314 . S
C1696 C1698 1.353 . S
C1696 H1702 0.930 . S
N1697 Li1673 1.990 . S
N1697 C1696 1.314 . S
N1697 C1700 1.279 . S
C1698 C1696 1.353 . S
C1698 C1701 1.348 . S
C1698 H1746 0.929 . S
C1699 C1700 1.358 . S
C1699 C1701 1.356 . S
C1699 H1747 0.930 . S
C1700 N1697 1.279 . S
C1700 C1699 1.358 . S
C1700 H1703 0.930 . S
C1701 C1698 1.348 . S
C1701 C1699 1.356 . S
H1702 C1696 0.930 . S
H1703 C1700 0.930 . S
C1704 C1706 1.348 . S
C1704 C1707 1.356 . S
C1704 O1734 1.325 . S
N1705 C1708 1.314 . S
N1705 C1709 1.279 . S
C1706 C1704 1.348 . S
C1706 C1708 1.353 . S
C1706 H1748 0.929 . S
C1707 C1704 1.356 . S
C1707 C1709 1.358 . S
C1707 H1749 0.930 . S
C1708 N1705 1.314 . S
C1708 C1706 1.353 . S
C1708 H1750 0.930 . S
C1709 N1705 1.279 . S
C1709 C1707 1.358 . S
C1709 H1751 0.930 . S
C1710 C1711 1.348 . S
C1710 C1712 1.356 . S
C1710 O1735 1.325 . S
C1711 C1710 1.348 . S
C1711 C1713 1.353 . S
C1711 H1752 0.929 . S
C1712 C1710 1.356 . S
C1712 C1714 1.358 . S
C1712 H1753 0.930 . S
C1713 C1711 1.353 . S
C1713 N1715 1.314 . S
C1713 H1754 0.930 . S
C1714 C1712 1.358 . S
C1714 N1715 1.279 . S
C1714 H1755 0.930 . S
N1715 C1713 1.314 . S
N1715 C1714 1.279 . S
C1716 C1718 1.353 . S
C1716 N1719 1.314 . S
C1716 H1722 0.930 . S
C1717 N1719 1.279 . S
C1717 C1720 1.358 . S
C1717 H1723 0.930 . S
C1718 C1716 1.353 . S
C1718 C1721 1.348 . S
C1718 H1756 0.929 . S
N1719 Li1674 1.990 . S
N1719 C1716 1.314 . S
N1719 C1717 1.279 . S
C1720 C1717 1.358 . S
C1720 C1721 1.356 . S
C1720 H1757 0.930 . S
C1721 C1718 1.348 . S
C1721 C1720 1.356 . S
H1722 C1716 0.930 . S
H1723 C1717 0.930 . S
C1724 N1725 1.314 . S
C1724 C1726 1.353 . S
C1724 H1730 0.930 . S
N1725 Li1675 1.990 . S
N1725 C1724 1.314 . S
N1725 C1728 1.279 . S
C1726 C1724 1.353 . S
C1726 C1729 1.348 . S
C1726 H1758 0.929 . S
C1727 C1728 1.358 . S
C1727 C1729 1.356 . S
C1727 H1759 0.930 . S
C1728 N1725 1.279 . S
C1728 C1727 1.358 . S
C1728 H1731 0.930 . S
C1729 C1726 1.348 . S
C1729 C1727 1.356 . S
H1730 C1724 0.930 . S
H1731 C1728 0.930 . S
O1732 Li1672 1.956 . S
O1732 Li1673 1.970 . S
O1732 Li1674 1.961 . S
O1732 C1676 1.325 . S
O1733 Li1672 1.970 . S
O1733 Li1673 1.956 . S
O1733 Li1675 1.961 . S
O1733 C1682 1.325 . S
O1734 Li1672 1.961 . S
O1734 Li1674 1.956 . S
O1734 Li1675 1.970 . S
O1734 C1704 1.325 . S
O1735 Li1673 1.961 . S
O1735 Li1674 1.970 . S
O1735 Li1675 1.956 . S
O1735 C1710 1.325 . S
H1736 C1678 0.929 . S
H1737 C1679 0.930 . S
H1738 C1680 0.930 . S
H1739 C1681 0.930 . S
H1740 C1683 0.930 . S
H1741 C1685 0.929 . S
H1742 C1686 0.930 . S
H1743 C1687 0.930 . S
H1744 C1690 0.930 . S
H1745 C1693 0.929 . S
H1746 C1698 0.929 . S
H1747 C1699 0.930 . S
H1748 C1706 0.929 . S
H1749 C1707 0.930 . S
H1750 C1708 0.930 . S
H1751 C1709 0.930 . S
H1752 C1711 0.929 . S
H1753 C1712 0.930 . S
H1754 C1713 0.930 . S
H1755 C1714 0.930 . S
H1756 C1718 0.929 . S
H1757 C1720 0.930 . S
H1758 C1726 0.929 . S
H1759 C1727 0.930 . S
Li1760 N1777 1.990 . S
Li1760 O1820 1.956 . S
Li1760 O1821 1.970 . S
Li1760 O1822 1.961 . S
Li1761 N1785 1.990 . S
Li1761 O1820 1.970 . S
Li1761 O1821 1.956 . S
Li1761 O1823 1.961 . S
Li1762 N1807 1.990 . S
Li1762 O1820 1.961 . S
Li1762 O1822 1.956 . S
Li1762 O1823 1.970 . S
Li1763 N1813 1.990 . S
Li1763 O1821 1.961 . S
Li1763 O1822 1.970 . S
Li1763 O1823 1.956 . S
C1764 C1766 1.348 . S
C1764 C1767 1.356 . S
C1764 O1820 1.325 . S
N1765 C1768 1.314 . S
N1765 C1769 1.279 . S
C1766 C1764 1.348 . S
C1766 C1768 1.353 . S
C1766 H1824 0.929 . S
C1767 C1764 1.356 . S
C1767 C1769 1.358 . S
C1767 H1825 0.930 . S
C1768 N1765 1.314 . S
C1768 C1766 1.353 . S
C1768 H1826 0.930 . S
C1769 N1765 1.279 . S
C1769 C1767 1.358 . S
C1769 H1827 0.930 . S
C1770 C1773 1.348 . S
C1770 C1774 1.356 . S
C1770 O1821 1.325 . S
C1771 N1772 1.279 . S
C1771 C1774 1.358 . S
C1771 H1828 0.930 . S
N1772 C1771 1.279 . S
N1772 C1775 1.314 . S
C1773 C1770 1.348 . S
C1773 C1775 1.353 . S
C1773 H1829 0.929 . S
C1774 C1770 1.356 . S
C1774 C1771 1.358 . S
C1774 H1830 0.930 . S
C1775 N1772 1.314 . S
C1775 C1773 1.353 . S
C1775 H1831 0.930 . S
C1776 N1777 1.314 . S
C1776 C1781 1.353 . S
C1776 H1782 0.930 . S
N1777 Li1760 1.990 . S
N1777 C1776 1.314 . S
N1777 C1779 1.279 . S
C1778 C1779 1.358 . S
C1778 C1780 1.356 . S
C1778 H1832 0.930 . S
C1779 N1777 1.279 . S
C1779 C1778 1.358 . S
C1779 H1783 0.930 . S
C1780 C1778 1.356 . S
C1780 C1781 1.348 . S
C1781 C1776 1.353 . S
C1781 C1780 1.348 . S
C1781 H1833 0.929 . S
H1782 C1776 0.930 . S
H1783 C1779 0.930 . S
C1784 N1785 1.314 . S
C1784 C1786 1.353 . S
C1784 H1790 0.930 . S
N1785 Li1761 1.990 . S
N1785 C1784 1.314 . S
N1785 C1788 1.279 . S
C1786 C1784 1.353 . S
C1786 C1789 1.348 . S
C1786 H1834 0.929 . S
C1787 C1788 1.358 . S
C1787 C1789 1.356 . S
C1787 H1835 0.930 . S
C1788 N1785 1.279 . S
C1788 C1787 1.358 . S
C1788 H1791 0.930 . S
C1789 C1786 1.348 . S
C1789 C1787 1.356 . S
H1790 C1784 0.930 . S
H1791 C1788 0.930 . S
C1792 C1794 1.348 . S
C1792 C1795 1.356 . S
C1792 O1822 1.325 . S
N1793 C1796 1.314 . S
N1793 C1797 1.279 . S
C1794 C1792 1.348 . S
C1794 C1796 1.353 . S
C1794 H1836 0.929 . S
C1795 C1792 1.356 . S
C1795 C1797 1.358 . S
C1795 H1837 0.930 . S
C1796 N1793 1.314 . S
C1796 C1794 1.353 . S
C1796 H1838 0.930 . S
C1797 N1793 1.279 . S
C1797 C1795 1.358 . S
C1797 H1839 0.930 . S
C1798 C1799 1.348 . S
C1798 C1800 1.356 . S
C1798 O1823 1.325 . S
C1799 C1798 1.348 . S
C1799 C1801 1.353 . S
C1799 H1840 0.929 . S
C1800 C1798 1.356 . S
C1800 C1802 1.358 . S
C1800 H1841 0.930 . S
C1801 C1799 1.353 . S
C1801 N1803 1.314 . S
C1801 H1842 0.930 . S
C1802 C1800 1.358 . S
C1802 N1803 1.279 . S
C1802 H1843 0.930 . S
N1803 C1801 1.314 . S
N1803 C1802 1.279 . S
C1804 C1806 1.353 . S
C1804 N1807 1.314 . S
C1804 H1810 0.930 . S
C1805 N1807 1.279 . S
C1805 C1808 1.358 . S
C1805 H1811 0.930 . S
C1806 C1804 1.353 . S
C1806 C1809 1.348 . S
C1806 H1844 0.929 . S
N1807 Li1762 1.990 . S
N1807 C1804 1.314 . S
N1807 C1805 1.279 . S
C1808 C1805 1.358 . S
C1808 C1809 1.356 . S
C1808 H1845 0.930 . S
C1809 C1806 1.348 . S
C1809 C1808 1.356 . S
H1810 C1804 0.930 . S
H1811 C1805 0.930 . S
C1812 N1813 1.314 . S
C1812 C1814 1.353 . S
C1812 H1818 0.930 . S
N1813 Li1763 1.990 . S
N1813 C1812 1.314 . S
N1813 C1816 1.279 . S
C1814 C1812 1.353 . S
C1814 C1817 1.348 . S
C1814 H1846 0.929 . S
C1815 C1816 1.358 . S
C1815 C1817 1.356 . S
C1815 H1847 0.930 . S
C1816 N1813 1.279 . S
C1816 C1815 1.358 . S
C1816 H1819 0.930 . S
C1817 C1814 1.348 . S
C1817 C1815 1.356 . S
H1818 C1812 0.930 . S
H1819 C1816 0.930 . S
O1820 Li1760 1.956 . S
O1820 Li1761 1.970 . S
O1820 Li1762 1.961 . S
O1820 C1764 1.325 . S
O1821 Li1760 1.970 . S
O1821 Li1761 1.956 . S
O1821 Li1763 1.961 . S
O1821 C1770 1.325 . S
O1822 Li1760 1.961 . S
O1822 Li1762 1.956 . S
O1822 Li1763 1.970 . S
O1822 C1792 1.325 . S
O1823 Li1761 1.961 . S
O1823 Li1762 1.970 . S
O1823 Li1763 1.956 . S
O1823 C1798 1.325 . S
H1824 C1766 0.929 . S
H1825 C1767 0.930 . S
H1826 C1768 0.930 . S
H1827 C1769 0.930 . S
H1828 C1771 0.930 . S
H1829 C1773 0.929 . S
H1830 C1774 0.930 . S
H1831 C1775 0.930 . S
H1832 C1778 0.930 . S
H1833 C1781 0.929 . S
H1834 C1786 0.929 . S
H1835 C1787 0.930 . S
H1836 C1794 0.929 . S
H1837 C1795 0.930 . S
H1838 C1796 0.930 . S
H1839 C1797 0.930 . S
H1840 C1799 0.929 . S
H1841 C1800 0.930 . S
H1842 C1801 0.930 . S
H1843 C1802 0.930 . S
H1844 C1806 0.929 . S
H1845 C1808 0.930 . S
H1846 C1814 0.929 . S
H1847 C1815 0.930 . S
Li1848 N1865 1.990 . S
Li1848 O1908 1.956 . S
Li1848 O1909 1.970 . S
Li1848 O1910 1.961 . S
Li1849 N1873 1.990 . S
Li1849 O1908 1.970 . S
Li1849 O1909 1.956 . S
Li1849 O1911 1.961 . S
Li1850 N1895 1.990 . S
Li1850 O1908 1.961 . S
Li1850 O1910 1.956 . S
Li1850 O1911 1.970 . S
Li1851 N1901 1.990 1_556 S
Li1851 O1909 1.961 . S
Li1851 O1910 1.970 . S
Li1851 O1911 1.956 . S
C1852 C1854 1.348 . S
C1852 C1855 1.356 . S
C1852 O1908 1.325 . S
N1853 C1856 1.314 . S
N1853 C1857 1.279 . S
C1854 C1852 1.348 . S
C1854 C1856 1.353 . S
C1854 H1912 0.929 . S
C1855 C1852 1.356 . S
C1855 C1857 1.358 . S
C1855 H1913 0.930 . S
C1856 N1853 1.314 . S
C1856 C1854 1.353 . S
C1856 H1914 0.930 . S
C1857 N1853 1.279 . S
C1857 C1855 1.358 . S
C1857 H1915 0.930 . S
C1858 C1861 1.348 1_556 S
C1858 C1862 1.356 1_556 S
C1858 O1909 1.325 . S
C1859 N1860 1.279 . S
C1859 C1862 1.358 . S
C1859 H1916 0.930 . S
N1860 C1859 1.279 . S
N1860 C1863 1.314 . S
C1861 C1858 1.348 1_554 S
C1861 C1863 1.353 . S
C1861 H1917 0.929 1_554 S
C1862 C1858 1.356 1_554 S
C1862 C1859 1.358 . S
C1862 H1918 0.930 . S
C1863 N1860 1.314 . S
C1863 C1861 1.353 . S
C1863 H1919 0.930 . S
C1864 N1865 1.314 . S
C1864 C1869 1.353 . S
C1864 H1870 0.930 . S
N1865 Li1848 1.990 . S
N1865 C1864 1.314 . S
N1865 C1867 1.279 . S
C1866 C1867 1.358 . S
C1866 C1868 1.356 . S
C1866 H1920 0.930 . S
C1867 N1865 1.279 . S
C1867 C1866 1.358 . S
C1867 H1871 0.930 . S
C1868 C1866 1.356 . S
C1868 C1869 1.348 . S
C1869 C1864 1.353 . S
C1869 C1868 1.348 . S
C1869 H1921 0.929 1_556 S
H1870 C1864 0.930 . S
H1871 C1867 0.930 . S
C1872 N1873 1.314 . S
C1872 C1874 1.353 . S
C1872 H1878 0.930 . S
N1873 Li1849 1.990 . S
N1873 C1872 1.314 . S
N1873 C1876 1.279 . S
C1874 C1872 1.353 . S
C1874 C1877 1.348 . S
C1874 H1922 0.929 . S
C1875 C1876 1.358 . S
C1875 C1877 1.356 . S
C1875 H1923 0.930 . S
C1876 N1873 1.279 . S
C1876 C1875 1.358 . S
C1876 H1879 0.930 . S
C1877 C1874 1.348 . S
C1877 C1875 1.356 . S
H1878 C1872 0.930 . S
H1879 C1876 0.930 . S
C1880 C1882 1.348 . S
C1880 C1883 1.356 . S
C1880 O1910 1.325 . S
N1881 C1884 1.314 . S
N1881 C1885 1.279 . S
C1882 C1880 1.348 . S
C1882 C1884 1.353 . S
C1882 H1924 0.929 . S
C1883 C1880 1.356 . S
C1883 C1885 1.358 . S
C1883 H1925 0.930 . S
C1884 N1881 1.314 . S
C1884 C1882 1.353 . S
C1884 H1926 0.930 . S
C1885 N1881 1.279 . S
C1885 C1883 1.358 . S
C1885 H1927 0.930 . S
C1886 C1887 1.348 . S
C1886 C1888 1.356 . S
C1886 O1911 1.325 . S
C1887 C1886 1.348 . S
C1887 C1889 1.353 . S
C1887 H1928 0.929 . S
C1888 C1886 1.356 . S
C1888 C1890 1.358 . S
C1888 H1929 0.930 . S
C1889 C1887 1.353 . S
C1889 N1891 1.314 . S
C1889 H1930 0.930 . S
C1890 C1888 1.358 . S
C1890 N1891 1.279 . S
C1890 H1931 0.930 . S
N1891 C1889 1.314 . S
N1891 C1890 1.279 . S
C1892 C1894 1.353 . S
C1892 N1895 1.314 . S
C1892 H1898 0.930 . S
C1893 N1895 1.279 . S
C1893 C1896 1.358 . S
C1893 H1899 0.930 . S
C1894 C1892 1.353 . S
C1894 C1897 1.348 . S
C1894 H1932 0.929 . S
N1895 Li1850 1.990 . S
N1895 C1892 1.314 . S
N1895 C1893 1.279 . S
C1896 C1893 1.358 . S
C1896 C1897 1.356 . S
C1896 H1933 0.930 . S
C1897 C1894 1.348 . S
C1897 C1896 1.356 . S
H1898 C1892 0.930 . S
H1899 C1893 0.930 . S
C1900 N1901 1.314 . S
C1900 C1902 1.353 . S
C1900 H1906 0.930 . S
N1901 Li1851 1.990 1_554 S
N1901 C1900 1.314 . S
N1901 C1904 1.279 . S
C1902 C1900 1.353 . S
C1902 C1905 1.348 . S
C1902 H1934 0.929 . S
C1903 C1904 1.358 . S
C1903 C1905 1.356 . S
C1903 H1935 0.930 . S
C1904 N1901 1.279 . S
C1904 C1903 1.358 . S
C1904 H1907 0.930 1_554 S
C1905 C1902 1.348 . S
C1905 C1903 1.356 . S
H1906 C1900 0.930 . S
H1907 C1904 0.930 1_556 S
O1908 Li1848 1.956 . S
O1908 Li1849 1.970 . S
O1908 Li1850 1.961 . S
O1908 C1852 1.325 . S
O1909 Li1848 1.970 . S
O1909 Li1849 1.956 . S
O1909 Li1851 1.961 . S
O1909 C1858 1.325 . S
O1910 Li1848 1.961 . S
O1910 Li1850 1.956 . S
O1910 Li1851 1.970 . S
O1910 C1880 1.325 . S
O1911 Li1849 1.961 . S
O1911 Li1850 1.970 . S
O1911 Li1851 1.956 . S
O1911 C1886 1.325 . S
H1912 C1854 0.929 . S
H1913 C1855 0.930 . S
H1914 C1856 0.930 . S
H1915 C1857 0.930 . S
H1916 C1859 0.930 . S
H1917 C1861 0.929 1_556 S
H1918 C1862 0.930 . S
H1919 C1863 0.930 . S
H1920 C1866 0.930 . S
H1921 C1869 0.929 1_554 S
H1922 C1874 0.929 . S
H1923 C1875 0.930 . S
H1924 C1882 0.929 . S
H1925 C1883 0.930 . S
H1926 C1884 0.930 . S
H1927 C1885 0.930 . S
H1928 C1887 0.929 . S
H1929 C1888 0.930 . S
H1930 C1889 0.930 . S
H1931 C1890 0.930 . S
H1932 C1894 0.929 . S
H1933 C1896 0.930 . S
H1934 C1902 0.929 . S
H1935 C1903 0.930 . S
Li1936 N1953 1.990 . S
Li1936 O1996 1.956 . S
Li1936 O1997 1.970 . S
Li1936 O1998 1.961 . S
Li1937 N1961 1.990 . S
Li1937 O1996 1.970 . S
Li1937 O1997 1.956 . S
Li1937 O1999 1.961 . S
Li1938 N1983 1.990 . S
Li1938 O1996 1.961 . S
Li1938 O1998 1.956 . S
Li1938 O1999 1.970 . S
Li1939 N1989 1.990 1_556 S
Li1939 O1997 1.961 . S
Li1939 O1998 1.970 . S
Li1939 O1999 1.956 . S
C1940 C1942 1.348 . S
C1940 C1943 1.356 . S
C1940 O1996 1.325 . S
N1941 C1944 1.314 . S
N1941 C1945 1.279 . S
C1942 C1940 1.348 . S
C1942 C1944 1.353 . S
C1942 H2000 0.929 . S
C1943 C1940 1.356 . S
C1943 C1945 1.358 . S
C1943 H2001 0.930 . S
C1944 N1941 1.314 . S
C1944 C1942 1.353 . S
C1944 H2002 0.930 . S
C1945 N1941 1.279 . S
C1945 C1943 1.358 . S
C1945 H2003 0.930 . S
C1946 C1949 1.348 1_556 S
C1946 C1950 1.356 1_556 S
C1946 O1997 1.325 . S
C1947 N1948 1.279 . S
C1947 C1950 1.358 . S
C1947 H2004 0.930 . S
N1948 C1947 1.279 . S
N1948 C1951 1.314 . S
C1949 C1946 1.348 1_554 S
C1949 C1951 1.353 . S
C1949 H2005 0.929 1_554 S
C1950 C1946 1.356 1_554 S
C1950 C1947 1.358 . S
C1950 H2006 0.930 . S
C1951 N1948 1.314 . S
C1951 C1949 1.353 . S
C1951 H2007 0.930 . S
C1952 N1953 1.314 . S
C1952 C1957 1.353 . S
C1952 H1958 0.930 . S
N1953 Li1936 1.990 . S
N1953 C1952 1.314 . S
N1953 C1955 1.279 . S
C1954 C1955 1.358 . S
C1954 C1956 1.356 . S
C1954 H2008 0.930 . S
C1955 N1953 1.279 . S
C1955 C1954 1.358 . S
C1955 H1959 0.930 . S
C1956 C1954 1.356 . S
C1956 C1957 1.348 . S
C1957 C1952 1.353 . S
C1957 C1956 1.348 . S
C1957 H2009 0.929 1_556 S
H1958 C1952 0.930 . S
H1959 C1955 0.930 . S
C1960 N1961 1.314 . S
C1960 C1962 1.353 . S
C1960 H1966 0.930 . S
N1961 Li1937 1.990 . S
N1961 C1960 1.314 . S
N1961 C1964 1.279 . S
C1962 C1960 1.353 . S
C1962 C1965 1.348 . S
C1962 H2010 0.929 . S
C1963 C1964 1.358 . S
C1963 C1965 1.356 . S
C1963 H2011 0.930 . S
C1964 N1961 1.279 . S
C1964 C1963 1.358 . S
C1964 H1967 0.930 . S
C1965 C1962 1.348 . S
C1965 C1963 1.356 . S
H1966 C1960 0.930 . S
H1967 C1964 0.930 . S
C1968 C1970 1.348 . S
C1968 C1971 1.356 . S
C1968 O1998 1.325 . S
N1969 C1972 1.314 . S
N1969 C1973 1.279 . S
C1970 C1968 1.348 . S
C1970 C1972 1.353 . S
C1970 H2012 0.929 . S
C1971 C1968 1.356 . S
C1971 C1973 1.358 . S
C1971 H2013 0.930 . S
C1972 N1969 1.314 . S
C1972 C1970 1.353 . S
C1972 H2014 0.930 . S
C1973 N1969 1.279 . S
C1973 C1971 1.358 . S
C1973 H2015 0.930 . S
C1974 C1975 1.348 . S
C1974 C1976 1.356 . S
C1974 O1999 1.325 . S
C1975 C1974 1.348 . S
C1975 C1977 1.353 . S
C1975 H2016 0.929 . S
C1976 C1974 1.356 . S
C1976 C1978 1.358 . S
C1976 H2017 0.930 . S
C1977 C1975 1.353 . S
C1977 N1979 1.314 . S
C1977 H2018 0.930 . S
C1978 C1976 1.358 . S
C1978 N1979 1.279 . S
C1978 H2019 0.930 . S
N1979 C1977 1.314 . S
N1979 C1978 1.279 . S
C1980 C1982 1.353 . S
C1980 N1983 1.314 . S
C1980 H1986 0.930 . S
C1981 N1983 1.279 . S
C1981 C1984 1.358 . S
C1981 H1987 0.930 . S
C1982 C1980 1.353 . S
C1982 C1985 1.348 . S
C1982 H2020 0.929 . S
N1983 Li1938 1.990 . S
N1983 C1980 1.314 . S
N1983 C1981 1.279 . S
C1984 C1981 1.358 . S
C1984 C1985 1.356 . S
C1984 H2021 0.930 . S
C1985 C1982 1.348 . S
C1985 C1984 1.356 . S
H1986 C1980 0.930 . S
H1987 C1981 0.930 . S
C1988 N1989 1.314 . S
C1988 C1990 1.353 . S
C1988 H1994 0.930 . S
N1989 Li1939 1.990 1_554 S
N1989 C1988 1.314 . S
N1989 C1992 1.279 . S
C1990 C1988 1.353 . S
C1990 C1993 1.348 . S
C1990 H2022 0.929 . S
C1991 C1992 1.358 . S
C1991 C1993 1.356 . S
C1991 H2023 0.930 . S
C1992 N1989 1.279 . S
C1992 C1991 1.358 . S
C1992 H1995 0.930 1_554 S
C1993 C1990 1.348 . S
C1993 C1991 1.356 . S
H1994 C1988 0.930 . S
H1995 C1992 0.930 1_556 S
O1996 Li1936 1.956 . S
O1996 Li1937 1.970 . S
O1996 Li1938 1.961 . S
O1996 C1940 1.325 . S
O1997 Li1936 1.970 . S
O1997 Li1937 1.956 . S
O1997 Li1939 1.961 . S
O1997 C1946 1.325 . S
O1998 Li1936 1.961 . S
O1998 Li1938 1.956 . S
O1998 Li1939 1.970 . S
O1998 C1968 1.325 . S
O1999 Li1937 1.961 . S
O1999 Li1938 1.970 . S
O1999 Li1939 1.956 . S
O1999 C1974 1.325 . S
H2000 C1942 0.929 . S
H2001 C1943 0.930 . S
H2002 C1944 0.930 . S
H2003 C1945 0.930 . S
H2004 C1947 0.930 . S
H2005 C1949 0.929 1_556 S
H2006 C1950 0.930 . S
H2007 C1951 0.930 . S
H2008 C1954 0.930 . S
H2009 C1957 0.929 1_554 S
H2010 C1962 0.929 . S
H2011 C1963 0.930 . S
H2012 C1970 0.929 . S
H2013 C1971 0.930 . S
H2014 C1972 0.930 . S
H2015 C1973 0.930 . S
H2016 C1975 0.929 . S
H2017 C1976 0.930 . S
H2018 C1977 0.930 . S
H2019 C1978 0.930 . S
H2020 C1982 0.929 . S
H2021 C1984 0.930 . S
H2022 C1990 0.929 . S
H2023 C1991 0.930 . S
Li2024 N2041 1.990 . S
Li2024 O2084 1.956 . S
Li2024 O2085 1.970 . S
Li2024 O2086 1.961 . S
Li2025 N2049 1.990 1_556 S
Li2025 O2084 1.970 . S
Li2025 O2085 1.956 . S
Li2025 O2087 1.961 . S
Li2026 N2071 1.990 . S
Li2026 O2084 1.961 . S
Li2026 O2086 1.956 . S
Li2026 O2087 1.970 . S
Li2027 N2077 1.990 . S
Li2027 O2085 1.961 . S
Li2027 O2086 1.970 . S
Li2027 O2087 1.956 . S
C2028 C2030 1.348 . S
C2028 C2031 1.356 . S
C2028 O2084 1.325 . S
N2029 C2032 1.314 . S
N2029 C2033 1.279 . S
C2030 C2028 1.348 . S
C2030 C2032 1.353 . S
C2030 H2088 0.929 . S
C2031 C2028 1.356 . S
C2031 C2033 1.358 . S
C2031 H2089 0.930 . S
C2032 N2029 1.314 . S
C2032 C2030 1.353 . S
C2032 H2090 0.930 . S
C2033 N2029 1.279 . S
C2033 C2031 1.358 . S
C2033 H2091 0.930 . S
C2034 C2037 1.348 . S
C2034 C2038 1.356 . S
C2034 O2085 1.325 . S
C2035 N2036 1.279 . S
C2035 C2038 1.358 . S
C2035 H2092 0.930 . S
N2036 C2035 1.279 . S
N2036 C2039 1.314 . S
C2037 C2034 1.348 . S
C2037 C2039 1.353 . S
C2037 H2093 0.929 . S
C2038 C2034 1.356 . S
C2038 C2035 1.358 . S
C2038 H2094 0.930 . S
C2039 N2036 1.314 . S
C2039 C2037 1.353 . S
C2039 H2095 0.930 . S
C2040 N2041 1.314 . S
C2040 C2045 1.353 . S
C2040 H2046 0.930 . S
N2041 Li2024 1.990 . S
N2041 C2040 1.314 . S
N2041 C2043 1.279 . S
C2042 C2043 1.358 . S
C2042 C2044 1.356 . S
C2042 H2096 0.930 . S
C2043 N2041 1.279 . S
C2043 C2042 1.358 . S
C2043 H2047 0.930 . S
C2044 C2042 1.356 . S
C2044 C2045 1.348 . S
C2045 C2040 1.353 . S
C2045 C2044 1.348 . S
C2045 H2097 0.929 . S
H2046 C2040 0.930 . S
H2047 C2043 0.930 . S
C2048 N2049 1.314 . S
C2048 C2050 1.353 . S
C2048 H2054 0.930 . S
N2049 Li2025 1.990 1_554 S
N2049 C2048 1.314 . S
N2049 C2052 1.279 . S
C2050 C2048 1.353 . S
C2050 C2053 1.348 . S
C2050 H2098 0.929 . S
C2051 C2052 1.358 . S
C2051 C2053 1.356 . S
C2051 H2099 0.930 . S
C2052 N2049 1.279 . S
C2052 C2051 1.358 . S
C2052 H2055 0.930 1_554 S
C2053 C2050 1.348 . S
C2053 C2051 1.356 . S
H2054 C2048 0.930 . S
H2055 C2052 0.930 1_556 S
C2056 C2058 1.348 . S
C2056 C2059 1.356 . S
C2056 O2086 1.325 . S
N2057 C2060 1.314 . S
N2057 C2061 1.279 . S
C2058 C2056 1.348 . S
C2058 C2060 1.353 . S
C2058 H2100 0.929 . S
C2059 C2056 1.356 . S
C2059 C2061 1.358 . S
C2059 H2101 0.930 . S
C2060 N2057 1.314 . S
C2060 C2058 1.353 . S
C2060 H2102 0.930 . S
C2061 N2057 1.279 . S
C2061 C2059 1.358 . S
C2061 H2103 0.930 . S
C2062 C2063 1.348 1_556 S
C2062 C2064 1.356 1_556 S
C2062 O2087 1.325 . S
C2063 C2062 1.348 1_554 S
C2063 C2065 1.353 . S
C2063 H2104 0.929 1_554 S
C2064 C2062 1.356 1_554 S
C2064 C2066 1.358 . S
C2064 H2105 0.930 . S
C2065 C2063 1.353 . S
C2065 N2067 1.314 . S
C2065 H2106 0.930 . S
C2066 C2064 1.358 . S
C2066 N2067 1.279 . S
C2066 H2107 0.930 . S
N2067 C2065 1.314 . S
N2067 C2066 1.279 . S
C2068 C2070 1.353 . S
C2068 N2071 1.314 . S
C2068 H2074 0.930 . S
C2069 N2071 1.279 . S
C2069 C2072 1.358 . S
C2069 H2075 0.930 . S
C2070 C2068 1.353 . S
C2070 C2073 1.348 . S
C2070 H2108 0.929 1_556 S
N2071 Li2026 1.990 . S
N2071 C2068 1.314 . S
N2071 C2069 1.279 . S
C2072 C2069 1.358 . S
C2072 C2073 1.356 . S
C2072 H2109 0.930 . S
C2073 C2070 1.348 . S
C2073 C2072 1.356 . S
H2074 C2068 0.930 . S
H2075 C2069 0.930 . S
C2076 N2077 1.314 . S
C2076 C2078 1.353 . S
C2076 H2082 0.930 . S
N2077 Li2027 1.990 . S
N2077 C2076 1.314 . S
N2077 C2080 1.279 . S
C2078 C2076 1.353 . S
C2078 C2081 1.348 . S
C2078 H2110 0.929 . S
C2079 C2080 1.358 . S
C2079 C2081 1.356 . S
C2079 H2111 0.930 . S
C2080 N2077 1.279 . S
C2080 C2079 1.358 . S
C2080 H2083 0.930 . S
C2081 C2078 1.348 . S
C2081 C2079 1.356 . S
H2082 C2076 0.930 . S
H2083 C2080 0.930 . S
O2084 Li2024 1.956 . S
O2084 Li2025 1.970 . S
O2084 Li2026 1.961 . S
O2084 C2028 1.325 . S
O2085 Li2024 1.970 . S
O2085 Li2025 1.956 . S
O2085 Li2027 1.961 . S
O2085 C2034 1.325 . S
O2086 Li2024 1.961 . S
O2086 Li2026 1.956 . S
O2086 Li2027 1.970 . S
O2086 C2056 1.325 . S
O2087 Li2025 1.961 . S
O2087 Li2026 1.970 . S
O2087 Li2027 1.956 . S
O2087 C2062 1.325 . S
H2088 C2030 0.929 . S
H2089 C2031 0.930 . S
H2090 C2032 0.930 . S
H2091 C2033 0.930 . S
H2092 C2035 0.930 . S
H2093 C2037 0.929 . S
H2094 C2038 0.930 . S
H2095 C2039 0.930 . S
H2096 C2042 0.930 . S
H2097 C2045 0.929 . S
H2098 C2050 0.929 . S
H2099 C2051 0.930 . S
H2100 C2058 0.929 . S
H2101 C2059 0.930 . S
H2102 C2060 0.930 . S
H2103 C2061 0.930 . S
H2104 C2063 0.929 1_556 S
H2105 C2064 0.930 . S
H2106 C2065 0.930 . S
H2107 C2066 0.930 . S
H2108 C2070 0.929 1_554 S
H2109 C2072 0.930 . S
H2110 C2078 0.929 . S
H2111 C2079 0.930 . S
Li2112 N2129 1.990 . S
Li2112 O2172 1.956 . S
Li2112 O2173 1.970 . S
Li2112 O2174 1.961 . S
Li2113 N2137 1.990 . S
Li2113 O2172 1.970 . S
Li2113 O2173 1.956 . S
Li2113 O2175 1.961 . S
Li2114 N2159 1.990 . S
Li2114 O2172 1.961 . S
Li2114 O2174 1.956 . S
Li2114 O2175 1.970 . S
Li2115 N2165 1.990 . S
Li2115 O2173 1.961 . S
Li2115 O2174 1.970 . S
Li2115 O2175 1.956 . S
C2116 C2118 1.348 . S
C2116 C2119 1.356 . S
C2116 O2172 1.325 . S
N2117 C2120 1.314 . S
N2117 C2121 1.279 . S
C2118 C2116 1.348 . S
C2118 C2120 1.353 . S
C2118 H2176 0.929 . S
C2119 C2116 1.356 . S
C2119 C2121 1.358 . S
C2119 H2177 0.930 . S
C2120 N2117 1.314 . S
C2120 C2118 1.353 . S
C2120 H2178 0.930 . S
C2121 N2117 1.279 . S
C2121 C2119 1.358 . S
C2121 H2179 0.930 . S
C2122 C2125 1.348 . S
C2122 C2126 1.356 . S
C2122 O2173 1.325 . S
C2123 N2124 1.279 . S
C2123 C2126 1.358 . S
C2123 H2180 0.930 . S
N2124 C2123 1.279 . S
N2124 C2127 1.314 . S
C2125 C2122 1.348 . S
C2125 C2127 1.353 . S
C2125 H2181 0.929 . S
C2126 C2122 1.356 . S
C2126 C2123 1.358 . S
C2126 H2182 0.930 . S
C2127 N2124 1.314 . S
C2127 C2125 1.353 . S
C2127 H2183 0.930 . S
C2128 N2129 1.314 . S
C2128 C2133 1.353 . S
C2128 H2134 0.930 . S
N2129 Li2112 1.990 . S
N2129 C2128 1.314 . S
N2129 C2131 1.279 . S
C2130 C2131 1.358 . S
C2130 C2132 1.356 . S
C2130 H2184 0.930 . S
C2131 N2129 1.279 . S
C2131 C2130 1.358 . S
C2131 H2135 0.930 . S
C2132 C2130 1.356 . S
C2132 C2133 1.348 . S
C2133 C2128 1.353 . S
C2133 C2132 1.348 . S
C2133 H2185 0.929 . S
H2134 C2128 0.930 . S
H2135 C2131 0.930 . S
C2136 N2137 1.314 . S
C2136 C2138 1.353 . S
C2136 H2142 0.930 . S
N2137 Li2113 1.990 . S
N2137 C2136 1.314 . S
N2137 C2140 1.279 . S
C2138 C2136 1.353 . S
C2138 C2141 1.348 . S
C2138 H2186 0.929 . S
C2139 C2140 1.358 . S
C2139 C2141 1.356 . S
C2139 H2187 0.930 . S
C2140 N2137 1.279 . S
C2140 C2139 1.358 . S
C2140 H2143 0.930 . S
C2141 C2138 1.348 . S
C2141 C2139 1.356 . S
H2142 C2136 0.930 . S
H2143 C2140 0.930 . S
C2144 C2146 1.348 . S
C2144 C2147 1.356 . S
C2144 O2174 1.325 . S
N2145 C2148 1.314 . S
N2145 C2149 1.279 . S
C2146 C2144 1.348 . S
C2146 C2148 1.353 . S
C2146 H2188 0.929 . S
C2147 C2144 1.356 . S
C2147 C2149 1.358 . S
C2147 H2189 0.930 . S
C2148 N2145 1.314 . S
C2148 C2146 1.353 . S
C2148 H2190 0.930 . S
C2149 N2145 1.279 . S
C2149 C2147 1.358 . S
C2149 H2191 0.930 . S
C2150 C2151 1.348 . S
C2150 C2152 1.356 . S
C2150 O2175 1.325 . S
C2151 C2150 1.348 . S
C2151 C2153 1.353 . S
C2151 H2192 0.929 . S
C2152 C2150 1.356 . S
C2152 C2154 1.358 . S
C2152 H2193 0.930 . S
C2153 C2151 1.353 . S
C2153 N2155 1.314 . S
C2153 H2194 0.930 . S
C2154 C2152 1.358 . S
C2154 N2155 1.279 . S
C2154 H2195 0.930 . S
N2155 C2153 1.314 . S
N2155 C2154 1.279 . S
C2156 C2158 1.353 . S
C2156 N2159 1.314 . S
C2156 H2162 0.930 . S
C2157 N2159 1.279 . S
C2157 C2160 1.358 . S
C2157 H2163 0.930 . S
C2158 C2156 1.353 . S
C2158 C2161 1.348 . S
C2158 H2196 0.929 . S
N2159 Li2114 1.990 . S
N2159 C2156 1.314 . S
N2159 C2157 1.279 . S
C2160 C2157 1.358 . S
C2160 C2161 1.356 . S
C2160 H2197 0.930 . S
C2161 C2158 1.348 . S
C2161 C2160 1.356 . S
H2162 C2156 0.930 . S
H2163 C2157 0.930 . S
C2164 N2165 1.314 . S
C2164 C2166 1.353 . S
C2164 H2170 0.930 . S
N2165 Li2115 1.990 . S
N2165 C2164 1.314 . S
N2165 C2168 1.279 . S
C2166 C2164 1.353 . S
C2166 C2169 1.348 . S
C2166 H2198 0.929 . S
C2167 C2168 1.358 . S
C2167 C2169 1.356 . S
C2167 H2199 0.930 . S
C2168 N2165 1.279 . S
C2168 C2167 1.358 . S
C2168 H2171 0.930 . S
C2169 C2166 1.348 . S
C2169 C2167 1.356 . S
H2170 C2164 0.930 . S
H2171 C2168 0.930 . S
O2172 Li2112 1.956 . S
O2172 Li2113 1.970 . S
O2172 Li2114 1.961 . S
O2172 C2116 1.325 . S
O2173 Li2112 1.970 . S
O2173 Li2113 1.956 . S
O2173 Li2115 1.961 . S
O2173 C2122 1.325 . S
O2174 Li2112 1.961 . S
O2174 Li2114 1.956 . S
O2174 Li2115 1.970 . S
O2174 C2144 1.325 . S
O2175 Li2113 1.961 . S
O2175 Li2114 1.970 . S
O2175 Li2115 1.956 . S
O2175 C2150 1.325 . S
H2176 C2118 0.929 . S
H2177 C2119 0.930 . S
H2178 C2120 0.930 . S
H2179 C2121 0.930 . S
H2180 C2123 0.930 . S
H2181 C2125 0.929 . S
H2182 C2126 0.930 . S
H2183 C2127 0.930 . S
H2184 C2130 0.930 . S
H2185 C2133 0.929 . S
H2186 C2138 0.929 . S
H2187 C2139 0.930 . S
H2188 C2146 0.929 . S
H2189 C2147 0.930 . S
H2190 C2148 0.930 . S
H2191 C2149 0.930 . S
H2192 C2151 0.929 . S
H2193 C2152 0.930 . S
H2194 C2153 0.930 . S
H2195 C2154 0.930 . S
H2196 C2158 0.929 . S
H2197 C2160 0.930 . S
H2198 C2166 0.929 . S
H2199 C2167 0.930 . S
Li2200 N2217 1.990 . S
Li2200 O2260 1.956 . S
Li2200 O2261 1.970 . S
Li2200 O2262 1.961 . S
Li2201 N2225 1.990 . S
Li2201 O2260 1.970 . S
Li2201 O2261 1.956 . S
Li2201 O2263 1.961 . S
Li2202 N2247 1.990 . S
Li2202 O2260 1.961 . S
Li2202 O2262 1.956 . S
Li2202 O2263 1.970 . S
Li2203 N2253 1.990 . S
Li2203 O2261 1.961 . S
Li2203 O2262 1.970 . S
Li2203 O2263 1.956 . S
C2204 C2206 1.348 . S
C2204 C2207 1.356 . S
C2204 O2260 1.325 . S
N2205 C2208 1.314 . S
N2205 C2209 1.279 . S
C2206 C2204 1.348 . S
C2206 C2208 1.353 . S
C2206 H2264 0.929 . S
C2207 C2204 1.356 . S
C2207 C2209 1.358 . S
C2207 H2265 0.930 . S
C2208 N2205 1.314 . S
C2208 C2206 1.353 . S
C2208 H2266 0.930 . S
C2209 N2205 1.279 . S
C2209 C2207 1.358 . S
C2209 H2267 0.930 . S
C2210 C2213 1.348 . S
C2210 C2214 1.356 . S
C2210 O2261 1.325 . S
C2211 N2212 1.279 . S
C2211 C2214 1.358 . S
C2211 H2268 0.930 . S
N2212 C2211 1.279 . S
N2212 C2215 1.314 . S
C2213 C2210 1.348 . S
C2213 C2215 1.353 . S
C2213 H2269 0.929 . S
C2214 C2210 1.356 . S
C2214 C2211 1.358 . S
C2214 H2270 0.930 . S
C2215 N2212 1.314 . S
C2215 C2213 1.353 . S
C2215 H2271 0.930 . S
C2216 N2217 1.314 . S
C2216 C2221 1.353 . S
C2216 H2222 0.930 . S
N2217 Li2200 1.990 . S
N2217 C2216 1.314 . S
N2217 C2219 1.279 . S
C2218 C2219 1.358 . S
C2218 C2220 1.356 . S
C2218 H2272 0.930 . S
C2219 N2217 1.279 . S
C2219 C2218 1.358 . S
C2219 H2223 0.930 . S
C2220 C2218 1.356 . S
C2220 C2221 1.348 . S
C2221 C2216 1.353 . S
C2221 C2220 1.348 . S
C2221 H2273 0.929 . S
H2222 C2216 0.930 . S
H2223 C2219 0.930 . S
C2224 N2225 1.314 . S
C2224 C2226 1.353 . S
C2224 H2230 0.930 . S
N2225 Li2201 1.990 . S
N2225 C2224 1.314 . S
N2225 C2228 1.279 . S
C2226 C2224 1.353 . S
C2226 C2229 1.348 . S
C2226 H2274 0.929 . S
C2227 C2228 1.358 . S
C2227 C2229 1.356 . S
C2227 H2275 0.930 . S
C2228 N2225 1.279 . S
C2228 C2227 1.358 . S
C2228 H2231 0.930 . S
C2229 C2226 1.348 . S
C2229 C2227 1.356 . S
H2230 C2224 0.930 . S
H2231 C2228 0.930 . S
C2232 C2234 1.348 . S
C2232 C2235 1.356 . S
C2232 O2262 1.325 . S
N2233 C2236 1.314 . S
N2233 C2237 1.279 . S
C2234 C2232 1.348 . S
C2234 C2236 1.353 . S
C2234 H2276 0.929 . S
C2235 C2232 1.356 . S
C2235 C2237 1.358 . S
C2235 H2277 0.930 . S
C2236 N2233 1.314 . S
C2236 C2234 1.353 . S
C2236 H2278 0.930 . S
C2237 N2233 1.279 . S
C2237 C2235 1.358 . S
C2237 H2279 0.930 . S
C2238 C2239 1.348 . S
C2238 C2240 1.356 . S
C2238 O2263 1.325 . S
C2239 C2238 1.348 . S
C2239 C2241 1.353 . S
C2239 H2280 0.929 . S
C2240 C2238 1.356 . S
C2240 C2242 1.358 . S
C2240 H2281 0.930 . S
C2241 C2239 1.353 . S
C2241 N2243 1.314 . S
C2241 H2282 0.930 . S
C2242 C2240 1.358 . S
C2242 N2243 1.279 . S
C2242 H2283 0.930 . S
N2243 C2241 1.314 . S
N2243 C2242 1.279 . S
C2244 C2246 1.353 . S
C2244 N2247 1.314 . S
C2244 H2250 0.930 . S
C2245 N2247 1.279 . S
C2245 C2248 1.358 . S
C2245 H2251 0.930 . S
C2246 C2244 1.353 . S
C2246 C2249 1.348 . S
C2246 H2284 0.929 . S
N2247 Li2202 1.990 . S
N2247 C2244 1.314 . S
N2247 C2245 1.279 . S
C2248 C2245 1.358 . S
C2248 C2249 1.356 . S
C2248 H2285 0.930 . S
C2249 C2246 1.348 . S
C2249 C2248 1.356 . S
H2250 C2244 0.930 . S
H2251 C2245 0.930 . S
C2252 N2253 1.314 . S
C2252 C2254 1.353 . S
C2252 H2258 0.930 . S
N2253 Li2203 1.990 . S
N2253 C2252 1.314 . S
N2253 C2256 1.279 . S
C2254 C2252 1.353 . S
C2254 C2257 1.348 . S
C2254 H2286 0.929 . S
C2255 C2256 1.358 . S
C2255 C2257 1.356 . S
C2255 H2287 0.930 . S
C2256 N2253 1.279 . S
C2256 C2255 1.358 . S
C2256 H2259 0.930 . S
C2257 C2254 1.348 . S
C2257 C2255 1.356 . S
H2258 C2252 0.930 . S
H2259 C2256 0.930 . S
O2260 Li2200 1.956 . S
O2260 Li2201 1.970 . S
O2260 Li2202 1.961 . S
O2260 C2204 1.325 . S
O2261 Li2200 1.970 . S
O2261 Li2201 1.956 . S
O2261 Li2203 1.961 . S
O2261 C2210 1.325 . S
O2262 Li2200 1.961 . S
O2262 Li2202 1.956 . S
O2262 Li2203 1.970 . S
O2262 C2232 1.325 . S
O2263 Li2201 1.961 . S
O2263 Li2202 1.970 . S
O2263 Li2203 1.956 . S
O2263 C2238 1.325 . S
H2264 C2206 0.929 . S
H2265 C2207 0.930 . S
H2266 C2208 0.930 . S
H2267 C2209 0.930 . S
H2268 C2211 0.930 . S
H2269 C2213 0.929 . S
H2270 C2214 0.930 . S
H2271 C2215 0.930 . S
H2272 C2218 0.930 . S
H2273 C2221 0.929 . S
H2274 C2226 0.929 . S
H2275 C2227 0.930 . S
H2276 C2234 0.929 . S
H2277 C2235 0.930 . S
H2278 C2236 0.930 . S
H2279 C2237 0.930 . S
H2280 C2239 0.929 . S
H2281 C2240 0.930 . S
H2282 C2241 0.930 . S
H2283 C2242 0.930 . S
H2284 C2246 0.929 . S
H2285 C2248 0.930 . S
H2286 C2254 0.929 . S
H2287 C2255 0.930 . S
Li2288 N2305 1.990 . S
Li2288 O2348 1.956 . S
Li2288 O2349 1.970 . S
Li2288 O2350 1.961 . S
Li2289 N2313 1.990 . S
Li2289 O2348 1.970 . S
Li2289 O2349 1.956 . S
Li2289 O2351 1.961 . S
Li2290 N2335 1.990 . S
Li2290 O2348 1.961 . S
Li2290 O2350 1.956 . S
Li2290 O2351 1.970 . S
Li2291 N2341 1.990 . S
Li2291 O2349 1.961 . S
Li2291 O2350 1.970 . S
Li2291 O2351 1.956 . S
C2292 C2294 1.348 . S
C2292 C2295 1.356 . S
C2292 O2348 1.325 . S
N2293 C2296 1.314 . S
N2293 C2297 1.279 . S
C2294 C2292 1.348 . S
C2294 C2296 1.353 . S
C2294 H2352 0.929 . S
C2295 C2292 1.356 . S
C2295 C2297 1.358 . S
C2295 H2353 0.930 . S
C2296 N2293 1.314 . S
C2296 C2294 1.353 . S
C2296 H2354 0.930 . S
C2297 N2293 1.279 . S
C2297 C2295 1.358 . S
C2297 H2355 0.930 . S
C2298 C2301 1.348 . S
C2298 C2302 1.356 . S
C2298 O2349 1.325 . S
C2299 N2300 1.279 . S
C2299 C2302 1.358 . S
C2299 H2356 0.930 . S
N2300 C2299 1.279 . S
N2300 C2303 1.314 . S
C2301 C2298 1.348 . S
C2301 C2303 1.353 . S
C2301 H2357 0.929 . S
C2302 C2298 1.356 . S
C2302 C2299 1.358 . S
C2302 H2358 0.930 . S
C2303 N2300 1.314 . S
C2303 C2301 1.353 . S
C2303 H2359 0.930 . S
C2304 N2305 1.314 . S
C2304 C2309 1.353 . S
C2304 H2310 0.930 . S
N2305 Li2288 1.990 . S
N2305 C2304 1.314 . S
N2305 C2307 1.279 . S
C2306 C2307 1.358 . S
C2306 C2308 1.356 . S
C2306 H2360 0.930 . S
C2307 N2305 1.279 . S
C2307 C2306 1.358 . S
C2307 H2311 0.930 . S
C2308 C2306 1.356 . S
C2308 C2309 1.348 . S
C2309 C2304 1.353 . S
C2309 C2308 1.348 . S
C2309 H2361 0.929 . S
H2310 C2304 0.930 . S
H2311 C2307 0.930 . S
C2312 N2313 1.314 . S
C2312 C2314 1.353 . S
C2312 H2318 0.930 . S
N2313 Li2289 1.990 . S
N2313 C2312 1.314 . S
N2313 C2316 1.279 . S
C2314 C2312 1.353 . S
C2314 C2317 1.348 . S
C2314 H2362 0.929 . S
C2315 C2316 1.358 . S
C2315 C2317 1.356 . S
C2315 H2363 0.930 . S
C2316 N2313 1.279 . S
C2316 C2315 1.358 . S
C2316 H2319 0.930 . S
C2317 C2314 1.348 . S
C2317 C2315 1.356 . S
H2318 C2312 0.930 . S
H2319 C2316 0.930 . S
C2320 C2322 1.348 . S
C2320 C2323 1.356 . S
C2320 O2350 1.325 . S
N2321 C2324 1.314 . S
N2321 C2325 1.279 . S
C2322 C2320 1.348 . S
C2322 C2324 1.353 . S
C2322 H2364 0.929 . S
C2323 C2320 1.356 . S
C2323 C2325 1.358 . S
C2323 H2365 0.930 . S
C2324 N2321 1.314 . S
C2324 C2322 1.353 . S
C2324 H2366 0.930 . S
C2325 N2321 1.279 . S
C2325 C2323 1.358 . S
C2325 H2367 0.930 . S
C2326 C2327 1.348 . S
C2326 C2328 1.356 . S
C2326 O2351 1.325 . S
C2327 C2326 1.348 . S
C2327 C2329 1.353 . S
C2327 H2368 0.929 . S
C2328 C2326 1.356 . S
C2328 C2330 1.358 . S
C2328 H2369 0.930 . S
C2329 C2327 1.353 . S
C2329 N2331 1.314 . S
C2329 H2370 0.930 . S
C2330 C2328 1.358 . S
C2330 N2331 1.279 . S
C2330 H2371 0.930 . S
N2331 C2329 1.314 . S
N2331 C2330 1.279 . S
C2332 C2334 1.353 . S
C2332 N2335 1.314 . S
C2332 H2338 0.930 . S
C2333 N2335 1.279 . S
C2333 C2336 1.358 . S
C2333 H2339 0.930 . S
C2334 C2332 1.353 . S
C2334 C2337 1.348 . S
C2334 H2372 0.929 . S
N2335 Li2290 1.990 . S
N2335 C2332 1.314 . S
N2335 C2333 1.279 . S
C2336 C2333 1.358 . S
C2336 C2337 1.356 . S
C2336 H2373 0.930 . S
C2337 C2334 1.348 . S
C2337 C2336 1.356 . S
H2338 C2332 0.930 . S
H2339 C2333 0.930 . S
C2340 N2341 1.314 . S
C2340 C2342 1.353 . S
C2340 H2346 0.930 . S
N2341 Li2291 1.990 . S
N2341 C2340 1.314 . S
N2341 C2344 1.279 . S
C2342 C2340 1.353 . S
C2342 C2345 1.348 . S
C2342 H2374 0.929 . S
C2343 C2344 1.358 . S
C2343 C2345 1.356 . S
C2343 H2375 0.930 . S
C2344 N2341 1.279 . S
C2344 C2343 1.358 . S
C2344 H2347 0.930 . S
C2345 C2342 1.348 . S
C2345 C2343 1.356 . S
H2346 C2340 0.930 . S
H2347 C2344 0.930 . S
O2348 Li2288 1.956 . S
O2348 Li2289 1.970 . S
O2348 Li2290 1.961 . S
O2348 C2292 1.325 . S
O2349 Li2288 1.970 . S
O2349 Li2289 1.956 . S
O2349 Li2291 1.961 . S
O2349 C2298 1.325 . S
O2350 Li2288 1.961 . S
O2350 Li2290 1.956 . S
O2350 Li2291 1.970 . S
O2350 C2320 1.325 . S
O2351 Li2289 1.961 . S
O2351 Li2290 1.970 . S
O2351 Li2291 1.956 . S
O2351 C2326 1.325 . S
H2352 C2294 0.929 . S
H2353 C2295 0.930 . S
H2354 C2296 0.930 . S
H2355 C2297 0.930 . S
H2356 C2299 0.930 . S
H2357 C2301 0.929 . S
H2358 C2302 0.930 . S
H2359 C2303 0.930 . S
H2360 C2306 0.930 . S
H2361 C2309 0.929 . S
H2362 C2314 0.929 . S
H2363 C2315 0.930 . S
H2364 C2322 0.929 . S
H2365 C2323 0.930 . S
H2366 C2324 0.930 . S
H2367 C2325 0.930 . S
H2368 C2327 0.929 . S
H2369 C2328 0.930 . S
H2370 C2329 0.930 . S
H2371 C2330 0.930 . S
H2372 C2334 0.929 . S
H2373 C2336 0.930 . S
H2374 C2342 0.929 . S
H2375 C2343 0.930 . S
Li2376 N2393 1.990 . S
Li2376 O2436 1.956 . S
Li2376 O2437 1.970 . S
Li2376 O2438 1.961 . S
Li2377 N2401 1.990 . S
Li2377 O2436 1.970 . S
Li2377 O2437 1.956 . S
Li2377 O2439 1.961 . S
Li2378 N2423 1.990 1_554 S
Li2378 O2436 1.961 . S
Li2378 O2438 1.956 . S
Li2378 O2439 1.970 . S
Li2379 N2429 1.990 . S
Li2379 O2437 1.961 . S
Li2379 O2438 1.970 . S
Li2379 O2439 1.956 . S
C2380 C2382 1.348 . S
C2380 C2383 1.356 . S
C2380 O2436 1.325 . S
N2381 C2384 1.314 . S
N2381 C2385 1.279 . S
C2382 C2380 1.348 . S
C2382 C2384 1.353 . S
C2382 H2440 0.929 . S
C2383 C2380 1.356 . S
C2383 C2385 1.358 . S
C2383 H2441 0.930 . S
C2384 N2381 1.314 . S
C2384 C2382 1.353 . S
C2384 H2442 0.930 . S
C2385 N2381 1.279 . S
C2385 C2383 1.358 . S
C2385 H2443 0.930 . S
C2386 C2389 1.348 . S
C2386 C2390 1.356 . S
C2386 O2437 1.325 . S
C2387 N2388 1.279 . S
C2387 C2390 1.358 . S
C2387 H2444 0.930 . S
N2388 C2387 1.279 . S
N2388 C2391 1.314 . S
C2389 C2386 1.348 . S
C2389 C2391 1.353 . S
C2389 H2445 0.929 . S
C2390 C2386 1.356 . S
C2390 C2387 1.358 . S
C2390 H2446 0.930 . S
C2391 N2388 1.314 . S
C2391 C2389 1.353 . S
C2391 H2447 0.930 . S
C2392 N2393 1.314 . S
C2392 C2397 1.353 . S
C2392 H2398 0.930 . S
N2393 Li2376 1.990 . S
N2393 C2392 1.314 . S
N2393 C2395 1.279 . S
C2394 C2395 1.358 . S
C2394 C2396 1.356 . S
C2394 H2448 0.930 . S
C2395 N2393 1.279 . S
C2395 C2394 1.358 . S
C2395 H2399 0.930 . S
C2396 C2394 1.356 . S
C2396 C2397 1.348 . S
C2397 C2392 1.353 . S
C2397 C2396 1.348 . S
C2397 H2449 0.929 . S
H2398 C2392 0.930 . S
H2399 C2395 0.930 . S
C2400 N2401 1.314 . S
C2400 C2402 1.353 . S
C2400 H2406 0.930 . S
N2401 Li2377 1.990 . S
N2401 C2400 1.314 . S
N2401 C2404 1.279 . S
C2402 C2400 1.353 . S
C2402 C2405 1.348 . S
C2402 H2450 0.929 . S
C2403 C2404 1.358 . S
C2403 C2405 1.356 . S
C2403 H2451 0.930 . S
C2404 N2401 1.279 . S
C2404 C2403 1.358 . S
C2404 H2407 0.930 . S
C2405 C2402 1.348 . S
C2405 C2403 1.356 . S
H2406 C2400 0.930 . S
H2407 C2404 0.930 . S
C2408 C2410 1.348 1_554 S
C2408 C2411 1.356 1_554 S
C2408 O2438 1.325 . S
N2409 C2412 1.314 . S
N2409 C2413 1.279 . S
C2410 C2408 1.348 1_556 S
C2410 C2412 1.353 . S
C2410 H2452 0.929 . S
C2411 C2408 1.356 1_556 S
C2411 C2413 1.358 . S
C2411 H2453 0.930 1_556 S
C2412 N2409 1.314 . S
C2412 C2410 1.353 . S
C2412 H2454 0.930 . S
C2413 N2409 1.279 . S
C2413 C2411 1.358 . S
C2413 H2455 0.930 . S
C2414 C2415 1.348 . S
C2414 C2416 1.356 . S
C2414 O2439 1.325 . S
C2415 C2414 1.348 . S
C2415 C2417 1.353 . S
C2415 H2456 0.929 . S
C2416 C2414 1.356 . S
C2416 C2418 1.358 . S
C2416 H2457 0.930 . S
C2417 C2415 1.353 . S
C2417 N2419 1.314 . S
C2417 H2458 0.930 1_554 S
C2418 C2416 1.358 . S
C2418 N2419 1.279 . S
C2418 H2459 0.930 . S
N2419 C2417 1.314 . S
N2419 C2418 1.279 . S
C2420 C2422 1.353 . S
C2420 N2423 1.314 . S
C2420 H2426 0.930 1_556 S
C2421 N2423 1.279 . S
C2421 C2424 1.358 . S
C2421 H2427 0.930 . S
C2422 C2420 1.353 . S
C2422 C2425 1.348 . S
C2422 H2460 0.929 . S
N2423 Li2378 1.990 1_556 S
N2423 C2420 1.314 . S
N2423 C2421 1.279 . S
C2424 C2421 1.358 . S
C2424 C2425 1.356 . S
C2424 H2461 0.930 . S
C2425 C2422 1.348 . S
C2425 C2424 1.356 . S
H2426 C2420 0.930 1_554 S
H2427 C2421 0.930 . S
C2428 N2429 1.314 . S
C2428 C2430 1.353 . S
C2428 H2434 0.930 . S
N2429 Li2379 1.990 . S
N2429 C2428 1.314 . S
N2429 C2432 1.279 . S
C2430 C2428 1.353 . S
C2430 C2433 1.348 . S
C2430 H2462 0.929 . S
C2431 C2432 1.358 . S
C2431 C2433 1.356 . S
C2431 H2463 0.930 . S
C2432 N2429 1.279 . S
C2432 C2431 1.358 . S
C2432 H2435 0.930 . S
C2433 C2430 1.348 . S
C2433 C2431 1.356 . S
H2434 C2428 0.930 . S
H2435 C2432 0.930 . S
O2436 Li2376 1.956 . S
O2436 Li2377 1.970 . S
O2436 Li2378 1.961 . S
O2436 C2380 1.325 . S
O2437 Li2376 1.970 . S
O2437 Li2377 1.956 . S
O2437 Li2379 1.961 . S
O2437 C2386 1.325 . S
O2438 Li2376 1.961 . S
O2438 Li2378 1.956 . S
O2438 Li2379 1.970 . S
O2438 C2408 1.325 . S
O2439 Li2377 1.961 . S
O2439 Li2378 1.970 . S
O2439 Li2379 1.956 . S
O2439 C2414 1.325 . S
H2440 C2382 0.929 . S
H2441 C2383 0.930 . S
H2442 C2384 0.930 . S
H2443 C2385 0.930 . S
H2444 C2387 0.930 . S
H2445 C2389 0.929 . S
H2446 C2390 0.930 . S
H2447 C2391 0.930 . S
H2448 C2394 0.930 . S
H2449 C2397 0.929 . S
H2450 C2402 0.929 . S
H2451 C2403 0.930 . S
H2452 C2410 0.929 . S
H2453 C2411 0.930 1_554 S
H2454 C2412 0.930 . S
H2455 C2413 0.930 . S
H2456 C2415 0.929 . S
H2457 C2416 0.930 . S
H2458 C2417 0.930 1_556 S
H2459 C2418 0.930 . S
H2460 C2422 0.929 . S
H2461 C2424 0.930 . S
H2462 C2430 0.929 . S
H2463 C2431 0.930 . S
Li2464 N2481 1.990 . S
Li2464 O2524 1.956 . S
Li2464 O2525 1.970 . S
Li2464 O2526 1.961 . S
Li2465 N2489 1.990 . S
Li2465 O2524 1.970 . S
Li2465 O2525 1.956 . S
Li2465 O2527 1.961 . S
Li2466 N2511 1.990 1_554 S
Li2466 O2524 1.961 . S
Li2466 O2526 1.956 . S
Li2466 O2527 1.970 . S
Li2467 N2517 1.990 . S
Li2467 O2525 1.961 . S
Li2467 O2526 1.970 . S
Li2467 O2527 1.956 . S
C2468 C2470 1.348 . S
C2468 C2471 1.356 . S
C2468 O2524 1.325 . S
N2469 C2472 1.314 . S
N2469 C2473 1.279 . S
C2470 C2468 1.348 . S
C2470 C2472 1.353 . S
C2470 H2528 0.929 . S
C2471 C2468 1.356 . S
C2471 C2473 1.358 . S
C2471 H2529 0.930 . S
C2472 N2469 1.314 . S
C2472 C2470 1.353 . S
C2472 H2530 0.930 . S
C2473 N2469 1.279 . S
C2473 C2471 1.358 . S
C2473 H2531 0.930 . S
C2474 C2477 1.348 . S
C2474 C2478 1.356 . S
C2474 O2525 1.325 . S
C2475 N2476 1.279 . S
C2475 C2478 1.358 . S
C2475 H2532 0.930 . S
N2476 C2475 1.279 . S
N2476 C2479 1.314 . S
C2477 C2474 1.348 . S
C2477 C2479 1.353 . S
C2477 H2533 0.929 . S
C2478 C2474 1.356 . S
C2478 C2475 1.358 . S
C2478 H2534 0.930 . S
C2479 N2476 1.314 . S
C2479 C2477 1.353 . S
C2479 H2535 0.930 . S
C2480 N2481 1.314 . S
C2480 C2485 1.353 . S
C2480 H2486 0.930 . S
N2481 Li2464 1.990 . S
N2481 C2480 1.314 . S
N2481 C2483 1.279 . S
C2482 C2483 1.358 . S
C2482 C2484 1.356 . S
C2482 H2536 0.930 . S
C2483 N2481 1.279 . S
C2483 C2482 1.358 . S
C2483 H2487 0.930 . S
C2484 C2482 1.356 . S
C2484 C2485 1.348 . S
C2485 C2480 1.353 . S
C2485 C2484 1.348 . S
C2485 H2537 0.929 . S
H2486 C2480 0.930 . S
H2487 C2483 0.930 . S
C2488 N2489 1.314 . S
C2488 C2490 1.353 . S
C2488 H2494 0.930 . S
N2489 Li2465 1.990 . S
N2489 C2488 1.314 . S
N2489 C2492 1.279 . S
C2490 C2488 1.353 . S
C2490 C2493 1.348 . S
C2490 H2538 0.929 . S
C2491 C2492 1.358 . S
C2491 C2493 1.356 . S
C2491 H2539 0.930 . S
C2492 N2489 1.279 . S
C2492 C2491 1.358 . S
C2492 H2495 0.930 . S
C2493 C2490 1.348 . S
C2493 C2491 1.356 . S
H2494 C2488 0.930 . S
H2495 C2492 0.930 . S
C2496 C2498 1.348 1_554 S
C2496 C2499 1.356 1_554 S
C2496 O2526 1.325 . S
N2497 C2500 1.314 . S
N2497 C2501 1.279 . S
C2498 C2496 1.348 1_556 S
C2498 C2500 1.353 . S
C2498 H2540 0.929 . S
C2499 C2496 1.356 1_556 S
C2499 C2501 1.358 . S
C2499 H2541 0.930 1_556 S
C2500 N2497 1.314 . S
C2500 C2498 1.353 . S
C2500 H2542 0.930 . S
C2501 N2497 1.279 . S
C2501 C2499 1.358 . S
C2501 H2543 0.930 . S
C2502 C2503 1.348 . S
C2502 C2504 1.356 . S
C2502 O2527 1.325 . S
C2503 C2502 1.348 . S
C2503 C2505 1.353 . S
C2503 H2544 0.929 . S
C2504 C2502 1.356 . S
C2504 C2506 1.358 . S
C2504 H2545 0.930 . S
C2505 C2503 1.353 . S
C2505 N2507 1.314 . S
C2505 H2546 0.930 1_554 S
C2506 C2504 1.358 . S
C2506 N2507 1.279 . S
C2506 H2547 0.930 . S
N2507 C2505 1.314 . S
N2507 C2506 1.279 . S
C2508 C2510 1.353 . S
C2508 N2511 1.314 . S
C2508 H2514 0.930 1_556 S
C2509 N2511 1.279 . S
C2509 C2512 1.358 . S
C2509 H2515 0.930 . S
C2510 C2508 1.353 . S
C2510 C2513 1.348 . S
C2510 H2548 0.929 . S
N2511 Li2466 1.990 1_556 S
N2511 C2508 1.314 . S
N2511 C2509 1.279 . S
C2512 C2509 1.358 . S
C2512 C2513 1.356 . S
C2512 H2549 0.930 . S
C2513 C2510 1.348 . S
C2513 C2512 1.356 . S
H2514 C2508 0.930 1_554 S
H2515 C2509 0.930 . S
C2516 N2517 1.314 . S
C2516 C2518 1.353 . S
C2516 H2522 0.930 . S
N2517 Li2467 1.990 . S
N2517 C2516 1.314 . S
N2517 C2520 1.279 . S
C2518 C2516 1.353 . S
C2518 C2521 1.348 . S
C2518 H2550 0.929 . S
C2519 C2520 1.358 . S
C2519 C2521 1.356 . S
C2519 H2551 0.930 . S
C2520 N2517 1.279 . S
C2520 C2519 1.358 . S
C2520 H2523 0.930 . S
C2521 C2518 1.348 . S
C2521 C2519 1.356 . S
H2522 C2516 0.930 . S
H2523 C2520 0.930 . S
O2524 Li2464 1.956 . S
O2524 Li2465 1.970 . S
O2524 Li2466 1.961 . S
O2524 C2468 1.325 . S
O2525 Li2464 1.970 . S
O2525 Li2465 1.956 . S
O2525 Li2467 1.961 . S
O2525 C2474 1.325 . S
O2526 Li2464 1.961 . S
O2526 Li2466 1.956 . S
O2526 Li2467 1.970 . S
O2526 C2496 1.325 . S
O2527 Li2465 1.961 . S
O2527 Li2466 1.970 . S
O2527 Li2467 1.956 . S
O2527 C2502 1.325 . S
H2528 C2470 0.929 . S
H2529 C2471 0.930 . S
H2530 C2472 0.930 . S
H2531 C2473 0.930 . S
H2532 C2475 0.930 . S
H2533 C2477 0.929 . S
H2534 C2478 0.930 . S
H2535 C2479 0.930 . S
H2536 C2482 0.930 . S
H2537 C2485 0.929 . S
H2538 C2490 0.929 . S
H2539 C2491 0.930 . S
H2540 C2498 0.929 . S
H2541 C2499 0.930 1_554 S
H2542 C2500 0.930 . S
H2543 C2501 0.930 . S
H2544 C2503 0.929 . S
H2545 C2504 0.930 . S
H2546 C2505 0.930 1_556 S
H2547 C2506 0.930 . S
H2548 C2510 0.929 . S
H2549 C2512 0.930 . S
H2550 C2518 0.929 . S
H2551 C2519 0.930 . S
Li2552 N2569 1.990 . S
Li2552 O2612 1.956 . S
Li2552 O2613 1.970 . S
Li2552 O2614 1.961 . S
Li2553 N2577 1.990 . S
Li2553 O2612 1.970 . S
Li2553 O2613 1.956 . S
Li2553 O2615 1.961 . S
Li2554 N2599 1.990 . S
Li2554 O2612 1.961 . S
Li2554 O2614 1.956 . S
Li2554 O2615 1.970 . S
Li2555 N2605 1.990 1_554 S
Li2555 O2613 1.961 . S
Li2555 O2614 1.970 . S
Li2555 O2615 1.956 . S
C2556 C2558 1.348 . S
C2556 C2559 1.356 . S
C2556 O2612 1.325 . S
N2557 C2560 1.314 . S
N2557 C2561 1.279 . S
C2558 C2556 1.348 . S
C2558 C2560 1.353 . S
C2558 H2616 0.929 . S
C2559 C2556 1.356 . S
C2559 C2561 1.358 . S
C2559 H2617 0.930 . S
C2560 N2557 1.314 . S
C2560 C2558 1.353 . S
C2560 H2618 0.930 . S
C2561 N2557 1.279 . S
C2561 C2559 1.358 . S
C2561 H2619 0.930 . S
C2562 C2565 1.348 . S
C2562 C2566 1.356 . S
C2562 O2613 1.325 . S
C2563 N2564 1.279 . S
C2563 C2566 1.358 . S
C2563 H2620 0.930 . S
N2564 C2563 1.279 . S
N2564 C2567 1.314 . S
C2565 C2562 1.348 . S
C2565 C2567 1.353 . S
C2565 H2621 0.929 . S
C2566 C2562 1.356 . S
C2566 C2563 1.358 . S
C2566 H2622 0.930 . S
C2567 N2564 1.314 . S
C2567 C2565 1.353 . S
C2567 H2623 0.930 . S
C2568 N2569 1.314 . S
C2568 C2573 1.353 . S
C2568 H2574 0.930 . S
N2569 Li2552 1.990 . S
N2569 C2568 1.314 . S
N2569 C2571 1.279 . S
C2570 C2571 1.358 . S
C2570 C2572 1.356 . S
C2570 H2624 0.930 . S
C2571 N2569 1.279 . S
C2571 C2570 1.358 . S
C2571 H2575 0.930 . S
C2572 C2570 1.356 . S
C2572 C2573 1.348 . S
C2573 C2568 1.353 . S
C2573 C2572 1.348 . S
C2573 H2625 0.929 . S
H2574 C2568 0.930 . S
H2575 C2571 0.930 . S
C2576 N2577 1.314 . S
C2576 C2578 1.353 . S
C2576 H2582 0.930 . S
N2577 Li2553 1.990 . S
N2577 C2576 1.314 . S
N2577 C2580 1.279 . S
C2578 C2576 1.353 . S
C2578 C2581 1.348 . S
C2578 H2626 0.929 . S
C2579 C2580 1.358 . S
C2579 C2581 1.356 . S
C2579 H2627 0.930 . S
C2580 N2577 1.279 . S
C2580 C2579 1.358 . S
C2580 H2583 0.930 . S
C2581 C2578 1.348 . S
C2581 C2579 1.356 . S
H2582 C2576 0.930 . S
H2583 C2580 0.930 . S
C2584 C2586 1.348 . S
C2584 C2587 1.356 . S
C2584 O2614 1.325 . S
N2585 C2588 1.314 . S
N2585 C2589 1.279 . S
C2586 C2584 1.348 . S
C2586 C2588 1.353 . S
C2586 H2628 0.929 . S
C2587 C2584 1.356 . S
C2587 C2589 1.358 . S
C2587 H2629 0.930 . S
C2588 N2585 1.314 . S
C2588 C2586 1.353 . S
C2588 H2630 0.930 1_554 S
C2589 N2585 1.279 . S
C2589 C2587 1.358 . S
C2589 H2631 0.930 . S
C2590 C2591 1.348 1_554 S
C2590 C2592 1.356 1_554 S
C2590 O2615 1.325 . S
C2591 C2590 1.348 1_556 S
C2591 C2593 1.353 . S
C2591 H2632 0.929 . S
C2592 C2590 1.356 1_556 S
C2592 C2594 1.358 . S
C2592 H2633 0.930 1_556 S
C2593 C2591 1.353 . S
C2593 N2595 1.314 . S
C2593 H2634 0.930 . S
C2594 C2592 1.358 . S
C2594 N2595 1.279 . S
C2594 H2635 0.930 . S
N2595 C2593 1.314 . S
N2595 C2594 1.279 . S
C2596 C2598 1.353 . S
C2596 N2599 1.314 . S
C2596 H2602 0.930 . S
C2597 N2599 1.279 . S
C2597 C2600 1.358 . S
C2597 H2603 0.930 . S
C2598 C2596 1.353 . S
C2598 C2601 1.348 . S
C2598 H2636 0.929 . S
N2599 Li2554 1.990 . S
N2599 C2596 1.314 . S
N2599 C2597 1.279 . S
C2600 C2597 1.358 . S
C2600 C2601 1.356 . S
C2600 H2637 0.930 . S
C2601 C2598 1.348 . S
C2601 C2600 1.356 . S
H2602 C2596 0.930 . S
H2603 C2597 0.930 . S
C2604 N2605 1.314 . S
C2604 C2606 1.353 . S
C2604 H2610 0.930 1_556 S
N2605 Li2555 1.990 1_556 S
N2605 C2604 1.314 . S
N2605 C2608 1.279 . S
C2606 C2604 1.353 . S
C2606 C2609 1.348 . S
C2606 H2638 0.929 . S
C2607 C2608 1.358 . S
C2607 C2609 1.356 . S
C2607 H2639 0.930 . S
C2608 N2605 1.279 . S
C2608 C2607 1.358 . S
C2608 H2611 0.930 . S
C2609 C2606 1.348 . S
C2609 C2607 1.356 . S
H2610 C2604 0.930 1_554 S
H2611 C2608 0.930 . S
O2612 Li2552 1.956 . S
O2612 Li2553 1.970 . S
O2612 Li2554 1.961 . S
O2612 C2556 1.325 . S
O2613 Li2552 1.970 . S
O2613 Li2553 1.956 . S
O2613 Li2555 1.961 . S
O2613 C2562 1.325 . S
O2614 Li2552 1.961 . S
O2614 Li2554 1.956 . S
O2614 Li2555 1.970 . S
O2614 C2584 1.325 . S
O2615 Li2553 1.961 . S
O2615 Li2554 1.970 . S
O2615 Li2555 1.956 . S
O2615 C2590 1.325 . S
H2616 C2558 0.929 . S
H2617 C2559 0.930 . S
H2618 C2560 0.930 . S
H2619 C2561 0.930 . S
H2620 C2563 0.930 . S
H2621 C2565 0.929 . S
H2622 C2566 0.930 . S
H2623 C2567 0.930 . S
H2624 C2570 0.930 . S
H2625 C2573 0.929 . S
H2626 C2578 0.929 . S
H2627 C2579 0.930 . S
H2628 C2586 0.929 . S
H2629 C2587 0.930 . S
H2630 C2588 0.930 1_556 S
H2631 C2589 0.930 . S
H2632 C2591 0.929 . S
H2633 C2592 0.930 1_554 S
H2634 C2593 0.930 . S
H2635 C2594 0.930 . S
H2636 C2598 0.929 . S
H2637 C2600 0.930 . S
H2638 C2606 0.929 . S
H2639 C2607 0.930 . S
Li2640 N2657 1.990 . S
Li2640 O2700 1.956 . S
Li2640 O2701 1.970 . S
Li2640 O2702 1.961 . S
Li2641 N2665 1.990 . S
Li2641 O2700 1.970 . S
Li2641 O2701 1.956 . S
Li2641 O2703 1.961 . S
Li2642 N2687 1.990 . S
Li2642 O2700 1.961 . S
Li2642 O2702 1.956 . S
Li2642 O2703 1.970 . S
Li2643 N2693 1.990 . S
Li2643 O2701 1.961 . S
Li2643 O2702 1.970 . S
Li2643 O2703 1.956 . S
C2644 C2646 1.348 . S
C2644 C2647 1.356 . S
C2644 O2700 1.325 . S
N2645 C2648 1.314 . S
N2645 C2649 1.279 . S
C2646 C2644 1.348 . S
C2646 C2648 1.353 . S
C2646 H2704 0.929 . S
C2647 C2644 1.356 . S
C2647 C2649 1.358 . S
C2647 H2705 0.930 . S
C2648 N2645 1.314 . S
C2648 C2646 1.353 . S
C2648 H2706 0.930 . S
C2649 N2645 1.279 . S
C2649 C2647 1.358 . S
C2649 H2707 0.930 . S
C2650 C2653 1.348 . S
C2650 C2654 1.356 . S
C2650 O2701 1.325 . S
C2651 N2652 1.279 . S
C2651 C2654 1.358 . S
C2651 H2708 0.930 . S
N2652 C2651 1.279 . S
N2652 C2655 1.314 . S
C2653 C2650 1.348 . S
C2653 C2655 1.353 . S
C2653 H2709 0.929 . S
C2654 C2650 1.356 . S
C2654 C2651 1.358 . S
C2654 H2710 0.930 . S
C2655 N2652 1.314 . S
C2655 C2653 1.353 . S
C2655 H2711 0.930 . S
C2656 N2657 1.314 . S
C2656 C2661 1.353 . S
C2656 H2662 0.930 . S
N2657 Li2640 1.990 . S
N2657 C2656 1.314 . S
N2657 C2659 1.279 . S
C2658 C2659 1.358 . S
C2658 C2660 1.356 . S
C2658 H2712 0.930 . S
C2659 N2657 1.279 . S
C2659 C2658 1.358 . S
C2659 H2663 0.930 . S
C2660 C2658 1.356 . S
C2660 C2661 1.348 . S
C2661 C2656 1.353 . S
C2661 C2660 1.348 . S
C2661 H2713 0.929 . S
H2662 C2656 0.930 . S
H2663 C2659 0.930 . S
C2664 N2665 1.314 . S
C2664 C2666 1.353 . S
C2664 H2670 0.930 . S
N2665 Li2641 1.990 . S
N2665 C2664 1.314 . S
N2665 C2668 1.279 . S
C2666 C2664 1.353 . S
C2666 C2669 1.348 . S
C2666 H2714 0.929 . S
C2667 C2668 1.358 . S
C2667 C2669 1.356 . S
C2667 H2715 0.930 . S
C2668 N2665 1.279 . S
C2668 C2667 1.358 . S
C2668 H2671 0.930 . S
C2669 C2666 1.348 . S
C2669 C2667 1.356 . S
H2670 C2664 0.930 . S
H2671 C2668 0.930 . S
C2672 C2674 1.348 . S
C2672 C2675 1.356 . S
C2672 O2702 1.325 . S
N2673 C2676 1.314 . S
N2673 C2677 1.279 . S
C2674 C2672 1.348 . S
C2674 C2676 1.353 . S
C2674 H2716 0.929 . S
C2675 C2672 1.356 . S
C2675 C2677 1.358 . S
C2675 H2717 0.930 . S
C2676 N2673 1.314 . S
C2676 C2674 1.353 . S
C2676 H2718 0.930 . S
C2677 N2673 1.279 . S
C2677 C2675 1.358 . S
C2677 H2719 0.930 . S
C2678 C2679 1.348 . S
C2678 C2680 1.356 . S
C2678 O2703 1.325 . S
C2679 C2678 1.348 . S
C2679 C2681 1.353 . S
C2679 H2720 0.929 . S
C2680 C2678 1.356 . S
C2680 C2682 1.358 . S
C2680 H2721 0.930 . S
C2681 C2679 1.353 . S
C2681 N2683 1.314 . S
C2681 H2722 0.930 . S
C2682 C2680 1.358 . S
C2682 N2683 1.279 . S
C2682 H2723 0.930 . S
N2683 C2681 1.314 . S
N2683 C2682 1.279 . S
C2684 C2686 1.353 . S
C2684 N2687 1.314 . S
C2684 H2690 0.930 . S
C2685 N2687 1.279 . S
C2685 C2688 1.358 . S
C2685 H2691 0.930 . S
C2686 C2684 1.353 . S
C2686 C2689 1.348 . S
C2686 H2724 0.929 . S
N2687 Li2642 1.990 . S
N2687 C2684 1.314 . S
N2687 C2685 1.279 . S
C2688 C2685 1.358 . S
C2688 C2689 1.356 . S
C2688 H2725 0.930 . S
C2689 C2686 1.348 . S
C2689 C2688 1.356 . S
H2690 C2684 0.930 . S
H2691 C2685 0.930 . S
C2692 N2693 1.314 . S
C2692 C2694 1.353 . S
C2692 H2698 0.930 . S
N2693 Li2643 1.990 . S
N2693 C2692 1.314 . S
N2693 C2696 1.279 . S
C2694 C2692 1.353 . S
C2694 C2697 1.348 . S
C2694 H2726 0.929 . S
C2695 C2696 1.358 . S
C2695 C2697 1.356 . S
C2695 H2727 0.930 . S
C2696 N2693 1.279 . S
C2696 C2695 1.358 . S
C2696 H2699 0.930 . S
C2697 C2694 1.348 . S
C2697 C2695 1.356 . S
H2698 C2692 0.930 . S
H2699 C2696 0.930 . S
O2700 Li2640 1.956 . S
O2700 Li2641 1.970 . S
O2700 Li2642 1.961 . S
O2700 C2644 1.325 . S
O2701 Li2640 1.970 . S
O2701 Li2641 1.956 . S
O2701 Li2643 1.961 . S
O2701 C2650 1.325 . S
O2702 Li2640 1.961 . S
O2702 Li2642 1.956 . S
O2702 Li2643 1.970 . S
O2702 C2672 1.325 . S
O2703 Li2641 1.961 . S
O2703 Li2642 1.970 . S
O2703 Li2643 1.956 . S
O2703 C2678 1.325 . S
H2704 C2646 0.929 . S
H2705 C2647 0.930 . S
H2706 C2648 0.930 . S
H2707 C2649 0.930 . S
H2708 C2651 0.930 . S
H2709 C2653 0.929 . S
H2710 C2654 0.930 . S
H2711 C2655 0.930 . S
H2712 C2658 0.930 . S
H2713 C2661 0.929 . S
H2714 C2666 0.929 . S
H2715 C2667 0.930 . S
H2716 C2674 0.929 . S
H2717 C2675 0.930 . S
H2718 C2676 0.930 . S
H2719 C2677 0.930 . S
H2720 C2679 0.929 . S
H2721 C2680 0.930 . S
H2722 C2681 0.930 . S
H2723 C2682 0.930 . S
H2724 C2686 0.929 . S
H2725 C2688 0.930 . S
H2726 C2694 0.929 . S
H2727 C2695 0.930 . S
Li2728 N2745 1.990 . S
Li2728 O2788 1.956 . S
Li2728 O2789 1.970 . S
Li2728 O2790 1.961 . S
Li2729 N2753 1.990 . S
Li2729 O2788 1.970 . S
Li2729 O2789 1.956 . S
Li2729 O2791 1.961 . S
Li2730 N2775 1.990 . S
Li2730 O2788 1.961 . S
Li2730 O2790 1.956 . S
Li2730 O2791 1.970 . S
Li2731 N2781 1.990 . S
Li2731 O2789 1.961 . S
Li2731 O2790 1.970 . S
Li2731 O2791 1.956 . S
C2732 C2734 1.348 . S
C2732 C2735 1.356 . S
C2732 O2788 1.325 . S
N2733 C2736 1.314 . S
N2733 C2737 1.279 . S
C2734 C2732 1.348 . S
C2734 C2736 1.353 . S
C2734 H2792 0.929 . S
C2735 C2732 1.356 . S
C2735 C2737 1.358 . S
C2735 H2793 0.930 . S
C2736 N2733 1.314 . S
C2736 C2734 1.353 . S
C2736 H2794 0.930 . S
C2737 N2733 1.279 . S
C2737 C2735 1.358 . S
C2737 H2795 0.930 . S
C2738 C2741 1.348 . S
C2738 C2742 1.356 . S
C2738 O2789 1.325 . S
C2739 N2740 1.279 . S
C2739 C2742 1.358 . S
C2739 H2796 0.930 . S
N2740 C2739 1.279 . S
N2740 C2743 1.314 . S
C2741 C2738 1.348 . S
C2741 C2743 1.353 . S
C2741 H2797 0.929 . S
C2742 C2738 1.356 . S
C2742 C2739 1.358 . S
C2742 H2798 0.930 . S
C2743 N2740 1.314 . S
C2743 C2741 1.353 . S
C2743 H2799 0.930 . S
C2744 N2745 1.314 . S
C2744 C2749 1.353 . S
C2744 H2750 0.930 . S
N2745 Li2728 1.990 . S
N2745 C2744 1.314 . S
N2745 C2747 1.279 . S
C2746 C2747 1.358 . S
C2746 C2748 1.356 . S
C2746 H2800 0.930 . S
C2747 N2745 1.279 . S
C2747 C2746 1.358 . S
C2747 H2751 0.930 . S
C2748 C2746 1.356 . S
C2748 C2749 1.348 . S
C2749 C2744 1.353 . S
C2749 C2748 1.348 . S
C2749 H2801 0.929 . S
H2750 C2744 0.930 . S
H2751 C2747 0.930 . S
C2752 N2753 1.314 . S
C2752 C2754 1.353 . S
C2752 H2758 0.930 . S
N2753 Li2729 1.990 . S
N2753 C2752 1.314 . S
N2753 C2756 1.279 . S
C2754 C2752 1.353 . S
C2754 C2757 1.348 . S
C2754 H2802 0.929 . S
C2755 C2756 1.358 . S
C2755 C2757 1.356 . S
C2755 H2803 0.930 . S
C2756 N2753 1.279 . S
C2756 C2755 1.358 . S
C2756 H2759 0.930 . S
C2757 C2754 1.348 . S
C2757 C2755 1.356 . S
H2758 C2752 0.930 . S
H2759 C2756 0.930 . S
C2760 C2762 1.348 . S
C2760 C2763 1.356 . S
C2760 O2790 1.325 . S
N2761 C2764 1.314 . S
N2761 C2765 1.279 . S
C2762 C2760 1.348 . S
C2762 C2764 1.353 . S
C2762 H2804 0.929 . S
C2763 C2760 1.356 . S
C2763 C2765 1.358 . S
C2763 H2805 0.930 . S
C2764 N2761 1.314 . S
C2764 C2762 1.353 . S
C2764 H2806 0.930 . S
C2765 N2761 1.279 . S
C2765 C2763 1.358 . S
C2765 H2807 0.930 . S
C2766 C2767 1.348 . S
C2766 C2768 1.356 . S
C2766 O2791 1.325 . S
C2767 C2766 1.348 . S
C2767 C2769 1.353 . S
C2767 H2808 0.929 . S
C2768 C2766 1.356 . S
C2768 C2770 1.358 . S
C2768 H2809 0.930 . S
C2769 C2767 1.353 . S
C2769 N2771 1.314 . S
C2769 H2810 0.930 . S
C2770 C2768 1.358 . S
C2770 N2771 1.279 . S
C2770 H2811 0.930 . S
N2771 C2769 1.314 . S
N2771 C2770 1.279 . S
C2772 C2774 1.353 . S
C2772 N2775 1.314 . S
C2772 H2778 0.930 . S
C2773 N2775 1.279 . S
C2773 C2776 1.358 . S
C2773 H2779 0.930 . S
C2774 C2772 1.353 . S
C2774 C2777 1.348 . S
C2774 H2812 0.929 . S
N2775 Li2730 1.990 . S
N2775 C2772 1.314 . S
N2775 C2773 1.279 . S
C2776 C2773 1.358 . S
C2776 C2777 1.356 . S
C2776 H2813 0.930 . S
C2777 C2774 1.348 . S
C2777 C2776 1.356 . S
H2778 C2772 0.930 . S
H2779 C2773 0.930 . S
C2780 N2781 1.314 . S
C2780 C2782 1.353 . S
C2780 H2786 0.930 . S
N2781 Li2731 1.990 . S
N2781 C2780 1.314 . S
N2781 C2784 1.279 . S
C2782 C2780 1.353 . S
C2782 C2785 1.348 . S
C2782 H2814 0.929 . S
C2783 C2784 1.358 . S
C2783 C2785 1.356 . S
C2783 H2815 0.930 . S
C2784 N2781 1.279 . S
C2784 C2783 1.358 . S
C2784 H2787 0.930 . S
C2785 C2782 1.348 . S
C2785 C2783 1.356 . S
H2786 C2780 0.930 . S
H2787 C2784 0.930 . S
O2788 Li2728 1.956 . S
O2788 Li2729 1.970 . S
O2788 Li2730 1.961 . S
O2788 C2732 1.325 . S
O2789 Li2728 1.970 . S
O2789 Li2729 1.956 . S
O2789 Li2731 1.961 . S
O2789 C2738 1.325 . S
O2790 Li2728 1.961 . S
O2790 Li2730 1.956 . S
O2790 Li2731 1.970 . S
O2790 C2760 1.325 . S
O2791 Li2729 1.961 . S
O2791 Li2730 1.970 . S
O2791 Li2731 1.956 . S
O2791 C2766 1.325 . S
H2792 C2734 0.929 . S
H2793 C2735 0.930 . S
H2794 C2736 0.930 . S
H2795 C2737 0.930 . S
H2796 C2739 0.930 . S
H2797 C2741 0.929 . S
H2798 C2742 0.930 . S
H2799 C2743 0.930 . S
H2800 C2746 0.930 . S
H2801 C2749 0.929 . S
H2802 C2754 0.929 . S
H2803 C2755 0.930 . S
H2804 C2762 0.929 . S
H2805 C2763 0.930 . S
H2806 C2764 0.930 . S
H2807 C2765 0.930 . S
H2808 C2767 0.929 . S
H2809 C2768 0.930 . S
H2810 C2769 0.930 . S
H2811 C2770 0.930 . S
H2812 C2774 0.929 . S
H2813 C2776 0.930 . S
H2814 C2782 0.929 . S
H2815 C2783 0.930 . S
Li2816 N2833 1.990 . S
Li2816 O2876 1.956 . S
Li2816 O2877 1.970 . S
Li2816 O2878 1.961 . S
Li2817 N2841 1.990 . S
Li2817 O2876 1.970 . S
Li2817 O2877 1.956 . S
Li2817 O2879 1.961 . S
Li2818 N2863 1.990 . S
Li2818 O2876 1.961 . S
Li2818 O2878 1.956 . S
Li2818 O2879 1.970 . S
Li2819 N2869 1.990 . S
Li2819 O2877 1.961 . S
Li2819 O2878 1.970 . S
Li2819 O2879 1.956 . S
C2820 C2822 1.348 . S
C2820 C2823 1.356 . S
C2820 O2876 1.325 . S
N2821 C2824 1.314 . S
N2821 C2825 1.279 . S
C2822 C2820 1.348 . S
C2822 C2824 1.353 . S
C2822 H2880 0.929 . S
C2823 C2820 1.356 . S
C2823 C2825 1.358 . S
C2823 H2881 0.930 . S
C2824 N2821 1.314 . S
C2824 C2822 1.353 . S
C2824 H2882 0.930 . S
C2825 N2821 1.279 . S
C2825 C2823 1.358 . S
C2825 H2883 0.930 . S
C2826 C2829 1.348 . S
C2826 C2830 1.356 . S
C2826 O2877 1.325 . S
C2827 N2828 1.279 . S
C2827 C2830 1.358 . S
C2827 H2884 0.930 . S
N2828 C2827 1.279 . S
N2828 C2831 1.314 . S
C2829 C2826 1.348 . S
C2829 C2831 1.353 . S
C2829 H2885 0.929 . S
C2830 C2826 1.356 . S
C2830 C2827 1.358 . S
C2830 H2886 0.930 . S
C2831 N2828 1.314 . S
C2831 C2829 1.353 . S
C2831 H2887 0.930 . S
C2832 N2833 1.314 . S
C2832 C2837 1.353 . S
C2832 H2838 0.930 . S
N2833 Li2816 1.990 . S
N2833 C2832 1.314 . S
N2833 C2835 1.279 . S
C2834 C2835 1.358 . S
C2834 C2836 1.356 . S
C2834 H2888 0.930 . S
C2835 N2833 1.279 . S
C2835 C2834 1.358 . S
C2835 H2839 0.930 . S
C2836 C2834 1.356 . S
C2836 C2837 1.348 . S
C2837 C2832 1.353 . S
C2837 C2836 1.348 . S
C2837 H2889 0.929 . S
H2838 C2832 0.930 . S
H2839 C2835 0.930 . S
C2840 N2841 1.314 . S
C2840 C2842 1.353 . S
C2840 H2846 0.930 . S
N2841 Li2817 1.990 . S
N2841 C2840 1.314 . S
N2841 C2844 1.279 . S
C2842 C2840 1.353 . S
C2842 C2845 1.348 . S
C2842 H2890 0.929 . S
C2843 C2844 1.358 . S
C2843 C2845 1.356 . S
C2843 H2891 0.930 . S
C2844 N2841 1.279 . S
C2844 C2843 1.358 . S
C2844 H2847 0.930 . S
C2845 C2842 1.348 . S
C2845 C2843 1.356 . S
H2846 C2840 0.930 . S
H2847 C2844 0.930 . S
C2848 C2850 1.348 . S
C2848 C2851 1.356 . S
C2848 O2878 1.325 . S
N2849 C2852 1.314 . S
N2849 C2853 1.279 . S
C2850 C2848 1.348 . S
C2850 C2852 1.353 . S
C2850 H2892 0.929 . S
C2851 C2848 1.356 . S
C2851 C2853 1.358 . S
C2851 H2893 0.930 . S
C2852 N2849 1.314 . S
C2852 C2850 1.353 . S
C2852 H2894 0.930 . S
C2853 N2849 1.279 . S
C2853 C2851 1.358 . S
C2853 H2895 0.930 . S
C2854 C2855 1.348 . S
C2854 C2856 1.356 . S
C2854 O2879 1.325 . S
C2855 C2854 1.348 . S
C2855 C2857 1.353 . S
C2855 H2896 0.929 . S
C2856 C2854 1.356 . S
C2856 C2858 1.358 . S
C2856 H2897 0.930 . S
C2857 C2855 1.353 . S
C2857 N2859 1.314 . S
C2857 H2898 0.930 . S
C2858 C2856 1.358 . S
C2858 N2859 1.279 . S
C2858 H2899 0.930 . S
N2859 C2857 1.314 . S
N2859 C2858 1.279 . S
C2860 C2862 1.353 . S
C2860 N2863 1.314 . S
C2860 H2866 0.930 . S
C2861 N2863 1.279 . S
C2861 C2864 1.358 . S
C2861 H2867 0.930 . S
C2862 C2860 1.353 . S
C2862 C2865 1.348 . S
C2862 H2900 0.929 . S
N2863 Li2818 1.990 . S
N2863 C2860 1.314 . S
N2863 C2861 1.279 . S
C2864 C2861 1.358 . S
C2864 C2865 1.356 . S
C2864 H2901 0.930 . S
C2865 C2862 1.348 . S
C2865 C2864 1.356 . S
H2866 C2860 0.930 . S
H2867 C2861 0.930 . S
C2868 N2869 1.314 . S
C2868 C2870 1.353 . S
C2868 H2874 0.930 . S
N2869 Li2819 1.990 . S
N2869 C2868 1.314 . S
N2869 C2872 1.279 . S
C2870 C2868 1.353 . S
C2870 C2873 1.348 . S
C2870 H2902 0.929 . S
C2871 C2872 1.358 . S
C2871 C2873 1.356 . S
C2871 H2903 0.930 . S
C2872 N2869 1.279 . S
C2872 C2871 1.358 . S
C2872 H2875 0.930 . S
C2873 C2870 1.348 . S
C2873 C2871 1.356 . S
H2874 C2868 0.930 . S
H2875 C2872 0.930 . S
O2876 Li2816 1.956 . S
O2876 Li2817 1.970 . S
O2876 Li2818 1.961 . S
O2876 C2820 1.325 . S
O2877 Li2816 1.970 . S
O2877 Li2817 1.956 . S
O2877 Li2819 1.961 . S
O2877 C2826 1.325 . S
O2878 Li2816 1.961 . S
O2878 Li2818 1.956 . S
O2878 Li2819 1.970 . S
O2878 C2848 1.325 . S
O2879 Li2817 1.961 . S
O2879 Li2818 1.970 . S
O2879 Li2819 1.956 . S
O2879 C2854 1.325 . S
H2880 C2822 0.929 . S
H2881 C2823 0.930 . S
H2882 C2824 0.930 . S
H2883 C2825 0.930 . S
H2884 C2827 0.930 . S
H2885 C2829 0.929 . S
H2886 C2830 0.930 . S
H2887 C2831 0.930 . S
H2888 C2834 0.930 . S
H2889 C2837 0.929 . S
H2890 C2842 0.929 . S
H2891 C2843 0.930 . S
H2892 C2850 0.929 . S
H2893 C2851 0.930 . S
H2894 C2852 0.930 . S
H2895 C2853 0.930 . S
H2896 C2855 0.929 . S
H2897 C2856 0.930 . S
H2898 C2857 0.930 . S
H2899 C2858 0.930 . S
H2900 C2862 0.929 . S
H2901 C2864 0.930 . S
H2902 C2870 0.929 . S
H2903 C2871 0.930 . S
Li2904 N2921 1.990 . S
Li2904 O2964 1.956 . S
Li2904 O2965 1.970 . S
Li2904 O2966 1.961 . S
Li2905 N2929 1.990 . S
Li2905 O2964 1.970 . S
Li2905 O2965 1.956 . S
Li2905 O2967 1.961 . S
Li2906 N2951 1.990 . S
Li2906 O2964 1.961 . S
Li2906 O2966 1.956 . S
Li2906 O2967 1.970 . S
Li2907 N2957 1.990 . S
Li2907 O2965 1.961 . S
Li2907 O2966 1.970 . S
Li2907 O2967 1.956 . S
C2908 C2910 1.348 . S
C2908 C2911 1.356 . S
C2908 O2964 1.325 . S
N2909 C2912 1.314 . S
N2909 C2913 1.279 . S
C2910 C2908 1.348 . S
C2910 C2912 1.353 . S
C2910 H2968 0.929 . S
C2911 C2908 1.356 . S
C2911 C2913 1.358 . S
C2911 H2969 0.930 . S
C2912 N2909 1.314 . S
C2912 C2910 1.353 . S
C2912 H2970 0.930 . S
C2913 N2909 1.279 . S
C2913 C2911 1.358 . S
C2913 H2971 0.930 . S
C2914 C2917 1.348 . S
C2914 C2918 1.356 . S
C2914 O2965 1.325 . S
C2915 N2916 1.279 . S
C2915 C2918 1.358 . S
C2915 H2972 0.930 . S
N2916 C2915 1.279 . S
N2916 C2919 1.314 . S
C2917 C2914 1.348 . S
C2917 C2919 1.353 . S
C2917 H2973 0.929 . S
C2918 C2914 1.356 . S
C2918 C2915 1.358 . S
C2918 H2974 0.930 . S
C2919 N2916 1.314 . S
C2919 C2917 1.353 . S
C2919 H2975 0.930 . S
C2920 N2921 1.314 . S
C2920 C2925 1.353 . S
C2920 H2926 0.930 . S
N2921 Li2904 1.990 . S
N2921 C2920 1.314 . S
N2921 C2923 1.279 . S
C2922 C2923 1.358 . S
C2922 C2924 1.356 . S
C2922 H2976 0.930 . S
C2923 N2921 1.279 . S
C2923 C2922 1.358 . S
C2923 H2927 0.930 . S
C2924 C2922 1.356 . S
C2924 C2925 1.348 . S
C2925 C2920 1.353 . S
C2925 C2924 1.348 . S
C2925 H2977 0.929 . S
H2926 C2920 0.930 . S
H2927 C2923 0.930 . S
C2928 N2929 1.314 . S
C2928 C2930 1.353 . S
C2928 H2934 0.930 . S
N2929 Li2905 1.990 . S
N2929 C2928 1.314 . S
N2929 C2932 1.279 . S
C2930 C2928 1.353 . S
C2930 C2933 1.348 . S
C2930 H2978 0.929 . S
C2931 C2932 1.358 . S
C2931 C2933 1.356 . S
C2931 H2979 0.930 . S
C2932 N2929 1.279 . S
C2932 C2931 1.358 . S
C2932 H2935 0.930 . S
C2933 C2930 1.348 . S
C2933 C2931 1.356 . S
H2934 C2928 0.930 . S
H2935 C2932 0.930 . S
C2936 C2938 1.348 . S
C2936 C2939 1.356 . S
C2936 O2966 1.325 . S
N2937 C2940 1.314 . S
N2937 C2941 1.279 . S
C2938 C2936 1.348 . S
C2938 C2940 1.353 . S
C2938 H2980 0.929 . S
C2939 C2936 1.356 . S
C2939 C2941 1.358 . S
C2939 H2981 0.930 . S
C2940 N2937 1.314 . S
C2940 C2938 1.353 . S
C2940 H2982 0.930 . S
C2941 N2937 1.279 . S
C2941 C2939 1.358 . S
C2941 H2983 0.930 . S
C2942 C2943 1.348 . S
C2942 C2944 1.356 . S
C2942 O2967 1.325 . S
C2943 C2942 1.348 . S
C2943 C2945 1.353 . S
C2943 H2984 0.929 . S
C2944 C2942 1.356 . S
C2944 C2946 1.358 . S
C2944 H2985 0.930 . S
C2945 C2943 1.353 . S
C2945 N2947 1.314 . S
C2945 H2986 0.930 . S
C2946 C2944 1.358 . S
C2946 N2947 1.279 . S
C2946 H2987 0.930 . S
N2947 C2945 1.314 . S
N2947 C2946 1.279 . S
C2948 C2950 1.353 . S
C2948 N2951 1.314 . S
C2948 H2954 0.930 . S
C2949 N2951 1.279 . S
C2949 C2952 1.358 . S
C2949 H2955 0.930 . S
C2950 C2948 1.353 . S
C2950 C2953 1.348 . S
C2950 H2988 0.929 1_554 S
N2951 Li2906 1.990 . S
N2951 C2948 1.314 . S
N2951 C2949 1.279 . S
C2952 C2949 1.358 . S
C2952 C2953 1.356 . S
C2952 H2989 0.930 . S
C2953 C2950 1.348 . S
C2953 C2952 1.356 . S
H2954 C2948 0.930 . S
H2955 C2949 0.930 . S
C2956 N2957 1.314 . S
C2956 C2958 1.353 . S
C2956 H2962 0.930 . S
N2957 Li2907 1.990 . S
N2957 C2956 1.314 . S
N2957 C2960 1.279 . S
C2958 C2956 1.353 . S
C2958 C2961 1.348 . S
C2958 H2990 0.929 . S
C2959 C2960 1.358 . S
C2959 C2961 1.356 . S
C2959 H2991 0.930 . S
C2960 N2957 1.279 . S
C2960 C2959 1.358 . S
C2960 H2963 0.930 . S
C2961 C2958 1.348 . S
C2961 C2959 1.356 . S
H2962 C2956 0.930 . S
H2963 C2960 0.930 . S
O2964 Li2904 1.956 . S
O2964 Li2905 1.970 . S
O2964 Li2906 1.961 . S
O2964 C2908 1.325 . S
O2965 Li2904 1.970 . S
O2965 Li2905 1.956 . S
O2965 Li2907 1.961 . S
O2965 C2914 1.325 . S
O2966 Li2904 1.961 . S
O2966 Li2906 1.956 . S
O2966 Li2907 1.970 . S
O2966 C2936 1.325 . S
O2967 Li2905 1.961 . S
O2967 Li2906 1.970 . S
O2967 Li2907 1.956 . S
O2967 C2942 1.325 . S
H2968 C2910 0.929 . S
H2969 C2911 0.930 . S
H2970 C2912 0.930 . S
H2971 C2913 0.930 . S
H2972 C2915 0.930 . S
H2973 C2917 0.929 . S
H2974 C2918 0.930 . S
H2975 C2919 0.930 . S
H2976 C2922 0.930 . S
H2977 C2925 0.929 . S
H2978 C2930 0.929 . S
H2979 C2931 0.930 . S
H2980 C2938 0.929 . S
H2981 C2939 0.930 . S
H2982 C2940 0.930 . S
H2983 C2941 0.930 . S
H2984 C2943 0.929 . S
H2985 C2944 0.930 . S
H2986 C2945 0.930 . S
H2987 C2946 0.930 . S
H2988 C2950 0.929 1_556 S
H2989 C2952 0.930 . S
H2990 C2958 0.929 . S
H2991 C2959 0.930 . S
Li2992 N3009 1.990 . S
Li2992 O3052 1.956 . S
Li2992 O3053 1.970 . S
Li2992 O3054 1.961 . S
Li2993 N3017 1.990 . S
Li2993 O3052 1.970 . S
Li2993 O3053 1.956 . S
Li2993 O3055 1.961 . S
Li2994 N3039 1.990 . S
Li2994 O3052 1.961 . S
Li2994 O3054 1.956 . S
Li2994 O3055 1.970 . S
Li2995 N3045 1.990 . S
Li2995 O3053 1.961 . S
Li2995 O3054 1.970 . S
Li2995 O3055 1.956 . S
C2996 C2998 1.348 . S
C2996 C2999 1.356 . S
C2996 O3052 1.325 . S
N2997 C3000 1.314 . S
N2997 C3001 1.279 . S
C2998 C2996 1.348 . S
C2998 C3000 1.353 . S
C2998 H3056 0.929 . S
C2999 C2996 1.356 . S
C2999 C3001 1.358 . S
C2999 H3057 0.930 . S
C3000 N2997 1.314 . S
C3000 C2998 1.353 . S
C3000 H3058 0.930 . S
C3001 N2997 1.279 . S
C3001 C2999 1.358 . S
C3001 H3059 0.930 . S
C3002 C3005 1.348 . S
C3002 C3006 1.356 . S
C3002 O3053 1.325 . S
C3003 N3004 1.279 . S
C3003 C3006 1.358 . S
C3003 H3060 0.930 . S
N3004 C3003 1.279 . S
N3004 C3007 1.314 . S
C3005 C3002 1.348 . S
C3005 C3007 1.353 . S
C3005 H3061 0.929 . S
C3006 C3002 1.356 . S
C3006 C3003 1.358 . S
C3006 H3062 0.930 . S
C3007 N3004 1.314 . S
C3007 C3005 1.353 . S
C3007 H3063 0.930 . S
C3008 N3009 1.314 . S
C3008 C3013 1.353 . S
C3008 H3014 0.930 . S
N3009 Li2992 1.990 . S
N3009 C3008 1.314 . S
N3009 C3011 1.279 . S
C3010 C3011 1.358 . S
C3010 C3012 1.356 . S
C3010 H3064 0.930 . S
C3011 N3009 1.279 . S
C3011 C3010 1.358 . S
C3011 H3015 0.930 . S
C3012 C3010 1.356 . S
C3012 C3013 1.348 . S
C3013 C3008 1.353 . S
C3013 C3012 1.348 . S
C3013 H3065 0.929 . S
H3014 C3008 0.930 . S
H3015 C3011 0.930 . S
C3016 N3017 1.314 . S
C3016 C3018 1.353 . S
C3016 H3022 0.930 . S
N3017 Li2993 1.990 . S
N3017 C3016 1.314 . S
N3017 C3020 1.279 . S
C3018 C3016 1.353 . S
C3018 C3021 1.348 . S
C3018 H3066 0.929 . S
C3019 C3020 1.358 . S
C3019 C3021 1.356 . S
C3019 H3067 0.930 . S
C3020 N3017 1.279 . S
C3020 C3019 1.358 . S
C3020 H3023 0.930 . S
C3021 C3018 1.348 . S
C3021 C3019 1.356 . S
H3022 C3016 0.930 . S
H3023 C3020 0.930 . S
C3024 C3026 1.348 . S
C3024 C3027 1.356 . S
C3024 O3054 1.325 . S
N3025 C3028 1.314 . S
N3025 C3029 1.279 . S
C3026 C3024 1.348 . S
C3026 C3028 1.353 . S
C3026 H3068 0.929 . S
C3027 C3024 1.356 . S
C3027 C3029 1.358 . S
C3027 H3069 0.930 . S
C3028 N3025 1.314 . S
C3028 C3026 1.353 . S
C3028 H3070 0.930 . S
C3029 N3025 1.279 . S
C3029 C3027 1.358 . S
C3029 H3071 0.930 . S
C3030 C3031 1.348 . S
C3030 C3032 1.356 . S
C3030 O3055 1.325 . S
C3031 C3030 1.348 . S
C3031 C3033 1.353 . S
C3031 H3072 0.929 . S
C3032 C3030 1.356 . S
C3032 C3034 1.358 . S
C3032 H3073 0.930 . S
C3033 C3031 1.353 . S
C3033 N3035 1.314 . S
C3033 H3074 0.930 . S
C3034 C3032 1.358 . S
C3034 N3035 1.279 . S
C3034 H3075 0.930 . S
N3035 C3033 1.314 . S
N3035 C3034 1.279 . S
C3036 C3038 1.353 . S
C3036 N3039 1.314 . S
C3036 H3042 0.930 . S
C3037 N3039 1.279 . S
C3037 C3040 1.358 . S
C3037 H3043 0.930 . S
C3038 C3036 1.353 . S
C3038 C3041 1.348 . S
C3038 H3076 0.929 1_554 S
N3039 Li2994 1.990 . S
N3039 C3036 1.314 . S
N3039 C3037 1.279 . S
C3040 C3037 1.358 . S
C3040 C3041 1.356 . S
C3040 H3077 0.930 . S
C3041 C3038 1.348 . S
C3041 C3040 1.356 . S
H3042 C3036 0.930 . S
H3043 C3037 0.930 . S
C3044 N3045 1.314 . S
C3044 C3046 1.353 . S
C3044 H3050 0.930 . S
N3045 Li2995 1.990 . S
N3045 C3044 1.314 . S
N3045 C3048 1.279 . S
C3046 C3044 1.353 . S
C3046 C3049 1.348 . S
C3046 H3078 0.929 . S
C3047 C3048 1.358 . S
C3047 C3049 1.356 . S
C3047 H3079 0.930 . S
C3048 N3045 1.279 . S
C3048 C3047 1.358 . S
C3048 H3051 0.930 . S
C3049 C3046 1.348 . S
C3049 C3047 1.356 . S
H3050 C3044 0.930 . S
H3051 C3048 0.930 . S
O3052 Li2992 1.956 . S
O3052 Li2993 1.970 . S
O3052 Li2994 1.961 . S
O3052 C2996 1.325 . S
O3053 Li2992 1.970 . S
O3053 Li2993 1.956 . S
O3053 Li2995 1.961 . S
O3053 C3002 1.325 . S
O3054 Li2992 1.961 . S
O3054 Li2994 1.956 . S
O3054 Li2995 1.970 . S
O3054 C3024 1.325 . S
O3055 Li2993 1.961 . S
O3055 Li2994 1.970 . S
O3055 Li2995 1.956 . S
O3055 C3030 1.325 . S
H3056 C2998 0.929 . S
H3057 C2999 0.930 . S
H3058 C3000 0.930 . S
H3059 C3001 0.930 . S
H3060 C3003 0.930 . S
H3061 C3005 0.929 . S
H3062 C3006 0.930 . S
H3063 C3007 0.930 . S
H3064 C3010 0.930 . S
H3065 C3013 0.929 . S
H3066 C3018 0.929 . S
H3067 C3019 0.930 . S
H3068 C3026 0.929 . S
H3069 C3027 0.930 . S
H3070 C3028 0.930 . S
H3071 C3029 0.930 . S
H3072 C3031 0.929 . S
H3073 C3032 0.930 . S
H3074 C3033 0.930 . S
H3075 C3034 0.930 . S
H3076 C3038 0.929 1_556 S
H3077 C3040 0.930 . S
H3078 C3046 0.929 . S
H3079 C3047 0.930 . S
Li3080 N3097 1.990 . S
Li3080 O3140 1.956 . S
Li3080 O3141 1.970 . S
Li3080 O3142 1.961 . S
Li3081 N3105 1.990 . S
Li3081 O3140 1.970 . S
Li3081 O3141 1.956 . S
Li3081 O3143 1.961 . S
Li3082 N3127 1.990 . S
Li3082 O3140 1.961 . S
Li3082 O3142 1.956 . S
Li3082 O3143 1.970 . S
Li3083 N3133 1.990 . S
Li3083 O3141 1.961 . S
Li3083 O3142 1.970 . S
Li3083 O3143 1.956 . S
C3084 C3086 1.348 . S
C3084 C3087 1.356 . S
C3084 O3140 1.325 . S
N3085 C3088 1.314 . S
N3085 C3089 1.279 . S
C3086 C3084 1.348 . S
C3086 C3088 1.353 . S
C3086 H3144 0.929 . S
C3087 C3084 1.356 . S
C3087 C3089 1.358 . S
C3087 H3145 0.930 . S
C3088 N3085 1.314 . S
C3088 C3086 1.353 . S
C3088 H3146 0.930 . S
C3089 N3085 1.279 . S
C3089 C3087 1.358 . S
C3089 H3147 0.930 . S
C3090 C3093 1.348 . S
C3090 C3094 1.356 . S
C3090 O3141 1.325 . S
C3091 N3092 1.279 . S
C3091 C3094 1.358 . S
C3091 H3148 0.930 . S
N3092 C3091 1.279 . S
N3092 C3095 1.314 . S
C3093 C3090 1.348 . S
C3093 C3095 1.353 . S
C3093 H3149 0.929 . S
C3094 C3090 1.356 . S
C3094 C3091 1.358 . S
C3094 H3150 0.930 . S
C3095 N3092 1.314 . S
C3095 C3093 1.353 . S
C3095 H3151 0.930 . S
C3096 N3097 1.314 . S
C3096 C3101 1.353 . S
C3096 H3102 0.930 . S
N3097 Li3080 1.990 . S
N3097 C3096 1.314 . S
N3097 C3099 1.279 . S
C3098 C3099 1.358 . S
C3098 C3100 1.356 . S
C3098 H3152 0.930 . S
C3099 N3097 1.279 . S
C3099 C3098 1.358 . S
C3099 H3103 0.930 . S
C3100 C3098 1.356 . S
C3100 C3101 1.348 . S
C3101 C3096 1.353 . S
C3101 C3100 1.348 . S
C3101 H3153 0.929 1_554 S
H3102 C3096 0.930 . S
H3103 C3099 0.930 . S
C3104 N3105 1.314 . S
C3104 C3106 1.353 . S
C3104 H3110 0.930 . S
N3105 Li3081 1.990 . S
N3105 C3104 1.314 . S
N3105 C3108 1.279 . S
C3106 C3104 1.353 . S
C3106 C3109 1.348 . S
C3106 H3154 0.929 . S
C3107 C3108 1.358 . S
C3107 C3109 1.356 . S
C3107 H3155 0.930 . S
C3108 N3105 1.279 . S
C3108 C3107 1.358 . S
C3108 H3111 0.930 . S
C3109 C3106 1.348 . S
C3109 C3107 1.356 . S
H3110 C3104 0.930 . S
H3111 C3108 0.930 . S
C3112 C3114 1.348 . S
C3112 C3115 1.356 . S
C3112 O3142 1.325 . S
N3113 C3116 1.314 . S
N3113 C3117 1.279 . S
C3114 C3112 1.348 . S
C3114 C3116 1.353 . S
C3114 H3156 0.929 . S
C3115 C3112 1.356 . S
C3115 C3117 1.358 . S
C3115 H3157 0.930 . S
C3116 N3113 1.314 . S
C3116 C3114 1.353 . S
C3116 H3158 0.930 . S
C3117 N3113 1.279 . S
C3117 C3115 1.358 . S
C3117 H3159 0.930 . S
C3118 C3119 1.348 . S
C3118 C3120 1.356 . S
C3118 O3143 1.325 . S
C3119 C3118 1.348 . S
C3119 C3121 1.353 . S
C3119 H3160 0.929 . S
C3120 C3118 1.356 . S
C3120 C3122 1.358 . S
C3120 H3161 0.930 . S
C3121 C3119 1.353 . S
C3121 N3123 1.314 . S
C3121 H3162 0.930 . S
C3122 C3120 1.358 . S
C3122 N3123 1.279 . S
C3122 H3163 0.930 . S
N3123 C3121 1.314 . S
N3123 C3122 1.279 . S
C3124 C3126 1.353 . S
C3124 N3127 1.314 . S
C3124 H3130 0.930 . S
C3125 N3127 1.279 . S
C3125 C3128 1.358 . S
C3125 H3131 0.930 . S
C3126 C3124 1.353 . S
C3126 C3129 1.348 . S
C3126 H3164 0.929 . S
N3127 Li3082 1.990 . S
N3127 C3124 1.314 . S
N3127 C3125 1.279 . S
C3128 C3125 1.358 . S
C3128 C3129 1.356 . S
C3128 H3165 0.930 . S
C3129 C3126 1.348 . S
C3129 C3128 1.356 . S
H3130 C3124 0.930 . S
H3131 C3125 0.930 . S
C3132 N3133 1.314 . S
C3132 C3134 1.353 . S
C3132 H3138 0.930 . S
N3133 Li3083 1.990 . S
N3133 C3132 1.314 . S
N3133 C3136 1.279 . S
C3134 C3132 1.353 . S
C3134 C3137 1.348 . S
C3134 H3166 0.929 . S
C3135 C3136 1.358 . S
C3135 C3137 1.356 . S
C3135 H3167 0.930 . S
C3136 N3133 1.279 . S
C3136 C3135 1.358 . S
C3136 H3139 0.930 . S
C3137 C3134 1.348 . S
C3137 C3135 1.356 . S
H3138 C3132 0.930 . S
H3139 C3136 0.930 . S
O3140 Li3080 1.956 . S
O3140 Li3081 1.970 . S
O3140 Li3082 1.961 . S
O3140 C3084 1.325 . S
O3141 Li3080 1.970 . S
O3141 Li3081 1.956 . S
O3141 Li3083 1.961 . S
O3141 C3090 1.325 . S
O3142 Li3080 1.961 . S
O3142 Li3082 1.956 . S
O3142 Li3083 1.970 . S
O3142 C3112 1.325 . S
O3143 Li3081 1.961 . S
O3143 Li3082 1.970 . S
O3143 Li3083 1.956 . S
O3143 C3118 1.325 . S
H3144 C3086 0.929 . S
H3145 C3087 0.930 . S
H3146 C3088 0.930 . S
H3147 C3089 0.930 . S
H3148 C3091 0.930 . S
H3149 C3093 0.929 . S
H3150 C3094 0.930 . S
H3151 C3095 0.930 . S
H3152 C3098 0.930 . S
H3153 C3101 0.929 1_556 S
H3154 C3106 0.929 . S
H3155 C3107 0.930 . S
H3156 C3114 0.929 . S
H3157 C3115 0.930 . S
H3158 C3116 0.930 . S
H3159 C3117 0.930 . S
H3160 C3119 0.929 . S
H3161 C3120 0.930 . S
H3162 C3121 0.930 . S
H3163 C3122 0.930 . S
H3164 C3126 0.929 . S
H3165 C3128 0.930 . S
H3166 C3134 0.929 . S
H3167 C3135 0.930 . S
C3168 C3169 1.363 . S
C3168 C3174 1.379 . S
C3168 N3176 1.356 . S
C3169 C3168 1.363 . S
C3169 C3175 1.363 1_565 S
C3170 C3171 1.363 . S
C3170 C3175 1.379 . S
C3170 N3177 1.356 . S
C3171 C3170 1.363 . S
C3171 C3174 1.363 1_545 S
N3172 C3174 1.356 . S
N3172 H3184 0.984 . S
N3172 H3185 0.985 . S
N3173 C3175 1.356 . S
N3173 H3178 0.984 . S
N3173 H3179 0.985 . S
C3174 C3168 1.379 . S
C3174 C3171 1.363 1_565 S
C3174 N3172 1.356 . S
C3175 C3169 1.363 1_545 S
C3175 C3170 1.379 . S
C3175 N3173 1.356 . S
N3176 C3168 1.356 . S
N3176 H3182 0.984 . S
N3176 H3183 0.984 . S
N3177 C3170 1.356 . S
N3177 H3180 0.984 . S
N3177 H3181 0.985 . S
H3178 N3173 0.984 . S
H3179 N3173 0.985 . S
H3180 N3177 0.984 . S
H3181 N3177 0.985 . S
H3182 N3176 0.984 . S
H3183 N3176 0.984 . S
H3184 N3172 0.984 . S
H3185 N3172 0.985 . S
C3186 C3187 1.363 . S
C3186 C3192 1.379 . S
C3186 N3194 1.356 . S
C3187 C3186 1.363 . S
C3187 C3193 1.363 1_655 S
C3188 C3189 1.363 . S
C3188 C3193 1.379 . S
C3188 N3195 1.356 . S
C3189 C3188 1.363 . S
C3189 C3192 1.363 1_455 S
N3190 C3192 1.356 . S
N3190 H3202 0.984 . S
N3190 H3203 0.985 . S
N3191 C3193 1.356 . S
N3191 H3196 0.984 . S
N3191 H3197 0.985 . S
C3192 C3186 1.379 . S
C3192 C3189 1.363 1_655 S
C3192 N3190 1.356 . S
C3193 C3187 1.363 1_455 S
C3193 C3188 1.379 . S
C3193 N3191 1.356 . S
N3194 C3186 1.356 . S
N3194 H3200 0.984 . S
N3194 H3201 0.984 . S
N3195 C3188 1.356 . S
N3195 H3198 0.984 . S
N3195 H3199 0.985 . S
H3196 N3191 0.984 . S
H3197 N3191 0.985 . S
H3198 N3195 0.984 . S
H3199 N3195 0.985 . S
H3200 N3194 0.984 . S
H3201 N3194 0.984 . S
H3202 N3190 0.984 . S
H3203 N3190 0.985 . S
C3204 C3205 1.363 . S
C3204 C3210 1.379 . S
C3204 N3212 1.356 . S
C3205 C3204 1.363 . S
C3205 C3211 1.363 . S
C3206 C3207 1.363 . S
C3206 C3211 1.379 . S
C3206 N3213 1.356 . S
C3207 C3206 1.363 . S
C3207 C3210 1.363 . S
N3208 C3210 1.356 . S
N3208 H3220 0.984 . S
N3208 H3221 0.985 . S
N3209 C3211 1.356 . S
N3209 H3214 0.984 . S
N3209 H3215 0.985 . S
C3210 C3204 1.379 . S
C3210 C3207 1.363 . S
C3210 N3208 1.356 . S
C3211 C3205 1.363 . S
C3211 C3206 1.379 . S
C3211 N3209 1.356 . S
N3212 C3204 1.356 . S
N3212 H3218 0.984 . S
N3212 H3219 0.984 . S
N3213 C3206 1.356 . S
N3213 H3216 0.984 . S
N3213 H3217 0.985 . S
H3214 N3209 0.984 . S
H3215 N3209 0.985 . S
H3216 N3213 0.984 . S
H3217 N3213 0.985 . S
H3218 N3212 0.984 . S
H3219 N3212 0.984 . S
H3220 N3208 0.984 . S
H3221 N3208 0.985 . S
C3222 C3223 1.363 . S
C3222 C3228 1.379 . S
C3222 N3230 1.356 . S
C3223 C3222 1.363 . S
C3223 C3229 1.363 1_565 S
C3224 C3225 1.363 . S
C3224 C3229 1.379 . S
C3224 N3231 1.356 . S
C3225 C3224 1.363 . S
C3225 C3228 1.363 1_545 S
N3226 C3228 1.356 . S
N3226 H3238 0.984 . S
N3226 H3239 0.985 . S
N3227 C3229 1.356 . S
N3227 H3232 0.984 . S
N3227 H3233 0.985 . S
C3228 C3222 1.379 . S
C3228 C3225 1.363 1_565 S
C3228 N3226 1.356 . S
C3229 C3223 1.363 1_545 S
C3229 C3224 1.379 . S
C3229 N3227 1.356 . S
N3230 C3222 1.356 . S
N3230 H3236 0.984 . S
N3230 H3237 0.984 . S
N3231 C3224 1.356 . S
N3231 H3234 0.984 . S
N3231 H3235 0.985 . S
H3232 N3227 0.984 . S
H3233 N3227 0.985 . S
H3234 N3231 0.984 . S
H3235 N3231 0.985 . S
H3236 N3230 0.984 . S
H3237 N3230 0.984 . S
H3238 N3226 0.984 . S
H3239 N3226 0.985 . S
C3240 C3241 1.307 1_655 S
C3240 C3246 1.394 . S
C3240 N3248 1.392 . S
C3241 C3240 1.307 1_455 S
C3241 C3247 1.363 . S
C3242 C3243 1.308 1_455 S
C3242 C3247 1.393 . S
C3242 N3249 1.392 . S
C3243 C3242 1.308 1_655 S
C3243 C3246 1.363 . S
N3244 C3246 1.356 . S
N3244 H3256 0.984 . S
N3244 H3257 0.985 . S
N3245 C3247 1.356 . S
N3245 H3250 0.984 . S
N3245 H3251 0.985 . S
C3246 C3240 1.394 . S
C3246 C3243 1.363 . S
C3246 N3244 1.356 . S
C3247 C3241 1.363 . S
C3247 C3242 1.393 . S
C3247 N3245 1.356 . S
N3248 C3240 1.392 . S
N3248 H3254 0.984 . S
N3248 H3255 0.964 1_655 S
N3249 C3242 1.392 . S
N3249 H3252 0.964 1_455 S
N3249 H3253 0.985 . S
H3250 N3245 0.984 . S
H3251 N3245 0.985 . S
H3252 N3249 0.964 1_655 S
H3253 N3249 0.985 . S
H3254 N3248 0.984 . S
H3255 N3248 0.964 1_455 S
H3256 N3244 0.984 . S
H3257 N3244 0.985 . S
C3258 C3259 1.363 . S
C3258 C3264 1.379 . S
C3258 N3266 1.356 . S
C3259 C3258 1.363 . S
C3259 C3265 1.363 . S
C3260 C3261 1.363 . S
C3260 C3265 1.379 . S
C3260 N3267 1.356 . S
C3261 C3260 1.363 . S
C3261 C3264 1.363 . S
N3262 C3264 1.356 . S
N3262 H3274 0.984 . S
N3262 H3275 0.985 . S
N3263 C3265 1.356 . S
N3263 H3268 0.984 . S
N3263 H3269 0.985 . S
C3264 C3258 1.379 . S
C3264 C3261 1.363 . S
C3264 N3262 1.356 . S
C3265 C3259 1.363 . S
C3265 C3260 1.379 . S
C3265 N3263 1.356 . S
N3266 C3258 1.356 . S
N3266 H3272 0.984 . S
N3266 H3273 0.984 . S
N3267 C3260 1.356 . S
N3267 H3270 0.984 . S
N3267 H3271 0.985 . S
H3268 N3263 0.984 . S
H3269 N3263 0.985 . S
H3270 N3267 0.984 . S
H3271 N3267 0.985 . S
H3272 N3266 0.984 . S
H3273 N3266 0.984 . S
H3274 N3262 0.984 . S
H3275 N3262 0.985 . S
C3276 C3277 1.363 . S
C3276 C3282 1.379 . S
C3276 N3284 1.356 . S
C3277 C3276 1.363 . S
C3277 C3283 1.363 . S
C3278 C3279 1.363 . S
C3278 C3283 1.379 . S
C3278 N3285 1.356 . S
C3279 C3278 1.363 . S
C3279 C3282 1.363 . S
N3280 C3282 1.356 . S
N3280 H3292 0.984 . S
N3280 H3293 0.985 . S
N3281 C3283 1.356 . S
N3281 H3286 0.984 . S
N3281 H3287 0.985 . S
C3282 C3276 1.379 . S
C3282 C3279 1.363 . S
C3282 N3280 1.356 . S
C3283 C3277 1.363 . S
C3283 C3278 1.379 . S
C3283 N3281 1.356 . S
N3284 C3276 1.356 . S
N3284 H3290 0.984 . S
N3284 H3291 0.984 . S
N3285 C3278 1.356 . S
N3285 H3288 0.984 . S
N3285 H3289 0.985 . S
H3286 N3281 0.984 . S
H3287 N3281 0.985 . S
H3288 N3285 0.984 . S
H3289 N3285 0.985 . S
H3290 N3284 0.984 . S
H3291 N3284 0.984 . S
H3292 N3280 0.984 . S
H3293 N3280 0.985 . S
C3294 C3295 1.363 . S
C3294 C3300 1.379 . S
C3294 N3302 1.356 . S
C3295 C3294 1.363 . S
C3295 C3301 1.363 . S
C3296 C3297 1.363 . S
C3296 C3301 1.379 . S
C3296 N3303 1.356 . S
C3297 C3296 1.363 . S
C3297 C3300 1.363 . S
N3298 C3300 1.356 . S
N3298 H3310 0.984 . S
N3298 H3311 0.985 . S
N3299 C3301 1.356 . S
N3299 H3304 0.984 . S
N3299 H3305 0.985 . S
C3300 C3294 1.379 . S
C3300 C3297 1.363 . S
C3300 N3298 1.356 . S
C3301 C3295 1.363 . S
C3301 C3296 1.379 . S
C3301 N3299 1.356 . S
N3302 C3294 1.356 . S
N3302 H3308 0.984 . S
N3302 H3309 0.984 . S
N3303 C3296 1.356 . S
N3303 H3306 0.984 . S
N3303 H3307 0.985 . S
H3304 N3299 0.984 . S
H3305 N3299 0.985 . S
H3306 N3303 0.984 . S
H3307 N3303 0.985 . S
H3308 N3302 0.984 . S
H3309 N3302 0.984 . S
H3310 N3298 0.984 . S
H3311 N3298 0.985 . S
C3312 C3313 1.363 . S
C3312 C3318 1.379 . S
C3312 N3320 1.356 . S
C3313 C3312 1.363 . S
C3313 C3319 1.363 . S
C3314 C3315 1.363 . S
C3314 C3319 1.379 . S
C3314 N3321 1.356 . S
C3315 C3314 1.363 . S
C3315 C3318 1.363 . S
N3316 C3318 1.356 . S
N3316 H3328 0.984 . S
N3316 H3329 0.985 . S
N3317 C3319 1.356 . S
N3317 H3322 0.984 . S
N3317 H3323 0.985 . S
C3318 C3312 1.379 . S
C3318 C3315 1.363 . S
C3318 N3316 1.356 . S
C3319 C3313 1.363 . S
C3319 C3314 1.379 . S
C3319 N3317 1.356 . S
N3320 C3312 1.356 . S
N3320 H3326 0.984 . S
N3320 H3327 0.984 . S
N3321 C3314 1.356 . S
N3321 H3324 0.984 . S
N3321 H3325 0.985 . S
H3322 N3317 0.984 . S
H3323 N3317 0.985 . S
H3324 N3321 0.984 . S
H3325 N3321 0.985 . S
H3326 N3320 0.984 . S
H3327 N3320 0.984 . S
H3328 N3316 0.984 . S
H3329 N3316 0.985 . S
C3330 C3331 1.363 . S
C3330 C3336 1.379 . S
C3330 N3338 1.356 . S
C3331 C3330 1.363 . S
C3331 C3337 1.363 . S
C3332 C3333 1.363 . S
C3332 C3337 1.379 . S
C3332 N3339 1.356 . S
C3333 C3332 1.363 . S
C3333 C3336 1.363 . S
N3334 C3336 1.356 . S
N3334 H3346 0.984 . S
N3334 H3347 0.985 1_554 S
N3335 C3337 1.356 . S
N3335 H3340 0.984 . S
N3335 H3341 0.985 . S
C3336 C3330 1.379 . S
C3336 C3333 1.363 . S
C3336 N3334 1.356 . S
C3337 C3331 1.363 . S
C3337 C3332 1.379 . S
C3337 N3335 1.356 . S
N3338 C3330 1.356 . S
N3338 H3344 0.984 . S
N3338 H3345 0.984 . S
N3339 C3332 1.356 . S
N3339 H3342 0.984 1_554 S
N3339 H3343 0.985 . S
H3340 N3335 0.984 . S
H3341 N3335 0.985 . S
H3342 N3339 0.984 1_556 S
H3343 N3339 0.985 . S
H3344 N3338 0.984 . S
H3345 N3338 0.984 . S
H3346 N3334 0.984 . S
H3347 N3334 0.985 1_556 S
C3348 C3349 1.363 . S
C3348 C3354 1.379 . S
C3348 N3356 1.356 . S
C3349 C3348 1.363 . S
C3349 C3355 1.363 . S
C3350 C3351 1.363 . S
C3350 C3355 1.379 . S
C3350 N3357 1.356 . S
C3351 C3350 1.363 . S
C3351 C3354 1.363 . S
N3352 C3354 1.356 . S
N3352 H3364 0.984 . S
N3352 H3365 0.985 1_554 S
N3353 C3355 1.356 . S
N3353 H3358 0.984 . S
N3353 H3359 0.985 . S
C3354 C3348 1.379 . S
C3354 C3351 1.363 . S
C3354 N3352 1.356 . S
C3355 C3349 1.363 . S
C3355 C3350 1.379 . S
C3355 N3353 1.356 . S
N3356 C3348 1.356 . S
N3356 H3362 0.984 . S
N3356 H3363 0.984 . S
N3357 C3350 1.356 . S
N3357 H3360 0.984 1_554 S
N3357 H3361 0.985 . S
H3358 N3353 0.984 . S
H3359 N3353 0.985 . S
H3360 N3357 0.984 1_556 S
H3361 N3357 0.985 . S
H3362 N3356 0.984 . S
H3363 N3356 0.984 . S
H3364 N3352 0.984 . S
H3365 N3352 0.985 1_556 S
C3366 C3367 1.363 . S
C3366 C3372 1.379 . S
C3366 N3374 1.356 . S
C3367 C3366 1.363 . S
C3367 C3373 1.363 . S
C3368 C3369 1.363 . S
C3368 C3373 1.379 . S
C3368 N3375 1.356 . S
C3369 C3368 1.363 . S
C3369 C3372 1.363 . S
N3370 C3372 1.356 . S
N3370 H3382 0.984 . S
N3370 H3383 0.985 1_554 S
N3371 C3373 1.356 . S
N3371 H3376 0.984 . S
N3371 H3377 0.985 . S
C3372 C3366 1.379 . S
C3372 C3369 1.363 . S
C3372 N3370 1.356 . S
C3373 C3367 1.363 . S
C3373 C3368 1.379 . S
C3373 N3371 1.356 . S
N3374 C3366 1.356 . S
N3374 H3380 0.984 . S
N3374 H3381 0.984 . S
N3375 C3368 1.356 . S
N3375 H3378 0.984 1_554 S
N3375 H3379 0.985 . S
H3376 N3371 0.984 . S
H3377 N3371 0.985 . S
H3378 N3375 0.984 1_556 S
H3379 N3375 0.985 . S
H3380 N3374 0.984 . S
H3381 N3374 0.984 . S
H3382 N3370 0.984 . S
H3383 N3370 0.985 1_556 S
C3384 C3385 1.363 . S
C3384 C3390 1.379 . S
C3384 N3392 1.356 . S
C3385 C3384 1.363 . S
C3385 C3391 1.363 . S
C3386 C3387 1.363 . S
C3386 C3391 1.379 . S
C3386 N3393 1.356 . S
C3387 C3386 1.363 . S
C3387 C3390 1.363 . S
N3388 C3390 1.356 . S
N3388 H3400 0.984 . S
N3388 H3401 0.985 1_556 S
N3389 C3391 1.356 . S
N3389 H3394 0.984 . S
N3389 H3395 0.985 . S
C3390 C3384 1.379 . S
C3390 C3387 1.363 . S
C3390 N3388 1.356 . S
C3391 C3385 1.363 . S
C3391 C3386 1.379 . S
C3391 N3389 1.356 . S
N3392 C3384 1.356 . S
N3392 H3398 0.984 . S
N3392 H3399 0.984 . S
N3393 C3386 1.356 . S
N3393 H3396 0.984 1_556 S
N3393 H3397 0.985 . S
H3394 N3389 0.984 . S
H3395 N3389 0.985 . S
H3396 N3393 0.984 1_554 S
H3397 N3393 0.985 . S
H3398 N3392 0.984 . S
H3399 N3392 0.984 . S
H3400 N3388 0.984 . S
H3401 N3388 0.985 1_554 S
C3402 C3403 1.363 . S
C3402 C3408 1.379 . S
C3402 N3410 1.356 . S
C3403 C3402 1.363 . S
C3403 C3409 1.363 . S
C3404 C3405 1.363 . S
C3404 C3409 1.379 . S
C3404 N3411 1.356 . S
C3405 C3404 1.363 . S
C3405 C3408 1.363 . S
N3406 C3408 1.356 . S
N3406 H3418 0.984 . S
N3406 H3419 0.985 . S
N3407 C3409 1.356 . S
N3407 H3412 0.984 1_556 S
N3407 H3413 0.985 . S
C3408 C3402 1.379 . S
C3408 C3405 1.363 . S
C3408 N3406 1.356 . S
C3409 C3403 1.363 . S
C3409 C3404 1.379 . S
C3409 N3407 1.356 . S
N3410 C3402 1.356 . S
N3410 H3416 0.984 . S
N3410 H3417 0.984 1_556 S
N3411 C3404 1.356 . S
N3411 H3414 0.984 . S
N3411 H3415 0.985 . S
H3412 N3407 0.984 1_554 S
H3413 N3407 0.985 . S
H3414 N3411 0.984 . S
H3415 N3411 0.985 . S
H3416 N3410 0.984 . S
H3417 N3410 0.984 1_554 S
H3418 N3406 0.984 . S
H3419 N3406 0.985 . S
C3420 C3421 1.363 . S
C3420 C3426 1.379 . S
C3420 N3428 1.356 . S
C3421 C3420 1.363 . S
C3421 C3427 1.363 . S
C3422 C3423 1.363 . S
C3422 C3427 1.379 . S
C3422 N3429 1.356 . S
C3423 C3422 1.363 . S
C3423 C3426 1.363 . S
N3424 C3426 1.356 . S
N3424 H3436 0.984 . S
N3424 H3437 0.985 1_556 S
N3425 C3427 1.356 . S
N3425 H3430 0.984 . S
N3425 H3431 0.985 . S
C3426 C3420 1.379 . S
C3426 C3423 1.363 . S
C3426 N3424 1.356 . S
C3427 C3421 1.363 . S
C3427 C3422 1.379 . S
C3427 N3425 1.356 . S
N3428 C3420 1.356 . S
N3428 H3434 0.984 . S
N3428 H3435 0.984 . S
N3429 C3422 1.356 . S
N3429 H3432 0.984 1_556 S
N3429 H3433 0.985 . S
H3430 N3425 0.984 . S
H3431 N3425 0.985 . S
H3432 N3429 0.984 1_554 S
H3433 N3429 0.985 . S
H3434 N3428 0.984 . S
H3435 N3428 0.984 . S
H3436 N3424 0.984 . S
H3437 N3424 0.985 1_554 S
C3438 C3439 1.363 . S
C3438 C3444 1.379 . S
C3438 N3446 1.356 . S
C3439 C3438 1.363 . S
C3439 C3445 1.363 . S
C3440 C3441 1.363 . S
C3440 C3445 1.379 . S
C3440 N3447 1.356 . S
C3441 C3440 1.363 . S
C3441 C3444 1.363 . S
N3442 C3444 1.356 . S
N3442 H3454 0.984 . S
N3442 H3455 0.985 . S
N3443 C3445 1.356 . S
N3443 H3448 0.984 . S
N3443 H3449 0.985 . S
C3444 C3438 1.379 . S
C3444 C3441 1.363 . S
C3444 N3442 1.356 . S
C3445 C3439 1.363 . S
C3445 C3440 1.379 . S
C3445 N3443 1.356 . S
N3446 C3438 1.356 . S
N3446 H3452 0.984 . S
N3446 H3453 0.984 . S
N3447 C3440 1.356 . S
N3447 H3450 0.984 . S
N3447 H3451 0.985 . S
H3448 N3443 0.984 . S
H3449 N3443 0.985 . S
H3450 N3447 0.984 . S
H3451 N3447 0.985 . S
H3452 N3446 0.984 . S
H3453 N3446 0.984 . S
H3454 N3442 0.984 . S
H3455 N3442 0.985 . S
C3456 C3457 1.363 . S
C3456 C3462 1.379 . S
C3456 N3464 1.356 . S
C3457 C3456 1.363 . S
C3457 C3463 1.363 . S
C3458 C3459 1.363 . S
C3458 C3463 1.379 . S
C3458 N3465 1.356 . S
C3459 C3458 1.363 . S
C3459 C3462 1.363 . S
N3460 C3462 1.356 . S
N3460 H3472 0.984 . S
N3460 H3473 0.985 . S
N3461 C3463 1.356 . S
N3461 H3466 0.984 . S
N3461 H3467 0.985 . S
C3462 C3456 1.379 . S
C3462 C3459 1.363 . S
C3462 N3460 1.356 . S
C3463 C3457 1.363 . S
C3463 C3458 1.379 . S
C3463 N3461 1.356 . S
N3464 C3456 1.356 . S
N3464 H3470 0.984 . S
N3464 H3471 0.984 . S
N3465 C3458 1.356 . S
N3465 H3468 0.984 . S
N3465 H3469 0.985 . S
H3466 N3461 0.984 . S
H3467 N3461 0.985 . S
H3468 N3465 0.984 . S
H3469 N3465 0.985 . S
H3470 N3464 0.984 . S
H3471 N3464 0.984 . S
H3472 N3460 0.984 . S
H3473 N3460 0.985 . S
C3474 C3475 1.363 . S
C3474 C3480 1.379 . S
C3474 N3482 1.356 . S
C3475 C3474 1.363 . S
C3475 C3481 1.363 . S
C3476 C3477 1.363 . S
C3476 C3481 1.379 . S
C3476 N3483 1.356 . S
C3477 C3476 1.363 . S
C3477 C3480 1.363 . S
N3478 C3480 1.356 . S
N3478 H3490 0.984 . S
N3478 H3491 0.985 . S
N3479 C3481 1.356 . S
N3479 H3484 0.984 . S
N3479 H3485 0.985 . S
C3480 C3474 1.379 . S
C3480 C3477 1.363 . S
C3480 N3478 1.356 . S
C3481 C3475 1.363 . S
C3481 C3476 1.379 . S
C3481 N3479 1.356 . S
N3482 C3474 1.356 . S
N3482 H3488 0.984 . S
N3482 H3489 0.984 . S
N3483 C3476 1.356 . S
N3483 H3486 0.984 . S
N3483 H3487 0.985 . S
H3484 N3479 0.984 . S
H3485 N3479 0.985 . S
H3486 N3483 0.984 . S
H3487 N3483 0.985 . S
H3488 N3482 0.984 . S
H3489 N3482 0.984 . S
H3490 N3478 0.984 . S
H3491 N3478 0.985 . S
C3492 C3493 1.363 . S
C3492 C3498 1.379 . S
C3492 N3500 1.356 . S
C3493 C3492 1.363 . S
C3493 C3499 1.363 . S
C3494 C3495 1.363 . S
C3494 C3499 1.379 . S
C3494 N3501 1.356 . S
C3495 C3494 1.363 . S
C3495 C3498 1.363 . S
N3496 C3498 1.356 . S
N3496 H3508 0.984 . S
N3496 H3509 0.985 . S
N3497 C3499 1.356 . S
N3497 H3502 0.984 . S
N3497 H3503 0.985 . S
C3498 C3492 1.379 . S
C3498 C3495 1.363 . S
C3498 N3496 1.356 . S
C3499 C3493 1.363 . S
C3499 C3494 1.379 . S
C3499 N3497 1.356 . S
N3500 C3492 1.356 . S
N3500 H3506 0.984 . S
N3500 H3507 0.984 . S
N3501 C3494 1.356 . S
N3501 H3504 0.984 . S
N3501 H3505 0.985 . S
H3502 N3497 0.984 . S
H3503 N3497 0.985 . S
H3504 N3501 0.984 . S
H3505 N3501 0.985 . S
H3506 N3500 0.984 . S
H3507 N3500 0.984 . S
H3508 N3496 0.984 . S
H3509 N3496 0.985 . S
C3510 C3511 1.363 . S
C3510 C3516 1.379 . S
C3510 N3518 1.356 . S
C3511 C3510 1.363 . S
C3511 C3517 1.363 . S
C3512 C3513 1.363 . S
C3512 C3517 1.379 . S
C3512 N3519 1.356 . S
C3513 C3512 1.363 . S
C3513 C3516 1.363 . S
N3514 C3516 1.356 . S
N3514 H3526 0.984 . S
N3514 H3527 0.985 . S
N3515 C3517 1.356 . S
N3515 H3520 0.984 . S
N3515 H3521 0.985 . S
C3516 C3510 1.379 . S
C3516 C3513 1.363 . S
C3516 N3514 1.356 . S
C3517 C3511 1.363 . S
C3517 C3512 1.379 . S
C3517 N3515 1.356 . S
N3518 C3510 1.356 . S
N3518 H3524 0.984 . S
N3518 H3525 0.984 . S
N3519 C3512 1.356 . S
N3519 H3522 0.984 . S
N3519 H3523 0.985 . S
H3520 N3515 0.984 . S
H3521 N3515 0.985 . S
H3522 N3519 0.984 . S
H3523 N3519 0.985 . S
H3524 N3518 0.984 . S
H3525 N3518 0.984 . S
H3526 N3514 0.984 . S
H3527 N3514 0.985 . S
C3528 C3529 1.363 . S
C3528 C3534 1.379 . S
C3528 N3536 1.356 . S
C3529 C3528 1.363 . S
C3529 C3535 1.363 . S
C3530 C3531 1.363 . S
C3530 C3535 1.379 . S
C3530 N3537 1.356 . S
C3531 C3530 1.363 . S
C3531 C3534 1.363 . S
N3532 C3534 1.356 . S
N3532 H3544 0.984 . S
N3532 H3545 0.985 . S
N3533 C3535 1.356 . S
N3533 H3538 0.984 . S
N3533 H3539 0.985 . S
C3534 C3528 1.379 . S
C3534 C3531 1.363 . S
C3534 N3532 1.356 . S
C3535 C3529 1.363 . S
C3535 C3530 1.379 . S
C3535 N3533 1.356 . S
N3536 C3528 1.356 . S
N3536 H3542 0.984 . S
N3536 H3543 0.984 . S
N3537 C3530 1.356 . S
N3537 H3540 0.984 . S
N3537 H3541 0.985 . S
H3538 N3533 0.984 . S
H3539 N3533 0.985 . S
H3540 N3537 0.984 . S
H3541 N3537 0.985 . S
H3542 N3536 0.984 . S
H3543 N3536 0.984 . S
H3544 N3532 0.984 . S
H3545 N3532 0.985 . S
C3546 C3547 1.363 . S
C3546 C3552 1.379 . S
C3546 N3554 1.356 . S
C3547 C3546 1.363 . S
C3547 C3553 1.363 . S
C3548 C3549 1.363 . S
C3548 C3553 1.379 . S
C3548 N3555 1.356 . S
C3549 C3548 1.363 . S
C3549 C3552 1.363 . S
N3550 C3552 1.356 . S
N3550 H3562 0.984 . S
N3550 H3563 0.985 . S
N3551 C3553 1.356 . S
N3551 H3556 0.984 . S
N3551 H3557 0.985 . S
C3552 C3546 1.379 . S
C3552 C3549 1.363 . S
C3552 N3550 1.356 . S
C3553 C3547 1.363 . S
C3553 C3548 1.379 . S
C3553 N3551 1.356 . S
N3554 C3546 1.356 . S
N3554 H3560 0.984 . S
N3554 H3561 0.984 . S
N3555 C3548 1.356 . S
N3555 H3558 0.984 . S
N3555 H3559 0.985 . S
H3556 N3551 0.984 . S
H3557 N3551 0.985 . S
H3558 N3555 0.984 . S
H3559 N3555 0.985 . S
H3560 N3554 0.984 . S
H3561 N3554 0.984 . S
H3562 N3550 0.984 . S
H3563 N3550 0.985 . S
C3564 C3565 1.363 . S
C3564 C3570 1.379 . S
C3564 N3572 1.356 . S
C3565 C3564 1.363 . S
C3565 C3571 1.363 . S
C3566 C3567 1.363 . S
C3566 C3571 1.379 . S
C3566 N3573 1.356 . S
C3567 C3566 1.363 . S
C3567 C3570 1.363 . S
N3568 C3570 1.356 . S
N3568 H3580 0.984 . S
N3568 H3581 0.985 . S
N3569 C3571 1.356 . S
N3569 H3574 0.984 . S
N3569 H3575 0.985 . S
C3570 C3564 1.379 . S
C3570 C3567 1.363 . S
C3570 N3568 1.356 . S
C3571 C3565 1.363 . S
C3571 C3566 1.379 . S
C3571 N3569 1.356 . S
N3572 C3564 1.356 . S
N3572 H3578 0.984 . S
N3572 H3579 0.984 . S
N3573 C3566 1.356 . S
N3573 H3576 0.984 . S
N3573 H3577 0.985 . S
H3574 N3569 0.984 . S
H3575 N3569 0.985 . S
H3576 N3573 0.984 . S
H3577 N3573 0.985 . S
H3578 N3572 0.984 . S
H3579 N3572 0.984 . S
H3580 N3568 0.984 . S
H3581 N3568 0.985 . S
C3582 C3583 1.363 . S
C3582 C3588 1.379 . S
C3582 N3590 1.356 . S
C3583 C3582 1.363 . S
C3583 C3589 1.363 . S
C3584 C3585 1.363 . S
C3584 C3589 1.379 . S
C3584 N3591 1.356 . S
C3585 C3584 1.363 . S
C3585 C3588 1.363 . S
N3586 C3588 1.356 . S
N3586 H3598 0.984 . S
N3586 H3599 0.985 . S
N3587 C3589 1.356 . S
N3587 H3592 0.984 . S
N3587 H3593 0.985 . S
C3588 C3582 1.379 . S
C3588 C3585 1.363 . S
C3588 N3586 1.356 . S
C3589 C3583 1.363 . S
C3589 C3584 1.379 . S
C3589 N3587 1.356 . S
N3590 C3582 1.356 . S
N3590 H3596 0.984 . S
N3590 H3597 0.984 . S
N3591 C3584 1.356 . S
N3591 H3594 0.984 . S
N3591 H3595 0.985 . S
H3592 N3587 0.984 . S
H3593 N3587 0.985 . S
H3594 N3591 0.984 . S
H3595 N3591 0.985 . S
H3596 N3590 0.984 . S
H3597 N3590 0.984 . S
H3598 N3586 0.984 . S
H3599 N3586 0.985 . S
C3600 C3601 1.363 . S
C3600 C3606 1.379 . S
C3600 N3608 1.356 . S
C3601 C3600 1.363 . S
C3601 C3607 1.363 . S
C3602 C3603 1.363 . S
C3602 C3607 1.379 . S
C3602 N3609 1.356 . S
C3603 C3602 1.363 . S
C3603 C3606 1.363 . S
N3604 C3606 1.356 . S
N3604 H3616 0.984 . S
N3604 H3617 0.985 . S
N3605 C3607 1.356 . S
N3605 H3610 0.984 . S
N3605 H3611 0.985 . S
C3606 C3600 1.379 . S
C3606 C3603 1.363 . S
C3606 N3604 1.356 . S
C3607 C3601 1.363 . S
C3607 C3602 1.379 . S
C3607 N3605 1.356 . S
N3608 C3600 1.356 . S
N3608 H3614 0.984 . S
N3608 H3615 0.984 . S
N3609 C3602 1.356 . S
N3609 H3612 0.984 . S
N3609 H3613 0.985 . S
H3610 N3605 0.984 . S
H3611 N3605 0.985 . S
H3612 N3609 0.984 . S
H3613 N3609 0.985 . S
H3614 N3608 0.984 . S
H3615 N3608 0.984 . S
H3616 N3604 0.984 . S
H3617 N3604 0.985 . S
C3618 C3619 1.363 . S
C3618 C3624 1.379 . S
C3618 N3626 1.356 . S
C3619 C3618 1.363 . S
C3619 C3625 1.363 . S
C3620 C3621 1.363 . S
C3620 C3625 1.379 . S
C3620 N3627 1.356 . S
C3621 C3620 1.363 . S
C3621 C3624 1.363 . S
N3622 C3624 1.356 . S
N3622 H3634 0.984 . S
N3622 H3635 0.985 . S
N3623 C3625 1.356 . S
N3623 H3628 0.984 . S
N3623 H3629 0.985 . S
C3624 C3618 1.379 . S
C3624 C3621 1.363 . S
C3624 N3622 1.356 . S
C3625 C3619 1.363 . S
C3625 C3620 1.379 . S
C3625 N3623 1.356 . S
N3626 C3618 1.356 . S
N3626 H3632 0.984 . S
N3626 H3633 0.984 . S
N3627 C3620 1.356 . S
N3627 H3630 0.984 . S
N3627 H3631 0.985 . S
H3628 N3623 0.984 . S
H3629 N3623 0.985 . S
H3630 N3627 0.984 . S
H3631 N3627 0.985 . S
H3632 N3626 0.984 . S
H3633 N3626 0.984 . S
H3634 N3622 0.984 . S
H3635 N3622 0.985 . S
C3636 C3637 1.363 . S
C3636 C3642 1.379 . S
C3636 N3644 1.356 . S
C3637 C3636 1.363 . S
C3637 C3643 1.363 . S
C3638 C3639 1.363 . S
C3638 C3643 1.379 . S
C3638 N3645 1.356 . S
C3639 C3638 1.363 . S
C3639 C3642 1.363 . S
N3640 C3642 1.356 . S
N3640 H3652 0.984 . S
N3640 H3653 0.985 . S
N3641 C3643 1.356 . S
N3641 H3646 0.984 . S
N3641 H3647 0.985 . S
C3642 C3636 1.379 . S
C3642 C3639 1.363 . S
C3642 N3640 1.356 . S
C3643 C3637 1.363 . S
C3643 C3638 1.379 . S
C3643 N3641 1.356 . S
N3644 C3636 1.356 . S
N3644 H3650 0.984 . S
N3644 H3651 0.984 . S
N3645 C3638 1.356 . S
N3645 H3648 0.984 . S
N3645 H3649 0.985 . S
H3646 N3641 0.984 . S
H3647 N3641 0.985 . S
H3648 N3645 0.984 . S
H3649 N3645 0.985 . S
H3650 N3644 0.984 . S
H3651 N3644 0.984 . S
H3652 N3640 0.984 . S
H3653 N3640 0.985 . S
C3654 C3655 1.363 . S
C3654 C3660 1.379 . S
C3654 N3662 1.356 . S
C3655 C3654 1.363 . S
C3655 C3661 1.363 . S
C3656 C3657 1.363 . S
C3656 C3661 1.379 . S
C3656 N3663 1.356 . S
C3657 C3656 1.363 . S
C3657 C3660 1.363 . S
N3658 C3660 1.356 . S
N3658 H3670 0.984 . S
N3658 H3671 0.985 . S
N3659 C3661 1.356 . S
N3659 H3664 0.984 . S
N3659 H3665 0.985 . S
C3660 C3654 1.379 . S
C3660 C3657 1.363 . S
C3660 N3658 1.356 . S
C3661 C3655 1.363 . S
C3661 C3656 1.379 . S
C3661 N3659 1.356 . S
N3662 C3654 1.356 . S
N3662 H3668 0.984 . S
N3662 H3669 0.984 . S
N3663 C3656 1.356 . S
N3663 H3666 0.984 . S
N3663 H3667 0.985 . S
H3664 N3659 0.984 . S
H3665 N3659 0.985 . S
H3666 N3663 0.984 . S
H3667 N3663 0.985 . S
H3668 N3662 0.984 . S
H3669 N3662 0.984 . S
H3670 N3658 0.984 . S
H3671 N3658 0.985 . S
C3672 C3673 1.363 . S
C3672 C3678 1.379 . S
C3672 N3680 1.356 . S
C3673 C3672 1.363 . S
C3673 C3679 1.363 . S
C3674 C3675 1.363 . S
C3674 C3679 1.379 . S
C3674 N3681 1.356 . S
C3675 C3674 1.363 . S
C3675 C3678 1.363 . S
N3676 C3678 1.356 . S
N3676 H3688 0.984 . S
N3676 H3689 0.985 . S
N3677 C3679 1.356 . S
N3677 H3682 0.984 . S
N3677 H3683 0.985 . S
C3678 C3672 1.379 . S
C3678 C3675 1.363 . S
C3678 N3676 1.356 . S
C3679 C3673 1.363 . S
C3679 C3674 1.379 . S
C3679 N3677 1.356 . S
N3680 C3672 1.356 . S
N3680 H3686 0.984 . S
N3680 H3687 0.984 . S
N3681 C3674 1.356 . S
N3681 H3684 0.984 . S
N3681 H3685 0.985 . S
H3682 N3677 0.984 . S
H3683 N3677 0.985 . S
H3684 N3681 0.984 . S
H3685 N3681 0.985 . S
H3686 N3680 0.984 . S
H3687 N3680 0.984 . S
H3688 N3676 0.984 . S
H3689 N3676 0.985 . S
C3690 C3691 1.363 . S
C3690 C3696 1.379 . S
C3690 N3698 1.356 . S
C3691 C3690 1.363 . S
C3691 C3697 1.363 . S
C3692 C3693 1.363 . S
C3692 C3697 1.379 . S
C3692 N3699 1.356 . S
C3693 C3692 1.363 . S
C3693 C3696 1.363 . S
N3694 C3696 1.356 . S
N3694 H3706 0.984 . S
N3694 H3707 0.985 . S
N3695 C3697 1.356 . S
N3695 H3700 0.984 . S
N3695 H3701 0.985 . S
C3696 C3690 1.379 . S
C3696 C3693 1.363 . S
C3696 N3694 1.356 . S
C3697 C3691 1.363 . S
C3697 C3692 1.379 . S
C3697 N3695 1.356 . S
N3698 C3690 1.356 . S
N3698 H3704 0.984 . S
N3698 H3705 0.984 . S
N3699 C3692 1.356 . S
N3699 H3702 0.984 . S
N3699 H3703 0.985 . S
H3700 N3695 0.984 . S
H3701 N3695 0.985 . S
H3702 N3699 0.984 . S
H3703 N3699 0.985 . S
H3704 N3698 0.984 . S
H3705 N3698 0.984 . S
H3706 N3694 0.984 . S
H3707 N3694 0.985 . S
C3708 C3709 1.363 . S
C3708 C3714 1.379 . S
C3708 N3716 1.356 . S
C3709 C3708 1.363 . S
C3709 C3715 1.363 . S
C3710 C3711 1.363 . S
C3710 C3715 1.379 . S
C3710 N3717 1.356 . S
C3711 C3710 1.363 . S
C3711 C3714 1.363 . S
N3712 C3714 1.356 . S
N3712 H3724 0.984 . S
N3712 H3725 0.985 . S
N3713 C3715 1.356 . S
N3713 H3718 0.984 . S
N3713 H3719 0.985 . S
C3714 C3708 1.379 . S
C3714 C3711 1.363 . S
C3714 N3712 1.356 . S
C3715 C3709 1.363 . S
C3715 C3710 1.379 . S
C3715 N3713 1.356 . S
N3716 C3708 1.356 . S
N3716 H3722 0.984 . S
N3716 H3723 0.984 . S
N3717 C3710 1.356 . S
N3717 H3720 0.984 . S
N3717 H3721 0.985 . S
H3718 N3713 0.984 . S
H3719 N3713 0.985 . S
H3720 N3717 0.984 . S
H3721 N3717 0.985 . S
H3722 N3716 0.984 . S
H3723 N3716 0.984 . S
H3724 N3712 0.984 . S
H3725 N3712 0.985 . S
C3726 C3727 1.363 . S
C3726 C3732 1.379 . S
C3726 N3734 1.356 . S
C3727 C3726 1.363 . S
C3727 C3733 1.363 . S
C3728 C3729 1.363 . S
C3728 C3733 1.379 . S
C3728 N3735 1.356 . S
C3729 C3728 1.363 . S
C3729 C3732 1.363 . S
N3730 C3732 1.356 . S
N3730 H3742 0.984 . S
N3730 H3743 0.985 . S
N3731 C3733 1.356 . S
N3731 H3736 0.984 . S
N3731 H3737 0.985 . S
C3732 C3726 1.379 . S
C3732 C3729 1.363 . S
C3732 N3730 1.356 . S
C3733 C3727 1.363 . S
C3733 C3728 1.379 . S
C3733 N3731 1.356 . S
N3734 C3726 1.356 . S
N3734 H3740 0.984 . S
N3734 H3741 0.984 . S
N3735 C3728 1.356 . S
N3735 H3738 0.984 . S
N3735 H3739 0.985 . S
H3736 N3731 0.984 . S
H3737 N3731 0.985 . S
H3738 N3735 0.984 . S
H3739 N3735 0.985 . S
H3740 N3734 0.984 . S
H3741 N3734 0.984 . S
H3742 N3730 0.984 . S
H3743 N3730 0.985 . S
C3744 C3745 1.363 . S
C3744 C3750 1.379 . S
C3744 N3752 1.356 . S
C3745 C3744 1.363 . S
C3745 C3751 1.363 . S
C3746 C3747 1.363 . S
C3746 C3751 1.379 . S
C3746 N3753 1.356 . S
C3747 C3746 1.363 . S
C3747 C3750 1.363 . S
N3748 C3750 1.356 . S
N3748 H3760 0.984 . S
N3748 H3761 0.985 . S
N3749 C3751 1.356 . S
N3749 H3754 0.984 . S
N3749 H3755 0.985 . S
C3750 C3744 1.379 . S
C3750 C3747 1.363 . S
C3750 N3748 1.356 . S
C3751 C3745 1.363 . S
C3751 C3746 1.379 . S
C3751 N3749 1.356 . S
N3752 C3744 1.356 . S
N3752 H3758 0.984 . S
N3752 H3759 0.984 . S
N3753 C3746 1.356 . S
N3753 H3756 0.984 . S
N3753 H3757 0.985 . S
H3754 N3749 0.984 . S
H3755 N3749 0.985 . S
H3756 N3753 0.984 . S
H3757 N3753 0.985 . S
H3758 N3752 0.984 . S
H3759 N3752 0.984 . S
H3760 N3748 0.984 . S
H3761 N3748 0.985 . S
C3762 C3763 1.363 . S
C3762 C3768 1.379 . S
C3762 N3770 1.356 . S
C3763 C3762 1.363 . S
C3763 C3769 1.363 1_554 S
C3764 C3765 1.363 1_556 S
C3764 C3769 1.379 . S
C3764 N3771 1.356 . S
C3765 C3764 1.363 1_554 S
C3765 C3768 1.363 . S
N3766 C3768 1.356 . S
N3766 H3778 0.984 . S
N3766 H3779 0.985 . S
N3767 C3769 1.356 . S
N3767 H3772 0.984 . S
N3767 H3773 0.985 . S
C3768 C3762 1.379 . S
C3768 C3765 1.363 . S
C3768 N3766 1.356 . S
C3769 C3763 1.363 1_556 S
C3769 C3764 1.379 . S
C3769 N3767 1.356 . S
N3770 C3762 1.356 . S
N3770 H3776 0.984 . S
N3770 H3777 0.984 . S
N3771 C3764 1.356 . S
N3771 H3774 0.984 . S
N3771 H3775 0.985 . S
H3772 N3767 0.984 . S
H3773 N3767 0.985 . S
H3774 N3771 0.984 . S
H3775 N3771 0.985 . S
H3776 N3770 0.984 . S
H3777 N3770 0.984 . S
H3778 N3766 0.984 . S
H3779 N3766 0.985 . S
C3780 C3781 1.363 . S
C3780 C3786 1.379 . S
C3780 N3788 1.356 . S
C3781 C3780 1.363 . S
C3781 C3787 1.363 . S
C3782 C3783 1.363 . S
C3782 C3787 1.379 . S
C3782 N3789 1.356 . S
C3783 C3782 1.363 . S
C3783 C3786 1.363 . S
N3784 C3786 1.356 . S
N3784 H3796 0.984 . S
N3784 H3797 0.985 . S
N3785 C3787 1.356 . S
N3785 H3790 0.984 . S
N3785 H3791 0.985 . S
C3786 C3780 1.379 . S
C3786 C3783 1.363 . S
C3786 N3784 1.356 . S
C3787 C3781 1.363 . S
C3787 C3782 1.379 . S
C3787 N3785 1.356 . S
N3788 C3780 1.356 . S
N3788 H3794 0.984 . S
N3788 H3795 0.984 . S
N3789 C3782 1.356 . S
N3789 H3792 0.984 . S
N3789 H3793 0.985 . S
H3790 N3785 0.984 . S
H3791 N3785 0.985 . S
H3792 N3789 0.984 . S
H3793 N3789 0.985 . S
H3794 N3788 0.984 . S
H3795 N3788 0.984 . S
H3796 N3784 0.984 . S
H3797 N3784 0.985 . S
C3798 C3799 1.363 1_556 S
C3798 C3804 1.379 . S
C3798 N3806 1.356 . S
C3799 C3798 1.363 1_554 S
C3799 C3805 1.363 . S
C3800 C3801 1.363 . S
C3800 C3805 1.379 . S
C3800 N3807 1.356 . S
C3801 C3800 1.363 . S
C3801 C3804 1.363 1_554 S
N3802 C3804 1.356 . S
N3802 H3814 0.984 . S
N3802 H3815 0.985 . S
N3803 C3805 1.356 . S
N3803 H3808 0.984 . S
N3803 H3809 0.985 . S
C3804 C3798 1.379 . S
C3804 C3801 1.363 1_556 S
C3804 N3802 1.356 . S
C3805 C3799 1.363 . S
C3805 C3800 1.379 . S
C3805 N3803 1.356 . S
N3806 C3798 1.356 . S
N3806 H3812 0.984 . S
N3806 H3813 0.984 . S
N3807 C3800 1.356 . S
N3807 H3810 0.984 . S
N3807 H3811 0.985 . S
H3808 N3803 0.984 . S
H3809 N3803 0.985 . S
H3810 N3807 0.984 . S
H3811 N3807 0.985 . S
H3812 N3806 0.984 . S
H3813 N3806 0.984 . S
H3814 N3802 0.984 . S
H3815 N3802 0.985 . S
C3816 C3817 1.363 . S
C3816 C3822 1.379 . S
C3816 N3824 1.356 . S
C3817 C3816 1.363 . S
C3817 C3823 1.363 . S
C3818 C3819 1.363 . S
C3818 C3823 1.379 . S
C3818 N3825 1.356 . S
C3819 C3818 1.363 . S
C3819 C3822 1.363 . S
N3820 C3822 1.356 . S
N3820 H3832 0.984 . S
N3820 H3833 0.985 . S
N3821 C3823 1.356 . S
N3821 H3826 0.984 . S
N3821 H3827 0.985 . S
C3822 C3816 1.379 . S
C3822 C3819 1.363 . S
C3822 N3820 1.356 . S
C3823 C3817 1.363 . S
C3823 C3818 1.379 . S
C3823 N3821 1.356 . S
N3824 C3816 1.356 . S
N3824 H3830 0.984 . S
N3824 H3831 0.984 . S
N3825 C3818 1.356 . S
N3825 H3828 0.984 . S
N3825 H3829 0.985 . S
H3826 N3821 0.984 . S
H3827 N3821 0.985 . S
H3828 N3825 0.984 . S
H3829 N3825 0.985 . S
H3830 N3824 0.984 . S
H3831 N3824 0.984 . S
H3832 N3820 0.984 . S
H3833 N3820 0.985 . S
C3834 C3835 1.363 . S
C3834 C3840 1.379 . S
C3834 N3842 1.356 . S
C3835 C3834 1.363 . S
C3835 C3841 1.363 . S
C3836 C3837 1.363 . S
C3836 C3841 1.379 . S
C3836 N3843 1.356 . S
C3837 C3836 1.363 . S
C3837 C3840 1.363 . S
N3838 C3840 1.356 . S
N3838 H3850 0.984 . S
N3838 H3851 0.985 . S
N3839 C3841 1.356 . S
N3839 H3844 0.984 . S
N3839 H3845 0.985 . S
C3840 C3834 1.379 . S
C3840 C3837 1.363 . S
C3840 N3838 1.356 . S
C3841 C3835 1.363 . S
C3841 C3836 1.379 . S
C3841 N3839 1.356 . S
N3842 C3834 1.356 . S
N3842 H3848 0.984 . S
N3842 H3849 0.984 . S
N3843 C3836 1.356 . S
N3843 H3846 0.984 . S
N3843 H3847 0.985 . S
H3844 N3839 0.984 . S
H3845 N3839 0.985 . S
H3846 N3843 0.984 . S
H3847 N3843 0.985 . S
H3848 N3842 0.984 . S
H3849 N3842 0.984 . S
H3850 N3838 0.984 . S
H3851 N3838 0.985 . S
C3852 C3853 1.363 . S
C3852 C3858 1.379 . S
C3852 N3860 1.356 . S
C3853 C3852 1.363 . S
C3853 C3859 1.363 . S
C3854 C3855 1.363 . S
C3854 C3859 1.379 . S
C3854 N3861 1.356 . S
C3855 C3854 1.363 . S
C3855 C3858 1.363 . S
N3856 C3858 1.356 . S
N3856 H3868 0.984 . S
N3856 H3869 0.985 . S
N3857 C3859 1.356 . S
N3857 H3862 0.984 . S
N3857 H3863 0.985 . S
C3858 C3852 1.379 . S
C3858 C3855 1.363 . S
C3858 N3856 1.356 . S
C3859 C3853 1.363 . S
C3859 C3854 1.379 . S
C3859 N3857 1.356 . S
N3860 C3852 1.356 . S
N3860 H3866 0.984 . S
N3860 H3867 0.984 . S
N3861 C3854 1.356 . S
N3861 H3864 0.984 . S
N3861 H3865 0.985 . S
H3862 N3857 0.984 . S
H3863 N3857 0.985 . S
H3864 N3861 0.984 . S
H3865 N3861 0.985 . S
H3866 N3860 0.984 . S
H3867 N3860 0.984 . S
H3868 N3856 0.984 . S
H3869 N3856 0.985 . S
C3870 C3871 1.363 . S
C3870 C3876 1.379 . S
C3870 N3878 1.356 . S
C3871 C3870 1.363 . S
C3871 C3877 1.363 . S
C3872 C3873 1.363 . S
C3872 C3877 1.379 . S
C3872 N3879 1.356 . S
C3873 C3872 1.363 . S
C3873 C3876 1.363 . S
N3874 C3876 1.356 . S
N3874 H3886 0.984 . S
N3874 H3887 0.985 . S
N3875 C3877 1.356 . S
N3875 H3880 0.984 . S
N3875 H3881 0.985 . S
C3876 C3870 1.379 . S
C3876 C3873 1.363 . S
C3876 N3874 1.356 . S
C3877 C3871 1.363 . S
C3877 C3872 1.379 . S
C3877 N3875 1.356 . S
N3878 C3870 1.356 . S
N3878 H3884 0.984 . S
N3878 H3885 0.984 . S
N3879 C3872 1.356 . S
N3879 H3882 0.984 . S
N3879 H3883 0.985 . S
H3880 N3875 0.984 . S
H3881 N3875 0.985 . S
H3882 N3879 0.984 . S
H3883 N3879 0.985 . S
H3884 N3878 0.984 . S
H3885 N3878 0.984 . S
H3886 N3874 0.984 . S
H3887 N3874 0.985 . S
C3888 C3889 1.363 . S
C3888 C3894 1.379 . S
C3888 N3896 1.356 . S
C3889 C3888 1.363 . S
C3889 C3895 1.363 . S
C3890 C3891 1.363 . S
C3890 C3895 1.379 . S
C3890 N3897 1.356 . S
C3891 C3890 1.363 . S
C3891 C3894 1.363 . S
N3892 C3894 1.356 . S
N3892 H3904 0.984 . S
N3892 H3905 0.985 . S
N3893 C3895 1.356 . S
N3893 H3898 0.984 . S
N3893 H3899 0.985 . S
C3894 C3888 1.379 . S
C3894 C3891 1.363 . S
C3894 N3892 1.356 . S
C3895 C3889 1.363 . S
C3895 C3890 1.379 . S
C3895 N3893 1.356 . S
N3896 C3888 1.356 . S
N3896 H3902 0.984 . S
N3896 H3903 0.984 . S
N3897 C3890 1.356 . S
N3897 H3900 0.984 . S
N3897 H3901 0.985 . S
H3898 N3893 0.984 . S
H3899 N3893 0.985 . S
H3900 N3897 0.984 . S
H3901 N3897 0.985 . S
H3902 N3896 0.984 . S
H3903 N3896 0.984 . S
H3904 N3892 0.984 . S
H3905 N3892 0.985 . S
C3906 C3907 1.363 . S
C3906 C3912 1.379 . S
C3906 N3914 1.356 . S
C3907 C3906 1.363 . S
C3907 C3913 1.363 . S
C3908 C3909 1.363 . S
C3908 C3913 1.379 . S
C3908 N3915 1.356 . S
C3909 C3908 1.363 . S
C3909 C3912 1.363 . S
N3910 C3912 1.356 . S
N3910 H3922 0.984 . S
N3910 H3923 0.985 . S
N3911 C3913 1.356 . S
N3911 H3916 0.984 . S
N3911 H3917 0.985 . S
C3912 C3906 1.379 . S
C3912 C3909 1.363 . S
C3912 N3910 1.356 . S
C3913 C3907 1.363 . S
C3913 C3908 1.379 . S
C3913 N3911 1.356 . S
N3914 C3906 1.356 . S
N3914 H3920 0.984 . S
N3914 H3921 0.984 . S
N3915 C3908 1.356 . S
N3915 H3918 0.984 . S
N3915 H3919 0.985 . S
H3916 N3911 0.984 . S
H3917 N3911 0.985 . S
H3918 N3915 0.984 . S
H3919 N3915 0.985 . S
H3920 N3914 0.984 . S
H3921 N3914 0.984 . S
H3922 N3910 0.984 . S
H3923 N3910 0.985 . S
C3924 C3925 1.363 . S
C3924 C3930 1.379 . S
C3924 N3932 1.356 . S
C3925 C3924 1.363 . S
C3925 C3931 1.363 . S
C3926 C3927 1.363 . S
C3926 C3931 1.379 . S
C3926 N3933 1.356 . S
C3927 C3926 1.363 . S
C3927 C3930 1.363 . S
N3928 C3930 1.356 . S
N3928 H3940 0.984 . S
N3928 H3941 0.985 . S
N3929 C3931 1.356 . S
N3929 H3934 0.984 . S
N3929 H3935 0.985 . S
C3930 C3924 1.379 . S
C3930 C3927 1.363 . S
C3930 N3928 1.356 . S
C3931 C3925 1.363 . S
C3931 C3926 1.379 . S
C3931 N3929 1.356 . S
N3932 C3924 1.356 . S
N3932 H3938 0.984 . S
N3932 H3939 0.984 . S
N3933 C3926 1.356 . S
N3933 H3936 0.984 . S
N3933 H3937 0.985 . S
H3934 N3929 0.984 . S
H3935 N3929 0.985 . S
H3936 N3933 0.984 . S
H3937 N3933 0.985 . S
H3938 N3932 0.984 . S
H3939 N3932 0.984 . S
H3940 N3928 0.984 . S
H3941 N3928 0.985 . S
C3942 C3943 1.363 . S
C3942 C3948 1.379 . S
C3942 N3950 1.356 . S
C3943 C3942 1.363 . S
C3943 C3949 1.363 . S
C3944 C3945 1.363 . S
C3944 C3949 1.379 . S
C3944 N3951 1.356 . S
C3945 C3944 1.363 . S
C3945 C3948 1.363 . S
N3946 C3948 1.356 . S
N3946 H3958 0.984 . S
N3946 H3959 0.985 . S
N3947 C3949 1.356 . S
N3947 H3952 0.984 . S
N3947 H3953 0.985 . S
C3948 C3942 1.379 . S
C3948 C3945 1.363 . S
C3948 N3946 1.356 . S
C3949 C3943 1.363 . S
C3949 C3944 1.379 . S
C3949 N3947 1.356 . S
N3950 C3942 1.356 . S
N3950 H3956 0.984 . S
N3950 H3957 0.984 . S
N3951 C3944 1.356 . S
N3951 H3954 0.984 . S
N3951 H3955 0.985 . S
H3952 N3947 0.984 . S
H3953 N3947 0.985 . S
H3954 N3951 0.984 . S
H3955 N3951 0.985 . S
H3956 N3950 0.984 . S
H3957 N3950 0.984 . S
H3958 N3946 0.984 . S
H3959 N3946 0.985 . S
C3960 C3961 1.363 . S
C3960 C3966 1.379 . S
C3960 N3968 1.356 . S
C3961 C3960 1.363 . S
C3961 C3967 1.363 . S
C3962 C3963 1.363 . S
C3962 C3967 1.379 . S
C3962 N3969 1.356 . S
C3963 C3962 1.363 . S
C3963 C3966 1.363 . S
N3964 C3966 1.356 . S
N3964 H3976 0.984 . S
N3964 H3977 0.985 . S
N3965 C3967 1.356 . S
N3965 H3970 0.984 . S
N3965 H3971 0.985 . S
C3966 C3960 1.379 . S
C3966 C3963 1.363 . S
C3966 N3964 1.356 . S
C3967 C3961 1.363 . S
C3967 C3962 1.379 . S
C3967 N3965 1.356 . S
N3968 C3960 1.356 . S
N3968 H3974 0.984 . S
N3968 H3975 0.984 . S
N3969 C3962 1.356 . S
N3969 H3972 0.984 . S
N3969 H3973 0.985 . S
H3970 N3965 0.984 . S
H3971 N3965 0.985 . S
H3972 N3969 0.984 . S
H3973 N3969 0.985 . S
H3974 N3968 0.984 . S
H3975 N3968 0.984 . S
H3976 N3964 0.984 . S
H3977 N3964 0.985 . S
C3978 C3979 1.363 . S
C3978 C3984 1.379 . S
C3978 N3986 1.356 . S
C3979 C3978 1.363 . S
C3979 C3985 1.363 . S
C3980 C3981 1.363 . S
C3980 C3985 1.379 . S
C3980 N3987 1.356 . S
C3981 C3980 1.363 . S
C3981 C3984 1.363 . S
N3982 C3984 1.356 . S
N3982 H3994 0.984 . S
N3982 H3995 0.985 . S
N3983 C3985 1.356 . S
N3983 H3988 0.984 . S
N3983 H3989 0.985 . S
C3984 C3978 1.379 . S
C3984 C3981 1.363 . S
C3984 N3982 1.356 . S
C3985 C3979 1.363 . S
C3985 C3980 1.379 . S
C3985 N3983 1.356 . S
N3986 C3978 1.356 . S
N3986 H3992 0.984 . S
N3986 H3993 0.984 . S
N3987 C3980 1.356 . S
N3987 H3990 0.984 . S
N3987 H3991 0.985 . S
H3988 N3983 0.984 . S
H3989 N3983 0.985 . S
H3990 N3987 0.984 . S
H3991 N3987 0.985 . S
H3992 N3986 0.984 . S
H3993 N3986 0.984 . S
H3994 N3982 0.984 . S
H3995 N3982 0.985 . S
C3996 C3997 1.363 . S
C3996 C4002 1.379 . S
C3996 N4004 1.356 . S
C3997 C3996 1.363 . S
C3997 C4003 1.363 . S
C3998 C3999 1.363 . S
C3998 C4003 1.379 . S
C3998 N4005 1.356 . S
C3999 C3998 1.363 . S
C3999 C4002 1.363 . S
N4000 C4002 1.356 . S
N4000 H4012 0.984 . S
N4000 H4013 0.985 . S
N4001 C4003 1.356 . S
N4001 H4006 0.984 . S
N4001 H4007 0.985 . S
C4002 C3996 1.379 . S
C4002 C3999 1.363 . S
C4002 N4000 1.356 . S
C4003 C3997 1.363 . S
C4003 C3998 1.379 . S
C4003 N4001 1.356 . S
N4004 C3996 1.356 . S
N4004 H4010 0.984 . S
N4004 H4011 0.984 . S
N4005 C3998 1.356 . S
N4005 H4008 0.984 . S
N4005 H4009 0.985 . S
H4006 N4001 0.984 . S
H4007 N4001 0.985 . S
H4008 N4005 0.984 . S
H4009 N4005 0.985 . S
H4010 N4004 0.984 . S
H4011 N4004 0.984 . S
H4012 N4000 0.984 . S
H4013 N4000 0.985 . S
C4014 C4015 1.363 . S
C4014 C4020 1.379 . S
C4014 N4022 1.356 . S
C4015 C4014 1.363 . S
C4015 C4021 1.363 . S
C4016 C4017 1.363 . S
C4016 C4021 1.379 . S
C4016 N4023 1.356 . S
C4017 C4016 1.363 . S
C4017 C4020 1.363 . S
N4018 C4020 1.356 . S
N4018 H4030 0.984 . S
N4018 H4031 0.985 . S
N4019 C4021 1.356 . S
N4019 H4024 0.984 . S
N4019 H4025 0.985 . S
C4020 C4014 1.379 . S
C4020 C4017 1.363 . S
C4020 N4018 1.356 . S
C4021 C4015 1.363 . S
C4021 C4016 1.379 . S
C4021 N4019 1.356 . S
N4022 C4014 1.356 . S
N4022 H4028 0.984 . S
N4022 H4029 0.984 . S
N4023 C4016 1.356 . S
N4023 H4026 0.984 . S
N4023 H4027 0.985 . S
H4024 N4019 0.984 . S
H4025 N4019 0.985 . S
H4026 N4023 0.984 . S
H4027 N4023 0.985 . S
H4028 N4022 0.984 . S
H4029 N4022 0.984 . S
H4030 N4018 0.984 . S
H4031 N4018 0.985 . S
C4032 C4033 1.363 . S
C4032 C4038 1.379 . S
C4032 N4040 1.356 . S
C4033 C4032 1.363 . S
C4033 C4039 1.363 . S
C4034 C4035 1.363 . S
C4034 C4039 1.379 . S
C4034 N4041 1.356 . S
C4035 C4034 1.363 . S
C4035 C4038 1.363 . S
N4036 C4038 1.356 . S
N4036 H4048 0.984 . S
N4036 H4049 0.985 . S
N4037 C4039 1.356 . S
N4037 H4042 0.984 . S
N4037 H4043 0.985 . S
C4038 C4032 1.379 . S
C4038 C4035 1.363 . S
C4038 N4036 1.356 . S
C4039 C4033 1.363 . S
C4039 C4034 1.379 . S
C4039 N4037 1.356 . S
N4040 C4032 1.356 . S
N4040 H4046 0.984 . S
N4040 H4047 0.984 . S
N4041 C4034 1.356 . S
N4041 H4044 0.984 . S
N4041 H4045 0.985 . S
H4042 N4037 0.984 . S
H4043 N4037 0.985 . S
H4044 N4041 0.984 . S
H4045 N4041 0.985 . S
H4046 N4040 0.984 . S
H4047 N4040 0.984 . S
H4048 N4036 0.984 . S
H4049 N4036 0.985 . S
C4050 C4051 1.363 . S
C4050 C4056 1.379 . S
C4050 N4058 1.356 . S
C4051 C4050 1.363 . S
C4051 C4057 1.363 . S
C4052 C4053 1.363 . S
C4052 C4057 1.379 . S
C4052 N4059 1.356 . S
C4053 C4052 1.363 . S
C4053 C4056 1.363 . S
N4054 C4056 1.356 . S
N4054 H4066 0.984 . S
N4054 H4067 0.985 . S
N4055 C4057 1.356 . S
N4055 H4060 0.984 . S
N4055 H4061 0.985 . S
C4056 C4050 1.379 . S
C4056 C4053 1.363 . S
C4056 N4054 1.356 . S
C4057 C4051 1.363 . S
C4057 C4052 1.379 . S
C4057 N4055 1.356 . S
N4058 C4050 1.356 . S
N4058 H4064 0.984 . S
N4058 H4065 0.984 . S
N4059 C4052 1.356 . S
N4059 H4062 0.984 . S
N4059 H4063 0.985 . S
H4060 N4055 0.984 . S
H4061 N4055 0.985 . S
H4062 N4059 0.984 . S
H4063 N4059 0.985 . S
H4064 N4058 0.984 . S
H4065 N4058 0.984 . S
H4066 N4054 0.984 . S
H4067 N4054 0.985 . S
C4068 C4069 1.363 . S
C4068 C4074 1.379 . S
C4068 N4076 1.356 . S
C4069 C4068 1.363 . S
C4069 C4075 1.363 . S
C4070 C4071 1.363 . S
C4070 C4075 1.379 . S
C4070 N4077 1.356 . S
C4071 C4070 1.363 . S
C4071 C4074 1.363 . S
N4072 C4074 1.356 . S
N4072 H4084 0.984 . S
N4072 H4085 0.985 . S
N4073 C4075 1.356 . S
N4073 H4078 0.984 . S
N4073 H4079 0.985 . S
C4074 C4068 1.379 . S
C4074 C4071 1.363 . S
C4074 N4072 1.356 . S
C4075 C4069 1.363 . S
C4075 C4070 1.379 . S
C4075 N4073 1.356 . S
N4076 C4068 1.356 . S
N4076 H4082 0.984 . S
N4076 H4083 0.984 . S
N4077 C4070 1.356 . S
N4077 H4080 0.984 . S
N4077 H4081 0.985 . S
H4078 N4073 0.984 . S
H4079 N4073 0.985 . S
H4080 N4077 0.984 . S
H4081 N4077 0.985 . S
H4082 N4076 0.984 . S
H4083 N4076 0.984 . S
H4084 N4072 0.984 . S
H4085 N4072 0.985 . S
C4086 C4087 1.363 . S
C4086 C4092 1.379 . S
C4086 N4094 1.356 . S
C4087 C4086 1.363 . S
C4087 C4093 1.363 1_556 S
C4088 C4089 1.363 1_554 S
C4088 C4093 1.379 . S
C4088 N4095 1.356 . S
C4089 C4088 1.363 1_556 S
C4089 C4092 1.363 . S
N4090 C4092 1.356 . S
N4090 H4102 0.984 . S
N4090 H4103 0.985 . S
N4091 C4093 1.356 . S
N4091 H4096 0.984 . S
N4091 H4097 0.985 . S
C4092 C4086 1.379 . S
C4092 C4089 1.363 . S
C4092 N4090 1.356 . S
C4093 C4087 1.363 1_554 S
C4093 C4088 1.379 . S
C4093 N4091 1.356 . S
N4094 C4086 1.356 . S
N4094 H4100 0.984 . S
N4094 H4101 0.984 . S
N4095 C4088 1.356 . S
N4095 H4098 0.984 . S
N4095 H4099 0.985 . S
H4096 N4091 0.984 . S
H4097 N4091 0.985 . S
H4098 N4095 0.984 . S
H4099 N4095 0.985 . S
H4100 N4094 0.984 . S
H4101 N4094 0.984 . S
H4102 N4090 0.984 . S
H4103 N4090 0.985 . S
C4104 C4105 1.363 . S
C4104 C4110 1.379 . S
C4104 N4112 1.356 . S
C4105 C4104 1.363 . S
C4105 C4111 1.363 1_556 S
C4106 C4107 1.363 1_554 S
C4106 C4111 1.379 . S
C4106 N4113 1.356 . S
C4107 C4106 1.363 1_556 S
C4107 C4110 1.363 . S
N4108 C4110 1.356 . S
N4108 H4120 0.984 . S
N4108 H4121 0.985 . S
N4109 C4111 1.356 . S
N4109 H4114 0.984 . S
N4109 H4115 0.985 . S
C4110 C4104 1.379 . S
C4110 C4107 1.363 . S
C4110 N4108 1.356 . S
C4111 C4105 1.363 1_554 S
C4111 C4106 1.379 . S
C4111 N4109 1.356 . S
N4112 C4104 1.356 . S
N4112 H4118 0.984 . S
N4112 H4119 0.984 . S
N4113 C4106 1.356 . S
N4113 H4116 0.984 . S
N4113 H4117 0.985 . S
H4114 N4109 0.984 . S
H4115 N4109 0.985 . S
H4116 N4113 0.984 . S
H4117 N4113 0.985 . S
H4118 N4112 0.984 . S
H4119 N4112 0.984 . S
H4120 N4108 0.984 . S
H4121 N4108 0.985 . S
C4122 C4123 1.363 . S
C4122 C4128 1.379 . S
C4122 N4130 1.356 . S
C4123 C4122 1.363 . S
C4123 C4129 1.363 1_556 S
C4124 C4125 1.363 1_554 S
C4124 C4129 1.379 . S
C4124 N4131 1.356 . S
C4125 C4124 1.363 1_556 S
C4125 C4128 1.363 . S
N4126 C4128 1.356 . S
N4126 H4138 0.984 . S
N4126 H4139 0.985 . S
N4127 C4129 1.356 . S
N4127 H4132 0.984 . S
N4127 H4133 0.985 . S
C4128 C4122 1.379 . S
C4128 C4125 1.363 . S
C4128 N4126 1.356 . S
C4129 C4123 1.363 1_554 S
C4129 C4124 1.379 . S
C4129 N4127 1.356 . S
N4130 C4122 1.356 . S
N4130 H4136 0.984 . S
N4130 H4137 0.984 . S
N4131 C4124 1.356 . S
N4131 H4134 0.984 . S
N4131 H4135 0.985 . S
H4132 N4127 0.984 . S
H4133 N4127 0.985 . S
H4134 N4131 0.984 . S
H4135 N4131 0.985 . S
H4136 N4130 0.984 . S
H4137 N4130 0.984 . S
H4138 N4126 0.984 . S
H4139 N4126 0.985 . S
C4140 C4141 1.363 . S
C4140 C4146 1.379 . S
C4140 N4148 1.356 . S
C4141 C4140 1.363 . S
C4141 C4147 1.363 . S
C4142 C4143 1.363 . S
C4142 C4147 1.379 . S
C4142 N4149 1.356 1_556 S
C4143 C4142 1.363 . S
C4143 C4146 1.363 . S
N4144 C4146 1.356 . S
N4144 H4156 0.984 . S
N4144 H4157 0.985 . S
N4145 C4147 1.356 . S
N4145 H4150 0.984 . S
N4145 H4151 0.985 . S
C4146 C4140 1.379 . S
C4146 C4143 1.363 . S
C4146 N4144 1.356 . S
C4147 C4141 1.363 . S
C4147 C4142 1.379 . S
C4147 N4145 1.356 . S
N4148 C4140 1.356 . S
N4148 H4154 0.984 . S
N4148 H4155 0.984 . S
N4149 C4142 1.356 1_554 S
N4149 H4152 0.984 . S
N4149 H4153 0.985 . S
H4150 N4145 0.984 . S
H4151 N4145 0.985 . S
H4152 N4149 0.984 . S
H4153 N4149 0.985 . S
H4154 N4148 0.984 . S
H4155 N4148 0.984 . S
H4156 N4144 0.984 . S
H4157 N4144 0.985 . S
C4158 C4159 1.363 . S
C4158 C4164 1.379 . S
C4158 N4166 1.356 . S
C4159 C4158 1.363 . S
C4159 C4165 1.363 . S
C4160 C4161 1.363 . S
C4160 C4165 1.379 . S
C4160 N4167 1.356 . S
C4161 C4160 1.363 . S
C4161 C4164 1.363 . S
N4162 C4164 1.356 . S
N4162 H4174 0.984 . S
N4162 H4175 0.985 . S
N4163 C4165 1.356 1_554 S
N4163 H4168 0.984 . S
N4163 H4169 0.985 . S
C4164 C4158 1.379 . S
C4164 C4161 1.363 . S
C4164 N4162 1.356 . S
C4165 C4159 1.363 . S
C4165 C4160 1.379 . S
C4165 N4163 1.356 1_556 S
N4166 C4158 1.356 . S
N4166 H4172 0.984 . S
N4166 H4173 0.984 . S
N4167 C4160 1.356 . S
N4167 H4170 0.984 . S
N4167 H4171 0.985 . S
H4168 N4163 0.984 . S
H4169 N4163 0.985 . S
H4170 N4167 0.984 . S
H4171 N4167 0.985 . S
H4172 N4166 0.984 . S
H4173 N4166 0.984 . S
H4174 N4162 0.984 . S
H4175 N4162 0.985 . S
C4176 C4177 1.363 . S
C4176 C4182 1.379 . S
C4176 N4184 1.356 . S
C4177 C4176 1.363 . S
C4177 C4183 1.363 . S
C4178 C4179 1.363 . S
C4178 C4183 1.379 . S
C4178 N4185 1.356 . S
C4179 C4178 1.363 . S
C4179 C4182 1.363 . S
N4180 C4182 1.356 . S
N4180 H4192 0.984 . S
N4180 H4193 0.985 . S
N4181 C4183 1.356 . S
N4181 H4186 0.984 . S
N4181 H4187 0.985 . S
C4182 C4176 1.379 . S
C4182 C4179 1.363 . S
C4182 N4180 1.356 . S
C4183 C4177 1.363 . S
C4183 C4178 1.379 . S
C4183 N4181 1.356 . S
N4184 C4176 1.356 . S
N4184 H4190 0.984 . S
N4184 H4191 0.984 . S
N4185 C4178 1.356 . S
N4185 H4188 0.984 1_556 S
N4185 H4189 0.985 . S
H4186 N4181 0.984 . S
H4187 N4181 0.985 . S
H4188 N4185 0.984 1_554 S
H4189 N4185 0.985 . S
H4190 N4184 0.984 . S
H4191 N4184 0.984 . S
H4192 N4180 0.984 . S
H4193 N4180 0.985 . S
C4194 C4195 1.363 . S
C4194 C4200 1.379 . S
C4194 N4202 1.356 . S
C4195 C4194 1.363 . S
C4195 C4201 1.363 . S
C4196 C4197 1.363 . S
C4196 C4201 1.379 . S
C4196 N4203 1.356 . S
C4197 C4196 1.363 . S
C4197 C4200 1.363 . S
N4198 C4200 1.356 . S
N4198 H4210 0.984 . S
N4198 H4211 0.985 . S
N4199 C4201 1.356 . S
N4199 H4204 0.984 . S
N4199 H4205 0.985 . S
C4200 C4194 1.379 . S
C4200 C4197 1.363 . S
C4200 N4198 1.356 . S
C4201 C4195 1.363 . S
C4201 C4196 1.379 . S
C4201 N4199 1.356 . S
N4202 C4194 1.356 . S
N4202 H4208 0.984 . S
N4202 H4209 0.984 . S
N4203 C4196 1.356 . S
N4203 H4206 0.984 . S
N4203 H4207 0.985 . S
H4204 N4199 0.984 . S
H4205 N4199 0.985 . S
H4206 N4203 0.984 . S
H4207 N4203 0.985 . S
H4208 N4202 0.984 . S
H4209 N4202 0.984 . S
H4210 N4198 0.984 . S
H4211 N4198 0.985 . S
C4212 C4213 1.363 . S
C4212 C4218 1.379 . S
C4212 N4220 1.356 . S
C4213 C4212 1.363 . S
C4213 C4219 1.363 . S
C4214 C4215 1.363 . S
C4214 C4219 1.379 . S
C4214 N4221 1.356 . S
C4215 C4214 1.363 . S
C4215 C4218 1.363 . S
N4216 C4218 1.356 . S
N4216 H4228 0.984 . S
N4216 H4229 0.985 . S
N4217 C4219 1.356 . S
N4217 H4222 0.984 . S
N4217 H4223 0.985 . S
C4218 C4212 1.379 . S
C4218 C4215 1.363 . S
C4218 N4216 1.356 . S
C4219 C4213 1.363 . S
C4219 C4214 1.379 . S
C4219 N4217 1.356 . S
N4220 C4212 1.356 . S
N4220 H4226 0.984 . S
N4220 H4227 0.984 . S
N4221 C4214 1.356 . S
N4221 H4224 0.984 . S
N4221 H4225 0.985 . S
H4222 N4217 0.984 . S
H4223 N4217 0.985 . S
H4224 N4221 0.984 . S
H4225 N4221 0.985 . S
H4226 N4220 0.984 . S
H4227 N4220 0.984 . S
H4228 N4216 0.984 . S
H4229 N4216 0.985 . S
C4230 C4231 1.363 . S
C4230 C4236 1.379 . S
C4230 N4238 1.356 . S
C4231 C4230 1.363 . S
C4231 C4237 1.363 . S
C4232 C4233 1.363 . S
C4232 C4237 1.379 . S
C4232 N4239 1.356 . S
C4233 C4232 1.363 . S
C4233 C4236 1.363 . S
N4234 C4236 1.356 . S
N4234 H4246 0.984 . S
N4234 H4247 0.985 . S
N4235 C4237 1.356 . S
N4235 H4240 0.984 . S
N4235 H4241 0.985 . S
C4236 C4230 1.379 . S
C4236 C4233 1.363 . S
C4236 N4234 1.356 . S
C4237 C4231 1.363 . S
C4237 C4232 1.379 . S
C4237 N4235 1.356 . S
N4238 C4230 1.356 . S
N4238 H4244 0.984 . S
N4238 H4245 0.984 . S
N4239 C4232 1.356 . S
N4239 H4242 0.984 . S
N4239 H4243 0.985 . S
H4240 N4235 0.984 . S
H4241 N4235 0.985 . S
H4242 N4239 0.984 . S
H4243 N4239 0.985 . S
H4244 N4238 0.984 . S
H4245 N4238 0.984 . S
H4246 N4234 0.984 . S
H4247 N4234 0.985 . S
C4248 C4249 1.363 . S
C4248 C4254 1.379 . S
C4248 N4256 1.356 . S
C4249 C4248 1.363 . S
C4249 C4255 1.363 . S
C4250 C4251 1.363 . S
C4250 C4255 1.379 . S
C4250 N4257 1.356 . S
C4251 C4250 1.363 . S
C4251 C4254 1.363 . S
N4252 C4254 1.356 . S
N4252 H4264 0.984 . S
N4252 H4265 0.985 . S
N4253 C4255 1.356 . S
N4253 H4258 0.984 . S
N4253 H4259 0.985 . S
C4254 C4248 1.379 . S
C4254 C4251 1.363 . S
C4254 N4252 1.356 . S
C4255 C4249 1.363 . S
C4255 C4250 1.379 . S
C4255 N4253 1.356 . S
N4256 C4248 1.356 . S
N4256 H4262 0.984 1_554 S
N4256 H4263 0.984 1_554 S
N4257 C4250 1.356 . S
N4257 H4260 0.984 . S
N4257 H4261 0.985 . S
H4258 N4253 0.984 . S
H4259 N4253 0.985 . S
H4260 N4257 0.984 . S
H4261 N4257 0.985 . S
H4262 N4256 0.984 1_556 S
H4263 N4256 0.984 1_556 S
H4264 N4252 0.984 . S
H4265 N4252 0.985 . S
C4266 C4267 1.363 . S
C4266 C4272 1.379 . S
C4266 N4274 1.356 . S
C4267 C4266 1.363 . S
C4267 C4273 1.363 . S
C4268 C4269 1.363 . S
C4268 C4273 1.379 . S
C4268 N4275 1.356 . S
C4269 C4268 1.363 . S
C4269 C4272 1.363 . S
N4270 C4272 1.356 1_556 S
N4270 H4282 0.984 . S
N4270 H4283 0.985 . S
N4271 C4273 1.356 . S
N4271 H4276 0.984 . S
N4271 H4277 0.985 . S
C4272 C4266 1.379 . S
C4272 C4269 1.363 . S
C4272 N4270 1.356 1_554 S
C4273 C4267 1.363 . S
C4273 C4268 1.379 . S
C4273 N4271 1.356 . S
N4274 C4266 1.356 . S
N4274 H4280 0.984 . S
N4274 H4281 0.984 . S
N4275 C4268 1.356 . S
N4275 H4278 0.984 . S
N4275 H4279 0.985 . S
H4276 N4271 0.984 . S
H4277 N4271 0.985 . S
H4278 N4275 0.984 . S
H4279 N4275 0.985 . S
H4280 N4274 0.984 . S
H4281 N4274 0.984 . S
H4282 N4270 0.984 . S
H4283 N4270 0.985 . S
C4284 C4285 1.363 . S
C4284 C4290 1.379 . S
C4284 N4292 1.356 . S
C4285 C4284 1.363 . S
C4285 C4291 1.363 . S
C4286 C4287 1.363 . S
C4286 C4291 1.379 . S
C4286 N4293 1.356 1_554 S
C4287 C4286 1.363 . S
C4287 C4290 1.363 . S
N4288 C4290 1.356 . S
N4288 H4300 0.984 . S
N4288 H4301 0.985 . S
N4289 C4291 1.356 . S
N4289 H4294 0.984 . S
N4289 H4295 0.985 . S
C4290 C4284 1.379 . S
C4290 C4287 1.363 . S
C4290 N4288 1.356 . S
C4291 C4285 1.363 . S
C4291 C4286 1.379 . S
C4291 N4289 1.356 . S
N4292 C4284 1.356 . S
N4292 H4298 0.984 . S
N4292 H4299 0.984 . S
N4293 C4286 1.356 1_556 S
N4293 H4296 0.984 . S
N4293 H4297 0.985 . S
H4294 N4289 0.984 . S
H4295 N4289 0.985 . S
H4296 N4293 0.984 . S
H4297 N4293 0.985 . S
H4298 N4292 0.984 . S
H4299 N4292 0.984 . S
H4300 N4288 0.984 . S
H4301 N4288 0.985 . S
C4302 C4303 1.363 . S
C4302 C4308 1.379 . S
C4302 N4310 1.356 . S
C4303 C4302 1.363 . S
C4303 C4309 1.363 . S
C4304 C4305 1.363 . S
C4304 C4309 1.379 . S
C4304 N4311 1.356 . S
C4305 C4304 1.363 . S
C4305 C4308 1.363 . S
N4306 C4308 1.356 . S
N4306 H4318 0.984 . S
N4306 H4319 0.985 . S
N4307 C4309 1.356 . S
N4307 H4312 0.984 . S
N4307 H4313 0.985 . S
C4308 C4302 1.379 . S
C4308 C4305 1.363 . S
C4308 N4306 1.356 . S
C4309 C4303 1.363 . S
C4309 C4304 1.379 . S
C4309 N4307 1.356 . S
N4310 C4302 1.356 . S
N4310 H4316 0.984 . S
N4310 H4317 0.984 . S
N4311 C4304 1.356 . S
N4311 H4314 0.984 . S
N4311 H4315 0.985 . S
H4312 N4307 0.984 . S
H4313 N4307 0.985 . S
H4314 N4311 0.984 . S
H4315 N4311 0.985 . S
H4316 N4310 0.984 . S
H4317 N4310 0.984 . S
H4318 N4306 0.984 . S
H4319 N4306 0.985 . S
C4320 C4321 1.363 . S
C4320 C4326 1.379 . S
C4320 N4328 1.356 . S
C4321 C4320 1.363 . S
C4321 C4327 1.363 . S
C4322 C4323 1.363 . S
C4322 C4327 1.379 . S
C4322 N4329 1.356 . S
C4323 C4322 1.363 . S
C4323 C4326 1.363 . S
N4324 C4326 1.356 . S
N4324 H4336 0.984 . S
N4324 H4337 0.985 . S
N4325 C4327 1.356 . S
N4325 H4330 0.984 . S
N4325 H4331 0.985 . S
C4326 C4320 1.379 . S
C4326 C4323 1.363 . S
C4326 N4324 1.356 . S
C4327 C4321 1.363 . S
C4327 C4322 1.379 . S
C4327 N4325 1.356 . S
N4328 C4320 1.356 . S
N4328 H4334 0.984 . S
N4328 H4335 0.984 . S
N4329 C4322 1.356 . S
N4329 H4332 0.984 . S
N4329 H4333 0.985 . S
H4330 N4325 0.984 . S
H4331 N4325 0.985 . S
H4332 N4329 0.984 . S
H4333 N4329 0.985 . S
H4334 N4328 0.984 . S
H4335 N4328 0.984 . S
H4336 N4324 0.984 . S
H4337 N4324 0.985 . S
C4338 C4339 1.363 . S
C4338 C4344 1.379 . S
C4338 N4346 1.356 . S
C4339 C4338 1.363 . S
C4339 C4345 1.363 . S
C4340 C4341 1.363 . S
C4340 C4345 1.379 . S
C4340 N4347 1.356 . S
C4341 C4340 1.363 . S
C4341 C4344 1.363 . S
N4342 C4344 1.356 . S
N4342 H4354 0.984 . S
N4342 H4355 0.985 . S
N4343 C4345 1.356 . S
N4343 H4348 0.984 . S
N4343 H4349 0.985 . S
C4344 C4338 1.379 . S
C4344 C4341 1.363 . S
C4344 N4342 1.356 . S
C4345 C4339 1.363 . S
C4345 C4340 1.379 . S
C4345 N4343 1.356 . S
N4346 C4338 1.356 . S
N4346 H4352 0.984 . S
N4346 H4353 0.984 . S
N4347 C4340 1.356 . S
N4347 H4350 0.984 . S
N4347 H4351 0.985 . S
H4348 N4343 0.984 . S
H4349 N4343 0.985 . S
H4350 N4347 0.984 . S
H4351 N4347 0.985 . S
H4352 N4346 0.984 . S
H4353 N4346 0.984 . S
H4354 N4342 0.984 . S
H4355 N4342 0.985 . S
C4356 C4357 1.363 . S
C4356 C4362 1.379 . S
C4356 N4364 1.356 . S
C4357 C4356 1.363 . S
C4357 C4363 1.363 1_655 S
C4358 C4359 1.363 . S
C4358 C4363 1.379 . S
C4358 N4365 1.356 . S
C4359 C4358 1.363 . S
C4359 C4362 1.363 1_455 S
N4360 C4362 1.356 . S
N4360 H4372 0.984 . S
N4360 H4373 0.985 1_655 S
N4361 C4363 1.356 . S
N4361 H4366 0.984 1_455 S
N4361 H4367 0.985 . S
C4362 C4356 1.379 . S
C4362 C4359 1.363 1_655 S
C4362 N4360 1.356 . S
C4363 C4357 1.363 1_455 S
C4363 C4358 1.379 . S
C4363 N4361 1.356 . S
N4364 C4356 1.356 . S
N4364 H4370 0.984 . S
N4364 H4371 0.984 . S
N4365 C4358 1.356 . S
N4365 H4368 0.984 . S
N4365 H4369 0.985 . S
H4366 N4361 0.984 1_655 S
H4367 N4361 0.985 . S
H4368 N4365 0.984 . S
H4369 N4365 0.985 . S
H4370 N4364 0.984 . S
H4371 N4364 0.984 . S
H4372 N4360 0.984 . S
H4373 N4360 0.985 1_455 S
C4374 C4375 1.363 . S
C4374 C4380 1.379 . S
C4374 N4382 1.356 . S
C4375 C4374 1.363 . S
C4375 C4381 1.363 . S
C4376 C4377 1.363 . S
C4376 C4381 1.379 . S
C4376 N4383 1.356 . S
C4377 C4376 1.363 . S
C4377 C4380 1.363 . S
N4378 C4380 1.356 . S
N4378 H4390 0.984 . S
N4378 H4391 0.985 . S
N4379 C4381 1.356 . S
N4379 H4384 0.984 . S
N4379 H4385 0.985 . S
C4380 C4374 1.379 . S
C4380 C4377 1.363 . S
C4380 N4378 1.356 . S
C4381 C4375 1.363 . S
C4381 C4376 1.379 . S
C4381 N4379 1.356 . S
N4382 C4374 1.356 . S
N4382 H4388 0.984 . S
N4382 H4389 0.984 . S
N4383 C4376 1.356 . S
N4383 H4386 0.984 . S
N4383 H4387 0.985 . S
H4384 N4379 0.984 . S
H4385 N4379 0.985 . S
H4386 N4383 0.984 . S
H4387 N4383 0.985 . S
H4388 N4382 0.984 . S
H4389 N4382 0.984 . S
H4390 N4378 0.984 . S
H4391 N4378 0.985 . S
C4392 C4393 1.363 . S
C4392 C4398 1.326 1_565 S
C4392 N4400 1.356 . S
C4393 C4392 1.363 . S
C4393 C4399 1.385 . S
C4394 C4395 1.363 . S
C4394 C4399 1.325 1_545 S
C4394 N4401 1.356 . S
C4395 C4394 1.363 . S
C4395 C4398 1.385 . S
N4396 C4398 1.406 . S
N4396 H4408 0.985 1_545 S
N4396 H4409 0.985 . S
N4397 C4399 1.407 . S
N4397 H4402 0.984 . S
N4397 H4403 0.985 1_565 S
C4398 C4392 1.326 1_545 S
C4398 C4395 1.385 . S
C4398 N4396 1.406 . S
C4399 C4393 1.385 . S
C4399 C4394 1.325 1_565 S
C4399 N4397 1.407 . S
N4400 C4392 1.356 . S
N4400 H4406 0.984 . S
N4400 H4407 0.984 . S
N4401 C4394 1.356 . S
N4401 H4404 0.984 . S
N4401 H4405 0.985 . S
H4402 N4397 0.984 . S
H4403 N4397 0.985 1_545 S
H4404 N4401 0.984 . S
H4405 N4401 0.985 . S
H4406 N4400 0.984 . S
H4407 N4400 0.984 . S
H4408 N4396 0.985 1_565 S
H4409 N4396 0.985 . S
C4410 C4411 1.363 . S
C4410 C4416 1.388 . S
C4410 N4418 1.356 . S
C4411 C4410 1.363 . S
C4411 C4417 1.358 1_545 S
C4412 C4413 1.363 . S
C4412 C4417 1.387 . S
C4412 N4419 1.356 . S
C4413 C4412 1.363 . S
C4413 C4416 1.358 1_565 S
N4414 C4416 1.349 1_565 S
N4414 H4426 0.984 1_565 S
N4414 H4427 0.985 . S
N4415 C4417 1.350 1_545 S
N4415 H4420 0.984 . S
N4415 H4421 0.985 1_545 S
C4416 C4410 1.388 . S
C4416 C4413 1.358 1_545 S
C4416 N4414 1.349 1_545 S
C4417 C4411 1.358 1_565 S
C4417 C4412 1.387 . S
C4417 N4415 1.350 1_565 S
N4418 C4410 1.356 . S
N4418 H4424 0.984 . S
N4418 H4425 0.984 . S
N4419 C4412 1.356 . S
N4419 H4422 0.984 . S
N4419 H4423 0.985 . S
H4420 N4415 0.984 . S
H4421 N4415 0.985 1_565 S
H4422 N4419 0.984 . S
H4423 N4419 0.985 . S
H4424 N4418 0.984 . S
H4425 N4418 0.984 . S
H4426 N4414 0.984 1_545 S
H4427 N4414 0.985 . S
C4428 C4429 1.363 . S
C4428 C4434 1.379 . S
C4428 N4436 1.356 . S
C4429 C4428 1.363 . S
C4429 C4435 1.363 1_455 S
C4430 C4431 1.363 . S
C4430 C4435 1.379 . S
C4430 N4437 1.356 . S
C4431 C4430 1.363 . S
C4431 C4434 1.363 1_655 S
N4432 C4434 1.355 . S
N4432 H4444 1.003 . S
N4432 H4445 0.968 1_455 S
N4433 C4435 1.355 . S
N4433 H4438 0.968 1_655 S
N4433 H4439 1.002 . S
C4434 C4428 1.379 . S
C4434 C4431 1.363 1_455 S
C4434 N4432 1.355 . S
C4435 C4429 1.363 1_655 S
C4435 C4430 1.379 . S
C4435 N4433 1.355 . S
N4436 C4428 1.356 . S
N4436 H4442 0.984 . S
N4436 H4443 0.984 . S
N4437 C4430 1.356 . S
N4437 H4440 0.984 . S
N4437 H4441 0.985 . S
H4438 N4433 0.968 1_455 S
H4439 N4433 1.002 . S
H4440 N4437 0.984 . S
H4441 N4437 0.985 . S
H4442 N4436 0.984 . S
H4443 N4436 0.984 . S
H4444 N4432 1.003 . S
H4445 N4432 0.968 1_655 S
C4446 C4447 1.363 . S
C4446 C4452 1.379 . S
C4446 N4454 1.356 . S
C4447 C4446 1.363 . S
C4447 C4453 1.363 . S
C4448 C4449 1.363 . S
C4448 C4453 1.379 . S
C4448 N4455 1.356 . S
C4449 C4448 1.363 . S
C4449 C4452 1.363 . S
N4450 C4452 1.356 . S
N4450 H4462 0.984 . S
N4450 H4463 0.985 . S
N4451 C4453 1.356 . S
N4451 H4456 0.984 . S
N4451 H4457 0.985 . S
C4452 C4446 1.379 . S
C4452 C4449 1.363 . S
C4452 N4450 1.356 . S
C4453 C4447 1.363 . S
C4453 C4448 1.379 . S
C4453 N4451 1.356 . S
N4454 C4446 1.356 . S
N4454 H4460 0.984 . S
N4454 H4461 0.984 . S
N4455 C4448 1.356 . S
N4455 H4458 0.984 . S
N4455 H4459 0.985 . S
H4456 N4451 0.984 . S
H4457 N4451 0.985 . S
H4458 N4455 0.984 . S
H4459 N4455 0.985 . S
H4460 N4454 0.984 . S
H4461 N4454 0.984 . S
H4462 N4450 0.984 . S
H4463 N4450 0.985 . S
C3169 C489 2.028 . S
C3171 C29 2.028 . S
C3187 C108 2.029 . S
C3189 C321 2.029 . S
C3205 C401 2.028 . S
C3207 C196 2.028 . S
C3223 C585 2.032 . S
C3225 C1017 2.032 . S
C3241 C673 2.032 . S
C3243 C812 2.032 . S
C3259 C900 2.032 . S
C3261 C733 2.032 . S
C3277 C1545 2.028 . S
C3279 C1085 2.028 . S
C3295 C1164 2.028 . S
C3297 C1377 2.028 . S
C3313 C1465 2.027 . S
C3315 C1261 2.027 . S
C3331 C1604 2.032 . S
C3333 C2073 2.032 1_554 S
C3349 C1721 2.031 . S
C3351 C1868 2.031 1_554 S
C3367 C1789 2.031 . S
C3369 C1956 2.031 1_554 S
C3385 C2132 2.028 . S
C3387 C2601 2.028 1_556 S
C3403 C2433 2.027 1_556 S
C3405 C2220 2.027 . S
C3421 C2308 2.028 . S
C3423 C2521 2.028 1_556 S
C3439 C2660 2.032 . S
C3441 C3129 2.032 . S
C3457 C2785 2.032 . S
C3459 C2924 2.032 . S
C3475 C2845 2.031 . S
C3477 C3012 2.031 . S
C3493 C937 1.607 . S
C3495 C57 1.417 . S
C3511 C997 1.607 . S
C3513 C137 1.417 . S
C3529 C849 1.606 . S
C3531 C225 1.417 . S
C3547 C753 1.607 . S
C3549 C293 1.417 . S
C3565 C372 1.417 . S
C3567 C548 1.607 . S
C3583 C460 1.417 . S
C3585 C636 1.607 . S
C3601 C557 1.415 . S
C3603 C409 1.612 . S
C3619 C645 1.415 . S
C3621 C497 1.612 . S
C3637 C761 1.415 . S
C3639 C313 1.612 . S
C3655 C205 1.612 . S
C3657 C841 1.415 . S
C3673 C20 1.612 . S
C3675 C929 1.415 . S
C3691 C988 1.415 . S
C3693 C117 1.612 . S
C3709 C1113 1.417 . S
C3711 C1993 1.607 . S
C3727 C1193 1.417 . S
C3729 C2053 1.607 . S
C3745 C1905 1.606 . S
C3747 C1289 1.417 . S
C3763 C1349 1.417 1_554 S
C3765 C1809 1.606 . S
C3781 C1437 1.417 1_554 S
C3783 C1641 1.606 . S
C3799 C1516 1.417 1_554 S
C3801 C1701 1.607 . S
C3817 C1633 1.415 . S
C3819 C1457 1.612 . S
C3835 C1553 1.612 . S
C3837 C1692 1.415 . S
C3853 C1369 1.612 . S
C3855 C1817 1.415 . S
C3871 C1897 1.415 . S
C3873 C1252 1.612 . S
C3889 C1076 1.612 . S
C3891 C1985 1.415 . S
C3907 C1173 1.612 . S
C3909 C2044 1.415 . S
C3925 C3049 1.607 . S
C3927 C2161 1.417 . S
C3943 C2249 1.417 . S
C3945 C3109 1.606 . S
C3961 C2337 1.417 . S
C3963 C2961 1.606 . S
C3979 C2865 1.607 . S
C3981 C2405 1.417 . S
C3997 C2697 1.606 . S
C3999 C2493 1.417 . S
C4015 C2748 1.606 . S
C4017 C2572 1.417 . S
C4033 C2689 1.415 . S
C4035 C2513 1.612 . S
C4051 C2609 1.612 . S
C4053 C2757 1.415 . S
C4069 C2873 1.415 . S
C4071 C2425 1.612 . S
C4087 C2317 1.611 . S
C4089 C2953 1.415 1_556 S
C4105 C2141 1.612 . S
C4107 C3041 1.415 1_556 S
C4123 C2229 1.612 . S
C4125 C3100 1.415 1_556 S
C4141 C1428 1.713 . S
C4143 C49 1.713 . S
C4159 C145 1.713 . S
C4161 C1525 1.713 . S
C4177 C1340 1.713 . S
C4179 C233 1.713 . S
C4195 C2345 1.712 . S
C4197 C284 1.712 . S
C4213 C381 1.713 . S
C4215 C2169 1.713 . S
C4231 C469 1.712 . S
C4233 C2257 1.713 . S
C4249 C577 1.716 . S
C4251 C3021 1.716 . S
C4267 C3137 1.715 . S
C4269 C665 1.716 . S
C4285 C2933 1.716 . S
C4287 C724 1.716 . S
C4303 C1780 1.715 . S
C4305 C821 1.715 . S
C4321 C909 1.716 . S
C4323 C1613 1.716 . S
C4339 C1025 1.715 . S
C4341 C1729 1.715 . S
C4357 C1105 1.712 . S
C4359 C2484 1.712 . S
C4375 C2581 1.712 . S
C4377 C1201 1.713 . S
C4393 C2396 1.713 . S
C4395 C1281 1.713 . S
C4411 C1877 1.716 . S
C4413 C2836 1.716 . S
C4429 C2669 1.715 . S
C4431 C1965 1.715 . S
C4447 C2777 1.716 . S
C4449 C2081 1.715 . S
