# Generated by pormake.
# Topology umx, (4)-cn, num edge types: 1
# Building blocks:
#     Node 0, Type 0, BuildingBlock: QUQFOY_clean_sbu_3, # of connection points: 4
#     Node 1, Type 0, BuildingBlock: QUQFOY_clean_sbu_3, # of connection points: 4
#     Node 2, Type 0, BuildingBlock: QUQFOY_clean_sbu_3, # of connection points: 4
#     Node 3, Type 0, BuildingBlock: QUQFOY_clean_sbu_3, # of connection points: 4
#     Node 4, Type 0, BuildingBlock: QUQFOY_clean_sbu_3, # of connection points: 4
#     Node 5, Type 0, BuildingBlock: QUQFOY_clean_sbu_3, # of connection points: 4
#     Node 6, Type 0, BuildingBlock: QUQFOY_clean_sbu_3, # of connection points: 4
#     Node 7, Type 0, BuildingBlock: QUQFOY_clean_sbu_3, # of connection points: 4
#     Edge 8, Type (0, 0), BuildingBlock: XUDNAN_clean_linker_2, # of connection points: 2
#     Edge 9, Type (0, 0), BuildingBlock: XUDNAN_clean_linker_2, # of connection points: 2
#     Edge 10, Type (0, 0), BuildingBlock: XUDNAN_clean_linker_2, # of connection points: 2
#     Edge 11, Type (0, 0), BuildingBlock: XUDNAN_clean_linker_2, # of connection points: 2
#     Edge 12, Type (0, 0), BuildingBlock: XUDNAN_clean_linker_2, # of connection points: 2
#     Edge 13, Type (0, 0), BuildingBlock: XUDNAN_clean_linker_2, # of connection points: 2
#     Edge 14, Type (0, 0), BuildingBlock: XUDNAN_clean_linker_2, # of connection points: 2
#     Edge 15, Type (0, 0), BuildingBlock: XUDNAN_clean_linker_2, # of connection points: 2
#     Edge 16, Type (0, 0), BuildingBlock: XUDNAN_clean_linker_2, # of connection points: 2
#     Edge 17, Type (0, 0), BuildingBlock: XUDNAN_clean_linker_2, # of connection points: 2
#     Edge 18, Type (0, 0), BuildingBlock: XUDNAN_clean_linker_2, # of connection points: 2
#     Edge 19, Type (0, 0), BuildingBlock: XUDNAN_clean_linker_2, # of connection points: 2
#     Edge 20, Type (0, 0), BuildingBlock: XUDNAN_clean_linker_2, # of connection points: 2
#     Edge 21, Type (0, 0), BuildingBlock: XUDNAN_clean_linker_2, # of connection points: 2
#     Edge 22, Type (0, 0), BuildingBlock: XUDNAN_clean_linker_2, # of connection points: 2
#     Edge 23, Type (0, 0), BuildingBlock: XUDNAN_clean_linker_2, # of connection points: 2
# Relax obj value: 0.078
# Max RMSD: 0.191
# Mean RMSD: 0.191
data_MOF--net-umx--node1-QUQFOY_clean_sbu_3--edge1-XUDNAN_clean_linker_2
_symmetry_space_group_name_H-M    P1
_symmetry_Int_Tables_number       1
_symmetry_cell_setting            triclinic
loop_
_symmetry_equiv_pos_as_xyz
'x, y, z'
_cell_length_a     40.608733
_cell_length_b     40.269031
_cell_length_c     28.778525
_cell_angle_alpha  89.996424
_cell_angle_beta   90.19268
_cell_angle_gamma 90.6066
loop_
_atom_site_label
_atom_site_type_symbol
_atom_site_fract_x
_atom_site_fract_y
_atom_site_fract_z
_atom_type_partial_charge
C0 C 0.23713 0.50413 0.91556 0.0
O1 O 0.2389 0.53197 0.93613 0.0
Cd2 Cd 0.2153 0.53817 0.01201 0.0
O3 O 0.22317 0.47935 0.93483 0.0
Cd4 Cd 0.19617 0.46102 0.00636 0.0
C5 C 0.13447 0.51495 -0.01059 0.0
O6 O 0.23222 0.49204 0.05913 0.0
O7 O 0.18777 0.47036 0.08796 0.0
O8 O 0.23026 0.41471 -0.01025 0.0
C9 C 0.21463 0.48597 0.0945 0.0
O10 O 0.15568 0.53726 -3e-05 0.0
C11 C 0.20989 0.39193 0.00032 0.0
O12 O 0.14269 0.48456 0.98606 0.0
O13 O 0.18165 0.40095 0.0142 0.0
C14 C 0.49262 0.21791 0.4134 0.0
O15 O 0.46473 0.21129 0.43108 0.0
Cd16 Cd 0.45972 0.17989 0.50135 0.0
O17 O 0.51892 0.20865 0.43348 0.0
Cd18 Cd 0.53662 0.18006 0.5046 0.0
C19 C 0.50002 0.10877 0.47003 0.0
O20 O 0.49689 0.20366 0.55741 0.0
O21 O 0.52263 0.16026 0.58219 0.0
O22 O 0.57712 0.22328 0.51626 0.0
C23 C 0.50376 0.18439 0.59078 0.0
O24 O 0.47308 0.1225 0.48127 0.0
C25 C 0.60218 0.2048 0.51681 0.0
O26 O 0.52717 0.12484 0.47226 0.0
O27 O 0.59711 0.17384 0.5112 0.0
C28 C 0.80318 0.51234 0.89196 0.0
O29 O 0.80925 0.48458 0.91097 0.0
Cd30 Cd 0.82741 0.47923 -0.00979 0.0
O31 O 0.80468 0.53909 0.91549 0.0
Cd32 Cd 0.81482 0.55886 -0.00445 0.0
C33 C 0.89389 0.53368 0.98637 0.0
O34 O 0.79142 0.51136 0.03698 0.0
O35 O 0.81752 0.54804 0.07834 0.0
O36 O 0.76569 0.59056 0.98487 0.0
C37 C 0.80085 0.52127 0.07676 0.0
O38 O 0.88224 0.50427 -0.01024 0.0
C39 C 0.77762 0.61838 -0.00258 0.0
O40 O 0.87488 0.55871 0.98553 0.0
O41 O 0.80803 0.61918 0.00824 0.0
C42 C 0.46482 0.75799 0.41623 0.0
O43 O 0.49317 0.75922 0.43482 0.0
Cd44 Cd 0.50373 0.79402 0.50119 0.0
O45 O 0.44098 0.77338 0.4346 0.0
Cd46 Cd 0.4299 0.80778 0.50374 0.0
C47 C 0.47651 0.86972 0.46178 0.0
O48 O 0.46636 0.7867 0.56527 0.0
O49 O 0.44862 0.83719 0.57142 0.0
O50 O 0.38659 0.7733 0.53374 0.0
C51 C 0.46324 0.81277 0.58978 0.0
O52 O 0.50033 0.85092 0.47282 0.0
C53 C 0.36293 0.79263 0.52512 0.0
O54 O 0.44675 0.86003 0.46692 0.0
O55 O 0.36998 0.82005 0.50537 0.0
C56 C 0.2372 0.50588 0.58305 0.0
O57 O 0.24187 0.48375 0.55246 0.0
Cd58 Cd 0.21744 0.48932 0.47707 0.0
O59 O 0.22081 0.53178 0.57344 0.0
Cd60 Cd 0.19242 0.56169 0.51091 0.0
C61 C 0.13543 0.50042 0.50792 0.0
O62 O 0.23055 0.54438 0.45075 0.0
O63 O 0.18579 0.56804 0.42812 0.0
O64 O 0.22205 0.60615 0.54802 0.0
C65 C 0.2133 0.55561 0.41762 0.0
O66 O 0.15829 0.48261 0.49118 0.0
C67 C 0.2012 0.62873 0.54053 0.0
O68 O 0.14091 0.53043 0.52014 0.0
O69 O 0.17461 0.6201 0.52021 0.0
C70 C 0.47958 0.21197 0.08657 0.0
O71 O 0.50363 0.20465 0.06063 0.0
Cd72 Cd 0.49516 0.17165 -0.00729 0.0
O73 O 0.45035 0.20341 0.0753 0.0
Cd74 Cd 0.42019 0.17656 0.01069 0.0
C75 C 0.45401 0.10328 0.03691 0.0
O76 O 0.45317 0.19836 0.948 0.0
O77 O 0.42222 0.15597 0.93057 0.0
O78 O 0.38464 0.22321 0.0055 0.0
C79 C 0.44023 0.18001 0.91709 0.0
O80 O 0.48017 0.11565 0.01938 0.0
C81 C 0.35765 0.20795 0.0122 0.0
O82 O 0.42808 0.1206 0.04029 0.0
O83 O 0.35913 0.17697 0.0204 0.0
C84 C 0.80611 0.48396 0.55559 0.0
O85 O 0.80972 0.50572 0.52402 0.0
Cd86 Cd 0.83086 0.49138 0.44886 0.0
O87 O 0.81077 0.45336 0.54679 0.0
Cd88 Cd 0.82345 0.41455 0.48294 0.0
C89 C 0.90007 0.44797 0.48425 0.0
O90 O 0.79799 0.44618 0.42065 0.0
O91 O 0.82626 0.40342 0.39995 0.0
O92 O 0.77636 0.385 0.51257 0.0
C93 C 0.80821 0.42754 0.38833 0.0
O94 O 0.88673 0.47368 0.46691 0.0
C95 C 0.78898 0.35632 0.51209 0.0
O96 O 0.88287 0.42236 0.49462 0.0
O97 O 0.81886 0.35444 0.4993 0.0
C98 C 0.47132 0.75514 0.08682 0.0
O99 O 0.44847 0.75672 0.05679 0.0
Cd100 Cd 0.45605 0.79395 -0.00797 0.0
O101 O 0.49891 0.76925 0.07907 0.0
Cd102 Cd 0.52884 0.79915 0.01742 0.0
C103 C 0.4846 0.86484 0.04732 0.0
O104 O 0.50273 0.78339 0.94277 0.0
O105 O 0.53085 0.82944 0.94633 0.0
O106 O 0.567 0.75451 0.01365 0.0
C107 C 0.5155 0.8082 0.92174 0.0
O108 O 0.4614 0.84881 0.02722 0.0
C109 C 0.59277 0.77118 0.02342 0.0
O110 O 0.51333 0.85261 0.05098 0.0
O111 O 0.58908 0.80193 0.03204 0.0
H112 H 0.17144 0.50806 0.15816 0.0
H113 H 0.27572 0.495 0.13338 0.0
H114 H 0.28798 0.51493 0.21334 0.0
H115 H 0.18055 0.58419 0.22715 0.0
H116 H 0.14663 0.57307 0.26447 0.0
H117 H 0.14687 0.55931 0.20491 0.0
H118 H 0.14001 0.49826 0.23234 0.0
H119 H 0.13983 0.51179 0.29188 0.0
H120 H 0.16921 0.48139 0.27311 0.0
H121 H 0.28734 0.5301 0.29928 0.0
H122 H 0.27445 0.54419 0.3811 0.0
H123 H 0.17101 0.55145 0.34493 0.0
C124 C 0.19688 0.50964 0.1695 0.0
C125 C 0.22269 0.4998 0.14027 0.0
C126 C 0.25571 0.50252 0.15569 0.0
C127 C 0.26283 0.51375 0.20086 0.0
C128 C 0.23663 0.52286 0.22923 0.0
C129 C 0.20437 0.52149 0.21371 0.0
C130 C 0.18054 0.53234 0.25065 0.0
C131 C 0.1626 0.56412 0.2359 0.0
C132 C 0.15597 0.50427 0.2627 0.0
C133 C 0.20424 0.53902 0.29005 0.0
C134 C 0.2365 0.53336 0.27731 0.0
C135 C 0.26227 0.5353 0.30937 0.0
C136 C 0.25475 0.54317 0.35565 0.0
C137 C 0.22185 0.54931 0.3689 0.0
C138 C 0.19649 0.5476 0.33549 0.0
H139 H 0.49224 0.13785 0.65796 0.0
H140 H 0.48515 0.24317 0.62823 0.0
H141 H 0.46577 0.2532 0.70826 0.0
H142 H 0.41807 0.13358 0.73063 0.0
H143 H 0.43559 0.10344 0.76959 0.0
H144 H 0.44796 0.10448 0.70952 0.0
H145 H 0.50901 0.11072 0.73494 0.0
H146 H 0.49685 0.10984 0.79501 0.0
H147 H 0.52089 0.14428 0.77313 0.0
H148 H 0.45336 0.25244 0.79294 0.0
H149 H 0.44231 0.24023 0.87567 0.0
H150 H 0.45212 0.13489 0.84855 0.0
C151 C 0.48636 0.16295 0.66833 0.0
C152 C 0.4903 0.18982 0.63736 0.0
C153 C 0.48215 0.22231 0.65166 0.0
C154 C 0.47122 0.22823 0.69694 0.0
C155 C 0.46793 0.20125 0.72688 0.0
C156 C 0.47465 0.16918 0.71301 0.0
C157 C 0.46892 0.14462 0.75203 0.0
C158 C 0.44096 0.12008 0.7397 0.0
C159 C 0.50082 0.1263 0.7645 0.0
C160 C 0.45881 0.16804 0.79038 0.0
C161 C 0.45866 0.20062 0.77517 0.0
C162 C 0.45271 0.22702 0.8051 0.0
C163 C 0.44665 0.21989 0.85189 0.0
C164 C 0.44602 0.18669 0.86781 0.0
C165 C 0.45183 0.16042 0.8367 0.0
H166 H 0.80142 0.48847 0.34875 0.0
H167 H 0.8015 0.38319 0.31735 0.0
H168 H 0.79358 0.39578 0.23386 0.0
H169 H 0.74259 0.51481 0.25861 0.0
H170 H 0.76555 0.55229 0.24611 0.0
H171 H 0.76643 0.53484 0.30376 0.0
H172 H 0.83018 0.53301 0.30076 0.0
H173 H 0.8295 0.5504 0.24321 0.0
H174 H 0.84991 0.51156 0.25362 0.0
H175 H 0.78801 0.42006 0.15367 0.0
H176 H 0.7911 0.45412 0.08217 0.0
H177 H 0.7994 0.54329 0.16613 0.0
C178 C 0.79899 0.4681 0.32433 0.0
C179 C 0.80151 0.43488 0.3392 0.0
C180 C 0.79937 0.40881 0.30636 0.0
C181 C 0.79471 0.41571 0.25905 0.0
C182 C 0.79274 0.44882 0.2453 0.0
C183 C 0.79516 0.4746 0.27694 0.0
C184 C 0.79594 0.50796 0.25281 0.0
C185 C 0.76583 0.52869 0.26612 0.0
C186 C 0.82831 0.52682 0.26322 0.0
C187 C 0.79412 0.49692 0.20264 0.0
C188 C 0.79152 0.46277 0.19902 0.0
C189 C 0.78994 0.44683 0.15605 0.0
C190 C 0.79164 0.46632 0.11571 0.0
C191 C 0.7956 0.5012 0.11886 0.0
C192 C 0.79647 0.51662 0.16285 0.0
H193 H 0.49248 0.764 0.85539 0.0
H194 H 0.53075 0.86432 0.87391 0.0
H195 H 0.52497 0.87451 0.79014 0.0
H196 H 0.53228 0.74937 0.74304 0.0
H197 H 0.49782 0.7261 0.71977 0.0
H198 H 0.50594 0.72577 0.78138 0.0
H199 H 0.44667 0.74601 0.79724 0.0
H200 H 0.43835 0.74627 0.73576 0.0
H201 H 0.43245 0.7834 0.76956 0.0
H202 H 0.5114 0.87592 0.70686 0.0
H203 H 0.49194 0.86766 0.62638 0.0
H204 H 0.46528 0.76566 0.65863 0.0
C205 C 0.49975 0.78801 0.84168 0.0
C206 C 0.51203 0.81337 0.87119 0.0
C207 C 0.52136 0.84447 0.85201 0.0
C208 C 0.51823 0.85053 0.80443 0.0
C209 C 0.50608 0.82514 0.7763 0.0
C210 C 0.49715 0.79442 0.79391 0.0
C211 C 0.48416 0.77182 0.7557 0.0
C212 C 0.50639 0.74147 0.74962 0.0
C213 C 0.44828 0.76127 0.76514 0.0
C214 C 0.48657 0.79496 0.71422 0.0
C215 C 0.49932 0.82557 0.72712 0.0
C216 C 0.50188 0.85193 0.69604 0.0
C217 C 0.49073 0.84704 0.65054 0.0
C218 C 0.4776 0.81596 0.63648 0.0
C219 C 0.47598 0.7894 0.66845 0.0
H220 H 0.80471 0.44475 0.63314 0.0
H221 H 0.79079 0.54634 0.58704 0.0
H222 H 0.78281 0.56376 0.66851 0.0
H223 H 0.74596 0.4464 0.73088 0.0
H224 H 0.77209 0.42117 0.76692 0.0
H225 H 0.77253 0.41613 0.7047 0.0
H226 H 0.83565 0.42642 0.70433 0.0
H227 H 0.83541 0.43161 0.76638 0.0
H228 H 0.8522 0.46394 0.72988 0.0
H229 H 0.78164 0.57088 0.75523 0.0
H230 H 0.78805 0.56738 0.84035 0.0
H231 H 0.80332 0.46109 0.82917 0.0
C232 C 0.7993 0.47056 0.63995 0.0
C233 C 0.79823 0.49415 0.60364 0.0
C234 C 0.79161 0.52778 0.61425 0.0
C235 C 0.78695 0.5379 0.6604 0.0
C236 C 0.78885 0.51407 0.69541 0.0
C237 C 0.79475 0.48107 0.68568 0.0
C238 C 0.7982 0.46081 0.72968 0.0
C239 C 0.77054 0.43458 0.73324 0.0
C240 C 0.83239 0.44478 0.73273 0.0
C241 C 0.79425 0.48774 0.76578 0.0
C242 C 0.78846 0.51821 0.74537 0.0
C243 C 0.78576 0.54709 0.77163 0.0
C244 C 0.78952 0.54484 0.81998 0.0
C245 C 0.79613 0.51394 0.84153 0.0
C246 C 0.79798 0.48503 0.81391 0.0
H247 H 0.51603 0.74489 0.15619 0.0
H248 H 0.4121 0.73448 0.12329 0.0
H249 H 0.40044 0.72219 0.20565 0.0
H250 H 0.51766 0.68155 0.25498 0.0
H251 H 0.54644 0.70716 0.28708 0.0
H252 H 0.54754 0.70668 0.22444 0.0
H253 H 0.54165 0.77068 0.22341 0.0
H254 H 0.54028 0.77137 0.28568 0.0
H255 H 0.50719 0.78932 0.25252 0.0
H256 H 0.39859 0.72417 0.29223 0.0
H257 H 0.40702 0.73823 0.37494 0.0
H258 H 0.51228 0.74585 0.3518 0.0
C259 C 0.49096 0.73879 0.16594 0.0
C260 C 0.46499 0.74063 0.13327 0.0
C261 C 0.43245 0.73297 0.14759 0.0
C262 C 0.4256 0.7259 0.19435 0.0
C263 C 0.45161 0.72598 0.22615 0.0
C264 C 0.48377 0.73165 0.21236 0.0
C265 C 0.50671 0.73477 0.25375 0.0
C266 C 0.53102 0.7058 0.25514 0.0
C267 C 0.52499 0.76853 0.25382 0.0
C268 C 0.48216 0.73229 0.29306 0.0
C269 C 0.45058 0.72652 0.27652 0.0
C270 C 0.42329 0.72767 0.30573 0.0
C271 C 0.42829 0.73581 0.35264 0.0
C272 C 0.46034 0.74274 0.36987 0.0
C273 C 0.48761 0.73976 0.33993 0.0
H274 H 0.24112 0.55176 0.84845 0.0
H275 H 0.25918 0.44754 0.87501 0.0
H276 H 0.27154 0.43899 0.79203 0.0
H277 H 0.19651 0.53948 0.75112 0.0
H278 H 0.21085 0.57546 0.71956 0.0
H279 H 0.21168 0.57554 0.78192 0.0
H280 H 0.27423 0.58909 0.78111 0.0
H281 H 0.27353 0.58929 0.71845 0.0
H282 H 0.30173 0.56277 0.74913 0.0
H283 H 0.27281 0.43957 0.70578 0.0
H284 H 0.26065 0.4488 0.62269 0.0
H285 H 0.23983 0.55221 0.65203 0.0
C286 C 0.24899 0.5275 0.837 0.0
C287 C 0.24958 0.5004 0.86794 0.0
C288 C 0.25877 0.46865 0.85168 0.0
C289 C 0.26605 0.46361 0.80472 0.0
C290 C 0.264 0.49057 0.77459 0.0
C291 C 0.2558 0.52196 0.79009 0.0
C292 C 0.25031 0.54549 0.7499 0.0
C293 C 0.21526 0.55979 0.75069 0.0
C294 C 0.27652 0.5733 0.74964 0.0
C295 C 0.25492 0.52199 0.70952 0.0
C296 C 0.26373 0.49068 0.72437 0.0
C297 C 0.26658 0.46414 0.69359 0.0
C298 C 0.25955 0.46959 0.64649 0.0
C299 C 0.24923 0.50118 0.63099 0.0
C300 C 0.24779 0.5278 0.66282 0.0
H301 H 0.44272 0.2255 0.35076 0.0
H302 H 0.54755 0.24243 0.36998 0.0
H303 H 0.553 0.2558 0.28686 0.0
H304 H 0.44839 0.18124 0.25548 0.0
H305 H 0.41245 0.19632 0.22556 0.0
H306 H 0.41448 0.19822 0.28771 0.0
H307 H 0.40448 0.26165 0.28536 0.0
H308 H 0.40206 0.25992 0.22282 0.0
H309 H 0.43084 0.28797 0.25065 0.0
H310 H 0.54984 0.25359 0.20131 0.0
H311 H 0.53804 0.23678 0.12055 0.0
H312 H 0.43524 0.22138 0.15612 0.0
C313 C 0.46654 0.23349 0.33789 0.0
C314 C 0.49467 0.23298 0.36675 0.0
C315 C 0.52562 0.2427 0.34845 0.0
C316 C 0.52893 0.25057 0.3013 0.0
C317 C 0.50101 0.24895 0.27309 0.0
C318 C 0.47025 0.24113 0.29084 0.0
C319 C 0.44527 0.23563 0.2524 0.0
C320 C 0.42926 0.2008 0.25549 0.0
C321 C 0.41912 0.26293 0.25284 0.0
C322 C 0.46734 0.2389 0.2104 0.0
C323 C 0.49918 0.24758 0.22294 0.0
C324 C 0.52482 0.24776 0.19084 0.0
C325 C 0.51792 0.23796 0.14509 0.0
C326 C 0.4857 0.22781 0.13207 0.0
C327 C 0.46 0.22952 0.16483 0.0
H328 H 0.94056 0.48526 0.98334 0.0
H329 H 0.92916 0.59239 0.98248 0.0
H330 H 0.98969 0.59927 0.97882 0.0
H331 H 0.01095 0.48325 0.05585 0.0
H332 H 0.02983 0.4493 0.02546 0.0
H333 H 0.98571 0.45302 0.02575 0.0
H334 H 0.98504 0.45244 0.93567 0.0
H335 H 0.02921 0.44879 0.93509 0.0
H336 H 0.00976 0.48227 0.90421 0.0
H337 H 0.05156 0.59421 0.97885 0.0
H338 H 0.10986 0.57788 0.98308 0.0
H339 H 0.08017 0.47395 0.98302 0.0
C340 C 0.95065 0.51024 0.98212 0.0
C341 C 0.93004 0.53832 0.98321 0.0
C342 C 0.94441 0.57051 0.98164 0.0
C343 C 0.97876 0.57466 0.97947 0.0
C344 C -0.00171 0.54638 0.97866 0.0
C345 C 0.98472 0.51481 0.97985 0.0
C346 C 0.01103 0.48847 0.97994 0.0
C347 C 0.00927 0.46727 0.0244 0.0
C348 C 0.00861 0.46672 0.93611 0.0
C349 C 0.04165 0.51014 0.97927 0.0
C350 C 0.0338 0.54346 0.97833 0.0
C351 C 0.05799 0.5682 0.97925 0.0
C352 C 0.09105 0.55864 0.9817 0.0
C353 C 0.09964 0.52459 0.98323 0.0
C354 C 0.07449 0.50014 0.98142 0.0
H355 H 0.4366 0.924 0.46765 0.0
H356 H 0.5341 0.89329 0.42531 0.0
H357 H 0.55019 0.95186 0.41335 0.0
H358 H 0.42477 -0.00124 0.38961 0.0
H359 H 0.404 0.02233 0.43374 0.0
H360 H 0.40445 0.97798 0.43063 0.0
H361 H 0.42274 0.97286 0.51666 0.0
H362 H 0.42269 0.01701 0.51993 0.0
H363 H 0.46222 0.98958 0.53425 0.0
H364 H 0.55211 0.01312 0.41712 0.0
H365 H 0.55128 0.07309 0.43456 0.0
H366 H 0.44862 0.06421 0.47496 0.0
C367 C 0.46093 0.92956 0.45425 0.0
C368 C 0.48402 0.90411 0.44706 0.0
C369 C 0.51598 0.91241 0.43088 0.0
C370 C 0.52532 0.9456 0.42384 0.0
C371 C 0.5024 0.97021 0.43296 0.0
C372 C 0.47074 0.96262 0.44741 0.0
C373 C 0.45203 0.99377 0.45953 0.0
C374 C 0.41646 -0.00154 0.42639 0.0
C375 C 0.44085 0.99327 0.51061 0.0
C376 C 0.47227 0.01982 0.45139 0.0
C377 C 0.50097 0.00576 0.43544 0.0
C378 C 0.52959 0.02454 0.42877 0.0
C379 C 0.52892 0.05856 0.43901 0.0
C380 C 0.49986 0.07342 0.45595 0.0
C381 C 0.4711 0.05374 0.46147 0.0
H382 H 0.07695 0.53359 0.50712 0.0
H383 H 0.11829 0.43482 0.51471 0.0
H384 H 0.0622 0.41042 0.51445 0.0
H385 H 0.00352 0.51737 0.57787 0.0
H386 H 0.97772 0.54279 0.54163 0.0
H387 H 0.02096 0.55245 0.54739 0.0
H388 H 0.02726 0.5499 0.45784 0.0
H389 H 0.98413 0.54006 0.45183 0.0
H390 H 0.01444 0.51289 0.42719 0.0
H391 H 0.00144 0.39674 0.51017 0.0
H392 H 0.941 0.39496 0.49852 0.0
H393 H 0.94026 0.50257 0.48981 0.0
C394 C 0.07417 0.50687 0.50969 0.0
C395 C 0.1019 0.48609 0.51138 0.0
C396 C 0.09731 0.45119 0.51352 0.0
C397 C 0.06558 0.43711 0.51354 0.0
C398 C 0.03873 0.45827 0.51104 0.0
C399 C 0.04271 0.4924 0.50899 0.0
C400 C 0.00999 0.50951 0.50303 0.0
C401 C 0.00262 0.53184 0.54499 0.0
C402 C 0.00891 0.52924 0.45725 0.0
C403 C 0.98705 0.47968 0.50147 0.0
C404 C 0.00397 0.45035 0.5068 0.0
C405 C 0.9879 0.41956 0.50608 0.0
C406 C 0.95361 0.41878 0.49947 0.0
C407 C 0.93597 0.44858 0.49299 0.0
C408 C 0.95305 0.47932 0.49432 0.0
H409 H 0.52621 0.9185 0.04313 0.0
H410 H 0.4275 0.88829 0.08292 0.0
H411 H 0.41282 0.94696 0.09524 0.0
H412 H 0.52685 -0.00582 0.12033 0.0
H413 H 0.54829 0.01731 0.07592 0.0
H414 H 0.55943 0.973 0.07999 0.0
H415 H 0.54147 0.96701 -0.00611 0.0
H416 H 0.52991 0.0111 -0.01032 0.0
H417 H 0.5024 0.98349 0.97558 0.0
H418 H 0.40012 0.00821 0.09221 0.0
H419 H 0.40217 0.06798 0.07365 0.0
H420 H 0.50457 0.05868 0.033 0.0
C421 C 0.50197 0.92426 0.0563 0.0
C422 C 0.4781 0.899 0.06285 0.0
C423 C 0.44618 0.90739 0.0782 0.0
C424 C 0.43767 0.9406 0.0854 0.0
C425 C 0.46134 0.96511 0.07689 0.0
C426 C 0.49292 0.95739 0.06289 0.0
C427 C 0.51231 0.98844 0.05031 0.0
C428 C 0.54157 0.99356 0.08364 0.0
C429 C 0.52373 0.98744 -0.00065 0.0
C430 C 0.48007 0.01455 0.05767 0.0
C431 C 0.45106 0.00065 0.07387 0.0
C432 C 0.42286 0.0195 0.08028 0.0
C433 C 0.42424 0.05343 0.06945 0.0
C434 C 0.45353 0.0681 0.0519 0.0
C435 C 0.48188 0.04835 0.0467 0.0
H436 H 0.25917 0.36744 0.94874 0.0
H437 H 0.18491 0.33815 0.04886 0.0
H438 H 0.21041 0.2825 0.05496 0.0
H439 H 0.27022 0.28399 0.89329 0.0
H440 H 0.31382 0.29158 0.88726 0.0
H441 H 0.28549 0.32567 0.88411 0.0
H442 H 0.31778 0.35574 0.94994 0.0
H443 H 0.34589 0.32177 0.95369 0.0
H444 H 0.32385 0.33482 0.00467 0.0
H445 H 0.25017 0.23306 0.05838 0.0
H446 H 0.29918 0.19646 0.05882 0.0
H447 H 0.34641 0.26088 0.95794 0.0
C448 C 0.24764 0.34902 0.97097 0.0
C449 C 0.22014 0.35693 -0.00169 0.0
C450 C 0.20585 0.33233 0.02725 0.0
C451 C 0.2202 0.30072 0.03091 0.0
C452 C 0.24838 0.29421 0.00482 0.0
C453 C 0.26156 0.31772 0.97491 0.0
C454 C 0.29377 0.30668 0.95444 0.0
C455 C 0.29062 0.30167 0.90164 0.0
C456 C 0.32195 0.3312 0.96645 0.0
C457 C 0.29774 0.27401 0.97922 0.0
C458 C 0.27113 0.26658 0.00737 0.0
C459 C 0.27083 0.23842 0.03583 0.0
C460 C 0.29868 0.2178 0.03594 0.0
C461 C 0.32645 0.22609 0.00859 0.0
C462 C 0.32548 0.25406 0.97929 0.0
H463 H 0.72615 0.35543 0.54388 0.0
H464 H 0.80484 0.29045 0.50062 0.0
H465 H 0.76664 0.24218 0.50578 0.0
H466 H 0.6836 0.29598 0.623 0.0
H467 H 0.64374 0.31086 0.60547 0.0
H468 H 0.67877 0.33873 0.60591 0.0
H469 H 0.6678 0.35298 0.51939 0.0
H470 H 0.63306 0.325 0.5185 0.0
H471 H 0.66587 0.31995 0.47715 0.0
H472 H 0.71726 0.20226 0.5063 0.0
H473 H 0.66219 0.1751 0.50252 0.0
H474 H 0.61718 0.26769 0.54385 0.0
C475 C 0.73569 0.33096 0.53665 0.0
C476 C 0.76847 0.32664 0.52202 0.0
C477 C 0.77984 0.29425 0.5123 0.0
C478 C 0.75832 0.26673 0.51513 0.0
C479 C 0.72571 0.2721 0.52811 0.0
C480 C 0.71464 0.30347 0.53915 0.0
C481 C 0.678 0.30354 0.54789 0.0
C482 C 0.6706 0.31282 0.59859 0.0
C483 C 0.66016 0.32672 0.51368 0.0
C484 C 0.66981 0.26754 0.53839 0.0
C485 C 0.69757 0.24952 0.52777 0.0
C486 C 0.69546 0.21607 0.51524 0.0
C487 C 0.66412 0.20086 0.5131 0.0
C488 C 0.63547 0.21933 0.52282 0.0
C489 C 0.63862 0.25288 0.53628 0.0
H490 H 0.71207 0.62058 0.97952 0.0
H491 H 0.79437 0.68205 0.02525 0.0
H492 H 0.75639 0.7293 0.0362 0.0
H493 H 0.66792 0.684 0.91747 0.0
H494 H 0.62832 0.66792 0.93521 0.0
H495 H 0.66258 0.64027 0.929 0.0
H496 H 0.65438 0.62019 0.01389 0.0
H497 H 0.62027 0.64794 0.02049 0.0
H498 H 0.65453 0.6502 0.06039 0.0
H499 H 0.70755 0.7695 0.04394 0.0
H500 H 0.65359 0.79792 0.0471 0.0
H501 H 0.60538 0.70784 -0.00213 0.0
C502 C 0.72234 0.64402 -0.00861 0.0
C503 C 0.75619 0.64768 0.00137 0.0
C504 C 0.76847 0.67877 0.01719 0.0
C505 C 0.7471 0.70568 0.02357 0.0
C506 C 0.71364 0.70096 0.01398 0.0
C507 C 0.7015 0.67081 -0.00189 0.0
C508 C 0.66466 0.67132 -0.00849 0.0
C509 C 0.65533 0.66555 0.94025 0.0
C510 C 0.64747 0.64592 0.02348 0.0
C511 C 0.65771 0.70645 0.00634 0.0
C512 C 0.68609 0.72341 0.01904 0.0
C513 C 0.68522 0.75638 0.03401 0.0
C514 C 0.65452 0.77231 0.03577 0.0
C515 C 0.6253 0.75506 0.02291 0.0
C516 C 0.62719 0.72175 0.00816 0.0
H517 H 0.34424 0.74874 0.59084 0.0
H518 H 0.30559 0.81116 0.48145 0.0
H519 H 0.25135 0.78285 0.4885 0.0
H520 H 0.31371 0.67837 0.55338 0.0
H521 H 0.30419 0.65982 0.60882 0.0
H522 H 0.33563 0.69116 0.60508 0.0
H523 H 0.30551 0.72635 0.6669 0.0
H524 H 0.27377 0.69482 0.6709 0.0
H525 H 0.26298 0.73715 0.65808 0.0
H526 H 0.20703 0.73891 0.49389 0.0
H527 H 0.17869 0.68425 0.49568 0.0
H528 H 0.24627 0.65124 0.60235 0.0
C529 C 0.32393 0.75732 0.56967 0.0
C530 C 0.32891 0.78201 0.53566 0.0
C531 C 0.30206 0.79248 0.50811 0.0
C532 C 0.27119 0.77657 0.51201 0.0
C533 C 0.26754 0.75089 0.54435 0.0
C534 C 0.29319 0.74182 0.57335 0.0
C535 C 0.28523 0.71038 0.59989 0.0
C536 C 0.3112 0.68338 0.5912 0.0
C537 C 0.28165 0.71762 0.65204 0.0
C538 C 0.25237 0.7014 0.57833 0.0
C539 C 0.24188 0.72555 0.54755 0.0
C540 C 0.21446 0.72035 0.51891 0.0
C541 C 0.19841 0.68925 0.52021 0.0
C542 C 0.21034 0.66371 0.5493 0.0
C543 C 0.23647 0.67057 0.58027 0.0
loop_
_geom_bond_atom_site_label_1
_geom_bond_atom_site_label_2
_geom_bond_distance
_geom_bond_site_symmetry_2
_ccdc_geom_bond_type
C0 O1 1.306 . S
C0 O3 1.160 . S
O1 C0 1.306 . S
O1 Cd2 2.228 1_556 S
Cd2 O1 2.228 1_554 S
Cd2 O6 2.273 . S
Cd2 O10 2.277 . S
O3 C0 1.160 . S
O3 Cd4 2.203 1_556 S
Cd4 O3 2.203 1_554 S
Cd4 O6 2.411 . S
Cd4 O7 2.333 . S
Cd4 O8 2.352 . S
Cd4 O12 2.277 . S
Cd4 O13 2.356 . S
C5 O10 1.209 . S
C5 O12 1.226 . S
O6 Cd2 2.273 . S
O6 Cd4 2.411 . S
O6 C9 1.320 . S
O7 Cd4 2.333 . S
O7 C9 1.214 . S
O8 Cd4 2.352 . S
O8 C11 1.258 . S
C9 O6 1.320 . S
C9 O7 1.214 . S
O10 Cd2 2.277 . S
O10 C5 1.209 . S
C11 O8 1.258 . S
C11 O13 1.282 . S
O12 Cd4 2.277 . S
O12 C5 1.226 . S
O13 Cd4 2.356 . S
O13 C11 1.282 . S
C14 O15 1.306 . S
C14 O17 1.160 . S
O15 C14 1.306 . S
O15 Cd16 2.228 . S
Cd16 O15 2.228 . S
Cd16 O20 2.273 . S
Cd16 O24 2.277 . S
O17 C14 1.160 . S
O17 Cd18 2.203 . S
Cd18 O17 2.203 . S
Cd18 O20 2.411 . S
Cd18 O21 2.333 . S
Cd18 O22 2.352 . S
Cd18 O26 2.277 . S
Cd18 O27 2.356 . S
C19 O24 1.209 . S
C19 O26 1.226 . S
O20 Cd16 2.273 . S
O20 Cd18 2.411 . S
O20 C23 1.320 . S
O21 Cd18 2.333 . S
O21 C23 1.214 . S
O22 Cd18 2.352 . S
O22 C25 1.258 . S
C23 O20 1.320 . S
C23 O21 1.214 . S
O24 Cd16 2.277 . S
O24 C19 1.209 . S
C25 O22 1.258 . S
C25 O27 1.282 . S
O26 Cd18 2.277 . S
O26 C19 1.226 . S
O27 Cd18 2.356 . S
O27 C25 1.282 . S
C28 O29 1.306 . S
C28 O31 1.160 . S
O29 C28 1.306 . S
O29 Cd30 2.228 1_556 S
Cd30 O29 2.228 1_554 S
Cd30 O34 2.273 . S
Cd30 O38 2.277 . S
O31 C28 1.160 . S
O31 Cd32 2.203 1_556 S
Cd32 O31 2.203 1_554 S
Cd32 O34 2.411 . S
Cd32 O35 2.333 . S
Cd32 O36 2.352 . S
Cd32 O40 2.277 . S
Cd32 O41 2.356 . S
C33 O38 1.209 . S
C33 O40 1.226 . S
O34 Cd30 2.273 . S
O34 Cd32 2.411 . S
O34 C37 1.320 . S
O35 Cd32 2.333 . S
O35 C37 1.214 . S
O36 Cd32 2.352 . S
O36 C39 1.258 . S
C37 O34 1.320 . S
C37 O35 1.214 . S
O38 Cd30 2.277 . S
O38 C33 1.209 . S
C39 O36 1.258 . S
C39 O41 1.282 . S
O40 Cd32 2.277 . S
O40 C33 1.226 . S
O41 Cd32 2.356 . S
O41 C39 1.282 . S
C42 O43 1.306 . S
C42 O45 1.160 . S
O43 C42 1.306 . S
O43 Cd44 2.228 . S
Cd44 O43 2.228 . S
Cd44 O48 2.273 . S
Cd44 O52 2.277 . S
O45 C42 1.160 . S
O45 Cd46 2.203 . S
Cd46 O45 2.203 . S
Cd46 O48 2.411 . S
Cd46 O49 2.333 . S
Cd46 O50 2.352 . S
Cd46 O54 2.277 . S
Cd46 O55 2.356 . S
C47 O52 1.209 . S
C47 O54 1.226 . S
O48 Cd44 2.273 . S
O48 Cd46 2.411 . S
O48 C51 1.320 . S
O49 Cd46 2.333 . S
O49 C51 1.214 . S
O50 Cd46 2.352 . S
O50 C53 1.258 . S
C51 O48 1.320 . S
C51 O49 1.214 . S
O52 Cd44 2.277 . S
O52 C47 1.209 . S
C53 O50 1.258 . S
C53 O55 1.282 . S
O54 Cd46 2.277 . S
O54 C47 1.226 . S
O55 Cd46 2.356 . S
O55 C53 1.282 . S
C56 O57 1.306 . S
C56 O59 1.160 . S
O57 C56 1.306 . S
O57 Cd58 2.228 . S
Cd58 O57 2.228 . S
Cd58 O62 2.273 . S
Cd58 O66 2.277 . S
O59 C56 1.160 . S
O59 Cd60 2.203 . S
Cd60 O59 2.203 . S
Cd60 O62 2.411 . S
Cd60 O63 2.333 . S
Cd60 O64 2.352 . S
Cd60 O68 2.277 . S
Cd60 O69 2.356 . S
C61 O66 1.209 . S
C61 O68 1.226 . S
O62 Cd58 2.273 . S
O62 Cd60 2.411 . S
O62 C65 1.320 . S
O63 Cd60 2.333 . S
O63 C65 1.214 . S
O64 Cd60 2.352 . S
O64 C67 1.258 . S
C65 O62 1.320 . S
C65 O63 1.214 . S
O66 Cd58 2.277 . S
O66 C61 1.209 . S
C67 O64 1.258 . S
C67 O69 1.282 . S
O68 Cd60 2.277 . S
O68 C61 1.226 . S
O69 Cd60 2.356 . S
O69 C67 1.282 . S
C70 O71 1.306 . S
C70 O73 1.160 . S
O71 C70 1.306 . S
O71 Cd72 2.228 . S
Cd72 O71 2.228 . S
Cd72 O76 2.273 1_554 S
Cd72 O80 2.277 . S
O73 C70 1.160 . S
O73 Cd74 2.203 . S
Cd74 O73 2.203 . S
Cd74 O76 2.411 1_554 S
Cd74 O77 2.333 1_554 S
Cd74 O78 2.352 . S
Cd74 O82 2.277 . S
Cd74 O83 2.356 . S
C75 O80 1.209 . S
C75 O82 1.226 . S
O76 Cd72 2.273 1_556 S
O76 Cd74 2.411 1_556 S
O76 C79 1.320 . S
O77 Cd74 2.333 1_556 S
O77 C79 1.214 . S
O78 Cd74 2.352 . S
O78 C81 1.258 . S
C79 O76 1.320 . S
C79 O77 1.214 . S
O80 Cd72 2.277 . S
O80 C75 1.209 . S
C81 O78 1.258 . S
C81 O83 1.282 . S
O82 Cd74 2.277 . S
O82 C75 1.226 . S
O83 Cd74 2.356 . S
O83 C81 1.282 . S
C84 O85 1.306 . S
C84 O87 1.160 . S
O85 C84 1.306 . S
O85 Cd86 2.228 . S
Cd86 O85 2.228 . S
Cd86 O90 2.273 . S
Cd86 O94 2.277 . S
O87 C84 1.160 . S
O87 Cd88 2.203 . S
Cd88 O87 2.203 . S
Cd88 O90 2.411 . S
Cd88 O91 2.333 . S
Cd88 O92 2.352 . S
Cd88 O96 2.277 . S
Cd88 O97 2.356 . S
C89 O94 1.209 . S
C89 O96 1.226 . S
O90 Cd86 2.273 . S
O90 Cd88 2.411 . S
O90 C93 1.320 . S
O91 Cd88 2.333 . S
O91 C93 1.214 . S
O92 Cd88 2.352 . S
O92 C95 1.258 . S
C93 O90 1.320 . S
C93 O91 1.214 . S
O94 Cd86 2.277 . S
O94 C89 1.209 . S
C95 O92 1.258 . S
C95 O97 1.282 . S
O96 Cd88 2.277 . S
O96 C89 1.226 . S
O97 Cd88 2.356 . S
O97 C95 1.282 . S
C98 O99 1.306 . S
C98 O101 1.160 . S
O99 C98 1.306 . S
O99 Cd100 2.228 . S
Cd100 O99 2.228 . S
Cd100 O104 2.273 1_554 S
Cd100 O108 2.277 . S
O101 C98 1.160 . S
O101 Cd102 2.203 . S
Cd102 O101 2.203 . S
Cd102 O104 2.411 1_554 S
Cd102 O105 2.333 1_554 S
Cd102 O106 2.352 . S
Cd102 O110 2.277 . S
Cd102 O111 2.356 . S
C103 O108 1.209 . S
C103 O110 1.226 . S
O104 Cd100 2.273 1_556 S
O104 Cd102 2.411 1_556 S
O104 C107 1.320 . S
O105 Cd102 2.333 1_556 S
O105 C107 1.214 . S
O106 Cd102 2.352 . S
O106 C109 1.258 . S
C107 O104 1.320 . S
C107 O105 1.214 . S
O108 Cd100 2.277 . S
O108 C103 1.209 . S
C109 O106 1.258 . S
C109 O111 1.282 . S
O110 Cd102 2.277 . S
O110 C103 1.226 . S
O111 Cd102 2.356 . S
O111 C109 1.282 . S
H112 C124 0.930 . S
H113 C126 0.930 . S
H114 C127 0.930 . S
H115 C131 0.959 . S
H116 C131 0.959 . S
H117 C131 0.961 . S
H118 C132 0.960 . S
H119 C132 0.961 . S
H120 C132 0.959 . S
H121 C135 0.929 . S
H122 C136 0.931 . S
H123 C138 0.930 . S
C124 H112 0.930 . S
C124 C125 1.399 . S
C124 C129 1.399 . S
C125 C124 1.399 . S
C125 C126 1.376 . S
C126 H113 0.930 . S
C126 C125 1.376 . S
C126 C127 1.388 . S
C127 H114 0.930 . S
C127 C126 1.388 . S
C127 C128 1.390 . S
C128 C127 1.390 . S
C128 C129 1.394 . S
C128 C134 1.465 . S
C129 C124 1.399 . S
C129 C128 1.394 . S
C129 C130 1.516 . S
C130 C129 1.516 . S
C130 C131 1.502 . S
C130 C132 1.561 . S
C130 C133 1.526 . S
C131 H115 0.959 . S
C131 H116 0.959 . S
C131 H117 0.961 . S
C131 C130 1.502 . S
C132 H118 0.960 . S
C132 H119 0.961 . S
C132 H120 0.959 . S
C132 C130 1.561 . S
C133 C130 1.526 . S
C133 C134 1.396 . S
C133 C138 1.390 . S
C134 C128 1.465 . S
C134 C133 1.396 . S
C134 C135 1.399 . S
C135 H121 0.929 . S
C135 C134 1.399 . S
C135 C136 1.385 . S
C136 H122 0.931 . S
C136 C135 1.385 . S
C136 C137 1.389 . S
C137 C136 1.389 . S
C137 C138 1.387 . S
C138 H123 0.930 . S
C138 C133 1.390 . S
C138 C137 1.387 . S
H139 C151 0.930 . S
H140 C153 0.930 . S
H141 C154 0.930 . S
H142 C158 0.959 . S
H143 C158 0.959 . S
H144 C158 0.961 . S
H145 C159 0.960 . S
H146 C159 0.961 . S
H147 C159 0.959 . S
H148 C162 0.929 . S
H149 C163 0.931 . S
H150 C165 0.930 . S
C151 H139 0.930 . S
C151 C152 1.399 . S
C151 C156 1.399 . S
C152 C151 1.399 . S
C152 C153 1.376 . S
C153 H140 0.930 . S
C153 C152 1.376 . S
C153 C154 1.388 . S
C154 H141 0.930 . S
C154 C153 1.388 . S
C154 C155 1.390 . S
C155 C154 1.390 . S
C155 C156 1.394 . S
C155 C161 1.465 . S
C156 C151 1.399 . S
C156 C155 1.394 . S
C156 C157 1.516 . S
C157 C156 1.516 . S
C157 C158 1.502 . S
C157 C159 1.561 . S
C157 C160 1.526 . S
C158 H142 0.959 . S
C158 H143 0.959 . S
C158 H144 0.961 . S
C158 C157 1.502 . S
C159 H145 0.960 . S
C159 H146 0.961 . S
C159 H147 0.959 . S
C159 C157 1.561 . S
C160 C157 1.526 . S
C160 C161 1.396 . S
C160 C165 1.390 . S
C161 C155 1.465 . S
C161 C160 1.396 . S
C161 C162 1.399 . S
C162 H148 0.929 . S
C162 C161 1.399 . S
C162 C163 1.385 . S
C163 H149 0.931 . S
C163 C162 1.385 . S
C163 C164 1.389 . S
C164 C163 1.389 . S
C164 C165 1.387 . S
C165 H150 0.930 . S
C165 C160 1.390 . S
C165 C164 1.387 . S
H166 C178 0.930 . S
H167 C180 0.930 . S
H168 C181 0.930 . S
H169 C185 0.959 . S
H170 C185 0.959 . S
H171 C185 0.961 . S
H172 C186 0.960 . S
H173 C186 0.961 . S
H174 C186 0.959 . S
H175 C189 0.929 . S
H176 C190 0.931 . S
H177 C192 0.930 . S
C178 H166 0.930 . S
C178 C179 1.399 . S
C178 C183 1.399 . S
C179 C178 1.399 . S
C179 C180 1.376 . S
C180 H167 0.930 . S
C180 C179 1.376 . S
C180 C181 1.388 . S
C181 H168 0.930 . S
C181 C180 1.388 . S
C181 C182 1.390 . S
C182 C181 1.390 . S
C182 C183 1.394 . S
C182 C188 1.465 . S
C183 C178 1.399 . S
C183 C182 1.394 . S
C183 C184 1.516 . S
C184 C183 1.516 . S
C184 C185 1.502 . S
C184 C186 1.561 . S
C184 C187 1.526 . S
C185 H169 0.959 . S
C185 H170 0.959 . S
C185 H171 0.961 . S
C185 C184 1.502 . S
C186 H172 0.960 . S
C186 H173 0.961 . S
C186 H174 0.959 . S
C186 C184 1.561 . S
C187 C184 1.526 . S
C187 C188 1.396 . S
C187 C192 1.390 . S
C188 C182 1.465 . S
C188 C187 1.396 . S
C188 C189 1.399 . S
C189 H175 0.929 . S
C189 C188 1.399 . S
C189 C190 1.385 . S
C190 H176 0.931 . S
C190 C189 1.385 . S
C190 C191 1.389 . S
C191 C190 1.389 . S
C191 C192 1.387 . S
C192 H177 0.930 . S
C192 C187 1.390 . S
C192 C191 1.387 . S
H193 C205 0.930 . S
H194 C207 0.930 . S
H195 C208 0.930 . S
H196 C212 0.959 . S
H197 C212 0.959 . S
H198 C212 0.961 . S
H199 C213 0.960 . S
H200 C213 0.961 . S
H201 C213 0.959 . S
H202 C216 0.929 . S
H203 C217 0.931 . S
H204 C219 0.930 . S
C205 H193 0.930 . S
C205 C206 1.399 . S
C205 C210 1.399 . S
C206 C205 1.399 . S
C206 C207 1.376 . S
C207 H194 0.930 . S
C207 C206 1.376 . S
C207 C208 1.388 . S
C208 H195 0.930 . S
C208 C207 1.388 . S
C208 C209 1.390 . S
C209 C208 1.390 . S
C209 C210 1.394 . S
C209 C215 1.465 . S
C210 C205 1.399 . S
C210 C209 1.394 . S
C210 C211 1.516 . S
C211 C210 1.516 . S
C211 C212 1.502 . S
C211 C213 1.561 . S
C211 C214 1.526 . S
C212 H196 0.959 . S
C212 H197 0.959 . S
C212 H198 0.961 . S
C212 C211 1.502 . S
C213 H199 0.960 . S
C213 H200 0.961 . S
C213 H201 0.959 . S
C213 C211 1.561 . S
C214 C211 1.526 . S
C214 C215 1.396 . S
C214 C219 1.390 . S
C215 C209 1.465 . S
C215 C214 1.396 . S
C215 C216 1.399 . S
C216 H202 0.929 . S
C216 C215 1.399 . S
C216 C217 1.385 . S
C217 H203 0.931 . S
C217 C216 1.385 . S
C217 C218 1.389 . S
C218 C217 1.389 . S
C218 C219 1.387 . S
C219 H204 0.930 . S
C219 C214 1.390 . S
C219 C218 1.387 . S
H220 C232 0.930 . S
H221 C234 0.930 . S
H222 C235 0.930 . S
H223 C239 0.959 . S
H224 C239 0.959 . S
H225 C239 0.961 . S
H226 C240 0.960 . S
H227 C240 0.961 . S
H228 C240 0.959 . S
H229 C243 0.929 . S
H230 C244 0.931 . S
H231 C246 0.930 . S
C232 H220 0.930 . S
C232 C233 1.399 . S
C232 C237 1.399 . S
C233 C232 1.399 . S
C233 C234 1.376 . S
C234 H221 0.930 . S
C234 C233 1.376 . S
C234 C235 1.388 . S
C235 H222 0.930 . S
C235 C234 1.388 . S
C235 C236 1.390 . S
C236 C235 1.390 . S
C236 C237 1.394 . S
C236 C242 1.465 . S
C237 C232 1.399 . S
C237 C236 1.394 . S
C237 C238 1.516 . S
C238 C237 1.516 . S
C238 C239 1.502 . S
C238 C240 1.561 . S
C238 C241 1.526 . S
C239 H223 0.959 . S
C239 H224 0.959 . S
C239 H225 0.961 . S
C239 C238 1.502 . S
C240 H226 0.960 . S
C240 H227 0.961 . S
C240 H228 0.959 . S
C240 C238 1.561 . S
C241 C238 1.526 . S
C241 C242 1.396 . S
C241 C246 1.390 . S
C242 C236 1.465 . S
C242 C241 1.396 . S
C242 C243 1.399 . S
C243 H229 0.929 . S
C243 C242 1.399 . S
C243 C244 1.385 . S
C244 H230 0.931 . S
C244 C243 1.385 . S
C244 C245 1.389 . S
C245 C244 1.389 . S
C245 C246 1.387 . S
C246 H231 0.930 . S
C246 C241 1.390 . S
C246 C245 1.387 . S
H247 C259 0.930 . S
H248 C261 0.930 . S
H249 C262 0.930 . S
H250 C266 0.959 . S
H251 C266 0.959 . S
H252 C266 0.961 . S
H253 C267 0.960 . S
H254 C267 0.961 . S
H255 C267 0.959 . S
H256 C270 0.929 . S
H257 C271 0.931 . S
H258 C273 0.930 . S
C259 H247 0.930 . S
C259 C260 1.399 . S
C259 C264 1.399 . S
C260 C259 1.399 . S
C260 C261 1.376 . S
C261 H248 0.930 . S
C261 C260 1.376 . S
C261 C262 1.388 . S
C262 H249 0.930 . S
C262 C261 1.388 . S
C262 C263 1.390 . S
C263 C262 1.390 . S
C263 C264 1.394 . S
C263 C269 1.465 . S
C264 C259 1.399 . S
C264 C263 1.394 . S
C264 C265 1.516 . S
C265 C264 1.516 . S
C265 C266 1.502 . S
C265 C267 1.561 . S
C265 C268 1.526 . S
C266 H250 0.959 . S
C266 H251 0.959 . S
C266 H252 0.961 . S
C266 C265 1.502 . S
C267 H253 0.960 . S
C267 H254 0.961 . S
C267 H255 0.959 . S
C267 C265 1.561 . S
C268 C265 1.526 . S
C268 C269 1.396 . S
C268 C273 1.390 . S
C269 C263 1.465 . S
C269 C268 1.396 . S
C269 C270 1.399 . S
C270 H256 0.929 . S
C270 C269 1.399 . S
C270 C271 1.385 . S
C271 H257 0.931 . S
C271 C270 1.385 . S
C271 C272 1.389 . S
C272 C271 1.389 . S
C272 C273 1.387 . S
C273 H258 0.930 . S
C273 C268 1.390 . S
C273 C272 1.387 . S
H274 C286 0.930 . S
H275 C288 0.930 . S
H276 C289 0.930 . S
H277 C293 0.959 . S
H278 C293 0.959 . S
H279 C293 0.961 . S
H280 C294 0.960 . S
H281 C294 0.961 . S
H282 C294 0.959 . S
H283 C297 0.929 . S
H284 C298 0.931 . S
H285 C300 0.930 . S
C286 H274 0.930 . S
C286 C287 1.399 . S
C286 C291 1.399 . S
C287 C286 1.399 . S
C287 C288 1.376 . S
C288 H275 0.930 . S
C288 C287 1.376 . S
C288 C289 1.388 . S
C289 H276 0.930 . S
C289 C288 1.388 . S
C289 C290 1.390 . S
C290 C289 1.390 . S
C290 C291 1.394 . S
C290 C296 1.465 . S
C291 C286 1.399 . S
C291 C290 1.394 . S
C291 C292 1.516 . S
C292 C291 1.516 . S
C292 C293 1.502 . S
C292 C294 1.561 . S
C292 C295 1.526 . S
C293 H277 0.959 . S
C293 H278 0.959 . S
C293 H279 0.961 . S
C293 C292 1.502 . S
C294 H280 0.960 . S
C294 H281 0.961 . S
C294 H282 0.959 . S
C294 C292 1.561 . S
C295 C292 1.526 . S
C295 C296 1.396 . S
C295 C300 1.390 . S
C296 C290 1.465 . S
C296 C295 1.396 . S
C296 C297 1.399 . S
C297 H283 0.929 . S
C297 C296 1.399 . S
C297 C298 1.385 . S
C298 H284 0.931 . S
C298 C297 1.385 . S
C298 C299 1.389 . S
C299 C298 1.389 . S
C299 C300 1.387 . S
C300 H285 0.930 . S
C300 C295 1.390 . S
C300 C299 1.387 . S
H301 C313 0.930 . S
H302 C315 0.930 . S
H303 C316 0.930 . S
H304 C320 0.959 . S
H305 C320 0.959 . S
H306 C320 0.961 . S
H307 C321 0.960 . S
H308 C321 0.961 . S
H309 C321 0.959 . S
H310 C324 0.929 . S
H311 C325 0.931 . S
H312 C327 0.930 . S
C313 H301 0.930 . S
C313 C314 1.399 . S
C313 C318 1.399 . S
C314 C313 1.399 . S
C314 C315 1.376 . S
C315 H302 0.930 . S
C315 C314 1.376 . S
C315 C316 1.388 . S
C316 H303 0.930 . S
C316 C315 1.388 . S
C316 C317 1.390 . S
C317 C316 1.390 . S
C317 C318 1.394 . S
C317 C323 1.465 . S
C318 C313 1.399 . S
C318 C317 1.394 . S
C318 C319 1.516 . S
C319 C318 1.516 . S
C319 C320 1.502 . S
C319 C321 1.561 . S
C319 C322 1.526 . S
C320 H304 0.959 . S
C320 H305 0.959 . S
C320 H306 0.961 . S
C320 C319 1.502 . S
C321 H307 0.960 . S
C321 H308 0.961 . S
C321 H309 0.959 . S
C321 C319 1.561 . S
C322 C319 1.526 . S
C322 C323 1.396 . S
C322 C327 1.390 . S
C323 C317 1.465 . S
C323 C322 1.396 . S
C323 C324 1.399 . S
C324 H310 0.929 . S
C324 C323 1.399 . S
C324 C325 1.385 . S
C325 H311 0.931 . S
C325 C324 1.385 . S
C325 C326 1.389 . S
C326 C325 1.389 . S
C326 C327 1.387 . S
C327 H312 0.930 . S
C327 C322 1.390 . S
C327 C326 1.387 . S
H328 C340 0.930 . S
H329 C342 0.930 . S
H330 C343 0.930 . S
H331 C347 0.959 . S
H332 C347 0.964 . S
H333 C347 0.961 . S
H334 C348 0.960 1_655 S
H335 C348 0.961 . S
H336 C348 0.959 . S
H337 C351 0.929 . S
H338 C352 0.931 . S
H339 C354 0.930 . S
C340 H328 0.930 . S
C340 C341 1.399 1_556 S
C340 C345 1.399 . S
C341 C340 1.399 1_554 S
C341 C342 1.376 . S
C342 H329 0.930 . S
C342 C341 1.376 . S
C342 C343 1.388 . S
C343 H330 0.930 . S
C343 C342 1.388 . S
C343 C344 1.390 . S
C344 C343 1.390 . S
C344 C345 1.394 1_554 S
C344 C350 1.465 1_655 S
C345 C340 1.399 . S
C345 C344 1.394 1_556 S
C345 C346 1.516 . S
C346 C345 1.516 . S
C346 C347 1.502 . S
C346 C348 1.561 1_655 S
C346 C349 1.526 1_655 S
C347 H331 0.959 . S
C347 H332 0.964 . S
C347 H333 0.961 . S
C347 C346 1.502 . S
C348 H334 0.960 1_455 S
C348 H335 0.961 . S
C348 H336 0.959 . S
C348 C346 1.561 1_455 S
C349 C346 1.526 1_455 S
C349 C350 1.396 1_556 S
C349 C354 1.390 . S
C350 C344 1.465 1_455 S
C350 C349 1.396 1_554 S
C350 C351 1.399 . S
C351 H337 0.929 . S
C351 C350 1.399 . S
C351 C352 1.385 . S
C352 H338 0.931 . S
C352 C351 1.385 . S
C352 C353 1.389 . S
C353 C352 1.389 . S
C353 C354 1.387 1_554 S
C354 H339 0.930 . S
C354 C349 1.390 . S
C354 C353 1.387 1_556 S
H355 C367 0.930 . S
H356 C369 0.930 . S
H357 C370 0.930 . S
H358 C374 0.959 . S
H359 C374 0.959 . S
H360 C374 0.961 . S
H361 C375 0.960 1_565 S
H362 C375 0.960 . S
H363 C375 0.959 1_565 S
H364 C378 0.929 . S
H365 C379 0.931 . S
H366 C381 0.930 . S
C367 H355 0.930 . S
C367 C368 1.399 . S
C367 C372 1.399 . S
C368 C367 1.399 . S
C368 C369 1.376 . S
C369 H356 0.930 . S
C369 C368 1.376 . S
C369 C370 1.388 . S
C370 H357 0.930 . S
C370 C369 1.388 . S
C370 C371 1.390 . S
C371 C370 1.390 . S
C371 C372 1.394 . S
C371 C377 1.465 1_565 S
C372 C367 1.399 . S
C372 C371 1.394 . S
C372 C373 1.516 1_565 S
C373 C372 1.516 1_545 S
C373 C374 1.502 . S
C373 C375 1.561 . S
C373 C376 1.526 . S
C374 H358 0.959 . S
C374 H359 0.959 . S
C374 H360 0.961 . S
C374 C373 1.502 . S
C375 H361 0.960 1_545 S
C375 H362 0.960 . S
C375 H363 0.959 1_545 S
C375 C373 1.561 . S
C376 C373 1.526 . S
C376 C377 1.396 . S
C376 C381 1.390 . S
C377 C371 1.465 1_545 S
C377 C376 1.396 . S
C377 C378 1.399 . S
C378 H364 0.929 . S
C378 C377 1.399 . S
C378 C379 1.385 . S
C379 H365 0.931 . S
C379 C378 1.385 . S
C379 C380 1.389 . S
C380 C379 1.389 . S
C380 C381 1.387 . S
C381 H366 0.930 . S
C381 C376 1.390 . S
C381 C380 1.387 . S
H382 C394 0.930 . S
H383 C396 0.930 . S
H384 C397 0.930 . S
H385 C401 0.959 . S
H386 C401 0.959 . S
H387 C401 0.961 1_455 S
H388 C402 0.960 . S
H389 C402 0.961 1_655 S
H390 C402 0.959 . S
H391 C405 0.929 . S
H392 C406 0.931 . S
H393 C408 0.930 . S
C394 H382 0.930 . S
C394 C395 1.399 . S
C394 C399 1.399 . S
C395 C394 1.399 . S
C395 C396 1.376 . S
C396 H383 0.930 . S
C396 C395 1.376 . S
C396 C397 1.388 . S
C397 H384 0.930 . S
C397 C396 1.388 . S
C397 C398 1.390 . S
C398 C397 1.390 . S
C398 C399 1.394 . S
C398 C404 1.465 1_455 S
C399 C394 1.399 . S
C399 C398 1.394 . S
C399 C400 1.512 1_455 S
C400 C399 1.512 1_655 S
C400 C401 1.504 . S
C400 C402 1.559 1_655 S
C400 C403 1.530 . S
C401 H385 0.959 . S
C401 H386 0.959 . S
C401 H387 0.961 1_655 S
C401 C400 1.504 . S
C402 H388 0.960 . S
C402 H389 0.961 1_455 S
C402 H390 0.959 . S
C402 C400 1.559 1_455 S
C403 C400 1.530 . S
C403 C404 1.396 . S
C403 C408 1.390 . S
C404 C398 1.465 1_655 S
C404 C403 1.396 . S
C404 C405 1.399 . S
C405 H391 0.929 . S
C405 C404 1.399 . S
C405 C406 1.385 . S
C406 H392 0.931 . S
C406 C405 1.385 . S
C406 C407 1.389 . S
C407 C406 1.389 . S
C407 C408 1.387 . S
C408 H393 0.930 . S
C408 C403 1.390 . S
C408 C407 1.387 . S
H409 C421 0.930 . S
H410 C423 0.930 . S
H411 C424 0.930 . S
H412 C428 0.959 . S
H413 C428 0.959 . S
H414 C428 0.961 1_565 S
H415 C429 0.960 . S
H416 C429 0.961 1_545 S
H417 C429 0.959 . S
H418 C432 0.929 . S
H419 C433 0.931 . S
H420 C435 0.930 . S
C421 H409 0.930 . S
C421 C422 1.399 1_556 S
C421 C426 1.399 . S
C422 C421 1.399 1_554 S
C422 C423 1.376 . S
C423 H410 0.930 . S
C423 C422 1.376 . S
C423 C424 1.388 . S
C424 H411 0.930 . S
C424 C423 1.388 . S
C424 C425 1.390 . S
C425 C424 1.390 . S
C425 C426 1.394 1_554 S
C425 C431 1.465 1_565 S
C426 C421 1.399 . S
C426 C425 1.394 1_556 S
C426 C427 1.516 1_565 S
C427 C426 1.516 1_545 S
C427 C428 1.502 . S
C427 C429 1.561 1_545 S
C427 C430 1.526 . S
C428 H412 0.959 . S
C428 H413 0.959 . S
C428 H414 0.961 1_545 S
C428 C427 1.502 . S
C429 H415 0.960 . S
C429 H416 0.961 1_565 S
C429 H417 0.959 . S
C429 C427 1.561 1_565 S
C430 C427 1.526 . S
C430 C431 1.396 1_556 S
C430 C435 1.390 . S
C431 C425 1.465 1_545 S
C431 C430 1.396 1_554 S
C431 C432 1.399 . S
C432 H418 0.929 . S
C432 C431 1.399 . S
C432 C433 1.385 . S
C433 H419 0.931 . S
C433 C432 1.385 . S
C433 C434 1.389 . S
C434 C433 1.389 . S
C434 C435 1.387 1_554 S
C435 H420 0.930 . S
C435 C430 1.390 . S
C435 C434 1.387 1_556 S
H436 C448 0.930 . S
H437 C450 0.930 . S
H438 C451 0.930 . S
H439 C455 0.959 . S
H440 C455 0.959 . S
H441 C455 0.961 . S
H442 C456 0.960 . S
H443 C456 0.961 . S
H444 C456 0.959 . S
H445 C459 0.929 . S
H446 C460 0.931 . S
H447 C462 0.930 . S
C448 H436 0.930 . S
C448 C449 1.399 1_556 S
C448 C453 1.399 . S
C449 C448 1.399 1_554 S
C449 C450 1.376 . S
C450 H437 0.930 . S
C450 C449 1.376 . S
C450 C451 1.388 . S
C451 H438 0.930 . S
C451 C450 1.388 . S
C451 C452 1.390 . S
C452 C451 1.390 . S
C452 C453 1.394 1_554 S
C452 C458 1.465 . S
C453 C448 1.399 . S
C453 C452 1.394 1_556 S
C453 C454 1.516 . S
C454 C453 1.516 . S
C454 C455 1.502 . S
C454 C456 1.561 . S
C454 C457 1.526 . S
C455 H439 0.959 . S
C455 H440 0.959 . S
C455 H441 0.961 . S
C455 C454 1.502 . S
C456 H442 0.960 . S
C456 H443 0.961 . S
C456 H444 0.959 . S
C456 C454 1.561 . S
C457 C454 1.526 . S
C457 C458 1.396 1_556 S
C457 C462 1.390 . S
C458 C452 1.465 . S
C458 C457 1.396 1_554 S
C458 C459 1.399 . S
C459 H445 0.929 . S
C459 C458 1.399 . S
C459 C460 1.385 . S
C460 H446 0.931 . S
C460 C459 1.385 . S
C460 C461 1.389 . S
C461 C460 1.389 . S
C461 C462 1.387 1_554 S
C462 H447 0.930 . S
C462 C457 1.390 . S
C462 C461 1.387 1_556 S
H463 C475 0.930 . S
H464 C477 0.930 . S
H465 C478 0.930 . S
H466 C482 0.959 . S
H467 C482 0.959 . S
H468 C482 0.961 . S
H469 C483 0.960 . S
H470 C483 0.961 . S
H471 C483 0.959 . S
H472 C486 0.929 . S
H473 C487 0.931 . S
H474 C489 0.930 . S
C475 H463 0.930 . S
C475 C476 1.399 . S
C475 C480 1.399 . S
C476 C475 1.399 . S
C476 C477 1.376 . S
C477 H464 0.930 . S
C477 C476 1.376 . S
C477 C478 1.388 . S
C478 H465 0.930 . S
C478 C477 1.388 . S
C478 C479 1.390 . S
C479 C478 1.390 . S
C479 C480 1.394 . S
C479 C485 1.465 . S
C480 C475 1.399 . S
C480 C479 1.394 . S
C480 C481 1.516 . S
C481 C480 1.516 . S
C481 C482 1.502 . S
C481 C483 1.561 . S
C481 C484 1.526 . S
C482 H466 0.959 . S
C482 H467 0.959 . S
C482 H468 0.961 . S
C482 C481 1.502 . S
C483 H469 0.960 . S
C483 H470 0.961 . S
C483 H471 0.959 . S
C483 C481 1.561 . S
C484 C481 1.526 . S
C484 C485 1.396 . S
C484 C489 1.390 . S
C485 C479 1.465 . S
C485 C484 1.396 . S
C485 C486 1.399 . S
C486 H472 0.929 . S
C486 C485 1.399 . S
C486 C487 1.385 . S
C487 H473 0.931 . S
C487 C486 1.385 . S
C487 C488 1.389 . S
C488 C487 1.389 . S
C488 C489 1.387 . S
C489 H474 0.930 . S
C489 C484 1.390 . S
C489 C488 1.387 . S
H490 C502 0.930 . S
H491 C504 0.930 . S
H492 C505 0.930 . S
H493 C509 0.959 . S
H494 C509 0.959 . S
H495 C509 0.961 . S
H496 C510 0.960 . S
H497 C510 0.961 . S
H498 C510 0.959 . S
H499 C513 0.929 . S
H500 C514 0.931 . S
H501 C516 0.930 . S
C502 H490 0.930 . S
C502 C503 1.399 . S
C502 C507 1.399 . S
C503 C502 1.399 . S
C503 C504 1.376 1_554 S
C504 H491 0.930 . S
C504 C503 1.376 1_556 S
C504 C505 1.388 . S
C505 H492 0.930 . S
C505 C504 1.388 . S
C505 C506 1.390 . S
C506 C505 1.390 . S
C506 C507 1.394 1_556 S
C506 C512 1.465 . S
C507 C502 1.399 . S
C507 C506 1.394 1_554 S
C507 C508 1.516 . S
C508 C507 1.516 . S
C508 C509 1.502 . S
C508 C510 1.561 . S
C508 C511 1.526 . S
C509 H493 0.959 . S
C509 H494 0.959 . S
C509 H495 0.961 . S
C509 C508 1.502 . S
C510 H496 0.960 . S
C510 H497 0.961 . S
C510 H498 0.959 . S
C510 C508 1.561 . S
C511 C508 1.526 . S
C511 C512 1.396 1_554 S
C511 C516 1.390 . S
C512 C506 1.465 . S
C512 C511 1.396 1_556 S
C512 C513 1.399 . S
C513 H499 0.929 . S
C513 C512 1.399 . S
C513 C514 1.385 . S
C514 H500 0.931 . S
C514 C513 1.385 . S
C514 C515 1.389 1_556 S
C515 C514 1.389 1_554 S
C515 C516 1.387 . S
C516 H501 0.930 . S
C516 C511 1.390 . S
C516 C515 1.387 . S
H517 C529 0.930 . S
H518 C531 0.930 . S
H519 C532 0.930 . S
H520 C536 0.959 . S
H521 C536 0.959 . S
H522 C536 0.961 . S
H523 C537 0.960 . S
H524 C537 0.961 . S
H525 C537 0.959 . S
H526 C540 0.929 . S
H527 C541 0.931 . S
H528 C543 0.930 . S
C529 H517 0.930 . S
C529 C530 1.399 . S
C529 C534 1.399 . S
C530 C529 1.399 . S
C530 C531 1.376 . S
C531 H518 0.930 . S
C531 C530 1.376 . S
C531 C532 1.388 . S
C532 H519 0.930 . S
C532 C531 1.388 . S
C532 C533 1.390 . S
C533 C532 1.390 . S
C533 C534 1.394 . S
C533 C539 1.465 . S
C534 C529 1.399 . S
C534 C533 1.394 . S
C534 C535 1.516 . S
C535 C534 1.516 . S
C535 C536 1.502 . S
C535 C537 1.561 . S
C535 C538 1.526 . S
C536 H520 0.959 . S
C536 H521 0.959 . S
C536 H522 0.961 . S
C536 C535 1.502 . S
C537 H523 0.960 . S
C537 H524 0.961 . S
C537 H525 0.959 . S
C537 C535 1.561 . S
C538 C535 1.526 . S
C538 C539 1.396 . S
C538 C543 1.390 . S
C539 C533 1.465 . S
C539 C538 1.396 . S
C539 C540 1.399 . S
C540 H526 0.929 . S
C540 C539 1.399 . S
C540 C541 1.385 . S
C541 H527 0.931 . S
C541 C540 1.385 . S
C541 C542 1.389 . S
C542 C541 1.389 . S
C542 C543 1.387 . S
C543 H528 0.930 . S
C543 C538 1.390 . S
C543 C542 1.387 . S
C125 C9 1.257 . S
C137 C65 1.309 . S
C152 C23 1.256 . S
C164 C79 1.325 . S
C179 C93 1.250 . S
C191 C37 1.318 . S
C206 C107 1.301 . S
C218 C51 1.265 . S
C233 C84 1.248 . S
C245 C28 1.226 . S
C260 C98 1.250 . S
C272 C42 1.232 . S
C287 C0 1.229 . S
C299 C56 1.249 . S
C314 C14 1.192 . S
C326 C70 1.206 . S
C341 C33 1.376 . S
C353 C5 1.341 . S
C368 C47 1.332 . S
C380 C19 1.374 . S
C395 C61 1.341 . S
C407 C89 1.363 . S
C422 C103 1.341 . S
C434 C75 1.363 . S
C449 C11 1.333 . S
C461 C81 1.337 . S
C476 C95 1.339 . S
C488 C25 1.335 . S
C503 C39 1.339 . S
C515 C109 1.334 . S
C530 C53 1.339 . S
C542 C67 1.335 . S
