# Generated by pormake.
# Topology ske, (6)-cn, num edge types: 1
# Building blocks:
#     Node 0, Type 0, BuildingBlock: MIFKUJ_clean_sbu_0, # of connection points: 6
#     Node 1, Type 0, BuildingBlock: MIFKUJ_clean_sbu_0, # of connection points: 6
#     Node 2, Type 0, BuildingBlock: MIFKUJ_clean_sbu_0, # of connection points: 6
#     Node 3, Type 0, BuildingBlock: MIFKUJ_clean_sbu_0, # of connection points: 6
#     Node 4, Type 0, BuildingBlock: MIFKUJ_clean_sbu_0, # of connection points: 6
#     Node 5, Type 0, BuildingBlock: MIFKUJ_clean_sbu_0, # of connection points: 6
#     Node 6, Type 0, BuildingBlock: MIFKUJ_clean_sbu_0, # of connection points: 6
#     Node 7, Type 0, BuildingBlock: MIFKUJ_clean_sbu_0, # of connection points: 6
#     Edge 8, Type (0, 0), BuildingBlock: KIFKEQ_clean_linker_1, # of connection points: 2
#     Edge 9, Type (0, 0), BuildingBlock: KIFKEQ_clean_linker_1, # of connection points: 2
#     Edge 10, Type (0, 0), BuildingBlock: KIFKEQ_clean_linker_1, # of connection points: 2
#     Edge 11, Type (0, 0), BuildingBlock: KIFKEQ_clean_linker_1, # of connection points: 2
#     Edge 12, Type (0, 0), BuildingBlock: KIFKEQ_clean_linker_1, # of connection points: 2
#     Edge 13, Type (0, 0), BuildingBlock: KIFKEQ_clean_linker_1, # of connection points: 2
#     Edge 14, Type (0, 0), BuildingBlock: KIFKEQ_clean_linker_1, # of connection points: 2
#     Edge 15, Type (0, 0), BuildingBlock: KIFKEQ_clean_linker_1, # of connection points: 2
#     Edge 16, Type (0, 0), BuildingBlock: KIFKEQ_clean_linker_1, # of connection points: 2
#     Edge 17, Type (0, 0), BuildingBlock: KIFKEQ_clean_linker_1, # of connection points: 2
#     Edge 18, Type (0, 0), BuildingBlock: KIFKEQ_clean_linker_1, # of connection points: 2
#     Edge 19, Type (0, 0), BuildingBlock: KIFKEQ_clean_linker_1, # of connection points: 2
#     Edge 20, Type (0, 0), BuildingBlock: KIFKEQ_clean_linker_1, # of connection points: 2
#     Edge 21, Type (0, 0), BuildingBlock: KIFKEQ_clean_linker_1, # of connection points: 2
#     Edge 22, Type (0, 0), BuildingBlock: KIFKEQ_clean_linker_1, # of connection points: 2
#     Edge 23, Type (0, 0), BuildingBlock: KIFKEQ_clean_linker_1, # of connection points: 2
#     Edge 24, Type (0, 0), BuildingBlock: KIFKEQ_clean_linker_1, # of connection points: 2
#     Edge 25, Type (0, 0), BuildingBlock: KIFKEQ_clean_linker_1, # of connection points: 2
#     Edge 26, Type (0, 0), BuildingBlock: KIFKEQ_clean_linker_1, # of connection points: 2
#     Edge 27, Type (0, 0), BuildingBlock: KIFKEQ_clean_linker_1, # of connection points: 2
#     Edge 28, Type (0, 0), BuildingBlock: KIFKEQ_clean_linker_1, # of connection points: 2
#     Edge 29, Type (0, 0), BuildingBlock: KIFKEQ_clean_linker_1, # of connection points: 2
#     Edge 30, Type (0, 0), BuildingBlock: KIFKEQ_clean_linker_1, # of connection points: 2
#     Edge 31, Type (0, 0), BuildingBlock: KIFKEQ_clean_linker_1, # of connection points: 2
# Relax obj value: 0.137
# Max RMSD: 0.177
# Mean RMSD: 0.155
data_MOF--net-ske--node1-MIFKUJ_clean_sbu_0--edge1-KIFKEQ_clean_linker_1
_symmetry_space_group_name_H-M    P1
_symmetry_Int_Tables_number       1
_symmetry_cell_setting            triclinic
loop_
_symmetry_equiv_pos_as_xyz
'x, y, z'
_cell_length_a     72.583042
_cell_length_b     28.772995
_cell_length_c     17.574125
_cell_angle_alpha  91.056772
_cell_angle_beta   89.982056
_cell_angle_gamma 84.653656
loop_
_atom_site_label
_atom_site_type_symbol
_atom_site_fract_x
_atom_site_fract_y
_atom_site_fract_z
_atom_type_partial_charge
Zn0 Zn 0.1521 0.23381 0.65355 0.0
Zn1 Zn 0.11053 0.24929 0.51485 0.0
C2 C 0.14389 0.27196 0.80178 0.0
O3 O 0.15849 0.29358 0.78506 0.0
C4 C 0.11042 0.2393 0.35411 0.0
O5 O 0.1032 0.20114 0.37419 0.0
O6 O 0.17867 0.22504 0.68598 0.0
O7 O 0.14621 0.17291 0.60369 0.0
O8 O 0.12183 0.18356 0.52704 0.0
C9 C 0.19154 0.20553 0.64428 0.0
O10 O 0.18751 0.18934 0.5765 0.0
O11 O 0.13751 0.24536 0.75155 0.0
C12 C 0.07193 0.28156 0.50704 0.0
O13 O 0.07837 0.31717 0.47361 0.0
O14 O 0.08319 0.24837 0.53002 0.0
O15 O 0.1199 0.29517 0.58866 0.0
O16 O 0.15011 0.2906 0.58764 0.0
O17 O 0.11496 0.26751 0.40593 0.0
C18 C 0.13457 0.15707 0.55807 0.0
C19 C 0.13471 0.31238 0.57072 0.0
Zn20 Zn 0.89815 0.24662 0.50417 0.0
Zn21 Zn 0.85603 0.24585 0.64307 0.0
C22 C 0.90245 0.25186 0.34225 0.0
O23 O 0.91789 0.22653 0.3586 0.0
C24 C 0.86366 0.28295 0.79181 0.0
O25 O 0.84996 0.31366 0.77293 0.0
O26 O 0.92598 0.24296 0.5143 0.0
O27 O 0.88701 0.29417 0.57923 0.0
O28 O 0.85693 0.30326 0.58013 0.0
C29 C 0.93407 0.27193 0.55487 0.0
O30 O 0.92411 0.30417 0.59467 0.0
O31 O 0.89147 0.26589 0.39619 0.0
C32 C 0.82185 0.2103 0.69439 0.0
O33 O 0.83207 0.17064 0.70331 0.0
O34 O 0.82922 0.24532 0.66935 0.0
O35 O 0.86458 0.18366 0.59176 0.0
O36 O 0.88958 0.18233 0.51746 0.0
O37 O 0.86939 0.25137 0.74353 0.0
C38 C 0.87215 0.31794 0.5612 0.0
C39 C 0.8768 0.16182 0.54885 0.0
Zn40 Zn 0.14842 0.73109 0.36431 0.0
Zn41 Zn 0.10845 0.74488 0.50178 0.0
C42 C 0.13634 0.71682 0.21404 0.0
O43 O 0.14566 0.67653 0.22813 0.0
C44 C 0.10734 0.77965 0.6609 0.0
O45 O 0.09289 0.80712 0.63923 0.0
O46 O 0.17497 0.72286 0.33163 0.0
O47 O 0.14695 0.78566 0.43858 0.0
O48 O 0.11663 0.79704 0.43924 0.0
C49 C 0.18109 0.75563 0.29446 0.0
O50 O 0.16996 0.79317 0.28054 0.0
O51 O 0.13438 0.74746 0.26727 0.0
C52 C 0.07163 0.72867 0.54627 0.0
O53 O 0.08056 0.70404 0.59921 0.0
O54 O 0.08074 0.74938 0.49766 0.0
O55 O 0.11738 0.6788 0.47374 0.0
O56 O 0.14245 0.66835 0.40094 0.0
O57 O 0.11608 0.75291 0.61192 0.0
C58 C 0.13225 0.81186 0.45243 0.0
C59 C 0.12983 0.65215 0.43981 0.0
Zn60 Zn 0.85431 0.74268 0.35769 0.0
Zn61 Zn 0.89587 0.74328 0.49153 0.0
C62 C 0.85799 0.77506 0.20555 0.0
O63 O 0.84265 0.80023 0.22532 0.0
C64 C 0.89187 0.73068 0.64952 0.0
O65 O 0.90113 0.69111 0.62841 0.0
O66 O 0.82728 0.7397 0.33676 0.0
O67 O 0.8631 0.67967 0.40044 0.0
O68 O 0.88861 0.67855 0.4705 0.0
C69 C 0.82245 0.70775 0.29218 0.0
O70 O 0.83525 0.67739 0.26265 0.0
O71 O 0.86628 0.74867 0.25458 0.0
C72 C 0.93237 0.76419 0.53602 0.0
O73 O 0.92306 0.79321 0.58371 0.0
O74 O 0.92364 0.73945 0.49037 0.0
O75 O 0.8868 0.79257 0.41765 0.0
O76 O 0.85656 0.80088 0.42203 0.0
O77 O 0.8874 0.76088 0.59915 0.0
C78 C 0.87588 0.65771 0.43873 0.0
C79 C 0.87193 0.81735 0.43412 0.0
Zn80 Zn 0.64918 0.73315 0.16082 0.0
Zn81 Zn 0.60699 0.75052 0.02887 0.0
C82 C 0.64336 0.76845 0.31386 0.0
O83 O 0.65862 0.7874 0.29727 0.0
C84 C 0.60898 0.73801 0.86765 0.0
O85 O 0.60064 0.70133 0.88696 0.0
O86 O 0.67603 0.72204 0.18749 0.0
O87 O 0.64206 0.673 0.11258 0.0
O88 O 0.61611 0.68308 0.04441 0.0
C89 C 0.68859 0.71158 0.13817 0.0
O90 O 0.68395 0.70681 0.06638 0.0
O91 O 0.63579 0.74503 0.26231 0.0
C92 C 0.56937 0.78639 1.00112 0.0
O93 O 0.5774 0.81496 0.9571 0.0
O94 O 0.57932 0.75608 0.03833 0.0
O95 O 0.61682 0.79542 0.1035 0.0
O96 O 0.64696 0.7899 0.09466 0.0
O97 O 0.61348 0.76603 0.91991 0.0
C98 C 0.62933 0.65688 0.07295 0.0
C99 C 0.63143 0.81243 0.08258 0.0
Zn100 Zn 0.39577 0.74522 0.01458 0.0
Zn101 Zn 0.35329 0.73755 0.14999 0.0
C102 C 0.39475 0.73863 0.85562 0.0
O103 O 0.40553 0.70136 0.8743 0.0
C104 C 0.35679 0.76893 0.3042 0.0
O105 O 0.34077 0.7913 0.28693 0.0
O106 O 0.42329 0.74603 0.02267 0.0
O107 O 0.3838 0.78596 0.09683 0.0
O108 O 0.35379 0.79707 0.09219 0.0
C109 C 0.43057 0.78223 1.00188 0.0
O110 O 0.41986 0.81785 0.97627 0.0
O111 O 0.38819 0.7662 0.9085 0.0
C112 C 0.31399 0.74083 0.12356 0.0
O113 O 0.31851 0.75583 0.05653 0.0
O114 O 0.32664 0.73007 0.17172 0.0
O115 O 0.36384 0.67804 0.09511 0.0
O116 O 0.38906 0.67929 0.02273 0.0
O117 O 0.36555 0.7439 0.25302 0.0
C118 C 0.36939 0.81127 0.07814 0.0
C119 C 0.37639 0.65758 0.05217 0.0
Zn120 Zn 0.65079 0.22966 0.88015 0.0
Zn121 Zn 0.60936 0.2425 0.00746 0.0
C122 C 0.64321 0.21468 0.72228 0.0
O123 O 0.65353 0.17604 0.73777 0.0
C124 C 0.60903 0.27041 0.16937 0.0
O125 O 0.59294 0.29235 0.152 0.0
O126 O 0.67817 0.22039 0.86098 0.0
O127 O 0.64719 0.28578 0.95179 0.0
O128 O 0.61693 0.29386 0.941 0.0
C129 C 0.68545 0.24829 0.81733 0.0
O130 O 0.67491 0.28276 0.78721 0.0
O131 O 0.63916 0.24412 0.77616 0.0
C132 C 0.57297 0.21805 0.04053 0.0
O133 O 0.58241 0.18099 0.06822 0.0
O134 O 0.58163 0.24968 0.01114 0.0
O135 O 0.61657 0.17604 0.97484 0.0
O136 O 0.64374 0.16732 0.91517 0.0
O137 O 0.61871 0.24905 0.11673 0.0
C138 C 0.63193 0.31098 0.95733 0.0
C139 C 0.62999 0.15036 0.94545 0.0
Zn140 Zn 0.35681 0.23089 0.8783 0.0
Zn141 Zn 0.39739 0.2193 0.00832 0.0
C142 C 0.36553 0.24544 0.7245 0.0
O143 O 0.35444 0.28292 0.74149 0.0
C144 C 0.39939 0.1915 0.16848 0.0
O145 O 0.41563 0.17096 0.14835 0.0
O146 O 0.32983 0.23497 0.85187 0.0
O147 O 0.36022 0.17639 0.94931 0.0
O148 O 0.39057 0.16522 0.94268 0.0
C149 C 0.32396 0.19896 0.82077 0.0
O150 O 0.3356 0.16173 0.80904 0.0
O151 O 0.36984 0.21638 0.77683 0.0
C152 C 0.43354 0.24706 0.04114 0.0
O153 O 0.4239 0.28248 0.07499 0.0
O154 O 0.42509 0.21562 0.00823 0.0
O155 O 0.38849 0.28507 0.98111 0.0
O156 O 0.36218 0.29461 0.91654 0.0
O157 O 0.38913 0.21197 0.11809 0.0
C158 C 0.37502 0.14924 0.95116 0.0
C159 C 0.37548 0.31129 0.95146 0.0
H160 H 0.22258 0.16581 0.57119 0.0
H161 H 0.20429 0.23893 0.77878 0.0
H162 H 0.25457 0.16373 0.61472 0.0
H163 H 0.23617 0.23614 0.82257 0.0
H164 H 0.29653 0.27062 0.83297 0.0
H165 H 0.26455 0.27109 0.79045 0.0
H166 H 0.27522 0.12788 0.7122 0.0
H167 H 0.30728 0.12758 0.75351 0.0
C168 C 0.22536 0.1812 0.62621 0.0
C169 C 0.21089 0.20267 0.67135 0.0
C170 C 0.24368 0.17979 0.65132 0.0
C171 C 0.2479 0.19992 0.72198 0.0
C172 C 0.2334 0.22093 0.76738 0.0
C173 C 0.21511 0.22226 0.74242 0.0
C174 C 0.29205 0.23921 0.80682 0.0
C175 C 0.30445 0.19908 0.79656 0.0
C176 C 0.2737 0.23941 0.7828 0.0
C177 C 0.26736 0.19951 0.74797 0.0
C178 C 0.27975 0.15935 0.73797 0.0
C179 C 0.29809 0.15912 0.76205 0.0
H180 H 0.71189 0.18777 0.88264 0.0
H181 H 0.70413 0.29368 0.71143 0.0
H182 H 0.74493 0.17794 0.85409 0.0
H183 H 0.73696 0.28284 0.68122 0.0
H184 H 0.79866 0.29021 0.70383 0.0
H185 H 0.76592 0.29847 0.73504 0.0
H186 H 0.76698 0.14892 0.75801 0.0
H187 H 0.80005 0.14079 0.729 0.0
C188 C 0.71722 0.20874 0.8386 0.0
C189 C 0.70543 0.2417 0.79959 0.0
C190 C 0.73614 0.20289 0.8219 0.0
C191 C 0.74362 0.2297 0.76553 0.0
C192 C 0.73173 0.26223 0.72597 0.0
C193 C 0.71288 0.2683 0.74303 0.0
C194 C 0.79194 0.25903 0.7155 0.0
C195 C 0.80194 0.21479 0.71369 0.0
C196 C 0.77311 0.26376 0.73299 0.0
C197 C 0.76377 0.22434 0.74848 0.0
C198 C 0.7738 0.18006 0.74716 0.0
C199 C 0.79272 0.17535 0.73015 0.0
H200 H 0.28332 0.76729 0.0388 0.0
H201 H 0.30028 0.71126 0.25708 0.0
H202 H 0.25096 0.76856 0.07732 0.0
H203 H 0.26801 0.71325 0.29578 0.0
H204 H 0.20765 0.68293 0.31344 0.0
H205 H 0.23956 0.67656 0.26813 0.0
H206 H 0.23017 0.81287 0.16855 0.0
H207 H 0.1982 0.819 0.21267 0.0
C208 C 0.28015 0.75507 0.09482 0.0
C209 C 0.29437 0.73928 0.14493 0.0
C210 C 0.26163 0.75608 0.11702 0.0
C211 C 0.25696 0.74117 0.18967 0.0
C212 C 0.27116 0.72449 0.23913 0.0
C213 C 0.28966 0.72359 0.21705 0.0
C214 C 0.21238 0.7115 0.28174 0.0
C215 C 0.20041 0.75153 0.26681 0.0
C216 C 0.23068 0.70791 0.25605 0.0
C217 C 0.23737 0.74421 0.21478 0.0
C218 C 0.22535 0.78405 0.19932 0.0
C219 C 0.20706 0.78768 0.2251 0.0
H220 H 0.7024 0.72085 0.28145 0.0
H221 H 0.71922 0.69257 0.04786 0.0
H222 H 0.7347 0.71718 0.31977 0.0
H223 H 0.75161 0.68972 0.08628 0.0
H224 H 0.80764 0.64533 0.19621 0.0
H225 H 0.77526 0.6434 0.16006 0.0
H226 H 0.76055 0.76459 0.30387 0.0
H227 H 0.7928 0.76611 0.34101 0.0
C228 C 0.71299 0.71377 0.23822 0.0
C229 C 0.70824 0.7072 0.16148 0.0
C230 C 0.73151 0.71195 0.2602 0.0
C231 C 0.74571 0.70348 0.206 0.0
C232 C 0.74098 0.69591 0.12947 0.0
C233 C 0.72242 0.69779 0.10741 0.0
C234 C 0.79748 0.67145 0.22034 0.0
C235 C 0.80279 0.70586 0.27152 0.0
C236 C 0.77896 0.67048 0.19927 0.0
C237 C 0.76536 0.70383 0.2291 0.0
C238 C 0.77066 0.73802 0.28068 0.0
C239 C 0.78917 0.73903 0.30166 0.0
H240 H 0.16323 0.85937 0.46457 0.0
H241 H 0.10366 0.87705 0.48729 0.0
H242 H 0.16451 0.94265 0.49104 0.0
H243 H 0.10502 0.95986 0.51453 0.0
H244 H 0.11197 0.11126 0.4646 0.0
H245 H 0.11217 0.02775 0.4419 0.0
H246 H 0.15886 0.00329 0.59292 0.0
H247 H 0.1589 0.08739 0.61516 0.0
C248 C 0.15043 0.88089 0.47575 0.0
C249 C 0.13332 0.86165 0.47297 0.0
C250 C 0.15119 0.92855 0.49122 0.0
C251 C 0.13485 0.95787 0.50408 0.0
C252 C 0.11781 0.93833 0.50335 0.0
C253 C 0.11705 0.89081 0.48804 0.0
C254 C 0.12235 0.08826 0.49297 0.0
C255 C 0.13536 0.10615 0.54213 0.0
C256 C 0.12237 0.04029 0.48025 0.0
C257 C 0.1354 0.0089 0.51626 0.0
C258 C 0.14869 0.02666 0.56412 0.0
C259 C 0.14866 0.07482 0.57705 0.0
H260 H 0.90198 0.35874 0.5069 0.0
H261 H 0.84318 0.38516 0.54704 0.0
H262 H 0.90315 0.43961 0.46945 0.0
H263 H 0.84438 0.466 0.51007 0.0
H264 H 0.85042 0.60062 0.38436 0.0
H265 H 0.84972 0.5171 0.40417 0.0
H266 H 0.90011 0.51563 0.53518 0.0
H267 H 0.90101 0.59876 0.51464 0.0
C268 C 0.88932 0.38175 0.50777 0.0
C269 C 0.87256 0.36565 0.53126 0.0
C270 C 0.88999 0.42813 0.48635 0.0
C271 C 0.8739 0.45941 0.48754 0.0
C272 C 0.85701 0.44277 0.50797 0.0
C273 C 0.85634 0.39642 0.5295 0.0
C274 C 0.86142 0.58247 0.41701 0.0
C275 C 0.87575 0.60656 0.44808 0.0
C276 C 0.86097 0.53461 0.42862 0.0
C277 C 0.87485 0.50969 0.47129 0.0
C278 C 0.88933 0.53361 0.50116 0.0
C279 C 0.88977 0.58143 0.48978 0.0
H280 H 0.84279 0.88435 0.453 0.0
H281 H 0.90241 0.86293 0.46734 0.0
H282 H 0.84404 0.96708 0.48298 0.0
H283 H 0.90361 0.94541 0.49873 0.0
H284 H 0.89999 0.10302 0.45985 0.0
H285 H 0.89868 0.01981 0.43602 0.0
H286 H 0.85104 0.02145 0.58376 0.0
H287 H 0.85208 0.10493 0.60649 0.0
C288 C 0.85615 0.89718 0.46322 0.0
C289 C 0.87251 0.86705 0.4571 0.0
C290 C 0.85686 0.94461 0.48077 0.0
C291 C 0.87394 0.96301 0.49279 0.0
C292 C 0.89025 0.9326 0.48844 0.0
C293 C 0.88955 0.88523 0.47083 0.0
C294 C 0.88923 0.08573 0.4874 0.0
C295 C 0.87613 0.11088 0.5351 0.0
C296 C 0.88855 0.03786 0.47409 0.0
C297 C 0.87478 0.01385 0.50811 0.0
C298 C 0.86171 0.03893 0.55594 0.0
C299 C 0.86237 0.08683 0.56929 0.0
H300 H 0.1539 0.58259 0.37685 0.0
H301 H 0.10613 0.6058 0.52454 0.0
H302 H 0.15478 0.49877 0.39805 0.0
H303 H 0.10732 0.52267 0.54691 0.0
H304 H 0.1637 0.36383 0.54075 0.0
H305 H 0.16216 0.44474 0.50061 0.0
H306 H 0.10257 0.44889 0.48769 0.0
H307 H 0.10408 0.36869 0.53029 0.0
C308 C 0.14357 0.56989 0.41363 0.0
C309 C 0.12999 0.60102 0.44918 0.0
C310 C 0.14414 0.52187 0.42604 0.0
C311 C 0.13113 0.50399 0.47418 0.0
C312 C 0.11737 0.5351 0.50852 0.0
C313 C 0.11678 0.58294 0.49607 0.0
C314 C 0.15028 0.3819 0.52879 0.0
C315 C 0.13399 0.35992 0.53943 0.0
C316 C 0.14941 0.42821 0.50524 0.0
C317 C 0.13223 0.45345 0.49153 0.0
C318 C 0.11601 0.43075 0.49914 0.0
C319 C 0.11688 0.38462 0.52305 0.0
H320 H 0.65977 0.59373 0.06304 0.0
H321 H 0.60013 0.60537 0.05169 0.0
H322 H 0.66066 0.5104 0.03434 0.0
H323 H 0.60078 0.52176 0.0285 0.0
H324 H 0.6069 0.38096 0.91128 0.0
H325 H 0.60674 0.46399 0.93853 0.0
H326 H 0.65583 0.43726 0.07671 0.0
H327 H 0.65658 0.35434 0.0444 0.0
C328 C 0.64684 0.57821 0.05552 0.0
C329 C 0.62989 0.60599 0.05912 0.0
C330 C 0.6473 0.5303 0.03957 0.0
C331 C 0.63079 0.50886 0.02866 0.0
C332 C 0.61384 0.53683 0.03433 0.0
C333 C 0.61341 0.58485 0.04831 0.0
C334 C 0.61766 0.39295 0.94739 0.0
C335 C 0.63176 0.36129 0.97566 0.0
C336 C 0.61751 0.44064 0.9637 0.0
C337 C 0.6312 0.45783 0.01049 0.0
C338 C 0.64523 0.42579 0.03934 0.0
C339 C 0.64562 0.37813 0.02135 0.0
H340 H 0.39858 0.8637 0.09021 0.0
H341 H 0.34302 0.86596 1.00171 0.0
H342 H 0.39992 0.94423 0.05322 0.0
H343 H 0.3445 0.94642 0.96214 0.0
H344 H 0.34519 0.10484 0.99523 0.0
H345 H 0.34409 0.02205 0.0185 0.0
H346 H 0.40152 -0.00386 0.95153 0.0
H347 H 0.4028 0.07923 0.93141 0.0
C348 C 0.3868 0.88115 0.06122 0.0
C349 C 0.37071 0.85856 0.04876 0.0
C350 C 0.38756 0.92738 0.03979 0.0
C351 C 0.37229 0.95203 0.00483 0.0
C352 C 0.35639 0.92883 0.99021 0.0
C353 C 0.35557 0.88265 0.01238 0.0
C354 C 0.35757 0.08144 0.98533 0.0
C355 C 0.37412 0.09867 0.96209 0.0
C356 C 0.35691 0.03384 0.99805 0.0
C357 C 0.37273 0.00228 0.98703 0.0
C358 C 0.38916 0.01948 0.96197 0.0
C359 C 0.38987 0.06714 0.95009 0.0
H360 H 0.40401 0.35947 1.00081 0.0
H361 H 0.34725 0.37917 0.9244 0.0
H362 H 0.40396 0.44322 0.02277 0.0
H363 H 0.34731 0.46334 0.94611 0.0
H364 H 0.34937 0.601 0.08756 0.0
H365 H 0.34902 0.51776 0.05906 0.0
H366 H 0.40224 0.51649 0.9488 0.0
H367 H 0.40272 0.59956 0.97741 0.0
C368 C 0.39153 0.38164 0.98841 0.0
C369 C 0.3756 0.36253 0.96111 0.0
C370 C 0.39156 0.4297 1.00058 0.0
C371 C 0.37563 0.4598 0.98627 0.0
C372 C 0.35973 0.44088 0.95832 0.0
C373 C 0.35975 0.39274 0.94545 0.0
C374 C 0.36102 0.58301 0.05731 0.0
C375 C 0.37612 0.60699 0.03513 0.0
C376 C 0.36074 0.53541 0.04049 0.0
C377 C 0.3756 0.51066 1.00172 0.0
C378 C 0.39067 0.53458 0.97939 0.0
C379 C 0.3909 0.58223 0.99562 0.0
H380 H 0.65985 0.08621 0.95847 0.0
H381 H 0.60022 0.09942 0.9469 0.0
H382 H 0.65978 0.00347 0.98399 0.0
H383 H 0.60003 0.01601 0.96672 0.0
H384 H 0.60402 0.8827 0.10295 0.0
H385 H 0.60358 0.96275 0.06164 0.0
H386 H 0.65578 0.92849 0.94505 0.0
H387 H 0.6567 0.84904 0.99156 0.0
C388 C 0.64674 0.07105 0.95955 0.0
C389 C 0.63004 0.09924 0.95143 0.0
C390 C 0.64666 0.02341 0.97372 0.0
C391 C 0.62987 0.0026 0.97825 0.0
C392 C 0.61322 0.03071 0.96603 0.0
C393 C 0.6133 0.07854 0.95389 0.0
C394 C 0.61535 0.89231 0.06818 0.0
C395 C 0.63049 0.85983 0.05114 0.0
C396 C 0.61506 0.93827 0.04373 0.0
C397 C 0.62968 0.95266 0.99988 0.0
C398 C 0.64447 0.91933 0.98024 0.0
C399 C 0.64497 0.87361 0.00637 0.0
H400 H 0.12137 0.31853 0.28966 0.0
H401 H 0.10671 0.1799 0.23366 0.0
H402 H 0.12716 0.33161 0.15517 0.0
H403 H 0.11311 0.19216 0.10032 0.0
H404 H 0.11312 0.23484 0.85646 0.0
H405 H 0.10319 0.23169 0.98876 0.0
H406 H 0.149 0.3083 0.05854 0.0
H407 H 0.15843 0.31294 0.92652 0.0
C408 C 0.11942 0.29083 0.2487 0.0
C409 C 0.11362 0.24815 0.27249 0.0
C410 C 0.12282 0.29821 0.17156 0.0
C411 C 0.12063 0.26295 0.11646 0.0
C412 C 0.11462 0.2205 0.14054 0.0
C413 C 0.1111 0.21329 0.21738 0.0
C414 C 0.12091 0.25153 0.90001 0.0
C415 C 0.13663 0.27388 0.88085 0.0
C416 C 0.11531 0.24944 0.97604 0.0
C417 C 0.12539 0.26928 0.03483 0.0
C418 C 0.14073 0.29306 0.0151 0.0
C419 C 0.14622 0.29549 0.93913 0.0
H420 H 0.92441 0.23418 0.21707 0.0
H421 H 0.86952 0.2908 0.28473 0.0
H422 H 0.91621 0.2455 0.08407 0.0
H423 H 0.86109 0.30082 0.15124 0.0
H424 H 0.8555 0.34728 0.90638 0.0
H425 H 0.8657 0.34358 0.03844 0.0
H426 H 0.89789 0.21251 0.98876 0.0
H427 H 0.88814 0.21698 0.8564 0.0
C428 C 0.91056 0.24905 0.20358 0.0
C429 C 0.89759 0.26137 0.26164 0.0
C430 C 0.90582 0.25528 0.12711 0.0
C431 C 0.88793 0.27373 0.10652 0.0
C432 C 0.87506 0.28701 0.16479 0.0
C433 C 0.87986 0.28104 0.24144 0.0
C434 C 0.8649 0.31789 0.92348 0.0
C435 C 0.87097 0.28239 0.87071 0.0
C436 C 0.87064 0.31558 0.99946 0.0
C437 C 0.88255 0.27762 0.02471 0.0
C438 C 0.88892 0.24262 0.9714 0.0
C439 C 0.88326 0.24506 0.89536 0.0
H440 H 0.1363 0.65655 0.0928 0.0
H441 H 0.12288 0.8015 0.15644 0.0
H442 H 0.12915 0.67442 0.96089 0.0
H443 H 0.11605 0.81967 0.02335 0.0
H444 H 0.08874 0.82189 0.78344 0.0
H445 H 0.0948 0.80811 0.91827 0.0
H446 H 0.14271 0.71405 0.8584 0.0
H447 H 0.13646 0.72698 0.72412 0.0
C448 C 0.13177 0.69229 0.0787 0.0
C449 C 0.13025 0.72762 0.13523 0.0
C450 C 0.12781 0.70262 1.00279 0.0
C451 C 0.1223 0.74863 0.98113 0.0
C452 C 0.12019 0.78383 0.03802 0.0
C453 C 0.12412 0.77343 0.11431 0.0
C454 C 0.10066 0.79858 0.7991 0.0
C455 C 0.11203 0.77529 0.74284 0.0
C456 C 0.10416 0.79077 0.87647 0.0
C457 C 0.1191 0.75949 0.89929 0.0
C458 C 0.13082 0.73754 0.84294 0.0
C459 C 0.12732 0.74527 0.7658 0.0
H460 H 0.87687 0.81228 0.71759 0.0
H461 H 0.89657 0.66958 0.76599 0.0
H462 H 0.87001 0.8267 0.8526 0.0
H463 H 0.88926 0.68345 0.89978 0.0
H464 H 0.88975 0.72993 0.14529 0.0
H465 H 0.89873 0.72256 0.01162 0.0
H466 H 0.84901 0.80791 0.94991 0.0
H467 H 0.84037 0.81649 0.08355 0.0
C468 C 0.87964 0.78394 0.75692 0.0
C469 C 0.88728 0.7398 0.73097 0.0
C470 C 0.87566 0.79214 0.83431 0.0
C471 C 0.87915 0.75631 0.88741 0.0
C472 C 0.88673 0.71218 0.86105 0.0
C473 C 0.89079 0.70409 0.78399 0.0
C474 C 0.88084 0.74752 0.10326 0.0
C475 C 0.86431 0.77362 0.12518 0.0
C476 C 0.88591 0.74302 0.02646 0.0
C477 C 0.87451 0.76424 0.96963 0.0
C478 C 0.85825 0.79147 0.99194 0.0
C479 C 0.85324 0.7962 0.06875 0.0
H480 H 0.61195 0.73474 0.36981 0.0
H481 H 0.65942 0.80499 0.43921 0.0
H482 H 0.60236 0.73155 0.50258 0.0
H483 H 0.65027 0.80037 0.57163 0.0
H484 H 0.62253 0.81448 0.80371 0.0
H485 H 0.62903 0.82644 0.6694 0.0
H486 H 0.6115 0.69041 0.6138 0.0
H487 H 0.60446 0.67929 0.74692 0.0
C488 C 0.6203 0.74967 0.4133 0.0
C489 C 0.6365 0.76992 0.39368 0.0
C490 C 0.61489 0.74754 0.48964 0.0
C491 C 0.62561 0.76529 0.54839 0.0
C492 C 0.64151 0.78679 0.5283 0.0
C493 C 0.64683 0.78921 0.45206 0.0
C494 C 0.62001 0.78725 0.76267 0.0
C495 C 0.61299 0.74591 0.78622 0.0
C496 C 0.62381 0.79399 0.68558 0.0
C497 C 0.62079 0.75944 0.63023 0.0
C498 C 0.61368 0.71825 0.65415 0.0
C499 C 0.60979 0.71167 0.73091 0.0
H500 H 0.37593 0.81591 0.79232 0.0
H501 H 0.40299 0.67965 0.73507 0.0
H502 H 0.36816 0.82775 0.65825 0.0
H503 H 0.39473 0.6906 0.60255 0.0
H504 H 0.39052 0.7336 0.3588 0.0
H505 H 0.40076 0.73089 0.49092 0.0
H506 H 0.34831 0.80193 0.56203 0.0
H507 H 0.33842 0.80617 0.42999 0.0
C508 C 0.38017 0.78848 0.75122 0.0
C509 C 0.39008 0.74686 0.77449 0.0
C510 C 0.37565 0.79512 0.67435 0.0
C511 C 0.38083 0.76017 0.61912 0.0
C512 C 0.39081 0.71874 0.64279 0.0
C513 C 0.39543 0.71228 0.71923 0.0
C514 C 0.38126 0.74901 0.40261 0.0
C515 C 0.36362 0.76985 0.38376 0.0
C516 C 0.38707 0.74722 0.47856 0.0
C517 C 0.37531 0.76579 0.53766 0.0
C518 C 0.35786 0.78775 0.51833 0.0
C519 C 0.35213 0.78991 0.44239 0.0
H520 H 0.64117 0.22693 0.22709 0.0
H521 H 0.58997 0.30498 0.29578 0.0
H522 H 0.64953 0.21605 0.36041 0.0
H523 H 0.59808 0.29307 0.42892 0.0
H524 H 0.62566 0.29537 0.6643 0.0
H525 H 0.61822 0.31192 0.53121 0.0
H526 H 0.64063 0.17242 0.4664 0.0
H527 H 0.64841 0.15642 0.59837 0.0
C528 C 0.63171 0.24192 0.27056 0.0
C529 C 0.61486 0.26669 0.25044 0.0
C530 C 0.63644 0.23537 0.3472 0.0
C531 C 0.62441 0.25326 0.40588 0.0
C532 C 0.60778 0.27912 0.38562 0.0
C533 C 0.60309 0.28577 0.309 0.0
C534 C 0.62893 0.26822 0.62161 0.0
C535 C 0.63766 0.22458 0.64223 0.0
C536 C 0.62463 0.27766 0.5452 0.0
C537 C 0.62893 0.24365 0.48755 0.0
C538 C 0.63744 0.19987 0.50866 0.0
C539 C 0.64177 0.19052 0.58475 0.0
H540 H 0.41961 0.15951 0.29162 0.0
H541 H 0.36694 0.23148 0.23063 0.0
H542 H 0.41187 0.17108 0.42606 0.0
H543 H 0.35902 0.24205 0.36497 0.0
H544 H 0.35997 0.30354 0.60435 0.0
H545 H 0.36798 0.2879 0.47157 0.0
H546 H 0.39214 0.15004 0.52862 0.0
H547 H 0.38442 0.1662 0.66266 0.0
C548 C 0.40627 0.17729 0.30679 0.0
C549 C 0.39395 0.19482 0.25012 0.0
C550 C 0.4018 0.18376 0.38406 0.0
C551 C 0.38488 0.20789 0.40667 0.0
C552 C 0.37233 0.22414 0.34983 0.0
C553 C 0.37682 0.21776 0.27263 0.0
C554 C 0.36707 0.2699 0.58887 0.0
C555 C 0.37152 0.23611 0.64435 0.0
C556 C 0.37152 0.26076 0.51236 0.0
C557 C 0.38052 0.21748 0.4889 0.0
C558 C 0.38531 0.18388 0.54459 0.0
C559 C 0.38086 0.19309 0.62146 0.0
H560 H 0.04444 0.35126 0.48368 0.0
H561 H 0.0539 0.20753 0.55241 0.0
H562 H 0.01117 0.34781 0.49862 0.0
H563 H 0.02061 0.20426 0.56735 0.0
H564 H 0.95911 0.20572 0.49048 0.0
H565 H 0.99261 0.20763 0.48144 0.0
H566 H 0.98853 0.33923 0.60522 0.0
H567 H 0.95508 0.33751 0.61437 0.0
C568 C 0.03943 0.31899 0.50207 0.0
C569 C 0.0518 0.27969 0.51687 0.0
C570 C 0.0204 0.31711 0.51102 0.0
C571 C 0.01334 0.27578 0.53422 0.0
C572 C 0.02568 0.23645 0.54885 0.0
C573 C 0.04473 0.23844 0.54065 0.0
C574 C 0.96537 0.23491 0.51618 0.0
C575 C 0.95444 0.2715 0.55302 0.0
C576 C 0.98455 0.23589 0.51124 0.0
C577 C 0.99313 0.27368 0.54236 0.0
C578 C 0.98224 0.30994 0.58001 0.0
C579 C 0.9631 0.30876 0.58563 0.0
H580 H 0.95576 0.72208 0.42844 0.0
H581 H 0.9551 0.79527 0.6456 0.0
H582 H 0.98957 0.71328 0.43085 0.0
H583 H 0.9889 0.78607 0.64798 0.0
H584 H 0.04789 0.70799 0.65857 0.0
H585 H 0.01407 0.71692 0.65582 0.0
H586 H 0.01548 0.76845 0.42693 0.0
H587 H 0.04927 0.75993 0.4296 0.0
C588 C 0.96283 0.73627 0.47663 0.0
C589 C 0.95279 0.7594 0.53681 0.0
C590 C 0.98215 0.73138 0.4778 0.0
C591 C 0.99178 0.74895 0.53964 0.0
C592 C 0.98177 0.77191 0.59994 0.0
C593 C 0.96246 0.77739 0.5983 0.0
C594 C 0.04098 0.72112 0.60762 0.0
C595 C 0.05121 0.73326 0.5443 0.0
C596 C 0.02166 0.72646 0.60627 0.0
C597 C 0.01223 0.74337 0.54119 0.0
C598 C 0.02244 0.75504 0.4776 0.0
C599 C 0.04176 0.75035 0.47932 0.0
H600 H 0.54414 0.83561 0.91113 0.0
H601 H 0.5485 0.74072 0.09939 0.0
H602 H 0.51062 0.83518 0.91311 0.0
H603 H 0.51494 0.74153 0.10317 0.0
H604 H 0.45695 0.71062 0.03 0.0
H605 H 0.49037 0.71298 0.03137 0.0
H606 H 0.48343 0.86056 0.9846 0.0
H607 H 0.45 0.85778 0.98069 0.0
C608 C 0.53793 0.81508 0.95352 0.0
C609 C 0.54897 0.78805 0.00488 0.0
C610 C 0.51868 0.81502 0.95494 0.0
C611 C 0.51005 0.78822 0.00819 0.0
C612 C 0.52113 0.7619 0.0605 0.0
C613 C 0.54037 0.76166 0.05865 0.0
C614 C 0.46256 0.74358 0.02017 0.0
C615 C 0.45084 0.78398 0.00503 0.0
C616 C 0.48173 0.74502 0.02141 0.0
C617 C 0.48962 0.78698 0.00817 0.0
C618 C 0.47785 0.8275 0.99385 0.0
C619 C 0.45867 0.82597 0.99202 0.0
H620 H 0.45601 0.31161 0.0941 0.0
H621 H 0.45729 0.17373 0.99108 0.0
H622 H 0.48979 0.30482 0.09636 0.0
H623 H 0.49099 0.16725 0.99287 0.0
H624 H 0.55019 0.15331 0.08559 0.0
H625 H 0.51644 0.16084 0.08787 0.0
H626 H 0.5158 0.30091 1.003 0.0
H627 H 0.54954 0.29365 1.00126 0.0
C628 C 0.46348 0.27991 0.07191 0.0
C629 C 0.45398 0.24323 0.04238 0.0
C630 C 0.48281 0.27613 0.07289 0.0
C631 C 0.49301 0.23548 0.04488 0.0
C632 C 0.4835 0.19877 0.01565 0.0
C633 C 0.46419 0.20264 0.01419 0.0
C634 C 0.54286 0.18576 0.06761 0.0
C635 C 0.55253 0.22283 0.04306 0.0
C636 C 0.52354 0.18996 0.06856 0.0
C637 C 0.5135 0.23142 0.04546 0.0
C638 C 0.52317 0.2687 0.02179 0.0
C639 C 0.54249 0.26441 0.02037 0.0
loop_
_geom_bond_atom_site_label_1
_geom_bond_atom_site_label_2
_geom_bond_distance
_geom_bond_site_symmetry_2
_ccdc_geom_bond_type
Zn0 O6 1.969 . S
Zn0 O7 1.965 . S
Zn0 O11 2.024 . S
Zn0 O16 1.969 . S
Zn1 O8 1.969 . S
Zn1 O14 1.969 . S
Zn1 O15 1.965 . S
Zn1 O17 2.024 . S
C2 O3 1.229 . S
C2 O11 1.058 . S
O3 C2 1.229 . S
C4 O5 1.229 . S
C4 O17 1.058 . S
O5 C4 1.229 . S
O6 Zn0 1.969 . S
O6 C9 1.267 . S
O7 Zn0 1.965 . S
O7 C18 1.260 . S
O8 Zn1 1.969 . S
O8 C18 1.258 . S
C9 O6 1.267 . S
C9 O10 1.228 . S
O10 C9 1.228 . S
O11 Zn0 2.024 . S
O11 C2 1.058 . S
C12 O13 1.228 . S
C12 O14 1.267 . S
O13 C12 1.228 . S
O14 Zn1 1.969 . S
O14 C12 1.267 . S
O15 Zn1 1.965 . S
O15 C19 1.260 . S
O16 Zn0 1.969 . S
O16 C19 1.258 . S
O17 Zn1 2.024 . S
O17 C4 1.058 . S
C18 O7 1.260 . S
C18 O8 1.258 . S
C19 O15 1.260 . S
C19 O16 1.258 . S
Zn20 O26 1.969 . S
Zn20 O27 1.965 . S
Zn20 O31 2.024 . S
Zn20 O36 1.969 . S
Zn21 O28 1.969 . S
Zn21 O34 1.969 . S
Zn21 O35 1.965 . S
Zn21 O37 2.024 . S
C22 O23 1.229 . S
C22 O31 1.058 . S
O23 C22 1.229 . S
C24 O25 1.229 . S
C24 O37 1.058 . S
O25 C24 1.229 . S
O26 Zn20 1.969 . S
O26 C29 1.267 . S
O27 Zn20 1.965 . S
O27 C38 1.260 . S
O28 Zn21 1.969 . S
O28 C38 1.258 . S
C29 O26 1.267 . S
C29 O30 1.228 . S
O30 C29 1.228 . S
O31 Zn20 2.024 . S
O31 C22 1.058 . S
C32 O33 1.228 . S
C32 O34 1.267 . S
O33 C32 1.228 . S
O34 Zn21 1.969 . S
O34 C32 1.267 . S
O35 Zn21 1.965 . S
O35 C39 1.260 . S
O36 Zn20 1.969 . S
O36 C39 1.258 . S
O37 Zn21 2.024 . S
O37 C24 1.058 . S
C38 O27 1.260 . S
C38 O28 1.258 . S
C39 O35 1.260 . S
C39 O36 1.258 . S
Zn40 O46 1.969 . S
Zn40 O47 1.965 . S
Zn40 O51 2.024 . S
Zn40 O56 1.969 . S
Zn41 O48 1.969 . S
Zn41 O54 1.969 . S
Zn41 O55 1.965 . S
Zn41 O57 2.024 . S
C42 O43 1.229 . S
C42 O51 1.058 . S
O43 C42 1.229 . S
C44 O45 1.229 . S
C44 O57 1.058 . S
O45 C44 1.229 . S
O46 Zn40 1.969 . S
O46 C49 1.267 . S
O47 Zn40 1.965 . S
O47 C58 1.260 . S
O48 Zn41 1.969 . S
O48 C58 1.258 . S
C49 O46 1.267 . S
C49 O50 1.228 . S
O50 C49 1.228 . S
O51 Zn40 2.024 . S
O51 C42 1.058 . S
C52 O53 1.228 . S
C52 O54 1.267 . S
O53 C52 1.228 . S
O54 Zn41 1.969 . S
O54 C52 1.267 . S
O55 Zn41 1.965 . S
O55 C59 1.260 . S
O56 Zn40 1.969 . S
O56 C59 1.258 . S
O57 Zn41 2.024 . S
O57 C44 1.058 . S
C58 O47 1.260 . S
C58 O48 1.258 . S
C59 O55 1.260 . S
C59 O56 1.258 . S
Zn60 O66 1.969 . S
Zn60 O67 1.965 . S
Zn60 O71 2.024 . S
Zn60 O76 1.969 . S
Zn61 O68 1.969 . S
Zn61 O74 1.969 . S
Zn61 O75 1.965 . S
Zn61 O77 2.024 . S
C62 O63 1.229 . S
C62 O71 1.058 . S
O63 C62 1.229 . S
C64 O65 1.229 . S
C64 O77 1.058 . S
O65 C64 1.229 . S
O66 Zn60 1.969 . S
O66 C69 1.267 . S
O67 Zn60 1.965 . S
O67 C78 1.260 . S
O68 Zn61 1.969 . S
O68 C78 1.258 . S
C69 O66 1.267 . S
C69 O70 1.228 . S
O70 C69 1.228 . S
O71 Zn60 2.024 . S
O71 C62 1.058 . S
C72 O73 1.228 . S
C72 O74 1.267 . S
O73 C72 1.228 . S
O74 Zn61 1.969 . S
O74 C72 1.267 . S
O75 Zn61 1.965 . S
O75 C79 1.260 . S
O76 Zn60 1.969 . S
O76 C79 1.258 . S
O77 Zn61 2.024 . S
O77 C64 1.058 . S
C78 O67 1.260 . S
C78 O68 1.258 . S
C79 O75 1.260 . S
C79 O76 1.258 . S
Zn80 O86 1.969 . S
Zn80 O87 1.965 . S
Zn80 O91 2.024 . S
Zn80 O96 1.969 . S
Zn81 O88 1.969 . S
Zn81 O94 1.969 . S
Zn81 O95 1.965 1_556 S
Zn81 O97 2.024 . S
C82 O83 1.229 . S
C82 O91 1.058 . S
O83 C82 1.229 . S
C84 O85 1.229 . S
C84 O97 1.058 . S
O85 C84 1.229 . S
O86 Zn80 1.969 . S
O86 C89 1.267 . S
O87 Zn80 1.965 . S
O87 C98 1.260 1_554 S
O88 Zn81 1.969 . S
O88 C98 1.258 . S
C89 O86 1.267 . S
C89 O90 1.228 . S
O90 C89 1.228 . S
O91 Zn80 2.024 . S
O91 C82 1.058 . S
C92 O93 1.228 . S
C92 O94 1.267 . S
O93 C92 1.228 . S
O94 Zn81 1.969 . S
O94 C92 1.267 . S
O95 Zn81 1.965 1_554 S
O95 C99 1.260 . S
O96 Zn80 1.969 . S
O96 C99 1.258 . S
O97 Zn81 2.024 . S
O97 C84 1.058 . S
C98 O87 1.260 1_556 S
C98 O88 1.258 . S
C99 O95 1.260 . S
C99 O96 1.258 . S
Zn100 O106 1.969 . S
Zn100 O107 1.965 1_556 S
Zn100 O111 2.024 . S
Zn100 O116 1.969 . S
Zn101 O108 1.969 . S
Zn101 O114 1.969 . S
Zn101 O115 1.965 . S
Zn101 O117 2.024 . S
C102 O103 1.229 . S
C102 O111 1.058 . S
O103 C102 1.229 . S
C104 O105 1.229 . S
C104 O117 1.058 . S
O105 C104 1.229 . S
O106 Zn100 1.969 . S
O106 C109 1.267 . S
O107 Zn100 1.965 1_554 S
O107 C118 1.260 . S
O108 Zn101 1.969 . S
O108 C118 1.258 . S
C109 O106 1.267 . S
C109 O110 1.228 . S
O110 C109 1.228 . S
O111 Zn100 2.024 . S
O111 C102 1.058 . S
C112 O113 1.228 . S
C112 O114 1.267 . S
O113 C112 1.228 . S
O114 Zn101 1.969 . S
O114 C112 1.267 . S
O115 Zn101 1.965 . S
O115 C119 1.260 1_554 S
O116 Zn100 1.969 . S
O116 C119 1.258 . S
O117 Zn101 2.024 . S
O117 C104 1.058 . S
C118 O107 1.260 . S
C118 O108 1.258 . S
C119 O115 1.260 1_556 S
C119 O116 1.258 . S
Zn120 O126 1.969 . S
Zn120 O127 1.965 . S
Zn120 O131 2.024 . S
Zn120 O136 1.969 . S
Zn121 O128 1.969 . S
Zn121 O134 1.969 . S
Zn121 O135 1.965 1_554 S
Zn121 O137 2.024 . S
C122 O123 1.229 . S
C122 O131 1.058 . S
O123 C122 1.229 . S
C124 O125 1.229 . S
C124 O137 1.058 . S
O125 C124 1.229 . S
O126 Zn120 1.969 . S
O126 C129 1.267 . S
O127 Zn120 1.965 . S
O127 C138 1.260 1_556 S
O128 Zn121 1.969 . S
O128 C138 1.258 . S
C129 O126 1.267 . S
C129 O130 1.228 . S
O130 C129 1.228 . S
O131 Zn120 2.024 . S
O131 C122 1.058 . S
C132 O133 1.228 . S
C132 O134 1.267 . S
O133 C132 1.228 . S
O134 Zn121 1.969 . S
O134 C132 1.267 . S
O135 Zn121 1.965 1_556 S
O135 C139 1.260 . S
O136 Zn120 1.969 . S
O136 C139 1.258 . S
O137 Zn121 2.024 . S
O137 C124 1.058 . S
C138 O127 1.260 1_554 S
C138 O128 1.258 . S
C139 O135 1.260 . S
C139 O136 1.258 . S
Zn140 O146 1.969 . S
Zn140 O147 1.965 . S
Zn140 O151 2.024 . S
Zn140 O156 1.969 . S
Zn141 O148 1.969 . S
Zn141 O154 1.969 . S
Zn141 O155 1.965 1_554 S
Zn141 O157 2.024 . S
C142 O143 1.229 . S
C142 O151 1.058 . S
O143 C142 1.229 . S
C144 O145 1.229 . S
C144 O157 1.058 . S
O145 C144 1.229 . S
O146 Zn140 1.969 . S
O146 C149 1.267 . S
O147 Zn140 1.965 . S
O147 C158 1.260 1_556 S
O148 Zn141 1.969 . S
O148 C158 1.258 . S
C149 O146 1.267 . S
C149 O150 1.228 . S
O150 C149 1.228 . S
O151 Zn140 2.024 . S
O151 C142 1.058 . S
C152 O153 1.228 . S
C152 O154 1.267 . S
O153 C152 1.228 . S
O154 Zn141 1.969 . S
O154 C152 1.267 . S
O155 Zn141 1.965 1_556 S
O155 C159 1.260 . S
O156 Zn140 1.969 . S
O156 C159 1.258 . S
O157 Zn141 2.024 . S
O157 C144 1.058 . S
C158 O147 1.260 1_554 S
C158 O148 1.258 . S
C159 O155 1.260 . S
C159 O156 1.258 . S
H160 C168 0.950 . S
H161 C173 0.950 . S
H162 C170 0.950 . S
H163 C172 0.950 . S
H164 C174 0.950 . S
H165 C176 0.950 . S
H166 C178 0.950 . S
H167 C179 0.950 . S
C168 H160 0.950 . S
C168 C169 1.386 . S
C168 C170 1.391 . S
C169 C168 1.386 . S
C169 C173 1.393 . S
C170 H162 0.950 . S
C170 C168 1.391 . S
C170 C171 1.400 . S
C171 C170 1.400 . S
C171 C172 1.398 . S
C171 C177 1.491 . S
C172 H163 0.950 . S
C172 C171 1.398 . S
C172 C173 1.391 . S
C173 H161 0.950 . S
C173 C169 1.393 . S
C173 C172 1.391 . S
C174 H164 0.950 . S
C174 C175 1.386 . S
C174 C176 1.391 . S
C175 C174 1.386 . S
C175 C179 1.393 . S
C176 H165 0.950 . S
C176 C174 1.391 . S
C176 C177 1.400 . S
C177 C171 1.491 . S
C177 C176 1.400 . S
C177 C178 1.398 . S
C178 H166 0.950 . S
C178 C177 1.398 . S
C178 C179 1.391 . S
C179 H167 0.950 . S
C179 C175 1.393 . S
C179 C178 1.391 . S
H180 C188 0.950 . S
H181 C193 0.950 . S
H182 C190 0.950 . S
H183 C192 0.950 . S
H184 C194 0.950 . S
H185 C196 0.950 . S
H186 C198 0.950 . S
H187 C199 0.950 . S
C188 H180 0.950 . S
C188 C189 1.386 . S
C188 C190 1.391 . S
C189 C188 1.386 . S
C189 C193 1.393 . S
C190 H182 0.950 . S
C190 C188 1.391 . S
C190 C191 1.400 . S
C191 C190 1.400 . S
C191 C192 1.398 . S
C191 C197 1.491 . S
C192 H183 0.950 . S
C192 C191 1.398 . S
C192 C193 1.391 . S
C193 H181 0.950 . S
C193 C189 1.393 . S
C193 C192 1.391 . S
C194 H184 0.950 . S
C194 C195 1.386 . S
C194 C196 1.391 . S
C195 C194 1.386 . S
C195 C199 1.393 . S
C196 H185 0.950 . S
C196 C194 1.391 . S
C196 C197 1.400 . S
C197 C191 1.491 . S
C197 C196 1.400 . S
C197 C198 1.398 . S
C198 H186 0.950 . S
C198 C197 1.398 . S
C198 C199 1.391 . S
C199 H187 0.950 . S
C199 C195 1.393 . S
C199 C198 1.391 . S
H200 C208 0.950 . S
H201 C213 0.950 . S
H202 C210 0.950 . S
H203 C212 0.950 . S
H204 C214 0.950 . S
H205 C216 0.950 . S
H206 C218 0.950 . S
H207 C219 0.950 . S
C208 H200 0.950 . S
C208 C209 1.386 . S
C208 C210 1.391 . S
C209 C208 1.386 . S
C209 C213 1.393 . S
C210 H202 0.950 . S
C210 C208 1.391 . S
C210 C211 1.400 . S
C211 C210 1.400 . S
C211 C212 1.398 . S
C211 C217 1.491 . S
C212 H203 0.950 . S
C212 C211 1.398 . S
C212 C213 1.391 . S
C213 H201 0.950 . S
C213 C209 1.393 . S
C213 C212 1.391 . S
C214 H204 0.950 . S
C214 C215 1.386 . S
C214 C216 1.391 . S
C215 C214 1.386 . S
C215 C219 1.393 . S
C216 H205 0.950 . S
C216 C214 1.391 . S
C216 C217 1.400 . S
C217 C211 1.491 . S
C217 C216 1.400 . S
C217 C218 1.398 . S
C218 H206 0.950 . S
C218 C217 1.398 . S
C218 C219 1.391 . S
C219 H207 0.950 . S
C219 C215 1.393 . S
C219 C218 1.391 . S
H220 C228 0.950 . S
H221 C233 0.950 . S
H222 C230 0.950 . S
H223 C232 0.950 . S
H224 C234 0.950 . S
H225 C236 0.950 . S
H226 C238 0.950 . S
H227 C239 0.950 . S
C228 H220 0.950 . S
C228 C229 1.386 . S
C228 C230 1.391 . S
C229 C228 1.386 . S
C229 C233 1.393 . S
C230 H222 0.950 . S
C230 C228 1.391 . S
C230 C231 1.400 . S
C231 C230 1.400 . S
C231 C232 1.398 . S
C231 C237 1.491 . S
C232 H223 0.950 . S
C232 C231 1.398 . S
C232 C233 1.391 . S
C233 H221 0.950 . S
C233 C229 1.393 . S
C233 C232 1.391 . S
C234 H224 0.950 . S
C234 C235 1.386 . S
C234 C236 1.391 . S
C235 C234 1.386 . S
C235 C239 1.393 . S
C236 H225 0.950 . S
C236 C234 1.391 . S
C236 C237 1.400 . S
C237 C231 1.491 . S
C237 C236 1.400 . S
C237 C238 1.398 . S
C238 H226 0.950 . S
C238 C237 1.398 . S
C238 C239 1.391 . S
C239 H227 0.950 . S
C239 C235 1.393 . S
C239 C238 1.391 . S
H240 C248 0.950 . S
H241 C253 0.950 . S
H242 C250 0.950 . S
H243 C252 0.950 . S
H244 C254 0.950 . S
H245 C256 0.950 . S
H246 C258 0.950 . S
H247 C259 0.950 . S
C248 H240 0.950 . S
C248 C249 1.386 . S
C248 C250 1.391 . S
C249 C248 1.386 . S
C249 C253 1.393 . S
C250 H242 0.950 . S
C250 C248 1.391 . S
C250 C251 1.400 . S
C251 C250 1.400 . S
C251 C252 1.398 . S
C251 C257 1.491 1_565 S
C252 H243 0.950 . S
C252 C251 1.398 . S
C252 C253 1.391 . S
C253 H241 0.950 . S
C253 C249 1.393 . S
C253 C252 1.391 . S
C254 H244 0.950 . S
C254 C255 1.386 . S
C254 C256 1.391 . S
C255 C254 1.386 . S
C255 C259 1.393 . S
C256 H245 0.950 . S
C256 C254 1.391 . S
C256 C257 1.400 . S
C257 C251 1.491 1_545 S
C257 C256 1.400 . S
C257 C258 1.398 . S
C258 H246 0.950 . S
C258 C257 1.398 . S
C258 C259 1.391 . S
C259 H247 0.950 . S
C259 C255 1.393 . S
C259 C258 1.391 . S
H260 C268 0.950 . S
H261 C273 0.950 . S
H262 C270 0.950 . S
H263 C272 0.950 . S
H264 C274 0.950 . S
H265 C276 0.950 . S
H266 C278 0.950 . S
H267 C279 0.950 . S
C268 H260 0.950 . S
C268 C269 1.386 . S
C268 C270 1.391 . S
C269 C268 1.386 . S
C269 C273 1.393 . S
C270 H262 0.950 . S
C270 C268 1.391 . S
C270 C271 1.400 . S
C271 C270 1.400 . S
C271 C272 1.398 . S
C271 C277 1.491 . S
C272 H263 0.950 . S
C272 C271 1.398 . S
C272 C273 1.391 . S
C273 H261 0.950 . S
C273 C269 1.393 . S
C273 C272 1.391 . S
C274 H264 0.950 . S
C274 C275 1.386 . S
C274 C276 1.391 . S
C275 C274 1.386 . S
C275 C279 1.393 . S
C276 H265 0.950 . S
C276 C274 1.391 . S
C276 C277 1.400 . S
C277 C271 1.491 . S
C277 C276 1.400 . S
C277 C278 1.398 . S
C278 H266 0.950 . S
C278 C277 1.398 . S
C278 C279 1.391 . S
C279 H267 0.950 . S
C279 C275 1.393 . S
C279 C278 1.391 . S
H280 C288 0.950 . S
H281 C293 0.950 . S
H282 C290 0.950 . S
H283 C292 0.950 . S
H284 C294 0.950 . S
H285 C296 0.950 . S
H286 C298 0.950 . S
H287 C299 0.950 . S
C288 H280 0.950 . S
C288 C289 1.386 . S
C288 C290 1.391 . S
C289 C288 1.386 . S
C289 C293 1.393 . S
C290 H282 0.950 . S
C290 C288 1.391 . S
C290 C291 1.400 . S
C291 C290 1.400 . S
C291 C292 1.398 . S
C291 C297 1.491 1_565 S
C292 H283 0.950 . S
C292 C291 1.398 . S
C292 C293 1.391 . S
C293 H281 0.950 . S
C293 C289 1.393 . S
C293 C292 1.391 . S
C294 H284 0.950 . S
C294 C295 1.386 . S
C294 C296 1.391 . S
C295 C294 1.386 . S
C295 C299 1.393 . S
C296 H285 0.950 . S
C296 C294 1.391 . S
C296 C297 1.400 . S
C297 C291 1.491 1_545 S
C297 C296 1.400 . S
C297 C298 1.398 . S
C298 H286 0.950 . S
C298 C297 1.398 . S
C298 C299 1.391 . S
C299 H287 0.950 . S
C299 C295 1.393 . S
C299 C298 1.391 . S
H300 C308 0.950 . S
H301 C313 0.950 . S
H302 C310 0.950 . S
H303 C312 0.950 . S
H304 C314 0.950 . S
H305 C316 0.950 . S
H306 C318 0.950 . S
H307 C319 0.950 . S
C308 H300 0.950 . S
C308 C309 1.386 . S
C308 C310 1.391 . S
C309 C308 1.386 . S
C309 C313 1.393 . S
C310 H302 0.950 . S
C310 C308 1.391 . S
C310 C311 1.400 . S
C311 C310 1.400 . S
C311 C312 1.398 . S
C311 C317 1.491 . S
C312 H303 0.950 . S
C312 C311 1.398 . S
C312 C313 1.391 . S
C313 H301 0.950 . S
C313 C309 1.393 . S
C313 C312 1.391 . S
C314 H304 0.950 . S
C314 C315 1.386 . S
C314 C316 1.391 . S
C315 C314 1.386 . S
C315 C319 1.393 . S
C316 H305 0.950 . S
C316 C314 1.391 . S
C316 C317 1.400 . S
C317 C311 1.491 . S
C317 C316 1.400 . S
C317 C318 1.398 . S
C318 H306 0.950 . S
C318 C317 1.398 . S
C318 C319 1.391 . S
C319 H307 0.950 . S
C319 C315 1.393 . S
C319 C318 1.391 . S
H320 C328 0.950 . S
H321 C333 0.950 . S
H322 C330 0.950 . S
H323 C332 0.950 . S
H324 C334 0.950 . S
H325 C336 0.950 . S
H326 C338 0.950 . S
H327 C339 0.950 . S
C328 H320 0.950 . S
C328 C329 1.386 . S
C328 C330 1.391 . S
C329 C328 1.386 . S
C329 C333 1.393 . S
C330 H322 0.950 . S
C330 C328 1.391 . S
C330 C331 1.400 . S
C331 C330 1.400 . S
C331 C332 1.398 . S
C331 C337 1.491 1_554 S
C332 H323 0.950 . S
C332 C331 1.398 . S
C332 C333 1.391 . S
C333 H321 0.950 . S
C333 C329 1.393 . S
C333 C332 1.391 . S
C334 H324 0.950 . S
C334 C335 1.386 . S
C334 C336 1.391 . S
C335 C334 1.386 . S
C335 C339 1.393 . S
C336 H325 0.950 . S
C336 C334 1.391 . S
C336 C337 1.400 . S
C337 C331 1.491 1_556 S
C337 C336 1.400 . S
C337 C338 1.398 . S
C338 H326 0.950 . S
C338 C337 1.398 . S
C338 C339 1.391 . S
C339 H327 0.950 . S
C339 C335 1.393 . S
C339 C338 1.391 . S
H340 C348 0.950 . S
H341 C353 0.950 . S
H342 C350 0.950 . S
H343 C352 0.950 . S
H344 C354 0.950 . S
H345 C356 0.950 . S
H346 C358 0.950 . S
H347 C359 0.950 . S
C348 H340 0.950 . S
C348 C349 1.386 1_556 S
C348 C350 1.391 . S
C349 C348 1.386 1_554 S
C349 C353 1.393 . S
C350 H342 0.950 . S
C350 C348 1.391 . S
C350 C351 1.400 1_556 S
C351 C350 1.400 1_554 S
C351 C352 1.398 . S
C351 C357 1.491 1_564 S
C352 H343 0.950 . S
C352 C351 1.398 . S
C352 C353 1.391 . S
C353 H341 0.950 . S
C353 C349 1.393 . S
C353 C352 1.391 . S
C354 H344 0.950 . S
C354 C355 1.386 1_554 S
C354 C356 1.391 . S
C355 C354 1.386 1_556 S
C355 C359 1.393 . S
C356 H345 0.950 . S
C356 C354 1.391 . S
C356 C357 1.401 1_554 S
C357 C351 1.491 1_546 S
C357 C356 1.401 1_556 S
C357 C358 1.398 . S
C358 H346 0.950 . S
C358 C357 1.398 . S
C358 C359 1.391 . S
C359 H347 0.950 . S
C359 C355 1.393 . S
C359 C358 1.391 . S
H360 C368 0.950 . S
H361 C373 0.950 . S
H362 C370 0.950 . S
H363 C372 0.950 . S
H364 C374 0.950 . S
H365 C376 0.950 . S
H366 C378 0.950 . S
H367 C379 0.950 . S
C368 H360 0.950 . S
C368 C369 1.386 1_554 S
C368 C370 1.391 . S
C369 C368 1.386 1_556 S
C369 C373 1.393 . S
C370 H362 0.950 . S
C370 C368 1.391 . S
C370 C371 1.400 1_554 S
C371 C370 1.400 1_556 S
C371 C372 1.398 . S
C371 C377 1.491 1_556 S
C372 H363 0.950 . S
C372 C371 1.398 . S
C372 C373 1.391 . S
C373 H361 0.950 . S
C373 C369 1.393 . S
C373 C372 1.391 . S
C374 H364 0.950 . S
C374 C375 1.386 1_556 S
C374 C376 1.391 . S
C375 C374 1.386 1_554 S
C375 C379 1.393 . S
C376 H365 0.950 . S
C376 C374 1.391 . S
C376 C377 1.400 1_556 S
C377 C371 1.491 1_554 S
C377 C376 1.400 1_554 S
C377 C378 1.398 . S
C378 H366 0.950 . S
C378 C377 1.398 . S
C378 C379 1.391 . S
C379 H367 0.950 . S
C379 C375 1.393 . S
C379 C378 1.391 . S
H380 C388 0.950 . S
H381 C393 0.950 . S
H382 C390 0.950 . S
H383 C392 0.950 . S
H384 C394 0.950 . S
H385 C396 0.950 . S
H386 C398 0.950 . S
H387 C399 0.950 . S
C388 H380 0.950 . S
C388 C389 1.386 . S
C388 C390 1.391 . S
C389 C388 1.386 . S
C389 C393 1.391 1_556 S
C390 H382 0.950 . S
C390 C388 1.391 . S
C390 C391 1.400 . S
C391 C390 1.400 . S
C391 C392 1.398 1_556 S
C391 C397 1.491 1_545 S
C392 H383 0.950 . S
C392 C391 1.398 1_554 S
C392 C393 1.392 . S
C393 H381 0.950 . S
C393 C389 1.391 1_554 S
C393 C392 1.392 . S
C394 H384 0.950 . S
C394 C395 1.386 . S
C394 C396 1.391 . S
C395 C394 1.386 . S
C395 C399 1.393 1_554 S
C396 H385 0.950 . S
C396 C394 1.391 . S
C396 C397 1.400 1_554 S
C397 C391 1.491 1_565 S
C397 C396 1.400 1_556 S
C397 C398 1.398 . S
C398 H386 0.950 . S
C398 C397 1.398 . S
C398 C399 1.391 . S
C399 H387 0.950 . S
C399 C395 1.393 1_556 S
C399 C398 1.391 . S
H400 C408 0.950 . S
H401 C413 0.950 . S
H402 C410 0.950 . S
H403 C412 0.950 . S
H404 C414 0.950 . S
H405 C416 0.950 . S
H406 C418 0.950 . S
H407 C419 0.950 . S
C408 H400 0.950 . S
C408 C409 1.386 . S
C408 C410 1.391 . S
C409 C408 1.386 . S
C409 C413 1.393 . S
C410 H402 0.950 . S
C410 C408 1.391 . S
C410 C411 1.400 . S
C411 C410 1.400 . S
C411 C412 1.398 . S
C411 C417 1.491 1_554 S
C412 H403 0.950 . S
C412 C411 1.398 . S
C412 C413 1.391 . S
C413 H401 0.950 . S
C413 C409 1.393 . S
C413 C412 1.391 . S
C414 H404 0.950 . S
C414 C415 1.386 . S
C414 C416 1.391 . S
C415 C414 1.386 . S
C415 C419 1.393 . S
C416 H405 0.950 . S
C416 C414 1.391 . S
C416 C417 1.400 . S
C417 C411 1.491 1_556 S
C417 C416 1.400 . S
C417 C418 1.398 . S
C418 H406 0.950 . S
C418 C417 1.398 . S
C418 C419 1.391 . S
C419 H407 0.950 . S
C419 C415 1.393 . S
C419 C418 1.391 . S
H420 C428 0.950 . S
H421 C433 0.950 . S
H422 C430 0.950 . S
H423 C432 0.950 . S
H424 C434 0.950 . S
H425 C436 0.950 . S
H426 C438 0.950 . S
H427 C439 0.950 . S
C428 H420 0.950 . S
C428 C429 1.386 . S
C428 C430 1.391 . S
C429 C428 1.386 . S
C429 C433 1.393 . S
C430 H422 0.950 . S
C430 C428 1.391 . S
C430 C431 1.400 . S
C431 C430 1.400 . S
C431 C432 1.398 . S
C431 C437 1.491 1_554 S
C432 H423 0.950 . S
C432 C431 1.398 . S
C432 C433 1.391 . S
C433 H421 0.950 . S
C433 C429 1.393 . S
C433 C432 1.391 . S
C434 H424 0.950 . S
C434 C435 1.386 . S
C434 C436 1.391 . S
C435 C434 1.386 . S
C435 C439 1.393 . S
C436 H425 0.950 . S
C436 C434 1.391 . S
C436 C437 1.400 . S
C437 C431 1.491 1_556 S
C437 C436 1.400 . S
C437 C438 1.398 . S
C438 H426 0.950 . S
C438 C437 1.398 . S
C438 C439 1.391 . S
C439 H427 0.950 . S
C439 C435 1.393 . S
C439 C438 1.391 . S
H440 C448 0.950 . S
H441 C453 0.950 . S
H442 C450 0.950 . S
H443 C452 0.950 . S
H444 C454 0.950 . S
H445 C456 0.950 . S
H446 C458 0.950 . S
H447 C459 0.950 . S
C448 H440 0.950 . S
C448 C449 1.386 . S
C448 C450 1.391 . S
C449 C448 1.386 . S
C449 C453 1.393 . S
C450 H442 0.950 . S
C450 C448 1.391 . S
C450 C451 1.400 . S
C451 C450 1.400 . S
C451 C452 1.398 . S
C451 C457 1.491 1_554 S
C452 H443 0.950 . S
C452 C451 1.398 . S
C452 C453 1.391 . S
C453 H441 0.950 . S
C453 C449 1.393 . S
C453 C452 1.391 . S
C454 H444 0.950 . S
C454 C455 1.386 . S
C454 C456 1.391 . S
C455 C454 1.386 . S
C455 C459 1.393 . S
C456 H445 0.950 . S
C456 C454 1.391 . S
C456 C457 1.400 . S
C457 C451 1.491 1_556 S
C457 C456 1.400 . S
C457 C458 1.398 . S
C458 H446 0.950 . S
C458 C457 1.398 . S
C458 C459 1.391 . S
C459 H447 0.950 . S
C459 C455 1.393 . S
C459 C458 1.391 . S
H460 C468 0.950 . S
H461 C473 0.950 . S
H462 C470 0.950 . S
H463 C472 0.950 . S
H464 C474 0.950 . S
H465 C476 0.950 . S
H466 C478 0.950 . S
H467 C479 0.950 . S
C468 H460 0.950 . S
C468 C469 1.386 . S
C468 C470 1.391 . S
C469 C468 1.386 . S
C469 C473 1.393 . S
C470 H462 0.950 . S
C470 C468 1.391 . S
C470 C471 1.400 . S
C471 C470 1.400 . S
C471 C472 1.398 . S
C471 C477 1.491 1_556 S
C472 H463 0.950 . S
C472 C471 1.398 . S
C472 C473 1.391 . S
C473 H461 0.950 . S
C473 C469 1.393 . S
C473 C472 1.391 . S
C474 H464 0.950 . S
C474 C475 1.386 . S
C474 C476 1.391 . S
C475 C474 1.386 . S
C475 C479 1.393 . S
C476 H465 0.950 . S
C476 C474 1.391 . S
C476 C477 1.400 . S
C477 C471 1.491 1_554 S
C477 C476 1.400 . S
C477 C478 1.398 . S
C478 H466 0.950 . S
C478 C477 1.398 . S
C478 C479 1.391 . S
C479 H467 0.950 . S
C479 C475 1.393 . S
C479 C478 1.391 . S
H480 C488 0.950 . S
H481 C493 0.950 . S
H482 C490 0.950 . S
H483 C492 0.950 . S
H484 C494 0.950 . S
H485 C496 0.950 . S
H486 C498 0.950 . S
H487 C499 0.950 . S
C488 H480 0.950 . S
C488 C489 1.386 . S
C488 C490 1.391 . S
C489 C488 1.386 . S
C489 C493 1.393 . S
C490 H482 0.950 . S
C490 C488 1.391 . S
C490 C491 1.400 . S
C491 C490 1.400 . S
C491 C492 1.398 . S
C491 C497 1.491 . S
C492 H483 0.950 . S
C492 C491 1.398 . S
C492 C493 1.391 . S
C493 H481 0.950 . S
C493 C489 1.393 . S
C493 C492 1.391 . S
C494 H484 0.950 . S
C494 C495 1.386 . S
C494 C496 1.391 . S
C495 C494 1.386 . S
C495 C499 1.393 . S
C496 H485 0.950 . S
C496 C494 1.391 . S
C496 C497 1.400 . S
C497 C491 1.491 . S
C497 C496 1.400 . S
C497 C498 1.398 . S
C498 H486 0.950 . S
C498 C497 1.398 . S
C498 C499 1.391 . S
C499 H487 0.950 . S
C499 C495 1.393 . S
C499 C498 1.391 . S
H500 C508 0.950 . S
H501 C513 0.950 . S
H502 C510 0.950 . S
H503 C512 0.950 . S
H504 C514 0.950 . S
H505 C516 0.950 . S
H506 C518 0.950 . S
H507 C519 0.950 . S
C508 H500 0.950 . S
C508 C509 1.386 . S
C508 C510 1.391 . S
C509 C508 1.386 . S
C509 C513 1.393 . S
C510 H502 0.950 . S
C510 C508 1.391 . S
C510 C511 1.400 . S
C511 C510 1.400 . S
C511 C512 1.398 . S
C511 C517 1.491 . S
C512 H503 0.950 . S
C512 C511 1.398 . S
C512 C513 1.391 . S
C513 H501 0.950 . S
C513 C509 1.393 . S
C513 C512 1.391 . S
C514 H504 0.950 . S
C514 C515 1.386 . S
C514 C516 1.391 . S
C515 C514 1.386 . S
C515 C519 1.393 . S
C516 H505 0.950 . S
C516 C514 1.391 . S
C516 C517 1.400 . S
C517 C511 1.491 . S
C517 C516 1.400 . S
C517 C518 1.398 . S
C518 H506 0.950 . S
C518 C517 1.398 . S
C518 C519 1.391 . S
C519 H507 0.950 . S
C519 C515 1.393 . S
C519 C518 1.391 . S
H520 C528 0.950 . S
H521 C533 0.950 . S
H522 C530 0.950 . S
H523 C532 0.950 . S
H524 C534 0.950 . S
H525 C536 0.950 . S
H526 C538 0.950 . S
H527 C539 0.950 . S
C528 H520 0.950 . S
C528 C529 1.386 . S
C528 C530 1.391 . S
C529 C528 1.386 . S
C529 C533 1.393 . S
C530 H522 0.950 . S
C530 C528 1.391 . S
C530 C531 1.400 . S
C531 C530 1.400 . S
C531 C532 1.398 . S
C531 C537 1.491 . S
C532 H523 0.950 . S
C532 C531 1.398 . S
C532 C533 1.391 . S
C533 H521 0.950 . S
C533 C529 1.393 . S
C533 C532 1.391 . S
C534 H524 0.950 . S
C534 C535 1.386 . S
C534 C536 1.391 . S
C535 C534 1.386 . S
C535 C539 1.393 . S
C536 H525 0.950 . S
C536 C534 1.391 . S
C536 C537 1.400 . S
C537 C531 1.491 . S
C537 C536 1.400 . S
C537 C538 1.398 . S
C538 H526 0.950 . S
C538 C537 1.398 . S
C538 C539 1.391 . S
C539 H527 0.950 . S
C539 C535 1.393 . S
C539 C538 1.391 . S
H540 C548 0.950 . S
H541 C553 0.950 . S
H542 C550 0.950 . S
H543 C552 0.950 . S
H544 C554 0.950 . S
H545 C556 0.950 . S
H546 C558 0.950 . S
H547 C559 0.950 . S
C548 H540 0.950 . S
C548 C549 1.386 . S
C548 C550 1.391 . S
C549 C548 1.386 . S
C549 C553 1.393 . S
C550 H542 0.950 . S
C550 C548 1.391 . S
C550 C551 1.400 . S
C551 C550 1.400 . S
C551 C552 1.398 . S
C551 C557 1.491 . S
C552 H543 0.950 . S
C552 C551 1.398 . S
C552 C553 1.391 . S
C553 H541 0.950 . S
C553 C549 1.393 . S
C553 C552 1.391 . S
C554 H544 0.950 . S
C554 C555 1.386 . S
C554 C556 1.391 . S
C555 C554 1.386 . S
C555 C559 1.393 . S
C556 H545 0.950 . S
C556 C554 1.391 . S
C556 C557 1.400 . S
C557 C551 1.491 . S
C557 C556 1.400 . S
C557 C558 1.398 . S
C558 H546 0.950 . S
C558 C557 1.398 . S
C558 C559 1.391 . S
C559 H547 0.950 . S
C559 C555 1.393 . S
C559 C558 1.391 . S
H560 C568 0.950 . S
H561 C573 0.950 . S
H562 C570 0.950 . S
H563 C572 0.950 . S
H564 C574 0.950 . S
H565 C576 0.950 . S
H566 C578 0.950 . S
H567 C579 0.950 . S
C568 H560 0.950 . S
C568 C569 1.386 . S
C568 C570 1.391 . S
C569 C568 1.386 . S
C569 C573 1.393 . S
C570 H562 0.950 . S
C570 C568 1.391 . S
C570 C571 1.400 . S
C571 C570 1.400 . S
C571 C572 1.398 . S
C571 C577 1.491 1_455 S
C572 H563 0.950 . S
C572 C571 1.398 . S
C572 C573 1.391 . S
C573 H561 0.950 . S
C573 C569 1.393 . S
C573 C572 1.391 . S
C574 H564 0.950 . S
C574 C575 1.386 . S
C574 C576 1.391 . S
C575 C574 1.386 . S
C575 C579 1.393 . S
C576 H565 0.950 . S
C576 C574 1.391 . S
C576 C577 1.400 . S
C577 C571 1.491 1_655 S
C577 C576 1.400 . S
C577 C578 1.398 . S
C578 H566 0.950 . S
C578 C577 1.398 . S
C578 C579 1.391 . S
C579 H567 0.950 . S
C579 C575 1.393 . S
C579 C578 1.391 . S
H580 C588 0.950 . S
H581 C593 0.950 . S
H582 C590 0.950 . S
H583 C592 0.950 . S
H584 C594 0.950 . S
H585 C596 0.950 . S
H586 C598 0.950 . S
H587 C599 0.950 . S
C588 H580 0.950 . S
C588 C589 1.386 . S
C588 C590 1.391 . S
C589 C588 1.386 . S
C589 C593 1.393 . S
C590 H582 0.950 . S
C590 C588 1.391 . S
C590 C591 1.400 . S
C591 C590 1.400 . S
C591 C592 1.398 . S
C591 C597 1.491 1_655 S
C592 H583 0.950 . S
C592 C591 1.398 . S
C592 C593 1.391 . S
C593 H581 0.950 . S
C593 C589 1.393 . S
C593 C592 1.391 . S
C594 H584 0.950 . S
C594 C595 1.386 . S
C594 C596 1.391 . S
C595 C594 1.386 . S
C595 C599 1.393 . S
C596 H585 0.950 . S
C596 C594 1.391 . S
C596 C597 1.400 . S
C597 C591 1.491 1_455 S
C597 C596 1.400 . S
C597 C598 1.398 . S
C598 H586 0.950 . S
C598 C597 1.398 . S
C598 C599 1.391 . S
C599 H587 0.950 . S
C599 C595 1.393 . S
C599 C598 1.391 . S
H600 C608 0.950 . S
H601 C613 0.950 1_554 S
H602 C610 0.950 . S
H603 C612 0.950 1_554 S
H604 C614 0.950 1_554 S
H605 C616 0.950 1_554 S
H606 C618 0.950 . S
H607 C619 0.950 . S
C608 H600 0.950 . S
C608 C609 1.386 . S
C608 C610 1.391 . S
C609 C608 1.386 . S
C609 C613 1.393 . S
C610 H602 0.950 . S
C610 C608 1.391 . S
C610 C611 1.400 . S
C611 C610 1.400 . S
C611 C612 1.398 . S
C611 C617 1.491 . S
C612 H603 0.950 1_556 S
C612 C611 1.398 . S
C612 C613 1.391 . S
C613 H601 0.950 1_556 S
C613 C609 1.393 . S
C613 C612 1.391 . S
C614 H604 0.950 1_556 S
C614 C615 1.386 . S
C614 C616 1.391 . S
C615 C614 1.386 . S
C615 C619 1.393 . S
C616 H605 0.950 1_556 S
C616 C614 1.391 . S
C616 C617 1.400 . S
C617 C611 1.491 . S
C617 C616 1.400 . S
C617 C618 1.398 . S
C618 H606 0.950 . S
C618 C617 1.398 . S
C618 C619 1.391 . S
C619 H607 0.950 . S
C619 C615 1.393 . S
C619 C618 1.391 . S
H620 C628 0.950 . S
H621 C633 0.950 . S
H622 C630 0.950 . S
H623 C632 0.950 . S
H624 C634 0.948 1_556 S
H625 C636 0.957 . S
H626 C638 0.950 . S
H627 C639 0.950 . S
C628 H620 0.950 . S
C628 C629 1.386 . S
C628 C630 1.391 . S
C629 C628 1.386 . S
C629 C633 1.393 . S
C630 H622 0.950 . S
C630 C628 1.391 . S
C630 C631 1.400 . S
C631 C630 1.400 . S
C631 C632 1.398 . S
C631 C637 1.491 . S
C632 H623 0.950 . S
C632 C631 1.398 . S
C632 C633 1.391 . S
C633 H621 0.950 . S
C633 C629 1.393 . S
C633 C632 1.391 . S
C634 H624 0.948 1_554 S
C634 C635 1.386 . S
C634 C636 1.391 . S
C635 C634 1.386 . S
C635 C639 1.393 . S
C636 H625 0.957 . S
C636 C634 1.391 . S
C636 C637 1.400 . S
C637 C631 1.491 . S
C637 C636 1.400 . S
C637 C638 1.398 . S
C638 H626 0.950 . S
C638 C637 1.398 . S
C638 C639 1.391 . S
C639 H627 0.950 . S
C639 C635 1.393 . S
C639 C638 1.391 . S
C169 C9 1.698 . S
C175 C149 1.696 . S
C189 C129 1.649 . S
C195 C32 1.649 . S
C209 C112 1.654 . S
C215 C49 1.655 . S
C229 C89 1.672 . S
C235 C69 1.667 . S
C249 C58 1.482 . S
C255 C18 1.473 . S
C269 C38 1.182 . S
C275 C78 1.163 . S
C289 C79 1.803 . S
C295 C39 1.789 . S
C309 C59 1.513 . S
C315 C19 1.511 . S
C329 C98 1.477 1_554 S
C335 C138 1.484 1_556 S
C349 C118 1.186 . S
C355 C158 1.160 1_556 S
C369 C159 1.797 . S
C375 C119 1.796 1_554 S
C389 C139 1.521 . S
C395 C99 1.514 . S
C409 C4 1.460 . S
C415 C2 1.460 . S
C429 C22 1.458 . S
C435 C24 1.458 . S
C449 C42 1.467 . S
C455 C44 1.467 . S
C469 C64 1.452 . S
C475 C62 1.452 . S
C489 C82 1.452 . S
C495 C84 1.452 . S
C509 C102 1.452 . S
C515 C104 1.452 . S
C529 C124 1.452 . S
C535 C122 1.452 . S
C549 C144 1.459 . S
C555 C142 1.459 . S
C569 C12 1.956 . S
C575 C29 1.953 . S
C589 C72 1.930 . S
C595 C52 1.933 . S
C609 C92 1.957 . S
C615 C109 1.952 . S
C629 C152 1.933 . S
C635 C132 1.936 . S
