# Generated by pormake.
# Topology vme, (6)-cn, num edge types: 1
# Building blocks:
#     Node 0, Type 0, BuildingBlock: MIDCAF_clean_sbu_0, # of connection points: 6
#     Node 1, Type 0, BuildingBlock: MIDCAF_clean_sbu_0, # of connection points: 6
#     Node 2, Type 0, BuildingBlock: MIDCAF_clean_sbu_0, # of connection points: 6
#     Node 3, Type 0, BuildingBlock: MIDCAF_clean_sbu_0, # of connection points: 6
#     Edge 4, Type (0, 0), BuildingBlock: ZUJKAS_clean_linker_0, # of connection points: 2
#     Edge 5, Type (0, 0), BuildingBlock: ZUJKAS_clean_linker_0, # of connection points: 2
#     Edge 6, Type (0, 0), BuildingBlock: ZUJKAS_clean_linker_0, # of connection points: 2
#     Edge 7, Type (0, 0), BuildingBlock: ZUJKAS_clean_linker_0, # of connection points: 2
#     Edge 8, Type (0, 0), BuildingBlock: ZUJKAS_clean_linker_0, # of connection points: 2
#     Edge 9, Type (0, 0), BuildingBlock: ZUJKAS_clean_linker_0, # of connection points: 2
#     Edge 10, Type (0, 0), BuildingBlock: ZUJKAS_clean_linker_0, # of connection points: 2
#     Edge 11, Type (0, 0), BuildingBlock: ZUJKAS_clean_linker_0, # of connection points: 2
#     Edge 12, Type (0, 0), BuildingBlock: ZUJKAS_clean_linker_0, # of connection points: 2
#     Edge 13, Type (0, 0), BuildingBlock: ZUJKAS_clean_linker_0, # of connection points: 2
#     Edge 14, Type (0, 0), BuildingBlock: ZUJKAS_clean_linker_0, # of connection points: 2
#     Edge 15, Type (0, 0), BuildingBlock: ZUJKAS_clean_linker_0, # of connection points: 2
# Relax obj value: 0.251
# Max RMSD: 0.208
# Mean RMSD: 0.208
data_MOF--net-vme--node1-MIDCAF_clean_sbu_0--edge1-ZUJKAS_clean_linker_0
_symmetry_space_group_name_H-M    P1
_symmetry_Int_Tables_number       1
_symmetry_cell_setting            triclinic
loop_
_symmetry_equiv_pos_as_xyz
'x, y, z'
_cell_length_a     30.278858
_cell_length_b     32.655647
_cell_length_c     34.075977
_cell_angle_alpha  89.783418
_cell_angle_beta   105.22308
_cell_angle_gamma 90.000892
loop_
_atom_site_label
_atom_site_type_symbol
_atom_site_fract_x
_atom_site_fract_y
_atom_site_fract_z
_atom_type_partial_charge
Zn0 Zn 0.22317 0.44178 0.27995 0.0
Zn1 Zn 0.12852 0.30483 0.40222 0.0
Zn2 Zn 0.196 0.39422 0.32697 0.0
C3 C 0.22111 0.3548 0.40713 0.0
C4 C 0.15278 0.31147 0.31493 0.0
O5 O 0.14889 0.44722 0.31528 0.0
O6 O 0.17031 0.48129 0.26734 0.0
C7 C 0.29007 0.43544 0.35845 0.0
O8 O 0.24015 0.38025 0.38799 0.0
O9 O 0.18172 0.34119 0.38818 0.0
O10 O 0.15225 0.3225 0.35083 0.0
O11 O 0.17222 0.33619 0.29549 0.0
O12 O 0.27919 0.45489 0.32504 0.0
O13 O 0.2632 0.40776 0.36588 0.0
O14 O 0.19959 0.35629 0.27482 0.0
O15 O 0.22958 0.3997 0.23925 0.0
C16 C 0.21632 0.36389 0.24454 0.0
O17 O 0.1374 0.41993 0.34279 0.0
O18 O 0.13228 0.3595 0.36863 0.0
C19 C 0.14347 0.47732 0.28994 0.0
C20 C 0.1187 0.39668 0.36409 0.0
Zn21 Zn 0.84686 0.83934 0.11046 0.0
Zn22 Zn 0.77628 0.93395 0.19757 0.0
Zn23 Zn 0.80877 0.88709 0.1495 0.0
C24 C 0.79611 0.86137 0.23908 0.0
C25 C 0.70545 0.91955 0.12599 0.0
O26 O 0.87172 0.91762 0.14082 0.0
O27 O 0.90524 0.86813 0.11522 0.0
C28 C 0.84115 0.7923 0.17337 0.0
O29 O 0.80402 0.85206 0.20474 0.0
O30 O 0.78736 0.89795 0.24626 0.0
O31 O 0.71302 0.93407 0.16143 0.0
O32 O 0.73802 0.90221 0.1142 0.0
O33 O 0.84949 0.78749 0.13939 0.0
O34 O 0.82732 0.82741 0.18279 0.0
O35 O 0.75889 0.88015 0.08837 0.0
O36 O 0.80119 0.84273 0.05819 0.0
C37 C 0.76451 0.86164 0.05668 0.0
O38 O 0.85204 0.943 0.16482 0.0
O39 O 0.81539 0.98288 0.19822 0.0
C40 C 0.90553 0.90437 0.12792 0.0
C41 C 0.84836 0.97713 0.18264 0.0
Zn42 Zn 0.77549 0.56921 0.71529 0.0
Zn43 Zn 0.85945 0.68632 0.59377 0.0
Zn44 Zn 0.80332 0.60703 0.65967 0.0
C45 C 0.77453 0.63686 0.58225 0.0
C46 C 0.85165 0.70558 0.67702 0.0
O47 O 0.84814 0.5522 0.67858 0.0
O48 O 0.82361 0.52594 0.72881 0.0
C49 C 0.70402 0.57011 0.64032 0.0
O50 O 0.75306 0.61284 0.60015 0.0
O51 O 0.81429 0.64615 0.60212 0.0
O52 O 0.86316 0.71689 0.64515 0.0
O53 O 0.83282 0.6704 0.68084 0.0
O54 O 0.71462 0.55612 0.6763 0.0
O55 O 0.73289 0.59192 0.62771 0.0
O56 O 0.80474 0.65221 0.70676 0.0
O57 O 0.78005 0.61711 0.75235 0.0
C58 C 0.79337 0.65048 0.7405 0.0
O59 O 0.85731 0.57249 0.64491 0.0
O60 O 0.87113 0.62568 0.61044 0.0
C61 C 0.85128 0.52503 0.70678 0.0
C62 C 0.87842 0.58841 0.62059 0.0
Zn63 Zn 0.13116 0.1161 0.83873 0.0
Zn64 Zn 0.23293 0.05709 0.78307 0.0
Zn65 Zn 0.19399 0.09904 0.82217 0.0
C66 C 0.22655 0.13963 0.75299 0.0
C67 C 0.28607 0.06444 0.86839 0.0
O68 O 0.20026 0.07169 0.88373 0.0
O69 O 0.12579 0.06109 0.86482 0.0
C70 C 0.12487 0.16449 0.77991 0.0
O71 O 0.21344 0.14625 0.78523 0.0
O72 O 0.23323 0.10322 0.74312 0.0
O73 O 0.28668 0.05277 0.83307 0.0
O74 O 0.25039 0.08244 0.87392 0.0
O75 O 0.0968 0.13711 0.78411 0.0
O76 O 0.16769 0.15918 0.79701 0.0
O77 O 0.22085 0.11551 0.88674 0.0
O78 O 0.16507 0.16002 0.87863 0.0
C79 C 0.20422 0.14804 0.89894 0.0
O80 O 0.14451 0.05501 0.79532 0.0
O81 O 0.1851 0.01175 0.77036 0.0
C82 C 0.16446 0.05322 0.88901 0.0
C83 C 0.14785 0.02103 0.77838 0.0
H84 H 0.83173 0.05805 0.16954 0.0
H85 H 0.88735 0.11397 0.18224 0.0
H86 H 0.99737 0.02631 0.21856 0.0
H87 H 0.94155 0.97021 0.20472 0.0
H88 H 0.94005 0.13208 0.254 0.0
H89 H 0.05119 0.10355 0.15122 0.0
H90 H 0.99645 0.07881 0.14483 0.0
H91 H 0.0462 0.05971 0.18166 0.0
C92 C 0.86789 0.05078 0.1794 0.0
C93 C 0.88252 0.00995 0.18581 0.0
C94 C 0.89964 0.08268 0.18664 0.0
C95 C 0.94668 0.07447 0.20099 0.0
C96 C 0.96144 0.0335 0.20652 0.0
H97 H 0.13349 0.24398 0.35419 0.0
H98 H 0.08672 0.18517 0.32464 0.0
C99 C 0.92957 0.00146 0.19881 0.0
C100 C 0.97929 0.10885 0.21453 0.0
H101 H 0.07956 0.15113 0.2056 0.0
C102 C 0.97034 0.13633 0.2431 0.0
C103 C 0.01858 0.11481 0.20002 0.0
C104 C 0.02851 0.08792 0.16743 0.0
C105 C 0.9998 0.16905 0.25813 0.0
C106 C 0.04038 0.1738 0.24536 0.0
C107 C 0.0489 0.14702 0.21596 0.0
C108 C 0.07396 0.20656 0.26244 0.0
C109 C 0.98664 0.1986 0.28716 0.0
C110 C 0.08456 0.23702 0.23715 0.0
C111 C 0.11197 0.27045 0.25402 0.0
C112 C 0.12906 0.27392 0.29643 0.0
C113 C 0.12027 0.24238 0.32145 0.0
C114 C 0.09343 0.20883 0.3046 0.0
H115 H 0.94922 0.19802 0.28423 0.0
H116 H 0.00436 0.18976 0.31885 0.0
H117 H 0.99665 0.23044 0.28184 0.0
H118 H 0.07011 0.2358 0.20453 0.0
H119 H 0.1181 0.29441 0.23402 0.0
H120 H 0.09904 0.49547 0.34778 0.0
H121 H 0.04079 0.54787 0.3453 0.0
H122 H 0.0472 0.58155 0.22442 0.0
H123 H 0.1058 0.52928 0.2271 0.0
H124 H 0.0538 0.64781 0.27877 0.0
H125 H 0.90532 0.5473 0.27922 0.0
H126 H 0.95744 0.53881 0.31833 0.0
H127 H 0.95574 0.5284 0.2663 0.0
C128 C 0.08746 0.51345 0.32052 0.0
C129 C 0.10671 0.50784 0.28763 0.0
C130 C 0.0542 0.54348 0.31911 0.0
C131 C 0.0393 0.56824 0.28449 0.0
C132 C 0.05824 0.56265 0.25144 0.0
H133 H 0.83037 0.71159 0.15722 0.0
H134 H 0.87412 0.65667 0.19803 0.0
C135 C 0.0917 0.53279 0.253 0.0
C136 C 0.00518 0.6011 0.28281 0.0
H137 H 0.89149 0.61811 0.2727 0.0
C138 C 0.01842 0.64155 0.27809 0.0
C139 C 0.95924 0.59259 0.28224 0.0
C140 C 0.94323 0.54946 0.28655 0.0
C141 C 0.98641 0.67353 0.27025 0.0
C142 C 0.93991 0.66487 0.26791 0.0
C143 C 0.92719 0.62472 0.27503 0.0
C144 C 0.90351 0.695 0.25002 0.0
C145 C 0.00217 0.71568 0.26146 0.0
C146 C 0.90271 0.73414 0.2669 0.0
C147 C 0.87786 0.76587 0.24328 0.0
C148 C 0.85321 0.75842 0.20289 0.0
C149 C 0.84943 0.71813 0.1882 0.0
C150 C 0.87435 0.68667 0.21157 0.0
H151 H 0.03803 0.71564 0.25896 0.0
H152 H 0.97979 0.72802 0.23265 0.0
H153 H 0.00027 0.73675 0.28642 0.0
H154 H 0.92425 0.74094 0.29692 0.0
H155 H 0.88148 0.79673 0.25522 0.0
H156 H 0.1481 0.94071 0.75579 0.0
H157 H 0.08773 0.88994 0.75278 0.0
H158 H 0.00259 0.9825 0.78559 0.0
H159 H 0.06249 0.03358 0.78869 0.0
H160 H 0.03505 0.88014 0.82813 0.0
H161 H 0.93554 0.91721 0.66959 0.0
H162 H 0.99698 0.92316 0.68484 0.0
H163 H 0.96161 0.95736 0.70421 0.0
C164 C 0.11639 0.95039 0.76198 0.0
C165 C 0.11006 0.99117 0.77242 0.0
C166 C 0.0822 0.92131 0.7606 0.0
C167 C 0.04122 0.93265 0.76941 0.0
C168 C 0.0343 0.97334 0.77906 0.0
H169 H 0.80948 0.77476 0.69138 0.0
H170 H 0.84914 0.83305 0.72978 0.0
C171 C 0.06846 0.00242 0.78056 0.0
C172 C 0.00509 0.90197 0.76727 0.0
H173 H 0.91226 0.86048 0.70096 0.0
C174 C 0.00768 0.87596 0.80063 0.0
C175 C 0.96934 0.89737 0.73162 0.0
C176 C 0.96529 0.92512 0.69533 0.0
C177 C 0.97593 0.84415 0.79862 0.0
C178 C 0.94159 0.83785 0.76193 0.0
C179 C 0.93814 0.8653 0.72931 0.0
C180 C 0.91285 0.80041 0.75388 0.0
C181 C 0.97993 0.81757 0.83567 0.0
C182 C 0.93403 0.76177 0.75762 0.0
C183 C 0.91057 0.72807 0.73711 0.0
C184 C 0.86615 0.73287 0.71191 0.0
C185 C 0.84337 0.77025 0.71148 0.0
C186 C 0.86626 0.80361 0.73308 0.0
H187 H 0.99262 0.83563 0.86396 0.0
H188 H 0.94668 0.80341 0.83597 0.0
H189 H 0.00525 0.7929 0.83602 0.0
H190 H 0.97013 0.75844 0.77246 0.0
H191 H 0.92909 0.69971 0.73689 0.0
H192 H 0.92067 0.51366 0.66947 0.0
H193 H 0.97034 0.45389 0.67415 0.0
H194 H 0.91415 0.40335 0.76775 0.0
H195 H 0.86162 0.46101 0.76035 0.0
H196 H 0.03607 0.42194 0.73269 0.0
H197 H 0.89605 0.30837 0.6927 0.0
H198 H 0.88536 0.36269 0.6873 0.0
H199 H 0.89276 0.33792 0.73599 0.0
C200 C 0.91779 0.48925 0.68994 0.0
C201 C 0.88546 0.49135 0.71284 0.0
C202 C 0.9468 0.45533 0.69318 0.0
C203 C 0.94482 0.42327 0.72021 0.0
C204 C 0.91493 0.42674 0.74532 0.0
H205 H 0.07983 0.20892 0.82192 0.0
H206 H 0.04074 0.2742 0.80297 0.0
C207 C 0.88519 0.46008 0.74133 0.0
C208 C 0.97415 0.38637 0.72262 0.0
H209 H 0.97097 0.28189 0.72407 0.0
C210 C 0.0218 0.39132 0.73012 0.0
C211 C 0.9555 0.34633 0.71875 0.0
C212 C 0.90458 0.33852 0.7078 0.0
C213 C 0.05135 0.3573 0.73618 0.0
C214 C 0.03269 0.31756 0.73461 0.0
C215 C 0.98509 0.31255 0.72536 0.0
C216 C 0.06158 0.28085 0.74724 0.0
C217 C 0.10235 0.36389 0.74608 0.0
C218 C 0.08721 0.26348 0.72251 0.0
C219 C 0.11003 0.22602 0.73355 0.0
C220 C 0.10669 0.20578 0.76906 0.0
C221 C 0.08245 0.22403 0.79424 0.0
C222 C 0.0602 0.26123 0.78349 0.0
H223 H 0.11158 0.39688 0.74854 0.0
H224 H 0.11931 0.34837 0.7752 0.0
H225 H 0.11597 0.35002 0.72195 0.0
H226 H 0.08827 0.27813 0.69421 0.0
H227 H 0.12857 0.21221 0.71378 0.0
H228 H 0.95278 0.61375 0.59741 0.0
H229 H 0.99333 0.57643 0.55518 0.0
H230 H 0.90632 0.47169 0.5541 0.0
H231 H 0.8654 0.50895 0.59635 0.0
H232 H 0.03342 0.4846 0.57257 0.0
H233 H 0.8986 0.51806 0.42952 0.0
H234 H 0.90876 0.55149 0.47309 0.0
H235 H 0.88154 0.503 0.47439 0.0
C236 C 0.94288 0.58251 0.58871 0.0
C237 C 0.90656 0.56386 0.60048 0.0
C238 C 0.96591 0.56138 0.56464 0.0
C239 C 0.95246 0.52161 0.55164 0.0
C240 C 0.91692 0.50247 0.56403 0.0
H241 H 0.03967 0.36741 0.37746 0.0
H242 H 0.99787 0.396 0.42416 0.0
C243 C 0.89394 0.52356 0.58829 0.0
C244 C 0.97476 0.50071 0.52392 0.0
H245 H 0.96237 0.47963 0.42371 0.0
C246 C 0.01792 0.48318 0.54006 0.0
C247 C 0.95417 0.49939 0.48167 0.0
C248 C 0.90826 0.51906 0.46329 0.0
C249 C 0.0413 0.46404 0.51474 0.0
C250 C 0.02097 0.46307 0.47235 0.0
C251 C 0.97753 0.48028 0.4563 0.0
C252 C 0.04531 0.44601 0.444 0.0
C253 C 0.08751 0.44503 0.53348 0.0
C254 C 0.08519 0.46509 0.43967 0.0
C255 C 0.10868 0.44899 0.41322 0.0
C256 C 0.09215 0.41409 0.39017 0.0
C257 C 0.05238 0.39479 0.39457 0.0
C258 C 0.02871 0.411 0.42108 0.0
H259 H 0.09299 0.43937 0.56659 0.0
H260 H 0.09137 0.41564 0.51843 0.0
H261 H 0.1147 0.46617 0.52946 0.0
H262 H 0.09822 0.49233 0.45691 0.0
H263 H 0.14015 0.46355 0.41112 0.0
H264 H 0.994 0.88306 0.13769 0.0
H265 H 0.05116 0.92058 0.1136 0.0
H266 H 0.95955 0.024 0.08376 0.0
H267 H 0.90115 0.98546 0.10642 0.0
H268 H 0.9834 0.0006 0.0202 0.0
H269 H 0.14239 0.01028 0.14258 0.0
H270 H 0.12263 0.95842 0.13939 0.0
H271 H 0.08813 0.99846 0.15266 0.0
C272 C 0.98659 0.91432 0.12723 0.0
C273 C 0.94321 0.9314 0.12397 0.0
C274 C 0.01959 0.936 0.11386 0.0
C275 C 0.01007 0.9754 0.09721 0.0
C276 C 0.96786 0.99376 0.09676 0.0
H277 H 0.19413 0.08434 0.96506 0.0
H278 H 0.1614 0.06699 0.02139 0.0
C279 C 0.9346 0.97185 0.10994 0.0
C280 C 0.04011 0.99317 0.07334 0.0
H281 H 0.15242 0.00394 0.07327 0.0
C282 C 0.02027 0.0022 0.03218 0.0
C283 C 0.08824 0.99602 0.0888 0.0
C284 C 0.11139 0.99071 0.13343 0.0
C285 C 0.04724 0.01112 0.00557 0.0
C286 C 0.09554 0.00946 0.0201 0.0
C287 C 0.11545 0.00361 0.06183 0.0
C288 C 0.12518 0.01369 0.99186 0.0
C289 C 0.0235 0.02178 0.96195 0.0
C290 C 0.11884 0.98756 0.95819 0.0
C291 C 0.13742 0.9976 0.92599 0.0
C292 C 0.16367 0.03324 0.92753 0.0
C293 C 0.17496 0.05628 0.9635 0.0
C294 C 0.15568 0.04667 0.9955 0.0
H295 H 0.98862 0.03421 0.95906 0.0
H296 H 0.04332 0.0447 0.94946 0.0
H297 H 0.01985 0.99371 0.94312 0.0
H298 H 0.09635 0.96131 0.95527 0.0
H299 H 0.12775 0.97964 0.89836 0.0
H300 H 0.2752 0.11789 0.96041 0.0
H301 H 0.29234 0.13681 0.03268 0.0
H302 H 0.1931 0.23437 0.00238 0.0
H303 H 0.1755 0.21566 0.93101 0.0
H304 H 0.3172 0.21602 0.07622 0.0
H305 H 0.14886 0.15652 0.0832 0.0
H306 H 0.17563 0.14224 0.04364 0.0
H307 H 0.1436 0.18921 0.03974 0.0
C308 C 0.2578 0.14389 0.96915 0.0
C309 C 0.22313 0.16461 0.94021 0.0
C310 C 0.26742 0.15444 0.01039 0.0
C311 C 0.2428 0.18605 0.02275 0.0
C312 C 0.21146 0.20909 0.99342 0.0
H313 H 0.23963 0.37199 0.17314 0.0
H314 H 0.2544 0.31803 0.12929 0.0
C315 C 0.20168 0.19851 0.95259 0.0
C316 C 0.24766 0.19514 0.06605 0.0
H317 H 0.17927 0.21333 0.12913 0.0
C318 C 0.28764 0.21433 0.08852 0.0
C319 C 0.20963 0.19163 0.08267 0.0
C320 C 0.16719 0.16832 0.0612 0.0
C321 C 0.28839 0.23465 0.12489 0.0
C322 C 0.24786 0.23647 0.13812 0.0
C323 C 0.21 0.21275 0.11844 0.0
C324 C 0.24123 0.26827 0.16682 0.0
C325 C 0.33163 0.25609 0.14753 0.0
C326 C 0.22725 0.25822 0.20178 0.0
C327 C 0.21846 0.28923 0.22698 0.0
C328 C 0.22275 0.33071 0.21713 0.0
C329 C 0.23609 0.34044 0.18172 0.0
C330 C 0.24509 0.30958 0.15684 0.0
H331 H 0.36235 0.23958 0.14382 0.0
H332 H 0.33219 0.28739 0.13487 0.0
H333 H 0.33376 0.2586 0.18048 0.0
H334 H 0.22341 0.22648 0.20965 0.0
H335 H 0.20908 0.28064 0.2544 0.0
H336 H 0.76686 0.78203 0.22489 0.0
H337 H 0.74981 0.73371 0.27445 0.0
H338 H 0.80029 0.82112 0.37027 0.0
H339 H 0.81706 0.86933 0.32112 0.0
H340 H 0.80319 0.69879 0.35018 0.0
H341 H 0.6665 0.80126 0.37263 0.0
H342 H 0.69142 0.80669 0.33019 0.0
H343 H 0.72016 0.82723 0.37918 0.0
C344 C 0.7753 0.79045 0.25669 0.0
C345 C 0.79322 0.82944 0.2692 0.0
C346 C 0.76525 0.76297 0.28488 0.0
C347 C 0.77272 0.77429 0.32582 0.0
C348 C 0.79322 0.81219 0.33863 0.0
H349 H 0.78309 0.71499 0.56087 0.0
H350 H 0.77134 0.74231 0.49239 0.0
C351 C 0.80303 0.83961 0.31059 0.0
C352 C 0.75763 0.7478 0.35532 0.0
H353 H 0.69537 0.75145 0.42545 0.0
C354 C 0.77885 0.7097 0.36611 0.0
C355 C 0.72523 0.76185 0.37549 0.0
C356 C 0.69914 0.80131 0.3635 0.0
C357 C 0.77162 0.68705 0.39913 0.0
C358 C 0.74201 0.70287 0.42144 0.0
C359 C 0.71814 0.73939 0.40846 0.0
C360 C 0.74212 0.6866 0.46224 0.0
C361 C 0.79819 0.64795 0.41172 0.0
C362 C 0.72765 0.64663 0.46825 0.0
C363 C 0.73433 0.63084 0.50785 0.0
C364 C 0.75566 0.65493 0.54159 0.0
C365 C 0.76692 0.69569 0.53534 0.0
C366 C 0.76018 0.71135 0.49618 0.0
H367 H 0.82319 0.64211 0.39365 0.0
H368 H 0.8169 0.64911 0.44442 0.0
H369 H 0.77409 0.62174 0.40743 0.0
H370 H 0.71286 0.62725 0.44244 0.0
H371 H 0.72566 0.59922 0.51197 0.0
H372 H 0.71404 0.79651 0.02515 0.0
H373 H 0.70029 0.77949 0.95365 0.0
H374 H 0.72478 0.90523 0.92633 0.0
H375 H 0.74171 0.9216 -0.00105 0.0
H376 H 0.65904 0.79465 0.87699 0.0
H377 H 0.83775 0.85412 0.90976 0.0
H378 H 0.80722 0.85179 0.94842 0.0
H379 H 0.79406 0.8911 0.9099 0.0
C380 C 0.71382 0.82108 0.00362 0.0
C381 C 0.72962 0.86016 0.01758 0.0
C382 C 0.70642 0.81124 0.96258 0.0
C383 C 0.71392 0.84061 0.93481 0.0
C384 C 0.72084 0.8816 0.94752 0.0
H385 H 0.75233 0.72248 0.71151 0.0
H386 H 0.73178 0.77815 0.75197 0.0
C387 C 0.72939 0.89124 0.98894 0.0
C388 C 0.72359 0.82609 0.89644 0.0
H389 H 0.81297 0.81197 0.85366 0.0
C390 C 0.69222 0.7994 0.8712 0.0
C391 C 0.76734 0.83169 0.88912 0.0
C392 C 0.80373 0.85845 0.91578 0.0
C393 C 0.70436 0.77635 0.84085 0.0
C394 C 0.74866 0.78064 0.83506 0.0
C395 C 0.77895 0.80916 0.8582 0.0
C396 C 0.76632 0.75116 0.80996 0.0
C397 C 0.6712 0.74514 0.81723 0.0
C398 C 0.79386 0.71856 0.82925 0.0
C399 C 0.8054 0.6869 0.80635 0.0
C400 C 0.79031 0.68777 0.76376 0.0
C401 C 0.76507 0.72164 0.74434 0.0
C402 C 0.75303 0.75318 0.76733 0.0
H403 H 0.63819 0.74505 0.82571 0.0
H404 H 0.66426 0.75158 0.78416 0.0
H405 H 0.68657 0.71407 0.82275 0.0
H406 H 0.80442 0.71654 0.86215 0.0
H407 H 0.82449 0.66087 0.82194 0.0
H408 H 0.21548 0.13565 0.6718 0.0
H409 H 0.22956 0.18908 0.62653 0.0
H410 H 0.26385 0.27393 0.72658 0.0
H411 H 0.24883 0.22013 0.77253 0.0
H412 H 0.20221 0.30351 0.64453 0.0
H413 H 0.36388 0.23006 0.63456 0.0
H414 H 0.3175 0.19474 0.63095 0.0
H415 H 0.3398 0.2226 0.67735 0.0
C416 C 0.22594 0.16565 0.68429 0.0
C417 C 0.23182 0.17357 0.7258 0.0
C418 C 0.23395 0.19615 0.65838 0.0
C419 C 0.24868 0.23508 0.67343 0.0
C420 C 0.25285 0.24388 0.71455 0.0
H421 H 0.2675 0.40251 0.4714 0.0
H422 H 0.28587 0.38331 0.54413 0.0
C423 C 0.24426 0.21325 0.74065 0.0
C424 C 0.2604 0.26538 0.64538 0.0
H425 H 0.32488 0.2717 0.57721 0.0
C426 C 0.23004 0.29776 0.63071 0.0
C427 C 0.29693 0.25786 0.62769 0.0
C428 C 0.33171 0.22465 0.64367 0.0
C429 C 0.23254 0.32001 0.59592 0.0
C430 C 0.26617 0.30941 0.57569 0.0
C431 C 0.29915 0.27976 0.5928 0.0
C432 C 0.26091 0.32122 0.53276 0.0
C433 C 0.19671 0.35201 0.57867 0.0
C434 C 0.2422 0.29236 0.5027 0.0
C435 C 0.23182 0.30313 0.46177 0.0
C436 C 0.24041 0.34289 0.44993 0.0
C437 C 0.26133 0.37144 0.47984 0.0
C438 C 0.27136 0.36067 0.52123 0.0
H439 H 0.17392 0.35781 0.59884 0.0
H440 H 0.21351 0.38119 0.57407 0.0
H441 H 0.17546 0.34195 0.54852 0.0
H442 H 0.23389 0.26179 0.51101 0.0
H443 H 0.2156 0.28063 0.43929 0.0
H444 H 0.34925 0.49613 0.35206 0.0
H445 H 0.41862 0.51711 0.40193 0.0
H446 H 0.39835 0.42213 0.48372 0.0
H447 H 0.32871 0.4001 0.43327 0.0
H448 H 0.42492 0.54456 0.48128 0.0
H449 H 0.5327 0.40697 0.4793 0.0
H450 H 0.48128 0.41764 0.43968 0.0
H451 H 0.4774 0.39737 0.48771 0.0
C452 C 0.35948 0.47935 0.38049 0.0
C453 C 0.33314 0.44649 0.38874 0.0
C454 C 0.39918 0.49154 0.40901 0.0
C455 C 0.41367 0.47113 0.44637 0.0
C456 C 0.38792 0.43801 0.45479 0.0
H457 H 0.64085 0.51735 0.65566 0.0
H458 H 0.56931 0.49502 0.60911 0.0
C459 C 0.34798 0.42566 0.42609 0.0
C460 C 0.45515 0.48565 0.47659 0.0
H461 H 0.56451 0.45889 0.52642 0.0
C462 C 0.45545 0.52584 0.49121 0.0
C463 C 0.4949 0.46118 0.48921 0.0
C464 C 0.49698 0.41849 0.47301 0.0
C465 C 0.49452 0.54217 0.51834 0.0
C466 C 0.53419 0.51772 0.53085 0.0
C467 C 0.53385 0.47745 0.51659 0.0
C468 C 0.57637 0.53322 0.55921 0.0
C469 C 0.49316 0.58525 0.5338 0.0
C470 C 0.60376 0.56236 0.54645 0.0
C471 C 0.64495 0.57519 0.57294 0.0
C472 C 0.65923 0.55903 0.61261 0.0
C473 C 0.63099 0.53046 0.62536 0.0
C474 C 0.59011 0.51754 0.59883 0.0
H475 H 0.45789 0.59799 0.52587 0.0
H476 H 0.50719 0.58605 0.56736 0.0
H477 H 0.5149 0.60529 0.52026 0.0
H478 H 0.59366 0.57458 0.51578 0.0
H479 H 0.6657 0.5973 0.56214 0.0
H480 H 0.29076 0.0414 0.94731 0.0
H481 H 0.35958 0.01663 -0.00175 0.0
H482 H 0.44131 0.04229 0.91474 0.0
H483 H 0.37358 0.06672 0.86446 0.0
H484 H 0.41562 0.94944 0.98382 0.0
H485 H 0.51684 0.09166 0.02229 0.0
H486 H 0.45577 0.09199 -0.00026 0.0
H487 H 0.49467 0.08496 0.96844 0.0
C488 C 0.32372 0.04269 0.94047 0.0
C489 C 0.327 0.05603 0.90208 0.0
C490 C 0.36283 0.0283 0.96935 0.0
C491 C 0.40562 0.02794 0.96034 0.0
C492 C 0.4089 0.04285 0.92262 0.0
H493 H 0.68067 0.93478 0.04382 0.0
H494 H 0.60462 0.95657 0.00294 0.0
C495 C 0.37009 0.05666 0.89384 0.0
C496 C 0.44666 0.00917 0.98831 0.0
H497 H 0.55904 0.02854 0.03476 0.0
C498 C 0.44679 0.96679 0.99562 0.0
C499 C 0.48734 0.03184 0.00347 0.0
C500 C 0.48865 0.07771 -0.00154 0.0
C501 C 0.48715 0.94628 0.0162 0.0
C502 C 0.52817 0.96877 0.02969 0.0
C503 C 0.52767 0.01127 0.02357 0.0
C504 C 0.57182 0.94929 0.05184 0.0
C505 C 0.48619 0.90058 0.02235 0.0
C506 C 0.57809 0.93716 0.09238 0.0
C507 C 0.62128 0.92506 0.11564 0.0
C508 C 0.65897 0.92458 0.09872 0.0
C509 C 0.65212 0.93435 0.0574 0.0
C510 C 0.60884 0.94703 0.03419 0.0
H511 H 0.45333 0.88677 0.00505 0.0
H512 H 0.51474 0.88579 0.01286 0.0
H513 H 0.49095 0.89382 0.05515 0.0
H514 H 0.55011 0.93903 0.10663 0.0
H515 H 0.6256 0.91759 0.14744 0.0
loop_
_geom_bond_atom_site_label_1
_geom_bond_atom_site_label_2
_geom_bond_distance
_geom_bond_site_symmetry_2
_ccdc_geom_bond_type
Zn0 O6 1.920 . S
Zn0 O12 1.898 . S
Zn0 O15 1.905 . S
Zn1 O9 1.905 . S
Zn1 O10 1.898 . S
Zn1 O18 1.920 . S
Zn2 O5 2.080 . S
Zn2 O8 2.114 . S
Zn2 O11 2.120 . S
Zn2 O13 2.120 . S
Zn2 O14 2.114 . S
Zn2 O17 2.080 . S
C3 O8 1.166 . S
C3 O9 1.182 . S
C4 O10 1.167 . S
C4 O11 1.299 . S
O5 Zn2 2.080 . S
O5 C19 1.305 . S
O6 Zn0 1.920 . S
O6 C19 1.234 . S
C7 O12 1.167 . S
C7 O13 1.299 . S
O8 Zn2 2.114 . S
O8 C3 1.166 . S
O9 Zn1 1.905 . S
O9 C3 1.182 . S
O10 Zn1 1.898 . S
O10 C4 1.167 . S
O11 Zn2 2.120 . S
O11 C4 1.299 . S
O12 Zn0 1.898 . S
O12 C7 1.167 . S
O13 Zn2 2.120 . S
O13 C7 1.299 . S
O14 Zn2 2.114 . S
O14 C16 1.166 . S
O15 Zn0 1.905 . S
O15 C16 1.182 . S
C16 O14 1.166 . S
C16 O15 1.182 . S
O17 Zn2 2.080 . S
O17 C20 1.305 . S
O18 Zn1 1.920 . S
O18 C20 1.234 . S
C19 O5 1.305 . S
C19 O6 1.234 . S
C20 O17 1.305 . S
C20 O18 1.234 . S
Zn21 O27 1.920 . S
Zn21 O33 1.898 . S
Zn21 O36 1.905 . S
Zn22 O30 1.905 . S
Zn22 O31 1.898 . S
Zn22 O39 1.920 . S
Zn23 O26 2.080 . S
Zn23 O29 2.114 . S
Zn23 O32 2.120 . S
Zn23 O34 2.120 . S
Zn23 O35 2.114 . S
Zn23 O38 2.080 . S
C24 O29 1.166 . S
C24 O30 1.182 . S
C25 O31 1.167 . S
C25 O32 1.299 . S
O26 Zn23 2.080 . S
O26 C40 1.305 . S
O27 Zn21 1.920 . S
O27 C40 1.234 . S
C28 O33 1.167 . S
C28 O34 1.299 . S
O29 Zn23 2.114 . S
O29 C24 1.166 . S
O30 Zn22 1.905 . S
O30 C24 1.182 . S
O31 Zn22 1.898 . S
O31 C25 1.167 . S
O32 Zn23 2.120 . S
O32 C25 1.299 . S
O33 Zn21 1.898 . S
O33 C28 1.167 . S
O34 Zn23 2.120 . S
O34 C28 1.299 . S
O35 Zn23 2.114 . S
O35 C37 1.166 . S
O36 Zn21 1.905 . S
O36 C37 1.182 . S
C37 O35 1.166 . S
C37 O36 1.182 . S
O38 Zn23 2.080 . S
O38 C41 1.305 . S
O39 Zn22 1.920 . S
O39 C41 1.234 . S
C40 O26 1.305 . S
C40 O27 1.234 . S
C41 O38 1.305 . S
C41 O39 1.234 . S
Zn42 O48 1.920 . S
Zn42 O54 1.898 . S
Zn42 O57 1.905 . S
Zn43 O51 1.905 . S
Zn43 O52 1.898 . S
Zn43 O60 1.920 . S
Zn44 O47 2.080 . S
Zn44 O50 2.114 . S
Zn44 O53 2.120 . S
Zn44 O55 2.120 . S
Zn44 O56 2.114 . S
Zn44 O59 2.080 . S
C45 O50 1.166 . S
C45 O51 1.182 . S
C46 O52 1.167 . S
C46 O53 1.299 . S
O47 Zn44 2.080 . S
O47 C61 1.305 . S
O48 Zn42 1.920 . S
O48 C61 1.234 . S
C49 O54 1.167 . S
C49 O55 1.299 . S
O50 Zn44 2.114 . S
O50 C45 1.166 . S
O51 Zn43 1.905 . S
O51 C45 1.182 . S
O52 Zn43 1.898 . S
O52 C46 1.167 . S
O53 Zn44 2.120 . S
O53 C46 1.299 . S
O54 Zn42 1.898 . S
O54 C49 1.167 . S
O55 Zn44 2.120 . S
O55 C49 1.299 . S
O56 Zn44 2.114 . S
O56 C58 1.166 . S
O57 Zn42 1.905 . S
O57 C58 1.182 . S
C58 O56 1.166 . S
C58 O57 1.182 . S
O59 Zn44 2.080 . S
O59 C62 1.305 . S
O60 Zn43 1.920 . S
O60 C62 1.234 . S
C61 O47 1.305 . S
C61 O48 1.234 . S
C62 O59 1.305 . S
C62 O60 1.234 . S
Zn63 O69 1.920 . S
Zn63 O75 1.898 . S
Zn63 O78 1.905 . S
Zn64 O72 1.905 . S
Zn64 O73 1.898 . S
Zn64 O81 1.920 . S
Zn65 O68 2.080 . S
Zn65 O71 2.114 . S
Zn65 O74 2.120 . S
Zn65 O76 2.120 . S
Zn65 O77 2.114 . S
Zn65 O80 2.080 . S
C66 O71 1.166 . S
C66 O72 1.182 . S
C67 O73 1.167 . S
C67 O74 1.299 . S
O68 Zn65 2.080 . S
O68 C82 1.305 . S
O69 Zn63 1.920 . S
O69 C82 1.234 . S
C70 O75 1.167 . S
C70 O76 1.299 . S
O71 Zn65 2.114 . S
O71 C66 1.166 . S
O72 Zn64 1.905 . S
O72 C66 1.182 . S
O73 Zn64 1.898 . S
O73 C67 1.167 . S
O74 Zn65 2.120 . S
O74 C67 1.299 . S
O75 Zn63 1.898 . S
O75 C70 1.167 . S
O76 Zn65 2.120 . S
O76 C70 1.299 . S
O77 Zn65 2.114 . S
O77 C79 1.166 . S
O78 Zn63 1.905 . S
O78 C79 1.182 . S
C79 O77 1.166 . S
C79 O78 1.182 . S
O80 Zn65 2.080 . S
O80 C83 1.305 . S
O81 Zn64 1.920 . S
O81 C83 1.234 . S
C82 O68 1.305 . S
C82 O69 1.234 . S
C83 O80 1.305 . S
C83 O81 1.234 . S
H84 C92 0.929 . S
H85 C94 0.930 . S
H86 C96 0.930 . S
H87 C99 0.950 . S
H88 C102 0.930 . S
H89 C104 0.960 . S
H90 C104 0.960 1_655 S
H91 C104 0.960 . S
C92 H84 0.929 . S
C92 C93 1.377 . S
C92 C94 1.384 . S
C93 C92 1.377 . S
C93 C99 1.388 1_545 S
C94 H85 0.930 . S
C94 C92 1.384 . S
C94 C95 1.372 . S
C95 C94 1.372 . S
C95 C96 1.400 . S
C95 C100 1.490 . S
C96 H86 0.930 . S
C96 C95 1.400 . S
C96 C99 1.367 1_545 S
H97 C113 0.930 . S
H98 C114 0.931 . S
C99 H87 0.950 . S
C99 C93 1.388 1_565 S
C99 C96 1.367 1_565 S
C100 C95 1.490 . S
C100 C102 1.395 . S
C100 C103 1.403 . S
H101 C107 0.930 . S
C102 H88 0.930 . S
C102 C100 1.395 . S
C102 C105 1.403 . S
C103 C100 1.403 . S
C103 C104 1.524 1_655 S
C103 C107 1.400 1_655 S
C104 H89 0.960 . S
C104 H90 0.960 1_455 S
C104 H91 0.960 . S
C104 C103 1.524 1_455 S
C105 C102 1.403 . S
C105 C106 1.381 1_655 S
C105 C109 1.495 . S
C106 C105 1.381 1_455 S
C106 C107 1.391 . S
C106 C108 1.483 . S
C107 H101 0.930 . S
C107 C103 1.400 1_455 S
C107 C106 1.391 . S
C108 C106 1.483 . S
C108 C110 1.381 . S
C108 C114 1.383 . S
C109 C105 1.495 . S
C109 H115 0.959 . S
C109 H116 0.961 . S
C109 H117 0.960 . S
C110 C108 1.381 . S
C110 C111 1.394 . S
C110 H118 0.930 1_455 S
C111 C110 1.394 . S
C111 C112 1.383 . S
C111 H119 0.929 . S
C112 C111 1.383 . S
C112 C113 1.377 . S
C113 H97 0.930 . S
C113 C112 1.377 . S
C113 C114 1.379 . S
C114 H98 0.931 . S
C114 C108 1.383 . S
C114 C113 1.379 . S
H115 C109 0.959 . S
H116 C109 0.961 . S
H117 C109 0.960 . S
H118 C110 0.930 1_655 S
H119 C111 0.929 . S
H120 C128 0.929 . S
H121 C130 0.930 . S
H122 C132 0.930 . S
H123 C135 0.929 . S
H124 C138 0.930 . S
H125 C140 0.960 . S
H126 C140 0.960 . S
H127 C140 0.960 . S
C128 H120 0.929 . S
C128 C129 1.377 . S
C128 C130 1.384 . S
C129 C128 1.377 . S
C129 C135 1.390 . S
C130 H121 0.930 . S
C130 C128 1.384 . S
C130 C131 1.372 . S
C131 C130 1.372 . S
C131 C132 1.400 . S
C131 C136 1.490 . S
C132 H122 0.930 . S
C132 C131 1.400 . S
C132 C135 1.386 . S
H133 C149 0.930 . S
H134 C150 0.931 . S
C135 H123 0.929 . S
C135 C129 1.390 . S
C135 C132 1.386 . S
C136 C131 1.490 . S
C136 C138 1.395 . S
C136 C139 1.403 . S
H137 C143 0.930 . S
C138 H124 0.930 . S
C138 C136 1.395 . S
C138 C141 1.403 . S
C139 C136 1.403 . S
C139 C140 1.524 1_455 S
C139 C143 1.400 1_455 S
C140 H125 0.960 . S
C140 H126 0.960 . S
C140 H127 0.960 . S
C140 C139 1.524 1_655 S
C141 C138 1.403 . S
C141 C142 1.384 1_455 S
C141 C145 1.495 . S
C142 C141 1.384 1_655 S
C142 C143 1.389 . S
C142 C144 1.482 . S
C143 H137 0.930 . S
C143 C139 1.400 1_655 S
C143 C142 1.389 . S
C144 C142 1.482 . S
C144 C146 1.381 . S
C144 C150 1.383 . S
C145 C141 1.495 . S
C145 H151 0.959 . S
C145 H152 0.961 . S
C145 H153 0.960 . S
C146 C144 1.381 . S
C146 C147 1.394 . S
C146 H154 0.930 . S
C147 C146 1.394 . S
C147 C148 1.383 . S
C147 H155 0.929 . S
C148 C147 1.383 . S
C148 C149 1.377 . S
C149 H133 0.930 . S
C149 C148 1.377 . S
C149 C150 1.379 . S
C150 H134 0.931 . S
C150 C144 1.383 . S
C150 C149 1.379 . S
H151 C145 0.959 . S
H152 C145 0.961 . S
H153 C145 0.960 . S
H154 C146 0.930 . S
H155 C147 0.929 . S
H156 C164 0.929 . S
H157 C166 0.930 . S
H158 C168 0.930 . S
H159 C171 0.921 1_545 S
H160 C174 0.930 . S
H161 C176 0.949 1_655 S
H162 C176 0.960 . S
H163 C176 0.960 . S
C164 H156 0.929 . S
C164 C165 1.377 . S
C164 C166 1.384 . S
C165 C164 1.377 . S
C165 C171 1.390 . S
C166 H157 0.930 . S
C166 C164 1.384 . S
C166 C167 1.372 . S
C167 C166 1.372 . S
C167 C168 1.400 . S
C167 C172 1.490 . S
C168 H158 0.930 . S
C168 C167 1.400 . S
C168 C171 1.393 . S
H169 C185 0.930 . S
H170 C186 0.931 . S
C171 H159 0.921 1_565 S
C171 C165 1.390 . S
C171 C168 1.393 . S
C172 C167 1.490 . S
C172 C174 1.395 . S
C172 C175 1.403 . S
H173 C179 0.930 . S
C174 H160 0.930 . S
C174 C172 1.395 . S
C174 C177 1.403 . S
C175 C172 1.403 . S
C175 C176 1.524 . S
C175 C179 1.400 1_455 S
C176 H161 0.949 1_455 S
C176 H162 0.960 . S
C176 H163 0.960 . S
C176 C175 1.524 . S
C177 C174 1.403 . S
C177 C178 1.392 1_455 S
C177 C181 1.495 . S
C178 C177 1.392 1_655 S
C178 C179 1.385 . S
C178 C180 1.478 . S
C179 H173 0.930 . S
C179 C175 1.400 1_655 S
C179 C178 1.385 . S
C180 C178 1.478 . S
C180 C182 1.381 . S
C180 C186 1.383 . S
C181 C177 1.495 . S
C181 H187 0.959 . S
C181 H188 0.961 1_455 S
C181 H189 0.960 . S
C182 C180 1.381 . S
C182 C183 1.394 . S
C182 H190 0.930 1_655 S
C183 C182 1.394 . S
C183 C184 1.383 . S
C183 H191 0.929 . S
C184 C183 1.383 . S
C184 C185 1.377 . S
C185 H169 0.930 . S
C185 C184 1.377 . S
C185 C186 1.379 . S
C186 H170 0.931 . S
C186 C180 1.383 . S
C186 C185 1.379 . S
H187 C181 0.959 . S
H188 C181 0.961 1_655 S
H189 C181 0.960 . S
H190 C182 0.930 1_455 S
H191 C183 0.929 . S
H192 C200 0.929 . S
H193 C202 0.930 . S
H194 C204 0.930 . S
H195 C207 0.929 . S
H196 C210 0.930 . S
H197 C212 0.960 . S
H198 C212 0.960 . S
H199 C212 0.960 . S
C200 H192 0.929 . S
C200 C201 1.377 . S
C200 C202 1.384 . S
C201 C200 1.377 . S
C201 C207 1.390 . S
C202 H193 0.930 . S
C202 C200 1.384 . S
C202 C203 1.372 . S
C203 C202 1.372 . S
C203 C204 1.400 . S
C203 C208 1.490 . S
C204 H194 0.930 . S
C204 C203 1.400 . S
C204 C207 1.386 . S
H205 C221 0.930 . S
H206 C222 0.931 . S
C207 H195 0.929 . S
C207 C201 1.390 . S
C207 C204 1.386 . S
C208 C203 1.490 . S
C208 C210 1.395 1_655 S
C208 C211 1.403 . S
H209 C215 0.930 . S
C210 H196 0.930 . S
C210 C208 1.395 1_455 S
C210 C213 1.403 . S
C211 C208 1.403 . S
C211 C212 1.524 . S
C211 C215 1.400 . S
C212 H197 0.960 . S
C212 H198 0.960 . S
C212 H199 0.960 . S
C212 C211 1.524 . S
C213 C210 1.403 . S
C213 C214 1.392 . S
C213 C217 1.495 . S
C214 C213 1.392 . S
C214 C215 1.385 1_455 S
C214 C216 1.478 . S
C215 H209 0.930 . S
C215 C211 1.400 . S
C215 C214 1.385 1_655 S
C216 C214 1.478 . S
C216 C218 1.381 . S
C216 C222 1.383 . S
C217 C213 1.495 . S
C217 H223 0.959 . S
C217 H224 0.961 . S
C217 H225 0.960 . S
C218 C216 1.381 . S
C218 C219 1.394 . S
C218 H226 0.930 . S
C219 C218 1.394 . S
C219 C220 1.383 . S
C219 H227 0.929 . S
C220 C219 1.383 . S
C220 C221 1.377 . S
C221 H205 0.930 . S
C221 C220 1.377 . S
C221 C222 1.379 . S
C222 H206 0.931 . S
C222 C216 1.383 . S
C222 C221 1.379 . S
H223 C217 0.959 . S
H224 C217 0.961 . S
H225 C217 0.960 . S
H226 C218 0.930 . S
H227 C219 0.929 . S
H228 C236 0.929 . S
H229 C238 0.930 . S
H230 C240 0.930 . S
H231 C243 0.929 . S
H232 C246 0.930 . S
H233 C248 0.960 . S
H234 C248 0.960 . S
H235 C248 0.960 . S
C236 H228 0.929 . S
C236 C237 1.377 . S
C236 C238 1.384 . S
C237 C236 1.377 . S
C237 C243 1.390 . S
C238 H229 0.930 . S
C238 C236 1.384 . S
C238 C239 1.372 . S
C239 C238 1.372 . S
C239 C240 1.400 . S
C239 C244 1.490 . S
C240 H230 0.930 . S
C240 C239 1.400 . S
C240 C243 1.386 . S
H241 C257 0.930 . S
H242 C258 0.931 . S
C243 H231 0.929 . S
C243 C237 1.390 . S
C243 C240 1.386 . S
C244 C239 1.490 . S
C244 C246 1.395 1_655 S
C244 C247 1.403 . S
H245 C251 0.930 . S
C246 H232 0.930 . S
C246 C244 1.395 1_455 S
C246 C249 1.403 . S
C247 C244 1.403 . S
C247 C248 1.524 . S
C247 C251 1.400 . S
C248 H233 0.960 . S
C248 H234 0.960 . S
C248 H235 0.960 . S
C248 C247 1.524 . S
C249 C246 1.403 . S
C249 C250 1.392 . S
C249 C253 1.495 . S
C250 C249 1.392 . S
C250 C251 1.385 1_455 S
C250 C252 1.478 . S
C251 H245 0.930 . S
C251 C247 1.400 . S
C251 C250 1.385 1_655 S
C252 C250 1.478 . S
C252 C254 1.381 . S
C252 C258 1.383 . S
C253 C249 1.495 . S
C253 H259 0.959 . S
C253 H260 0.961 . S
C253 H261 0.960 . S
C254 C252 1.381 . S
C254 C255 1.394 . S
C254 H262 0.930 . S
C255 C254 1.394 . S
C255 C256 1.383 . S
C255 H263 0.929 . S
C256 C255 1.383 . S
C256 C257 1.377 . S
C257 H241 0.930 . S
C257 C256 1.377 . S
C257 C258 1.379 . S
C258 H242 0.931 . S
C258 C252 1.383 . S
C258 C257 1.379 . S
H259 C253 0.959 . S
H260 C253 0.961 . S
H261 C253 0.960 . S
H262 C254 0.930 . S
H263 C255 0.929 . S
H264 C272 0.929 . S
H265 C274 0.930 . S
H266 C276 0.930 1_545 S
H267 C279 0.929 . S
H268 C282 0.930 . S
H269 C284 0.960 . S
H270 C284 0.960 . S
H271 C284 0.960 . S
C272 H264 0.929 . S
C272 C273 1.377 . S
C272 C274 1.384 . S
C273 C272 1.377 . S
C273 C279 1.390 . S
C274 H265 0.930 . S
C274 C272 1.384 . S
C274 C275 1.372 . S
C275 C274 1.372 . S
C275 C276 1.400 . S
C275 C280 1.490 . S
C276 H266 0.930 1_565 S
C276 C275 1.400 . S
C276 C279 1.386 . S
H277 C293 0.930 . S
H278 C294 0.931 . S
C279 H267 0.929 . S
C279 C273 1.390 . S
C279 C276 1.386 . S
C280 C275 1.490 . S
C280 C282 1.395 1_554 S
C280 C283 1.403 1_655 S
H281 C287 0.930 . S
C282 H268 0.930 . S
C282 C280 1.395 1_556 S
C282 C285 1.403 1_565 S
C283 C280 1.403 1_455 S
C283 C284 1.524 . S
C283 C287 1.400 1_565 S
C284 H269 0.960 . S
C284 H270 0.960 . S
C284 H271 0.960 . S
C284 C283 1.524 . S
C285 C282 1.403 1_545 S
C285 C286 1.392 1_655 S
C285 C289 1.495 . S
C286 C285 1.392 1_455 S
C286 C287 1.385 1_556 S
C286 C288 1.478 . S
C287 H281 0.930 . S
C287 C283 1.400 1_545 S
C287 C286 1.385 1_554 S
C288 C286 1.478 . S
C288 C290 1.381 . S
C288 C294 1.383 . S
C289 C285 1.495 . S
C289 H295 0.959 . S
C289 H296 0.961 . S
C289 H297 0.945 1_545 S
C290 C288 1.381 . S
C290 C291 1.394 . S
C290 H298 0.930 1_545 S
C291 C290 1.394 . S
C291 C292 1.383 . S
C291 H299 0.929 . S
C292 C291 1.383 . S
C292 C293 1.377 . S
C293 H277 0.930 . S
C293 C292 1.377 . S
C293 C294 1.379 . S
C294 H278 0.931 . S
C294 C288 1.383 . S
C294 C293 1.379 . S
H295 C289 0.959 . S
H296 C289 0.961 . S
H297 C289 0.945 1_565 S
H298 C290 0.930 1_565 S
H299 C291 0.929 . S
H300 C308 0.929 . S
H301 C310 0.930 . S
H302 C312 0.930 . S
H303 C315 0.929 . S
H304 C318 0.930 . S
H305 C320 0.960 . S
H306 C320 0.960 . S
H307 C320 0.960 . S
C308 H300 0.929 . S
C308 C309 1.377 1_554 S
C308 C310 1.384 . S
C309 C308 1.377 1_556 S
C309 C315 1.390 . S
C310 H301 0.930 . S
C310 C308 1.384 . S
C310 C311 1.372 . S
C311 C310 1.372 . S
C311 C312 1.400 . S
C311 C316 1.490 . S
C312 H302 0.930 . S
C312 C311 1.400 . S
C312 C315 1.386 1_554 S
H313 C329 0.930 . S
H314 C330 0.931 . S
C315 H303 0.929 . S
C315 C309 1.390 . S
C315 C312 1.386 1_556 S
C316 C311 1.490 . S
C316 C318 1.395 . S
C316 C319 1.403 . S
H317 C323 0.930 . S
C318 H304 0.930 . S
C318 C316 1.395 . S
C318 C321 1.403 . S
C319 C316 1.403 . S
C319 C320 1.524 . S
C319 C323 1.400 . S
C320 H305 0.960 . S
C320 H306 0.960 . S
C320 H307 0.960 . S
C320 C319 1.524 . S
C321 C318 1.403 . S
C321 C322 1.392 . S
C321 C325 1.495 . S
C322 C321 1.392 . S
C322 C323 1.385 . S
C322 C324 1.478 . S
C323 H317 0.930 . S
C323 C319 1.400 . S
C323 C322 1.385 . S
C324 C322 1.478 . S
C324 C326 1.381 . S
C324 C330 1.383 . S
C325 C321 1.495 . S
C325 H331 0.959 . S
C325 H332 0.961 . S
C325 H333 0.960 . S
C326 C324 1.381 . S
C326 C327 1.394 . S
C326 H334 0.930 . S
C327 C326 1.394 . S
C327 C328 1.383 . S
C327 H335 0.929 . S
C328 C327 1.383 . S
C328 C329 1.377 . S
C329 H313 0.930 . S
C329 C328 1.377 . S
C329 C330 1.379 . S
C330 H314 0.931 . S
C330 C324 1.383 . S
C330 C329 1.379 . S
H331 C325 0.959 . S
H332 C325 0.961 . S
H333 C325 0.960 . S
H334 C326 0.930 . S
H335 C327 0.929 . S
H336 C344 0.929 . S
H337 C346 0.930 . S
H338 C348 0.930 . S
H339 C351 0.929 . S
H340 C354 0.930 . S
H341 C356 0.960 . S
H342 C356 0.960 . S
H343 C356 0.960 . S
C344 H336 0.929 . S
C344 C345 1.377 . S
C344 C346 1.384 . S
C345 C344 1.377 . S
C345 C351 1.390 . S
C346 H337 0.930 . S
C346 C344 1.384 . S
C346 C347 1.372 . S
C347 C346 1.372 . S
C347 C348 1.400 . S
C347 C352 1.490 . S
C348 H338 0.930 . S
C348 C347 1.400 . S
C348 C351 1.386 . S
H349 C365 0.930 . S
H350 C366 0.931 . S
C351 H339 0.929 . S
C351 C345 1.390 . S
C351 C348 1.386 . S
C352 C347 1.490 . S
C352 C354 1.395 . S
C352 C355 1.403 . S
H353 C359 0.930 . S
C354 H340 0.930 . S
C354 C352 1.395 . S
C354 C357 1.403 . S
C355 C352 1.403 . S
C355 C356 1.524 . S
C355 C359 1.400 . S
C356 H341 0.960 . S
C356 H342 0.960 . S
C356 H343 0.960 . S
C356 C355 1.524 . S
C357 C354 1.403 . S
C357 C358 1.392 . S
C357 C361 1.495 . S
C358 C357 1.392 . S
C358 C359 1.385 . S
C358 C360 1.478 . S
C359 H353 0.930 . S
C359 C355 1.400 . S
C359 C358 1.385 . S
C360 C358 1.478 . S
C360 C362 1.381 . S
C360 C366 1.383 . S
C361 C357 1.495 . S
C361 H367 0.959 . S
C361 H368 0.961 . S
C361 H369 0.960 . S
C362 C360 1.381 . S
C362 C363 1.394 . S
C362 H370 0.930 . S
C363 C362 1.394 . S
C363 C364 1.383 . S
C363 H371 0.929 . S
C364 C363 1.383 . S
C364 C365 1.377 . S
C365 H349 0.930 . S
C365 C364 1.377 . S
C365 C366 1.379 . S
C366 H350 0.931 . S
C366 C360 1.383 . S
C366 C365 1.379 . S
H367 C361 0.959 . S
H368 C361 0.961 . S
H369 C361 0.960 . S
H370 C362 0.930 . S
H371 C363 0.929 . S
H372 C380 0.929 . S
H373 C382 0.930 . S
H374 C384 0.930 . S
H375 C387 0.929 . S
H376 C390 0.930 . S
H377 C392 0.960 . S
H378 C392 0.960 . S
H379 C392 0.960 . S
C380 H372 0.929 . S
C380 C381 1.377 . S
C380 C382 1.384 1_554 S
C381 C380 1.377 . S
C381 C387 1.390 1_554 S
C382 H373 0.930 . S
C382 C380 1.384 1_556 S
C382 C383 1.372 . S
C383 C382 1.372 . S
C383 C384 1.400 . S
C383 C388 1.490 . S
C384 H374 0.930 . S
C384 C383 1.400 . S
C384 C387 1.386 . S
H385 C401 0.930 . S
H386 C402 0.931 . S
C387 H375 0.929 . S
C387 C381 1.390 1_556 S
C387 C384 1.386 . S
C388 C383 1.490 . S
C388 C390 1.395 . S
C388 C391 1.403 . S
H389 C395 0.930 . S
C390 H376 0.930 . S
C390 C388 1.395 . S
C390 C393 1.403 . S
C391 C388 1.403 . S
C391 C392 1.524 . S
C391 C395 1.400 . S
C392 H377 0.960 . S
C392 H378 0.960 . S
C392 H379 0.960 . S
C392 C391 1.524 . S
C393 C390 1.403 . S
C393 C394 1.392 . S
C393 C397 1.495 . S
C394 C393 1.392 . S
C394 C395 1.385 . S
C394 C396 1.478 . S
C395 H389 0.930 . S
C395 C391 1.400 . S
C395 C394 1.385 . S
C396 C394 1.478 . S
C396 C398 1.381 . S
C396 C402 1.383 . S
C397 C393 1.495 . S
C397 H403 0.959 . S
C397 H404 0.961 . S
C397 H405 0.960 . S
C398 C396 1.381 . S
C398 C399 1.394 . S
C398 H406 0.930 . S
C399 C398 1.394 . S
C399 C400 1.383 . S
C399 H407 0.929 . S
C400 C399 1.383 . S
C400 C401 1.377 . S
C401 H385 0.930 . S
C401 C400 1.377 . S
C401 C402 1.379 . S
C402 H386 0.931 . S
C402 C396 1.383 . S
C402 C401 1.379 . S
H403 C397 0.959 . S
H404 C397 0.961 . S
H405 C397 0.960 . S
H406 C398 0.930 . S
H407 C399 0.929 . S
H408 C416 0.929 . S
H409 C418 0.930 . S
H410 C420 0.930 . S
H411 C423 0.929 . S
H412 C426 0.930 . S
H413 C428 0.960 . S
H414 C428 0.960 . S
H415 C428 0.960 . S
C416 H408 0.929 . S
C416 C417 1.377 . S
C416 C418 1.384 . S
C417 C416 1.377 . S
C417 C423 1.390 . S
C418 H409 0.930 . S
C418 C416 1.384 . S
C418 C419 1.372 . S
C419 C418 1.372 . S
C419 C420 1.400 . S
C419 C424 1.490 . S
C420 H410 0.930 . S
C420 C419 1.400 . S
C420 C423 1.386 . S
H421 C437 0.930 . S
H422 C438 0.931 . S
C423 H411 0.929 . S
C423 C417 1.390 . S
C423 C420 1.386 . S
C424 C419 1.490 . S
C424 C426 1.395 . S
C424 C427 1.403 . S
H425 C431 0.930 . S
C426 H412 0.930 . S
C426 C424 1.395 . S
C426 C429 1.403 . S
C427 C424 1.403 . S
C427 C428 1.524 . S
C427 C431 1.400 . S
C428 H413 0.960 . S
C428 H414 0.960 . S
C428 H415 0.960 . S
C428 C427 1.524 . S
C429 C426 1.403 . S
C429 C430 1.392 . S
C429 C433 1.495 . S
C430 C429 1.392 . S
C430 C431 1.385 . S
C430 C432 1.478 . S
C431 H425 0.930 . S
C431 C427 1.400 . S
C431 C430 1.385 . S
C432 C430 1.478 . S
C432 C434 1.381 . S
C432 C438 1.383 . S
C433 C429 1.495 . S
C433 H439 0.959 . S
C433 H440 0.961 . S
C433 H441 0.960 . S
C434 C432 1.381 . S
C434 C435 1.394 . S
C434 H442 0.930 . S
C435 C434 1.394 . S
C435 C436 1.383 . S
C435 H443 0.929 . S
C436 C435 1.383 . S
C436 C437 1.377 . S
C437 H421 0.930 . S
C437 C436 1.377 . S
C437 C438 1.379 . S
C438 H422 0.931 . S
C438 C432 1.383 . S
C438 C437 1.379 . S
H439 C433 0.959 . S
H440 C433 0.961 . S
H441 C433 0.960 . S
H442 C434 0.930 . S
H443 C435 0.929 . S
H444 C452 0.929 . S
H445 C454 0.930 . S
H446 C456 0.930 . S
H447 C459 0.929 . S
H448 C462 0.930 . S
H449 C464 0.960 . S
H450 C464 0.960 . S
H451 C464 0.960 . S
C452 H444 0.929 . S
C452 C453 1.377 . S
C452 C454 1.384 . S
C453 C452 1.377 . S
C453 C459 1.390 . S
C454 H445 0.930 . S
C454 C452 1.384 . S
C454 C455 1.372 . S
C455 C454 1.372 . S
C455 C456 1.400 . S
C455 C460 1.490 . S
C456 H446 0.930 . S
C456 C455 1.400 . S
C456 C459 1.386 . S
H457 C473 0.930 . S
H458 C474 0.931 . S
C459 H447 0.929 . S
C459 C453 1.390 . S
C459 C456 1.386 . S
C460 C455 1.490 . S
C460 C462 1.395 . S
C460 C463 1.403 . S
H461 C467 0.930 . S
C462 H448 0.930 . S
C462 C460 1.395 . S
C462 C465 1.403 . S
C463 C460 1.403 . S
C463 C464 1.524 . S
C463 C467 1.400 . S
C464 H449 0.960 . S
C464 H450 0.960 . S
C464 H451 0.960 . S
C464 C463 1.524 . S
C465 C462 1.403 . S
C465 C466 1.392 . S
C465 C469 1.495 . S
C466 C465 1.392 . S
C466 C467 1.385 . S
C466 C468 1.478 . S
C467 H461 0.930 . S
C467 C463 1.400 . S
C467 C466 1.385 . S
C468 C466 1.478 . S
C468 C470 1.381 . S
C468 C474 1.383 . S
C469 C465 1.495 . S
C469 H475 0.959 . S
C469 H476 0.961 . S
C469 H477 0.960 . S
C470 C468 1.381 . S
C470 C471 1.394 . S
C470 H478 0.930 . S
C471 C470 1.394 . S
C471 C472 1.383 . S
C471 H479 0.929 . S
C472 C471 1.383 . S
C472 C473 1.377 . S
C473 H457 0.930 . S
C473 C472 1.377 . S
C473 C474 1.379 . S
C474 H458 0.931 . S
C474 C468 1.383 . S
C474 C473 1.379 . S
H475 C469 0.959 . S
H476 C469 0.961 . S
H477 C469 0.960 . S
H478 C470 0.930 . S
H479 C471 0.929 . S
H480 C488 0.929 . S
H481 C490 0.930 1_554 S
H482 C492 0.930 . S
H483 C495 0.929 . S
H484 C498 0.926 . S
H485 C500 0.960 . S
H486 C500 0.960 . S
H487 C500 0.960 . S
C488 H480 0.929 . S
C488 C489 1.377 . S
C488 C490 1.384 . S
C489 C488 1.377 . S
C489 C495 1.390 . S
C490 H481 0.930 1_556 S
C490 C488 1.384 . S
C490 C491 1.372 . S
C491 C490 1.372 . S
C491 C492 1.400 . S
C491 C496 1.490 . S
C492 H482 0.930 . S
C492 C491 1.400 . S
C492 C495 1.386 . S
H493 C509 0.930 . S
H494 C510 0.931 1_556 S
C495 H483 0.929 . S
C495 C489 1.390 . S
C495 C492 1.386 . S
C496 C491 1.490 . S
C496 C498 1.403 1_545 S
C496 C499 1.403 . S
H497 C503 0.930 . S
C498 H484 0.926 . S
C498 C496 1.403 1_565 S
C498 C501 1.399 1_556 S
C499 C496 1.403 . S
C499 C500 1.524 . S
C499 C503 1.400 1_556 S
C500 H485 0.960 . S
C500 H486 0.960 . S
C500 H487 0.960 . S
C500 C499 1.524 . S
C501 C498 1.399 1_554 S
C501 C502 1.392 . S
C501 C505 1.495 . S
C502 C501 1.392 . S
C502 C503 1.385 1_565 S
C502 C504 1.478 . S
C503 H497 0.930 . S
C503 C499 1.400 1_554 S
C503 C502 1.385 1_545 S
C504 C502 1.478 . S
C504 C506 1.381 . S
C504 C510 1.383 . S
C505 C501 1.495 . S
C505 H511 0.959 . S
C505 H512 0.961 . S
C505 H513 0.960 . S
C506 C504 1.381 . S
C506 C507 1.394 . S
C506 H514 0.930 . S
C507 C506 1.394 . S
C507 C508 1.383 . S
C507 H515 0.929 . S
C508 C507 1.383 . S
C508 C509 1.377 . S
C509 H493 0.930 . S
C509 C508 1.377 . S
C509 C510 1.379 . S
C510 H494 0.931 1_554 S
C510 C504 1.383 . S
C510 C509 1.379 . S
H511 C505 0.959 . S
H512 C505 0.961 . S
H513 C505 0.960 . S
H514 C506 0.930 . S
H515 C507 0.929 . S
C93 C41 1.731 1_545 S
C112 C4 1.608 . S
C129 C19 1.734 . S
C148 C28 1.635 . S
C165 C83 1.725 1_565 S
C184 C46 1.665 . S
C201 C61 1.730 . S
C220 C70 1.642 . S
C237 C62 0.562 . S
C256 C20 0.537 . S
C273 C40 0.565 . S
C292 C82 0.600 . S
C309 C79 1.124 . S
C328 C16 1.315 . S
C345 C24 1.320 . S
C364 C45 1.131 . S
C381 C37 1.121 . S
C400 C58 1.289 . S
C417 C66 1.319 . S
C436 C3 1.083 . S
C453 C7 1.220 . S
C472 C49 1.228 . S
C489 C67 1.237 . S
C508 C25 1.234 . S
