# Generated by pormake.
# Topology vbe, (5)-cn, num edge types: 1
# Building blocks:
#     Node 0, Type 0, BuildingBlock: BEQFEK_clean_sbu_0, # of connection points: 5
#     Node 1, Type 0, BuildingBlock: BEQFEK_clean_sbu_0, # of connection points: 5
#     Node 2, Type 0, BuildingBlock: BEQFEK_clean_sbu_0, # of connection points: 5
#     Node 3, Type 0, BuildingBlock: BEQFEK_clean_sbu_0, # of connection points: 5
#     Node 4, Type 0, BuildingBlock: BEQFEK_clean_sbu_0, # of connection points: 5
#     Node 5, Type 0, BuildingBlock: BEQFEK_clean_sbu_0, # of connection points: 5
#     Node 6, Type 0, BuildingBlock: BEQFEK_clean_sbu_0, # of connection points: 5
#     Node 7, Type 0, BuildingBlock: BEQFEK_clean_sbu_0, # of connection points: 5
#     Node 8, Type 0, BuildingBlock: BEQFEK_clean_sbu_0, # of connection points: 5
#     Node 9, Type 0, BuildingBlock: BEQFEK_clean_sbu_0, # of connection points: 5
#     Node 10, Type 0, BuildingBlock: BEQFEK_clean_sbu_0, # of connection points: 5
#     Node 11, Type 0, BuildingBlock: BEQFEK_clean_sbu_0, # of connection points: 5
#     Node 12, Type 0, BuildingBlock: BEQFEK_clean_sbu_0, # of connection points: 5
#     Node 13, Type 0, BuildingBlock: BEQFEK_clean_sbu_0, # of connection points: 5
#     Node 14, Type 0, BuildingBlock: BEQFEK_clean_sbu_0, # of connection points: 5
#     Node 15, Type 0, BuildingBlock: BEQFEK_clean_sbu_0, # of connection points: 5
#     Edge 16, Type (0, 0), BuildingBlock: ZUJKAS_clean_linker_0, # of connection points: 2
#     Edge 17, Type (0, 0), BuildingBlock: ZUJKAS_clean_linker_0, # of connection points: 2
#     Edge 18, Type (0, 0), BuildingBlock: ZUJKAS_clean_linker_0, # of connection points: 2
#     Edge 19, Type (0, 0), BuildingBlock: ZUJKAS_clean_linker_0, # of connection points: 2
#     Edge 20, Type (0, 0), BuildingBlock: ZUJKAS_clean_linker_0, # of connection points: 2
#     Edge 21, Type (0, 0), BuildingBlock: ZUJKAS_clean_linker_0, # of connection points: 2
#     Edge 22, Type (0, 0), BuildingBlock: ZUJKAS_clean_linker_0, # of connection points: 2
#     Edge 23, Type (0, 0), BuildingBlock: ZUJKAS_clean_linker_0, # of connection points: 2
#     Edge 24, Type (0, 0), BuildingBlock: ZUJKAS_clean_linker_0, # of connection points: 2
#     Edge 25, Type (0, 0), BuildingBlock: ZUJKAS_clean_linker_0, # of connection points: 2
#     Edge 26, Type (0, 0), BuildingBlock: ZUJKAS_clean_linker_0, # of connection points: 2
#     Edge 27, Type (0, 0), BuildingBlock: ZUJKAS_clean_linker_0, # of connection points: 2
#     Edge 28, Type (0, 0), BuildingBlock: ZUJKAS_clean_linker_0, # of connection points: 2
#     Edge 29, Type (0, 0), BuildingBlock: ZUJKAS_clean_linker_0, # of connection points: 2
#     Edge 30, Type (0, 0), BuildingBlock: ZUJKAS_clean_linker_0, # of connection points: 2
#     Edge 31, Type (0, 0), BuildingBlock: ZUJKAS_clean_linker_0, # of connection points: 2
#     Edge 32, Type (0, 0), BuildingBlock: ZUJKAS_clean_linker_0, # of connection points: 2
#     Edge 33, Type (0, 0), BuildingBlock: ZUJKAS_clean_linker_0, # of connection points: 2
#     Edge 34, Type (0, 0), BuildingBlock: ZUJKAS_clean_linker_0, # of connection points: 2
#     Edge 35, Type (0, 0), BuildingBlock: ZUJKAS_clean_linker_0, # of connection points: 2
#     Edge 36, Type (0, 0), BuildingBlock: ZUJKAS_clean_linker_0, # of connection points: 2
#     Edge 37, Type (0, 0), BuildingBlock: ZUJKAS_clean_linker_0, # of connection points: 2
#     Edge 38, Type (0, 0), BuildingBlock: ZUJKAS_clean_linker_0, # of connection points: 2
#     Edge 39, Type (0, 0), BuildingBlock: ZUJKAS_clean_linker_0, # of connection points: 2
#     Edge 40, Type (0, 0), BuildingBlock: ZUJKAS_clean_linker_0, # of connection points: 2
#     Edge 41, Type (0, 0), BuildingBlock: ZUJKAS_clean_linker_0, # of connection points: 2
#     Edge 42, Type (0, 0), BuildingBlock: ZUJKAS_clean_linker_0, # of connection points: 2
#     Edge 43, Type (0, 0), BuildingBlock: ZUJKAS_clean_linker_0, # of connection points: 2
#     Edge 44, Type (0, 0), BuildingBlock: ZUJKAS_clean_linker_0, # of connection points: 2
#     Edge 45, Type (0, 0), BuildingBlock: ZUJKAS_clean_linker_0, # of connection points: 2
#     Edge 46, Type (0, 0), BuildingBlock: ZUJKAS_clean_linker_0, # of connection points: 2
#     Edge 47, Type (0, 0), BuildingBlock: ZUJKAS_clean_linker_0, # of connection points: 2
#     Edge 48, Type (0, 0), BuildingBlock: ZUJKAS_clean_linker_0, # of connection points: 2
#     Edge 49, Type (0, 0), BuildingBlock: ZUJKAS_clean_linker_0, # of connection points: 2
#     Edge 50, Type (0, 0), BuildingBlock: ZUJKAS_clean_linker_0, # of connection points: 2
#     Edge 51, Type (0, 0), BuildingBlock: ZUJKAS_clean_linker_0, # of connection points: 2
#     Edge 52, Type (0, 0), BuildingBlock: ZUJKAS_clean_linker_0, # of connection points: 2
#     Edge 53, Type (0, 0), BuildingBlock: ZUJKAS_clean_linker_0, # of connection points: 2
#     Edge 54, Type (0, 0), BuildingBlock: ZUJKAS_clean_linker_0, # of connection points: 2
#     Edge 55, Type (0, 0), BuildingBlock: ZUJKAS_clean_linker_0, # of connection points: 2
# Relax obj value: 0.312
# Max RMSD: 0.186
# Mean RMSD: 0.186
data_MOF--net-vbe--node1-BEQFEK_clean_sbu_0--edge1-ZUJKAS_clean_linker_0
_symmetry_space_group_name_H-M    P1
_symmetry_Int_Tables_number       1
_symmetry_cell_setting            triclinic
loop_
_symmetry_equiv_pos_as_xyz
'x, y, z'
_cell_length_a     57.638099
_cell_length_b     51.132737
_cell_length_c     69.946226
_cell_angle_alpha  90.050653
_cell_angle_beta   90.055002
_cell_angle_gamma 90.023128
loop_
_atom_site_label
_atom_site_type_symbol
_atom_site_fract_x
_atom_site_fract_y
_atom_site_fract_z
_atom_type_partial_charge
Co0 Co 0.10191 0.1273 0.35112 0.0
Co1 Co 0.07355 0.08744 0.37611 0.0
C2 C 0.07242 0.14541 0.38352 0.0
O3 O 0.08681 0.15027 0.37015 0.0
O4 O 0.06571 0.12217 0.38709 0.0
C5 C 0.1244 0.17224 0.33389 0.0
O6 O 0.11349 0.18576 0.34708 0.0
C7 C 0.05617 0.06135 0.41051 0.0
C8 C 0.04276 0.02419 0.39869 0.0
C9 C 0.04487 0.03833 0.41551 0.0
N10 N 0.06029 0.06083 0.39162 0.0
N11 N 0.05227 0.03858 0.38463 0.0
C12 C 0.06406 0.08298 0.42337 0.0
H13 H 0.05024 0.09805 0.42422 0.0
H14 H 0.07988 0.09234 0.41745 0.0
H15 H 0.0677 0.07554 0.43797 0.0
C16 C 0.14047 0.09372 0.36385 0.0
N17 N 0.11787 0.1001 0.36361 0.0
N18 N 0.10616 0.08318 0.37398 0.0
C19 C 0.12099 0.06527 0.38107 0.0
C20 C 0.14324 0.07138 0.37486 0.0
C21 C 0.15899 0.1093 0.35411 0.0
H22 H 0.15803 0.10576 0.33848 0.0
H23 H 0.156 0.13046 0.35664 0.0
H24 H 0.17653 0.10398 0.35935 0.0
O25 O 0.078 0.11304 0.33367 0.0
O26 O 0.05832 0.08438 0.35097 0.0
H27 H 0.09953 0.03152 0.38464 0.0
H28 H 0.12816 0.02795 0.39466 0.0
C29 C 0.11365 0.04182 0.39234 0.0
H30 H 0.10678 0.04829 0.40638 0.0
H31 H 0.05311 0.03333 0.37024 0.0
O32 O 0.12274 0.14745 0.33391 0.0
C33 C 0.06188 0.0962 0.33527 0.0
Co34 Co 0.39504 0.87024 0.34769 0.0
Co35 Co 0.42248 0.911 0.37268 0.0
C36 C 0.42368 0.85305 0.38062 0.0
O37 O 0.40932 0.8476 0.36732 0.0
O38 O 0.43051 0.87639 0.38366 0.0
C39 C 0.36729 0.82658 0.33287 0.0
O40 O 0.3711 0.81506 0.34936 0.0
C41 C 0.43845 0.93642 0.40776 0.0
C42 C 0.45192 0.97409 0.39698 0.0
C43 C 0.44933 0.95938 0.41348 0.0
N44 N 0.43502 0.93747 0.38879 0.0
N45 N 0.44307 0.96004 0.38242 0.0
C46 C 0.43027 0.91434 0.42005 0.0
H47 H 0.41464 0.90514 0.41364 0.0
H48 H 0.4262 0.92127 0.43471 0.0
H49 H 0.4441 0.89929 0.4209 0.0
C50 C 0.35574 0.9033 0.35998 0.0
N51 N 0.37848 0.89747 0.3597 0.0
N52 N 0.38986 0.91456 0.37023 0.0
C53 C 0.37467 0.93192 0.37751 0.0
C54 C 0.35256 0.9253 0.3713 0.0
C55 C 0.3375 0.88736 0.35016 0.0
H56 H 0.33944 0.88952 0.33446 0.0
H57 H 0.33999 0.86641 0.3537 0.0
H58 H 0.31976 0.89341 0.35444 0.0
O59 O 0.4196 0.88442 0.3308 0.0
O60 O 0.43792 0.91472 0.3477 0.0
H61 H 0.39565 0.96591 0.38189 0.0
H62 H 0.36675 0.9688 0.39146 0.0
C63 C 0.38149 0.95522 0.38921 0.0
H64 H 0.38808 0.94855 0.40329 0.0
H65 H 0.4427 0.96573 0.36811 0.0
O66 O 0.375 0.84957 0.33011 0.0
C67 C 0.43512 0.90201 0.33224 0.0
Co68 Co 0.61082 0.86172 0.14726 0.0
Co69 Co 0.58452 0.9083 0.12746 0.0
C70 C 0.57171 0.85143 0.12104 0.0
O71 O 0.58801 0.84254 0.1315 0.0
O72 O 0.5686 0.87592 0.11893 0.0
C73 C 0.62863 0.81294 0.16223 0.0
O74 O 0.61322 0.8021 0.15087 0.0
C75 C 0.56802 0.93794 0.09419 0.0
C76 C 0.55411 0.97363 0.10783 0.0
C77 C 0.55659 0.96127 0.09031 0.0
N78 N 0.5721 0.93669 0.11309 0.0
N79 N 0.56394 0.9582 0.12113 0.0
C80 C 0.57342 0.91626 0.08049 0.0
H81 H 0.55817 0.91222 0.07124 0.0
H82 H 0.57865 0.89829 0.08817 0.0
H83 H 0.58807 0.92217 0.07119 0.0
C84 C 0.65022 0.88563 0.12643 0.0
N85 N 0.62777 0.88506 0.13166 0.0
N86 N 0.61694 0.90513 0.12397 0.0
C87 C 0.63229 0.91956 0.11406 0.0
C88 C 0.65384 0.90746 0.11501 0.0
C89 C 0.66752 0.86513 0.13188 0.0
H90 H 0.67355 0.86885 0.1467 0.0
H91 H 0.65921 0.84556 0.13154 0.0
H92 H 0.68269 0.86529 0.12212 0.0
O93 O 0.59392 0.88049 0.16783 0.0
O94 O 0.5768 0.91465 0.15444 0.0
H95 H 0.6137 0.95598 0.11423 0.0
H96 H 0.64262 0.95819 0.10472 0.0
C97 C 0.6269 0.94572 0.10551 0.0
H98 H 0.62 0.94295 0.09085 0.0
H99 H 0.56449 0.962 0.13578 0.0
O100 O 0.63144 0.83759 0.1617 0.0
C101 C 0.5815 0.90099 0.1691 0.0
Co102 Co 0.87544 0.12379 0.15239 0.0
Co103 Co 0.90869 0.0849 0.13103 0.0
C104 C 0.91015 0.14308 0.12442 0.0
O105 O 0.89354 0.14765 0.13595 0.0
O106 O 0.91767 0.11998 0.12163 0.0
C107 C 0.84729 0.16771 0.16465 0.0
O108 O 0.85516 0.17935 0.14923 0.0
C109 C 0.9297 0.06075 0.0975 0.0
C110 C 0.94485 0.02455 0.10941 0.0
C111 C 0.94238 0.03866 0.09262 0.0
N112 N 0.92506 0.05976 0.11629 0.0
N113 N 0.93422 0.03815 0.12337 0.0
C114 C 0.92069 0.08168 0.08454 0.0
H115 H 0.9046 0.09033 0.09053 0.0
H116 H 0.91715 0.07374 0.07005 0.0
H117 H 0.93386 0.09743 0.08336 0.0
C118 C 0.84013 0.09145 0.13251 0.0
N119 N 0.86221 0.0971 0.13719 0.0
N120 N 0.87615 0.08021 0.12883 0.0
C121 C 0.86334 0.06282 0.11895 0.0
C122 C 0.84009 0.06955 0.12072 0.0
C123 C 0.81977 0.10765 0.13846 0.0
H124 H 0.82455 0.12866 0.13834 0.0
H125 H 0.80469 0.10444 0.12887 0.0
H126 H 0.81483 0.10234 0.15329 0.0
O127 O 0.89597 0.10884 0.17239 0.0
O128 O 0.91914 0.0809 0.15758 0.0
H129 H 0.85976 0.02375 0.10727 0.0
H130 H 0.88006 0.0448 0.09507 0.0
C131 C 0.87311 0.03914 0.10925 0.0
H132 H 0.88742 0.0309 0.11792 0.0
H133 H 0.93312 0.03264 0.13768 0.0
O134 O 0.85225 0.1438 0.16749 0.0
C135 C 0.91236 0.0922 0.17275 0.0
Co136 Co 0.87354 0.86741 0.65028 0.0
Co137 Co 0.90489 0.90779 0.62825 0.0
C138 C 0.91049 0.84982 0.62331 0.0
O139 O 0.89434 0.84462 0.63515 0.0
O140 O 0.91617 0.8733 0.61942 0.0
C141 C 0.85038 0.82132 0.66473 0.0
O142 O 0.86262 0.80898 0.65172 0.0
C143 C 0.92585 0.93342 0.59511 0.0
C144 C 0.93846 0.97054 0.60756 0.0
C145 C 0.93768 0.95631 0.59069 0.0
N146 N 0.92013 0.93408 0.61371 0.0
N147 N 0.92771 0.9563 0.62109 0.0
C148 C 0.91874 0.91189 0.58185 0.0
H149 H 0.90315 0.90171 0.58745 0.0
H150 H 0.91508 0.9197 0.56735 0.0
H151 H 0.93303 0.89745 0.5808 0.0
C152 C 0.83684 0.89624 0.62936 0.0
N153 N 0.85917 0.89215 0.63407 0.0
N154 N 0.87223 0.90962 0.62538 0.0
C155 C 0.85857 0.92571 0.61513 0.0
C156 C 0.8357 0.91759 0.61712 0.0
C157 C 0.8172 0.87956 0.63618 0.0
H158 H 0.82255 0.85872 0.63624 0.0
H159 H 0.80162 0.88197 0.62702 0.0
H160 H 0.81281 0.88516 0.65108 0.0
O161 O 0.89187 0.88516 0.67035 0.0
O162 O 0.91432 0.91333 0.65503 0.0
H163 H 0.8806 0.95947 0.61389 0.0
H164 H 0.85294 0.96395 0.60251 0.0
C165 C 0.86711 0.94974 0.60512 0.0
H166 H 0.87488 0.94408 0.59122 0.0
H167 H 0.92562 0.96169 0.63536 0.0
O168 O 0.85102 0.84617 0.66528 0.0
C169 C 0.90744 0.90277 0.67046 0.0
Co170 Co 0.60978 0.12858 0.6527 0.0
Co171 Co 0.58122 0.08498 0.63135 0.0
C172 C 0.57184 0.14259 0.62614 0.0
O173 O 0.58854 0.14978 0.63686 0.0
O174 O 0.56697 0.11855 0.62354 0.0
C175 C 0.63011 0.17591 0.66834 0.0
O176 O 0.61637 0.188 0.65625 0.0
C177 C 0.56167 0.05984 0.59757 0.0
C178 C 0.55143 0.021 0.60852 0.0
C179 C 0.5512 0.03646 0.59224 0.0
N180 N 0.56756 0.05828 0.6161 0.0
N181 N 0.5614 0.03504 0.6226 0.0
C182 C 0.56735 0.08285 0.58522 0.0
H183 H 0.58269 0.09337 0.59099 0.0
H184 H 0.57083 0.07657 0.5703 0.0
H185 H 0.55245 0.09658 0.58522 0.0
C186 C 0.64812 0.10316 0.63148 0.0
N187 N 0.6257 0.10494 0.63662 0.0
N188 N 0.6138 0.0864 0.62795 0.0
C189 C 0.62836 0.07189 0.61731 0.0
C190 C 0.65055 0.08223 0.61897 0.0
C191 C 0.66655 0.12176 0.638 0.0
H192 H 0.67172 0.1167 0.65282 0.0
H193 H 0.65958 0.14199 0.63814 0.0
H194 H 0.68203 0.12086 0.6286 0.0
O195 O 0.59178 0.10974 0.67263 0.0
O196 O 0.57327 0.07743 0.65804 0.0
H197 H 0.60875 0.03628 0.61588 0.0
H198 H 0.63653 0.03447 0.6043 0.0
C199 C 0.62141 0.04731 0.60713 0.0
H200 H 0.61312 0.05244 0.59332 0.0
H201 H 0.56392 0.02882 0.63664 0.0
O202 O 0.63114 0.15106 0.66798 0.0
C203 C 0.57855 0.08983 0.67317 0.0
Co204 Co 0.39403 0.12481 0.84764 0.0
Co205 Co 0.41949 0.08483 0.87482 0.0
C206 C 0.42285 0.1428 0.88079 0.0
O207 O 0.40999 0.14763 0.86638 0.0
O208 O 0.42784 0.11945 0.88565 0.0
C209 C 0.37321 0.17053 0.82978 0.0
O210 O 0.38441 0.18394 0.84289 0.0
C211 C 0.43763 0.05867 0.9092 0.0
C212 C 0.44463 0.01891 0.89817 0.0
C213 C 0.44642 0.03439 0.91434 0.0
N214 N 0.43081 0.05748 0.89084 0.0
N215 N 0.43493 0.03363 0.88437 0.0
C216 C 0.43816 0.08348 0.92056 0.0
H217 H 0.45152 0.09658 0.91436 0.0
H218 H 0.42113 0.09348 0.91941 0.0
H219 H 0.44251 0.08019 0.93578 0.0
C220 C 0.35361 0.09357 0.85984 0.0
N221 N 0.37642 0.09905 0.86035 0.0
N222 N 0.38691 0.08238 0.87179 0.0
C223 C 0.37104 0.06581 0.87904 0.0
C224 C 0.34944 0.07233 0.87169 0.0
C225 C 0.33667 0.10736 0.84713 0.0
H226 H 0.34343 0.10757 0.83228 0.0
H227 H 0.33494 0.12797 0.8519 0.0
H228 H 0.31937 0.09786 0.8472 0.0
O229 O 0.4175 0.10838 0.8311 0.0
O230 O 0.43542 0.08005 0.84997 0.0
H231 H 0.38612 0.02881 0.88579 0.0
H232 H 0.36036 0.03632 0.89945 0.0
C233 C 0.37639 0.04462 0.89311 0.0
H234 H 0.38744 0.05254 0.90473 0.0
H235 H 0.4316 0.0276 0.87039 0.0
O236 O 0.37434 0.14571 0.82996 0.0
C237 C 0.43285 0.0909 0.83375 0.0
Co238 Co 0.0972 0.87176 0.8475 0.0
Co239 Co 0.06837 0.91034 0.87329 0.0
C240 C 0.06906 0.85262 0.88059 0.0
O241 O 0.08313 0.84847 0.86688 0.0
O242 O 0.06169 0.87551 0.88442 0.0
C243 C 0.12171 0.82711 0.83177 0.0
O244 O 0.11256 0.81423 0.84615 0.0
C245 C 0.05039 0.93584 0.90773 0.0
C246 C 0.03793 0.97359 0.89628 0.0
C247 C 0.03946 0.959 0.91292 0.0
N248 N 0.05486 0.93669 0.88891 0.0
N249 N 0.04738 0.95928 0.88213 0.0
C250 C 0.05798 0.91394 0.92046 0.0
H251 H 0.07381 0.90456 0.91461 0.0
H252 H 0.06153 0.92112 0.93516 0.0
H253 H 0.04405 0.89898 0.92108 0.0
C254 C 0.13503 0.90714 0.85935 0.0
N255 N 0.11269 0.89961 0.85968 0.0
N256 N 0.10077 0.91573 0.87058 0.0
C257 C 0.11521 0.93413 0.87755 0.0
C258 C 0.13737 0.92928 0.87067 0.0
C259 C 0.15324 0.89418 0.8474 0.0
H260 H 0.14688 0.89231 0.83249 0.0
H261 H 0.15637 0.87415 0.85293 0.0
H262 H 0.16976 0.9053 0.8474 0.0
O263 O 0.07262 0.88522 0.83038 0.0
O264 O 0.05258 0.91285 0.84835 0.0
H265 H 0.09602 0.96899 0.88333 0.0
H266 H 0.12309 0.96673 0.89635 0.0
C267 C 0.10799 0.95552 0.89089 0.0
H268 H 0.09858 0.94697 0.9032 0.0
H269 H 0.04866 0.96488 0.86784 0.0
O270 O 0.11827 0.8516 0.83044 0.0
C271 C 0.05608 0.90146 0.83245 0.0
Co272 Co 0.59123 0.62521 0.34438 0.0
Co273 Co 0.56321 0.58338 0.36787 0.0
C274 C 0.56165 0.64116 0.37704 0.0
O275 O 0.57616 0.64731 0.36404 0.0
O276 O 0.55523 0.61756 0.37947 0.0
C277 C 0.6209 0.6684 0.33075 0.0
O278 O 0.6187 0.67921 0.3477 0.0
C279 C 0.54812 0.55396 0.40196 0.0
C280 C 0.52932 0.52101 0.38856 0.0
C281 C 0.53509 0.53182 0.40609 0.0
N282 N 0.55001 0.55602 0.38286 0.0
N283 N 0.5389 0.53613 0.37496 0.0
C284 C 0.55733 0.5737 0.41586 0.0
H285 H 0.56336 0.59155 0.40846 0.0
H286 H 0.57236 0.56529 0.42361 0.0
H287 H 0.54381 0.57876 0.42653 0.0
C288 C 0.62992 0.59016 0.35517 0.0
N289 N 0.60743 0.59713 0.35578 0.0
N290 N 0.59572 0.57949 0.3655 0.0
C291 C 0.61037 0.5606 0.3713 0.0
C292 C 0.63251 0.56675 0.36497 0.0
C293 C 0.648 0.60467 0.34407 0.0
H294 H 0.6421 0.60696 0.32906 0.0
H295 H 0.65008 0.62454 0.35023 0.0
H296 H 0.66495 0.59445 0.34419 0.0
O297 O 0.56728 0.61178 0.32666 0.0
O298 O 0.54833 0.58102 0.34254 0.0
H299 H 0.58975 0.52614 0.37487 0.0
H300 H 0.61806 0.52424 0.38607 0.0
C301 C 0.60322 0.53726 0.38279 0.0
H302 H 0.59558 0.54396 0.39645 0.0
H303 H 0.53733 0.53326 0.36026 0.0
O304 O 0.61157 0.64631 0.32752 0.0
C305 C 0.55167 0.59423 0.32742 0.0
Co306 Co 0.88607 0.36546 0.34562 0.0
Co307 Co 0.91222 0.40818 0.36984 0.0
C308 C 0.92024 0.35074 0.37596 0.0
O309 O 0.90561 0.34423 0.36312 0.0
O310 O 0.92434 0.37466 0.37978 0.0
C311 C 0.8654 0.31788 0.3302 0.0
O312 O 0.87788 0.30562 0.3431 0.0
C313 C 0.92928 0.43497 0.40398 0.0
C314 C 0.93856 0.47395 0.39271 0.0
C315 C 0.9388 0.45891 0.40919 0.0
N316 N 0.92396 0.4358 0.3853 0.0
N317 N 0.92948 0.45916 0.37863 0.0
C318 C 0.92382 0.41217 0.41659 0.0
H319 H 0.90877 0.40115 0.4108 0.0
H320 H 0.91994 0.41875 0.43137 0.0
H321 H 0.93897 0.39882 0.41698 0.0
C322 C 0.84557 0.39488 0.35976 0.0
N323 N 0.86852 0.39016 0.35943 0.0
N324 N 0.87935 0.40818 0.3695 0.0
C325 C 0.86358 0.42499 0.3766 0.0
C326 C 0.84168 0.41715 0.37065 0.0
C327 C 0.82834 0.38006 0.34793 0.0
H328 H 0.83362 0.38086 0.33269 0.0
H329 H 0.82844 0.35922 0.35234 0.0
H330 H 0.81054 0.38803 0.34933 0.0
O331 O 0.90618 0.38365 0.32702 0.0
O332 O 0.92475 0.41386 0.34388 0.0
H333 H 0.87966 0.46246 0.3795 0.0
H334 H 0.85373 0.45849 0.39381 0.0
C335 C 0.8695 0.44856 0.38833 0.0
H336 H 0.88038 0.4426 0.40064 0.0
H337 H 0.92726 0.46489 0.36445 0.0
O338 O 0.8658 0.34273 0.32965 0.0
C339 C 0.92061 0.40242 0.32809 0.0
Co340 Co 0.10196 0.36218 0.15013 0.0
Co341 Co 0.07632 0.40424 0.1251 0.0
C342 C 0.06626 0.34679 0.12139 0.0
O343 O 0.08124 0.34052 0.13401 0.0
O344 O 0.06272 0.37057 0.11686 0.0
C345 C 0.12638 0.31581 0.16407 0.0
O346 O 0.12033 0.3046 0.1479 0.0
C347 C 0.05947 0.42903 0.09012 0.0
C348 C 0.05086 0.46887 0.1001 0.0
C349 C 0.05035 0.45279 0.08414 0.0
N350 N 0.06488 0.43097 0.10874 0.0
N351 N 0.05972 0.45483 0.11463 0.0
C352 C 0.06423 0.40522 0.07831 0.0
H353 H 0.07916 0.39425 0.08434 0.0
H354 H 0.06793 0.41064 0.06326 0.0
H355 H 0.04881 0.39225 0.07861 0.0
C356 C 0.1429 0.38743 0.13257 0.0
N357 N 0.11985 0.38474 0.13476 0.0
N358 N 0.10916 0.40256 0.12444 0.0
C359 C 0.12508 0.41729 0.1154 0.0
C360 C 0.147 0.40808 0.12016 0.0
C361 C 0.1605 0.37066 0.14241 0.0
H362 H 0.16013 0.37482 0.15798 0.0
H363 H 0.15592 0.34978 0.14037 0.0
H364 H 0.17823 0.37418 0.13681 0.0
O365 O 0.08287 0.38246 0.16833 0.0
O366 O 0.06485 0.41245 0.15098 0.0
H367 H 0.10717 0.45369 0.11242 0.0
H368 H 0.13493 0.45309 0.10071 0.0
C369 C 0.11933 0.44133 0.10413 0.0
H370 H 0.11062 0.43552 0.09063 0.0
H371 H 0.06208 0.46143 0.12861 0.0
O372 O 0.12129 0.33968 0.16689 0.0
C373 C 0.06901 0.40172 0.167 0.0
Co374 Co 0.37249 0.64031 0.14489 0.0
Co375 Co 0.40214 0.59969 0.12142 0.0
C376 C 0.40692 0.65762 0.1157 0.0
O377 O 0.39105 0.66292 0.12777 0.0
O378 O 0.41308 0.63415 0.1123 0.0
C379 C 0.35194 0.68633 0.1617 0.0
O380 O 0.36508 0.69883 0.14939 0.0
C381 C 0.42179 0.57307 0.08783 0.0
C382 C 0.43327 0.53559 0.10046 0.0
C383 C 0.43265 0.54953 0.08351 0.0
N384 N 0.41608 0.57282 0.10645 0.0
N385 N 0.42296 0.55037 0.11391 0.0
C386 C 0.41874 0.59651 0.07526 0.0
H387 H 0.42978 0.61262 0.08076 0.0
H388 H 0.40045 0.60321 0.07597 0.0
H389 H 0.42372 0.59265 0.06024 0.0
C390 C 0.33434 0.60849 0.12854 0.0
N391 N 0.35694 0.61456 0.13032 0.0
N392 N 0.36935 0.59776 0.12036 0.0
C393 C 0.35503 0.58045 0.11193 0.0
C394 C 0.33236 0.58674 0.11676 0.0
C395 C 0.31522 0.62277 0.13851 0.0
H396 H 0.31774 0.64416 0.13683 0.0
H397 H 0.29796 0.61711 0.13279 0.0
H398 H 0.31594 0.61826 0.15402 0.0
O399 O 0.39316 0.62365 0.16391 0.0
O400 O 0.41308 0.59395 0.14774 0.0
H401 H 0.37571 0.54579 0.11051 0.0
H402 H 0.34878 0.54325 0.09764 0.0
C403 C 0.3632 0.55661 0.10144 0.0
H404 H 0.37226 0.56269 0.08819 0.0
H405 H 0.42087 0.54529 0.12824 0.0
O406 O 0.35107 0.66149 0.16103 0.0
C407 C 0.4081 0.60537 0.16334 0.0
Co408 Co 0.38506 0.35946 0.64745 0.0
Co409 Co 0.41497 0.40082 0.6251 0.0
C410 C 0.41629 0.34347 0.61558 0.0
O411 O 0.40129 0.33756 0.62825 0.0
O412 O 0.42298 0.36698 0.6132 0.0
C413 C 0.35908 0.314 0.66056 0.0
O414 O 0.36665 0.30244 0.64499 0.0
C415 C 0.43272 0.4291 0.59188 0.0
C416 C 0.44845 0.46412 0.60522 0.0
C417 C 0.44495 0.45181 0.58781 0.0
N418 N 0.42903 0.42819 0.61081 0.0
N419 N 0.43835 0.44921 0.61871 0.0
C420 C 0.4266 0.4072 0.57857 0.0
H421 H 0.41016 0.39786 0.58321 0.0
H422 H 0.42499 0.41379 0.56358 0.0
H423 H 0.44052 0.39225 0.57921 0.0
C424 C 0.34764 0.39566 0.63587 0.0
N425 N 0.36992 0.38787 0.63565 0.0
N426 N 0.38245 0.40525 0.62637 0.0
C427 C 0.36852 0.42469 0.62037 0.0
C428 C 0.34606 0.4193 0.62623 0.0
C429 C 0.32893 0.38186 0.64673 0.0
H430 H 0.33414 0.38021 0.66196 0.0
H431 H 0.32698 0.36171 0.64104 0.0
H432 H 0.31209 0.39225 0.6458 0.0
O433 O 0.40788 0.37259 0.66622 0.0
O434 O 0.42874 0.40229 0.65087 0.0
H435 H 0.38919 0.45931 0.61823 0.0
H436 H 0.3621 0.46098 0.60516 0.0
C437 C 0.37667 0.44807 0.6094 0.0
H438 H 0.38571 0.44147 0.59628 0.0
H439 H 0.43822 0.45311 0.63335 0.0
O440 O 0.36368 0.33803 0.66326 0.0
C441 C 0.42405 0.38951 0.66596 0.0
Co442 Co 0.10096 0.62848 0.65268 0.0
Co443 Co 0.07495 0.5906 0.62432 0.0
C444 C 0.06681 0.64808 0.62344 0.0
O445 O 0.08075 0.65181 0.63734 0.0
O446 O 0.06303 0.6253 0.61676 0.0
C447 C 0.12762 0.67301 0.6666 0.0
O448 O 0.12426 0.68308 0.64955 0.0
C449 C 0.0537 0.56635 0.59015 0.0
C450 C 0.05455 0.52453 0.59815 0.0
C451 C 0.04783 0.54147 0.58376 0.0
N452 N 0.06376 0.56408 0.60742 0.0
N453 N 0.06413 0.53905 0.61214 0.0
C454 C 0.04769 0.59207 0.58124 0.0
H455 H 0.03674 0.60331 0.59135 0.0
H456 H 0.06381 0.60343 0.57874 0.0
H457 H 0.03793 0.58987 0.56769 0.0
C458 C 0.14164 0.60191 0.63609 0.0
N459 N 0.11872 0.60673 0.63667 0.0
N460 N 0.10795 0.59116 0.62456 0.0
C461 C 0.12382 0.57634 0.61554 0.0
C462 C 0.14564 0.58241 0.62267 0.0
C463 C 0.15869 0.61348 0.64988 0.0
H464 H 0.15143 0.61277 0.66455 0.0
H465 H 0.16153 0.63433 0.64617 0.0
H466 H 0.17556 0.60308 0.64966 0.0
O467 O 0.08198 0.60677 0.66966 0.0
O468 O 0.06246 0.58102 0.64984 0.0
H469 H 0.11129 0.53849 0.60772 0.0
H470 H 0.13397 0.55073 0.59241 0.0
C471 C 0.11827 0.55623 0.60066 0.0
H472 H 0.10498 0.56394 0.59069 0.0
H473 H 0.07075 0.53192 0.62499 0.0
O474 O 0.12017 0.65013 0.67014 0.0
C475 C 0.06725 0.58874 0.66668 0.0
Co476 Co 0.88975 0.62569 0.84417 0.0
Co477 Co 0.91504 0.58364 0.86952 0.0
C478 C 0.92452 0.64104 0.8739 0.0
O479 O 0.90987 0.64723 0.861 0.0
O480 O 0.92823 0.61726 0.87836 0.0
C481 C 0.86316 0.6714 0.83115 0.0
O482 O 0.8669 0.68159 0.84813 0.0
C483 C 0.93329 0.55763 0.90371 0.0
C484 C 0.93895 0.51737 0.8932 0.0
C485 C 0.94167 0.53325 0.90911 0.0
N486 N 0.92624 0.55622 0.88543 0.0
N487 N 0.92961 0.5321 0.87923 0.0
C488 C 0.93056 0.5815 0.91589 0.0
H489 H 0.91567 0.59337 0.91078 0.0
H490 H 0.92782 0.57607 0.93108 0.0
H491 H 0.94649 0.59358 0.91482 0.0
C492 C 0.84855 0.59874 0.85987 0.0
N493 N 0.87162 0.60247 0.85885 0.0
N494 N 0.88219 0.58499 0.86958 0.0
C495 C 0.86614 0.56966 0.87789 0.0
C496 C 0.84432 0.57778 0.87198 0.0
C497 C 0.83133 0.61329 0.8479 0.0
H498 H 0.83715 0.61331 0.83279 0.0
H499 H 0.83059 0.63392 0.85279 0.0
H500 H 0.81375 0.60457 0.84874 0.0
O501 O 0.90921 0.60586 0.82606 0.0
O502 O 0.92689 0.57587 0.84365 0.0
H503 H 0.88031 0.53163 0.88277 0.0
H504 H 0.85582 0.53946 0.8979 0.0
C505 C 0.87165 0.54739 0.891 0.0
H506 H 0.88375 0.55413 0.9023 0.0
H507 H 0.92576 0.52578 0.86541 0.0
O508 O 0.87057 0.64853 0.8275 0.0
C509 C 0.92299 0.58656 0.82756 0.0
Co510 Co 0.60295 0.36297 0.85315 0.0
Co511 Co 0.57095 0.40182 0.87621 0.0
C512 C 0.57123 0.34439 0.88432 0.0
O513 O 0.58607 0.33988 0.87121 0.0
O514 O 0.56401 0.36745 0.88784 0.0
C515 C 0.63012 0.31857 0.83942 0.0
O516 O 0.62225 0.30604 0.85447 0.0
C517 C 0.54805 0.42952 0.90801 0.0
C518 C 0.53822 0.46671 0.89405 0.0
C519 C 0.53706 0.4533 0.91121 0.0
N520 N 0.55554 0.42908 0.88982 0.0
N521 N 0.54959 0.45134 0.88157 0.0
C522 C 0.54956 0.40651 0.92115 0.0
H523 H 0.53881 0.39046 0.91519 0.0
H524 H 0.56776 0.39948 0.92179 0.0
H525 H 0.54317 0.41095 0.93572 0.0
C526 C 0.6388 0.39998 0.86666 0.0
N527 N 0.61678 0.39132 0.86616 0.0
N528 N 0.60347 0.40751 0.87585 0.0
C529 C 0.61669 0.42686 0.88305 0.0
C530 C 0.63946 0.42284 0.87739 0.0
C531 C 0.65809 0.38786 0.8554 0.0
H532 H 0.6524 0.38508 0.84038 0.0
H533 H 0.662 0.36826 0.86138 0.0
H534 H 0.67402 0.40001 0.8556 0.0
O535 O 0.58114 0.37638 0.83402 0.0
O536 O 0.55798 0.40316 0.84997 0.0
H537 H 0.5971 0.46207 0.88618 0.0
H538 H 0.62199 0.46004 0.90186 0.0
C539 C 0.60768 0.44876 0.89516 0.0
H540 H 0.59646 0.44074 0.9066 0.0
H541 H 0.55315 0.45595 0.86735 0.0
O542 O 0.62535 0.34268 0.83739 0.0
C543 C 0.5641 0.39209 0.83449 0.0
H544 H 0.95281 0.0652 0.17792 0.0
H545 H 0.97545 0.06141 0.20726 0.0
H546 H 0.92267 0.10381 0.23808 0.0
H547 H 0.90014 0.10833 0.20866 0.0
H548 H 0.96458 0.12436 0.24375 0.0
H549 H 0.96961 0.01737 0.25474 0.0
H550 H 0.97883 0.02672 0.23123 0.0
H551 H 0.94922 0.03215 0.23839 0.0
C552 C 0.9458 0.07335 0.191 0.0
C553 C 0.92471 0.08719 0.19093 0.0
C554 C 0.95871 0.07098 0.2078 0.0
C555 C 0.95061 0.08202 0.22491 0.0
C556 C 0.92919 0.09506 0.22503 0.0
H557 H 0.02158 0.06778 0.33479 0.0
H558 H -0.00604 0.06356 0.30839 0.0
C559 C 0.91635 0.09764 0.2082 0.0
C560 C 0.96555 0.08229 0.24215 0.0
H561 H -0.00235 0.0434 0.27171 0.0
C562 C 0.97159 0.10663 0.24999 0.0
C563 C 0.97449 0.05914 0.25041 0.0
C564 C 0.96751 0.03236 0.24338 0.0
C565 C 0.98688 0.10852 0.2655 0.0
C566 C -0.00313 0.08548 0.27305 0.0
C567 C 0.99025 0.06106 0.26567 0.0
C568 C 0.0143 0.08649 0.28856 0.0
C569 C 0.99208 0.13521 0.2737 0.0
C570 C 0.03518 0.10012 0.28593 0.0
C571 C 0.05092 0.10273 0.30097 0.0
C572 C 0.04619 0.09146 0.31888 0.0
C573 C 0.02572 0.07678 0.3212 0.0
C574 C 0.00991 0.07433 0.30615 0.0
H575 H 0.97826 0.14954 0.27012 0.0
H576 H -0.00604 0.13438 0.28949 0.0
H577 H 0.00861 0.14254 0.26759 0.0
H578 H 0.03914 0.1091 0.27229 0.0
H579 H 0.06662 0.11391 0.29863 0.0
H580 H 0.58042 0.87126 0.2015 0.0
H581 H 0.55751 0.879 0.23022 0.0
H582 H 0.53524 0.95341 0.20775 0.0
H583 H 0.5576 0.94549 0.17859 0.0
H584 H 0.55586 0.91649 0.25787 0.0
H585 H 0.4742 0.91566 0.21545 0.0
H586 H 0.50177 0.90644 0.20537 0.0
H587 H 0.4947 0.94039 0.20867 0.0
C588 C 0.57089 0.88944 0.20271 0.0
C589 C 0.57053 0.90757 0.1876 0.0
C590 C 0.55782 0.89385 0.21918 0.0
C591 C 0.54426 0.9165 0.22092 0.0
C592 C 0.54511 0.93548 0.20646 0.0
H593 H 0.46665 0.94178 0.32794 0.0
H594 H 0.49321 0.94881 0.30113 0.0
C595 C 0.558 0.93098 0.18986 0.0
C596 C 0.52817 0.91914 0.2373 0.0
H597 H 0.47062 0.92105 0.24866 0.0
C598 C 0.53722 0.91774 0.25591 0.0
C599 C 0.50385 0.92043 0.23463 0.0
C600 C 0.49296 0.92059 0.21497 0.0
C601 C 0.52258 0.91689 0.27193 0.0
C602 C 0.49827 0.9181 0.26923 0.0
C603 C 0.48927 0.92028 0.25066 0.0
C604 C 0.48175 0.91482 0.28525 0.0
C605 C 0.53324 0.91342 0.29148 0.0
C606 C 0.46597 0.89392 0.2849 0.0
C607 C 0.45058 0.89007 0.30001 0.0
C608 C 0.4507 0.90702 0.31585 0.0
C609 C 0.46625 0.92824 0.31603 0.0
C610 C 0.48154 0.93221 0.30078 0.0
H611 H 0.5516 0.90693 0.29063 0.0
H612 H 0.53283 0.93237 0.29921 0.0
H613 H 0.52334 0.89891 0.3 0.0
H614 H 0.4658 0.8803 0.27302 0.0
H615 H 0.43886 0.87352 0.29939 0.0
H616 H 0.89356 0.88994 0.7066 0.0
H617 H 0.91521 0.89611 0.73629 0.0
H618 H 0.96941 0.93578 0.70521 0.0
H619 H 0.9476 0.93038 0.67556 0.0
H620 H 0.95624 0.87447 0.74268 0.0
H621 H 0.96448 0.9815 0.75191 0.0
H622 H 0.94387 0.96698 0.73559 0.0
H623 H 0.97372 0.97114 0.72863 0.0
C624 C 0.90986 0.90046 0.70613 0.0
C625 C 0.91894 0.90952 0.6887 0.0
C626 C 0.92219 0.90401 0.72312 0.0
C627 C 0.94382 0.91661 0.723 0.0
C628 C 0.9525 0.92656 0.70574 0.0
H629 H 0.05954 0.88313 0.79584 0.0
H630 H 0.03154 0.88834 0.76993 0.0
C631 C 0.94008 0.92326 0.68876 0.0
C632 C 0.95854 0.91643 0.74036 0.0
H633 H 0.99197 0.95498 0.76922 0.0
C634 C 0.96379 0.89214 0.74862 0.0
C635 C 0.96821 0.93949 0.74823 0.0
C636 C 0.96208 0.96626 0.74074 0.0
C637 C 0.97908 0.89015 0.76411 0.0
C638 C 0.98986 0.91302 0.77122 0.0
C639 C 0.98396 0.93745 0.76349 0.0
C640 C 0.00756 0.91172 0.78648 0.0
C641 C 0.98354 0.86355 0.77271 0.0
C642 C 0.00376 0.92407 0.8041 0.0
C643 C 0.01983 0.92132 0.81893 0.0
C644 C 0.03998 0.90619 0.81634 0.0
C645 C 0.0441 0.89468 0.7984 0.0
C646 C 0.02808 0.89754 0.78359 0.0
H647 H 0.96929 0.84962 0.76939 0.0
H648 H -0.00018 0.85544 0.76667 0.0
H649 H 0.98553 0.86482 0.78848 0.0
H650 H 0.98806 0.93524 0.80654 0.0
H651 H 0.01617 0.93054 0.83255 0.0
H652 H 0.57748 0.11765 0.70647 0.0
H653 H 0.55572 0.10743 0.73532 0.0
H654 H 0.53394 0.03409 0.71054 0.0
H655 H 0.55509 0.04462 0.68125 0.0
H656 H 0.49817 0.05963 0.72343 0.0
H657 H 0.56446 0.0605 0.78022 0.0
H658 H 0.56618 0.0901 0.76663 0.0
H659 H 0.57203 0.05916 0.7552 0.0
C660 C 0.56843 0.09911 0.70726 0.0
C661 C 0.5679 0.08202 0.69152 0.0
C662 C 0.55616 0.09316 0.72388 0.0
C663 C 0.54349 0.06978 0.72526 0.0
C664 C 0.54369 0.05218 0.70984 0.0
H665 H 0.46534 0.05168 0.8326 0.0
H666 H 0.49173 0.04111 0.80625 0.0
C667 C 0.55576 0.05825 0.6931 0.0
C668 C 0.52785 0.06543 0.74176 0.0
H669 H 0.52503 0.0711 0.7903 0.0
C670 C 0.50415 0.06155 0.73808 0.0
C671 C 0.53561 0.06738 0.76091 0.0
C672 C 0.56101 0.06921 0.76595 0.0
C673 C 0.48784 0.06147 0.75291 0.0
C674 C 0.49537 0.06613 0.77185 0.0
C675 C 0.51921 0.06805 0.77571 0.0
C676 C 0.47873 0.07138 0.78749 0.0
C677 C 0.46264 0.05693 0.74805 0.0
C678 C 0.46287 0.09204 0.78573 0.0
C679 C 0.44774 0.09802 0.80062 0.0
C680 C 0.44838 0.0837 0.81776 0.0
C681 C 0.46437 0.06305 0.81957 0.0
C682 C 0.47946 0.05698 0.80455 0.0
H683 H 0.46084 0.04464 0.73502 0.0
H684 H 0.45328 0.04729 0.75999 0.0
H685 H 0.4542 0.076 0.74507 0.0
H686 H 0.46248 0.10392 0.77292 0.0
H687 H 0.43583 0.11421 0.79879 0.0
H688 H 0.52008 0.55485 0.32174 0.0
H689 H 0.49517 0.5481 0.29378 0.0
H690 H 0.52429 0.61684 0.26733 0.0
H691 H 0.54955 0.62338 0.29483 0.0
H692 H 0.46194 0.57936 0.27951 0.0
H693 H 0.52935 0.56448 0.22456 0.0
H694 H 0.53572 0.56338 0.24982 0.0
H695 H 0.53431 0.59425 0.23746 0.0
C696 C 0.52133 0.56839 0.30988 0.0
C697 C 0.5369 0.58957 0.31046 0.0
C698 C 0.5071 0.56448 0.29393 0.0
C699 C 0.50824 0.58165 0.27832 0.0
C700 C 0.52362 0.6029 0.27896 0.0
H701 H 0.40891 0.63158 0.19735 0.0
H702 H 0.43163 0.62107 0.2257 0.0
C703 C 0.53795 0.60671 0.29478 0.0
C704 C 0.49249 0.57848 0.26176 0.0
H705 H 0.49185 0.57868 0.21304 0.0
C706 C 0.46845 0.57874 0.26497 0.0
C707 C 0.50097 0.57703 0.24283 0.0
C708 C 0.52651 0.57446 0.23848 0.0
C709 C 0.4527 0.57928 0.24968 0.0
C710 C 0.46128 0.5803 0.23075 0.0
C711 C 0.48526 0.57833 0.22756 0.0
C712 C 0.44599 0.58526 0.21413 0.0
C713 C 0.42706 0.57904 0.25401 0.0
C714 C 0.44686 0.56894 0.198 0.0
C715 C 0.43422 0.57519 0.18158 0.0
C716 C 0.42043 0.59786 0.18103 0.0
C717 C 0.41921 0.61386 0.19735 0.0
C718 C 0.43204 0.60774 0.21366 0.0
H719 H 0.42346 0.56879 0.26769 0.0
H720 H 0.42083 0.59947 0.25552 0.0
H721 H 0.41702 0.56937 0.24243 0.0
H722 H 0.45764 0.55158 0.19801 0.0
H723 H 0.43547 0.56241 0.16926 0.0
H724 H 0.9606 0.43115 0.32613 0.0
H725 H 0.98486 0.43835 0.29799 0.0
H726 H 0.93452 0.39828 0.2629 0.0
H727 H 0.91052 0.39031 0.29102 0.0
H728 H 0.97654 0.37801 0.25887 0.0
H729 H 0.98267 0.4857 0.25183 0.0
H730 H 0.99032 0.47433 0.27527 0.0
H731 H 0.96115 0.46997 0.26664 0.0
C732 C 0.95449 0.42431 0.31236 0.0
C733 C 0.93375 0.40994 0.31082 0.0
C734 C 0.9683 0.42863 0.29625 0.0
C735 C 0.96139 0.41908 0.27831 0.0
C736 C 0.94015 0.40585 0.27661 0.0
H737 H 0.03067 0.43328 0.16857 0.0
H738 H 0.00527 0.44025 0.19613 0.0
C739 C 0.92649 0.40125 0.29271 0.0
C740 C 0.97746 0.41995 0.26181 0.0
H741 H 0.01044 0.4605 0.23412 0.0
C742 C 0.98378 0.3961 0.25338 0.0
C743 C 0.9868 0.44356 0.25459 0.0
C744 C 0.97972 0.46986 0.26243 0.0
C745 C -0.00058 0.3951 0.23812 0.0
C746 C 0.00954 0.41856 0.23144 0.0
C747 C 0.00291 0.44254 0.23954 0.0
C748 C 0.0267 0.41824 0.21576 0.0
C749 C 0.00473 0.36891 0.22914 0.0
C750 C 0.04761 0.40456 0.21795 0.0
C751 C 0.06202 0.40031 0.20225 0.0
C752 C 0.05588 0.40996 0.18412 0.0
C753 C 0.03582 0.42545 0.18232 0.0
C754 C 0.0213 0.4295 0.19804 0.0
H755 H 0.99125 0.35411 0.23258 0.0
H756 H 0.0061 0.37057 0.21335 0.0
H757 H 0.02157 0.36163 0.23471 0.0
H758 H 0.05227 0.39616 0.23164 0.0
H759 H 0.07752 0.38862 0.20418 0.0
H760 H 0.57733 0.38036 0.79812 0.0
H761 H 0.55468 0.38516 0.76888 0.0
H762 H 0.49829 0.41848 0.80128 0.0
H763 H 0.52113 0.41438 0.83064 0.0
H764 H 0.51448 0.36075 0.76192 0.0
H765 H 0.50188 0.46794 0.75612 0.0
H766 H 0.52313 0.45351 0.77189 0.0
H767 H 0.49311 0.45492 0.77882 0.0
C768 C 0.56022 0.38903 0.79902 0.0
C769 C 0.55096 0.39689 0.81671 0.0
C770 C 0.54733 0.3918 0.78229 0.0
C771 C 0.52491 0.4024 0.78289 0.0
C772 C 0.51576 0.41079 0.80044 0.0
H773 H 0.41674 0.36886 0.70143 0.0
H774 H 0.4412 0.3735 0.72971 0.0
C775 C 0.52876 0.40826 0.81722 0.0
C776 C 0.51046 0.40238 0.76541 0.0
H777 H 0.47816 0.44119 0.73595 0.0
C778 C 0.50667 0.37838 0.75617 0.0
C779 C 0.50051 0.42544 0.75784 0.0
C780 C 0.50503 0.45196 0.76656 0.0
C781 C 0.49287 0.3767 0.73975 0.0
C782 C 0.48209 0.39955 0.73267 0.0
C783 C 0.48624 0.42368 0.74161 0.0
C784 C 0.46641 0.39858 0.71598 0.0
C785 C 0.49016 0.3505 0.73002 0.0
C786 C 0.47207 0.41199 0.69915 0.0
C787 C 0.45803 0.40955 0.68295 0.0
C788 C 0.4381 0.39366 0.68339 0.0
C789 C 0.4321 0.38102 0.70053 0.0
C790 C 0.44608 0.38357 0.7167 0.0
H791 H 0.50429 0.33679 0.73406 0.0
H792 H 0.47344 0.34159 0.7344 0.0
H793 H 0.49007 0.35267 0.71423 0.0
H794 H 0.48767 0.42378 0.6984 0.0
H795 H 0.46308 0.41964 0.67 0.0
H796 H 0.95856 0.551 0.82579 0.0
H797 H 0.98349 0.54182 0.79824 0.0
H798 H 0.94165 0.59277 0.76331 0.0
H799 H 0.91674 0.60224 0.79063 0.0
H800 H 0.9735 0.52549 0.75635 0.0
H801 H 0.00977 0.62503 0.76812 0.0
H802 H -0.00634 0.60772 0.78626 0.0
H803 H 0.97865 0.62318 0.76681 0.0
C804 C 0.95439 0.55988 0.81216 0.0
C805 C 0.93591 0.57773 0.81048 0.0
C806 C 0.96859 0.55449 0.79645 0.0
C807 C 0.96443 0.56682 0.7789 0.0
C808 C 0.94512 0.58321 0.77683 0.0
H809 H 0.02439 0.56576 0.6669 0.0
H810 H 0.00106 0.55505 0.69503 0.0
C811 C 0.93098 0.58866 0.79249 0.0
C812 C 0.98174 0.56541 0.76344 0.0
H813 H 0.02091 0.60326 0.73983 0.0
C814 C 0.98406 0.54233 0.75275 0.0
C815 C -0.00432 0.58731 0.75912 0.0
C816 C -0.00545 0.61218 0.77074 0.0
C817 C -0.00041 0.54096 0.73729 0.0
C818 C 0.01276 0.56335 0.73242 0.0
C819 C 0.01082 0.58609 0.74355 0.0
C820 C 0.02806 0.56451 0.71546 0.0
C821 C 0.00181 0.51563 0.7264 0.0
C822 C 0.05104 0.5731 0.71757 0.0
C823 C 0.06416 0.57982 0.70159 0.0
C824 C 0.05462 0.57781 0.68317 0.0
C825 C 0.03219 0.56744 0.68095 0.0
C826 C 0.01891 0.56109 0.69701 0.0
H827 H -0.00344 0.49865 0.7353 0.0
H828 H 0.99022 0.51623 0.71373 0.0
H829 H 0.01987 0.51254 0.72136 0.0
H830 H 0.05844 0.57589 0.73168 0.0
H831 H 0.08151 0.58747 0.70371 0.0
H832 H 0.14361 0.14999 0.30201 0.0
H833 H 0.1543 0.17202 0.27229 0.0
H834 H 0.13918 0.24672 0.29804 0.0
H835 H 0.12848 0.22493 0.32784 0.0
H836 H 0.12089 0.20199 0.2529 0.0
H837 H 0.19952 0.26092 0.26799 0.0
H838 H 0.19095 0.23335 0.28254 0.0
H839 H 0.17696 0.2645 0.28551 0.0
C840 C 0.14308 0.17116 0.30154 0.0
C841 C 0.13494 0.18569 0.31726 0.0
C842 C 0.14923 0.1837 0.28453 0.0
C843 C 0.14767 0.21099 0.283 0.0
C844 C 0.14089 0.22566 0.29901 0.0
H845 H 0.13303 0.33125 0.20104 0.0
H846 H 0.14205 0.30371 0.22846 0.0
C847 C 0.13463 0.21314 0.31601 0.0
C848 C 0.14981 0.22378 0.26407 0.0
H849 H 0.17754 0.27289 0.24022 0.0
C850 C 0.13354 0.21717 0.24995 0.0
C851 C 0.16623 0.24366 0.26038 0.0
C852 C 0.18456 0.25092 0.27484 0.0
C853 C 0.13238 0.23086 0.2326 0.0
C854 C 0.14843 0.25127 0.22904 0.0
C855 C 0.16531 0.25721 0.24291 0.0
C856 C 0.1464 0.26828 0.21191 0.0
C857 C 0.11304 0.22432 0.2188 0.0
C858 C 0.14677 0.25777 0.19334 0.0
C859 C 0.14125 0.27345 0.17757 0.0
C860 C 0.13567 0.3 0.1801 0.0
C861 C 0.13706 0.31084 0.19856 0.0
C862 C 0.14229 0.29512 0.21429 0.0
H863 H 0.0992 0.21246 0.22565 0.0
H864 H 0.10506 0.24237 0.21294 0.0
H865 H 0.12017 0.2128 0.20672 0.0
H866 H 0.15054 0.23725 0.1911 0.0
H867 H 0.14064 0.26457 0.16351 0.0
H868 H 0.3315 0.66537 0.19357 0.0
H869 H 0.32363 0.68772 0.2238 0.0
H870 H 0.34401 0.76112 0.19859 0.0
H871 H 0.35184 0.73904 0.16833 0.0
H872 H 0.35967 0.71311 0.24293 0.0
H873 H 0.28686 0.78155 0.23029 0.0
H874 H 0.29249 0.75374 0.21502 0.0
H875 H 0.30905 0.78332 0.21234 0.0
C876 C 0.3337 0.68639 0.19427 0.0
C877 C 0.34252 0.70038 0.17855 0.0
C878 C 0.3292 0.69912 0.21159 0.0
C879 C 0.3331 0.72609 0.21344 0.0
C880 C 0.34048 0.74037 0.19742 0.0
H881 H 0.36267 0.84261 0.29582 0.0
H882 H 0.35065 0.81652 0.26837 0.0
C883 C 0.34509 0.72766 0.18013 0.0
C884 C 0.33281 0.73865 0.23257 0.0
H885 H 0.31127 0.79081 0.25735 0.0
C886 C 0.34877 0.72979 0.24626 0.0
C887 C 0.31869 0.76048 0.2368 0.0
C888 C 0.30064 0.77022 0.2229 0.0
C889 C 0.35196 0.74303 0.26365 0.0
C890 C 0.33833 0.76541 0.26768 0.0
C891 C 0.32169 0.77365 0.25428 0.0
C892 C 0.34271 0.78186 0.28484 0.0
C893 C 0.37088 0.73381 0.27699 0.0
C894 C 0.34148 0.77138 0.30338 0.0
C895 C 0.34864 0.78621 0.31917 0.0
C896 C 0.35685 0.8119 0.31671 0.0
C897 C 0.35661 0.82284 0.29826 0.0
C898 C 0.34967 0.80796 0.28251 0.0
H899 H 0.38309 0.72015 0.26982 0.0
H900 H 0.38098 0.75061 0.28268 0.0
H901 H 0.36295 0.72334 0.28923 0.0
H902 H 0.3356 0.7515 0.30558 0.0
H903 H 0.34835 0.77729 0.33321 0.0
H904 H 0.64236 0.71645 0.33151 0.0
H905 H 0.65473 0.74258 0.30397 0.0
H906 H 0.63431 0.68014 0.26601 0.0
H907 H 0.62278 0.65368 0.29329 0.0
H908 H 0.67348 0.70366 0.25357 0.0
H909 H 0.60678 0.77849 0.27136 0.0
H910 H 0.62835 0.77329 0.28947 0.0
H911 H 0.60834 0.74752 0.28355 0.0
C912 C 0.64083 0.70816 0.31731 0.0
C913 C 0.63124 0.68313 0.31461 0.0
C914 C 0.64778 0.72318 0.30157 0.0
C915 C 0.64489 0.71358 0.28288 0.0
C916 C 0.63659 0.68804 0.28027 0.0
H917 H 0.62547 0.76024 0.1685 0.0
H918 H 0.63539 0.73686 0.19783 0.0
C919 C 0.6299 0.67295 0.29594 0.0
C920 C 0.64879 0.73044 0.26589 0.0
H921 H 0.62784 0.7846 0.24314 0.0
C922 C 0.66371 0.72153 0.25138 0.0
C923 C 0.63597 0.75375 0.26299 0.0
C924 C 0.61881 0.76378 0.27756 0.0
C925 C 0.66562 0.73486 0.23389 0.0
C926 C 0.65223 0.7576 0.23082 0.0
C927 C 0.63816 0.76718 0.2456 0.0
C928 C 0.6506 0.77047 0.21189 0.0
C929 C 0.68162 0.72429 0.21869 0.0
C930 C 0.65627 0.79701 0.20991 0.0
C931 C 0.65064 0.81045 0.19313 0.0
C932 C 0.63888 0.79766 0.17814 0.0
C933 C 0.63447 0.7707 0.17975 0.0
C934 C 0.64026 0.75724 0.19649 0.0
H935 H 0.69525 0.7115 0.22492 0.0
H936 H 0.67138 0.71246 0.20839 0.0
H937 H 0.69008 0.74043 0.21069 0.0
H938 H 0.66413 0.80759 0.22167 0.0
H939 H 0.65433 0.83119 0.19238 0.0
H940 H 0.86439 0.2648 0.32485 0.0
H941 H 0.85112 0.24126 0.29638 0.0
H942 H 0.8276 0.31369 0.27158 0.0
H943 H 0.84077 0.33747 0.29995 0.0
H944 H 0.80495 0.24101 0.27422 0.0
H945 H 0.88119 0.2833 0.23621 0.0
H946 H 0.87951 0.28221 0.26197 0.0
H947 H 0.8625 0.30551 0.24889 0.0
C948 C 0.85599 0.2757 0.31352 0.0
C949 C 0.85396 0.30308 0.31457 0.0
C950 C 0.84835 0.26219 0.29729 0.0
C951 C 0.83862 0.27581 0.28185 0.0
C952 C 0.83522 0.30289 0.28333 0.0
H953 H 0.8352 0.21953 0.16435 0.0
H954 H 0.82703 0.2471 0.19212 0.0
C955 C 0.84279 0.31642 0.29956 0.0
C956 C 0.83448 0.26216 0.2635 0.0
H957 H 0.85795 0.25393 0.21918 0.0
C958 C 0.81635 0.24395 0.26208 0.0
C959 C 0.84933 0.2662 0.24771 0.0
C960 C 0.86934 0.28523 0.24866 0.0
C961 C 0.81287 0.22936 0.24525 0.0
C962 C 0.82832 0.23264 0.2297 0.0
C963 C 0.84601 0.25146 0.23102 0.0
C964 C 0.82807 0.21538 0.21258 0.0
C965 C 0.79267 0.21065 0.24434 0.0
C966 C 0.83058 0.18822 0.2147 0.0
C967 C 0.83499 0.17238 0.19883 0.0
C968 C 0.83746 0.18344 0.18052 0.0
C969 C 0.83352 0.21039 0.17824 0.0
C970 C 0.82886 0.2262 0.19413 0.0
H971 H 0.77822 0.21731 0.25365 0.0
H972 H 0.78605 0.20846 0.22951 0.0
H973 H 0.79832 0.19118 0.24956 0.0
H974 H 0.83062 0.17941 0.22877 0.0
H975 H 0.83797 0.15171 0.20114 0.0
H976 H 0.85809 0.65775 0.79363 0.0
H977 H 0.84641 0.68568 0.76712 0.0
H978 H 0.83292 0.74884 0.80647 0.0
H979 H 0.84533 0.72116 0.83318 0.0
H980 H 0.80738 0.7129 0.75722 0.0
H981 H 0.88074 0.78102 0.77138 0.0
H982 H 0.87815 0.74991 0.78327 0.0
H983 H 0.86071 0.77718 0.7908 0.0
C984 C 0.85246 0.67751 0.79674 0.0
C985 C 0.85303 0.68735 0.81553 0.0
C986 C 0.8457 0.69344 0.78153 0.0
C987 C 0.83926 0.71953 0.78474 0.0
C988 C 0.83839 0.72896 0.8036 0.0
H989 H 0.83044 0.84112 0.69722 0.0
H990 H 0.82197 0.81737 0.72672 0.0
C991 C 0.84536 0.71307 0.81887 0.0
C992 C 0.83506 0.73702 0.76814 0.0
H993 H 0.85735 0.79001 0.74482 0.0
C994 C 0.81813 0.72994 0.7546 0.0
C995 C 0.84913 0.75923 0.76469 0.0
C996 C 0.86834 0.76725 0.77818 0.0
C997 C 0.81529 0.74409 0.73753 0.0
C998 C 0.82987 0.76574 0.73386 0.0
C999 C 0.84611 0.77346 0.74772 0.0
C1000 C 0.8303 0.7793 0.71511 0.0
C1001 C 0.79693 0.73558 0.72347 0.0
C1002 C 0.83717 0.76569 0.69863 0.0
C1003 C 0.84211 0.7792 0.68174 0.0
C1004 C 0.8404 0.80663 0.68106 0.0
C1005 C 0.832 0.82001 0.69723 0.0
C1006 C 0.82716 0.80648 0.71413 0.0
H1007 H 0.78293 0.7243 0.73062 0.0
H1008 H 0.78913 0.75266 0.71608 0.0
H1009 H 0.80496 0.72274 0.71252 0.0
H1010 H 0.84011 0.74478 0.69913 0.0
H1011 H 0.84851 0.76827 0.66957 0.0
H1012 H 0.63793 0.3362 0.8031 0.0
H1013 H 0.64681 0.31001 0.77491 0.0
H1014 H 0.65439 0.24152 0.81031 0.0
H1015 H 0.64455 0.26745 0.83861 0.0
H1016 H 0.68128 0.27928 0.76181 0.0
H1017 H 0.60265 0.21919 0.77542 0.0
H1018 H 0.60907 0.24832 0.78892 0.0
H1019 H 0.62365 0.2181 0.79434 0.0
C1020 C 0.64181 0.31564 0.80499 0.0
C1021 C 0.64008 0.30381 0.8231 0.0
C1022 C 0.64692 0.30067 0.78881 0.0
C1023 C 0.65061 0.27363 0.79039 0.0
C1024 C 0.65088 0.2622 0.80865 0.0
H1025 H 0.65163 0.15575 0.69999 0.0
H1026 H 0.66139 0.17898 0.72949 0.0
C1027 C 0.64542 0.27709 0.82485 0.0
C1028 C 0.65227 0.25736 0.7728 0.0
H1029 H 0.62485 0.20831 0.74843 0.0
C1030 C 0.66905 0.26364 0.75895 0.0
C1031 C 0.63615 0.23708 0.76895 0.0
C1032 C 0.61672 0.23038 0.78258 0.0
C1033 C 0.66997 0.25034 0.74134 0.0
C1034 C 0.65374 0.2303 0.73753 0.0
C1035 C 0.6374 0.22357 0.75152 0.0
C1036 C 0.6521 0.21716 0.71867 0.0
C1037 C 0.68815 0.25789 0.72688 0.0
C1038 C 0.64412 0.23104 0.70267 0.0
C1039 C 0.63832 0.21781 0.6858 0.0
C1040 C 0.64039 0.19044 0.68466 0.0
C1041 C 0.64979 0.17683 0.70035 0.0
C1042 C 0.65539 0.19005 0.71725 0.0
H1043 H 0.70246 0.26933 0.73348 0.0
H1044 H 0.69553 0.24024 0.7199 0.0
H1045 H 0.68001 0.27009 0.7156 0.0
H1046 H 0.64114 0.25192 0.70356 0.0
H1047 H 0.63117 0.2289 0.674 0.0
H1048 H 0.34828 0.26176 0.66075 0.0
H1049 H 0.33977 0.23468 0.6887 0.0
H1050 H 0.34141 0.3033 0.72461 0.0
H1051 H 0.3491 0.33048 0.6968 0.0
H1052 H 0.36954 0.22876 0.71674 0.0
H1053 H 0.28823 0.26559 0.74843 0.0
H1054 H 0.297 0.27384 0.72441 0.0
H1055 H 0.30827 0.29184 0.74455 0.0
C1056 C 0.34615 0.27118 0.67452 0.0
C1057 C 0.34957 0.29827 0.67654 0.0
C1058 C 0.34129 0.25566 0.6905 0.0
C1059 C 0.33975 0.26691 0.70879 0.0
C1060 C 0.34191 0.29415 0.71065 0.0
H1061 H 0.37096 0.22323 0.82303 0.0
H1062 H 0.35866 0.24486 0.79352 0.0
C1063 C 0.34654 0.30969 0.69468 0.0
C1064 C 0.3394 0.25011 0.72613 0.0
H1065 H 0.3144 0.24305 0.77015 0.0
C1066 C 0.35714 0.23149 0.72822 0.0
C1067 C 0.32332 0.25373 0.74121 0.0
C1068 C 0.30301 0.27216 0.73944 0.0
C1069 C 0.35994 0.21739 0.74525 0.0
C1070 C 0.34449 0.22185 0.76059 0.0
C1071 C 0.32627 0.23979 0.75836 0.0
C1072 C 0.34814 0.20915 0.77937 0.0
C1073 C 0.38008 0.19867 0.74704 0.0
C1074 C 0.3455 0.18203 0.78138 0.0
C1075 C 0.35253 0.16959 0.79821 0.0
C1076 C 0.36236 0.18408 0.8133 0.0
C1077 C 0.36361 0.21146 0.81166 0.0
C1078 C 0.35653 0.22388 0.79482 0.0
H1079 H 0.39245 0.20045 0.73495 0.0
H1080 H 0.38962 0.20215 0.76061 0.0
H1081 H 0.37342 0.1783 0.74731 0.0
H1082 H 0.33886 0.17038 0.76964 0.0
H1083 H 0.35113 0.14849 0.79905 0.0
H1084 H 0.13155 0.65975 0.70429 0.0
H1085 H 0.14 0.68873 0.73111 0.0
H1086 H 0.15295 0.75218 0.69198 0.0
H1087 H 0.14385 0.72344 0.66495 0.0
H1088 H 0.17663 0.71984 0.74279 0.0
H1089 H 0.09955 0.78004 0.72386 0.0
H1090 H 0.10537 0.74895 0.7127 0.0
H1091 H 0.12124 0.77759 0.70555 0.0
C1092 C 0.13647 0.67978 0.70131 0.0
C1093 C 0.13659 0.6894 0.68247 0.0
C1094 C 0.14138 0.69631 0.7167 0.0
C1095 C 0.14658 0.72276 0.71358 0.0
C1096 C 0.14841 0.73198 0.69473 0.0
H1097 H 0.13993 0.84745 0.79884 0.0
H1098 H 0.1513 0.82346 0.77009 0.0
C1099 C 0.14332 0.71549 0.67929 0.0
C1100 C 0.14811 0.74086 0.73014 0.0
H1101 H 0.12009 0.79199 0.75139 0.0
C1102 C 0.16443 0.73581 0.7446 0.0
C1103 C 0.13212 0.76163 0.73251 0.0
C1104 C 0.11344 0.76733 0.71794 0.0
C1105 C 0.16493 0.75068 0.76151 0.0
C1106 C 0.1485 0.77091 0.76408 0.0
C1107 C 0.13275 0.77654 0.74934 0.0
C1108 C 0.14584 0.78517 0.78243 0.0
C1109 C 0.18287 0.74447 0.77654 0.0
C1110 C 0.13949 0.7716 0.79906 0.0
C1111 C 0.13295 0.78525 0.81553 0.0
C1112 C 0.13244 0.81276 0.81562 0.0
C1113 C 0.14003 0.82628 0.79926 0.0
C1114 C 0.14656 0.8126 0.7828 0.0
H1115 H 0.19824 0.73463 0.77021 0.0
H1116 H 0.18868 0.76245 0.78407 0.0
H1117 H 0.17519 0.73101 0.78724 0.0
H1118 H 0.13835 0.75046 0.79901 0.0
H1119 H 0.1272 0.77422 0.82786 0.0
H1120 H 0.043 0.98912 0.42994 0.0
H1121 H 0.0252 0.97487 0.45995 0.0
H1122 H 0.00678 0.05467 0.47291 0.0
H1123 H 0.02429 0.06901 0.4429 0.0
H1124 H 0.02654 0.02689 0.50403 0.0
H1125 H 0.95485 0.97163 0.46944 0.0
H1126 H 0.98341 0.9626 0.4616 0.0
H1127 H 0.97257 0.99483 0.45661 0.0
C1128 C 0.03525 0.00363 0.43925 0.0
C1129 C 0.03544 0.03023 0.43423 0.0
C1130 C 0.02502 0.99545 0.45631 0.0
C1131 C 0.0145 0.0137 0.46851 0.0
C1132 C 0.01491 0.04031 0.46368 0.0
H1133 H 0.94067 0.00561 0.57651 0.0
H1134 H 0.95948 0.01978 0.5469 0.0
C1135 C 0.02517 0.04851 0.44662 0.0
C1136 C 0.00293 0.00505 0.48628 0.0
H1137 H 0.95836 0.9676 0.50307 0.0
C1138 C 0.01159 0.014 0.50385 0.0
C1139 C 0.98343 0.98825 0.48593 0.0
C1140 C 0.97284 0.97891 0.4674 0.0
C1141 C 0.00147 0.00622 0.52117 0.0
C1142 C 0.98198 0.98943 0.52082 0.0
C1143 C 0.97333 0.98046 0.50325 0.0
C1144 C 0.97028 0.9809 0.53855 0.0
C1145 C 0.01201 0.0156 0.53971 0.0
C1146 C 0.9697 0.9543 0.5434 0.0
C1147 C 0.9589 0.94615 0.56024 0.0
C1148 C 0.94821 0.96446 0.57238 0.0
C1149 C 0.94872 0.99107 0.5674 0.0
C1150 C 0.95953 -0.00079 0.55057 0.0
H1151 H 0.03 0.0229 0.53769 0.0
H1152 H 0.0014 0.0319 0.54548 0.0
H1153 H 0.01226 -0.0003 0.55051 0.0
H1154 H 0.97801 0.93991 0.53433 0.0
H1155 H 0.95956 0.92565 0.56396 0.0
H1156 H 0.4698 0.92802 0.4404 0.0
H1157 H 0.4857 0.94122 0.47134 0.0
H1158 H 0.46631 0.02118 0.46004 0.0
H1159 H 0.44978 0.00797 0.42921 0.0
H1160 H 0.52165 0.97853 0.4768 0.0
H1161 H 0.44058 0.00723 0.51429 0.0
H1162 H 0.44057 0.98696 0.49313 0.0
H1163 H 0.44461 0.02168 0.49111 0.0
C1164 C 0.46826 0.94826 0.44473 0.0
C1165 C 0.45796 0.96686 0.43262 0.0
C1166 C 0.47761 0.95582 0.46231 0.0
C1167 C 0.47681 0.98208 0.46808 0.0
C1168 C 0.46665 0.00072 0.456 0.0
H1169 H 0.52748 0.0673 0.56672 0.0
H1170 H 0.51056 0.0541 0.53618 0.0
C1171 C 0.45735 0.99318 0.43838 0.0
C1172 C 0.48767 0.99014 0.48631 0.0
H1173 H 0.47603 0.0172 0.52987 0.0
C1174 C 0.5117 0.98687 0.48846 0.0
C1175 C 0.4746 0.00113 0.5014 0.0
C1176 C 0.44863 0.00431 0.50002 0.0
C1177 C 0.52311 0.99469 0.50524 0.0
C1178 C 0.51003 0.00556 0.52038 0.0
C1179 C 0.48599 0.00886 0.51822 0.0
C1180 C 0.52095 0.01358 0.53862 0.0
C1181 C 0.54913 0.99177 0.50644 0.0
C1182 C 0.53219 0.99511 0.55019 0.0
C1183 C 0.5422 0.0027 0.56753 0.0
C1184 C 0.54115 0.02889 0.57358 0.0
C1185 C 0.52947 0.04723 0.56212 0.0
C1186 C 0.51949 0.03964 0.54478 0.0
H1187 H 0.5571 0.98974 0.49206 0.0
H1188 H 0.55711 0.00882 0.51379 0.0
H1189 H 0.55336 0.97393 0.51476 0.0
H1190 H 0.53301 0.97477 0.54592 0.0
H1191 H 0.55081 0.98807 0.5762 0.0
H1192 H 0.48766 0.00971 0.91888 0.0
H1193 H 0.50647 -0.00289 0.94898 0.0
H1194 H 0.4486 0.02858 0.98058 0.0
H1195 H 0.42953 0.04066 0.9505 0.0
H1196 H 0.5188 0.03136 0.97978 0.0
H1197 H 0.45685 0.95391 0.0021 0.0
H1198 H 0.45827 0.96603 0.97789 0.0
H1199 H 0.44384 0.98475 0.99608 0.0
C1200 C 0.47896 0.01379 0.93228 0.0
C1201 C 0.45741 0.02657 0.93249 0.0
C1202 C 0.48971 0.00668 0.9494 0.0
C1203 C 0.47886 0.01184 0.96695 0.0
C1204 C 0.45715 0.02426 0.96716 0.0
H1205 H 0.51524 0.98567 0.08546 0.0
H1206 H 0.49705 -0.00083 0.05542 0.0
C1207 C 0.44643 0.03143 0.95003 0.0
C1208 C 0.49054 0.00479 0.98504 0.0
H1209 H 0.48547 0.96639 0.02467 0.0
C1210 C 0.5116 0.01708 0.98958 0.0
C1211 C 0.48101 0.9862 0.99775 0.0
C1212 C 0.45885 0.97175 0.9932 0.0
C1213 C 0.52325 0.0116 0.00674 0.0
C1214 C 0.51373 0.99299 0.01945 0.0
C1215 C 0.49267 0.98068 0.01488 0.0
C1216 C 0.52534 0.98589 0.03758 0.0
C1217 C 0.54535 0.02616 0.0113 0.0
C1218 C 0.54729 0.97406 0.03747 0.0
C1219 C 0.55775 0.96642 0.0546 0.0
C1220 C 0.54627 0.97018 0.07209 0.0
C1221 C 0.52447 0.98247 0.07217 0.0
C1222 C 0.51402 0.99009 0.05505 0.0
H1223 H 0.54705 0.04427 0.00265 0.0
H1224 H 0.54611 0.03148 0.02669 0.0
H1225 H 0.56042 0.01343 0.00806 0.0
H1226 H 0.55623 0.97045 0.02411 0.0
H1227 H 0.57487 0.95782 0.0541 0.0
H1228 H 0.96165 0.07017 0.0652 0.0
H1229 H 0.97749 0.05682 0.03426 0.0
H1230 H 0.96181 0.9763 0.04721 0.0
H1231 H 0.94537 0.98959 0.078 0.0
H1232 H 0.01466 0.02089 0.0281 0.0
H1233 H 0.93268 0.98807 0.99373 0.0
H1234 H 0.93315 0.00889 0.0146 0.0
H1235 H 0.93824 0.97438 0.01695 0.0
C1236 C 0.96101 0.04971 0.06126 0.0
C1237 C 0.9517 0.03097 0.07377 0.0
C1238 C 0.97032 0.0421 0.04369 0.0
C1239 C 0.97042 0.01566 0.03836 0.0
C1240 C 0.96145 -0.00314 0.05093 0.0
H1241 H 0.01851 0.92852 0.94016 0.0
H1242 H 0.00301 0.94257 0.97099 0.0
C1243 C 0.95221 0.00445 0.06853 0.0
C1244 C 0.98062 0.00761 0.0199 0.0
H1245 H 0.96763 0.97863 0.97727 0.0
C1246 C 0.0044 0.01177 0.01692 0.0
C1247 C 0.96713 0.99569 0.00544 0.0
C1248 C 0.94134 0.99165 0.00769 0.0
C1249 C 0.0152 0.00379 -8e-05 0.0
C1250 C 0.00171 0.99182 0.98546 0.0
C1251 C 0.9779 0.98777 0.98843 0.0
C1252 C 0.01195 0.98332 0.9671 0.0
C1253 C 0.04102 0.00769 0.99777 0.0
C1254 C 0.02192 0.00163 0.95465 0.0
C1255 C 0.03109 0.99358 0.93713 0.0
C1256 C 0.03048 0.96709 0.9318 0.0
C1257 C 0.02012 0.94887 0.94417 0.0
C1258 C 0.01097 0.95693 0.96168 0.0
H1259 H 0.04964 0.01084 0.01181 0.0
H1260 H 0.04916 0.99059 0.99065 0.0
H1261 H 0.04425 0.0252 0.98881 0.0
H1262 H 0.02234 0.02219 0.95836 0.0
H1263 H 0.03868 0.00809 0.92775 0.0
H1264 H 0.55895 0.52892 0.43999 0.0
H1265 H 0.54392 0.51497 0.47104 0.0
H1266 H 0.47729 0.49919 0.44537 0.0
H1267 H 0.4922 0.51328 0.4143 0.0
H1268 H 0.50671 0.53601 0.4914 0.0
H1269 H 0.49136 0.43152 0.47395 0.0
H1270 H 0.50889 0.4526 0.45914 0.0
H1271 H 0.47776 0.45387 0.45765 0.0
C1272 C 0.54103 0.52285 0.44101 0.0
C1273 C 0.5266 0.52267 0.42482 0.0
C1274 C 0.53254 0.51463 0.45871 0.0
C1275 C 0.50957 0.50585 0.46044 0.0
C1276 C 0.49519 0.50544 0.44426 0.0
H1277 H 0.42161 0.45721 0.55408 0.0
H1278 H 0.43764 0.47091 0.5232 0.0
C1279 C 0.5037 0.51357 0.42656 0.0
C1280 C 0.50041 0.49792 0.4793 0.0
H1281 H 0.4757 0.44697 0.50331 0.0
C1282 C 0.50007 0.5165 0.49407 0.0
C1283 C 0.49174 0.47246 0.48267 0.0
C1284 C 0.49262 0.45137 0.46758 0.0
C1285 C 0.49082 0.51045 0.51207 0.0
C1286 C 0.482 0.48507 0.51538 0.0
C1287 C 0.48242 0.46645 0.50065 0.0
C1288 C 0.47233 0.47733 0.53409 0.0
C1289 C 0.4901 0.53139 0.52727 0.0
C1290 C 0.48659 0.4764 0.55033 0.0
C1291 C 0.47754 0.46831 0.56787 0.0
C1292 C 0.45421 0.46068 0.56931 0.0
C1293 C 0.43986 0.46207 0.55313 0.0
C1294 C 0.44892 0.47013 0.53559 0.0
H1295 H 0.49248 0.55125 0.52114 0.0
H1296 H 0.47337 0.53085 0.53513 0.0
H1297 H 0.50427 0.52792 0.53771 0.0
H1298 H 0.50477 0.48159 0.54939 0.0
H1299 H 0.48887 0.46753 0.58022 0.0
H1300 H 0.01382 0.50527 0.5795 0.0
H1301 H -0.00494 0.49117 0.54978 0.0
H1302 H 0.03711 0.54566 0.51794 0.0
H1303 H 0.05655 0.55906 0.54753 0.0
H1304 H 0.96964 0.52044 0.52377 0.0
H1305 H 0.04754 0.47678 0.48979 0.0
H1306 H 0.04658 0.48533 0.51481 0.0
H1307 H 0.05126 0.5102 0.49707 0.0
C1308 C 0.01906 0.51419 0.56613 0.0
C1309 C 0.03624 0.53365 0.56581 0.0
C1310 C 0.00831 0.50619 0.54922 0.0
C1311 C 0.01479 0.51728 0.53168 0.0
C1312 C 0.03202 0.53668 0.53132 0.0
H1313 H 0.93808 0.50765 0.42473 0.0
H1314 H 0.95596 0.52212 0.45471 0.0
C1315 C 0.04283 0.54463 0.54824 0.0
C1316 C 0.00338 0.50859 0.51381 0.0
H1317 H 0.01388 0.4805 0.47041 0.0
C1318 C 0.97927 0.51166 0.5121 0.0
C1319 C 0.016 0.49685 0.49875 0.0
C1320 C 0.04174 0.49183 0.5002 0.0
C1321 C 0.96743 0.50354 0.49559 0.0
C1322 C 0.98015 0.49249 0.48031 0.0
C1323 C 0.00422 0.48918 0.48211 0.0
C1324 C 0.96881 0.48377 0.46242 0.0
C1325 C 0.94139 0.5064 0.4948 0.0
C1326 C 0.97059 0.45759 0.45662 0.0
C1327 C 0.9606 0.44935 0.43945 0.0
C1328 C 0.94852 0.46714 0.42782 0.0
C1329 C 0.94699 0.49343 0.43356 0.0
C1330 C 0.95705 0.50168 0.45072 0.0
H1331 H 0.93379 0.50877 0.5093 0.0
H1332 H 0.93693 0.52403 0.48633 0.0
H1333 H 0.93326 0.48917 0.48782 0.0
H1334 H 0.97991 0.44355 0.46531 0.0
H1335 H 0.96299 0.42925 0.43509 0.0
H1336 H 0.05297 0.49998 0.0665 0.0
H1337 H 0.03464 0.51312 0.03636 0.0
H1338 H 0.00691 0.43533 0.02954 0.0
H1339 H 0.02457 0.42229 0.05982 0.0
H1340 H 0.04007 0.49069 -0.00123 0.0
H1341 H 0.94965 0.48399 0.02595 0.0
H1342 H 0.97454 0.48507 0.04163 0.0
H1343 H 0.9671 0.45527 0.02947 0.0
C1344 C 0.04305 0.48567 0.0585 0.0
C1345 C 0.04057 0.45999 0.06533 0.0
C1346 C 0.03265 0.49317 0.04132 0.0
C1347 C 0.01932 0.47522 0.03085 0.0
C1348 C 0.01701 0.4495 0.03751 0.0
H1349 H 0.93844 0.4859 0.92647 0.0
H1350 H 0.9578 0.47152 0.95585 0.0
C1351 C 0.02744 0.44196 0.05467 0.0
C1352 C 0.00763 0.48351 0.01305 0.0
H1353 H 0.95427 0.49252 0.99293 0.0
C1354 C 0.02132 0.49117 0.99747 0.0
C1355 C 0.98318 0.48405 0.01148 0.0
C1356 C 0.96769 0.47688 0.02805 0.0
C1357 C 0.01117 0.49903 0.98017 0.0
C1358 C 0.9867 0.4997 0.97862 0.0
C1359 C 0.97302 0.49196 0.9942 0.0
C1360 C 0.97493 0.50853 0.96097 0.0
C1361 C 0.0267 0.50606 0.96359 0.0
C1362 C 0.97795 0.53417 0.95431 0.0
C1363 C 0.96697 0.54239 0.93756 0.0
C1364 C 0.95249 0.52521 0.92735 0.0
C1365 C 0.9494 0.49959 0.93413 0.0
C1366 C 0.9604 0.49137 0.95088 0.0
H1367 H 0.04447 0.49804 0.96543 0.0
H1368 H 0.01945 0.49866 0.9499 0.0
H1369 H 0.0281 0.52766 0.9626 0.0
H1370 H 0.98891 0.54779 0.96202 0.0
H1371 H 0.97035 0.56195 0.93241 0.0
H1372 H 0.49517 0.47706 0.91418 0.0
H1373 H 0.47688 0.49462 0.94313 0.0
H1374 H 0.53581 0.4697 0.97653 0.0
H1375 H 0.55439 0.45275 0.94755 0.0
H1376 H 0.46539 0.46721 0.97731 0.0
H1377 H 0.52825 0.54765 0.99029 0.0
H1378 H 0.52619 0.53076 0.96766 0.0
H1379 H 0.54117 0.51592 0.98741 0.0
C1380 C 0.50416 0.47535 0.92773 0.0
C1381 C 0.52592 0.46309 0.92878 0.0
C1382 C 0.49372 0.48532 0.94421 0.0
C1383 C 0.50507 0.48357 0.9619 0.0
C1384 C 0.52687 0.47142 0.96296 0.0
H1385 H 0.4745 0.52661 0.07833 0.0
H1386 H 0.49128 0.51053 0.04838 0.0
C1387 C 0.53729 0.46141 0.94649 0.0
C1388 C 0.49399 0.49416 0.97932 0.0
H1389 H 0.5009 0.53922 0.01488 0.0
C1390 C 0.47303 0.48306 0.98549 0.0
C1391 C 0.50406 0.51485 0.98988 0.0
C1392 C 0.52605 0.52819 0.98343 0.0
C1393 C 0.46215 0.49167 0.00229 0.0
C1394 C 0.47234 0.5122 0.01295 0.0
C1395 C 0.49318 0.52346 0.00666 0.0
C1396 C 0.46196 0.52191 0.03093 0.0
C1397 C 0.44022 0.47823 0.00879 0.0
C1398 C 0.43998 0.53373 0.03097 0.0
C1399 C 0.43037 0.54288 0.04806 0.0
C1400 C 0.44277 0.54067 0.06527 0.0
C1401 C 0.4647 0.52873 0.0652 0.0
C1402 C 0.47429 0.5196 0.04814 0.0
H1403 H 0.43772 0.45907 0.00158 0.0
H1404 H 0.44043 0.47506 0.02449 0.0
H1405 H 0.42509 0.49078 0.00531 0.0
H1406 H 0.43028 0.53589 0.0178 0.0
H1407 H 0.41313 0.55127 0.04785 0.0
H1408 H 0.17257 0.05387 0.34754 0.0
H1409 H 0.20862 0.02935 0.352 0.0
H1410 H 0.19829 0.03038 0.41308 0.0
H1411 H 0.1621 0.05517 0.40863 0.0
H1412 H 0.24798 0.04576 0.37444 0.0
H1413 H 0.20934 0.95186 0.39947 0.0
H1414 H 0.19245 0.9763 0.38708 0.0
H1415 H 0.20069 0.9814 0.41153 0.0
C1416 C 0.17807 0.04891 0.3619 0.0
C1417 C 0.16472 0.0563 0.37776 0.0
C1418 C 0.19855 0.03489 0.36443 0.0
C1419 C 0.20594 0.02793 0.38284 0.0
C1420 C 0.19265 0.03529 0.39875 0.0
H1421 H 0.33354 0.93834 0.40563 0.0
H1422 H 0.29804 0.96404 0.41113 0.0
C1423 C 0.17209 0.04939 0.39621 0.0
C1424 C 0.22788 0.01341 0.3851 0.0
H1425 H 0.24982 0.95293 0.39506 0.0
C1426 C 0.24845 0.02557 0.37917 0.0
C1427 C 0.22835 0.98715 0.39139 0.0
C1428 C 0.20657 0.97322 0.39766 0.0
C1429 C 0.26944 0.01182 0.37869 0.0
C1430 C 0.26969 0.98521 0.38406 0.0
C1431 C 0.2494 0.97336 0.3909 0.0
C1432 C 0.29046 0.96896 0.38105 0.0
C1433 C 0.29111 0.02561 0.37203 0.0
C1434 C 0.29751 0.96299 0.36237 0.0
C1435 C 0.31756 0.94839 0.35924 0.0
C1436 C 0.33082 0.93961 0.37476 0.0
C1437 C 0.32355 0.94515 0.39349 0.0
C1438 C 0.30336 0.95967 0.39663 0.0
H1439 H 0.28925 0.04722 0.37274 0.0
H1440 H 0.30631 0.01968 0.38078 0.0
H1441 H 0.29466 0.02011 0.35696 0.0
H1442 H 0.28758 0.96987 0.35021 0.0
H1443 H 0.32297 0.94438 0.3447 0.0
H1444 H 0.83461 0.05165 0.08424 0.0
H1445 H 0.80349 0.02321 0.0722 0.0
H1446 H 0.76916 0.02801 0.12685 0.0
H1447 H 0.80057 0.05543 0.13916 0.0
H1448 H 0.79178 0.9731 0.09266 0.0
H1449 H 0.71774 0.04136 0.08425 0.0
H1450 H 0.74769 0.05186 0.08313 0.0
H1451 H 0.73415 0.04606 0.10587 0.0
C1452 C 0.82031 0.04671 0.0936 0.0
C1453 C 0.81998 0.0555 0.11265 0.0
C1454 C 0.80256 0.03067 0.08668 0.0
C1455 C 0.78406 0.0238 0.09862 0.0
C1456 C 0.78319 0.03351 0.11737 0.0
H1457 H 0.695 0.91232 0.13366 0.0
H1458 H 0.72911 0.93641 0.12287 0.0
C1459 C 0.80106 0.0492 0.12436 0.0
C1460 C 0.76673 0.00437 0.0925 0.0
H1461 H 0.70826 0.99608 0.08963 0.0
C1462 C 0.77355 0.97809 0.09142 0.0
C1463 C 0.7431 0.01106 0.09063 0.0
C1464 C 0.73518 0.03916 0.09084 0.0
C1465 C 0.75698 0.95806 0.09038 0.0
C1466 C 0.73321 0.96469 0.09052 0.0
C1467 C 0.72655 0.99106 0.08967 0.0
C1468 C 0.71511 0.94521 0.09487 0.0
C1469 C 0.76496 0.92999 0.0902 0.0
C1470 C 0.69619 0.94174 0.08252 0.0
C1471 C 0.67678 0.92772 0.08862 0.0
C1472 C 0.67589 0.91752 0.10725 0.0
C1473 C 0.69538 0.91969 0.11915 0.0
C1474 C 0.71487 0.93343 0.11298 0.0
H1475 H 0.78258 0.92818 0.0839 0.0
H1476 H 0.76576 0.92263 0.1051 0.0
H1477 H 0.75275 0.91743 0.08201 0.0
H1478 H 0.69603 0.95088 0.06856 0.0
H1479 H 0.66199 0.92597 0.07913 0.0
H1480 H 0.6588 0.06804 0.58203 0.0
H1481 H 0.69155 0.04177 0.57032 0.0
H1482 H 0.72305 0.04539 0.62623 0.0
H1483 H 0.69031 0.0711 0.63802 0.0
H1484 H 0.75475 0.04946 0.59243 0.0
H1485 H 0.69375 0.96461 0.59199 0.0
H1486 H 0.68629 0.99368 0.57883 0.0
H1487 H 0.68678 0.99451 0.60445 0.0
C1488 C 0.67299 0.06357 0.59166 0.0
C1489 C 0.67205 0.07121 0.61095 0.0
C1490 C 0.69161 0.0487 0.58496 0.0
C1491 C 0.70947 0.04152 0.5975 0.0
C1492 C 0.70938 0.05087 0.61636 0.0
H1493 H 0.79748 0.93193 0.63711 0.0
H1494 H 0.76571 0.95976 0.62609 0.0
C1495 C 0.69075 0.06558 0.62307 0.0
C1496 C 0.72676 0.02164 0.59211 0.0
H1497 H 0.73352 0.95539 0.59146 0.0
C1498 C 0.75019 0.02891 0.59157 0.0
C1499 C 0.72054 0.99492 0.59107 0.0
C1500 C 0.69551 0.98624 0.59166 0.0
C1501 C 0.76772 0.00993 0.59145 0.0
C1502 C 0.76149 0.98321 0.59196 0.0
C1503 C 0.73808 0.97596 0.59102 0.0
C1504 C 0.77864 0.96312 0.59715 0.0
C1505 C 0.79276 0.01848 0.59239 0.0
C1506 C 0.79586 0.95519 0.58428 0.0
C1507 C 0.81388 0.93903 0.59052 0.0
C1508 C 0.8149 0.9309 0.60969 0.0
C1509 C 0.79694 0.93773 0.62223 0.0
C1510 C 0.77889 0.95368 0.61597 0.0
H1511 H 0.79461 0.04011 0.59249 0.0
H1512 H 0.80107 0.01048 0.60547 0.0
H1513 H 0.8023 0.01061 0.57987 0.0
H1514 H 0.7958 0.96224 0.56968 0.0
H1515 H 0.82749 0.9337 0.58058 0.0
H1516 H 0.34146 0.02083 0.86545 0.0
H1517 H 0.30432 -0.00241 0.868 0.0
H1518 H 0.27097 0.06888 0.88616 0.0
H1519 H 0.30818 0.09222 0.88367 0.0
H1520 H 0.2621 0.01464 0.90791 0.0
H1521 H 0.24772 0.01872 0.82915 0.0
H1522 H 0.27616 0.00966 0.83757 0.0
H1523 H 0.26569 0.04221 0.84157 0.0
C1524 C 0.32622 0.03139 0.87021 0.0
C1525 C 0.32745 0.05821 0.87432 0.0
C1526 C 0.30513 0.01818 0.87162 0.0
C1527 C 0.28508 0.03165 0.87722 0.0
C1528 C 0.28637 0.05828 0.88184 0.0
H1529 H 0.14261 0.98092 0.86317 0.0
H1530 H 0.17806 0.00715 0.8665 0.0
C1531 C 0.30747 0.07154 0.88034 0.0
C1532 C 0.26257 0.01811 0.87725 0.0
H1533 H 0.22092 0.9943 0.84732 0.0
C1534 C 0.25298 0.01023 0.89472 0.0
C1535 C 0.25083 0.01269 0.85998 0.0
C1536 C 0.26045 0.02132 0.84094 0.0
C1537 C 0.23192 0.99648 0.89531 0.0
C1538 C 0.22045 0.99051 0.87798 0.0
C1539 C 0.22987 -0.0011 0.86056 0.0
C1540 C 0.19878 0.97522 0.87747 0.0
C1541 C 0.222 0.98852 0.91438 0.0
C1542 C 0.19887 0.94868 0.88252 0.0
C1543 C 0.17873 0.93374 0.88057 0.0
C1544 C 0.15834 0.9452 0.87356 0.0
C1545 C 0.15818 0.97182 0.86876 0.0
C1546 C 0.17832 0.98673 0.87062 0.0
H1547 H 0.23024 -0.00068 0.92639 0.0
H1548 H 0.20299 0.99198 0.91477 0.0
H1549 H 0.22501 0.96731 0.91661 0.0
H1550 H 0.21464 0.93942 0.88754 0.0
H1551 H 0.17911 0.9132 0.88435 0.0
H1552 H 0.80029 0.40075 0.385 0.0
H1553 H 0.76352 0.42523 0.3854 0.0
H1554 H 0.79789 0.49145 0.35977 0.0
H1555 H 0.83443 0.46699 0.35916 0.0
H1556 H 0.75355 0.47682 0.40233 0.0
H1557 H 0.74254 0.47285 0.32343 0.0
H1558 H 0.76183 0.45121 0.33623 0.0
H1559 H 0.77036 0.48436 0.33148 0.0
C1560 C 0.79986 0.42058 0.37955 0.0
C1561 C 0.81996 0.43212 0.37204 0.0
C1562 C 0.77901 0.43449 0.37982 0.0
C1563 C 0.77808 0.45996 0.37243 0.0
C1564 C 0.7983 0.47169 0.36535 0.0
H1565 H 0.67392 0.58097 0.38039 0.0
H1566 H 0.70909 0.55405 0.38305 0.0
C1567 C 0.81911 0.45783 0.36512 0.0
C1568 C 0.75589 0.47422 0.37167 0.0
H1569 H 0.71697 0.50072 0.3405 0.0
C1570 C 0.74543 0.48197 0.38885 0.0
C1571 C 0.74533 0.48054 0.35403 0.0
C1572 C 0.75543 0.47165 0.33522 0.0
C1573 C 0.72484 0.49657 0.38882 0.0
C1574 C 0.71475 0.50372 0.37115 0.0
C1575 C 0.72493 0.49538 0.354 0.0
C1576 C 0.69355 0.51979 0.37007 0.0
C1577 C 0.71394 0.50407 0.40765 0.0
C1578 C 0.67349 0.50955 0.36152 0.0
C1579 C 0.6536 0.52491 0.35988 0.0
C1580 C 0.65357 0.5507 0.3667 0.0
C1581 C 0.67367 0.56106 0.3751 0.0
C1582 C 0.69359 0.54568 0.37676 0.0
H1583 H 0.72055 0.49185 0.4196 0.0
H1584 H 0.71814 0.52479 0.41088 0.0
H1585 H 0.69476 0.50215 0.40699 0.0
H1586 H 0.67324 0.48969 0.35612 0.0
H1587 H 0.63828 0.51672 0.35317 0.0
H1588 H 0.30502 0.5649 0.14377 0.0
H1589 H 0.27457 0.53212 0.13884 0.0
H1590 H 0.28367 0.53807 0.0778 0.0
H1591 H 0.3142 0.5711 0.08271 0.0
H1592 H 0.23429 0.53653 0.09428 0.0
H1593 H 0.29327 0.45659 0.11725 0.0
H1594 H 0.29287 0.48487 0.13256 0.0
H1595 H 0.30371 0.48775 0.10859 0.0
C1596 C 0.30012 0.55962 0.12932 0.0
C1597 C 0.31178 0.57032 0.11359 0.0
C1598 C 0.28295 0.54081 0.12653 0.0
C1599 C 0.27727 0.53254 0.10799 0.0
C1600 C 0.28803 0.54419 0.09219 0.0
H1601 H 0.16487 0.41997 0.08523 0.0
H1602 H 0.19893 0.44753 0.07871 0.0
C1603 C 0.30531 0.56298 0.09499 0.0
C1604 C 0.26066 0.51098 0.10539 0.0
H1605 H 0.25288 0.44654 0.11605 0.0
C1606 C 0.23836 0.5167 0.09866 0.0
C1607 C 0.26629 0.48524 0.11103 0.0
C1608 C 0.2904 0.47807 0.11762 0.0
C1609 C 0.22092 0.49757 0.09865 0.0
C1610 C 0.22625 0.4721 0.10526 0.0
C1611 C 0.24893 0.4661 0.11101 0.0
C1612 C 0.20791 0.45252 0.10854 0.0
C1613 C 0.19665 0.50513 0.09271 0.0
C1614 C 0.20251 0.44532 0.12737 0.0
C1615 C 0.18328 0.42961 0.13106 0.0
C1616 C 0.16928 0.42086 0.11597 0.0
C1617 C 0.17546 0.42674 0.09705 0.0
C1618 C 0.19475 0.44248 0.09334 0.0
H1619 H 0.19473 0.5266 0.09086 0.0
H1620 H 0.19239 0.49556 0.0789 0.0
H1621 H 0.18382 0.49839 0.10347 0.0
H1622 H 0.21252 0.45289 0.13926 0.0
H1623 H 0.17868 0.42544 0.14576 0.0
H1624 H 0.3429 0.46874 0.63972 0.0
H1625 H 0.30952 0.49833 0.63748 0.0
H1626 H 0.27072 0.43861 0.60779 0.0
H1627 H 0.30425 0.40897 0.60991 0.0
H1628 H 0.27048 0.49315 0.59132 0.0
H1629 H 0.24753 0.4862 0.66849 0.0
H1630 H 0.27741 0.49298 0.66294 0.0
H1631 H 0.26511 0.46193 0.65658 0.0
C1632 C 0.32723 0.46206 0.63267 0.0
C1633 C 0.32591 0.43676 0.62497 0.0
C1634 C 0.30827 0.47886 0.63144 0.0
C1635 C 0.28779 0.4705 0.62253 0.0
C1636 C 0.28648 0.44529 0.61469 0.0
H1637 H 0.14986 0.53028 0.6276 0.0
H1638 H 0.18525 0.50408 0.6259 0.0
C1639 C 0.30546 0.42842 0.61599 0.0
C1640 C 0.26754 0.48796 0.62176 0.0
H1641 H 0.2258 0.5156 0.64969 0.0
C1642 C 0.26068 0.49817 0.60403 0.0
C1643 C 0.25494 0.49425 0.63844 0.0
C1644 C 0.26143 0.48319 0.65771 0.0
C1645 C 0.24131 0.51464 0.60256 0.0
C1646 C 0.22873 0.52091 0.61926 0.0
C1647 C 0.23568 0.51077 0.63697 0.0
C1648 C 0.20742 0.53672 0.61862 0.0
C1649 C 0.23405 0.52474 0.58321 0.0
C1650 C 0.20833 0.56367 0.61495 0.0
C1651 C 0.18808 0.57867 0.61585 0.0
C1652 C 0.16686 0.56678 0.62041 0.0
C1653 C 0.16601 0.53976 0.62377 0.0
C1654 C 0.18616 0.52484 0.62291 0.0
H1655 H 0.24373 0.51516 0.5714 0.0
H1656 H 0.21518 0.52156 0.58098 0.0
H1657 H 0.23731 0.54611 0.58252 0.0
H1658 H 0.22471 0.57314 0.61185 0.0
H1659 H 0.18901 0.59954 0.61328 0.0
H1660 H 0.64034 0.4742 0.86797 0.0
H1661 H 0.67347 0.50417 0.86981 0.0
H1662 H 0.71574 0.44227 0.89307 0.0
H1663 H 0.68243 0.41228 0.89153 0.0
H1664 H 0.71993 0.49495 0.91134 0.0
H1665 H 0.72947 0.49398 0.83209 0.0
H1666 H 0.7011 0.50148 0.84127 0.0
H1667 H 0.71306 0.46944 0.84478 0.0
C1668 C 0.65663 0.46717 0.87373 0.0
C1669 C 0.65904 0.44105 0.87956 0.0
C1670 C 0.67548 0.48421 0.8747 0.0
C1671 C 0.69696 0.47528 0.88144 0.0
C1672 C 0.69922 0.44941 0.88784 0.0
H1673 H 0.83544 0.52705 0.86412 0.0
H1674 H 0.79863 0.50373 0.86784 0.0
C1675 C 0.68034 0.43234 0.88685 0.0
C1676 C 0.71746 0.49243 0.88068 0.0
H1677 H 0.75539 0.52049 0.84947 0.0
C1678 C 0.72766 0.50073 0.89786 0.0
C1679 C 0.72741 0.49967 0.86301 0.0
C1680 C 0.71737 0.4906 0.8442 0.0
C1681 C 0.74786 0.51605 0.89779 0.0
C1682 C 0.75787 0.52312 0.88011 0.0
C1683 C 0.74748 0.51507 0.86297 0.0
C1684 C 0.78009 0.53722 0.87899 0.0
C1685 C 0.75881 0.52392 0.91652 0.0
C1686 C 0.78167 0.56372 0.88403 0.0
C1687 C 0.8027 0.57704 0.88192 0.0
C1688 C 0.82224 0.56392 0.8748 0.0
C1689 C 0.8206 0.5374 0.86986 0.0
C1690 C 0.79965 0.52416 0.87191 0.0
H1691 H 0.75056 0.51403 0.92891 0.0
H1692 H 0.77762 0.51922 0.91646 0.0
H1693 H 0.75707 0.54538 0.91846 0.0
H1694 H 0.7666 0.57412 0.88929 0.0
H1695 H 0.80371 0.59755 0.88576 0.0
H1696 H 0.08813 0.19561 0.38674 0.0
H1697 H 0.06551 0.23377 0.39642 0.0
H1698 H 0.00796 0.18352 0.41084 0.0
H1699 H 0.03081 0.14534 0.40205 0.0
H1700 H 0.02959 0.2456 0.37617 0.0
H1701 H -0.00014 0.23816 0.4509 0.0
H1702 H 0.02353 0.21866 0.44177 0.0
H1703 H -0.00611 0.20838 0.4383 0.0
C1704 C 0.07094 0.19266 0.39261 0.0
C1705 C 0.0611 0.16755 0.39336 0.0
C1706 C 0.05805 0.21447 0.39819 0.0
C1707 C 0.03501 0.21158 0.40437 0.0
C1708 C 0.02583 0.18632 0.40655 0.0
H1709 H 0.91732 0.2977 0.37119 0.0
H1710 H 0.94513 0.26493 0.38216 0.0
C1711 C 0.03888 0.16445 0.40131 0.0
C1712 C 0.01933 0.23457 0.40471 0.0
H1713 H 0.97495 0.26335 0.42938 0.0
C1714 C 0.01808 0.2498 0.38804 0.0
C1715 C 0.00418 0.2401 0.42013 0.0
C1716 C 0.00562 0.22559 0.43884 0.0
C1717 C 0.00144 0.26946 0.38599 0.0
C1718 C 0.98538 0.2738 0.40085 0.0
C1719 C 0.98716 0.25958 0.41792 0.0
C1720 C 0.96613 0.29236 0.39812 0.0
C1721 C 0.00055 0.28494 0.36763 0.0
C1722 C 0.96848 0.31839 0.40403 0.0
C1723 C 0.9527 0.33724 0.39772 0.0
C1724 C 0.93441 0.33028 0.38533 0.0
C1725 C 0.93127 0.30379 0.38058 0.0
C1726 C 0.94705 0.28499 0.38691 0.0
H1727 H 0.01608 0.28157 0.35856 0.0
H1728 H 0.98491 0.2792 0.35936 0.0
H1729 H -0.0008 0.30618 0.37077 0.0
H1730 H 0.98326 0.32437 0.41257 0.0
H1731 H 0.95559 0.35743 0.40173 0.0
H1732 H 0.40479 0.80551 0.38899 0.0
H1733 H 0.42511 0.76733 0.40171 0.0
H1734 H 0.48747 0.81348 0.40776 0.0
H1735 H 0.46681 0.85188 0.3963 0.0
H1736 H 0.45673 0.74652 0.38246 0.0
H1737 H 0.49658 0.76766 0.45223 0.0
H1738 H 0.47391 0.78801 0.44243 0.0
H1739 H 0.50388 0.79347 0.43606 0.0
C1740 C 0.42262 0.80763 0.39367 0.0
C1741 C 0.43434 0.83149 0.39147 0.0
C1742 C 0.43421 0.78586 0.40099 0.0
C1743 C 0.45787 0.78742 0.4058 0.0
C1744 C 0.46912 0.81176 0.40472 0.0
H1745 H 0.56886 0.69401 0.37489 0.0
H1746 H 0.54377 0.7282 0.38783 0.0
C1747 C 0.45734 0.83371 0.39791 0.0
C1748 C 0.47175 0.76316 0.408 0.0
H1749 H 0.51831 0.73705 0.43156 0.0
C1750 C 0.46966 0.74415 0.3936 0.0
C1751 C 0.48876 0.7599 0.42246 0.0
C1752 C 0.49069 0.77828 0.43925 0.0
C1753 C 0.48499 0.72305 0.39249 0.0
C1754 C 0.50307 0.721 0.40602 0.0
C1755 C 0.50453 0.739 0.42109 0.0
C1756 C 0.52153 0.70149 0.40324 0.0
C1757 C 0.4826 0.70378 0.37622 0.0
C1758 C 0.51777 0.67537 0.40835 0.0
C1759 C 0.53199 0.65573 0.40092 0.0
C1760 C 0.55004 0.66202 0.38815 0.0
C1761 C 0.55497 0.68848 0.3845 0.0
C1762 C 0.54077 0.70807 0.39199 0.0
H1763 H 0.46744 0.70812 0.36693 0.0
H1764 H 0.49853 0.70407 0.36732 0.0
H1765 H 0.48061 0.68369 0.382 0.0
H1766 H 0.50286 0.67001 0.41692 0.0
H1767 H 0.52787 0.63557 0.40422 0.0
H1768 H 0.53365 0.86343 0.09933 0.0
H1769 H 0.50292 0.83359 0.08899 0.0
H1770 H 0.54096 0.76841 0.11224 0.0
H1771 H 0.57178 0.79795 0.12278 0.0
H1772 H 0.51047 0.76821 0.06969 0.0
H1773 H 0.46935 0.79298 0.13962 0.0
H1774 H 0.48399 0.8176 0.12564 0.0
H1775 H 0.50054 0.79274 0.13743 0.0
C1776 C 0.53574 0.84269 0.10194 0.0
C1777 C 0.555 0.8331 0.11219 0.0
C1778 C 0.51823 0.82571 0.09589 0.0
C1779 C 0.51982 0.79895 0.09988 0.0
C1780 C 0.53963 0.78906 0.10897 0.0
H1781 H 0.44991 0.6556 0.0996 0.0
H1782 H 0.4743 0.69249 0.09078 0.0
C1783 C 0.55712 0.806 0.11508 0.0
C1784 C 0.49951 0.78188 0.09735 0.0
H1785 H 0.45334 0.75837 0.12221 0.0
C1786 C 0.49769 0.76623 0.08096 0.0
C1787 C 0.48282 0.7798 0.11199 0.0
C1788 C 0.48406 0.79663 0.12971 0.0
C1789 C 0.47989 0.74759 0.07923 0.0
C1790 C 0.46409 0.74421 0.09453 0.0
C1791 C 0.46537 0.76093 0.11044 0.0
C1792 C 0.44782 0.72181 0.09566 0.0
C1793 C 0.47838 0.73161 0.06114 0.0
C1794 C 0.42469 0.72587 0.10125 0.0
C1795 C 0.41089 0.7048 0.10688 0.0
C1796 C 0.41991 0.67928 0.10678 0.0
C1797 C 0.44244 0.67504 0.09978 0.0
C1798 C 0.45637 0.69615 0.09451 0.0
H1799 H 0.48467 0.74301 0.04866 0.0
H1800 H 0.48967 0.71414 0.06254 0.0
H1801 H 0.46036 0.72502 0.05825 0.0
H1802 H 0.41773 0.7455 0.10229 0.0
H1803 H 0.39349 0.70862 0.11201 0.0
H1804 H 0.89521 0.19367 0.12133 0.0
H1805 H 0.9178 0.23132 0.11058 0.0
H1806 H 0.97511 0.18035 0.09692 0.0
H1807 H 0.95239 0.14265 0.10687 0.0
H1808 H 0.95469 0.24538 0.12904 0.0
H1809 H 0.98055 0.23098 0.05388 0.0
H1810 H 0.95738 0.21243 0.06475 0.0
H1811 H 0.98716 0.20236 0.06759 0.0
C1812 C 0.91241 0.19043 0.11556 0.0
C1813 C 0.92215 0.16525 0.1152 0.0
C1814 C 0.92525 0.21195 0.10934 0.0
C1815 C 0.9481 0.20869 0.10279 0.0
C1816 C 0.95734 0.18337 0.10141 0.0
H1817 H 0.0683 0.29402 0.12748 0.0
H1818 H 0.039 0.26161 0.11873 0.0
C1819 C 0.94439 0.1618 0.10735 0.0
C1820 C 0.96357 0.23165 0.1008 0.0
H1821 H 0.00684 0.25764 0.07335 0.0
C1822 C 0.96564 0.24841 0.11662 0.0
C1823 C 0.97791 0.23566 0.08463 0.0
C1824 C 0.97544 0.21952 0.0667 0.0
C1825 C 0.9825 0.26803 0.11718 0.0
C1826 C -0.00213 0.27076 0.10163 0.0
C1827 C -0.00485 0.25509 0.08534 0.0
C1828 C 0.01764 0.28886 0.10298 0.0
C1829 C 0.98447 0.28509 0.13474 0.0
C1830 C 0.01553 0.3146 0.09642 0.0
C1831 C 0.03218 0.33323 0.10144 0.0
C1832 C 0.05107 0.32634 0.1132 0.0
C1833 C 0.05389 0.30004 0.11857 0.0
C1834 C 0.03726 0.28146 0.1135 0.0
H1835 H 0.96944 0.28266 0.14451 0.0
H1836 H 0.00053 0.27997 0.14266 0.0
H1837 H 0.98575 0.30599 0.13056 0.0
H1838 H 0.00035 0.32057 0.08839 0.0
H1839 H 0.02953 0.35329 0.09698 0.0
H1840 H 0.93944 0.85172 0.59237 0.0
H1841 H 0.96513 0.81713 0.58081 0.0
H1842 H 0.93874 0.76523 0.62431 0.0
H1843 H 0.91247 0.7992 0.63536 0.0
H1844 H -0.00073 0.79758 0.59942 0.0
H1845 H 0.94222 0.71528 0.58113 0.0
H1846 H 0.93108 0.74797 0.58446 0.0
H1847 H 0.93474 0.7263 0.60461 0.0
C1848 C 0.93876 0.83273 0.59918 0.0
C1849 C 0.924 0.82821 0.61483 0.0
C1850 C 0.95342 0.81297 0.59253 0.0
C1851 C 0.95366 0.78842 0.60148 0.0
C1852 C 0.93838 0.78367 0.61672 0.0
H1853 H 0.06018 0.6956 0.64014 0.0
H1854 H 0.03493 0.73067 0.6293 0.0
C1855 C 0.9235 0.80326 0.62319 0.0
C1856 C 0.97188 0.76898 0.59686 0.0
H1857 H 0.98059 0.7032 0.59409 0.0
C1858 C -0.00484 0.77701 0.59771 0.0
C1859 C 0.96672 0.74221 0.59401 0.0
C1860 C 0.94229 0.73257 0.59077 0.0
C1861 C 0.01326 0.75874 0.59773 0.0
C1862 C 0.00786 0.73177 0.59758 0.0
C1863 C 0.98477 0.72387 0.59473 0.0
C1864 C 0.02522 0.71164 0.60277 0.0
C1865 C 0.03792 0.76858 0.59855 0.0
C1866 C 0.0279 0.68898 0.59166 0.0
C1867 C 0.04202 0.66856 0.59806 0.0
C1868 C 0.05369 0.67049 0.61568 0.0
C1869 C 0.05159 0.69357 0.62644 0.0
C1870 C 0.03729 0.71379 0.62015 0.0
H1871 H 0.03964 0.78739 0.59073 0.0
H1872 H 0.04279 0.7723 0.61366 0.0
H1873 H 0.05029 0.75426 0.59235 0.0
H1874 H 0.01865 0.68683 0.57826 0.0
H1875 H 0.04348 0.65113 0.58936 0.0
H1876 H 0.45352 0.34818 0.59166 0.0
H1877 H 0.47987 0.3133 0.5821 0.0
H1878 H 0.4339 0.25608 0.60677 0.0
H1879 H 0.40738 0.29083 0.61659 0.0
H1880 H 0.4939 0.28295 0.61755 0.0
H1881 H 0.46504 0.22117 0.55649 0.0
H1882 H 0.45792 0.25555 0.55833 0.0
H1883 H 0.4433 0.23221 0.57316 0.0
C1884 C 0.44852 0.32815 0.59448 0.0
C1885 C 0.4286 0.32233 0.60531 0.0
C1886 C 0.46357 0.30823 0.58887 0.0
C1887 C 0.45875 0.28223 0.59372 0.0
C1888 C 0.43772 0.27607 0.60271 0.0
H1889 H 0.52601 0.13873 0.6174 0.0
H1890 H 0.50051 0.17359 0.60606 0.0
C1891 C 0.4227 0.29599 0.60846 0.0
C1892 C 0.47773 0.26298 0.59399 0.0
H1893 H 0.49558 0.20449 0.57585 0.0
C1894 C 0.49459 0.26598 0.60824 0.0
C1895 C 0.47813 0.24084 0.582 0.0
C1896 C 0.46023 0.23713 0.56652 0.0
C1897 C 0.51133 0.24672 0.61152 0.0
C1898 C 0.51181 0.22432 0.5996 0.0
C1899 C 0.49532 0.22176 0.58486 0.0
C1900 C 0.5279 0.20239 0.60347 0.0
C1901 C 0.52727 0.24993 0.62854 0.0
C1902 C 0.55189 0.2067 0.60511 0.0
C1903 C 0.56634 0.18709 0.61223 0.0
C1904 C 0.55714 0.16256 0.61708 0.0
C1905 C 0.53349 0.15757 0.61389 0.0
C1906 C 0.51894 0.17741 0.60731 0.0
H1907 H 0.5205 0.26451 0.63892 0.0
H1908 H 0.52971 0.2311 0.63617 0.0
H1909 H 0.54446 0.25695 0.62359 0.0
H1910 H 0.55929 0.22555 0.6016 0.0
H1911 H 0.58464 0.19119 0.61417 0.0
H1912 H 0.42962 0.1921 0.86745 0.0
H1913 H 0.454 0.22594 0.88134 0.0
H1914 H 0.46559 0.17781 0.9311 0.0
H1915 H 0.44173 0.14322 0.91684 0.0
H1916 H 0.45491 0.25483 0.91321 0.0
H1917 H 0.53085 0.18729 0.91256 0.0
H1918 H 0.50362 0.17844 0.90169 0.0
H1919 H 0.50662 0.17832 0.92727 0.0
C1920 C 0.43705 0.18879 0.88147 0.0
C1921 C 0.4342 0.16475 0.89085 0.0
C1922 C 0.45098 0.2082 0.88944 0.0
C1923 C 0.46211 0.20416 0.90706 0.0
C1924 C 0.45776 0.18102 0.91722 0.0
H1925 H 0.54977 0.34419 0.91927 0.0
H1926 H 0.52561 0.30922 0.93257 0.0
C1927 C 0.44408 0.16133 0.90908 0.0
C1928 C 0.47969 0.22343 0.91346 0.0
H1929 H 0.53836 0.23171 0.91603 0.0
C1930 C 0.47316 0.24983 0.91427 0.0
C1931 C 0.50345 0.21671 0.91502 0.0
C1932 C 0.5117 0.18871 0.91401 0.0
C1933 C 0.4898 0.26985 0.91438 0.0
C1934 C 0.51365 0.26313 0.91445 0.0
C1935 C 0.52007 0.23673 0.91585 0.0
C1936 C 0.53177 0.28238 0.90916 0.0
C1937 C 0.48162 0.2978 0.91258 0.0
C1938 C 0.54464 0.27814 0.8924 0.0
C1939 C 0.55882 0.29777 0.88504 0.0
C1940 C 0.56012 0.32218 0.89417 0.0
C1941 C 0.54862 0.32576 0.91171 0.0
C1942 C 0.53476 0.30585 0.91928 0.0
H1943 H 0.46268 0.29912 0.90973 0.0
H1944 H 0.48523 0.30841 0.92609 0.0
H1945 H 0.49092 0.30792 0.90082 0.0
H1946 H 0.54272 0.26014 0.88436 0.0
H1947 H 0.56753 0.29437 0.87155 0.0
H1948 H 0.92109 0.69395 0.86893 0.0
H1949 H 0.94845 0.72729 0.87986 0.0
H1950 H 0.9878 0.66859 0.90987 0.0
H1951 H 0.9606 0.63496 0.89905 0.0
H1952 H 0.97729 0.72983 0.92692 0.0
H1953 H 0.02053 0.71246 0.85681 0.0
H1954 H 0.98927 0.71322 0.85725 0.0
H1955 H 0.00444 0.6872 0.86903 0.0
C1956 C 0.93527 0.68814 0.87817 0.0
C1957 C 0.93882 0.66172 0.88289 0.0
C1958 C 0.95077 0.70725 0.8845 0.0
C1959 C 0.97 0.70027 0.89565 0.0
C1960 C 0.97288 0.67426 0.90139 0.0
H1961 H 0.08754 0.80377 0.88432 0.0
H1962 H 0.0671 0.76428 0.89444 0.0
C1963 C 0.95737 0.65509 0.8951 0.0
C1964 C 0.98873 0.71941 0.89863 0.0
H1965 H 0.03229 0.74936 0.87431 0.0
C1966 C 0.98962 0.73397 0.91561 0.0
C1967 C 0.00495 0.72423 0.88398 0.0
C1968 C 0.00499 0.70843 0.86573 0.0
C1969 C 0.00581 0.75432 0.91788 0.0
C1970 C 0.02098 0.7604 0.9026 0.0
C1971 C 0.02076 0.74476 0.88608 0.0
C1972 C 0.0354 0.78442 0.90213 0.0
C1973 C 0.0063 0.76918 0.9365 0.0
C1974 C 0.02483 0.80903 0.90404 0.0
C1975 C 0.03664 0.83167 0.89858 0.0
C1976 C 0.05899 0.82996 0.89065 0.0
C1977 C 0.07021 0.8056 0.89016 0.0
C1978 C 0.05857 0.78304 0.89599 0.0
H1979 H 0.00115 0.75638 0.94861 0.0
H1980 H 0.02376 0.77741 0.93949 0.0
H1981 H -0.00637 0.78549 0.9358 0.0
H1982 H 0.00683 0.81065 0.90827 0.0
H1983 H 0.02754 0.85018 0.8991 0.0
loop_
_geom_bond_atom_site_label_1
_geom_bond_atom_site_label_2
_geom_bond_distance
_geom_bond_site_symmetry_2
_ccdc_geom_bond_type
Co0 O3 1.970 . S
Co0 N17 1.989 . S
Co0 O25 1.967 . S
Co0 O32 1.920 . S
Co1 O4 1.966 . S
Co1 N10 2.022 . S
Co1 N18 1.993 . S
Co1 O26 1.941 . S
C2 O3 1.258 . S
C2 O4 1.263 . S
O3 Co0 1.970 . S
O3 C2 1.258 . S
O4 Co1 1.966 . S
O4 C2 1.263 . S
C5 O6 1.235 . S
C5 O32 1.289 . S
O6 C5 1.235 . S
C7 C9 1.400 . S
C7 N10 1.351 . S
C7 C12 1.501 . S
C8 C9 1.387 . S
C8 N11 1.341 . S
C9 C7 1.400 . S
C9 C8 1.387 . S
N10 Co1 2.022 . S
N10 C7 1.351 . S
N10 N11 1.365 . S
N11 C8 1.341 . S
N11 N10 1.365 . S
N11 H31 0.862 . S
C12 C7 1.501 . S
C12 H13 0.961 . S
C12 H14 0.961 . S
C12 H15 0.960 . S
H13 C12 0.961 . S
H14 C12 0.961 . S
H15 C12 0.960 . S
C16 N17 1.342 . S
C16 C20 1.401 . S
C16 C21 1.499 . S
N17 Co0 1.989 . S
N17 C16 1.342 . S
N17 N18 1.388 . S
N18 Co1 1.993 . S
N18 N17 1.388 . S
N18 C19 1.346 . S
C19 N18 1.346 . S
C19 C20 1.396 . S
C19 C29 1.510 . S
C20 C16 1.401 . S
C20 C19 1.396 . S
C21 C16 1.499 . S
C21 H22 0.959 . S
C21 H23 0.960 . S
C21 H24 0.961 . S
H22 C21 0.959 . S
H23 C21 0.960 . S
H24 C21 0.961 . S
O25 Co0 1.967 . S
O25 C33 1.258 . S
O26 Co1 1.941 . S
O26 C33 1.266 . S
H27 C29 0.959 . S
H28 C29 0.961 . S
C29 C19 1.510 . S
C29 H27 0.959 . S
C29 H28 0.961 . S
C29 H30 0.960 . S
H30 C29 0.960 . S
H31 N11 0.862 . S
O32 Co0 1.920 . S
O32 C5 1.289 . S
C33 O25 1.258 . S
C33 O26 1.266 . S
Co34 O37 1.970 . S
Co34 N51 1.989 . S
Co34 O59 1.967 . S
Co34 O66 1.920 . S
Co35 O38 1.966 . S
Co35 N44 2.022 . S
Co35 N52 1.993 . S
Co35 O60 1.941 . S
C36 O37 1.258 . S
C36 O38 1.263 . S
O37 Co34 1.970 . S
O37 C36 1.258 . S
O38 Co35 1.966 . S
O38 C36 1.263 . S
C39 O40 1.235 . S
C39 O66 1.289 . S
O40 C39 1.235 . S
C41 C43 1.400 . S
C41 N44 1.351 . S
C41 C46 1.501 . S
C42 C43 1.387 . S
C42 N45 1.341 . S
C43 C41 1.400 . S
C43 C42 1.387 . S
N44 Co35 2.022 . S
N44 C41 1.351 . S
N44 N45 1.365 . S
N45 C42 1.341 . S
N45 N44 1.365 . S
N45 H65 0.862 . S
C46 C41 1.501 . S
C46 H47 0.961 . S
C46 H48 0.961 . S
C46 H49 0.960 . S
H47 C46 0.961 . S
H48 C46 0.961 . S
H49 C46 0.960 . S
C50 N51 1.342 . S
C50 C54 1.401 . S
C50 C55 1.499 . S
N51 Co34 1.989 . S
N51 C50 1.342 . S
N51 N52 1.388 . S
N52 Co35 1.993 . S
N52 N51 1.388 . S
N52 C53 1.346 . S
C53 N52 1.346 . S
C53 C54 1.396 . S
C53 C63 1.510 . S
C54 C50 1.401 . S
C54 C53 1.396 . S
C55 C50 1.499 . S
C55 H56 0.959 . S
C55 H57 0.960 . S
C55 H58 0.961 . S
H56 C55 0.959 . S
H57 C55 0.960 . S
H58 C55 0.961 . S
O59 Co34 1.967 . S
O59 C67 1.258 . S
O60 Co35 1.941 . S
O60 C67 1.266 . S
H61 C63 0.959 . S
H62 C63 0.961 . S
C63 C53 1.510 . S
C63 H61 0.959 . S
C63 H62 0.961 . S
C63 H64 0.960 . S
H64 C63 0.960 . S
H65 N45 0.862 . S
O66 Co34 1.920 . S
O66 C39 1.289 . S
C67 O59 1.258 . S
C67 O60 1.266 . S
Co68 O71 1.970 . S
Co68 N85 1.989 . S
Co68 O93 1.967 . S
Co68 O100 1.920 . S
Co69 O72 1.966 . S
Co69 N78 2.022 . S
Co69 N86 1.993 . S
Co69 O94 1.941 . S
C70 O71 1.258 . S
C70 O72 1.263 . S
O71 Co68 1.970 . S
O71 C70 1.258 . S
O72 Co69 1.966 . S
O72 C70 1.263 . S
C73 O74 1.235 . S
C73 O100 1.289 . S
O74 C73 1.235 . S
C75 C77 1.400 . S
C75 N78 1.351 . S
C75 C80 1.501 . S
C76 C77 1.387 . S
C76 N79 1.341 . S
C77 C75 1.400 . S
C77 C76 1.387 . S
N78 Co69 2.022 . S
N78 C75 1.351 . S
N78 N79 1.365 . S
N79 C76 1.341 . S
N79 N78 1.365 . S
N79 H99 0.862 . S
C80 C75 1.501 . S
C80 H81 0.961 . S
C80 H82 0.961 . S
C80 H83 0.960 . S
H81 C80 0.961 . S
H82 C80 0.961 . S
H83 C80 0.960 . S
C84 N85 1.342 . S
C84 C88 1.401 . S
C84 C89 1.499 . S
N85 Co68 1.989 . S
N85 C84 1.342 . S
N85 N86 1.388 . S
N86 Co69 1.993 . S
N86 N85 1.388 . S
N86 C87 1.346 . S
C87 N86 1.346 . S
C87 C88 1.396 . S
C87 C97 1.510 . S
C88 C84 1.401 . S
C88 C87 1.396 . S
C89 C84 1.499 . S
C89 H90 0.959 . S
C89 H91 0.960 . S
C89 H92 0.961 . S
H90 C89 0.959 . S
H91 C89 0.960 . S
H92 C89 0.961 . S
O93 Co68 1.967 . S
O93 C101 1.258 . S
O94 Co69 1.941 . S
O94 C101 1.266 . S
H95 C97 0.959 . S
H96 C97 0.961 . S
C97 C87 1.510 . S
C97 H95 0.959 . S
C97 H96 0.961 . S
C97 H98 0.960 . S
H98 C97 0.960 . S
H99 N79 0.862 . S
O100 Co68 1.920 . S
O100 C73 1.289 . S
C101 O93 1.258 . S
C101 O94 1.266 . S
Co102 O105 1.970 . S
Co102 N119 1.989 . S
Co102 O127 1.967 . S
Co102 O134 1.920 . S
Co103 O106 1.966 . S
Co103 N112 2.022 . S
Co103 N120 1.993 . S
Co103 O128 1.941 . S
C104 O105 1.258 . S
C104 O106 1.263 . S
O105 Co102 1.970 . S
O105 C104 1.258 . S
O106 Co103 1.966 . S
O106 C104 1.263 . S
C107 O108 1.235 . S
C107 O134 1.289 . S
O108 C107 1.235 . S
C109 C111 1.400 . S
C109 N112 1.351 . S
C109 C114 1.501 . S
C110 C111 1.387 . S
C110 N113 1.341 . S
C111 C109 1.400 . S
C111 C110 1.387 . S
N112 Co103 2.022 . S
N112 C109 1.351 . S
N112 N113 1.365 . S
N113 C110 1.341 . S
N113 N112 1.365 . S
N113 H133 0.862 . S
C114 C109 1.501 . S
C114 H115 0.961 . S
C114 H116 0.961 . S
C114 H117 0.960 . S
H115 C114 0.961 . S
H116 C114 0.961 . S
H117 C114 0.960 . S
C118 N119 1.342 . S
C118 C122 1.401 . S
C118 C123 1.499 . S
N119 Co102 1.989 . S
N119 C118 1.342 . S
N119 N120 1.388 . S
N120 Co103 1.993 . S
N120 N119 1.388 . S
N120 C121 1.346 . S
C121 N120 1.346 . S
C121 C122 1.396 . S
C121 C131 1.510 . S
C122 C118 1.401 . S
C122 C121 1.396 . S
C123 C118 1.499 . S
C123 H124 0.959 . S
C123 H125 0.960 . S
C123 H126 0.961 . S
H124 C123 0.959 . S
H125 C123 0.960 . S
H126 C123 0.961 . S
O127 Co102 1.967 . S
O127 C135 1.258 . S
O128 Co103 1.941 . S
O128 C135 1.266 . S
H129 C131 0.959 . S
H130 C131 0.961 . S
C131 C121 1.510 . S
C131 H129 0.959 . S
C131 H130 0.961 . S
C131 H132 0.960 . S
H132 C131 0.960 . S
H133 N113 0.862 . S
O134 Co102 1.920 . S
O134 C107 1.289 . S
C135 O127 1.258 . S
C135 O128 1.266 . S
Co136 O139 1.970 . S
Co136 N153 1.989 . S
Co136 O161 1.967 . S
Co136 O168 1.920 . S
Co137 O140 1.966 . S
Co137 N146 2.022 . S
Co137 N154 1.993 . S
Co137 O162 1.941 . S
C138 O139 1.258 . S
C138 O140 1.263 . S
O139 Co136 1.970 . S
O139 C138 1.258 . S
O140 Co137 1.966 . S
O140 C138 1.263 . S
C141 O142 1.235 . S
C141 O168 1.289 . S
O142 C141 1.235 . S
C143 C145 1.400 . S
C143 N146 1.351 . S
C143 C148 1.501 . S
C144 C145 1.387 . S
C144 N147 1.341 . S
C145 C143 1.400 . S
C145 C144 1.387 . S
N146 Co137 2.022 . S
N146 C143 1.351 . S
N146 N147 1.365 . S
N147 C144 1.341 . S
N147 N146 1.365 . S
N147 H167 0.862 . S
C148 C143 1.501 . S
C148 H149 0.961 . S
C148 H150 0.961 . S
C148 H151 0.960 . S
H149 C148 0.961 . S
H150 C148 0.961 . S
H151 C148 0.960 . S
C152 N153 1.342 . S
C152 C156 1.401 . S
C152 C157 1.499 . S
N153 Co136 1.989 . S
N153 C152 1.342 . S
N153 N154 1.388 . S
N154 Co137 1.993 . S
N154 N153 1.388 . S
N154 C155 1.346 . S
C155 N154 1.346 . S
C155 C156 1.396 . S
C155 C165 1.510 . S
C156 C152 1.401 . S
C156 C155 1.396 . S
C157 C152 1.499 . S
C157 H158 0.959 . S
C157 H159 0.960 . S
C157 H160 0.961 . S
H158 C157 0.959 . S
H159 C157 0.960 . S
H160 C157 0.961 . S
O161 Co136 1.967 . S
O161 C169 1.258 . S
O162 Co137 1.941 . S
O162 C169 1.266 . S
H163 C165 0.959 . S
H164 C165 0.961 . S
C165 C155 1.510 . S
C165 H163 0.959 . S
C165 H164 0.961 . S
C165 H166 0.960 . S
H166 C165 0.960 . S
H167 N147 0.862 . S
O168 Co136 1.920 . S
O168 C141 1.289 . S
C169 O161 1.258 . S
C169 O162 1.266 . S
Co170 O173 1.970 . S
Co170 N187 1.989 . S
Co170 O195 1.967 . S
Co170 O202 1.920 . S
Co171 O174 1.966 . S
Co171 N180 2.022 . S
Co171 N188 1.993 . S
Co171 O196 1.941 . S
C172 O173 1.258 . S
C172 O174 1.263 . S
O173 Co170 1.970 . S
O173 C172 1.258 . S
O174 Co171 1.966 . S
O174 C172 1.263 . S
C175 O176 1.235 . S
C175 O202 1.289 . S
O176 C175 1.235 . S
C177 C179 1.400 . S
C177 N180 1.351 . S
C177 C182 1.501 . S
C178 C179 1.387 . S
C178 N181 1.341 . S
C179 C177 1.400 . S
C179 C178 1.387 . S
N180 Co171 2.022 . S
N180 C177 1.351 . S
N180 N181 1.365 . S
N181 C178 1.341 . S
N181 N180 1.365 . S
N181 H201 0.862 . S
C182 C177 1.501 . S
C182 H183 0.961 . S
C182 H184 0.961 . S
C182 H185 0.960 . S
H183 C182 0.961 . S
H184 C182 0.961 . S
H185 C182 0.960 . S
C186 N187 1.342 . S
C186 C190 1.401 . S
C186 C191 1.499 . S
N187 Co170 1.989 . S
N187 C186 1.342 . S
N187 N188 1.388 . S
N188 Co171 1.993 . S
N188 N187 1.388 . S
N188 C189 1.346 . S
C189 N188 1.346 . S
C189 C190 1.396 . S
C189 C199 1.510 . S
C190 C186 1.401 . S
C190 C189 1.396 . S
C191 C186 1.499 . S
C191 H192 0.959 . S
C191 H193 0.960 . S
C191 H194 0.961 . S
H192 C191 0.959 . S
H193 C191 0.960 . S
H194 C191 0.961 . S
O195 Co170 1.967 . S
O195 C203 1.258 . S
O196 Co171 1.941 . S
O196 C203 1.266 . S
H197 C199 0.959 . S
H198 C199 0.961 . S
C199 C189 1.510 . S
C199 H197 0.959 . S
C199 H198 0.961 . S
C199 H200 0.960 . S
H200 C199 0.960 . S
H201 N181 0.862 . S
O202 Co170 1.920 . S
O202 C175 1.289 . S
C203 O195 1.258 . S
C203 O196 1.266 . S
Co204 O207 1.970 . S
Co204 N221 1.989 . S
Co204 O229 1.967 . S
Co204 O236 1.920 . S
Co205 O208 1.966 . S
Co205 N214 2.022 . S
Co205 N222 1.993 . S
Co205 O230 1.941 . S
C206 O207 1.258 . S
C206 O208 1.263 . S
O207 Co204 1.970 . S
O207 C206 1.258 . S
O208 Co205 1.966 . S
O208 C206 1.263 . S
C209 O210 1.235 . S
C209 O236 1.289 . S
O210 C209 1.235 . S
C211 C213 1.400 . S
C211 N214 1.351 . S
C211 C216 1.501 . S
C212 C213 1.387 . S
C212 N215 1.341 . S
C213 C211 1.400 . S
C213 C212 1.387 . S
N214 Co205 2.022 . S
N214 C211 1.351 . S
N214 N215 1.365 . S
N215 C212 1.341 . S
N215 N214 1.365 . S
N215 H235 0.862 . S
C216 C211 1.501 . S
C216 H217 0.961 . S
C216 H218 0.961 . S
C216 H219 0.960 . S
H217 C216 0.961 . S
H218 C216 0.961 . S
H219 C216 0.960 . S
C220 N221 1.342 . S
C220 C224 1.401 . S
C220 C225 1.499 . S
N221 Co204 1.989 . S
N221 C220 1.342 . S
N221 N222 1.388 . S
N222 Co205 1.993 . S
N222 N221 1.388 . S
N222 C223 1.346 . S
C223 N222 1.346 . S
C223 C224 1.396 . S
C223 C233 1.510 . S
C224 C220 1.401 . S
C224 C223 1.396 . S
C225 C220 1.499 . S
C225 H226 0.959 . S
C225 H227 0.960 . S
C225 H228 0.961 . S
H226 C225 0.959 . S
H227 C225 0.960 . S
H228 C225 0.961 . S
O229 Co204 1.967 . S
O229 C237 1.258 . S
O230 Co205 1.941 . S
O230 C237 1.266 . S
H231 C233 0.959 . S
H232 C233 0.961 . S
C233 C223 1.510 . S
C233 H231 0.959 . S
C233 H232 0.961 . S
C233 H234 0.960 . S
H234 C233 0.960 . S
H235 N215 0.862 . S
O236 Co204 1.920 . S
O236 C209 1.289 . S
C237 O229 1.258 . S
C237 O230 1.266 . S
Co238 O241 1.970 . S
Co238 N255 1.989 . S
Co238 O263 1.967 . S
Co238 O270 1.920 . S
Co239 O242 1.966 . S
Co239 N248 2.022 . S
Co239 N256 1.993 . S
Co239 O264 1.941 . S
C240 O241 1.258 . S
C240 O242 1.263 . S
O241 Co238 1.970 . S
O241 C240 1.258 . S
O242 Co239 1.966 . S
O242 C240 1.263 . S
C243 O244 1.235 . S
C243 O270 1.289 . S
O244 C243 1.235 . S
C245 C247 1.400 . S
C245 N248 1.351 . S
C245 C250 1.501 . S
C246 C247 1.387 . S
C246 N249 1.341 . S
C247 C245 1.400 . S
C247 C246 1.387 . S
N248 Co239 2.022 . S
N248 C245 1.351 . S
N248 N249 1.365 . S
N249 C246 1.341 . S
N249 N248 1.365 . S
N249 H269 0.862 . S
C250 C245 1.501 . S
C250 H251 0.961 . S
C250 H252 0.961 . S
C250 H253 0.960 . S
H251 C250 0.961 . S
H252 C250 0.961 . S
H253 C250 0.960 . S
C254 N255 1.342 . S
C254 C258 1.401 . S
C254 C259 1.499 . S
N255 Co238 1.989 . S
N255 C254 1.342 . S
N255 N256 1.388 . S
N256 Co239 1.993 . S
N256 N255 1.388 . S
N256 C257 1.346 . S
C257 N256 1.346 . S
C257 C258 1.396 . S
C257 C267 1.510 . S
C258 C254 1.401 . S
C258 C257 1.396 . S
C259 C254 1.499 . S
C259 H260 0.959 . S
C259 H261 0.960 . S
C259 H262 0.961 . S
H260 C259 0.959 . S
H261 C259 0.960 . S
H262 C259 0.961 . S
O263 Co238 1.967 . S
O263 C271 1.258 . S
O264 Co239 1.941 . S
O264 C271 1.266 . S
H265 C267 0.959 . S
H266 C267 0.961 . S
C267 C257 1.510 . S
C267 H265 0.959 . S
C267 H266 0.961 . S
C267 H268 0.960 . S
H268 C267 0.960 . S
H269 N249 0.862 . S
O270 Co238 1.920 . S
O270 C243 1.289 . S
C271 O263 1.258 . S
C271 O264 1.266 . S
Co272 O275 1.970 . S
Co272 N289 1.989 . S
Co272 O297 1.967 . S
Co272 O304 1.920 . S
Co273 O276 1.966 . S
Co273 N282 2.022 . S
Co273 N290 1.993 . S
Co273 O298 1.941 . S
C274 O275 1.258 . S
C274 O276 1.263 . S
O275 Co272 1.970 . S
O275 C274 1.258 . S
O276 Co273 1.966 . S
O276 C274 1.263 . S
C277 O278 1.235 . S
C277 O304 1.289 . S
O278 C277 1.235 . S
C279 C281 1.400 . S
C279 N282 1.351 . S
C279 C284 1.501 . S
C280 C281 1.387 . S
C280 N283 1.341 . S
C281 C279 1.400 . S
C281 C280 1.387 . S
N282 Co273 2.022 . S
N282 C279 1.351 . S
N282 N283 1.365 . S
N283 C280 1.341 . S
N283 N282 1.365 . S
N283 H303 0.862 . S
C284 C279 1.501 . S
C284 H285 0.961 . S
C284 H286 0.961 . S
C284 H287 0.960 . S
H285 C284 0.961 . S
H286 C284 0.961 . S
H287 C284 0.960 . S
C288 N289 1.342 . S
C288 C292 1.401 . S
C288 C293 1.499 . S
N289 Co272 1.989 . S
N289 C288 1.342 . S
N289 N290 1.388 . S
N290 Co273 1.993 . S
N290 N289 1.388 . S
N290 C291 1.346 . S
C291 N290 1.346 . S
C291 C292 1.396 . S
C291 C301 1.510 . S
C292 C288 1.401 . S
C292 C291 1.396 . S
C293 C288 1.499 . S
C293 H294 0.959 . S
C293 H295 0.960 . S
C293 H296 0.961 . S
H294 C293 0.959 . S
H295 C293 0.960 . S
H296 C293 0.961 . S
O297 Co272 1.967 . S
O297 C305 1.258 . S
O298 Co273 1.941 . S
O298 C305 1.266 . S
H299 C301 0.959 . S
H300 C301 0.961 . S
C301 C291 1.510 . S
C301 H299 0.959 . S
C301 H300 0.961 . S
C301 H302 0.960 . S
H302 C301 0.960 . S
H303 N283 0.862 . S
O304 Co272 1.920 . S
O304 C277 1.289 . S
C305 O297 1.258 . S
C305 O298 1.266 . S
Co306 O309 1.970 . S
Co306 N323 1.989 . S
Co306 O331 1.967 . S
Co306 O338 1.920 . S
Co307 O310 1.966 . S
Co307 N316 2.022 . S
Co307 N324 1.993 . S
Co307 O332 1.941 . S
C308 O309 1.258 . S
C308 O310 1.263 . S
O309 Co306 1.970 . S
O309 C308 1.258 . S
O310 Co307 1.966 . S
O310 C308 1.263 . S
C311 O312 1.235 . S
C311 O338 1.289 . S
O312 C311 1.235 . S
C313 C315 1.400 . S
C313 N316 1.351 . S
C313 C318 1.501 . S
C314 C315 1.387 . S
C314 N317 1.341 . S
C315 C313 1.400 . S
C315 C314 1.387 . S
N316 Co307 2.022 . S
N316 C313 1.351 . S
N316 N317 1.365 . S
N317 C314 1.341 . S
N317 N316 1.365 . S
N317 H337 0.862 . S
C318 C313 1.501 . S
C318 H319 0.961 . S
C318 H320 0.961 . S
C318 H321 0.960 . S
H319 C318 0.961 . S
H320 C318 0.961 . S
H321 C318 0.960 . S
C322 N323 1.342 . S
C322 C326 1.401 . S
C322 C327 1.499 . S
N323 Co306 1.989 . S
N323 C322 1.342 . S
N323 N324 1.388 . S
N324 Co307 1.993 . S
N324 N323 1.388 . S
N324 C325 1.346 . S
C325 N324 1.346 . S
C325 C326 1.396 . S
C325 C335 1.510 . S
C326 C322 1.401 . S
C326 C325 1.396 . S
C327 C322 1.499 . S
C327 H328 0.959 . S
C327 H329 0.960 . S
C327 H330 0.961 . S
H328 C327 0.959 . S
H329 C327 0.960 . S
H330 C327 0.961 . S
O331 Co306 1.967 . S
O331 C339 1.258 . S
O332 Co307 1.941 . S
O332 C339 1.266 . S
H333 C335 0.959 . S
H334 C335 0.961 . S
C335 C325 1.510 . S
C335 H333 0.959 . S
C335 H334 0.961 . S
C335 H336 0.960 . S
H336 C335 0.960 . S
H337 N317 0.862 . S
O338 Co306 1.920 . S
O338 C311 1.289 . S
C339 O331 1.258 . S
C339 O332 1.266 . S
Co340 O343 1.970 . S
Co340 N357 1.989 . S
Co340 O365 1.967 . S
Co340 O372 1.920 . S
Co341 O344 1.966 . S
Co341 N350 2.022 . S
Co341 N358 1.993 . S
Co341 O366 1.941 . S
C342 O343 1.258 . S
C342 O344 1.263 . S
O343 Co340 1.970 . S
O343 C342 1.258 . S
O344 Co341 1.966 . S
O344 C342 1.263 . S
C345 O346 1.235 . S
C345 O372 1.289 . S
O346 C345 1.235 . S
C347 C349 1.400 . S
C347 N350 1.351 . S
C347 C352 1.501 . S
C348 C349 1.387 . S
C348 N351 1.341 . S
C349 C347 1.400 . S
C349 C348 1.387 . S
N350 Co341 2.022 . S
N350 C347 1.351 . S
N350 N351 1.365 . S
N351 C348 1.341 . S
N351 N350 1.365 . S
N351 H371 0.862 . S
C352 C347 1.501 . S
C352 H353 0.961 . S
C352 H354 0.961 . S
C352 H355 0.960 . S
H353 C352 0.961 . S
H354 C352 0.961 . S
H355 C352 0.960 . S
C356 N357 1.342 . S
C356 C360 1.401 . S
C356 C361 1.499 . S
N357 Co340 1.989 . S
N357 C356 1.342 . S
N357 N358 1.388 . S
N358 Co341 1.993 . S
N358 N357 1.388 . S
N358 C359 1.346 . S
C359 N358 1.346 . S
C359 C360 1.396 . S
C359 C369 1.510 . S
C360 C356 1.401 . S
C360 C359 1.396 . S
C361 C356 1.499 . S
C361 H362 0.959 . S
C361 H363 0.960 . S
C361 H364 0.961 . S
H362 C361 0.959 . S
H363 C361 0.960 . S
H364 C361 0.961 . S
O365 Co340 1.967 . S
O365 C373 1.258 . S
O366 Co341 1.941 . S
O366 C373 1.266 . S
H367 C369 0.959 . S
H368 C369 0.961 . S
C369 C359 1.510 . S
C369 H367 0.959 . S
C369 H368 0.961 . S
C369 H370 0.960 . S
H370 C369 0.960 . S
H371 N351 0.862 . S
O372 Co340 1.920 . S
O372 C345 1.289 . S
C373 O365 1.258 . S
C373 O366 1.266 . S
Co374 O377 1.970 . S
Co374 N391 1.989 . S
Co374 O399 1.967 . S
Co374 O406 1.920 . S
Co375 O378 1.966 . S
Co375 N384 2.022 . S
Co375 N392 1.993 . S
Co375 O400 1.941 . S
C376 O377 1.258 . S
C376 O378 1.263 . S
O377 Co374 1.970 . S
O377 C376 1.258 . S
O378 Co375 1.966 . S
O378 C376 1.263 . S
C379 O380 1.235 . S
C379 O406 1.289 . S
O380 C379 1.235 . S
C381 C383 1.400 . S
C381 N384 1.351 . S
C381 C386 1.501 . S
C382 C383 1.387 . S
C382 N385 1.341 . S
C383 C381 1.400 . S
C383 C382 1.387 . S
N384 Co375 2.022 . S
N384 C381 1.351 . S
N384 N385 1.365 . S
N385 C382 1.341 . S
N385 N384 1.365 . S
N385 H405 0.862 . S
C386 C381 1.501 . S
C386 H387 0.961 . S
C386 H388 0.961 . S
C386 H389 0.960 . S
H387 C386 0.961 . S
H388 C386 0.961 . S
H389 C386 0.960 . S
C390 N391 1.342 . S
C390 C394 1.401 . S
C390 C395 1.499 . S
N391 Co374 1.989 . S
N391 C390 1.342 . S
N391 N392 1.388 . S
N392 Co375 1.993 . S
N392 N391 1.388 . S
N392 C393 1.346 . S
C393 N392 1.346 . S
C393 C394 1.396 . S
C393 C403 1.510 . S
C394 C390 1.401 . S
C394 C393 1.396 . S
C395 C390 1.499 . S
C395 H396 0.959 . S
C395 H397 0.960 . S
C395 H398 0.961 . S
H396 C395 0.959 . S
H397 C395 0.960 . S
H398 C395 0.961 . S
O399 Co374 1.967 . S
O399 C407 1.258 . S
O400 Co375 1.941 . S
O400 C407 1.266 . S
H401 C403 0.959 . S
H402 C403 0.961 . S
C403 C393 1.510 . S
C403 H401 0.959 . S
C403 H402 0.961 . S
C403 H404 0.960 . S
H404 C403 0.960 . S
H405 N385 0.862 . S
O406 Co374 1.920 . S
O406 C379 1.289 . S
C407 O399 1.258 . S
C407 O400 1.266 . S
Co408 O411 1.970 . S
Co408 N425 1.989 . S
Co408 O433 1.967 . S
Co408 O440 1.920 . S
Co409 O412 1.966 . S
Co409 N418 2.022 . S
Co409 N426 1.993 . S
Co409 O434 1.941 . S
C410 O411 1.258 . S
C410 O412 1.263 . S
O411 Co408 1.970 . S
O411 C410 1.258 . S
O412 Co409 1.966 . S
O412 C410 1.263 . S
C413 O414 1.235 . S
C413 O440 1.289 . S
O414 C413 1.235 . S
C415 C417 1.400 . S
C415 N418 1.351 . S
C415 C420 1.501 . S
C416 C417 1.387 . S
C416 N419 1.341 . S
C417 C415 1.400 . S
C417 C416 1.387 . S
N418 Co409 2.022 . S
N418 C415 1.351 . S
N418 N419 1.365 . S
N419 C416 1.341 . S
N419 N418 1.365 . S
N419 H439 0.862 . S
C420 C415 1.501 . S
C420 H421 0.961 . S
C420 H422 0.961 . S
C420 H423 0.960 . S
H421 C420 0.961 . S
H422 C420 0.961 . S
H423 C420 0.960 . S
C424 N425 1.342 . S
C424 C428 1.401 . S
C424 C429 1.499 . S
N425 Co408 1.989 . S
N425 C424 1.342 . S
N425 N426 1.388 . S
N426 Co409 1.993 . S
N426 N425 1.388 . S
N426 C427 1.346 . S
C427 N426 1.346 . S
C427 C428 1.396 . S
C427 C437 1.510 . S
C428 C424 1.401 . S
C428 C427 1.396 . S
C429 C424 1.499 . S
C429 H430 0.959 . S
C429 H431 0.960 . S
C429 H432 0.961 . S
H430 C429 0.959 . S
H431 C429 0.960 . S
H432 C429 0.961 . S
O433 Co408 1.967 . S
O433 C441 1.258 . S
O434 Co409 1.941 . S
O434 C441 1.266 . S
H435 C437 0.959 . S
H436 C437 0.961 . S
C437 C427 1.510 . S
C437 H435 0.959 . S
C437 H436 0.961 . S
C437 H438 0.960 . S
H438 C437 0.960 . S
H439 N419 0.862 . S
O440 Co408 1.920 . S
O440 C413 1.289 . S
C441 O433 1.258 . S
C441 O434 1.266 . S
Co442 O445 1.970 . S
Co442 N459 1.989 . S
Co442 O467 1.967 . S
Co442 O474 1.920 . S
Co443 O446 1.966 . S
Co443 N452 2.022 . S
Co443 N460 1.993 . S
Co443 O468 1.941 . S
C444 O445 1.258 . S
C444 O446 1.263 . S
O445 Co442 1.970 . S
O445 C444 1.258 . S
O446 Co443 1.966 . S
O446 C444 1.263 . S
C447 O448 1.235 . S
C447 O474 1.289 . S
O448 C447 1.235 . S
C449 C451 1.400 . S
C449 N452 1.351 . S
C449 C454 1.501 . S
C450 C451 1.387 . S
C450 N453 1.341 . S
C451 C449 1.400 . S
C451 C450 1.387 . S
N452 Co443 2.022 . S
N452 C449 1.351 . S
N452 N453 1.365 . S
N453 C450 1.341 . S
N453 N452 1.365 . S
N453 H473 0.862 . S
C454 C449 1.501 . S
C454 H455 0.961 . S
C454 H456 0.961 . S
C454 H457 0.960 . S
H455 C454 0.961 . S
H456 C454 0.961 . S
H457 C454 0.960 . S
C458 N459 1.342 . S
C458 C462 1.401 . S
C458 C463 1.499 . S
N459 Co442 1.989 . S
N459 C458 1.342 . S
N459 N460 1.388 . S
N460 Co443 1.993 . S
N460 N459 1.388 . S
N460 C461 1.346 . S
C461 N460 1.346 . S
C461 C462 1.396 . S
C461 C471 1.510 . S
C462 C458 1.401 . S
C462 C461 1.396 . S
C463 C458 1.499 . S
C463 H464 0.959 . S
C463 H465 0.960 . S
C463 H466 0.961 . S
H464 C463 0.959 . S
H465 C463 0.960 . S
H466 C463 0.961 . S
O467 Co442 1.967 . S
O467 C475 1.258 . S
O468 Co443 1.941 . S
O468 C475 1.266 . S
H469 C471 0.959 . S
H470 C471 0.961 . S
C471 C461 1.510 . S
C471 H469 0.959 . S
C471 H470 0.961 . S
C471 H472 0.960 . S
H472 C471 0.960 . S
H473 N453 0.862 . S
O474 Co442 1.920 . S
O474 C447 1.289 . S
C475 O467 1.258 . S
C475 O468 1.266 . S
Co476 O479 1.970 . S
Co476 N493 1.989 . S
Co476 O501 1.967 . S
Co476 O508 1.920 . S
Co477 O480 1.966 . S
Co477 N486 2.022 . S
Co477 N494 1.993 . S
Co477 O502 1.941 . S
C478 O479 1.258 . S
C478 O480 1.263 . S
O479 Co476 1.970 . S
O479 C478 1.258 . S
O480 Co477 1.966 . S
O480 C478 1.263 . S
C481 O482 1.235 . S
C481 O508 1.289 . S
O482 C481 1.235 . S
C483 C485 1.400 . S
C483 N486 1.351 . S
C483 C488 1.501 . S
C484 C485 1.387 . S
C484 N487 1.341 . S
C485 C483 1.400 . S
C485 C484 1.387 . S
N486 Co477 2.022 . S
N486 C483 1.351 . S
N486 N487 1.365 . S
N487 C484 1.341 . S
N487 N486 1.365 . S
N487 H507 0.862 . S
C488 C483 1.501 . S
C488 H489 0.961 . S
C488 H490 0.961 . S
C488 H491 0.960 . S
H489 C488 0.961 . S
H490 C488 0.961 . S
H491 C488 0.960 . S
C492 N493 1.342 . S
C492 C496 1.401 . S
C492 C497 1.499 . S
N493 Co476 1.989 . S
N493 C492 1.342 . S
N493 N494 1.388 . S
N494 Co477 1.993 . S
N494 N493 1.388 . S
N494 C495 1.346 . S
C495 N494 1.346 . S
C495 C496 1.396 . S
C495 C505 1.510 . S
C496 C492 1.401 . S
C496 C495 1.396 . S
C497 C492 1.499 . S
C497 H498 0.959 . S
C497 H499 0.960 . S
C497 H500 0.961 . S
H498 C497 0.959 . S
H499 C497 0.960 . S
H500 C497 0.961 . S
O501 Co476 1.967 . S
O501 C509 1.258 . S
O502 Co477 1.941 . S
O502 C509 1.266 . S
H503 C505 0.959 . S
H504 C505 0.961 . S
C505 C495 1.510 . S
C505 H503 0.959 . S
C505 H504 0.961 . S
C505 H506 0.960 . S
H506 C505 0.960 . S
H507 N487 0.862 . S
O508 Co476 1.920 . S
O508 C481 1.289 . S
C509 O501 1.258 . S
C509 O502 1.266 . S
Co510 O513 1.970 . S
Co510 N527 1.989 . S
Co510 O535 1.967 . S
Co510 O542 1.920 . S
Co511 O514 1.966 . S
Co511 N520 2.022 . S
Co511 N528 1.993 . S
Co511 O536 1.941 . S
C512 O513 1.258 . S
C512 O514 1.263 . S
O513 Co510 1.970 . S
O513 C512 1.258 . S
O514 Co511 1.966 . S
O514 C512 1.263 . S
C515 O516 1.235 . S
C515 O542 1.289 . S
O516 C515 1.235 . S
C517 C519 1.400 . S
C517 N520 1.351 . S
C517 C522 1.501 . S
C518 C519 1.387 . S
C518 N521 1.341 . S
C519 C517 1.400 . S
C519 C518 1.387 . S
N520 Co511 2.022 . S
N520 C517 1.351 . S
N520 N521 1.365 . S
N521 C518 1.341 . S
N521 N520 1.365 . S
N521 H541 0.862 . S
C522 C517 1.501 . S
C522 H523 0.961 . S
C522 H524 0.961 . S
C522 H525 0.960 . S
H523 C522 0.961 . S
H524 C522 0.961 . S
H525 C522 0.960 . S
C526 N527 1.342 . S
C526 C530 1.401 . S
C526 C531 1.499 . S
N527 Co510 1.989 . S
N527 C526 1.342 . S
N527 N528 1.388 . S
N528 Co511 1.993 . S
N528 N527 1.388 . S
N528 C529 1.346 . S
C529 N528 1.346 . S
C529 C530 1.396 . S
C529 C539 1.510 . S
C530 C526 1.401 . S
C530 C529 1.396 . S
C531 C526 1.499 . S
C531 H532 0.959 . S
C531 H533 0.960 . S
C531 H534 0.961 . S
H532 C531 0.959 . S
H533 C531 0.960 . S
H534 C531 0.961 . S
O535 Co510 1.967 . S
O535 C543 1.258 . S
O536 Co511 1.941 . S
O536 C543 1.266 . S
H537 C539 0.959 . S
H538 C539 0.961 . S
C539 C529 1.510 . S
C539 H537 0.959 . S
C539 H538 0.961 . S
C539 H540 0.960 . S
H540 C539 0.960 . S
H541 N521 0.862 . S
O542 Co510 1.920 . S
O542 C515 1.289 . S
C543 O535 1.258 . S
C543 O536 1.266 . S
H544 C552 0.929 . S
H545 C554 0.930 . S
H546 C556 0.930 . S
H547 C559 0.929 . S
H548 C562 0.930 . S
H549 C564 0.960 . S
H550 C564 0.960 . S
H551 C564 0.960 . S
C552 H544 0.929 . S
C552 C553 1.377 . S
C552 C554 1.384 . S
C553 C552 1.377 . S
C553 C559 1.390 . S
C554 H545 0.930 . S
C554 C552 1.384 . S
C554 C555 1.372 . S
C555 C554 1.372 . S
C555 C556 1.400 . S
C555 C560 1.490 . S
C556 H546 0.930 . S
C556 C555 1.400 . S
C556 C559 1.386 . S
H557 C573 0.930 . S
H558 C574 0.931 . S
C559 H547 0.929 . S
C559 C553 1.390 . S
C559 C556 1.386 . S
C560 C555 1.490 . S
C560 C562 1.395 . S
C560 C563 1.403 . S
H561 C567 0.930 . S
C562 H548 0.930 . S
C562 C560 1.395 . S
C562 C565 1.403 1_655 S
C563 C560 1.403 . S
C563 C564 1.524 . S
C563 C567 1.400 1_655 S
C564 H549 0.960 . S
C564 H550 0.960 . S
C564 H551 0.960 . S
C564 C563 1.524 . S
C565 C562 1.403 1_455 S
C565 C566 1.392 . S
C565 C569 1.495 . S
C566 C565 1.392 . S
C566 C567 1.385 . S
C566 C568 1.478 . S
C567 H561 0.930 . S
C567 C563 1.400 1_455 S
C567 C566 1.385 . S
C568 C566 1.478 . S
C568 C570 1.381 . S
C568 C574 1.383 . S
C569 C565 1.495 . S
C569 H575 0.959 . S
C569 H576 0.961 . S
C569 H577 0.960 . S
C570 C568 1.381 . S
C570 C571 1.394 . S
C570 H578 0.930 . S
C571 C570 1.394 . S
C571 C572 1.383 . S
C571 H579 0.929 . S
C572 C571 1.383 . S
C572 C573 1.377 . S
C573 H557 0.930 . S
C573 C572 1.377 . S
C573 C574 1.379 . S
C574 H558 0.931 . S
C574 C568 1.383 . S
C574 C573 1.379 . S
H575 C569 0.959 . S
H576 C569 0.961 . S
H577 C569 0.960 . S
H578 C570 0.930 . S
H579 C571 0.929 . S
H580 C588 0.929 . S
H581 C590 0.930 . S
H582 C592 0.930 . S
H583 C595 0.929 . S
H584 C598 0.930 . S
H585 C600 0.960 . S
H586 C600 0.960 . S
H587 C600 0.960 . S
C588 H580 0.929 . S
C588 C589 1.377 . S
C588 C590 1.384 . S
C589 C588 1.377 . S
C589 C595 1.390 . S
C590 H581 0.930 . S
C590 C588 1.384 . S
C590 C591 1.372 . S
C591 C590 1.372 . S
C591 C592 1.400 . S
C591 C596 1.490 . S
C592 H582 0.930 . S
C592 C591 1.400 . S
C592 C595 1.386 . S
H593 C609 0.930 . S
H594 C610 0.931 . S
C595 H583 0.929 . S
C595 C589 1.390 . S
C595 C592 1.386 . S
C596 C591 1.490 . S
C596 C598 1.395 . S
C596 C599 1.403 . S
H597 C603 0.930 . S
C598 H584 0.930 . S
C598 C596 1.395 . S
C598 C601 1.403 . S
C599 C596 1.403 . S
C599 C600 1.524 . S
C599 C603 1.400 . S
C600 H585 0.960 . S
C600 H586 0.960 . S
C600 H587 0.960 . S
C600 C599 1.524 . S
C601 C598 1.403 . S
C601 C602 1.392 . S
C601 C605 1.495 . S
C602 C601 1.392 . S
C602 C603 1.385 . S
C602 C604 1.478 . S
C603 H597 0.930 . S
C603 C599 1.400 . S
C603 C602 1.385 . S
C604 C602 1.478 . S
C604 C606 1.381 . S
C604 C610 1.383 . S
C605 C601 1.495 . S
C605 H611 0.959 . S
C605 H612 0.961 . S
C605 H613 0.960 . S
C606 C604 1.381 . S
C606 C607 1.394 . S
C606 H614 0.930 . S
C607 C606 1.394 . S
C607 C608 1.383 . S
C607 H615 0.929 . S
C608 C607 1.383 . S
C608 C609 1.377 . S
C609 H593 0.930 . S
C609 C608 1.377 . S
C609 C610 1.379 . S
C610 H594 0.931 . S
C610 C604 1.383 . S
C610 C609 1.379 . S
H611 C605 0.959 . S
H612 C605 0.961 . S
H613 C605 0.960 . S
H614 C606 0.930 . S
H615 C607 0.929 . S
H616 C624 0.929 . S
H617 C626 0.930 . S
H618 C628 0.930 . S
H619 C631 0.929 . S
H620 C634 0.930 . S
H621 C636 0.960 . S
H622 C636 0.960 . S
H623 C636 0.960 . S
C624 H616 0.929 . S
C624 C625 1.377 . S
C624 C626 1.384 . S
C625 C624 1.377 . S
C625 C631 1.390 . S
C626 H617 0.930 . S
C626 C624 1.384 . S
C626 C627 1.372 . S
C627 C626 1.372 . S
C627 C628 1.400 . S
C627 C632 1.490 . S
C628 H618 0.930 . S
C628 C627 1.400 . S
C628 C631 1.386 . S
H629 C645 0.930 . S
H630 C646 0.931 . S
C631 H619 0.929 . S
C631 C625 1.390 . S
C631 C628 1.386 . S
C632 C627 1.490 . S
C632 C634 1.395 . S
C632 C635 1.403 1_655 S
H633 C639 0.930 . S
C634 H620 0.930 . S
C634 C632 1.395 . S
C634 C637 1.403 . S
C635 C632 1.403 1_455 S
C635 C636 1.524 . S
C635 C639 1.400 . S
C636 H621 0.960 . S
C636 H622 0.960 . S
C636 H623 0.960 . S
C636 C635 1.524 . S
C637 C634 1.403 . S
C637 C638 1.392 1_655 S
C637 C641 1.495 . S
C638 C637 1.392 1_455 S
C638 C639 1.385 . S
C638 C640 1.478 . S
C639 H633 0.930 . S
C639 C635 1.400 . S
C639 C638 1.385 . S
C640 C638 1.478 . S
C640 C642 1.381 . S
C640 C646 1.383 . S
C641 C637 1.495 . S
C641 H647 0.959 . S
C641 H648 0.961 . S
C641 H649 0.960 . S
C642 C640 1.381 . S
C642 C643 1.394 . S
C642 H650 0.930 . S
C643 C642 1.394 . S
C643 C644 1.383 . S
C643 H651 0.929 . S
C644 C643 1.383 . S
C644 C645 1.377 . S
C645 H629 0.930 . S
C645 C644 1.377 . S
C645 C646 1.379 . S
C646 H630 0.931 . S
C646 C640 1.383 . S
C646 C645 1.379 . S
H647 C641 0.959 . S
H648 C641 0.961 . S
H649 C641 0.960 . S
H650 C642 0.930 . S
H651 C643 0.929 . S
H652 C660 0.929 . S
H653 C662 0.930 . S
H654 C664 0.930 . S
H655 C667 0.929 . S
H656 C670 0.930 . S
H657 C672 0.960 . S
H658 C672 0.960 . S
H659 C672 0.960 . S
C660 H652 0.929 . S
C660 C661 1.377 . S
C660 C662 1.384 . S
C661 C660 1.377 . S
C661 C667 1.390 . S
C662 H653 0.930 . S
C662 C660 1.384 . S
C662 C663 1.372 . S
C663 C662 1.372 . S
C663 C664 1.400 . S
C663 C668 1.490 . S
C664 H654 0.930 . S
C664 C663 1.400 . S
C664 C667 1.386 . S
H665 C681 0.930 . S
H666 C682 0.931 . S
C667 H655 0.929 . S
C667 C661 1.390 . S
C667 C664 1.386 . S
C668 C663 1.490 . S
C668 C670 1.395 . S
C668 C671 1.403 . S
H669 C675 0.930 . S
C670 H656 0.930 . S
C670 C668 1.395 . S
C670 C673 1.403 . S
C671 C668 1.403 . S
C671 C672 1.524 . S
C671 C675 1.400 . S
C672 H657 0.960 . S
C672 H658 0.960 . S
C672 H659 0.960 . S
C672 C671 1.524 . S
C673 C670 1.403 . S
C673 C674 1.392 . S
C673 C677 1.495 . S
C674 C673 1.392 . S
C674 C675 1.385 . S
C674 C676 1.478 . S
C675 H669 0.930 . S
C675 C671 1.400 . S
C675 C674 1.385 . S
C676 C674 1.478 . S
C676 C678 1.381 . S
C676 C682 1.383 . S
C677 C673 1.495 . S
C677 H683 0.959 . S
C677 H684 0.961 . S
C677 H685 0.960 . S
C678 C676 1.381 . S
C678 C679 1.394 . S
C678 H686 0.930 . S
C679 C678 1.394 . S
C679 C680 1.383 . S
C679 H687 0.929 . S
C680 C679 1.383 . S
C680 C681 1.377 . S
C681 H665 0.930 . S
C681 C680 1.377 . S
C681 C682 1.379 . S
C682 H666 0.931 . S
C682 C676 1.383 . S
C682 C681 1.379 . S
H683 C677 0.959 . S
H684 C677 0.961 . S
H685 C677 0.960 . S
H686 C678 0.930 . S
H687 C679 0.929 . S
H688 C696 0.929 . S
H689 C698 0.930 . S
H690 C700 0.930 . S
H691 C703 0.929 . S
H692 C706 0.930 . S
H693 C708 0.960 . S
H694 C708 0.960 . S
H695 C708 0.960 . S
C696 H688 0.929 . S
C696 C697 1.377 . S
C696 C698 1.384 . S
C697 C696 1.377 . S
C697 C703 1.390 . S
C698 H689 0.930 . S
C698 C696 1.384 . S
C698 C699 1.372 . S
C699 C698 1.372 . S
C699 C700 1.400 . S
C699 C704 1.490 . S
C700 H690 0.930 . S
C700 C699 1.400 . S
C700 C703 1.386 . S
H701 C717 0.930 . S
H702 C718 0.931 . S
C703 H691 0.929 . S
C703 C697 1.390 . S
C703 C700 1.386 . S
C704 C699 1.490 . S
C704 C706 1.395 . S
C704 C707 1.403 . S
H705 C711 0.930 . S
C706 H692 0.930 . S
C706 C704 1.395 . S
C706 C709 1.403 . S
C707 C704 1.403 . S
C707 C708 1.524 . S
C707 C711 1.400 . S
C708 H693 0.960 . S
C708 H694 0.960 . S
C708 H695 0.960 . S
C708 C707 1.524 . S
C709 C706 1.403 . S
C709 C710 1.392 . S
C709 C713 1.495 . S
C710 C709 1.392 . S
C710 C711 1.385 . S
C710 C712 1.478 . S
C711 H705 0.930 . S
C711 C707 1.400 . S
C711 C710 1.385 . S
C712 C710 1.478 . S
C712 C714 1.381 . S
C712 C718 1.383 . S
C713 C709 1.495 . S
C713 H719 0.959 . S
C713 H720 0.961 . S
C713 H721 0.960 . S
C714 C712 1.381 . S
C714 C715 1.394 . S
C714 H722 0.930 . S
C715 C714 1.394 . S
C715 C716 1.383 . S
C715 H723 0.929 . S
C716 C715 1.383 . S
C716 C717 1.377 . S
C717 H701 0.930 . S
C717 C716 1.377 . S
C717 C718 1.379 . S
C718 H702 0.931 . S
C718 C712 1.383 . S
C718 C717 1.379 . S
H719 C713 0.959 . S
H720 C713 0.961 . S
H721 C713 0.960 . S
H722 C714 0.930 . S
H723 C715 0.929 . S
H724 C732 0.929 . S
H725 C734 0.930 . S
H726 C736 0.930 . S
H727 C739 0.929 . S
H728 C742 0.930 . S
H729 C744 0.984 . S
H730 C744 0.979 . S
H731 C744 0.921 1_655 S
C732 H724 0.929 . S
C732 C733 1.377 . S
C732 C734 1.384 . S
C733 C732 1.377 . S
C733 C739 1.390 . S
C734 H725 0.930 . S
C734 C732 1.384 . S
C734 C735 1.372 . S
C735 C734 1.372 . S
C735 C736 1.400 . S
C735 C740 1.490 . S
C736 H726 0.930 . S
C736 C735 1.400 . S
C736 C739 1.386 . S
H737 C753 0.930 . S
H738 C754 0.931 . S
C739 H727 0.929 . S
C739 C733 1.390 . S
C739 C736 1.386 . S
C740 C735 1.490 . S
C740 C742 1.395 . S
C740 C743 1.405 . S
H741 C747 0.930 . S
C742 H728 0.930 . S
C742 C740 1.395 . S
C742 C745 1.403 1_655 S
C743 C740 1.405 . S
C743 C744 1.523 1_655 S
C743 C747 1.398 1_655 S
C744 H729 0.984 . S
C744 H730 0.979 . S
C744 H731 0.921 1_455 S
C744 C743 1.523 1_455 S
C745 C742 1.403 1_455 S
C745 C746 1.392 . S
C745 C749 1.496 . S
C746 C745 1.392 . S
C746 C747 1.385 . S
C746 C748 1.478 . S
C747 H741 0.930 . S
C747 C743 1.398 1_455 S
C747 C746 1.385 . S
C748 C746 1.478 . S
C748 C750 1.381 . S
C748 C754 1.383 . S
C749 C745 1.496 . S
C749 H755 0.934 1_455 S
C749 H756 0.943 1_455 S
C749 H757 1.005 . S
C750 C748 1.381 . S
C750 C751 1.394 . S
C750 H758 0.930 . S
C751 C750 1.394 . S
C751 C752 1.383 . S
C751 H759 0.929 . S
C752 C751 1.383 . S
C752 C753 1.377 . S
C753 H737 0.930 . S
C753 C752 1.377 . S
C753 C754 1.379 . S
C754 H738 0.931 . S
C754 C748 1.383 . S
C754 C753 1.379 . S
H755 C749 0.934 1_655 S
H756 C749 0.943 1_655 S
H757 C749 1.005 . S
H758 C750 0.930 . S
H759 C751 0.929 . S
H760 C768 0.929 . S
H761 C770 0.930 . S
H762 C772 0.930 . S
H763 C775 0.929 . S
H764 C778 0.930 . S
H765 C780 0.960 . S
H766 C780 0.960 . S
H767 C780 0.960 . S
C768 H760 0.929 . S
C768 C769 1.377 . S
C768 C770 1.384 . S
C769 C768 1.377 . S
C769 C775 1.390 . S
C770 H761 0.930 . S
C770 C768 1.384 . S
C770 C771 1.372 . S
C771 C770 1.372 . S
C771 C772 1.400 . S
C771 C776 1.490 . S
C772 H762 0.930 . S
C772 C771 1.400 . S
C772 C775 1.386 . S
H773 C789 0.930 . S
H774 C790 0.931 . S
C775 H763 0.929 . S
C775 C769 1.390 . S
C775 C772 1.386 . S
C776 C771 1.490 . S
C776 C778 1.395 . S
C776 C779 1.403 . S
H777 C783 0.930 . S
C778 H764 0.930 . S
C778 C776 1.395 . S
C778 C781 1.403 . S
C779 C776 1.403 . S
C779 C780 1.524 . S
C779 C783 1.400 . S
C780 H765 0.960 . S
C780 H766 0.960 . S
C780 H767 0.960 . S
C780 C779 1.524 . S
C781 C778 1.403 . S
C781 C782 1.392 . S
C781 C785 1.495 . S
C782 C781 1.392 . S
C782 C783 1.385 . S
C782 C784 1.478 . S
C783 H777 0.930 . S
C783 C779 1.400 . S
C783 C782 1.385 . S
C784 C782 1.478 . S
C784 C786 1.381 . S
C784 C790 1.383 . S
C785 C781 1.495 . S
C785 H791 0.959 . S
C785 H792 0.961 . S
C785 H793 0.960 . S
C786 C784 1.381 . S
C786 C787 1.394 . S
C786 H794 0.930 . S
C787 C786 1.394 . S
C787 C788 1.383 . S
C787 H795 0.929 . S
C788 C787 1.383 . S
C788 C789 1.377 . S
C789 H773 0.930 . S
C789 C788 1.377 . S
C789 C790 1.379 . S
C790 H774 0.931 . S
C790 C784 1.383 . S
C790 C789 1.379 . S
H791 C785 0.959 . S
H792 C785 0.961 . S
H793 C785 0.960 . S
H794 C786 0.930 . S
H795 C787 0.929 . S
H796 C804 0.929 . S
H797 C806 0.930 . S
H798 C808 0.930 . S
H799 C811 0.929 . S
H800 C814 0.930 . S
H801 C816 0.960 . S
H802 C816 0.960 . S
H803 C816 0.960 1_655 S
C804 H796 0.929 . S
C804 C805 1.377 . S
C804 C806 1.384 . S
C805 C804 1.377 . S
C805 C811 1.390 . S
C806 H797 0.930 . S
C806 C804 1.384 . S
C806 C807 1.372 . S
C807 C806 1.372 . S
C807 C808 1.400 . S
C807 C812 1.490 . S
C808 H798 0.930 . S
C808 C807 1.400 . S
C808 C811 1.386 . S
H809 C825 0.930 . S
H810 C826 0.931 . S
C811 H799 0.929 . S
C811 C805 1.390 . S
C811 C808 1.386 . S
C812 C807 1.490 . S
C812 C814 1.395 . S
C812 C815 1.403 1_655 S
H813 C819 0.930 . S
C814 H800 0.930 . S
C814 C812 1.395 . S
C814 C817 1.403 . S
C815 C812 1.403 1_455 S
C815 C816 1.524 . S
C815 C819 1.400 . S
C816 H801 0.960 . S
C816 H802 0.960 . S
C816 H803 0.960 1_455 S
C816 C815 1.524 . S
C817 C814 1.403 . S
C817 C818 1.392 1_655 S
C817 C821 1.495 . S
C818 C817 1.392 1_455 S
C818 C819 1.385 . S
C818 C820 1.478 . S
C819 H813 0.930 . S
C819 C815 1.400 . S
C819 C818 1.385 . S
C820 C818 1.478 . S
C820 C822 1.381 . S
C820 C826 1.383 . S
C821 C817 1.495 . S
C821 H827 0.959 . S
C821 H828 0.961 . S
C821 H829 0.960 1_655 S
C822 C820 1.381 . S
C822 C823 1.394 . S
C822 H830 0.930 . S
C823 C822 1.394 . S
C823 C824 1.383 . S
C823 H831 0.929 . S
C824 C823 1.383 . S
C824 C825 1.377 . S
C825 H809 0.930 . S
C825 C824 1.377 . S
C825 C826 1.379 . S
C826 H810 0.931 . S
C826 C820 1.383 . S
C826 C825 1.379 . S
H827 C821 0.959 . S
H828 C821 0.961 . S
H829 C821 0.960 1_455 S
H830 C822 0.930 . S
H831 C823 0.929 . S
H832 C840 0.929 . S
H833 C842 0.930 . S
H834 C844 0.930 . S
H835 C847 0.929 . S
H836 C850 0.930 . S
H837 C852 0.960 . S
H838 C852 0.960 . S
H839 C852 0.960 . S
C840 H832 0.929 . S
C840 C841 1.377 . S
C840 C842 1.384 . S
C841 C840 1.377 . S
C841 C847 1.390 . S
C842 H833 0.930 . S
C842 C840 1.384 . S
C842 C843 1.372 . S
C843 C842 1.372 . S
C843 C844 1.400 . S
C843 C848 1.490 . S
C844 H834 0.930 . S
C844 C843 1.400 . S
C844 C847 1.386 . S
H845 C861 0.930 . S
H846 C862 0.931 . S
C847 H835 0.929 . S
C847 C841 1.390 . S
C847 C844 1.386 . S
C848 C843 1.490 . S
C848 C850 1.395 . S
C848 C851 1.403 . S
H849 C855 0.930 . S
C850 H836 0.930 . S
C850 C848 1.395 . S
C850 C853 1.403 . S
C851 C848 1.403 . S
C851 C852 1.524 . S
C851 C855 1.400 . S
C852 H837 0.960 . S
C852 H838 0.960 . S
C852 H839 0.960 . S
C852 C851 1.524 . S
C853 C850 1.403 . S
C853 C854 1.392 . S
C853 C857 1.495 . S
C854 C853 1.392 . S
C854 C855 1.385 . S
C854 C856 1.478 . S
C855 H849 0.930 . S
C855 C851 1.400 . S
C855 C854 1.385 . S
C856 C854 1.478 . S
C856 C858 1.381 . S
C856 C862 1.383 . S
C857 C853 1.495 . S
C857 H863 0.959 . S
C857 H864 0.961 . S
C857 H865 0.960 . S
C858 C856 1.381 . S
C858 C859 1.394 . S
C858 H866 0.930 . S
C859 C858 1.394 . S
C859 C860 1.383 . S
C859 H867 0.929 . S
C860 C859 1.383 . S
C860 C861 1.377 . S
C861 H845 0.930 . S
C861 C860 1.377 . S
C861 C862 1.379 . S
C862 H846 0.931 . S
C862 C856 1.383 . S
C862 C861 1.379 . S
H863 C857 0.959 . S
H864 C857 0.961 . S
H865 C857 0.960 . S
H866 C858 0.930 . S
H867 C859 0.929 . S
H868 C876 0.929 . S
H869 C878 0.930 . S
H870 C880 0.930 . S
H871 C883 0.929 . S
H872 C886 0.930 . S
H873 C888 0.960 . S
H874 C888 0.960 . S
H875 C888 0.960 . S
C876 H868 0.929 . S
C876 C877 1.377 . S
C876 C878 1.384 . S
C877 C876 1.377 . S
C877 C883 1.390 . S
C878 H869 0.930 . S
C878 C876 1.384 . S
C878 C879 1.372 . S
C879 C878 1.372 . S
C879 C880 1.400 . S
C879 C884 1.490 . S
C880 H870 0.930 . S
C880 C879 1.400 . S
C880 C883 1.386 . S
H881 C897 0.930 . S
H882 C898 0.931 . S
C883 H871 0.929 . S
C883 C877 1.390 . S
C883 C880 1.386 . S
C884 C879 1.490 . S
C884 C886 1.395 . S
C884 C887 1.403 . S
H885 C891 0.930 . S
C886 H872 0.930 . S
C886 C884 1.395 . S
C886 C889 1.403 . S
C887 C884 1.403 . S
C887 C888 1.524 . S
C887 C891 1.400 . S
C888 H873 0.960 . S
C888 H874 0.960 . S
C888 H875 0.960 . S
C888 C887 1.524 . S
C889 C886 1.403 . S
C889 C890 1.392 . S
C889 C893 1.495 . S
C890 C889 1.392 . S
C890 C891 1.385 . S
C890 C892 1.478 . S
C891 H885 0.930 . S
C891 C887 1.400 . S
C891 C890 1.385 . S
C892 C890 1.478 . S
C892 C894 1.381 . S
C892 C898 1.383 . S
C893 C889 1.495 . S
C893 H899 0.959 . S
C893 H900 0.961 . S
C893 H901 0.960 . S
C894 C892 1.381 . S
C894 C895 1.394 . S
C894 H902 0.930 . S
C895 C894 1.394 . S
C895 C896 1.383 . S
C895 H903 0.929 . S
C896 C895 1.383 . S
C896 C897 1.377 . S
C897 H881 0.930 . S
C897 C896 1.377 . S
C897 C898 1.379 . S
C898 H882 0.931 . S
C898 C892 1.383 . S
C898 C897 1.379 . S
H899 C893 0.959 . S
H900 C893 0.961 . S
H901 C893 0.960 . S
H902 C894 0.930 . S
H903 C895 0.929 . S
H904 C912 0.929 . S
H905 C914 0.930 . S
H906 C916 0.930 . S
H907 C919 0.929 . S
H908 C922 0.930 . S
H909 C924 0.960 . S
H910 C924 0.960 . S
H911 C924 0.960 . S
C912 H904 0.929 . S
C912 C913 1.377 . S
C912 C914 1.384 . S
C913 C912 1.377 . S
C913 C919 1.390 . S
C914 H905 0.930 . S
C914 C912 1.384 . S
C914 C915 1.372 . S
C915 C914 1.372 . S
C915 C916 1.400 . S
C915 C920 1.490 . S
C916 H906 0.930 . S
C916 C915 1.400 . S
C916 C919 1.386 . S
H917 C933 0.930 . S
H918 C934 0.931 . S
C919 H907 0.929 . S
C919 C913 1.390 . S
C919 C916 1.386 . S
C920 C915 1.490 . S
C920 C922 1.395 . S
C920 C923 1.403 . S
H921 C927 0.930 . S
C922 H908 0.930 . S
C922 C920 1.395 . S
C922 C925 1.403 . S
C923 C920 1.403 . S
C923 C924 1.524 . S
C923 C927 1.400 . S
C924 H909 0.960 . S
C924 H910 0.960 . S
C924 H911 0.960 . S
C924 C923 1.524 . S
C925 C922 1.403 . S
C925 C926 1.392 . S
C925 C929 1.495 . S
C926 C925 1.392 . S
C926 C927 1.385 . S
C926 C928 1.478 . S
C927 H921 0.930 . S
C927 C923 1.400 . S
C927 C926 1.385 . S
C928 C926 1.478 . S
C928 C930 1.381 . S
C928 C934 1.383 . S
C929 C925 1.495 . S
C929 H935 0.959 . S
C929 H936 0.961 . S
C929 H937 0.960 . S
C930 C928 1.381 . S
C930 C931 1.394 . S
C930 H938 0.930 . S
C931 C930 1.394 . S
C931 C932 1.383 . S
C931 H939 0.929 . S
C932 C931 1.383 . S
C932 C933 1.377 . S
C933 H917 0.930 . S
C933 C932 1.377 . S
C933 C934 1.379 . S
C934 H918 0.931 . S
C934 C928 1.383 . S
C934 C933 1.379 . S
H935 C929 0.959 . S
H936 C929 0.961 . S
H937 C929 0.960 . S
H938 C930 0.930 . S
H939 C931 0.929 . S
H940 C948 0.929 . S
H941 C950 0.930 . S
H942 C952 0.930 . S
H943 C955 0.929 . S
H944 C958 0.930 . S
H945 C960 0.960 . S
H946 C960 0.960 . S
H947 C960 0.960 . S
C948 H940 0.929 . S
C948 C949 1.377 . S
C948 C950 1.384 . S
C949 C948 1.377 . S
C949 C955 1.390 . S
C950 H941 0.930 . S
C950 C948 1.384 . S
C950 C951 1.372 . S
C951 C950 1.372 . S
C951 C952 1.400 . S
C951 C956 1.490 . S
C952 H942 0.930 . S
C952 C951 1.400 . S
C952 C955 1.386 . S
H953 C969 0.930 . S
H954 C970 0.931 . S
C955 H943 0.929 . S
C955 C949 1.390 . S
C955 C952 1.386 . S
C956 C951 1.490 . S
C956 C958 1.395 . S
C956 C959 1.403 . S
H957 C963 0.930 . S
C958 H944 0.930 . S
C958 C956 1.395 . S
C958 C961 1.403 . S
C959 C956 1.403 . S
C959 C960 1.524 . S
C959 C963 1.400 . S
C960 H945 0.960 . S
C960 H946 0.960 . S
C960 H947 0.960 . S
C960 C959 1.524 . S
C961 C958 1.403 . S
C961 C962 1.392 . S
C961 C965 1.495 . S
C962 C961 1.392 . S
C962 C963 1.385 . S
C962 C964 1.478 . S
C963 H957 0.930 . S
C963 C959 1.400 . S
C963 C962 1.385 . S
C964 C962 1.478 . S
C964 C966 1.381 . S
C964 C970 1.383 . S
C965 C961 1.495 . S
C965 H971 0.959 . S
C965 H972 0.961 . S
C965 H973 0.960 . S
C966 C964 1.381 . S
C966 C967 1.394 . S
C966 H974 0.930 . S
C967 C966 1.394 . S
C967 C968 1.383 . S
C967 H975 0.929 . S
C968 C967 1.383 . S
C968 C969 1.377 . S
C969 H953 0.930 . S
C969 C968 1.377 . S
C969 C970 1.379 . S
C970 H954 0.931 . S
C970 C964 1.383 . S
C970 C969 1.379 . S
H971 C965 0.959 . S
H972 C965 0.961 . S
H973 C965 0.960 . S
H974 C966 0.930 . S
H975 C967 0.929 . S
H976 C984 0.929 . S
H977 C986 0.930 . S
H978 C988 0.930 . S
H979 C991 0.929 . S
H980 C994 0.930 . S
H981 C996 0.960 . S
H982 C996 0.960 . S
H983 C996 0.960 . S
C984 H976 0.929 . S
C984 C985 1.377 . S
C984 C986 1.384 . S
C985 C984 1.377 . S
C985 C991 1.390 . S
C986 H977 0.930 . S
C986 C984 1.384 . S
C986 C987 1.372 . S
C987 C986 1.372 . S
C987 C988 1.400 . S
C987 C992 1.490 . S
C988 H978 0.930 . S
C988 C987 1.400 . S
C988 C991 1.386 . S
H989 C1005 0.930 . S
H990 C1006 0.931 . S
C991 H979 0.929 . S
C991 C985 1.390 . S
C991 C988 1.386 . S
C992 C987 1.490 . S
C992 C994 1.395 . S
C992 C995 1.403 . S
H993 C999 0.930 . S
C994 H980 0.930 . S
C994 C992 1.395 . S
C994 C997 1.403 . S
C995 C992 1.403 . S
C995 C996 1.524 . S
C995 C999 1.400 . S
C996 H981 0.960 . S
C996 H982 0.960 . S
C996 H983 0.960 . S
C996 C995 1.524 . S
C997 C994 1.403 . S
C997 C998 1.392 . S
C997 C1001 1.495 . S
C998 C997 1.392 . S
C998 C999 1.385 . S
C998 C1000 1.478 . S
C999 H993 0.930 . S
C999 C995 1.400 . S
C999 C998 1.385 . S
C1000 C998 1.478 . S
C1000 C1002 1.381 . S
C1000 C1006 1.383 . S
C1001 C997 1.495 . S
C1001 H1007 0.959 . S
C1001 H1008 0.961 . S
C1001 H1009 0.960 . S
C1002 C1000 1.381 . S
C1002 C1003 1.394 . S
C1002 H1010 0.930 . S
C1003 C1002 1.394 . S
C1003 C1004 1.383 . S
C1003 H1011 0.929 . S
C1004 C1003 1.383 . S
C1004 C1005 1.377 . S
C1005 H989 0.930 . S
C1005 C1004 1.377 . S
C1005 C1006 1.379 . S
C1006 H990 0.931 . S
C1006 C1000 1.383 . S
C1006 C1005 1.379 . S
H1007 C1001 0.959 . S
H1008 C1001 0.961 . S
H1009 C1001 0.960 . S
H1010 C1002 0.930 . S
H1011 C1003 0.929 . S
H1012 C1020 0.929 . S
H1013 C1022 0.930 . S
H1014 C1024 0.930 . S
H1015 C1027 0.929 . S
H1016 C1030 0.930 . S
H1017 C1032 0.960 . S
H1018 C1032 0.960 . S
H1019 C1032 0.960 . S
C1020 H1012 0.929 . S
C1020 C1021 1.377 . S
C1020 C1022 1.384 . S
C1021 C1020 1.377 . S
C1021 C1027 1.390 . S
C1022 H1013 0.930 . S
C1022 C1020 1.384 . S
C1022 C1023 1.372 . S
C1023 C1022 1.372 . S
C1023 C1024 1.400 . S
C1023 C1028 1.490 . S
C1024 H1014 0.930 . S
C1024 C1023 1.400 . S
C1024 C1027 1.386 . S
H1025 C1041 0.930 . S
H1026 C1042 0.931 . S
C1027 H1015 0.929 . S
C1027 C1021 1.390 . S
C1027 C1024 1.386 . S
C1028 C1023 1.490 . S
C1028 C1030 1.395 . S
C1028 C1031 1.403 . S
H1029 C1035 0.930 . S
C1030 H1016 0.930 . S
C1030 C1028 1.395 . S
C1030 C1033 1.403 . S
C1031 C1028 1.403 . S
C1031 C1032 1.524 . S
C1031 C1035 1.400 . S
C1032 H1017 0.960 . S
C1032 H1018 0.960 . S
C1032 H1019 0.960 . S
C1032 C1031 1.524 . S
C1033 C1030 1.403 . S
C1033 C1034 1.392 . S
C1033 C1037 1.495 . S
C1034 C1033 1.392 . S
C1034 C1035 1.385 . S
C1034 C1036 1.478 . S
C1035 H1029 0.930 . S
C1035 C1031 1.400 . S
C1035 C1034 1.385 . S
C1036 C1034 1.478 . S
C1036 C1038 1.381 . S
C1036 C1042 1.383 . S
C1037 C1033 1.495 . S
C1037 H1043 0.959 . S
C1037 H1044 0.961 . S
C1037 H1045 0.960 . S
C1038 C1036 1.381 . S
C1038 C1039 1.394 . S
C1038 H1046 0.930 . S
C1039 C1038 1.394 . S
C1039 C1040 1.383 . S
C1039 H1047 0.929 . S
C1040 C1039 1.383 . S
C1040 C1041 1.377 . S
C1041 H1025 0.930 . S
C1041 C1040 1.377 . S
C1041 C1042 1.379 . S
C1042 H1026 0.931 . S
C1042 C1036 1.383 . S
C1042 C1041 1.379 . S
H1043 C1037 0.959 . S
H1044 C1037 0.961 . S
H1045 C1037 0.960 . S
H1046 C1038 0.930 . S
H1047 C1039 0.929 . S
H1048 C1056 0.929 . S
H1049 C1058 0.930 . S
H1050 C1060 0.930 . S
H1051 C1063 0.929 . S
H1052 C1066 0.930 . S
H1053 C1068 0.960 . S
H1054 C1068 0.960 . S
H1055 C1068 0.960 . S
C1056 H1048 0.929 . S
C1056 C1057 1.377 . S
C1056 C1058 1.384 . S
C1057 C1056 1.377 . S
C1057 C1063 1.390 . S
C1058 H1049 0.930 . S
C1058 C1056 1.384 . S
C1058 C1059 1.372 . S
C1059 C1058 1.372 . S
C1059 C1060 1.400 . S
C1059 C1064 1.490 . S
C1060 H1050 0.930 . S
C1060 C1059 1.400 . S
C1060 C1063 1.386 . S
H1061 C1077 0.930 . S
H1062 C1078 0.931 . S
C1063 H1051 0.929 . S
C1063 C1057 1.390 . S
C1063 C1060 1.386 . S
C1064 C1059 1.490 . S
C1064 C1066 1.395 . S
C1064 C1067 1.403 . S
H1065 C1071 0.930 . S
C1066 H1052 0.930 . S
C1066 C1064 1.395 . S
C1066 C1069 1.403 . S
C1067 C1064 1.403 . S
C1067 C1068 1.524 . S
C1067 C1071 1.400 . S
C1068 H1053 0.960 . S
C1068 H1054 0.960 . S
C1068 H1055 0.960 . S
C1068 C1067 1.524 . S
C1069 C1066 1.403 . S
C1069 C1070 1.392 . S
C1069 C1073 1.495 . S
C1070 C1069 1.392 . S
C1070 C1071 1.385 . S
C1070 C1072 1.478 . S
C1071 H1065 0.930 . S
C1071 C1067 1.400 . S
C1071 C1070 1.385 . S
C1072 C1070 1.478 . S
C1072 C1074 1.381 . S
C1072 C1078 1.383 . S
C1073 C1069 1.495 . S
C1073 H1079 0.959 . S
C1073 H1080 0.961 . S
C1073 H1081 0.960 . S
C1074 C1072 1.381 . S
C1074 C1075 1.394 . S
C1074 H1082 0.930 . S
C1075 C1074 1.394 . S
C1075 C1076 1.383 . S
C1075 H1083 0.929 . S
C1076 C1075 1.383 . S
C1076 C1077 1.377 . S
C1077 H1061 0.930 . S
C1077 C1076 1.377 . S
C1077 C1078 1.379 . S
C1078 H1062 0.931 . S
C1078 C1072 1.383 . S
C1078 C1077 1.379 . S
H1079 C1073 0.959 . S
H1080 C1073 0.961 . S
H1081 C1073 0.960 . S
H1082 C1074 0.930 . S
H1083 C1075 0.929 . S
H1084 C1092 0.929 . S
H1085 C1094 0.930 . S
H1086 C1096 0.930 . S
H1087 C1099 0.929 . S
H1088 C1102 0.930 . S
H1089 C1104 0.960 . S
H1090 C1104 0.960 . S
H1091 C1104 0.960 . S
C1092 H1084 0.929 . S
C1092 C1093 1.377 . S
C1092 C1094 1.384 . S
C1093 C1092 1.377 . S
C1093 C1099 1.390 . S
C1094 H1085 0.930 . S
C1094 C1092 1.384 . S
C1094 C1095 1.372 . S
C1095 C1094 1.372 . S
C1095 C1096 1.400 . S
C1095 C1100 1.490 . S
C1096 H1086 0.930 . S
C1096 C1095 1.400 . S
C1096 C1099 1.386 . S
H1097 C1113 0.930 . S
H1098 C1114 0.931 . S
C1099 H1087 0.929 . S
C1099 C1093 1.390 . S
C1099 C1096 1.386 . S
C1100 C1095 1.490 . S
C1100 C1102 1.395 . S
C1100 C1103 1.403 . S
H1101 C1107 0.930 . S
C1102 H1088 0.930 . S
C1102 C1100 1.395 . S
C1102 C1105 1.403 . S
C1103 C1100 1.403 . S
C1103 C1104 1.524 . S
C1103 C1107 1.400 . S
C1104 H1089 0.960 . S
C1104 H1090 0.960 . S
C1104 H1091 0.960 . S
C1104 C1103 1.524 . S
C1105 C1102 1.403 . S
C1105 C1106 1.392 . S
C1105 C1109 1.495 . S
C1106 C1105 1.392 . S
C1106 C1107 1.385 . S
C1106 C1108 1.478 . S
C1107 H1101 0.930 . S
C1107 C1103 1.400 . S
C1107 C1106 1.385 . S
C1108 C1106 1.478 . S
C1108 C1110 1.381 . S
C1108 C1114 1.383 . S
C1109 C1105 1.495 . S
C1109 H1115 0.959 . S
C1109 H1116 0.961 . S
C1109 H1117 0.960 . S
C1110 C1108 1.381 . S
C1110 C1111 1.394 . S
C1110 H1118 0.930 . S
C1111 C1110 1.394 . S
C1111 C1112 1.383 . S
C1111 H1119 0.929 . S
C1112 C1111 1.383 . S
C1112 C1113 1.377 . S
C1113 H1097 0.930 . S
C1113 C1112 1.377 . S
C1113 C1114 1.379 . S
C1114 H1098 0.931 . S
C1114 C1108 1.383 . S
C1114 C1113 1.379 . S
H1115 C1109 0.959 . S
H1116 C1109 0.961 . S
H1117 C1109 0.960 . S
H1118 C1110 0.930 . S
H1119 C1111 0.929 . S
H1120 C1128 0.929 . S
H1121 C1130 0.930 . S
H1122 C1132 0.930 . S
H1123 C1135 0.929 . S
H1124 C1138 0.930 . S
H1125 C1140 0.960 . S
H1126 C1140 0.960 . S
H1127 C1140 0.960 1_545 S
C1128 H1120 0.929 . S
C1128 C1129 1.377 . S
C1128 C1130 1.384 . S
C1129 C1128 1.377 . S
C1129 C1135 1.390 . S
C1130 H1121 0.930 . S
C1130 C1128 1.384 . S
C1130 C1131 1.372 . S
C1131 C1130 1.372 . S
C1131 C1132 1.400 . S
C1131 C1136 1.490 . S
C1132 H1122 0.930 . S
C1132 C1131 1.400 . S
C1132 C1135 1.386 . S
H1133 C1149 0.930 . S
H1134 C1150 0.931 1_545 S
C1135 H1123 0.929 . S
C1135 C1129 1.390 . S
C1135 C1132 1.386 . S
C1136 C1131 1.490 . S
C1136 C1138 1.395 . S
C1136 C1139 1.403 1_445 S
H1137 C1143 0.930 . S
C1138 H1124 0.930 . S
C1138 C1136 1.395 . S
C1138 C1141 1.403 . S
C1139 C1136 1.403 1_665 S
C1139 C1140 1.524 . S
C1139 C1143 1.400 . S
C1140 H1125 0.960 . S
C1140 H1126 0.960 . S
C1140 H1127 0.960 1_565 S
C1140 C1139 1.524 . S
C1141 C1138 1.403 . S
C1141 C1142 1.392 1_445 S
C1141 C1145 1.495 . S
C1142 C1141 1.392 1_665 S
C1142 C1143 1.385 . S
C1142 C1144 1.478 . S
C1143 H1137 0.930 . S
C1143 C1139 1.400 . S
C1143 C1142 1.385 . S
C1144 C1142 1.478 . S
C1144 C1146 1.381 . S
C1144 C1150 1.383 . S
C1145 C1141 1.495 . S
C1145 H1151 0.959 . S
C1145 H1152 0.961 . S
C1145 H1153 0.960 1_545 S
C1146 C1144 1.381 . S
C1146 C1147 1.394 . S
C1146 H1154 0.931 1_655 S
C1147 C1146 1.394 . S
C1147 C1148 1.383 . S
C1147 H1155 0.929 . S
C1148 C1147 1.383 . S
C1148 C1149 1.377 . S
C1149 H1133 0.930 . S
C1149 C1148 1.377 . S
C1149 C1150 1.379 . S
C1150 H1134 0.931 1_565 S
C1150 C1144 1.383 . S
C1150 C1149 1.379 . S
H1151 C1145 0.959 . S
H1152 C1145 0.961 . S
H1153 C1145 0.960 1_565 S
H1154 C1146 0.931 1_455 S
H1155 C1147 0.929 . S
H1156 C1164 0.929 . S
H1157 C1166 0.930 . S
H1158 C1168 0.930 1_545 S
H1159 C1171 0.929 . S
H1160 C1174 0.930 . S
H1161 C1176 0.960 1_545 S
H1162 C1176 0.960 . S
H1163 C1176 0.960 1_545 S
C1164 H1156 0.929 . S
C1164 C1165 1.377 . S
C1164 C1166 1.384 . S
C1165 C1164 1.377 . S
C1165 C1171 1.390 . S
C1166 H1157 0.930 . S
C1166 C1164 1.384 . S
C1166 C1167 1.372 . S
C1167 C1166 1.372 . S
C1167 C1168 1.400 . S
C1167 C1172 1.490 . S
C1168 H1158 0.930 1_565 S
C1168 C1167 1.400 . S
C1168 C1171 1.386 . S
H1169 C1185 0.930 . S
H1170 C1186 0.931 . S
C1171 H1159 0.929 . S
C1171 C1165 1.390 . S
C1171 C1168 1.386 . S
C1172 C1167 1.490 . S
C1172 C1174 1.395 . S
C1172 C1175 1.403 . S
H1173 C1179 0.930 . S
C1174 H1160 0.930 . S
C1174 C1172 1.395 . S
C1174 C1177 1.406 . S
C1175 C1172 1.403 . S
C1175 C1176 1.524 . S
C1175 C1179 1.400 1_565 S
C1176 H1161 0.960 1_565 S
C1176 H1162 0.960 . S
C1176 H1163 0.960 1_565 S
C1176 C1175 1.524 . S
C1177 C1174 1.406 . S
C1177 C1178 1.390 1_565 S
C1177 C1181 1.494 1_565 S
C1178 C1177 1.390 1_545 S
C1178 C1179 1.385 . S
C1178 C1180 1.478 . S
C1179 H1173 0.930 . S
C1179 C1175 1.400 1_545 S
C1179 C1178 1.385 . S
C1180 C1178 1.478 . S
C1180 C1182 1.381 . S
C1180 C1186 1.383 . S
C1181 C1177 1.494 1_545 S
C1181 H1187 0.943 1_545 S
C1181 H1188 1.001 . S
C1181 H1189 0.939 1_545 S
C1182 C1180 1.381 . S
C1182 C1183 1.394 . S
C1182 H1190 0.930 1_545 S
C1183 C1182 1.394 . S
C1183 C1184 1.383 . S
C1183 H1191 0.929 . S
C1184 C1183 1.383 . S
C1184 C1185 1.377 . S
C1185 H1169 0.930 . S
C1185 C1184 1.377 . S
C1185 C1186 1.379 . S
C1186 H1170 0.931 . S
C1186 C1180 1.383 . S
C1186 C1185 1.379 . S
H1187 C1181 0.943 1_565 S
H1188 C1181 1.001 . S
H1189 C1181 0.939 1_565 S
H1190 C1182 0.930 1_565 S
H1191 C1183 0.929 . S
H1192 C1200 0.929 . S
H1193 C1202 0.930 . S
H1194 C1204 0.930 . S
H1195 C1207 0.929 . S
H1196 C1210 0.930 . S
H1197 C1212 0.960 1_554 S
H1198 C1212 0.960 . S
H1199 C1212 0.960 . S
C1200 H1192 0.929 . S
C1200 C1201 1.377 . S
C1200 C1202 1.384 . S
C1201 C1200 1.377 . S
C1201 C1207 1.390 . S
C1202 H1193 0.930 . S
C1202 C1200 1.384 . S
C1202 C1203 1.372 . S
C1203 C1202 1.372 . S
C1203 C1204 1.400 . S
C1203 C1208 1.490 . S
C1204 H1194 0.930 . S
C1204 C1203 1.400 . S
C1204 C1207 1.386 . S
H1205 C1221 0.930 . S
H1206 C1222 0.931 . S
C1207 H1195 0.929 . S
C1207 C1201 1.390 . S
C1207 C1204 1.386 . S
C1208 C1203 1.490 . S
C1208 C1210 1.395 . S
C1208 C1211 1.403 1_545 S
H1209 C1215 0.930 . S
C1210 H1196 0.930 . S
C1210 C1208 1.395 . S
C1210 C1213 1.403 1_556 S
C1211 C1208 1.403 1_565 S
C1211 C1212 1.524 . S
C1211 C1215 1.400 1_556 S
C1212 H1197 0.960 1_556 S
C1212 H1198 0.960 . S
C1212 H1199 0.960 . S
C1212 C1211 1.524 . S
C1213 C1210 1.403 1_554 S
C1213 C1214 1.392 1_545 S
C1213 C1217 1.495 . S
C1214 C1213 1.392 1_565 S
C1214 C1215 1.385 . S
C1214 C1216 1.478 . S
C1215 H1209 0.930 . S
C1215 C1211 1.400 1_554 S
C1215 C1214 1.385 . S
C1216 C1214 1.478 . S
C1216 C1218 1.381 . S
C1216 C1222 1.383 . S
C1217 C1213 1.495 . S
C1217 H1223 0.959 1_554 S
C1217 H1224 0.961 . S
C1217 H1225 0.960 . S
C1218 C1216 1.381 . S
C1218 C1219 1.394 . S
C1218 H1226 0.930 . S
C1219 C1218 1.394 . S
C1219 C1220 1.383 . S
C1219 H1227 0.929 . S
C1220 C1219 1.383 . S
C1220 C1221 1.377 . S
C1221 H1205 0.930 . S
C1221 C1220 1.377 . S
C1221 C1222 1.379 . S
C1222 H1206 0.931 . S
C1222 C1216 1.383 . S
C1222 C1221 1.379 . S
H1223 C1217 0.959 1_556 S
H1224 C1217 0.961 . S
H1225 C1217 0.960 . S
H1226 C1218 0.930 . S
H1227 C1219 0.929 . S
H1228 C1236 0.929 . S
H1229 C1238 0.930 . S
H1230 C1240 0.930 1_565 S
H1231 C1243 0.929 . S
H1232 C1246 0.930 . S
H1233 C1248 0.960 . S
H1234 C1248 0.960 1_545 S
H1235 C1248 0.960 1_554 S
C1236 H1228 0.929 . S
C1236 C1237 1.377 . S
C1236 C1238 1.384 . S
C1237 C1236 1.377 . S
C1237 C1243 1.390 . S
C1238 H1229 0.930 . S
C1238 C1236 1.384 . S
C1238 C1239 1.372 . S
C1239 C1238 1.372 . S
C1239 C1240 1.400 . S
C1239 C1244 1.490 . S
C1240 H1230 0.930 1_545 S
C1240 C1239 1.400 . S
C1240 C1243 1.386 . S
H1241 C1257 0.930 . S
H1242 C1258 0.931 . S
C1243 H1231 0.929 . S
C1243 C1237 1.390 . S
C1243 C1240 1.386 . S
C1244 C1239 1.490 . S
C1244 C1246 1.395 1_655 S
C1244 C1247 1.406 1_544 S
H1245 C1251 0.930 . S
C1246 H1232 0.930 . S
C1246 C1244 1.395 1_455 S
C1246 C1249 1.418 . S
C1247 C1244 1.406 1_566 S
C1247 C1248 1.523 . S
C1247 C1251 1.397 . S
C1248 H1233 0.960 . S
C1248 H1234 0.960 1_565 S
C1248 H1235 0.960 1_556 S
C1248 C1247 1.523 . S
C1249 C1246 1.418 . S
C1249 C1250 1.377 1_544 S
C1249 C1253 1.496 . S
C1250 C1249 1.377 1_566 S
C1250 C1251 1.385 1_455 S
C1250 C1252 1.478 . S
C1251 H1245 0.930 . S
C1251 C1247 1.397 . S
C1251 C1250 1.385 1_655 S
C1252 C1250 1.478 . S
C1252 C1254 1.381 . S
C1252 C1258 1.383 . S
C1253 C1249 1.496 . S
C1253 H1259 0.959 . S
C1253 H1260 0.961 1_545 S
C1253 H1261 0.960 1_554 S
C1254 C1252 1.381 . S
C1254 C1255 1.394 . S
C1254 H1262 0.930 1_565 S
C1255 C1254 1.394 . S
C1255 C1256 1.383 . S
C1255 H1263 0.929 . S
C1256 C1255 1.383 . S
C1256 C1257 1.377 . S
C1257 H1241 0.930 . S
C1257 C1256 1.377 . S
C1257 C1258 1.379 . S
C1258 H1242 0.931 . S
C1258 C1252 1.383 . S
C1258 C1257 1.379 . S
H1259 C1253 0.959 . S
H1260 C1253 0.961 1_565 S
H1261 C1253 0.960 1_556 S
H1262 C1254 0.930 1_545 S
H1263 C1255 0.929 . S
H1264 C1272 0.929 . S
H1265 C1274 0.930 . S
H1266 C1276 0.930 . S
H1267 C1279 0.929 . S
H1268 C1282 0.930 . S
H1269 C1284 0.960 . S
H1270 C1284 0.960 . S
H1271 C1284 0.960 . S
C1272 H1264 0.929 . S
C1272 C1273 1.377 . S
C1272 C1274 1.384 . S
C1273 C1272 1.377 . S
C1273 C1279 1.390 . S
C1274 H1265 0.930 . S
C1274 C1272 1.384 . S
C1274 C1275 1.372 . S
C1275 C1274 1.372 . S
C1275 C1276 1.400 . S
C1275 C1280 1.490 . S
C1276 H1266 0.930 . S
C1276 C1275 1.400 . S
C1276 C1279 1.386 . S
H1277 C1293 0.930 . S
H1278 C1294 0.931 . S
C1279 H1267 0.929 . S
C1279 C1273 1.390 . S
C1279 C1276 1.386 . S
C1280 C1275 1.490 . S
C1280 C1282 1.395 . S
C1280 C1283 1.403 . S
H1281 C1287 0.930 . S
C1282 H1268 0.930 . S
C1282 C1280 1.395 . S
C1282 C1285 1.403 . S
C1283 C1280 1.403 . S
C1283 C1284 1.524 . S
C1283 C1287 1.400 . S
C1284 H1269 0.960 . S
C1284 H1270 0.960 . S
C1284 H1271 0.960 . S
C1284 C1283 1.524 . S
C1285 C1282 1.403 . S
C1285 C1286 1.392 . S
C1285 C1289 1.495 . S
C1286 C1285 1.392 . S
C1286 C1287 1.385 . S
C1286 C1288 1.478 . S
C1287 H1281 0.930 . S
C1287 C1283 1.400 . S
C1287 C1286 1.385 . S
C1288 C1286 1.478 . S
C1288 C1290 1.381 . S
C1288 C1294 1.383 . S
C1289 C1285 1.495 . S
C1289 H1295 0.959 . S
C1289 H1296 0.961 . S
C1289 H1297 0.960 . S
C1290 C1288 1.381 . S
C1290 C1291 1.394 . S
C1290 H1298 0.930 . S
C1291 C1290 1.394 . S
C1291 C1292 1.383 . S
C1291 H1299 0.929 . S
C1292 C1291 1.383 . S
C1292 C1293 1.377 . S
C1293 H1277 0.930 . S
C1293 C1292 1.377 . S
C1293 C1294 1.379 . S
C1294 H1278 0.931 . S
C1294 C1288 1.383 . S
C1294 C1293 1.379 . S
H1295 C1289 0.959 . S
H1296 C1289 0.961 . S
H1297 C1289 0.960 . S
H1298 C1290 0.930 . S
H1299 C1291 0.929 . S
H1300 C1308 0.929 . S
H1301 C1310 0.930 . S
H1302 C1312 0.930 . S
H1303 C1315 0.929 . S
H1304 C1318 0.930 . S
H1305 C1320 0.960 . S
H1306 C1320 0.960 . S
H1307 C1320 0.960 . S
C1308 H1300 0.929 . S
C1308 C1309 1.377 . S
C1308 C1310 1.384 . S
C1309 C1308 1.377 . S
C1309 C1315 1.390 . S
C1310 H1301 0.930 . S
C1310 C1308 1.384 . S
C1310 C1311 1.372 . S
C1311 C1310 1.372 . S
C1311 C1312 1.400 . S
C1311 C1316 1.490 . S
C1312 H1302 0.930 . S
C1312 C1311 1.400 . S
C1312 C1315 1.386 . S
H1313 C1329 0.930 . S
H1314 C1330 0.931 . S
C1315 H1303 0.929 . S
C1315 C1309 1.390 . S
C1315 C1312 1.386 . S
C1316 C1311 1.490 . S
C1316 C1318 1.395 1_455 S
C1316 C1319 1.403 . S
H1317 C1323 0.930 . S
C1318 H1304 0.930 . S
C1318 C1316 1.395 1_655 S
C1318 C1321 1.403 . S
C1319 C1316 1.403 . S
C1319 C1320 1.524 . S
C1319 C1323 1.400 . S
C1320 H1305 0.960 . S
C1320 H1306 0.960 . S
C1320 H1307 0.960 . S
C1320 C1319 1.524 . S
C1321 C1318 1.403 . S
C1321 C1322 1.392 . S
C1321 C1325 1.495 . S
C1322 C1321 1.392 . S
C1322 C1323 1.385 1_655 S
C1322 C1324 1.478 . S
C1323 H1317 0.930 . S
C1323 C1319 1.400 . S
C1323 C1322 1.385 1_455 S
C1324 C1322 1.478 . S
C1324 C1326 1.381 . S
C1324 C1330 1.383 . S
C1325 C1321 1.495 . S
C1325 H1331 0.959 . S
C1325 H1332 0.961 . S
C1325 H1333 0.960 . S
C1326 C1324 1.381 . S
C1326 C1327 1.394 . S
C1326 H1334 0.930 . S
C1327 C1326 1.394 . S
C1327 C1328 1.383 . S
C1327 H1335 0.929 . S
C1328 C1327 1.383 . S
C1328 C1329 1.377 . S
C1329 H1313 0.930 . S
C1329 C1328 1.377 . S
C1329 C1330 1.379 . S
C1330 H1314 0.931 . S
C1330 C1324 1.383 . S
C1330 C1329 1.379 . S
H1331 C1325 0.959 . S
H1332 C1325 0.961 . S
H1333 C1325 0.960 . S
H1334 C1326 0.930 . S
H1335 C1327 0.929 . S
H1336 C1344 0.929 . S
H1337 C1346 0.930 . S
H1338 C1348 0.930 . S
H1339 C1351 0.929 . S
H1340 C1354 0.930 . S
H1341 C1356 0.960 . S
H1342 C1356 0.960 . S
H1343 C1356 0.960 . S
C1344 H1336 0.929 . S
C1344 C1345 1.377 . S
C1344 C1346 1.384 . S
C1345 C1344 1.377 . S
C1345 C1351 1.390 . S
C1346 H1337 0.930 . S
C1346 C1344 1.384 . S
C1346 C1347 1.372 . S
C1347 C1346 1.372 . S
C1347 C1348 1.400 . S
C1347 C1352 1.490 . S
C1348 H1338 0.930 . S
C1348 C1347 1.400 . S
C1348 C1351 1.386 . S
H1349 C1365 0.930 . S
H1350 C1366 0.931 . S
C1351 H1339 0.929 . S
C1351 C1345 1.390 . S
C1351 C1348 1.386 . S
C1352 C1347 1.490 . S
C1352 C1354 1.395 1_554 S
C1352 C1355 1.403 1_455 S
H1353 C1359 0.930 . S
C1354 H1340 0.930 . S
C1354 C1352 1.395 1_556 S
C1354 C1357 1.403 . S
C1355 C1352 1.403 1_655 S
C1355 C1356 1.524 . S
C1355 C1359 1.382 1_554 S
C1356 H1341 0.960 . S
C1356 H1342 0.960 . S
C1356 H1343 0.960 . S
C1356 C1355 1.524 . S
C1357 C1354 1.403 . S
C1357 C1358 1.392 1_455 S
C1357 C1361 1.495 . S
C1358 C1357 1.392 1_655 S
C1358 C1359 1.404 . S
C1358 C1360 1.478 . S
C1359 H1353 0.930 . S
C1359 C1355 1.382 1_556 S
C1359 C1358 1.404 . S
C1360 C1358 1.478 . S
C1360 C1362 1.381 . S
C1360 C1366 1.383 . S
C1361 C1357 1.495 . S
C1361 H1367 0.959 . S
C1361 H1368 0.961 . S
C1361 H1369 0.960 . S
C1362 C1360 1.381 . S
C1362 C1363 1.394 . S
C1362 H1370 0.930 . S
C1363 C1362 1.394 . S
C1363 C1364 1.383 . S
C1363 H1371 0.929 . S
C1364 C1363 1.383 . S
C1364 C1365 1.377 . S
C1365 H1349 0.930 . S
C1365 C1364 1.377 . S
C1365 C1366 1.379 . S
C1366 H1350 0.931 . S
C1366 C1360 1.383 . S
C1366 C1365 1.379 . S
H1367 C1361 0.959 . S
H1368 C1361 0.961 . S
H1369 C1361 0.960 . S
H1370 C1362 0.930 . S
H1371 C1363 0.929 . S
H1372 C1380 0.929 . S
H1373 C1382 0.930 . S
H1374 C1384 0.930 . S
H1375 C1387 0.929 . S
H1376 C1390 0.930 . S
H1377 C1392 0.960 . S
H1378 C1392 0.960 1_556 S
H1379 C1392 0.960 . S
C1380 H1372 0.929 . S
C1380 C1381 1.377 . S
C1380 C1382 1.384 . S
C1381 C1380 1.377 . S
C1381 C1387 1.390 . S
C1382 H1373 0.930 . S
C1382 C1380 1.384 . S
C1382 C1383 1.372 . S
C1383 C1382 1.372 . S
C1383 C1384 1.400 . S
C1383 C1388 1.490 . S
C1384 H1374 0.930 . S
C1384 C1383 1.400 . S
C1384 C1387 1.386 . S
H1385 C1401 0.930 . S
H1386 C1402 0.931 . S
C1387 H1375 0.929 . S
C1387 C1381 1.390 . S
C1387 C1384 1.386 . S
C1388 C1383 1.490 . S
C1388 C1390 1.395 . S
C1388 C1391 1.356 1_556 S
H1389 C1395 0.930 . S
C1390 H1376 0.930 . S
C1390 C1388 1.395 . S
C1390 C1393 1.403 . S
C1391 C1388 1.356 1_554 S
C1391 C1392 1.533 . S
C1391 C1395 1.441 . S
C1392 H1377 0.960 . S
C1392 H1378 0.960 1_554 S
C1392 H1379 0.960 . S
C1392 C1391 1.533 . S
C1393 C1390 1.403 . S
C1393 C1394 1.392 1_556 S
C1393 C1397 1.495 . S
C1394 C1393 1.392 1_554 S
C1394 C1395 1.385 . S
C1394 C1396 1.478 . S
C1395 H1389 0.930 . S
C1395 C1391 1.441 . S
C1395 C1394 1.385 . S
C1396 C1394 1.478 . S
C1396 C1398 1.381 . S
C1396 C1402 1.383 . S
C1397 C1393 1.495 . S
C1397 H1403 0.959 . S
C1397 H1404 0.961 1_556 S
C1397 H1405 0.960 . S
C1398 C1396 1.381 . S
C1398 C1399 1.394 . S
C1398 H1406 0.930 . S
C1399 C1398 1.394 . S
C1399 C1400 1.383 . S
C1399 H1407 0.929 . S
C1400 C1399 1.383 . S
C1400 C1401 1.377 . S
C1401 H1385 0.930 . S
C1401 C1400 1.377 . S
C1401 C1402 1.379 . S
C1402 H1386 0.931 . S
C1402 C1396 1.383 . S
C1402 C1401 1.379 . S
H1403 C1397 0.959 . S
H1404 C1397 0.961 1_554 S
H1405 C1397 0.960 . S
H1406 C1398 0.930 . S
H1407 C1399 0.929 . S
H1408 C1416 0.929 . S
H1409 C1418 0.930 . S
H1410 C1420 0.930 . S
H1411 C1423 0.929 . S
H1412 C1426 0.930 . S
H1413 C1428 0.960 . S
H1414 C1428 0.960 . S
H1415 C1428 0.960 . S
C1416 H1408 0.929 . S
C1416 C1417 1.377 . S
C1416 C1418 1.384 . S
C1417 C1416 1.377 . S
C1417 C1423 1.390 . S
C1418 H1409 0.930 . S
C1418 C1416 1.384 . S
C1418 C1419 1.372 . S
C1419 C1418 1.372 . S
C1419 C1420 1.400 . S
C1419 C1424 1.490 . S
C1420 H1410 0.930 . S
C1420 C1419 1.400 . S
C1420 C1423 1.386 . S
H1421 C1437 0.930 . S
H1422 C1438 0.931 . S
C1423 H1411 0.929 . S
C1423 C1417 1.390 . S
C1423 C1420 1.386 . S
C1424 C1419 1.490 . S
C1424 C1426 1.395 . S
C1424 C1427 1.403 1_545 S
H1425 C1431 0.930 . S
C1426 H1412 0.930 . S
C1426 C1424 1.395 . S
C1426 C1429 1.403 . S
C1427 C1424 1.403 1_565 S
C1427 C1428 1.524 . S
C1427 C1431 1.400 . S
C1428 H1413 0.960 . S
C1428 H1414 0.960 . S
C1428 H1415 0.960 . S
C1428 C1427 1.524 . S
C1429 C1426 1.403 . S
C1429 C1430 1.392 1_545 S
C1429 C1433 1.495 . S
C1430 C1429 1.392 1_565 S
C1430 C1431 1.385 . S
C1430 C1432 1.478 . S
C1431 H1425 0.930 . S
C1431 C1427 1.400 . S
C1431 C1430 1.385 . S
C1432 C1430 1.478 . S
C1432 C1434 1.381 . S
C1432 C1438 1.383 . S
C1433 C1429 1.495 . S
C1433 H1439 0.959 . S
C1433 H1440 0.961 . S
C1433 H1441 0.960 . S
C1434 C1432 1.381 . S
C1434 C1435 1.394 . S
C1434 H1442 0.930 . S
C1435 C1434 1.394 . S
C1435 C1436 1.383 . S
C1435 H1443 0.929 . S
C1436 C1435 1.383 . S
C1436 C1437 1.377 . S
C1437 H1421 0.930 . S
C1437 C1436 1.377 . S
C1437 C1438 1.379 . S
C1438 H1422 0.931 . S
C1438 C1432 1.383 . S
C1438 C1437 1.379 . S
H1439 C1433 0.959 . S
H1440 C1433 0.961 . S
H1441 C1433 0.960 . S
H1442 C1434 0.930 . S
H1443 C1435 0.929 . S
H1444 C1452 0.929 . S
H1445 C1454 0.930 . S
H1446 C1456 0.930 . S
H1447 C1459 0.929 . S
H1448 C1462 0.930 . S
H1449 C1464 0.960 . S
H1450 C1464 0.960 . S
H1451 C1464 0.960 . S
C1452 H1444 0.929 . S
C1452 C1453 1.377 . S
C1452 C1454 1.384 . S
C1453 C1452 1.377 . S
C1453 C1459 1.390 . S
C1454 H1445 0.930 . S
C1454 C1452 1.384 . S
C1454 C1455 1.372 . S
C1455 C1454 1.372 . S
C1455 C1456 1.400 . S
C1455 C1460 1.490 . S
C1456 H1446 0.930 . S
C1456 C1455 1.400 . S
C1456 C1459 1.386 . S
H1457 C1473 0.930 . S
H1458 C1474 0.931 . S
C1459 H1447 0.929 . S
C1459 C1453 1.390 . S
C1459 C1456 1.386 . S
C1460 C1455 1.490 . S
C1460 C1462 1.395 1_545 S
C1460 C1463 1.403 . S
H1461 C1467 0.930 . S
C1462 H1448 0.930 . S
C1462 C1460 1.395 1_565 S
C1462 C1465 1.403 . S
C1463 C1460 1.403 . S
C1463 C1464 1.524 . S
C1463 C1467 1.400 . S
C1464 H1449 0.960 . S
C1464 H1450 0.960 . S
C1464 H1451 0.960 . S
C1464 C1463 1.524 . S
C1465 C1462 1.403 . S
C1465 C1466 1.392 . S
C1465 C1469 1.495 . S
C1466 C1465 1.392 . S
C1466 C1467 1.385 1_565 S
C1466 C1468 1.478 . S
C1467 H1461 0.930 . S
C1467 C1463 1.400 . S
C1467 C1466 1.385 1_545 S
C1468 C1466 1.478 . S
C1468 C1470 1.381 . S
C1468 C1474 1.383 . S
C1469 C1465 1.495 . S
C1469 H1475 0.959 . S
C1469 H1476 0.961 . S
C1469 H1477 0.960 . S
C1470 C1468 1.381 . S
C1470 C1471 1.394 . S
C1470 H1478 0.930 . S
C1471 C1470 1.394 . S
C1471 C1472 1.383 . S
C1471 H1479 0.929 . S
C1472 C1471 1.383 . S
C1472 C1473 1.377 . S
C1473 H1457 0.930 . S
C1473 C1472 1.377 . S
C1473 C1474 1.379 . S
C1474 H1458 0.931 . S
C1474 C1468 1.383 . S
C1474 C1473 1.379 . S
H1475 C1469 0.959 . S
H1476 C1469 0.961 . S
H1477 C1469 0.960 . S
H1478 C1470 0.930 . S
H1479 C1471 0.929 . S
H1480 C1488 0.929 . S
H1481 C1490 0.930 . S
H1482 C1492 0.930 . S
H1483 C1495 0.929 . S
H1484 C1498 0.930 . S
H1485 C1500 0.960 . S
H1486 C1500 0.960 . S
H1487 C1500 0.960 . S
C1488 H1480 0.929 . S
C1488 C1489 1.377 . S
C1488 C1490 1.384 . S
C1489 C1488 1.377 . S
C1489 C1495 1.390 . S
C1490 H1481 0.930 . S
C1490 C1488 1.384 . S
C1490 C1491 1.372 . S
C1491 C1490 1.372 . S
C1491 C1492 1.400 . S
C1491 C1496 1.490 . S
C1492 H1482 0.930 . S
C1492 C1491 1.400 . S
C1492 C1495 1.386 . S
H1493 C1509 0.930 . S
H1494 C1510 0.931 . S
C1495 H1483 0.929 . S
C1495 C1489 1.390 . S
C1495 C1492 1.386 . S
C1496 C1491 1.490 . S
C1496 C1498 1.395 . S
C1496 C1499 1.403 1_545 S
H1497 C1503 0.930 . S
C1498 H1484 0.930 . S
C1498 C1496 1.395 . S
C1498 C1501 1.403 . S
C1499 C1496 1.403 1_565 S
C1499 C1500 1.524 . S
C1499 C1503 1.400 . S
C1500 H1485 0.960 . S
C1500 H1486 0.960 . S
C1500 H1487 0.960 . S
C1500 C1499 1.524 . S
C1501 C1498 1.403 . S
C1501 C1502 1.392 1_545 S
C1501 C1505 1.495 . S
C1502 C1501 1.392 1_565 S
C1502 C1503 1.385 . S
C1502 C1504 1.478 . S
C1503 H1497 0.930 . S
C1503 C1499 1.400 . S
C1503 C1502 1.385 . S
C1504 C1502 1.478 . S
C1504 C1506 1.381 . S
C1504 C1510 1.383 . S
C1505 C1501 1.495 . S
C1505 H1511 0.959 . S
C1505 H1512 0.961 . S
C1505 H1513 0.960 . S
C1506 C1504 1.381 . S
C1506 C1507 1.394 . S
C1506 H1514 0.930 . S
C1507 C1506 1.394 . S
C1507 C1508 1.383 . S
C1507 H1515 0.929 . S
C1508 C1507 1.383 . S
C1508 C1509 1.377 . S
C1509 H1493 0.930 . S
C1509 C1508 1.377 . S
C1509 C1510 1.379 . S
C1510 H1494 0.931 . S
C1510 C1504 1.383 . S
C1510 C1509 1.379 . S
H1511 C1505 0.959 . S
H1512 C1505 0.961 . S
H1513 C1505 0.960 . S
H1514 C1506 0.930 . S
H1515 C1507 0.929 . S
H1516 C1524 0.929 . S
H1517 C1526 0.930 . S
H1518 C1528 0.930 . S
H1519 C1531 0.929 . S
H1520 C1534 0.930 . S
H1521 C1536 0.960 . S
H1522 C1536 0.960 . S
H1523 C1536 0.960 . S
C1524 H1516 0.929 . S
C1524 C1525 1.377 . S
C1524 C1526 1.384 . S
C1525 C1524 1.377 . S
C1525 C1531 1.390 . S
C1526 H1517 0.930 . S
C1526 C1524 1.384 . S
C1526 C1527 1.372 . S
C1527 C1526 1.372 . S
C1527 C1528 1.400 . S
C1527 C1532 1.490 . S
C1528 H1518 0.930 . S
C1528 C1527 1.400 . S
C1528 C1531 1.386 . S
H1529 C1545 0.930 . S
H1530 C1546 0.931 . S
C1531 H1519 0.929 . S
C1531 C1525 1.390 . S
C1531 C1528 1.386 . S
C1532 C1527 1.490 . S
C1532 C1534 1.395 1_545 S
C1532 C1535 1.403 . S
H1533 C1539 0.930 . S
C1534 H1520 0.930 . S
C1534 C1532 1.395 1_565 S
C1534 C1537 1.403 . S
C1535 C1532 1.403 . S
C1535 C1536 1.524 . S
C1535 C1539 1.400 . S
C1536 H1521 0.960 . S
C1536 H1522 0.960 . S
C1536 H1523 0.960 . S
C1536 C1535 1.524 . S
C1537 C1534 1.403 . S
C1537 C1538 1.392 . S
C1537 C1541 1.495 . S
C1538 C1537 1.392 . S
C1538 C1539 1.385 1_565 S
C1538 C1540 1.478 . S
C1539 H1533 0.930 . S
C1539 C1535 1.400 . S
C1539 C1538 1.385 1_545 S
C1540 C1538 1.478 . S
C1540 C1542 1.381 . S
C1540 C1546 1.383 . S
C1541 C1537 1.495 . S
C1541 H1547 0.959 . S
C1541 H1548 0.961 . S
C1541 H1549 0.960 . S
C1542 C1540 1.381 . S
C1542 C1543 1.394 . S
C1542 H1550 0.930 . S
C1543 C1542 1.394 . S
C1543 C1544 1.383 . S
C1543 H1551 0.929 . S
C1544 C1543 1.383 . S
C1544 C1545 1.377 . S
C1545 H1529 0.930 . S
C1545 C1544 1.377 . S
C1545 C1546 1.379 . S
C1546 H1530 0.931 . S
C1546 C1540 1.383 . S
C1546 C1545 1.379 . S
H1547 C1541 0.959 . S
H1548 C1541 0.961 . S
H1549 C1541 0.960 . S
H1550 C1542 0.930 . S
H1551 C1543 0.929 . S
H1552 C1560 0.929 . S
H1553 C1562 0.930 . S
H1554 C1564 0.930 . S
H1555 C1567 0.929 . S
H1556 C1570 0.930 . S
H1557 C1572 0.960 . S
H1558 C1572 0.960 . S
H1559 C1572 0.960 . S
C1560 H1552 0.929 . S
C1560 C1561 1.377 . S
C1560 C1562 1.384 . S
C1561 C1560 1.377 . S
C1561 C1567 1.390 . S
C1562 H1553 0.930 . S
C1562 C1560 1.384 . S
C1562 C1563 1.372 . S
C1563 C1562 1.372 . S
C1563 C1564 1.400 . S
C1563 C1568 1.490 . S
C1564 H1554 0.930 . S
C1564 C1563 1.400 . S
C1564 C1567 1.386 . S
H1565 C1581 0.930 . S
H1566 C1582 0.931 . S
C1567 H1555 0.929 . S
C1567 C1561 1.390 . S
C1567 C1564 1.386 . S
C1568 C1563 1.490 . S
C1568 C1570 1.395 . S
C1568 C1571 1.403 . S
H1569 C1575 0.930 . S
C1570 H1556 0.930 . S
C1570 C1568 1.395 . S
C1570 C1573 1.403 . S
C1571 C1568 1.403 . S
C1571 C1572 1.524 . S
C1571 C1575 1.400 . S
C1572 H1557 0.960 . S
C1572 H1558 0.960 . S
C1572 H1559 0.960 . S
C1572 C1571 1.524 . S
C1573 C1570 1.403 . S
C1573 C1574 1.392 . S
C1573 C1577 1.495 . S
C1574 C1573 1.392 . S
C1574 C1575 1.385 . S
C1574 C1576 1.478 . S
C1575 H1569 0.930 . S
C1575 C1571 1.400 . S
C1575 C1574 1.385 . S
C1576 C1574 1.478 . S
C1576 C1578 1.381 . S
C1576 C1582 1.383 . S
C1577 C1573 1.495 . S
C1577 H1583 0.959 . S
C1577 H1584 0.961 . S
C1577 H1585 0.960 . S
C1578 C1576 1.381 . S
C1578 C1579 1.394 . S
C1578 H1586 0.930 . S
C1579 C1578 1.394 . S
C1579 C1580 1.383 . S
C1579 H1587 0.929 . S
C1580 C1579 1.383 . S
C1580 C1581 1.377 . S
C1581 H1565 0.930 . S
C1581 C1580 1.377 . S
C1581 C1582 1.379 . S
C1582 H1566 0.931 . S
C1582 C1576 1.383 . S
C1582 C1581 1.379 . S
H1583 C1577 0.959 . S
H1584 C1577 0.961 . S
H1585 C1577 0.960 . S
H1586 C1578 0.930 . S
H1587 C1579 0.929 . S
H1588 C1596 0.929 . S
H1589 C1598 0.930 . S
H1590 C1600 0.930 . S
H1591 C1603 0.929 . S
H1592 C1606 0.930 . S
H1593 C1608 0.960 . S
H1594 C1608 0.960 . S
H1595 C1608 0.960 . S
C1596 H1588 0.929 . S
C1596 C1597 1.377 . S
C1596 C1598 1.384 . S
C1597 C1596 1.377 . S
C1597 C1603 1.390 . S
C1598 H1589 0.930 . S
C1598 C1596 1.384 . S
C1598 C1599 1.372 . S
C1599 C1598 1.372 . S
C1599 C1600 1.400 . S
C1599 C1604 1.490 . S
C1600 H1590 0.930 . S
C1600 C1599 1.400 . S
C1600 C1603 1.386 . S
H1601 C1617 0.930 . S
H1602 C1618 0.931 . S
C1603 H1591 0.929 . S
C1603 C1597 1.390 . S
C1603 C1600 1.386 . S
C1604 C1599 1.490 . S
C1604 C1606 1.395 . S
C1604 C1607 1.403 . S
H1605 C1611 0.930 . S
C1606 H1592 0.930 . S
C1606 C1604 1.395 . S
C1606 C1609 1.403 . S
C1607 C1604 1.403 . S
C1607 C1608 1.524 . S
C1607 C1611 1.400 . S
C1608 H1593 0.960 . S
C1608 H1594 0.960 . S
C1608 H1595 0.960 . S
C1608 C1607 1.524 . S
C1609 C1606 1.403 . S
C1609 C1610 1.392 . S
C1609 C1613 1.495 . S
C1610 C1609 1.392 . S
C1610 C1611 1.385 . S
C1610 C1612 1.478 . S
C1611 H1605 0.930 . S
C1611 C1607 1.400 . S
C1611 C1610 1.385 . S
C1612 C1610 1.478 . S
C1612 C1614 1.381 . S
C1612 C1618 1.383 . S
C1613 C1609 1.495 . S
C1613 H1619 0.959 . S
C1613 H1620 0.961 . S
C1613 H1621 0.960 . S
C1614 C1612 1.381 . S
C1614 C1615 1.394 . S
C1614 H1622 0.930 . S
C1615 C1614 1.394 . S
C1615 C1616 1.383 . S
C1615 H1623 0.929 . S
C1616 C1615 1.383 . S
C1616 C1617 1.377 . S
C1617 H1601 0.930 . S
C1617 C1616 1.377 . S
C1617 C1618 1.379 . S
C1618 H1602 0.931 . S
C1618 C1612 1.383 . S
C1618 C1617 1.379 . S
H1619 C1613 0.959 . S
H1620 C1613 0.961 . S
H1621 C1613 0.960 . S
H1622 C1614 0.930 . S
H1623 C1615 0.929 . S
H1624 C1632 0.929 . S
H1625 C1634 0.930 . S
H1626 C1636 0.930 . S
H1627 C1639 0.929 . S
H1628 C1642 0.930 . S
H1629 C1644 0.960 . S
H1630 C1644 0.960 . S
H1631 C1644 0.960 . S
C1632 H1624 0.929 . S
C1632 C1633 1.377 . S
C1632 C1634 1.384 . S
C1633 C1632 1.377 . S
C1633 C1639 1.390 . S
C1634 H1625 0.930 . S
C1634 C1632 1.384 . S
C1634 C1635 1.372 . S
C1635 C1634 1.372 . S
C1635 C1636 1.400 . S
C1635 C1640 1.490 . S
C1636 H1626 0.930 . S
C1636 C1635 1.400 . S
C1636 C1639 1.386 . S
H1637 C1653 0.930 . S
H1638 C1654 0.931 . S
C1639 H1627 0.929 . S
C1639 C1633 1.390 . S
C1639 C1636 1.386 . S
C1640 C1635 1.490 . S
C1640 C1642 1.395 . S
C1640 C1643 1.403 . S
H1641 C1647 0.930 . S
C1642 H1628 0.930 . S
C1642 C1640 1.395 . S
C1642 C1645 1.403 . S
C1643 C1640 1.403 . S
C1643 C1644 1.524 . S
C1643 C1647 1.400 . S
C1644 H1629 0.960 . S
C1644 H1630 0.960 . S
C1644 H1631 0.960 . S
C1644 C1643 1.524 . S
C1645 C1642 1.403 . S
C1645 C1646 1.392 . S
C1645 C1649 1.495 . S
C1646 C1645 1.392 . S
C1646 C1647 1.385 . S
C1646 C1648 1.478 . S
C1647 H1641 0.930 . S
C1647 C1643 1.400 . S
C1647 C1646 1.385 . S
C1648 C1646 1.478 . S
C1648 C1650 1.381 . S
C1648 C1654 1.383 . S
C1649 C1645 1.495 . S
C1649 H1655 0.959 . S
C1649 H1656 0.961 . S
C1649 H1657 0.960 . S
C1650 C1648 1.381 . S
C1650 C1651 1.394 . S
C1650 H1658 0.930 . S
C1651 C1650 1.394 . S
C1651 C1652 1.383 . S
C1651 H1659 0.929 . S
C1652 C1651 1.383 . S
C1652 C1653 1.377 . S
C1653 H1637 0.930 . S
C1653 C1652 1.377 . S
C1653 C1654 1.379 . S
C1654 H1638 0.931 . S
C1654 C1648 1.383 . S
C1654 C1653 1.379 . S
H1655 C1649 0.959 . S
H1656 C1649 0.961 . S
H1657 C1649 0.960 . S
H1658 C1650 0.930 . S
H1659 C1651 0.929 . S
H1660 C1668 0.929 . S
H1661 C1670 0.930 . S
H1662 C1672 0.930 . S
H1663 C1675 0.929 . S
H1664 C1678 0.930 . S
H1665 C1680 0.960 . S
H1666 C1680 0.960 . S
H1667 C1680 0.960 . S
C1668 H1660 0.929 . S
C1668 C1669 1.377 . S
C1668 C1670 1.384 . S
C1669 C1668 1.377 . S
C1669 C1675 1.390 . S
C1670 H1661 0.930 . S
C1670 C1668 1.384 . S
C1670 C1671 1.372 . S
C1671 C1670 1.372 . S
C1671 C1672 1.400 . S
C1671 C1676 1.490 . S
C1672 H1662 0.930 . S
C1672 C1671 1.400 . S
C1672 C1675 1.386 . S
H1673 C1689 0.930 . S
H1674 C1690 0.931 . S
C1675 H1663 0.929 . S
C1675 C1669 1.390 . S
C1675 C1672 1.386 . S
C1676 C1671 1.490 . S
C1676 C1678 1.395 . S
C1676 C1679 1.403 . S
H1677 C1683 0.930 . S
C1678 H1664 0.930 . S
C1678 C1676 1.395 . S
C1678 C1681 1.403 . S
C1679 C1676 1.403 . S
C1679 C1680 1.524 . S
C1679 C1683 1.400 . S
C1680 H1665 0.960 . S
C1680 H1666 0.960 . S
C1680 H1667 0.960 . S
C1680 C1679 1.524 . S
C1681 C1678 1.403 . S
C1681 C1682 1.392 . S
C1681 C1685 1.495 . S
C1682 C1681 1.392 . S
C1682 C1683 1.385 . S
C1682 C1684 1.478 . S
C1683 H1677 0.930 . S
C1683 C1679 1.400 . S
C1683 C1682 1.385 . S
C1684 C1682 1.478 . S
C1684 C1686 1.381 . S
C1684 C1690 1.383 . S
C1685 C1681 1.495 . S
C1685 H1691 0.959 . S
C1685 H1692 0.961 . S
C1685 H1693 0.960 . S
C1686 C1684 1.381 . S
C1686 C1687 1.394 . S
C1686 H1694 0.930 . S
C1687 C1686 1.394 . S
C1687 C1688 1.383 . S
C1687 H1695 0.929 . S
C1688 C1687 1.383 . S
C1688 C1689 1.377 . S
C1689 H1673 0.930 . S
C1689 C1688 1.377 . S
C1689 C1690 1.379 . S
C1690 H1674 0.931 . S
C1690 C1684 1.383 . S
C1690 C1689 1.379 . S
H1691 C1685 0.959 . S
H1692 C1685 0.961 . S
H1693 C1685 0.960 . S
H1694 C1686 0.930 . S
H1695 C1687 0.929 . S
H1696 C1704 0.929 . S
H1697 C1706 0.930 . S
H1698 C1708 0.930 . S
H1699 C1711 0.929 . S
H1700 C1714 0.930 . S
H1701 C1716 0.960 . S
H1702 C1716 0.960 . S
H1703 C1716 0.960 . S
C1704 H1696 0.929 . S
C1704 C1705 1.377 . S
C1704 C1706 1.384 . S
C1705 C1704 1.377 . S
C1705 C1711 1.390 . S
C1706 H1697 0.930 . S
C1706 C1704 1.384 . S
C1706 C1707 1.372 . S
C1707 C1706 1.372 . S
C1707 C1708 1.400 . S
C1707 C1712 1.490 . S
C1708 H1698 0.930 . S
C1708 C1707 1.400 . S
C1708 C1711 1.386 . S
H1709 C1725 0.930 . S
H1710 C1726 0.931 . S
C1711 H1699 0.929 . S
C1711 C1705 1.390 . S
C1711 C1708 1.386 . S
C1712 C1707 1.490 . S
C1712 C1714 1.395 . S
C1712 C1715 1.403 1_455 S
H1713 C1719 0.930 . S
C1714 H1700 0.930 . S
C1714 C1712 1.395 . S
C1714 C1717 1.403 . S
C1715 C1712 1.403 1_655 S
C1715 C1716 1.524 . S
C1715 C1719 1.400 . S
C1716 H1701 0.960 . S
C1716 H1702 0.960 . S
C1716 H1703 0.960 . S
C1716 C1715 1.524 . S
C1717 C1714 1.403 . S
C1717 C1718 1.392 1_455 S
C1717 C1721 1.495 . S
C1718 C1717 1.392 1_655 S
C1718 C1719 1.385 . S
C1718 C1720 1.478 . S
C1719 H1713 0.930 . S
C1719 C1715 1.400 . S
C1719 C1718 1.385 . S
C1720 C1718 1.478 . S
C1720 C1722 1.381 . S
C1720 C1726 1.383 . S
C1721 C1717 1.495 . S
C1721 H1727 0.959 . S
C1721 H1728 0.961 . S
C1721 H1729 0.960 . S
C1722 C1720 1.381 . S
C1722 C1723 1.394 . S
C1722 H1730 0.930 . S
C1723 C1722 1.394 . S
C1723 C1724 1.383 . S
C1723 H1731 0.929 . S
C1724 C1723 1.383 . S
C1724 C1725 1.377 . S
C1725 H1709 0.930 . S
C1725 C1724 1.377 . S
C1725 C1726 1.379 . S
C1726 H1710 0.931 . S
C1726 C1720 1.383 . S
C1726 C1725 1.379 . S
H1727 C1721 0.959 . S
H1728 C1721 0.961 . S
H1729 C1721 0.960 . S
H1730 C1722 0.930 . S
H1731 C1723 0.929 . S
H1732 C1740 0.929 . S
H1733 C1742 0.930 . S
H1734 C1744 0.930 . S
H1735 C1747 0.929 . S
H1736 C1750 0.930 . S
H1737 C1752 0.960 . S
H1738 C1752 0.960 . S
H1739 C1752 0.960 . S
C1740 H1732 0.929 . S
C1740 C1741 1.377 . S
C1740 C1742 1.384 . S
C1741 C1740 1.377 . S
C1741 C1747 1.390 . S
C1742 H1733 0.930 . S
C1742 C1740 1.384 . S
C1742 C1743 1.372 . S
C1743 C1742 1.372 . S
C1743 C1744 1.400 . S
C1743 C1748 1.490 . S
C1744 H1734 0.930 . S
C1744 C1743 1.400 . S
C1744 C1747 1.386 . S
H1745 C1761 0.930 . S
H1746 C1762 0.931 . S
C1747 H1735 0.929 . S
C1747 C1741 1.390 . S
C1747 C1744 1.386 . S
C1748 C1743 1.490 . S
C1748 C1750 1.395 . S
C1748 C1751 1.403 . S
H1749 C1755 0.930 . S
C1750 H1736 0.930 . S
C1750 C1748 1.395 . S
C1750 C1753 1.403 . S
C1751 C1748 1.403 . S
C1751 C1752 1.524 . S
C1751 C1755 1.400 . S
C1752 H1737 0.960 . S
C1752 H1738 0.960 . S
C1752 H1739 0.960 . S
C1752 C1751 1.524 . S
C1753 C1750 1.403 . S
C1753 C1754 1.392 . S
C1753 C1757 1.495 . S
C1754 C1753 1.392 . S
C1754 C1755 1.385 . S
C1754 C1756 1.478 . S
C1755 H1749 0.930 . S
C1755 C1751 1.400 . S
C1755 C1754 1.385 . S
C1756 C1754 1.478 . S
C1756 C1758 1.381 . S
C1756 C1762 1.383 . S
C1757 C1753 1.495 . S
C1757 H1763 0.959 . S
C1757 H1764 0.961 . S
C1757 H1765 0.960 . S
C1758 C1756 1.381 . S
C1758 C1759 1.394 . S
C1758 H1766 0.930 . S
C1759 C1758 1.394 . S
C1759 C1760 1.383 . S
C1759 H1767 0.929 . S
C1760 C1759 1.383 . S
C1760 C1761 1.377 . S
C1761 H1745 0.930 . S
C1761 C1760 1.377 . S
C1761 C1762 1.379 . S
C1762 H1746 0.931 . S
C1762 C1756 1.383 . S
C1762 C1761 1.379 . S
H1763 C1757 0.959 . S
H1764 C1757 0.961 . S
H1765 C1757 0.960 . S
H1766 C1758 0.930 . S
H1767 C1759 0.929 . S
H1768 C1776 0.929 . S
H1769 C1778 0.930 . S
H1770 C1780 0.930 . S
H1771 C1783 0.929 . S
H1772 C1786 0.930 . S
H1773 C1788 0.960 . S
H1774 C1788 0.960 . S
H1775 C1788 0.960 . S
C1776 H1768 0.929 . S
C1776 C1777 1.377 . S
C1776 C1778 1.384 . S
C1777 C1776 1.377 . S
C1777 C1783 1.390 . S
C1778 H1769 0.930 . S
C1778 C1776 1.384 . S
C1778 C1779 1.372 . S
C1779 C1778 1.372 . S
C1779 C1780 1.400 . S
C1779 C1784 1.490 . S
C1780 H1770 0.930 . S
C1780 C1779 1.400 . S
C1780 C1783 1.386 . S
H1781 C1797 0.930 . S
H1782 C1798 0.931 . S
C1783 H1771 0.929 . S
C1783 C1777 1.390 . S
C1783 C1780 1.386 . S
C1784 C1779 1.490 . S
C1784 C1786 1.395 . S
C1784 C1787 1.403 . S
H1785 C1791 0.930 . S
C1786 H1772 0.930 . S
C1786 C1784 1.395 . S
C1786 C1789 1.403 . S
C1787 C1784 1.403 . S
C1787 C1788 1.524 . S
C1787 C1791 1.400 . S
C1788 H1773 0.960 . S
C1788 H1774 0.960 . S
C1788 H1775 0.960 . S
C1788 C1787 1.524 . S
C1789 C1786 1.403 . S
C1789 C1790 1.392 . S
C1789 C1793 1.495 . S
C1790 C1789 1.392 . S
C1790 C1791 1.385 . S
C1790 C1792 1.478 . S
C1791 H1785 0.930 . S
C1791 C1787 1.400 . S
C1791 C1790 1.385 . S
C1792 C1790 1.478 . S
C1792 C1794 1.381 . S
C1792 C1798 1.383 . S
C1793 C1789 1.495 . S
C1793 H1799 0.959 . S
C1793 H1800 0.961 . S
C1793 H1801 0.960 . S
C1794 C1792 1.381 . S
C1794 C1795 1.394 . S
C1794 H1802 0.930 . S
C1795 C1794 1.394 . S
C1795 C1796 1.383 . S
C1795 H1803 0.929 . S
C1796 C1795 1.383 . S
C1796 C1797 1.377 . S
C1797 H1781 0.930 . S
C1797 C1796 1.377 . S
C1797 C1798 1.379 . S
C1798 H1782 0.931 . S
C1798 C1792 1.383 . S
C1798 C1797 1.379 . S
H1799 C1793 0.959 . S
H1800 C1793 0.961 . S
H1801 C1793 0.960 . S
H1802 C1794 0.930 . S
H1803 C1795 0.929 . S
H1804 C1812 0.929 . S
H1805 C1814 0.930 . S
H1806 C1816 0.930 . S
H1807 C1819 0.929 . S
H1808 C1822 0.930 . S
H1809 C1824 0.925 1_455 S
H1810 C1824 1.005 . S
H1811 C1824 0.952 1_455 S
C1812 H1804 0.929 . S
C1812 C1813 1.377 . S
C1812 C1814 1.384 . S
C1813 C1812 1.377 . S
C1813 C1819 1.390 . S
C1814 H1805 0.930 . S
C1814 C1812 1.384 . S
C1814 C1815 1.372 . S
C1815 C1814 1.372 . S
C1815 C1816 1.400 . S
C1815 C1820 1.490 . S
C1816 H1806 0.930 . S
C1816 C1815 1.400 . S
C1816 C1819 1.386 . S
H1817 C1833 0.930 . S
H1818 C1834 0.931 . S
C1819 H1807 0.929 . S
C1819 C1813 1.390 . S
C1819 C1816 1.386 . S
C1820 C1815 1.490 . S
C1820 C1822 1.395 . S
C1820 C1823 1.403 . S
H1821 C1827 0.930 . S
C1822 H1808 0.930 . S
C1822 C1820 1.395 . S
C1822 C1825 1.403 . S
C1823 C1820 1.403 . S
C1823 C1824 1.525 . S
C1823 C1827 1.400 1_655 S
C1824 H1809 0.925 1_655 S
C1824 H1810 1.005 . S
C1824 H1811 0.952 1_655 S
C1824 C1823 1.525 . S
C1825 C1822 1.403 . S
C1825 C1826 1.392 1_655 S
C1825 C1829 1.495 . S
C1826 C1825 1.392 1_455 S
C1826 C1827 1.385 . S
C1826 C1828 1.478 . S
C1827 H1821 0.930 . S
C1827 C1823 1.400 1_455 S
C1827 C1826 1.385 . S
C1828 C1826 1.478 . S
C1828 C1830 1.381 . S
C1828 C1834 1.383 . S
C1829 C1825 1.495 . S
C1829 H1835 0.959 . S
C1829 H1836 0.961 1_655 S
C1829 H1837 0.960 . S
C1830 C1828 1.381 . S
C1830 C1831 1.394 . S
C1830 H1838 0.930 . S
C1831 C1830 1.394 . S
C1831 C1832 1.383 . S
C1831 H1839 0.929 . S
C1832 C1831 1.383 . S
C1832 C1833 1.377 . S
C1833 H1817 0.930 . S
C1833 C1832 1.377 . S
C1833 C1834 1.379 . S
C1834 H1818 0.931 . S
C1834 C1828 1.383 . S
C1834 C1833 1.379 . S
H1835 C1829 0.959 . S
H1836 C1829 0.961 1_455 S
H1837 C1829 0.960 . S
H1838 C1830 0.930 . S
H1839 C1831 0.929 . S
H1840 C1848 0.929 . S
H1841 C1850 0.930 . S
H1842 C1852 0.930 . S
H1843 C1855 0.929 . S
H1844 C1858 0.930 . S
H1845 C1860 0.960 . S
H1846 C1860 0.960 . S
H1847 C1860 0.960 . S
C1848 H1840 0.929 . S
C1848 C1849 1.377 . S
C1848 C1850 1.384 . S
C1849 C1848 1.377 . S
C1849 C1855 1.390 . S
C1850 H1841 0.930 . S
C1850 C1848 1.384 . S
C1850 C1851 1.372 . S
C1851 C1850 1.372 . S
C1851 C1852 1.400 . S
C1851 C1856 1.490 . S
C1852 H1842 0.930 . S
C1852 C1851 1.400 . S
C1852 C1855 1.386 . S
H1853 C1869 0.930 . S
H1854 C1870 0.931 . S
C1855 H1843 0.929 . S
C1855 C1849 1.390 . S
C1855 C1852 1.386 . S
C1856 C1851 1.490 . S
C1856 C1858 1.395 1_655 S
C1856 C1859 1.403 . S
H1857 C1863 0.930 . S
C1858 H1844 0.930 . S
C1858 C1856 1.395 1_455 S
C1858 C1861 1.403 . S
C1859 C1856 1.403 . S
C1859 C1860 1.524 . S
C1859 C1863 1.400 . S
C1860 H1845 0.960 . S
C1860 H1846 0.960 . S
C1860 H1847 0.960 . S
C1860 C1859 1.524 . S
C1861 C1858 1.403 . S
C1861 C1862 1.392 . S
C1861 C1865 1.495 . S
C1862 C1861 1.392 . S
C1862 C1863 1.385 1_455 S
C1862 C1864 1.478 . S
C1863 H1857 0.930 . S
C1863 C1859 1.400 . S
C1863 C1862 1.385 1_655 S
C1864 C1862 1.478 . S
C1864 C1866 1.381 . S
C1864 C1870 1.383 . S
C1865 C1861 1.495 . S
C1865 H1871 0.959 . S
C1865 H1872 0.961 . S
C1865 H1873 0.960 . S
C1866 C1864 1.381 . S
C1866 C1867 1.394 . S
C1866 H1874 0.930 . S
C1867 C1866 1.394 . S
C1867 C1868 1.383 . S
C1867 H1875 0.929 . S
C1868 C1867 1.383 . S
C1868 C1869 1.377 . S
C1869 H1853 0.930 . S
C1869 C1868 1.377 . S
C1869 C1870 1.379 . S
C1870 H1854 0.931 . S
C1870 C1864 1.383 . S
C1870 C1869 1.379 . S
H1871 C1865 0.959 . S
H1872 C1865 0.961 . S
H1873 C1865 0.960 . S
H1874 C1866 0.930 . S
H1875 C1867 0.929 . S
H1876 C1884 0.929 . S
H1877 C1886 0.930 . S
H1878 C1888 0.930 . S
H1879 C1891 0.929 . S
H1880 C1894 0.930 . S
H1881 C1896 0.960 . S
H1882 C1896 0.960 . S
H1883 C1896 0.960 . S
C1884 H1876 0.929 . S
C1884 C1885 1.377 . S
C1884 C1886 1.384 . S
C1885 C1884 1.377 . S
C1885 C1891 1.390 . S
C1886 H1877 0.930 . S
C1886 C1884 1.384 . S
C1886 C1887 1.372 . S
C1887 C1886 1.372 . S
C1887 C1888 1.400 . S
C1887 C1892 1.490 . S
C1888 H1878 0.930 . S
C1888 C1887 1.400 . S
C1888 C1891 1.386 . S
H1889 C1905 0.930 . S
H1890 C1906 0.931 . S
C1891 H1879 0.929 . S
C1891 C1885 1.390 . S
C1891 C1888 1.386 . S
C1892 C1887 1.490 . S
C1892 C1894 1.395 . S
C1892 C1895 1.403 . S
H1893 C1899 0.930 . S
C1894 H1880 0.930 . S
C1894 C1892 1.395 . S
C1894 C1897 1.403 . S
C1895 C1892 1.403 . S
C1895 C1896 1.524 . S
C1895 C1899 1.400 . S
C1896 H1881 0.960 . S
C1896 H1882 0.960 . S
C1896 H1883 0.960 . S
C1896 C1895 1.524 . S
C1897 C1894 1.403 . S
C1897 C1898 1.392 . S
C1897 C1901 1.495 . S
C1898 C1897 1.392 . S
C1898 C1899 1.385 . S
C1898 C1900 1.478 . S
C1899 H1893 0.930 . S
C1899 C1895 1.400 . S
C1899 C1898 1.385 . S
C1900 C1898 1.478 . S
C1900 C1902 1.381 . S
C1900 C1906 1.383 . S
C1901 C1897 1.495 . S
C1901 H1907 0.959 . S
C1901 H1908 0.961 . S
C1901 H1909 0.960 . S
C1902 C1900 1.381 . S
C1902 C1903 1.394 . S
C1902 H1910 0.930 . S
C1903 C1902 1.394 . S
C1903 C1904 1.383 . S
C1903 H1911 0.929 . S
C1904 C1903 1.383 . S
C1904 C1905 1.377 . S
C1905 H1889 0.930 . S
C1905 C1904 1.377 . S
C1905 C1906 1.379 . S
C1906 H1890 0.931 . S
C1906 C1900 1.383 . S
C1906 C1905 1.379 . S
H1907 C1901 0.959 . S
H1908 C1901 0.961 . S
H1909 C1901 0.960 . S
H1910 C1902 0.930 . S
H1911 C1903 0.929 . S
H1912 C1920 0.929 . S
H1913 C1922 0.930 . S
H1914 C1924 0.930 . S
H1915 C1927 0.929 . S
H1916 C1930 0.930 . S
H1917 C1932 0.960 . S
H1918 C1932 0.960 . S
H1919 C1932 0.960 . S
C1920 H1912 0.929 . S
C1920 C1921 1.377 . S
C1920 C1922 1.384 . S
C1921 C1920 1.377 . S
C1921 C1927 1.390 . S
C1922 H1913 0.930 . S
C1922 C1920 1.384 . S
C1922 C1923 1.372 . S
C1923 C1922 1.372 . S
C1923 C1924 1.400 . S
C1923 C1928 1.490 . S
C1924 H1914 0.930 . S
C1924 C1923 1.400 . S
C1924 C1927 1.386 . S
H1925 C1941 0.930 . S
H1926 C1942 0.931 . S
C1927 H1915 0.929 . S
C1927 C1921 1.390 . S
C1927 C1924 1.386 . S
C1928 C1923 1.490 . S
C1928 C1930 1.395 . S
C1928 C1931 1.403 . S
H1929 C1935 0.930 . S
C1930 H1916 0.930 . S
C1930 C1928 1.395 . S
C1930 C1933 1.403 . S
C1931 C1928 1.403 . S
C1931 C1932 1.524 . S
C1931 C1935 1.400 . S
C1932 H1917 0.960 . S
C1932 H1918 0.960 . S
C1932 H1919 0.960 . S
C1932 C1931 1.524 . S
C1933 C1930 1.403 . S
C1933 C1934 1.392 . S
C1933 C1937 1.495 . S
C1934 C1933 1.392 . S
C1934 C1935 1.385 . S
C1934 C1936 1.478 . S
C1935 H1929 0.930 . S
C1935 C1931 1.400 . S
C1935 C1934 1.385 . S
C1936 C1934 1.478 . S
C1936 C1938 1.381 . S
C1936 C1942 1.383 . S
C1937 C1933 1.495 . S
C1937 H1943 0.959 . S
C1937 H1944 0.961 . S
C1937 H1945 0.960 . S
C1938 C1936 1.381 . S
C1938 C1939 1.394 . S
C1938 H1946 0.930 . S
C1939 C1938 1.394 . S
C1939 C1940 1.383 . S
C1939 H1947 0.929 . S
C1940 C1939 1.383 . S
C1940 C1941 1.377 . S
C1941 H1925 0.930 . S
C1941 C1940 1.377 . S
C1941 C1942 1.379 . S
C1942 H1926 0.931 . S
C1942 C1936 1.383 . S
C1942 C1941 1.379 . S
H1943 C1937 0.959 . S
H1944 C1937 0.961 . S
H1945 C1937 0.960 . S
H1946 C1938 0.930 . S
H1947 C1939 0.929 . S
H1948 C1956 0.929 . S
H1949 C1958 0.930 . S
H1950 C1960 0.930 . S
H1951 C1963 0.929 . S
H1952 C1966 0.930 . S
H1953 C1968 0.960 . S
H1954 C1968 0.960 . S
H1955 C1968 0.960 . S
C1956 H1948 0.929 . S
C1956 C1957 1.377 . S
C1956 C1958 1.384 . S
C1957 C1956 1.377 . S
C1957 C1963 1.390 . S
C1958 H1949 0.930 . S
C1958 C1956 1.384 . S
C1958 C1959 1.372 . S
C1959 C1958 1.372 . S
C1959 C1960 1.400 . S
C1959 C1964 1.490 . S
C1960 H1950 0.930 . S
C1960 C1959 1.400 . S
C1960 C1963 1.386 . S
H1961 C1977 0.930 . S
H1962 C1978 0.931 . S
C1963 H1951 0.929 . S
C1963 C1957 1.390 . S
C1963 C1960 1.386 . S
C1964 C1959 1.490 . S
C1964 C1966 1.395 . S
C1964 C1967 1.403 . S
H1965 C1971 0.930 . S
C1966 H1952 0.930 . S
C1966 C1964 1.395 . S
C1966 C1969 1.403 1_655 S
C1967 C1964 1.403 . S
C1967 C1968 1.524 . S
C1967 C1971 1.400 1_655 S
C1968 H1953 0.960 . S
C1968 H1954 0.960 . S
C1968 H1955 0.960 . S
C1968 C1967 1.524 . S
C1969 C1966 1.403 1_455 S
C1969 C1970 1.392 . S
C1969 C1973 1.495 . S
C1970 C1969 1.392 . S
C1970 C1971 1.385 . S
C1970 C1972 1.478 . S
C1971 H1965 0.930 . S
C1971 C1967 1.400 1_455 S
C1971 C1970 1.385 . S
C1972 C1970 1.478 . S
C1972 C1974 1.381 . S
C1972 C1978 1.383 . S
C1973 C1969 1.495 . S
C1973 H1979 0.959 . S
C1973 H1980 0.961 . S
C1973 H1981 0.960 . S
C1974 C1972 1.381 . S
C1974 C1975 1.394 . S
C1974 H1982 0.930 . S
C1975 C1974 1.394 . S
C1975 C1976 1.383 . S
C1975 H1983 0.929 . S
C1976 C1975 1.383 . S
C1976 C1977 1.377 . S
C1977 H1961 0.930 . S
C1977 C1976 1.377 . S
C1977 C1978 1.379 . S
C1978 H1962 0.931 . S
C1978 C1972 1.383 . S
C1978 C1977 1.379 . S
H1979 C1973 0.959 . S
H1980 C1973 0.961 . S
H1981 C1973 0.960 . S
H1982 C1974 0.930 . S
H1983 C1975 0.929 . S
C553 C135 0.881 . S
C572 C33 0.853 . S
C589 C101 0.878 . S
C608 C67 0.860 . S
C625 C169 0.883 . S
C644 C271 0.870 . S
C661 C203 0.872 . S
C680 C237 0.879 . S
C697 C305 0.882 . S
C716 C407 0.865 . S
C733 C339 0.879 . S
C752 C373 0.856 . S
C769 C543 0.881 . S
C788 C441 0.856 . S
C805 C509 0.879 . S
C824 C475 0.900 . S
C841 C5 0.670 . S
C860 C345 0.643 . S
C877 C379 0.672 . S
C896 C39 0.627 . S
C913 C277 0.662 . S
C932 C73 0.684 . S
C949 C311 0.655 . S
C968 C107 0.707 . S
C985 C481 0.655 . S
C1004 C141 0.646 . S
C1021 C515 0.661 . S
C1040 C175 0.700 . S
C1057 C413 0.673 . S
C1076 C209 0.677 . S
C1093 C447 0.655 . S
C1112 C243 0.664 . S
C1129 C9 1.735 . S
C1148 C145 1.708 . S
C1165 C43 1.742 . S
C1184 C179 1.755 . S
C1201 C213 1.734 . S
C1220 C77 1.741 . S
C1237 C111 1.743 . S
C1256 C247 1.750 . S
C1273 C281 1.739 . S
C1292 C417 1.716 . S
C1309 C451 1.738 . S
C1328 C315 1.757 . S
C1345 C349 1.733 . S
C1364 C485 1.712 . S
C1381 C519 1.736 . S
C1400 C383 1.751 . S
C1417 C20 1.336 . S
C1436 C54 1.329 . S
C1453 C122 1.338 . S
C1472 C88 1.338 . S
C1489 C190 1.337 . S
C1508 C156 1.331 . S
C1525 C224 1.336 . S
C1544 C258 1.339 . S
C1561 C326 1.336 . S
C1580 C292 1.334 . S
C1597 C394 1.336 . S
C1616 C360 1.331 . S
C1633 C428 1.336 . S
C1652 C462 1.339 . S
C1669 C530 1.336 . S
C1688 C496 1.339 . S
C1705 C2 0.714 . S
C1724 C308 0.683 . S
C1741 C36 0.714 . S
C1760 C274 0.688 . S
C1777 C70 0.702 . S
C1796 C376 0.745 . S
C1813 C104 0.713 . S
C1832 C342 0.666 . S
C1849 C138 0.713 . S
C1868 C444 0.716 . S
C1885 C410 0.714 . S
C1904 C172 0.704 . S
C1921 C206 0.699 . S
C1940 C512 0.694 . S
C1957 C478 0.704 . S
C1976 C240 0.746 . S
