# Generated by pormake.
# Topology wkc, (5)-cn, num edge types: 1
# Building blocks:
#     Node 0, Type 0, BuildingBlock: XOMCOT_clean_sbu_1, # of connection points: 5
#     Node 1, Type 0, BuildingBlock: XOMCOT_clean_sbu_1, # of connection points: 5
#     Node 2, Type 0, BuildingBlock: XOMCOT_clean_sbu_1, # of connection points: 5
#     Node 3, Type 0, BuildingBlock: XOMCOT_clean_sbu_1, # of connection points: 5
#     Node 4, Type 0, BuildingBlock: XOMCOT_clean_sbu_1, # of connection points: 5
#     Node 5, Type 0, BuildingBlock: XOMCOT_clean_sbu_1, # of connection points: 5
#     Node 6, Type 0, BuildingBlock: XOMCOT_clean_sbu_1, # of connection points: 5
#     Node 7, Type 0, BuildingBlock: XOMCOT_clean_sbu_1, # of connection points: 5
#     Node 8, Type 0, BuildingBlock: XOMCOT_clean_sbu_1, # of connection points: 5
#     Node 9, Type 0, BuildingBlock: XOMCOT_clean_sbu_1, # of connection points: 5
#     Node 10, Type 0, BuildingBlock: XOMCOT_clean_sbu_1, # of connection points: 5
#     Node 11, Type 0, BuildingBlock: XOMCOT_clean_sbu_1, # of connection points: 5
#     Edge 12, Type (0, 0), BuildingBlock: UVAHIK_clean_linker_0, # of connection points: 2
#     Edge 13, Type (0, 0), BuildingBlock: UVAHIK_clean_linker_0, # of connection points: 2
#     Edge 14, Type (0, 0), BuildingBlock: UVAHIK_clean_linker_0, # of connection points: 2
#     Edge 15, Type (0, 0), BuildingBlock: UVAHIK_clean_linker_0, # of connection points: 2
#     Edge 16, Type (0, 0), BuildingBlock: UVAHIK_clean_linker_0, # of connection points: 2
#     Edge 17, Type (0, 0), BuildingBlock: UVAHIK_clean_linker_0, # of connection points: 2
#     Edge 18, Type (0, 0), BuildingBlock: UVAHIK_clean_linker_0, # of connection points: 2
#     Edge 19, Type (0, 0), BuildingBlock: UVAHIK_clean_linker_0, # of connection points: 2
#     Edge 20, Type (0, 0), BuildingBlock: UVAHIK_clean_linker_0, # of connection points: 2
#     Edge 21, Type (0, 0), BuildingBlock: UVAHIK_clean_linker_0, # of connection points: 2
#     Edge 22, Type (0, 0), BuildingBlock: UVAHIK_clean_linker_0, # of connection points: 2
#     Edge 23, Type (0, 0), BuildingBlock: UVAHIK_clean_linker_0, # of connection points: 2
#     Edge 24, Type (0, 0), BuildingBlock: UVAHIK_clean_linker_0, # of connection points: 2
#     Edge 25, Type (0, 0), BuildingBlock: UVAHIK_clean_linker_0, # of connection points: 2
#     Edge 26, Type (0, 0), BuildingBlock: UVAHIK_clean_linker_0, # of connection points: 2
#     Edge 27, Type (0, 0), BuildingBlock: UVAHIK_clean_linker_0, # of connection points: 2
#     Edge 28, Type (0, 0), BuildingBlock: UVAHIK_clean_linker_0, # of connection points: 2
#     Edge 29, Type (0, 0), BuildingBlock: UVAHIK_clean_linker_0, # of connection points: 2
#     Edge 30, Type (0, 0), BuildingBlock: UVAHIK_clean_linker_0, # of connection points: 2
#     Edge 31, Type (0, 0), BuildingBlock: UVAHIK_clean_linker_0, # of connection points: 2
#     Edge 32, Type (0, 0), BuildingBlock: UVAHIK_clean_linker_0, # of connection points: 2
#     Edge 33, Type (0, 0), BuildingBlock: UVAHIK_clean_linker_0, # of connection points: 2
#     Edge 34, Type (0, 0), BuildingBlock: UVAHIK_clean_linker_0, # of connection points: 2
#     Edge 35, Type (0, 0), BuildingBlock: UVAHIK_clean_linker_0, # of connection points: 2
#     Edge 36, Type (0, 0), BuildingBlock: UVAHIK_clean_linker_0, # of connection points: 2
#     Edge 37, Type (0, 0), BuildingBlock: UVAHIK_clean_linker_0, # of connection points: 2
#     Edge 38, Type (0, 0), BuildingBlock: UVAHIK_clean_linker_0, # of connection points: 2
#     Edge 39, Type (0, 0), BuildingBlock: UVAHIK_clean_linker_0, # of connection points: 2
#     Edge 40, Type (0, 0), BuildingBlock: UVAHIK_clean_linker_0, # of connection points: 2
#     Edge 41, Type (0, 0), BuildingBlock: UVAHIK_clean_linker_0, # of connection points: 2
# Relax obj value: 0.259
# Max RMSD: 0.219
# Mean RMSD: 0.219
data_MOF--net-wkc--node1-XOMCOT_clean_sbu_1--edge1-UVAHIK_clean_linker_0
_symmetry_space_group_name_H-M    P1
_symmetry_Int_Tables_number       1
_symmetry_cell_setting            triclinic
loop_
_symmetry_equiv_pos_as_xyz
'x, y, z'
_cell_length_a     48.150449
_cell_length_b     48.151707
_cell_length_c     59.443685
_cell_angle_alpha  90.004227
_cell_angle_beta   90.088838
_cell_angle_gamma 120.02447
loop_
_atom_site_label
_atom_site_type_symbol
_atom_site_fract_x
_atom_site_fract_y
_atom_site_fract_z
_atom_type_partial_charge
C0 C 0.30457 0.47365 0.02951 0.0
C1 C 0.3081 0.50042 0.04036 0.0
N2 N 0.28162 0.50249 0.03651 0.0
N3 N 0.276 0.4589 0.01892 0.0
C4 C 0.26243 0.47697 0.02348 0.0
H5 H 0.32225 0.46609 0.02856 0.0
Co6 Co 0.26444 0.42561 0.99878 0.0
C7 C 0.19617 0.38109 0.00711 0.0
O8 O 0.20303 0.35789 0.0064 0.0
N9 N 0.25445 0.39311 0.97694 0.0
C10 C 0.23346 0.36112 0.94711 0.0
C11 C 0.22899 0.37944 0.96284 0.0
C12 C 0.27491 0.38435 0.96825 0.0
N13 N 0.26255 0.36423 0.95049 0.0
O14 O 0.26578 0.45331 0.97534 0.0
H15 H 0.20899 0.38371 0.96311 0.0
H16 H 0.29962 0.39502 0.97339 0.0
O17 O 0.21843 0.4102 0.00402 0.0
C18 C 0.29137 0.46566 0.96374 0.0
O19 O 0.31274 0.45691 0.96768 0.0
N20 N 0.26512 0.39978 0.02293 0.0
C21 C 0.27299 0.37043 0.06108 0.0
C22 C 0.25198 0.38252 0.06142 0.0
C23 C 0.24862 0.39734 0.0423 0.0
C24 C 0.28656 0.38907 0.02276 0.0
C25 C 0.2902 0.37351 0.04142 0.0
H26 H 0.23377 0.40821 0.04352 0.0
H27 H 0.30265 0.39432 0.00891 0.0
H28 H 0.23997 0.47271 0.01626 0.0
H29 H 0.32891 0.5176 0.04979 0.0
H30 H 0.21684 0.34754 0.9338 0.0
H31 H 0.23897 0.38137 0.07657 0.0
H32 H 0.30779 0.36576 0.04094 0.0
C33 C 0.83668 0.30291 0.20814 0.0
C34 C 0.81409 0.30465 0.22122 0.0
N35 N 0.78471 0.28222 0.214 0.0
N36 N 0.8217 0.27923 0.19291 0.0
C37 C 0.79011 0.26714 0.19683 0.0
H38 H 0.86238 0.3184 0.20935 0.0
Co39 Co 0.84078 0.26895 0.16987 0.0
C40 C 0.81141 0.19839 0.17177 0.0
O41 O 0.83956 0.20167 0.16703 0.0
N42 N 0.86019 0.2595 0.14553 0.0
C43 C 0.86537 0.24248 0.11171 0.0
C44 C 0.84415 0.23938 0.12832 0.0
C45 C 0.89107 0.27526 0.13849 0.0
N46 N 0.89489 0.2653 0.1181 0.0
O47 O 0.81395 0.27471 0.14889 0.0
H48 H 0.81834 0.22444 0.1274 0.0
H49 H 0.9104 0.29483 0.14738 0.0
O50 O 0.80838 0.22328 0.17323 0.0
C51 C 0.82814 0.2999 0.1369 0.0
O52 O 0.85938 0.31837 0.13873 0.0
N53 N 0.86812 0.26576 0.19134 0.0
C54 C 0.90932 0.27208 0.22683 0.0
C55 C 0.87733 0.24701 0.22654 0.0
C56 C 0.85706 0.24455 0.20889 0.0
C57 C 0.89868 0.29105 0.1919 0.0
C58 C 0.91996 0.29404 0.20894 0.0
H59 H 0.83196 0.22701 0.21044 0.0
H60 H 0.906 0.31046 0.18008 0.0
H61 H 0.7715 0.24859 0.18656 0.0
H62 H 0.81905 0.32147 0.23479 0.0
H63 H 0.85928 0.23022 0.09565 0.0
H64 H 0.86731 0.23047 0.24049 0.0
H65 H 0.94417 0.31423 0.20845 0.0
C66 C 0.53039 0.83479 0.3701 0.0
C67 C 0.50406 0.81184 0.38149 0.0
N68 N 0.49909 0.78276 0.37534 0.0
N69 N 0.54209 0.82027 0.35696 0.0
C70 C 0.52256 0.78854 0.36046 0.0
H71 H 0.53984 0.86043 0.37076 0.0
Co72 Co 0.57424 0.84133 0.33592 0.0
C73 C 0.61664 0.8143 0.34194 0.0
O74 O 0.64095 0.84381 0.34089 0.0
N75 N 0.6055 0.86317 0.31331 0.0
C76 C 0.63523 0.87363 0.28239 0.0
C77 C 0.61787 0.85102 0.29846 0.0
C78 C 0.61402 0.89244 0.30479 0.0
N79 N 0.63286 0.89994 0.28633 0.0
O80 O 0.54447 0.81601 0.31296 0.0
H81 H 0.61316 0.8266 0.29841 0.0
H82 H 0.6041 0.90673 0.31079 0.0
O83 O 0.58795 0.80913 0.33967 0.0
C84 C 0.53182 0.82997 0.30249 0.0
O85 O 0.54122 0.86003 0.30726 0.0
N86 N 0.60237 0.86686 0.35961 0.0
C87 C 0.63515 0.90293 0.39747 0.0
C88 C 0.62143 0.8696 0.3975 0.0
C89 C 0.60499 0.85202 0.37853 0.0
C90 C 0.61492 0.89933 0.35972 0.0
C91 C 0.63214 0.91791 0.37823 0.0
H92 H 0.59296 0.82618 0.37957 0.0
H93 H 0.61002 0.91106 0.34627 0.0
H94 H 0.52439 0.77008 0.35132 0.0
H95 H 0.48926 0.81621 0.393 0.0
H96 H 0.64739 0.87008 0.26837 0.0
H97 H 0.62257 0.85714 0.41234 0.0
H98 H 0.6413 0.94355 0.37801 0.0
C99 C 0.70612 0.53416 0.53851 0.0
C100 C 0.70584 0.51008 0.55105 0.0
N101 N 0.73132 0.50718 0.5451 0.0
N102 N 0.73175 0.54667 0.5248 0.0
C103 C 0.74661 0.52974 0.52906 0.0
H104 H 0.68818 0.54141 0.53879 0.0
Co105 Co 0.73984 0.57695 0.50282 0.0
C106 C 0.80968 0.62167 0.50426 0.0
O107 O 0.80355 0.64516 0.50144 0.0
N108 N 0.74671 0.60662 0.47945 0.0
C109 C 0.76177 0.63065 0.44602 0.0
C110 C 0.76704 0.61315 0.46199 0.0
C111 C 0.72854 0.61953 0.47313 0.0
N112 N 0.73733 0.63448 0.453 0.0
O113 O 0.73462 0.54598 0.48056 0.0
H114 H 0.78357 0.60423 0.46036 0.0
H115 H 0.70797 0.61654 0.48224 0.0
O116 O 0.7864 0.59262 0.50481 0.0
C117 C 0.70822 0.53398 0.46982 0.0
O118 O 0.68854 0.54487 0.47377 0.0
N119 N 0.7426 0.60569 0.52572 0.0
C120 C 0.73762 0.63804 0.56316 0.0
C121 C 0.76237 0.63092 0.5617 0.0
C122 C 0.76412 0.61428 0.54307 0.0
C123 C 0.71743 0.61107 0.52756 0.0
C124 C 0.71504 0.62814 0.54575 0.0
H125 H 0.78158 0.6065 0.54353 0.0
H126 H 0.69762 0.59984 0.51597 0.0
H127 H 0.76773 0.53344 0.52012 0.0
H128 H 0.68737 0.49495 0.56288 0.0
H129 H 0.77367 0.63819 0.4299 0.0
H130 H 0.77949 0.63704 0.5753 0.0
H131 H 0.69452 0.63159 0.54697 0.0
C132 C 0.16523 0.69191 0.69842 0.0
C133 C 0.18681 0.68637 0.70986 0.0
N134 N 0.21661 0.71079 0.70561 0.0
N135 N 0.18131 0.71977 0.68712 0.0
C136 C 0.21257 0.73076 0.69178 0.0
H137 H 0.13947 0.67637 0.69798 0.0
Co138 Co 0.16266 0.73549 0.66741 0.0
C139 C 0.21532 0.80303 0.66357 0.0
O140 O 0.21677 0.80075 0.64163 0.0
N141 N 0.14303 0.75018 0.64721 0.0
C142 C 0.11907 0.77465 0.63157 0.0
C143 C 0.14134 0.77732 0.64732 0.0
C144 C 0.12165 0.7315 0.6314 0.0
N145 N 0.10643 0.74558 0.62173 0.0
O146 O 0.18857 0.73357 0.64392 0.0
H147 H 0.1537 0.79684 0.65913 0.0
H148 H 0.11592 0.70719 0.62802 0.0
O149 O 0.19504 0.77892 0.67491 0.0
C150 C 0.17649 0.70591 0.63502 0.0
O151 O 0.1484 0.68304 0.64199 0.0
N152 N 0.13638 0.73553 0.69059 0.0
C153 C 0.09483 0.72791 0.72579 0.0
C154 C 0.12818 0.74732 0.72838 0.0
C155 C 0.14853 0.75084 0.71057 0.0
C156 C 0.10412 0.71661 0.6877 0.0
C157 C 0.0829 0.71296 0.70491 0.0
H158 H 0.17411 0.76453 0.71329 0.0
H159 H 0.09472 0.70359 0.67215 0.0
H160 H 0.23201 0.75226 0.68441 0.0
H161 H 0.18098 0.66581 0.72037 0.0
H162 H 0.11118 0.79184 0.62877 0.0
H163 H 0.13869 0.75862 0.74431 0.0
H164 H 0.05741 0.69801 0.70193 0.0
C165 C 0.46236 0.16727 0.87594 0.0
C166 C 0.48619 0.19114 0.88873 0.0
N167 N 0.4945 0.21953 0.87907 0.0
N168 N 0.45531 0.1806 0.85848 0.0
C169 C 0.47545 0.21247 0.8608 0.0
H170 H 0.45166 0.14182 0.8789 0.0
Co171 Co 0.42699 0.16004 0.83476 0.0
C172 C 0.38429 0.18813 0.83417 0.0
O173 O 0.35999 0.16036 0.82793 0.0
N174 N 0.39929 0.13946 0.81 0.0
C175 C 0.37881 0.13289 0.77545 0.0
C176 C 0.39632 0.1548 0.79192 0.0
C177 C 0.38385 0.10819 0.80378 0.0
N178 N 0.37107 0.1035 0.78291 0.0
O179 O 0.45983 0.18771 0.81426 0.0
H180 H 0.40732 0.18057 0.79043 0.0
H181 H 0.3838 0.08931 0.8135 0.0
O182 O 0.4119 0.19097 0.83726 0.0
C183 C 0.47225 0.17423 0.80298 0.0
O184 O 0.46065 0.14321 0.80518 0.0
N185 N 0.39624 0.13175 0.85559 0.0
C186 C 0.36399 0.09018 0.89123 0.0
C187 C 0.36511 0.11973 0.88949 0.0
C188 C 0.382 0.14051 0.87184 0.0
C189 C 0.39517 0.10297 0.85707 0.0
C190 C 0.37881 0.08164 0.87452 0.0
H191 H 0.38568 0.16445 0.87261 0.0
H192 H 0.40943 0.09766 0.84575 0.0
H193 H 0.47658 0.23015 0.84901 0.0
H194 H 0.49758 0.18778 0.90338 0.0
H195 H 0.37301 0.13836 0.75905 0.0
H196 H 0.35517 0.1278 0.90259 0.0
H197 H 0.37918 0.05937 0.87554 0.0
C198 C 0.53434 0.69529 0.78443 0.0
C199 C 0.50856 0.69156 0.77208 0.0
N200 N 0.50176 0.71437 0.77846 0.0
N201 N 0.544 0.72051 0.7984 0.0
C202 C 0.52374 0.73172 0.79439 0.0
H203 H 0.54455 0.67976 0.78393 0.0
Co204 Co 0.57403 0.73147 0.82117 0.0
C205 C 0.61675 0.80129 0.81739 0.0
O206 O 0.64096 0.79658 0.82134 0.0
N207 N 0.60341 0.74132 0.84537 0.0
C208 C 0.62705 0.75965 0.87871 0.0
C209 C 0.60945 0.7631 0.8618 0.0
C210 C 0.61667 0.72421 0.85329 0.0
N211 N 0.63154 0.73505 0.87331 0.0
O212 O 0.54223 0.72717 0.84227 0.0
H213 H 0.60029 0.77953 0.86204 0.0
H214 H 0.61307 0.70231 0.84584 0.0
O215 O 0.58812 0.77728 0.81698 0.0
C216 C 0.53048 0.70206 0.85438 0.0
O217 O 0.54233 0.68279 0.85274 0.0
N218 N 0.60387 0.7334 0.79948 0.0
C219 C 0.6389 0.72689 0.76422 0.0
C220 C 0.63028 0.75075 0.76366 0.0
C221 C 0.61244 0.75327 0.7812 0.0
C222 C 0.61051 0.70901 0.79966 0.0
C223 C 0.62893 0.70603 0.78275 0.0
H224 H 0.60376 0.76988 0.77916 0.0
H225 H 0.59945 0.69017 0.81194 0.0
H226 H 0.5238 0.75085 0.80399 0.0
H227 H 0.49523 0.67287 0.75984 0.0
H228 H 0.63493 0.7735 0.8941 0.0
H229 H 0.63562 0.76628 0.74921 0.0
H230 H 0.63416 0.68668 0.78389 0.0
C231 C 0.83407 0.53534 0.95067 0.0
C232 C 0.81117 0.50917 0.93899 0.0
N233 N 0.78215 0.50167 0.94712 0.0
N234 N 0.81946 0.54455 0.96583 0.0
C235 C 0.78784 0.52336 0.96346 0.0
H236 H 0.85974 0.547 0.94825 0.0
Co237 Co 0.83969 0.57879 0.98564 0.0
C238 C 0.78639 0.59203 0.99383 0.0
O239 O 0.78767 0.5893 0.01575 0.0
N240 N 0.86077 0.61305 0.00569 0.0
C241 C 0.88366 0.66096 0.02211 0.0
C242 C 0.86102 0.64119 0.00664 0.0
C243 C 0.88365 0.61648 0.02044 0.0
N244 N 0.89805 0.64541 0.03065 0.0
O245 O 0.81686 0.55048 0.0098 0.0
H246 H 0.84706 0.64771 0.99591 0.0
H247 H 0.89062 0.59858 0.02291 0.0
O248 O 0.80568 0.58847 0.98114 0.0
C249 C 0.8302 0.53537 0.01745 0.0
O250 O 0.85781 0.54125 0.00901 0.0
N251 N 0.86288 0.60573 0.96173 0.0
C252 C 0.89947 0.6382 0.92434 0.0
C253 C 0.86623 0.62582 0.92435 0.0
C254 C 0.84831 0.6096 0.94323 0.0
C255 C 0.89529 0.61827 0.96223 0.0
C256 C 0.91415 0.63497 0.94376 0.0
H257 H 0.82256 0.59856 0.94236 0.0
H258 H 0.90644 0.61409 0.97664 0.0
H259 H 0.76935 0.524 0.9734 0.0
H260 H 0.81553 0.4963 0.92582 0.0
H261 H 0.89032 0.68555 0.02575 0.0
H262 H 0.85405 0.6277 0.90959 0.0
H263 H 0.9397 0.64367 0.94421 0.0
C264 C 0.29962 0.83279 0.1183 0.0
C265 C 0.30093 0.81017 0.10504 0.0
N266 N 0.27492 0.78131 0.1093 0.0
N267 N 0.27279 0.81855 0.13082 0.0
C268 C 0.25824 0.78719 0.1251 0.0
H269 H 0.31789 0.85778 0.11954 0.0
Co270 Co 0.26376 0.83885 0.15375 0.0
C271 C 0.19397 0.81445 0.15171 0.0
O272 O 0.19991 0.84345 0.15693 0.0
N273 N 0.25587 0.85972 0.17797 0.0
C274 C 0.23996 0.86655 0.21172 0.0
C275 C 0.23637 0.84451 0.19558 0.0
C276 C 0.27162 0.891 0.1842 0.0
N277 N 0.26235 0.89582 0.20458 0.0
O278 O 0.26691 0.81044 0.17477 0.0
H279 H 0.22129 0.81877 0.19698 0.0
H280 H 0.2904 0.90998 0.17455 0.0
O281 O 0.2173 0.80893 0.14987 0.0
C282 C 0.29261 0.82394 0.18634 0.0
O283 O 0.31234 0.85487 0.18389 0.0
N284 N 0.26361 0.86776 0.13233 0.0
C285 C 0.27519 0.91067 0.0971 0.0
C286 C 0.24699 0.88076 0.09762 0.0
C287 C 0.24205 0.85931 0.11504 0.0
C288 C 0.29149 0.89647 0.1317 0.0
C289 C 0.29751 0.91852 0.11454 0.0
H290 H 0.22203 0.83528 0.11351 0.0
H291 H 0.31024 0.90144 0.14375 0.0
H292 H 0.23652 0.76899 0.13304 0.0
H293 H 0.32064 0.81459 0.09408 0.0
H294 H 0.22818 0.8612 0.22792 0.0
H295 H 0.22989 0.87312 0.08389 0.0
H296 H 0.32002 0.94101 0.11449 0.0
C297 C 0.46776 0.29839 0.28378 0.0
C298 C 0.49187 0.29836 0.27143 0.0
N299 N 0.49671 0.27489 0.27935 0.0
N300 N 0.45715 0.27476 0.29921 0.0
C301 C 0.47531 0.26096 0.29618 0.0
H302 H 0.4593 0.31528 0.28212 0.0
Co303 Co 0.42754 0.26645 0.32179 0.0
C304 C 0.38169 0.19686 0.31906 0.0
O305 O 0.35852 0.20298 0.32342 0.0
N306 N 0.39847 0.25887 0.3457 0.0
C307 C 0.37528 0.24279 0.37932 0.0
C308 C 0.39273 0.23829 0.3629 0.0
C309 C 0.38489 0.27619 0.35253 0.0
N310 N 0.37058 0.26688 0.37281 0.0
O311 O 0.4586 0.26956 0.34333 0.0
H312 H 0.40205 0.22202 0.36395 0.0
H313 H 0.38664 0.29637 0.34356 0.0
O314 O 0.41075 0.21999 0.31815 0.0
C315 C 0.471 0.29545 0.35469 0.0
O316 O 0.4603 0.31549 0.35173 0.0
N317 N 0.3989 0.26621 0.29988 0.0
C318 C 0.3683 0.27745 0.26376 0.0
C319 C 0.37214 0.2504 0.26404 0.0
C320 C 0.38786 0.24548 0.28203 0.0
C321 C 0.39647 0.2932 0.29942 0.0
C322 C 0.38028 0.29868 0.28208 0.0
H323 H 0.39328 0.22638 0.28052 0.0
H324 H 0.40937 0.31197 0.31159 0.0
H325 H 0.47341 0.24162 0.30655 0.0
H326 H 0.50585 0.31536 0.25842 0.0
H327 H 0.36829 0.23057 0.39536 0.0
H328 H 0.36496 0.23418 0.24983 0.0
H329 H 0.37854 0.32022 0.28265 0.0
C330 C 0.16467 0.46572 0.45111 0.0
C331 C 0.18668 0.49115 0.43855 0.0
N332 N 0.21631 0.49782 0.4448 0.0
N333 N 0.18028 0.45612 0.46508 0.0
C334 C 0.21175 0.4761 0.46089 0.0
H335 H 0.13894 0.45557 0.45067 0.0
Co336 Co 0.16072 0.42595 0.4876 0.0
C337 C 0.18933 0.38445 0.48542 0.0
O338 O 0.16048 0.35984 0.48886 0.0
N339 N 0.14053 0.39647 0.51151 0.0
C340 C 0.1343 0.37319 0.54503 0.0
C341 C 0.1559 0.39103 0.52852 0.0
C342 C 0.10976 0.38265 0.51866 0.0
N343 N 0.10526 0.36814 0.53884 0.0
O344 O 0.18687 0.45793 0.5091 0.0
H345 H 0.18158 0.40093 0.5295 0.0
H346 H 0.0912 0.38475 0.51014 0.0
O347 O 0.19333 0.41283 0.48466 0.0
C348 C 0.17296 0.46917 0.52111 0.0
O349 O 0.14179 0.45687 0.51921 0.0
N350 N 0.13431 0.39589 0.46537 0.0
C351 C 0.09629 0.36221 0.42846 0.0
C352 C 0.12863 0.37082 0.42932 0.0
C353 C 0.14733 0.38811 0.44767 0.0
C354 C 0.1031 0.38871 0.46425 0.0
C355 C 0.08336 0.37102 0.44629 0.0
H356 H 0.17279 0.39717 0.44664 0.0
H357 H 0.09408 0.39916 0.47611 0.0
H358 H 0.23088 0.47589 0.47034 0.0
H359 H 0.18125 0.50419 0.42613 0.0
H360 H 0.13994 0.36628 0.56097 0.0
H361 H 0.13975 0.36551 0.41541 0.0
H362 H 0.05891 0.36635 0.44557 0.0
C363 C 0.70265 0.17069 0.62148 0.0
C364 C 0.70225 0.19447 0.60896 0.0
N365 N 0.7283 0.22277 0.61439 0.0
N366 N 0.72892 0.18377 0.63466 0.0
C367 C 0.74403 0.21548 0.63009 0.0
H368 H 0.68441 0.14559 0.62155 0.0
Co369 Co 0.73776 0.16187 0.65644 0.0
C370 C 0.80762 0.18729 0.65406 0.0
O371 O 0.80212 0.15792 0.65713 0.0
N372 N 0.74552 0.1394 0.67959 0.0
C373 C 0.7615 0.13066 0.71277 0.0
C374 C 0.76617 0.15338 0.69692 0.0
C375 C 0.72789 0.10824 0.68583 0.0
N376 N 0.73719 0.10223 0.70583 0.0
O377 O 0.73381 0.18821 0.67877 0.0
H378 H 0.78251 0.17889 0.69854 0.0
H379 H 0.70737 0.09044 0.67673 0.0
O380 O 0.78405 0.19257 0.65367 0.0
C381 C 0.70839 0.17439 0.69053 0.0
O382 O 0.68844 0.1436 0.68756 0.0
N383 N 0.73936 0.13537 0.63352 0.0
C384 C 0.73297 0.09659 0.59671 0.0
C385 C 0.75804 0.12837 0.59761 0.0
C386 C 0.76054 0.14752 0.61597 0.0
C387 C 0.7137 0.10505 0.63207 0.0
C388 C 0.71061 0.08484 0.61422 0.0
H389 H 0.77834 0.17264 0.61519 0.0
H390 H 0.69418 0.09719 0.64383 0.0
H391 H 0.76569 0.23285 0.63859 0.0
H392 H 0.68336 0.19116 0.5975 0.0
H393 H 0.77374 0.13514 0.72879 0.0
H394 H 0.77493 0.13865 0.58386 0.0
H395 H 0.68985 0.06096 0.61337 0.0
C396 C 0.34933 0.21275 0.83583 0.0
C397 C 0.37786 0.2135 0.84209 0.0
C398 C 0.34078 0.23374 0.84571 0.0
C399 C 0.35019 0.2758 0.89838 0.0
H400 H 0.31286 0.31913 0.86601 0.0
C401 C 0.30633 0.35175 0.94506 0.0
C402 C 0.2781 0.35058 0.93729 0.0
C403 C 0.32118 0.33829 0.93251 0.0
C404 C 0.32287 0.30689 0.87536 0.0
H405 H 0.42045 0.23774 0.86299 0.0
H406 H 0.40524 0.27419 0.88045 0.0
H407 H 0.33465 0.29065 0.84516 0.0
H408 H 0.24374 0.33399 0.90973 0.0
H409 H 0.26872 0.30946 0.88854 0.0
H410 H 0.33734 0.29063 0.92857 0.0
C411 C 0.38955 0.25733 0.86787 0.0
C412 C 0.33554 0.29076 0.86337 0.0
C413 C 0.39835 0.23662 0.85775 0.0
C414 C 0.26523 0.33542 0.91653 0.0
C415 C 0.2799 0.32161 0.90411 0.0
C416 C 0.33718 0.29155 0.91037 0.0
C417 C 0.36037 0.25565 0.86227 0.0
C418 C 0.34914 0.27488 0.87477 0.0
C419 C 0.30805 0.32278 0.91194 0.0
C420 C 0.32312 0.30714 0.89905 0.0
H421 H 0.33309 0.19525 0.82378 0.0
H422 H 0.31806 0.23176 0.84115 0.0
H423 H 0.36004 0.26332 0.90763 0.0
H424 H 0.31699 0.36271 0.961 0.0
H425 H 0.34307 0.34013 0.93899 0.0
C426 C 0.138 0.34166 0.01018 0.0
C427 C 0.16342 0.37299 0.01373 0.0
C428 C 0.10781 0.33174 0.01928 0.0
C429 C 0.05644 0.35921 0.04657 0.0
H430 H 0.0168 0.2744 0.07331 0.0
C431 C 0.9482 0.3106 0.10764 0.0
C432 C 0.92401 0.27836 0.10508 0.0
C433 C 0.97659 0.32311 0.09523 0.0
C434 C 0.0273 0.29795 0.06569 0.0
H435 H 0.17692 0.41906 0.02871 0.0
H436 H 0.124 0.40152 0.04511 0.0
H437 H 0.06751 0.2951 0.05362 0.0
H438 H 0.9106 0.23414 0.08729 0.0
H439 H 0.9601 0.25598 0.06552 0.0
H440 H 0.0162 0.36206 0.05913 0.0
C441 C 0.12735 0.38472 0.035 0.0
C442 C 0.0564 0.30985 0.05435 0.0
C443 C 0.15765 0.3948 0.02563 0.0
C444 C 0.92871 0.25906 0.08959 0.0
C445 C 0.95717 0.27152 0.07727 0.0
C446 C 0.02727 0.3473 0.05804 0.0
C447 C 0.10234 0.35276 0.03246 0.0
C448 C 0.07129 0.34054 0.04451 0.0
C449 C 0.98153 0.30365 0.08004 0.0
C450 C 0.01233 0.31647 0.06766 0.0
H451 H 0.14164 0.32445 0.00081 0.0
H452 H 0.0889 0.30725 0.01643 0.0
H453 H 0.06712 0.38283 0.03907 0.0
H454 H 0.94516 0.32631 0.11912 0.0
H455 H 0.99495 0.34789 0.09787 0.0
C456 C 0.76132 0.16414 0.19396 0.0
C457 C 0.78541 0.16669 0.17934 0.0
C458 C 0.73986 0.1346 0.20379 0.0
C459 C 0.70747 0.04693 0.1996 0.0
H460 H 0.7015 0.04833 0.26457 0.0
C461 C 0.66395 0.93281 0.25343 0.0
C462 C 0.6461 0.92917 0.27308 0.0
C463 C 0.67741 0.96129 0.24102 0.0
C464 C 0.70233 0.04742 0.2464 0.0
H465 H 0.80472 0.14008 0.16253 0.0
H466 H 0.7671 0.08864 0.17937 0.0
H467 H 0.7295 0.09864 0.24393 0.0
H468 H 0.62879 0.95381 0.2947 0.0
H469 H 0.65131 0.00252 0.27283 0.0
H470 H 0.68047 0.99574 0.20201 0.0
C471 C 0.76482 0.10936 0.18335 0.0
C472 C 0.71843 0.07633 0.23456 0.0
C473 C 0.78648 0.13888 0.17379 0.0
C474 C 0.64201 0.95502 0.27973 0.0
C475 C 0.6553 0.9834 0.26723 0.0
C476 C 0.69113 0.018 0.2114 0.0
C477 C 0.74179 0.10702 0.19889 0.0
C478 C 0.72163 0.0764 0.21107 0.0
C479 C 0.67338 0.98703 0.24779 0.0
C480 C 0.6888 0.01783 0.23501 0.0
H481 H 0.75998 0.18518 0.19864 0.0
H482 H 0.72217 0.13344 0.21557 0.0
H483 H 0.70926 0.04624 0.18146 0.0
H484 H 0.66801 0.91392 0.24754 0.0
H485 H 0.69164 0.96333 0.22636 0.0
C486 C 0.68911 0.63828 0.44362 0.0
C487 C 0.72184 0.64868 0.44047 0.0
C488 C 0.67411 0.65182 0.43122 0.0
C489 C 0.68332 0.69897 0.37955 0.0
H490 H 0.62547 0.72082 0.40974 0.0
C491 C 0.65396 0.7929 0.34562 0.0
C492 C 0.62304 0.78841 0.34854 0.0
C493 C 0.66206 0.7711 0.35456 0.0
C494 C 0.64108 0.71432 0.40094 0.0
H495 H 0.76446 0.68178 0.42198 0.0
H496 H 0.73845 0.70553 0.40049 0.0
H497 H 0.64782 0.69267 0.43034 0.0
H498 H 0.5759 0.75689 0.36245 0.0
H499 H 0.59014 0.71854 0.37822 0.0
H500 H 0.67724 0.72138 0.35033 0.0
C501 C 0.72418 0.68647 0.41224 0.0
C502 C 0.65397 0.69824 0.41276 0.0
C503 C 0.73915 0.67292 0.42461 0.0
C504 C 0.59989 0.76086 0.35983 0.0
C505 C 0.60812 0.7391 0.36902 0.0
C506 C 0.67049 0.71508 0.36776 0.0
C507 C 0.69145 0.67607 0.41535 0.0
C508 C 0.67575 0.69092 0.40234 0.0
C509 C 0.6395 0.74432 0.3668 0.0
C510 C 0.64972 0.72352 0.37843 0.0
H511 H 0.67483 0.61925 0.45535 0.0
H512 H 0.64879 0.64294 0.43384 0.0
H513 H 0.69945 0.69307 0.37085 0.0
H514 H 0.67232 0.81387 0.33697 0.0
H515 H 0.68651 0.77608 0.35273 0.0
C516 C 0.07173 0.74949 0.59253 0.0
C517 C 0.07904 0.73074 0.60681 0.0
C518 C 0.04429 0.73517 0.57891 0.0
C519 C 0.96439 0.66253 0.57526 0.0
H520 H 0.96449 0.69237 0.51468 0.0
C521 C 0.84859 0.60736 0.52167 0.0
C522 C 0.8426 0.62982 0.51088 0.0
C523 C 0.8789 0.6169 0.53087 0.0
C524 C 0.96401 0.68383 0.53161 0.0
H525 H 0.06293 0.68201 0.61784 0.0
H526 H 0.01563 0.65718 0.59392 0.0
H527 H 0.01462 0.71501 0.53587 0.0
H528 H 0.86422 0.67943 0.5002 0.0
H529 H 0.91658 0.69597 0.51625 0.0
H530 H 0.91373 0.63195 0.57127 0.0
C531 C 0.031 0.68299 0.59334 0.0
C532 C 0.99275 0.69686 0.54376 0.0
C533 C 0.05844 0.69726 0.60688 0.0
C534 C 0.86795 0.66151 0.50847 0.0
C535 C 0.89814 0.67099 0.51757 0.0
C536 C 0.93565 0.64956 0.56313 0.0
C537 C 0.0234 0.70176 0.57932 0.0
C538 C 0.99323 0.68667 0.56585 0.0
C539 C 0.90386 0.64903 0.52935 0.0
C540 C 0.93499 0.66037 0.54127 0.0
H541 H 0.08716 0.77526 0.59194 0.0
H542 H 0.03901 0.75039 0.56847 0.0
H543 H 0.96379 0.65439 0.59233 0.0
H544 H 0.82956 0.58276 0.52384 0.0
H545 H 0.88261 0.59925 0.53957 0.0
C546 C 0.23582 0.83563 0.69878 0.0
C547 C 0.23467 0.83426 0.67515 0.0
C548 C 0.25166 0.86506 0.70996 0.0
C549 C 0.31157 0.951 0.70289 0.0
H550 H 0.26842 0.96114 0.75462 0.0
C551 C 0.35626 0.07358 0.74683 0.0
C552 C 0.35537 0.0737 0.77049 0.0
C553 C 0.3418 0.04467 0.73485 0.0
C554 C 0.281 0.95863 0.74037 0.0
H555 H 0.25033 0.86285 0.64472 0.0
H556 H 0.278 0.91443 0.6643 0.0
H557 H 0.24368 0.9104 0.73433 0.0
H558 H 0.338 0.04331 0.80001 0.0
H559 H 0.31333 0.99297 0.7792 0.0
H560 H 0.34894 0.99931 0.709 0.0
C561 C 0.26667 0.89261 0.67416 0.0
C562 C 0.26681 0.92951 0.72873 0.0
C563 C 0.25076 0.86306 0.66294 0.0
C564 C 0.33945 0.04416 0.78184 0.0
C565 C 0.32498 0.01526 0.76987 0.0
C566 C 0.32582 0.98018 0.71457 0.0
C567 C 0.26683 0.89396 0.69782 0.0
C568 C 0.28197 0.92525 0.70991 0.0
C569 C 0.32603 0.01513 0.74623 0.0
C570 C 0.31075 0.98431 0.73352 0.0
H571 H 0.22421 0.81393 0.70873 0.0
H572 H 0.25194 0.86517 0.72818 0.0
H573 H 0.32405 0.94842 0.68861 0.0
H574 H 0.36857 0.09579 0.73749 0.0
H575 H 0.34278 0.04549 0.71665 0.0
C576 C 0.75213 0.61778 0.9966 0.0
C577 C 0.76513 0.60263 0.98365 0.0
C578 C 0.73465 0.63043 0.9863 0.0
C579 C 0.69166 0.62721 0.93348 0.0
H580 H 0.71153 0.71307 0.95024 0.0
C581 C 0.65835 0.70285 0.87671 0.0
C582 C 0.64604 0.72079 0.88688 0.0
C583 C 0.67112 0.68776 0.88976 0.0
C584 C 0.70539 0.68892 0.94555 0.0
H585 H 0.7686 0.58747 0.94991 0.0
H586 H 0.73865 0.60968 0.93203 0.0
H587 H 0.73554 0.6867 0.9712 0.0
H588 H 0.63786 0.73707 0.91892 0.0
H589 H 0.66038 0.71091 0.94168 0.0
H590 H 0.66195 0.62958 0.90763 0.0
C591 C 0.74177 0.61182 0.95012 0.0
C592 C 0.7191 0.67376 0.9576 0.0
C593 C 0.75928 0.59934 0.96036 0.0
C594 C 0.64741 0.72377 0.91047 0.0
C595 C 0.66028 0.7087 0.92355 0.0
C596 C 0.67803 0.64235 0.92144 0.0
C597 C 0.72958 0.6279 0.96288 0.0
C598 C 0.71278 0.64291 0.95148 0.0
C599 C 0.672 0.69026 0.91334 0.0
C600 C 0.6851 0.67358 0.92709 0.0
H601 H 0.75622 0.62069 0.01459 0.0
H602 H 0.72526 0.64235 0.99665 0.0
H603 H 0.68578 0.60321 0.92858 0.0
H604 H 0.65831 0.70057 0.8586 0.0
H605 H 0.68058 0.67434 0.88131 0.0
C606 C 0.13567 0.79606 0.14838 0.0
C607 C 0.16129 0.79075 0.14389 0.0
C608 C 0.10578 0.77709 0.13831 0.0
C609 C 0.05457 0.70172 0.10717 0.0
H610 H 0.01805 0.75075 0.08205 0.0
C611 C 0.94815 0.64811 0.044 0.0
C612 C 0.92558 0.65847 0.04543 0.0
C613 C 0.97578 0.66212 0.05741 0.0
C614 C 0.02754 0.73654 0.08924 0.0
H615 H 0.17507 0.76014 0.12619 0.0
H616 H 0.12261 0.72689 0.10843 0.0
H617 H 0.0678 0.77804 0.10326 0.0
H618 H 0.9138 0.6908 0.06273 0.0
H619 H 0.96171 0.71501 0.08632 0.0
H620 H 0.01418 0.66016 0.09299 0.0
C621 C 0.12574 0.74575 0.11987 0.0
C622 C 0.05617 0.75223 0.10141 0.0
C623 C 0.15579 0.76479 0.13004 0.0
C624 C 0.93094 0.68263 0.06098 0.0
C625 C 0.95846 0.69653 0.07446 0.0
C626 C 0.02575 0.68593 0.09502 0.0
C627 C 0.10069 0.75234 0.12339 0.0
C628 C 0.07003 0.73506 0.11059 0.0
C629 C 0.98149 0.68679 0.07264 0.0
C630 C 0.01185 0.70317 0.08593 0.0
H631 H 0.13896 0.8156 0.15919 0.0
H632 H 0.0868 0.78232 0.14181 0.0
H633 H 0.06451 0.68777 0.11415 0.0
H634 H 0.94507 0.6299 0.03198 0.0
H635 H 0.99314 0.65429 0.05531 0.0
C636 C 0.34204 0.1385 0.3154 0.0
C637 C 0.37298 0.16429 0.31122 0.0
C638 C 0.33161 0.10865 0.30539 0.0
C639 C 0.35816 0.05887 0.27456 0.0
H640 H 0.27139 0.01797 0.25099 0.0
C641 C 0.30723 0.95033 0.21339 0.0
C642 C 0.27546 0.9256 0.21694 0.0
C643 C 0.31996 0.97903 0.22556 0.0
C644 C 0.29552 0.02883 0.25768 0.0
H645 H 0.41782 0.1786 0.29402 0.0
H646 H 0.39946 0.1264 0.27626 0.0
H647 H 0.29258 0.06822 0.27151 0.0
H648 H 0.23222 0.91185 0.23607 0.0
H649 H 0.25445 0.96172 0.25743 0.0
H650 H 0.36106 0.01943 0.2604 0.0
C651 C 0.38333 0.1292 0.28748 0.0
C652 C 0.30771 0.05767 0.26951 0.0
C653 C 0.39387 0.15914 0.29765 0.0
C654 C 0.25679 0.93029 0.23301 0.0
C655 C 0.26947 0.95901 0.2451 0.0
C656 C 0.34596 0.02997 0.26264 0.0
C657 C 0.35175 0.10384 0.29078 0.0
C658 C 0.33912 0.07302 0.27822 0.0
C659 C 0.3012 0.98377 0.24151 0.0
C660 C 0.31443 0.01455 0.25413 0.0
H661 H 0.32547 0.14157 0.32597 0.0
H662 H 0.30746 0.08946 0.3088 0.0
H663 H 0.38234 0.06986 0.28119 0.0
H664 H 0.32248 0.94743 0.20141 0.0
H665 H 0.34439 0.99769 0.22223 0.0
C666 C 0.24196 0.40094 0.46644 0.0
C667 C 0.21523 0.37818 0.47865 0.0
C668 C 0.26367 0.39274 0.45721 0.0
C669 C 0.28906 0.33134 0.45914 0.0
H670 H 0.3093 0.3527 0.39616 0.0
C671 C 0.33244 0.26397 0.40185 0.0
C672 C 0.35618 0.28173 0.38579 0.0
C673 C 0.31852 0.27835 0.41446 0.0
C674 C 0.30432 0.34691 0.41384 0.0
H675 H 0.19133 0.32969 0.49184 0.0
H676 H 0.22893 0.31549 0.47584 0.0
H677 H 0.28086 0.37454 0.41683 0.0
H678 H 0.38454 0.32896 0.37094 0.0
H679 H 0.3602 0.35391 0.39281 0.0
H680 H 0.31194 0.30317 0.45601 0.0
C681 C 0.23333 0.33965 0.47338 0.0
C682 C 0.28808 0.35953 0.42571 0.0
C683 C 0.21162 0.34774 0.48245 0.0
C684 C 0.36584 0.31432 0.38278 0.0
C685 C 0.35194 0.32869 0.39539 0.0
C686 C 0.3053 0.31873 0.44727 0.0
C687 C 0.2592 0.36175 0.4602 0.0
C688 C 0.27977 0.35145 0.4484 0.0
C689 C 0.32806 0.31088 0.41135 0.0
C690 C 0.31266 0.32594 0.42438 0.0
H691 H 0.24534 0.42457 0.46318 0.0
H692 H 0.28358 0.41043 0.44734 0.0
H693 H 0.28344 0.32503 0.47669 0.0
H694 H 0.32421 0.23877 0.40442 0.0
H695 H 0.29982 0.26377 0.42636 0.0
C696 C 0.84492 0.24004 0.63563 0.0
C697 C 0.84009 0.21239 0.64702 0.0
C698 C 0.87482 0.26118 0.62614 0.0
C699 C 0.96076 0.28347 0.62614 0.0
H700 H 0.95873 0.30717 0.56408 0.0
C701 C 0.07055 0.32903 0.56759 0.0
C702 C 0.07628 0.35336 0.55209 0.0
C703 C 0.04248 0.31465 0.58043 0.0
C704 C 0.95982 0.30123 0.58151 0.0
H705 H 0.86327 0.18619 0.65845 0.0
H706 H 0.91514 0.22288 0.642 0.0
H707 H 0.90886 0.27865 0.58518 0.0
H708 H 0.05728 0.38232 0.53851 0.0
H709 H 0.00844 0.35734 0.56087 0.0
H710 H 0.01167 0.30565 0.62238 0.0
C711 C 0.896 0.22838 0.64038 0.0
C712 C 0.9312 0.28491 0.59363 0.0
C713 C 0.86616 0.20722 0.64971 0.0
C714 C 0.05338 0.36318 0.54991 0.0
C715 C 0.02535 0.34889 0.56278 0.0
C716 C 0.98939 0.29986 0.61404 0.0
C717 C 0.90052 0.25521 0.62804 0.0
C718 C 0.93127 0.27542 0.61599 0.0
C719 C 0.01948 0.32436 0.57816 0.0
C720 C 0.98924 0.30854 0.59147 0.0
H721 H 0.82531 0.24468 0.63323 0.0
H722 H 0.87766 0.28186 0.61695 0.0
H723 H 0.96168 0.27689 0.64343 0.0
H724 H 0.08755 0.3207 0.5695 0.0
H725 H 0.03852 0.29548 0.59183 0.0
C726 C 0.65439 0.86007 0.81367 0.0
C727 C 0.62368 0.83352 0.81007 0.0
C728 C 0.6629 0.8899 0.80443 0.0
C729 C 0.64342 0.92559 0.7569 0.0
H730 H 0.70035 0.00535 0.7876 0.0
C731 C 0.68957 0.04969 0.715 0.0
C732 C 0.72218 0.07247 0.71825 0.0
C733 C 0.67503 0.02104 0.72722 0.0
C734 C 0.68465 0.98329 0.77874 0.0
H735 H 0.57732 0.81774 0.79461 0.0
H736 H 0.59221 0.87018 0.77843 0.0
H737 H 0.67819 0.95474 0.80798 0.0
H738 H 0.76503 0.08267 0.73682 0.0
H739 H 0.73975 0.03271 0.75808 0.0
H740 H 0.65037 0.95409 0.72753 0.0
C741 C 0.60977 0.86771 0.78832 0.0
C742 C 0.67186 0.95428 0.79044 0.0
C743 C 0.60116 0.83777 0.79774 0.0
C744 C 0.73982 0.06587 0.73409 0.0
C745 C 0.72528 0.03723 0.74632 0.0
C746 C 0.65621 0.95463 0.74519 0.0
C747 C 0.64095 0.89399 0.79125 0.0
C748 C 0.65154 0.92503 0.77956 0.0
C749 C 0.69269 0.01445 0.74304 0.0
C750 C 0.67742 0.98378 0.75586 0.0
H751 H 0.67229 0.85763 0.82315 0.0
H752 H 0.6872 0.90946 0.80684 0.0
H753 H 0.6282 0.90348 0.74793 0.0
H754 H 0.67501 0.05415 0.70331 0.0
H755 H 0.64979 0.00423 0.72451 0.0
C756 C 0.24787 0.72172 0.11174 0.0
C757 C 0.2689 0.75066 0.10067 0.0
C758 C 0.24478 0.69258 0.10451 0.0
C759 C 0.29143 0.66113 0.08336 0.0
H760 H 0.21743 0.58983 0.05514 0.0
C761 C 0.30276 0.56027 0.04173 0.0
C762 C 0.27699 0.52872 0.0428 0.0
C763 C 0.29907 0.58589 0.04868 0.0
C764 C 0.23813 0.60925 0.06334 0.0
H765 H 0.30127 0.77069 0.07218 0.0
H766 H 0.29684 0.72028 0.06044 0.0
H767 H 0.21441 0.63667 0.06798 0.0
H768 H 0.22699 0.49906 0.05157 0.0
H769 H 0.22059 0.54382 0.06469 0.0
H770 H 0.31514 0.63407 0.07957 0.0
C771 C 0.28286 0.72038 0.07468 0.0
C772 C 0.23636 0.63605 0.07057 0.0
C773 C 0.28556 0.74931 0.08161 0.0
C774 C 0.24716 0.52326 0.05057 0.0
C775 C 0.24356 0.54894 0.05798 0.0
C776 C 0.29305 0.63426 0.07656 0.0
C777 C 0.26288 0.69192 0.08627 0.0
C778 C 0.26323 0.66236 0.08026 0.0
C779 C 0.26963 0.58062 0.05738 0.0
C780 C 0.2667 0.60819 0.06598 0.0
H781 H 0.23465 0.72155 0.12646 0.0
H782 H 0.22931 0.6708 0.11371 0.0
H783 H 0.31232 0.68111 0.09101 0.0
H784 H 0.32581 0.56513 0.03533 0.0
H785 H 0.31943 0.6099 0.04716 0.0
C786 C 0.75211 0.30171 0.23319 0.0
C787 C 0.75414 0.27716 0.22182 0.0
C788 C 0.72253 0.29723 0.24029 0.0
C789 C 0.63638 0.25051 0.22837 0.0
H790 H 0.62909 0.28311 0.28641 0.0
C791 C 0.53576 0.25748 0.28865 0.0
C792 C 0.52195 0.26872 0.27285 0.0
C793 C 0.56202 0.25409 0.28279 0.0
C794 C 0.63057 0.27351 0.27027 0.0
H795 H 0.72637 0.22831 0.20945 0.0
H796 H 0.67462 0.22069 0.22163 0.0
H797 H 0.67918 0.28542 0.27609 0.0
H798 H 0.52392 0.28383 0.23828 0.0
H799 H 0.56994 0.27824 0.22809 0.0
H800 H 0.58781 0.23887 0.22249 0.0
C801 C 0.69606 0.2435 0.22486 0.0
C802 C 0.65938 0.27515 0.26426 0.0
C803 C 0.72573 0.24791 0.21785 0.0
C804 C 0.53427 0.27545 0.25087 0.0
C805 C 0.56041 0.27192 0.24498 0.0
C806 C 0.60758 0.24901 0.23434 0.0
C807 C 0.69417 0.26815 0.23614 0.0
C808 C 0.66276 0.26408 0.24313 0.0
C809 C 0.57492 0.26171 0.26098 0.0
C810 C 0.6045 0.26086 0.25525 0.0
H811 H 0.77326 0.32475 0.23621 0.0
H812 H 0.72182 0.31689 0.24858 0.0
H813 H 0.63832 0.24196 0.21192 0.0
H814 H 0.52704 0.25236 0.30577 0.0
H815 H 0.5725 0.24589 0.29543 0.0
C816 C 0.47535 0.72475 0.38322 0.0
C817 C 0.47216 0.75214 0.38142 0.0
C818 C 0.44897 0.69509 0.3892 0.0
C819 C 0.36101 0.65103 0.38827 0.0
H820 H 0.36601 0.60075 0.43742 0.0
C821 C 0.24757 0.55316 0.43052 0.0
C822 C 0.24624 0.5246 0.43737 0.0
C823 C 0.27622 0.57907 0.42293 0.0
C824 C 0.36432 0.6142 0.42341 0.0
H825 H 0.43878 0.76979 0.38397 0.0
H826 H 0.39291 0.71827 0.39423 0.0
H827 H 0.41449 0.64926 0.42503 0.0
H828 H 0.27408 0.50097 0.44186 0.0
H829 H 0.32441 0.54633 0.42823 0.0
H830 H 0.31111 0.61633 0.38647 0.0
C831 C 0.41575 0.71966 0.39115 0.0
C832 C 0.39207 0.64199 0.41636 0.0
C833 C 0.44209 0.74924 0.3855 0.0
C834 C 0.27445 0.52273 0.43677 0.0
C835 C 0.30323 0.54871 0.42899 0.0
C836 C 0.33343 0.62323 0.39515 0.0
C837 C 0.41886 0.69227 0.39305 0.0
C838 C 0.39048 0.66105 0.39906 0.0
C839 C 0.30435 0.57712 0.42179 0.0
C840 C 0.33453 0.60487 0.41318 0.0
H841 H 0.4983 0.72639 0.38027 0.0
H842 H 0.45197 0.67431 0.3905 0.0
H843 H 0.35921 0.66496 0.37461 0.0
H844 H 0.22651 0.5557 0.43132 0.0
H845 H 0.27633 0.60083 0.41817 0.0
C846 C 0.72536 0.46647 0.57308 0.0
C847 C 0.7386 0.48307 0.55289 0.0
C848 C 0.73015 0.4414 0.57983 0.0
C849 C 0.75111 0.38285 0.55671 0.0
H850 H 0.75215 0.36324 0.61984 0.0
C851 C 0.72157 0.25742 0.58669 0.0
C852 C 0.7359 0.25419 0.60641 0.0
C853 C 0.72691 0.28742 0.57978 0.0
C854 C 0.75244 0.36853 0.60211 0.0
H855 H 0.76845 0.48671 0.52441 0.0
H856 H 0.77777 0.44388 0.53661 0.0
H857 H 0.75406 0.41285 0.60917 0.0
H858 H 0.76823 0.2808 0.63385 0.0
H859 H 0.77847 0.33309 0.62133 0.0
H860 H 0.75026 0.3389 0.54964 0.0
C861 C 0.76292 0.44975 0.54696 0.0
C862 C 0.75303 0.39685 0.59598 0.0
C863 C 0.75788 0.47469 0.54008 0.0
C864 C 0.75676 0.2821 0.61856 0.0
C865 C 0.76235 0.3122 0.61151 0.0
C866 C 0.75089 0.35471 0.56283 0.0
C867 C 0.74867 0.4324 0.56674 0.0
C868 C 0.75161 0.40404 0.57321 0.0
C869 C 0.74709 0.31521 0.59222 0.0
C870 C 0.7508 0.34678 0.58563 0.0
H871 H 0.71089 0.4725 0.58366 0.0
H872 H 0.71842 0.42846 0.59502 0.0
H873 H 0.74974 0.38734 0.53901 0.0
H874 H 0.70584 0.23674 0.5766 0.0
H875 H 0.71437 0.28858 0.565 0.0
C876 C 0.27381 0.74407 0.71642 0.0
C877 C 0.2464 0.71376 0.7133 0.0
C878 C 0.30243 0.74671 0.72441 0.0
C879 C 0.33289 0.69975 0.75463 0.0
H880 H 0.4153 0.76228 0.72987 0.0
C881 C 0.44542 0.68911 0.76592 0.0
C882 C 0.47427 0.71681 0.7718 0.0
C883 C 0.41849 0.6911 0.75985 0.0
C884 C 0.39248 0.74498 0.73713 0.0
H885 H 0.228 0.66253 0.71525 0.0
H886 H 0.27766 0.66702 0.72884 0.0
H887 H 0.36655 0.76133 0.71697 0.0
H888 H 0.49757 0.76838 0.77568 0.0
H889 H 0.45022 0.77194 0.76481 0.0
H890 H 0.35867 0.68288 0.77434 0.0
C891 C 0.27695 0.68883 0.72579 0.0
C892 C 0.36455 0.74443 0.72978 0.0
C893 C 0.24841 0.68622 0.71795 0.0
C894 C 0.4756 0.74665 0.77134 0.0
C895 C 0.44863 0.7487 0.76499 0.0
C896 C 0.36069 0.70017 0.76183 0.0
C897 C 0.30426 0.71908 0.72935 0.0
C898 C 0.33434 0.72142 0.73817 0.0
C899 C 0.41973 0.72086 0.75934 0.0
C900 C 0.39073 0.72242 0.75291 0.0
H901 H 0.27293 0.76572 0.71314 0.0
H902 H 0.32292 0.77038 0.72712 0.0
H903 H 0.31017 0.68225 0.76191 0.0
H904 H 0.44345 0.66573 0.76639 0.0
H905 H 0.39666 0.66927 0.75536 0.0
C906 C 0.72706 0.45843 0.95557 0.0
C907 C 0.75162 0.47562 0.93994 0.0
C908 C 0.69796 0.43211 0.94866 0.0
C909 C 0.66228 0.37396 0.9013 0.0
H910 H 0.5821 0.35263 0.93055 0.0
C911 C 0.53984 0.27288 0.86924 0.0
C912 C 0.5207 0.25037 0.88561 0.0
C913 C 0.56685 0.30176 0.87556 0.0
C914 C 0.60437 0.35832 0.92229 0.0
H915 H 0.76464 0.47978 0.90479 0.0
H916 H 0.71364 0.43474 0.89249 0.0
H917 H 0.63145 0.40083 0.94192 0.0
H918 H 0.51402 0.24088 0.92137 0.0
H919 H 0.56104 0.29167 0.93248 0.0
H920 H 0.63493 0.33168 0.88142 0.0
C921 C 0.71704 0.44063 0.91023 0.0
C922 C 0.63271 0.38582 0.92886 0.0
C923 C 0.74625 0.46657 0.91721 0.0
C924 C 0.52851 0.25775 0.90844 0.0
C925 C 0.55523 0.28685 0.91478 0.0
C926 C 0.63391 0.34677 0.89453 0.0
C927 C 0.69262 0.42271 0.92589 0.0
C928 C 0.66213 0.39393 0.91855 0.0
C929 C 0.57496 0.3089 0.89839 0.0
C930 C 0.60471 0.33856 0.90504 0.0
H931 H 0.73075 0.46474 0.97324 0.0
H932 H 0.68003 0.41868 0.96131 0.0
H933 H 0.68445 0.37887 0.89327 0.0
H934 H 0.53455 0.26769 0.85153 0.0
H935 H 0.58158 0.31843 0.86259 0.0
C936 C 0.36735 0.31724 0.23681 0.0
C937 C 0.35509 0.28518 0.24351 0.0
C938 C 0.3565 0.32463 0.21719 0.0
C939 C 0.29206 0.29005 0.17355 0.0
H940 H 0.354 0.36469 0.14013 0.0
C941 C 0.27721 0.32766 0.08225 0.0
C942 C 0.27955 0.35793 0.08188 0.0
C943 C 0.28456 0.31661 0.10189 0.0
C944 C 0.33653 0.34379 0.14934 0.0
H945 H 0.32098 0.23576 0.23476 0.0
H946 H 0.30351 0.24859 0.19985 0.0
H947 H 0.37071 0.34924 0.1743 0.0
H948 H 0.29163 0.40053 0.10139 0.0
H949 H 0.30546 0.38158 0.13551 0.0
H950 H 0.2583 0.28432 0.14772 0.0
C951 C 0.32097 0.26812 0.21012 0.0
C952 C 0.34593 0.33504 0.16905 0.0
C953 C 0.33138 0.26072 0.23005 0.0
C954 C 0.28937 0.37698 0.10137 0.0
C955 C 0.29737 0.36626 0.12078 0.0
C956 C 0.28286 0.29848 0.15351 0.0
C957 C 0.33365 0.3002 0.20331 0.0
C958 C 0.32371 0.30839 0.18169 0.0
C959 C 0.29508 0.33606 0.12117 0.0
C960 C 0.30495 0.32567 0.14149 0.0
H961 H 0.38604 0.33687 0.24633 0.0
H962 H 0.36632 0.34967 0.21289 0.0
H963 H 0.27416 0.26962 0.18288 0.0
H964 H 0.26969 0.31263 0.06737 0.0
H965 H 0.28282 0.29329 0.10189 0.0
C966 C 0.0471 0.32018 0.40862 0.0
C967 C 0.07741 0.34793 0.40776 0.0
C968 C 0.02922 0.30743 0.3889 0.0
C969 C 0.03662 0.31367 0.32609 0.0
H970 H 0.94447 0.27821 0.32846 0.0
C971 C 0.95274 0.30828 0.25391 0.0
C972 C 0.93032 0.27704 0.24668 0.0
C973 C 0.97123 0.3131 0.27316 0.0
C974 C 0.97015 0.28772 0.32769 0.0
H975 H 0.11261 0.38463 0.38595 0.0
H976 H 0.08116 0.36347 0.35182 0.0
H977 H 0.9756 0.29415 0.3633 0.0
H978 H 0.91052 0.22639 0.25413 0.0
H979 H 0.94194 0.23521 0.2885 0.0
H980 H 0.03098 0.30907 0.29022 0.0
C981 C 0.07148 0.35052 0.36737 0.0
C982 C 0.98803 0.29671 0.34761 0.0
C983 C 0.0895 0.36285 0.38696 0.0
C984 C 0.9271 0.25078 0.25928 0.0
C985 C 0.94518 0.25571 0.27885 0.0
C986 C 0.01878 0.30526 0.30619 0.0
C987 C 0.04109 0.3226 0.36801 0.0
C988 C 0.02161 0.31031 0.34706 0.0
C989 C 0.96727 0.2869 0.28587 0.0
C990 C 0.98553 0.29256 0.30688 0.0
H991 H 0.03737 0.30826 0.42451 0.0
H992 H 0.00616 0.28567 0.39007 0.0
H993 H 0.06226 0.32326 0.32496 0.0
H994 H 0.95546 0.32921 0.24516 0.0
H995 H 0.98801 0.33738 0.27851 0.0
C996 C 0.63135 0.91324 0.43806 0.0
C997 C 0.64945 0.92154 0.41822 0.0
C998 C 0.64387 0.93163 0.45749 0.0
C999 C 0.70798 0.0121 0.47658 0.0
H1000 H 0.67927 0.97287 0.53518 0.0
C1001 C 0.72484 0.08811 0.55537 0.0
C1002 C 0.72808 0.07697 0.57644 0.0
C1003 C 0.71846 0.06904 0.53624 0.0
C1004 C 0.68812 0.9843 0.51904 0.0
H1005 H 0.69496 0.95483 0.40305 0.0
H1006 H 0.71773 0.98624 0.43733 0.0
H1007 H 0.66375 0.93933 0.50194 0.0
H1008 H 0.72811 0.03781 0.59421 0.0
H1009 H 0.71861 0.00493 0.56064 0.0
H1010 H 0.73368 0.05691 0.49377 0.0
C1011 C 0.69343 0.9662 0.43781 0.0
C1012 C 0.67865 0.96501 0.49983 0.0
C1013 C 0.68056 0.94815 0.4182 0.0
C1014 C 0.72553 0.04674 0.57808 0.0
C1015 C 0.71984 0.02789 0.55884 0.0
C1016 C 0.71804 0.03132 0.49584 0.0
C1017 C 0.6751 0.95841 0.45768 0.0
C1018 C 0.68779 0.97868 0.47827 0.0
C1019 C 0.71582 0.03861 0.53767 0.0
C1020 C 0.70763 0.01781 0.51732 0.0
H1021 H 0.60708 0.89305 0.43834 0.0
H1022 H 0.62861 0.92523 0.47217 0.0
H1023 H 0.71537 0.0237 0.46036 0.0
H1024 H 0.7263 0.11122 0.5538 0.0
H1025 H 0.71475 0.07793 0.52046 0.0
C1026 C 0.73132 0.63765 0.60476 0.0
C1027 C 0.73316 0.65217 0.58394 0.0
C1028 C 0.72546 0.6497 0.6244 0.0
C1029 C 0.69379 0.70187 0.64416 0.0
H1030 H 0.72521 0.69058 0.70162 0.0
C1031 C 0.67704 0.74812 0.7313 0.0
C1032 C 0.65539 0.722 0.74466 0.0
C1033 C 0.69041 0.74312 0.71192 0.0
C1034 C 0.71655 0.69406 0.68563 0.0
H1035 H 0.73108 0.69096 0.5672 0.0
H1036 H 0.72233 0.71319 0.60169 0.0
H1037 H 0.74264 0.67677 0.66694 0.0
H1038 H 0.63132 0.67002 0.74779 0.0
H1039 H 0.65615 0.66186 0.71478 0.0
H1040 H 0.66827 0.71984 0.6632 0.0
C1041 C 0.72439 0.69186 0.60287 0.0
C1042 C 0.72618 0.68586 0.66576 0.0
C1043 C 0.72962 0.67934 0.58311 0.0
C1044 C 0.64839 0.69091 0.73844 0.0
C1045 C 0.66235 0.68607 0.71938 0.0
C1046 C 0.68476 0.71072 0.66403 0.0
C1047 C 0.72189 0.67699 0.62378 0.0
C1048 C 0.71431 0.68889 0.64476 0.0
C1049 C 0.68304 0.71206 0.70585 0.0
C1050 C 0.69558 0.70626 0.68488 0.0
H1051 H 0.73348 0.61634 0.60574 0.0
H1052 H 0.72288 0.63699 0.63998 0.0
H1053 H 0.68368 0.70413 0.62847 0.0
H1054 H 0.68355 0.77245 0.73569 0.0
H1055 H 0.70646 0.76347 0.70166 0.0
C1056 C 0.04565 0.69097 0.74801 0.0
C1057 C 0.0729 0.72146 0.74521 0.0
C1058 C 0.02612 0.68409 0.76688 0.0
C1059 C 0.008 0.72139 0.81542 0.0
H1060 H 0.97268 0.63573 0.84008 0.0
C1061 C 0.94792 0.67985 0.90363 0.0
C1062 C 0.91817 0.65125 0.90342 0.0
C1063 C 0.96639 0.69061 0.88403 0.0
C1064 C 0.98226 0.65968 0.83328 0.0
H1065 H 0.10019 0.76898 0.75994 0.0
H1066 H 0.06709 0.75641 0.79345 0.0
H1067 H 0.00599 0.65033 0.80661 0.0
H1068 H 0.88433 0.61155 0.88271 0.0
H1069 H 0.91678 0.63013 0.84863 0.0
H1070 H 0.98485 0.73071 0.84287 0.0
C1071 C 0.06043 0.73799 0.78077 0.0
C1072 C 1.00118 0.66805 0.81401 0.0
C1073 C 0.07973 0.74506 0.76166 0.0
C1074 C 0.907 0.63387 0.88327 0.0
C1075 C 0.92563 0.64433 0.86384 0.0
C1076 C 0.98941 0.71311 0.83498 0.0
C1077 C 0.0336 0.70726 0.78375 0.0
C1078 C 0.01401 0.69888 0.80463 0.0
C1079 C 0.95561 0.67257 0.86411 0.0
C1080 C 0.97612 0.68206 0.84389 0.0
H1081 H 0.03973 0.67195 0.73596 0.0
H1082 H 0.00527 0.66037 0.7683 0.0
H1083 H 0.01718 0.74524 0.80857 0.0
H1084 H 0.95698 0.69367 0.91897 0.0
H1085 H 0.98953 0.7124 0.88462 0.0
C1086 C 0.31341 0.94577 0.06744 0.0
C1087 C 0.28284 0.93193 0.07725 0.0
C1088 C 0.32039 0.96432 0.04802 0.0
C1089 C 0.28183 0.97933 0.99937 0.0
H1090 H 0.36732 0.05207 0.99097 0.0
C1091 C 0.3222 0.0645 0.92146 0.0
C1092 C 0.3514 0.07058 0.91189 0.0
C1093 C 0.31182 0.04795 0.94188 0.0
C1094 C 0.34338 0.03175 0.99307 0.0
H1095 H 0.23572 0.92707 0.0746 0.0
H1096 H 0.24808 0.96008 0.04075 0.0
H1097 H 0.35305 0.02391 0.02683 0.0
H1098 H 0.39266 0.06429 0.91622 0.0
H1099 H 0.37457 0.03552 0.95173 0.0
H1100 H 0.27234 0.98756 0.96546 0.0
C1101 C 0.26651 0.95612 0.04791 0.0
C1102 C 0.3352 0.01554 0.01358 0.0
C1103 C 0.25945 0.93733 0.06732 0.0
C1104 C 0.36983 0.05956 0.923 0.0
C1105 C 0.35968 0.04343 0.94345 0.0
C1106 C 0.28996 0.99581 0.97887 0.0
C1107 C 0.29705 0.9697 0.03796 0.0
C1108 C 0.30456 0.98869 0.01684 0.0
C1109 C 0.33076 0.03774 0.95321 0.0
C1110 C 0.32103 0.02175 0.9754 0.0
H1111 H 0.33173 0.94146 0.07438 0.0
H1112 H 0.34392 0.97373 0.04056 0.0
H1113 H 0.25812 0.95858 0.00121 0.0
H1114 H 0.30756 0.07274 0.91323 0.0
H1115 H 0.28945 0.04391 0.9491 0.0
C1116 C 0.29657 0.51891 0.9556 0.0
C1117 C 0.3 0.49293 0.94861 0.0
C1118 C 0.31245 0.54815 0.94402 0.0
C1119 C 0.35833 0.58792 0.89232 0.0
H1120 H 0.42081 0.65155 0.93302 0.0
C1121 C 0.49757 0.67509 0.888 0.0
C1122 C 0.50142 0.69191 0.86793 0.0
C1123 C 0.46791 0.65957 0.89877 0.0
C1124 C 0.40313 0.63438 0.92146 0.0
H1125 H 0.32017 0.4759 0.9233 0.0
H1126 H 0.34688 0.52635 0.90267 0.0
H1127 H 0.37333 0.60481 0.94823 0.0
H1128 H 0.47795 0.70706 0.84376 0.0
H1129 H 0.42536 0.67879 0.86233 0.0
H1130 H 0.3893 0.61639 0.86562 0.0
C1131 C 0.33225 0.52446 0.91705 0.0
C1132 C 0.37585 0.60773 0.93014 0.0
C1133 C 0.31709 0.49562 0.92889 0.0
C1134 C 0.47557 0.69448 0.8594 0.0
C1135 C 0.44554 0.67823 0.86992 0.0
C1136 C 0.3854 0.61479 0.88363 0.0
C1137 C 0.33126 0.55143 0.92503 0.0
C1138 C 0.35407 0.58343 0.91569 0.0
C1139 C 0.44129 0.65995 0.8894 0.0
C1140 C 0.40886 0.63739 0.89818 0.0
H1141 H 0.28384 0.51745 0.97097 0.0
H1142 H 0.31139 0.56861 0.95053 0.0
H1143 H 0.34183 0.56958 0.88083 0.0
H1144 H 0.51718 0.67273 0.89482 0.0
H1145 H 0.46527 0.64535 0.91359 0.0
C1146 C 0.78266 0.48418 0.02995 0.0
C1147 C 0.8141 0.50926 0.03381 0.0
C1148 C 0.77012 0.45603 0.04276 0.0
C1149 C 0.77267 0.39536 0.05759 0.0
H1150 H 0.78353 0.39319 0.12212 0.0
C1151 C 0.82318 0.32576 0.1023 0.0
C1152 C 0.8102 0.31075 0.12291 0.0
C1153 C 0.81031 0.34206 0.09091 0.0
C1154 C 0.77954 0.39307 0.10417 0.0
H1155 H 0.85633 0.52588 0.05467 0.0
H1156 H 0.83404 0.47744 0.07768 0.0
H1157 H 0.7855 0.44029 0.10489 0.0
H1158 H 0.7729 0.29965 0.14747 0.0
H1159 H 0.751 0.32948 0.12784 0.0
H1160 H 0.76978 0.34946 0.05663 0.0
C1161 C 0.81914 0.47923 0.06474 0.0
C1162 C 0.78082 0.42005 0.09433 0.0
C1163 C 0.83195 0.50686 0.05157 0.0
C1164 C 0.78303 0.31079 0.13143 0.0
C1165 C 0.77063 0.32791 0.1203 0.0
C1166 C 0.77198 0.36863 0.06738 0.0
C1167 C 0.78858 0.45313 0.05997 0.0
C1168 C 0.77864 0.42193 0.07088 0.0
C1169 C 0.78473 0.34434 0.10022 0.0
C1170 C 0.77667 0.36783 0.09065 0.0
H1171 H 0.76871 0.48543 0.01607 0.0
H1172 H 0.7466 0.4361 0.0387 0.0
H1173 H 0.77123 0.39636 0.03944 0.0
H1174 H 0.84422 0.3261 0.0955 0.0
H1175 H 0.82188 0.35484 0.07562 0.0
C1176 C 0.47885 0.78208 0.29297 0.0
C1177 C 0.50447 0.81242 0.28714 0.0
C1178 C 0.44995 0.76884 0.2809 0.0
C1179 C 0.4118 0.77568 0.22874 0.0
H1180 H 0.34353 0.76807 0.26741 0.0
C1181 C 0.31757 0.81862 0.22127 0.0
C1182 C 0.30259 0.80555 0.20063 0.0
C1183 C 0.33392 0.80587 0.23274 0.0
C1184 C 0.36205 0.76936 0.2564 0.0
H1185 H 0.52111 0.85165 0.26346 0.0
H1186 H 0.47128 0.82813 0.24194 0.0
H1187 H 0.39106 0.77025 0.28406 0.0
H1188 H 0.29151 0.76815 0.17613 0.0
H1189 H 0.32126 0.74629 0.19595 0.0
H1190 H 0.38373 0.77687 0.20118 0.0
C1191 C 0.47322 0.81462 0.25583 0.0
C1192 C 0.38917 0.77045 0.2659 0.0
C1193 C 0.50168 0.82817 0.26818 0.0
C1194 C 0.30258 0.7783 0.19221 0.0
C1195 C 0.3197 0.76597 0.20345 0.0
C1196 C 0.38448 0.77411 0.21922 0.0
C1197 C 0.44669 0.7854 0.26253 0.0
C1198 C 0.41495 0.77519 0.25222 0.0
C1199 C 0.33629 0.78027 0.2235 0.0
C1200 C 0.36007 0.77252 0.23304 0.0
H1201 H 0.48038 0.76972 0.30773 0.0
H1202 H 0.42978 0.74633 0.28644 0.0
H1203 H 0.43134 0.77927 0.21784 0.0
H1204 H 0.31803 0.83978 0.22796 0.0
H1205 H 0.34679 0.81765 0.24799 0.0
C1206 C 0.52614 0.30432 0.36117 0.0
C1207 C 0.49921 0.30531 0.36916 0.0
C1208 C 0.55558 0.32118 0.3725 0.0
C1209 C 0.6133 0.38557 0.3879 0.0
H1210 H 0.62314 0.3933 0.45276 0.0
C1211 C 0.67961 0.50365 0.43563 0.0
C1212 C 0.69763 0.50612 0.45484 0.0
C1213 C 0.66391 0.47496 0.42359 0.0
C1214 C 0.62119 0.39106 0.43461 0.0
H1215 H 0.48093 0.32226 0.39584 0.0
H1216 H 0.53178 0.35057 0.41603 0.0
H1217 H 0.57701 0.34623 0.4363 0.0
H1218 H 0.71457 0.48121 0.47619 0.0
H1219 H 0.68597 0.43026 0.45542 0.0
H1220 H 0.65601 0.43167 0.38629 0.0
C1221 C 0.53046 0.33714 0.40105 0.0
C1222 C 0.59472 0.36421 0.42521 0.0
C1223 C 0.50139 0.32105 0.38948 0.0
C1224 C 0.70107 0.47991 0.46123 0.0
C1225 C 0.68463 0.45081 0.44947 0.0
C1226 C 0.6395 0.41263 0.39731 0.0
C1227 C 0.55816 0.33849 0.39222 0.0
C1228 C 0.58986 0.36185 0.40181 0.0
C1229 C 0.66529 0.44791 0.43084 0.0
C1230 C 0.64298 0.41621 0.42078 0.0
H1231 H 0.52505 0.29266 0.34534 0.0
H1232 H 0.57662 0.32194 0.36532 0.0
H1233 H 0.61002 0.38452 0.36982 0.0
H1234 H 0.67654 0.52354 0.43046 0.0
H1235 H 0.64888 0.47334 0.40948 0.0
C1236 C 0.1779 0.50159 0.55488 0.0
C1237 C 0.19139 0.49807 0.53497 0.0
C1238 C 0.19197 0.53101 0.56604 0.0
C1239 C 0.23008 0.61359 0.55221 0.0
H1240 H 0.233 0.62462 0.61697 0.0
C1241 C 0.22458 0.70174 0.6254 0.0
C1242 C 0.19461 0.69765 0.61924 0.0
C1243 C 0.23772 0.6861 0.61328 0.0
C1244 C 0.23318 0.62237 0.59884 0.0
H1245 H 0.23078 0.52184 0.51147 0.0
H1246 H 0.2549 0.57403 0.53068 0.0
H1247 H 0.23191 0.5773 0.601 0.0
H1248 H 0.15591 0.67637 0.59502 0.0
H1249 H 0.17932 0.65018 0.57334 0.0
H1250 H 0.22833 0.65715 0.55016 0.0
C1251 C 0.23384 0.55376 0.53786 0.0
C1252 C 0.23237 0.59522 0.58973 0.0
C1253 C 0.22015 0.52398 0.52696 0.0
C1254 C 0.17922 0.68005 0.59987 0.0
C1255 C 0.19269 0.66517 0.58746 0.0
C1256 C 0.23039 0.6405 0.56134 0.0
C1257 C 0.21939 0.55767 0.5572 0.0
C1258 C 0.22939 0.58991 0.5664 0.0
C1259 C 0.22136 0.66691 0.59459 0.0
C1260 C 0.23051 0.64437 0.58477 0.0
H1261 H 0.15569 0.48193 0.56131 0.0
H1262 H 0.18009 0.53344 0.58075 0.0
H1263 H 0.22755 0.60996 0.53417 0.0
H1264 H 0.23652 0.71483 0.64055 0.0
H1265 H 0.25975 0.68763 0.61916 0.0
C1266 C 0.70284 0.22231 0.6987 0.0
C1267 C 0.69897 0.19262 0.70546 0.0
C1268 C 0.68729 0.23586 0.71045 0.0
C1269 C 0.64278 0.2305 0.76259 0.0
H1270 H 0.57981 0.23261 0.72296 0.0
C1271 C 0.50425 0.17951 0.76903 0.0
C1272 C 0.50099 0.19285 0.78912 0.0
C1273 C 0.53358 0.19349 0.75783 0.0
C1274 C 0.59768 0.23291 0.73421 0.0
H1275 H 0.67832 0.1551 0.73054 0.0
H1276 H 0.65211 0.17914 0.75143 0.0
H1277 H 0.62648 0.2325 0.70696 0.0
H1278 H 0.5251 0.2319 0.81289 0.0
H1279 H 0.5772 0.2559 0.7936 0.0
H1280 H 0.61278 0.22861 0.78979 0.0
C1281 C 0.66681 0.19191 0.73707 0.0
C1282 C 0.62446 0.23302 0.72508 0.0
C1283 C 0.68164 0.17804 0.72506 0.0
C1284 C 0.52706 0.22143 0.79726 0.0
C1285 C 0.55679 0.23503 0.78632 0.0
C1286 C 0.61622 0.23084 0.77173 0.0
C1287 C 0.66842 0.22028 0.7294 0.0
C1288 C 0.64633 0.23009 0.73916 0.0
C1289 C 0.56045 0.22067 0.7668 0.0
C1290 C 0.59258 0.23032 0.75757 0.0
H1291 H 0.71588 0.23381 0.68347 0.0
H1292 H 0.68879 0.2577 0.70417 0.0
H1293 H 0.65938 0.22834 0.77379 0.0
H1294 H 0.48444 0.15742 0.76251 0.0
H1295 H 0.53579 0.18165 0.74301 0.0
loop_
_geom_bond_atom_site_label_1
_geom_bond_atom_site_label_2
_geom_bond_distance
_geom_bond_site_symmetry_2
_ccdc_geom_bond_type
C0 C1 1.351 . S
C0 N3 1.368 . S
C0 H5 0.931 . S
C1 C0 1.351 . S
C1 N2 1.373 . S
C1 H29 0.930 . S
N2 C1 1.373 . S
N2 C4 1.340 . S
N3 C0 1.368 . S
N3 C4 1.321 . S
N3 Co6 2.133 . S
C4 N2 1.340 . S
C4 N3 1.321 . S
C4 H28 0.930 . S
H5 C0 0.931 . S
Co6 N3 2.133 . S
Co6 N9 2.122 1_554 S
Co6 O14 2.058 1_554 S
Co6 O17 2.039 1_554 S
Co6 N20 2.137 . S
C7 O8 1.227 . S
C7 O17 1.265 1_554 S
O8 C7 1.227 . S
N9 Co6 2.122 1_556 S
N9 C11 1.375 . S
N9 C12 1.313 . S
C10 C11 1.338 . S
C10 N13 1.377 . S
C10 H30 0.930 . S
C11 N9 1.375 . S
C11 C10 1.338 . S
C11 H15 0.931 1_556 S
C12 N9 1.313 . S
C12 N13 1.344 . S
C12 H16 0.930 . S
N13 C10 1.377 . S
N13 C12 1.344 . S
O14 Co6 2.058 1_556 S
O14 C18 1.253 . S
H15 C11 0.931 1_554 S
H16 C12 0.930 . S
O17 Co6 2.039 1_556 S
O17 C7 1.265 1_556 S
C18 O14 1.253 . S
C18 O19 1.227 . S
O19 C18 1.227 . S
N20 Co6 2.137 . S
N20 C23 1.346 . S
N20 C24 1.345 . S
C21 C22 1.387 . S
C21 C25 1.391 . S
C22 C21 1.387 . S
C22 C23 1.369 . S
C22 H31 0.929 . S
C23 N20 1.346 . S
C23 C22 1.369 . S
C23 H26 0.928 . S
C24 N20 1.345 . S
C24 C25 1.371 . S
C24 H27 0.931 . S
C25 C21 1.391 . S
C25 C24 1.371 . S
C25 H32 0.930 . S
H26 C23 0.928 . S
H27 C24 0.931 . S
H28 C4 0.930 . S
H29 C1 0.930 . S
H30 C10 0.930 . S
H31 C22 0.929 . S
H32 C25 0.930 . S
C33 C34 1.351 . S
C33 N36 1.368 . S
C33 H38 0.931 . S
C34 C33 1.351 . S
C34 N35 1.373 . S
C34 H62 0.930 . S
N35 C34 1.373 . S
N35 C37 1.340 . S
N36 C33 1.368 . S
N36 C37 1.321 . S
N36 Co39 2.135 . S
C37 N35 1.340 . S
C37 N36 1.321 . S
C37 H61 0.930 . S
H38 C33 0.931 . S
Co39 N36 2.135 . S
Co39 N42 2.121 . S
Co39 O47 2.055 . S
Co39 O50 2.039 . S
Co39 N53 2.140 . S
C40 O41 1.227 . S
C40 O50 1.265 . S
O41 C40 1.227 . S
N42 Co39 2.121 . S
N42 C44 1.375 . S
N42 C45 1.313 . S
C43 C44 1.338 . S
C43 N46 1.377 . S
C43 H63 0.930 . S
C44 N42 1.375 . S
C44 C43 1.338 . S
C44 H48 0.931 . S
C45 N42 1.313 . S
C45 N46 1.344 . S
C45 H49 0.930 . S
N46 C43 1.377 . S
N46 C45 1.344 . S
O47 Co39 2.055 . S
O47 C51 1.253 . S
H48 C44 0.931 . S
H49 C45 0.930 . S
O50 Co39 2.039 . S
O50 C40 1.265 . S
C51 O47 1.253 . S
C51 O52 1.227 . S
O52 C51 1.227 . S
N53 Co39 2.140 . S
N53 C56 1.346 . S
N53 C57 1.345 . S
C54 C55 1.387 . S
C54 C58 1.391 . S
C55 C54 1.387 . S
C55 C56 1.369 . S
C55 H64 0.929 . S
C56 N53 1.346 . S
C56 C55 1.369 . S
C56 H59 0.928 . S
C57 N53 1.345 . S
C57 C58 1.371 . S
C57 H60 0.931 . S
C58 C54 1.391 . S
C58 C57 1.371 . S
C58 H65 0.930 . S
H59 C56 0.928 . S
H60 C57 0.931 . S
H61 C37 0.930 . S
H62 C34 0.930 . S
H63 C43 0.930 . S
H64 C55 0.929 . S
H65 C58 0.930 . S
C66 C67 1.351 . S
C66 N69 1.368 . S
C66 H71 0.931 . S
C67 C66 1.351 . S
C67 N68 1.373 . S
C67 H95 0.930 . S
N68 C67 1.373 . S
N68 C70 1.340 . S
N69 C66 1.368 . S
N69 C70 1.321 . S
N69 Co72 2.135 . S
C70 N68 1.340 . S
C70 N69 1.321 . S
C70 H94 0.930 . S
H71 C66 0.931 . S
Co72 N69 2.135 . S
Co72 N75 2.121 . S
Co72 O80 2.055 . S
Co72 O83 2.039 . S
Co72 N86 2.140 . S
C73 O74 1.227 . S
C73 O83 1.265 . S
O74 C73 1.227 . S
N75 Co72 2.121 . S
N75 C77 1.375 . S
N75 C78 1.313 . S
C76 C77 1.338 . S
C76 N79 1.377 . S
C76 H96 0.930 . S
C77 N75 1.375 . S
C77 C76 1.338 . S
C77 H81 0.931 . S
C78 N75 1.313 . S
C78 N79 1.344 . S
C78 H82 0.930 . S
N79 C76 1.377 . S
N79 C78 1.344 . S
O80 Co72 2.055 . S
O80 C84 1.253 . S
H81 C77 0.931 . S
H82 C78 0.930 . S
O83 Co72 2.039 . S
O83 C73 1.265 . S
C84 O80 1.253 . S
C84 O85 1.227 . S
O85 C84 1.227 . S
N86 Co72 2.140 . S
N86 C89 1.346 . S
N86 C90 1.345 . S
C87 C88 1.387 . S
C87 C91 1.391 . S
C88 C87 1.387 . S
C88 C89 1.369 . S
C88 H97 0.929 . S
C89 N86 1.346 . S
C89 C88 1.369 . S
C89 H92 0.928 . S
C90 N86 1.345 . S
C90 C91 1.371 . S
C90 H93 0.931 . S
C91 C87 1.391 . S
C91 C90 1.371 . S
C91 H98 0.930 . S
H92 C89 0.928 . S
H93 C90 0.931 . S
H94 C70 0.930 . S
H95 C67 0.930 . S
H96 C76 0.930 . S
H97 C88 0.929 . S
H98 C91 0.930 . S
C99 C100 1.351 . S
C99 N102 1.368 . S
C99 H104 0.931 . S
C100 C99 1.351 . S
C100 N101 1.373 . S
C100 H128 0.930 . S
N101 C100 1.373 . S
N101 C103 1.340 . S
N102 C99 1.368 . S
N102 C103 1.321 . S
N102 Co105 2.135 . S
C103 N101 1.340 . S
C103 N102 1.321 . S
C103 H127 0.930 . S
H104 C99 0.931 . S
Co105 N102 2.135 . S
Co105 N108 2.121 . S
Co105 O113 2.055 . S
Co105 O116 2.039 . S
Co105 N119 2.140 . S
C106 O107 1.227 . S
C106 O116 1.265 . S
O107 C106 1.227 . S
N108 Co105 2.121 . S
N108 C110 1.375 . S
N108 C111 1.313 . S
C109 C110 1.338 . S
C109 N112 1.377 . S
C109 H129 0.930 . S
C110 N108 1.375 . S
C110 C109 1.338 . S
C110 H114 0.931 . S
C111 N108 1.313 . S
C111 N112 1.344 . S
C111 H115 0.930 . S
N112 C109 1.377 . S
N112 C111 1.344 . S
O113 Co105 2.055 . S
O113 C117 1.253 . S
H114 C110 0.931 . S
H115 C111 0.930 . S
O116 Co105 2.039 . S
O116 C106 1.265 . S
C117 O113 1.253 . S
C117 O118 1.227 . S
O118 C117 1.227 . S
N119 Co105 2.140 . S
N119 C122 1.346 . S
N119 C123 1.345 . S
C120 C121 1.387 . S
C120 C124 1.391 . S
C121 C120 1.387 . S
C121 C122 1.369 . S
C121 H130 0.929 . S
C122 N119 1.346 . S
C122 C121 1.369 . S
C122 H125 0.928 . S
C123 N119 1.345 . S
C123 C124 1.371 . S
C123 H126 0.931 . S
C124 C120 1.391 . S
C124 C123 1.371 . S
C124 H131 0.930 . S
H125 C122 0.928 . S
H126 C123 0.931 . S
H127 C103 0.930 . S
H128 C100 0.930 . S
H129 C109 0.930 . S
H130 C121 0.929 . S
H131 C124 0.930 . S
C132 C133 1.351 . S
C132 N135 1.368 . S
C132 H137 0.931 . S
C133 C132 1.351 . S
C133 N134 1.373 . S
C133 H161 0.930 . S
N134 C133 1.373 . S
N134 C136 1.340 . S
N135 C132 1.368 . S
N135 C136 1.321 . S
N135 Co138 2.135 . S
C136 N134 1.340 . S
C136 N135 1.321 . S
C136 H160 0.930 . S
H137 C132 0.931 . S
Co138 N135 2.135 . S
Co138 N141 2.121 . S
Co138 O146 2.055 . S
Co138 O149 2.039 . S
Co138 N152 2.140 . S
C139 O140 1.227 . S
C139 O149 1.265 . S
O140 C139 1.227 . S
N141 Co138 2.121 . S
N141 C143 1.375 . S
N141 C144 1.313 . S
C142 C143 1.338 . S
C142 N145 1.377 . S
C142 H162 0.930 . S
C143 N141 1.375 . S
C143 C142 1.338 . S
C143 H147 0.931 . S
C144 N141 1.313 . S
C144 N145 1.344 . S
C144 H148 0.930 . S
N145 C142 1.377 . S
N145 C144 1.344 . S
O146 Co138 2.055 . S
O146 C150 1.253 . S
H147 C143 0.931 . S
H148 C144 0.930 . S
O149 Co138 2.039 . S
O149 C139 1.265 . S
C150 O146 1.253 . S
C150 O151 1.227 . S
O151 C150 1.227 . S
N152 Co138 2.140 . S
N152 C155 1.346 . S
N152 C156 1.345 . S
C153 C154 1.387 . S
C153 C157 1.391 . S
C154 C153 1.387 . S
C154 C155 1.369 . S
C154 H163 0.929 . S
C155 N152 1.346 . S
C155 C154 1.369 . S
C155 H158 0.928 . S
C156 N152 1.345 . S
C156 C157 1.371 . S
C156 H159 0.931 . S
C157 C153 1.391 . S
C157 C156 1.371 . S
C157 H164 0.930 . S
H158 C155 0.928 . S
H159 C156 0.931 . S
H160 C136 0.930 . S
H161 C133 0.930 . S
H162 C142 0.930 . S
H163 C154 0.929 . S
H164 C157 0.930 . S
C165 C166 1.351 . S
C165 N168 1.368 . S
C165 H170 0.931 . S
C166 C165 1.351 . S
C166 N167 1.373 . S
C166 H194 0.930 . S
N167 C166 1.373 . S
N167 C169 1.340 . S
N168 C165 1.368 . S
N168 C169 1.321 . S
N168 Co171 2.135 . S
C169 N167 1.340 . S
C169 N168 1.321 . S
C169 H193 0.930 . S
H170 C165 0.931 . S
Co171 N168 2.135 . S
Co171 N174 2.121 . S
Co171 O179 2.055 . S
Co171 O182 2.039 . S
Co171 N185 2.140 . S
C172 O173 1.227 . S
C172 O182 1.265 . S
O173 C172 1.227 . S
N174 Co171 2.121 . S
N174 C176 1.375 . S
N174 C177 1.313 . S
C175 C176 1.338 . S
C175 N178 1.377 . S
C175 H195 0.930 . S
C176 N174 1.375 . S
C176 C175 1.338 . S
C176 H180 0.931 . S
C177 N174 1.313 . S
C177 N178 1.344 . S
C177 H181 0.930 . S
N178 C175 1.377 . S
N178 C177 1.344 . S
O179 Co171 2.055 . S
O179 C183 1.253 . S
H180 C176 0.931 . S
H181 C177 0.930 . S
O182 Co171 2.039 . S
O182 C172 1.265 . S
C183 O179 1.253 . S
C183 O184 1.227 . S
O184 C183 1.227 . S
N185 Co171 2.140 . S
N185 C188 1.346 . S
N185 C189 1.345 . S
C186 C187 1.387 . S
C186 C190 1.391 . S
C187 C186 1.387 . S
C187 C188 1.369 . S
C187 H196 0.929 . S
C188 N185 1.346 . S
C188 C187 1.369 . S
C188 H191 0.928 . S
C189 N185 1.345 . S
C189 C190 1.371 . S
C189 H192 0.931 . S
C190 C186 1.391 . S
C190 C189 1.371 . S
C190 H197 0.930 . S
H191 C188 0.928 . S
H192 C189 0.931 . S
H193 C169 0.930 . S
H194 C166 0.930 . S
H195 C175 0.930 . S
H196 C187 0.929 . S
H197 C190 0.930 . S
C198 C199 1.351 . S
C198 N201 1.368 . S
C198 H203 0.931 . S
C199 C198 1.351 . S
C199 N200 1.373 . S
C199 H227 0.930 . S
N200 C199 1.373 . S
N200 C202 1.340 . S
N201 C198 1.368 . S
N201 C202 1.321 . S
N201 Co204 2.135 . S
C202 N200 1.340 . S
C202 N201 1.321 . S
C202 H226 0.930 . S
H203 C198 0.931 . S
Co204 N201 2.135 . S
Co204 N207 2.121 . S
Co204 O212 2.055 . S
Co204 O215 2.039 . S
Co204 N218 2.140 . S
C205 O206 1.227 . S
C205 O215 1.265 . S
O206 C205 1.227 . S
N207 Co204 2.121 . S
N207 C209 1.375 . S
N207 C210 1.313 . S
C208 C209 1.338 . S
C208 N211 1.377 . S
C208 H228 0.930 . S
C209 N207 1.375 . S
C209 C208 1.338 . S
C209 H213 0.931 . S
C210 N207 1.313 . S
C210 N211 1.344 . S
C210 H214 0.930 . S
N211 C208 1.377 . S
N211 C210 1.344 . S
O212 Co204 2.055 . S
O212 C216 1.253 . S
H213 C209 0.931 . S
H214 C210 0.930 . S
O215 Co204 2.039 . S
O215 C205 1.265 . S
C216 O212 1.253 . S
C216 O217 1.227 . S
O217 C216 1.227 . S
N218 Co204 2.140 . S
N218 C221 1.346 . S
N218 C222 1.345 . S
C219 C220 1.387 . S
C219 C223 1.391 . S
C220 C219 1.387 . S
C220 C221 1.369 . S
C220 H229 0.929 . S
C221 N218 1.346 . S
C221 C220 1.369 . S
C221 H224 0.928 . S
C222 N218 1.345 . S
C222 C223 1.371 . S
C222 H225 0.931 . S
C223 C219 1.391 . S
C223 C222 1.371 . S
C223 H230 0.930 . S
H224 C221 0.928 . S
H225 C222 0.931 . S
H226 C202 0.930 . S
H227 C199 0.930 . S
H228 C208 0.930 . S
H229 C220 0.929 . S
H230 C223 0.930 . S
C231 C232 1.351 . S
C231 N234 1.368 . S
C231 H236 0.931 . S
C232 C231 1.351 . S
C232 N233 1.373 . S
C232 H260 0.930 . S
N233 C232 1.373 . S
N233 C235 1.340 . S
N234 C231 1.368 . S
N234 C235 1.321 . S
N234 Co237 2.135 . S
C235 N233 1.340 . S
C235 N234 1.321 . S
C235 H259 0.930 . S
H236 C231 0.931 . S
Co237 N234 2.135 . S
Co237 N240 2.121 1_556 S
Co237 O245 2.055 1_556 S
Co237 O248 2.039 . S
Co237 N251 2.140 . S
C238 O239 1.227 . S
C238 O248 1.265 . S
O239 C238 1.227 . S
N240 Co237 2.121 1_554 S
N240 C242 1.375 1_554 S
N240 C243 1.313 . S
C241 C242 1.338 1_554 S
C241 N244 1.377 . S
C241 H261 0.930 . S
C242 N240 1.375 1_556 S
C242 C241 1.338 1_556 S
C242 H246 0.931 . S
C243 N240 1.313 . S
C243 N244 1.344 . S
C243 H247 0.930 . S
N244 C241 1.377 . S
N244 C243 1.344 . S
O245 Co237 2.055 1_554 S
O245 C249 1.253 . S
H246 C242 0.931 . S
H247 C243 0.930 . S
O248 Co237 2.039 . S
O248 C238 1.265 . S
C249 O245 1.253 . S
C249 O250 1.227 . S
O250 C249 1.227 . S
N251 Co237 2.140 . S
N251 C254 1.346 . S
N251 C255 1.345 . S
C252 C253 1.387 . S
C252 C256 1.391 . S
C253 C252 1.387 . S
C253 C254 1.369 . S
C253 H262 0.929 . S
C254 N251 1.346 . S
C254 C253 1.369 . S
C254 H257 0.928 . S
C255 N251 1.345 . S
C255 C256 1.371 . S
C255 H258 0.931 . S
C256 C252 1.391 . S
C256 C255 1.371 . S
C256 H263 0.930 . S
H257 C254 0.928 . S
H258 C255 0.931 . S
H259 C235 0.930 . S
H260 C232 0.930 . S
H261 C241 0.930 . S
H262 C253 0.929 . S
H263 C256 0.930 . S
C264 C265 1.351 . S
C264 N267 1.368 . S
C264 H269 0.931 . S
C265 C264 1.351 . S
C265 N266 1.373 . S
C265 H293 0.930 . S
N266 C265 1.373 . S
N266 C268 1.340 . S
N267 C264 1.368 . S
N267 C268 1.321 . S
N267 Co270 2.135 . S
C268 N266 1.340 . S
C268 N267 1.321 . S
C268 H292 0.930 . S
H269 C264 0.931 . S
Co270 N267 2.135 . S
Co270 N273 2.121 . S
Co270 O278 2.055 . S
Co270 O281 2.039 . S
Co270 N284 2.140 . S
C271 O272 1.227 . S
C271 O281 1.265 . S
O272 C271 1.227 . S
N273 Co270 2.121 . S
N273 C275 1.375 . S
N273 C276 1.313 . S
C274 C275 1.338 . S
C274 N277 1.377 . S
C274 H294 0.930 . S
C275 N273 1.375 . S
C275 C274 1.338 . S
C275 H279 0.931 . S
C276 N273 1.313 . S
C276 N277 1.344 . S
C276 H280 0.930 . S
N277 C274 1.377 . S
N277 C276 1.344 . S
O278 Co270 2.055 . S
O278 C282 1.253 . S
H279 C275 0.931 . S
H280 C276 0.930 . S
O281 Co270 2.039 . S
O281 C271 1.265 . S
C282 O278 1.253 . S
C282 O283 1.227 . S
O283 C282 1.227 . S
N284 Co270 2.140 . S
N284 C287 1.346 . S
N284 C288 1.345 . S
C285 C286 1.387 . S
C285 C289 1.391 . S
C286 C285 1.387 . S
C286 C287 1.369 . S
C286 H295 0.929 . S
C287 N284 1.346 . S
C287 C286 1.369 . S
C287 H290 0.928 . S
C288 N284 1.345 . S
C288 C289 1.371 . S
C288 H291 0.931 . S
C289 C285 1.391 . S
C289 C288 1.371 . S
C289 H296 0.930 . S
H290 C287 0.928 . S
H291 C288 0.931 . S
H292 C268 0.930 . S
H293 C265 0.930 . S
H294 C274 0.930 . S
H295 C286 0.929 . S
H296 C289 0.930 . S
C297 C298 1.351 . S
C297 N300 1.368 . S
C297 H302 0.931 . S
C298 C297 1.351 . S
C298 N299 1.373 . S
C298 H326 0.930 . S
N299 C298 1.373 . S
N299 C301 1.340 . S
N300 C297 1.368 . S
N300 C301 1.321 . S
N300 Co303 2.135 . S
C301 N299 1.340 . S
C301 N300 1.321 . S
C301 H325 0.930 . S
H302 C297 0.931 . S
Co303 N300 2.135 . S
Co303 N306 2.121 . S
Co303 O311 2.055 . S
Co303 O314 2.039 . S
Co303 N317 2.140 . S
C304 O305 1.227 . S
C304 O314 1.265 . S
O305 C304 1.227 . S
N306 Co303 2.121 . S
N306 C308 1.375 . S
N306 C309 1.313 . S
C307 C308 1.338 . S
C307 N310 1.377 . S
C307 H327 0.930 . S
C308 N306 1.375 . S
C308 C307 1.338 . S
C308 H312 0.931 . S
C309 N306 1.313 . S
C309 N310 1.344 . S
C309 H313 0.930 . S
N310 C307 1.377 . S
N310 C309 1.344 . S
O311 Co303 2.055 . S
O311 C315 1.253 . S
H312 C308 0.931 . S
H313 C309 0.930 . S
O314 Co303 2.039 . S
O314 C304 1.265 . S
C315 O311 1.253 . S
C315 O316 1.227 . S
O316 C315 1.227 . S
N317 Co303 2.140 . S
N317 C320 1.346 . S
N317 C321 1.345 . S
C318 C319 1.387 . S
C318 C322 1.391 . S
C319 C318 1.387 . S
C319 C320 1.369 . S
C319 H328 0.929 . S
C320 N317 1.346 . S
C320 C319 1.369 . S
C320 H323 0.928 . S
C321 N317 1.345 . S
C321 C322 1.371 . S
C321 H324 0.931 . S
C322 C318 1.391 . S
C322 C321 1.371 . S
C322 H329 0.930 . S
H323 C320 0.928 . S
H324 C321 0.931 . S
H325 C301 0.930 . S
H326 C298 0.930 . S
H327 C307 0.930 . S
H328 C319 0.929 . S
H329 C322 0.930 . S
C330 C331 1.351 . S
C330 N333 1.368 . S
C330 H335 0.931 . S
C331 C330 1.351 . S
C331 N332 1.373 . S
C331 H359 0.930 . S
N332 C331 1.373 . S
N332 C334 1.340 . S
N333 C330 1.368 . S
N333 C334 1.321 . S
N333 Co336 2.135 . S
C334 N332 1.340 . S
C334 N333 1.321 . S
C334 H358 0.930 . S
H335 C330 0.931 . S
Co336 N333 2.135 . S
Co336 N339 2.121 . S
Co336 O344 2.055 . S
Co336 O347 2.039 . S
Co336 N350 2.140 . S
C337 O338 1.227 . S
C337 O347 1.265 . S
O338 C337 1.227 . S
N339 Co336 2.121 . S
N339 C341 1.375 . S
N339 C342 1.313 . S
C340 C341 1.338 . S
C340 N343 1.377 . S
C340 H360 0.930 . S
C341 N339 1.375 . S
C341 C340 1.338 . S
C341 H345 0.931 . S
C342 N339 1.313 . S
C342 N343 1.344 . S
C342 H346 0.930 . S
N343 C340 1.377 . S
N343 C342 1.344 . S
O344 Co336 2.055 . S
O344 C348 1.253 . S
H345 C341 0.931 . S
H346 C342 0.930 . S
O347 Co336 2.039 . S
O347 C337 1.265 . S
C348 O344 1.253 . S
C348 O349 1.227 . S
O349 C348 1.227 . S
N350 Co336 2.140 . S
N350 C353 1.346 . S
N350 C354 1.345 . S
C351 C352 1.387 . S
C351 C355 1.391 . S
C352 C351 1.387 . S
C352 C353 1.369 . S
C352 H361 0.929 . S
C353 N350 1.346 . S
C353 C352 1.369 . S
C353 H356 0.928 . S
C354 N350 1.345 . S
C354 C355 1.371 . S
C354 H357 0.931 . S
C355 C351 1.391 . S
C355 C354 1.371 . S
C355 H362 0.930 . S
H356 C353 0.928 . S
H357 C354 0.931 . S
H358 C334 0.930 . S
H359 C331 0.930 . S
H360 C340 0.930 . S
H361 C352 0.929 . S
H362 C355 0.930 . S
C363 C364 1.351 . S
C363 N366 1.368 . S
C363 H368 0.931 . S
C364 C363 1.351 . S
C364 N365 1.373 . S
C364 H392 0.930 . S
N365 C364 1.373 . S
N365 C367 1.340 . S
N366 C363 1.368 . S
N366 C367 1.321 . S
N366 Co369 2.135 . S
C367 N365 1.340 . S
C367 N366 1.321 . S
C367 H391 0.930 . S
H368 C363 0.931 . S
Co369 N366 2.135 . S
Co369 N372 2.121 . S
Co369 O377 2.055 . S
Co369 O380 2.039 . S
Co369 N383 2.140 . S
C370 O371 1.227 . S
C370 O380 1.265 . S
O371 C370 1.227 . S
N372 Co369 2.121 . S
N372 C374 1.375 . S
N372 C375 1.313 . S
C373 C374 1.338 . S
C373 N376 1.377 . S
C373 H393 0.930 . S
C374 N372 1.375 . S
C374 C373 1.338 . S
C374 H378 0.931 . S
C375 N372 1.313 . S
C375 N376 1.344 . S
C375 H379 0.930 . S
N376 C373 1.377 . S
N376 C375 1.344 . S
O377 Co369 2.055 . S
O377 C381 1.253 . S
H378 C374 0.931 . S
H379 C375 0.930 . S
O380 Co369 2.039 . S
O380 C370 1.265 . S
C381 O377 1.253 . S
C381 O382 1.227 . S
O382 C381 1.227 . S
N383 Co369 2.140 . S
N383 C386 1.346 . S
N383 C387 1.345 . S
C384 C385 1.387 . S
C384 C388 1.391 . S
C385 C384 1.387 . S
C385 C386 1.369 . S
C385 H394 0.929 . S
C386 N383 1.346 . S
C386 C385 1.369 . S
C386 H389 0.928 . S
C387 N383 1.345 . S
C387 C388 1.371 . S
C387 H390 0.931 . S
C388 C384 1.391 . S
C388 C387 1.371 . S
C388 H395 0.930 . S
H389 C386 0.928 . S
H390 C387 0.931 . S
H391 C367 0.930 . S
H392 C364 0.930 . S
H393 C373 0.930 . S
H394 C385 0.929 . S
H395 C388 0.930 . S
C396 C397 1.349 . S
C396 C398 1.327 . S
C396 H421 0.950 . S
C397 C396 1.349 . S
C397 C413 1.349 . S
C398 C396 1.327 . S
C398 C417 1.429 . S
C398 H422 0.950 . S
C399 C416 1.574 . S
C399 C418 1.368 . S
C399 H423 0.949 . S
H400 C404 0.949 . S
C401 C402 1.349 . S
C401 C403 1.327 . S
C401 H424 0.950 . S
C402 C401 1.349 . S
C402 C414 1.349 . S
C403 C401 1.327 . S
C403 C419 1.429 . S
C403 H425 0.950 . S
C404 H400 0.949 . S
C404 C412 1.574 . S
C404 C420 1.368 . S
H405 C413 0.950 . S
H406 C411 0.950 . S
H407 C412 0.949 . S
H408 C414 0.950 . S
H409 C415 0.950 . S
H410 C416 0.949 . S
C411 H406 0.950 . S
C411 C413 1.327 . S
C411 C417 1.429 . S
C412 C404 1.574 . S
C412 H407 0.949 . S
C412 C418 1.368 . S
C413 C397 1.349 . S
C413 H405 0.950 . S
C413 C411 1.327 . S
C414 C402 1.349 . S
C414 H408 0.950 . S
C414 C415 1.327 . S
C415 H409 0.950 . S
C415 C414 1.327 . S
C415 C419 1.429 . S
C416 C399 1.574 . S
C416 H410 0.949 . S
C416 C420 1.368 . S
C417 C398 1.429 . S
C417 C411 1.429 . S
C417 C418 1.523 . S
C418 C399 1.368 . S
C418 C412 1.368 . S
C418 C417 1.523 . S
C419 C403 1.429 . S
C419 C415 1.429 . S
C419 C420 1.523 . S
C420 C404 1.368 . S
C420 C416 1.368 . S
C420 C419 1.523 . S
H421 C396 0.950 . S
H422 C398 0.950 . S
H423 C399 0.949 . S
H424 C401 0.950 . S
H425 C403 0.950 . S
C426 C427 1.349 . S
C426 C428 1.327 . S
C426 H451 0.950 . S
C427 C426 1.349 . S
C427 C443 1.349 . S
C428 C426 1.327 . S
C428 C447 1.429 . S
C428 H452 0.950 . S
C429 C446 1.574 . S
C429 C448 1.368 . S
C429 H453 0.949 . S
H430 C434 0.949 . S
C431 C432 1.349 . S
C431 C433 1.327 . S
C431 H454 0.950 . S
C432 C431 1.349 . S
C432 C444 1.349 . S
C433 C431 1.327 . S
C433 C449 1.429 1_655 S
C433 H455 0.950 1_655 S
C434 H430 0.949 . S
C434 C442 1.574 . S
C434 C450 1.368 . S
H435 C443 0.950 . S
H436 C441 0.950 . S
H437 C442 0.949 . S
H438 C444 0.950 . S
H439 C445 0.950 . S
H440 C446 0.949 . S
C441 H436 0.950 . S
C441 C443 1.327 . S
C441 C447 1.429 . S
C442 C434 1.574 . S
C442 H437 0.949 . S
C442 C448 1.368 . S
C443 C427 1.349 . S
C443 H435 0.950 . S
C443 C441 1.327 . S
C444 C432 1.349 . S
C444 H438 0.950 . S
C444 C445 1.327 . S
C445 H439 0.950 . S
C445 C444 1.327 . S
C445 C449 1.429 1_655 S
C446 C429 1.574 . S
C446 H440 0.949 . S
C446 C450 1.368 . S
C447 C428 1.429 . S
C447 C441 1.429 . S
C447 C448 1.523 . S
C448 C429 1.368 . S
C448 C442 1.368 . S
C448 C447 1.523 . S
C449 C433 1.429 1_455 S
C449 C445 1.429 1_455 S
C449 C450 1.523 . S
C450 C434 1.368 . S
C450 C446 1.368 . S
C450 C449 1.523 . S
H451 C426 0.950 . S
H452 C428 0.950 . S
H453 C429 0.949 . S
H454 C431 0.950 . S
H455 C433 0.950 1_455 S
C456 C457 1.349 . S
C456 C458 1.327 . S
C456 H481 0.950 . S
C457 C456 1.349 . S
C457 C473 1.349 . S
C458 C456 1.327 . S
C458 C477 1.429 . S
C458 H482 0.950 . S
C459 C476 1.574 . S
C459 C478 1.368 . S
C459 H483 0.949 . S
H460 C464 0.949 . S
C461 C462 1.349 . S
C461 C463 1.327 . S
C461 H484 0.950 . S
C462 C461 1.349 . S
C462 C474 1.349 . S
C463 C461 1.327 . S
C463 C479 1.429 1_565 S
C463 H485 0.950 . S
C464 H460 0.949 . S
C464 C472 1.574 . S
C464 C480 1.368 . S
H465 C473 0.950 . S
H466 C471 0.950 . S
H467 C472 0.949 . S
H468 C474 0.950 . S
H469 C475 0.950 . S
H470 C476 0.949 . S
C471 H466 0.950 . S
C471 C473 1.327 . S
C471 C477 1.429 . S
C472 C464 1.574 . S
C472 H467 0.949 . S
C472 C478 1.368 . S
C473 C457 1.349 . S
C473 H465 0.950 . S
C473 C471 1.327 . S
C474 C462 1.349 . S
C474 H468 0.950 . S
C474 C475 1.327 1_565 S
C475 H469 0.950 . S
C475 C474 1.327 1_545 S
C475 C479 1.429 . S
C476 C459 1.574 . S
C476 H470 0.949 . S
C476 C480 1.368 . S
C477 C458 1.429 . S
C477 C471 1.429 . S
C477 C478 1.523 . S
C478 C459 1.368 . S
C478 C472 1.368 . S
C478 C477 1.523 . S
C479 C463 1.429 1_545 S
C479 C475 1.429 . S
C479 C480 1.523 . S
C480 C464 1.368 . S
C480 C476 1.368 . S
C480 C479 1.523 . S
H481 C456 0.950 . S
H482 C458 0.950 . S
H483 C459 0.949 . S
H484 C461 0.950 . S
H485 C463 0.950 . S
C486 C487 1.349 . S
C486 C488 1.327 . S
C486 H511 0.950 . S
C487 C486 1.349 . S
C487 C503 1.349 . S
C488 C486 1.327 . S
C488 C507 1.429 . S
C488 H512 0.950 . S
C489 C506 1.574 . S
C489 C508 1.368 . S
C489 H513 0.949 . S
H490 C494 0.949 . S
C491 C492 1.349 . S
C491 C493 1.327 . S
C491 H514 0.950 . S
C492 C491 1.349 . S
C492 C504 1.349 . S
C493 C491 1.327 . S
C493 C509 1.429 . S
C493 H515 0.950 . S
C494 H490 0.949 . S
C494 C502 1.574 . S
C494 C510 1.368 . S
H495 C503 0.950 . S
H496 C501 0.950 . S
H497 C502 0.949 . S
H498 C504 0.950 . S
H499 C505 0.950 . S
H500 C506 0.949 . S
C501 H496 0.950 . S
C501 C503 1.327 . S
C501 C507 1.429 . S
C502 C494 1.574 . S
C502 H497 0.949 . S
C502 C508 1.368 . S
C503 C487 1.349 . S
C503 H495 0.950 . S
C503 C501 1.327 . S
C504 C492 1.349 . S
C504 H498 0.950 . S
C504 C505 1.327 . S
C505 H499 0.950 . S
C505 C504 1.327 . S
C505 C509 1.429 . S
C506 C489 1.574 . S
C506 H500 0.949 . S
C506 C510 1.368 . S
C507 C488 1.429 . S
C507 C501 1.429 . S
C507 C508 1.523 . S
C508 C489 1.368 . S
C508 C502 1.368 . S
C508 C507 1.523 . S
C509 C493 1.429 . S
C509 C505 1.429 . S
C509 C510 1.523 . S
C510 C494 1.368 . S
C510 C506 1.368 . S
C510 C509 1.523 . S
H511 C486 0.950 . S
H512 C488 0.950 . S
H513 C489 0.949 . S
H514 C491 0.950 . S
H515 C493 0.950 . S
C516 C517 1.349 . S
C516 C518 1.327 . S
C516 H541 0.950 . S
C517 C516 1.349 . S
C517 C533 1.349 . S
C518 C516 1.327 . S
C518 C537 1.429 1_455 S
C518 H542 0.950 . S
C519 C536 1.574 . S
C519 C538 1.368 . S
C519 H543 0.949 . S
H520 C524 0.949 . S
C521 C522 1.349 . S
C521 C523 1.327 . S
C521 H544 0.950 . S
C522 C521 1.349 . S
C522 C534 1.349 . S
C523 C521 1.327 . S
C523 C539 1.429 . S
C523 H545 0.950 . S
C524 H520 0.949 . S
C524 C532 1.574 . S
C524 C540 1.368 . S
H525 C533 0.950 . S
H526 C531 0.950 . S
H527 C532 0.949 . S
H528 C534 0.950 . S
H529 C535 0.950 . S
H530 C536 0.949 . S
C531 H526 0.950 . S
C531 C533 1.327 1_655 S
C531 C537 1.429 . S
C532 C524 1.574 . S
C532 H527 0.949 . S
C532 C538 1.368 . S
C533 C517 1.349 . S
C533 H525 0.950 . S
C533 C531 1.327 1_455 S
C534 C522 1.349 . S
C534 H528 0.950 . S
C534 C535 1.327 . S
C535 H529 0.950 . S
C535 C534 1.327 . S
C535 C539 1.429 . S
C536 C519 1.574 . S
C536 H530 0.949 . S
C536 C540 1.368 . S
C537 C518 1.429 1_655 S
C537 C531 1.429 . S
C537 C538 1.523 . S
C538 C519 1.368 . S
C538 C532 1.368 . S
C538 C537 1.523 . S
C539 C523 1.429 . S
C539 C535 1.429 . S
C539 C540 1.523 . S
C540 C524 1.368 . S
C540 C536 1.368 . S
C540 C539 1.523 . S
H541 C516 0.950 . S
H542 C518 0.950 . S
H543 C519 0.949 . S
H544 C521 0.950 . S
H545 C523 0.950 . S
C546 C547 1.349 . S
C546 C548 1.327 . S
C546 H571 0.950 . S
C547 C546 1.349 . S
C547 C563 1.349 . S
C548 C546 1.327 . S
C548 C567 1.429 . S
C548 H572 0.950 . S
C549 C566 1.574 . S
C549 C568 1.368 . S
C549 H573 0.949 . S
H550 C554 0.949 . S
C551 C552 1.349 . S
C551 C553 1.327 . S
C551 H574 0.950 . S
C552 C551 1.349 . S
C552 C564 1.349 . S
C553 C551 1.327 . S
C553 C569 1.429 1_545 S
C553 H575 0.950 . S
C554 H550 0.949 . S
C554 C562 1.574 . S
C554 C570 1.368 . S
H555 C563 0.950 . S
H556 C561 0.950 . S
H557 C562 0.949 . S
H558 C564 0.950 . S
H559 C565 0.950 . S
H560 C566 0.949 . S
C561 H556 0.950 . S
C561 C563 1.327 . S
C561 C567 1.429 . S
C562 C554 1.574 . S
C562 H557 0.949 . S
C562 C568 1.368 . S
C563 C547 1.349 . S
C563 H555 0.950 . S
C563 C561 1.327 . S
C564 C552 1.349 . S
C564 H558 0.950 . S
C564 C565 1.327 1_545 S
C565 H559 0.950 . S
C565 C564 1.327 1_565 S
C565 C569 1.429 . S
C566 C549 1.574 . S
C566 H560 0.949 . S
C566 C570 1.368 . S
C567 C548 1.429 . S
C567 C561 1.429 . S
C567 C568 1.523 . S
C568 C549 1.368 . S
C568 C562 1.368 . S
C568 C567 1.523 . S
C569 C553 1.429 1_565 S
C569 C565 1.429 . S
C569 C570 1.523 . S
C570 C554 1.368 . S
C570 C566 1.368 . S
C570 C569 1.523 . S
H571 C546 0.950 . S
H572 C548 0.950 . S
H573 C549 0.949 . S
H574 C551 0.950 . S
H575 C553 0.950 . S
C576 C577 1.349 . S
C576 C578 1.327 . S
C576 H601 0.950 . S
C577 C576 1.349 . S
C577 C593 1.349 . S
C578 C576 1.327 . S
C578 C597 1.429 . S
C578 H602 0.950 . S
C579 C596 1.574 . S
C579 C598 1.368 . S
C579 H603 0.949 . S
H580 C584 0.949 . S
C581 C582 1.349 . S
C581 C583 1.327 . S
C581 H604 0.950 . S
C582 C581 1.349 . S
C582 C594 1.349 . S
C583 C581 1.327 . S
C583 C599 1.429 . S
C583 H605 0.950 . S
C584 H580 0.949 . S
C584 C592 1.574 . S
C584 C600 1.368 . S
H585 C593 0.950 . S
H586 C591 0.950 . S
H587 C592 0.949 . S
H588 C594 0.950 . S
H589 C595 0.950 . S
H590 C596 0.949 . S
C591 H586 0.950 . S
C591 C593 1.327 . S
C591 C597 1.429 . S
C592 C584 1.574 . S
C592 H587 0.949 . S
C592 C598 1.368 . S
C593 C577 1.349 . S
C593 H585 0.950 . S
C593 C591 1.327 . S
C594 C582 1.349 . S
C594 H588 0.950 . S
C594 C595 1.327 . S
C595 H589 0.950 . S
C595 C594 1.327 . S
C595 C599 1.429 . S
C596 C579 1.574 . S
C596 H590 0.949 . S
C596 C600 1.368 . S
C597 C578 1.429 . S
C597 C591 1.429 . S
C597 C598 1.523 . S
C598 C579 1.368 . S
C598 C592 1.368 . S
C598 C597 1.523 . S
C599 C583 1.429 . S
C599 C595 1.429 . S
C599 C600 1.523 . S
C600 C584 1.368 . S
C600 C596 1.368 . S
C600 C599 1.523 . S
H601 C576 0.950 . S
H602 C578 0.950 . S
H603 C579 0.949 . S
H604 C581 0.950 . S
H605 C583 0.950 . S
C606 C607 1.349 . S
C606 C608 1.327 . S
C606 H631 0.950 . S
C607 C606 1.349 . S
C607 C623 1.349 . S
C608 C606 1.327 . S
C608 C627 1.429 . S
C608 H632 0.950 . S
C609 C626 1.574 . S
C609 C628 1.368 . S
C609 H633 0.949 . S
H610 C614 0.949 . S
C611 C612 1.349 . S
C611 C613 1.327 . S
C611 H634 0.950 . S
C612 C611 1.349 . S
C612 C624 1.349 . S
C613 C611 1.327 . S
C613 C629 1.429 1_655 S
C613 H635 0.950 . S
C614 H610 0.949 . S
C614 C622 1.574 . S
C614 C630 1.368 . S
H615 C623 0.950 . S
H616 C621 0.950 . S
H617 C622 0.949 . S
H618 C624 0.950 . S
H619 C625 0.950 1_455 S
H620 C626 0.949 . S
C621 H616 0.950 . S
C621 C623 1.327 . S
C621 C627 1.429 . S
C622 C614 1.574 . S
C622 H617 0.949 . S
C622 C628 1.368 . S
C623 C607 1.349 . S
C623 H615 0.950 . S
C623 C621 1.327 . S
C624 C612 1.349 . S
C624 H618 0.950 . S
C624 C625 1.327 . S
C625 H619 0.950 1_655 S
C625 C624 1.327 . S
C625 C629 1.429 1_655 S
C626 C609 1.574 . S
C626 H620 0.949 . S
C626 C630 1.368 . S
C627 C608 1.429 . S
C627 C621 1.429 . S
C627 C628 1.523 . S
C628 C609 1.368 . S
C628 C622 1.368 . S
C628 C627 1.523 . S
C629 C613 1.429 1_455 S
C629 C625 1.429 1_455 S
C629 C630 1.523 . S
C630 C614 1.368 . S
C630 C626 1.368 . S
C630 C629 1.523 . S
H631 C606 0.950 . S
H632 C608 0.950 . S
H633 C609 0.949 . S
H634 C611 0.950 . S
H635 C613 0.950 . S
C636 C637 1.349 . S
C636 C638 1.327 . S
C636 H661 0.950 . S
C637 C636 1.349 . S
C637 C653 1.349 . S
C638 C636 1.327 . S
C638 C657 1.429 . S
C638 H662 0.950 . S
C639 C656 1.574 . S
C639 C658 1.368 . S
C639 H663 0.949 . S
H640 C644 0.949 . S
C641 C642 1.349 . S
C641 C643 1.327 . S
C641 H664 0.950 . S
C642 C641 1.349 . S
C642 C654 1.349 . S
C643 C641 1.327 . S
C643 C659 1.429 1_565 S
C643 H665 0.950 1_565 S
C644 H640 0.949 . S
C644 C652 1.574 . S
C644 C660 1.368 . S
H645 C653 0.950 . S
H646 C651 0.950 . S
H647 C652 0.949 . S
H648 C654 0.950 . S
H649 C655 0.950 . S
H650 C656 0.949 . S
C651 H646 0.950 . S
C651 C653 1.327 . S
C651 C657 1.429 . S
C652 C644 1.574 . S
C652 H647 0.949 . S
C652 C658 1.368 . S
C653 C637 1.349 . S
C653 H645 0.950 . S
C653 C651 1.327 . S
C654 C642 1.349 . S
C654 H648 0.950 . S
C654 C655 1.327 . S
C655 H649 0.950 . S
C655 C654 1.327 . S
C655 C659 1.429 1_565 S
C656 C639 1.574 . S
C656 H650 0.949 . S
C656 C660 1.368 . S
C657 C638 1.429 . S
C657 C651 1.429 . S
C657 C658 1.523 . S
C658 C639 1.368 . S
C658 C652 1.368 . S
C658 C657 1.523 . S
C659 C643 1.429 1_545 S
C659 C655 1.429 1_545 S
C659 C660 1.523 . S
C660 C644 1.368 . S
C660 C656 1.368 . S
C660 C659 1.523 . S
H661 C636 0.950 . S
H662 C638 0.950 . S
H663 C639 0.949 . S
H664 C641 0.950 . S
H665 C643 0.950 1_545 S
C666 C667 1.349 . S
C666 C668 1.327 . S
C666 H691 0.950 . S
C667 C666 1.349 . S
C667 C683 1.349 . S
C668 C666 1.327 . S
C668 C687 1.429 . S
C668 H692 0.950 . S
C669 C686 1.574 . S
C669 C688 1.368 . S
C669 H693 0.949 . S
H670 C674 0.949 . S
C671 C672 1.349 . S
C671 C673 1.327 . S
C671 H694 0.950 . S
C672 C671 1.349 . S
C672 C684 1.349 . S
C673 C671 1.327 . S
C673 C689 1.429 . S
C673 H695 0.950 . S
C674 H670 0.949 . S
C674 C682 1.574 . S
C674 C690 1.368 . S
H675 C683 0.950 . S
H676 C681 0.950 . S
H677 C682 0.949 . S
H678 C684 0.950 . S
H679 C685 0.950 . S
H680 C686 0.949 . S
C681 H676 0.950 . S
C681 C683 1.327 . S
C681 C687 1.429 . S
C682 C674 1.574 . S
C682 H677 0.949 . S
C682 C688 1.368 . S
C683 C667 1.349 . S
C683 H675 0.950 . S
C683 C681 1.327 . S
C684 C672 1.349 . S
C684 H678 0.950 . S
C684 C685 1.327 . S
C685 H679 0.950 . S
C685 C684 1.327 . S
C685 C689 1.429 . S
C686 C669 1.574 . S
C686 H680 0.949 . S
C686 C690 1.368 . S
C687 C668 1.429 . S
C687 C681 1.429 . S
C687 C688 1.523 . S
C688 C669 1.368 . S
C688 C682 1.368 . S
C688 C687 1.523 . S
C689 C673 1.429 . S
C689 C685 1.429 . S
C689 C690 1.523 . S
C690 C674 1.368 . S
C690 C686 1.368 . S
C690 C689 1.523 . S
H691 C666 0.950 . S
H692 C668 0.950 . S
H693 C669 0.949 . S
H694 C671 0.950 . S
H695 C673 0.950 . S
C696 C697 1.349 . S
C696 C698 1.327 . S
C696 H721 0.950 . S
C697 C696 1.349 . S
C697 C713 1.349 . S
C698 C696 1.327 . S
C698 C717 1.429 . S
C698 H722 0.950 . S
C699 C716 1.574 . S
C699 C718 1.368 . S
C699 H723 0.949 . S
H700 C704 0.949 . S
C701 C702 1.349 . S
C701 C703 1.327 . S
C701 H724 0.950 . S
C702 C701 1.349 . S
C702 C714 1.349 . S
C703 C701 1.327 . S
C703 C719 1.429 1_455 S
C703 H725 0.950 . S
C704 H700 0.949 . S
C704 C712 1.574 . S
C704 C720 1.368 . S
H705 C713 0.950 . S
H706 C711 0.950 . S
H707 C712 0.949 . S
H708 C714 0.950 . S
H709 C715 0.950 . S
H710 C716 0.949 . S
C711 H706 0.950 . S
C711 C713 1.327 . S
C711 C717 1.429 . S
C712 C704 1.574 . S
C712 H707 0.949 . S
C712 C718 1.368 . S
C713 C697 1.349 . S
C713 H705 0.950 . S
C713 C711 1.327 . S
C714 C702 1.349 . S
C714 H708 0.950 . S
C714 C715 1.327 1_455 S
C715 H709 0.950 . S
C715 C714 1.327 1_655 S
C715 C719 1.429 . S
C716 C699 1.574 . S
C716 H710 0.949 . S
C716 C720 1.368 . S
C717 C698 1.429 . S
C717 C711 1.429 . S
C717 C718 1.523 . S
C718 C699 1.368 . S
C718 C712 1.368 . S
C718 C717 1.523 . S
C719 C703 1.429 1_655 S
C719 C715 1.429 . S
C719 C720 1.523 . S
C720 C704 1.368 . S
C720 C716 1.368 . S
C720 C719 1.523 . S
H721 C696 0.950 . S
H722 C698 0.950 . S
H723 C699 0.949 . S
H724 C701 0.950 . S
H725 C703 0.950 . S
C726 C727 1.349 . S
C726 C728 1.327 . S
C726 H751 0.950 . S
C727 C726 1.349 . S
C727 C743 1.349 . S
C728 C726 1.327 . S
C728 C747 1.429 . S
C728 H752 0.950 . S
C729 C746 1.574 . S
C729 C748 1.368 . S
C729 H753 0.949 . S
H730 C734 0.949 . S
C731 C732 1.349 . S
C731 C733 1.327 1_545 S
C731 H754 0.950 . S
C732 C731 1.349 . S
C732 C744 1.349 . S
C733 C731 1.327 1_565 S
C733 C749 1.429 . S
C733 H755 0.950 . S
C734 H730 0.949 . S
C734 C742 1.574 . S
C734 C750 1.368 . S
H735 C743 0.950 . S
H736 C741 0.950 . S
H737 C742 0.949 . S
H738 C744 0.950 . S
H739 C745 0.950 . S
H740 C746 0.949 . S
C741 H736 0.950 . S
C741 C743 1.327 . S
C741 C747 1.429 . S
C742 C734 1.574 . S
C742 H737 0.949 . S
C742 C748 1.368 . S
C743 C727 1.349 . S
C743 H735 0.950 . S
C743 C741 1.327 . S
C744 C732 1.349 . S
C744 H738 0.950 . S
C744 C745 1.327 . S
C745 H739 0.950 . S
C745 C744 1.327 . S
C745 C749 1.429 1_545 S
C746 C729 1.574 . S
C746 H740 0.949 . S
C746 C750 1.368 . S
C747 C728 1.429 . S
C747 C741 1.429 . S
C747 C748 1.523 . S
C748 C729 1.368 . S
C748 C742 1.368 . S
C748 C747 1.523 . S
C749 C733 1.429 . S
C749 C745 1.429 1_565 S
C749 C750 1.523 . S
C750 C734 1.368 . S
C750 C746 1.368 . S
C750 C749 1.523 . S
H751 C726 0.950 . S
H752 C728 0.950 . S
H753 C729 0.949 . S
H754 C731 0.950 . S
H755 C733 0.950 . S
C756 C757 1.349 . S
C756 C758 1.327 . S
C756 H781 0.950 . S
C757 C756 1.349 . S
C757 C773 1.349 . S
C758 C756 1.327 . S
C758 C777 1.429 . S
C758 H782 0.950 . S
C759 C776 1.574 . S
C759 C778 1.368 . S
C759 H783 0.949 . S
H760 C764 0.949 . S
C761 C762 1.349 . S
C761 C763 1.327 . S
C761 H784 0.950 . S
C762 C761 1.349 . S
C762 C774 1.349 . S
C763 C761 1.327 . S
C763 C779 1.429 . S
C763 H785 0.950 . S
C764 H760 0.949 . S
C764 C772 1.574 . S
C764 C780 1.368 . S
H765 C773 0.950 . S
H766 C771 0.950 . S
H767 C772 0.949 . S
H768 C774 0.950 . S
H769 C775 0.950 . S
H770 C776 0.949 . S
C771 H766 0.950 . S
C771 C773 1.327 . S
C771 C777 1.429 . S
C772 C764 1.574 . S
C772 H767 0.949 . S
C772 C778 1.368 . S
C773 C757 1.349 . S
C773 H765 0.950 . S
C773 C771 1.327 . S
C774 C762 1.349 . S
C774 H768 0.950 . S
C774 C775 1.327 . S
C775 H769 0.950 . S
C775 C774 1.327 . S
C775 C779 1.429 . S
C776 C759 1.574 . S
C776 H770 0.949 . S
C776 C780 1.368 . S
C777 C758 1.429 . S
C777 C771 1.429 . S
C777 C778 1.523 . S
C778 C759 1.368 . S
C778 C772 1.368 . S
C778 C777 1.523 . S
C779 C763 1.429 . S
C779 C775 1.429 . S
C779 C780 1.523 . S
C780 C764 1.368 . S
C780 C776 1.368 . S
C780 C779 1.523 . S
H781 C756 0.950 . S
H782 C758 0.950 . S
H783 C759 0.949 . S
H784 C761 0.950 . S
H785 C763 0.950 . S
C786 C787 1.349 . S
C786 C788 1.327 . S
C786 H811 0.950 . S
C787 C786 1.349 . S
C787 C803 1.349 . S
C788 C786 1.327 . S
C788 C807 1.429 . S
C788 H812 0.950 . S
C789 C806 1.574 . S
C789 C808 1.368 . S
C789 H813 0.949 . S
H790 C794 0.949 . S
C791 C792 1.349 . S
C791 C793 1.327 . S
C791 H814 0.950 . S
C792 C791 1.349 . S
C792 C804 1.349 . S
C793 C791 1.327 . S
C793 C809 1.429 . S
C793 H815 0.950 . S
C794 H790 0.949 . S
C794 C802 1.574 . S
C794 C810 1.368 . S
H795 C803 0.950 . S
H796 C801 0.950 . S
H797 C802 0.949 . S
H798 C804 0.950 . S
H799 C805 0.950 . S
H800 C806 0.949 . S
C801 H796 0.950 . S
C801 C803 1.327 . S
C801 C807 1.429 . S
C802 C794 1.574 . S
C802 H797 0.949 . S
C802 C808 1.368 . S
C803 C787 1.349 . S
C803 H795 0.950 . S
C803 C801 1.327 . S
C804 C792 1.349 . S
C804 H798 0.950 . S
C804 C805 1.327 . S
C805 H799 0.950 . S
C805 C804 1.327 . S
C805 C809 1.429 . S
C806 C789 1.574 . S
C806 H800 0.949 . S
C806 C810 1.368 . S
C807 C788 1.429 . S
C807 C801 1.429 . S
C807 C808 1.523 . S
C808 C789 1.368 . S
C808 C802 1.368 . S
C808 C807 1.523 . S
C809 C793 1.429 . S
C809 C805 1.429 . S
C809 C810 1.523 . S
C810 C794 1.368 . S
C810 C806 1.368 . S
C810 C809 1.523 . S
H811 C786 0.950 . S
H812 C788 0.950 . S
H813 C789 0.949 . S
H814 C791 0.950 . S
H815 C793 0.950 . S
C816 C817 1.349 . S
C816 C818 1.327 . S
C816 H841 0.950 . S
C817 C816 1.349 . S
C817 C833 1.349 . S
C818 C816 1.327 . S
C818 C837 1.429 . S
C818 H842 0.950 . S
C819 C836 1.574 . S
C819 C838 1.368 . S
C819 H843 0.949 . S
H820 C824 0.949 . S
C821 C822 1.349 . S
C821 C823 1.327 . S
C821 H844 0.950 . S
C822 C821 1.349 . S
C822 C834 1.349 . S
C823 C821 1.327 . S
C823 C839 1.429 . S
C823 H845 0.950 . S
C824 H820 0.949 . S
C824 C832 1.574 . S
C824 C840 1.368 . S
H825 C833 0.950 . S
H826 C831 0.950 . S
H827 C832 0.949 . S
H828 C834 0.950 . S
H829 C835 0.950 . S
H830 C836 0.949 . S
C831 H826 0.950 . S
C831 C833 1.327 . S
C831 C837 1.429 . S
C832 C824 1.574 . S
C832 H827 0.949 . S
C832 C838 1.368 . S
C833 C817 1.349 . S
C833 H825 0.950 . S
C833 C831 1.327 . S
C834 C822 1.349 . S
C834 H828 0.950 . S
C834 C835 1.327 . S
C835 H829 0.950 . S
C835 C834 1.327 . S
C835 C839 1.429 . S
C836 C819 1.574 . S
C836 H830 0.949 . S
C836 C840 1.368 . S
C837 C818 1.429 . S
C837 C831 1.429 . S
C837 C838 1.523 . S
C838 C819 1.368 . S
C838 C832 1.368 . S
C838 C837 1.523 . S
C839 C823 1.429 . S
C839 C835 1.429 . S
C839 C840 1.523 . S
C840 C824 1.368 . S
C840 C836 1.368 . S
C840 C839 1.523 . S
H841 C816 0.950 . S
H842 C818 0.950 . S
H843 C819 0.949 . S
H844 C821 0.950 . S
H845 C823 0.950 . S
C846 C847 1.349 . S
C846 C848 1.327 . S
C846 H871 0.950 . S
C847 C846 1.349 . S
C847 C863 1.349 . S
C848 C846 1.327 . S
C848 C867 1.429 . S
C848 H872 0.950 . S
C849 C866 1.574 . S
C849 C868 1.368 . S
C849 H873 0.949 . S
H850 C854 0.949 . S
C851 C852 1.349 . S
C851 C853 1.327 . S
C851 H874 0.950 . S
C852 C851 1.349 . S
C852 C864 1.349 . S
C853 C851 1.327 . S
C853 C869 1.429 . S
C853 H875 0.950 . S
C854 H850 0.949 . S
C854 C862 1.574 . S
C854 C870 1.368 . S
H855 C863 0.950 . S
H856 C861 0.950 . S
H857 C862 0.949 . S
H858 C864 0.950 . S
H859 C865 0.950 . S
H860 C866 0.949 . S
C861 H856 0.950 . S
C861 C863 1.327 . S
C861 C867 1.429 . S
C862 C854 1.574 . S
C862 H857 0.949 . S
C862 C868 1.368 . S
C863 C847 1.349 . S
C863 H855 0.950 . S
C863 C861 1.327 . S
C864 C852 1.349 . S
C864 H858 0.950 . S
C864 C865 1.327 . S
C865 H859 0.950 . S
C865 C864 1.327 . S
C865 C869 1.429 . S
C866 C849 1.574 . S
C866 H860 0.949 . S
C866 C870 1.368 . S
C867 C848 1.429 . S
C867 C861 1.429 . S
C867 C868 1.523 . S
C868 C849 1.368 . S
C868 C862 1.368 . S
C868 C867 1.523 . S
C869 C853 1.429 . S
C869 C865 1.429 . S
C869 C870 1.523 . S
C870 C854 1.368 . S
C870 C866 1.368 . S
C870 C869 1.523 . S
H871 C846 0.950 . S
H872 C848 0.950 . S
H873 C849 0.949 . S
H874 C851 0.950 . S
H875 C853 0.950 . S
C876 C877 1.349 . S
C876 C878 1.327 . S
C876 H901 0.950 . S
C877 C876 1.349 . S
C877 C893 1.349 . S
C878 C876 1.327 . S
C878 C897 1.429 . S
C878 H902 0.950 . S
C879 C896 1.574 . S
C879 C898 1.368 . S
C879 H903 0.949 . S
H880 C884 0.949 . S
C881 C882 1.349 . S
C881 C883 1.327 . S
C881 H904 0.950 . S
C882 C881 1.349 . S
C882 C894 1.349 . S
C883 C881 1.327 . S
C883 C899 1.429 . S
C883 H905 0.950 . S
C884 H880 0.949 . S
C884 C892 1.574 . S
C884 C900 1.368 . S
H885 C893 0.950 . S
H886 C891 0.950 . S
H887 C892 0.949 . S
H888 C894 0.950 . S
H889 C895 0.950 . S
H890 C896 0.949 . S
C891 H886 0.950 . S
C891 C893 1.327 . S
C891 C897 1.429 . S
C892 C884 1.574 . S
C892 H887 0.949 . S
C892 C898 1.368 . S
C893 C877 1.349 . S
C893 H885 0.950 . S
C893 C891 1.327 . S
C894 C882 1.349 . S
C894 H888 0.950 . S
C894 C895 1.327 . S
C895 H889 0.950 . S
C895 C894 1.327 . S
C895 C899 1.429 . S
C896 C879 1.574 . S
C896 H890 0.949 . S
C896 C900 1.368 . S
C897 C878 1.429 . S
C897 C891 1.429 . S
C897 C898 1.523 . S
C898 C879 1.368 . S
C898 C892 1.368 . S
C898 C897 1.523 . S
C899 C883 1.429 . S
C899 C895 1.429 . S
C899 C900 1.523 . S
C900 C884 1.368 . S
C900 C896 1.368 . S
C900 C899 1.523 . S
H901 C876 0.950 . S
H902 C878 0.950 . S
H903 C879 0.949 . S
H904 C881 0.950 . S
H905 C883 0.950 . S
C906 C907 1.349 . S
C906 C908 1.327 . S
C906 H931 0.950 . S
C907 C906 1.349 . S
C907 C923 1.349 . S
C908 C906 1.327 . S
C908 C927 1.429 . S
C908 H932 0.950 . S
C909 C926 1.574 . S
C909 C928 1.368 . S
C909 H933 0.949 . S
H910 C914 0.949 . S
C911 C912 1.349 . S
C911 C913 1.327 . S
C911 H934 0.950 . S
C912 C911 1.349 . S
C912 C924 1.349 . S
C913 C911 1.327 . S
C913 C929 1.429 . S
C913 H935 0.950 . S
C914 H910 0.949 . S
C914 C922 1.574 . S
C914 C930 1.368 . S
H915 C923 0.950 . S
H916 C921 0.950 . S
H917 C922 0.949 . S
H918 C924 0.950 . S
H919 C925 0.950 . S
H920 C926 0.949 . S
C921 H916 0.950 . S
C921 C923 1.327 . S
C921 C927 1.429 . S
C922 C914 1.574 . S
C922 H917 0.949 . S
C922 C928 1.368 . S
C923 C907 1.349 . S
C923 H915 0.950 . S
C923 C921 1.327 . S
C924 C912 1.349 . S
C924 H918 0.950 . S
C924 C925 1.327 . S
C925 H919 0.950 . S
C925 C924 1.327 . S
C925 C929 1.429 . S
C926 C909 1.574 . S
C926 H920 0.949 . S
C926 C930 1.368 . S
C927 C908 1.429 . S
C927 C921 1.429 . S
C927 C928 1.523 . S
C928 C909 1.368 . S
C928 C922 1.368 . S
C928 C927 1.523 . S
C929 C913 1.429 . S
C929 C925 1.429 . S
C929 C930 1.523 . S
C930 C914 1.368 . S
C930 C926 1.368 . S
C930 C929 1.523 . S
H931 C906 0.950 . S
H932 C908 0.950 . S
H933 C909 0.949 . S
H934 C911 0.950 . S
H935 C913 0.950 . S
C936 C937 1.349 . S
C936 C938 1.327 . S
C936 H961 0.950 . S
C937 C936 1.349 . S
C937 C953 1.349 . S
C938 C936 1.327 . S
C938 C957 1.429 . S
C938 H962 0.950 . S
C939 C956 1.574 . S
C939 C958 1.368 . S
C939 H963 0.949 . S
H940 C944 0.949 . S
C941 C942 1.349 . S
C941 C943 1.327 . S
C941 H964 0.950 . S
C942 C941 1.349 . S
C942 C954 1.349 . S
C943 C941 1.327 . S
C943 C959 1.429 . S
C943 H965 0.950 . S
C944 H940 0.949 . S
C944 C952 1.574 . S
C944 C960 1.368 . S
H945 C953 0.950 . S
H946 C951 0.950 . S
H947 C952 0.949 . S
H948 C954 0.950 . S
H949 C955 0.950 . S
H950 C956 0.949 . S
C951 H946 0.950 . S
C951 C953 1.327 . S
C951 C957 1.429 . S
C952 C944 1.574 . S
C952 H947 0.949 . S
C952 C958 1.368 . S
C953 C937 1.349 . S
C953 H945 0.950 . S
C953 C951 1.327 . S
C954 C942 1.349 . S
C954 H948 0.950 . S
C954 C955 1.327 . S
C955 H949 0.950 . S
C955 C954 1.327 . S
C955 C959 1.429 . S
C956 C939 1.574 . S
C956 H950 0.949 . S
C956 C960 1.368 . S
C957 C938 1.429 . S
C957 C951 1.429 . S
C957 C958 1.523 . S
C958 C939 1.368 . S
C958 C952 1.368 . S
C958 C957 1.523 . S
C959 C943 1.429 . S
C959 C955 1.429 . S
C959 C960 1.523 . S
C960 C944 1.368 . S
C960 C956 1.368 . S
C960 C959 1.523 . S
H961 C936 0.950 . S
H962 C938 0.950 . S
H963 C939 0.949 . S
H964 C941 0.950 . S
H965 C943 0.950 . S
C966 C967 1.349 . S
C966 C968 1.327 . S
C966 H991 0.950 . S
C967 C966 1.349 . S
C967 C983 1.349 . S
C968 C966 1.327 . S
C968 C987 1.429 . S
C968 H992 0.950 . S
C969 C986 1.574 . S
C969 C988 1.368 . S
C969 H993 0.949 . S
H970 C974 0.949 . S
C971 C972 1.349 . S
C971 C973 1.327 . S
C971 H994 0.950 . S
C972 C971 1.349 . S
C972 C984 1.349 . S
C973 C971 1.327 . S
C973 C989 1.429 . S
C973 H995 0.950 . S
C974 H970 0.949 . S
C974 C982 1.574 . S
C974 C990 1.368 . S
H975 C983 0.950 . S
H976 C981 0.950 . S
H977 C982 0.949 . S
H978 C984 0.950 . S
H979 C985 0.950 . S
H980 C986 0.949 . S
C981 H976 0.950 . S
C981 C983 1.327 . S
C981 C987 1.429 . S
C982 C974 1.574 . S
C982 H977 0.949 . S
C982 C988 1.368 1_655 S
C983 C967 1.349 . S
C983 H975 0.950 . S
C983 C981 1.327 . S
C984 C972 1.349 . S
C984 H978 0.950 . S
C984 C985 1.327 . S
C985 H979 0.950 . S
C985 C984 1.327 . S
C985 C989 1.429 . S
C986 C969 1.574 . S
C986 H980 0.949 . S
C986 C990 1.368 1_455 S
C987 C968 1.429 . S
C987 C981 1.429 . S
C987 C988 1.523 . S
C988 C969 1.368 . S
C988 C982 1.368 1_455 S
C988 C987 1.523 . S
C989 C973 1.429 . S
C989 C985 1.429 . S
C989 C990 1.523 . S
C990 C974 1.368 . S
C990 C986 1.368 1_655 S
C990 C989 1.523 . S
H991 C966 0.950 . S
H992 C968 0.950 . S
H993 C969 0.949 . S
H994 C971 0.950 . S
H995 C973 0.950 . S
C996 C997 1.349 . S
C996 C998 1.327 . S
C996 H1021 0.950 . S
C997 C996 1.349 . S
C997 C1013 1.349 . S
C998 C996 1.327 . S
C998 C1017 1.429 . S
C998 H1022 0.950 . S
C999 C1016 1.574 . S
C999 C1018 1.368 1_545 S
C999 H1023 0.949 . S
H1000 C1004 0.949 . S
C1001 C1002 1.349 . S
C1001 C1003 1.327 . S
C1001 H1024 0.950 . S
C1002 C1001 1.349 . S
C1002 C1014 1.349 . S
C1003 C1001 1.327 . S
C1003 C1019 1.429 . S
C1003 H1025 0.950 . S
C1004 H1000 0.949 . S
C1004 C1012 1.574 . S
C1004 C1020 1.368 1_565 S
H1005 C1013 0.950 . S
H1006 C1011 0.959 . S
H1007 C1012 0.949 . S
H1008 C1014 0.950 . S
H1009 C1015 0.959 . S
H1010 C1016 0.949 . S
C1011 H1006 0.959 . S
C1011 C1013 1.327 . S
C1011 C1017 1.429 . S
C1012 C1004 1.574 . S
C1012 H1007 0.949 . S
C1012 C1018 1.368 . S
C1013 C997 1.349 . S
C1013 H1005 0.950 . S
C1013 C1011 1.327 . S
C1014 C1002 1.349 . S
C1014 H1008 0.950 . S
C1014 C1015 1.327 . S
C1015 H1009 0.959 . S
C1015 C1014 1.327 . S
C1015 C1019 1.429 . S
C1016 C999 1.574 . S
C1016 H1010 0.949 . S
C1016 C1020 1.368 . S
C1017 C998 1.429 . S
C1017 C1011 1.429 . S
C1017 C1018 1.523 . S
C1018 C999 1.368 1_565 S
C1018 C1012 1.368 . S
C1018 C1017 1.523 . S
C1019 C1003 1.429 . S
C1019 C1015 1.429 . S
C1019 C1020 1.523 . S
C1020 C1004 1.368 1_545 S
C1020 C1016 1.368 . S
C1020 C1019 1.523 . S
H1021 C996 0.950 . S
H1022 C998 0.950 . S
H1023 C999 0.949 . S
H1024 C1001 0.950 . S
H1025 C1003 0.950 . S
C1026 C1027 1.349 . S
C1026 C1028 1.327 . S
C1026 H1051 0.950 . S
C1027 C1026 1.349 . S
C1027 C1043 1.349 . S
C1028 C1026 1.327 . S
C1028 C1047 1.429 . S
C1028 H1052 0.950 . S
C1029 C1046 1.574 . S
C1029 C1048 1.368 . S
C1029 H1053 0.949 . S
H1030 C1034 0.949 . S
C1031 C1032 1.349 . S
C1031 C1033 1.327 . S
C1031 H1054 0.950 . S
C1032 C1031 1.349 . S
C1032 C1044 1.349 . S
C1033 C1031 1.327 . S
C1033 C1049 1.429 . S
C1033 H1055 0.950 . S
C1034 H1030 0.949 . S
C1034 C1042 1.574 . S
C1034 C1050 1.368 . S
H1035 C1043 0.950 . S
H1036 C1041 0.950 . S
H1037 C1042 0.949 . S
H1038 C1044 0.950 . S
H1039 C1045 0.950 . S
H1040 C1046 0.949 . S
C1041 H1036 0.950 . S
C1041 C1043 1.327 . S
C1041 C1047 1.429 . S
C1042 C1034 1.574 . S
C1042 H1037 0.949 . S
C1042 C1048 1.368 . S
C1043 C1027 1.349 . S
C1043 H1035 0.950 . S
C1043 C1041 1.327 . S
C1044 C1032 1.349 . S
C1044 H1038 0.950 . S
C1044 C1045 1.327 . S
C1045 H1039 0.950 . S
C1045 C1044 1.327 . S
C1045 C1049 1.429 . S
C1046 C1029 1.574 . S
C1046 H1040 0.949 . S
C1046 C1050 1.368 . S
C1047 C1028 1.429 . S
C1047 C1041 1.429 . S
C1047 C1048 1.523 . S
C1048 C1029 1.368 . S
C1048 C1042 1.368 . S
C1048 C1047 1.523 . S
C1049 C1033 1.429 . S
C1049 C1045 1.429 . S
C1049 C1050 1.523 . S
C1050 C1034 1.368 . S
C1050 C1046 1.368 . S
C1050 C1049 1.523 . S
H1051 C1026 0.950 . S
H1052 C1028 0.950 . S
H1053 C1029 0.949 . S
H1054 C1031 0.950 . S
H1055 C1033 0.950 . S
C1056 C1057 1.349 . S
C1056 C1058 1.327 . S
C1056 H1081 0.950 . S
C1057 C1056 1.349 . S
C1057 C1073 1.349 . S
C1058 C1056 1.327 . S
C1058 C1077 1.429 . S
C1058 H1082 0.950 . S
C1059 C1076 1.574 1_455 S
C1059 C1078 1.368 . S
C1059 H1083 0.949 . S
H1060 C1064 0.949 . S
C1061 C1062 1.349 . S
C1061 C1063 1.327 . S
C1061 H1084 0.950 . S
C1062 C1061 1.349 . S
C1062 C1074 1.349 . S
C1063 C1061 1.327 . S
C1063 C1079 1.429 . S
C1063 H1085 0.950 . S
C1064 H1060 0.949 . S
C1064 C1072 1.574 1_655 S
C1064 C1080 1.368 . S
H1065 C1073 0.950 . S
H1066 C1071 0.950 . S
H1067 C1072 0.949 . S
H1068 C1074 0.950 . S
H1069 C1075 0.950 . S
H1070 C1076 0.949 . S
C1071 H1066 0.950 . S
C1071 C1073 1.327 . S
C1071 C1077 1.429 . S
C1072 C1064 1.574 1_455 S
C1072 H1067 0.949 . S
C1072 C1078 1.368 . S
C1073 C1057 1.349 . S
C1073 H1065 0.950 . S
C1073 C1071 1.327 . S
C1074 C1062 1.349 . S
C1074 H1068 0.950 . S
C1074 C1075 1.327 . S
C1075 H1069 0.950 . S
C1075 C1074 1.327 . S
C1075 C1079 1.429 . S
C1076 C1059 1.574 1_655 S
C1076 H1070 0.949 . S
C1076 C1080 1.368 . S
C1077 C1058 1.429 . S
C1077 C1071 1.429 . S
C1077 C1078 1.523 . S
C1078 C1059 1.368 . S
C1078 C1072 1.368 . S
C1078 C1077 1.523 . S
C1079 C1063 1.429 . S
C1079 C1075 1.429 . S
C1079 C1080 1.523 . S
C1080 C1064 1.368 . S
C1080 C1076 1.368 . S
C1080 C1079 1.523 . S
H1081 C1056 0.950 . S
H1082 C1058 0.950 . S
H1083 C1059 0.949 . S
H1084 C1061 0.950 . S
H1085 C1063 0.950 . S
C1086 C1087 1.349 . S
C1086 C1088 1.327 . S
C1086 H1111 0.950 . S
C1087 C1086 1.349 . S
C1087 C1103 1.349 . S
C1088 C1086 1.327 . S
C1088 C1107 1.429 . S
C1088 H1112 0.950 . S
C1089 C1106 1.603 . S
C1089 C1108 1.347 1_556 S
C1089 H1113 0.943 1_556 S
H1090 C1094 0.949 . S
C1091 C1092 1.349 . S
C1091 C1093 1.327 . S
C1091 H1114 0.950 . S
C1092 C1091 1.349 . S
C1092 C1104 1.349 . S
C1093 C1091 1.327 . S
C1093 C1109 1.429 . S
C1093 H1115 0.950 . S
C1094 H1090 0.949 . S
C1094 C1102 1.574 1_556 S
C1094 C1110 1.368 . S
H1095 C1103 0.950 . S
H1096 C1101 0.950 . S
H1097 C1102 0.949 . S
H1098 C1104 0.950 . S
H1099 C1105 0.950 . S
H1100 C1106 0.949 . S
C1101 H1096 0.950 . S
C1101 C1103 1.327 . S
C1101 C1107 1.429 . S
C1102 C1094 1.574 1_554 S
C1102 H1097 0.949 . S
C1102 C1108 1.368 1_545 S
C1103 C1087 1.349 . S
C1103 H1095 0.950 . S
C1103 C1101 1.327 . S
C1104 C1092 1.349 . S
C1104 H1098 0.950 . S
C1104 C1105 1.327 . S
C1105 H1099 0.950 . S
C1105 C1104 1.327 . S
C1105 C1109 1.429 . S
C1106 C1089 1.603 . S
C1106 H1100 0.949 . S
C1106 C1110 1.368 1_565 S
C1107 C1088 1.429 . S
C1107 C1101 1.429 . S
C1107 C1108 1.523 . S
C1108 C1089 1.347 1_554 S
C1108 C1102 1.368 1_565 S
C1108 C1107 1.523 . S
C1109 C1093 1.429 . S
C1109 C1105 1.429 . S
C1109 C1110 1.523 . S
C1110 C1094 1.368 . S
C1110 C1106 1.368 1_545 S
C1110 C1109 1.523 . S
H1111 C1086 0.950 . S
H1112 C1088 0.950 . S
H1113 C1089 0.943 1_554 S
H1114 C1091 0.950 . S
H1115 C1093 0.950 . S
C1116 C1117 1.349 . S
C1116 C1118 1.327 . S
C1116 H1141 0.950 . S
C1117 C1116 1.349 . S
C1117 C1133 1.349 . S
C1118 C1116 1.327 . S
C1118 C1137 1.429 . S
C1118 H1142 0.950 . S
C1119 C1136 1.574 . S
C1119 C1138 1.368 . S
C1119 H1143 0.949 . S
H1120 C1124 0.949 . S
C1121 C1122 1.349 . S
C1121 C1123 1.327 . S
C1121 H1144 0.950 . S
C1122 C1121 1.349 . S
C1122 C1134 1.349 . S
C1123 C1121 1.327 . S
C1123 C1139 1.429 . S
C1123 H1145 0.950 . S
C1124 H1120 0.949 . S
C1124 C1132 1.574 . S
C1124 C1140 1.368 . S
H1125 C1133 0.950 . S
H1126 C1131 0.950 . S
H1127 C1132 0.949 . S
H1128 C1134 0.950 . S
H1129 C1135 0.950 . S
H1130 C1136 0.949 . S
C1131 H1126 0.950 . S
C1131 C1133 1.327 . S
C1131 C1137 1.429 . S
C1132 C1124 1.574 . S
C1132 H1127 0.949 . S
C1132 C1138 1.368 . S
C1133 C1117 1.349 . S
C1133 H1125 0.950 . S
C1133 C1131 1.327 . S
C1134 C1122 1.349 . S
C1134 H1128 0.950 . S
C1134 C1135 1.327 . S
C1135 H1129 0.950 . S
C1135 C1134 1.327 . S
C1135 C1139 1.429 . S
C1136 C1119 1.574 . S
C1136 H1130 0.949 . S
C1136 C1140 1.368 . S
C1137 C1118 1.429 . S
C1137 C1131 1.429 . S
C1137 C1138 1.523 . S
C1138 C1119 1.368 . S
C1138 C1132 1.368 . S
C1138 C1137 1.523 . S
C1139 C1123 1.429 . S
C1139 C1135 1.429 . S
C1139 C1140 1.523 . S
C1140 C1124 1.368 . S
C1140 C1136 1.368 . S
C1140 C1139 1.523 . S
H1141 C1116 0.950 . S
H1142 C1118 0.950 . S
H1143 C1119 0.949 . S
H1144 C1121 0.950 . S
H1145 C1123 0.950 . S
C1146 C1147 1.349 . S
C1146 C1148 1.327 . S
C1146 H1171 0.950 . S
C1147 C1146 1.349 . S
C1147 C1163 1.349 . S
C1148 C1146 1.327 . S
C1148 C1167 1.429 . S
C1148 H1172 0.950 . S
C1149 C1166 1.574 . S
C1149 C1168 1.368 . S
C1149 H1173 0.949 . S
H1150 C1154 0.949 . S
C1151 C1152 1.349 . S
C1151 C1153 1.327 . S
C1151 H1174 0.950 . S
C1152 C1151 1.349 . S
C1152 C1164 1.349 . S
C1153 C1151 1.327 . S
C1153 C1169 1.429 . S
C1153 H1175 0.950 . S
C1154 H1150 0.949 . S
C1154 C1162 1.574 . S
C1154 C1170 1.368 . S
H1155 C1163 0.950 . S
H1156 C1161 0.950 . S
H1157 C1162 0.949 . S
H1158 C1164 0.950 . S
H1159 C1165 0.950 . S
H1160 C1166 0.949 . S
C1161 H1156 0.950 . S
C1161 C1163 1.327 . S
C1161 C1167 1.429 . S
C1162 C1154 1.574 . S
C1162 H1157 0.949 . S
C1162 C1168 1.368 . S
C1163 C1147 1.349 . S
C1163 H1155 0.950 . S
C1163 C1161 1.327 . S
C1164 C1152 1.349 . S
C1164 H1158 0.950 . S
C1164 C1165 1.327 . S
C1165 H1159 0.950 . S
C1165 C1164 1.327 . S
C1165 C1169 1.429 . S
C1166 C1149 1.574 . S
C1166 H1160 0.949 . S
C1166 C1170 1.368 . S
C1167 C1148 1.429 . S
C1167 C1161 1.429 . S
C1167 C1168 1.523 . S
C1168 C1149 1.368 . S
C1168 C1162 1.368 . S
C1168 C1167 1.523 . S
C1169 C1153 1.429 . S
C1169 C1165 1.429 . S
C1169 C1170 1.523 . S
C1170 C1154 1.368 . S
C1170 C1166 1.368 . S
C1170 C1169 1.523 . S
H1171 C1146 0.950 . S
H1172 C1148 0.950 . S
H1173 C1149 0.949 . S
H1174 C1151 0.950 . S
H1175 C1153 0.950 . S
C1176 C1177 1.349 . S
C1176 C1178 1.327 . S
C1176 H1201 0.950 . S
C1177 C1176 1.349 . S
C1177 C1193 1.349 . S
C1178 C1176 1.327 . S
C1178 C1197 1.429 . S
C1178 H1202 0.950 . S
C1179 C1196 1.574 . S
C1179 C1198 1.368 . S
C1179 H1203 0.949 . S
H1180 C1184 0.949 . S
C1181 C1182 1.349 . S
C1181 C1183 1.327 . S
C1181 H1204 0.950 . S
C1182 C1181 1.349 . S
C1182 C1194 1.349 . S
C1183 C1181 1.327 . S
C1183 C1199 1.429 . S
C1183 H1205 0.950 . S
C1184 H1180 0.949 . S
C1184 C1192 1.574 . S
C1184 C1200 1.368 . S
H1185 C1193 0.950 . S
H1186 C1191 0.950 . S
H1187 C1192 0.949 . S
H1188 C1194 0.950 . S
H1189 C1195 0.950 . S
H1190 C1196 0.949 . S
C1191 H1186 0.950 . S
C1191 C1193 1.327 . S
C1191 C1197 1.429 . S
C1192 C1184 1.574 . S
C1192 H1187 0.949 . S
C1192 C1198 1.368 . S
C1193 C1177 1.349 . S
C1193 H1185 0.950 . S
C1193 C1191 1.327 . S
C1194 C1182 1.349 . S
C1194 H1188 0.950 . S
C1194 C1195 1.327 . S
C1195 H1189 0.950 . S
C1195 C1194 1.327 . S
C1195 C1199 1.429 . S
C1196 C1179 1.574 . S
C1196 H1190 0.949 . S
C1196 C1200 1.368 . S
C1197 C1178 1.429 . S
C1197 C1191 1.429 . S
C1197 C1198 1.523 . S
C1198 C1179 1.368 . S
C1198 C1192 1.368 . S
C1198 C1197 1.523 . S
C1199 C1183 1.429 . S
C1199 C1195 1.429 . S
C1199 C1200 1.523 . S
C1200 C1184 1.368 . S
C1200 C1196 1.368 . S
C1200 C1199 1.523 . S
H1201 C1176 0.950 . S
H1202 C1178 0.950 . S
H1203 C1179 0.949 . S
H1204 C1181 0.950 . S
H1205 C1183 0.950 . S
C1206 C1207 1.349 . S
C1206 C1208 1.327 . S
C1206 H1231 0.950 . S
C1207 C1206 1.349 . S
C1207 C1223 1.349 . S
C1208 C1206 1.327 . S
C1208 C1227 1.429 . S
C1208 H1232 0.950 . S
C1209 C1226 1.574 . S
C1209 C1228 1.368 . S
C1209 H1233 0.949 . S
H1210 C1214 0.949 . S
C1211 C1212 1.349 . S
C1211 C1213 1.327 . S
C1211 H1234 0.950 . S
C1212 C1211 1.349 . S
C1212 C1224 1.349 . S
C1213 C1211 1.327 . S
C1213 C1229 1.429 . S
C1213 H1235 0.950 . S
C1214 H1210 0.949 . S
C1214 C1222 1.574 . S
C1214 C1230 1.368 . S
H1215 C1223 0.950 . S
H1216 C1221 0.950 . S
H1217 C1222 0.949 . S
H1218 C1224 0.950 . S
H1219 C1225 0.950 . S
H1220 C1226 0.949 . S
C1221 H1216 0.950 . S
C1221 C1223 1.327 . S
C1221 C1227 1.429 . S
C1222 C1214 1.574 . S
C1222 H1217 0.949 . S
C1222 C1228 1.368 . S
C1223 C1207 1.349 . S
C1223 H1215 0.950 . S
C1223 C1221 1.327 . S
C1224 C1212 1.349 . S
C1224 H1218 0.950 . S
C1224 C1225 1.327 . S
C1225 H1219 0.950 . S
C1225 C1224 1.327 . S
C1225 C1229 1.429 . S
C1226 C1209 1.574 . S
C1226 H1220 0.949 . S
C1226 C1230 1.368 . S
C1227 C1208 1.429 . S
C1227 C1221 1.429 . S
C1227 C1228 1.523 . S
C1228 C1209 1.368 . S
C1228 C1222 1.368 . S
C1228 C1227 1.523 . S
C1229 C1213 1.429 . S
C1229 C1225 1.429 . S
C1229 C1230 1.523 . S
C1230 C1214 1.368 . S
C1230 C1226 1.368 . S
C1230 C1229 1.523 . S
H1231 C1206 0.950 . S
H1232 C1208 0.950 . S
H1233 C1209 0.949 . S
H1234 C1211 0.950 . S
H1235 C1213 0.950 . S
C1236 C1237 1.349 . S
C1236 C1238 1.327 . S
C1236 H1261 0.950 . S
C1237 C1236 1.349 . S
C1237 C1253 1.349 . S
C1238 C1236 1.327 . S
C1238 C1257 1.429 . S
C1238 H1262 0.950 . S
C1239 C1256 1.574 . S
C1239 C1258 1.368 . S
C1239 H1263 0.949 . S
H1240 C1244 0.949 . S
C1241 C1242 1.349 . S
C1241 C1243 1.327 . S
C1241 H1264 0.950 . S
C1242 C1241 1.349 . S
C1242 C1254 1.349 . S
C1243 C1241 1.327 . S
C1243 C1259 1.429 . S
C1243 H1265 0.950 . S
C1244 H1240 0.949 . S
C1244 C1252 1.574 . S
C1244 C1260 1.368 . S
H1245 C1253 0.950 . S
H1246 C1251 0.950 . S
H1247 C1252 0.949 . S
H1248 C1254 0.950 . S
H1249 C1255 0.950 . S
H1250 C1256 0.949 . S
C1251 H1246 0.950 . S
C1251 C1253 1.327 . S
C1251 C1257 1.429 . S
C1252 C1244 1.574 . S
C1252 H1247 0.949 . S
C1252 C1258 1.368 . S
C1253 C1237 1.349 . S
C1253 H1245 0.950 . S
C1253 C1251 1.327 . S
C1254 C1242 1.349 . S
C1254 H1248 0.950 . S
C1254 C1255 1.327 . S
C1255 H1249 0.950 . S
C1255 C1254 1.327 . S
C1255 C1259 1.429 . S
C1256 C1239 1.574 . S
C1256 H1250 0.949 . S
C1256 C1260 1.368 . S
C1257 C1238 1.429 . S
C1257 C1251 1.429 . S
C1257 C1258 1.523 . S
C1258 C1239 1.368 . S
C1258 C1252 1.368 . S
C1258 C1257 1.523 . S
C1259 C1243 1.429 . S
C1259 C1255 1.429 . S
C1259 C1260 1.523 . S
C1260 C1244 1.368 . S
C1260 C1256 1.368 . S
C1260 C1259 1.523 . S
H1261 C1236 0.950 . S
H1262 C1238 0.950 . S
H1263 C1239 0.949 . S
H1264 C1241 0.950 . S
H1265 C1243 0.950 . S
C1266 C1267 1.349 . S
C1266 C1268 1.327 . S
C1266 H1291 0.950 . S
C1267 C1266 1.349 . S
C1267 C1283 1.349 . S
C1268 C1266 1.327 . S
C1268 C1287 1.429 . S
C1268 H1292 0.950 . S
C1269 C1286 1.574 . S
C1269 C1288 1.368 . S
C1269 H1293 0.949 . S
H1270 C1274 0.949 . S
C1271 C1272 1.349 . S
C1271 C1273 1.327 . S
C1271 H1294 0.950 . S
C1272 C1271 1.349 . S
C1272 C1284 1.349 . S
C1273 C1271 1.327 . S
C1273 C1289 1.429 . S
C1273 H1295 0.950 . S
C1274 H1270 0.949 . S
C1274 C1282 1.574 . S
C1274 C1290 1.368 . S
H1275 C1283 0.950 . S
H1276 C1281 0.950 . S
H1277 C1282 0.949 . S
H1278 C1284 0.950 . S
H1279 C1285 0.950 . S
H1280 C1286 0.949 . S
C1281 H1276 0.950 . S
C1281 C1283 1.327 . S
C1281 C1287 1.429 . S
C1282 C1274 1.574 . S
C1282 H1277 0.949 . S
C1282 C1288 1.368 . S
C1283 C1267 1.349 . S
C1283 H1275 0.950 . S
C1283 C1281 1.327 . S
C1284 C1272 1.349 . S
C1284 H1278 0.950 . S
C1284 C1285 1.327 . S
C1285 H1279 0.950 . S
C1285 C1284 1.327 . S
C1285 C1289 1.429 . S
C1286 C1269 1.574 . S
C1286 H1280 0.949 . S
C1286 C1290 1.368 . S
C1287 C1268 1.429 . S
C1287 C1281 1.429 . S
C1287 C1288 1.523 . S
C1288 C1269 1.368 . S
C1288 C1282 1.368 . S
C1288 C1287 1.523 . S
C1289 C1273 1.429 . S
C1289 C1285 1.429 . S
C1289 C1290 1.523 . S
C1290 C1274 1.368 . S
C1290 C1286 1.368 . S
C1290 C1289 1.523 . S
H1291 C1266 0.950 . S
H1292 C1268 0.950 . S
H1293 C1269 0.949 . S
H1294 C1271 0.950 . S
H1295 C1273 0.950 . S
C397 C172 1.334 . S
C402 N13 1.409 . S
C427 C7 1.334 . S
C432 N46 1.409 . S
C457 C40 1.335 . S
C462 N79 1.409 . S
C487 N112 1.409 . S
C492 C73 1.335 . S
C517 N145 1.409 . S
C522 C106 1.335 . S
C547 C139 1.334 . S
C552 N178 1.409 . S
C577 C238 1.335 . S
C582 N211 1.409 . S
C607 C271 1.335 . S
C612 N244 1.409 . S
C637 C304 1.335 . S
C642 N277 1.409 . S
C667 C337 1.334 . S
C672 N310 1.409 . S
C697 C370 1.334 . S
C702 N343 1.409 . S
C727 C205 1.335 . S
C732 N376 1.409 . S
C757 N266 1.255 . S
C762 N2 1.255 . S
C787 N35 1.256 . S
C792 N299 1.256 . S
C817 N68 1.256 . S
C822 N332 1.256 . S
C847 N101 1.256 . S
C852 N365 1.256 . S
C877 N134 1.255 . S
C882 N200 1.255 . S
C907 N233 1.256 . S
C912 N167 1.256 . S
C937 C318 1.094 . S
C942 C21 1.094 . S
C967 C351 1.094 . S
C972 C54 1.094 . S
C997 C87 1.093 . S
C1002 C384 1.093 . S
C1027 C120 1.093 . S
C1032 C219 1.093 . S
C1057 C153 1.093 . S
C1062 C252 1.093 . S
C1087 C285 1.093 . S
C1092 C186 1.093 . S
C1117 C18 0.796 . S
C1122 C216 0.796 . S
C1147 C249 0.796 . S
C1152 C51 0.796 . S
C1177 C84 0.796 . S
C1182 C282 0.796 . S
C1207 C315 0.796 . S
C1212 C117 0.796 . S
C1237 C348 0.796 . S
C1242 C150 0.796 . S
C1267 C381 0.796 . S
C1272 C183 0.796 . S
