# Generated by pormake.
# Topology umn, (4)-cn, num edge types: 1
# Building blocks:
#     Node 0, Type 0, BuildingBlock: QUQFOY_clean_sbu_3, # of connection points: 4
#     Node 1, Type 0, BuildingBlock: QUQFOY_clean_sbu_3, # of connection points: 4
#     Node 2, Type 0, BuildingBlock: QUQFOY_clean_sbu_3, # of connection points: 4
#     Node 3, Type 0, BuildingBlock: QUQFOY_clean_sbu_3, # of connection points: 4
#     Node 4, Type 0, BuildingBlock: QUQFOY_clean_sbu_3, # of connection points: 4
#     Node 5, Type 0, BuildingBlock: QUQFOY_clean_sbu_3, # of connection points: 4
#     Node 6, Type 0, BuildingBlock: QUQFOY_clean_sbu_3, # of connection points: 4
#     Node 7, Type 0, BuildingBlock: QUQFOY_clean_sbu_3, # of connection points: 4
#     Node 8, Type 0, BuildingBlock: QUQFOY_clean_sbu_3, # of connection points: 4
#     Node 9, Type 0, BuildingBlock: QUQFOY_clean_sbu_3, # of connection points: 4
#     Node 10, Type 0, BuildingBlock: QUQFOY_clean_sbu_3, # of connection points: 4
#     Node 11, Type 0, BuildingBlock: QUQFOY_clean_sbu_3, # of connection points: 4
#     Node 12, Type 0, BuildingBlock: QUQFOY_clean_sbu_3, # of connection points: 4
#     Node 13, Type 0, BuildingBlock: QUQFOY_clean_sbu_3, # of connection points: 4
#     Node 14, Type 0, BuildingBlock: QUQFOY_clean_sbu_3, # of connection points: 4
#     Node 15, Type 0, BuildingBlock: QUQFOY_clean_sbu_3, # of connection points: 4
#     Node 16, Type 0, BuildingBlock: QUQFOY_clean_sbu_3, # of connection points: 4
#     Node 17, Type 0, BuildingBlock: QUQFOY_clean_sbu_3, # of connection points: 4
#     Node 18, Type 0, BuildingBlock: QUQFOY_clean_sbu_3, # of connection points: 4
#     Node 19, Type 0, BuildingBlock: QUQFOY_clean_sbu_3, # of connection points: 4
#     Node 20, Type 0, BuildingBlock: QUQFOY_clean_sbu_3, # of connection points: 4
#     Node 21, Type 0, BuildingBlock: QUQFOY_clean_sbu_3, # of connection points: 4
#     Node 22, Type 0, BuildingBlock: QUQFOY_clean_sbu_3, # of connection points: 4
#     Node 23, Type 0, BuildingBlock: QUQFOY_clean_sbu_3, # of connection points: 4
#     Node 24, Type 0, BuildingBlock: QUQFOY_clean_sbu_3, # of connection points: 4
#     Node 25, Type 0, BuildingBlock: QUQFOY_clean_sbu_3, # of connection points: 4
#     Node 26, Type 0, BuildingBlock: QUQFOY_clean_sbu_3, # of connection points: 4
#     Node 27, Type 0, BuildingBlock: QUQFOY_clean_sbu_3, # of connection points: 4
#     Node 28, Type 0, BuildingBlock: QUQFOY_clean_sbu_3, # of connection points: 4
#     Node 29, Type 0, BuildingBlock: QUQFOY_clean_sbu_3, # of connection points: 4
#     Node 30, Type 0, BuildingBlock: QUQFOY_clean_sbu_3, # of connection points: 4
#     Node 31, Type 0, BuildingBlock: QUQFOY_clean_sbu_3, # of connection points: 4
#     Node 32, Type 0, BuildingBlock: QUQFOY_clean_sbu_3, # of connection points: 4
#     Node 33, Type 0, BuildingBlock: QUQFOY_clean_sbu_3, # of connection points: 4
#     Node 34, Type 0, BuildingBlock: QUQFOY_clean_sbu_3, # of connection points: 4
#     Node 35, Type 0, BuildingBlock: QUQFOY_clean_sbu_3, # of connection points: 4
#     Edge 36, Type (0, 0), None
#     Edge 37, Type (0, 0), None
#     Edge 38, Type (0, 0), None
#     Edge 39, Type (0, 0), None
#     Edge 40, Type (0, 0), None
#     Edge 41, Type (0, 0), None
#     Edge 42, Type (0, 0), None
#     Edge 43, Type (0, 0), None
#     Edge 44, Type (0, 0), None
#     Edge 45, Type (0, 0), None
#     Edge 46, Type (0, 0), None
#     Edge 47, Type (0, 0), None
#     Edge 48, Type (0, 0), None
#     Edge 49, Type (0, 0), None
#     Edge 50, Type (0, 0), None
#     Edge 51, Type (0, 0), None
#     Edge 52, Type (0, 0), None
#     Edge 53, Type (0, 0), None
#     Edge 54, Type (0, 0), None
#     Edge 55, Type (0, 0), None
#     Edge 56, Type (0, 0), None
#     Edge 57, Type (0, 0), None
#     Edge 58, Type (0, 0), None
#     Edge 59, Type (0, 0), None
#     Edge 60, Type (0, 0), None
#     Edge 61, Type (0, 0), None
#     Edge 62, Type (0, 0), None
#     Edge 63, Type (0, 0), None
#     Edge 64, Type (0, 0), None
#     Edge 65, Type (0, 0), None
#     Edge 66, Type (0, 0), None
#     Edge 67, Type (0, 0), None
#     Edge 68, Type (0, 0), None
#     Edge 69, Type (0, 0), None
#     Edge 70, Type (0, 0), None
#     Edge 71, Type (0, 0), None
#     Edge 72, Type (0, 0), None
#     Edge 73, Type (0, 0), None
#     Edge 74, Type (0, 0), None
#     Edge 75, Type (0, 0), None
#     Edge 76, Type (0, 0), None
#     Edge 77, Type (0, 0), None
#     Edge 78, Type (0, 0), None
#     Edge 79, Type (0, 0), None
#     Edge 80, Type (0, 0), None
#     Edge 81, Type (0, 0), None
#     Edge 82, Type (0, 0), None
#     Edge 83, Type (0, 0), None
#     Edge 84, Type (0, 0), None
#     Edge 85, Type (0, 0), None
#     Edge 86, Type (0, 0), None
#     Edge 87, Type (0, 0), None
#     Edge 88, Type (0, 0), None
#     Edge 89, Type (0, 0), None
#     Edge 90, Type (0, 0), None
#     Edge 91, Type (0, 0), None
#     Edge 92, Type (0, 0), None
#     Edge 93, Type (0, 0), None
#     Edge 94, Type (0, 0), None
#     Edge 95, Type (0, 0), None
#     Edge 96, Type (0, 0), None
#     Edge 97, Type (0, 0), None
#     Edge 98, Type (0, 0), None
#     Edge 99, Type (0, 0), None
#     Edge 100, Type (0, 0), None
#     Edge 101, Type (0, 0), None
#     Edge 102, Type (0, 0), None
#     Edge 103, Type (0, 0), None
#     Edge 104, Type (0, 0), None
#     Edge 105, Type (0, 0), None
#     Edge 106, Type (0, 0), None
#     Edge 107, Type (0, 0), None
# Relax obj value: 0.158
# Max RMSD: 0.217
# Mean RMSD: 0.217
data_MOF--net-umn--node1-QUQFOY_clean_sbu_3--edge1-none
_symmetry_space_group_name_H-M    P1
_symmetry_Int_Tables_number       1
_symmetry_cell_setting            triclinic
loop_
_symmetry_equiv_pos_as_xyz
'x, y, z'
_cell_length_a     44.40605
_cell_length_b     44.405904
_cell_length_c     17.198146
_cell_angle_alpha  90.002306
_cell_angle_beta   89.995813
_cell_angle_gamma 119.99918
loop_
_atom_site_label
_atom_site_type_symbol
_atom_site_fract_x
_atom_site_fract_y
_atom_site_fract_z
_atom_type_partial_charge
C0 C 0.31412 0.02507 0.11013 0.0
O1 O 0.32403 0.01954 0.17521 0.0
Cd2 Cd 0.29822 0.01799 0.30367 0.0
O3 O 0.28959 0.03196 0.10788 0.0
Cd4 Cd 0.25094 0.03414 0.20925 0.0
C5 C 0.22364 -0.04958 0.2465 0.0
O6 O 0.26769 0.04736 0.34334 0.0
O7 O 0.21241 0.01346 0.31551 0.0
O8 O 0.26538 0.09313 0.19113 0.0
C9 C 0.23586 0.02993 0.36589 0.0
O10 O 0.2484 -0.03834 0.2953 0.0
C11 C 0.23559 0.08514 0.16466 0.0
O12 O 0.22053 -0.02943 0.19825 0.0
O13 O 0.21381 0.05312 0.1521 0.0
C14 C 0.80471 0.255 0.11016 0.0
O15 O 0.81025 0.27045 0.17525 0.0
Cd16 Cd 0.8118 0.24618 0.30369 0.0
O17 O 0.79782 0.22358 0.10791 0.0
Cd18 Cd 0.79564 0.18275 0.20926 0.0
C19 C 0.87937 0.23918 0.24651 0.0
O20 O 0.78243 0.18629 0.34336 0.0
O21 O 0.81632 0.16491 0.3155 0.0
O22 O 0.73666 0.13821 0.19114 0.0
C23 C 0.79986 0.17189 0.3659 0.0
O24 O 0.86812 0.25269 0.29531 0.0
C25 C 0.74465 0.11641 0.16466 0.0
O26 O 0.85921 0.21591 0.19825 0.0
O27 O 0.77666 0.12665 0.15209 0.0
C28 C 0.57478 0.51566 0.11012 0.0
O29 O 0.55933 0.50575 0.17521 0.0
Cd30 Cd 0.58359 0.53156 0.30366 0.0
O31 O 0.6062 0.54019 0.10787 0.0
Cd32 Cd 0.64702 0.57884 0.20924 0.0
C33 C 0.59059 0.60614 0.2465 0.0
O34 O 0.64348 0.56208 0.34334 0.0
O35 O 0.66486 0.61736 0.3155 0.0
O36 O 0.69157 0.5644 0.19112 0.0
C37 C 0.65789 0.59392 0.36588 0.0
O38 O 0.57709 0.58138 0.29529 0.0
C39 C 0.71337 0.59419 0.16466 0.0
O40 O 0.61387 0.60925 0.19824 0.0
O41 O 0.70313 0.61596 0.15209 0.0
C42 C -0.00898 0.34819 0.37041 0.0
O43 O -0.01452 0.35808 0.30532 0.0
Cd44 Cd -0.01605 0.33228 0.17686 0.0
O45 O -0.00207 0.32367 0.37267 0.0
Cd46 Cd 0.00011 0.28501 0.27131 0.0
C47 C -0.08361 0.25769 0.23398 0.0
O48 O 0.01333 0.30177 0.13722 0.0
O49 O -0.02056 0.24649 0.16507 0.0
O50 O 0.0591 0.29946 0.28943 0.0
C51 C -0.00409 0.26993 0.11468 0.0
O52 O -0.07236 0.28245 0.18519 0.0
C53 C 0.05111 0.26967 0.31592 0.0
O54 O -0.06346 0.25459 0.28229 0.0
O55 O 0.01909 0.24789 0.32849 0.0
C56 C 0.48159 0.60879 0.37042 0.0
O57 O 0.47169 0.59335 0.30534 0.0
Cd58 Cd 0.49749 0.61762 0.17687 0.0
O59 O 0.50611 0.64022 0.37268 0.0
Cd60 Cd 0.54476 0.68105 0.27132 0.0
C61 C 0.57209 0.62466 0.23397 0.0
O62 O 0.528 0.67751 0.13723 0.0
O63 O 0.58328 0.6989 0.16507 0.0
O64 O 0.53032 0.7256 0.28944 0.0
C65 C 0.55984 0.69192 0.11468 0.0
O66 O 0.54733 0.61114 0.18519 0.0
C67 C 0.56011 0.74739 0.31591 0.0
O68 O 0.57518 0.6479 0.28229 0.0
O69 O 0.58189 0.73715 0.32849 0.0
C70 C 0.22099 0.83875 0.3704 0.0
O71 O 0.23643 0.8443 0.30532 0.0
Cd72 Cd 0.21216 0.84583 0.17686 0.0
O73 O 0.18956 0.83185 0.37267 0.0
Cd74 Cd 0.14873 0.82967 0.27132 0.0
C75 C 0.20513 0.91339 0.23397 0.0
O76 O 0.15227 0.81645 0.13722 0.0
O77 O 0.13088 0.85034 0.16508 0.0
O78 O 0.10418 0.77068 0.28943 0.0
C79 C 0.13786 0.83388 0.11469 0.0
O80 O 0.21864 0.90215 0.18519 0.0
C81 C 0.08239 0.77868 0.31592 0.0
O82 O 0.18188 0.89324 0.28229 0.0
O83 O 0.09263 0.8107 0.32849 0.0
C84 C 0.48161 0.83876 0.87044 0.0
O85 O 0.4717 0.8443 0.80535 0.0
Cd86 Cd 0.49751 0.84585 0.6769 0.0
O87 O 0.50613 0.83187 0.87269 0.0
Cd88 Cd 0.54478 0.82968 0.77132 0.0
C89 C 0.57209 0.91341 0.73406 0.0
O90 O 0.52802 0.81647 0.63723 0.0
O91 O 0.58331 0.85036 0.66507 0.0
O92 O 0.53034 0.7707 0.78944 0.0
C93 C 0.55986 0.83389 0.61468 0.0
O94 O 0.54734 0.90217 0.68527 0.0
C95 C 0.56013 0.77869 0.81591 0.0
O96 O 0.5752 0.89325 0.78232 0.0
O97 O 0.5819 0.8107 0.82848 0.0
C98 C -0.00898 0.6088 0.8704 0.0
O99 O -0.01452 0.59336 0.80531 0.0
Cd100 Cd -0.01606 0.61763 0.67687 0.0
O101 O -0.00208 0.64022 0.87266 0.0
Cd102 Cd 0.0001 0.68106 0.77131 0.0
C103 C -0.08362 0.62465 0.73406 0.0
O104 O 0.01332 0.67752 0.63721 0.0
O105 O -0.02057 0.69891 0.66507 0.0
O106 O 0.05909 0.7256 0.78943 0.0
C107 C -0.00411 0.69193 0.61468 0.0
O108 O -0.07238 0.61114 0.68525 0.0
C109 C 0.0511 0.7474 0.81591 0.0
O110 O -0.06346 0.64791 0.78232 0.0
O111 O 0.01908 0.73716 0.82849 0.0
C112 C 0.22098 0.34818 0.87044 0.0
O113 O 0.23643 0.35809 0.80535 0.0
Cd114 Cd 0.21217 0.33228 0.6769 0.0
O115 O 0.18956 0.32366 0.87269 0.0
Cd116 Cd 0.14873 0.28501 0.77133 0.0
C117 C 0.20515 0.2577 0.73407 0.0
O118 O 0.15228 0.30177 0.63723 0.0
O119 O 0.13089 0.24649 0.66508 0.0
O120 O 0.10419 0.29945 0.78945 0.0
C121 C 0.13787 0.26993 0.61469 0.0
O122 O 0.21866 0.28245 0.68527 0.0
C123 C 0.08239 0.26966 0.81592 0.0
O124 O 0.18188 0.25459 0.78233 0.0
O125 O 0.09263 0.24789 0.82849 0.0
C126 C 0.80471 0.51566 0.61015 0.0
O127 O 0.81025 0.50576 0.67523 0.0
Cd128 Cd 0.81178 0.53155 0.8037 0.0
O129 O 0.79781 0.54019 0.6079 0.0
Cd130 Cd 0.79563 0.57884 0.70926 0.0
C131 C 0.87935 0.60614 0.74659 0.0
O132 O 0.78242 0.56208 0.84335 0.0
O133 O 0.81631 0.61736 0.8155 0.0
O134 O 0.73665 0.5644 0.69114 0.0
C135 C 0.79985 0.59392 0.86589 0.0
O136 O 0.8681 0.58138 0.79537 0.0
C137 C 0.74464 0.59418 0.66466 0.0
O138 O 0.8592 0.60925 0.69828 0.0
O139 O 0.77666 0.61596 0.65209 0.0
C140 C 0.31413 0.25501 0.61013 0.0
O141 O 0.32404 0.27045 0.67522 0.0
Cd142 Cd 0.29824 0.24619 0.80368 0.0
O143 O 0.28961 0.22359 0.60788 0.0
Cd144 Cd 0.25096 0.18276 0.70925 0.0
C145 C 0.22365 0.23917 0.74659 0.0
O146 O 0.26772 0.1863 0.84334 0.0
O147 O 0.21244 0.16492 0.8155 0.0
O148 O 0.2654 0.13821 0.69113 0.0
C149 C 0.23588 0.1719 0.86589 0.0
O150 O 0.24842 0.25269 0.79536 0.0
C151 C 0.23561 0.11642 0.66466 0.0
O152 O 0.22054 0.21592 0.69828 0.0
O153 O 0.21383 0.12666 0.65209 0.0
C154 C 0.57478 0.02508 0.61015 0.0
O155 O 0.55933 0.01955 0.67524 0.0
Cd156 Cd 0.58359 0.01801 0.8037 0.0
O157 O 0.6062 0.03198 0.60789 0.0
Cd158 Cd 0.64703 0.03415 0.70925 0.0
C159 C 0.59061 -0.04956 0.74659 0.0
O160 O 0.64348 0.04737 0.84335 0.0
O161 O 0.66487 0.01347 0.81549 0.0
O162 O 0.69157 0.09314 0.69114 0.0
C163 C 0.65789 0.02994 0.86589 0.0
O164 O 0.5771 -0.03831 0.79536 0.0
C165 C 0.71337 0.08514 0.66466 0.0
O166 O 0.61387 -0.02942 0.69828 0.0
O167 O 0.70313 0.05313 0.65209 0.0
C168 C -0.0192 0.35841 0.44352 0.0
O169 O -0.00931 0.35286 0.50859 0.0
Cd170 Cd -0.03512 0.35131 0.63705 0.0
O171 O -0.04373 0.36531 0.44125 0.0
Cd172 Cd -0.08239 0.36748 0.54259 0.0
C173 C 0.89031 0.28375 0.57985 0.0
O174 O -0.06564 0.38069 0.67669 0.0
O175 O 0.87908 0.3468 0.64884 0.0
O176 O -0.06795 0.42647 0.52448 0.0
C177 C -0.09748 0.36326 0.69923 0.0
O178 O -0.08495 0.295 0.62866 0.0
C179 C -0.09774 0.41847 0.498 0.0
O180 O 0.8872 0.30391 0.53158 0.0
O181 O 0.88049 0.38646 0.48543 0.0
C182 C 0.47136 0.58834 0.44353 0.0
O183 O 0.47692 0.60379 0.50861 0.0
Cd184 Cd 0.47846 0.57952 0.63705 0.0
O185 O 0.46447 0.55692 0.44125 0.0
Cd186 Cd 0.4623 0.51609 0.54259 0.0
C187 C 0.54603 0.57251 0.57984 0.0
O188 O 0.44909 0.51963 0.67669 0.0
O189 O 0.48298 0.49824 0.64883 0.0
O190 O 0.40331 0.47154 0.52448 0.0
C191 C 0.46652 0.50522 0.69922 0.0
O192 O 0.53478 0.58602 0.62866 0.0
C193 C 0.41131 0.44975 0.498 0.0
O194 O 0.52587 0.54925 0.53157 0.0
O195 O 0.44333 0.45999 0.48542 0.0
C196 C 0.24144 0.84898 0.44351 0.0
O197 O 0.22599 0.83908 0.50859 0.0
Cd198 Cd 0.25026 0.8649 0.63704 0.0
O199 O 0.27286 0.8735 0.44123 0.0
Cd200 Cd 0.31369 0.91216 0.54258 0.0
C201 C 0.25727 -0.06053 0.57984 0.0
O202 O 0.31015 0.89541 0.67668 0.0
O203 O 0.33153 -0.04931 0.64883 0.0
O204 O 0.35824 0.89773 0.52447 0.0
C205 C 0.32456 0.92724 0.69922 0.0
O206 O 0.24376 0.91472 0.62866 0.0
C207 C 0.38003 0.92752 0.49799 0.0
O208 O 0.28053 -0.05743 0.53157 0.0
O209 O 0.36979 -0.05071 0.48542 0.0
C210 C 0.65768 0.68151 0.70375 0.0
O211 O 0.65214 0.69141 0.63866 0.0
Cd212 Cd 0.65061 0.66561 0.5102 0.0
O213 O 0.66459 0.65699 0.706 0.0
Cd214 Cd 0.66677 0.61834 0.60463 0.0
C215 C 0.58305 0.59102 0.56731 0.0
O216 O 0.67999 0.6351 0.47054 0.0
O217 O 0.6461 0.57982 0.49839 0.0
O218 O 0.72576 0.63278 0.62275 0.0
C219 C 0.66256 0.60326 0.448 0.0
O220 O 0.5943 0.61578 0.51852 0.0
C221 C 0.71777 0.603 0.64923 0.0
O222 O 0.6032 0.58792 0.61562 0.0
O223 O 0.68575 0.58122 0.6618 0.0
C224 C 0.14827 -0.05787 0.70377 0.0
O225 O 0.13837 0.92669 0.63869 0.0
Cd226 Cd 0.16417 -0.04905 0.51022 0.0
O227 O 0.17279 -0.02644 0.70602 0.0
Cd228 Cd 0.21144 0.01439 0.60465 0.0
C229 C 0.23876 -0.04201 0.56731 0.0
O230 O 0.19467 0.01084 0.47056 0.0
O231 O 0.24996 0.03224 0.49839 0.0
O232 O 0.197 0.05893 0.62278 0.0
C233 C 0.22651 0.02525 0.44801 0.0
O234 O 0.214 -0.05553 0.51853 0.0
C235 C 0.22679 0.08073 0.64924 0.0
O236 O 0.24186 -0.01876 0.61562 0.0
O237 O 0.24856 0.07049 0.66181 0.0
C238 C 0.88766 0.1721 0.70374 0.0
O239 O -0.0969 0.17765 0.63866 0.0
Cd240 Cd 0.87884 0.17918 0.5102 0.0
O241 O 0.85623 0.16519 0.706 0.0
Cd242 Cd 0.8154 0.16301 0.60464 0.0
C243 C 0.87179 0.24673 0.56731 0.0
O244 O 0.81895 0.14979 0.47055 0.0
O245 O 0.79755 0.18368 0.4984 0.0
O246 O 0.77085 0.10402 0.62276 0.0
C247 C 0.80454 0.16721 0.44801 0.0
O248 O 0.88531 0.23549 0.51852 0.0
C249 C 0.74906 0.11201 0.64924 0.0
O250 O 0.84854 0.22658 0.61563 0.0
O251 O 0.7593 0.14403 0.66181 0.0
C252 C 0.14828 0.1721 0.20375 0.0
O253 O 0.13838 0.17765 0.13867 0.0
Cd254 Cd 0.16419 0.17919 0.01021 0.0
O255 O 0.17279 0.16519 0.206 0.0
Cd256 Cd 0.21144 0.16301 0.10464 0.0
C257 C 0.23877 0.24674 0.06739 0.0
O258 O 0.19469 0.1498 0.97054 0.0
O259 O 0.24997 0.18368 -0.00161 0.0
O260 O 0.19699 0.10402 0.12276 0.0
C261 C 0.22653 0.16723 0.948 0.0
O262 O 0.21402 0.2355 0.01858 0.0
C263 C 0.22678 0.11201 0.14923 0.0
O264 O 0.24187 0.22658 0.11566 0.0
O265 O 0.24856 0.14402 0.1618 0.0
C266 C 0.65768 -0.05787 0.20373 0.0
O267 O 0.65213 0.92668 0.13864 0.0
Cd268 Cd 0.65059 -0.04905 0.01019 0.0
O269 O 0.66459 -0.02645 0.20598 0.0
Cd270 Cd 0.66678 0.01439 0.10463 0.0
C271 C 0.58304 -0.04201 0.06739 0.0
O272 O 0.67998 0.01084 0.97053 0.0
O273 O 0.6461 0.03225 -0.00161 0.0
O274 O 0.72577 0.05893 0.12275 0.0
C275 C 0.66256 0.02526 0.948 0.0
O276 O 0.59428 -0.05552 0.01857 0.0
C277 C 0.71777 0.08073 0.14923 0.0
O278 O 0.60321 -0.01875 0.11566 0.0
O279 O 0.68576 0.07049 0.1618 0.0
C280 C 0.88765 0.68151 0.20376 0.0
O281 O -0.0969 0.69141 0.13868 0.0
Cd282 Cd 0.87883 0.6656 0.01022 0.0
O283 O 0.85623 0.65699 0.20601 0.0
Cd284 Cd 0.8154 0.61835 0.10465 0.0
C285 C 0.8718 0.59102 0.0674 0.0
O286 O 0.81894 0.63511 0.97055 0.0
O287 O 0.79755 0.57982 -0.0016 0.0
O288 O 0.77085 0.63279 0.12277 0.0
C289 C 0.80453 0.60327 0.94801 0.0
O290 O 0.88532 0.61577 0.01859 0.0
C291 C 0.74905 0.603 0.14924 0.0
O292 O 0.84854 0.58792 0.11566 0.0
O293 O 0.75929 0.58122 0.1618 0.0
C294 C 0.47138 0.84899 0.94354 0.0
O295 O 0.47694 0.8391 0.00862 0.0
Cd296 Cd 0.47847 0.8649 0.13709 0.0
O297 O 0.46447 0.8735 0.94127 0.0
Cd298 Cd 0.4623 0.91217 0.0426 0.0
C299 C 0.54602 -0.06051 0.07994 0.0
O300 O 0.44908 0.89542 0.1767 0.0
O301 O 0.48297 -0.0493 0.14884 0.0
O302 O 0.40331 0.89773 0.02449 0.0
C303 C 0.46651 0.92725 0.19923 0.0
O304 O 0.53478 0.91474 0.12875 0.0
C305 C 0.41131 0.92752 -0.002 0.0
O306 O 0.52587 -0.05742 0.03161 0.0
O307 O 0.44332 -0.05071 0.98542 0.0
C308 C -0.0192 0.58835 0.9435 0.0
O309 O -0.00931 0.6038 0.00858 0.0
Cd310 Cd -0.0351 0.57953 0.13705 0.0
O311 O -0.04372 0.55692 0.94123 0.0
Cd312 Cd -0.08238 0.51609 0.04258 0.0
C313 C 0.89031 0.5725 0.07993 0.0
O314 O -0.06562 0.51964 0.17667 0.0
O315 O 0.8791 0.49825 0.14883 0.0
O316 O -0.06794 0.47154 0.02447 0.0
C317 C -0.09746 0.50523 0.19922 0.0
O318 O -0.08494 0.58601 0.12872 0.0
C319 C -0.09773 0.44975 -0.00201 0.0
O320 O 0.88721 0.54925 0.03161 0.0
O321 O 0.8805 0.45999 0.98542 0.0
C322 C 0.24144 0.35841 0.94354 0.0
O323 O 0.22599 0.35285 0.00862 0.0
Cd324 Cd 0.25026 0.35132 0.13708 0.0
O325 O 0.27286 0.36532 0.94126 0.0
Cd326 Cd 0.31369 0.36749 0.0426 0.0
C327 C 0.25729 0.28377 0.07994 0.0
O328 O 0.31015 0.3807 0.17669 0.0
O329 O 0.33154 0.34681 0.14883 0.0
O330 O 0.35824 0.42647 0.02448 0.0
C331 C 0.32456 0.36328 0.19923 0.0
O332 O 0.24378 0.29501 0.12875 0.0
C333 C 0.38004 0.41848 -0.002 0.0
O334 O 0.28053 0.30392 0.03161 0.0
O335 O 0.36979 0.38646 0.98541 0.0
C336 C 0.64746 0.69174 0.77686 0.0
O337 O 0.65735 0.68617 0.84193 0.0
Cd338 Cd 0.63154 0.68463 0.97039 0.0
O339 O 0.62294 0.69865 0.77459 0.0
Cd340 Cd 0.58428 0.70082 0.87594 0.0
C341 C 0.55696 0.61709 0.91318 0.0
O342 O 0.60103 0.71402 0.01003 0.0
O343 O 0.54575 0.68014 0.98218 0.0
O344 O 0.59873 0.75981 0.85782 0.0
C345 C 0.56919 0.6966 0.03257 0.0
O346 O 0.5817 0.62832 0.96201 0.0
C347 C 0.56894 0.75182 0.83134 0.0
O348 O 0.55387 0.63725 0.8649 0.0
O349 O 0.54716 0.7198 0.81877 0.0
C350 C 0.13805 0.92168 0.77688 0.0
O351 O 0.14361 -0.06287 0.84196 0.0
Cd352 Cd 0.14515 0.91286 0.97041 0.0
O353 O 0.13113 0.89025 0.77461 0.0
Cd354 Cd 0.12896 0.84942 0.87595 0.0
C355 C 0.2127 0.90583 0.91318 0.0
O356 O 0.11576 0.85297 0.01005 0.0
O357 O 0.14964 0.83157 0.98218 0.0
O358 O 0.06997 0.80488 0.85783 0.0
C359 C 0.13318 0.83855 0.03257 0.0
O360 O 0.20146 0.91933 0.96202 0.0
C361 C 0.07797 0.78308 0.83135 0.0
O362 O 0.19253 0.88257 0.8649 0.0
O363 O 0.10998 0.79332 0.81877 0.0
C364 C -0.09189 0.18232 0.77685 0.0
O365 O 0.89266 0.17243 0.84193 0.0
Cd366 Cd -0.08308 0.19824 0.97038 0.0
O367 O -0.06047 0.20684 0.77458 0.0
Cd368 Cd -0.01964 0.2455 0.87593 0.0
C369 C -0.07605 0.27282 0.91318 0.0
O370 O -0.02319 0.22874 0.01003 0.0
O371 O -0.00179 0.28403 0.98218 0.0
O372 O 0.02491 0.23106 0.85782 0.0
C373 C -0.00878 0.26058 0.03257 0.0
O374 O -0.08956 0.24807 0.96201 0.0
C375 C 0.0467 0.26085 0.83134 0.0
O376 O -0.05279 0.27591 0.86491 0.0
O377 O 0.03646 0.28262 0.81877 0.0
C378 C 0.32435 0.01485 0.03702 0.0
O379 O 0.31878 0.02473 0.97194 0.0
Cd380 Cd 0.31726 -0.00107 0.84347 0.0
O381 O 0.33127 -0.00966 0.03929 0.0
Cd382 Cd 0.33345 -0.04832 0.93796 0.0
C383 C 0.24972 0.92434 0.90063 0.0
O384 O 0.34666 -0.03156 0.80387 0.0
O385 O 0.31278 0.91315 0.83172 0.0
O386 O 0.39243 -0.03388 0.95607 0.0
C387 C 0.32923 -0.0634 0.78133 0.0
O388 O 0.26096 -0.05092 0.85181 0.0
C389 C 0.38444 -0.06367 0.98257 0.0
O390 O 0.26988 0.92126 0.94896 0.0
O391 O 0.35242 0.91456 -0.00485 0.0
C392 C 0.81493 0.27546 0.03705 0.0
O393 O 0.80505 0.26 0.97197 0.0
Cd394 Cd 0.83084 0.28428 0.84351 0.0
O395 O 0.83944 0.30688 0.03933 0.0
Cd396 Cd 0.8781 0.34772 0.93798 0.0
C397 C -0.09456 0.29134 0.90063 0.0
O398 O 0.86134 0.34417 0.80389 0.0
O399 O -0.08338 0.36557 0.83173 0.0
O400 O 0.86366 0.39227 0.9561 0.0
C401 C 0.89317 0.35859 0.78134 0.0
O402 O 0.88069 0.27782 0.85183 0.0
C403 C 0.89345 0.41406 0.98257 0.0
O404 O -0.09148 0.31457 0.94896 0.0
O405 O -0.08478 0.40382 -0.00485 0.0
C406 C 0.55433 0.50543 0.03702 0.0
O407 O 0.56978 0.511 0.97194 0.0
Cd408 Cd 0.54551 0.51252 0.84348 0.0
O409 O 0.5229 0.49851 0.0393 0.0
Cd410 Cd 0.48206 0.49634 0.93796 0.0
C411 C 0.53844 0.58006 0.90062 0.0
O412 O 0.48561 0.48312 0.80387 0.0
O413 O 0.4642 0.517 0.83173 0.0
O414 O 0.43751 0.43735 0.95608 0.0
C415 C 0.47119 0.50055 0.78133 0.0
O416 O 0.55196 0.56883 0.8518 0.0
C417 C 0.41572 0.44535 0.98257 0.0
O418 O 0.51521 0.55991 0.94896 0.0
O419 O 0.42596 0.47736 -0.00485 0.0
C420 C 0.81494 0.50543 0.53704 0.0
O421 O 0.80505 0.511 0.47196 0.0
Cd422 Cd 0.83086 0.51253 0.34351 0.0
O423 O 0.83945 0.49852 0.53931 0.0
Cd424 Cd 0.87811 0.49634 0.43797 0.0
C425 C -0.09456 0.58007 0.40072 0.0
O426 O 0.86135 0.48313 0.30387 0.0
O427 O -0.08336 0.51701 0.33172 0.0
O428 O 0.86366 0.43735 0.45609 0.0
C429 C 0.89319 0.50056 0.28133 0.0
O430 O 0.8807 0.56884 0.35188 0.0
C431 C 0.89345 0.44535 0.48257 0.0
O432 O -0.09147 0.55991 0.44899 0.0
O433 O -0.08477 0.47736 0.49514 0.0
C434 C 0.32436 0.27546 0.53703 0.0
O435 O 0.3188 0.26001 0.47195 0.0
Cd436 Cd 0.31726 0.28428 0.3435 0.0
O437 O 0.33128 0.30689 0.5393 0.0
Cd438 Cd 0.33345 0.34772 0.43797 0.0
C439 C 0.24972 0.29132 0.40072 0.0
O440 O 0.34666 0.34418 0.30387 0.0
O441 O 0.31277 0.36558 0.33173 0.0
O442 O 0.39244 0.39227 0.45608 0.0
C443 C 0.32923 0.35859 0.28134 0.0
O444 O 0.26095 0.27781 0.35189 0.0
C445 C 0.38444 0.41406 0.48257 0.0
O446 O 0.26988 0.31458 0.449 0.0
O447 O 0.35243 0.40382 0.49515 0.0
C448 C 0.55433 0.01486 0.53705 0.0
O449 O 0.56978 0.02475 0.47197 0.0
Cd450 Cd 0.54551 -0.00106 0.34352 0.0
O451 O 0.5229 -0.00965 0.53932 0.0
Cd452 Cd 0.48207 -0.04831 0.43798 0.0
C453 C 0.53846 0.92435 0.40072 0.0
O454 O 0.48561 -0.03155 0.30388 0.0
O455 O 0.46421 0.91316 0.33174 0.0
O456 O 0.43752 -0.03387 0.45609 0.0
C457 C 0.4712 -0.06339 0.28135 0.0
O458 O 0.55197 -0.05091 0.35189 0.0
C459 C 0.41572 -0.06366 0.48257 0.0
O460 O 0.51521 0.92126 0.449 0.0
O461 O 0.42597 0.91457 0.49515 0.0
C462 C 0.13805 0.18233 0.27686 0.0
O463 O 0.14361 0.17243 0.34194 0.0
Cd464 Cd 0.14514 0.19823 0.47041 0.0
O465 O 0.13114 0.20685 0.27459 0.0
Cd466 Cd 0.12897 0.24551 0.37594 0.0
C467 C 0.21269 0.27282 0.41327 0.0
O468 O 0.11576 0.22875 0.51003 0.0
O469 O 0.14964 0.28403 0.48219 0.0
O470 O 0.06998 0.23107 0.35783 0.0
C471 C 0.13319 0.26058 0.53258 0.0
O472 O 0.20145 0.24807 0.46207 0.0
C473 C 0.07798 0.26085 0.33135 0.0
O474 O 0.19254 0.27592 0.36495 0.0
O475 O 0.10999 0.28263 0.31877 0.0
C476 C 0.64746 0.92168 0.27683 0.0
O477 O 0.65735 -0.06287 0.34191 0.0
Cd478 Cd 0.63156 0.91287 0.47038 0.0
O479 O 0.62294 0.89025 0.27457 0.0
Cd480 Cd 0.58428 0.84942 0.37593 0.0
C481 C 0.55697 0.90583 0.41326 0.0
O482 O 0.60105 0.85297 0.51002 0.0
O483 O 0.54576 0.83158 0.48218 0.0
O484 O 0.59872 0.80487 0.35781 0.0
C485 C 0.56921 0.83856 0.53256 0.0
O486 O 0.58172 0.91934 0.46206 0.0
C487 C 0.56893 0.78308 0.33134 0.0
O488 O 0.55387 0.88258 0.36494 0.0
O489 O 0.54716 0.79332 0.31877 0.0
C490 C -0.0919 0.69174 0.27687 0.0
O491 O 0.89265 0.68618 0.34195 0.0
Cd492 Cd -0.08308 0.68465 0.47041 0.0
O493 O -0.06047 0.69865 0.27459 0.0
Cd494 Cd -0.01964 0.70082 0.37593 0.0
C495 C -0.07604 0.6171 0.41327 0.0
O496 O -0.02319 0.71403 0.51003 0.0
O497 O -0.00179 0.68015 0.48217 0.0
O498 O 0.02491 0.75981 0.35782 0.0
C499 C -0.00878 0.69661 0.53257 0.0
O500 O -0.08955 0.62834 0.46208 0.0
C501 C 0.0467 0.75181 0.33134 0.0
O502 O -0.0528 0.63725 0.36494 0.0
O503 O 0.03646 0.7198 0.31876 0.0
loop_
_geom_bond_atom_site_label_1
_geom_bond_atom_site_label_2
_geom_bond_distance
_geom_bond_site_symmetry_2
_ccdc_geom_bond_type
C0 O1 1.306 . S
C0 O3 1.160 . S
O1 C0 1.306 . S
O1 Cd2 2.228 . S
Cd2 O1 2.228 . S
Cd2 O6 2.273 . S
Cd2 O10 2.277 . S
O3 C0 1.160 . S
O3 Cd4 2.203 . S
Cd4 O3 2.203 . S
Cd4 O6 2.411 . S
Cd4 O7 2.333 . S
Cd4 O8 2.352 . S
Cd4 O12 2.277 . S
Cd4 O13 2.356 . S
C5 O10 1.209 . S
C5 O12 1.226 . S
O6 Cd2 2.273 . S
O6 Cd4 2.411 . S
O6 C9 1.320 . S
O7 Cd4 2.333 . S
O7 C9 1.214 . S
O8 Cd4 2.352 . S
O8 C11 1.258 . S
C9 O6 1.320 . S
C9 O7 1.214 . S
O10 Cd2 2.277 . S
O10 C5 1.209 . S
C11 O8 1.258 . S
C11 O13 1.282 . S
O12 Cd4 2.277 . S
O12 C5 1.226 . S
O13 Cd4 2.356 . S
O13 C11 1.282 . S
C14 O15 1.306 . S
C14 O17 1.160 . S
O15 C14 1.306 . S
O15 Cd16 2.228 . S
Cd16 O15 2.228 . S
Cd16 O20 2.273 . S
Cd16 O24 2.277 . S
O17 C14 1.160 . S
O17 Cd18 2.203 . S
Cd18 O17 2.203 . S
Cd18 O20 2.411 . S
Cd18 O21 2.333 . S
Cd18 O22 2.352 . S
Cd18 O26 2.277 . S
Cd18 O27 2.356 . S
C19 O24 1.209 . S
C19 O26 1.226 . S
O20 Cd16 2.273 . S
O20 Cd18 2.411 . S
O20 C23 1.320 . S
O21 Cd18 2.333 . S
O21 C23 1.214 . S
O22 Cd18 2.352 . S
O22 C25 1.258 . S
C23 O20 1.320 . S
C23 O21 1.214 . S
O24 Cd16 2.277 . S
O24 C19 1.209 . S
C25 O22 1.258 . S
C25 O27 1.282 . S
O26 Cd18 2.277 . S
O26 C19 1.226 . S
O27 Cd18 2.356 . S
O27 C25 1.282 . S
C28 O29 1.306 . S
C28 O31 1.160 . S
O29 C28 1.306 . S
O29 Cd30 2.228 . S
Cd30 O29 2.228 . S
Cd30 O34 2.273 . S
Cd30 O38 2.277 . S
O31 C28 1.160 . S
O31 Cd32 2.203 . S
Cd32 O31 2.203 . S
Cd32 O34 2.411 . S
Cd32 O35 2.333 . S
Cd32 O36 2.352 . S
Cd32 O40 2.277 . S
Cd32 O41 2.356 . S
C33 O38 1.209 . S
C33 O40 1.226 . S
O34 Cd30 2.273 . S
O34 Cd32 2.411 . S
O34 C37 1.320 . S
O35 Cd32 2.333 . S
O35 C37 1.214 . S
O36 Cd32 2.352 . S
O36 C39 1.258 . S
C37 O34 1.320 . S
C37 O35 1.214 . S
O38 Cd30 2.277 . S
O38 C33 1.209 . S
C39 O36 1.258 . S
C39 O41 1.282 . S
O40 Cd32 2.277 . S
O40 C33 1.226 . S
O41 Cd32 2.356 . S
O41 C39 1.282 . S
C42 O43 1.306 . S
C42 O45 1.160 . S
O43 C42 1.306 . S
O43 Cd44 2.228 . S
Cd44 O43 2.228 . S
Cd44 O48 2.273 . S
Cd44 O52 2.277 . S
O45 C42 1.160 . S
O45 Cd46 2.203 . S
Cd46 O45 2.203 . S
Cd46 O48 2.411 . S
Cd46 O49 2.333 . S
Cd46 O50 2.352 . S
Cd46 O54 2.277 . S
Cd46 O55 2.356 . S
C47 O52 1.209 . S
C47 O54 1.226 . S
O48 Cd44 2.273 . S
O48 Cd46 2.411 . S
O48 C51 1.320 . S
O49 Cd46 2.333 . S
O49 C51 1.214 . S
O50 Cd46 2.352 . S
O50 C53 1.258 . S
C51 O48 1.320 . S
C51 O49 1.214 . S
O52 Cd44 2.277 . S
O52 C47 1.209 . S
C53 O50 1.258 . S
C53 O55 1.282 . S
O54 Cd46 2.277 . S
O54 C47 1.226 . S
O55 Cd46 2.356 . S
O55 C53 1.282 . S
C56 O57 1.306 . S
C56 O59 1.160 . S
O57 C56 1.306 . S
O57 Cd58 2.228 . S
Cd58 O57 2.228 . S
Cd58 O62 2.273 . S
Cd58 O66 2.277 . S
O59 C56 1.160 . S
O59 Cd60 2.203 . S
Cd60 O59 2.203 . S
Cd60 O62 2.411 . S
Cd60 O63 2.333 . S
Cd60 O64 2.352 . S
Cd60 O68 2.277 . S
Cd60 O69 2.356 . S
C61 O66 1.209 . S
C61 O68 1.226 . S
O62 Cd58 2.273 . S
O62 Cd60 2.411 . S
O62 C65 1.320 . S
O63 Cd60 2.333 . S
O63 C65 1.214 . S
O64 Cd60 2.352 . S
O64 C67 1.258 . S
C65 O62 1.320 . S
C65 O63 1.214 . S
O66 Cd58 2.277 . S
O66 C61 1.209 . S
C67 O64 1.258 . S
C67 O69 1.282 . S
O68 Cd60 2.277 . S
O68 C61 1.226 . S
O69 Cd60 2.356 . S
O69 C67 1.282 . S
C70 O71 1.306 . S
C70 O73 1.160 . S
O71 C70 1.306 . S
O71 Cd72 2.228 . S
Cd72 O71 2.228 . S
Cd72 O76 2.273 . S
Cd72 O80 2.277 . S
O73 C70 1.160 . S
O73 Cd74 2.203 . S
Cd74 O73 2.203 . S
Cd74 O76 2.411 . S
Cd74 O77 2.333 . S
Cd74 O78 2.352 . S
Cd74 O82 2.277 . S
Cd74 O83 2.356 . S
C75 O80 1.209 . S
C75 O82 1.226 . S
O76 Cd72 2.273 . S
O76 Cd74 2.411 . S
O76 C79 1.320 . S
O77 Cd74 2.333 . S
O77 C79 1.214 . S
O78 Cd74 2.352 . S
O78 C81 1.258 . S
C79 O76 1.320 . S
C79 O77 1.214 . S
O80 Cd72 2.277 . S
O80 C75 1.209 . S
C81 O78 1.258 . S
C81 O83 1.282 . S
O82 Cd74 2.277 . S
O82 C75 1.226 . S
O83 Cd74 2.356 . S
O83 C81 1.282 . S
C84 O85 1.306 . S
C84 O87 1.160 . S
O85 C84 1.306 . S
O85 Cd86 2.228 . S
Cd86 O85 2.228 . S
Cd86 O90 2.273 . S
Cd86 O94 2.277 . S
O87 C84 1.160 . S
O87 Cd88 2.203 . S
Cd88 O87 2.203 . S
Cd88 O90 2.411 . S
Cd88 O91 2.333 . S
Cd88 O92 2.352 . S
Cd88 O96 2.277 . S
Cd88 O97 2.356 . S
C89 O94 1.209 . S
C89 O96 1.226 . S
O90 Cd86 2.273 . S
O90 Cd88 2.411 . S
O90 C93 1.320 . S
O91 Cd88 2.333 . S
O91 C93 1.214 . S
O92 Cd88 2.352 . S
O92 C95 1.258 . S
C93 O90 1.320 . S
C93 O91 1.214 . S
O94 Cd86 2.277 . S
O94 C89 1.209 . S
C95 O92 1.258 . S
C95 O97 1.282 . S
O96 Cd88 2.277 . S
O96 C89 1.226 . S
O97 Cd88 2.356 . S
O97 C95 1.282 . S
C98 O99 1.306 . S
C98 O101 1.160 . S
O99 C98 1.306 . S
O99 Cd100 2.228 . S
Cd100 O99 2.228 . S
Cd100 O104 2.273 . S
Cd100 O108 2.277 . S
O101 C98 1.160 . S
O101 Cd102 2.203 . S
Cd102 O101 2.203 . S
Cd102 O104 2.411 . S
Cd102 O105 2.333 . S
Cd102 O106 2.352 . S
Cd102 O110 2.277 . S
Cd102 O111 2.356 . S
C103 O108 1.209 . S
C103 O110 1.226 . S
O104 Cd100 2.273 . S
O104 Cd102 2.411 . S
O104 C107 1.320 . S
O105 Cd102 2.333 . S
O105 C107 1.214 . S
O106 Cd102 2.352 . S
O106 C109 1.258 . S
C107 O104 1.320 . S
C107 O105 1.214 . S
O108 Cd100 2.277 . S
O108 C103 1.209 . S
C109 O106 1.258 . S
C109 O111 1.282 . S
O110 Cd102 2.277 . S
O110 C103 1.226 . S
O111 Cd102 2.356 . S
O111 C109 1.282 . S
C112 O113 1.306 . S
C112 O115 1.160 . S
O113 C112 1.306 . S
O113 Cd114 2.228 . S
Cd114 O113 2.228 . S
Cd114 O118 2.273 . S
Cd114 O122 2.277 . S
O115 C112 1.160 . S
O115 Cd116 2.203 . S
Cd116 O115 2.203 . S
Cd116 O118 2.411 . S
Cd116 O119 2.333 . S
Cd116 O120 2.352 . S
Cd116 O124 2.277 . S
Cd116 O125 2.356 . S
C117 O122 1.209 . S
C117 O124 1.226 . S
O118 Cd114 2.273 . S
O118 Cd116 2.411 . S
O118 C121 1.320 . S
O119 Cd116 2.333 . S
O119 C121 1.214 . S
O120 Cd116 2.352 . S
O120 C123 1.258 . S
C121 O118 1.320 . S
C121 O119 1.214 . S
O122 Cd114 2.277 . S
O122 C117 1.209 . S
C123 O120 1.258 . S
C123 O125 1.282 . S
O124 Cd116 2.277 . S
O124 C117 1.226 . S
O125 Cd116 2.356 . S
O125 C123 1.282 . S
C126 O127 1.306 . S
C126 O129 1.160 . S
O127 C126 1.306 . S
O127 Cd128 2.228 . S
Cd128 O127 2.228 . S
Cd128 O132 2.273 . S
Cd128 O136 2.277 . S
O129 C126 1.160 . S
O129 Cd130 2.203 . S
Cd130 O129 2.203 . S
Cd130 O132 2.411 . S
Cd130 O133 2.333 . S
Cd130 O134 2.352 . S
Cd130 O138 2.277 . S
Cd130 O139 2.356 . S
C131 O136 1.209 . S
C131 O138 1.226 . S
O132 Cd128 2.273 . S
O132 Cd130 2.411 . S
O132 C135 1.320 . S
O133 Cd130 2.333 . S
O133 C135 1.214 . S
O134 Cd130 2.352 . S
O134 C137 1.258 . S
C135 O132 1.320 . S
C135 O133 1.214 . S
O136 Cd128 2.277 . S
O136 C131 1.209 . S
C137 O134 1.258 . S
C137 O139 1.282 . S
O138 Cd130 2.277 . S
O138 C131 1.226 . S
O139 Cd130 2.356 . S
O139 C137 1.282 . S
C140 O141 1.306 . S
C140 O143 1.160 . S
O141 C140 1.306 . S
O141 Cd142 2.228 . S
Cd142 O141 2.228 . S
Cd142 O146 2.273 . S
Cd142 O150 2.277 . S
O143 C140 1.160 . S
O143 Cd144 2.203 . S
Cd144 O143 2.203 . S
Cd144 O146 2.411 . S
Cd144 O147 2.333 . S
Cd144 O148 2.352 . S
Cd144 O152 2.277 . S
Cd144 O153 2.356 . S
C145 O150 1.209 . S
C145 O152 1.226 . S
O146 Cd142 2.273 . S
O146 Cd144 2.411 . S
O146 C149 1.320 . S
O147 Cd144 2.333 . S
O147 C149 1.214 . S
O148 Cd144 2.352 . S
O148 C151 1.258 . S
C149 O146 1.320 . S
C149 O147 1.214 . S
O150 Cd142 2.277 . S
O150 C145 1.209 . S
C151 O148 1.258 . S
C151 O153 1.282 . S
O152 Cd144 2.277 . S
O152 C145 1.226 . S
O153 Cd144 2.356 . S
O153 C151 1.282 . S
C154 O155 1.306 . S
C154 O157 1.160 . S
O155 C154 1.306 . S
O155 Cd156 2.228 . S
Cd156 O155 2.228 . S
Cd156 O160 2.273 . S
Cd156 O164 2.277 . S
O157 C154 1.160 . S
O157 Cd158 2.203 . S
Cd158 O157 2.203 . S
Cd158 O160 2.411 . S
Cd158 O161 2.333 . S
Cd158 O162 2.352 . S
Cd158 O166 2.277 . S
Cd158 O167 2.356 . S
C159 O164 1.209 . S
C159 O166 1.226 . S
O160 Cd156 2.273 . S
O160 Cd158 2.411 . S
O160 C163 1.320 . S
O161 Cd158 2.333 . S
O161 C163 1.214 . S
O162 Cd158 2.352 . S
O162 C165 1.258 . S
C163 O160 1.320 . S
C163 O161 1.214 . S
O164 Cd156 2.277 . S
O164 C159 1.209 . S
C165 O162 1.258 . S
C165 O167 1.282 . S
O166 Cd158 2.277 . S
O166 C159 1.226 . S
O167 Cd158 2.356 . S
O167 C165 1.282 . S
C168 O169 1.306 . S
C168 O171 1.160 . S
O169 C168 1.306 . S
O169 Cd170 2.228 . S
Cd170 O169 2.228 . S
Cd170 O174 2.273 . S
Cd170 O178 2.277 . S
O171 C168 1.160 . S
O171 Cd172 2.203 . S
Cd172 O171 2.203 . S
Cd172 O174 2.411 . S
Cd172 O175 2.333 . S
Cd172 O176 2.352 . S
Cd172 O180 2.277 1_455 S
Cd172 O181 2.356 1_455 S
C173 O178 1.209 1_655 S
C173 O180 1.226 . S
O174 Cd170 2.273 . S
O174 Cd172 2.411 . S
O174 C177 1.320 . S
O175 Cd172 2.333 . S
O175 C177 1.214 . S
O176 Cd172 2.352 . S
O176 C179 1.258 . S
C177 O174 1.320 . S
C177 O175 1.214 . S
O178 Cd170 2.277 . S
O178 C173 1.209 1_455 S
C179 O176 1.258 . S
C179 O181 1.282 1_455 S
O180 Cd172 2.277 1_655 S
O180 C173 1.226 . S
O181 Cd172 2.356 1_655 S
O181 C179 1.282 1_655 S
C182 O183 1.306 . S
C182 O185 1.160 . S
O183 C182 1.306 . S
O183 Cd184 2.228 . S
Cd184 O183 2.228 . S
Cd184 O188 2.273 . S
Cd184 O192 2.277 . S
O185 C182 1.160 . S
O185 Cd186 2.203 . S
Cd186 O185 2.203 . S
Cd186 O188 2.411 . S
Cd186 O189 2.333 . S
Cd186 O190 2.352 . S
Cd186 O194 2.277 . S
Cd186 O195 2.356 . S
C187 O192 1.209 . S
C187 O194 1.226 . S
O188 Cd184 2.273 . S
O188 Cd186 2.411 . S
O188 C191 1.320 . S
O189 Cd186 2.333 . S
O189 C191 1.214 . S
O190 Cd186 2.352 . S
O190 C193 1.258 . S
C191 O188 1.320 . S
C191 O189 1.214 . S
O192 Cd184 2.277 . S
O192 C187 1.209 . S
C193 O190 1.258 . S
C193 O195 1.282 . S
O194 Cd186 2.277 . S
O194 C187 1.226 . S
O195 Cd186 2.356 . S
O195 C193 1.282 . S
C196 O197 1.306 . S
C196 O199 1.160 . S
O197 C196 1.306 . S
O197 Cd198 2.228 . S
Cd198 O197 2.228 . S
Cd198 O202 2.273 . S
Cd198 O206 2.277 . S
O199 C196 1.160 . S
O199 Cd200 2.203 . S
Cd200 O199 2.203 . S
Cd200 O202 2.411 . S
Cd200 O203 2.333 . S
Cd200 O204 2.352 . S
Cd200 O208 2.277 1_565 S
Cd200 O209 2.356 1_565 S
C201 O206 1.209 1_545 S
C201 O208 1.226 . S
O202 Cd198 2.273 . S
O202 Cd200 2.411 . S
O202 C205 1.320 . S
O203 Cd200 2.333 . S
O203 C205 1.214 . S
O204 Cd200 2.352 . S
O204 C207 1.258 . S
C205 O202 1.320 . S
C205 O203 1.214 . S
O206 Cd198 2.277 . S
O206 C201 1.209 1_565 S
C207 O204 1.258 . S
C207 O209 1.282 1_565 S
O208 Cd200 2.277 1_545 S
O208 C201 1.226 . S
O209 Cd200 2.356 1_545 S
O209 C207 1.282 1_545 S
C210 O211 1.306 . S
C210 O213 1.160 . S
O211 C210 1.306 . S
O211 Cd212 2.228 . S
Cd212 O211 2.228 . S
Cd212 O216 2.273 . S
Cd212 O220 2.277 . S
O213 C210 1.160 . S
O213 Cd214 2.203 . S
Cd214 O213 2.203 . S
Cd214 O216 2.411 . S
Cd214 O217 2.333 . S
Cd214 O218 2.352 . S
Cd214 O222 2.277 . S
Cd214 O223 2.356 . S
C215 O220 1.209 . S
C215 O222 1.226 . S
O216 Cd212 2.273 . S
O216 Cd214 2.411 . S
O216 C219 1.320 . S
O217 Cd214 2.333 . S
O217 C219 1.214 . S
O218 Cd214 2.352 . S
O218 C221 1.258 . S
C219 O216 1.320 . S
C219 O217 1.214 . S
O220 Cd212 2.277 . S
O220 C215 1.209 . S
C221 O218 1.258 . S
C221 O223 1.282 . S
O222 Cd214 2.277 . S
O222 C215 1.226 . S
O223 Cd214 2.356 . S
O223 C221 1.282 . S
C224 O225 1.306 1_545 S
C224 O227 1.160 . S
O225 C224 1.306 1_565 S
O225 Cd226 2.228 . S
Cd226 O225 2.228 . S
Cd226 O230 2.273 1_565 S
Cd226 O234 2.277 1_565 S
O227 C224 1.160 . S
O227 Cd228 2.203 . S
Cd228 O227 2.203 . S
Cd228 O230 2.411 . S
Cd228 O231 2.333 . S
Cd228 O232 2.352 . S
Cd228 O236 2.277 . S
Cd228 O237 2.356 . S
C229 O234 1.209 . S
C229 O236 1.226 . S
O230 Cd226 2.273 1_545 S
O230 Cd228 2.411 . S
O230 C233 1.320 . S
O231 Cd228 2.333 . S
O231 C233 1.214 . S
O232 Cd228 2.352 . S
O232 C235 1.258 . S
C233 O230 1.320 . S
C233 O231 1.214 . S
O234 Cd226 2.277 1_545 S
O234 C229 1.209 . S
C235 O232 1.258 . S
C235 O237 1.282 . S
O236 Cd228 2.277 . S
O236 C229 1.226 . S
O237 Cd228 2.356 . S
O237 C235 1.282 . S
C238 O239 1.306 1_655 S
C238 O241 1.160 . S
O239 C238 1.306 1_455 S
O239 Cd240 2.228 . S
Cd240 O239 2.228 . S
Cd240 O244 2.273 1_455 S
Cd240 O248 2.277 1_455 S
O241 C238 1.160 . S
O241 Cd242 2.203 . S
Cd242 O241 2.203 . S
Cd242 O244 2.411 . S
Cd242 O245 2.333 . S
Cd242 O246 2.352 . S
Cd242 O250 2.277 . S
Cd242 O251 2.356 . S
C243 O248 1.209 . S
C243 O250 1.226 . S
O244 Cd240 2.273 1_655 S
O244 Cd242 2.411 . S
O244 C247 1.320 . S
O245 Cd242 2.333 . S
O245 C247 1.214 . S
O246 Cd242 2.352 . S
O246 C249 1.258 . S
C247 O244 1.320 . S
C247 O245 1.214 . S
O248 Cd240 2.277 1_655 S
O248 C243 1.209 . S
C249 O246 1.258 . S
C249 O251 1.282 . S
O250 Cd242 2.277 . S
O250 C243 1.226 . S
O251 Cd242 2.356 . S
O251 C249 1.282 . S
C252 O253 1.306 . S
C252 O255 1.160 . S
O253 C252 1.306 . S
O253 Cd254 2.228 . S
Cd254 O253 2.228 . S
Cd254 O258 2.273 1_554 S
Cd254 O262 2.277 . S
O255 C252 1.160 . S
O255 Cd256 2.203 . S
Cd256 O255 2.203 . S
Cd256 O258 2.411 1_554 S
Cd256 O259 2.333 1_554 S
Cd256 O260 2.352 . S
Cd256 O264 2.277 . S
Cd256 O265 2.356 . S
C257 O262 1.209 . S
C257 O264 1.226 . S
O258 Cd254 2.273 1_556 S
O258 Cd256 2.411 1_556 S
O258 C261 1.320 . S
O259 Cd256 2.333 1_556 S
O259 C261 1.214 . S
O260 Cd256 2.352 . S
O260 C263 1.258 . S
C261 O258 1.320 . S
C261 O259 1.214 . S
O262 Cd254 2.277 . S
O262 C257 1.209 . S
C263 O260 1.258 . S
C263 O265 1.282 . S
O264 Cd256 2.277 . S
O264 C257 1.226 . S
O265 Cd256 2.356 . S
O265 C263 1.282 . S
C266 O267 1.306 1_545 S
C266 O269 1.160 . S
O267 C266 1.306 1_565 S
O267 Cd268 2.228 . S
Cd268 O267 2.228 . S
Cd268 O272 2.273 1_564 S
Cd268 O276 2.277 1_565 S
O269 C266 1.160 . S
O269 Cd270 2.203 . S
Cd270 O269 2.203 . S
Cd270 O272 2.411 1_554 S
Cd270 O273 2.333 1_554 S
Cd270 O274 2.352 . S
Cd270 O278 2.277 . S
Cd270 O279 2.356 . S
C271 O276 1.209 . S
C271 O278 1.226 . S
O272 Cd268 2.273 1_546 S
O272 Cd270 2.411 1_556 S
O272 C275 1.320 . S
O273 Cd270 2.333 1_556 S
O273 C275 1.214 . S
O274 Cd270 2.352 . S
O274 C277 1.258 . S
C275 O272 1.320 . S
C275 O273 1.214 . S
O276 Cd268 2.277 1_545 S
O276 C271 1.209 . S
C277 O274 1.258 . S
C277 O279 1.282 . S
O278 Cd270 2.277 . S
O278 C271 1.226 . S
O279 Cd270 2.356 . S
O279 C277 1.282 . S
C280 O281 1.306 1_655 S
C280 O283 1.160 . S
O281 C280 1.306 1_455 S
O281 Cd282 2.228 . S
Cd282 O281 2.228 . S
Cd282 O286 2.273 1_454 S
Cd282 O290 2.277 1_455 S
O283 C280 1.160 . S
O283 Cd284 2.203 . S
Cd284 O283 2.203 . S
Cd284 O286 2.411 1_554 S
Cd284 O287 2.333 1_554 S
Cd284 O288 2.352 . S
Cd284 O292 2.277 . S
Cd284 O293 2.356 . S
C285 O290 1.209 . S
C285 O292 1.226 . S
O286 Cd282 2.273 1_656 S
O286 Cd284 2.411 1_556 S
O286 C289 1.320 . S
O287 Cd284 2.333 1_556 S
O287 C289 1.214 . S
O288 Cd284 2.352 . S
O288 C291 1.258 . S
C289 O286 1.320 . S
C289 O287 1.214 . S
O290 Cd282 2.277 1_655 S
O290 C285 1.209 . S
C291 O288 1.258 . S
C291 O293 1.282 . S
O292 Cd284 2.277 . S
O292 C285 1.226 . S
O293 Cd284 2.356 . S
O293 C291 1.282 . S
C294 O295 1.306 1_556 S
C294 O297 1.160 . S
O295 C294 1.306 1_554 S
O295 Cd296 2.228 . S
Cd296 O295 2.228 . S
Cd296 O300 2.273 . S
Cd296 O304 2.277 . S
O297 C294 1.160 . S
O297 Cd298 2.203 1_556 S
Cd298 O297 2.203 1_554 S
Cd298 O300 2.411 . S
Cd298 O301 2.333 . S
Cd298 O302 2.352 . S
Cd298 O306 2.277 1_565 S
Cd298 O307 2.356 1_565 S
C299 O304 1.209 1_545 S
C299 O306 1.226 . S
O300 Cd296 2.273 . S
O300 Cd298 2.411 . S
O300 C303 1.320 . S
O301 Cd298 2.333 . S
O301 C303 1.214 . S
O302 Cd298 2.352 . S
O302 C305 1.258 . S
C303 O300 1.320 . S
C303 O301 1.214 . S
O304 Cd296 2.277 . S
O304 C299 1.209 1_565 S
C305 O302 1.258 . S
C305 O307 1.282 1_565 S
O306 Cd298 2.277 1_545 S
O306 C299 1.226 . S
O307 Cd298 2.356 1_545 S
O307 C305 1.282 1_545 S
C308 O309 1.306 1_556 S
C308 O311 1.160 . S
O309 C308 1.306 1_554 S
O309 Cd310 2.228 . S
Cd310 O309 2.228 . S
Cd310 O314 2.273 . S
Cd310 O318 2.277 . S
O311 C308 1.160 . S
O311 Cd312 2.203 1_556 S
Cd312 O311 2.203 1_554 S
Cd312 O314 2.411 . S
Cd312 O315 2.333 . S
Cd312 O316 2.352 . S
Cd312 O320 2.277 1_455 S
Cd312 O321 2.356 1_455 S
C313 O318 1.209 1_655 S
C313 O320 1.226 . S
O314 Cd310 2.273 . S
O314 Cd312 2.411 . S
O314 C317 1.320 . S
O315 Cd312 2.333 . S
O315 C317 1.214 . S
O316 Cd312 2.352 . S
O316 C319 1.258 . S
C317 O314 1.320 . S
C317 O315 1.214 . S
O318 Cd310 2.277 . S
O318 C313 1.209 1_455 S
C319 O316 1.258 . S
C319 O321 1.282 1_455 S
O320 Cd312 2.277 1_655 S
O320 C313 1.226 . S
O321 Cd312 2.356 1_655 S
O321 C319 1.282 1_655 S
C322 O323 1.306 1_556 S
C322 O325 1.160 . S
O323 C322 1.306 1_554 S
O323 Cd324 2.228 . S
Cd324 O323 2.228 . S
Cd324 O328 2.273 . S
Cd324 O332 2.277 . S
O325 C322 1.160 . S
O325 Cd326 2.203 1_556 S
Cd326 O325 2.203 1_554 S
Cd326 O328 2.411 . S
Cd326 O329 2.333 . S
Cd326 O330 2.352 . S
Cd326 O334 2.277 . S
Cd326 O335 2.356 . S
C327 O332 1.209 . S
C327 O334 1.226 . S
O328 Cd324 2.273 . S
O328 Cd326 2.411 . S
O328 C331 1.320 . S
O329 Cd326 2.333 . S
O329 C331 1.214 . S
O330 Cd326 2.352 . S
O330 C333 1.258 . S
C331 O328 1.320 . S
C331 O329 1.214 . S
O332 Cd324 2.277 . S
O332 C327 1.209 . S
C333 O330 1.258 . S
C333 O335 1.282 . S
O334 Cd326 2.277 . S
O334 C327 1.226 . S
O335 Cd326 2.356 . S
O335 C333 1.282 . S
C336 O337 1.306 . S
C336 O339 1.160 . S
O337 C336 1.306 . S
O337 Cd338 2.228 . S
Cd338 O337 2.228 . S
Cd338 O342 2.273 1_556 S
Cd338 O346 2.277 . S
O339 C336 1.160 . S
O339 Cd340 2.203 . S
Cd340 O339 2.203 . S
Cd340 O342 2.411 1_556 S
Cd340 O343 2.333 1_556 S
Cd340 O344 2.352 . S
Cd340 O348 2.277 . S
Cd340 O349 2.356 . S
C341 O346 1.209 . S
C341 O348 1.226 . S
O342 Cd338 2.273 1_554 S
O342 Cd340 2.411 1_554 S
O342 C345 1.320 . S
O343 Cd340 2.333 1_554 S
O343 C345 1.214 . S
O344 Cd340 2.352 . S
O344 C347 1.258 . S
C345 O342 1.320 . S
C345 O343 1.214 . S
O346 Cd338 2.277 . S
O346 C341 1.209 . S
C347 O344 1.258 . S
C347 O349 1.282 . S
O348 Cd340 2.277 . S
O348 C341 1.226 . S
O349 Cd340 2.356 . S
O349 C347 1.282 . S
C350 O351 1.306 1_565 S
C350 O353 1.160 . S
O351 C350 1.306 1_545 S
O351 Cd352 2.228 . S
Cd352 O351 2.228 . S
Cd352 O356 2.273 1_546 S
Cd352 O360 2.277 1_545 S
O353 C350 1.160 . S
O353 Cd354 2.203 . S
Cd354 O353 2.203 . S
Cd354 O356 2.411 1_556 S
Cd354 O357 2.333 1_556 S
Cd354 O358 2.352 . S
Cd354 O362 2.277 . S
Cd354 O363 2.356 . S
C355 O360 1.209 . S
C355 O362 1.226 . S
O356 Cd352 2.273 1_564 S
O356 Cd354 2.411 1_554 S
O356 C359 1.320 . S
O357 Cd354 2.333 1_554 S
O357 C359 1.214 . S
O358 Cd354 2.352 . S
O358 C361 1.258 . S
C359 O356 1.320 . S
C359 O357 1.214 . S
O360 Cd352 2.277 1_565 S
O360 C355 1.209 . S
C361 O358 1.258 . S
C361 O363 1.282 . S
O362 Cd354 2.277 . S
O362 C355 1.226 . S
O363 Cd354 2.356 . S
O363 C361 1.282 . S
C364 O365 1.306 1_455 S
C364 O367 1.160 . S
O365 C364 1.306 1_655 S
O365 Cd366 2.228 . S
Cd366 O365 2.228 . S
Cd366 O370 2.273 1_656 S
Cd366 O374 2.277 1_655 S
O367 C364 1.160 . S
O367 Cd368 2.203 . S
Cd368 O367 2.203 . S
Cd368 O370 2.411 1_556 S
Cd368 O371 2.333 1_556 S
Cd368 O372 2.352 . S
Cd368 O376 2.277 . S
Cd368 O377 2.356 . S
C369 O374 1.209 . S
C369 O376 1.226 . S
O370 Cd366 2.273 1_454 S
O370 Cd368 2.411 1_554 S
O370 C373 1.320 . S
O371 Cd368 2.333 1_554 S
O371 C373 1.214 . S
O372 Cd368 2.352 . S
O372 C375 1.258 . S
C373 O370 1.320 . S
C373 O371 1.214 . S
O374 Cd366 2.277 1_455 S
O374 C369 1.209 . S
C375 O372 1.258 . S
C375 O377 1.282 . S
O376 Cd368 2.277 . S
O376 C369 1.226 . S
O377 Cd368 2.356 . S
O377 C375 1.282 . S
C378 O379 1.306 1_554 S
C378 O381 1.160 . S
O379 C378 1.306 1_556 S
O379 Cd380 2.228 . S
Cd380 O379 2.228 . S
Cd380 O384 2.273 . S
Cd380 O388 2.277 . S
O381 C378 1.160 . S
O381 Cd382 2.203 1_554 S
Cd382 O381 2.203 1_556 S
Cd382 O384 2.411 . S
Cd382 O385 2.333 . S
Cd382 O386 2.352 . S
Cd382 O390 2.277 1_545 S
Cd382 O391 2.356 1_545 S
C383 O388 1.209 1_565 S
C383 O390 1.226 . S
O384 Cd380 2.273 . S
O384 Cd382 2.411 . S
O384 C387 1.320 . S
O385 Cd382 2.333 . S
O385 C387 1.214 . S
O386 Cd382 2.352 . S
O386 C389 1.258 . S
C387 O384 1.320 . S
C387 O385 1.214 . S
O388 Cd380 2.277 . S
O388 C383 1.209 1_545 S
C389 O386 1.258 . S
C389 O391 1.282 1_545 S
O390 Cd382 2.277 1_565 S
O390 C383 1.226 . S
O391 Cd382 2.356 1_565 S
O391 C389 1.282 1_565 S
C392 O393 1.306 1_554 S
C392 O395 1.160 . S
O393 C392 1.306 1_556 S
O393 Cd394 2.228 . S
Cd394 O393 2.228 . S
Cd394 O398 2.273 . S
Cd394 O402 2.277 . S
O395 C392 1.160 . S
O395 Cd396 2.203 1_554 S
Cd396 O395 2.203 1_556 S
Cd396 O398 2.411 . S
Cd396 O399 2.333 . S
Cd396 O400 2.352 . S
Cd396 O404 2.277 1_655 S
Cd396 O405 2.356 1_655 S
C397 O402 1.209 1_455 S
C397 O404 1.226 . S
O398 Cd394 2.273 . S
O398 Cd396 2.411 . S
O398 C401 1.320 . S
O399 Cd396 2.333 . S
O399 C401 1.214 . S
O400 Cd396 2.352 . S
O400 C403 1.258 . S
C401 O398 1.320 . S
C401 O399 1.214 . S
O402 Cd394 2.277 . S
O402 C397 1.209 1_655 S
C403 O400 1.258 . S
C403 O405 1.282 1_655 S
O404 Cd396 2.277 1_455 S
O404 C397 1.226 . S
O405 Cd396 2.356 1_455 S
O405 C403 1.282 1_455 S
C406 O407 1.306 1_554 S
C406 O409 1.160 . S
O407 C406 1.306 1_556 S
O407 Cd408 2.228 . S
Cd408 O407 2.228 . S
Cd408 O412 2.273 . S
Cd408 O416 2.277 . S
O409 C406 1.160 . S
O409 Cd410 2.203 1_554 S
Cd410 O409 2.203 1_556 S
Cd410 O412 2.411 . S
Cd410 O413 2.333 . S
Cd410 O414 2.352 . S
Cd410 O418 2.277 . S
Cd410 O419 2.356 . S
C411 O416 1.209 . S
C411 O418 1.226 . S
O412 Cd408 2.273 . S
O412 Cd410 2.411 . S
O412 C415 1.320 . S
O413 Cd410 2.333 . S
O413 C415 1.214 . S
O414 Cd410 2.352 . S
O414 C417 1.258 . S
C415 O412 1.320 . S
C415 O413 1.214 . S
O416 Cd408 2.277 . S
O416 C411 1.209 . S
C417 O414 1.258 . S
C417 O419 1.282 . S
O418 Cd410 2.277 . S
O418 C411 1.226 . S
O419 Cd410 2.356 . S
O419 C417 1.282 . S
C420 O421 1.306 . S
C420 O423 1.160 . S
O421 C420 1.306 . S
O421 Cd422 2.228 . S
Cd422 O421 2.228 . S
Cd422 O426 2.273 . S
Cd422 O430 2.277 . S
O423 C420 1.160 . S
O423 Cd424 2.203 . S
Cd424 O423 2.203 . S
Cd424 O426 2.411 . S
Cd424 O427 2.333 . S
Cd424 O428 2.352 . S
Cd424 O432 2.277 1_655 S
Cd424 O433 2.356 1_655 S
C425 O430 1.209 1_455 S
C425 O432 1.226 . S
O426 Cd422 2.273 . S
O426 Cd424 2.411 . S
O426 C429 1.320 . S
O427 Cd424 2.333 . S
O427 C429 1.214 . S
O428 Cd424 2.352 . S
O428 C431 1.258 . S
C429 O426 1.320 . S
C429 O427 1.214 . S
O430 Cd422 2.277 . S
O430 C425 1.209 1_655 S
C431 O428 1.258 . S
C431 O433 1.282 1_655 S
O432 Cd424 2.277 1_455 S
O432 C425 1.226 . S
O433 Cd424 2.356 1_455 S
O433 C431 1.282 1_455 S
C434 O435 1.306 . S
C434 O437 1.160 . S
O435 C434 1.306 . S
O435 Cd436 2.228 . S
Cd436 O435 2.228 . S
Cd436 O440 2.273 . S
Cd436 O444 2.277 . S
O437 C434 1.160 . S
O437 Cd438 2.203 . S
Cd438 O437 2.203 . S
Cd438 O440 2.411 . S
Cd438 O441 2.333 . S
Cd438 O442 2.352 . S
Cd438 O446 2.277 . S
Cd438 O447 2.356 . S
C439 O444 1.209 . S
C439 O446 1.226 . S
O440 Cd436 2.273 . S
O440 Cd438 2.411 . S
O440 C443 1.320 . S
O441 Cd438 2.333 . S
O441 C443 1.214 . S
O442 Cd438 2.352 . S
O442 C445 1.258 . S
C443 O440 1.320 . S
C443 O441 1.214 . S
O444 Cd436 2.277 . S
O444 C439 1.209 . S
C445 O442 1.258 . S
C445 O447 1.282 . S
O446 Cd438 2.277 . S
O446 C439 1.226 . S
O447 Cd438 2.356 . S
O447 C445 1.282 . S
C448 O449 1.306 . S
C448 O451 1.160 . S
O449 C448 1.306 . S
O449 Cd450 2.228 . S
Cd450 O449 2.228 . S
Cd450 O454 2.273 . S
Cd450 O458 2.277 . S
O451 C448 1.160 . S
O451 Cd452 2.203 . S
Cd452 O451 2.203 . S
Cd452 O454 2.411 . S
Cd452 O455 2.333 . S
Cd452 O456 2.352 . S
Cd452 O460 2.277 1_545 S
Cd452 O461 2.356 1_545 S
C453 O458 1.209 1_565 S
C453 O460 1.226 . S
O454 Cd450 2.273 . S
O454 Cd452 2.411 . S
O454 C457 1.320 . S
O455 Cd452 2.333 . S
O455 C457 1.214 . S
O456 Cd452 2.352 . S
O456 C459 1.258 . S
C457 O454 1.320 . S
C457 O455 1.214 . S
O458 Cd450 2.277 . S
O458 C453 1.209 1_545 S
C459 O456 1.258 . S
C459 O461 1.282 1_545 S
O460 Cd452 2.277 1_565 S
O460 C453 1.226 . S
O461 Cd452 2.356 1_565 S
O461 C459 1.282 1_565 S
C462 O463 1.306 . S
C462 O465 1.160 . S
O463 C462 1.306 . S
O463 Cd464 2.228 . S
Cd464 O463 2.228 . S
Cd464 O468 2.273 . S
Cd464 O472 2.277 . S
O465 C462 1.160 . S
O465 Cd466 2.203 . S
Cd466 O465 2.203 . S
Cd466 O468 2.411 . S
Cd466 O469 2.333 . S
Cd466 O470 2.352 . S
Cd466 O474 2.277 . S
Cd466 O475 2.356 . S
C467 O472 1.209 . S
C467 O474 1.226 . S
O468 Cd464 2.273 . S
O468 Cd466 2.411 . S
O468 C471 1.320 . S
O469 Cd466 2.333 . S
O469 C471 1.214 . S
O470 Cd466 2.352 . S
O470 C473 1.258 . S
C471 O468 1.320 . S
C471 O469 1.214 . S
O472 Cd464 2.277 . S
O472 C467 1.209 . S
C473 O470 1.258 . S
C473 O475 1.282 . S
O474 Cd466 2.277 . S
O474 C467 1.226 . S
O475 Cd466 2.356 . S
O475 C473 1.282 . S
C476 O477 1.306 1_565 S
C476 O479 1.160 . S
O477 C476 1.306 1_545 S
O477 Cd478 2.228 . S
Cd478 O477 2.228 . S
Cd478 O482 2.273 1_545 S
Cd478 O486 2.277 1_545 S
O479 C476 1.160 . S
O479 Cd480 2.203 . S
Cd480 O479 2.203 . S
Cd480 O482 2.411 . S
Cd480 O483 2.333 . S
Cd480 O484 2.352 . S
Cd480 O488 2.277 . S
Cd480 O489 2.356 . S
C481 O486 1.209 . S
C481 O488 1.226 . S
O482 Cd478 2.273 1_565 S
O482 Cd480 2.411 . S
O482 C485 1.320 . S
O483 Cd480 2.333 . S
O483 C485 1.214 . S
O484 Cd480 2.352 . S
O484 C487 1.258 . S
C485 O482 1.320 . S
C485 O483 1.214 . S
O486 Cd478 2.277 1_565 S
O486 C481 1.209 . S
C487 O484 1.258 . S
C487 O489 1.282 . S
O488 Cd480 2.277 . S
O488 C481 1.226 . S
O489 Cd480 2.356 . S
O489 C487 1.282 . S
C490 O491 1.306 1_455 S
C490 O493 1.160 . S
O491 C490 1.306 1_655 S
O491 Cd492 2.228 . S
Cd492 O491 2.228 . S
Cd492 O496 2.273 1_655 S
Cd492 O500 2.277 1_655 S
O493 C490 1.160 . S
O493 Cd494 2.203 . S
Cd494 O493 2.203 . S
Cd494 O496 2.411 . S
Cd494 O497 2.333 . S
Cd494 O498 2.352 . S
Cd494 O502 2.277 . S
Cd494 O503 2.356 . S
C495 O500 1.209 . S
C495 O502 1.226 . S
O496 Cd492 2.273 1_455 S
O496 Cd494 2.411 . S
O496 C499 1.320 . S
O497 Cd494 2.333 . S
O497 C499 1.214 . S
O498 Cd494 2.352 . S
O498 C501 1.258 . S
C499 O496 1.320 . S
C499 O497 1.214 . S
O500 Cd492 2.277 1_455 S
O500 C495 1.209 . S
C501 O498 1.258 . S
C501 O503 1.282 . S
O502 Cd494 2.277 . S
O502 C495 1.226 . S
O503 Cd494 2.356 . S
O503 C501 1.282 . S
C75 C5 0.874 1_565 S
C47 C19 0.874 1_455 S
C33 C61 0.874 . S
C89 C159 0.874 1_565 S
C103 C131 0.874 1_455 S
C145 C117 0.874 . S
C173 C243 0.874 . S
C187 C215 0.874 . S
C229 C201 0.874 . S
C327 C257 0.874 . S
C299 C271 0.874 . S
C285 C313 0.874 . S
C411 C341 0.874 . S
C383 C355 0.874 . S
C369 C397 0.874 . S
C495 C425 0.874 . S
C467 C439 0.874 . S
C481 C453 0.874 . S
C233 C9 2.695 . S
C247 C23 2.696 . S
C219 C37 2.696 . S
C51 C373 2.696 . S
C65 C345 2.696 . S
C79 C359 2.696 . S
C93 C485 2.695 . S
C499 C107 2.696 . S
C471 C121 2.696 . S
C289 C135 2.696 . S
C261 C149 2.696 . S
C163 C275 2.696 . S
C177 C401 2.695 1_455 S
C415 C191 2.696 . S
C387 C205 2.695 1_545 S
C303 C457 2.695 1_565 S
C429 C317 2.695 1_655 S
C331 C443 2.696 . S
C263 C11 1.586 . S
C277 C25 1.586 . S
C39 C291 1.586 . S
C53 C473 1.586 . S
C487 C67 1.586 . S
C501 C81 1.586 . S
C95 C347 1.586 . S
C109 C361 1.586 . S
C375 C123 1.586 . S
C137 C221 1.586 . S
C151 C235 1.586 . S
C249 C165 1.586 . S
C179 C431 1.586 1_455 S
C193 C445 1.586 . S
C459 C207 1.586 1_545 S
C389 C305 1.586 1_546 S
C319 C403 1.586 1_454 S
C333 C417 1.586 1_554 S
C378 C0 2.040 . S
C14 C392 2.040 . S
C406 C28 2.040 . S
C42 C168 2.040 . S
C182 C56 2.040 . S
C196 C70 2.040 . S
C84 C294 2.040 . S
C308 C98 2.040 . S
C112 C322 2.040 . S
C126 C420 2.040 . S
C140 C434 2.040 . S
C448 C154 2.040 . S
C210 C336 2.040 . S
C224 C350 2.040 1_545 S
C238 C364 2.040 1_655 S
C252 C462 2.040 . S
C266 C476 2.040 1_545 S
C490 C280 2.040 1_455 S
