# Generated by pormake.
# Topology nfb, (4)-cn, num edge types: 1
# Building blocks:
#     Node 0, Type 0, BuildingBlock: QUQFOY_clean_sbu_1, # of connection points: 4
#     Node 1, Type 0, BuildingBlock: QUQFOY_clean_sbu_1, # of connection points: 4
#     Node 2, Type 0, BuildingBlock: QUQFOY_clean_sbu_1, # of connection points: 4
#     Node 3, Type 0, BuildingBlock: QUQFOY_clean_sbu_1, # of connection points: 4
#     Node 4, Type 0, BuildingBlock: QUQFOY_clean_sbu_1, # of connection points: 4
#     Node 5, Type 0, BuildingBlock: QUQFOY_clean_sbu_1, # of connection points: 4
#     Node 6, Type 0, BuildingBlock: QUQFOY_clean_sbu_1, # of connection points: 4
#     Node 7, Type 0, BuildingBlock: QUQFOY_clean_sbu_1, # of connection points: 4
#     Node 8, Type 0, BuildingBlock: QUQFOY_clean_sbu_1, # of connection points: 4
#     Node 9, Type 0, BuildingBlock: QUQFOY_clean_sbu_1, # of connection points: 4
#     Node 10, Type 0, BuildingBlock: QUQFOY_clean_sbu_1, # of connection points: 4
#     Node 11, Type 0, BuildingBlock: QUQFOY_clean_sbu_1, # of connection points: 4
#     Node 12, Type 0, BuildingBlock: QUQFOY_clean_sbu_1, # of connection points: 4
#     Node 13, Type 0, BuildingBlock: QUQFOY_clean_sbu_1, # of connection points: 4
#     Node 14, Type 0, BuildingBlock: QUQFOY_clean_sbu_1, # of connection points: 4
#     Node 15, Type 0, BuildingBlock: QUQFOY_clean_sbu_1, # of connection points: 4
#     Node 16, Type 0, BuildingBlock: QUQFOY_clean_sbu_1, # of connection points: 4
#     Node 17, Type 0, BuildingBlock: QUQFOY_clean_sbu_1, # of connection points: 4
#     Node 18, Type 0, BuildingBlock: QUQFOY_clean_sbu_1, # of connection points: 4
#     Node 19, Type 0, BuildingBlock: QUQFOY_clean_sbu_1, # of connection points: 4
#     Node 20, Type 0, BuildingBlock: QUQFOY_clean_sbu_1, # of connection points: 4
#     Node 21, Type 0, BuildingBlock: QUQFOY_clean_sbu_1, # of connection points: 4
#     Node 22, Type 0, BuildingBlock: QUQFOY_clean_sbu_1, # of connection points: 4
#     Node 23, Type 0, BuildingBlock: QUQFOY_clean_sbu_1, # of connection points: 4
#     Node 24, Type 0, BuildingBlock: QUQFOY_clean_sbu_1, # of connection points: 4
#     Node 25, Type 0, BuildingBlock: QUQFOY_clean_sbu_1, # of connection points: 4
#     Node 26, Type 0, BuildingBlock: QUQFOY_clean_sbu_1, # of connection points: 4
#     Node 27, Type 0, BuildingBlock: QUQFOY_clean_sbu_1, # of connection points: 4
#     Node 28, Type 0, BuildingBlock: QUQFOY_clean_sbu_1, # of connection points: 4
#     Node 29, Type 0, BuildingBlock: QUQFOY_clean_sbu_1, # of connection points: 4
#     Node 30, Type 0, BuildingBlock: QUQFOY_clean_sbu_1, # of connection points: 4
#     Node 31, Type 0, BuildingBlock: QUQFOY_clean_sbu_1, # of connection points: 4
#     Node 32, Type 0, BuildingBlock: QUQFOY_clean_sbu_1, # of connection points: 4
#     Node 33, Type 0, BuildingBlock: QUQFOY_clean_sbu_1, # of connection points: 4
#     Node 34, Type 0, BuildingBlock: QUQFOY_clean_sbu_1, # of connection points: 4
#     Node 35, Type 0, BuildingBlock: QUQFOY_clean_sbu_1, # of connection points: 4
#     Node 36, Type 0, BuildingBlock: QUQFOY_clean_sbu_1, # of connection points: 4
#     Node 37, Type 0, BuildingBlock: QUQFOY_clean_sbu_1, # of connection points: 4
#     Node 38, Type 0, BuildingBlock: QUQFOY_clean_sbu_1, # of connection points: 4
#     Node 39, Type 0, BuildingBlock: QUQFOY_clean_sbu_1, # of connection points: 4
#     Node 40, Type 0, BuildingBlock: QUQFOY_clean_sbu_1, # of connection points: 4
#     Node 41, Type 0, BuildingBlock: QUQFOY_clean_sbu_1, # of connection points: 4
#     Node 42, Type 0, BuildingBlock: QUQFOY_clean_sbu_1, # of connection points: 4
#     Node 43, Type 0, BuildingBlock: QUQFOY_clean_sbu_1, # of connection points: 4
#     Node 44, Type 0, BuildingBlock: QUQFOY_clean_sbu_1, # of connection points: 4
#     Node 45, Type 0, BuildingBlock: QUQFOY_clean_sbu_1, # of connection points: 4
#     Node 46, Type 0, BuildingBlock: QUQFOY_clean_sbu_1, # of connection points: 4
#     Node 47, Type 0, BuildingBlock: QUQFOY_clean_sbu_1, # of connection points: 4
#     Edge 48, Type (0, 0), BuildingBlock: XIVTED_clean_linker_0, # of connection points: 2
#     Edge 49, Type (0, 0), BuildingBlock: XIVTED_clean_linker_0, # of connection points: 2
#     Edge 50, Type (0, 0), BuildingBlock: XIVTED_clean_linker_0, # of connection points: 2
#     Edge 51, Type (0, 0), BuildingBlock: XIVTED_clean_linker_0, # of connection points: 2
#     Edge 52, Type (0, 0), BuildingBlock: XIVTED_clean_linker_0, # of connection points: 2
#     Edge 53, Type (0, 0), BuildingBlock: XIVTED_clean_linker_0, # of connection points: 2
#     Edge 54, Type (0, 0), BuildingBlock: XIVTED_clean_linker_0, # of connection points: 2
#     Edge 55, Type (0, 0), BuildingBlock: XIVTED_clean_linker_0, # of connection points: 2
#     Edge 56, Type (0, 0), BuildingBlock: XIVTED_clean_linker_0, # of connection points: 2
#     Edge 57, Type (0, 0), BuildingBlock: XIVTED_clean_linker_0, # of connection points: 2
#     Edge 58, Type (0, 0), BuildingBlock: XIVTED_clean_linker_0, # of connection points: 2
#     Edge 59, Type (0, 0), BuildingBlock: XIVTED_clean_linker_0, # of connection points: 2
#     Edge 60, Type (0, 0), BuildingBlock: XIVTED_clean_linker_0, # of connection points: 2
#     Edge 61, Type (0, 0), BuildingBlock: XIVTED_clean_linker_0, # of connection points: 2
#     Edge 62, Type (0, 0), BuildingBlock: XIVTED_clean_linker_0, # of connection points: 2
#     Edge 63, Type (0, 0), BuildingBlock: XIVTED_clean_linker_0, # of connection points: 2
#     Edge 64, Type (0, 0), BuildingBlock: XIVTED_clean_linker_0, # of connection points: 2
#     Edge 65, Type (0, 0), BuildingBlock: XIVTED_clean_linker_0, # of connection points: 2
#     Edge 66, Type (0, 0), BuildingBlock: XIVTED_clean_linker_0, # of connection points: 2
#     Edge 67, Type (0, 0), BuildingBlock: XIVTED_clean_linker_0, # of connection points: 2
#     Edge 68, Type (0, 0), BuildingBlock: XIVTED_clean_linker_0, # of connection points: 2
#     Edge 69, Type (0, 0), BuildingBlock: XIVTED_clean_linker_0, # of connection points: 2
#     Edge 70, Type (0, 0), BuildingBlock: XIVTED_clean_linker_0, # of connection points: 2
#     Edge 71, Type (0, 0), BuildingBlock: XIVTED_clean_linker_0, # of connection points: 2
#     Edge 72, Type (0, 0), BuildingBlock: XIVTED_clean_linker_0, # of connection points: 2
#     Edge 73, Type (0, 0), BuildingBlock: XIVTED_clean_linker_0, # of connection points: 2
#     Edge 74, Type (0, 0), BuildingBlock: XIVTED_clean_linker_0, # of connection points: 2
#     Edge 75, Type (0, 0), BuildingBlock: XIVTED_clean_linker_0, # of connection points: 2
#     Edge 76, Type (0, 0), BuildingBlock: XIVTED_clean_linker_0, # of connection points: 2
#     Edge 77, Type (0, 0), BuildingBlock: XIVTED_clean_linker_0, # of connection points: 2
#     Edge 78, Type (0, 0), BuildingBlock: XIVTED_clean_linker_0, # of connection points: 2
#     Edge 79, Type (0, 0), BuildingBlock: XIVTED_clean_linker_0, # of connection points: 2
#     Edge 80, Type (0, 0), BuildingBlock: XIVTED_clean_linker_0, # of connection points: 2
#     Edge 81, Type (0, 0), BuildingBlock: XIVTED_clean_linker_0, # of connection points: 2
#     Edge 82, Type (0, 0), BuildingBlock: XIVTED_clean_linker_0, # of connection points: 2
#     Edge 83, Type (0, 0), BuildingBlock: XIVTED_clean_linker_0, # of connection points: 2
#     Edge 84, Type (0, 0), BuildingBlock: XIVTED_clean_linker_0, # of connection points: 2
#     Edge 85, Type (0, 0), BuildingBlock: XIVTED_clean_linker_0, # of connection points: 2
#     Edge 86, Type (0, 0), BuildingBlock: XIVTED_clean_linker_0, # of connection points: 2
#     Edge 87, Type (0, 0), BuildingBlock: XIVTED_clean_linker_0, # of connection points: 2
#     Edge 88, Type (0, 0), BuildingBlock: XIVTED_clean_linker_0, # of connection points: 2
#     Edge 89, Type (0, 0), BuildingBlock: XIVTED_clean_linker_0, # of connection points: 2
#     Edge 90, Type (0, 0), BuildingBlock: XIVTED_clean_linker_0, # of connection points: 2
#     Edge 91, Type (0, 0), BuildingBlock: XIVTED_clean_linker_0, # of connection points: 2
#     Edge 92, Type (0, 0), BuildingBlock: XIVTED_clean_linker_0, # of connection points: 2
#     Edge 93, Type (0, 0), BuildingBlock: XIVTED_clean_linker_0, # of connection points: 2
#     Edge 94, Type (0, 0), BuildingBlock: XIVTED_clean_linker_0, # of connection points: 2
#     Edge 95, Type (0, 0), BuildingBlock: XIVTED_clean_linker_0, # of connection points: 2
#     Edge 96, Type (0, 0), BuildingBlock: XIVTED_clean_linker_0, # of connection points: 2
#     Edge 97, Type (0, 0), BuildingBlock: XIVTED_clean_linker_0, # of connection points: 2
#     Edge 98, Type (0, 0), BuildingBlock: XIVTED_clean_linker_0, # of connection points: 2
#     Edge 99, Type (0, 0), BuildingBlock: XIVTED_clean_linker_0, # of connection points: 2
#     Edge 100, Type (0, 0), BuildingBlock: XIVTED_clean_linker_0, # of connection points: 2
#     Edge 101, Type (0, 0), BuildingBlock: XIVTED_clean_linker_0, # of connection points: 2
#     Edge 102, Type (0, 0), BuildingBlock: XIVTED_clean_linker_0, # of connection points: 2
#     Edge 103, Type (0, 0), BuildingBlock: XIVTED_clean_linker_0, # of connection points: 2
#     Edge 104, Type (0, 0), BuildingBlock: XIVTED_clean_linker_0, # of connection points: 2
#     Edge 105, Type (0, 0), BuildingBlock: XIVTED_clean_linker_0, # of connection points: 2
#     Edge 106, Type (0, 0), BuildingBlock: XIVTED_clean_linker_0, # of connection points: 2
#     Edge 107, Type (0, 0), BuildingBlock: XIVTED_clean_linker_0, # of connection points: 2
#     Edge 108, Type (0, 0), BuildingBlock: XIVTED_clean_linker_0, # of connection points: 2
#     Edge 109, Type (0, 0), BuildingBlock: XIVTED_clean_linker_0, # of connection points: 2
#     Edge 110, Type (0, 0), BuildingBlock: XIVTED_clean_linker_0, # of connection points: 2
#     Edge 111, Type (0, 0), BuildingBlock: XIVTED_clean_linker_0, # of connection points: 2
#     Edge 112, Type (0, 0), BuildingBlock: XIVTED_clean_linker_0, # of connection points: 2
#     Edge 113, Type (0, 0), BuildingBlock: XIVTED_clean_linker_0, # of connection points: 2
#     Edge 114, Type (0, 0), BuildingBlock: XIVTED_clean_linker_0, # of connection points: 2
#     Edge 115, Type (0, 0), BuildingBlock: XIVTED_clean_linker_0, # of connection points: 2
#     Edge 116, Type (0, 0), BuildingBlock: XIVTED_clean_linker_0, # of connection points: 2
#     Edge 117, Type (0, 0), BuildingBlock: XIVTED_clean_linker_0, # of connection points: 2
#     Edge 118, Type (0, 0), BuildingBlock: XIVTED_clean_linker_0, # of connection points: 2
#     Edge 119, Type (0, 0), BuildingBlock: XIVTED_clean_linker_0, # of connection points: 2
#     Edge 120, Type (0, 0), BuildingBlock: XIVTED_clean_linker_0, # of connection points: 2
#     Edge 121, Type (0, 0), BuildingBlock: XIVTED_clean_linker_0, # of connection points: 2
#     Edge 122, Type (0, 0), BuildingBlock: XIVTED_clean_linker_0, # of connection points: 2
#     Edge 123, Type (0, 0), BuildingBlock: XIVTED_clean_linker_0, # of connection points: 2
#     Edge 124, Type (0, 0), BuildingBlock: XIVTED_clean_linker_0, # of connection points: 2
#     Edge 125, Type (0, 0), BuildingBlock: XIVTED_clean_linker_0, # of connection points: 2
#     Edge 126, Type (0, 0), BuildingBlock: XIVTED_clean_linker_0, # of connection points: 2
#     Edge 127, Type (0, 0), BuildingBlock: XIVTED_clean_linker_0, # of connection points: 2
#     Edge 128, Type (0, 0), BuildingBlock: XIVTED_clean_linker_0, # of connection points: 2
#     Edge 129, Type (0, 0), BuildingBlock: XIVTED_clean_linker_0, # of connection points: 2
#     Edge 130, Type (0, 0), BuildingBlock: XIVTED_clean_linker_0, # of connection points: 2
#     Edge 131, Type (0, 0), BuildingBlock: XIVTED_clean_linker_0, # of connection points: 2
#     Edge 132, Type (0, 0), BuildingBlock: XIVTED_clean_linker_0, # of connection points: 2
#     Edge 133, Type (0, 0), BuildingBlock: XIVTED_clean_linker_0, # of connection points: 2
#     Edge 134, Type (0, 0), BuildingBlock: XIVTED_clean_linker_0, # of connection points: 2
#     Edge 135, Type (0, 0), BuildingBlock: XIVTED_clean_linker_0, # of connection points: 2
#     Edge 136, Type (0, 0), BuildingBlock: XIVTED_clean_linker_0, # of connection points: 2
#     Edge 137, Type (0, 0), BuildingBlock: XIVTED_clean_linker_0, # of connection points: 2
#     Edge 138, Type (0, 0), BuildingBlock: XIVTED_clean_linker_0, # of connection points: 2
#     Edge 139, Type (0, 0), BuildingBlock: XIVTED_clean_linker_0, # of connection points: 2
#     Edge 140, Type (0, 0), BuildingBlock: XIVTED_clean_linker_0, # of connection points: 2
#     Edge 141, Type (0, 0), BuildingBlock: XIVTED_clean_linker_0, # of connection points: 2
#     Edge 142, Type (0, 0), BuildingBlock: XIVTED_clean_linker_0, # of connection points: 2
#     Edge 143, Type (0, 0), BuildingBlock: XIVTED_clean_linker_0, # of connection points: 2
# Relax obj value: 0.337
# Max RMSD: 0.150
# Mean RMSD: 0.117
data_MOF--net-nfb--node1-QUQFOY_clean_sbu_1--edge1-XIVTED_clean_linker_0
_symmetry_space_group_name_H-M    P1
_symmetry_Int_Tables_number       1
_symmetry_cell_setting            triclinic
loop_
_symmetry_equiv_pos_as_xyz
'x, y, z'
_cell_length_a     59.535691
_cell_length_b     59.683468
_cell_length_c     59.945687
_cell_angle_alpha  91.025545
_cell_angle_beta   91.124614
_cell_angle_gamma 93.950118
loop_
_atom_site_label
_atom_site_type_symbol
_atom_site_fract_x
_atom_site_fract_y
_atom_site_fract_z
_atom_type_partial_charge
O0 O 0.16231 0.15501 0.40803 0.0
Cd1 Cd 0.1916 0.16773 0.42389 0.0
Cd2 Cd 0.20656 0.13444 0.39853 0.0
O3 O 0.17535 0.1345 0.38092 0.0
O4 O 0.17841 0.19013 0.44376 0.0
O5 O 0.20147 0.1998 0.41666 0.0
C6 C 0.18828 0.20572 0.43222 0.0
C7 C 0.24381 0.14836 0.39147 0.0
C8 C 0.15888 0.14328 0.39028 0.0
C9 C 0.20972 0.12774 0.44575 0.0
O10 O 0.20533 0.11675 0.42769 0.0
O11 O 0.20848 0.14891 0.44654 0.0
O12 O 0.2358 0.1292 0.38316 0.0
O13 O 0.22989 0.16066 0.40149 0.0
O14 O 0.3761 0.61925 0.91096 0.0
Cd15 Cd 0.37091 0.58589 0.91806 0.0
Cd16 Cd 0.3854 0.58315 0.87667 0.0
O17 O 0.39722 0.61746 0.88127 0.0
O18 O 0.36913 0.58711 0.9513 0.0
O19 O 0.39501 0.56936 0.93347 0.0
C20 C 0.38687 0.57592 0.952 0.0
C21 C 0.40257 0.54874 0.87322 0.0
C22 C 0.38789 0.62911 0.89619 0.0
C23 C 0.33597 0.57345 0.8846 0.0
O24 O 0.35116 0.57963 0.87094 0.0
O25 O 0.34092 0.5714 0.90517 0.0
O26 O 0.39973 0.56098 0.85591 0.0
O27 O 0.39769 0.55709 0.89237 0.0
O28 O 0.88586 0.88925 0.41168 0.0
Cd29 Cd 0.85705 0.88036 0.42903 0.0
Cd30 Cd 0.84367 0.9155 0.40531 0.0
O31 O 0.87372 0.91319 0.3874 0.0
O32 O 0.86914 0.85716 0.44845 0.0
O33 O 0.8417 0.84938 0.42371 0.0
C34 C 0.8552 0.84251 0.43883 0.0
C35 C 0.80555 0.90342 0.39796 0.0
C36 C 0.8895 0.90187 0.39511 0.0
C37 C 0.84573 0.92297 0.45293 0.0
O38 O 0.84813 0.93353 0.43487 0.0
O39 O 0.8459 0.90172 0.45311 0.0
O40 O 0.81418 0.92216 0.39023 0.0
O41 O 0.81912 0.89057 0.40782 0.0
O42 O 0.6738 0.41968 0.91348 0.0
Cd43 Cd 0.68215 0.45363 0.9146 0.0
Cd44 Cd 0.65495 0.45156 0.87832 0.0
O45 O 0.64422 0.41934 0.89064 0.0
O46 O 0.69541 0.46025 0.94527 0.0
O47 O 0.66301 0.47223 0.93365 0.0
C48 C 0.67767 0.47069 0.94949 0.0
C49 C 0.63873 0.48678 0.87755 0.0
C50 C 0.657 0.40899 0.90386 0.0
C51 C 0.70416 0.45938 0.87126 0.0
O52 O 0.68544 0.45152 0.86282 0.0
O53 O 0.70576 0.46494 0.89186 0.0
O54 O 0.63471 0.4723 0.86139 0.0
O55 O 0.65029 0.48056 0.89443 0.0
O56 O 0.16199 0.8989 0.63473 0.0
Cd57 Cd 0.1284 0.89741 0.62588 0.0
Cd58 Cd 0.12504 0.88986 0.66972 0.0
O59 O 0.16028 0.89838 0.67142 0.0
O60 O 0.1306 0.9065 0.59421 0.0
O61 O 0.11078 0.92438 0.61873 0.0
C62 C 0.11771 0.92233 0.59865 0.0
C63 C 0.09268 0.90872 0.67861 0.0
C64 C 0.17193 0.89923 0.65368 0.0
C65 C 0.11152 0.85134 0.63921 0.0
O66 O 0.11726 0.8572 0.65911 0.0
O67 O 0.11282 0.86554 0.62366 0.0
O68 O 0.10305 0.89787 0.69374 0.0
O69 O 0.10207 0.91067 0.65945 0.0
O70 O 0.61316 0.70431 0.13138 0.0
Cd71 Cd 0.62898 0.70613 0.16218 0.0
Cd72 Cd 0.66485 0.69436 0.14043 0.0
O73 O 0.64649 0.70978 0.11625 0.0
O74 O 0.62104 0.73474 0.17795 0.0
O75 O 0.65398 0.73085 0.16248 0.0
C76 C 0.64018 0.74389 0.17162 0.0
C77 C 0.70399 0.69694 0.13824 0.0
C78 C 0.62515 0.70968 0.1148 0.0
C79 C 0.64047 0.65915 0.16899 0.0
O80 O 0.65346 0.66374 0.15291 0.0
O81 O 0.62986 0.67472 0.17807 0.0
O82 O 0.69147 0.68531 0.12394 0.0
O83 O 0.69421 0.70825 0.15333 0.0
O84 O 0.91555 0.15455 0.64163 0.0
Cd85 Cd 0.94759 0.15728 0.62933 0.0
Cd86 Cd 0.95608 0.17488 0.67039 0.0
O87 O 0.92178 0.16609 0.67649 0.0
O88 O 0.9408 0.14347 0.59938 0.0
O89 O 0.96783 0.13236 0.62136 0.0
C90 C 0.95714 0.13085 0.60246 0.0
C91 C 0.98961 0.1582 0.68027 0.0
C92 C 0.90806 0.1594 0.66069 0.0
C93 C 0.96152 0.20663 0.63313 0.0
O94 O 0.96056 0.20507 0.65421 0.0
O95 O 0.95829 0.18926 0.62065 0.0
O96 O 0.98092 0.1723 0.69372 0.0
O97 O 0.97826 0.15231 0.66226 0.0
O98 O 0.41966 0.32314 0.12679 0.0
Cd99 Cd 0.40441 0.32234 0.15742 0.0
Cd100 Cd 0.37056 0.33426 0.13413 0.0
O101 O 0.38642 0.31569 0.11062 0.0
O102 O 0.41173 0.29383 0.17323 0.0
O103 O 0.37894 0.29814 0.15655 0.0
C104 C 0.39237 0.28498 0.16611 0.0
C105 C 0.33182 0.33578 0.13587 0.0
C106 C 0.40778 0.3165 0.10979 0.0
C107 C 0.39534 0.37008 0.16207 0.0
O108 O 0.38484 0.36519 0.14383 0.0
O109 O 0.40312 0.35435 0.17351 0.0
O110 O 0.34286 0.3435 0.11907 0.0
O111 O 0.34249 0.32489 0.15065 0.0
O112 O 0.39228 0.03849 0.15413 0.0
Cd113 Cd 0.4102 0.06807 0.1618 0.0
Cd114 Cd 0.38763 0.08267 0.12487 0.0
O115 O 0.37252 0.04901 0.12499 0.0
O116 O 0.42645 0.06188 0.19016 0.0
O117 O 0.40154 0.0875 0.18756 0.0
C118 C 0.41588 0.07752 0.1995 0.0
C119 C 0.37621 0.11767 0.13802 0.0
C120 C 0.37791 0.03379 0.13854 0.0
C121 C 0.43683 0.08517 0.12161 0.0
O122 O 0.41876 0.0871 0.11038 0.0
O123 O 0.43618 0.07859 0.14165 0.0
O124 O 0.36986 0.10996 0.1184 0.0
O125 O 0.38665 0.10443 0.15074 0.0
O126 O 0.35073 0.90268 0.66069 0.0
Cd127 Cd 0.3842 0.91295 0.661 0.0
Cd128 Cd 0.38632 0.87177 0.64673 0.0
O129 O 0.35181 0.87398 0.63721 0.0
O130 O 0.38364 0.9462 0.66374 0.0
O131 O 0.39739 0.92898 0.63456 0.0
C132 C 0.39246 0.94736 0.6443 0.0
C133 C 0.42114 0.87029 0.6288 0.0
C134 C 0.34045 0.88745 0.64861 0.0
C135 C 0.39994 0.88203 0.69367 0.0
O136 O 0.39073 0.86722 0.6803 0.0
O137 O 0.40258 0.90237 0.68776 0.0
O138 O 0.40828 0.85215 0.63137 0.0
O139 O 0.41297 0.88915 0.63394 0.0
O140 O 0.63026 0.9905 0.15079 0.0
Cd141 Cd 0.61317 0.96131 0.15966 0.0
Cd142 Cd 0.63981 0.94316 0.12733 0.0
O143 O 0.65383 0.97727 0.12652 0.0
O144 O 0.59705 0.96879 0.18746 0.0
O145 O 0.62397 0.94512 0.18634 0.0
C146 C 0.60939 0.95516 0.19771 0.0
C147 C 0.65251 0.9098 0.14259 0.0
C148 C 0.6463 0.99381 0.13734 0.0
C149 C 0.59034 0.93754 0.11927 0.0
O150 O 0.60948 0.93558 0.11069 0.0
O151 O 0.58866 0.9466 0.13845 0.0
O152 O 0.65872 0.91615 0.12298 0.0
O153 O 0.64155 0.92365 0.15418 0.0
O154 O 0.7311 0.15378 0.6719 0.0
Cd155 Cd 0.698 0.14175 0.67045 0.0
Cd156 Cd 0.6934 0.1837 0.66235 0.0
O157 O 0.72749 0.18433 0.65245 0.0
O158 O 0.70069 0.10877 0.66972 0.0
O159 O 0.68452 0.12676 0.64244 0.0
C160 C 0.69084 0.10822 0.65037 0.0
C161 C 0.6585 0.18605 0.64367 0.0
C162 C 0.74003 0.17055 0.66187 0.0
C163 C 0.68076 0.16783 0.70693 0.0
O164 O 0.68935 0.18448 0.69638 0.0
O165 O 0.6792 0.14839 0.69785 0.0
O166 O 0.67081 0.20407 0.64932 0.0
O167 O 0.66721 0.16701 0.64634 0.0
O168 O 0.38485 0.84559 0.86333 0.0
Cd169 Cd 0.3777 0.84381 0.89654 0.0
Cd170 Cd 0.42218 0.84272 0.90063 0.0
O171 O 0.42107 0.8549 0.86872 0.0
O172 O 0.35433 0.86635 0.90285 0.0
O173 O 0.38997 0.87123 0.9139 0.0
C174 C 0.37056 0.87945 0.91155 0.0
C175 C 0.45178 0.85757 0.92362 0.0
C176 C 0.40391 0.85224 0.8558 0.0
C177 C 0.39373 0.79899 0.90673 0.0
O178 O 0.4128 0.8092 0.9036 0.0
O179 O 0.37617 0.81019 0.90769 0.0
O180 O 0.45494 0.84332 0.90784 0.0
O181 O 0.4316 0.86329 0.92675 0.0
O182 O 0.55706 0.89996 0.40581 0.0
Cd183 Cd 0.58502 0.91965 0.39809 0.0
Cd184 Cd 0.60307 0.90011 0.43443 0.0
O185 O 0.57013 0.88332 0.43552 0.0
O186 O 0.57483 0.9341 0.37044 0.0
O187 O 0.60341 0.91245 0.37134 0.0
C188 C 0.59065 0.92493 0.36011 0.0
C189 C 0.63813 0.88871 0.42217 0.0
C190 C 0.55393 0.88663 0.42185 0.0
C191 C 0.60178 0.94922 0.43777 0.0
O192 O 0.60674 0.93204 0.44856 0.0
O193 O 0.59359 0.94724 0.41807 0.0
O194 O 0.63104 0.88382 0.4419 0.0
O195 O 0.62429 0.89781 0.40878 0.0
O196 O 0.66478 0.19317 0.88166 0.0
Cd197 Cd 0.6635 0.19493 0.9157 0.0
Cd198 Cd 0.61954 0.19689 0.90662 0.0
O199 O 0.62849 0.1844 0.87592 0.0
O200 O 0.68477 0.17244 0.9278 0.0
O201 O 0.64772 0.16741 0.92854 0.0
C202 C 0.66707 0.15927 0.9315 0.0
C203 C 0.58639 0.18249 0.92289 0.0
C204 C 0.6484 0.18686 0.86862 0.0
C205 C 0.64582 0.24018 0.92162 0.0
O206 O 0.62825 0.23035 0.9126 0.0
O207 O 0.66226 0.22863 0.92748 0.0
O208 O 0.58593 0.19557 0.90605 0.0
O209 O 0.60572 0.17735 0.93047 0.0
O210 O 0.49188 0.15301 0.40236 0.0
Cd211 Cd 0.46312 0.13387 0.39422 0.0
Cd212 Cd 0.44717 0.15417 0.43136 0.0
O213 O 0.48051 0.17031 0.43256 0.0
O214 O 0.4715 0.11836 0.36631 0.0
O215 O 0.44351 0.14071 0.36775 0.0
C216 C 0.45515 0.12735 0.35633 0.0
C217 C 0.41181 0.16513 0.41833 0.0
C218 C 0.49604 0.16645 0.41878 0.0
C219 C 0.4474 0.10512 0.43341 0.0
O220 O 0.44372 0.12254 0.44488 0.0
O221 O 0.45452 0.10682 0.41364 0.0
O222 O 0.41922 0.17071 0.43826 0.0
O223 O 0.4255 0.15568 0.40528 0.0
O224 O 0.10158 0.42362 0.17073 0.0
Cd225 Cd 0.11424 0.39286 0.17531 0.0
Cd226 Cd 0.15123 0.41407 0.16115 0.0
O227 O 0.13519 0.44175 0.17233 0.0
O228 O 0.10377 0.379 0.20472 0.0
O229 O 0.13772 0.39512 0.20016 0.0
C230 C 0.1231 0.38609 0.21345 0.0
C231 C 0.18897 0.4071 0.16648 0.0
C232 C 0.11379 0.44196 0.1719 0.0
C233 C 0.12608 0.38316 0.12795 0.0
O234 O 0.13955 0.40033 0.13132 0.0
O235 O 0.11532 0.37445 0.14435 0.0
O236 O 0.1832 0.42346 0.15432 0.0
O237 O 0.17348 0.3961 0.17729 0.0
O238 O 0.12757 0.61291 0.80523 0.0
Cd239 Cd 0.13014 0.60091 0.83731 0.0
Cd240 Cd 0.14708 0.64443 0.84476 0.0
O241 O 0.13712 0.64905 0.81111 0.0
O242 O 0.11441 0.57009 0.8367 0.0
O243 O 0.10527 0.5972 0.85956 0.0
C244 C 0.10279 0.57645 0.85327 0.0
C245 C 0.13226 0.65332 0.87992 0.0
C246 C 0.13134 0.63261 0.79769 0.0
C247 C 0.17928 0.60893 0.84982 0.0
O248 O 0.17725 0.62981 0.84747 0.0
O249 O 0.16226 0.59493 0.84805 0.0
O250 O 0.14551 0.66786 0.86993 0.0
O251 O 0.12591 0.63515 0.86893 0.0
O252 O 0.87703 0.66854 0.43805 0.0
Cd253 Cd 0.88577 0.63614 0.43437 0.0
Cd254 Cd 0.92465 0.65636 0.43093 0.0
O255 O 0.91077 0.68028 0.45091 0.0
O256 O 0.86792 0.61692 0.45683 0.0
O257 O 0.9038 0.62817 0.46144 0.0
C258 C 0.88577 0.61867 0.46962 0.0
C259 C 0.9575 0.63773 0.43456 0.0
C260 C 0.89005 0.68363 0.44772 0.0
C261 C 0.90356 0.64155 0.38841 0.0
O262 O 0.91529 0.65751 0.39819 0.0
O263 O 0.89222 0.62723 0.40025 0.0
O264 O 0.95834 0.65921 0.43189 0.0
O265 O 0.93814 0.62729 0.43739 0.0
O266 O 0.90593 0.43398 0.76296 0.0
Cd267 Cd 0.90051 0.44459 0.79528 0.0
Cd268 Cd 0.88711 0.39933 0.79966 0.0
O269 O 0.89785 0.39739 0.76606 0.0
O270 O 0.91279 0.47663 0.79879 0.0
O271 O 0.92393 0.44933 0.81979 0.0
C272 C 0.92414 0.47047 0.81588 0.0
C273 C 0.90346 0.39015 0.83443 0.0
C274 C 0.90355 0.41437 0.75409 0.0
C275 C 0.85173 0.43149 0.80577 0.0
O276 O 0.85547 0.41091 0.80316 0.0
O277 O 0.86753 0.44673 0.80411 0.0
O278 O 0.89138 0.37507 0.82288 0.0
O279 O 0.90787 0.40923 0.82517 0.0
O280 O 0.12822 0.41223 0.46779 0.0
Cd281 Cd 0.11542 0.39393 0.44108 0.0
Cd282 Cd 0.14226 0.42087 0.41704 0.0
O283 O 0.15931 0.42114 0.44938 0.0
O284 O 0.10868 0.36145 0.4486 0.0
O285 O 0.13823 0.37423 0.42959 0.0
C286 C 0.12711 0.35759 0.43857 0.0
C287 C 0.149 0.40758 0.38009 0.0
C288 C 0.1487 0.41961 0.46786 0.0
C289 C 0.09492 0.42814 0.41343 0.0
O290 O 0.11416 0.43874 0.41491 0.0
O291 O 0.0922 0.40813 0.42046 0.0
O292 O 0.15896 0.42621 0.38773 0.0
O293 O 0.13759 0.39553 0.39409 0.0
O294 O 0.89967 0.62633 0.20938 0.0
Cd295 Cd 0.89225 0.62154 0.17589 0.0
Cd296 Cd 0.91081 0.66598 0.17522 0.0
O297 O 0.92006 0.65879 0.20871 0.0
O298 O 0.88572 0.58827 0.16988 0.0
O299 O 0.91462 0.60815 0.15604 0.0
C300 C 0.90318 0.58922 0.15742 0.0
C301 C 0.9294 0.66699 0.14057 0.0
C302 C 0.9115 0.64204 0.21957 0.0
C303 C 0.86206 0.65872 0.1647 0.0
O304 O 0.87774 0.67282 0.17155 0.0
O305 O 0.86525 0.63785 0.16312 0.0
O306 O 0.92946 0.68503 0.15291 0.0
O307 O 0.92082 0.64874 0.14893 0.0
O308 O 0.92036 0.38588 0.50656 0.0
Cd309 Cd 0.93889 0.38315 0.53541 0.0
Cd310 Cd 0.91595 0.41965 0.5489 0.0
O311 O 0.90145 0.41517 0.51599 0.0
O312 O 0.95278 0.3535 0.5344 0.0
O313 O 0.92892 0.363 0.56011 0.0
C314 C 0.94222 0.34872 0.55247 0.0
C315 C 0.90169 0.41422 0.58515 0.0
C316 C 0.90644 0.4003 0.50151 0.0
C317 C 0.96589 0.42652 0.54814 0.0
O318 O 0.94769 0.43584 0.55151 0.0
O319 O 0.96554 0.40613 0.54164 0.0
O320 O 0.89836 0.43235 0.57438 0.0
O321 O 0.91056 0.39832 0.57429 0.0
O322 O 0.12201 0.65006 0.54868 0.0
Cd323 Cd 0.10496 0.65439 0.57759 0.0
Cd324 Cd 0.13508 0.62447 0.59321 0.0
O325 O 0.1491 0.62949 0.56091 0.0
O326 O 0.08839 0.68242 0.575 0.0
O327 O 0.11654 0.67855 0.59895 0.0
C328 C 0.10145 0.69078 0.59093 0.0
C329 C 0.14746 0.63349 0.63019 0.0
C330 C 0.13979 0.64003 0.54513 0.0
C331 C 0.08679 0.60952 0.59491 0.0
O332 O 0.10668 0.60311 0.59539 0.0
O333 O 0.08299 0.62929 0.58905 0.0
O334 O 0.15448 0.61627 0.61967 0.0
O335 O 0.13612 0.64708 0.61872 0.0
O336 O 0.92321 0.90806 0.65349 0.0
Cd337 Cd 0.89424 0.89408 0.63829 0.0
Cd338 Cd 0.88004 0.89697 0.68029 0.0
O339 O 0.911 0.91597 0.6871 0.0
O340 O 0.9005 0.89813 0.6059 0.0
O341 O 0.87278 0.91372 0.62296 0.0
C342 C 0.88394 0.91091 0.60507 0.0
C343 C 0.84135 0.90397 0.67789 0.0
C344 C 0.92692 0.91626 0.67302 0.0
C345 C 0.88598 0.85117 0.6622 0.0
O346 O 0.88469 0.8634 0.67961 0.0
O347 O 0.88732 0.85994 0.64303 0.0
O348 O 0.85109 0.90103 0.69703 0.0
O349 O 0.85406 0.90528 0.66071 0.0
O350 O 0.62772 0.46404 0.11419 0.0
Cd351 Cd 0.62603 0.45752 0.14782 0.0
Cd352 Cd 0.67412 0.4489 0.13203 0.0
O353 O 0.66124 0.47862 0.12306 0.0
O354 O 0.60797 0.48104 0.16249 0.0
O355 O 0.64505 0.48096 0.16567 0.0
C356 C 0.62696 0.49138 0.16873 0.0
C357 C 0.70816 0.44285 0.11545 0.0
C358 C 0.64494 0.47647 0.10913 0.0
C359 C 0.63889 0.41023 0.14785 0.0
O360 O 0.65647 0.41872 0.13863 0.0
O361 O 0.62439 0.423 0.15569 0.0
O362 O 0.68953 0.44121 0.10412 0.0
O363 O 0.70761 0.44835 0.13636 0.0
O364 O 0.15406 0.13518 0.64869 0.0
Cd365 Cd 0.17833 0.14719 0.62753 0.0
Cd366 Cd 0.19945 0.16209 0.66509 0.0
O367 O 0.16958 0.14863 0.68035 0.0
O368 O 0.16923 0.1316 0.59883 0.0
O369 O 0.20275 0.12936 0.61479 0.0
C370 C 0.18898 0.12411 0.59836 0.0
C371 C 0.23809 0.15557 0.66827 0.0
C372 C 0.1528 0.13882 0.66954 0.0
C373 C 0.18511 0.19689 0.63358 0.0
O374 O 0.19504 0.19288 0.65186 0.0
O375 O 0.17708 0.1809 0.62092 0.0
O376 O 0.22822 0.16649 0.68367 0.0
O377 O 0.22548 0.14624 0.65241 0.0
O378 O 0.42757 0.57314 0.12146 0.0
Cd379 Cd 0.41312 0.57408 0.15248 0.0
Cd380 Cd 0.37569 0.57524 0.12632 0.0
O381 O 0.39642 0.55533 0.10875 0.0
O382 O 0.42522 0.55015 0.17211 0.0
O383 O 0.39088 0.54767 0.15708 0.0
C384 C 0.40652 0.53825 0.16802 0.0
C385 C 0.33797 0.57173 0.11433 0.0
C386 C 0.41711 0.56112 0.10642 0.0
C387 C 0.39581 0.61855 0.14988 0.0
O388 O 0.3848 0.60877 0.13368 0.0
O389 O 0.407 0.60689 0.16327 0.0
O390 O 0.35363 0.58037 0.10209 0.0
O391 O 0.34374 0.56401 0.13342 0.0
O392 O 0.92141 0.16063 0.41691 0.0
Cd393 Cd 0.95525 0.16977 0.41906 0.0
Cd394 Cd 0.95649 0.12849 0.40099 0.0
O395 O 0.92217 0.13294 0.39215 0.0
O396 O 0.95688 0.2033 0.42383 0.0
O397 O 0.96826 0.18674 0.39324 0.0
C398 C 0.96467 0.20498 0.40395 0.0
C399 C 0.99134 0.13041 0.38253 0.0
C400 C 0.91097 0.14642 0.40372 0.0
C401 C 0.97076 0.13406 0.4481 0.0
O402 O 0.96107 0.1205 0.43379 0.0
O403 O 0.97344 0.15495 0.44401 0.0
O404 O 0.97883 0.11177 0.38244 0.0
O405 O 0.98291 0.14793 0.39089 0.0
O406 O 0.40289 0.38061 0.90822 0.0
Cd407 Cd 0.38804 0.35521 0.92665 0.0
Cd408 Cd 0.37477 0.33972 0.88589 0.0
O409 O 0.39398 0.36822 0.87404 0.0
O410 O 0.4017 0.36208 0.95686 0.0
O411 O 0.40435 0.32958 0.93931 0.0
C412 C 0.40878 0.34219 0.9567 0.0
C413 C 0.37947 0.30046 0.88448 0.0
C414 C 0.40303 0.38349 0.88727 0.0
C415 C 0.33888 0.35513 0.91581 0.0
O416 O 0.34376 0.34852 0.89632 0.0
O417 O 0.35395 0.35741 0.93115 0.0
O418 O 0.37073 0.31043 0.86773 0.0
O419 O 0.38708 0.31303 0.90109 0.0
O420 O 0.1295 0.89377 0.41951 0.0
Cd421 Cd 0.09588 0.88541 0.42399 0.0
Cd422 Cd 0.09336 0.92336 0.40156 0.0
O423 O 0.12675 0.91738 0.39191 0.0
O424 O 0.09566 0.8539 0.43499 0.0
O425 O 0.08083 0.8627 0.40251 0.0
C426 C 0.08601 0.84748 0.4163 0.0
C427 C 0.05702 0.91742 0.38487 0.0
C428 C 0.13886 0.90565 0.40447 0.0
C429 C 0.08295 0.9254 0.44907 0.0
O430 O 0.09182 0.93666 0.43332 0.0
O431 O 0.07953 0.90416 0.44709 0.0
O432 O 0.06892 0.9361 0.38197 0.0
O433 O 0.06669 0.90176 0.39509 0.0
O434 O 0.63738 0.65558 0.91069 0.0
Cd435 Cd 0.65163 0.68215 0.92886 0.0
Cd436 Cd 0.66048 0.69854 0.88829 0.0
O437 O 0.64193 0.66835 0.8767 0.0
O438 O 0.64166 0.67332 0.95916 0.0
O439 O 0.63306 0.70502 0.94375 0.0
C440 C 0.63152 0.69162 0.96032 0.0
C441 C 0.65339 0.7372 0.89124 0.0
C442 C 0.63527 0.65259 0.88976 0.0
C443 C 0.70018 0.68715 0.91548 0.0
O444 O 0.69336 0.69298 0.89633 0.0
O445 O 0.68633 0.68338 0.9311 0.0
O446 O 0.6586 0.72839 0.87229 0.0
O447 O 0.65011 0.72371 0.90764 0.0
O448 O 0.66235 0.95041 0.86969 0.0
Cd449 Cd 0.66701 0.94587 0.90324 0.0
Cd450 Cd 0.62372 0.95534 0.90642 0.0
O451 O 0.6254 0.94637 0.87296 0.0
O452 O 0.6844 0.91783 0.90831 0.0
O453 O 0.64759 0.9183 0.91132 0.0
C454 C 0.66512 0.90677 0.91063 0.0
C455 C 0.59249 0.94147 0.92604 0.0
C456 C 0.64277 0.94734 0.86087 0.0
C457 C 0.65826 0.99125 0.92332 0.0
O458 O 0.6381 0.98589 0.91702 0.0
O459 O 0.67315 0.9768 0.92174 0.0
O460 O 0.59103 0.95748 0.91207 0.0
O461 O 0.6118 0.93339 0.92907 0.0
O462 O 0.72917 0.12995 0.39116 0.0
Cd463 Cd 0.69494 0.12662 0.38494 0.0
Cd464 Cd 0.69485 0.14304 0.42764 0.0
O465 O 0.7296 0.15117 0.42174 0.0
O466 O 0.69115 0.11959 0.35221 0.0
O467 O 0.68045 0.15071 0.36804 0.0
C468 C 0.68205 0.13847 0.35032 0.0
C469 C 0.66238 0.16382 0.42731 0.0
C470 C 0.74017 0.14162 0.40618 0.0
C471 C 0.67583 0.09713 0.42146 0.0
O472 O 0.68636 0.11018 0.43567 0.0
O473 O 0.67545 0.10206 0.40089 0.0
O474 O 0.67455 0.16282 0.44536 0.0
O475 O 0.67004 0.15519 0.40937 0.0
O476 O 0.38834 0.08909 0.85508 0.0
Cd477 Cd 0.37435 0.0921 0.88594 0.0
Cd478 Cd 0.41576 0.08469 0.902 0.0
O479 O 0.42294 0.09117 0.86907 0.0
O480 O 0.35367 0.11776 0.88399 0.0
O481 O 0.38643 0.12063 0.90204 0.0
C482 C 0.36929 0.13039 0.89428 0.0
C483 C 0.44294 0.10132 0.92671 0.0
C484 C 0.40947 0.09111 0.85237 0.0
C485 C 0.37881 0.04768 0.90838 0.0
O486 O 0.39954 0.05436 0.90985 0.0
O487 O 0.3645 0.06083 0.90073 0.0
O488 O 0.44628 0.08315 0.91575 0.0
O489 O 0.42353 0.10949 0.92462 0.0
O490 O 0.31968 0.91837 0.39023 0.0
Cd491 Cd 0.3538 0.92273 0.38463 0.0
Cd492 Cd 0.35566 0.90844 0.42753 0.0
O493 O 0.32088 0.89944 0.42152 0.0
O494 O 0.3568 0.92818 0.35187 0.0
O495 O 0.36919 0.89853 0.36844 0.0
C496 C 0.36682 0.90974 0.35049 0.0
C497 C 0.38825 0.88796 0.4285 0.0
C498 C 0.3095 0.90755 0.40557 0.0
C499 C 0.37284 0.95476 0.42109 0.0
O500 O 0.36375 0.94177 0.43538 0.0
O501 O 0.37241 0.94907 0.40051 0.0
O502 O 0.37634 0.88991 0.44619 0.0
O503 O 0.38028 0.8955 0.41016 0.0
O504 O 0.61388 0.23014 0.15921 0.0
Cd505 Cd 0.61079 0.19664 0.16697 0.0
Cd506 Cd 0.62577 0.19244 0.12451 0.0
O507 O 0.63466 0.2275 0.12929 0.0
O508 O 0.60567 0.19528 0.1999 0.0
O509 O 0.63605 0.18372 0.18391 0.0
C510 C 0.62479 0.18648 0.20175 0.0
C511 C 0.6461 0.15972 0.12605 0.0
C512 C 0.62551 0.23958 0.14402 0.0
C513 C 0.57993 0.17432 0.13123 0.0
O514 O 0.59245 0.18359 0.11663 0.0
O515 O 0.58565 0.17581 0.1518 0.0
O516 O 0.6447 0.1706 0.10764 0.0
O517 O 0.63817 0.1688 0.14363 0.0
O518 O 0.48526 0.14842 0.64091 0.0
Cd519 Cd 0.45621 0.13066 0.65015 0.0
Cd520 Cd 0.44667 0.1717 0.66422 0.0
O521 O 0.47681 0.18311 0.64844 0.0
O522 O 0.46146 0.10018 0.63851 0.0
O523 O 0.43195 0.11837 0.62837 0.0
C524 C 0.44277 0.1004 0.62743 0.0
C525 C 0.40787 0.17347 0.65597 0.0
C526 C 0.4907 0.16938 0.64123 0.0
C527 C 0.45099 0.13894 0.6996 0.0
O528 O 0.4515 0.15982 0.69576 0.0
O529 O 0.4512 0.12475 0.68358 0.0
O530 O 0.41954 0.19036 0.66527 0.0
O531 O 0.41876 0.15675 0.64909 0.0
O532 O 0.41597 0.79815 0.16576 0.0
Cd533 Cd 0.42625 0.83132 0.17108 0.0
Cd534 Cd 0.40177 0.83553 0.131 0.0
O535 O 0.39315 0.80064 0.13644 0.0
O536 O 0.43513 0.83538 0.20356 0.0
O537 O 0.40645 0.85107 0.18774 0.0
C538 C 0.41844 0.84796 0.20536 0.0
C539 C 0.38061 0.86771 0.13203 0.0
C540 C 0.4023 0.7888 0.15133 0.0
C541 C 0.45164 0.84793 0.13102 0.0
O542 O 0.43364 0.84401 0.11942 0.0
O543 O 0.45198 0.84478 0.15195 0.0
O544 O 0.38076 0.85534 0.11409 0.0
O545 O 0.39027 0.86038 0.14961 0.0
O546 O 0.59405 0.90716 0.63732 0.0
Cd547 Cd 0.62295 0.92457 0.64923 0.0
Cd548 Cd 0.63313 0.88282 0.65867 0.0
O549 O 0.60329 0.87216 0.64027 0.0
O550 O 0.61742 0.95565 0.64032 0.0
O551 O 0.64681 0.93813 0.62912 0.0
C552 C 0.63582 0.956 0.6294 0.0
C553 C 0.67232 0.88284 0.65268 0.0
C554 C 0.58901 0.88624 0.63464 0.0
C555 C 0.62752 0.9124 0.6975 0.0
O556 O 0.62709 0.89201 0.69102 0.0
O557 O 0.62787 0.92804 0.68339 0.0
O558 O 0.66103 0.86511 0.65969 0.0
O559 O 0.66095 0.89949 0.64667 0.0
O560 O 0.91137 0.63243 0.97298 0.0
Cd561 Cd 0.89791 0.62045 0.94345 0.0
Cd562 Cd 0.90948 0.66198 0.92747 0.0
O563 O 0.92837 0.66296 0.95867 0.0
O564 O 0.89768 0.58662 0.9398 0.0
O565 O 0.92161 0.61049 0.92322 0.0
C566 C 0.91408 0.5901 0.92619 0.0
C567 C 0.91502 0.65612 0.88843 0.0
C568 C 0.92447 0.65007 0.97534 0.0
C569 C 0.86168 0.65266 0.93236 0.0
O570 O 0.877 0.66856 0.93213 0.0
O571 O 0.8667 0.63228 0.93417 0.0
O572 O 0.92137 0.67525 0.89794 0.0
O573 O 0.9075 0.64043 0.90126 0.0
O574 O 0.90999 0.41604 1.00606 0.0
Cd575 Cd 0.89788 0.42954 0.03475 0.0
Cd576 Cd 0.89517 0.3848 0.04824 0.0
O577 O 0.90822 0.38023 1.01554 0.0
O578 O 0.9043 0.463 0.0353 0.0
O579 O 0.91752 0.4405 0.06054 0.0
C580 C 0.91498 0.46058 0.05395 0.0
C581 C 0.90942 0.38219 0.08522 0.0
C582 C 0.91229 0.39552 1.00108 0.0
C583 C 0.85222 0.40761 0.04611 0.0
O584 O 0.86131 0.38927 0.04934 0.0
O585 O 0.86386 0.42505 0.04019 0.0
O586 O 0.90222 0.36427 0.07404 0.0
O587 O 0.91109 0.40071 0.07446 0.0
O588 O 0.11752 0.38712 0.69969 0.0
Cd589 Cd 0.11832 0.38123 0.66573 0.0
Cd590 Cd 0.13662 0.42318 0.66605 0.0
O591 O 0.14324 0.41558 0.70024 0.0
O592 O 0.1118 0.34843 0.65911 0.0
O593 O 0.14529 0.36623 0.65515 0.0
C594 C 0.13256 0.34792 0.65344 0.0
C595 C 0.15722 0.42443 0.63258 0.0
C596 C 0.13091 0.4009 0.71071 0.0
C597 C 0.09363 0.41836 0.64506 0.0
O598 O 0.10465 0.43194 0.65838 0.0
O599 O 0.09849 0.39797 0.64373 0.0
O600 O 0.15752 0.44187 0.64578 0.0
O601 O 0.1478 0.40595 0.6398 0.0
O602 O 0.12215 0.62033 0.05056 0.0
Cd603 Cd 0.12999 0.60398 0.07955 0.0
Cd604 Cd 0.14919 0.64608 0.09115 0.0
O605 O 0.13396 0.6551 0.06065 0.0
O606 O 0.11356 0.57345 0.07869 0.0
O607 O 0.10859 0.5991 0.10476 0.0
C608 C 0.10468 0.57884 0.09731 0.0
C609 C 0.14115 0.65034 0.12941 0.0
C610 C 0.12519 0.64107 0.04598 0.0
C611 C 0.18077 0.61063 0.08618 0.0
O612 O 0.17906 0.63173 0.08686 0.0
O613 O 0.16332 0.59709 0.08486 0.0
O614 O 0.15151 0.66664 0.1189 0.0
O615 O 0.13355 0.63308 0.11767 0.0
O616 O 0.88542 0.67283 0.67661 0.0
Cd617 Cd 0.88893 0.63952 0.68238 0.0
Cd618 Cd 0.929 0.64904 0.66943 0.0
O619 O 0.92192 0.68035 0.6819 0.0
O620 O 0.87493 0.63026 0.71203 0.0
O621 O 0.91141 0.6375 0.70781 0.0
C622 C 0.89489 0.63333 0.72105 0.0
C623 C 0.96187 0.6309 0.67481 0.0
C624 C 0.90214 0.68701 0.67978 0.0
C625 C 0.89838 0.62603 0.63561 0.0
O626 O 0.91504 0.64022 0.63887 0.0
O627 O 0.88619 0.61988 0.65211 0.0
O628 O 0.96202 0.64985 0.66481 0.0
O629 O 0.9434 0.62306 0.6835 0.0
O630 O 0.09956 0.4251 0.92539 0.0
Cd631 Cd 0.11253 0.39407 0.92516 0.0
Cd632 Cd 0.15112 0.41978 0.92214 0.0
O633 O 0.13155 0.44479 0.93344 0.0
O634 O 0.09736 0.37455 0.94911 0.0
O635 O 0.13226 0.38939 0.952 0.0
C636 C 0.11554 0.37848 0.96119 0.0
C637 C 0.18856 0.41569 0.93313 0.0
C638 C 0.11025 0.44376 0.9304 0.0
C639 C 0.13286 0.39515 0.87995 0.0
O640 O 0.14554 0.41075 0.8892 0.0
O641 O 0.11914 0.38323 0.89188 0.0
O642 O 0.18314 0.4325 0.92146 0.0
O643 O 0.17255 0.40219 0.94014 0.0
O644 O 0.11813 0.6577 0.30418 0.0
Cd645 Cd 0.10373 0.65965 0.33488 0.0
Cd646 Cd 0.13253 0.62592 0.34447 0.0
O647 O 0.14192 0.6315 0.31065 0.0
O648 O 0.08599 0.68683 0.3343 0.0
O649 O 0.11485 0.68323 0.35743 0.0
C650 C 0.09875 0.69491 0.35054 0.0
C651 C 0.15058 0.63475 0.37914 0.0
C652 C 0.1332 0.64529 0.29738 0.0
C653 C 0.08382 0.61463 0.35083 0.0
O654 O 0.10315 0.60692 0.35055 0.0
O655 O 0.08108 0.63467 0.34519 0.0
O656 O 0.15488 0.61676 0.36809 0.0
O657 O 0.13854 0.64886 0.36913 0.0
O658 O 0.93815 0.37608 0.26137 0.0
Cd659 Cd 0.95252 0.37528 0.29282 0.0
Cd660 Cd 0.92285 0.40905 0.30143 0.0
O661 O 0.91412 0.40229 0.26704 0.0
O662 O 0.96842 0.34686 0.29583 0.0
O663 O 0.9395 0.35516 0.31623 0.0
C664 C 0.95494 0.34175 0.31184 0.0
C665 C 0.90326 0.40308 0.33499 0.0
C666 C 0.92311 0.38833 0.25396 0.0
C667 C 0.97223 0.42078 0.30919 0.0
O668 O 0.95256 0.42776 0.30877 0.0
O669 O 0.97554 0.40077 0.30322 0.0
O670 O 0.90041 0.42075 0.32334 0.0
O671 O 0.9148 0.38784 0.32614 0.0
H672 H 0.11203 0.31992 0.46093 0.0
H673 H 0.20324 0.24275 0.40877 0.0
H674 H 0.16274 0.34422 0.41507 0.0
H675 H 0.15936 0.22204 0.46222 0.0
H676 H 0.18885 0.28016 0.41082 0.0
H677 H 0.12864 0.28352 0.46093 0.0
C678 C 0.12656 0.31756 0.45078 0.0
C679 C 0.13599 0.3351 0.43797 0.0
C680 C 0.18253 0.26747 0.42223 0.0
C681 C 0.15518 0.29363 0.43799 0.0
C682 C 0.19084 0.24615 0.42113 0.0
C683 C 0.18244 0.22922 0.43527 0.0
C684 C 0.16561 0.27179 0.43745 0.0
C685 C 0.16629 0.23455 0.45093 0.0
C686 C 0.13614 0.29684 0.45088 0.0
C687 C 0.15492 0.33116 0.42522 0.0
N688 N 0.15827 0.25529 0.45146 0.0
N689 N 0.16386 0.31085 0.42552 0.0
H690 H 0.31946 0.58529 0.84408 0.0
H691 H 0.18967 0.57164 0.87271 0.0
H692 H 0.29813 0.55992 0.9079 0.0
H693 H 0.21968 0.62755 0.83652 0.0
H694 H 0.22748 0.55865 0.87972 0.0
H695 H 0.2804 0.59111 0.83436 0.0
C696 C 0.30655 0.58049 0.85591 0.0
C697 C 0.31214 0.57243 0.87702 0.0
C698 C 0.22564 0.57369 0.87019 0.0
C699 C 0.26745 0.57905 0.86584 0.0
C700 C 0.2042 0.58108 0.86616 0.0
C701 C 0.20168 0.60076 0.85415 0.0
C702 C 0.24444 0.58575 0.86156 0.0
C703 C 0.22095 0.61243 0.84603 0.0
C704 C 0.2843 0.58398 0.85035 0.0
C705 C 0.29459 0.56641 0.89155 0.0
N706 N 0.24154 0.60465 0.84976 0.0
N707 N 0.27294 0.57 0.88574 0.0
H708 H 0.82892 0.80665 0.42125 0.0
H709 H 0.84676 0.6958 0.44357 0.0
H710 H 0.8836 0.82373 0.46821 0.0
H711 H 0.91393 0.72232 0.46229 0.0
H712 H 0.83408 0.73372 0.44511 0.0
H713 H 0.83382 0.76694 0.42722 0.0
C714 C 0.84166 0.80204 0.43314 0.0
C715 C 0.85594 0.81851 0.44414 0.0
C716 C 0.85161 0.73131 0.44875 0.0
C717 C 0.86149 0.77308 0.45139 0.0
C718 C 0.85884 0.7096 0.44813 0.0
C719 C 0.88158 0.70591 0.45235 0.0
C720 C 0.86728 0.74951 0.45347 0.0
C721 C 0.89633 0.72439 0.45863 0.0
C722 C 0.84434 0.77931 0.43672 0.0
C723 C 0.87225 0.81159 0.45929 0.0
N724 N 0.88895 0.74544 0.45878 0.0
N725 N 0.87478 0.78941 0.46223 0.0
H726 H 0.84095 0.47113 0.8247 0.0
H727 H 0.70979 0.43616 0.83235 0.0
H728 H 0.81129 0.40659 0.8016 0.0
H729 H 0.74538 0.48152 0.87992 0.0
H730 H 0.74523 0.43124 0.81353 0.0
H731 H 0.80414 0.48074 0.83779 0.0
C732 C 0.82665 0.45907 0.82215 0.0
C733 C 0.8292 0.43794 0.81217 0.0
C734 C 0.74517 0.44245 0.82793 0.0
C735 C 0.78711 0.44899 0.82693 0.0
C736 C 0.72497 0.44542 0.8386 0.0
C737 C 0.72469 0.45915 0.85786 0.0
C738 C 0.76514 0.45356 0.83636 0.0
C739 C 0.74489 0.47065 0.86524 0.0
C740 C 0.80571 0.46456 0.8297 0.0
C741 C 0.81009 0.42297 0.80936 0.0
N742 N 0.76436 0.46755 0.8545 0.0
N743 N 0.7898 0.42879 0.81672 0.0
H744 H 0.11976 0.70929 0.62956 0.0
H745 H 0.09277 0.8336 0.60016 0.0
H746 H 0.07874 0.72448 0.57235 0.0
H747 H 0.11602 0.8148 0.66544 0.0
H748 H 0.08684 0.79386 0.58968 0.0
H749 H 0.11834 0.74797 0.643 0.0
C750 C 0.11038 0.72077 0.61986 0.0
C751 C 0.09951 0.71377 0.59971 0.0
C752 C 0.09296 0.79844 0.60638 0.0
C753 C 0.09789 0.75807 0.61496 0.0
C754 C 0.09639 0.82112 0.61237 0.0
C755 C 0.10512 0.82753 0.63364 0.0
C756 C 0.09859 0.78208 0.62166 0.0
C757 C 0.10936 0.81063 0.64884 0.0
C758 C 0.10947 0.74282 0.62761 0.0
C759 C 0.08741 0.72926 0.58794 0.0
N760 N 0.10634 0.78868 0.64245 0.0
N761 N 0.08713 0.7508 0.59561 0.0
H762 H 0.72814 0.6708 0.11129 0.0
H763 H 0.84542 0.69894 0.17591 0.0
H764 H 0.73583 0.71876 0.16618 0.0
H765 H 0.82811 0.63664 0.1399 0.0
H766 H 0.80793 0.71119 0.1669 0.0
H767 H 0.76775 0.66352 0.1156 0.0
C768 C 0.73823 0.68007 0.12406 0.0
C769 C 0.7286 0.69525 0.13858 0.0
C770 C 0.81244 0.6949 0.16091 0.0
C771 C 0.77394 0.68686 0.1436 0.0
C772 C 0.8338 0.6879 0.16599 0.0
C773 C 0.83982 0.66665 0.15876 0.0
C774 C 0.79716 0.68069 0.14825 0.0
C775 C 0.82411 0.65305 0.14598 0.0
C776 C 0.76081 0.67578 0.12656 0.0
C777 C 0.74255 0.70681 0.15474 0.0
N778 N 0.80349 0.66031 0.14111 0.0
N779 N 0.76455 0.70226 0.15692 0.0
H780 H 0.97415 0.21592 0.59064 0.0
H781 H 0.9283 0.3378 0.59426 0.0
H782 H 0.95314 0.24757 0.65134 0.0
H783 H 0.96563 0.31313 0.539 0.0
H784 H 0.9364 0.30444 0.61514 0.0
H785 H 0.97133 0.25132 0.57139 0.0
C786 C 0.96925 0.23043 0.6 0.0
C787 C 0.96372 0.22879 0.62258 0.0
C788 C 0.94288 0.30636 0.59848 0.0
C789 C 0.96006 0.26922 0.60054 0.0
C790 C 0.93811 0.3253 0.58647 0.0
C791 C 0.94619 0.32815 0.5648 0.0
C792 C 0.95564 0.29004 0.58868 0.0
C793 C 0.95899 0.31154 0.55563 0.0
C794 C 0.96762 0.25062 0.58898 0.0
C795 C 0.95758 0.24813 0.63392 0.0
N796 N 0.96323 0.29312 0.56758 0.0
N797 N 0.9556 0.26749 0.62268 0.0
H798 H 0.30478 0.3264 0.17163 0.0
H799 H 0.22296 0.42166 0.13928 0.0
H800 H 0.30716 0.36203 0.10955 0.0
H801 H 0.20635 0.3731 0.18996 0.0
H802 H 0.25719 0.40288 0.1318 0.0
H803 H 0.27049 0.34476 0.181 0.0
C804 C 0.29788 0.33773 0.15979 0.0
C805 C 0.30889 0.34274 0.13981 0.0
C806 C 0.24613 0.39641 0.14467 0.0
C807 C 0.27023 0.3642 0.15071 0.0
C808 C 0.22671 0.4073 0.14913 0.0
C809 C 0.2117 0.39884 0.16516 0.0
C810 C 0.25066 0.37701 0.15639 0.0
C811 C 0.21743 0.38011 0.17738 0.0
C812 C 0.27844 0.34833 0.16524 0.0
C813 C 0.29929 0.35767 0.12517 0.0
N814 N 0.23643 0.36971 0.17265 0.0
N815 N 0.28067 0.36805 0.13102 0.0
H816 H 0.44633 0.06062 0.22801 0.0
H817 H 0.42104 0.1423 0.33027 0.0
H818 H 0.39695 0.1102 0.22408 0.0
H819 H 0.47608 0.09882 0.32906 0.0
H820 H 0.41079 0.1302 0.29192 0.0
H821 H 0.4559 0.07338 0.26601 0.0
C822 C 0.43742 0.07414 0.23519 0.0
C823 C 0.42084 0.08439 0.22288 0.0
C824 C 0.42516 0.12342 0.30006 0.0
C825 C 0.43181 0.09919 0.26638 0.0
C826 C 0.43104 0.13034 0.3219 0.0
C827 C 0.44942 0.12152 0.33284 0.0
C828 C 0.43771 0.10752 0.28925 0.0
C829 C 0.46177 0.10604 0.32128 0.0
C830 C 0.44295 0.08149 0.25688 0.0
C831 C 0.40984 0.10185 0.23302 0.0
N832 N 0.45563 0.09948 0.30016 0.0
N833 N 0.41555 0.10874 0.25423 0.0
H834 H 0.38971 0.84196 0.7134 0.0
H835 H 0.43576 0.87927 0.83491 0.0
H836 H 0.42206 0.90804 0.72663 0.0
H837 H 0.37725 0.83367 0.82216 0.0
H838 H 0.43848 0.88537 0.79455 0.0
H839 H 0.39365 0.83358 0.75284 0.0
C840 C 0.39792 0.85462 0.72453 0.0
C841 C 0.40525 0.87588 0.71679 0.0
C842 C 0.42515 0.87399 0.80071 0.0
C843 C 0.40978 0.8663 0.76187 0.0
C844 C 0.42359 0.87049 0.82361 0.0
C845 C 0.40615 0.85609 0.83178 0.0
C846 C 0.40946 0.86258 0.78605 0.0
C847 C 0.3908 0.8451 0.81654 0.0
C848 C 0.40006 0.84983 0.74703 0.0
C849 C 0.41592 0.89154 0.73198 0.0
N850 N 0.39288 0.84851 0.79438 0.0
N851 N 0.41776 0.88648 0.75393 0.0
H852 H 0.58001 0.9734 0.22609 0.0
H853 H 0.62208 0.90792 0.33282 0.0
H854 H 0.63288 0.92741 0.22385 0.0
H855 H 0.56678 0.9511 0.33299 0.0
H856 H 0.62707 0.91531 0.2931 0.0
H857 H 0.57572 0.96597 0.26568 0.0
C858 C 0.59074 0.96175 0.23394 0.0
C859 C 0.60682 0.951 0.22169 0.0
C860 C 0.61385 0.92313 0.30187 0.0
C861 C 0.60199 0.94239 0.26699 0.0
C862 C 0.611 0.91892 0.3245 0.0
C863 C 0.59398 0.9289 0.33618 0.0
C864 C 0.59961 0.93744 0.29094 0.0
C865 C 0.5801 0.94303 0.32464 0.0
C866 C 0.58827 0.95749 0.25655 0.0
C867 C 0.62027 0.93606 0.23271 0.0
N868 N 0.58324 0.94688 0.30268 0.0
N869 N 0.61755 0.93219 0.25477 0.0
H870 H 0.68462 0.2033 0.84566 0.0
H871 H 0.65305 0.13963 0.73141 0.0
H872 H 0.6217 0.16327 0.83716 0.0
H873 H 0.69297 0.20284 0.73536 0.0
H874 H 0.64392 0.14422 0.77091 0.0
H875 H 0.69114 0.19901 0.80586 0.0
C876 C 0.67222 0.19349 0.83543 0.0
C877 C 0.65258 0.18361 0.84469 0.0
C878 C 0.65453 0.15711 0.76299 0.0
C879 C 0.66001 0.17864 0.79919 0.0
C880 C 0.6598 0.15449 0.74056 0.0
C881 C 0.67385 0.17085 0.73018 0.0
C882 C 0.66378 0.17596 0.77511 0.0
C883 C 0.68206 0.18983 0.7427 0.0
C884 C 0.67589 0.1912 0.81271 0.0
C885 C 0.63702 0.17121 0.83062 0.0
N886 N 0.67711 0.19174 0.7646 0.0
N887 N 0.64114 0.16892 0.80849 0.0
H888 H 0.87366 0.81738 0.63183 0.0
H889 H 0.92842 0.72174 0.69907 0.0
H890 H 0.90152 0.82967 0.69831 0.0
H891 H 0.86871 0.70717 0.65792 0.0
H892 H 0.92375 0.76202 0.69506 0.0
H893 H 0.87668 0.77688 0.63692 0.0
C894 C 0.8804 0.81155 0.64744 0.0
C895 C 0.88725 0.82679 0.66472 0.0
C896 C 0.91164 0.74993 0.68705 0.0
C897 C 0.8911 0.78096 0.67042 0.0
C898 C 0.9143 0.72704 0.6893 0.0
C899 C 0.89885 0.7112 0.67891 0.0
C900 C 0.89379 0.75691 0.67383 0.0
C901 C 0.88086 0.71889 0.66637 0.0
C902 C 0.88202 0.78855 0.65036 0.0
C903 C 0.89586 0.81843 0.68464 0.0
N904 N 0.87895 0.74126 0.66395 0.0
N905 N 0.89776 0.79607 0.68688 0.0
H906 H 0.82273 0.43694 0.03024 0.0
H907 H 0.7456 0.42713 0.13499 0.0
H908 H 0.829 0.38416 0.07778 0.0
H909 H 0.71829 0.44649 0.07153 0.0
H910 H 0.77951 0.41622 0.11612 0.0
H911 H 0.78649 0.44487 0.04638 0.0
C912 C 0.81628 0.42679 0.0438 0.0
C913 C 0.82878 0.40984 0.05267 0.0
C914 C 0.76604 0.42284 0.10639 0.0
C915 C 0.78803 0.41931 0.07157 0.0
C916 C 0.74687 0.42926 0.11714 0.0
C917 C 0.72924 0.43769 0.10474 0.0
C918 C 0.76771 0.4254 0.08324 0.0
C919 C 0.73155 0.43996 0.08162 0.0
C920 C 0.79571 0.43135 0.053 0.0
C921 C 0.81978 0.39724 0.07034 0.0
N922 N 0.75057 0.43402 0.07159 0.0
N923 N 0.8001 0.4025 0.0795 0.0
H924 H 0.14945 0.21161 0.61001 0.0
H925 H 0.17669 0.33939 0.64891 0.0
H926 H 0.20959 0.23511 0.64713 0.0
H927 H 0.10918 0.30892 0.63961 0.0
H928 H 0.19158 0.30374 0.63783 0.0
H929 H 0.13762 0.25015 0.60983 0.0
C930 C 0.16045 0.22497 0.61757 0.0
C931 C 0.18038 0.22023 0.62885 0.0
C932 C 0.17352 0.30498 0.63802 0.0
C933 C 0.16698 0.26403 0.62872 0.0
C934 C 0.165 0.32526 0.64435 0.0
C935 C 0.14167 0.32695 0.64549 0.0
C936 C 0.15859 0.28641 0.63254 0.0
C937 C 0.12729 0.30819 0.63926 0.0
C938 C 0.1536 0.24686 0.61762 0.0
C939 C 0.19396 0.23809 0.6385 0.0
N940 N 0.13599 0.28862 0.63311 0.0
N941 N 0.18692 0.25922 0.63837 0.0
H942 H 0.19182 0.57052 0.10319 0.0
H943 H 0.32202 0.59161 0.07738 0.0
H944 H 0.22067 0.63078 0.07317 0.0
H945 H 0.29979 0.55472 0.13519 0.0
H946 H 0.28305 0.59832 0.06832 0.0
H947 H 0.22986 0.5575 0.10813 0.0
C948 C 0.20613 0.58085 0.0974 0.0
C949 C 0.20321 0.60179 0.08785 0.0
C950 C 0.2867 0.58857 0.08285 0.0
C951 C 0.24633 0.58691 0.09313 0.0
C952 C 0.30892 0.58462 0.08803 0.0
C953 C 0.31419 0.57281 0.10727 0.0
C954 C 0.26955 0.58046 0.09683 0.0
C955 C 0.29645 0.56407 0.12032 0.0
C956 C 0.22773 0.57347 0.10033 0.0
C957 C 0.22224 0.61462 0.08076 0.0
N958 N 0.27482 0.56817 0.11492 0.0
N959 N 0.24302 0.60693 0.08348 0.0
H960 H 0.94947 0.24515 0.41763 0.0
H961 H 0.98286 0.30779 0.30475 0.0
H962 H 0.98499 0.21429 0.36441 0.0
H963 H 0.93379 0.3306 0.35051 0.0
H964 H 0.9881 0.27566 0.32868 0.0
H965 H 0.94866 0.27938 0.39585 0.0
C966 C 0.95742 0.2457 0.40153 0.0
C967 C 0.96717 0.2268 0.39274 0.0
C968 C 0.97618 0.28771 0.33345 0.0
C969 C 0.9661 0.26576 0.36768 0.0
C970 C 0.97315 0.30601 0.31978 0.0
C971 C 0.95775 0.32179 0.32556 0.0
C972 C 0.96388 0.28532 0.35313 0.0
C973 C 0.94571 0.31873 0.34531 0.0
C974 C 0.95679 0.26517 0.38904 0.0
C975 C 0.97716 0.22842 0.37175 0.0
N976 N 0.94906 0.30088 0.3584 0.0
N977 N 0.97626 0.24752 0.35988 0.0
H978 H 0.20683 0.38632 0.96195 0.0
H979 H 0.30927 0.36941 0.88497 0.0
H980 H 0.22386 0.43129 0.90831 0.0
H981 H 0.3174 0.35939 0.95574 0.0
H982 H 0.27382 0.38633 0.89185 0.0
H983 H 0.24437 0.37172 0.95954 0.0
C984 C 0.2186 0.39341 0.94999 0.0
C985 C 0.21223 0.40999 0.93525 0.0
C986 C 0.28336 0.38036 0.90585 0.0
C987 C 0.25454 0.39291 0.93199 0.0
C988 C 0.30344 0.37046 0.90194 0.0
C989 C 0.31627 0.36295 0.91982 0.0
C990 C 0.27577 0.38234 0.92774 0.0
C991 C 0.30799 0.365 0.9415 0.0
C992 C 0.23991 0.38504 0.94862 0.0
C993 C 0.22807 0.41855 0.92002 0.0
N994 N 0.28809 0.37439 0.94488 0.0
N995 N 0.24833 0.4096 0.91849 0.0
H996 H 0.10258 0.81188 0.43777 0.0
H997 H 0.06884 0.72511 0.33748 0.0
H998 H 0.06387 0.82863 0.37949 0.0
H999 H 0.11903 0.71392 0.3883 0.0
H1000 H 0.06223 0.76097 0.35565 0.0
H1001 H 0.10342 0.77345 0.42319 0.0
C1002 C 0.09392 0.80738 0.4221 0.0
C1003 C 0.08333 0.82351 0.4097 0.0
C1004 C 0.07465 0.75064 0.36284 0.0
C1005 C 0.08444 0.77971 0.39286 0.0
C1006 C 0.07847 0.7302 0.35246 0.0
C1007 C 0.09466 0.71663 0.36128 0.0
C1008 C 0.08702 0.75749 0.38225 0.0
C1009 C 0.10654 0.72397 0.38081 0.0
C1010 C 0.09455 0.78549 0.41372 0.0
C1011 C 0.0724 0.81676 0.3895 0.0
N1012 N 0.1025 0.74394 0.39063 0.0
N1013 N 0.07339 0.79539 0.38161 0.0
H1014 H 0.84554 0.6901 0.91435 0.0
H1015 H 0.71844 0.6616 0.94758 0.0
H1016 H 0.82388 0.62765 0.94511 0.0
H1017 H 0.7364 0.70336 0.89172 0.0
H1018 H 0.75792 0.65316 0.95199 0.0
H1019 H 0.80624 0.6992 0.9108 0.0
C1020 C 0.83251 0.67832 0.92042 0.0
C1021 C 0.83794 0.65807 0.93004 0.0
C1022 C 0.75317 0.6642 0.93883 0.0
C1023 C 0.79307 0.66853 0.92622 0.0
C1024 C 0.73072 0.66918 0.93638 0.0
C1025 C 0.72416 0.68321 0.91923 0.0
C1026 C 0.7692 0.67366 0.92428 0.0
C1027 C 0.74074 0.69241 0.9051 0.0
C1028 C 0.81012 0.6835 0.9183 0.0
C1029 C 0.82038 0.64338 0.9375 0.0
N1030 N 0.76255 0.68755 0.90801 0.0
N1031 N 0.79868 0.64898 0.93559 0.0
H1032 H 0.67127 0.96212 0.82815 0.0
H1033 H 0.61191 0.88656 0.73179 0.0
H1034 H 0.60837 0.92368 0.8385 0.0
H1035 H 0.64584 0.95086 0.71775 0.0
H1036 H 0.61498 0.89595 0.77179 0.0
H1037 H 0.66681 0.95432 0.78788 0.0
C1038 C 0.65653 0.95209 0.82193 0.0
C1039 C 0.64011 0.94358 0.83658 0.0
C1040 C 0.62164 0.90799 0.75989 0.0
C1041 C 0.63519 0.93433 0.79093 0.0
C1042 C 0.61998 0.90264 0.73715 0.0
C1043 C 0.62857 0.91801 0.72153 0.0
C1044 C 0.63247 0.92858 0.76698 0.0
C1045 C 0.63885 0.93863 0.7293 0.0
C1046 C 0.65398 0.94774 0.79904 0.0
C1047 C 0.62132 0.93069 0.82772 0.0
N1048 N 0.64074 0.94324 0.75155 0.0
N1049 N 0.61948 0.92623 0.80545 0.0
H1050 H 0.6598 0.16033 0.2098 0.0
H1051 H 0.65513 0.17281 0.34228 0.0
H1052 H 0.60955 0.19663 0.24326 0.0
H1053 H 0.6896 0.12086 0.30892 0.0
H1054 H 0.64109 0.18469 0.30606 0.0
H1055 H 0.67384 0.14861 0.24604 0.0
C1056 C 0.65176 0.16589 0.22478 0.0
C1057 C 0.63349 0.17949 0.22356 0.0
C1058 C 0.6517 0.17067 0.30669 0.0
C1059 C 0.64952 0.1662 0.265 0.0
C1060 C 0.65979 0.16394 0.32733 0.0
C1061 C 0.67356 0.14583 0.32857 0.0
C1062 C 0.65765 0.15938 0.28717 0.0
C1063 C 0.67898 0.13487 0.3087 0.0
C1064 C 0.65973 0.15911 0.24543 0.0
C1065 C 0.62364 0.1861 0.24347 0.0
N1066 N 0.67109 0.14189 0.28878 0.0
N1067 N 0.63186 0.17947 0.26342 0.0
H1068 H 0.46237 0.1617 0.7387 0.0
H1069 H 0.45053 0.11106 0.84226 0.0
H1070 H 0.43287 0.09822 0.71267 0.0
H1071 H 0.38877 0.08192 0.81169 0.0
H1072 H 0.46364 0.1222 0.80538 0.0
H1073 H 0.45501 0.14878 0.77663 0.0
C1074 C 0.45459 0.14498 0.741 0.0
C1075 C 0.44833 0.13095 0.72259 0.0
C1076 C 0.44724 0.11336 0.80681 0.0
C1077 C 0.43979 0.1162 0.76568 0.0
C1078 C 0.43983 0.10679 0.82777 0.0
C1079 C 0.41844 0.0957 0.83002 0.0
C1080 C 0.43329 0.10853 0.78799 0.0
C1081 C 0.40527 0.09062 0.81069 0.0
C1082 C 0.45054 0.13758 0.76259 0.0
C1083 C 0.43816 0.10948 0.72645 0.0
N1084 N 0.41296 0.09702 0.79041 0.0
N1085 N 0.43387 0.10287 0.74759 0.0
H1086 H 0.43518 0.83931 0.24704 0.0
H1087 H 0.35983 0.92643 0.30891 0.0
H1088 H 0.38859 0.87981 0.21276 0.0
H1089 H 0.39346 0.87487 0.34331 0.0
H1090 H 0.37383 0.9125 0.27358 0.0
H1091 H 0.42374 0.85526 0.28267 0.0
C1092 C 0.42266 0.85164 0.247 0.0
C1093 C 0.41273 0.85816 0.22695 0.0
C1094 C 0.37815 0.90424 0.28886 0.0
C1095 C 0.39963 0.87645 0.26751 0.0
C1096 C 0.37019 0.9122 0.30903 0.0
C1097 C 0.37538 0.9017 0.32905 0.0
C1098 C 0.39154 0.88576 0.28872 0.0
C1099 C 0.38892 0.88337 0.32823 0.0
C1100 C 0.41608 0.86067 0.26732 0.0
C1101 C 0.39658 0.87419 0.22784 0.0
N1102 N 0.39655 0.87598 0.30839 0.0
N1103 N 0.39053 0.88278 0.24779 0.0
H1104 H 0.16256 0.10018 0.56749 0.0
H1105 H 0.2419 0.13962 0.47706 0.0
H1106 H 0.23175 0.12189 0.58318 0.0
H1107 H 0.1868 0.09068 0.46216 0.0
H1108 H 0.2421 0.12772 0.51577 0.0
H1109 H 0.17332 0.09025 0.52972 0.0
C1110 C 0.18014 0.1023 0.56312 0.0
C1111 C 0.19622 0.11238 0.57821 0.0
C1112 C 0.2304 0.11902 0.50397 0.0
C1113 C 0.20856 0.10157 0.53497 0.0
C1114 C 0.23029 0.12586 0.48189 0.0
C1115 C 0.21411 0.11628 0.46667 0.0
C1116 C 0.21362 0.10314 0.51096 0.0
C1117 C 0.19945 0.0985 0.47356 0.0
C1118 C 0.18631 0.09654 0.54157 0.0
C1119 C 0.2188 0.11445 0.57188 0.0
N1120 N 0.19907 0.09293 0.49546 0.0
N1121 N 0.22422 0.10974 0.55047 0.0
H1122 H 0.40746 0.53849 0.96494 0.0
H1123 H 0.44189 0.59293 0.08401 0.0
H1124 H 0.39274 0.60495 0.98707 0.0
H1125 H 0.41101 0.52558 0.07732 0.0
H1126 H 0.44211 0.5954 0.04327 0.0
H1127 H 0.42502 0.53244 1.00182 0.0
C1128 C 0.4082 0.55184 0.97748 0.0
C1129 C 0.39832 0.57206 0.97334 0.0
C1130 C 0.43616 0.57978 0.05079 0.0
C1131 C 0.41911 0.56572 1.01452 0.0
C1132 C 0.43625 0.57825 0.07398 0.0
C1133 C 0.42609 0.55914 0.08389 0.0
C1134 C 0.42623 0.56193 0.03768 0.0
C1135 C 0.41875 0.54068 0.07017 0.0
C1136 C 0.41828 0.54844 0.9983 0.0
C1137 C 0.39979 0.58897 0.98988 0.0
N1138 N 0.41857 0.54265 0.04763 0.0
N1139 N 0.41002 0.58543 1.00979 0.0
H1140 H 0.81464 0.91894 0.48517 0.0
H1141 H 0.91092 0.92111 0.57004 0.0
H1142 H 0.87926 0.95144 0.47016 0.0
H1143 H 0.84297 0.92524 0.59269 0.0
H1144 H 0.8995 0.93528 0.53387 0.0
H1145 H 0.82289 0.92538 0.52497 0.0
C1146 C 0.83015 0.92837 0.49031 0.0
C1147 C 0.84634 0.93469 0.47459 0.0
C1148 C 0.88718 0.93355 0.54689 0.0
C1149 C 0.8564 0.941 0.51982 0.0
C1150 C 0.89363 0.92522 0.56743 0.0
C1151 C 0.87774 0.92164 0.58414 0.0
C1152 C 0.86454 0.9377 0.54287 0.0
C1153 C 0.85566 0.92757 0.58009 0.0
C1154 C 0.83493 0.93192 0.51299 0.0
C1155 C 0.86635 0.94647 0.48191 0.0
N1156 N 0.84954 0.93482 0.55963 0.0
N1157 N 0.87117 0.94863 0.50413 0.0
H1158 H 0.6378 0.4833 0.96563 0.0
H1159 H 0.6841 0.49381 0.09135 0.0
H1160 H 0.70702 0.47582 0.98521 0.0
H1161 H 0.61484 0.47373 0.07369 0.0
H1162 H 0.69213 0.49838 0.05193 0.0
H1163 H 0.62911 0.49077 1.00468 0.0
C1164 C 0.65127 0.48364 0.97808 0.0
C1165 C 0.67313 0.47866 0.97226 0.0
C1166 C 0.67512 0.49329 0.05673 0.0
C1167 C 0.66327 0.48728 1.01675 0.0
C1168 C 0.67045 0.49075 0.07923 0.0
C1169 C 0.6488 0.48301 0.08581 0.0
C1170 C 0.658 0.48831 0.04068 0.0
C1171 C 0.63181 0.47945 0.06933 0.0
C1172 C 0.64624 0.48781 1.00032 0.0
C1173 C 0.6899 0.47934 0.98903 0.0
N1174 N 0.63682 0.48194 0.04744 0.0
N1175 N 0.68459 0.48342 1.01059 0.0
H1176 H 0.14262 0.94355 0.56711 0.0
H1177 H 0.05411 0.91191 0.48181 0.0
H1178 H 0.0744 0.93066 0.5886 0.0
H1179 H 0.10626 0.9628 0.46657 0.0
H1180 H 0.05793 0.92295 0.5212 0.0
H1181 H 0.12837 0.95596 0.53125 0.0
C1182 C 0.12461 0.94409 0.56445 0.0
C1183 C 0.10959 0.93594 0.58052 0.0
C1184 C 0.068 0.93224 0.50916 0.0
C1185 C 0.09317 0.94913 0.53945 0.0
C1186 C 0.0659 0.92585 0.48671 0.0
C1187 C 0.0803 0.93608 0.47109 0.0
C1188 C 0.08512 0.94841 0.516 0.0
C1189 C 0.09508 0.95425 0.47819 0.0
C1190 C 0.11645 0.95121 0.54405 0.0
C1191 C 0.08643 0.93682 0.57644 0.0
N1192 N 0.09766 0.95937 0.50029 0.0
N1193 N 0.07884 0.94256 0.55593 0.0
H1194 H 0.61081 0.66286 0.98921 0.0
H1195 H 0.63747 0.74268 0.08626 0.0
H1196 H 0.62555 0.7334 0.97763 0.0
H1197 H 0.59041 0.68527 0.09367 0.0
H1198 H 0.62838 0.7426 0.04638 0.0
H1199 H 0.59813 0.67208 0.0265 0.0
C1200 C 0.61095 0.68034 0.99443 0.0
C1201 C 0.61969 0.69739 0.98067 0.0
C1202 C 0.61944 0.73046 0.05678 0.0
C1203 C 0.60563 0.70804 0.0233 0.0
C1204 C 0.62468 0.73049 0.0795 0.0
C1205 C 0.61489 0.71374 0.09298 0.0
C1206 C 0.605 0.71302 0.04748 0.0
C1207 C 0.59837 0.69835 0.08365 0.0
C1208 C 0.60354 0.68563 1.01563 0.0
C1209 C 0.61918 0.71978 0.98795 0.0
N1210 N 0.59443 0.69789 0.06123 0.0
N1211 N 0.61289 0.72447 1.0091 0.0
H1212 H 0.99903 0.15475 0.47995 0.0
H1213 H 0.93261 0.103 0.57366 0.0
H1214 H 0.95542 0.09488 0.46722 0.0
H1215 H 0.99967 0.13257 0.58702 0.0
H1216 H 0.94282 0.09537 0.53515 0.0
H1217 H 1.00247 0.14423 0.51904 0.0
C1218 C 0.99053 0.13919 0.48529 0.0
C1219 C 0.97652 0.12594 0.47046 0.0
C1220 C 0.95561 0.10275 0.54667 0.0
C1221 C 0.98018 0.11395 0.51508 0.0
C1222 C 0.94979 0.10698 0.56865 0.0
C1223 C 0.96533 0.11847 0.58331 0.0
C1224 C 0.97677 0.11098 0.53921 0.0
C1225 C 0.98729 0.1236 0.5761 0.0
C1226 C 0.99264 0.13308 0.50755 0.0
C1227 C 0.96615 0.10577 0.47817 0.0
N1228 N 0.99219 0.12053 0.55425 0.0
N1229 N 0.96769 0.10068 0.50011 0.0
H1230 H 0.40881 0.29866 0.96991 0.0
H1231 H 0.44549 0.33844 0.09342 0.0
H1232 H 0.43261 0.36624 0.98934 0.0
H1233 H 0.39314 0.28696 0.07674 0.0
H1234 H 0.45563 0.33977 0.05396 0.0
H1235 H 0.41822 0.28624 1.00754 0.0
C1236 C 0.41668 0.31072 0.98187 0.0
C1237 C 0.41946 0.33358 0.97682 0.0
C1238 C 0.44243 0.32769 0.05913 0.0
C1239 C 0.43038 0.31952 0.01946 0.0
C1240 C 0.4367 0.32685 0.08158 0.0
C1241 C 0.41816 0.31291 0.0881 0.0
C1242 C 0.42969 0.31427 0.04336 0.0
C1243 C 0.40727 0.29825 0.07219 0.0
C1244 C 0.42199 0.30364 1.00328 0.0
C1245 C 0.42976 0.34854 0.99282 0.0
N1246 N 0.41298 0.29952 0.05044 0.0
N1247 N 0.43458 0.3413 1.01358 0.0
H1248 H 0.55476 0.17479 0.09205 0.0
H1249 H 0.44599 0.11916 0.09211 0.0
H1250 H 0.55926 0.14091 0.15485 0.0
H1251 H 0.47774 0.07122 0.13307 0.0
H1252 H 0.48261 0.14014 0.08859 0.0
H1253 H 0.5209 0.15029 0.08211 0.0
C1254 C 0.54861 0.16226 0.10372 0.0
C1255 C 0.55957 0.16012 0.12447 0.0
C1256 C 0.48171 0.12459 0.09763 0.0
C1257 C 0.52134 0.13209 0.11318 0.0
C1258 C 0.46081 0.11256 0.09959 0.0
C1259 C 0.45884 0.09365 0.1132 0.0
C1260 C 0.50052 0.11751 0.10944 0.0
C1261 C 0.47848 0.08593 0.12273 0.0
C1262 C 0.52931 0.14837 0.09807 0.0
C1263 C 0.55113 0.14348 0.13887 0.0
N1264 N 0.49838 0.09816 0.12108 0.0
N1265 N 0.53262 0.1301 0.13291 0.0
H1266 H 0.42352 0.95875 0.61267 0.0
H1267 H 0.39812 0.08793 0.62135 0.0
H1268 H 0.37083 0.98536 0.65149 0.0
H1269 H 0.46438 0.06483 0.61162 0.0
H1270 H 0.3822 0.04912 0.61697 0.0
H1271 H 0.43272 0.9965 0.59827 0.0
C1272 C 0.41368 0.97246 0.61786 0.0
C1273 C 0.39675 0.96918 0.63364 0.0
C1274 C 0.40014 0.0527 0.61511 0.0
C1275 C 0.40673 1.01188 0.61691 0.0
C1276 C 0.40921 0.07482 0.61742 0.0
C1277 C 0.43261 0.07938 0.61735 0.0
C1278 C 0.41463 0.03528 0.61252 0.0
C1279 C 0.44626 0.06184 0.61222 0.0
C1280 C 0.41887 0.99388 0.6096 0.0
C1281 C 0.38435 0.98737 0.63972 0.0
N1282 N 0.4371 0.04042 0.61039 0.0
N1283 N 0.38969 1.00801 0.63145 0.0
H1284 H 0.45364 0.8789 0.09805 0.0
H1285 H 0.54844 0.9527 0.1147 0.0
H1286 H 0.49548 0.84102 0.14077 0.0
H1287 H 0.58623 0.89468 0.10323 0.0
H1288 H 0.51341 0.92903 0.10893 0.0
H1289 H 0.48751 0.90102 0.08601 0.0
C1290 C 0.47 0.87487 0.10443 0.0
C1291 C 0.47187 0.85835 0.12061 0.0
C1292 C 0.52938 0.92167 0.10683 0.0
C1293 C 0.51029 0.88319 0.10679 0.0
C1294 C 0.5493 0.93514 0.11012 0.0
C1295 C 0.57011 0.92557 0.10927 0.0
C1296 C 0.53041 0.89842 0.10351 0.0
C1297 C 0.57045 0.90267 0.10374 0.0
C1298 C 0.4892 0.88753 0.09765 0.0
C1299 C 0.49338 0.85383 0.12847 0.0
N1300 N 0.55083 0.88966 0.10181 0.0
N1301 N 0.51181 0.86625 0.12151 0.0
H1302 H 0.71465 0.07117 0.65322 0.0
H1303 H 0.61315 0.99192 0.61673 0.0
H1304 H 0.6569 0.09649 0.62008 0.0
H1305 H 0.68 0.96865 0.62233 0.0
H1306 H 0.62954 0.03018 0.61248 0.0
H1307 H 0.70391 0.03384 0.63769 0.0
C1308 C 0.69984 0.06887 0.64239 0.0
C1309 C 0.68635 0.08672 0.63825 0.0
C1310 C 0.64066 1.01666 0.61399 0.0
C1311 C 0.67379 0.04408 0.62067 0.0
C1312 C 0.63131 0.99482 0.61645 0.0
C1313 C 0.64528 0.97728 0.62038 0.0
C1314 C 0.66409 1.02095 0.61611 0.0
C1315 C 0.66866 0.98181 0.6196 0.0
C1316 C 0.69381 0.04761 0.63338 0.0
C1317 C 0.66758 0.08302 0.62384 0.0
N1318 N 0.67737 1.00336 0.61819 0.0
N1319 N 0.6615 0.06193 0.61598 0.0
H1320 H 0.49212 0.84061 0.9325 0.0
H1321 H 0.55148 0.95893 0.92948 0.0
H1322 H 0.45566 0.89995 0.94178 0.0
H1323 H 0.58731 0.9009 0.94636 0.0
H1324 H 0.51632 0.93868 0.93979 0.0
H1325 H 0.52688 0.86219 0.94376 0.0
C1326 C 0.49141 0.8581 0.93745 0.0
C1327 C 0.4712 0.8687 0.93581 0.0
C1328 C 0.53192 0.93054 0.94178 0.0
C1329 C 0.51087 0.89361 0.94809 0.0
C1330 C 0.55198 0.94206 0.93577 0.0
C1331 C 0.57219 0.93133 0.93655 0.0
C1332 C 0.53208 0.90801 0.94808 0.0
C1333 C 0.572 0.90964 0.94517 0.0
C1334 C 0.51123 0.87041 0.94393 0.0
C1335 C 0.47103 0.89127 0.94264 0.0
N1336 N 0.55214 0.89846 0.95009 0.0
N1337 N 0.49074 0.9032 0.9479 0.0
H1338 H 0.57738 0.98563 0.43444 0.0
H1339 H 0.63948 0.07617 0.40028 0.0
H1340 H 0.641 0.96476 0.45909 0.0
H1341 H 0.68196 0.0721 0.45905 0.0
H1342 H 0.61788 0.04234 0.41127 0.0
H1343 H 0.59266 0.02467 0.43631 0.0
C1344 C 0.5944 0.98939 0.44084 0.0
C1345 C 0.60812 0.97207 0.44626 0.0
C1346 C 0.63158 0.04906 0.4221 0.0
C1347 C 0.62605 1.01636 0.44722 0.0
C1348 C 0.64417 0.06819 0.41562 0.0
C1349 C 0.6626 0.07687 0.42873 0.0
C1350 C 0.63752 0.03824 0.44175 0.0
C1351 C 0.66782 0.0659 0.44852 0.0
C1352 C 0.6032 1.01159 0.44161 0.0
C1353 C 0.62998 0.97774 0.45465 0.0
N1354 N 0.65555 0.04682 0.45427 0.0
N1355 N 0.63854 0.99949 0.45437 0.0
H1356 H 0.44681 0.14609 0.93749 0.0
H1357 H 0.5803 0.14514 0.94846 0.0
H1358 H 0.48267 0.08579 0.94105 0.0
H1359 H 0.54464 0.19823 0.91909 0.0
H1360 H 0.54418 0.12678 0.95945 0.0
H1361 H 0.48217 0.16843 0.94543 0.0
C1362 C 0.46197 0.13751 0.94069 0.0
C1363 C 0.46199 0.11411 0.9381 0.0
C1364 C 0.54437 0.14267 0.95099 0.0
C1365 C 0.50229 0.13948 0.94697 0.0
C1366 C 0.56491 0.15314 0.94471 0.0
C1367 C 0.56532 0.17295 0.93245 0.0
C1368 C 0.52425 0.1523 0.94517 0.0
C1369 C 0.54497 0.1827 0.92813 0.0
C1370 C 0.48214 0.15028 0.94505 0.0
C1371 C 0.48207 0.10385 0.94246 0.0
N1372 N 0.52521 0.17216 0.9343 0.0
N1373 N 0.50155 0.11664 0.94632 0.0
H1374 H 0.36876 0.97936 0.46003 0.0
H1375 H 0.41332 0.09211 0.4617 0.0
H1376 H 0.40537 0.97836 0.39861 0.0
H1377 H 0.46575 0.06643 0.42189 0.0
H1378 H 0.39602 0.05378 0.46447 0.0
H1379 H 0.38955 1.01518 0.47054 0.0
C1380 C 0.38113 0.98668 0.44879 0.0
C1381 C 0.3851 0.9761 0.42825 0.0
C1382 C 0.41175 0.05642 0.45584 0.0
C1383 C 0.4089 1.01668 0.44015 0.0
C1384 C 0.42166 0.0783 0.45431 0.0
C1385 C 0.44078 0.0824 0.44126 0.0
C1386 C 0.42114 0.03878 0.44419 0.0
C1387 C 0.45079 0.06401 0.43181 0.0
C1388 C 0.3929 1.00712 0.45476 0.0
C1389 C 0.40146 0.9861 0.41441 0.0
N1390 N 0.4406 0.04309 0.43307 0.0
N1391 N 0.41275 1.00575 0.42065 0.0
H1392 H 0.07468 0.44822 0.14928 0.0
H1393 H 0.10191 0.5802 0.14257 0.0
H1394 H 0.12977 0.48429 0.18526 0.0
H1395 H 0.08521 0.53745 0.08495 0.0
H1396 H 0.09609 0.5476 0.16651 0.0
H1397 H 0.06322 0.48386 0.13467 0.0
C1398 C 0.08388 0.4637 0.15476 0.0
C1399 C 0.10343 0.46335 0.16821 0.0
C1400 C 0.09298 0.5456 0.14869 0.0
C1401 C 0.09017 0.5039 0.15186 0.0
C1402 C 0.09617 0.56415 0.13501 0.0
C1403 C 0.09442 0.56137 0.11171 0.0
C1404 C 0.08753 0.52435 0.13899 0.0
C1405 C 0.08702 0.54019 0.10282 0.0
C1406 C 0.07736 0.48394 0.14633 0.0
C1407 C 0.11479 0.48386 0.17469 0.0
N1408 N 0.0841 0.52236 0.11649 0.0
N1409 N 0.10811 0.50336 0.16624 0.0
H1410 H 0.0829 0.53556 0.84043 0.0
H1411 H 0.06887 0.44875 0.91117 0.0
H1412 H 0.09716 0.57879 0.89811 0.0
H1413 H 0.12563 0.48676 0.94256 0.0
H1414 H 0.05624 0.48346 0.89573 0.0
H1415 H 0.07436 0.50414 0.86516 0.0
C1416 C 0.0834 0.53858 0.85831 0.0
C1417 C 0.09089 0.55967 0.86727 0.0
C1418 C 0.07113 0.4842 0.90647 0.0
C1419 C 0.08172 0.52385 0.89561 0.0
C1420 C 0.07832 0.46445 0.91544 0.0
C1421 C 0.09879 0.46477 0.92759 0.0
C1422 C 0.0844 0.50433 0.90989 0.0
C1423 C 0.11009 0.48567 0.9328 0.0
C1424 C 0.07844 0.52069 0.87245 0.0
C1425 C 0.09144 0.56273 0.89057 0.0
N1426 N 0.10294 0.50463 0.92357 0.0
N1427 N 0.08774 0.54479 0.90397 0.0
H1428 H 0.03989 0.60539 0.3382 0.0
H1429 H 1.00202 0.65052 0.44249 0.0
H1430 H 0.08683 0.60102 0.39331 0.0
H1431 H 0.95758 0.59679 0.41426 0.0
H1432 H 0.03392 0.63355 0.42507 0.0
H1433 H 1.00872 0.60151 0.36434 0.0
C1434 C 0.04353 0.60252 0.35566 0.0
C1435 C 0.06581 0.60332 0.36368 0.0
C1436 C 1.01725 0.62512 0.42336 0.0
C1437 C 0.03064 0.60027 0.39356 0.0
C1438 C 0.99911 0.6348 0.43323 0.0
C1439 C 0.97724 0.62504 0.42973 0.0
C1440 C 1.01322 0.60618 0.40926 0.0
C1441 C 0.97426 0.60477 0.41741 0.0
C1442 C 0.02582 0.60044 0.37055 0.0
C1443 C 0.06979 0.60017 0.38653 0.0
N1444 N 0.99198 0.59638 0.40692 0.0
N1445 N 0.05237 0.59968 0.40087 0.0
H1446 H 0.94135 0.59432 0.89041 0.0
H1447 H 0.93283 0.46351 0.85994 0.0
H1448 H 0.90663 0.54441 0.93092 0.0
H1449 H 0.93433 0.51547 0.81071 0.0
H1450 H 0.93664 0.49248 0.88945 0.0
H1451 H 0.9516 0.56458 0.86489 0.0
C1452 C 0.93622 0.57706 0.89419 0.0
C1453 C 0.92284 0.57183 0.91269 0.0
C1454 C 0.93668 0.49745 0.87216 0.0
C1455 C 0.93476 0.53782 0.8836 0.0
C1456 C 0.93473 0.48098 0.85529 0.0
C1457 C 0.93298 0.48716 0.83284 0.0
C1458 C 0.93729 0.52015 0.86647 0.0
C1459 C 0.93539 0.51003 0.82781 0.0
C1460 C 0.94207 0.56015 0.87957 0.0
C1461 C 0.91673 0.54918 0.91672 0.0
N1462 N 0.93721 0.52575 0.84453 0.0
N1463 N 0.92263 0.53295 0.90216 0.0
H1464 H 0.09984 0.45237 0.3757 0.0
H1465 H 0.96867 0.4465 0.34658 0.0
H1466 H 0.04951 0.4237 0.41962 0.0
H1467 H 1.01724 0.42327 0.30061 0.0
H1468 H 0.99938 0.45705 0.3734 0.0
H1469 H 0.0699 0.46002 0.3487 0.0
C1470 C 0.08244 0.44843 0.37999 0.0
C1471 C 0.07702 0.43728 0.3998 0.0
C1472 C 1.00328 0.45041 0.35709 0.0
C1473 C 0.04303 0.44636 0.36937 0.0
C1474 C 0.98587 0.44458 0.34172 0.0
C1475 C 0.99051 0.43385 0.32146 0.0
C1476 C 0.02539 0.44601 0.35184 0.0
C1477 C 1.01304 0.43139 0.31613 0.0
C1478 C 0.06548 0.45272 0.36457 0.0
C1479 C 0.05429 0.4322 0.40445 0.0
N1480 N 0.02971 0.43722 0.33137 0.0
N1481 N 0.03806 0.43669 0.38925 0.0
H1482 H 0.91928 0.5052 0.04367 0.0
H1483 H 0.89186 0.54458 0.16403 0.0
H1484 H 0.92266 0.45991 0.0988 0.0
H1485 H 0.92817 0.58987 0.11996 0.0
H1486 H 0.90038 0.51302 0.13949 0.0
H1487 H 0.92081 0.5369 0.07039 0.0
C1488 C 0.92081 0.50198 0.06134 0.0
C1489 C 0.92072 0.47995 0.06906 0.0
C1490 C 0.9067 0.52988 0.13542 0.0
C1491 C 0.92177 0.51584 0.09952 0.0
C1492 C 0.90173 0.54783 0.1493 0.0
C1493 C 0.90928 0.56979 0.14394 0.0
C1494 C 0.91873 0.53408 0.11584 0.0
C1495 C 0.92208 0.57315 0.1247 0.0
C1496 C 0.92166 0.52002 0.07654 0.0
C1497 C 0.92269 0.47665 0.09214 0.0
N1498 N 0.92611 0.55551 0.11112 0.0
N1499 N 0.92263 0.49439 0.10661 0.0
H1500 H 1.00736 0.42087 0.5317 0.0
H1501 H 0.06593 0.45332 0.64957 0.0
H1502 H 0.9737 0.45553 0.5837 0.0
H1503 H 0.08518 0.40233 0.60317 0.0
H1504 H 0.03787 0.46456 0.62183 0.0
H1505 H 0.04261 0.42657 0.55307 0.0
C1506 C 1.00758 0.43036 0.5473 0.0
C1507 C 0.98758 0.4373 0.55622 0.0
C1508 C 0.04851 0.45113 0.61773 0.0
C1509 C 0.02755 0.4431 0.58113 0.0
C1510 C 0.06436 0.44467 0.63352 0.0
C1511 C 0.07739 0.42652 0.62879 0.0
C1512 C 0.04623 0.43964 0.59704 0.0
C1513 C 0.07503 0.41601 0.60771 0.0
C1514 C 0.02764 0.43344 0.55959 0.0
C1515 C 0.98878 0.44972 0.57637 0.0
N1516 N 0.05971 0.42267 0.59269 0.0
N1517 N 1.00837 0.45168 0.58855 0.0
H1518 H 0.09083 0.59246 0.63606 0.0
H1519 H 0.95979 0.58894 0.65707 0.0
H1520 H 0.04266 0.60043 0.58265 0.0
H1521 H 1.00642 0.64158 0.68369 0.0
H1522 H 0.9913 0.57129 0.63955 0.0
H1523 H 0.05973 0.58747 0.66213 0.0
C1524 C 0.07366 0.59178 0.62957 0.0
C1525 C 0.06916 0.59699 0.60725 0.0
C1526 C 0.99465 0.58607 0.65016 0.0
C1527 C 0.03393 0.59099 0.63675 0.0
C1528 C 0.97682 0.59609 0.66023 0.0
C1529 C 0.98071 0.61669 0.67175 0.0
C1530 C 1.01639 0.59648 0.65234 0.0
C1531 C 1.00289 0.62567 0.67493 0.0
C1532 C 0.05603 0.5891 0.64449 0.0
C1533 C 0.04671 0.59649 0.59976 0.0
N1534 N 1.01997 0.61559 0.66504 0.0
N1535 N 0.02983 0.59392 0.61461 0.0
H1536 H 1.01902 0.16798 0.37591 0.0
H1537 H 0.13416 0.10482 0.37447 0.0
H1538 H 1.01935 0.09574 0.37555 0.0
H1539 H 0.12936 0.17558 0.38719 0.0
H1540 H 0.09294 0.10081 0.36765 0.0
H1541 H 0.05981 0.17061 0.37247 0.0
C1542 C 0.02761 0.15259 0.37474 0.0
C1543 C 1.01557 0.1316 0.37615 0.0
C1544 C 0.10102 0.11726 0.37155 0.0
C1545 C 0.06289 0.13452 0.37257 0.0
C1546 C 0.12457 0.11958 0.37521 0.0
C1547 C 0.13526 0.1406 0.38134 0.0
C1548 C 0.08818 0.13614 0.37381 0.0
C1549 C 0.12189 0.15907 0.38251 0.0
C1550 C 0.05104 0.15411 0.37289 0.0
C1551 C 0.02785 0.1123 0.37449 0.0
N1552 N 0.09923 0.1564 0.37889 0.0
N1553 N 0.05083 0.11421 0.37305 0.0
H1554 H 0.4325 0.41425 0.90827 0.0
H1555 H 0.39731 0.51946 0.83701 0.0
H1556 H 0.38924 0.40598 0.84976 0.0
H1557 H 0.4208 0.52331 0.90554 0.0
H1558 H 0.40174 0.47869 0.83673 0.0
H1559 H 0.43652 0.45457 0.90212 0.0
C1560 C 0.42425 0.42082 0.89375 0.0
C1561 C 0.41038 0.40653 0.8796 0.0
C1562 C 0.40623 0.48855 0.8517 0.0
C1563 C 0.41465 0.45325 0.87266 0.0
C1564 C 0.40389 0.51187 0.85183 0.0
C1565 C 0.40872 0.52493 0.87134 0.0
C1566 C 0.41381 0.47824 0.8711 0.0
C1567 C 0.41685 0.51402 0.89012 0.0
C1568 C 0.42642 0.44397 0.89037 0.0
C1569 C 0.4002 0.41623 0.86106 0.0
N1570 N 0.4191 0.49145 0.88953 0.0
N1571 N 0.40228 0.439 0.85829 0.0
H1572 H 0.02986 0.87861 0.38427 0.0
H1573 H 0.91308 0.93859 0.37658 0.0
H1574 H 0.02755 0.94973 0.37388 0.0
H1575 H 0.91976 0.86982 0.39488 0.0
H1576 H 0.95388 0.9424 0.36942 0.0
H1577 H 0.98889 0.87453 0.38184 0.0
C1578 C 1.02077 0.89338 0.38113 0.0
C1579 C 0.03234 0.91458 0.37937 0.0
C1580 C 0.9463 0.9264 0.37468 0.0
C1581 C 0.98483 0.91005 0.37693 0.0
C1582 C 0.92296 0.92416 0.37857 0.0
C1583 C 0.9129 0.90386 0.3864 0.0
C1584 C 0.95961 0.90814 0.37845 0.0
C1585 C 0.9267 0.88584 0.38899 0.0
C1586 C 0.99724 0.89105 0.37984 0.0
C1587 C 1.01942 0.93304 0.37528 0.0
N1588 N 0.94916 0.88844 0.38516 0.0
N1589 N 0.99639 0.93041 0.37445 0.0
H1590 H 0.62734 0.5137 0.9121 0.0
H1591 H 0.64739 0.62952 0.85151 0.0
H1592 H 0.63627 0.51415 0.84096 0.0
H1593 H 0.60833 0.62156 0.911 0.0
H1594 H 0.64413 0.5883 0.8459 0.0
H1595 H 0.62165 0.55385 0.91158 0.0
C1596 C 0.62777 0.5222 0.89628 0.0
C1597 C 0.63207 0.51042 0.87653 0.0
C1598 C 0.63585 0.5957 0.85987 0.0
C1599 C 0.62626 0.55692 0.87586 0.0
C1600 C 0.63751 0.61927 0.86296 0.0
C1601 C 0.62821 0.62917 0.88183 0.0
C1602 C 0.6251 0.58197 0.87593 0.0
C1603 C 0.61595 0.61482 0.8963 0.0
C1604 C 0.62454 0.54519 0.89597 0.0
C1605 C 0.63268 0.52249 0.85654 0.0
N1606 N 0.61513 0.59213 0.89329 0.0
N1607 N 0.6302 0.54514 0.85674 0.0
H1608 H 0.9508 0.90869 0.71191 0.0
H1609 H 0.06849 0.93448 0.65091 0.0
H1610 H 0.95797 0.93805 0.64709 0.0
H1611 H 0.06346 0.89957 0.71317 0.0
H1612 H 0.02871 0.94158 0.6529 0.0
H1613 H 0.99218 0.91107 0.71639 0.0
C1614 C 0.96101 0.91637 0.69898 0.0
C1615 C 0.95083 0.92329 0.67913 0.0
C1616 C 0.03628 0.93259 0.66632 0.0
C1617 C 0.99822 0.92559 0.68388 0.0
C1618 C 0.05913 0.92859 0.66523 0.0
C1619 C 0.06949 0.9163 0.68185 0.0
C1620 C 0.02333 0.92414 0.68409 0.0
C1621 C 0.05628 0.90914 0.69997 0.0
C1622 C 0.98466 0.91744 0.7014 0.0
C1623 C 0.96501 0.93256 0.66269 0.0
N1624 N 0.03389 0.91292 0.70048 0.0
N1625 N 0.98781 0.93326 0.66535 0.0
H1626 H 0.66481 0.51867 0.17918 0.0
H1627 H 0.60223 0.63409 0.18254 0.0
H1628 H 0.59258 0.51996 0.17354 0.0
H1629 H 0.6728 0.62927 0.17019 0.0
H1630 H 0.59823 0.59292 0.18701 0.0
H1631 H 0.66773 0.55949 0.18398 0.0
C1632 C 0.64948 0.52744 0.17937 0.0
C1633 C 0.62841 0.51565 0.17584 0.0
C1634 C 0.61464 0.60097 0.18365 0.0
C1635 C 0.63169 0.56291 0.18112 0.0
C1636 C 0.61696 0.62449 0.18131 0.0
C1637 C 0.63789 0.6352 0.17598 0.0
C1638 C 0.63346 0.58814 0.18097 0.0
C1639 C 0.65633 0.6218 0.17422 0.0
C1640 C 0.65119 0.55087 0.18197 0.0
C1641 C 0.6092 0.52821 0.17619 0.0
N1642 N 0.65367 0.59914 0.17665 0.0
N1643 N 0.61131 0.55111 0.17858 0.0
H1644 H 1.00995 0.12472 0.6582 0.0
H1645 H 0.13417 0.16321 0.70329 0.0
H1646 H 0.02262 0.17502 0.71029 0.0
H1647 H 0.11855 0.1084 0.65652 0.0
H1648 H 0.09369 0.16495 0.71001 0.0
H1649 H 0.04939 0.11605 0.66067 0.0
C1650 C 1.02095 0.13376 0.6704 0.0
C1651 C 1.01282 0.15069 0.68401 0.0
C1652 C 0.09916 0.15221 0.69865 0.0
C1653 C 0.05854 0.14104 0.68671 0.0
C1654 C 0.12236 0.15101 0.69504 0.0
C1655 C 0.1299 0.13565 0.67927 0.0
C1656 C 0.08337 0.13799 0.68637 0.0
C1657 C 0.11362 0.12058 0.66876 0.0
C1658 C 0.04358 0.12881 0.6718 0.0
C1659 C 0.02805 0.16181 0.69948 0.0
N1660 N 0.09127 0.12234 0.67225 0.0
N1661 N 0.05017 0.157 0.70021 0.0
H1662 H 0.36852 0.50984 0.16368 0.0
H1663 H 0.43068 0.3959 0.18337 0.0
H1664 H 0.43861 0.51051 0.18345 0.0
H1665 H 0.3633 0.39948 0.15669 0.0
H1666 H 0.43316 0.43721 0.18899 0.0
H1667 H 0.36545 0.46908 0.16672 0.0
C1668 C 0.38324 0.50147 0.16898 0.0
C1669 C 0.40387 0.51379 0.17324 0.0
C1670 C 0.41775 0.42884 0.18218 0.0
C1671 C 0.40057 0.46654 0.17643 0.0
C1672 C 0.41629 0.40526 0.17914 0.0
C1673 C 0.3968 0.39418 0.16945 0.0
C1674 C 0.39949 0.44131 0.17568 0.0
C1675 C 0.37875 0.40725 0.16404 0.0
C1676 C 0.38151 0.47806 0.17062 0.0
C1677 C 0.42233 0.50178 0.18002 0.0
N1678 N 0.38058 0.42991 0.16713 0.0
N1679 N 0.42032 0.47886 0.1812 0.0
H1680 H 0.36909 1.00824 0.09979 0.0
H1681 H 0.37183 0.89403 0.16816 0.0
H1682 H 0.36909 1.00406 0.17148 0.0
H1683 H 0.37195 0.89478 0.09626 0.0
H1684 H 0.36531 0.93391 0.16882 0.0
H1685 H 0.36455 0.96684 0.09719 0.0
C1686 C 0.36744 0.9987 0.11494 0.0
C1687 C 0.36948 1.00971 0.13589 0.0
C1688 C 0.36646 0.9254 0.15282 0.0
C1689 C 0.36474 0.96233 0.13309 0.0
C1690 C 0.3701 0.90249 0.15244 0.0
C1691 C 0.3725 0.89089 0.13213 0.0
C1692 C 0.36546 0.9372 0.13274 0.0
C1693 C 0.37013 0.90294 0.11233 0.0
C1694 C 0.3651 0.97503 0.11347 0.0
C1695 C 0.36767 0.99638 0.15496 0.0
N1696 N 0.36705 0.92546 0.11312 0.0
N1697 N 0.36562 0.97358 0.1531 0.0
H1698 H 0.44924 0.90444 0.61323 0.0
H1699 H 0.56316 0.84658 0.64247 0.0
H1700 H 0.44889 0.83523 0.63267 0.0
H1701 H 0.56029 0.91067 0.61085 0.0
H1702 H 0.52202 0.84023 0.63687 0.0
H1703 H 0.49012 0.90553 0.61022 0.0
C1704 C 0.45772 0.88931 0.61651 0.0
C1705 C 0.44546 0.8697 0.62314 0.0
C1706 C 0.5305 0.8555 0.63083 0.0
C1707 C 0.49282 0.87096 0.62029 0.0
C1708 C 0.55405 0.85904 0.63387 0.0
C1709 C 0.56533 0.87926 0.62726 0.0
C1710 C 0.51814 0.87233 0.6212 0.0
C1711 C 0.55244 0.89491 0.61644 0.0
C1712 C 0.48118 0.88995 0.61486 0.0
C1713 C 0.45756 0.85068 0.62731 0.0
N1714 N 0.52971 0.89123 0.61401 0.0
N1715 N 0.48054 0.85187 0.62613 0.0
H1716 H 0.65612 0.1358 0.16297 0.0
H1717 H 0.65622 1.01657 0.09835 0.0
H1718 H 0.65239 0.12979 0.09118 0.0
H1719 H 0.65424 0.02575 0.1697 0.0
H1720 H 0.66117 0.05778 0.09461 0.0
H1721 H 0.66185 0.09584 0.16495 0.0
C1722 C 0.65686 0.12616 0.14754 0.0
C1723 C 0.65367 0.13633 0.12687 0.0
C1724 C 0.66009 0.05072 0.11109 0.0
C1725 C 0.65986 0.08991 0.12904 0.0
C1726 C 0.65753 0.02717 0.11323 0.0
C1727 C 0.65489 1.01765 0.13439 0.0
C1728 C 0.66013 0.06478 0.13026 0.0
C1729 C 0.65621 0.03229 0.15306 0.0
C1730 C 0.66005 0.10319 0.14869 0.0
C1731 C 0.65483 0.12277 0.1075 0.0
N1732 N 0.65858 0.05493 0.15056 0.0
N1733 N 0.65755 0.10025 0.10905 0.0
H1734 H 0.63074 0.15276 0.62368 0.0
H1735 H 0.51647 0.20836 0.65383 0.0
H1736 H 0.63045 0.22046 0.64994 0.0
H1737 H 0.5196 0.14628 0.61644 0.0
H1738 H 0.55758 0.21504 0.65046 0.0
H1739 H 0.58985 0.15165 0.61888 0.0
C1740 C 0.62212 0.16756 0.62811 0.0
C1741 C 0.63419 0.18674 0.6372 0.0
C1742 C 0.54917 0.20015 0.64269 0.0
C1743 C 0.58688 0.18543 0.63224 0.0
C1744 C 0.52564 0.19642 0.64447 0.0
C1745 C 0.51444 0.17663 0.63556 0.0
C1746 C 0.5616 0.18394 0.632 0.0
C1747 C 0.52739 0.16167 0.62381 0.0
C1748 C 0.59867 0.16692 0.62543 0.0
C1749 C 0.62193 0.20536 0.64273 0.0
N1750 N 0.55012 0.16549 0.62262 0.0
N1751 N 0.59898 0.20414 0.64046 0.0
H1752 H 0.34199 1.01968 0.89349 0.0
H1753 H 0.39961 0.90942 0.9347 0.0
H1754 H 0.40223 1.02026 0.93469 0.0
H1755 H 0.3364 0.90568 0.898 0.0
H1756 H 0.39855 0.95018 0.93725 0.0
H1757 H 0.33715 0.97854 0.89735 0.0
C1758 C 0.3539 1.0113 0.90374 0.0
C1759 C 0.37262 0.0236 0.91368 0.0
C1760 C 0.38472 0.94052 0.92883 0.0
C1761 C 0.36738 0.97639 0.91788 0.0
C1762 C 0.38529 0.91712 0.92744 0.0
C1763 C 0.36806 0.90391 0.91614 0.0
C1764 C 0.36693 0.95117 0.9186 0.0
C1765 C 0.35002 0.91508 0.907 0.0
C1766 C 0.35124 0.98776 0.90579 0.0
C1767 C 0.38762 1.01164 0.92654 0.0
N1768 N 0.35004 0.938 0.9082 0.0
N1769 N 0.38479 0.9889 0.92808 0.0
H1770 H 0.52414 0.87077 0.38963 0.0
H1771 H 0.41591 0.88262 0.46536 0.0
H1772 H 0.5295 0.883 0.46063 0.0
H1773 H 0.41432 0.87643 0.39356 0.0
H1774 H 0.45634 0.87632 0.46541 0.0
H1775 H 0.48333 0.86559 0.39238 0.0
C1776 C 0.51673 0.87175 0.40596 0.0
C1777 C 0.53036 0.87723 0.42493 0.0
C1778 C 0.44705 0.87599 0.44969 0.0
C1779 C 0.48311 0.8721 0.42817 0.0
C1780 C 0.42389 0.87944 0.44964 0.0
C1781 C 0.41158 0.88013 0.42941 0.0
C1782 C 0.45801 0.87307 0.42936 0.0
C1783 C 0.423 0.87614 0.40958 0.0
C1784 C 0.49332 0.869 0.4075 0.0
C1785 C 0.5197 0.87851 0.44561 0.0
N1786 N 0.44544 0.87295 0.41007 0.0
N1787 N 0.4967 0.87634 0.44664 0.0
H1788 H 0.63376 0.12965 0.94632 0.0
H1789 H 0.69794 1.01846 0.91949 0.0
H1790 H 0.70315 0.13276 0.92662 0.0
H1791 H 0.63016 1.01899 0.94337 0.0
H1792 H 0.7023 0.05964 0.92528 0.0
H1793 H 0.63405 0.08891 0.94856 0.0
C1794 C 0.64922 0.12181 0.94277 0.0
C1795 C 0.66846 0.13484 0.93629 0.0
C1796 C 0.68662 0.05065 0.92957 0.0
C1797 C 0.66881 0.08757 0.93837 0.0
C1798 C 0.6842 0.02708 0.92646 0.0
C1799 C 0.66362 1.01512 0.93087 0.0
C1800 C 0.66833 0.06232 0.93719 0.0
C1801 C 0.6463 0.02738 0.93956 0.0
C1802 C 0.64937 0.09841 0.94398 0.0
C1803 C 0.68794 0.1235 0.93183 0.0
N1804 N 0.64899 0.05009 0.94223 0.0
N1805 N 0.68755 0.10056 0.93269 0.0
H1806 H 0.52099 0.17286 0.45824 0.0
H1807 H 0.63646 0.17442 0.39137 0.0
H1808 H 0.52619 0.17817 0.38691 0.0
H1809 H 0.63468 0.17046 0.46306 0.0
H1810 H 0.59649 0.181 0.39056 0.0
H1811 H 0.56244 0.17735 0.46161 0.0
C1812 C 0.53076 0.17571 0.44338 0.0
C1813 C 0.52001 0.17515 0.42225 0.0
C1814 C 0.60479 0.17899 0.40656 0.0
C1815 C 0.56749 0.17978 0.4259 0.0
C1816 C 0.62776 0.1753 0.40703 0.0
C1817 C 0.63911 0.17183 0.42731 0.0
C1818 C 0.59269 0.17895 0.4265 0.0
C1819 C 0.62673 0.17314 0.44703 0.0
C1820 C 0.55446 0.178 0.44527 0.0
C1821 C 0.53366 0.17843 0.40354 0.0
N1822 N 0.60418 0.17629 0.44612 0.0
N1823 N 0.5565 0.18037 0.40579 0.0
H1824 H 0.15313 0.37865 0.98813 0.0
H1825 H 0.08729 0.36805 0.10381 0.0
H1826 H 0.08099 0.36629 0.98996 0.0
H1827 H 0.15909 0.38014 0.09792 0.0
H1828 H 0.08411 0.36266 0.06282 0.0
H1829 H 0.15519 0.37475 0.02849 0.0
C1830 C 0.13768 0.37483 0.99698 0.0
C1831 C 0.11685 0.37285 0.98544 0.0
C1832 C 0.10058 0.36609 0.07059 0.0
C1833 C 0.11904 0.36868 0.03235 0.0
C1834 C 0.10242 0.36891 0.09403 0.0
C1835 C 0.12351 0.3745 0.1044 0.0
C1836 C 0.11999 0.36881 0.05748 0.0
C1837 C 0.14247 0.37589 0.09074 0.0
C1838 C 0.13886 0.37265 0.02017 0.0
C1839 C 0.09745 0.36788 0.99805 0.0
N1840 N 0.14024 0.37324 0.0682 0.0
N1841 N 0.09897 0.36621 0.02079 0.0
H1842 H 0.10248 0.62677 0.90378 0.0
H1843 H 0.14308 0.67837 0.02383 0.0
H1844 H 0.14958 0.68474 0.91146 0.0
H1845 H 0.09922 0.61835 1.01361 0.0
H1846 H 0.14191 0.68443 0.98332 0.0
H1847 H 0.09742 0.62691 0.94405 0.0
C1848 C 0.11155 0.63979 0.91388 0.0
C1849 C 0.12654 0.65575 0.90403 0.0
C1850 C 0.13229 0.67012 0.99 0.0
C1851 C 0.12102 0.6558 0.95074 0.0
C1852 C 0.13278 0.66675 1.0132 0.0
C1853 C 0.12128 0.64775 0.02231 0.0
C1854 C 0.12012 0.65445 0.97573 0.0
C1855 C 0.10847 0.63316 1.0075 0.0
C1856 C 0.1087 0.6398 0.93701 0.0
C1857 C 0.13779 0.67213 0.91821 0.0
N1858 N 0.10838 0.63673 0.98512 0.0
N1859 N 0.13498 0.6716 0.9408 0.0
H1860 H 0.84933 0.61244 0.49748 0.0
H1861 H 0.92979 0.61414 0.60664 0.0
H1862 H 0.92172 0.61229 0.4972 0.0
H1863 H 0.85817 0.61916 0.61104 0.0
H1864 H 0.92549 0.60743 0.56658 0.0
H1865 H 0.85061 0.60935 0.53845 0.0
C1866 C 0.86544 0.61124 0.50592 0.0
C1867 C 0.88546 0.61266 0.49375 0.0
C1868 C 0.91056 0.6097 0.57618 0.0
C1869 C 0.88706 0.60933 0.54073 0.0
C1870 C 0.91301 0.61341 0.59918 0.0
C1871 C 0.89433 0.61721 0.61232 0.0
C1872 C 0.88924 0.61009 0.56578 0.0
C1873 C 0.87302 0.61611 0.60162 0.0
C1874 C 0.86616 0.60965 0.52936 0.0
C1875 C 0.90583 0.61133 0.50574 0.0
N1876 N 0.87108 0.61296 0.57893 0.0
N1877 N 0.90608 0.60988 0.52838 0.0
H1878 H 0.93144 0.41786 0.8611 0.0
H1879 H 0.89893 0.35724 0.97596 0.0
H1880 H 0.88971 0.35596 0.86292 0.0
H1881 H 0.93524 0.42196 0.97132 0.0
H1882 H 0.90001 0.35305 0.935 0.0
H1883 H 0.9375 0.41621 0.90136 0.0
C1884 C 0.92378 0.40369 0.86989 0.0
C1885 C 0.90996 0.38706 0.85841 0.0
C1886 C 0.90806 0.36799 0.94301 0.0
C1887 C 0.91665 0.3852 0.90514 0.0
C1888 C 0.90766 0.37029 0.96645 0.0
C1889 C 0.91699 0.39001 0.97723 0.0
C1890 C 0.91799 0.38547 0.93023 0.0
C1891 C 0.92773 0.40649 0.96386 0.0
C1892 C 0.9272 0.4028 0.89302 0.0
C1893 C 0.90054 0.36915 0.87095 0.0
N1894 N 0.92779 0.40391 0.94125 0.0
N1895 N 0.90386 0.3688 0.8936 0.0
H1896 H 0.16272 0.46203 0.60663 0.0
H1897 H 0.17158 0.39043 0.49243 0.0
H1898 H 0.16596 0.39011 0.60359 0.0
H1899 H 0.14813 0.45701 0.49483 0.0
H1900 H 0.17895 0.39284 0.53291 0.0
H1901 H 0.1664 0.46299 0.56587 0.0
C1902 C 0.16479 0.4465 0.59752 0.0
C1903 C 0.16404 0.42595 0.6087 0.0
C1904 C 0.17276 0.40719 0.52454 0.0
C1905 C 0.16812 0.42693 0.56182 0.0
C1906 C 0.16888 0.40594 0.50135 0.0
C1907 C 0.15983 0.42379 0.49011 0.0
C1908 C 0.16743 0.42642 0.53674 0.0
C1909 C 0.15569 0.4431 0.50272 0.0
C1910 C 0.16669 0.44705 0.57418 0.0
C1911 C 0.16645 0.40635 0.5958 0.0
N1912 N 0.15942 0.44388 0.5253 0.0
N1913 N 0.16828 0.40732 0.57317 0.0
H1914 H 0.93027 0.69145 0.99745 0.0
H1915 H 0.94162 0.63145 0.11562 0.0
H1916 H 0.9377 0.62084 1.00631 0.0
H1917 H 0.93194 0.7021 0.11075 0.0
H1918 H 0.94593 0.62919 0.07534 0.0
H1919 H 0.93645 0.69763 0.03804 0.0
C1920 C 0.93388 0.67737 1.00778 0.0
C1921 C 0.93349 0.65558 0.99839 0.0
C1922 C 0.94314 0.64532 0.08296 0.0
C1923 C 0.94018 0.66243 0.04488 0.0
C1924 C 0.94076 0.64663 0.1061 0.0
C1925 C 0.93635 0.66698 0.11672 0.0
C1926 C 0.94082 0.66444 0.06995 0.0
C1927 C 0.93545 0.68607 0.10334 0.0
C1928 C 0.93716 0.68086 0.031 0.0
C1929 C 0.93779 0.63793 1.01273 0.0
N1930 N 0.93734 0.68429 0.08065 0.0
N1931 N 0.94077 0.64171 0.03508 0.0
H1932 H 0.90251 0.36628 0.36166 0.0
H1933 H 0.89264 0.4359 0.47653 0.0
H1934 H 0.88996 0.43658 0.36332 0.0
H1935 H 0.90283 0.36516 0.47173 0.0
H1936 H 0.8871 0.43626 0.43564 0.0
H1937 H 0.89823 0.36522 0.40202 0.0
C1938 C 0.89845 0.38145 0.37044 0.0
C1939 C 0.89659 0.40154 0.3589 0.0
C1940 C 0.8902 0.4206 0.44362 0.0
C1941 C 0.89211 0.4006 0.40571 0.0
C1942 C 0.89317 0.42035 0.46702 0.0
C1943 C 0.89832 0.40049 0.47771 0.0
C1944 C 0.89234 0.40084 0.43081 0.0
C1945 C 0.89908 0.38094 0.46434 0.0
C1946 C 0.8961 0.38087 0.39363 0.0
C1947 C 0.89142 0.42066 0.37141 0.0
N1948 N 0.89634 0.38167 0.44178 0.0
N1949 N 0.88964 0.41979 0.39411 0.0
H1950 H 0.16188 0.60775 0.52158 0.0
H1951 H 0.14605 0.67178 0.40591 0.0
H1952 H 0.13654 0.67332 0.51523 0.0
H1953 H 0.16659 0.60396 0.40841 0.0
H1954 H 0.14828 0.67415 0.44655 0.0
H1955 H 0.16927 0.60744 0.48116 0.0
C1956 C 0.15835 0.62225 0.51185 0.0
C1957 C 0.14847 0.64054 0.52188 0.0
C1958 C 0.15258 0.65878 0.4383 0.0
C1959 C 0.15669 0.64026 0.47562 0.0
C1960 C 0.15143 0.65747 0.41496 0.0
C1961 C 0.1561 0.63762 0.40354 0.0
C1962 C 0.15826 0.64005 0.45063 0.0
C1963 C 0.16291 0.61965 0.4164 0.0
C1964 C 0.1624 0.62201 0.48873 0.0
C1965 C 0.14399 0.65876 0.5083 0.0
N1966 N 0.16353 0.62119 0.43921 0.0
N1967 N 0.14799 0.65809 0.48605 0.0
H1968 H 0.38974 0.1477 0.38056 0.0
H1969 H 0.26702 0.18194 0.41625 0.0
H1970 H 0.37827 0.18553 0.44076 0.0
H1971 H 0.27752 0.12867 0.36884 0.0
H1972 H 0.30794 0.18862 0.42113 0.0
H1973 H 0.34928 0.14592 0.37195 0.0
C1974 C 0.37881 0.15598 0.39184 0.0
C1975 C 0.38763 0.1668 0.41149 0.0
C1976 C 0.30131 0.17563 0.40949 0.0
C1977 C 0.34088 0.1647 0.40163 0.0
C1978 C 0.27788 0.17188 0.40653 0.0
C1979 C 0.26863 0.15469 0.39205 0.0
C1980 C 0.31581 0.16228 0.39772 0.0
C1981 C 0.28375 0.14211 0.38016 0.0
C1982 C 0.35561 0.1548 0.38694 0.0
C1983 C 0.37238 0.17702 0.42543 0.0
N1984 N 0.30648 0.14613 0.38327 0.0
N1985 N 0.34985 0.17568 0.42027 0.0
H1986 H 0.35654 0.6554 0.91279 0.0
H1987 H 0.42833 0.77192 0.90038 0.0
H1988 H 0.42052 0.66031 0.88005 0.0
H1989 H 0.35683 0.76822 0.91192 0.0
H1990 H 0.42682 0.73121 0.89643 0.0
H1991 H 0.35742 0.69621 0.91544 0.0
C1992 C 0.37087 0.66506 0.90612 0.0
C1993 C 0.38861 0.65422 0.89628 0.0
C1994 C 0.41145 0.73924 0.89985 0.0
C1995 C 0.38969 0.70148 0.89952 0.0
C1996 C 0.41224 0.76261 0.90232 0.0
C1997 C 0.39262 0.77381 0.90659 0.0
C1998 C 0.39094 0.72657 0.90193 0.0
C1999 C 0.3724 0.76049 0.90875 0.0
C2000 C 0.37125 0.68846 0.9076 0.0
C2001 C 0.40649 0.66783 0.88775 0.0
N2002 N 0.37212 0.73762 0.90648 0.0
N2003 N 0.40669 0.69073 0.88978 0.0
H2004 H 0.67116 0.86747 0.44485 0.0
H2005 H 0.77239 0.92422 0.37508 0.0
H2006 H 0.6604 0.90598 0.38588 0.0
H2007 H 0.78152 0.87094 0.42135 0.0
H2008 H 0.73149 0.91807 0.37892 0.0
H2009 H 0.71149 0.86862 0.43683 0.0
C2010 C 0.67718 0.87591 0.43005 0.0
C2011 C 0.66219 0.88659 0.41603 0.0
C2012 C 0.74242 0.90755 0.38805 0.0
C2013 C 0.70868 0.8884 0.40695 0.0
C2014 C 0.76584 0.91103 0.38583 0.0
C2015 C 0.78059 0.89806 0.39784 0.0
C2016 C 0.7335 0.89121 0.40271 0.0
C2017 C 0.77093 0.8813 0.41164 0.0
C2018 C 0.70028 0.8766 0.42549 0.0
C2019 C 0.67117 0.8974 0.39715 0.0
N2020 N 0.74813 0.87855 0.41387 0.0
N2021 N 0.69374 0.89823 0.39334 0.0
H2022 H 0.68194 0.27025 0.93415 0.0
H2023 H 0.62206 0.37831 0.88953 0.0
H2024 H 0.61281 0.26792 0.91063 0.0
H2025 H 0.68493 0.3828 0.92698 0.0
H2026 H 0.61891 0.33756 0.89576 0.0
H2027 H 0.68395 0.31139 0.93085 0.0
C2028 C 0.66713 0.2783 0.92859 0.0
C2029 C 0.64722 0.26538 0.92268 0.0
C2030 C 0.63334 0.34754 0.90268 0.0
C2031 C 0.64951 0.31256 0.91838 0.0
C2032 C 0.63513 0.37084 0.8991 0.0
C2033 C 0.65373 0.38422 0.90773 0.0
C2034 C 0.65039 0.33742 0.91478 0.0
C2035 C 0.67019 0.37337 0.91999 0.0
C2036 C 0.6683 0.30183 0.92658 0.0
C2037 C 0.62862 0.27697 0.91536 0.0
N2038 N 0.66819 0.35077 0.923 0.0
N2039 N 0.63028 0.29969 0.91327 0.0
H2040 H 0.30879 0.87335 0.61551 0.0
H2041 H 0.20201 0.90015 0.68995 0.0
H2042 H 0.31475 0.89843 0.68343 0.0
H2043 H 0.19928 0.89466 0.61802 0.0
H2044 H 0.24271 0.8952 0.68894 0.0
H2045 H 0.26761 0.87577 0.6172 0.0
C2046 C 0.30146 0.87904 0.63082 0.0
C2047 C 0.31532 0.88583 0.64927 0.0
C2048 C 0.23313 0.89515 0.6734 0.0
C2049 C 0.2683 0.88868 0.6514 0.0
C2050 C 0.20989 0.89808 0.67398 0.0
C2051 C 0.19702 0.89803 0.65408 0.0
C2052 C 0.24359 0.89178 0.6528 0.0
C2053 C 0.20834 0.89501 0.63387 0.0
C2054 C 0.27799 0.88061 0.63177 0.0
C2055 C 0.30481 0.89323 0.66868 0.0
N2056 N 0.23077 0.89191 0.63378 0.0
N2057 N 0.2821 0.89445 0.66923 0.0
H2058 H 0.6165 0.77614 0.19231 0.0
H2059 H 0.63902 0.89153 0.18224 0.0
H2060 H 0.67384 0.76886 0.15062 0.0
H2061 H 0.67088 0.87422 0.12089 0.0
H2062 H 0.63783 0.8522 0.19283 0.0
H2063 H 0.62122 0.81682 0.18811 0.0
C2064 C 0.63041 0.78311 0.18267 0.0
C2065 C 0.64489 0.76889 0.17201 0.0
C2066 C 0.64497 0.85685 0.17697 0.0
C2067 C 0.65052 0.81595 0.167 0.0
C2068 C 0.64596 0.8795 0.17101 0.0
C2069 C 0.65495 0.88638 0.1505 0.0
C2070 C 0.65295 0.84065 0.16233 0.0
C2071 C 0.66374 0.86982 0.13682 0.0
C2072 C 0.6332 0.80649 0.18032 0.0
C2073 C 0.66239 0.77906 0.15939 0.0
N2074 N 0.66245 0.84781 0.14293 0.0
N2075 N 0.66451 0.80183 0.15702 0.0
H2076 H 0.8826 0.16642 0.69837 0.0
H2077 H 0.76884 0.18294 0.62782 0.0
H2078 H 0.87646 0.15607 0.62698 0.0
H2079 H 0.76816 0.16354 0.69672 0.0
H2080 H 0.8101 0.18089 0.6283 0.0
H2081 H 0.84192 0.17184 0.6992 0.0
C2082 C 0.87278 0.16508 0.68295 0.0
C2083 C 0.88312 0.16053 0.66264 0.0
C2084 C 0.80089 0.17734 0.64338 0.0
C2085 C 0.83675 0.16753 0.66337 0.0
C2086 C 0.7774 0.17875 0.64314 0.0
C2087 C 0.76507 0.17338 0.66223 0.0
C2088 C 0.81211 0.17092 0.66295 0.0
C2089 C 0.77703 0.16772 0.68159 0.0
C2090 C 0.84959 0.16831 0.68341 0.0
C2091 C 0.8694 0.1593 0.64313 0.0
N2092 N 0.7998 0.16665 0.68148 0.0
N2093 N 0.84713 0.16294 0.64397 0.0
H2094 H 0.35354 0.15028 0.11655 0.0
H2095 H 0.41481 0.25231 0.1876 0.0
H2096 H 0.39543 0.14041 0.17458 0.0
H2097 H 0.35799 0.26063 0.14353 0.0
H2098 H 0.40836 0.21142 0.18285 0.0
H2099 H 0.35513 0.19065 0.12571 0.0
C2100 C 0.36281 0.1565 0.13138 0.0
C2101 C 0.37431 0.14175 0.14479 0.0
C2102 C 0.39713 0.22218 0.17442 0.0
C2103 C 0.37663 0.18825 0.15515 0.0
C2104 C 0.40078 0.24559 0.17719 0.0
C2105 C 0.3869 0.2601 0.16605 0.0
C2106 C 0.37971 0.21306 0.16007 0.0
C2107 C 0.36908 0.25023 0.1526 0.0
C2108 C 0.36376 0.17961 0.13658 0.0
C2109 C 0.3862 0.15099 0.16373 0.0
N2110 N 0.36618 0.22746 0.1498 0.0
N2111 N 0.38725 0.17355 0.16817 0.0
H2112 H 0.09716 0.36672 0.24667 0.0
H2113 H 0.12746 0.37031 0.35983 0.0
H2114 H 0.15971 0.40579 0.23684 0.0
H2115 H 0.16763 0.4307 0.34436 0.0
H2116 H 0.12155 0.36236 0.32003 0.0
H2117 H 0.10404 0.36966 0.28704 0.0
C2118 C 0.11254 0.37561 0.25295 0.0
C2119 C 0.12792 0.38582 0.23813 0.0
C2120 C 0.13152 0.37746 0.32519 0.0
C2121 C 0.13612 0.38927 0.2848 0.0
C2122 C 0.1352 0.38189 0.34808 0.0
C2123 C 0.14803 0.40132 0.3557 0.0
C2124 C 0.14067 0.39255 0.30947 0.0
C2125 C 0.15762 0.41554 0.33942 0.0
C2126 C 0.11656 0.37721 0.27613 0.0
C2127 C 0.14741 0.39743 0.24748 0.0
N2128 N 0.15373 0.41089 0.31718 0.0
N2129 N 0.15081 0.399 0.27007 0.0
H2130 H 0.15911 0.60192 0.66018 0.0
H2131 H 0.13761 0.67138 0.77246 0.0
H2132 H 0.13796 0.6695 0.65723 0.0
H2133 H 0.12802 0.5992 0.76582 0.0
H2134 H 0.14327 0.67324 0.73178 0.0
H2135 H 0.15495 0.60306 0.70069 0.0
C2136 C 0.15405 0.6172 0.66805 0.0
C2137 C 0.14895 0.63564 0.65511 0.0
C2138 C 0.13978 0.65706 0.73934 0.0
C2139 C 0.14391 0.63699 0.70184 0.0
C2140 C 0.13644 0.65598 0.76255 0.0
C2141 C 0.13219 0.63511 0.77281 0.0
C2142 C 0.13943 0.63711 0.72637 0.0
C2143 C 0.13112 0.61573 0.75892 0.0
C2144 C 0.15144 0.61775 0.69123 0.0
C2145 C 0.14216 0.65488 0.66646 0.0
N2146 N 0.13493 0.61721 0.73667 0.0
N2147 N 0.13984 0.65506 0.68912 0.0
H2148 H 0.92984 0.67432 0.24984 0.0
H2149 H 0.88569 0.60805 0.35865 0.0
H2150 H 0.89596 0.60801 0.24663 0.0
H2151 H 0.92324 0.67258 0.36079 0.0
H2152 H 0.88892 0.60744 0.31768 0.0
H2153 H 0.92796 0.67355 0.29069 0.0
C2154 C 0.92225 0.65951 0.25765 0.0
C2155 C 0.91307 0.64125 0.24456 0.0
C2156 C 0.89644 0.62171 0.3272 0.0
C2157 C 0.9105 0.64034 0.29158 0.0
C2158 C 0.89451 0.62208 0.35061 0.0
C2159 C 0.90417 0.64035 0.36341 0.0
C2160 C 0.90805 0.63977 0.31645 0.0
C2161 C 0.9155 0.65803 0.35187 0.0
C2162 C 0.92105 0.6591 0.28104 0.0
C2163 C 0.90328 0.62257 0.25585 0.0
N2164 N 0.91708 0.65728 0.32927 0.0
N2165 N 0.90216 0.62265 0.27855 0.0
H2166 H 0.89909 0.37615 0.72641 0.0
H2167 H 0.89227 0.4479 0.61461 0.0
H2168 H 0.90981 0.44834 0.72434 0.0
H2169 H 0.9051 0.37766 0.61233 0.0
H2170 H 0.89301 0.44689 0.65539 0.0
H2171 H 0.89707 0.37496 0.68524 0.0
C2172 C 0.90125 0.3917 0.71742 0.0
C2173 C 0.90471 0.41236 0.72911 0.0
C2174 C 0.89549 0.43162 0.646 0.0
C2175 C 0.90177 0.41114 0.68193 0.0
C2176 C 0.89485 0.43214 0.62263 0.0
C2177 C 0.89857 0.41284 0.60984 0.0
C2178 C 0.8997 0.4116 0.65694 0.0
C2179 C 0.90208 0.39297 0.62141 0.0
C2180 C 0.89998 0.39101 0.69389 0.0
C2181 C 0.90718 0.43194 0.71633 0.0
N2182 N 0.90257 0.39286 0.64423 0.0
N2183 N 0.90548 0.43084 0.69365 0.0
H2184 H 0.70151 0.91343 0.63201 0.0
H2185 H 0.80916 0.88707 0.70656 0.0
H2186 H 0.70076 0.85836 0.67762 0.0
H2187 H 0.8161 0.91803 0.6424 0.0
H2188 H 0.76837 0.8814 0.69953 0.0
H2189 H 0.74247 0.91956 0.63817 0.0
C2190 C 0.70995 0.90246 0.64313 0.0
C2191 C 0.69755 0.88518 0.65412 0.0
C2192 C 0.77881 0.88958 0.68705 0.0
C2193 C 0.7445 0.89265 0.66185 0.0
C2194 C 0.80211 0.89305 0.69116 0.0
C2195 C 0.81622 0.90317 0.67512 0.0
C2196 C 0.76928 0.89662 0.66691 0.0
C2197 C 0.80597 0.91023 0.65531 0.0
C2198 C 0.73335 0.90603 0.64669 0.0
C2199 C 0.70953 0.8717 0.66854 0.0
N2200 N 0.78321 0.90693 0.65182 0.0
N2201 N 0.73217 0.87587 0.67216 0.0
H2202 H 0.65268 0.26819 0.11824 0.0
H2203 H 0.60634 0.38223 0.16866 0.0
H2204 H 0.60284 0.26878 0.16952 0.0
H2205 H 0.66458 0.38031 0.12707 0.0
H2206 H 0.60278 0.34079 0.16744 0.0
H2207 H 0.65531 0.30949 0.11928 0.0
C2208 C 0.64228 0.27691 0.12968 0.0
C2209 C 0.62761 0.26478 0.14385 0.0
C2210 C 0.61635 0.34953 0.15862 0.0
C2211 C 0.6304 0.31228 0.14507 0.0
C2212 C 0.61836 0.37323 0.15933 0.0
C2213 C 0.63583 0.38503 0.14808 0.0
C2214 C 0.63175 0.3375 0.14638 0.0
C2215 C 0.65086 0.37221 0.13618 0.0
C2216 C 0.64379 0.30055 0.13031 0.0
C2217 C 0.61453 0.27724 0.15832 0.0
N2218 N 0.64844 0.34937 0.13561 0.0
N2219 N 0.61619 0.30013 0.15851 0.0
H2220 H 0.26429 0.13202 0.63992 0.0
H2221 H 0.37976 0.20188 0.67635 0.0
H2222 H 0.26946 0.18114 0.69375 0.0
H2223 H 0.37821 0.14131 0.63585 0.0
H2224 H 0.33882 0.19673 0.67979 0.0
H2225 H 0.30532 0.13662 0.63591 0.0
C2226 C 0.27403 0.14358 0.65109 0.0
C2227 C 0.26325 0.15609 0.66732 0.0
C2228 C 0.34739 0.18461 0.67004 0.0
C2229 C 0.3104 0.16186 0.6624 0.0
C2230 C 0.37082 0.18766 0.66789 0.0
C2231 C 0.38263 0.17208 0.6557 0.0
C2232 C 0.3354 0.16592 0.65981 0.0
C2233 C 0.36994 0.15384 0.64535 0.0
C2234 C 0.29749 0.14627 0.64871 0.0
C2235 C 0.2769 0.17097 0.68112 0.0
N2236 N 0.34712 0.15129 0.64762 0.0
N2237 N 0.29961 0.17355 0.67823 0.0
H2238 H 0.37857 0.75945 0.12123 0.0
H2239 H 0.4178 0.64802 0.181 0.0
H2240 H 0.41796 0.76045 0.1825 0.0
H2241 H 0.37352 0.64669 0.12305 0.0
H2242 H 0.41782 0.68924 0.18204 0.0
H2243 H 0.376 0.71813 0.1218 0.0
C2244 C 0.3865 0.75109 0.13488 0.0
C2245 C 0.39854 0.76368 0.15178 0.0
C2246 C 0.40804 0.67989 0.16915 0.0
C2247 C 0.39589 0.7162 0.15245 0.0
C2248 C 0.40802 0.65629 0.16857 0.0
C2249 C 0.39569 0.64364 0.15192 0.0
C2250 C 0.39571 0.69103 0.1529 0.0
C2251 C 0.38335 0.65551 0.13623 0.0
C2252 C 0.38511 0.72744 0.13517 0.0
C2253 C 0.40855 0.75168 0.169 0.0
N2254 N 0.38376 0.67837 0.13707 0.0
N2255 N 0.40709 0.72881 0.1688 0.0
H2256 H 0.76651 0.12025 0.37671 0.0
H2257 H 0.88417 0.17221 0.42844 0.0
H2258 H 0.77181 0.16576 0.43363 0.0
H2259 H 0.87968 0.11956 0.37791 0.0
H2260 H 0.84334 0.1714 0.4289 0.0
H2261 H 0.80747 0.12126 0.37549 0.0
C2262 C 0.77622 0.13058 0.38898 0.0
C2263 C 0.76541 0.14299 0.40535 0.0
C2264 C 0.85118 0.16 0.41768 0.0
C2265 C 0.81291 0.14414 0.40391 0.0
C2266 C 0.87466 0.16043 0.41731 0.0
C2267 C 0.88571 0.14588 0.40306 0.0
C2268 C 0.83818 0.14497 0.40363 0.0
C2269 C 0.8721 0.1311 0.38916 0.0
C2270 C 0.79974 0.13105 0.38825 0.0
C2271 C 0.7792 0.15592 0.42071 0.0
N2272 N 0.84911 0.13105 0.38978 0.0
N2273 N 0.80214 0.15618 0.41958 0.0
H2274 H 0.40111 0.27483 0.91482 0.0
H2275 H 0.34062 0.15689 0.87175 0.0
H2276 H 0.35652 0.26853 0.85716 0.0
H2277 H 0.39793 0.16152 0.91711 0.0
H2278 H 0.34342 0.19795 0.86909 0.0
H2279 H 0.398 0.23384 0.91818 0.0
C2280 C 0.39079 0.26486 0.90273 0.0
C2281 C 0.37919 0.27533 0.88556 0.0
C2282 C 0.35531 0.19001 0.87974 0.0
C2283 C 0.37517 0.22806 0.88965 0.0
C2284 C 0.35359 0.1665 0.88144 0.0
C2285 C 0.36899 0.15553 0.89478 0.0
C2286 C 0.37243 0.2029 0.8916 0.0
C2287 C 0.3856 0.16909 0.90669 0.0
C2288 C 0.38898 0.24139 0.90472 0.0
C2289 C 0.36595 0.26134 0.87055 0.0
N2290 N 0.38685 0.19194 0.90484 0.0
N2291 N 0.3642 0.23856 0.87303 0.0
H2292 H 0.16801 0.92878 0.37552 0.0
H2293 H 0.27984 0.88579 0.43452 0.0
H2294 H 0.16744 0.88245 0.43002 0.0
H2295 H 0.28121 0.92554 0.37506 0.0
H2296 H 0.23854 0.88497 0.43335 0.0
H2297 H 0.20941 0.92854 0.37515 0.0
C2298 C 0.17647 0.91853 0.38732 0.0
C2299 C 0.16399 0.90566 0.4028 0.0
C2300 C 0.24789 0.89382 0.4205 0.0
C2301 C 0.21149 0.90539 0.40261 0.0
C2302 C 0.27154 0.89425 0.42118 0.0
C2303 C 0.28424 0.90571 0.40489 0.0
C2304 C 0.23669 0.90504 0.40351 0.0
C2305 C 0.2723 0.91642 0.38803 0.0
C2306 C 0.20014 0.91839 0.38714 0.0
C2307 C 0.17611 0.89272 0.41772 0.0
N2308 N 0.24937 0.9159 0.38783 0.0
N2309 N 0.19896 0.89299 0.41729 0.0
H2310 H 0.66552 0.76143 0.92925 0.0
H2311 H 0.62977 0.88025 0.89299 0.0
H2312 H 0.64253 0.77001 0.86152 0.0
H2313 H 0.69478 0.87576 0.92487 0.0
H2314 H 0.6265 0.83918 0.88802 0.0
H2315 H 0.66877 0.8025 0.93464 0.0
C2316 C 0.66084 0.77191 0.91558 0.0
C2317 C 0.65363 0.76214 0.89489 0.0
C2318 C 0.64139 0.84719 0.89624 0.0
C2319 C 0.65698 0.80929 0.90119 0.0
C2320 C 0.64324 0.87063 0.89927 0.0
C2321 C 0.66257 0.88159 0.9095 0.0
C2322 C 0.65865 0.83435 0.90411 0.0
C2323 C 0.67958 0.86811 0.91696 0.0
C2324 C 0.6629 0.79535 0.91866 0.0
C2325 C 0.64812 0.77672 0.87774 0.0
N2326 N 0.6771 0.84521 0.91439 0.0
N2327 N 0.64961 0.79949 0.88135 0.0
H2328 H 0.93524 0.68182 0.85512 0.0
H2329 H 0.86707 0.61706 0.75439 0.0
H2330 H 0.89231 0.62176 0.86494 0.0
H2331 H 0.93119 0.65323 0.74441 0.0
H2332 H 0.87306 0.62205 0.79497 0.0
H2333 H 0.93125 0.67527 0.81443 0.0
C2334 C 0.92509 0.66724 0.8488 0.0
C2335 C 0.91421 0.6523 0.86362 0.0
C2336 C 0.88587 0.62877 0.78387 0.0
C2337 C 0.90912 0.645 0.81701 0.0
C2338 C 0.88246 0.6259 0.76069 0.0
C2339 C 0.89871 0.63453 0.74584 0.0
C2340 C 0.9054 0.6409 0.79239 0.0
C2341 C 0.91827 0.64604 0.75513 0.0
C2342 C 0.92282 0.6635 0.82556 0.0
C2343 C 0.90116 0.63372 0.8543 0.0
N2344 N 0.92094 0.64909 0.77768 0.0
N2345 N 0.89881 0.63076 0.83175 0.0
H2346 H 0.90788 0.42103 0.2263 0.0
H2347 H 0.91117 0.34619 0.11351 0.0
H2348 H 0.92719 0.35272 0.22533 0.0
H2349 H 0.9143 0.4186 0.11391 0.0
H2350 H 0.9128 0.34734 0.15453 0.0
H2351 H 0.90485 0.41944 0.18525 0.0
C2352 C 0.91108 0.40559 0.21754 0.0
C2353 C 0.91778 0.38699 0.22942 0.0
C2354 C 0.91325 0.36299 0.14562 0.0
C2355 C 0.9145 0.38508 0.18231 0.0
C2356 C 0.91243 0.36233 0.12216 0.0
C2357 C 0.91282 0.38231 0.11007 0.0
C2358 C 0.91403 0.38376 0.15725 0.0
C2359 C 0.9142 0.40273 0.12238 0.0
C2360 C 0.90958 0.40475 0.19407 0.0
C2361 C 0.92202 0.36752 0.21699 0.0
N2362 N 0.91458 0.40292 0.14516 0.0
N2363 N 0.92029 0.36707 0.19427 0.0
H2364 H 0.16491 0.41385 0.85272 0.0
H2365 H 0.10346 0.37423 0.73704 0.0
H2366 H 0.10286 0.37196 0.84971 0.0
H2367 H 0.15981 0.42367 0.74185 0.0
H2368 H 0.10434 0.37108 0.77759 0.0
H2369 H 0.16479 0.41484 0.8122 0.0
C2370 C 0.15126 0.40462 0.84358 0.0
C2371 C 0.13377 0.39283 0.85497 0.0
C2372 C 0.11653 0.38262 0.76984 0.0
C2373 C 0.13359 0.39409 0.80779 0.0
C2374 C 0.1161 0.38447 0.74655 0.0
C2375 C 0.13162 0.39931 0.73572 0.0
C2376 C 0.1327 0.39556 0.78274 0.0
C2377 C 0.14748 0.41205 0.74926 0.0
C2378 C 0.15122 0.40532 0.82028 0.0
C2379 C 0.11674 0.3812 0.84186 0.0
N2380 N 0.14762 0.40984 0.77194 0.0
N2381 N 0.11703 0.38221 0.81903 0.0
H2382 H 0.13587 0.68245 0.27161 0.0
H2383 H 0.13006 0.6145 0.15587 0.0
H2384 H 0.14228 0.61102 0.26791 0.0
H2385 H 0.1503 0.68526 0.16004 0.0
H2386 H 0.13102 0.61314 0.19665 0.0
H2387 H 0.13874 0.68409 0.23097 0.0
C2388 C 0.13826 0.66712 0.26226 0.0
C2389 C 0.13901 0.64657 0.27329 0.0
C2390 C 0.13524 0.62898 0.18867 0.0
C2391 C 0.14157 0.64826 0.22641 0.0
C2392 C 0.13448 0.62986 0.16532 0.0
C2393 C 0.13996 0.6501 0.15433 0.0
C2394 C 0.14118 0.64855 0.20139 0.0
C2395 C 0.14583 0.66932 0.16767 0.0
C2396 C 0.13982 0.66809 0.23901 0.0
C2397 C 0.14193 0.62726 0.2602 0.0
N2398 N 0.14613 0.6681 0.19042 0.0
N2399 N 0.14277 0.62852 0.23747 0.0
loop_
_geom_bond_atom_site_label_1
_geom_bond_atom_site_label_2
_geom_bond_distance
_geom_bond_site_symmetry_2
_ccdc_geom_bond_type
O0 Cd1 2.223 . S
O0 C8 1.315 . S
Cd1 O0 2.223 . S
Cd1 O4 2.297 . S
Cd1 O5 2.439 . S
Cd1 O11 2.240 . S
Cd2 O3 2.240 . S
Cd2 O10 2.223 . S
Cd2 O12 2.297 . S
Cd2 O13 2.439 . S
O3 Cd2 2.240 . S
O3 C8 1.279 . S
O4 Cd1 2.297 . S
O4 C6 1.247 . S
O5 Cd1 2.439 . S
O5 C6 1.208 . S
C6 O4 1.247 . S
C6 O5 1.208 . S
C7 O12 1.247 . S
C7 O13 1.208 . S
C8 O0 1.315 . S
C8 O3 1.279 . S
C9 O10 1.315 . S
C9 O11 1.279 . S
O10 Cd2 2.223 . S
O10 C9 1.315 . S
O11 Cd1 2.240 . S
O11 C9 1.279 . S
O12 Cd2 2.297 . S
O12 C7 1.247 . S
O13 Cd2 2.439 . S
O13 C7 1.208 . S
O14 Cd15 2.223 . S
O14 C22 1.315 . S
Cd15 O14 2.223 . S
Cd15 O18 2.297 . S
Cd15 O19 2.439 . S
Cd15 O25 2.240 . S
Cd16 O17 2.240 . S
Cd16 O24 2.223 . S
Cd16 O26 2.297 . S
Cd16 O27 2.439 . S
O17 Cd16 2.240 . S
O17 C22 1.279 . S
O18 Cd15 2.297 . S
O18 C20 1.247 . S
O19 Cd15 2.439 . S
O19 C20 1.208 . S
C20 O18 1.247 . S
C20 O19 1.208 . S
C21 O26 1.247 . S
C21 O27 1.208 . S
C22 O14 1.315 . S
C22 O17 1.279 . S
C23 O24 1.315 . S
C23 O25 1.279 . S
O24 Cd16 2.223 . S
O24 C23 1.315 . S
O25 Cd15 2.240 . S
O25 C23 1.279 . S
O26 Cd16 2.297 . S
O26 C21 1.247 . S
O27 Cd16 2.439 . S
O27 C21 1.208 . S
O28 Cd29 2.223 . S
O28 C36 1.315 . S
Cd29 O28 2.223 . S
Cd29 O32 2.297 . S
Cd29 O33 2.439 . S
Cd29 O39 2.240 . S
Cd30 O31 2.240 . S
Cd30 O38 2.223 . S
Cd30 O40 2.297 . S
Cd30 O41 2.439 . S
O31 Cd30 2.240 . S
O31 C36 1.279 . S
O32 Cd29 2.297 . S
O32 C34 1.247 . S
O33 Cd29 2.439 . S
O33 C34 1.208 . S
C34 O32 1.247 . S
C34 O33 1.208 . S
C35 O40 1.247 . S
C35 O41 1.208 . S
C36 O28 1.315 . S
C36 O31 1.279 . S
C37 O38 1.315 . S
C37 O39 1.279 . S
O38 Cd30 2.223 . S
O38 C37 1.315 . S
O39 Cd29 2.240 . S
O39 C37 1.279 . S
O40 Cd30 2.297 . S
O40 C35 1.247 . S
O41 Cd30 2.439 . S
O41 C35 1.208 . S
O42 Cd43 2.223 . S
O42 C50 1.315 . S
Cd43 O42 2.223 . S
Cd43 O46 2.297 . S
Cd43 O47 2.439 . S
Cd43 O53 2.240 . S
Cd44 O45 2.240 . S
Cd44 O52 2.223 . S
Cd44 O54 2.297 . S
Cd44 O55 2.439 . S
O45 Cd44 2.240 . S
O45 C50 1.279 . S
O46 Cd43 2.297 . S
O46 C48 1.247 . S
O47 Cd43 2.439 . S
O47 C48 1.208 . S
C48 O46 1.247 . S
C48 O47 1.208 . S
C49 O54 1.247 . S
C49 O55 1.208 . S
C50 O42 1.315 . S
C50 O45 1.279 . S
C51 O52 1.315 . S
C51 O53 1.279 . S
O52 Cd44 2.223 . S
O52 C51 1.315 . S
O53 Cd43 2.240 . S
O53 C51 1.279 . S
O54 Cd44 2.297 . S
O54 C49 1.247 . S
O55 Cd44 2.439 . S
O55 C49 1.208 . S
O56 Cd57 2.223 . S
O56 C64 1.315 . S
Cd57 O56 2.223 . S
Cd57 O60 2.297 . S
Cd57 O61 2.439 . S
Cd57 O67 2.240 . S
Cd58 O59 2.240 . S
Cd58 O66 2.223 . S
Cd58 O68 2.297 . S
Cd58 O69 2.439 . S
O59 Cd58 2.240 . S
O59 C64 1.279 . S
O60 Cd57 2.297 . S
O60 C62 1.247 . S
O61 Cd57 2.439 . S
O61 C62 1.208 . S
C62 O60 1.247 . S
C62 O61 1.208 . S
C63 O68 1.247 . S
C63 O69 1.208 . S
C64 O56 1.315 . S
C64 O59 1.279 . S
C65 O66 1.315 . S
C65 O67 1.279 . S
O66 Cd58 2.223 . S
O66 C65 1.315 . S
O67 Cd57 2.240 . S
O67 C65 1.279 . S
O68 Cd58 2.297 . S
O68 C63 1.247 . S
O69 Cd58 2.439 . S
O69 C63 1.208 . S
O70 Cd71 2.223 . S
O70 C78 1.315 . S
Cd71 O70 2.223 . S
Cd71 O74 2.297 . S
Cd71 O75 2.439 . S
Cd71 O81 2.240 . S
Cd72 O73 2.240 . S
Cd72 O80 2.223 . S
Cd72 O82 2.297 . S
Cd72 O83 2.439 . S
O73 Cd72 2.240 . S
O73 C78 1.279 . S
O74 Cd71 2.297 . S
O74 C76 1.247 . S
O75 Cd71 2.439 . S
O75 C76 1.208 . S
C76 O74 1.247 . S
C76 O75 1.208 . S
C77 O82 1.247 . S
C77 O83 1.208 . S
C78 O70 1.315 . S
C78 O73 1.279 . S
C79 O80 1.315 . S
C79 O81 1.279 . S
O80 Cd72 2.223 . S
O80 C79 1.315 . S
O81 Cd71 2.240 . S
O81 C79 1.279 . S
O82 Cd72 2.297 . S
O82 C77 1.247 . S
O83 Cd72 2.439 . S
O83 C77 1.208 . S
O84 Cd85 2.223 . S
O84 C92 1.315 . S
Cd85 O84 2.223 . S
Cd85 O88 2.297 . S
Cd85 O89 2.439 . S
Cd85 O95 2.240 . S
Cd86 O87 2.240 . S
Cd86 O94 2.223 . S
Cd86 O96 2.297 . S
Cd86 O97 2.439 . S
O87 Cd86 2.240 . S
O87 C92 1.279 . S
O88 Cd85 2.297 . S
O88 C90 1.247 . S
O89 Cd85 2.439 . S
O89 C90 1.208 . S
C90 O88 1.247 . S
C90 O89 1.208 . S
C91 O96 1.247 . S
C91 O97 1.208 . S
C92 O84 1.315 . S
C92 O87 1.279 . S
C93 O94 1.315 . S
C93 O95 1.279 . S
O94 Cd86 2.223 . S
O94 C93 1.315 . S
O95 Cd85 2.240 . S
O95 C93 1.279 . S
O96 Cd86 2.297 . S
O96 C91 1.247 . S
O97 Cd86 2.439 . S
O97 C91 1.208 . S
O98 Cd99 2.223 . S
O98 C106 1.315 . S
Cd99 O98 2.223 . S
Cd99 O102 2.297 . S
Cd99 O103 2.439 . S
Cd99 O109 2.240 . S
Cd100 O101 2.240 . S
Cd100 O108 2.223 . S
Cd100 O110 2.297 . S
Cd100 O111 2.439 . S
O101 Cd100 2.240 . S
O101 C106 1.279 . S
O102 Cd99 2.297 . S
O102 C104 1.247 . S
O103 Cd99 2.439 . S
O103 C104 1.208 . S
C104 O102 1.247 . S
C104 O103 1.208 . S
C105 O110 1.247 . S
C105 O111 1.208 . S
C106 O98 1.315 . S
C106 O101 1.279 . S
C107 O108 1.315 . S
C107 O109 1.279 . S
O108 Cd100 2.223 . S
O108 C107 1.315 . S
O109 Cd99 2.240 . S
O109 C107 1.279 . S
O110 Cd100 2.297 . S
O110 C105 1.247 . S
O111 Cd100 2.439 . S
O111 C105 1.208 . S
O112 Cd113 2.223 . S
O112 C120 1.315 . S
Cd113 O112 2.223 . S
Cd113 O116 2.297 . S
Cd113 O117 2.439 . S
Cd113 O123 2.240 . S
Cd114 O115 2.240 . S
Cd114 O122 2.223 . S
Cd114 O124 2.297 . S
Cd114 O125 2.439 . S
O115 Cd114 2.240 . S
O115 C120 1.279 . S
O116 Cd113 2.297 . S
O116 C118 1.247 . S
O117 Cd113 2.439 . S
O117 C118 1.208 . S
C118 O116 1.247 . S
C118 O117 1.208 . S
C119 O124 1.247 . S
C119 O125 1.208 . S
C120 O112 1.315 . S
C120 O115 1.279 . S
C121 O122 1.315 . S
C121 O123 1.279 . S
O122 Cd114 2.223 . S
O122 C121 1.315 . S
O123 Cd113 2.240 . S
O123 C121 1.279 . S
O124 Cd114 2.297 . S
O124 C119 1.247 . S
O125 Cd114 2.439 . S
O125 C119 1.208 . S
O126 Cd127 2.223 . S
O126 C134 1.315 . S
Cd127 O126 2.223 . S
Cd127 O130 2.297 . S
Cd127 O131 2.439 . S
Cd127 O137 2.240 . S
Cd128 O129 2.240 . S
Cd128 O136 2.223 . S
Cd128 O138 2.297 . S
Cd128 O139 2.439 . S
O129 Cd128 2.240 . S
O129 C134 1.279 . S
O130 Cd127 2.297 . S
O130 C132 1.247 . S
O131 Cd127 2.439 . S
O131 C132 1.208 . S
C132 O130 1.247 . S
C132 O131 1.208 . S
C133 O138 1.247 . S
C133 O139 1.208 . S
C134 O126 1.315 . S
C134 O129 1.279 . S
C135 O136 1.315 . S
C135 O137 1.279 . S
O136 Cd128 2.223 . S
O136 C135 1.315 . S
O137 Cd127 2.240 . S
O137 C135 1.279 . S
O138 Cd128 2.297 . S
O138 C133 1.247 . S
O139 Cd128 2.439 . S
O139 C133 1.208 . S
O140 Cd141 2.223 . S
O140 C148 1.315 . S
Cd141 O140 2.223 . S
Cd141 O144 2.297 . S
Cd141 O145 2.439 . S
Cd141 O151 2.240 . S
Cd142 O143 2.240 . S
Cd142 O150 2.223 . S
Cd142 O152 2.297 . S
Cd142 O153 2.439 . S
O143 Cd142 2.240 . S
O143 C148 1.279 . S
O144 Cd141 2.297 . S
O144 C146 1.247 . S
O145 Cd141 2.439 . S
O145 C146 1.208 . S
C146 O144 1.247 . S
C146 O145 1.208 . S
C147 O152 1.247 . S
C147 O153 1.208 . S
C148 O140 1.315 . S
C148 O143 1.279 . S
C149 O150 1.315 . S
C149 O151 1.279 . S
O150 Cd142 2.223 . S
O150 C149 1.315 . S
O151 Cd141 2.240 . S
O151 C149 1.279 . S
O152 Cd142 2.297 . S
O152 C147 1.247 . S
O153 Cd142 2.439 . S
O153 C147 1.208 . S
O154 Cd155 2.223 . S
O154 C162 1.315 . S
Cd155 O154 2.223 . S
Cd155 O158 2.297 . S
Cd155 O159 2.439 . S
Cd155 O165 2.240 . S
Cd156 O157 2.240 . S
Cd156 O164 2.223 . S
Cd156 O166 2.297 . S
Cd156 O167 2.439 . S
O157 Cd156 2.240 . S
O157 C162 1.279 . S
O158 Cd155 2.297 . S
O158 C160 1.247 . S
O159 Cd155 2.439 . S
O159 C160 1.208 . S
C160 O158 1.247 . S
C160 O159 1.208 . S
C161 O166 1.247 . S
C161 O167 1.208 . S
C162 O154 1.315 . S
C162 O157 1.279 . S
C163 O164 1.315 . S
C163 O165 1.279 . S
O164 Cd156 2.223 . S
O164 C163 1.315 . S
O165 Cd155 2.240 . S
O165 C163 1.279 . S
O166 Cd156 2.297 . S
O166 C161 1.247 . S
O167 Cd156 2.439 . S
O167 C161 1.208 . S
O168 Cd169 2.223 . S
O168 C176 1.315 . S
Cd169 O168 2.223 . S
Cd169 O172 2.297 . S
Cd169 O173 2.439 . S
Cd169 O179 2.240 . S
Cd170 O171 2.240 . S
Cd170 O178 2.223 . S
Cd170 O180 2.297 . S
Cd170 O181 2.439 . S
O171 Cd170 2.240 . S
O171 C176 1.279 . S
O172 Cd169 2.297 . S
O172 C174 1.247 . S
O173 Cd169 2.439 . S
O173 C174 1.208 . S
C174 O172 1.247 . S
C174 O173 1.208 . S
C175 O180 1.247 . S
C175 O181 1.208 . S
C176 O168 1.315 . S
C176 O171 1.279 . S
C177 O178 1.315 . S
C177 O179 1.279 . S
O178 Cd170 2.223 . S
O178 C177 1.315 . S
O179 Cd169 2.240 . S
O179 C177 1.279 . S
O180 Cd170 2.297 . S
O180 C175 1.247 . S
O181 Cd170 2.439 . S
O181 C175 1.208 . S
O182 Cd183 2.223 . S
O182 C190 1.315 . S
Cd183 O182 2.223 . S
Cd183 O186 2.297 . S
Cd183 O187 2.439 . S
Cd183 O193 2.240 . S
Cd184 O185 2.240 . S
Cd184 O192 2.223 . S
Cd184 O194 2.297 . S
Cd184 O195 2.439 . S
O185 Cd184 2.240 . S
O185 C190 1.279 . S
O186 Cd183 2.297 . S
O186 C188 1.247 . S
O187 Cd183 2.439 . S
O187 C188 1.208 . S
C188 O186 1.247 . S
C188 O187 1.208 . S
C189 O194 1.247 . S
C189 O195 1.208 . S
C190 O182 1.315 . S
C190 O185 1.279 . S
C191 O192 1.315 . S
C191 O193 1.279 . S
O192 Cd184 2.223 . S
O192 C191 1.315 . S
O193 Cd183 2.240 . S
O193 C191 1.279 . S
O194 Cd184 2.297 . S
O194 C189 1.247 . S
O195 Cd184 2.439 . S
O195 C189 1.208 . S
O196 Cd197 2.223 . S
O196 C204 1.315 . S
Cd197 O196 2.223 . S
Cd197 O200 2.297 . S
Cd197 O201 2.439 . S
Cd197 O207 2.240 . S
Cd198 O199 2.240 . S
Cd198 O206 2.223 . S
Cd198 O208 2.297 . S
Cd198 O209 2.439 . S
O199 Cd198 2.240 . S
O199 C204 1.279 . S
O200 Cd197 2.297 . S
O200 C202 1.247 . S
O201 Cd197 2.439 . S
O201 C202 1.208 . S
C202 O200 1.247 . S
C202 O201 1.208 . S
C203 O208 1.247 . S
C203 O209 1.208 . S
C204 O196 1.315 . S
C204 O199 1.279 . S
C205 O206 1.315 . S
C205 O207 1.279 . S
O206 Cd198 2.223 . S
O206 C205 1.315 . S
O207 Cd197 2.240 . S
O207 C205 1.279 . S
O208 Cd198 2.297 . S
O208 C203 1.247 . S
O209 Cd198 2.439 . S
O209 C203 1.208 . S
O210 Cd211 2.223 . S
O210 C218 1.315 . S
Cd211 O210 2.223 . S
Cd211 O214 2.297 . S
Cd211 O215 2.439 . S
Cd211 O221 2.240 . S
Cd212 O213 2.240 . S
Cd212 O220 2.223 . S
Cd212 O222 2.297 . S
Cd212 O223 2.439 . S
O213 Cd212 2.240 . S
O213 C218 1.279 . S
O214 Cd211 2.297 . S
O214 C216 1.247 . S
O215 Cd211 2.439 . S
O215 C216 1.208 . S
C216 O214 1.247 . S
C216 O215 1.208 . S
C217 O222 1.247 . S
C217 O223 1.208 . S
C218 O210 1.315 . S
C218 O213 1.279 . S
C219 O220 1.315 . S
C219 O221 1.279 . S
O220 Cd212 2.223 . S
O220 C219 1.315 . S
O221 Cd211 2.240 . S
O221 C219 1.279 . S
O222 Cd212 2.297 . S
O222 C217 1.247 . S
O223 Cd212 2.439 . S
O223 C217 1.208 . S
O224 Cd225 2.223 . S
O224 C232 1.315 . S
Cd225 O224 2.223 . S
Cd225 O228 2.297 . S
Cd225 O229 2.439 . S
Cd225 O235 2.240 . S
Cd226 O227 2.240 . S
Cd226 O234 2.223 . S
Cd226 O236 2.297 . S
Cd226 O237 2.439 . S
O227 Cd226 2.240 . S
O227 C232 1.279 . S
O228 Cd225 2.297 . S
O228 C230 1.247 . S
O229 Cd225 2.439 . S
O229 C230 1.208 . S
C230 O228 1.247 . S
C230 O229 1.208 . S
C231 O236 1.247 . S
C231 O237 1.208 . S
C232 O224 1.315 . S
C232 O227 1.279 . S
C233 O234 1.315 . S
C233 O235 1.279 . S
O234 Cd226 2.223 . S
O234 C233 1.315 . S
O235 Cd225 2.240 . S
O235 C233 1.279 . S
O236 Cd226 2.297 . S
O236 C231 1.247 . S
O237 Cd226 2.439 . S
O237 C231 1.208 . S
O238 Cd239 2.223 . S
O238 C246 1.315 . S
Cd239 O238 2.223 . S
Cd239 O242 2.297 . S
Cd239 O243 2.439 . S
Cd239 O249 2.240 . S
Cd240 O241 2.240 . S
Cd240 O248 2.223 . S
Cd240 O250 2.297 . S
Cd240 O251 2.439 . S
O241 Cd240 2.240 . S
O241 C246 1.279 . S
O242 Cd239 2.297 . S
O242 C244 1.247 . S
O243 Cd239 2.439 . S
O243 C244 1.208 . S
C244 O242 1.247 . S
C244 O243 1.208 . S
C245 O250 1.247 . S
C245 O251 1.208 . S
C246 O238 1.315 . S
C246 O241 1.279 . S
C247 O248 1.315 . S
C247 O249 1.279 . S
O248 Cd240 2.223 . S
O248 C247 1.315 . S
O249 Cd239 2.240 . S
O249 C247 1.279 . S
O250 Cd240 2.297 . S
O250 C245 1.247 . S
O251 Cd240 2.439 . S
O251 C245 1.208 . S
O252 Cd253 2.223 . S
O252 C260 1.315 . S
Cd253 O252 2.223 . S
Cd253 O256 2.297 . S
Cd253 O257 2.439 . S
Cd253 O263 2.240 . S
Cd254 O255 2.240 . S
Cd254 O262 2.223 . S
Cd254 O264 2.297 . S
Cd254 O265 2.439 . S
O255 Cd254 2.240 . S
O255 C260 1.279 . S
O256 Cd253 2.297 . S
O256 C258 1.247 . S
O257 Cd253 2.439 . S
O257 C258 1.208 . S
C258 O256 1.247 . S
C258 O257 1.208 . S
C259 O264 1.247 . S
C259 O265 1.208 . S
C260 O252 1.315 . S
C260 O255 1.279 . S
C261 O262 1.315 . S
C261 O263 1.279 . S
O262 Cd254 2.223 . S
O262 C261 1.315 . S
O263 Cd253 2.240 . S
O263 C261 1.279 . S
O264 Cd254 2.297 . S
O264 C259 1.247 . S
O265 Cd254 2.439 . S
O265 C259 1.208 . S
O266 Cd267 2.223 . S
O266 C274 1.315 . S
Cd267 O266 2.223 . S
Cd267 O270 2.297 . S
Cd267 O271 2.439 . S
Cd267 O277 2.240 . S
Cd268 O269 2.240 . S
Cd268 O276 2.223 . S
Cd268 O278 2.297 . S
Cd268 O279 2.439 . S
O269 Cd268 2.240 . S
O269 C274 1.279 . S
O270 Cd267 2.297 . S
O270 C272 1.247 . S
O271 Cd267 2.439 . S
O271 C272 1.208 . S
C272 O270 1.247 . S
C272 O271 1.208 . S
C273 O278 1.247 . S
C273 O279 1.208 . S
C274 O266 1.315 . S
C274 O269 1.279 . S
C275 O276 1.315 . S
C275 O277 1.279 . S
O276 Cd268 2.223 . S
O276 C275 1.315 . S
O277 Cd267 2.240 . S
O277 C275 1.279 . S
O278 Cd268 2.297 . S
O278 C273 1.247 . S
O279 Cd268 2.439 . S
O279 C273 1.208 . S
O280 Cd281 2.223 . S
O280 C288 1.315 . S
Cd281 O280 2.223 . S
Cd281 O284 2.297 . S
Cd281 O285 2.439 . S
Cd281 O291 2.240 . S
Cd282 O283 2.240 . S
Cd282 O290 2.223 . S
Cd282 O292 2.297 . S
Cd282 O293 2.439 . S
O283 Cd282 2.240 . S
O283 C288 1.279 . S
O284 Cd281 2.297 . S
O284 C286 1.247 . S
O285 Cd281 2.439 . S
O285 C286 1.208 . S
C286 O284 1.247 . S
C286 O285 1.208 . S
C287 O292 1.247 . S
C287 O293 1.208 . S
C288 O280 1.315 . S
C288 O283 1.279 . S
C289 O290 1.315 . S
C289 O291 1.279 . S
O290 Cd282 2.223 . S
O290 C289 1.315 . S
O291 Cd281 2.240 . S
O291 C289 1.279 . S
O292 Cd282 2.297 . S
O292 C287 1.247 . S
O293 Cd282 2.439 . S
O293 C287 1.208 . S
O294 Cd295 2.223 . S
O294 C302 1.315 . S
Cd295 O294 2.223 . S
Cd295 O298 2.297 . S
Cd295 O299 2.439 . S
Cd295 O305 2.240 . S
Cd296 O297 2.240 . S
Cd296 O304 2.223 . S
Cd296 O306 2.297 . S
Cd296 O307 2.439 . S
O297 Cd296 2.240 . S
O297 C302 1.279 . S
O298 Cd295 2.297 . S
O298 C300 1.247 . S
O299 Cd295 2.439 . S
O299 C300 1.208 . S
C300 O298 1.247 . S
C300 O299 1.208 . S
C301 O306 1.247 . S
C301 O307 1.208 . S
C302 O294 1.315 . S
C302 O297 1.279 . S
C303 O304 1.315 . S
C303 O305 1.279 . S
O304 Cd296 2.223 . S
O304 C303 1.315 . S
O305 Cd295 2.240 . S
O305 C303 1.279 . S
O306 Cd296 2.297 . S
O306 C301 1.247 . S
O307 Cd296 2.439 . S
O307 C301 1.208 . S
O308 Cd309 2.223 . S
O308 C316 1.315 . S
Cd309 O308 2.223 . S
Cd309 O312 2.297 . S
Cd309 O313 2.439 . S
Cd309 O319 2.240 . S
Cd310 O311 2.240 . S
Cd310 O318 2.223 . S
Cd310 O320 2.297 . S
Cd310 O321 2.439 . S
O311 Cd310 2.240 . S
O311 C316 1.279 . S
O312 Cd309 2.297 . S
O312 C314 1.247 . S
O313 Cd309 2.439 . S
O313 C314 1.208 . S
C314 O312 1.247 . S
C314 O313 1.208 . S
C315 O320 1.247 . S
C315 O321 1.208 . S
C316 O308 1.315 . S
C316 O311 1.279 . S
C317 O318 1.315 . S
C317 O319 1.279 . S
O318 Cd310 2.223 . S
O318 C317 1.315 . S
O319 Cd309 2.240 . S
O319 C317 1.279 . S
O320 Cd310 2.297 . S
O320 C315 1.247 . S
O321 Cd310 2.439 . S
O321 C315 1.208 . S
O322 Cd323 2.223 . S
O322 C330 1.315 . S
Cd323 O322 2.223 . S
Cd323 O326 2.297 . S
Cd323 O327 2.439 . S
Cd323 O333 2.240 . S
Cd324 O325 2.240 . S
Cd324 O332 2.223 . S
Cd324 O334 2.297 . S
Cd324 O335 2.439 . S
O325 Cd324 2.240 . S
O325 C330 1.279 . S
O326 Cd323 2.297 . S
O326 C328 1.247 . S
O327 Cd323 2.439 . S
O327 C328 1.208 . S
C328 O326 1.247 . S
C328 O327 1.208 . S
C329 O334 1.247 . S
C329 O335 1.208 . S
C330 O322 1.315 . S
C330 O325 1.279 . S
C331 O332 1.315 . S
C331 O333 1.279 . S
O332 Cd324 2.223 . S
O332 C331 1.315 . S
O333 Cd323 2.240 . S
O333 C331 1.279 . S
O334 Cd324 2.297 . S
O334 C329 1.247 . S
O335 Cd324 2.439 . S
O335 C329 1.208 . S
O336 Cd337 2.223 . S
O336 C344 1.315 . S
Cd337 O336 2.223 . S
Cd337 O340 2.297 . S
Cd337 O341 2.439 . S
Cd337 O347 2.240 . S
Cd338 O339 2.240 . S
Cd338 O346 2.223 . S
Cd338 O348 2.297 . S
Cd338 O349 2.439 . S
O339 Cd338 2.240 . S
O339 C344 1.279 . S
O340 Cd337 2.297 . S
O340 C342 1.247 . S
O341 Cd337 2.439 . S
O341 C342 1.208 . S
C342 O340 1.247 . S
C342 O341 1.208 . S
C343 O348 1.247 . S
C343 O349 1.208 . S
C344 O336 1.315 . S
C344 O339 1.279 . S
C345 O346 1.315 . S
C345 O347 1.279 . S
O346 Cd338 2.223 . S
O346 C345 1.315 . S
O347 Cd337 2.240 . S
O347 C345 1.279 . S
O348 Cd338 2.297 . S
O348 C343 1.247 . S
O349 Cd338 2.439 . S
O349 C343 1.208 . S
O350 Cd351 2.223 . S
O350 C358 1.315 . S
Cd351 O350 2.223 . S
Cd351 O354 2.297 . S
Cd351 O355 2.439 . S
Cd351 O361 2.240 . S
Cd352 O353 2.240 . S
Cd352 O360 2.223 . S
Cd352 O362 2.297 . S
Cd352 O363 2.439 . S
O353 Cd352 2.240 . S
O353 C358 1.279 . S
O354 Cd351 2.297 . S
O354 C356 1.247 . S
O355 Cd351 2.439 . S
O355 C356 1.208 . S
C356 O354 1.247 . S
C356 O355 1.208 . S
C357 O362 1.247 . S
C357 O363 1.208 . S
C358 O350 1.315 . S
C358 O353 1.279 . S
C359 O360 1.315 . S
C359 O361 1.279 . S
O360 Cd352 2.223 . S
O360 C359 1.315 . S
O361 Cd351 2.240 . S
O361 C359 1.279 . S
O362 Cd352 2.297 . S
O362 C357 1.247 . S
O363 Cd352 2.439 . S
O363 C357 1.208 . S
O364 Cd365 2.223 . S
O364 C372 1.315 . S
Cd365 O364 2.223 . S
Cd365 O368 2.297 . S
Cd365 O369 2.439 . S
Cd365 O375 2.240 . S
Cd366 O367 2.240 . S
Cd366 O374 2.223 . S
Cd366 O376 2.297 . S
Cd366 O377 2.439 . S
O367 Cd366 2.240 . S
O367 C372 1.279 . S
O368 Cd365 2.297 . S
O368 C370 1.247 . S
O369 Cd365 2.439 . S
O369 C370 1.208 . S
C370 O368 1.247 . S
C370 O369 1.208 . S
C371 O376 1.247 . S
C371 O377 1.208 . S
C372 O364 1.315 . S
C372 O367 1.279 . S
C373 O374 1.315 . S
C373 O375 1.279 . S
O374 Cd366 2.223 . S
O374 C373 1.315 . S
O375 Cd365 2.240 . S
O375 C373 1.279 . S
O376 Cd366 2.297 . S
O376 C371 1.247 . S
O377 Cd366 2.439 . S
O377 C371 1.208 . S
O378 Cd379 2.223 . S
O378 C386 1.315 . S
Cd379 O378 2.223 . S
Cd379 O382 2.297 . S
Cd379 O383 2.439 . S
Cd379 O389 2.240 . S
Cd380 O381 2.240 . S
Cd380 O388 2.223 . S
Cd380 O390 2.297 . S
Cd380 O391 2.439 . S
O381 Cd380 2.240 . S
O381 C386 1.279 . S
O382 Cd379 2.297 . S
O382 C384 1.247 . S
O383 Cd379 2.439 . S
O383 C384 1.208 . S
C384 O382 1.247 . S
C384 O383 1.208 . S
C385 O390 1.247 . S
C385 O391 1.208 . S
C386 O378 1.315 . S
C386 O381 1.279 . S
C387 O388 1.315 . S
C387 O389 1.279 . S
O388 Cd380 2.223 . S
O388 C387 1.315 . S
O389 Cd379 2.240 . S
O389 C387 1.279 . S
O390 Cd380 2.297 . S
O390 C385 1.247 . S
O391 Cd380 2.439 . S
O391 C385 1.208 . S
O392 Cd393 2.223 . S
O392 C400 1.315 . S
Cd393 O392 2.223 . S
Cd393 O396 2.297 . S
Cd393 O397 2.439 . S
Cd393 O403 2.240 . S
Cd394 O395 2.240 . S
Cd394 O402 2.223 . S
Cd394 O404 2.297 . S
Cd394 O405 2.439 . S
O395 Cd394 2.240 . S
O395 C400 1.279 . S
O396 Cd393 2.297 . S
O396 C398 1.247 . S
O397 Cd393 2.439 . S
O397 C398 1.208 . S
C398 O396 1.247 . S
C398 O397 1.208 . S
C399 O404 1.247 . S
C399 O405 1.208 . S
C400 O392 1.315 . S
C400 O395 1.279 . S
C401 O402 1.315 . S
C401 O403 1.279 . S
O402 Cd394 2.223 . S
O402 C401 1.315 . S
O403 Cd393 2.240 . S
O403 C401 1.279 . S
O404 Cd394 2.297 . S
O404 C399 1.247 . S
O405 Cd394 2.439 . S
O405 C399 1.208 . S
O406 Cd407 2.223 . S
O406 C414 1.315 . S
Cd407 O406 2.223 . S
Cd407 O410 2.297 . S
Cd407 O411 2.439 . S
Cd407 O417 2.240 . S
Cd408 O409 2.240 . S
Cd408 O416 2.223 . S
Cd408 O418 2.297 . S
Cd408 O419 2.439 . S
O409 Cd408 2.240 . S
O409 C414 1.279 . S
O410 Cd407 2.297 . S
O410 C412 1.247 . S
O411 Cd407 2.439 . S
O411 C412 1.208 . S
C412 O410 1.247 . S
C412 O411 1.208 . S
C413 O418 1.247 . S
C413 O419 1.208 . S
C414 O406 1.315 . S
C414 O409 1.279 . S
C415 O416 1.315 . S
C415 O417 1.279 . S
O416 Cd408 2.223 . S
O416 C415 1.315 . S
O417 Cd407 2.240 . S
O417 C415 1.279 . S
O418 Cd408 2.297 . S
O418 C413 1.247 . S
O419 Cd408 2.439 . S
O419 C413 1.208 . S
O420 Cd421 2.223 . S
O420 C428 1.315 . S
Cd421 O420 2.223 . S
Cd421 O424 2.297 . S
Cd421 O425 2.439 . S
Cd421 O431 2.240 . S
Cd422 O423 2.240 . S
Cd422 O430 2.223 . S
Cd422 O432 2.297 . S
Cd422 O433 2.439 . S
O423 Cd422 2.240 . S
O423 C428 1.279 . S
O424 Cd421 2.297 . S
O424 C426 1.247 . S
O425 Cd421 2.439 . S
O425 C426 1.208 . S
C426 O424 1.247 . S
C426 O425 1.208 . S
C427 O432 1.247 . S
C427 O433 1.208 . S
C428 O420 1.315 . S
C428 O423 1.279 . S
C429 O430 1.315 . S
C429 O431 1.279 . S
O430 Cd422 2.223 . S
O430 C429 1.315 . S
O431 Cd421 2.240 . S
O431 C429 1.279 . S
O432 Cd422 2.297 . S
O432 C427 1.247 . S
O433 Cd422 2.439 . S
O433 C427 1.208 . S
O434 Cd435 2.223 . S
O434 C442 1.315 . S
Cd435 O434 2.223 . S
Cd435 O438 2.297 . S
Cd435 O439 2.439 . S
Cd435 O445 2.240 . S
Cd436 O437 2.240 . S
Cd436 O444 2.223 . S
Cd436 O446 2.297 . S
Cd436 O447 2.439 . S
O437 Cd436 2.240 . S
O437 C442 1.279 . S
O438 Cd435 2.297 . S
O438 C440 1.247 . S
O439 Cd435 2.439 . S
O439 C440 1.208 . S
C440 O438 1.247 . S
C440 O439 1.208 . S
C441 O446 1.247 . S
C441 O447 1.208 . S
C442 O434 1.315 . S
C442 O437 1.279 . S
C443 O444 1.315 . S
C443 O445 1.279 . S
O444 Cd436 2.223 . S
O444 C443 1.315 . S
O445 Cd435 2.240 . S
O445 C443 1.279 . S
O446 Cd436 2.297 . S
O446 C441 1.247 . S
O447 Cd436 2.439 . S
O447 C441 1.208 . S
O448 Cd449 2.223 . S
O448 C456 1.315 . S
Cd449 O448 2.223 . S
Cd449 O452 2.297 . S
Cd449 O453 2.439 . S
Cd449 O459 2.240 . S
Cd450 O451 2.240 . S
Cd450 O458 2.223 . S
Cd450 O460 2.297 . S
Cd450 O461 2.439 . S
O451 Cd450 2.240 . S
O451 C456 1.279 . S
O452 Cd449 2.297 . S
O452 C454 1.247 . S
O453 Cd449 2.439 . S
O453 C454 1.208 . S
C454 O452 1.247 . S
C454 O453 1.208 . S
C455 O460 1.247 . S
C455 O461 1.208 . S
C456 O448 1.315 . S
C456 O451 1.279 . S
C457 O458 1.315 . S
C457 O459 1.279 . S
O458 Cd450 2.223 . S
O458 C457 1.315 . S
O459 Cd449 2.240 . S
O459 C457 1.279 . S
O460 Cd450 2.297 . S
O460 C455 1.247 . S
O461 Cd450 2.439 . S
O461 C455 1.208 . S
O462 Cd463 2.223 . S
O462 C470 1.315 . S
Cd463 O462 2.223 . S
Cd463 O466 2.297 . S
Cd463 O467 2.439 . S
Cd463 O473 2.240 . S
Cd464 O465 2.240 . S
Cd464 O472 2.223 . S
Cd464 O474 2.297 . S
Cd464 O475 2.439 . S
O465 Cd464 2.240 . S
O465 C470 1.279 . S
O466 Cd463 2.297 . S
O466 C468 1.247 . S
O467 Cd463 2.439 . S
O467 C468 1.208 . S
C468 O466 1.247 . S
C468 O467 1.208 . S
C469 O474 1.247 . S
C469 O475 1.208 . S
C470 O462 1.315 . S
C470 O465 1.279 . S
C471 O472 1.315 . S
C471 O473 1.279 . S
O472 Cd464 2.223 . S
O472 C471 1.315 . S
O473 Cd463 2.240 . S
O473 C471 1.279 . S
O474 Cd464 2.297 . S
O474 C469 1.247 . S
O475 Cd464 2.439 . S
O475 C469 1.208 . S
O476 Cd477 2.223 . S
O476 C484 1.315 . S
Cd477 O476 2.223 . S
Cd477 O480 2.297 . S
Cd477 O481 2.439 . S
Cd477 O487 2.240 . S
Cd478 O479 2.240 . S
Cd478 O486 2.223 . S
Cd478 O488 2.297 . S
Cd478 O489 2.439 . S
O479 Cd478 2.240 . S
O479 C484 1.279 . S
O480 Cd477 2.297 . S
O480 C482 1.247 . S
O481 Cd477 2.439 . S
O481 C482 1.208 . S
C482 O480 1.247 . S
C482 O481 1.208 . S
C483 O488 1.247 . S
C483 O489 1.208 . S
C484 O476 1.315 . S
C484 O479 1.279 . S
C485 O486 1.315 . S
C485 O487 1.279 . S
O486 Cd478 2.223 . S
O486 C485 1.315 . S
O487 Cd477 2.240 . S
O487 C485 1.279 . S
O488 Cd478 2.297 . S
O488 C483 1.247 . S
O489 Cd478 2.439 . S
O489 C483 1.208 . S
O490 Cd491 2.223 . S
O490 C498 1.315 . S
Cd491 O490 2.223 . S
Cd491 O494 2.297 . S
Cd491 O495 2.439 . S
Cd491 O501 2.240 . S
Cd492 O493 2.240 . S
Cd492 O500 2.223 . S
Cd492 O502 2.297 . S
Cd492 O503 2.439 . S
O493 Cd492 2.240 . S
O493 C498 1.279 . S
O494 Cd491 2.297 . S
O494 C496 1.247 . S
O495 Cd491 2.439 . S
O495 C496 1.208 . S
C496 O494 1.247 . S
C496 O495 1.208 . S
C497 O502 1.247 . S
C497 O503 1.208 . S
C498 O490 1.315 . S
C498 O493 1.279 . S
C499 O500 1.315 . S
C499 O501 1.279 . S
O500 Cd492 2.223 . S
O500 C499 1.315 . S
O501 Cd491 2.240 . S
O501 C499 1.279 . S
O502 Cd492 2.297 . S
O502 C497 1.247 . S
O503 Cd492 2.439 . S
O503 C497 1.208 . S
O504 Cd505 2.223 . S
O504 C512 1.315 . S
Cd505 O504 2.223 . S
Cd505 O508 2.297 . S
Cd505 O509 2.439 . S
Cd505 O515 2.240 . S
Cd506 O507 2.240 . S
Cd506 O514 2.223 . S
Cd506 O516 2.297 . S
Cd506 O517 2.439 . S
O507 Cd506 2.240 . S
O507 C512 1.279 . S
O508 Cd505 2.297 . S
O508 C510 1.247 . S
O509 Cd505 2.439 . S
O509 C510 1.208 . S
C510 O508 1.247 . S
C510 O509 1.208 . S
C511 O516 1.247 . S
C511 O517 1.208 . S
C512 O504 1.315 . S
C512 O507 1.279 . S
C513 O514 1.315 . S
C513 O515 1.279 . S
O514 Cd506 2.223 . S
O514 C513 1.315 . S
O515 Cd505 2.240 . S
O515 C513 1.279 . S
O516 Cd506 2.297 . S
O516 C511 1.247 . S
O517 Cd506 2.439 . S
O517 C511 1.208 . S
O518 Cd519 2.223 . S
O518 C526 1.315 . S
Cd519 O518 2.223 . S
Cd519 O522 2.297 . S
Cd519 O523 2.439 . S
Cd519 O529 2.240 . S
Cd520 O521 2.240 . S
Cd520 O528 2.223 . S
Cd520 O530 2.297 . S
Cd520 O531 2.439 . S
O521 Cd520 2.240 . S
O521 C526 1.279 . S
O522 Cd519 2.297 . S
O522 C524 1.247 . S
O523 Cd519 2.439 . S
O523 C524 1.208 . S
C524 O522 1.247 . S
C524 O523 1.208 . S
C525 O530 1.247 . S
C525 O531 1.208 . S
C526 O518 1.315 . S
C526 O521 1.279 . S
C527 O528 1.315 . S
C527 O529 1.279 . S
O528 Cd520 2.223 . S
O528 C527 1.315 . S
O529 Cd519 2.240 . S
O529 C527 1.279 . S
O530 Cd520 2.297 . S
O530 C525 1.247 . S
O531 Cd520 2.439 . S
O531 C525 1.208 . S
O532 Cd533 2.223 . S
O532 C540 1.315 . S
Cd533 O532 2.223 . S
Cd533 O536 2.297 . S
Cd533 O537 2.439 . S
Cd533 O543 2.240 . S
Cd534 O535 2.240 . S
Cd534 O542 2.223 . S
Cd534 O544 2.297 . S
Cd534 O545 2.439 . S
O535 Cd534 2.240 . S
O535 C540 1.279 . S
O536 Cd533 2.297 . S
O536 C538 1.247 . S
O537 Cd533 2.439 . S
O537 C538 1.208 . S
C538 O536 1.247 . S
C538 O537 1.208 . S
C539 O544 1.247 . S
C539 O545 1.208 . S
C540 O532 1.315 . S
C540 O535 1.279 . S
C541 O542 1.315 . S
C541 O543 1.279 . S
O542 Cd534 2.223 . S
O542 C541 1.315 . S
O543 Cd533 2.240 . S
O543 C541 1.279 . S
O544 Cd534 2.297 . S
O544 C539 1.247 . S
O545 Cd534 2.439 . S
O545 C539 1.208 . S
O546 Cd547 2.223 . S
O546 C554 1.315 . S
Cd547 O546 2.223 . S
Cd547 O550 2.297 . S
Cd547 O551 2.439 . S
Cd547 O557 2.240 . S
Cd548 O549 2.240 . S
Cd548 O556 2.223 . S
Cd548 O558 2.297 . S
Cd548 O559 2.439 . S
O549 Cd548 2.240 . S
O549 C554 1.279 . S
O550 Cd547 2.297 . S
O550 C552 1.247 . S
O551 Cd547 2.439 . S
O551 C552 1.208 . S
C552 O550 1.247 . S
C552 O551 1.208 . S
C553 O558 1.247 . S
C553 O559 1.208 . S
C554 O546 1.315 . S
C554 O549 1.279 . S
C555 O556 1.315 . S
C555 O557 1.279 . S
O556 Cd548 2.223 . S
O556 C555 1.315 . S
O557 Cd547 2.240 . S
O557 C555 1.279 . S
O558 Cd548 2.297 . S
O558 C553 1.247 . S
O559 Cd548 2.439 . S
O559 C553 1.208 . S
O560 Cd561 2.223 . S
O560 C568 1.315 . S
Cd561 O560 2.223 . S
Cd561 O564 2.297 . S
Cd561 O565 2.439 . S
Cd561 O571 2.240 . S
Cd562 O563 2.240 . S
Cd562 O570 2.223 . S
Cd562 O572 2.297 . S
Cd562 O573 2.439 . S
O563 Cd562 2.240 . S
O563 C568 1.279 . S
O564 Cd561 2.297 . S
O564 C566 1.247 . S
O565 Cd561 2.439 . S
O565 C566 1.208 . S
C566 O564 1.247 . S
C566 O565 1.208 . S
C567 O572 1.247 . S
C567 O573 1.208 . S
C568 O560 1.315 . S
C568 O563 1.279 . S
C569 O570 1.315 . S
C569 O571 1.279 . S
O570 Cd562 2.223 . S
O570 C569 1.315 . S
O571 Cd561 2.240 . S
O571 C569 1.279 . S
O572 Cd562 2.297 . S
O572 C567 1.247 . S
O573 Cd562 2.439 . S
O573 C567 1.208 . S
O574 Cd575 2.223 . S
O574 C582 1.315 . S
Cd575 O574 2.223 . S
Cd575 O578 2.297 . S
Cd575 O579 2.439 . S
Cd575 O585 2.240 . S
Cd576 O577 2.240 . S
Cd576 O584 2.223 . S
Cd576 O586 2.297 . S
Cd576 O587 2.439 . S
O577 Cd576 2.240 . S
O577 C582 1.279 . S
O578 Cd575 2.297 . S
O578 C580 1.247 . S
O579 Cd575 2.439 . S
O579 C580 1.208 . S
C580 O578 1.247 . S
C580 O579 1.208 . S
C581 O586 1.247 . S
C581 O587 1.208 . S
C582 O574 1.315 . S
C582 O577 1.279 . S
C583 O584 1.315 . S
C583 O585 1.279 . S
O584 Cd576 2.223 . S
O584 C583 1.315 . S
O585 Cd575 2.240 . S
O585 C583 1.279 . S
O586 Cd576 2.297 . S
O586 C581 1.247 . S
O587 Cd576 2.439 . S
O587 C581 1.208 . S
O588 Cd589 2.223 . S
O588 C596 1.315 . S
Cd589 O588 2.223 . S
Cd589 O592 2.297 . S
Cd589 O593 2.439 . S
Cd589 O599 2.240 . S
Cd590 O591 2.240 . S
Cd590 O598 2.223 . S
Cd590 O600 2.297 . S
Cd590 O601 2.439 . S
O591 Cd590 2.240 . S
O591 C596 1.279 . S
O592 Cd589 2.297 . S
O592 C594 1.247 . S
O593 Cd589 2.439 . S
O593 C594 1.208 . S
C594 O592 1.247 . S
C594 O593 1.208 . S
C595 O600 1.247 . S
C595 O601 1.208 . S
C596 O588 1.315 . S
C596 O591 1.279 . S
C597 O598 1.315 . S
C597 O599 1.279 . S
O598 Cd590 2.223 . S
O598 C597 1.315 . S
O599 Cd589 2.240 . S
O599 C597 1.279 . S
O600 Cd590 2.297 . S
O600 C595 1.247 . S
O601 Cd590 2.439 . S
O601 C595 1.208 . S
O602 Cd603 2.223 . S
O602 C610 1.315 . S
Cd603 O602 2.223 . S
Cd603 O606 2.297 . S
Cd603 O607 2.439 . S
Cd603 O613 2.240 . S
Cd604 O605 2.240 . S
Cd604 O612 2.223 . S
Cd604 O614 2.297 . S
Cd604 O615 2.439 . S
O605 Cd604 2.240 . S
O605 C610 1.279 . S
O606 Cd603 2.297 . S
O606 C608 1.247 . S
O607 Cd603 2.439 . S
O607 C608 1.208 . S
C608 O606 1.247 . S
C608 O607 1.208 . S
C609 O614 1.247 . S
C609 O615 1.208 . S
C610 O602 1.315 . S
C610 O605 1.279 . S
C611 O612 1.315 . S
C611 O613 1.279 . S
O612 Cd604 2.223 . S
O612 C611 1.315 . S
O613 Cd603 2.240 . S
O613 C611 1.279 . S
O614 Cd604 2.297 . S
O614 C609 1.247 . S
O615 Cd604 2.439 . S
O615 C609 1.208 . S
O616 Cd617 2.223 . S
O616 C624 1.315 . S
Cd617 O616 2.223 . S
Cd617 O620 2.297 . S
Cd617 O621 2.439 . S
Cd617 O627 2.240 . S
Cd618 O619 2.240 . S
Cd618 O626 2.223 . S
Cd618 O628 2.297 . S
Cd618 O629 2.439 . S
O619 Cd618 2.240 . S
O619 C624 1.279 . S
O620 Cd617 2.297 . S
O620 C622 1.247 . S
O621 Cd617 2.439 . S
O621 C622 1.208 . S
C622 O620 1.247 . S
C622 O621 1.208 . S
C623 O628 1.247 . S
C623 O629 1.208 . S
C624 O616 1.315 . S
C624 O619 1.279 . S
C625 O626 1.315 . S
C625 O627 1.279 . S
O626 Cd618 2.223 . S
O626 C625 1.315 . S
O627 Cd617 2.240 . S
O627 C625 1.279 . S
O628 Cd618 2.297 . S
O628 C623 1.247 . S
O629 Cd618 2.439 . S
O629 C623 1.208 . S
O630 Cd631 2.223 . S
O630 C638 1.315 . S
Cd631 O630 2.223 . S
Cd631 O634 2.297 . S
Cd631 O635 2.439 . S
Cd631 O641 2.240 . S
Cd632 O633 2.240 . S
Cd632 O640 2.223 . S
Cd632 O642 2.297 . S
Cd632 O643 2.439 . S
O633 Cd632 2.240 . S
O633 C638 1.279 . S
O634 Cd631 2.297 . S
O634 C636 1.247 . S
O635 Cd631 2.439 . S
O635 C636 1.208 . S
C636 O634 1.247 . S
C636 O635 1.208 . S
C637 O642 1.247 . S
C637 O643 1.208 . S
C638 O630 1.315 . S
C638 O633 1.279 . S
C639 O640 1.315 . S
C639 O641 1.279 . S
O640 Cd632 2.223 . S
O640 C639 1.315 . S
O641 Cd631 2.240 . S
O641 C639 1.279 . S
O642 Cd632 2.297 . S
O642 C637 1.247 . S
O643 Cd632 2.439 . S
O643 C637 1.208 . S
O644 Cd645 2.223 . S
O644 C652 1.315 . S
Cd645 O644 2.223 . S
Cd645 O648 2.297 . S
Cd645 O649 2.439 . S
Cd645 O655 2.240 . S
Cd646 O647 2.240 . S
Cd646 O654 2.223 . S
Cd646 O656 2.297 . S
Cd646 O657 2.439 . S
O647 Cd646 2.240 . S
O647 C652 1.279 . S
O648 Cd645 2.297 . S
O648 C650 1.247 . S
O649 Cd645 2.439 . S
O649 C650 1.208 . S
C650 O648 1.247 . S
C650 O649 1.208 . S
C651 O656 1.247 . S
C651 O657 1.208 . S
C652 O644 1.315 . S
C652 O647 1.279 . S
C653 O654 1.315 . S
C653 O655 1.279 . S
O654 Cd646 2.223 . S
O654 C653 1.315 . S
O655 Cd645 2.240 . S
O655 C653 1.279 . S
O656 Cd646 2.297 . S
O656 C651 1.247 . S
O657 Cd646 2.439 . S
O657 C651 1.208 . S
O658 Cd659 2.223 . S
O658 C666 1.315 . S
Cd659 O658 2.223 . S
Cd659 O662 2.297 . S
Cd659 O663 2.439 . S
Cd659 O669 2.240 . S
Cd660 O661 2.240 . S
Cd660 O668 2.223 . S
Cd660 O670 2.297 . S
Cd660 O671 2.439 . S
O661 Cd660 2.240 . S
O661 C666 1.279 . S
O662 Cd659 2.297 . S
O662 C664 1.247 . S
O663 Cd659 2.439 . S
O663 C664 1.208 . S
C664 O662 1.247 . S
C664 O663 1.208 . S
C665 O670 1.247 . S
C665 O671 1.208 . S
C666 O658 1.315 . S
C666 O661 1.279 . S
C667 O668 1.315 . S
C667 O669 1.279 . S
O668 Cd660 2.223 . S
O668 C667 1.315 . S
O669 Cd659 2.240 . S
O669 C667 1.279 . S
O670 Cd660 2.297 . S
O670 C665 1.247 . S
O671 Cd660 2.439 . S
O671 C665 1.208 . S
H672 C678 0.930 . S
H673 C682 0.930 . S
H674 C687 0.929 . S
H675 C685 0.929 . S
H676 C680 0.929 . S
H677 C686 0.929 . S
C678 H672 0.930 . S
C678 C679 1.367 . S
C678 C686 1.378 . S
C679 C678 1.367 . S
C679 C687 1.433 . S
C680 H676 0.929 . S
C680 C682 1.378 . S
C680 C684 1.350 . S
C681 C684 1.463 . S
C681 C686 1.350 . S
C681 N689 1.427 . S
C682 H673 0.930 . S
C682 C680 1.378 . S
C682 C683 1.367 . S
C683 C682 1.367 . S
C683 C685 1.433 . S
C684 C680 1.350 . S
C684 C681 1.463 . S
C684 N688 1.427 . S
C685 H675 0.929 . S
C685 C683 1.433 . S
C685 N688 1.384 . S
C686 H677 0.929 . S
C686 C678 1.378 . S
C686 C681 1.350 . S
C687 H674 0.929 . S
C687 C679 1.433 . S
C687 N689 1.384 . S
N688 C684 1.427 . S
N688 C685 1.384 . S
N689 C681 1.427 . S
N689 C687 1.384 . S
H690 C696 0.930 . S
H691 C700 0.930 . S
H692 C705 0.929 . S
H693 C703 0.929 . S
H694 C698 0.929 . S
H695 C704 0.929 . S
C696 H690 0.930 . S
C696 C697 1.367 . S
C696 C704 1.378 . S
C697 C696 1.367 . S
C697 C705 1.433 . S
C698 H694 0.929 . S
C698 C700 1.378 . S
C698 C702 1.350 . S
C699 C702 1.463 . S
C699 C704 1.350 . S
C699 N707 1.427 . S
C700 H691 0.930 . S
C700 C698 1.378 . S
C700 C701 1.367 . S
C701 C700 1.367 . S
C701 C703 1.433 . S
C702 C698 1.350 . S
C702 C699 1.463 . S
C702 N706 1.427 . S
C703 H693 0.929 . S
C703 C701 1.433 . S
C703 N706 1.384 . S
C704 H695 0.929 . S
C704 C696 1.378 . S
C704 C699 1.350 . S
C705 H692 0.929 . S
C705 C697 1.433 . S
C705 N707 1.384 . S
N706 C702 1.427 . S
N706 C703 1.384 . S
N707 C699 1.427 . S
N707 C705 1.384 . S
H708 C714 0.930 . S
H709 C718 0.930 . S
H710 C723 0.929 . S
H711 C721 0.929 . S
H712 C716 0.929 . S
H713 C722 0.929 . S
C714 H708 0.930 . S
C714 C715 1.367 . S
C714 C722 1.378 . S
C715 C714 1.367 . S
C715 C723 1.433 . S
C716 H712 0.929 . S
C716 C718 1.378 . S
C716 C720 1.350 . S
C717 C720 1.463 . S
C717 C722 1.350 . S
C717 N725 1.427 . S
C718 H709 0.930 . S
C718 C716 1.378 . S
C718 C719 1.367 . S
C719 C718 1.367 . S
C719 C721 1.433 . S
C720 C716 1.350 . S
C720 C717 1.463 . S
C720 N724 1.427 . S
C721 H711 0.929 . S
C721 C719 1.433 . S
C721 N724 1.384 . S
C722 H713 0.929 . S
C722 C714 1.378 . S
C722 C717 1.350 . S
C723 H710 0.929 . S
C723 C715 1.433 . S
C723 N725 1.384 . S
N724 C720 1.427 . S
N724 C721 1.384 . S
N725 C717 1.427 . S
N725 C723 1.384 . S
H726 C732 0.930 . S
H727 C736 0.930 . S
H728 C741 0.929 . S
H729 C739 0.929 . S
H730 C734 0.929 . S
H731 C740 0.929 . S
C732 H726 0.930 . S
C732 C733 1.367 . S
C732 C740 1.378 . S
C733 C732 1.367 . S
C733 C741 1.433 . S
C734 H730 0.929 . S
C734 C736 1.378 . S
C734 C738 1.350 . S
C735 C738 1.463 . S
C735 C740 1.350 . S
C735 N743 1.427 . S
C736 H727 0.930 . S
C736 C734 1.378 . S
C736 C737 1.367 . S
C737 C736 1.367 . S
C737 C739 1.433 . S
C738 C734 1.350 . S
C738 C735 1.463 . S
C738 N742 1.427 . S
C739 H729 0.929 . S
C739 C737 1.433 . S
C739 N742 1.384 . S
C740 H731 0.929 . S
C740 C732 1.378 . S
C740 C735 1.350 . S
C741 H728 0.929 . S
C741 C733 1.433 . S
C741 N743 1.384 . S
N742 C738 1.427 . S
N742 C739 1.384 . S
N743 C735 1.427 . S
N743 C741 1.384 . S
H744 C750 0.930 . S
H745 C754 0.930 . S
H746 C759 0.929 . S
H747 C757 0.929 . S
H748 C752 0.929 . S
H749 C758 0.929 . S
C750 H744 0.930 . S
C750 C751 1.367 . S
C750 C758 1.378 . S
C751 C750 1.367 . S
C751 C759 1.433 . S
C752 H748 0.929 . S
C752 C754 1.378 . S
C752 C756 1.350 . S
C753 C756 1.463 . S
C753 C758 1.350 . S
C753 N761 1.427 . S
C754 H745 0.930 . S
C754 C752 1.378 . S
C754 C755 1.367 . S
C755 C754 1.367 . S
C755 C757 1.433 . S
C756 C752 1.350 . S
C756 C753 1.463 . S
C756 N760 1.427 . S
C757 H747 0.929 . S
C757 C755 1.433 . S
C757 N760 1.384 . S
C758 H749 0.929 . S
C758 C750 1.378 . S
C758 C753 1.350 . S
C759 H746 0.929 . S
C759 C751 1.433 . S
C759 N761 1.384 . S
N760 C756 1.427 . S
N760 C757 1.384 . S
N761 C753 1.427 . S
N761 C759 1.384 . S
H762 C768 0.930 . S
H763 C772 0.930 . S
H764 C777 0.929 . S
H765 C775 0.929 . S
H766 C770 0.929 . S
H767 C776 0.929 . S
C768 H762 0.930 . S
C768 C769 1.367 . S
C768 C776 1.378 . S
C769 C768 1.367 . S
C769 C777 1.433 . S
C770 H766 0.929 . S
C770 C772 1.378 . S
C770 C774 1.350 . S
C771 C774 1.463 . S
C771 C776 1.350 . S
C771 N779 1.427 . S
C772 H763 0.930 . S
C772 C770 1.378 . S
C772 C773 1.367 . S
C773 C772 1.367 . S
C773 C775 1.433 . S
C774 C770 1.350 . S
C774 C771 1.463 . S
C774 N778 1.427 . S
C775 H765 0.929 . S
C775 C773 1.433 . S
C775 N778 1.384 . S
C776 H767 0.929 . S
C776 C768 1.378 . S
C776 C771 1.350 . S
C777 H764 0.929 . S
C777 C769 1.433 . S
C777 N779 1.384 . S
N778 C774 1.427 . S
N778 C775 1.384 . S
N779 C771 1.427 . S
N779 C777 1.384 . S
H780 C786 0.930 . S
H781 C790 0.930 . S
H782 C795 0.929 . S
H783 C793 0.929 . S
H784 C788 0.929 . S
H785 C794 0.929 . S
C786 H780 0.930 . S
C786 C787 1.367 . S
C786 C794 1.378 . S
C787 C786 1.367 . S
C787 C795 1.433 . S
C788 H784 0.929 . S
C788 C790 1.378 . S
C788 C792 1.350 . S
C789 C792 1.463 . S
C789 C794 1.350 . S
C789 N797 1.427 . S
C790 H781 0.930 . S
C790 C788 1.378 . S
C790 C791 1.367 . S
C791 C790 1.367 . S
C791 C793 1.433 . S
C792 C788 1.350 . S
C792 C789 1.463 . S
C792 N796 1.427 . S
C793 H783 0.929 . S
C793 C791 1.433 . S
C793 N796 1.384 . S
C794 H785 0.929 . S
C794 C786 1.378 . S
C794 C789 1.350 . S
C795 H782 0.929 . S
C795 C787 1.433 . S
C795 N797 1.384 . S
N796 C792 1.427 . S
N796 C793 1.384 . S
N797 C789 1.427 . S
N797 C795 1.384 . S
H798 C804 0.930 . S
H799 C808 0.930 . S
H800 C813 0.929 . S
H801 C811 0.929 . S
H802 C806 0.929 . S
H803 C812 0.929 . S
C804 H798 0.930 . S
C804 C805 1.367 . S
C804 C812 1.378 . S
C805 C804 1.367 . S
C805 C813 1.433 . S
C806 H802 0.929 . S
C806 C808 1.378 . S
C806 C810 1.350 . S
C807 C810 1.463 . S
C807 C812 1.350 . S
C807 N815 1.427 . S
C808 H799 0.930 . S
C808 C806 1.378 . S
C808 C809 1.367 . S
C809 C808 1.367 . S
C809 C811 1.433 . S
C810 C806 1.350 . S
C810 C807 1.463 . S
C810 N814 1.427 . S
C811 H801 0.929 . S
C811 C809 1.433 . S
C811 N814 1.384 . S
C812 H803 0.929 . S
C812 C804 1.378 . S
C812 C807 1.350 . S
C813 H800 0.929 . S
C813 C805 1.433 . S
C813 N815 1.384 . S
N814 C810 1.427 . S
N814 C811 1.384 . S
N815 C807 1.427 . S
N815 C813 1.384 . S
H816 C822 0.930 . S
H817 C826 0.930 . S
H818 C831 0.929 . S
H819 C829 0.929 . S
H820 C824 0.929 . S
H821 C830 0.929 . S
C822 H816 0.930 . S
C822 C823 1.367 . S
C822 C830 1.378 . S
C823 C822 1.367 . S
C823 C831 1.433 . S
C824 H820 0.929 . S
C824 C826 1.378 . S
C824 C828 1.350 . S
C825 C828 1.463 . S
C825 C830 1.350 . S
C825 N833 1.427 . S
C826 H817 0.930 . S
C826 C824 1.378 . S
C826 C827 1.367 . S
C827 C826 1.367 . S
C827 C829 1.433 . S
C828 C824 1.350 . S
C828 C825 1.463 . S
C828 N832 1.427 . S
C829 H819 0.929 . S
C829 C827 1.433 . S
C829 N832 1.384 . S
C830 H821 0.929 . S
C830 C822 1.378 . S
C830 C825 1.350 . S
C831 H818 0.929 . S
C831 C823 1.433 . S
C831 N833 1.384 . S
N832 C828 1.427 . S
N832 C829 1.384 . S
N833 C825 1.427 . S
N833 C831 1.384 . S
H834 C840 0.930 . S
H835 C844 0.930 . S
H836 C849 0.929 . S
H837 C847 0.929 . S
H838 C842 0.929 . S
H839 C848 0.929 . S
C840 H834 0.930 . S
C840 C841 1.367 . S
C840 C848 1.378 . S
C841 C840 1.367 . S
C841 C849 1.433 . S
C842 H838 0.929 . S
C842 C844 1.378 . S
C842 C846 1.350 . S
C843 C846 1.463 . S
C843 C848 1.350 . S
C843 N851 1.427 . S
C844 H835 0.930 . S
C844 C842 1.378 . S
C844 C845 1.367 . S
C845 C844 1.367 . S
C845 C847 1.433 . S
C846 C842 1.350 . S
C846 C843 1.463 . S
C846 N850 1.427 . S
C847 H837 0.929 . S
C847 C845 1.433 . S
C847 N850 1.384 . S
C848 H839 0.929 . S
C848 C840 1.378 . S
C848 C843 1.350 . S
C849 H836 0.929 . S
C849 C841 1.433 . S
C849 N851 1.384 . S
N850 C846 1.427 . S
N850 C847 1.384 . S
N851 C843 1.427 . S
N851 C849 1.384 . S
H852 C858 0.930 . S
H853 C862 0.930 . S
H854 C867 0.929 . S
H855 C865 0.929 . S
H856 C860 0.929 . S
H857 C866 0.929 . S
C858 H852 0.930 . S
C858 C859 1.367 . S
C858 C866 1.378 . S
C859 C858 1.367 . S
C859 C867 1.433 . S
C860 H856 0.929 . S
C860 C862 1.378 . S
C860 C864 1.350 . S
C861 C864 1.463 . S
C861 C866 1.350 . S
C861 N869 1.427 . S
C862 H853 0.930 . S
C862 C860 1.378 . S
C862 C863 1.367 . S
C863 C862 1.367 . S
C863 C865 1.433 . S
C864 C860 1.350 . S
C864 C861 1.463 . S
C864 N868 1.427 . S
C865 H855 0.929 . S
C865 C863 1.433 . S
C865 N868 1.384 . S
C866 H857 0.929 . S
C866 C858 1.378 . S
C866 C861 1.350 . S
C867 H854 0.929 . S
C867 C859 1.433 . S
C867 N869 1.384 . S
N868 C864 1.427 . S
N868 C865 1.384 . S
N869 C861 1.427 . S
N869 C867 1.384 . S
H870 C876 0.930 . S
H871 C880 0.930 . S
H872 C885 0.929 . S
H873 C883 0.929 . S
H874 C878 0.929 . S
H875 C884 0.929 . S
C876 H870 0.930 . S
C876 C877 1.367 . S
C876 C884 1.378 . S
C877 C876 1.367 . S
C877 C885 1.433 . S
C878 H874 0.929 . S
C878 C880 1.378 . S
C878 C882 1.350 . S
C879 C882 1.463 . S
C879 C884 1.350 . S
C879 N887 1.427 . S
C880 H871 0.930 . S
C880 C878 1.378 . S
C880 C881 1.367 . S
C881 C880 1.367 . S
C881 C883 1.433 . S
C882 C878 1.350 . S
C882 C879 1.463 . S
C882 N886 1.427 . S
C883 H873 0.929 . S
C883 C881 1.433 . S
C883 N886 1.384 . S
C884 H875 0.929 . S
C884 C876 1.378 . S
C884 C879 1.350 . S
C885 H872 0.929 . S
C885 C877 1.433 . S
C885 N887 1.384 . S
N886 C882 1.427 . S
N886 C883 1.384 . S
N887 C879 1.427 . S
N887 C885 1.384 . S
H888 C894 0.930 . S
H889 C898 0.930 . S
H890 C903 0.929 . S
H891 C901 0.929 . S
H892 C896 0.929 . S
H893 C902 0.929 . S
C894 H888 0.930 . S
C894 C895 1.367 . S
C894 C902 1.378 . S
C895 C894 1.367 . S
C895 C903 1.433 . S
C896 H892 0.929 . S
C896 C898 1.378 . S
C896 C900 1.350 . S
C897 C900 1.463 . S
C897 C902 1.350 . S
C897 N905 1.427 . S
C898 H889 0.930 . S
C898 C896 1.378 . S
C898 C899 1.367 . S
C899 C898 1.367 . S
C899 C901 1.433 . S
C900 C896 1.350 . S
C900 C897 1.463 . S
C900 N904 1.427 . S
C901 H891 0.929 . S
C901 C899 1.433 . S
C901 N904 1.384 . S
C902 H893 0.929 . S
C902 C894 1.378 . S
C902 C897 1.350 . S
C903 H890 0.929 . S
C903 C895 1.433 . S
C903 N905 1.384 . S
N904 C900 1.427 . S
N904 C901 1.384 . S
N905 C897 1.427 . S
N905 C903 1.384 . S
H906 C912 0.930 . S
H907 C916 0.930 . S
H908 C921 0.929 . S
H909 C919 0.929 . S
H910 C914 0.929 . S
H911 C920 0.929 . S
C912 H906 0.930 . S
C912 C913 1.367 . S
C912 C920 1.378 . S
C913 C912 1.367 . S
C913 C921 1.433 . S
C914 H910 0.929 . S
C914 C916 1.378 . S
C914 C918 1.350 . S
C915 C918 1.463 . S
C915 C920 1.350 . S
C915 N923 1.427 . S
C916 H907 0.930 . S
C916 C914 1.378 . S
C916 C917 1.367 . S
C917 C916 1.367 . S
C917 C919 1.433 . S
C918 C914 1.350 . S
C918 C915 1.463 . S
C918 N922 1.427 . S
C919 H909 0.929 . S
C919 C917 1.433 . S
C919 N922 1.384 . S
C920 H911 0.929 . S
C920 C912 1.378 . S
C920 C915 1.350 . S
C921 H908 0.929 . S
C921 C913 1.433 . S
C921 N923 1.384 . S
N922 C918 1.427 . S
N922 C919 1.384 . S
N923 C915 1.427 . S
N923 C921 1.384 . S
H924 C930 0.930 . S
H925 C934 0.930 . S
H926 C939 0.929 . S
H927 C937 0.929 . S
H928 C932 0.929 . S
H929 C938 0.929 . S
C930 H924 0.930 . S
C930 C931 1.367 . S
C930 C938 1.378 . S
C931 C930 1.367 . S
C931 C939 1.433 . S
C932 H928 0.929 . S
C932 C934 1.378 . S
C932 C936 1.350 . S
C933 C936 1.463 . S
C933 C938 1.350 . S
C933 N941 1.427 . S
C934 H925 0.930 . S
C934 C932 1.378 . S
C934 C935 1.367 . S
C935 C934 1.367 . S
C935 C937 1.433 . S
C936 C932 1.350 . S
C936 C933 1.463 . S
C936 N940 1.427 . S
C937 H927 0.929 . S
C937 C935 1.433 . S
C937 N940 1.384 . S
C938 H929 0.929 . S
C938 C930 1.378 . S
C938 C933 1.350 . S
C939 H926 0.929 . S
C939 C931 1.433 . S
C939 N941 1.384 . S
N940 C936 1.427 . S
N940 C937 1.384 . S
N941 C933 1.427 . S
N941 C939 1.384 . S
H942 C948 0.930 . S
H943 C952 0.930 . S
H944 C957 0.929 . S
H945 C955 0.929 . S
H946 C950 0.929 . S
H947 C956 0.929 . S
C948 H942 0.930 . S
C948 C949 1.367 . S
C948 C956 1.378 . S
C949 C948 1.367 . S
C949 C957 1.433 . S
C950 H946 0.929 . S
C950 C952 1.378 . S
C950 C954 1.350 . S
C951 C954 1.463 . S
C951 C956 1.350 . S
C951 N959 1.427 . S
C952 H943 0.930 . S
C952 C950 1.378 . S
C952 C953 1.367 . S
C953 C952 1.367 . S
C953 C955 1.433 . S
C954 C950 1.350 . S
C954 C951 1.463 . S
C954 N958 1.427 . S
C955 H945 0.929 . S
C955 C953 1.433 . S
C955 N958 1.384 . S
C956 H947 0.929 . S
C956 C948 1.378 . S
C956 C951 1.350 . S
C957 H944 0.929 . S
C957 C949 1.433 . S
C957 N959 1.384 . S
N958 C954 1.427 . S
N958 C955 1.384 . S
N959 C951 1.427 . S
N959 C957 1.384 . S
H960 C966 0.930 . S
H961 C970 0.930 . S
H962 C975 0.929 . S
H963 C973 0.929 . S
H964 C968 0.929 . S
H965 C974 0.929 . S
C966 H960 0.930 . S
C966 C967 1.367 . S
C966 C974 1.378 . S
C967 C966 1.367 . S
C967 C975 1.433 . S
C968 H964 0.929 . S
C968 C970 1.378 . S
C968 C972 1.350 . S
C969 C972 1.463 . S
C969 C974 1.350 . S
C969 N977 1.427 . S
C970 H961 0.930 . S
C970 C968 1.378 . S
C970 C971 1.367 . S
C971 C970 1.367 . S
C971 C973 1.433 . S
C972 C968 1.350 . S
C972 C969 1.463 . S
C972 N976 1.427 . S
C973 H963 0.929 . S
C973 C971 1.433 . S
C973 N976 1.384 . S
C974 H965 0.929 . S
C974 C966 1.378 . S
C974 C969 1.350 . S
C975 H962 0.929 . S
C975 C967 1.433 . S
C975 N977 1.384 . S
N976 C972 1.427 . S
N976 C973 1.384 . S
N977 C969 1.427 . S
N977 C975 1.384 . S
H978 C984 0.930 . S
H979 C988 0.930 . S
H980 C993 0.929 . S
H981 C991 0.929 . S
H982 C986 0.929 . S
H983 C992 0.929 . S
C984 H978 0.930 . S
C984 C985 1.367 . S
C984 C992 1.378 . S
C985 C984 1.367 . S
C985 C993 1.433 . S
C986 H982 0.929 . S
C986 C988 1.378 . S
C986 C990 1.350 . S
C987 C990 1.463 . S
C987 C992 1.350 . S
C987 N995 1.427 . S
C988 H979 0.930 . S
C988 C986 1.378 . S
C988 C989 1.367 . S
C989 C988 1.367 . S
C989 C991 1.433 . S
C990 C986 1.350 . S
C990 C987 1.463 . S
C990 N994 1.427 . S
C991 H981 0.929 . S
C991 C989 1.433 . S
C991 N994 1.384 . S
C992 H983 0.929 . S
C992 C984 1.378 . S
C992 C987 1.350 . S
C993 H980 0.929 . S
C993 C985 1.433 . S
C993 N995 1.384 . S
N994 C990 1.427 . S
N994 C991 1.384 . S
N995 C987 1.427 . S
N995 C993 1.384 . S
H996 C1002 0.930 . S
H997 C1006 0.930 . S
H998 C1011 0.929 . S
H999 C1009 0.929 . S
H1000 C1004 0.929 . S
H1001 C1010 0.929 . S
C1002 H996 0.930 . S
C1002 C1003 1.367 . S
C1002 C1010 1.378 . S
C1003 C1002 1.367 . S
C1003 C1011 1.433 . S
C1004 H1000 0.929 . S
C1004 C1006 1.378 . S
C1004 C1008 1.350 . S
C1005 C1008 1.463 . S
C1005 C1010 1.350 . S
C1005 N1013 1.427 . S
C1006 H997 0.930 . S
C1006 C1004 1.378 . S
C1006 C1007 1.367 . S
C1007 C1006 1.367 . S
C1007 C1009 1.433 . S
C1008 C1004 1.350 . S
C1008 C1005 1.463 . S
C1008 N1012 1.427 . S
C1009 H999 0.929 . S
C1009 C1007 1.433 . S
C1009 N1012 1.384 . S
C1010 H1001 0.929 . S
C1010 C1002 1.378 . S
C1010 C1005 1.350 . S
C1011 H998 0.929 . S
C1011 C1003 1.433 . S
C1011 N1013 1.384 . S
N1012 C1008 1.427 . S
N1012 C1009 1.384 . S
N1013 C1005 1.427 . S
N1013 C1011 1.384 . S
H1014 C1020 0.930 . S
H1015 C1024 0.930 . S
H1016 C1029 0.929 . S
H1017 C1027 0.929 . S
H1018 C1022 0.929 . S
H1019 C1028 0.929 . S
C1020 H1014 0.930 . S
C1020 C1021 1.367 . S
C1020 C1028 1.378 . S
C1021 C1020 1.367 . S
C1021 C1029 1.433 . S
C1022 H1018 0.929 . S
C1022 C1024 1.378 . S
C1022 C1026 1.350 . S
C1023 C1026 1.463 . S
C1023 C1028 1.350 . S
C1023 N1031 1.427 . S
C1024 H1015 0.930 . S
C1024 C1022 1.378 . S
C1024 C1025 1.367 . S
C1025 C1024 1.367 . S
C1025 C1027 1.433 . S
C1026 C1022 1.350 . S
C1026 C1023 1.463 . S
C1026 N1030 1.427 . S
C1027 H1017 0.929 . S
C1027 C1025 1.433 . S
C1027 N1030 1.384 . S
C1028 H1019 0.929 . S
C1028 C1020 1.378 . S
C1028 C1023 1.350 . S
C1029 H1016 0.929 . S
C1029 C1021 1.433 . S
C1029 N1031 1.384 . S
N1030 C1026 1.427 . S
N1030 C1027 1.384 . S
N1031 C1023 1.427 . S
N1031 C1029 1.384 . S
H1032 C1038 0.930 . S
H1033 C1042 0.930 . S
H1034 C1047 0.929 . S
H1035 C1045 0.929 . S
H1036 C1040 0.929 . S
H1037 C1046 0.929 . S
C1038 H1032 0.930 . S
C1038 C1039 1.367 . S
C1038 C1046 1.378 . S
C1039 C1038 1.367 . S
C1039 C1047 1.433 . S
C1040 H1036 0.929 . S
C1040 C1042 1.378 . S
C1040 C1044 1.350 . S
C1041 C1044 1.463 . S
C1041 C1046 1.350 . S
C1041 N1049 1.427 . S
C1042 H1033 0.930 . S
C1042 C1040 1.378 . S
C1042 C1043 1.367 . S
C1043 C1042 1.367 . S
C1043 C1045 1.433 . S
C1044 C1040 1.350 . S
C1044 C1041 1.463 . S
C1044 N1048 1.427 . S
C1045 H1035 0.929 . S
C1045 C1043 1.433 . S
C1045 N1048 1.384 . S
C1046 H1037 0.929 . S
C1046 C1038 1.378 . S
C1046 C1041 1.350 . S
C1047 H1034 0.929 . S
C1047 C1039 1.433 . S
C1047 N1049 1.384 . S
N1048 C1044 1.427 . S
N1048 C1045 1.384 . S
N1049 C1041 1.427 . S
N1049 C1047 1.384 . S
H1050 C1056 0.930 . S
H1051 C1060 0.930 . S
H1052 C1065 0.929 . S
H1053 C1063 0.929 . S
H1054 C1058 0.929 . S
H1055 C1064 0.929 . S
C1056 H1050 0.930 . S
C1056 C1057 1.367 . S
C1056 C1064 1.378 . S
C1057 C1056 1.367 . S
C1057 C1065 1.433 . S
C1058 H1054 0.929 . S
C1058 C1060 1.378 . S
C1058 C1062 1.350 . S
C1059 C1062 1.463 . S
C1059 C1064 1.350 . S
C1059 N1067 1.427 . S
C1060 H1051 0.930 . S
C1060 C1058 1.378 . S
C1060 C1061 1.367 . S
C1061 C1060 1.367 . S
C1061 C1063 1.433 . S
C1062 C1058 1.350 . S
C1062 C1059 1.463 . S
C1062 N1066 1.427 . S
C1063 H1053 0.929 . S
C1063 C1061 1.433 . S
C1063 N1066 1.384 . S
C1064 H1055 0.929 . S
C1064 C1056 1.378 . S
C1064 C1059 1.350 . S
C1065 H1052 0.929 . S
C1065 C1057 1.433 . S
C1065 N1067 1.384 . S
N1066 C1062 1.427 . S
N1066 C1063 1.384 . S
N1067 C1059 1.427 . S
N1067 C1065 1.384 . S
H1068 C1074 0.930 . S
H1069 C1078 0.930 . S
H1070 C1083 0.929 . S
H1071 C1081 0.929 . S
H1072 C1076 0.929 . S
H1073 C1082 0.929 . S
C1074 H1068 0.930 . S
C1074 C1075 1.367 . S
C1074 C1082 1.378 . S
C1075 C1074 1.367 . S
C1075 C1083 1.433 . S
C1076 H1072 0.929 . S
C1076 C1078 1.378 . S
C1076 C1080 1.350 . S
C1077 C1080 1.463 . S
C1077 C1082 1.350 . S
C1077 N1085 1.427 . S
C1078 H1069 0.930 . S
C1078 C1076 1.378 . S
C1078 C1079 1.367 . S
C1079 C1078 1.367 . S
C1079 C1081 1.433 . S
C1080 C1076 1.350 . S
C1080 C1077 1.463 . S
C1080 N1084 1.427 . S
C1081 H1071 0.929 . S
C1081 C1079 1.433 . S
C1081 N1084 1.384 . S
C1082 H1073 0.929 . S
C1082 C1074 1.378 . S
C1082 C1077 1.350 . S
C1083 H1070 0.929 . S
C1083 C1075 1.433 . S
C1083 N1085 1.384 . S
N1084 C1080 1.427 . S
N1084 C1081 1.384 . S
N1085 C1077 1.427 . S
N1085 C1083 1.384 . S
H1086 C1092 0.930 . S
H1087 C1096 0.930 . S
H1088 C1101 0.929 . S
H1089 C1099 0.929 . S
H1090 C1094 0.929 . S
H1091 C1100 0.929 . S
C1092 H1086 0.930 . S
C1092 C1093 1.367 . S
C1092 C1100 1.378 . S
C1093 C1092 1.367 . S
C1093 C1101 1.433 . S
C1094 H1090 0.929 . S
C1094 C1096 1.378 . S
C1094 C1098 1.350 . S
C1095 C1098 1.463 . S
C1095 C1100 1.350 . S
C1095 N1103 1.427 . S
C1096 H1087 0.930 . S
C1096 C1094 1.378 . S
C1096 C1097 1.367 . S
C1097 C1096 1.367 . S
C1097 C1099 1.433 . S
C1098 C1094 1.350 . S
C1098 C1095 1.463 . S
C1098 N1102 1.427 . S
C1099 H1089 0.929 . S
C1099 C1097 1.433 . S
C1099 N1102 1.384 . S
C1100 H1091 0.929 . S
C1100 C1092 1.378 . S
C1100 C1095 1.350 . S
C1101 H1088 0.929 . S
C1101 C1093 1.433 . S
C1101 N1103 1.384 . S
N1102 C1098 1.427 . S
N1102 C1099 1.384 . S
N1103 C1095 1.427 . S
N1103 C1101 1.384 . S
H1104 C1110 0.930 . S
H1105 C1114 0.930 . S
H1106 C1119 0.929 . S
H1107 C1117 0.929 . S
H1108 C1112 0.929 . S
H1109 C1118 0.929 . S
C1110 H1104 0.930 . S
C1110 C1111 1.367 . S
C1110 C1118 1.378 . S
C1111 C1110 1.367 . S
C1111 C1119 1.433 . S
C1112 H1108 0.929 . S
C1112 C1114 1.378 . S
C1112 C1116 1.350 . S
C1113 C1116 1.463 . S
C1113 C1118 1.350 . S
C1113 N1121 1.427 . S
C1114 H1105 0.930 . S
C1114 C1112 1.378 . S
C1114 C1115 1.367 . S
C1115 C1114 1.367 . S
C1115 C1117 1.433 . S
C1116 C1112 1.350 . S
C1116 C1113 1.463 . S
C1116 N1120 1.427 . S
C1117 H1107 0.929 . S
C1117 C1115 1.433 . S
C1117 N1120 1.384 . S
C1118 H1109 0.929 . S
C1118 C1110 1.378 . S
C1118 C1113 1.350 . S
C1119 H1106 0.929 . S
C1119 C1111 1.433 . S
C1119 N1121 1.384 . S
N1120 C1116 1.427 . S
N1120 C1117 1.384 . S
N1121 C1113 1.427 . S
N1121 C1119 1.384 . S
H1122 C1128 0.930 . S
H1123 C1132 0.930 . S
H1124 C1137 0.929 . S
H1125 C1135 0.929 . S
H1126 C1130 0.929 . S
H1127 C1136 0.929 . S
C1128 H1122 0.930 . S
C1128 C1129 1.367 . S
C1128 C1136 1.378 . S
C1129 C1128 1.367 . S
C1129 C1137 1.433 . S
C1130 H1126 0.929 . S
C1130 C1132 1.378 . S
C1130 C1134 1.350 . S
C1131 C1134 1.463 1_556 S
C1131 C1136 1.350 . S
C1131 N1139 1.427 . S
C1132 H1123 0.930 . S
C1132 C1130 1.378 . S
C1132 C1133 1.367 . S
C1133 C1132 1.367 . S
C1133 C1135 1.433 . S
C1134 C1130 1.350 . S
C1134 C1131 1.463 1_554 S
C1134 N1138 1.427 . S
C1135 H1125 0.929 . S
C1135 C1133 1.433 . S
C1135 N1138 1.384 . S
C1136 H1127 0.929 . S
C1136 C1128 1.378 . S
C1136 C1131 1.350 . S
C1137 H1124 0.929 . S
C1137 C1129 1.433 . S
C1137 N1139 1.384 . S
N1138 C1134 1.427 . S
N1138 C1135 1.384 . S
N1139 C1131 1.427 . S
N1139 C1137 1.384 . S
H1140 C1146 0.930 . S
H1141 C1150 0.930 . S
H1142 C1155 0.929 . S
H1143 C1153 0.929 . S
H1144 C1148 0.929 . S
H1145 C1154 0.929 . S
C1146 H1140 0.930 . S
C1146 C1147 1.367 . S
C1146 C1154 1.378 . S
C1147 C1146 1.367 . S
C1147 C1155 1.433 . S
C1148 H1144 0.929 . S
C1148 C1150 1.378 . S
C1148 C1152 1.350 . S
C1149 C1152 1.463 . S
C1149 C1154 1.350 . S
C1149 N1157 1.427 . S
C1150 H1141 0.930 . S
C1150 C1148 1.378 . S
C1150 C1151 1.367 . S
C1151 C1150 1.367 . S
C1151 C1153 1.433 . S
C1152 C1148 1.350 . S
C1152 C1149 1.463 . S
C1152 N1156 1.427 . S
C1153 H1143 0.929 . S
C1153 C1151 1.433 . S
C1153 N1156 1.384 . S
C1154 H1145 0.929 . S
C1154 C1146 1.378 . S
C1154 C1149 1.350 . S
C1155 H1142 0.929 . S
C1155 C1147 1.433 . S
C1155 N1157 1.384 . S
N1156 C1152 1.427 . S
N1156 C1153 1.384 . S
N1157 C1149 1.427 . S
N1157 C1155 1.384 . S
H1158 C1164 0.930 . S
H1159 C1168 0.930 . S
H1160 C1173 0.929 . S
H1161 C1171 0.929 . S
H1162 C1166 0.929 . S
H1163 C1172 0.929 . S
C1164 H1158 0.930 . S
C1164 C1165 1.367 . S
C1164 C1172 1.378 . S
C1165 C1164 1.367 . S
C1165 C1173 1.433 . S
C1166 H1162 0.929 . S
C1166 C1168 1.378 . S
C1166 C1170 1.350 . S
C1167 C1170 1.463 . S
C1167 C1172 1.350 1_554 S
C1167 N1175 1.427 1_554 S
C1168 H1159 0.930 . S
C1168 C1166 1.378 . S
C1168 C1169 1.367 . S
C1169 C1168 1.367 . S
C1169 C1171 1.433 . S
C1170 C1166 1.350 . S
C1170 C1167 1.463 . S
C1170 N1174 1.427 . S
C1171 H1161 0.929 . S
C1171 C1169 1.433 . S
C1171 N1174 1.384 . S
C1172 H1163 0.929 . S
C1172 C1164 1.378 . S
C1172 C1167 1.350 1_556 S
C1173 H1160 0.929 . S
C1173 C1165 1.433 . S
C1173 N1175 1.384 . S
N1174 C1170 1.427 . S
N1174 C1171 1.384 . S
N1175 C1167 1.427 1_556 S
N1175 C1173 1.384 . S
H1176 C1182 0.930 . S
H1177 C1186 0.930 . S
H1178 C1191 0.929 . S
H1179 C1189 0.929 . S
H1180 C1184 0.929 . S
H1181 C1190 0.929 . S
C1182 H1176 0.930 . S
C1182 C1183 1.367 . S
C1182 C1190 1.378 . S
C1183 C1182 1.367 . S
C1183 C1191 1.433 . S
C1184 H1180 0.929 . S
C1184 C1186 1.378 . S
C1184 C1188 1.350 . S
C1185 C1188 1.463 . S
C1185 C1190 1.350 . S
C1185 N1193 1.427 . S
C1186 H1177 0.930 . S
C1186 C1184 1.378 . S
C1186 C1187 1.367 . S
C1187 C1186 1.367 . S
C1187 C1189 1.433 . S
C1188 C1184 1.350 . S
C1188 C1185 1.463 . S
C1188 N1192 1.427 . S
C1189 H1179 0.929 . S
C1189 C1187 1.433 . S
C1189 N1192 1.384 . S
C1190 H1181 0.929 . S
C1190 C1182 1.378 . S
C1190 C1185 1.350 . S
C1191 H1178 0.929 . S
C1191 C1183 1.433 . S
C1191 N1193 1.384 . S
N1192 C1188 1.427 . S
N1192 C1189 1.384 . S
N1193 C1185 1.427 . S
N1193 C1191 1.384 . S
H1194 C1200 0.930 . S
H1195 C1204 0.930 . S
H1196 C1209 0.929 . S
H1197 C1207 0.929 . S
H1198 C1202 0.929 . S
H1199 C1208 0.929 . S
C1200 H1194 0.930 . S
C1200 C1201 1.367 . S
C1200 C1208 1.378 . S
C1201 C1200 1.367 . S
C1201 C1209 1.433 . S
C1202 H1198 0.929 . S
C1202 C1204 1.378 . S
C1202 C1206 1.350 . S
C1203 C1206 1.463 1_556 S
C1203 C1208 1.350 . S
C1203 N1211 1.427 . S
C1204 H1195 0.930 . S
C1204 C1202 1.378 . S
C1204 C1205 1.367 . S
C1205 C1204 1.367 . S
C1205 C1207 1.433 . S
C1206 C1202 1.350 . S
C1206 C1203 1.463 1_554 S
C1206 N1210 1.427 . S
C1207 H1197 0.929 . S
C1207 C1205 1.433 . S
C1207 N1210 1.384 . S
C1208 H1199 0.929 . S
C1208 C1200 1.378 . S
C1208 C1203 1.350 . S
C1209 H1196 0.929 . S
C1209 C1201 1.433 . S
C1209 N1211 1.384 . S
N1210 C1206 1.427 . S
N1210 C1207 1.384 . S
N1211 C1203 1.427 . S
N1211 C1209 1.384 . S
H1212 C1218 0.930 . S
H1213 C1222 0.930 . S
H1214 C1227 0.929 . S
H1215 C1225 0.929 . S
H1216 C1220 0.929 . S
H1217 C1226 0.929 . S
C1218 H1212 0.930 . S
C1218 C1219 1.367 . S
C1218 C1226 1.378 . S
C1219 C1218 1.367 . S
C1219 C1227 1.433 . S
C1220 H1216 0.929 . S
C1220 C1222 1.378 . S
C1220 C1224 1.350 . S
C1221 C1224 1.463 . S
C1221 C1226 1.350 . S
C1221 N1229 1.427 . S
C1222 H1213 0.930 . S
C1222 C1220 1.378 . S
C1222 C1223 1.367 . S
C1223 C1222 1.367 . S
C1223 C1225 1.433 . S
C1224 C1220 1.350 . S
C1224 C1221 1.463 . S
C1224 N1228 1.427 . S
C1225 H1215 0.929 . S
C1225 C1223 1.433 . S
C1225 N1228 1.384 . S
C1226 H1217 0.929 . S
C1226 C1218 1.378 . S
C1226 C1221 1.350 . S
C1227 H1214 0.929 . S
C1227 C1219 1.433 . S
C1227 N1229 1.384 . S
N1228 C1224 1.427 . S
N1228 C1225 1.384 . S
N1229 C1221 1.427 . S
N1229 C1227 1.384 . S
H1230 C1236 0.930 . S
H1231 C1240 0.930 . S
H1232 C1245 0.929 . S
H1233 C1243 0.929 . S
H1234 C1238 0.917 1_556 S
H1235 C1244 0.929 . S
C1236 H1230 0.930 . S
C1236 C1237 1.367 . S
C1236 C1244 1.378 . S
C1237 C1236 1.367 . S
C1237 C1245 1.433 . S
C1238 H1234 0.917 1_554 S
C1238 C1240 1.378 . S
C1238 C1242 1.350 1_554 S
C1239 C1242 1.463 . S
C1239 C1244 1.350 . S
C1239 N1247 1.427 . S
C1240 H1231 0.930 . S
C1240 C1238 1.378 . S
C1240 C1241 1.367 . S
C1241 C1240 1.367 . S
C1241 C1243 1.433 . S
C1242 C1238 1.350 1_556 S
C1242 C1239 1.463 . S
C1242 N1246 1.427 1_556 S
C1243 H1233 0.929 . S
C1243 C1241 1.433 . S
C1243 N1246 1.384 . S
C1244 H1235 0.929 . S
C1244 C1236 1.378 . S
C1244 C1239 1.350 . S
C1245 H1232 0.929 . S
C1245 C1237 1.433 . S
C1245 N1247 1.384 . S
N1246 C1242 1.427 1_554 S
N1246 C1243 1.384 . S
N1247 C1239 1.427 . S
N1247 C1245 1.384 . S
H1248 C1254 0.930 . S
H1249 C1258 0.930 . S
H1250 C1263 0.929 . S
H1251 C1261 0.929 . S
H1252 C1256 0.929 . S
H1253 C1262 0.929 . S
C1254 H1248 0.930 . S
C1254 C1255 1.367 . S
C1254 C1262 1.378 . S
C1255 C1254 1.367 . S
C1255 C1263 1.433 . S
C1256 H1252 0.929 . S
C1256 C1258 1.378 . S
C1256 C1260 1.350 . S
C1257 C1260 1.463 . S
C1257 C1262 1.350 . S
C1257 N1265 1.427 . S
C1258 H1249 0.930 . S
C1258 C1256 1.378 . S
C1258 C1259 1.367 . S
C1259 C1258 1.367 . S
C1259 C1261 1.433 . S
C1260 C1256 1.350 . S
C1260 C1257 1.463 . S
C1260 N1264 1.427 . S
C1261 H1251 0.929 . S
C1261 C1259 1.433 . S
C1261 N1264 1.384 . S
C1262 H1253 0.929 . S
C1262 C1254 1.378 . S
C1262 C1257 1.350 . S
C1263 H1250 0.929 . S
C1263 C1255 1.433 . S
C1263 N1265 1.384 . S
N1264 C1260 1.427 . S
N1264 C1261 1.384 . S
N1265 C1257 1.427 . S
N1265 C1263 1.384 . S
H1266 C1272 0.930 . S
H1267 C1276 0.930 . S
H1268 C1281 0.929 . S
H1269 C1279 0.929 . S
H1270 C1274 0.929 . S
H1271 C1280 0.929 . S
C1272 H1266 0.930 . S
C1272 C1273 1.367 . S
C1272 C1280 1.378 . S
C1273 C1272 1.367 . S
C1273 C1281 1.433 . S
C1274 H1270 0.929 . S
C1274 C1276 1.378 . S
C1274 C1278 1.350 . S
C1275 C1278 1.463 1_565 S
C1275 C1280 1.350 . S
C1275 N1283 1.427 . S
C1276 H1267 0.930 . S
C1276 C1274 1.378 . S
C1276 C1277 1.367 . S
C1277 C1276 1.367 . S
C1277 C1279 1.433 . S
C1278 C1274 1.350 . S
C1278 C1275 1.463 1_545 S
C1278 N1282 1.427 . S
C1279 H1269 0.929 . S
C1279 C1277 1.433 . S
C1279 N1282 1.384 . S
C1280 H1271 0.929 . S
C1280 C1272 1.378 . S
C1280 C1275 1.350 . S
C1281 H1268 0.929 . S
C1281 C1273 1.433 . S
C1281 N1283 1.384 . S
N1282 C1278 1.427 . S
N1282 C1279 1.384 . S
N1283 C1275 1.427 . S
N1283 C1281 1.384 . S
H1284 C1290 0.930 . S
H1285 C1294 0.930 . S
H1286 C1299 0.929 . S
H1287 C1297 0.929 . S
H1288 C1292 0.929 . S
H1289 C1298 0.929 . S
C1290 H1284 0.930 . S
C1290 C1291 1.367 . S
C1290 C1298 1.378 . S
C1291 C1290 1.367 . S
C1291 C1299 1.433 . S
C1292 H1288 0.929 . S
C1292 C1294 1.378 . S
C1292 C1296 1.350 . S
C1293 C1296 1.463 . S
C1293 C1298 1.350 . S
C1293 N1301 1.427 . S
C1294 H1285 0.930 . S
C1294 C1292 1.378 . S
C1294 C1295 1.367 . S
C1295 C1294 1.367 . S
C1295 C1297 1.433 . S
C1296 C1292 1.350 . S
C1296 C1293 1.463 . S
C1296 N1300 1.427 . S
C1297 H1287 0.929 . S
C1297 C1295 1.433 . S
C1297 N1300 1.384 . S
C1298 H1289 0.929 . S
C1298 C1290 1.378 . S
C1298 C1293 1.350 . S
C1299 H1286 0.929 . S
C1299 C1291 1.433 . S
C1299 N1301 1.384 . S
N1300 C1296 1.427 . S
N1300 C1297 1.384 . S
N1301 C1293 1.427 . S
N1301 C1299 1.384 . S
H1302 C1308 0.930 . S
H1303 C1312 0.930 . S
H1304 C1317 0.929 . S
H1305 C1315 0.929 . S
H1306 C1310 0.929 . S
H1307 C1316 0.929 . S
C1308 H1302 0.930 . S
C1308 C1309 1.367 . S
C1308 C1316 1.378 . S
C1309 C1308 1.367 . S
C1309 C1317 1.433 . S
C1310 H1306 0.929 . S
C1310 C1312 1.378 . S
C1310 C1314 1.350 . S
C1311 C1314 1.463 1_545 S
C1311 C1316 1.350 . S
C1311 N1319 1.427 . S
C1312 H1303 0.930 . S
C1312 C1310 1.378 . S
C1312 C1313 1.367 . S
C1313 C1312 1.367 . S
C1313 C1315 1.433 . S
C1314 C1310 1.350 . S
C1314 C1311 1.463 1_565 S
C1314 N1318 1.427 . S
C1315 H1305 0.929 . S
C1315 C1313 1.433 . S
C1315 N1318 1.384 . S
C1316 H1307 0.929 . S
C1316 C1308 1.378 . S
C1316 C1311 1.350 . S
C1317 H1304 0.929 . S
C1317 C1309 1.433 . S
C1317 N1319 1.384 . S
N1318 C1314 1.427 . S
N1318 C1315 1.384 . S
N1319 C1311 1.427 . S
N1319 C1317 1.384 . S
H1320 C1326 0.930 . S
H1321 C1330 0.930 . S
H1322 C1335 0.929 . S
H1323 C1333 0.929 . S
H1324 C1328 0.929 . S
H1325 C1334 0.929 . S
C1326 H1320 0.930 . S
C1326 C1327 1.367 . S
C1326 C1334 1.378 . S
C1327 C1326 1.367 . S
C1327 C1335 1.433 . S
C1328 H1324 0.929 . S
C1328 C1330 1.378 . S
C1328 C1332 1.350 . S
C1329 C1332 1.463 . S
C1329 C1334 1.350 . S
C1329 N1337 1.427 . S
C1330 H1321 0.930 . S
C1330 C1328 1.378 . S
C1330 C1331 1.367 . S
C1331 C1330 1.367 . S
C1331 C1333 1.433 . S
C1332 C1328 1.350 . S
C1332 C1329 1.463 . S
C1332 N1336 1.427 . S
C1333 H1323 0.929 . S
C1333 C1331 1.433 . S
C1333 N1336 1.384 . S
C1334 H1325 0.929 . S
C1334 C1326 1.378 . S
C1334 C1329 1.350 . S
C1335 H1322 0.929 . S
C1335 C1327 1.433 . S
C1335 N1337 1.384 . S
N1336 C1332 1.427 . S
N1336 C1333 1.384 . S
N1337 C1329 1.427 . S
N1337 C1335 1.384 . S
H1338 C1344 0.930 . S
H1339 C1348 0.930 . S
H1340 C1353 0.929 . S
H1341 C1351 0.929 . S
H1342 C1346 0.929 . S
H1343 C1352 0.929 1_545 S
C1344 H1338 0.930 . S
C1344 C1345 1.367 . S
C1344 C1352 1.378 . S
C1345 C1344 1.367 . S
C1345 C1353 1.433 . S
C1346 H1342 0.929 . S
C1346 C1348 1.378 . S
C1346 C1350 1.350 . S
C1347 C1350 1.463 . S
C1347 C1352 1.350 1_545 S
C1347 N1355 1.427 1_545 S
C1348 H1339 0.930 . S
C1348 C1346 1.378 . S
C1348 C1349 1.367 . S
C1349 C1348 1.367 . S
C1349 C1351 1.433 . S
C1350 C1346 1.350 . S
C1350 C1347 1.463 . S
C1350 N1354 1.427 . S
C1351 H1341 0.929 . S
C1351 C1349 1.433 . S
C1351 N1354 1.384 . S
C1352 H1343 0.929 1_565 S
C1352 C1344 1.378 . S
C1352 C1347 1.350 1_565 S
C1353 H1340 0.929 . S
C1353 C1345 1.433 . S
C1353 N1355 1.384 . S
N1354 C1350 1.427 . S
N1354 C1351 1.384 . S
N1355 C1347 1.427 1_565 S
N1355 C1353 1.384 . S
H1356 C1362 0.930 . S
H1357 C1366 0.930 . S
H1358 C1371 0.929 . S
H1359 C1369 0.929 . S
H1360 C1364 0.929 . S
H1361 C1370 0.929 . S
C1362 H1356 0.930 . S
C1362 C1363 1.367 . S
C1362 C1370 1.378 . S
C1363 C1362 1.367 . S
C1363 C1371 1.433 . S
C1364 H1360 0.929 . S
C1364 C1366 1.378 . S
C1364 C1368 1.350 . S
C1365 C1368 1.463 . S
C1365 C1370 1.350 . S
C1365 N1373 1.427 . S
C1366 H1357 0.930 . S
C1366 C1364 1.378 . S
C1366 C1367 1.367 . S
C1367 C1366 1.367 . S
C1367 C1369 1.433 . S
C1368 C1364 1.350 . S
C1368 C1365 1.463 . S
C1368 N1372 1.427 . S
C1369 H1359 0.929 . S
C1369 C1367 1.433 . S
C1369 N1372 1.384 . S
C1370 H1361 0.929 . S
C1370 C1362 1.378 . S
C1370 C1365 1.350 . S
C1371 H1358 0.929 . S
C1371 C1363 1.433 . S
C1371 N1373 1.384 . S
N1372 C1368 1.427 . S
N1372 C1369 1.384 . S
N1373 C1365 1.427 . S
N1373 C1371 1.384 . S
H1374 C1380 0.930 . S
H1375 C1384 0.930 . S
H1376 C1389 0.929 . S
H1377 C1387 0.929 . S
H1378 C1382 0.929 . S
H1379 C1388 0.929 . S
C1380 H1374 0.930 . S
C1380 C1381 1.367 . S
C1380 C1388 1.378 . S
C1381 C1380 1.367 . S
C1381 C1389 1.433 . S
C1382 H1378 0.929 . S
C1382 C1384 1.378 . S
C1382 C1386 1.350 . S
C1383 C1386 1.463 1_565 S
C1383 C1388 1.350 . S
C1383 N1391 1.427 . S
C1384 H1375 0.930 . S
C1384 C1382 1.378 . S
C1384 C1385 1.367 . S
C1385 C1384 1.367 . S
C1385 C1387 1.433 . S
C1386 C1382 1.350 . S
C1386 C1383 1.463 1_545 S
C1386 N1390 1.427 . S
C1387 H1377 0.929 . S
C1387 C1385 1.433 . S
C1387 N1390 1.384 . S
C1388 H1379 0.929 . S
C1388 C1380 1.378 . S
C1388 C1383 1.350 . S
C1389 H1376 0.929 . S
C1389 C1381 1.433 . S
C1389 N1391 1.384 . S
N1390 C1386 1.427 . S
N1390 C1387 1.384 . S
N1391 C1383 1.427 . S
N1391 C1389 1.384 . S
H1392 C1398 0.930 . S
H1393 C1402 0.930 . S
H1394 C1407 0.929 . S
H1395 C1405 0.929 . S
H1396 C1400 0.929 . S
H1397 C1406 0.929 . S
C1398 H1392 0.930 . S
C1398 C1399 1.367 . S
C1398 C1406 1.378 . S
C1399 C1398 1.367 . S
C1399 C1407 1.433 . S
C1400 H1396 0.929 . S
C1400 C1402 1.378 . S
C1400 C1404 1.350 . S
C1401 C1404 1.463 . S
C1401 C1406 1.350 . S
C1401 N1409 1.427 . S
C1402 H1393 0.930 . S
C1402 C1400 1.378 . S
C1402 C1403 1.367 . S
C1403 C1402 1.367 . S
C1403 C1405 1.433 . S
C1404 C1400 1.350 . S
C1404 C1401 1.463 . S
C1404 N1408 1.427 . S
C1405 H1395 0.929 . S
C1405 C1403 1.433 . S
C1405 N1408 1.384 . S
C1406 H1397 0.929 . S
C1406 C1398 1.378 . S
C1406 C1401 1.350 . S
C1407 H1394 0.929 . S
C1407 C1399 1.433 . S
C1407 N1409 1.384 . S
N1408 C1404 1.427 . S
N1408 C1405 1.384 . S
N1409 C1401 1.427 . S
N1409 C1407 1.384 . S
H1410 C1416 0.930 . S
H1411 C1420 0.930 . S
H1412 C1425 0.929 . S
H1413 C1423 0.929 . S
H1414 C1418 0.929 . S
H1415 C1424 0.929 . S
C1416 H1410 0.930 . S
C1416 C1417 1.367 . S
C1416 C1424 1.378 . S
C1417 C1416 1.367 . S
C1417 C1425 1.433 . S
C1418 H1414 0.929 . S
C1418 C1420 1.378 . S
C1418 C1422 1.350 . S
C1419 C1422 1.463 . S
C1419 C1424 1.350 . S
C1419 N1427 1.427 . S
C1420 H1411 0.930 . S
C1420 C1418 1.378 . S
C1420 C1421 1.367 . S
C1421 C1420 1.367 . S
C1421 C1423 1.433 . S
C1422 C1418 1.350 . S
C1422 C1419 1.463 . S
C1422 N1426 1.427 . S
C1423 H1413 0.929 . S
C1423 C1421 1.433 . S
C1423 N1426 1.384 . S
C1424 H1415 0.929 . S
C1424 C1416 1.378 . S
C1424 C1419 1.350 . S
C1425 H1412 0.929 . S
C1425 C1417 1.433 . S
C1425 N1427 1.384 . S
N1426 C1422 1.427 . S
N1426 C1423 1.384 . S
N1427 C1419 1.427 . S
N1427 C1425 1.384 . S
H1428 C1434 0.930 . S
H1429 C1438 0.930 . S
H1430 C1443 0.929 . S
H1431 C1441 0.929 . S
H1432 C1436 0.929 . S
H1433 C1442 0.929 . S
C1434 H1428 0.930 . S
C1434 C1435 1.367 . S
C1434 C1442 1.378 . S
C1435 C1434 1.367 . S
C1435 C1443 1.433 . S
C1436 H1432 0.929 . S
C1436 C1438 1.378 1_455 S
C1436 C1440 1.350 . S
C1437 C1440 1.463 . S
C1437 C1442 1.350 . S
C1437 N1445 1.427 . S
C1438 H1429 0.930 . S
C1438 C1436 1.378 1_655 S
C1438 C1439 1.367 . S
C1439 C1438 1.367 . S
C1439 C1441 1.433 . S
C1440 C1436 1.350 . S
C1440 C1437 1.463 . S
C1440 N1444 1.427 . S
C1441 H1431 0.929 . S
C1441 C1439 1.433 . S
C1441 N1444 1.384 1_655 S
C1442 H1433 0.929 . S
C1442 C1434 1.378 . S
C1442 C1437 1.350 . S
C1443 H1430 0.929 . S
C1443 C1435 1.433 . S
C1443 N1445 1.384 . S
N1444 C1440 1.427 . S
N1444 C1441 1.384 1_455 S
N1445 C1437 1.427 . S
N1445 C1443 1.384 . S
H1446 C1452 0.930 . S
H1447 C1456 0.930 . S
H1448 C1461 0.929 . S
H1449 C1459 0.929 . S
H1450 C1454 0.929 . S
H1451 C1460 0.929 . S
C1452 H1446 0.930 . S
C1452 C1453 1.367 . S
C1452 C1460 1.378 . S
C1453 C1452 1.367 . S
C1453 C1461 1.433 . S
C1454 H1450 0.929 . S
C1454 C1456 1.378 . S
C1454 C1458 1.350 . S
C1455 C1458 1.463 . S
C1455 C1460 1.350 . S
C1455 N1463 1.427 . S
C1456 H1447 0.930 . S
C1456 C1454 1.378 . S
C1456 C1457 1.367 . S
C1457 C1456 1.367 . S
C1457 C1459 1.433 . S
C1458 C1454 1.350 . S
C1458 C1455 1.463 . S
C1458 N1462 1.427 . S
C1459 H1449 0.929 . S
C1459 C1457 1.433 . S
C1459 N1462 1.384 . S
C1460 H1451 0.929 . S
C1460 C1452 1.378 . S
C1460 C1455 1.350 . S
C1461 H1448 0.929 . S
C1461 C1453 1.433 . S
C1461 N1463 1.384 . S
N1462 C1458 1.427 . S
N1462 C1459 1.384 . S
N1463 C1455 1.427 . S
N1463 C1461 1.384 . S
H1464 C1470 0.930 . S
H1465 C1474 0.930 . S
H1466 C1479 0.929 . S
H1467 C1477 0.929 . S
H1468 C1472 0.929 . S
H1469 C1478 0.929 . S
C1470 H1464 0.930 . S
C1470 C1471 1.367 . S
C1470 C1478 1.378 1_455 S
C1471 C1470 1.367 . S
C1471 C1479 1.433 . S
C1472 H1468 0.929 . S
C1472 C1474 1.378 . S
C1472 C1476 1.350 . S
C1473 C1476 1.463 . S
C1473 C1478 1.350 . S
C1473 N1481 1.427 . S
C1474 H1465 0.930 . S
C1474 C1472 1.378 . S
C1474 C1475 1.367 . S
C1475 C1474 1.367 . S
C1475 C1477 1.433 . S
C1476 C1472 1.350 . S
C1476 C1473 1.463 . S
C1476 N1480 1.427 . S
C1477 H1467 0.929 . S
C1477 C1475 1.433 . S
C1477 N1480 1.384 . S
C1478 H1469 0.929 . S
C1478 C1470 1.378 1_655 S
C1478 C1473 1.350 . S
C1479 H1466 0.929 . S
C1479 C1471 1.433 . S
C1479 N1481 1.384 1_455 S
N1480 C1476 1.427 . S
N1480 C1477 1.384 . S
N1481 C1473 1.427 . S
N1481 C1479 1.384 1_655 S
H1482 C1488 0.930 . S
H1483 C1492 0.930 . S
H1484 C1497 0.929 . S
H1485 C1495 0.929 . S
H1486 C1490 0.929 . S
H1487 C1496 0.929 . S
C1488 H1482 0.930 . S
C1488 C1489 1.367 . S
C1488 C1496 1.378 . S
C1489 C1488 1.367 . S
C1489 C1497 1.433 . S
C1490 H1486 0.929 . S
C1490 C1492 1.378 . S
C1490 C1494 1.350 . S
C1491 C1494 1.463 . S
C1491 C1496 1.350 . S
C1491 N1499 1.427 . S
C1492 H1483 0.930 . S
C1492 C1490 1.378 . S
C1492 C1493 1.367 . S
C1493 C1492 1.367 . S
C1493 C1495 1.433 . S
C1494 C1490 1.350 . S
C1494 C1491 1.463 . S
C1494 N1498 1.427 . S
C1495 H1485 0.929 . S
C1495 C1493 1.433 . S
C1495 N1498 1.384 . S
C1496 H1487 0.929 . S
C1496 C1488 1.378 . S
C1496 C1491 1.350 . S
C1497 H1484 0.929 . S
C1497 C1489 1.433 . S
C1497 N1499 1.384 . S
N1498 C1494 1.427 . S
N1498 C1495 1.384 . S
N1499 C1491 1.427 . S
N1499 C1497 1.384 . S
H1500 C1506 0.930 . S
H1501 C1510 0.930 . S
H1502 C1515 0.929 . S
H1503 C1513 0.929 . S
H1504 C1508 0.929 . S
H1505 C1514 0.929 . S
C1506 H1500 0.930 . S
C1506 C1507 1.367 . S
C1506 C1514 1.378 . S
C1507 C1506 1.367 . S
C1507 C1515 1.433 . S
C1508 H1504 0.929 . S
C1508 C1510 1.378 . S
C1508 C1512 1.350 . S
C1509 C1512 1.463 1_655 S
C1509 C1514 1.350 . S
C1509 N1517 1.427 . S
C1510 H1501 0.930 . S
C1510 C1508 1.378 . S
C1510 C1511 1.367 . S
C1511 C1510 1.367 . S
C1511 C1513 1.433 . S
C1512 C1508 1.350 . S
C1512 C1509 1.463 1_455 S
C1512 N1516 1.427 . S
C1513 H1503 0.929 . S
C1513 C1511 1.433 . S
C1513 N1516 1.384 . S
C1514 H1505 0.929 . S
C1514 C1506 1.378 . S
C1514 C1509 1.350 . S
C1515 H1502 0.929 . S
C1515 C1507 1.433 . S
C1515 N1517 1.384 . S
N1516 C1512 1.427 . S
N1516 C1513 1.384 . S
N1517 C1509 1.427 . S
N1517 C1515 1.384 . S
H1518 C1524 0.930 . S
H1519 C1528 0.930 . S
H1520 C1533 0.929 . S
H1521 C1531 0.929 . S
H1522 C1526 0.929 . S
H1523 C1532 0.929 . S
C1524 H1518 0.930 . S
C1524 C1525 1.367 . S
C1524 C1532 1.378 . S
C1525 C1524 1.367 . S
C1525 C1533 1.433 . S
C1526 H1522 0.929 . S
C1526 C1528 1.378 1_455 S
C1526 C1530 1.350 . S
C1527 C1530 1.463 . S
C1527 C1532 1.350 . S
C1527 N1535 1.427 . S
C1528 H1519 0.930 . S
C1528 C1526 1.378 1_655 S
C1528 C1529 1.367 . S
C1529 C1528 1.367 . S
C1529 C1531 1.433 . S
C1530 C1526 1.350 . S
C1530 C1527 1.463 . S
C1530 N1534 1.427 . S
C1531 H1521 0.929 . S
C1531 C1529 1.433 . S
C1531 N1534 1.384 1_655 S
C1532 H1523 0.929 . S
C1532 C1524 1.378 . S
C1532 C1527 1.350 . S
C1533 H1520 0.929 . S
C1533 C1525 1.433 . S
C1533 N1535 1.384 . S
N1534 C1530 1.427 . S
N1534 C1531 1.384 1_455 S
N1535 C1527 1.427 . S
N1535 C1533 1.384 . S
H1536 C1542 0.930 . S
H1537 C1546 0.930 . S
H1538 C1551 0.929 . S
H1539 C1549 0.929 . S
H1540 C1544 0.929 1_655 S
H1541 C1550 0.929 . S
C1542 H1536 0.930 . S
C1542 C1543 1.367 . S
C1542 C1550 1.378 . S
C1543 C1542 1.367 . S
C1543 C1551 1.433 . S
C1544 H1540 0.929 1_455 S
C1544 C1546 1.378 . S
C1544 C1548 1.350 1_455 S
C1545 C1548 1.463 . S
C1545 C1550 1.350 . S
C1545 N1553 1.427 . S
C1546 H1537 0.930 . S
C1546 C1544 1.378 . S
C1546 C1547 1.367 . S
C1547 C1546 1.367 . S
C1547 C1549 1.433 . S
C1548 C1544 1.350 1_655 S
C1548 C1545 1.463 . S
C1548 N1552 1.427 1_655 S
C1549 H1539 0.929 . S
C1549 C1547 1.433 . S
C1549 N1552 1.384 . S
C1550 H1541 0.929 . S
C1550 C1542 1.378 . S
C1550 C1545 1.350 . S
C1551 H1538 0.929 . S
C1551 C1543 1.433 . S
C1551 N1553 1.384 . S
N1552 C1548 1.427 1_455 S
N1552 C1549 1.384 . S
N1553 C1545 1.427 . S
N1553 C1551 1.384 . S
H1554 C1560 0.930 . S
H1555 C1564 0.930 . S
H1556 C1569 0.929 . S
H1557 C1567 0.929 . S
H1558 C1562 0.929 . S
H1559 C1568 0.929 . S
C1560 H1554 0.930 . S
C1560 C1561 1.367 . S
C1560 C1568 1.378 . S
C1561 C1560 1.367 . S
C1561 C1569 1.433 . S
C1562 H1558 0.929 . S
C1562 C1564 1.378 . S
C1562 C1566 1.350 . S
C1563 C1566 1.463 . S
C1563 C1568 1.350 . S
C1563 N1571 1.427 . S
C1564 H1555 0.930 . S
C1564 C1562 1.378 . S
C1564 C1565 1.367 . S
C1565 C1564 1.367 . S
C1565 C1567 1.433 . S
C1566 C1562 1.350 . S
C1566 C1563 1.463 . S
C1566 N1570 1.427 . S
C1567 H1557 0.929 . S
C1567 C1565 1.433 . S
C1567 N1570 1.384 . S
C1568 H1559 0.929 . S
C1568 C1560 1.378 . S
C1568 C1563 1.350 . S
C1569 H1556 0.929 . S
C1569 C1561 1.433 . S
C1569 N1571 1.384 . S
N1570 C1566 1.427 . S
N1570 C1567 1.384 . S
N1571 C1563 1.427 . S
N1571 C1569 1.384 . S
H1572 C1578 0.930 . S
H1573 C1582 0.930 . S
H1574 C1587 0.929 . S
H1575 C1585 0.929 . S
H1576 C1580 0.929 1_455 S
H1577 C1586 0.929 . S
C1578 H1572 0.930 . S
C1578 C1579 1.367 . S
C1578 C1586 1.378 . S
C1579 C1578 1.367 . S
C1579 C1587 1.433 . S
C1580 H1576 0.929 1_655 S
C1580 C1582 1.378 . S
C1580 C1584 1.350 1_655 S
C1581 C1584 1.463 . S
C1581 C1586 1.350 . S
C1581 N1589 1.427 . S
C1582 H1573 0.930 . S
C1582 C1580 1.378 . S
C1582 C1583 1.367 . S
C1583 C1582 1.367 . S
C1583 C1585 1.433 . S
C1584 C1580 1.350 1_455 S
C1584 C1581 1.463 . S
C1584 N1588 1.427 1_455 S
C1585 H1575 0.929 . S
C1585 C1583 1.433 . S
C1585 N1588 1.384 . S
C1586 H1577 0.929 . S
C1586 C1578 1.378 . S
C1586 C1581 1.350 . S
C1587 H1574 0.929 . S
C1587 C1579 1.433 . S
C1587 N1589 1.384 . S
N1588 C1584 1.427 1_655 S
N1588 C1585 1.384 . S
N1589 C1581 1.427 . S
N1589 C1587 1.384 . S
H1590 C1596 0.930 . S
H1591 C1600 0.930 . S
H1592 C1605 0.929 . S
H1593 C1603 0.929 . S
H1594 C1598 0.929 . S
H1595 C1604 0.929 . S
C1596 H1590 0.930 . S
C1596 C1597 1.367 . S
C1596 C1604 1.378 . S
C1597 C1596 1.367 . S
C1597 C1605 1.433 . S
C1598 H1594 0.929 . S
C1598 C1600 1.378 . S
C1598 C1602 1.350 . S
C1599 C1602 1.463 . S
C1599 C1604 1.350 . S
C1599 N1607 1.427 . S
C1600 H1591 0.930 . S
C1600 C1598 1.378 . S
C1600 C1601 1.367 . S
C1601 C1600 1.367 . S
C1601 C1603 1.433 . S
C1602 C1598 1.350 . S
C1602 C1599 1.463 . S
C1602 N1606 1.427 . S
C1603 H1593 0.929 . S
C1603 C1601 1.433 . S
C1603 N1606 1.384 . S
C1604 H1595 0.929 . S
C1604 C1596 1.378 . S
C1604 C1599 1.350 . S
C1605 H1592 0.929 . S
C1605 C1597 1.433 . S
C1605 N1607 1.384 . S
N1606 C1602 1.427 . S
N1606 C1603 1.384 . S
N1607 C1599 1.427 . S
N1607 C1605 1.384 . S
H1608 C1614 0.930 . S
H1609 C1618 0.930 . S
H1610 C1623 0.929 . S
H1611 C1621 0.929 . S
H1612 C1616 0.929 . S
H1613 C1622 0.914 1_455 S
C1614 H1608 0.930 . S
C1614 C1615 1.367 . S
C1614 C1622 1.403 . S
C1615 C1614 1.367 . S
C1615 C1623 1.433 . S
C1616 H1612 0.929 . S
C1616 C1618 1.378 . S
C1616 C1620 1.350 . S
C1617 C1620 1.463 . S
C1617 C1622 1.340 1_455 S
C1617 N1625 1.427 1_455 S
C1618 H1609 0.930 . S
C1618 C1616 1.378 . S
C1618 C1619 1.367 . S
C1619 C1618 1.367 . S
C1619 C1621 1.433 . S
C1620 C1616 1.350 . S
C1620 C1617 1.463 . S
C1620 N1624 1.427 . S
C1621 H1611 0.929 . S
C1621 C1619 1.433 . S
C1621 N1624 1.384 . S
C1622 H1613 0.914 1_655 S
C1622 C1614 1.403 . S
C1622 C1617 1.340 1_655 S
C1623 H1610 0.929 . S
C1623 C1615 1.433 . S
C1623 N1625 1.384 . S
N1624 C1620 1.427 . S
N1624 C1621 1.384 . S
N1625 C1617 1.427 1_655 S
N1625 C1623 1.384 . S
H1626 C1632 0.930 . S
H1627 C1636 0.930 . S
H1628 C1641 0.929 . S
H1629 C1639 0.929 . S
H1630 C1634 0.929 . S
H1631 C1640 0.929 . S
C1632 H1626 0.930 . S
C1632 C1633 1.367 . S
C1632 C1640 1.378 . S
C1633 C1632 1.367 . S
C1633 C1641 1.433 . S
C1634 H1630 0.929 . S
C1634 C1636 1.378 . S
C1634 C1638 1.350 . S
C1635 C1638 1.463 . S
C1635 C1640 1.350 . S
C1635 N1643 1.427 . S
C1636 H1627 0.930 . S
C1636 C1634 1.378 . S
C1636 C1637 1.367 . S
C1637 C1636 1.367 . S
C1637 C1639 1.433 . S
C1638 C1634 1.350 . S
C1638 C1635 1.463 . S
C1638 N1642 1.427 . S
C1639 H1629 0.929 . S
C1639 C1637 1.433 . S
C1639 N1642 1.384 . S
C1640 H1631 0.929 . S
C1640 C1632 1.378 . S
C1640 C1635 1.350 . S
C1641 H1628 0.929 . S
C1641 C1633 1.433 . S
C1641 N1643 1.384 . S
N1642 C1638 1.427 . S
N1642 C1639 1.384 . S
N1643 C1635 1.427 . S
N1643 C1641 1.384 . S
H1644 C1650 0.930 . S
H1645 C1654 0.930 . S
H1646 C1659 0.929 . S
H1647 C1657 0.929 . S
H1648 C1652 0.929 . S
H1649 C1658 0.929 . S
C1650 H1644 0.930 . S
C1650 C1651 1.367 . S
C1650 C1658 1.378 . S
C1651 C1650 1.367 . S
C1651 C1659 1.433 . S
C1652 H1648 0.929 . S
C1652 C1654 1.378 . S
C1652 C1656 1.350 . S
C1653 C1656 1.463 1_655 S
C1653 C1658 1.350 . S
C1653 N1661 1.427 . S
C1654 H1645 0.930 . S
C1654 C1652 1.378 . S
C1654 C1655 1.367 . S
C1655 C1654 1.367 . S
C1655 C1657 1.433 . S
C1656 C1652 1.350 . S
C1656 C1653 1.463 1_455 S
C1656 N1660 1.427 . S
C1657 H1647 0.929 . S
C1657 C1655 1.433 . S
C1657 N1660 1.384 . S
C1658 H1649 0.929 . S
C1658 C1650 1.378 . S
C1658 C1653 1.350 . S
C1659 H1646 0.929 . S
C1659 C1651 1.433 . S
C1659 N1661 1.384 . S
N1660 C1656 1.427 . S
N1660 C1657 1.384 . S
N1661 C1653 1.427 . S
N1661 C1659 1.384 . S
H1662 C1668 0.930 . S
H1663 C1672 0.930 . S
H1664 C1677 0.929 . S
H1665 C1675 0.929 . S
H1666 C1670 0.929 . S
H1667 C1676 0.929 . S
C1668 H1662 0.930 . S
C1668 C1669 1.367 . S
C1668 C1676 1.378 . S
C1669 C1668 1.367 . S
C1669 C1677 1.433 . S
C1670 H1666 0.929 . S
C1670 C1672 1.378 . S
C1670 C1674 1.350 . S
C1671 C1674 1.463 . S
C1671 C1676 1.350 . S
C1671 N1679 1.427 . S
C1672 H1663 0.930 . S
C1672 C1670 1.378 . S
C1672 C1673 1.367 . S
C1673 C1672 1.367 . S
C1673 C1675 1.433 . S
C1674 C1670 1.350 . S
C1674 C1671 1.463 . S
C1674 N1678 1.427 . S
C1675 H1665 0.929 . S
C1675 C1673 1.433 . S
C1675 N1678 1.384 . S
C1676 H1667 0.929 . S
C1676 C1668 1.378 . S
C1676 C1671 1.350 . S
C1677 H1664 0.929 . S
C1677 C1669 1.433 . S
C1677 N1679 1.384 . S
N1678 C1674 1.427 . S
N1678 C1675 1.384 . S
N1679 C1671 1.427 . S
N1679 C1677 1.384 . S
H1680 C1686 0.930 . S
H1681 C1690 0.930 . S
H1682 C1695 0.929 . S
H1683 C1693 0.929 . S
H1684 C1688 0.929 . S
H1685 C1694 0.929 . S
C1686 H1680 0.930 . S
C1686 C1687 1.367 . S
C1686 C1694 1.378 . S
C1687 C1686 1.367 . S
C1687 C1695 1.433 . S
C1688 H1684 0.929 . S
C1688 C1690 1.378 . S
C1688 C1692 1.334 1_565 S
C1689 C1692 1.508 . S
C1689 C1694 1.350 . S
C1689 N1697 1.427 . S
C1690 H1681 0.930 . S
C1690 C1688 1.378 . S
C1690 C1691 1.367 . S
C1691 C1690 1.367 . S
C1691 C1693 1.433 . S
C1692 C1688 1.334 1_545 S
C1692 C1689 1.508 . S
C1692 N1696 1.401 1_545 S
C1693 H1683 0.929 . S
C1693 C1691 1.433 . S
C1693 N1696 1.384 . S
C1694 H1685 0.929 . S
C1694 C1686 1.378 . S
C1694 C1689 1.350 . S
C1695 H1682 0.929 . S
C1695 C1687 1.433 . S
C1695 N1697 1.384 . S
N1696 C1692 1.401 1_565 S
N1696 C1693 1.384 . S
N1697 C1689 1.427 . S
N1697 C1695 1.384 . S
H1698 C1704 0.930 . S
H1699 C1708 0.930 . S
H1700 C1713 0.929 . S
H1701 C1711 0.929 . S
H1702 C1706 0.929 . S
H1703 C1712 0.929 . S
C1704 H1698 0.930 . S
C1704 C1705 1.367 . S
C1704 C1712 1.378 . S
C1705 C1704 1.367 . S
C1705 C1713 1.433 . S
C1706 H1702 0.929 . S
C1706 C1708 1.378 . S
C1706 C1710 1.350 . S
C1707 C1710 1.463 . S
C1707 C1712 1.350 . S
C1707 N1715 1.427 . S
C1708 H1699 0.930 . S
C1708 C1706 1.378 . S
C1708 C1709 1.367 . S
C1709 C1708 1.367 . S
C1709 C1711 1.433 . S
C1710 C1706 1.350 . S
C1710 C1707 1.463 . S
C1710 N1714 1.427 . S
C1711 H1701 0.929 . S
C1711 C1709 1.433 . S
C1711 N1714 1.384 . S
C1712 H1703 0.929 . S
C1712 C1704 1.378 . S
C1712 C1707 1.350 . S
C1713 H1700 0.929 . S
C1713 C1705 1.433 . S
C1713 N1715 1.384 . S
N1714 C1710 1.427 . S
N1714 C1711 1.384 . S
N1715 C1707 1.427 . S
N1715 C1713 1.384 . S
H1716 C1722 0.930 . S
H1717 C1726 0.930 . S
H1718 C1731 0.929 . S
H1719 C1729 0.929 . S
H1720 C1724 0.929 . S
H1721 C1730 0.929 . S
C1722 H1716 0.930 . S
C1722 C1723 1.367 . S
C1722 C1730 1.378 . S
C1723 C1722 1.367 . S
C1723 C1731 1.433 . S
C1724 H1720 0.929 . S
C1724 C1726 1.378 . S
C1724 C1728 1.350 . S
C1725 C1728 1.463 1_545 S
C1725 C1730 1.350 . S
C1725 N1733 1.427 . S
C1726 H1717 0.930 . S
C1726 C1724 1.378 . S
C1726 C1727 1.367 . S
C1727 C1726 1.367 . S
C1727 C1729 1.433 . S
C1728 C1724 1.350 . S
C1728 C1725 1.463 1_565 S
C1728 N1732 1.427 . S
C1729 H1719 0.929 . S
C1729 C1727 1.433 . S
C1729 N1732 1.384 . S
C1730 H1721 0.929 . S
C1730 C1722 1.378 . S
C1730 C1725 1.350 . S
C1731 H1718 0.929 . S
C1731 C1723 1.433 . S
C1731 N1733 1.384 . S
N1732 C1728 1.427 . S
N1732 C1729 1.384 . S
N1733 C1725 1.427 . S
N1733 C1731 1.384 . S
H1734 C1740 0.930 . S
H1735 C1744 0.930 . S
H1736 C1749 0.929 . S
H1737 C1747 0.929 . S
H1738 C1742 0.929 . S
H1739 C1748 0.929 . S
C1740 H1734 0.930 . S
C1740 C1741 1.367 . S
C1740 C1748 1.378 . S
C1741 C1740 1.367 . S
C1741 C1749 1.433 . S
C1742 H1738 0.929 . S
C1742 C1744 1.378 . S
C1742 C1746 1.350 . S
C1743 C1746 1.463 . S
C1743 C1748 1.350 . S
C1743 N1751 1.427 . S
C1744 H1735 0.930 . S
C1744 C1742 1.378 . S
C1744 C1745 1.367 . S
C1745 C1744 1.367 . S
C1745 C1747 1.433 . S
C1746 C1742 1.350 . S
C1746 C1743 1.463 . S
C1746 N1750 1.427 . S
C1747 H1737 0.929 . S
C1747 C1745 1.433 . S
C1747 N1750 1.384 . S
C1748 H1739 0.929 . S
C1748 C1740 1.378 . S
C1748 C1743 1.350 . S
C1749 H1736 0.929 . S
C1749 C1741 1.433 . S
C1749 N1751 1.384 . S
N1750 C1746 1.427 . S
N1750 C1747 1.384 . S
N1751 C1743 1.427 . S
N1751 C1749 1.384 . S
H1752 C1758 0.930 . S
H1753 C1762 0.930 . S
H1754 C1767 0.929 . S
H1755 C1765 0.929 . S
H1756 C1760 0.929 . S
H1757 C1766 0.929 . S
C1758 H1752 0.930 . S
C1758 C1759 1.367 . S
C1758 C1766 1.378 . S
C1759 C1758 1.367 . S
C1759 C1767 1.433 . S
C1760 H1756 0.929 . S
C1760 C1762 1.378 . S
C1760 C1764 1.350 . S
C1761 C1764 1.463 1_545 S
C1761 C1766 1.350 . S
C1761 N1769 1.427 . S
C1762 H1753 0.930 . S
C1762 C1760 1.378 . S
C1762 C1763 1.367 . S
C1763 C1762 1.367 . S
C1763 C1765 1.433 . S
C1764 C1760 1.350 . S
C1764 C1761 1.463 1_565 S
C1764 N1768 1.427 . S
C1765 H1755 0.929 . S
C1765 C1763 1.433 . S
C1765 N1768 1.384 . S
C1766 H1757 0.929 . S
C1766 C1758 1.378 . S
C1766 C1761 1.350 . S
C1767 H1754 0.929 . S
C1767 C1759 1.433 . S
C1767 N1769 1.384 . S
N1768 C1764 1.427 . S
N1768 C1765 1.384 . S
N1769 C1761 1.427 . S
N1769 C1767 1.384 . S
H1770 C1776 0.930 . S
H1771 C1780 0.930 . S
H1772 C1785 0.929 . S
H1773 C1783 0.929 . S
H1774 C1778 0.929 . S
H1775 C1784 0.929 . S
C1776 H1770 0.930 . S
C1776 C1777 1.367 . S
C1776 C1784 1.378 . S
C1777 C1776 1.367 . S
C1777 C1785 1.433 . S
C1778 H1774 0.929 . S
C1778 C1780 1.378 . S
C1778 C1782 1.350 . S
C1779 C1782 1.463 . S
C1779 C1784 1.350 . S
C1779 N1787 1.427 . S
C1780 H1771 0.930 . S
C1780 C1778 1.378 . S
C1780 C1781 1.367 . S
C1781 C1780 1.367 . S
C1781 C1783 1.433 . S
C1782 C1778 1.350 . S
C1782 C1779 1.463 . S
C1782 N1786 1.427 . S
C1783 H1773 0.929 . S
C1783 C1781 1.433 . S
C1783 N1786 1.384 . S
C1784 H1775 0.929 . S
C1784 C1776 1.378 . S
C1784 C1779 1.350 . S
C1785 H1772 0.929 . S
C1785 C1777 1.433 . S
C1785 N1787 1.384 . S
N1786 C1782 1.427 . S
N1786 C1783 1.384 . S
N1787 C1779 1.427 . S
N1787 C1785 1.384 . S
H1788 C1794 0.930 . S
H1789 C1798 0.930 . S
H1790 C1803 0.929 . S
H1791 C1801 0.929 . S
H1792 C1796 0.929 . S
H1793 C1802 0.929 1_565 S
C1794 H1788 0.930 . S
C1794 C1795 1.367 . S
C1794 C1802 1.378 . S
C1795 C1794 1.367 . S
C1795 C1803 1.433 . S
C1796 H1792 0.929 . S
C1796 C1798 1.378 . S
C1796 C1800 1.350 . S
C1797 C1800 1.463 . S
C1797 C1802 1.350 1_565 S
C1797 N1805 1.427 1_565 S
C1798 H1789 0.930 . S
C1798 C1796 1.378 . S
C1798 C1799 1.367 . S
C1799 C1798 1.367 . S
C1799 C1801 1.433 . S
C1800 C1796 1.350 . S
C1800 C1797 1.463 . S
C1800 N1804 1.427 . S
C1801 H1791 0.929 . S
C1801 C1799 1.433 . S
C1801 N1804 1.384 . S
C1802 H1793 0.929 1_545 S
C1802 C1794 1.378 . S
C1802 C1797 1.350 1_545 S
C1803 H1790 0.929 . S
C1803 C1795 1.433 . S
C1803 N1805 1.384 . S
N1804 C1800 1.427 . S
N1804 C1801 1.384 . S
N1805 C1797 1.427 1_545 S
N1805 C1803 1.384 . S
H1806 C1812 0.930 . S
H1807 C1816 0.930 . S
H1808 C1821 0.929 . S
H1809 C1819 0.929 . S
H1810 C1814 0.929 . S
H1811 C1820 0.929 . S
C1812 H1806 0.930 . S
C1812 C1813 1.367 . S
C1812 C1820 1.378 . S
C1813 C1812 1.367 . S
C1813 C1821 1.433 . S
C1814 H1810 0.929 . S
C1814 C1816 1.378 . S
C1814 C1818 1.350 . S
C1815 C1818 1.463 . S
C1815 C1820 1.350 . S
C1815 N1823 1.427 . S
C1816 H1807 0.930 . S
C1816 C1814 1.378 . S
C1816 C1817 1.367 . S
C1817 C1816 1.367 . S
C1817 C1819 1.433 . S
C1818 C1814 1.350 . S
C1818 C1815 1.463 . S
C1818 N1822 1.427 . S
C1819 H1809 0.929 . S
C1819 C1817 1.433 . S
C1819 N1822 1.384 . S
C1820 H1811 0.929 . S
C1820 C1812 1.378 . S
C1820 C1815 1.350 . S
C1821 H1808 0.929 . S
C1821 C1813 1.433 . S
C1821 N1823 1.384 . S
N1822 C1818 1.427 . S
N1822 C1819 1.384 . S
N1823 C1815 1.427 . S
N1823 C1821 1.384 . S
H1824 C1830 0.930 . S
H1825 C1834 0.930 . S
H1826 C1839 0.929 . S
H1827 C1837 0.929 . S
H1828 C1832 0.929 . S
H1829 C1838 0.929 . S
C1830 H1824 0.930 . S
C1830 C1831 1.367 . S
C1830 C1838 1.378 . S
C1831 C1830 1.367 . S
C1831 C1839 1.433 . S
C1832 H1828 0.929 . S
C1832 C1834 1.378 . S
C1832 C1836 1.350 . S
C1833 C1836 1.463 1_556 S
C1833 C1838 1.350 . S
C1833 N1841 1.427 . S
C1834 H1825 0.930 . S
C1834 C1832 1.378 . S
C1834 C1835 1.367 . S
C1835 C1834 1.367 . S
C1835 C1837 1.433 . S
C1836 C1832 1.350 . S
C1836 C1833 1.463 1_554 S
C1836 N1840 1.427 . S
C1837 H1827 0.929 . S
C1837 C1835 1.433 . S
C1837 N1840 1.384 . S
C1838 H1829 0.929 . S
C1838 C1830 1.378 . S
C1838 C1833 1.350 . S
C1839 H1826 0.929 . S
C1839 C1831 1.433 . S
C1839 N1841 1.384 . S
N1840 C1836 1.427 . S
N1840 C1837 1.384 . S
N1841 C1833 1.427 . S
N1841 C1839 1.384 . S
H1842 C1848 0.930 . S
H1843 C1852 0.930 . S
H1844 C1857 0.929 . S
H1845 C1855 0.929 . S
H1846 C1850 0.929 . S
H1847 C1856 0.929 . S
C1848 H1842 0.930 . S
C1848 C1849 1.367 . S
C1848 C1856 1.378 . S
C1849 C1848 1.367 . S
C1849 C1857 1.433 . S
C1850 H1846 0.929 . S
C1850 C1852 1.378 . S
C1850 C1854 1.350 . S
C1851 C1854 1.463 1_556 S
C1851 C1856 1.350 . S
C1851 N1859 1.427 . S
C1852 H1843 0.930 . S
C1852 C1850 1.378 . S
C1852 C1853 1.367 . S
C1853 C1852 1.367 . S
C1853 C1855 1.433 . S
C1854 C1850 1.350 . S
C1854 C1851 1.463 1_554 S
C1854 N1858 1.427 . S
C1855 H1845 0.929 . S
C1855 C1853 1.433 . S
C1855 N1858 1.384 . S
C1856 H1847 0.929 . S
C1856 C1848 1.378 . S
C1856 C1851 1.350 . S
C1857 H1844 0.929 . S
C1857 C1849 1.433 . S
C1857 N1859 1.384 . S
N1858 C1854 1.427 . S
N1858 C1855 1.384 . S
N1859 C1851 1.427 . S
N1859 C1857 1.384 . S
H1860 C1866 0.930 . S
H1861 C1870 0.930 . S
H1862 C1875 0.929 . S
H1863 C1873 0.929 . S
H1864 C1868 0.929 . S
H1865 C1874 0.929 . S
C1866 H1860 0.930 . S
C1866 C1867 1.367 . S
C1866 C1874 1.378 . S
C1867 C1866 1.367 . S
C1867 C1875 1.433 . S
C1868 H1864 0.929 . S
C1868 C1870 1.378 . S
C1868 C1872 1.350 . S
C1869 C1872 1.463 . S
C1869 C1874 1.350 . S
C1869 N1877 1.427 . S
C1870 H1861 0.930 . S
C1870 C1868 1.378 . S
C1870 C1871 1.367 . S
C1871 C1870 1.367 . S
C1871 C1873 1.433 . S
C1872 C1868 1.350 . S
C1872 C1869 1.463 . S
C1872 N1876 1.427 . S
C1873 H1863 0.929 . S
C1873 C1871 1.433 . S
C1873 N1876 1.384 . S
C1874 H1865 0.929 . S
C1874 C1866 1.378 . S
C1874 C1869 1.350 . S
C1875 H1862 0.929 . S
C1875 C1867 1.433 . S
C1875 N1877 1.384 . S
N1876 C1872 1.427 . S
N1876 C1873 1.384 . S
N1877 C1869 1.427 . S
N1877 C1875 1.384 . S
H1878 C1884 0.930 . S
H1879 C1888 0.930 . S
H1880 C1893 0.929 . S
H1881 C1891 0.929 . S
H1882 C1886 0.929 . S
H1883 C1892 0.929 . S
C1884 H1878 0.930 . S
C1884 C1885 1.367 . S
C1884 C1892 1.378 1_556 S
C1885 C1884 1.367 . S
C1885 C1893 1.433 . S
C1886 H1882 0.929 . S
C1886 C1888 1.378 . S
C1886 C1890 1.350 . S
C1887 C1890 1.463 . S
C1887 C1892 1.350 . S
C1887 N1895 1.427 . S
C1888 H1879 0.930 . S
C1888 C1886 1.378 . S
C1888 C1889 1.367 . S
C1889 C1888 1.367 . S
C1889 C1891 1.433 . S
C1890 C1886 1.350 . S
C1890 C1887 1.463 . S
C1890 N1894 1.427 . S
C1891 H1881 0.929 . S
C1891 C1889 1.433 . S
C1891 N1894 1.384 . S
C1892 H1883 0.929 . S
C1892 C1884 1.378 1_554 S
C1892 C1887 1.350 . S
C1893 H1880 0.929 . S
C1893 C1885 1.433 . S
C1893 N1895 1.384 1_556 S
N1894 C1890 1.427 . S
N1894 C1891 1.384 . S
N1895 C1887 1.427 . S
N1895 C1893 1.384 1_554 S
H1896 C1902 0.930 . S
H1897 C1906 0.930 . S
H1898 C1911 0.929 . S
H1899 C1909 0.929 . S
H1900 C1904 0.929 . S
H1901 C1910 0.929 . S
C1902 H1896 0.930 . S
C1902 C1903 1.367 . S
C1902 C1910 1.378 . S
C1903 C1902 1.367 . S
C1903 C1911 1.433 . S
C1904 H1900 0.929 . S
C1904 C1906 1.378 . S
C1904 C1908 1.350 . S
C1905 C1908 1.463 . S
C1905 C1910 1.350 . S
C1905 N1913 1.427 . S
C1906 H1897 0.930 . S
C1906 C1904 1.378 . S
C1906 C1907 1.367 . S
C1907 C1906 1.367 . S
C1907 C1909 1.433 . S
C1908 C1904 1.350 . S
C1908 C1905 1.463 . S
C1908 N1912 1.427 . S
C1909 H1899 0.929 . S
C1909 C1907 1.433 . S
C1909 N1912 1.384 . S
C1910 H1901 0.929 . S
C1910 C1902 1.378 . S
C1910 C1905 1.350 . S
C1911 H1898 0.929 . S
C1911 C1903 1.433 . S
C1911 N1913 1.384 . S
N1912 C1908 1.427 . S
N1912 C1909 1.384 . S
N1913 C1905 1.427 . S
N1913 C1911 1.384 . S
H1914 C1920 0.930 . S
H1915 C1924 0.930 . S
H1916 C1929 0.929 . S
H1917 C1927 0.929 . S
H1918 C1922 0.929 . S
H1919 C1928 0.929 . S
C1920 H1914 0.930 . S
C1920 C1921 1.367 . S
C1920 C1928 1.378 . S
C1921 C1920 1.367 . S
C1921 C1929 1.433 . S
C1922 H1918 0.929 . S
C1922 C1924 1.378 . S
C1922 C1926 1.350 . S
C1923 C1926 1.463 1_556 S
C1923 C1928 1.350 . S
C1923 N1931 1.427 . S
C1924 H1915 0.930 . S
C1924 C1922 1.378 . S
C1924 C1925 1.367 . S
C1925 C1924 1.367 . S
C1925 C1927 1.433 . S
C1926 C1922 1.350 . S
C1926 C1923 1.463 1_554 S
C1926 N1930 1.427 . S
C1927 H1917 0.929 . S
C1927 C1925 1.433 . S
C1927 N1930 1.384 . S
C1928 H1919 0.929 . S
C1928 C1920 1.378 . S
C1928 C1923 1.350 . S
C1929 H1916 0.929 . S
C1929 C1921 1.433 . S
C1929 N1931 1.384 . S
N1930 C1926 1.427 . S
N1930 C1927 1.384 . S
N1931 C1923 1.427 . S
N1931 C1929 1.384 . S
H1932 C1938 0.930 . S
H1933 C1942 0.930 . S
H1934 C1947 0.929 . S
H1935 C1945 0.929 . S
H1936 C1940 0.929 . S
H1937 C1946 0.929 . S
C1938 H1932 0.930 . S
C1938 C1939 1.367 . S
C1938 C1946 1.378 . S
C1939 C1938 1.367 . S
C1939 C1947 1.433 . S
C1940 H1936 0.929 . S
C1940 C1942 1.378 . S
C1940 C1944 1.350 . S
C1941 C1944 1.463 . S
C1941 C1946 1.350 . S
C1941 N1949 1.427 . S
C1942 H1933 0.930 . S
C1942 C1940 1.378 . S
C1942 C1943 1.367 . S
C1943 C1942 1.367 . S
C1943 C1945 1.433 . S
C1944 C1940 1.350 . S
C1944 C1941 1.463 . S
C1944 N1948 1.427 . S
C1945 H1935 0.929 . S
C1945 C1943 1.433 . S
C1945 N1948 1.384 . S
C1946 H1937 0.929 . S
C1946 C1938 1.378 . S
C1946 C1941 1.350 . S
C1947 H1934 0.929 . S
C1947 C1939 1.433 . S
C1947 N1949 1.384 . S
N1948 C1944 1.427 . S
N1948 C1945 1.384 . S
N1949 C1941 1.427 . S
N1949 C1947 1.384 . S
H1950 C1956 0.930 . S
H1951 C1960 0.930 . S
H1952 C1965 0.929 . S
H1953 C1963 0.929 . S
H1954 C1958 0.929 . S
H1955 C1964 0.929 . S
C1956 H1950 0.930 . S
C1956 C1957 1.367 . S
C1956 C1964 1.378 . S
C1957 C1956 1.367 . S
C1957 C1965 1.433 . S
C1958 H1954 0.929 . S
C1958 C1960 1.378 . S
C1958 C1962 1.350 . S
C1959 C1962 1.463 . S
C1959 C1964 1.350 . S
C1959 N1967 1.427 . S
C1960 H1951 0.930 . S
C1960 C1958 1.378 . S
C1960 C1961 1.367 . S
C1961 C1960 1.367 . S
C1961 C1963 1.433 . S
C1962 C1958 1.350 . S
C1962 C1959 1.463 . S
C1962 N1966 1.427 . S
C1963 H1953 0.929 . S
C1963 C1961 1.433 . S
C1963 N1966 1.384 . S
C1964 H1955 0.929 . S
C1964 C1956 1.378 . S
C1964 C1959 1.350 . S
C1965 H1952 0.929 . S
C1965 C1957 1.433 . S
C1965 N1967 1.384 . S
N1966 C1962 1.427 . S
N1966 C1963 1.384 . S
N1967 C1959 1.427 . S
N1967 C1965 1.384 . S
H1968 C1974 0.930 . S
H1969 C1978 0.930 . S
H1970 C1983 0.929 . S
H1971 C1981 0.929 . S
H1972 C1976 0.929 . S
H1973 C1982 0.929 . S
C1974 H1968 0.930 . S
C1974 C1975 1.367 . S
C1974 C1982 1.378 . S
C1975 C1974 1.367 . S
C1975 C1983 1.433 . S
C1976 H1972 0.929 . S
C1976 C1978 1.378 . S
C1976 C1980 1.350 . S
C1977 C1980 1.463 . S
C1977 C1982 1.350 . S
C1977 N1985 1.427 . S
C1978 H1969 0.930 . S
C1978 C1976 1.378 . S
C1978 C1979 1.367 . S
C1979 C1978 1.367 . S
C1979 C1981 1.433 . S
C1980 C1976 1.350 . S
C1980 C1977 1.463 . S
C1980 N1984 1.427 . S
C1981 H1971 0.929 . S
C1981 C1979 1.433 . S
C1981 N1984 1.384 . S
C1982 H1973 0.929 . S
C1982 C1974 1.378 . S
C1982 C1977 1.350 . S
C1983 H1970 0.929 . S
C1983 C1975 1.433 . S
C1983 N1985 1.384 . S
N1984 C1980 1.427 . S
N1984 C1981 1.384 . S
N1985 C1977 1.427 . S
N1985 C1983 1.384 . S
H1986 C1992 0.930 . S
H1987 C1996 0.930 . S
H1988 C2001 0.929 . S
H1989 C1999 0.929 . S
H1990 C1994 0.929 . S
H1991 C2000 0.929 . S
C1992 H1986 0.930 . S
C1992 C1993 1.367 . S
C1992 C2000 1.378 . S
C1993 C1992 1.367 . S
C1993 C2001 1.433 . S
C1994 H1990 0.929 . S
C1994 C1996 1.378 . S
C1994 C1998 1.350 . S
C1995 C1998 1.463 . S
C1995 C2000 1.350 . S
C1995 N2003 1.427 . S
C1996 H1987 0.930 . S
C1996 C1994 1.378 . S
C1996 C1997 1.367 . S
C1997 C1996 1.367 . S
C1997 C1999 1.433 . S
C1998 C1994 1.350 . S
C1998 C1995 1.463 . S
C1998 N2002 1.427 . S
C1999 H1989 0.929 . S
C1999 C1997 1.433 . S
C1999 N2002 1.384 . S
C2000 H1991 0.929 . S
C2000 C1992 1.378 . S
C2000 C1995 1.350 . S
C2001 H1988 0.929 . S
C2001 C1993 1.433 . S
C2001 N2003 1.384 . S
N2002 C1998 1.427 . S
N2002 C1999 1.384 . S
N2003 C1995 1.427 . S
N2003 C2001 1.384 . S
H2004 C2010 0.930 . S
H2005 C2014 0.930 . S
H2006 C2019 0.929 . S
H2007 C2017 0.929 . S
H2008 C2012 0.929 . S
H2009 C2018 0.929 . S
C2010 H2004 0.930 . S
C2010 C2011 1.367 . S
C2010 C2018 1.378 . S
C2011 C2010 1.367 . S
C2011 C2019 1.433 . S
C2012 H2008 0.929 . S
C2012 C2014 1.378 . S
C2012 C2016 1.350 . S
C2013 C2016 1.463 . S
C2013 C2018 1.350 . S
C2013 N2021 1.427 . S
C2014 H2005 0.930 . S
C2014 C2012 1.378 . S
C2014 C2015 1.367 . S
C2015 C2014 1.367 . S
C2015 C2017 1.433 . S
C2016 C2012 1.350 . S
C2016 C2013 1.463 . S
C2016 N2020 1.427 . S
C2017 H2007 0.929 . S
C2017 C2015 1.433 . S
C2017 N2020 1.384 . S
C2018 H2009 0.929 . S
C2018 C2010 1.378 . S
C2018 C2013 1.350 . S
C2019 H2006 0.929 . S
C2019 C2011 1.433 . S
C2019 N2021 1.384 . S
N2020 C2016 1.427 . S
N2020 C2017 1.384 . S
N2021 C2013 1.427 . S
N2021 C2019 1.384 . S
H2022 C2028 0.930 . S
H2023 C2032 0.930 . S
H2024 C2037 0.929 . S
H2025 C2035 0.929 . S
H2026 C2030 0.929 . S
H2027 C2036 0.929 . S
C2028 H2022 0.930 . S
C2028 C2029 1.367 . S
C2028 C2036 1.378 . S
C2029 C2028 1.367 . S
C2029 C2037 1.433 . S
C2030 H2026 0.929 . S
C2030 C2032 1.378 . S
C2030 C2034 1.350 . S
C2031 C2034 1.463 . S
C2031 C2036 1.350 . S
C2031 N2039 1.427 . S
C2032 H2023 0.930 . S
C2032 C2030 1.378 . S
C2032 C2033 1.367 . S
C2033 C2032 1.367 . S
C2033 C2035 1.433 . S
C2034 C2030 1.350 . S
C2034 C2031 1.463 . S
C2034 N2038 1.427 . S
C2035 H2025 0.929 . S
C2035 C2033 1.433 . S
C2035 N2038 1.384 . S
C2036 H2027 0.929 . S
C2036 C2028 1.378 . S
C2036 C2031 1.350 . S
C2037 H2024 0.929 . S
C2037 C2029 1.433 . S
C2037 N2039 1.384 . S
N2038 C2034 1.427 . S
N2038 C2035 1.384 . S
N2039 C2031 1.427 . S
N2039 C2037 1.384 . S
H2040 C2046 0.930 . S
H2041 C2050 0.930 . S
H2042 C2055 0.929 . S
H2043 C2053 0.929 . S
H2044 C2048 0.929 . S
H2045 C2054 0.929 . S
C2046 H2040 0.930 . S
C2046 C2047 1.367 . S
C2046 C2054 1.378 . S
C2047 C2046 1.367 . S
C2047 C2055 1.433 . S
C2048 H2044 0.929 . S
C2048 C2050 1.378 . S
C2048 C2052 1.350 . S
C2049 C2052 1.463 . S
C2049 C2054 1.350 . S
C2049 N2057 1.427 . S
C2050 H2041 0.930 . S
C2050 C2048 1.378 . S
C2050 C2051 1.367 . S
C2051 C2050 1.367 . S
C2051 C2053 1.433 . S
C2052 C2048 1.350 . S
C2052 C2049 1.463 . S
C2052 N2056 1.427 . S
C2053 H2043 0.929 . S
C2053 C2051 1.433 . S
C2053 N2056 1.384 . S
C2054 H2045 0.929 . S
C2054 C2046 1.378 . S
C2054 C2049 1.350 . S
C2055 H2042 0.929 . S
C2055 C2047 1.433 . S
C2055 N2057 1.384 . S
N2056 C2052 1.427 . S
N2056 C2053 1.384 . S
N2057 C2049 1.427 . S
N2057 C2055 1.384 . S
H2058 C2064 0.930 . S
H2059 C2068 0.930 . S
H2060 C2073 0.929 . S
H2061 C2071 0.929 . S
H2062 C2066 0.929 . S
H2063 C2072 0.929 . S
C2064 H2058 0.930 . S
C2064 C2065 1.367 . S
C2064 C2072 1.378 . S
C2065 C2064 1.367 . S
C2065 C2073 1.433 . S
C2066 H2062 0.929 . S
C2066 C2068 1.378 . S
C2066 C2070 1.350 . S
C2067 C2070 1.463 . S
C2067 C2072 1.350 . S
C2067 N2075 1.427 . S
C2068 H2059 0.930 . S
C2068 C2066 1.378 . S
C2068 C2069 1.367 . S
C2069 C2068 1.367 . S
C2069 C2071 1.433 . S
C2070 C2066 1.350 . S
C2070 C2067 1.463 . S
C2070 N2074 1.427 . S
C2071 H2061 0.929 . S
C2071 C2069 1.433 . S
C2071 N2074 1.384 . S
C2072 H2063 0.929 . S
C2072 C2064 1.378 . S
C2072 C2067 1.350 . S
C2073 H2060 0.929 . S
C2073 C2065 1.433 . S
C2073 N2075 1.384 . S
N2074 C2070 1.427 . S
N2074 C2071 1.384 . S
N2075 C2067 1.427 . S
N2075 C2073 1.384 . S
H2076 C2082 0.930 . S
H2077 C2086 0.930 . S
H2078 C2091 0.929 . S
H2079 C2089 0.929 . S
H2080 C2084 0.929 . S
H2081 C2090 0.929 . S
C2082 H2076 0.930 . S
C2082 C2083 1.367 . S
C2082 C2090 1.378 . S
C2083 C2082 1.367 . S
C2083 C2091 1.433 . S
C2084 H2080 0.929 . S
C2084 C2086 1.378 . S
C2084 C2088 1.350 . S
C2085 C2088 1.463 . S
C2085 C2090 1.350 . S
C2085 N2093 1.427 . S
C2086 H2077 0.930 . S
C2086 C2084 1.378 . S
C2086 C2087 1.367 . S
C2087 C2086 1.367 . S
C2087 C2089 1.433 . S
C2088 C2084 1.350 . S
C2088 C2085 1.463 . S
C2088 N2092 1.427 . S
C2089 H2079 0.929 . S
C2089 C2087 1.433 . S
C2089 N2092 1.384 . S
C2090 H2081 0.929 . S
C2090 C2082 1.378 . S
C2090 C2085 1.350 . S
C2091 H2078 0.929 . S
C2091 C2083 1.433 . S
C2091 N2093 1.384 . S
N2092 C2088 1.427 . S
N2092 C2089 1.384 . S
N2093 C2085 1.427 . S
N2093 C2091 1.384 . S
H2094 C2100 0.930 . S
H2095 C2104 0.930 . S
H2096 C2109 0.929 . S
H2097 C2107 0.929 . S
H2098 C2102 0.929 . S
H2099 C2108 0.929 . S
C2100 H2094 0.930 . S
C2100 C2101 1.367 . S
C2100 C2108 1.378 . S
C2101 C2100 1.367 . S
C2101 C2109 1.433 . S
C2102 H2098 0.929 . S
C2102 C2104 1.378 . S
C2102 C2106 1.350 . S
C2103 C2106 1.463 . S
C2103 C2108 1.350 . S
C2103 N2111 1.427 . S
C2104 H2095 0.930 . S
C2104 C2102 1.378 . S
C2104 C2105 1.367 . S
C2105 C2104 1.367 . S
C2105 C2107 1.433 . S
C2106 C2102 1.350 . S
C2106 C2103 1.463 . S
C2106 N2110 1.427 . S
C2107 H2097 0.929 . S
C2107 C2105 1.433 . S
C2107 N2110 1.384 . S
C2108 H2099 0.929 . S
C2108 C2100 1.378 . S
C2108 C2103 1.350 . S
C2109 H2096 0.929 . S
C2109 C2101 1.433 . S
C2109 N2111 1.384 . S
N2110 C2106 1.427 . S
N2110 C2107 1.384 . S
N2111 C2103 1.427 . S
N2111 C2109 1.384 . S
H2112 C2118 0.930 . S
H2113 C2122 0.930 . S
H2114 C2127 0.929 . S
H2115 C2125 0.929 . S
H2116 C2120 0.929 . S
H2117 C2126 0.929 . S
C2118 H2112 0.930 . S
C2118 C2119 1.367 . S
C2118 C2126 1.378 . S
C2119 C2118 1.367 . S
C2119 C2127 1.433 . S
C2120 H2116 0.929 . S
C2120 C2122 1.378 . S
C2120 C2124 1.350 . S
C2121 C2124 1.463 . S
C2121 C2126 1.350 . S
C2121 N2129 1.427 . S
C2122 H2113 0.930 . S
C2122 C2120 1.378 . S
C2122 C2123 1.367 . S
C2123 C2122 1.367 . S
C2123 C2125 1.433 . S
C2124 C2120 1.350 . S
C2124 C2121 1.463 . S
C2124 N2128 1.427 . S
C2125 H2115 0.929 . S
C2125 C2123 1.433 . S
C2125 N2128 1.384 . S
C2126 H2117 0.929 . S
C2126 C2118 1.378 . S
C2126 C2121 1.350 . S
C2127 H2114 0.929 . S
C2127 C2119 1.433 . S
C2127 N2129 1.384 . S
N2128 C2124 1.427 . S
N2128 C2125 1.384 . S
N2129 C2121 1.427 . S
N2129 C2127 1.384 . S
H2130 C2136 0.930 . S
H2131 C2140 0.930 . S
H2132 C2145 0.929 . S
H2133 C2143 0.929 . S
H2134 C2138 0.929 . S
H2135 C2144 0.929 . S
C2136 H2130 0.930 . S
C2136 C2137 1.367 . S
C2136 C2144 1.378 . S
C2137 C2136 1.367 . S
C2137 C2145 1.433 . S
C2138 H2134 0.929 . S
C2138 C2140 1.378 . S
C2138 C2142 1.350 . S
C2139 C2142 1.463 . S
C2139 C2144 1.350 . S
C2139 N2147 1.427 . S
C2140 H2131 0.930 . S
C2140 C2138 1.378 . S
C2140 C2141 1.367 . S
C2141 C2140 1.367 . S
C2141 C2143 1.433 . S
C2142 C2138 1.350 . S
C2142 C2139 1.463 . S
C2142 N2146 1.427 . S
C2143 H2133 0.929 . S
C2143 C2141 1.433 . S
C2143 N2146 1.384 . S
C2144 H2135 0.929 . S
C2144 C2136 1.378 . S
C2144 C2139 1.350 . S
C2145 H2132 0.929 . S
C2145 C2137 1.433 . S
C2145 N2147 1.384 . S
N2146 C2142 1.427 . S
N2146 C2143 1.384 . S
N2147 C2139 1.427 . S
N2147 C2145 1.384 . S
H2148 C2154 0.930 . S
H2149 C2158 0.930 . S
H2150 C2163 0.929 . S
H2151 C2161 0.929 . S
H2152 C2156 0.929 . S
H2153 C2162 0.929 . S
C2154 H2148 0.930 . S
C2154 C2155 1.367 . S
C2154 C2162 1.378 . S
C2155 C2154 1.367 . S
C2155 C2163 1.433 . S
C2156 H2152 0.929 . S
C2156 C2158 1.378 . S
C2156 C2160 1.350 . S
C2157 C2160 1.463 . S
C2157 C2162 1.350 . S
C2157 N2165 1.427 . S
C2158 H2149 0.930 . S
C2158 C2156 1.378 . S
C2158 C2159 1.367 . S
C2159 C2158 1.367 . S
C2159 C2161 1.433 . S
C2160 C2156 1.350 . S
C2160 C2157 1.463 . S
C2160 N2164 1.427 . S
C2161 H2151 0.929 . S
C2161 C2159 1.433 . S
C2161 N2164 1.384 . S
C2162 H2153 0.929 . S
C2162 C2154 1.378 . S
C2162 C2157 1.350 . S
C2163 H2150 0.929 . S
C2163 C2155 1.433 . S
C2163 N2165 1.384 . S
N2164 C2160 1.427 . S
N2164 C2161 1.384 . S
N2165 C2157 1.427 . S
N2165 C2163 1.384 . S
H2166 C2172 0.930 . S
H2167 C2176 0.930 . S
H2168 C2181 0.929 . S
H2169 C2179 0.929 . S
H2170 C2174 0.929 . S
H2171 C2180 0.929 . S
C2172 H2166 0.930 . S
C2172 C2173 1.367 . S
C2172 C2180 1.378 . S
C2173 C2172 1.367 . S
C2173 C2181 1.433 . S
C2174 H2170 0.929 . S
C2174 C2176 1.378 . S
C2174 C2178 1.350 . S
C2175 C2178 1.463 . S
C2175 C2180 1.350 . S
C2175 N2183 1.427 . S
C2176 H2167 0.930 . S
C2176 C2174 1.378 . S
C2176 C2177 1.367 . S
C2177 C2176 1.367 . S
C2177 C2179 1.433 . S
C2178 C2174 1.350 . S
C2178 C2175 1.463 . S
C2178 N2182 1.427 . S
C2179 H2169 0.929 . S
C2179 C2177 1.433 . S
C2179 N2182 1.384 . S
C2180 H2171 0.929 . S
C2180 C2172 1.378 . S
C2180 C2175 1.350 . S
C2181 H2168 0.929 . S
C2181 C2173 1.433 . S
C2181 N2183 1.384 . S
N2182 C2178 1.427 . S
N2182 C2179 1.384 . S
N2183 C2175 1.427 . S
N2183 C2181 1.384 . S
H2184 C2190 0.930 . S
H2185 C2194 0.930 . S
H2186 C2199 0.929 . S
H2187 C2197 0.929 . S
H2188 C2192 0.929 . S
H2189 C2198 0.929 . S
C2190 H2184 0.930 . S
C2190 C2191 1.367 . S
C2190 C2198 1.378 . S
C2191 C2190 1.367 . S
C2191 C2199 1.433 . S
C2192 H2188 0.929 . S
C2192 C2194 1.378 . S
C2192 C2196 1.350 . S
C2193 C2196 1.463 . S
C2193 C2198 1.350 . S
C2193 N2201 1.427 . S
C2194 H2185 0.930 . S
C2194 C2192 1.378 . S
C2194 C2195 1.367 . S
C2195 C2194 1.367 . S
C2195 C2197 1.433 . S
C2196 C2192 1.350 . S
C2196 C2193 1.463 . S
C2196 N2200 1.427 . S
C2197 H2187 0.929 . S
C2197 C2195 1.433 . S
C2197 N2200 1.384 . S
C2198 H2189 0.929 . S
C2198 C2190 1.378 . S
C2198 C2193 1.350 . S
C2199 H2186 0.929 . S
C2199 C2191 1.433 . S
C2199 N2201 1.384 . S
N2200 C2196 1.427 . S
N2200 C2197 1.384 . S
N2201 C2193 1.427 . S
N2201 C2199 1.384 . S
H2202 C2208 0.930 . S
H2203 C2212 0.930 . S
H2204 C2217 0.929 . S
H2205 C2215 0.929 . S
H2206 C2210 0.929 . S
H2207 C2216 0.929 . S
C2208 H2202 0.930 . S
C2208 C2209 1.367 . S
C2208 C2216 1.378 . S
C2209 C2208 1.367 . S
C2209 C2217 1.433 . S
C2210 H2206 0.929 . S
C2210 C2212 1.378 . S
C2210 C2214 1.350 . S
C2211 C2214 1.463 . S
C2211 C2216 1.350 . S
C2211 N2219 1.427 . S
C2212 H2203 0.930 . S
C2212 C2210 1.378 . S
C2212 C2213 1.367 . S
C2213 C2212 1.367 . S
C2213 C2215 1.433 . S
C2214 C2210 1.350 . S
C2214 C2211 1.463 . S
C2214 N2218 1.427 . S
C2215 H2205 0.929 . S
C2215 C2213 1.433 . S
C2215 N2218 1.384 . S
C2216 H2207 0.929 . S
C2216 C2208 1.378 . S
C2216 C2211 1.350 . S
C2217 H2204 0.929 . S
C2217 C2209 1.433 . S
C2217 N2219 1.384 . S
N2218 C2214 1.427 . S
N2218 C2215 1.384 . S
N2219 C2211 1.427 . S
N2219 C2217 1.384 . S
H2220 C2226 0.930 . S
H2221 C2230 0.930 . S
H2222 C2235 0.929 . S
H2223 C2233 0.929 . S
H2224 C2228 0.929 . S
H2225 C2234 0.929 . S
C2226 H2220 0.930 . S
C2226 C2227 1.367 . S
C2226 C2234 1.378 . S
C2227 C2226 1.367 . S
C2227 C2235 1.433 . S
C2228 H2224 0.929 . S
C2228 C2230 1.378 . S
C2228 C2232 1.350 . S
C2229 C2232 1.463 . S
C2229 C2234 1.350 . S
C2229 N2237 1.427 . S
C2230 H2221 0.930 . S
C2230 C2228 1.378 . S
C2230 C2231 1.367 . S
C2231 C2230 1.367 . S
C2231 C2233 1.433 . S
C2232 C2228 1.350 . S
C2232 C2229 1.463 . S
C2232 N2236 1.427 . S
C2233 H2223 0.929 . S
C2233 C2231 1.433 . S
C2233 N2236 1.384 . S
C2234 H2225 0.929 . S
C2234 C2226 1.378 . S
C2234 C2229 1.350 . S
C2235 H2222 0.929 . S
C2235 C2227 1.433 . S
C2235 N2237 1.384 . S
N2236 C2232 1.427 . S
N2236 C2233 1.384 . S
N2237 C2229 1.427 . S
N2237 C2235 1.384 . S
H2238 C2244 0.930 . S
H2239 C2248 0.930 . S
H2240 C2253 0.929 . S
H2241 C2251 0.929 . S
H2242 C2246 0.929 . S
H2243 C2252 0.929 . S
C2244 H2238 0.930 . S
C2244 C2245 1.367 . S
C2244 C2252 1.378 . S
C2245 C2244 1.367 . S
C2245 C2253 1.433 . S
C2246 H2242 0.929 . S
C2246 C2248 1.378 . S
C2246 C2250 1.350 . S
C2247 C2250 1.463 . S
C2247 C2252 1.350 . S
C2247 N2255 1.427 . S
C2248 H2239 0.930 . S
C2248 C2246 1.378 . S
C2248 C2249 1.367 . S
C2249 C2248 1.367 . S
C2249 C2251 1.433 . S
C2250 C2246 1.350 . S
C2250 C2247 1.463 . S
C2250 N2254 1.427 . S
C2251 H2241 0.929 . S
C2251 C2249 1.433 . S
C2251 N2254 1.384 . S
C2252 H2243 0.929 . S
C2252 C2244 1.378 . S
C2252 C2247 1.350 . S
C2253 H2240 0.929 . S
C2253 C2245 1.433 . S
C2253 N2255 1.384 . S
N2254 C2250 1.427 . S
N2254 C2251 1.384 . S
N2255 C2247 1.427 . S
N2255 C2253 1.384 . S
H2256 C2262 0.930 . S
H2257 C2266 0.930 . S
H2258 C2271 0.929 . S
H2259 C2269 0.929 . S
H2260 C2264 0.929 . S
H2261 C2270 0.929 . S
C2262 H2256 0.930 . S
C2262 C2263 1.367 . S
C2262 C2270 1.378 . S
C2263 C2262 1.367 . S
C2263 C2271 1.433 . S
C2264 H2260 0.929 . S
C2264 C2266 1.378 . S
C2264 C2268 1.350 . S
C2265 C2268 1.463 . S
C2265 C2270 1.350 . S
C2265 N2273 1.427 . S
C2266 H2257 0.930 . S
C2266 C2264 1.378 . S
C2266 C2267 1.367 . S
C2267 C2266 1.367 . S
C2267 C2269 1.433 . S
C2268 C2264 1.350 . S
C2268 C2265 1.463 . S
C2268 N2272 1.427 . S
C2269 H2259 0.929 . S
C2269 C2267 1.433 . S
C2269 N2272 1.384 . S
C2270 H2261 0.929 . S
C2270 C2262 1.378 . S
C2270 C2265 1.350 . S
C2271 H2258 0.929 . S
C2271 C2263 1.433 . S
C2271 N2273 1.384 . S
N2272 C2268 1.427 . S
N2272 C2269 1.384 . S
N2273 C2265 1.427 . S
N2273 C2271 1.384 . S
H2274 C2280 0.930 . S
H2275 C2284 0.930 . S
H2276 C2289 0.929 . S
H2277 C2287 0.929 . S
H2278 C2282 0.929 . S
H2279 C2288 0.929 . S
C2280 H2274 0.930 . S
C2280 C2281 1.367 . S
C2280 C2288 1.378 . S
C2281 C2280 1.367 . S
C2281 C2289 1.433 . S
C2282 H2278 0.929 . S
C2282 C2284 1.378 . S
C2282 C2286 1.350 . S
C2283 C2286 1.463 . S
C2283 C2288 1.350 . S
C2283 N2291 1.427 . S
C2284 H2275 0.930 . S
C2284 C2282 1.378 . S
C2284 C2285 1.367 . S
C2285 C2284 1.367 . S
C2285 C2287 1.433 . S
C2286 C2282 1.350 . S
C2286 C2283 1.463 . S
C2286 N2290 1.427 . S
C2287 H2277 0.929 . S
C2287 C2285 1.433 . S
C2287 N2290 1.384 . S
C2288 H2279 0.929 . S
C2288 C2280 1.378 . S
C2288 C2283 1.350 . S
C2289 H2276 0.929 . S
C2289 C2281 1.433 . S
C2289 N2291 1.384 . S
N2290 C2286 1.427 . S
N2290 C2287 1.384 . S
N2291 C2283 1.427 . S
N2291 C2289 1.384 . S
H2292 C2298 0.930 . S
H2293 C2302 0.930 . S
H2294 C2307 0.929 . S
H2295 C2305 0.929 . S
H2296 C2300 0.929 . S
H2297 C2306 0.929 . S
C2298 H2292 0.930 . S
C2298 C2299 1.367 . S
C2298 C2306 1.378 . S
C2299 C2298 1.367 . S
C2299 C2307 1.433 . S
C2300 H2296 0.929 . S
C2300 C2302 1.378 . S
C2300 C2304 1.350 . S
C2301 C2304 1.463 . S
C2301 C2306 1.350 . S
C2301 N2309 1.427 . S
C2302 H2293 0.930 . S
C2302 C2300 1.378 . S
C2302 C2303 1.367 . S
C2303 C2302 1.367 . S
C2303 C2305 1.433 . S
C2304 C2300 1.350 . S
C2304 C2301 1.463 . S
C2304 N2308 1.427 . S
C2305 H2295 0.929 . S
C2305 C2303 1.433 . S
C2305 N2308 1.384 . S
C2306 H2297 0.929 . S
C2306 C2298 1.378 . S
C2306 C2301 1.350 . S
C2307 H2294 0.929 . S
C2307 C2299 1.433 . S
C2307 N2309 1.384 . S
N2308 C2304 1.427 . S
N2308 C2305 1.384 . S
N2309 C2301 1.427 . S
N2309 C2307 1.384 . S
H2310 C2316 0.930 . S
H2311 C2320 0.930 . S
H2312 C2325 0.929 . S
H2313 C2323 0.929 . S
H2314 C2318 0.929 . S
H2315 C2324 0.929 . S
C2316 H2310 0.930 . S
C2316 C2317 1.367 . S
C2316 C2324 1.378 . S
C2317 C2316 1.367 . S
C2317 C2325 1.433 . S
C2318 H2314 0.929 . S
C2318 C2320 1.378 . S
C2318 C2322 1.350 . S
C2319 C2322 1.463 . S
C2319 C2324 1.350 . S
C2319 N2327 1.427 . S
C2320 H2311 0.930 . S
C2320 C2318 1.378 . S
C2320 C2321 1.367 . S
C2321 C2320 1.367 . S
C2321 C2323 1.433 . S
C2322 C2318 1.350 . S
C2322 C2319 1.463 . S
C2322 N2326 1.427 . S
C2323 H2313 0.929 . S
C2323 C2321 1.433 . S
C2323 N2326 1.384 . S
C2324 H2315 0.929 . S
C2324 C2316 1.378 . S
C2324 C2319 1.350 . S
C2325 H2312 0.929 . S
C2325 C2317 1.433 . S
C2325 N2327 1.384 . S
N2326 C2322 1.427 . S
N2326 C2323 1.384 . S
N2327 C2319 1.427 . S
N2327 C2325 1.384 . S
H2328 C2334 0.930 . S
H2329 C2338 0.930 . S
H2330 C2343 0.929 . S
H2331 C2341 0.929 . S
H2332 C2336 0.929 . S
H2333 C2342 0.929 . S
C2334 H2328 0.930 . S
C2334 C2335 1.367 . S
C2334 C2342 1.378 . S
C2335 C2334 1.367 . S
C2335 C2343 1.433 . S
C2336 H2332 0.929 . S
C2336 C2338 1.378 . S
C2336 C2340 1.350 . S
C2337 C2340 1.463 . S
C2337 C2342 1.350 . S
C2337 N2345 1.427 . S
C2338 H2329 0.930 . S
C2338 C2336 1.378 . S
C2338 C2339 1.367 . S
C2339 C2338 1.367 . S
C2339 C2341 1.433 . S
C2340 C2336 1.350 . S
C2340 C2337 1.463 . S
C2340 N2344 1.427 . S
C2341 H2331 0.929 . S
C2341 C2339 1.433 . S
C2341 N2344 1.384 . S
C2342 H2333 0.929 . S
C2342 C2334 1.378 . S
C2342 C2337 1.350 . S
C2343 H2330 0.929 . S
C2343 C2335 1.433 . S
C2343 N2345 1.384 . S
N2344 C2340 1.427 . S
N2344 C2341 1.384 . S
N2345 C2337 1.427 . S
N2345 C2343 1.384 . S
H2346 C2352 0.930 . S
H2347 C2356 0.930 . S
H2348 C2361 0.929 . S
H2349 C2359 0.929 . S
H2350 C2354 0.929 . S
H2351 C2360 0.929 . S
C2352 H2346 0.930 . S
C2352 C2353 1.367 . S
C2352 C2360 1.378 . S
C2353 C2352 1.367 . S
C2353 C2361 1.433 . S
C2354 H2350 0.929 . S
C2354 C2356 1.378 . S
C2354 C2358 1.350 . S
C2355 C2358 1.463 . S
C2355 C2360 1.350 . S
C2355 N2363 1.427 . S
C2356 H2347 0.930 . S
C2356 C2354 1.378 . S
C2356 C2357 1.367 . S
C2357 C2356 1.367 . S
C2357 C2359 1.433 . S
C2358 C2354 1.350 . S
C2358 C2355 1.463 . S
C2358 N2362 1.427 . S
C2359 H2349 0.929 . S
C2359 C2357 1.433 . S
C2359 N2362 1.384 . S
C2360 H2351 0.929 . S
C2360 C2352 1.378 . S
C2360 C2355 1.350 . S
C2361 H2348 0.929 . S
C2361 C2353 1.433 . S
C2361 N2363 1.384 . S
N2362 C2358 1.427 . S
N2362 C2359 1.384 . S
N2363 C2355 1.427 . S
N2363 C2361 1.384 . S
H2364 C2370 0.930 . S
H2365 C2374 0.930 . S
H2366 C2379 0.929 . S
H2367 C2377 0.929 . S
H2368 C2372 0.929 . S
H2369 C2378 0.929 . S
C2370 H2364 0.930 . S
C2370 C2371 1.367 . S
C2370 C2378 1.378 . S
C2371 C2370 1.367 . S
C2371 C2379 1.433 . S
C2372 H2368 0.929 . S
C2372 C2374 1.378 . S
C2372 C2376 1.350 . S
C2373 C2376 1.463 . S
C2373 C2378 1.350 . S
C2373 N2381 1.427 . S
C2374 H2365 0.930 . S
C2374 C2372 1.378 . S
C2374 C2375 1.367 . S
C2375 C2374 1.367 . S
C2375 C2377 1.433 . S
C2376 C2372 1.350 . S
C2376 C2373 1.463 . S
C2376 N2380 1.427 . S
C2377 H2367 0.929 . S
C2377 C2375 1.433 . S
C2377 N2380 1.384 . S
C2378 H2369 0.929 . S
C2378 C2370 1.378 . S
C2378 C2373 1.350 . S
C2379 H2366 0.929 . S
C2379 C2371 1.433 . S
C2379 N2381 1.384 . S
N2380 C2376 1.427 . S
N2380 C2377 1.384 . S
N2381 C2373 1.427 . S
N2381 C2379 1.384 . S
H2382 C2388 0.930 . S
H2383 C2392 0.930 . S
H2384 C2397 0.929 . S
H2385 C2395 0.929 . S
H2386 C2390 0.929 . S
H2387 C2396 0.929 . S
C2388 H2382 0.930 . S
C2388 C2389 1.367 . S
C2388 C2396 1.378 . S
C2389 C2388 1.367 . S
C2389 C2397 1.433 . S
C2390 H2386 0.929 . S
C2390 C2392 1.378 . S
C2390 C2394 1.350 . S
C2391 C2394 1.463 . S
C2391 C2396 1.350 . S
C2391 N2399 1.427 . S
C2392 H2383 0.930 . S
C2392 C2390 1.378 . S
C2392 C2393 1.367 . S
C2393 C2392 1.367 . S
C2393 C2395 1.433 . S
C2394 C2390 1.350 . S
C2394 C2391 1.463 . S
C2394 N2398 1.427 . S
C2395 H2385 0.929 . S
C2395 C2393 1.433 . S
C2395 N2398 1.384 . S
C2396 H2387 0.929 . S
C2396 C2388 1.378 . S
C2396 C2391 1.350 . S
C2397 H2384 0.929 . S
C2397 C2389 1.433 . S
C2397 N2399 1.384 . S
N2398 C2394 1.427 . S
N2398 C2395 1.384 . S
N2399 C2391 1.427 . S
N2399 C2397 1.384 . S
C679 C286 1.580 . S
C683 C6 1.567 . S
C697 C23 1.814 . S
C701 C247 1.822 . S
C715 C34 1.669 . S
C719 C260 1.807 . S
C733 C275 1.796 . S
C737 C51 1.796 . S
C751 C328 1.541 . S
C755 C65 1.709 . S
C769 C77 1.711 . S
C773 C303 1.845 . S
C787 C93 1.692 . S
C791 C314 1.553 . S
C805 C105 1.612 . S
C809 C231 1.605 . S
C823 C118 1.641 . S
C827 C216 1.649 . S
C841 C135 1.821 . S
C845 C176 1.816 . S
C859 C146 1.510 . S
C863 C188 1.521 . S
C877 C204 1.809 . S
C881 C163 1.805 . S
C895 C345 1.883 . S
C899 C624 1.882 . S
C913 C583 1.655 . S
C917 C357 1.531 . S
C931 C373 1.786 . S
C935 C594 1.663 . S
C949 C611 1.723 . S
C953 C385 1.595 . S
C967 C398 1.260 . S
C971 C664 1.263 . S
C985 C637 1.616 . S
C989 C415 1.756 . S
C1003 C426 1.175 . S
C1007 C650 1.182 . S
C1021 C569 1.851 . S
C1025 C443 1.855 . S
C1039 C456 1.694 . S
C1043 C555 1.692 . S
C1057 C510 1.518 . S
C1061 C468 1.518 . S
C1075 C527 1.599 . S
C1079 C484 1.602 . S
C1093 C538 1.501 . S
C1097 C496 1.493 . S
C1111 C370 1.138 . S
C1115 C9 1.190 . S
C1129 C20 1.044 . S
C1133 C386 1.105 . S
C1147 C37 1.159 . S
C1151 C342 1.098 . S
C1165 C48 1.066 . S
C1169 C358 1.112 . S
C1183 C62 1.194 . S
C1187 C429 1.260 . S
C1201 C440 1.092 . S
C1205 C78 1.155 . S
C1219 C401 1.255 . S
C1223 C90 1.187 . S
C1237 C412 1.127 . S
C1241 C106 1.193 . S
C1255 C513 1.349 . S
C1259 C121 1.355 . S
C1273 C132 0.930 . S
C1277 C524 0.962 . S
C1291 C541 1.311 . S
C1295 C149 1.321 . S
C1309 C160 0.949 . S
C1313 C552 0.927 . S
C1327 C175 1.055 . S
C1331 C455 1.076 . S
C1345 C191 1.179 . S
C1349 C471 1.173 . S
C1363 C483 1.088 . S
C1367 C203 1.057 . S
C1381 C499 1.214 . S
C1385 C219 1.214 . S
C1399 C232 1.260 . S
C1403 C608 1.178 . S
C1417 C244 1.065 . S
C1421 C638 1.137 . S
C1435 C653 1.155 . S
C1439 C259 1.097 . S
C1453 C566 1.002 . S
C1457 C272 0.978 . S
C1471 C289 1.208 . S
C1475 C667 1.204 . S
C1489 C580 1.099 . S
C1493 C300 1.109 . S
C1507 C317 1.322 . S
C1511 C597 1.322 . S
C1525 C331 1.194 . S
C1529 C623 1.127 . S
C1543 C399 1.862 . S
C1547 C8 1.796 . S
C1561 C414 1.777 . S
C1565 C21 1.876 . S
C1579 C427 1.974 . S
C1583 C36 1.918 . S
C1597 C49 1.908 . S
C1601 C442 1.822 . S
C1615 C344 1.803 . S
C1619 C63 1.875 . S
C1633 C356 2.010 . S
C1637 C79 1.946 . S
C1651 C91 1.840 . S
C1655 C372 1.769 . S
C1669 C384 1.909 . S
C1673 C107 1.826 . S
C1687 C120 1.837 . S
C1691 C539 1.906 . S
C1705 C133 1.945 . S
C1709 C554 1.864 . S
C1723 C511 1.897 . S
C1727 C148 1.821 . S
C1741 C161 1.953 . S
C1745 C526 1.853 . S
C1759 C485 1.881 . S
C1763 C174 1.968 . S
C1777 C190 1.763 . S
C1781 C497 1.841 . S
C1795 C202 1.962 . S
C1799 C457 1.883 . S
C1813 C218 1.799 . S
C1817 C469 1.859 . S
C1831 C636 1.932 . S
C1835 C233 1.847 . S
C1849 C245 1.931 . S
C1853 C610 1.828 . S
C1867 C258 1.814 . S
C1871 C625 1.730 . S
C1885 C273 1.904 . S
C1889 C582 1.812 . S
C1903 C595 1.856 . S
C1907 C288 1.776 . S
C1921 C568 1.817 . S
C1925 C301 1.903 . S
C1939 C665 1.956 . S
C1943 C316 1.892 . S
C1957 C330 1.864 . S
C1961 C651 1.946 . S
C1975 C217 1.650 . S
C1979 C7 1.644 . S
C1993 C22 1.399 . S
C1997 C177 1.374 . S
C2011 C189 1.644 . S
C2015 C35 1.631 . S
C2029 C205 1.366 . S
C2033 C50 1.402 . S
C2047 C134 1.303 . S
C2051 C64 1.352 . S
C2065 C76 1.652 . S
C2069 C147 1.671 . S
C2083 C92 1.372 . S
C2087 C162 1.338 . S
C2101 C119 1.664 . S
C2105 C104 1.653 . S
C2119 C230 1.570 . S
C2123 C287 1.577 . S
C2137 C329 1.578 . S
C2141 C246 1.468 . S
C2155 C302 1.367 . S
C2159 C261 1.391 . S
C2173 C274 1.404 . S
C2177 C315 1.557 . S
C2191 C553 1.499 . S
C2195 C343 1.496 . S
C2209 C512 1.315 . S
C2213 C359 1.314 . S
C2227 C371 1.571 . S
C2231 C525 1.559 . S
C2245 C540 1.303 . S
C2249 C387 1.309 . S
C2263 C470 1.311 . S
C2267 C400 1.294 . S
C2281 C413 1.581 . S
C2285 C482 1.569 . S
C2299 C428 1.300 . S
C2303 C498 1.328 . S
C2317 C441 1.487 . S
C2321 C454 1.495 . S
C2335 C567 1.508 . S
C2339 C622 1.507 . S
C2353 C666 1.359 . S
C2357 C581 1.523 . S
C2371 C639 1.254 . S
C2375 C596 1.243 . S
C2389 C652 1.392 . S
C2393 C609 1.554 . S
