# Generated by pormake.
# Topology rkf, (6)-cn, num edge types: 1
# Building blocks:
#     Node 0, Type 0, BuildingBlock: BETDEL_clean_sbu_0, # of connection points: 6
#     Node 1, Type 0, BuildingBlock: BETDEL_clean_sbu_0, # of connection points: 6
#     Node 2, Type 0, BuildingBlock: BETDEL_clean_sbu_0, # of connection points: 6
#     Node 3, Type 0, BuildingBlock: BETDEL_clean_sbu_0, # of connection points: 6
#     Node 4, Type 0, BuildingBlock: BETDEL_clean_sbu_0, # of connection points: 6
#     Node 5, Type 0, BuildingBlock: BETDEL_clean_sbu_0, # of connection points: 6
#     Edge 6, Type (0, 0), BuildingBlock: OJICUG_clean_linker_0, # of connection points: 2
#     Edge 7, Type (0, 0), BuildingBlock: OJICUG_clean_linker_0, # of connection points: 2
#     Edge 8, Type (0, 0), BuildingBlock: OJICUG_clean_linker_0, # of connection points: 2
#     Edge 9, Type (0, 0), BuildingBlock: OJICUG_clean_linker_0, # of connection points: 2
#     Edge 10, Type (0, 0), BuildingBlock: OJICUG_clean_linker_0, # of connection points: 2
#     Edge 11, Type (0, 0), BuildingBlock: OJICUG_clean_linker_0, # of connection points: 2
#     Edge 12, Type (0, 0), BuildingBlock: OJICUG_clean_linker_0, # of connection points: 2
#     Edge 13, Type (0, 0), BuildingBlock: OJICUG_clean_linker_0, # of connection points: 2
#     Edge 14, Type (0, 0), BuildingBlock: OJICUG_clean_linker_0, # of connection points: 2
#     Edge 15, Type (0, 0), BuildingBlock: OJICUG_clean_linker_0, # of connection points: 2
#     Edge 16, Type (0, 0), BuildingBlock: OJICUG_clean_linker_0, # of connection points: 2
#     Edge 17, Type (0, 0), BuildingBlock: OJICUG_clean_linker_0, # of connection points: 2
#     Edge 18, Type (0, 0), BuildingBlock: OJICUG_clean_linker_0, # of connection points: 2
#     Edge 19, Type (0, 0), BuildingBlock: OJICUG_clean_linker_0, # of connection points: 2
#     Edge 20, Type (0, 0), BuildingBlock: OJICUG_clean_linker_0, # of connection points: 2
#     Edge 21, Type (0, 0), BuildingBlock: OJICUG_clean_linker_0, # of connection points: 2
#     Edge 22, Type (0, 0), BuildingBlock: OJICUG_clean_linker_0, # of connection points: 2
#     Edge 23, Type (0, 0), BuildingBlock: OJICUG_clean_linker_0, # of connection points: 2
# Relax obj value: 0.412
# Max RMSD: 0.270
# Mean RMSD: 0.270
data_MOF--net-rkf--node1-BETDEL_clean_sbu_0--edge1-OJICUG_clean_linker_0
_symmetry_space_group_name_H-M    P1
_symmetry_Int_Tables_number       1
_symmetry_cell_setting            triclinic
loop_
_symmetry_equiv_pos_as_xyz
'x, y, z'
_cell_length_a     18.536961
_cell_length_b     18.594343
_cell_length_c     29.448181
_cell_angle_alpha  90.028944
_cell_angle_beta   89.872473
_cell_angle_gamma 120.06717
loop_
_atom_site_label
_atom_site_type_symbol
_atom_site_fract_x
_atom_site_fract_y
_atom_site_fract_z
_atom_type_partial_charge
Dy0 Dy 0.2092 -0.03711 0.11063 0.0
C1 C 0.30477 0.25225 0.99405 0.0
C2 C 0.14196 0.83739 0.17444 0.0
Dy3 Dy 0.29734 0.13648 1.05518 0.0
O4 O 0.10877 0.83779 0.13577 0.0
O5 O 0.21589 0.90319 0.17657 0.0
O6 O 0.08557 0.94156 0.08817 0.0
O7 O 0.18624 0.0629 0.0952 0.0
C8 C 0.11373 0.01946 0.08052 0.0
C9 C 0.39324 0.07781 0.08355 0.0
O10 O 0.31868 0.18794 0.12509 0.0
O11 O 0.27993 0.06287 0.16331 0.0
O12 O 0.34322 0.21008 0.98967 0.0
O13 O 0.26708 0.23463 1.03312 0.0
O14 O 0.42326 0.15695 1.07521 0.0
O15 O 0.31958 0.03557 1.07013 0.0
O16 O 0.21279 0.91734 1.04009 0.0
O17 O 0.22792 0.03637 1.00401 0.0
C18 C 0.31385 0.14538 0.16233 0.0
C19 C 0.21066 -0.042 1.00314 0.0
Dy20 Dy 0.29499 0.22349 0.43748 0.0
C21 C 0.08008 0.30189 0.32701 0.0
C22 C 0.32118 0.1353 0.50342 0.0
Dy23 Dy 0.19058 0.29537 0.38696 0.0
O24 O 0.26171 0.10551 0.47376 0.0
O25 O 0.37074 0.21495 0.49596 0.0
O26 O 0.24972 0.12369 0.38646 0.0
O27 O 0.17396 0.17434 0.40523 0.0
C28 C 0.18205 0.12561 0.37808 0.0
C29 C 0.32242 0.4042 0.43425 0.0
O30 O 0.13454 0.27589 0.45624 0.0
O31 O 0.23729 0.26072 0.49305 0.0
O32 O 0.16066 0.35082 0.32647 0.0
O33 O 0.05997 0.25072 0.36104 0.0
O34 O 0.26355 0.41974 0.42253 0.0
O35 O 0.31159 0.3404 0.41404 0.0
O36 O 0.37384 0.26887 0.37489 0.0
O37 O 0.27243 0.28352 0.33394 0.0
C38 C 0.17259 0.27258 0.49365 0.0
C39 C 0.3424 0.27944 0.33618 0.0
Dy40 Dy 0.04492 0.2798 0.77773 0.0
C41 C 0.75439 0.08439 0.66191 0.0
C42 C 0.17113 0.33853 0.84116 0.0
Dy43 Dy 0.87072 0.19329 0.72275 0.0
O44 O 0.1707 0.30538 0.80232 0.0
O45 O 0.10498 0.34602 0.84367 0.0
O46 O 0.06644 0.17794 0.75518 0.0
O47 O -0.05533 0.15651 0.76257 0.0
C48 C -0.01171 0.12778 0.74776 0.0
C49 C 0.92928 0.34782 0.75096 0.0
O50 O 0.8193 0.16331 0.79277 0.0
O51 O -0.05521 0.25045 0.83067 0.0
O52 O 0.79648 0.16498 0.65752 0.0
O53 O 0.77242 0.06462 0.70084 0.0
O54 O 0.84993 0.29819 0.74279 0.0
O55 O -0.02815 0.31685 0.73745 0.0
O56 O 0.09034 0.32865 0.70706 0.0
O57 O -0.02909 0.22411 0.67132 0.0
C58 C 0.86205 0.20144 0.82989 0.0
C59 C 0.04946 0.2855 0.67023 0.0
Dy60 Dy 0.78341 0.10512 0.1051 0.0
C61 C 0.70529 0.81224 0.99437 0.0
C62 C 0.87061 0.22019 0.17102 0.0
Dy63 Dy 0.71149 0.92879 1.05454 0.0
O64 O 0.90151 0.19266 0.14073 0.0
O65 O 0.79033 0.18762 0.16414 0.0
O66 O 0.88398 0.15993 1.0542 0.0
O67 O 0.83279 0.03356 1.07286 0.0
C68 C 0.88185 0.09044 1.04573 0.0
C69 C 0.60227 0.95154 0.10193 0.0
O70 O 0.73086 0.89243 0.12373 0.0
O71 O 0.74702 0.0105 0.16065 0.0
O72 O 0.65626 0.8436 0.99392 0.0
O73 O 0.75634 0.84328 1.02845 0.0
O74 O 0.58656 0.87721 0.09018 0.0
O75 O 0.66638 0.00447 0.08169 0.0
O76 O 0.73776 0.13791 1.04263 0.0
O77 O 0.72371 0.02231 1.00159 0.0
C78 C 0.73472 0.93396 0.16118 0.0
C79 C 0.72754 0.09604 1.00389 0.0
Dy80 Dy 0.72701 0.79841 0.44511 0.0
C81 C 0.92256 0.70446 0.3282 0.0
C82 C 0.66756 0.8647 0.5089 0.0
Dy83 Dy 0.81392 0.71175 0.38958 0.0
O84 O 0.70032 0.89749 0.46994 0.0
O85 O 0.66081 0.79158 0.51133 0.0
O86 O 0.82968 0.92217 0.42317 0.0
O87 O 0.8507 0.82192 0.42985 0.0
C88 C 0.8799 0.89446 0.41544 0.0
C89 C 0.6588 0.61522 0.41773 0.0
O90 O 0.84347 0.68984 0.45948 0.0
O91 O 0.75568 0.72716 0.49765 0.0
O92 O 0.84174 0.66616 0.32402 0.0
O93 O -0.05728 0.74199 0.36722 0.0
O94 O 0.70857 0.58584 0.40935 0.0
O95 O 0.68995 0.68879 0.40442 0.0
O96 O 0.67856 0.79551 0.37451 0.0
O97 O 0.7837 0.7816 0.33855 0.0
C98 C 0.80483 0.69377 0.49667 0.0
C99 C 0.72213 0.79839 0.33761 0.0
Dy100 Dy 0.90208 0.71165 0.77163 0.0
C101 C 0.19514 0.92575 0.65977 0.0
C102 C 0.78756 0.68488 0.83807 0.0
Dy103 Dy 0.07856 0.81562 0.72035 0.0
O104 O 0.81566 0.74326 0.8078 0.0
O105 O 0.81923 0.63662 0.83091 0.0
O106 O 0.84732 0.75749 0.72109 0.0
O107 O -0.02577 0.83249 0.73936 0.0
C108 C 0.91714 0.82485 0.71254 0.0
C109 C 0.05537 0.68366 0.76742 0.0
O110 O 0.11587 0.87144 0.78948 0.0
O111 O -0.00238 0.76953 0.82678 0.0
O112 O 0.16314 0.84538 0.6592 0.0
O113 O 0.16476 0.94586 0.69419 0.0
O114 O 0.12997 0.74222 0.75544 0.0
O115 O 0.00231 0.69492 0.74756 0.0
O116 O 0.86808 0.63307 0.70914 0.0
O117 O -0.01597 0.73432 0.66774 0.0
C118 C 0.07449 0.8338 0.82705 0.0
C119 C 0.90989 0.66451 0.67026 0.0
C120 C 0.03114 0.15369 1.04433 0.0
C121 C -0.04557 0.09126 1.02755 0.0
H122 H 0.13923 0.1749 0.08041 0.0
C123 C -0.05467 0.01584 1.01278 0.0
H124 H 0.03979 0.21341 1.05479 0.0
C125 C 0.00408 -0.00521 1.02592 0.0
C126 C 0.07105 0.05031 1.05301 0.0
H127 H 0.88763 -0.03097 0.99763 0.0
H128 H -0.00791 0.93234 1.01952 0.0
C129 C 0.0883 0.13185 1.05908 0.0
C130 C 0.01779 0.91996 0.39283 0.0
C131 C -0.04696 0.93695 0.38735 0.0
H132 H 0.14801 -0.03174 0.38718 0.0
C133 C -0.03638 0.00324 0.36003 0.0
H134 H 0.01053 0.86951 0.4143 0.0
C135 C 0.04319 0.06164 0.34601 0.0
C136 C 0.11019 0.05296 0.36022 0.0
H137 H 0.91274 0.01496 0.35405 0.0
H138 H 0.05353 0.11893 0.33073 0.0
C139 C 0.09649 -0.02329 0.37716 0.0
C140 C 0.8539 0.9106 0.71196 0.0
C141 C 0.9165 0.89674 0.69488 0.0
H142 H 0.83248 -0.00282 0.74808 0.0
C143 C -0.00787 -0.03672 0.68004 0.0
H144 H 0.79404 0.85936 0.72253 0.0
C145 C 0.01312 0.04295 0.69317 0.0
C146 C -0.04259 0.05411 0.72038 0.0
H147 H 0.0391 0.95271 0.66474 0.0
H148 H 0.07571 0.09363 0.68662 0.0
C149 C 0.87569 -0.01049 0.72666 0.0
C150 C 0.22917 0.32194 0.96262 0.0
C151 C 0.286 0.29345 0.95617 0.0
H152 H 0.14924 0.36026 0.93129 0.0
C153 C 0.31439 0.29325 0.91191 0.0
H154 H 0.20569 0.3225 0.99626 0.0
C155 C 0.28204 0.31501 0.87467 0.0
C156 C 0.22055 0.33753 0.88078 0.0
H157 H 0.35783 0.27141 0.90571 0.0
H158 H 0.30145 0.30914 0.8408 0.0
C159 C 0.19689 0.34383 0.92535 0.0
C160 C 0.05461 0.33588 0.2484 0.0
C161 C 0.02241 0.29504 0.28996 0.0
H162 H 0.03062 0.34457 0.17796 0.0
C163 C 0.93582 0.24051 0.29368 0.0
H164 H 0.12091 0.378 0.24432 0.0
C165 C 0.8835 0.22323 0.25578 0.0
C166 C 0.91712 0.25909 0.21334 0.0
H167 H 0.90914 0.20786 0.32521 0.0
H168 H 0.81821 0.17642 0.25878 0.0
C169 C 0.00275 0.31727 0.21043 0.0
C170 C 0.68468 0.93919 0.63045 0.0
C171 C 0.71292 0.02432 0.62409 0.0
H172 H 0.64647 0.82118 0.599 0.0
C173 C 0.71264 0.05271 0.57991 0.0
H174 H 0.68448 0.91531 0.66403 0.0
C175 C 0.69073 -0.00136 0.54263 0.0
C176 C 0.66853 0.91489 0.54863 0.0
H177 H 0.73426 0.11784 0.57378 0.0
H178 H 0.69627 0.0238 0.50881 0.0
C179 C 0.66264 0.88506 0.59315 0.0
C180 C 0.76691 0.72984 0.96084 0.0
C181 C 0.71239 0.76172 0.9572 0.0
H182 H 0.8311 0.67653 0.92584 0.0
C183 C 0.67176 0.75312 0.91564 0.0
H184 H 0.79945 0.73581 0.99237 0.0
C185 C 0.69051 0.72001 0.87761 0.0
C186 C 0.74861 0.69262 0.88046 0.0
H187 H 0.62966 0.77718 0.9116 0.0
H188 H 0.66334 0.72056 0.84516 0.0
C189 C 0.78432 0.69492 0.92289 0.0
C190 C 0.06805 0.78001 0.29623 0.0
C191 C -0.01746 0.72316 0.29014 0.0
H192 H 0.18631 0.85978 0.26439 0.0
C193 C -0.04634 0.69458 0.24601 0.0
H194 H 0.09231 0.80363 0.32975 0.0
C195 C 0.00764 0.72677 0.20855 0.0
C196 C 0.0918 0.78825 0.2143 0.0
H197 H 0.88823 0.65111 0.24008 0.0
H198 H -0.01789 0.7072 0.17479 0.0
C199 C 0.12211 0.81212 0.25873 0.0
C200 C 0.2782 0.06969 0.62625 0.0
C201 C 0.24545 -0.01671 0.62243 0.0
H202 H 0.33187 0.18719 0.59139 0.0
C203 C 0.25288 0.95119 0.58059 0.0
H204 H 0.27313 0.09629 0.658 0.0
C205 C 0.28567 0.00303 0.54253 0.0
C206 C 0.31393 0.08855 0.5456 0.0
H207 H 0.22812 0.88504 0.5764 0.0
H208 H 0.28416 -0.0247 0.50991 0.0
C209 C 0.31282 0.12199 0.58825 0.0
C210 C 0.51941 0.09116 0.11977 0.0
C211 C 0.43907 0.04061 0.10293 0.0
H212 H 0.63481 0.09862 0.13591 0.0
C213 C 0.40556 0.95409 0.1004 0.0
H214 H 0.54525 0.1576 0.12336 0.0
C215 C 0.45679 0.92033 0.10742 0.0
C216 C 0.54105 -0.02666 0.11718 0.0
H217 H 0.3424 0.91362 0.08875 0.0
H218 H 0.43319 0.85533 0.0997 0.0
C219 C 0.57002 0.05719 0.12753 0.0
C220 C 0.4606 0.43667 0.46001 0.0
C221 C 0.4053 0.46526 0.44973 0.0
H222 H 0.5866 0.46261 0.45644 0.0
C223 C 0.43615 0.54946 0.44056 0.0
H224 H 0.43749 0.37191 0.46796 0.0
C225 C 0.52145 0.60132 0.43413 0.0
C226 C 0.57515 0.56851 0.43665 0.0
H227 H 0.39437 0.57271 0.43292 0.0
H228 H 0.54395 0.66455 0.42294 0.0
C229 C 0.54551 0.48798 0.45289 0.0
C230 C 0.05309 0.4848 0.76692 0.0
C231 C -0.03365 0.43132 0.76968 0.0
H232 H 0.15189 0.61142 0.76553 0.0
C233 C 0.91537 0.46099 0.78598 0.0
H234 H 0.09389 0.46229 0.75566 0.0
C235 C -0.05088 0.54565 0.79304 0.0
C236 C 0.03327 0.60073 0.78264 0.0
H237 H 0.84874 0.42009 0.78968 0.0
H238 H 0.90736 0.56873 0.80109 0.0
C239 C 0.08667 0.56985 0.77329 0.0
C240 C 0.35782 0.15327 0.2435 0.0
C241 C 0.34415 0.1911 0.20567 0.0
H242 H 0.37355 0.15554 0.31562 0.0
C243 C 0.35325 0.27035 0.21076 0.0
H244 H 0.35299 0.09294 0.24049 0.0
C245 C 0.36549 0.30624 0.25378 0.0
C246 C 0.37005 0.26411 0.29228 0.0
H247 H 0.34418 0.3017 0.18223 0.0
H248 H 0.36329 0.3631 0.25752 0.0
C249 C 0.37147 0.18995 0.28646 0.0
C250 C 0.06969 0.28515 0.54348 0.0
C251 C 0.14564 0.28669 0.53855 0.0
H252 H -0.01918 0.28574 0.58964 0.0
C253 C 0.19577 0.30073 0.57731 0.0
H254 H 0.03006 0.27535 0.51443 0.0
C255 C 0.16822 0.30832 0.6204 0.0
C256 C 0.08986 0.3012 0.62542 0.0
H257 H 0.25542 0.30354 0.57466 0.0
H258 H 0.20558 0.31415 0.64991 0.0
C259 C 0.04191 0.29182 0.58651 0.0
C260 C 0.73665 0.1158 0.8785 0.0
C261 C 0.81624 0.186 0.87333 0.0
H262 H 0.6435 0.03307 0.92537 0.0
C263 C 0.85428 0.23755 0.91113 0.0
H264 H 0.70512 0.07534 0.84999 0.0
C265 C 0.81747 0.21452 0.95414 0.0
C266 C 0.74295 0.13892 0.96002 0.0
H267 H 0.91488 0.29308 0.90806 0.0
H268 H 0.85203 0.25105 0.98328 0.0
C269 C 0.70062 0.09217 0.92157 0.0
C270 C 0.7071 0.92923 0.24498 0.0
C271 C 0.72086 0.89315 0.20609 0.0
H272 H 0.69393 0.92571 0.31762 0.0
C273 C 0.72229 0.81891 0.21089 0.0
H274 H 0.7044 -0.01406 0.24243 0.0
C275 C 0.71573 0.7846 0.25389 0.0
C276 C 0.70651 0.8231 0.2929 0.0
H277 H 0.7319 0.78909 0.18176 0.0
H278 H 0.72168 0.72971 0.2569 0.0
C279 C 0.69959 0.89422 0.28804 0.0
C280 C 0.88988 0.65341 0.54496 0.0
C281 C 0.81987 0.66308 0.53997 0.0
H282 H -0.02757 0.64275 0.59162 0.0
C283 C 0.76822 0.64968 0.57788 0.0
H284 H 0.93038 0.66222 0.51638 0.0
C285 C 0.79113 0.63588 0.62082 0.0
C286 C 0.86669 0.63679 0.62652 0.0
H287 H 0.7128 0.65494 0.57496 0.0
H288 H 0.75465 0.6341 0.65005 0.0
C289 C 0.91337 0.64094 0.58795 0.0
C290 C 0.19003 0.937 0.87645 0.0
C291 C 0.11573 0.86101 0.87181 0.0
H292 H 0.27936 0.02622 0.92227 0.0
C293 C 0.07981 0.81121 0.91075 0.0
H294 H 0.21973 -0.0236 0.84726 0.0
C295 C 0.11493 0.83911 0.95374 0.0
C296 C 0.186 0.9175 0.95847 0.0
H297 H 0.02307 0.75155 0.90832 0.0
H298 H 0.08351 0.80195 0.98338 0.0
C299 C 0.22446 -0.03486 0.91938 0.0
loop_
_geom_bond_atom_site_label_1
_geom_bond_atom_site_label_2
_geom_bond_distance
_geom_bond_site_symmetry_2
_ccdc_geom_bond_type
Dy0 O4 2.398 . S
Dy0 O5 2.491 . S
Dy0 O6 2.403 1_565 S
Dy0 O7 2.664 1_564 S
Dy0 O11 2.326 1_565 S
Dy0 O15 2.310 1_565 S
Dy0 O16 2.351 1_554 S
C1 O12 1.185 . S
C1 O13 1.355 . S
C2 O4 1.185 . S
C2 O5 1.355 . S
Dy3 O7 2.310 . S
Dy3 O10 2.351 1_556 S
Dy3 O12 2.398 . S
Dy3 O13 2.491 . S
Dy3 O14 2.403 . S
Dy3 O15 2.664 1_556 S
Dy3 O17 2.326 . S
O4 Dy0 2.398 . S
O4 C2 1.185 . S
O5 Dy0 2.491 . S
O5 C2 1.355 . S
O6 Dy0 2.403 1_545 S
O6 C8 1.254 . S
O7 Dy0 2.664 1_546 S
O7 Dy3 2.310 . S
O7 C8 1.268 1_556 S
C8 O6 1.254 . S
C8 O7 1.268 1_554 S
C9 O14 1.254 1_554 S
C9 O15 1.268 . S
O10 Dy3 2.351 1_554 S
O10 C18 1.249 . S
O11 Dy0 2.326 1_545 S
O11 C18 1.267 . S
O12 C1 1.185 . S
O12 Dy3 2.398 . S
O13 C1 1.355 . S
O13 Dy3 2.491 . S
O14 Dy3 2.403 . S
O14 C9 1.254 1_556 S
O15 Dy0 2.310 1_545 S
O15 Dy3 2.664 1_554 S
O15 C9 1.268 . S
O16 Dy0 2.351 1_556 S
O16 C19 1.249 1_565 S
O17 Dy3 2.326 . S
O17 C19 1.267 . S
C18 O10 1.249 . S
C18 O11 1.267 . S
C19 O16 1.249 1_545 S
C19 O17 1.267 . S
Dy20 O24 2.398 . S
Dy20 O25 2.491 . S
Dy20 O26 2.403 . S
Dy20 O27 2.664 . S
Dy20 O31 2.326 . S
Dy20 O35 2.310 . S
Dy20 O36 2.351 . S
C21 O32 1.185 . S
C21 O33 1.355 . S
C22 O24 1.185 . S
C22 O25 1.355 . S
Dy23 O27 2.310 . S
Dy23 O30 2.351 . S
Dy23 O32 2.398 . S
Dy23 O33 2.491 . S
Dy23 O34 2.403 . S
Dy23 O35 2.664 . S
Dy23 O37 2.326 . S
O24 Dy20 2.398 . S
O24 C22 1.185 . S
O25 Dy20 2.491 . S
O25 C22 1.355 . S
O26 Dy20 2.403 . S
O26 C28 1.254 . S
O27 Dy20 2.664 . S
O27 Dy23 2.310 . S
O27 C28 1.268 . S
C28 O26 1.254 . S
C28 O27 1.268 . S
C29 O34 1.254 . S
C29 O35 1.268 . S
O30 Dy23 2.351 . S
O30 C38 1.249 . S
O31 Dy20 2.326 . S
O31 C38 1.267 . S
O32 C21 1.185 . S
O32 Dy23 2.398 . S
O33 C21 1.355 . S
O33 Dy23 2.491 . S
O34 Dy23 2.403 . S
O34 C29 1.254 . S
O35 Dy20 2.310 . S
O35 Dy23 2.664 . S
O35 C29 1.268 . S
O36 Dy20 2.351 . S
O36 C39 1.249 . S
O37 Dy23 2.326 . S
O37 C39 1.267 . S
C38 O30 1.249 . S
C38 O31 1.267 . S
C39 O36 1.249 . S
C39 O37 1.267 . S
Dy40 O44 2.398 . S
Dy40 O45 2.491 . S
Dy40 O46 2.403 . S
Dy40 O47 2.664 1_455 S
Dy40 O51 2.326 1_455 S
Dy40 O55 2.310 . S
Dy40 O56 2.351 . S
C41 O52 1.185 . S
C41 O53 1.355 . S
C42 O44 1.185 . S
C42 O45 1.355 . S
Dy43 O47 2.310 . S
Dy43 O50 2.351 . S
Dy43 O52 2.398 . S
Dy43 O53 2.491 . S
Dy43 O54 2.403 . S
Dy43 O55 2.664 1_655 S
Dy43 O57 2.326 1_655 S
O44 Dy40 2.398 . S
O44 C42 1.185 . S
O45 Dy40 2.491 . S
O45 C42 1.355 . S
O46 Dy40 2.403 . S
O46 C48 1.254 . S
O47 Dy40 2.664 1_655 S
O47 Dy43 2.310 . S
O47 C48 1.268 1_655 S
C48 O46 1.254 . S
C48 O47 1.268 1_455 S
C49 O54 1.254 . S
C49 O55 1.268 1_655 S
O50 Dy43 2.351 . S
O50 C58 1.249 . S
O51 Dy40 2.326 1_655 S
O51 C58 1.267 . S
O52 C41 1.185 . S
O52 Dy43 2.398 . S
O53 C41 1.355 . S
O53 Dy43 2.491 . S
O54 Dy43 2.403 . S
O54 C49 1.254 . S
O55 Dy40 2.310 . S
O55 Dy43 2.664 1_455 S
O55 C49 1.268 1_455 S
O56 Dy40 2.351 . S
O56 C59 1.249 . S
O57 Dy43 2.326 1_455 S
O57 C59 1.267 . S
C58 O50 1.249 . S
C58 O51 1.267 . S
C59 O56 1.249 . S
C59 O57 1.267 . S
Dy60 O64 2.398 . S
Dy60 O65 2.491 . S
Dy60 O66 2.403 1_655 S
Dy60 O67 2.664 1_544 S
Dy60 O71 2.326 1_545 S
Dy60 O75 2.310 . S
Dy60 O76 2.351 1_554 S
C61 O72 1.185 . S
C61 O73 1.355 . S
C62 O64 1.185 . S
C62 O65 1.355 . S
Dy63 O67 2.310 . S
Dy63 O70 2.351 1_556 S
Dy63 O72 2.398 . S
Dy63 O73 2.491 . S
Dy63 O74 2.403 . S
Dy63 O75 2.664 1_566 S
Dy63 O77 2.326 1_565 S
O64 Dy60 2.398 . S
O64 C62 1.185 . S
O65 Dy60 2.491 . S
O65 C62 1.355 . S
O66 Dy60 2.403 1_455 S
O66 C68 1.254 1_455 S
O67 Dy60 2.664 1_566 S
O67 Dy63 2.310 . S
O67 C68 1.268 1_566 S
C68 O66 1.254 1_655 S
C68 O67 1.268 1_544 S
C69 O74 1.254 1_554 S
C69 O75 1.268 1_565 S
O70 Dy63 2.351 1_554 S
O70 C78 1.249 . S
O71 Dy60 2.326 1_565 S
O71 C78 1.267 . S
O72 C61 1.185 . S
O72 Dy63 2.398 . S
O73 C61 1.355 . S
O73 Dy63 2.491 . S
O74 Dy63 2.403 . S
O74 C69 1.254 1_556 S
O75 Dy60 2.310 . S
O75 Dy63 2.664 1_544 S
O75 C69 1.268 1_545 S
O76 Dy60 2.351 1_556 S
O76 C79 1.249 . S
O77 Dy63 2.326 1_545 S
O77 C79 1.267 . S
C78 O70 1.249 . S
C78 O71 1.267 . S
C79 O76 1.249 . S
C79 O77 1.267 . S
Dy80 O84 2.398 . S
Dy80 O85 2.491 . S
Dy80 O86 2.403 1_565 S
Dy80 O87 2.664 . S
Dy80 O91 2.326 . S
Dy80 O95 2.310 . S
Dy80 O96 2.351 . S
C81 O92 1.185 . S
C81 O93 1.355 1_655 S
C82 O84 1.185 . S
C82 O85 1.355 . S
Dy83 O87 2.310 . S
Dy83 O90 2.351 . S
Dy83 O92 2.398 . S
Dy83 O93 2.491 1_655 S
Dy83 O94 2.403 . S
Dy83 O95 2.664 . S
Dy83 O97 2.326 . S
O84 Dy80 2.398 . S
O84 C82 1.185 . S
O85 Dy80 2.491 . S
O85 C82 1.355 . S
O86 Dy80 2.403 1_545 S
O86 C88 1.254 1_645 S
O87 Dy80 2.664 . S
O87 Dy83 2.310 . S
O87 C88 1.268 1_655 S
C88 O86 1.254 1_465 S
C88 O87 1.268 1_455 S
C89 O94 1.254 . S
C89 O95 1.268 . S
O90 Dy83 2.351 . S
O90 C98 1.249 . S
O91 Dy80 2.326 . S
O91 C98 1.267 . S
O92 C81 1.185 . S
O92 Dy83 2.398 . S
O93 C81 1.355 1_455 S
O93 Dy83 2.491 1_455 S
O94 Dy83 2.403 . S
O94 C89 1.254 . S
O95 Dy80 2.310 . S
O95 Dy83 2.664 . S
O95 C89 1.268 . S
O96 Dy80 2.351 . S
O96 C99 1.249 . S
O97 Dy83 2.326 . S
O97 C99 1.267 . S
C98 O90 1.249 . S
C98 O91 1.267 . S
C99 O96 1.249 . S
C99 O97 1.267 . S
Dy100 O104 2.398 . S
Dy100 O105 2.491 . S
Dy100 O106 2.403 1_655 S
Dy100 O107 2.664 1_655 S
Dy100 O111 2.326 1_655 S
Dy100 O115 2.310 1_655 S
Dy100 O116 2.351 . S
C101 O112 1.185 . S
C101 O113 1.355 1_565 S
C102 O104 1.185 . S
C102 O105 1.355 . S
Dy103 O107 2.310 . S
Dy103 O110 2.351 . S
Dy103 O112 2.398 . S
Dy103 O113 2.491 1_565 S
Dy103 O114 2.403 . S
Dy103 O115 2.664 . S
Dy103 O117 2.326 . S
O104 Dy100 2.398 . S
O104 C102 1.185 . S
O105 Dy100 2.491 . S
O105 C102 1.355 . S
O106 Dy100 2.403 1_455 S
O106 C108 1.254 1_565 S
O107 Dy100 2.664 1_455 S
O107 Dy103 2.310 . S
O107 C108 1.268 1_565 S
C108 O106 1.254 1_545 S
C108 O107 1.268 1_545 S
C109 O114 1.254 . S
C109 O115 1.268 . S
O110 Dy103 2.351 . S
O110 C118 1.249 . S
O111 Dy100 2.326 1_455 S
O111 C118 1.267 . S
O112 C101 1.185 . S
O112 Dy103 2.398 . S
O113 C101 1.355 1_545 S
O113 Dy103 2.491 1_545 S
O114 Dy103 2.403 . S
O114 C109 1.254 . S
O115 Dy100 2.310 1_455 S
O115 Dy103 2.664 . S
O115 C109 1.268 . S
O116 Dy100 2.351 . S
O116 C119 1.249 1_655 S
O117 Dy103 2.326 . S
O117 C119 1.267 . S
C118 O110 1.249 . S
C118 O111 1.267 . S
C119 O116 1.249 1_455 S
C119 O117 1.267 . S
C120 C121 1.367 1_444 S
C120 H124 0.950 1_445 S
C120 C129 1.390 . S
C121 C120 1.367 1_666 S
C121 C123 1.408 1_665 S
H122 C129 0.950 . S
C123 C121 1.408 1_445 S
C123 C125 1.390 . S
C123 H127 0.950 1_445 S
H124 C120 0.950 1_665 S
C125 C123 1.390 . S
C125 C126 1.408 . S
C125 H128 0.950 . S
C126 C125 1.408 . S
C126 C129 1.367 1_556 S
H127 C123 0.950 1_665 S
H128 C125 0.950 . S
C129 C120 1.390 . S
C129 H122 0.950 . S
C129 C126 1.367 1_554 S
C130 C131 1.387 1_545 S
C130 H134 0.950 1_545 S
C130 C139 1.390 . S
C131 C130 1.387 1_565 S
C131 C133 1.387 1_565 S
H132 C139 0.950 . S
C133 C131 1.387 1_545 S
C133 C135 1.390 . S
C133 H137 0.950 1_545 S
H134 C130 0.950 1_565 S
C135 C133 1.390 . S
C135 C136 1.387 . S
C135 H138 0.950 . S
C136 C135 1.387 . S
C136 C139 1.387 . S
H137 C133 0.950 1_565 S
H138 C135 0.950 . S
C139 C130 1.390 . S
C139 H132 0.950 . S
C139 C136 1.387 . S
C140 C141 1.387 . S
C140 H144 0.950 . S
C140 C149 1.390 . S
C141 C140 1.387 . S
C141 C143 1.387 . S
H142 C149 0.950 1_655 S
C143 C141 1.387 . S
C143 C145 1.390 . S
C143 H147 0.950 . S
H144 C140 0.950 . S
C145 C143 1.390 . S
C145 C146 1.387 1_455 S
C145 H148 0.950 1_455 S
C146 C145 1.387 1_655 S
C146 C149 1.387 1_655 S
H147 C143 0.950 . S
H148 C145 0.950 1_655 S
C149 C140 1.390 . S
C149 H142 0.950 1_455 S
C149 C146 1.387 1_455 S
C150 C151 1.387 . S
C150 H154 0.950 . S
C150 C159 1.390 . S
C151 C150 1.387 . S
C151 C153 1.387 . S
H152 C159 0.950 . S
C153 C151 1.387 . S
C153 C155 1.390 . S
C153 H157 0.950 . S
H154 C150 0.950 . S
C155 C153 1.390 . S
C155 C156 1.387 . S
C155 H158 0.950 . S
C156 C155 1.387 . S
C156 C159 1.387 . S
H157 C153 0.950 . S
H158 C155 0.950 . S
C159 C150 1.390 . S
C159 H152 0.950 . S
C159 C156 1.387 . S
C160 C161 1.387 . S
C160 H164 0.950 . S
C160 C169 1.390 1_455 S
C161 C160 1.387 . S
C161 C163 1.387 . S
H162 C169 0.950 . S
C163 C161 1.387 . S
C163 C165 1.390 1_455 S
C163 H167 0.950 . S
H164 C160 0.950 . S
C165 C163 1.390 1_655 S
C165 C166 1.387 . S
C165 H168 0.950 . S
C166 C165 1.387 . S
C166 C169 1.387 . S
H167 C163 0.950 . S
H168 C165 0.950 . S
C169 C160 1.390 1_655 S
C169 H162 0.950 . S
C169 C166 1.387 . S
C170 C171 1.387 . S
C170 H174 0.950 . S
C170 C179 1.390 . S
C171 C170 1.387 . S
C171 C173 1.387 . S
H172 C179 0.950 . S
C173 C171 1.387 . S
C173 C175 1.390 1_545 S
C173 H177 0.950 . S
H174 C170 0.950 . S
C175 C173 1.390 1_565 S
C175 C176 1.387 . S
C175 H178 0.950 . S
C176 C175 1.387 . S
C176 C179 1.387 1_565 S
H177 C173 0.950 . S
H178 C175 0.950 . S
C179 C170 1.390 . S
C179 H172 0.950 . S
C179 C176 1.387 1_545 S
C180 C181 1.387 . S
C180 H184 0.950 . S
C180 C189 1.390 . S
C181 C180 1.387 . S
C181 C183 1.387 . S
H182 C189 0.950 . S
C183 C181 1.387 . S
C183 C185 1.390 . S
C183 H187 0.950 . S
H184 C180 0.950 . S
C185 C183 1.390 . S
C185 C186 1.387 . S
C185 H188 0.950 . S
C186 C185 1.387 . S
C186 C189 1.387 . S
H187 C183 0.950 . S
H188 C185 0.950 . S
C189 C180 1.390 . S
C189 H182 0.950 . S
C189 C186 1.387 . S
C190 C191 1.387 . S
C190 H194 0.950 . S
C190 C199 1.390 . S
C191 C190 1.387 . S
C191 C193 1.387 . S
H192 C199 0.950 . S
C193 C191 1.387 . S
C193 C195 1.390 . S
C193 H197 0.950 1_455 S
H194 C190 0.950 . S
C195 C193 1.390 . S
C195 C196 1.387 . S
C195 H198 0.950 . S
C196 C195 1.387 . S
C196 C199 1.387 . S
H197 C193 0.950 1_655 S
H198 C195 0.950 . S
C199 C190 1.390 . S
C199 H192 0.950 . S
C199 C196 1.387 . S
C200 C201 1.387 . S
C200 H204 0.950 1_545 S
C200 C209 1.390 . S
C201 C200 1.387 . S
C201 C203 1.387 . S
H202 C209 0.950 . S
C203 C201 1.387 . S
C203 C205 1.390 . S
C203 H207 0.950 . S
H204 C200 0.950 1_565 S
C205 C203 1.390 . S
C205 C206 1.387 . S
C205 H208 0.950 . S
C206 C205 1.387 . S
C206 C209 1.387 . S
H207 C203 0.950 . S
H208 C205 0.950 . S
C209 C200 1.390 . S
C209 H202 0.950 . S
C209 C206 1.387 . S
C210 C211 1.387 . S
C210 H214 0.950 . S
C210 C219 1.390 . S
C211 C210 1.387 . S
C211 C213 1.387 1_554 S
H212 C219 0.950 . S
C213 C211 1.387 1_556 S
C213 C215 1.390 . S
C213 H217 0.950 . S
H214 C210 0.950 . S
C215 C213 1.390 . S
C215 C216 1.387 1_556 S
C215 H218 0.950 . S
C216 C215 1.387 1_554 S
C216 C219 1.387 . S
H217 C213 0.950 . S
H218 C215 0.950 . S
C219 C210 1.390 . S
C219 H212 0.950 . S
C219 C216 1.387 . S
C220 C221 1.387 . S
C220 H224 0.950 . S
C220 C229 1.390 . S
C221 C220 1.387 . S
C221 C223 1.387 . S
H222 C229 0.950 . S
C223 C221 1.387 . S
C223 C225 1.390 . S
C223 H227 0.950 . S
H224 C220 0.950 . S
C225 C223 1.390 . S
C225 C226 1.387 . S
C225 H228 0.950 . S
C226 C225 1.387 . S
C226 C229 1.387 . S
H227 C223 0.950 . S
H228 C225 0.950 . S
C229 C220 1.390 . S
C229 H222 0.950 . S
C229 C226 1.387 . S
C230 C231 1.387 . S
C230 H234 0.950 . S
C230 C239 1.390 . S
C231 C230 1.387 . S
C231 C233 1.387 . S
H232 C239 0.950 . S
C233 C231 1.387 . S
C233 C235 1.390 . S
C233 H237 0.950 . S
H234 C230 0.950 . S
C235 C233 1.390 . S
C235 C236 1.387 . S
C235 H238 0.950 . S
C236 C235 1.387 . S
C236 C239 1.387 . S
H237 C233 0.950 . S
H238 C235 0.950 . S
C239 C230 1.390 . S
C239 H232 0.950 . S
C239 C236 1.387 . S
C240 C241 1.387 . S
C240 H244 0.950 . S
C240 C249 1.390 . S
C241 C240 1.387 . S
C241 C243 1.387 . S
H242 C249 0.950 . S
C243 C241 1.387 . S
C243 C245 1.390 . S
C243 H247 0.950 . S
H244 C240 0.950 . S
C245 C243 1.390 . S
C245 C246 1.387 . S
C245 H248 0.950 . S
C246 C245 1.387 . S
C246 C249 1.387 . S
H247 C243 0.950 . S
H248 C245 0.950 . S
C249 C240 1.390 . S
C249 H242 0.950 . S
C249 C246 1.387 . S
C250 C251 1.387 . S
C250 H254 0.950 . S
C250 C259 1.390 . S
C251 C250 1.387 . S
C251 C253 1.387 . S
H252 C259 0.950 . S
C253 C251 1.387 . S
C253 C255 1.390 . S
C253 H257 0.950 . S
H254 C250 0.950 . S
C255 C253 1.390 . S
C255 C256 1.387 . S
C255 H258 0.950 . S
C256 C255 1.387 . S
C256 C259 1.387 . S
H257 C253 0.950 . S
H258 C255 0.950 . S
C259 C250 1.390 . S
C259 H252 0.950 . S
C259 C256 1.387 . S
C260 C261 1.387 . S
C260 H264 0.950 . S
C260 C269 1.390 . S
C261 C260 1.387 . S
C261 C263 1.387 . S
H262 C269 0.950 . S
C263 C261 1.387 . S
C263 C265 1.390 . S
C263 H267 0.950 1_655 S
H264 C260 0.950 . S
C265 C263 1.390 . S
C265 C266 1.387 . S
C265 H268 0.950 . S
C266 C265 1.387 . S
C266 C269 1.387 . S
H267 C263 0.950 1_455 S
H268 C265 0.950 . S
C269 C260 1.390 . S
C269 H262 0.950 . S
C269 C266 1.387 . S
C270 C271 1.387 . S
C270 H274 0.950 . S
C270 C279 1.390 . S
C271 C270 1.387 . S
C271 C273 1.387 . S
H272 C279 0.950 . S
C273 C271 1.387 . S
C273 C275 1.390 . S
C273 H277 0.950 . S
H274 C270 0.950 . S
C275 C273 1.390 . S
C275 C276 1.387 . S
C275 H278 0.950 . S
C276 C275 1.387 . S
C276 C279 1.387 . S
H277 C273 0.950 . S
H278 C275 0.950 . S
C279 C270 1.390 . S
C279 H272 0.950 . S
C279 C276 1.387 . S
C280 C281 1.387 . S
C280 H284 0.950 . S
C280 C289 1.390 . S
C281 C280 1.387 . S
C281 C283 1.387 . S
H282 C289 0.950 . S
C283 C281 1.387 . S
C283 C285 1.392 . S
C283 H287 0.950 . S
H284 C280 0.950 . S
C285 C283 1.392 . S
C285 C286 1.384 . S
C285 H288 0.951 1_655 S
C286 C285 1.384 . S
C286 C289 1.387 . S
H287 C283 0.950 . S
H288 C285 0.951 1_455 S
C289 C280 1.390 . S
C289 H282 0.950 . S
C289 C286 1.387 . S
C290 C291 1.387 . S
C290 H294 0.950 . S
C290 C299 1.390 . S
C291 C290 1.387 . S
C291 C293 1.387 . S
H292 C299 0.950 . S
C293 C291 1.387 . S
C293 C295 1.390 . S
C293 H297 0.950 . S
H294 C290 0.950 . S
C295 C293 1.390 . S
C295 C296 1.387 . S
C295 H298 0.950 . S
C296 C295 1.387 . S
C296 C299 1.387 . S
H297 C293 0.950 . S
H298 C295 0.950 . S
C299 C290 1.390 . S
C299 H292 0.950 . S
C299 C296 1.387 . S
C121 C68 0.873 1_566 S
C126 C8 0.873 1_556 S
C131 C88 0.878 . S
C136 C28 0.878 . S
C141 C108 0.878 . S
C146 C48 0.878 1_655 S
C151 C1 1.459 . S
C156 C42 1.420 . S
C161 C21 1.455 . S
C166 C62 1.416 . S
C171 C41 1.459 . S
C176 C82 1.420 . S
C181 C61 1.457 . S
C186 C102 1.420 . S
C191 C81 1.456 1_455 S
C196 C2 1.419 . S
C201 C101 1.459 1_545 S
C206 C22 1.421 . S
C211 C9 1.321 . S
C216 C69 1.321 1_545 S
C221 C29 1.321 . S
C226 C89 1.321 . S
C231 C49 1.320 1_455 S
C236 C109 1.320 . S
C241 C18 2.041 . S
C246 C39 2.080 . S
C251 C38 2.042 . S
C256 C59 2.079 . S
C261 C58 2.042 . S
C266 C79 2.079 . S
C271 C78 2.041 . S
C276 C99 2.079 . S
C281 C98 2.041 . S
C286 C119 2.079 1_655 S
C291 C118 2.042 . S
C296 C19 2.079 1_565 S
