# Generated by pormake.
# Topology uki, (4)-cn, num edge types: 1
# Building blocks:
#     Node 0, Type 0, BuildingBlock: NAWXER_clean_sbu_0, # of connection points: 4
#     Node 1, Type 0, BuildingBlock: NAWXER_clean_sbu_0, # of connection points: 4
#     Node 2, Type 0, BuildingBlock: NAWXER_clean_sbu_0, # of connection points: 4
#     Node 3, Type 0, BuildingBlock: NAWXER_clean_sbu_0, # of connection points: 4
#     Node 4, Type 0, BuildingBlock: NAWXER_clean_sbu_0, # of connection points: 4
#     Node 5, Type 0, BuildingBlock: NAWXER_clean_sbu_0, # of connection points: 4
#     Node 6, Type 0, BuildingBlock: NAWXER_clean_sbu_0, # of connection points: 4
#     Node 7, Type 0, BuildingBlock: NAWXER_clean_sbu_0, # of connection points: 4
#     Node 8, Type 0, BuildingBlock: NAWXER_clean_sbu_0, # of connection points: 4
#     Node 9, Type 0, BuildingBlock: NAWXER_clean_sbu_0, # of connection points: 4
#     Node 10, Type 0, BuildingBlock: NAWXER_clean_sbu_0, # of connection points: 4
#     Node 11, Type 0, BuildingBlock: NAWXER_clean_sbu_0, # of connection points: 4
#     Node 12, Type 0, BuildingBlock: NAWXER_clean_sbu_0, # of connection points: 4
#     Node 13, Type 0, BuildingBlock: NAWXER_clean_sbu_0, # of connection points: 4
#     Node 14, Type 0, BuildingBlock: NAWXER_clean_sbu_0, # of connection points: 4
#     Node 15, Type 0, BuildingBlock: NAWXER_clean_sbu_0, # of connection points: 4
#     Edge 16, Type (0, 0), BuildingBlock: CIFDUS_clean_linker_0, # of connection points: 2
#     Edge 17, Type (0, 0), BuildingBlock: CIFDUS_clean_linker_0, # of connection points: 2
#     Edge 18, Type (0, 0), BuildingBlock: CIFDUS_clean_linker_0, # of connection points: 2
#     Edge 19, Type (0, 0), BuildingBlock: CIFDUS_clean_linker_0, # of connection points: 2
#     Edge 20, Type (0, 0), BuildingBlock: CIFDUS_clean_linker_0, # of connection points: 2
#     Edge 21, Type (0, 0), BuildingBlock: CIFDUS_clean_linker_0, # of connection points: 2
#     Edge 22, Type (0, 0), BuildingBlock: CIFDUS_clean_linker_0, # of connection points: 2
#     Edge 23, Type (0, 0), BuildingBlock: CIFDUS_clean_linker_0, # of connection points: 2
#     Edge 24, Type (0, 0), BuildingBlock: CIFDUS_clean_linker_0, # of connection points: 2
#     Edge 25, Type (0, 0), BuildingBlock: CIFDUS_clean_linker_0, # of connection points: 2
#     Edge 26, Type (0, 0), BuildingBlock: CIFDUS_clean_linker_0, # of connection points: 2
#     Edge 27, Type (0, 0), BuildingBlock: CIFDUS_clean_linker_0, # of connection points: 2
#     Edge 28, Type (0, 0), BuildingBlock: CIFDUS_clean_linker_0, # of connection points: 2
#     Edge 29, Type (0, 0), BuildingBlock: CIFDUS_clean_linker_0, # of connection points: 2
#     Edge 30, Type (0, 0), BuildingBlock: CIFDUS_clean_linker_0, # of connection points: 2
#     Edge 31, Type (0, 0), BuildingBlock: CIFDUS_clean_linker_0, # of connection points: 2
#     Edge 32, Type (0, 0), BuildingBlock: CIFDUS_clean_linker_0, # of connection points: 2
#     Edge 33, Type (0, 0), BuildingBlock: CIFDUS_clean_linker_0, # of connection points: 2
#     Edge 34, Type (0, 0), BuildingBlock: CIFDUS_clean_linker_0, # of connection points: 2
#     Edge 35, Type (0, 0), BuildingBlock: CIFDUS_clean_linker_0, # of connection points: 2
#     Edge 36, Type (0, 0), BuildingBlock: CIFDUS_clean_linker_0, # of connection points: 2
#     Edge 37, Type (0, 0), BuildingBlock: CIFDUS_clean_linker_0, # of connection points: 2
#     Edge 38, Type (0, 0), BuildingBlock: CIFDUS_clean_linker_0, # of connection points: 2
#     Edge 39, Type (0, 0), BuildingBlock: CIFDUS_clean_linker_0, # of connection points: 2
#     Edge 40, Type (0, 0), BuildingBlock: CIFDUS_clean_linker_0, # of connection points: 2
#     Edge 41, Type (0, 0), BuildingBlock: CIFDUS_clean_linker_0, # of connection points: 2
#     Edge 42, Type (0, 0), BuildingBlock: CIFDUS_clean_linker_0, # of connection points: 2
#     Edge 43, Type (0, 0), BuildingBlock: CIFDUS_clean_linker_0, # of connection points: 2
#     Edge 44, Type (0, 0), BuildingBlock: CIFDUS_clean_linker_0, # of connection points: 2
#     Edge 45, Type (0, 0), BuildingBlock: CIFDUS_clean_linker_0, # of connection points: 2
#     Edge 46, Type (0, 0), BuildingBlock: CIFDUS_clean_linker_0, # of connection points: 2
#     Edge 47, Type (0, 0), BuildingBlock: CIFDUS_clean_linker_0, # of connection points: 2
# Relax obj value: 0.074
# Max RMSD: 0.234
# Mean RMSD: 0.234
data_MOF--net-uki--node1-NAWXER_clean_sbu_0--edge1-CIFDUS_clean_linker_0
_symmetry_space_group_name_H-M    P1
_symmetry_Int_Tables_number       1
_symmetry_cell_setting            triclinic
loop_
_symmetry_equiv_pos_as_xyz
'x, y, z'
_cell_length_a     27.471651
_cell_length_b     27.66351
_cell_length_c     63.679033
_cell_angle_alpha  89.883287
_cell_angle_beta   90.109403
_cell_angle_gamma 90.314313
loop_
_atom_site_label
_atom_site_type_symbol
_atom_site_fract_x
_atom_site_fract_y
_atom_site_fract_z
_atom_type_partial_charge
C0 C 0.16948 0.21897 0.33439 0.0
C1 C 0.03331 0.24978 0.28695 0.0
O2 O 0.1286 0.23785 0.33848 0.0
Zn3 Zn 0.10001 0.23206 0.31076 0.0
O4 O 0.1775 0.20265 0.31589 0.0
Zn5 Zn 0.13755 0.19595 0.28699 0.0
O6 O 0.17922 0.22775 0.26753 0.0
O7 O 0.14611 0.27723 0.29061 0.0
O8 O 0.06756 0.2262 0.27793 0.0
O9 O 0.03698 0.26031 0.30631 0.0
O10 O 0.08229 0.15637 0.30806 0.0
O11 O 0.13011 0.12741 0.28339 0.0
C12 C 0.17367 0.27026 0.27459 0.0
C13 C 0.09718 0.12074 0.29701 0.0
C14 C 0.28512 0.87212 0.73338 0.0
C15 C 0.13827 0.94745 0.7074 0.0
O16 O 0.2941 0.89614 0.71647 0.0
Zn17 Zn 0.25058 0.9386 0.69423 0.0
O18 O 0.24166 0.8686 0.73988 0.0
Zn19 Zn 0.21219 0.90718 0.7187 0.0
O20 O 0.21622 0.86283 0.69048 0.0
O21 O 0.25742 0.90736 0.66785 0.0
O22 O 0.1445 0.91906 0.7228 0.0
O23 O 0.1741 0.95742 0.69522 0.0
O24 O 0.28036 1.00103 0.69594 0.0
O25 O 0.24411 0.97795 0.72521 0.0
C26 C 0.23469 0.86864 0.67211 0.0
C27 C 0.26884 0.00949 0.71485 0.0
C28 C 0.85609 0.73411 0.27682 0.0
C29 C 0.93404 0.88299 0.29885 0.0
O30 O 0.84957 0.77689 0.27017 0.0
Zn31 Zn 0.89301 0.80798 0.28914 0.0
O32 O 0.88531 0.72655 0.29228 0.0
Zn33 Zn 0.93311 0.77112 0.31191 0.0
O34 O 0.9078 0.76356 0.33998 0.0
O35 O 0.85608 0.79958 0.31873 0.0
O36 O 0.95033 0.847 0.30938 0.0
O37 O 0.89959 0.87671 0.28587 0.0
O38 O 0.96241 0.77855 0.27866 0.0
O39 O 0.99552 0.74339 0.30637 0.0
C40 C 0.86635 0.78225 0.33689 0.0
C41 C 0.99751 0.75477 0.28705 0.0
C42 C 0.79363 0.16241 0.67598 0.0
C43 C 0.76012 0.01256 0.71341 0.0
O44 O 0.80433 0.16664 0.69553 0.0
Zn45 Zn 0.80496 0.1187 0.72248 0.0
O46 O 0.77905 0.12191 0.66905 0.0
Zn47 Zn 0.77914 0.08698 0.69508 0.0
O48 O 0.72449 0.12356 0.7145 0.0
O49 O 0.76482 0.15112 0.74206 0.0
O50 O 0.75409 0.022 0.69406 0.0
O51 O 0.77828 0.04498 0.72557 0.0
O52 O 0.87144 0.11324 0.73071 0.0
O53 O 0.85549 0.07365 0.70151 0.0
C54 C 0.72495 0.14581 0.73224 0.0
C55 C 0.88554 0.08583 0.71605 0.0
C56 C 0.02275 0.26316 0.97953 0.0
C57 C 0.16405 0.29178 0.93421 0.0
O58 O 0.02688 0.25198 0.96024 0.0
Zn59 Zn 0.09098 0.28022 0.95619 0.0
O60 O 0.05691 0.28711 0.98862 0.0
Zn61 Zn 0.12746 0.31709 0.98059 0.0
O62 O 0.12034 0.38576 0.98346 0.0
O63 O 0.07401 0.35558 0.95832 0.0
O64 O 0.16996 0.3086 0.95277 0.0
O65 O 0.12318 0.27359 0.92909 0.0
O66 O 0.13449 0.23594 0.97738 0.0
O67 O 0.16664 0.28531 1.00101 0.0
C68 C 0.08832 0.39165 0.96934 0.0
C69 C 0.16071 0.24282 0.99386 0.0
C70 C 0.28024 0.86325 0.09174 0.0
C71 C 0.2444 0.99099 0.04198 0.0
O72 O 0.29931 0.85381 0.07384 0.0
Zn73 Zn 0.305 0.89096 0.04402 0.0
O74 O 0.25704 0.90226 0.09415 0.0
Zn75 Zn 0.26315 0.92734 0.06623 0.0
O76 O 0.22277 0.87824 0.04582 0.0
O77 O 0.27669 0.84641 0.02431 0.0
O78 O 0.23084 0.98679 0.06096 0.0
O79 O 0.27134 0.95841 0.03365 0.0
O80 O 0.37396 0.90498 0.04128 0.0
O81 O 0.33728 0.95226 0.06405 0.0
C82 C 0.23281 0.85047 0.03027 0.0
C83 C 0.37557 0.94046 0.05387 0.0
C84 C 0.84704 0.72536 0.93154 0.0
C85 C 0.98687 0.75183 0.97807 0.0
O86 O 0.8883 0.7434 0.92699 0.0
Zn87 Zn 0.91921 0.73578 0.95431 0.0
O88 O 0.84002 0.70795 0.94994 0.0
Zn89 Zn 0.88169 0.69833 0.97809 0.0
O90 O 0.84203 0.72926 0.99839 0.0
O91 O 0.87526 0.7796 0.97539 0.0
O92 O 0.95238 0.72773 0.98687 0.0
O93 O 0.98315 0.76371 0.95882 0.0
O94 O 0.93626 0.66031 0.95636 0.0
O95 O 0.88831 0.6296 0.98078 0.0
C96 C 0.84844 0.77205 0.99162 0.0
C97 C 0.9212 0.624 0.9671 0.0
C98 C 0.73243 0.14655 0.09265 0.0
C99 C 0.76555 0.02134 0.04171 0.0
O100 O 0.71293 0.15723 0.07492 0.0
Zn101 Zn 0.70549 0.1215 0.04487 0.0
O102 O 0.75487 0.10697 0.09467 0.0
Zn103 Zn 0.74766 0.08358 0.06658 0.0
O104 O 0.7877 0.13358 0.04642 0.0
O105 O 0.73337 0.16681 0.02534 0.0
O106 O 0.77956 0.0244 0.06069 0.0
O107 O 0.73854 0.05448 0.03375 0.0
O108 O 0.63632 0.10804 0.04236 0.0
O109 O 0.67343 0.0591 0.06445 0.0
C110 C 0.77739 0.16218 0.03113 0.0
C111 C 0.6349 0.07173 0.05455 0.0
C112 C 0.52566 0.76906 0.78783 0.0
C113 C 0.65893 0.72643 0.83534 0.0
O114 O 0.52832 0.77763 0.80743 0.0
Zn115 Zn 0.58907 0.74428 0.81223 0.0
O116 O 0.55893 0.74404 0.77892 0.0
Zn117 Zn 0.62602 0.70865 0.78758 0.0
O118 O 0.61271 0.64047 0.78286 0.0
O119 O 0.56588 0.67131 0.80746 0.0
O120 O 0.66601 0.71153 0.81655 0.0
O121 O 0.61837 0.74538 0.84003 0.0
O122 O 0.63826 0.78841 0.7937 0.0
O123 O 0.66961 0.74233 0.76881 0.0
C124 C 0.57809 0.63567 0.79587 0.0
C125 C 0.66594 0.78341 0.77763 0.0
C126 C 0.73328 0.35851 0.17746 0.0
C127 C 0.76095 0.48592 0.22831 0.0
O128 O 0.71584 0.34638 0.19541 0.0
Zn129 Zn 0.70839 0.38107 0.22567 0.0
O130 O 0.75307 0.39965 0.17525 0.0
Zn131 Zn 0.74557 0.42222 0.20346 0.0
O132 O 0.79095 0.37512 0.22292 0.0
O133 O 0.74033 0.33772 0.24449 0.0
O134 O 0.77291 0.48415 0.20908 0.0
O135 O 0.73725 0.45055 0.23662 0.0
O136 O 0.63897 0.38701 0.22904 0.0
O137 O 0.66907 0.43847 0.20596 0.0
C138 C 0.78349 0.34551 0.2382 0.0
C139 C 0.63272 0.42175 0.21632 0.0
C140 C 0.36168 0.28944 0.84207 0.0
C141 C 0.5037 0.24239 0.80133 0.0
O142 O 0.40112 0.27055 0.84831 0.0
Zn143 Zn 0.43491 0.26933 0.8218 0.0
O144 O 0.35784 0.303 0.82287 0.0
Zn145 Zn 0.40411 0.30305 0.7955 0.0
O146 O 0.36441 0.26932 0.77552 0.0
O147 O 0.38946 0.22371 0.80194 0.0
O148 O 0.47325 0.26677 0.79029 0.0
O149 O 0.49545 0.23522 0.82073 0.0
O150 O 0.46045 0.34193 0.81663 0.0
O151 O 0.41859 0.37035 0.78983 0.0
C152 C 0.3655 0.2285 0.78472 0.0
C153 C 0.451 0.3764 0.80381 0.0
C154 C 0.29232 0.64811 0.17525 0.0
C155 C 0.26642 0.51976 0.22602 0.0
O156 O 0.31002 0.66013 0.19317 0.0
Zn157 Zn 0.31898 0.62469 0.22325 0.0
O158 O 0.27337 0.60662 0.17298 0.0
Zn159 Zn 0.28149 0.58369 0.20119 0.0
O160 O 0.23647 0.6306 0.22086 0.0
O161 O 0.28787 0.66766 0.24222 0.0
O162 O 0.25403 0.5218 0.20683 0.0
O163 O 0.29036 0.55499 0.23429 0.0
O164 O 0.38842 0.61907 0.2264 0.0
O165 O 0.35801 0.56699 0.2037 0.0
C166 C 0.2445 0.66002 0.23612 0.0
C167 C 0.39448 0.58397 0.21394 0.0
C168 C 0.49807 0.7431 0.45898 0.0
C169 C 0.63634 0.77582 0.41339 0.0
O170 O 0.50237 0.73464 0.43948 0.0
Zn171 Zn 0.56703 0.76084 0.43637 0.0
O172 O 0.53311 0.76379 0.46889 0.0
Zn173 Zn 0.60458 0.79216 0.46148 0.0
O174 O 0.59743 0.85935 0.46792 0.0
O175 O 0.55385 0.83705 0.44045 0.0
O176 O 0.64508 0.79002 0.43223 0.0
O177 O 0.59519 0.75743 0.40899 0.0
O178 O 0.61068 0.7114 0.4553 0.0
O179 O 0.64399 0.75582 0.48035 0.0
C180 C 0.5676 0.86979 0.45341 0.0
C181 C 0.63752 0.71488 0.4718 0.0
C182 C 0.78563 0.35903 0.58408 0.0
C183 C 0.73901 0.49901 0.5423 0.0
O184 O 0.80221 0.35637 0.56531 0.0
Zn185 Zn 0.80362 0.40215 0.53793 0.0
O186 O 0.76268 0.39649 0.58968 0.0
Zn187 Zn 0.76419 0.43042 0.56317 0.0
O188 O 0.72334 0.38433 0.54163 0.0
O189 O 0.77481 0.36184 0.51691 0.0
O190 O 0.72872 0.48972 0.56135 0.0
O191 O 0.76608 0.46991 0.5319 0.0
O192 O 0.8714 0.41825 0.53446 0.0
O193 O 0.83743 0.45754 0.56067 0.0
C194 C 0.73214 0.36123 0.52456 0.0
C195 C 0.87438 0.44937 0.549 0.0
C196 C 0.42479 0.11568 0.47186 0.0
C197 C 0.34945 0.26491 0.49338 0.0
O198 O 0.39352 0.1236 0.48601 0.0
Zn199 Zn 0.38357 0.19072 0.4807 0.0
O200 O 0.43726 0.14996 0.45936 0.0
Zn201 Zn 0.41926 0.22565 0.45617 0.0
O202 O 0.48255 0.25495 0.4592 0.0
O203 O 0.45379 0.22267 0.48842 0.0
O204 O 0.37555 0.27168 0.47685 0.0
O205 O 0.34364 0.22244 0.50055 0.0
O206 O 0.34109 0.19554 0.45214 0.0
O207 O 0.38906 0.23098 0.42905 0.0
C208 C 0.48738 0.24601 0.47867 0.0
C209 C 0.34831 0.21193 0.43352 0.0
C210 C 0.28616 0.65396 0.53527 0.0
C211 C 0.13783 0.56949 0.55487 0.0
O212 O 0.29317 0.62522 0.55086 0.0
Zn213 Zn 0.24888 0.5766 0.56987 0.0
O214 O 0.24341 0.65985 0.52809 0.0
Zn215 Zn 0.21133 0.61589 0.54681 0.0
O216 O 0.2163 0.65187 0.57667 0.0
O217 O 0.25292 0.60121 0.59813 0.0
O218 O 0.14239 0.6054 0.54261 0.0
O219 O 0.1743 0.55531 0.56576 0.0
O220 O 0.2795 0.51596 0.5644 0.0
O221 O 0.24357 0.54813 0.5366 0.0
C222 C 0.23271 0.64169 0.59501 0.0
C223 C 0.26831 0.51392 0.54503 0.0
H224 H 0.19297 0.36046 0.28983 0.0
H225 H 0.20379 0.27283 0.23403 0.0
H226 H 0.23414 0.34215 0.21424 0.0
H227 H 0.25415 0.42834 0.21227 0.0
H228 H 0.2482 0.51585 0.26814 0.0
H229 H 0.21967 0.44592 0.28847 0.0
C230 C 0.20227 0.35658 0.27337 0.0
C231 C 0.19581 0.31168 0.26338 0.0
C232 C 0.22041 0.39654 0.2621 0.0
C233 C 0.20852 0.30696 0.24212 0.0
C234 C 0.2257 0.34662 0.23074 0.0
C235 C 0.24673 0.43202 0.22892 0.0
C236 C 0.25268 0.47713 0.23868 0.0
C237 C 0.23121 0.39166 0.2405 0.0
C238 C 0.24382 0.48136 0.26032 0.0
C239 C 0.22737 0.44148 0.27191 0.0
H240 H 0.43365 0.79063 0.80041 0.0
H241 H 0.52759 0.7906 0.74622 0.0
H242 H 0.46191 0.82278 0.72449 0.0
H243 H 0.37756 0.85129 0.72085 0.0
H244 H 0.28228 0.84655 0.77463 0.0
H245 H 0.34833 0.81576 0.79641 0.0
C246 C 0.43968 0.79783 0.78386 0.0
C247 C 0.4854 0.78851 0.77496 0.0
C248 C 0.4014 0.81532 0.77133 0.0
C249 C 0.4926 0.79737 0.75343 0.0
C250 C 0.4551 0.81584 0.74099 0.0
C251 C 0.37129 0.84341 0.73732 0.0
C252 C 0.3251 0.85131 0.74608 0.0
C253 C 0.4093 0.82495 0.74975 0.0
C254 C 0.31743 0.84057 0.76743 0.0
C255 C 0.35525 0.82312 0.77996 0.0
H256 H 0.77173 0.57779 0.21479 0.0
H257 H 0.78156 0.48869 0.27024 0.0
H258 H 0.81111 0.55812 0.29054 0.0
H259 H 0.83782 0.64354 0.29192 0.0
H260 H 0.82301 0.73284 0.23664 0.0
H261 H 0.79144 0.66405 0.2169 0.0
C262 C 0.78019 0.57368 0.23134 0.0
C263 C 0.77509 0.52827 0.24099 0.0
C264 C 0.79629 0.61375 0.24292 0.0
C265 C 0.78529 0.52344 0.26251 0.0
C266 C 0.80232 0.56303 0.27408 0.0
C267 C 0.82737 0.64789 0.2756 0.0
C268 C 0.83309 0.69308 0.26571 0.0
C269 C 0.80853 0.60825 0.26437 0.0
C270 C 0.81888 0.69846 0.24463 0.0
C271 C 0.801 0.6591 0.23329 0.0
H272 H 0.51945 0.22518 0.75985 0.0
H273 H 0.58799 0.21638 0.82078 0.0
H274 H 0.66256 0.1866 0.80463 0.0
H275 H 0.70841 0.16362 0.77331 0.0
H276 H 0.63923 0.16781 0.71247 0.0
H277 H 0.56462 0.19881 0.72847 0.0
C278 C 0.55077 0.2168 0.76957 0.0
C279 C 0.54832 0.22325 0.79148 0.0
C280 C 0.59331 0.19891 0.76021 0.0
C281 C 0.58892 0.21165 0.8039 0.0
C282 C 0.6316 0.19474 0.79468 0.0
C283 C 0.67706 0.17148 0.76352 0.0
C284 C 0.67945 0.16389 0.74171 0.0
C285 C 0.63422 0.18837 0.77286 0.0
C286 C 0.63828 0.17343 0.72929 0.0
C287 C 0.59569 0.19121 0.73843 0.0
H288 H 0.23014 0.08119 0.05664 0.0
H289 H 0.2282 0.9966 0.99985 0.0
H290 H 0.20297 0.06766 0.97965 0.0
H291 H 0.17933 0.15337 0.97848 0.0
H292 H 0.18639 0.23868 0.03509 0.0
H293 H 0.21231 0.16788 0.05503 0.0
C294 C 0.22405 0.0784 0.03985 0.0
C295 C 0.23029 0.03384 0.02973 0.0
C296 C 0.21076 0.11949 0.02833 0.0
C297 C 0.22339 0.03067 0.00792 0.0
C298 C 0.20897 0.0712 0.99641 0.0
C299 C 0.18684 0.15644 0.99516 0.0
C300 C 0.18071 0.20103 1.00533 0.0
C301 C 0.20228 0.11573 1.00648 0.0
C302 C 0.19104 0.20475 0.02689 0.0
C303 C 0.20559 0.16426 0.03833 0.0
H304 H 0.14134 0.82862 0.04374 0.0
H305 H 0.23484 0.82023 0.98955 0.0
H306 H 0.16719 0.78927 0.96844 0.0
H307 H 0.08014 0.76769 0.96498 0.0
H308 H 0.98832 0.77126 0.0198 0.0
H309 H 0.05635 0.8009 0.04099 0.0
C310 C 0.14697 0.81965 0.02736 0.0
C311 C 0.193 0.82698 0.01823 0.0
C312 C 0.10804 0.80125 0.01536 0.0
C313 C 0.19983 0.81475 0.99701 0.0
C314 C 0.16107 0.79729 0.98488 0.0
C315 C 0.07518 0.77489 0.98157 0.0
C316 C 0.02921 0.76768 0.99077 0.0
C317 C 0.11483 0.79095 0.99381 0.0
C318 C 0.02339 0.77646 0.01236 0.0
C319 C 0.06225 0.79352 0.02449 0.0
H320 H 0.83034 0.86243 0.97691 0.0
H321 H 0.82229 0.77399 0.03273 0.0
H322 H 0.7964 0.8437 0.0532 0.0
H323 H 0.77899 0.93029 0.05553 0.0
H324 H 0.78176 0.01818 0.99955 0.0
H325 H 0.80687 0.94818 0.97877 0.0
C326 C 0.82261 0.85846 0.99353 0.0
C327 C 0.82846 0.8133 1.00334 0.0
C328 C 0.80715 0.89856 1.00516 0.0
C329 C 0.81785 0.80838 0.02481 0.0
C330 C 0.80331 0.84825 0.03655 0.0
C331 C 0.7852 0.93402 0.03878 0.0
C332 C 0.77928 0.97917 0.02906 0.0
C333 C 0.79842 0.89357 0.02694 0.0
C334 C 0.78633 0.9836 1.00732 0.0
C335 C 0.8007 0.94369 0.99547 0.0
H336 H 0.86901 0.18319 0.04462 0.0
H337 H 0.7748 0.19415 0.99058 0.0
H338 H 0.84226 0.22591 0.96961 0.0
H339 H 0.92935 0.24764 0.96624 0.0
H340 H 0.02171 0.24141 0.02101 0.0
H341 H 0.95394 0.21078 0.042 0.0
C342 C 0.86318 0.19288 0.02829 0.0
C343 C 0.81703 0.18608 0.01916 0.0
C344 C 0.90197 0.21172 0.01639 0.0
C345 C 0.80993 0.19923 0.99803 0.0
C346 C 0.84857 0.21714 0.98598 0.0
C347 C 0.93447 0.23962 0.98277 0.0
C348 C 0.98051 0.24642 0.99202 0.0
C349 C 0.89495 0.22301 0.99492 0.0
C350 C 0.98656 0.23656 0.01353 0.0
C351 C 0.94786 0.21894 0.02555 0.0
H352 H 0.68777 0.80185 0.73675 0.0
H353 H 0.69773 0.86202 0.79906 0.0
H354 H 0.73033 0.93742 0.7847 0.0
H355 H 0.75121 0.98786 0.75443 0.0
H356 H 0.73649 0.93021 0.6918 0.0
H357 H 0.71044 0.85232 0.70626 0.0
C358 C 0.69786 0.83126 0.74716 0.0
C359 C 0.69061 0.82644 0.76891 0.0
C360 C 0.71515 0.87511 0.73873 0.0
C361 C 0.70298 0.86501 0.78224 0.0
C362 C 0.7215 0.90813 0.77405 0.0
C363 C 0.74264 0.95819 0.74392 0.0
C364 C 0.74571 0.9649 0.72207 0.0
C365 C 0.72692 0.91387 0.75231 0.0
C366 C 0.73417 0.92611 0.70869 0.0
C367 C 0.71938 0.88151 0.71694 0.0
H368 H 0.94101 0.26301 0.30087 0.0
H369 H 0.03017 0.27231 0.24535 0.0
H370 H 0.96083 0.30256 0.22514 0.0
H371 H 0.87508 0.3286 0.22354 0.0
H372 H 0.78489 0.31367 0.27859 0.0
H373 H 0.85408 0.28317 0.2986 0.0
C374 C 0.94515 0.27161 0.28434 0.0
C375 C 0.99064 0.26586 0.27464 0.0
C376 C 0.90488 0.28792 0.27271 0.0
C377 C 0.99542 0.2764 0.25314 0.0
C378 C 0.95584 0.29382 0.2416 0.0
C379 C 0.8706 0.31841 0.23988 0.0
C380 C 0.82498 0.32362 0.24957 0.0
C381 C 0.91044 0.30003 0.25125 0.0
C382 C 0.81956 0.30982 0.27071 0.0
C383 C 0.85918 0.29257 0.28222 0.0
H384 H 0.27763 0.02773 0.75658 0.0
H385 H 0.29512 0.09358 0.69556 0.0
H386 H 0.32298 0.16856 0.71193 0.0
H387 H 0.34565 0.21429 0.74349 0.0
H388 H 0.3338 0.14666 0.80438 0.0
H389 H 0.30013 0.07364 0.78821 0.0
C390 C 0.28721 0.05863 0.7469 0.0
C391 C 0.28431 0.05515 0.72491 0.0
C392 C 0.30424 0.10128 0.7564 0.0
C393 C 0.29731 0.09529 0.71253 0.0
C394 C 0.31314 0.1382 0.72187 0.0
C395 C 0.33514 0.18376 0.75322 0.0
C396 C 0.34195 0.18587 0.77508 0.0
C397 C 0.31716 0.14146 0.74377 0.0
C398 C 0.32892 0.14581 0.78749 0.0
C399 C 0.30972 0.10407 0.77827 0.0
H400 H 0.09047 0.74185 0.29998 0.0
H401 H 0.99826 0.7338 0.24524 0.0
H402 H 0.06655 0.70395 0.22436 0.0
H403 H 0.15223 0.67749 0.22206 0.0
H404 H 0.24506 0.69119 0.2765 0.0
H405 H 0.17704 0.72167 0.29702 0.0
C406 C 0.08543 0.73365 0.28347 0.0
C407 C 0.03942 0.73955 0.27419 0.0
C408 C 0.12501 0.71752 0.2715 0.0
C409 C 0.03345 0.72956 0.25271 0.0
C410 C 0.07242 0.71236 0.24079 0.0
C411 C 0.15751 0.68741 0.23838 0.0
C412 C 0.20356 0.68183 0.24776 0.0
C413 C 0.11831 0.7058 0.25006 0.0
C414 C 0.21005 0.6953 0.26886 0.0
C415 C 0.17111 0.71255 0.28066 0.0
H416 H 0.72285 0.51389 0.50073 0.0
H417 H 0.71281 0.58307 0.56122 0.0
H418 H 0.68277 0.65678 0.54453 0.0
H419 H 0.65858 0.70121 0.51285 0.0
H420 H 0.66248 0.63042 0.4526 0.0
H421 H 0.69585 0.55761 0.46905 0.0
C422 C 0.71421 0.5452 0.51022 0.0
C423 C 0.72024 0.54321 0.53215 0.0
C424 C 0.69592 0.58707 0.50057 0.0
C425 C 0.7083 0.58372 0.54432 0.0
C426 C 0.69127 0.62589 0.53478 0.0
C427 C 0.66708 0.66994 0.50331 0.0
C428 C 0.65859 0.67123 0.48154 0.0
C429 C 0.68491 0.62794 0.51294 0.0
C430 C 0.66883 0.63021 0.4694 0.0
C431 C 0.6879 0.58866 0.47879 0.0
H432 H 0.64552 0.33111 0.54049 0.0
H433 H 0.72915 0.33573 0.48322 0.0
H434 H 0.66097 0.3001 0.4639 0.0
H435 H 0.57634 0.27039 0.46303 0.0
H436 H 0.49428 0.26239 0.52066 0.0
H437 H 0.56305 0.29643 0.54006 0.0
C438 C 0.64887 0.32412 0.5238 0.0
C439 C 0.69217 0.33634 0.51328 0.0
C440 C 0.60974 0.30314 0.51283 0.0
C441 C 0.69621 0.32656 0.4917 0.0
C442 C 0.65718 0.30636 0.48062 0.0
C443 C 0.57363 0.276 0.47984 0.0
C444 C 0.53021 0.2642 0.49036 0.0
C445 C 0.61358 0.29497 0.49097 0.0
C446 C 0.52737 0.27108 0.51219 0.0
C447 C 0.56661 0.29069 0.5233 0.0
H448 H 0.27946 0.42168 0.55811 0.0
H449 H 0.28912 0.51276 0.50325 0.0
H450 H 0.31451 0.44355 0.48208 0.0
H451 H 0.33556 0.35716 0.47946 0.0
H452 H 0.32051 0.26579 0.53414 0.0
H453 H 0.29519 0.33488 0.555 0.0
C454 C 0.28728 0.4263 0.54153 0.0
C455 C 0.28304 0.47214 0.53226 0.0
C456 C 0.30062 0.38626 0.5294 0.0
C457 C 0.29229 0.47766 0.5107 0.0
C458 C 0.30681 0.43817 0.49861 0.0
C459 C 0.32644 0.35241 0.4959 0.0
C460 C 0.3301 0.30645 0.50523 0.0
C461 C 0.31127 0.39229 0.50782 0.0
C462 C 0.31779 0.30072 0.52652 0.0
C463 C 0.30355 0.34027 0.53853 0.0
H464 H 0.48735 0.73061 0.50098 0.0
H465 H 0.40831 0.72372 0.44243 0.0
H466 H 0.33449 0.69966 0.46121 0.0
H467 H 0.29328 0.67755 0.49411 0.0
H468 H 0.37397 0.67837 0.55227 0.0
H469 H 0.44621 0.70839 0.53386 0.0
C470 C 0.45389 0.72412 0.49234 0.0
C471 C 0.45328 0.72899 0.47035 0.0
C472 C 0.4119 0.70934 0.50319 0.0
C473 C 0.40979 0.71997 0.45935 0.0
C474 C 0.36754 0.70636 0.47008 0.0
C475 C 0.32651 0.68499 0.50278 0.0
C476 C 0.32828 0.67621 0.52453 0.0
C477 C 0.36826 0.70063 0.49198 0.0
C478 C 0.37178 0.68501 0.53552 0.0
C479 C 0.41307 0.70203 0.525 0.0
H480 H 0.35807 0.21418 0.39113 0.0
H481 H 0.25027 0.20645 0.4402 0.0
H482 H 0.18516 0.20894 0.41394 0.0
H483 H 0.15885 0.21499 0.37692 0.0
H484 H 0.26715 0.21743 0.32795 0.0
H485 H 0.33198 0.21541 0.35424 0.0
C486 C 0.32031 0.21292 0.39607 0.0
C487 C 0.30901 0.21042 0.41758 0.0
C488 C 0.28313 0.21358 0.38089 0.0
C489 C 0.25993 0.20823 0.42373 0.0
C490 C 0.22268 0.20985 0.40873 0.0
C491 C 0.19666 0.21512 0.37205 0.0
C492 C 0.20821 0.21671 0.35054 0.0
C493 C 0.23383 0.21286 0.38726 0.0
C494 C 0.25733 0.21615 0.34442 0.0
C495 C 0.29443 0.21509 0.35943 0.0
H496 H 0.2237 0.73867 0.59113 0.0
H497 H 0.23582 0.62524 0.63737 0.0
H498 H 0.23377 0.68518 0.66559 0.0
H499 H 0.23187 0.77063 0.67706 0.0
H500 H 0.22659 0.88343 0.63026 0.0
H501 H 0.22228 0.82316 0.6024 0.0
C502 C 0.22547 0.72703 0.60739 0.0
C503 C 0.22972 0.67762 0.61215 0.0
C504 C 0.22561 0.7617 0.62346 0.0
C505 C 0.23266 0.66314 0.63329 0.0
C506 C 0.23144 0.69738 0.64943 0.0
C507 C 0.2293 0.78182 0.66076 0.0
C508 C 0.22942 0.83131 0.65569 0.0
C509 C 0.22836 0.74685 0.64471 0.0
C510 C 0.22676 0.84549 0.63452 0.0
C511 C 0.22427 0.81107 0.61858 0.0
H512 H 0.73482 0.77726 0.41832 0.0
H513 H 0.62175 0.78349 0.3713 0.0
H514 H 0.68294 0.78836 0.3436 0.0
H515 H 0.76843 0.78867 0.33261 0.0
H516 H 0.88185 0.77653 0.37923 0.0
H517 H 0.82084 0.77615 0.40718 0.0
C518 C 0.72369 0.78004 0.40201 0.0
C519 C 0.67387 0.78022 0.39686 0.0
C520 C 0.75913 0.78158 0.38609 0.0
C521 C 0.65989 0.78315 0.37566 0.0
C522 C 0.69484 0.78599 0.35981 0.0
C523 C 0.77982 0.78626 0.3489 0.0
C524 C 0.82958 0.78288 0.35385 0.0
C525 C 0.74454 0.78491 0.36483 0.0
C526 C 0.84373 0.77908 0.37501 0.0
C527 C 0.80887 0.77893 0.391 0.0
H528 H 0.80235 0.16194 0.63355 0.0
H529 H 0.78955 0.2579 0.68653 0.0
H530 H 0.78631 0.32752 0.66282 0.0
H531 H 0.78371 0.36077 0.62685 0.0
H532 H 0.8008 0.26476 0.57409 0.0
H533 H 0.80587 0.1956 0.59787 0.0
C534 C 0.79909 0.19813 0.6399 0.0
C535 C 0.79582 0.20474 0.66175 0.0
C536 C 0.79784 0.23797 0.6262 0.0
C537 C 0.79223 0.25187 0.66977 0.0
C538 C 0.79016 0.29167 0.65622 0.0
C539 C 0.78869 0.3247 0.62059 0.0
C540 C 0.79147 0.31786 0.59873 0.0
C541 C 0.79237 0.2851 0.63439 0.0
C542 C 0.79859 0.27102 0.59085 0.0
C543 C 0.80137 0.23141 0.60443 0.0
H544 H 0.16164 0.29391 0.89128 0.0
H545 H 0.26001 0.29068 0.94415 0.0
H546 H 0.32967 0.29001 0.92047 0.0
H547 H 0.36299 0.28918 0.88475 0.0
H548 H 0.26555 0.29734 0.83169 0.0
H549 H 0.19548 0.29767 0.85532 0.0
C550 C 0.19835 0.29301 0.89756 0.0
C551 C 0.20561 0.29208 0.91943 0.0
C552 C 0.2385 0.29372 0.88381 0.0
C553 C 0.2534 0.29155 0.92737 0.0
C554 C 0.29332 0.29108 0.91384 0.0
C555 C 0.32642 0.29122 0.87836 0.0
C556 C 0.31954 0.29304 0.85649 0.0
C557 C 0.28634 0.29206 0.89204 0.0
C558 C 0.27191 0.29612 0.84847 0.0
C559 C 0.23177 0.29608 0.86198 0.0
H560 H 0.2918 0.74617 0.17682 0.0
H561 H 0.29425 0.62639 0.13361 0.0
H562 H 0.29366 0.6824 0.10386 0.0
H563 H 0.28999 0.76559 0.09007 0.0
H564 H 0.28052 0.88486 0.13335 0.0
H565 H 0.28641 0.82914 0.16306 0.0
C566 C 0.29256 0.73244 0.16088 0.0
C567 C 0.29331 0.68232 0.15739 0.0
C568 C 0.29079 0.7648 0.14385 0.0
C569 C 0.29355 0.66489 0.13667 0.0
C570 C 0.29328 0.69687 0.11966 0.0
C571 C 0.28955 0.77929 0.10602 0.0
C572 C 0.28503 0.8292 0.10953 0.0
C573 C 0.29155 0.74691 0.12305 0.0
C574 C 0.28381 0.84652 0.13026 0.0
C575 C 0.28725 0.81471 0.14726 0.0
H576 H 0.85323 0.72418 0.88882 0.0
H577 H 0.74998 0.72616 0.93974 0.0
H578 H 0.68253 0.72715 0.91467 0.0
H579 H 0.65264 0.728 0.87814 0.0
H580 H 0.7559 0.72049 0.8273 0.0
H581 H 0.82323 0.72086 0.85236 0.0
C582 C 0.81595 0.72491 0.89439 0.0
C583 C 0.80664 0.72537 0.91609 0.0
C584 C 0.77722 0.72432 0.87988 0.0
C585 C 0.75813 0.72567 0.9231 0.0
C586 C 0.7195 0.72632 0.90877 0.0
C587 C 0.68988 0.72633 0.87258 0.0
C588 C 0.69915 0.72434 0.85088 0.0
C589 C 0.72857 0.72569 0.88711 0.0
C590 C 0.74765 0.72178 0.84392 0.0
C591 C 0.78627 0.72219 0.85824 0.0
H592 H 0.72718 0.24458 0.0916 0.0
H593 H 0.73181 0.12314 0.1341 0.0
H594 H 0.72972 0.17782 0.16418 0.0
H595 H 0.72916 0.2604 0.17846 0.0
H596 H 0.73154 0.38197 0.13595 0.0
H597 H 0.72829 0.32726 0.10589 0.0
C598 C 0.72734 0.2302 0.10746 0.0
C599 C 0.7294 0.17999 0.11066 0.0
C600 C 0.72762 0.26192 0.12469 0.0
C601 C 0.73035 0.16173 0.13127 0.0
C602 C 0.72911 0.19295 0.14847 0.0
C603 C 0.72867 0.27483 0.1626 0.0
C604 C 0.73042 0.32508 0.15942 0.0
C605 C 0.72813 0.24313 0.14538 0.0
C606 C 0.7304 0.34335 0.1388 0.0
C607 C 0.72845 0.31211 0.1216 0.0
H608 H 0.03015 0.90267 0.30073 0.0
H609 H 0.88914 0.97012 0.30076 0.0
H610 H 0.92759 0.05021 0.30221 0.0
H611 H 1.00154 0.10094 0.30164 0.0
H612 H 0.14215 0.03353 0.29698 0.0
H613 H 0.10401 0.95341 0.29924 0.0
C614 C 1.00802 0.93501 0.3013 0.0
C615 C 0.95707 0.93088 0.30086 0.0
C616 C 0.03039 0.98076 0.30119 0.0
C617 C 0.9285 0.97276 0.30113 0.0
C618 C 0.95044 0.0184 0.30195 0.0
C619 C 0.0237 0.0686 0.30135 0.0
C620 C 0.07444 0.07276 0.29935 0.0
C621 C 1.00135 0.02284 0.30174 0.0
C622 C 0.10296 0.03089 0.29854 0.0
C623 C 0.08119 0.98521 0.29983 0.0
H624 H 0.94048 0.05025 0.68387 0.0
H625 H 0.93965 0.07131 0.75102 0.0
H626 H 0.01659 0.02865 0.75419 0.0
H627 H 0.08323 0.98377 0.73819 0.0
H628 H 0.08971 0.96832 0.67096 0.0
H629 H 0.01142 0.01017 0.66742 0.0
C630 C 0.95743 0.04571 0.69914 0.0
C631 C 0.93434 0.06378 0.71718 0.0
C632 C 1.0024 0.02185 0.70084 0.0
C633 C 0.95681 0.05805 0.73687 0.0
C634 C 1.00068 0.03339 0.73873 0.0
C635 C 0.06728 0.98939 0.72278 0.0
C636 C 0.09141 0.97241 0.70489 0.0
C637 C 0.02353 0.01479 0.72088 0.0
C638 C 0.07132 0.98089 0.68494 0.0
C639 C 0.02671 0.00479 0.68294 0.0
H640 H 0.9927 0.40846 0.96425 0.0
H641 H 0.13194 0.4801 0.9692 0.0
H642 H 0.09223 0.55905 0.96664 0.0
H643 H 0.01738 0.60741 0.96503 0.0
H644 H 0.87774 0.53569 0.96493 0.0
H645 H 0.9178 0.45678 0.96344 0.0
C646 C 0.01422 0.44147 0.96452 0.0
C647 C 0.065 0.43891 0.96669 0.0
C648 C 0.99098 0.48646 0.96399 0.0
C649 C 0.09272 0.48158 0.96749 0.0
C650 C 0.07007 0.52655 0.96603 0.0
C651 C 0.99591 0.57439 0.96441 0.0
C652 C 0.94491 0.57689 0.96484 0.0
C653 C 0.01919 0.5294 0.96455 0.0
C654 C 0.91714 0.53422 0.96453 0.0
C655 C 0.93999 0.48929 0.9637 0.0
H656 H 0.47013 0.91177 0.05439 0.0
H657 H 0.37904 0.038 0.05653 0.0
H658 H 0.45102 0.09043 0.05663 0.0
H659 H 0.54031 0.10044 0.05513 0.0
H660 H 0.63138 0.97409 0.05661 0.0
H661 H 0.55941 0.9217 0.05619 0.0
C662 C 0.46626 0.95074 0.05498 0.0
C663 C 0.41958 0.97111 0.05532 0.0
C664 C 0.50783 0.98063 0.05567 0.0
C665 C 0.41476 0.02159 0.05635 0.0
C666 C 0.45585 0.05158 0.05632 0.0
C667 C 0.54418 0.06144 0.05547 0.0
C668 C 0.59087 0.04106 0.05577 0.0
C669 C 0.5026 0.03153 0.05584 0.0
C670 C 0.59566 0.99053 0.05647 0.0
C671 C 0.55457 0.96056 0.05614 0.0
H672 H 0.42262 0.46738 0.79344 0.0
H673 H 0.54604 0.38527 0.81498 0.0
H674 H 0.59738 0.45769 0.81353 0.0
H675 H 0.60751 0.54478 0.80566 0.0
H676 H 0.48227 0.62816 0.78755 0.0
H677 H 0.43133 0.55522 0.78802 0.0
C678 C 0.46071 0.46552 0.79789 0.0
C679 C 0.48059 0.42115 0.80423 0.0
C680 C 0.48972 0.50754 0.79751 0.0
C681 C 0.52986 0.41918 0.81017 0.0
C682 C 0.55931 0.46049 0.80924 0.0
C683 C 0.56909 0.54664 0.80179 0.0
C684 C 0.54851 0.59124 0.79633 0.0
C685 C 0.53973 0.50486 0.80283 0.0
C686 C 0.49864 0.59387 0.7917 0.0
C687 C 0.46959 0.55228 0.79198 0.0
H688 H 0.61347 0.5169 0.21194 0.0
H689 H 0.54418 0.37715 0.21663 0.0
H690 H 0.4639 0.41501 0.21439 0.0
H691 H 0.41349 0.48835 0.21258 0.0
H692 H 0.48287 0.62845 0.21226 0.0
H693 H 0.56312 0.59028 0.2112 0.0
C694 C 0.58071 0.49483 0.21227 0.0
C695 C 0.58448 0.44439 0.21424 0.0
C696 C 0.53483 0.51701 0.21181 0.0
C697 C 0.54196 0.41608 0.21509 0.0
C698 C 0.49616 0.4377 0.2138 0.0
C699 C 0.44628 0.51037 0.21204 0.0
C700 C 0.44258 0.561 0.21225 0.0
C701 C 0.49216 0.48816 0.21234 0.0
C702 C 0.48509 0.58936 0.21204 0.0
C703 C 0.53085 0.56757 0.21145 0.0
H704 H 0.46304 0.06959 0.43786 0.0
H705 H 0.44377 0.05721 0.50489 0.0
H706 H 0.48962 0.98202 0.5052 0.0
H707 H 0.53472 0.91942 0.48654 0.0
H708 H 0.54698 0.92569 0.41917 0.0
H709 H 0.50475 1.00373 0.41875 0.0
C710 C 0.46885 0.05022 0.45247 0.0
C711 C 0.45013 0.06882 0.47132 0.0
C712 C 0.49425 0.00618 0.45247 0.0
C713 C 0.45747 0.04334 0.49016 0.0
C714 C 0.48393 1.00051 0.49038 0.0
C715 C 0.52855 0.93824 0.47181 0.0
C716 C 0.54453 0.91765 0.45296 0.0
C717 C 0.50254 0.98167 0.47166 0.0
C718 C 0.53525 0.94138 0.43388 0.0
C719 C 0.51105 0.9858 0.43365 0.0
H720 H 0.96717 0.41729 0.5487 0.0
H721 H 0.88096 0.546 0.55522 0.0
H722 H 0.95503 0.59551 0.5573 0.0
H723 H 0.04479 0.60213 0.55622 0.0
H724 H 0.13052 0.47229 0.55355 0.0
H725 H 0.05649 0.42311 0.55109 0.0
C726 C 0.96484 0.45616 0.55067 0.0
C727 C 0.91908 0.47823 0.55163 0.0
C728 C 1.00746 0.48407 0.55252 0.0
C729 C 0.91608 0.52843 0.55449 0.0
C730 C 0.95832 0.5567 0.5556 0.0
C731 C 0.04698 0.56306 0.55522 0.0
C732 C 0.09268 0.54069 0.55492 0.0
C733 C 1.00424 0.53494 0.55448 0.0
C734 C 0.09548 0.49009 0.55388 0.0
C735 C 0.05327 0.46202 0.55239 0.0
loop_
_geom_bond_atom_site_label_1
_geom_bond_atom_site_label_2
_geom_bond_distance
_geom_bond_site_symmetry_2
_ccdc_geom_bond_type
C0 O2 1.247 . S
C0 O4 1.258 . S
C1 O8 1.247 . S
C1 O9 1.258 . S
O2 C0 1.247 . S
O2 Zn3 2.028 . S
Zn3 O2 2.028 . S
Zn3 O7 2.035 . S
Zn3 O9 2.035 . S
Zn3 O10 2.028 . S
O4 C0 1.258 . S
O4 Zn5 2.035 . S
Zn5 O4 2.035 . S
Zn5 O6 2.028 . S
Zn5 O8 2.028 . S
Zn5 O11 2.035 . S
O6 Zn5 2.028 . S
O6 C12 1.247 . S
O7 Zn3 2.035 . S
O7 C12 1.258 . S
O8 C1 1.247 . S
O8 Zn5 2.028 . S
O9 C1 1.258 . S
O9 Zn3 2.035 . S
O10 Zn3 2.028 . S
O10 C13 1.247 . S
O11 Zn5 2.035 . S
O11 C13 1.258 . S
C12 O6 1.247 . S
C12 O7 1.258 . S
C13 O10 1.247 . S
C13 O11 1.258 . S
C14 O16 1.247 . S
C14 O18 1.258 . S
C15 O22 1.247 . S
C15 O23 1.258 . S
O16 C14 1.247 . S
O16 Zn17 2.028 . S
Zn17 O16 2.028 . S
Zn17 O21 2.035 . S
Zn17 O23 2.035 . S
Zn17 O24 2.028 . S
O18 C14 1.258 . S
O18 Zn19 2.035 . S
Zn19 O18 2.035 . S
Zn19 O20 2.028 . S
Zn19 O22 2.028 . S
Zn19 O25 2.035 . S
O20 Zn19 2.028 . S
O20 C26 1.247 . S
O21 Zn17 2.035 . S
O21 C26 1.258 . S
O22 C15 1.247 . S
O22 Zn19 2.028 . S
O23 C15 1.258 . S
O23 Zn17 2.035 . S
O24 Zn17 2.028 . S
O24 C27 1.247 . S
O25 Zn19 2.035 . S
O25 C27 1.258 . S
C26 O20 1.247 . S
C26 O21 1.258 . S
C27 O24 1.247 . S
C27 O25 1.258 . S
C28 O30 1.247 . S
C28 O32 1.258 . S
C29 O36 1.247 . S
C29 O37 1.258 . S
O30 C28 1.247 . S
O30 Zn31 2.028 . S
Zn31 O30 2.028 . S
Zn31 O35 2.035 . S
Zn31 O37 2.035 . S
Zn31 O38 2.028 . S
O32 C28 1.258 . S
O32 Zn33 2.035 . S
Zn33 O32 2.035 . S
Zn33 O34 2.028 . S
Zn33 O36 2.028 . S
Zn33 O39 2.035 . S
O34 Zn33 2.028 . S
O34 C40 1.247 . S
O35 Zn31 2.035 . S
O35 C40 1.258 . S
O36 C29 1.247 . S
O36 Zn33 2.028 . S
O37 C29 1.258 . S
O37 Zn31 2.035 . S
O38 Zn31 2.028 . S
O38 C41 1.247 . S
O39 Zn33 2.035 . S
O39 C41 1.258 . S
C40 O34 1.247 . S
C40 O35 1.258 . S
C41 O38 1.247 . S
C41 O39 1.258 . S
C42 O44 1.247 . S
C42 O46 1.258 . S
C43 O50 1.247 . S
C43 O51 1.258 . S
O44 C42 1.247 . S
O44 Zn45 2.028 . S
Zn45 O44 2.028 . S
Zn45 O49 2.035 . S
Zn45 O51 2.035 . S
Zn45 O52 2.028 . S
O46 C42 1.258 . S
O46 Zn47 2.035 . S
Zn47 O46 2.035 . S
Zn47 O48 2.028 . S
Zn47 O50 2.028 . S
Zn47 O53 2.035 . S
O48 Zn47 2.028 . S
O48 C54 1.247 . S
O49 Zn45 2.035 . S
O49 C54 1.258 . S
O50 C43 1.247 . S
O50 Zn47 2.028 . S
O51 C43 1.258 . S
O51 Zn45 2.035 . S
O52 Zn45 2.028 . S
O52 C55 1.247 . S
O53 Zn47 2.035 . S
O53 C55 1.258 . S
C54 O48 1.247 . S
C54 O49 1.258 . S
C55 O52 1.247 . S
C55 O53 1.258 . S
C56 O58 1.247 . S
C56 O60 1.258 . S
C57 O64 1.247 . S
C57 O65 1.258 . S
O58 C56 1.247 . S
O58 Zn59 2.028 . S
Zn59 O58 2.028 . S
Zn59 O63 2.035 . S
Zn59 O65 2.035 . S
Zn59 O66 2.028 . S
O60 C56 1.258 . S
O60 Zn61 2.035 . S
Zn61 O60 2.035 . S
Zn61 O62 2.028 . S
Zn61 O64 2.028 . S
Zn61 O67 2.035 . S
O62 Zn61 2.028 . S
O62 C68 1.247 . S
O63 Zn59 2.035 . S
O63 C68 1.258 . S
O64 C57 1.247 . S
O64 Zn61 2.028 . S
O65 C57 1.258 . S
O65 Zn59 2.035 . S
O66 Zn59 2.028 . S
O66 C69 1.247 . S
O67 Zn61 2.035 . S
O67 C69 1.258 . S
C68 O62 1.247 . S
C68 O63 1.258 . S
C69 O66 1.247 . S
C69 O67 1.258 . S
C70 O72 1.247 . S
C70 O74 1.258 . S
C71 O78 1.247 . S
C71 O79 1.258 . S
O72 C70 1.247 . S
O72 Zn73 2.028 . S
Zn73 O72 2.028 . S
Zn73 O77 2.035 . S
Zn73 O79 2.035 . S
Zn73 O80 2.028 . S
O74 C70 1.258 . S
O74 Zn75 2.035 . S
Zn75 O74 2.035 . S
Zn75 O76 2.028 . S
Zn75 O78 2.028 . S
Zn75 O81 2.035 . S
O76 Zn75 2.028 . S
O76 C82 1.247 . S
O77 Zn73 2.035 . S
O77 C82 1.258 . S
O78 C71 1.247 . S
O78 Zn75 2.028 . S
O79 C71 1.258 . S
O79 Zn73 2.035 . S
O80 Zn73 2.028 . S
O80 C83 1.247 . S
O81 Zn75 2.035 . S
O81 C83 1.258 . S
C82 O76 1.247 . S
C82 O77 1.258 . S
C83 O80 1.247 . S
C83 O81 1.258 . S
C84 O86 1.247 . S
C84 O88 1.258 . S
C85 O92 1.247 . S
C85 O93 1.258 . S
O86 C84 1.247 . S
O86 Zn87 2.028 . S
Zn87 O86 2.028 . S
Zn87 O91 2.035 . S
Zn87 O93 2.035 . S
Zn87 O94 2.028 . S
O88 C84 1.258 . S
O88 Zn89 2.035 . S
Zn89 O88 2.035 . S
Zn89 O90 2.028 . S
Zn89 O92 2.028 . S
Zn89 O95 2.035 . S
O90 Zn89 2.028 . S
O90 C96 1.247 . S
O91 Zn87 2.035 . S
O91 C96 1.258 . S
O92 C85 1.247 . S
O92 Zn89 2.028 . S
O93 C85 1.258 . S
O93 Zn87 2.035 . S
O94 Zn87 2.028 . S
O94 C97 1.247 . S
O95 Zn89 2.035 . S
O95 C97 1.258 . S
C96 O90 1.247 . S
C96 O91 1.258 . S
C97 O94 1.247 . S
C97 O95 1.258 . S
C98 O100 1.247 . S
C98 O102 1.258 . S
C99 O106 1.247 . S
C99 O107 1.258 . S
O100 C98 1.247 . S
O100 Zn101 2.028 . S
Zn101 O100 2.028 . S
Zn101 O105 2.035 . S
Zn101 O107 2.035 . S
Zn101 O108 2.028 . S
O102 C98 1.258 . S
O102 Zn103 2.035 . S
Zn103 O102 2.035 . S
Zn103 O104 2.028 . S
Zn103 O106 2.028 . S
Zn103 O109 2.035 . S
O104 Zn103 2.028 . S
O104 C110 1.247 . S
O105 Zn101 2.035 . S
O105 C110 1.258 . S
O106 C99 1.247 . S
O106 Zn103 2.028 . S
O107 C99 1.258 . S
O107 Zn101 2.035 . S
O108 Zn101 2.028 . S
O108 C111 1.247 . S
O109 Zn103 2.035 . S
O109 C111 1.258 . S
C110 O104 1.247 . S
C110 O105 1.258 . S
C111 O108 1.247 . S
C111 O109 1.258 . S
C112 O114 1.247 . S
C112 O116 1.258 . S
C113 O120 1.247 . S
C113 O121 1.258 . S
O114 C112 1.247 . S
O114 Zn115 2.028 . S
Zn115 O114 2.028 . S
Zn115 O119 2.035 . S
Zn115 O121 2.035 . S
Zn115 O122 2.028 . S
O116 C112 1.258 . S
O116 Zn117 2.035 . S
Zn117 O116 2.035 . S
Zn117 O118 2.028 . S
Zn117 O120 2.028 . S
Zn117 O123 2.035 . S
O118 Zn117 2.028 . S
O118 C124 1.247 . S
O119 Zn115 2.035 . S
O119 C124 1.258 . S
O120 C113 1.247 . S
O120 Zn117 2.028 . S
O121 C113 1.258 . S
O121 Zn115 2.035 . S
O122 Zn115 2.028 . S
O122 C125 1.247 . S
O123 Zn117 2.035 . S
O123 C125 1.258 . S
C124 O118 1.247 . S
C124 O119 1.258 . S
C125 O122 1.247 . S
C125 O123 1.258 . S
C126 O128 1.247 . S
C126 O130 1.258 . S
C127 O134 1.247 . S
C127 O135 1.258 . S
O128 C126 1.247 . S
O128 Zn129 2.028 . S
Zn129 O128 2.028 . S
Zn129 O133 2.035 . S
Zn129 O135 2.035 . S
Zn129 O136 2.028 . S
O130 C126 1.258 . S
O130 Zn131 2.035 . S
Zn131 O130 2.035 . S
Zn131 O132 2.028 . S
Zn131 O134 2.028 . S
Zn131 O137 2.035 . S
O132 Zn131 2.028 . S
O132 C138 1.247 . S
O133 Zn129 2.035 . S
O133 C138 1.258 . S
O134 C127 1.247 . S
O134 Zn131 2.028 . S
O135 C127 1.258 . S
O135 Zn129 2.035 . S
O136 Zn129 2.028 . S
O136 C139 1.247 . S
O137 Zn131 2.035 . S
O137 C139 1.258 . S
C138 O132 1.247 . S
C138 O133 1.258 . S
C139 O136 1.247 . S
C139 O137 1.258 . S
C140 O142 1.247 . S
C140 O144 1.258 . S
C141 O148 1.247 . S
C141 O149 1.258 . S
O142 C140 1.247 . S
O142 Zn143 2.028 . S
Zn143 O142 2.028 . S
Zn143 O147 2.035 . S
Zn143 O149 2.035 . S
Zn143 O150 2.028 . S
O144 C140 1.258 . S
O144 Zn145 2.035 . S
Zn145 O144 2.035 . S
Zn145 O146 2.028 . S
Zn145 O148 2.028 . S
Zn145 O151 2.035 . S
O146 Zn145 2.028 . S
O146 C152 1.247 . S
O147 Zn143 2.035 . S
O147 C152 1.258 . S
O148 C141 1.247 . S
O148 Zn145 2.028 . S
O149 C141 1.258 . S
O149 Zn143 2.035 . S
O150 Zn143 2.028 . S
O150 C153 1.247 . S
O151 Zn145 2.035 . S
O151 C153 1.258 . S
C152 O146 1.247 . S
C152 O147 1.258 . S
C153 O150 1.247 . S
C153 O151 1.258 . S
C154 O156 1.247 . S
C154 O158 1.258 . S
C155 O162 1.247 . S
C155 O163 1.258 . S
O156 C154 1.247 . S
O156 Zn157 2.028 . S
Zn157 O156 2.028 . S
Zn157 O161 2.035 . S
Zn157 O163 2.035 . S
Zn157 O164 2.028 . S
O158 C154 1.258 . S
O158 Zn159 2.035 . S
Zn159 O158 2.035 . S
Zn159 O160 2.028 . S
Zn159 O162 2.028 . S
Zn159 O165 2.035 . S
O160 Zn159 2.028 . S
O160 C166 1.247 . S
O161 Zn157 2.035 . S
O161 C166 1.258 . S
O162 C155 1.247 . S
O162 Zn159 2.028 . S
O163 C155 1.258 . S
O163 Zn157 2.035 . S
O164 Zn157 2.028 . S
O164 C167 1.247 . S
O165 Zn159 2.035 . S
O165 C167 1.258 . S
C166 O160 1.247 . S
C166 O161 1.258 . S
C167 O164 1.247 . S
C167 O165 1.258 . S
C168 O170 1.247 . S
C168 O172 1.258 . S
C169 O176 1.247 . S
C169 O177 1.258 . S
O170 C168 1.247 . S
O170 Zn171 2.028 . S
Zn171 O170 2.028 . S
Zn171 O175 2.035 . S
Zn171 O177 2.035 . S
Zn171 O178 2.028 . S
O172 C168 1.258 . S
O172 Zn173 2.035 . S
Zn173 O172 2.035 . S
Zn173 O174 2.028 . S
Zn173 O176 2.028 . S
Zn173 O179 2.035 . S
O174 Zn173 2.028 . S
O174 C180 1.247 . S
O175 Zn171 2.035 . S
O175 C180 1.258 . S
O176 C169 1.247 . S
O176 Zn173 2.028 . S
O177 C169 1.258 . S
O177 Zn171 2.035 . S
O178 Zn171 2.028 . S
O178 C181 1.247 . S
O179 Zn173 2.035 . S
O179 C181 1.258 . S
C180 O174 1.247 . S
C180 O175 1.258 . S
C181 O178 1.247 . S
C181 O179 1.258 . S
C182 O184 1.247 . S
C182 O186 1.258 . S
C183 O190 1.247 . S
C183 O191 1.258 . S
O184 C182 1.247 . S
O184 Zn185 2.028 . S
Zn185 O184 2.028 . S
Zn185 O189 2.035 . S
Zn185 O191 2.035 . S
Zn185 O192 2.028 . S
O186 C182 1.258 . S
O186 Zn187 2.035 . S
Zn187 O186 2.035 . S
Zn187 O188 2.028 . S
Zn187 O190 2.028 . S
Zn187 O193 2.035 . S
O188 Zn187 2.028 . S
O188 C194 1.247 . S
O189 Zn185 2.035 . S
O189 C194 1.258 . S
O190 C183 1.247 . S
O190 Zn187 2.028 . S
O191 C183 1.258 . S
O191 Zn185 2.035 . S
O192 Zn185 2.028 . S
O192 C195 1.247 . S
O193 Zn187 2.035 . S
O193 C195 1.258 . S
C194 O188 1.247 . S
C194 O189 1.258 . S
C195 O192 1.247 . S
C195 O193 1.258 . S
C196 O198 1.247 . S
C196 O200 1.258 . S
C197 O204 1.247 . S
C197 O205 1.258 . S
O198 C196 1.247 . S
O198 Zn199 2.028 . S
Zn199 O198 2.028 . S
Zn199 O203 2.035 . S
Zn199 O205 2.035 . S
Zn199 O206 2.028 . S
O200 C196 1.258 . S
O200 Zn201 2.035 . S
Zn201 O200 2.035 . S
Zn201 O202 2.028 . S
Zn201 O204 2.028 . S
Zn201 O207 2.035 . S
O202 Zn201 2.028 . S
O202 C208 1.247 . S
O203 Zn199 2.035 . S
O203 C208 1.258 . S
O204 C197 1.247 . S
O204 Zn201 2.028 . S
O205 C197 1.258 . S
O205 Zn199 2.035 . S
O206 Zn199 2.028 . S
O206 C209 1.247 . S
O207 Zn201 2.035 . S
O207 C209 1.258 . S
C208 O202 1.247 . S
C208 O203 1.258 . S
C209 O206 1.247 . S
C209 O207 1.258 . S
C210 O212 1.247 . S
C210 O214 1.258 . S
C211 O218 1.247 . S
C211 O219 1.258 . S
O212 C210 1.247 . S
O212 Zn213 2.028 . S
Zn213 O212 2.028 . S
Zn213 O217 2.035 . S
Zn213 O219 2.035 . S
Zn213 O220 2.028 . S
O214 C210 1.258 . S
O214 Zn215 2.035 . S
Zn215 O214 2.035 . S
Zn215 O216 2.028 . S
Zn215 O218 2.028 . S
Zn215 O221 2.035 . S
O216 Zn215 2.028 . S
O216 C222 1.247 . S
O217 Zn213 2.035 . S
O217 C222 1.258 . S
O218 C211 1.247 . S
O218 Zn215 2.028 . S
O219 C211 1.258 . S
O219 Zn213 2.035 . S
O220 Zn213 2.028 . S
O220 C223 1.247 . S
O221 Zn215 2.035 . S
O221 C223 1.258 . S
C222 O216 1.247 . S
C222 O217 1.258 . S
C223 O220 1.247 . S
C223 O221 1.258 . S
H224 C230 0.930 . S
H225 C233 0.930 . S
H226 C234 0.930 . S
H227 C235 0.930 . S
H228 C238 0.930 . S
H229 C239 0.930 . S
C230 H224 0.930 . S
C230 C231 1.355 . S
C230 C232 1.415 . S
C231 C230 1.355 . S
C231 C233 1.419 . S
C232 C230 1.415 . S
C232 C237 1.425 . S
C232 C239 1.409 . S
C233 H225 0.930 . S
C233 C231 1.419 . S
C233 C234 1.362 . S
C234 H226 0.930 . S
C234 C233 1.362 . S
C234 C237 1.409 . S
C235 H227 0.930 . S
C235 C236 1.355 . S
C235 C237 1.415 . S
C236 C235 1.355 . S
C236 C238 1.419 . S
C237 C232 1.425 . S
C237 C234 1.409 . S
C237 C235 1.415 . S
C238 H228 0.930 . S
C238 C236 1.419 . S
C238 C239 1.362 . S
C239 H229 0.930 . S
C239 C232 1.409 . S
C239 C238 1.362 . S
H240 C246 0.930 . S
H241 C249 0.930 . S
H242 C250 0.930 . S
H243 C251 0.930 . S
H244 C254 0.930 . S
H245 C255 0.930 . S
C246 H240 0.930 . S
C246 C247 1.355 . S
C246 C248 1.415 . S
C247 C246 1.355 . S
C247 C249 1.419 . S
C248 C246 1.415 . S
C248 C253 1.425 . S
C248 C255 1.409 . S
C249 H241 0.930 . S
C249 C247 1.419 . S
C249 C250 1.362 . S
C250 H242 0.930 . S
C250 C249 1.362 . S
C250 C253 1.409 . S
C251 H243 0.930 . S
C251 C252 1.355 . S
C251 C253 1.415 . S
C252 C251 1.355 . S
C252 C254 1.419 . S
C253 C248 1.425 . S
C253 C250 1.409 . S
C253 C251 1.415 . S
C254 H244 0.930 . S
C254 C252 1.419 . S
C254 C255 1.362 . S
C255 H245 0.930 . S
C255 C248 1.409 . S
C255 C254 1.362 . S
H256 C262 0.930 . S
H257 C265 0.930 . S
H258 C266 0.930 . S
H259 C267 0.930 . S
H260 C270 0.930 . S
H261 C271 0.930 . S
C262 H256 0.930 . S
C262 C263 1.355 . S
C262 C264 1.415 . S
C263 C262 1.355 . S
C263 C265 1.419 . S
C264 C262 1.415 . S
C264 C269 1.425 . S
C264 C271 1.409 . S
C265 H257 0.930 . S
C265 C263 1.419 . S
C265 C266 1.362 . S
C266 H258 0.930 . S
C266 C265 1.362 . S
C266 C269 1.409 . S
C267 H259 0.930 . S
C267 C268 1.355 . S
C267 C269 1.415 . S
C268 C267 1.355 . S
C268 C270 1.419 . S
C269 C264 1.425 . S
C269 C266 1.409 . S
C269 C267 1.415 . S
C270 H260 0.930 . S
C270 C268 1.419 . S
C270 C271 1.362 . S
C271 H261 0.930 . S
C271 C264 1.409 . S
C271 C270 1.362 . S
H272 C278 0.930 . S
H273 C281 0.930 . S
H274 C282 0.930 . S
H275 C283 0.930 . S
H276 C286 0.930 . S
H277 C287 0.930 . S
C278 H272 0.930 . S
C278 C279 1.355 . S
C278 C280 1.415 . S
C279 C278 1.355 . S
C279 C281 1.419 . S
C280 C278 1.415 . S
C280 C285 1.425 . S
C280 C287 1.409 . S
C281 H273 0.930 . S
C281 C279 1.419 . S
C281 C282 1.362 . S
C282 H274 0.930 . S
C282 C281 1.362 . S
C282 C285 1.409 . S
C283 H275 0.930 . S
C283 C284 1.355 . S
C283 C285 1.415 . S
C284 C283 1.355 . S
C284 C286 1.419 . S
C285 C280 1.425 . S
C285 C282 1.409 . S
C285 C283 1.415 . S
C286 H276 0.930 . S
C286 C284 1.419 . S
C286 C287 1.362 . S
C287 H277 0.930 . S
C287 C280 1.409 . S
C287 C286 1.362 . S
H288 C294 0.930 . S
H289 C297 0.930 1_565 S
H290 C298 0.930 . S
H291 C299 0.930 . S
H292 C302 0.930 . S
H293 C303 0.930 . S
C294 H288 0.930 . S
C294 C295 1.355 . S
C294 C296 1.415 1_554 S
C295 C294 1.355 . S
C295 C297 1.419 . S
C296 C294 1.415 1_556 S
C296 C301 1.425 . S
C296 C303 1.409 . S
C297 H289 0.930 1_545 S
C297 C295 1.419 . S
C297 C298 1.362 1_554 S
C298 H290 0.930 . S
C298 C297 1.362 1_556 S
C298 C301 1.409 . S
C299 H291 0.930 . S
C299 C300 1.355 . S
C299 C301 1.415 . S
C300 C299 1.355 . S
C300 C302 1.419 . S
C301 C296 1.425 . S
C301 C298 1.409 . S
C301 C299 1.415 . S
C302 H292 0.930 . S
C302 C300 1.419 . S
C302 C303 1.362 . S
C303 H293 0.930 . S
C303 C296 1.409 . S
C303 C302 1.362 . S
H304 C310 0.930 . S
H305 C313 0.930 . S
H306 C314 0.930 . S
H307 C315 0.930 . S
H308 C318 0.917 1_655 S
H309 C319 0.930 . S
C310 H304 0.930 . S
C310 C311 1.355 . S
C310 C312 1.415 . S
C311 C310 1.355 . S
C311 C313 1.419 . S
C312 C310 1.415 . S
C312 C317 1.434 . S
C312 C319 1.409 . S
C313 H305 0.930 . S
C313 C311 1.419 . S
C313 C314 1.362 1_554 S
C314 H306 0.930 . S
C314 C313 1.362 1_556 S
C314 C317 1.408 1_556 S
C315 H307 0.930 . S
C315 C316 1.355 . S
C315 C317 1.408 1_556 S
C316 C315 1.355 . S
C316 C318 1.425 1_556 S
C317 C312 1.434 . S
C317 C314 1.408 1_554 S
C317 C315 1.408 1_554 S
C318 H308 0.917 1_455 S
C318 C316 1.425 1_554 S
C318 C319 1.370 . S
C319 H309 0.930 . S
C319 C312 1.409 . S
C319 C318 1.370 . S
H320 C326 0.930 . S
H321 C329 0.930 . S
H322 C330 0.930 1_554 S
H323 C331 0.930 . S
H324 C334 0.929 . S
H325 C335 0.930 . S
C326 H320 0.930 . S
C326 C327 1.355 . S
C326 C328 1.415 . S
C327 C326 1.355 . S
C327 C329 1.419 . S
C328 C326 1.415 . S
C328 C333 1.425 . S
C328 C335 1.409 . S
C329 H321 0.930 . S
C329 C327 1.419 . S
C329 C330 1.362 . S
C330 H322 0.930 1_556 S
C330 C329 1.362 . S
C330 C333 1.409 . S
C331 H323 0.930 . S
C331 C332 1.355 . S
C331 C333 1.415 1_554 S
C332 C331 1.355 . S
C332 C334 1.397 1_554 S
C333 C328 1.425 . S
C333 C330 1.409 . S
C333 C331 1.415 1_556 S
C334 H324 0.929 . S
C334 C332 1.397 1_556 S
C334 C335 1.387 . S
C335 H325 0.930 . S
C335 C328 1.409 . S
C335 C334 1.387 . S
H336 C342 0.930 . S
H337 C345 0.930 . S
H338 C346 0.930 1_556 S
H339 C347 0.930 . S
H340 C350 0.930 . S
H341 C351 0.930 . S
C342 H336 0.930 . S
C342 C343 1.355 . S
C342 C344 1.415 . S
C343 C342 1.355 . S
C343 C345 1.419 . S
C344 C342 1.415 . S
C344 C349 1.425 . S
C344 C351 1.409 . S
C345 H337 0.930 . S
C345 C343 1.419 . S
C345 C346 1.362 . S
C346 H338 0.930 1_554 S
C346 C345 1.362 . S
C346 C349 1.409 . S
C347 H339 0.930 . S
C347 C348 1.355 . S
C347 C349 1.415 1_556 S
C348 C347 1.355 . S
C348 C350 1.419 1_556 S
C349 C344 1.425 . S
C349 C346 1.409 . S
C349 C347 1.415 1_554 S
C350 H340 0.930 . S
C350 C348 1.419 1_554 S
C350 C351 1.362 . S
C351 H341 0.930 . S
C351 C344 1.409 . S
C351 C350 1.362 . S
H352 C358 0.930 . S
H353 C361 0.930 . S
H354 C362 0.930 . S
H355 C363 0.930 . S
H356 C366 0.930 . S
H357 C367 0.930 . S
C358 H352 0.930 . S
C358 C359 1.355 . S
C358 C360 1.415 . S
C359 C358 1.355 . S
C359 C361 1.419 . S
C360 C358 1.415 . S
C360 C365 1.425 . S
C360 C367 1.409 . S
C361 H353 0.930 . S
C361 C359 1.419 . S
C361 C362 1.362 . S
C362 H354 0.930 . S
C362 C361 1.362 . S
C362 C365 1.409 . S
C363 H355 0.930 . S
C363 C364 1.355 . S
C363 C365 1.415 . S
C364 C363 1.355 . S
C364 C366 1.419 . S
C365 C360 1.425 . S
C365 C362 1.409 . S
C365 C363 1.415 . S
C366 H356 0.930 . S
C366 C364 1.419 . S
C366 C367 1.362 . S
C367 H357 0.930 . S
C367 C360 1.409 . S
C367 C366 1.362 . S
H368 C374 0.930 . S
H369 C377 0.930 1_455 S
H370 C378 0.930 . S
H371 C379 0.930 . S
H372 C382 0.930 . S
H373 C383 0.930 . S
C374 H368 0.930 . S
C374 C375 1.355 . S
C374 C376 1.415 . S
C375 C374 1.355 . S
C375 C377 1.419 . S
C376 C374 1.415 . S
C376 C381 1.425 . S
C376 C383 1.409 . S
C377 H369 0.930 1_655 S
C377 C375 1.419 . S
C377 C378 1.362 . S
C378 H370 0.930 . S
C378 C377 1.362 . S
C378 C381 1.409 . S
C379 H371 0.930 . S
C379 C380 1.355 . S
C379 C381 1.415 . S
C380 C379 1.355 . S
C380 C382 1.419 . S
C381 C376 1.425 . S
C381 C378 1.409 . S
C381 C379 1.415 . S
C382 H372 0.930 . S
C382 C380 1.419 . S
C382 C383 1.362 . S
C383 H373 0.930 . S
C383 C376 1.409 . S
C383 C382 1.362 . S
H384 C390 0.930 . S
H385 C393 0.930 1_565 S
H386 C394 0.930 . S
H387 C395 0.930 . S
H388 C398 0.930 . S
H389 C399 0.930 . S
C390 H384 0.930 . S
C390 C391 1.355 . S
C390 C392 1.415 . S
C391 C390 1.355 . S
C391 C393 1.419 . S
C392 C390 1.415 . S
C392 C397 1.425 . S
C392 C399 1.409 . S
C393 H385 0.930 1_545 S
C393 C391 1.419 . S
C393 C394 1.362 . S
C394 H386 0.930 . S
C394 C393 1.362 . S
C394 C397 1.409 . S
C395 H387 0.930 . S
C395 C396 1.355 . S
C395 C397 1.415 . S
C396 C395 1.355 . S
C396 C398 1.419 . S
C397 C392 1.425 . S
C397 C394 1.409 . S
C397 C395 1.415 . S
C398 H388 0.930 . S
C398 C396 1.419 . S
C398 C399 1.362 . S
C399 H389 0.930 . S
C399 C392 1.409 . S
C399 C398 1.362 . S
H400 C406 0.930 . S
H401 C409 0.929 1_655 S
H402 C410 0.930 . S
H403 C411 0.930 . S
H404 C414 0.930 . S
H405 C415 0.930 . S
C406 H400 0.930 . S
C406 C407 1.355 . S
C406 C408 1.415 . S
C407 C406 1.355 . S
C407 C409 1.420 . S
C408 C406 1.415 . S
C408 C413 1.425 . S
C408 C415 1.409 . S
C409 H401 0.929 1_455 S
C409 C407 1.420 . S
C409 C410 1.363 . S
C410 H402 0.930 . S
C410 C409 1.363 . S
C410 C413 1.409 . S
C411 H403 0.930 . S
C411 C412 1.355 . S
C411 C413 1.415 . S
C412 C411 1.355 . S
C412 C414 1.419 . S
C413 C408 1.425 . S
C413 C410 1.409 . S
C413 C411 1.415 . S
C414 H404 0.930 . S
C414 C412 1.419 . S
C414 C415 1.362 . S
C415 H405 0.930 . S
C415 C408 1.409 . S
C415 C414 1.362 . S
H416 C422 0.930 . S
H417 C425 0.930 . S
H418 C426 0.930 . S
H419 C427 0.930 . S
H420 C430 0.930 . S
H421 C431 0.930 . S
C422 H416 0.930 . S
C422 C423 1.355 . S
C422 C424 1.415 . S
C423 C422 1.355 . S
C423 C425 1.419 . S
C424 C422 1.415 . S
C424 C429 1.425 . S
C424 C431 1.409 . S
C425 H417 0.930 . S
C425 C423 1.419 . S
C425 C426 1.362 . S
C426 H418 0.930 . S
C426 C425 1.362 . S
C426 C429 1.409 . S
C427 H419 0.930 . S
C427 C428 1.355 . S
C427 C429 1.415 . S
C428 C427 1.355 . S
C428 C430 1.419 . S
C429 C424 1.425 . S
C429 C426 1.409 . S
C429 C427 1.415 . S
C430 H420 0.930 . S
C430 C428 1.419 . S
C430 C431 1.362 . S
C431 H421 0.930 . S
C431 C424 1.409 . S
C431 C430 1.362 . S
H432 C438 0.930 . S
H433 C441 0.930 . S
H434 C442 0.930 . S
H435 C443 0.930 . S
H436 C446 0.930 . S
H437 C447 0.930 . S
C438 H432 0.930 . S
C438 C439 1.355 . S
C438 C440 1.415 . S
C439 C438 1.355 . S
C439 C441 1.419 . S
C440 C438 1.415 . S
C440 C445 1.425 . S
C440 C447 1.409 . S
C441 H433 0.930 . S
C441 C439 1.419 . S
C441 C442 1.362 . S
C442 H434 0.930 . S
C442 C441 1.362 . S
C442 C445 1.409 . S
C443 H435 0.930 . S
C443 C444 1.355 . S
C443 C445 1.415 . S
C444 C443 1.355 . S
C444 C446 1.419 . S
C445 C440 1.425 . S
C445 C442 1.409 . S
C445 C443 1.415 . S
C446 H436 0.930 . S
C446 C444 1.419 . S
C446 C447 1.362 . S
C447 H437 0.930 . S
C447 C440 1.409 . S
C447 C446 1.362 . S
H448 C454 0.930 . S
H449 C457 0.930 . S
H450 C458 0.930 . S
H451 C459 0.930 . S
H452 C462 0.930 . S
H453 C463 0.930 . S
C454 H448 0.930 . S
C454 C455 1.355 . S
C454 C456 1.415 . S
C455 C454 1.355 . S
C455 C457 1.419 . S
C456 C454 1.415 . S
C456 C461 1.425 . S
C456 C463 1.409 . S
C457 H449 0.930 . S
C457 C455 1.419 . S
C457 C458 1.362 . S
C458 H450 0.930 . S
C458 C457 1.362 . S
C458 C461 1.409 . S
C459 H451 0.930 . S
C459 C460 1.355 . S
C459 C461 1.415 . S
C460 C459 1.355 . S
C460 C462 1.419 . S
C461 C456 1.425 . S
C461 C458 1.409 . S
C461 C459 1.415 . S
C462 H452 0.930 . S
C462 C460 1.419 . S
C462 C463 1.362 . S
C463 H453 0.930 . S
C463 C456 1.409 . S
C463 C462 1.362 . S
H464 C470 0.930 . S
H465 C473 0.930 . S
H466 C474 0.930 . S
H467 C475 0.930 . S
H468 C478 0.930 . S
H469 C479 0.930 . S
C470 H464 0.930 . S
C470 C471 1.355 . S
C470 C472 1.415 . S
C471 C470 1.355 . S
C471 C473 1.419 . S
C472 C470 1.415 . S
C472 C477 1.425 . S
C472 C479 1.409 . S
C473 H465 0.930 . S
C473 C471 1.419 . S
C473 C474 1.362 . S
C474 H466 0.930 . S
C474 C473 1.362 . S
C474 C477 1.409 . S
C475 H467 0.930 . S
C475 C476 1.355 . S
C475 C477 1.415 . S
C476 C475 1.355 . S
C476 C478 1.419 . S
C477 C472 1.425 . S
C477 C474 1.409 . S
C477 C475 1.415 . S
C478 H468 0.930 . S
C478 C476 1.419 . S
C478 C479 1.362 . S
C479 H469 0.930 . S
C479 C472 1.409 . S
C479 C478 1.362 . S
H480 C486 0.930 . S
H481 C489 0.930 . S
H482 C490 0.930 . S
H483 C491 0.930 . S
H484 C494 0.930 . S
H485 C495 0.930 . S
C486 H480 0.930 . S
C486 C487 1.355 . S
C486 C488 1.415 . S
C487 C486 1.355 . S
C487 C489 1.419 . S
C488 C486 1.415 . S
C488 C493 1.425 . S
C488 C495 1.409 . S
C489 H481 0.930 . S
C489 C487 1.419 . S
C489 C490 1.362 . S
C490 H482 0.930 . S
C490 C489 1.362 . S
C490 C493 1.409 . S
C491 H483 0.930 . S
C491 C492 1.355 . S
C491 C493 1.415 . S
C492 C491 1.355 . S
C492 C494 1.419 . S
C493 C488 1.425 . S
C493 C490 1.409 . S
C493 C491 1.415 . S
C494 H484 0.930 . S
C494 C492 1.419 . S
C494 C495 1.362 . S
C495 H485 0.930 . S
C495 C488 1.409 . S
C495 C494 1.362 . S
H496 C502 0.930 . S
H497 C505 0.930 . S
H498 C506 0.930 . S
H499 C507 0.930 . S
H500 C510 0.930 . S
H501 C511 0.930 . S
C502 H496 0.930 . S
C502 C503 1.355 . S
C502 C504 1.415 . S
C503 C502 1.355 . S
C503 C505 1.419 . S
C504 C502 1.415 . S
C504 C509 1.425 . S
C504 C511 1.409 . S
C505 H497 0.930 . S
C505 C503 1.419 . S
C505 C506 1.362 . S
C506 H498 0.930 . S
C506 C505 1.362 . S
C506 C509 1.409 . S
C507 H499 0.930 . S
C507 C508 1.355 . S
C507 C509 1.415 . S
C508 C507 1.355 . S
C508 C510 1.419 . S
C509 C504 1.425 . S
C509 C506 1.409 . S
C509 C507 1.415 . S
C510 H500 0.930 . S
C510 C508 1.419 . S
C510 C511 1.362 . S
C511 H501 0.930 . S
C511 C504 1.409 . S
C511 C510 1.362 . S
H512 C518 0.930 . S
H513 C521 0.930 . S
H514 C522 0.930 . S
H515 C523 0.930 . S
H516 C526 0.930 . S
H517 C527 0.930 . S
C518 H512 0.930 . S
C518 C519 1.355 . S
C518 C520 1.415 . S
C519 C518 1.355 . S
C519 C521 1.419 . S
C520 C518 1.415 . S
C520 C525 1.425 . S
C520 C527 1.409 . S
C521 H513 0.930 . S
C521 C519 1.419 . S
C521 C522 1.362 . S
C522 H514 0.930 . S
C522 C521 1.362 . S
C522 C525 1.409 . S
C523 H515 0.930 . S
C523 C524 1.355 . S
C523 C525 1.415 . S
C524 C523 1.355 . S
C524 C526 1.419 . S
C525 C520 1.425 . S
C525 C522 1.409 . S
C525 C523 1.415 . S
C526 H516 0.930 . S
C526 C524 1.419 . S
C526 C527 1.362 . S
C527 H517 0.930 . S
C527 C520 1.409 . S
C527 C526 1.362 . S
H528 C534 0.930 . S
H529 C537 0.930 . S
H530 C538 0.930 . S
H531 C539 0.930 . S
H532 C542 0.930 . S
H533 C543 0.930 . S
C534 H528 0.930 . S
C534 C535 1.355 . S
C534 C536 1.415 . S
C535 C534 1.355 . S
C535 C537 1.419 . S
C536 C534 1.415 . S
C536 C541 1.425 . S
C536 C543 1.409 . S
C537 H529 0.930 . S
C537 C535 1.419 . S
C537 C538 1.362 . S
C538 H530 0.930 . S
C538 C537 1.362 . S
C538 C541 1.409 . S
C539 H531 0.930 . S
C539 C540 1.355 . S
C539 C541 1.415 . S
C540 C539 1.355 . S
C540 C542 1.419 . S
C541 C536 1.425 . S
C541 C538 1.409 . S
C541 C539 1.415 . S
C542 H532 0.930 . S
C542 C540 1.419 . S
C542 C543 1.362 . S
C543 H533 0.930 . S
C543 C536 1.409 . S
C543 C542 1.362 . S
H544 C550 0.930 . S
H545 C553 0.930 . S
H546 C554 0.930 . S
H547 C555 0.930 . S
H548 C558 0.930 . S
H549 C559 0.930 . S
C550 H544 0.930 . S
C550 C551 1.355 . S
C550 C552 1.415 . S
C551 C550 1.355 . S
C551 C553 1.419 . S
C552 C550 1.415 . S
C552 C557 1.425 . S
C552 C559 1.409 . S
C553 H545 0.930 . S
C553 C551 1.419 . S
C553 C554 1.362 . S
C554 H546 0.930 . S
C554 C553 1.362 . S
C554 C557 1.409 . S
C555 H547 0.930 . S
C555 C556 1.355 . S
C555 C557 1.415 . S
C556 C555 1.355 . S
C556 C558 1.419 . S
C557 C552 1.425 . S
C557 C554 1.409 . S
C557 C555 1.415 . S
C558 H548 0.930 . S
C558 C556 1.419 . S
C558 C559 1.362 . S
C559 H549 0.930 . S
C559 C552 1.409 . S
C559 C558 1.362 . S
H560 C566 0.930 . S
H561 C569 0.930 . S
H562 C570 0.930 . S
H563 C571 0.930 . S
H564 C574 0.930 . S
H565 C575 0.930 . S
C566 H560 0.930 . S
C566 C567 1.355 . S
C566 C568 1.415 . S
C567 C566 1.355 . S
C567 C569 1.419 . S
C568 C566 1.415 . S
C568 C573 1.425 . S
C568 C575 1.409 . S
C569 H561 0.930 . S
C569 C567 1.419 . S
C569 C570 1.362 . S
C570 H562 0.930 . S
C570 C569 1.362 . S
C570 C573 1.409 . S
C571 H563 0.930 . S
C571 C572 1.355 . S
C571 C573 1.415 . S
C572 C571 1.355 . S
C572 C574 1.419 . S
C573 C568 1.425 . S
C573 C570 1.409 . S
C573 C571 1.415 . S
C574 H564 0.930 . S
C574 C572 1.419 . S
C574 C575 1.362 . S
C575 H565 0.930 . S
C575 C568 1.409 . S
C575 C574 1.362 . S
H576 C582 0.930 . S
H577 C585 0.930 . S
H578 C586 0.930 . S
H579 C587 0.930 . S
H580 C590 0.930 . S
H581 C591 0.930 . S
C582 H576 0.930 . S
C582 C583 1.355 . S
C582 C584 1.415 . S
C583 C582 1.355 . S
C583 C585 1.419 . S
C584 C582 1.415 . S
C584 C589 1.425 . S
C584 C591 1.409 . S
C585 H577 0.930 . S
C585 C583 1.419 . S
C585 C586 1.362 . S
C586 H578 0.930 . S
C586 C585 1.362 . S
C586 C589 1.409 . S
C587 H579 0.930 . S
C587 C588 1.355 . S
C587 C589 1.415 . S
C588 C587 1.355 . S
C588 C590 1.419 . S
C589 C584 1.425 . S
C589 C586 1.409 . S
C589 C587 1.415 . S
C590 H580 0.930 . S
C590 C588 1.419 . S
C590 C591 1.362 . S
C591 H581 0.930 . S
C591 C584 1.409 . S
C591 C590 1.362 . S
H592 C598 0.930 . S
H593 C601 0.930 . S
H594 C602 0.930 . S
H595 C603 0.930 . S
H596 C606 0.930 . S
H597 C607 0.930 . S
C598 H592 0.930 . S
C598 C599 1.355 . S
C598 C600 1.415 . S
C599 C598 1.355 . S
C599 C601 1.419 . S
C600 C598 1.415 . S
C600 C605 1.425 . S
C600 C607 1.409 . S
C601 H593 0.930 . S
C601 C599 1.419 . S
C601 C602 1.362 . S
C602 H594 0.930 . S
C602 C601 1.362 . S
C602 C605 1.409 . S
C603 H595 0.930 . S
C603 C604 1.355 . S
C603 C605 1.415 . S
C604 C603 1.355 . S
C604 C606 1.419 . S
C605 C600 1.425 . S
C605 C602 1.409 . S
C605 C603 1.415 . S
C606 H596 0.930 . S
C606 C604 1.419 . S
C606 C607 1.362 . S
C607 H597 0.930 . S
C607 C600 1.409 . S
C607 C606 1.362 . S
H608 C614 0.930 . S
H609 C617 0.930 . S
H610 C618 0.930 1_545 S
H611 C619 0.930 . S
H612 C622 0.930 . S
H613 C623 0.930 1_565 S
C614 H608 0.930 . S
C614 C615 1.355 1_455 S
C614 C616 1.415 . S
C615 C614 1.355 1_655 S
C615 C617 1.419 . S
C616 C614 1.415 . S
C616 C621 1.425 1_465 S
C616 C623 1.409 1_565 S
C617 H609 0.930 . S
C617 C615 1.419 . S
C617 C618 1.362 . S
C618 H610 0.930 1_565 S
C618 C617 1.362 . S
C618 C621 1.409 1_565 S
C619 H611 0.930 . S
C619 C620 1.355 1_655 S
C619 C621 1.415 . S
C620 C619 1.355 1_455 S
C620 C622 1.419 . S
C621 C616 1.425 1_645 S
C621 C618 1.409 1_545 S
C621 C619 1.415 . S
C622 H612 0.930 . S
C622 C620 1.419 . S
C622 C623 1.362 . S
C623 H613 0.930 1_545 S
C623 C616 1.409 1_545 S
C623 C622 1.362 . S
H624 C630 0.930 . S
H625 C633 0.930 . S
H626 C634 0.930 . S
H627 C635 0.930 . S
H628 C638 0.930 . S
H629 C639 0.930 . S
C630 H624 0.930 . S
C630 C631 1.355 . S
C630 C632 1.415 . S
C631 C630 1.355 . S
C631 C633 1.419 1_545 S
C632 C630 1.415 . S
C632 C637 1.425 1_645 S
C632 C639 1.409 1_655 S
C633 H625 0.930 . S
C633 C631 1.419 1_565 S
C633 C634 1.362 . S
C634 H626 0.930 . S
C634 C633 1.362 . S
C634 C637 1.409 1_655 S
C635 H627 0.930 . S
C635 C636 1.355 . S
C635 C637 1.415 . S
C636 C635 1.355 . S
C636 C638 1.419 1_565 S
C637 C632 1.425 1_465 S
C637 C634 1.409 1_455 S
C637 C635 1.415 . S
C638 H628 0.930 . S
C638 C636 1.419 1_545 S
C638 C639 1.362 . S
C639 H629 0.930 . S
C639 C632 1.409 1_455 S
C639 C638 1.362 . S
H640 C646 0.930 . S
H641 C649 0.930 . S
H642 C650 0.930 . S
H643 C651 0.930 . S
H644 C654 0.930 . S
H645 C655 0.930 . S
C646 H640 0.930 . S
C646 C647 1.355 1_655 S
C646 C648 1.415 . S
C647 C646 1.355 1_455 S
C647 C649 1.419 . S
C648 C646 1.415 . S
C648 C653 1.425 1_655 S
C648 C655 1.409 . S
C649 H641 0.930 . S
C649 C647 1.419 . S
C649 C650 1.362 . S
C650 H642 0.930 . S
C650 C649 1.362 . S
C650 C653 1.409 . S
C651 H643 0.930 . S
C651 C652 1.355 1_455 S
C651 C653 1.415 . S
C652 C651 1.355 1_655 S
C652 C654 1.419 . S
C653 C648 1.425 1_455 S
C653 C650 1.409 . S
C653 C651 1.415 . S
C654 H644 0.930 . S
C654 C652 1.419 . S
C654 C655 1.362 . S
C655 H645 0.930 . S
C655 C648 1.409 . S
C655 C654 1.362 . S
H656 C662 0.930 . S
H657 C665 0.930 . S
H658 C666 0.930 . S
H659 C667 0.930 . S
H660 C670 0.930 . S
H661 C671 0.930 . S
C662 H656 0.930 . S
C662 C663 1.355 . S
C662 C664 1.415 . S
C663 C662 1.355 . S
C663 C665 1.419 1_565 S
C664 C662 1.415 . S
C664 C669 1.425 1_565 S
C664 C671 1.409 . S
C665 H657 0.930 . S
C665 C663 1.419 1_545 S
C665 C666 1.362 . S
C666 H658 0.930 . S
C666 C665 1.362 . S
C666 C669 1.409 . S
C667 H659 0.930 . S
C667 C668 1.355 . S
C667 C669 1.415 . S
C668 C667 1.355 . S
C668 C670 1.419 1_545 S
C669 C664 1.425 1_545 S
C669 C666 1.409 . S
C669 C667 1.415 . S
C670 H660 0.930 . S
C670 C668 1.419 1_565 S
C670 C671 1.362 . S
C671 H661 0.930 . S
C671 C664 1.409 . S
C671 C670 1.362 . S
H672 C678 0.930 . S
H673 C681 0.930 . S
H674 C682 0.930 . S
H675 C683 0.930 . S
H676 C686 0.930 . S
H677 C687 0.930 . S
C678 H672 0.930 . S
C678 C679 1.355 . S
C678 C680 1.415 . S
C679 C678 1.355 . S
C679 C681 1.419 . S
C680 C678 1.415 . S
C680 C685 1.425 . S
C680 C687 1.409 . S
C681 H673 0.930 . S
C681 C679 1.419 . S
C681 C682 1.362 . S
C682 H674 0.930 . S
C682 C681 1.362 . S
C682 C685 1.409 . S
C683 H675 0.930 . S
C683 C684 1.355 . S
C683 C685 1.415 . S
C684 C683 1.355 . S
C684 C686 1.419 . S
C685 C680 1.425 . S
C685 C682 1.409 . S
C685 C683 1.415 . S
C686 H676 0.930 . S
C686 C684 1.419 . S
C686 C687 1.362 . S
C687 H677 0.930 . S
C687 C680 1.409 . S
C687 C686 1.362 . S
H688 C694 0.930 . S
H689 C697 0.930 . S
H690 C698 0.930 . S
H691 C699 0.930 . S
H692 C702 0.930 . S
H693 C703 0.930 . S
C694 H688 0.930 . S
C694 C695 1.355 . S
C694 C696 1.415 . S
C695 C694 1.355 . S
C695 C697 1.419 . S
C696 C694 1.415 . S
C696 C701 1.425 . S
C696 C703 1.409 . S
C697 H689 0.930 . S
C697 C695 1.419 . S
C697 C698 1.362 . S
C698 H690 0.930 . S
C698 C697 1.362 . S
C698 C701 1.409 . S
C699 H691 0.930 . S
C699 C700 1.355 . S
C699 C701 1.415 . S
C700 C699 1.355 . S
C700 C702 1.419 . S
C701 C696 1.425 . S
C701 C698 1.409 . S
C701 C699 1.415 . S
C702 H692 0.930 . S
C702 C700 1.419 . S
C702 C703 1.362 . S
C703 H693 0.930 . S
C703 C696 1.409 . S
C703 C702 1.362 . S
H704 C710 0.930 . S
H705 C713 0.930 . S
H706 C714 0.930 1_565 S
H707 C715 0.930 . S
H708 C718 0.930 . S
H709 C719 0.930 1_545 S
C710 H704 0.930 . S
C710 C711 1.355 . S
C710 C712 1.415 . S
C711 C710 1.355 . S
C711 C713 1.419 . S
C712 C710 1.415 . S
C712 C717 1.425 1_545 S
C712 C719 1.409 1_545 S
C713 H705 0.930 . S
C713 C711 1.419 . S
C713 C714 1.362 . S
C714 H706 0.930 1_545 S
C714 C713 1.362 . S
C714 C717 1.409 1_545 S
C715 H707 0.930 . S
C715 C716 1.355 . S
C715 C717 1.415 . S
C716 C715 1.355 . S
C716 C718 1.419 . S
C717 C712 1.425 1_565 S
C717 C714 1.409 1_565 S
C717 C715 1.415 . S
C718 H708 0.930 . S
C718 C716 1.419 . S
C718 C719 1.362 . S
C719 H709 0.930 1_565 S
C719 C712 1.409 1_565 S
C719 C718 1.362 . S
H720 C726 0.930 . S
H721 C729 0.930 . S
H722 C730 0.930 . S
H723 C731 0.930 . S
H724 C734 0.930 . S
H725 C735 0.930 . S
C726 H720 0.930 . S
C726 C727 1.355 . S
C726 C728 1.435 . S
C727 C726 1.355 . S
C727 C729 1.419 . S
C728 C726 1.435 . S
C728 C733 1.424 1_655 S
C728 C735 1.389 1_655 S
C729 H721 0.930 . S
C729 C727 1.419 . S
C729 C730 1.362 . S
C730 H722 0.930 . S
C730 C729 1.362 . S
C730 C733 1.389 1_655 S
C731 H723 0.930 . S
C731 C732 1.355 . S
C731 C733 1.435 . S
C732 C731 1.355 . S
C732 C734 1.419 . S
C733 C728 1.424 1_455 S
C733 C730 1.389 1_455 S
C733 C731 1.435 . S
C734 H724 0.930 . S
C734 C732 1.419 . S
C734 C735 1.362 . S
C735 H725 0.930 . S
C735 C728 1.389 1_455 S
C735 C734 1.362 . S
C231 C12 1.589 . S
C236 C155 1.618 . S
C247 C112 1.615 . S
C252 C14 1.584 . S
C263 C127 1.597 . S
C268 C28 1.576 . S
C279 C141 1.596 . S
C284 C54 1.580 . S
C295 C71 1.593 1_545 S
C300 C69 1.582 . S
C311 C82 1.576 . S
C316 C85 1.603 1_455 S
C327 C96 1.610 . S
C332 C99 1.614 1_565 S
C343 C110 1.598 . S
C348 C56 1.619 1_655 S
C359 C125 1.614 . S
C364 C43 1.611 1_565 S
C375 C1 1.614 1_655 S
C380 C138 1.581 . S
C391 C27 1.591 1_545 S
C396 C152 1.588 . S
C407 C41 1.610 1_455 S
C412 C166 1.578 . S
C423 C183 1.613 . S
C428 C181 1.612 . S
C439 C194 1.576 . S
C444 C208 1.605 . S
C455 C223 1.595 . S
C460 C197 1.580 . S
C471 C168 1.596 . S
C476 C210 1.579 . S
C487 C209 1.765 . S
C492 C0 1.791 . S
C503 C222 1.770 . S
C508 C26 1.761 . S
C519 C169 1.767 . S
C524 C40 1.761 . S
C535 C42 1.778 . S
C540 C182 1.784 . S
C551 C57 1.770 . S
C556 C140 1.789 . S
C567 C154 1.753 . S
C572 C70 1.785 . S
C583 C84 1.763 . S
C588 C113 1.792 . S
C599 C98 1.753 . S
C604 C126 1.787 . S
C615 C29 1.655 . S
C620 C13 1.654 . S
C631 C55 1.641 . S
C636 C15 1.662 . S
C647 C68 1.666 . S
C652 C97 1.640 . S
C663 C83 1.670 . S
C668 C111 1.634 . S
C679 C153 1.640 . S
C684 C124 1.665 . S
C695 C139 1.632 . S
C700 C167 1.672 . S
C711 C196 1.640 . S
C716 C180 1.665 . S
C727 C195 1.667 . S
C732 C211 1.637 . S
