# Generated by pormake.
# Topology etd, (3)-cn, num edge types: 1
# Building blocks:
#     Node 0, Type 0, BuildingBlock: WUSLED_clean_sbu_0, # of connection points: 3
#     Node 1, Type 0, BuildingBlock: WUSLED_clean_sbu_0, # of connection points: 3
#     Node 2, Type 0, BuildingBlock: WUSLED_clean_sbu_0, # of connection points: 3
#     Node 3, Type 0, BuildingBlock: WUSLED_clean_sbu_0, # of connection points: 3
#     Node 4, Type 0, BuildingBlock: WUSLED_clean_sbu_0, # of connection points: 3
#     Node 5, Type 0, BuildingBlock: WUSLED_clean_sbu_0, # of connection points: 3
#     Node 6, Type 0, BuildingBlock: WUSLED_clean_sbu_0, # of connection points: 3
#     Node 7, Type 0, BuildingBlock: WUSLED_clean_sbu_0, # of connection points: 3
#     Node 8, Type 0, BuildingBlock: WUSLED_clean_sbu_0, # of connection points: 3
#     Node 9, Type 0, BuildingBlock: WUSLED_clean_sbu_0, # of connection points: 3
#     Node 10, Type 0, BuildingBlock: WUSLED_clean_sbu_0, # of connection points: 3
#     Node 11, Type 0, BuildingBlock: WUSLED_clean_sbu_0, # of connection points: 3
#     Edge 12, Type (0, 0), BuildingBlock: AJUNOK_clean_linker_0, # of connection points: 2
#     Edge 13, Type (0, 0), BuildingBlock: AJUNOK_clean_linker_0, # of connection points: 2
#     Edge 14, Type (0, 0), BuildingBlock: AJUNOK_clean_linker_0, # of connection points: 2
#     Edge 15, Type (0, 0), BuildingBlock: AJUNOK_clean_linker_0, # of connection points: 2
#     Edge 16, Type (0, 0), BuildingBlock: AJUNOK_clean_linker_0, # of connection points: 2
#     Edge 17, Type (0, 0), BuildingBlock: AJUNOK_clean_linker_0, # of connection points: 2
#     Edge 18, Type (0, 0), BuildingBlock: AJUNOK_clean_linker_0, # of connection points: 2
#     Edge 19, Type (0, 0), BuildingBlock: AJUNOK_clean_linker_0, # of connection points: 2
#     Edge 20, Type (0, 0), BuildingBlock: AJUNOK_clean_linker_0, # of connection points: 2
#     Edge 21, Type (0, 0), BuildingBlock: AJUNOK_clean_linker_0, # of connection points: 2
#     Edge 22, Type (0, 0), BuildingBlock: AJUNOK_clean_linker_0, # of connection points: 2
#     Edge 23, Type (0, 0), BuildingBlock: AJUNOK_clean_linker_0, # of connection points: 2
#     Edge 24, Type (0, 0), BuildingBlock: AJUNOK_clean_linker_0, # of connection points: 2
#     Edge 25, Type (0, 0), BuildingBlock: AJUNOK_clean_linker_0, # of connection points: 2
#     Edge 26, Type (0, 0), BuildingBlock: AJUNOK_clean_linker_0, # of connection points: 2
#     Edge 27, Type (0, 0), BuildingBlock: AJUNOK_clean_linker_0, # of connection points: 2
#     Edge 28, Type (0, 0), BuildingBlock: AJUNOK_clean_linker_0, # of connection points: 2
#     Edge 29, Type (0, 0), BuildingBlock: AJUNOK_clean_linker_0, # of connection points: 2
# Relax obj value: 0.000
# Max RMSD: 0.001
# Mean RMSD: 0.001
data_MOF--net-etd--node1-WUSLED_clean_sbu_0--edge1-AJUNOK_clean_linker_0
_symmetry_space_group_name_H-M    P1
_symmetry_Int_Tables_number       1
_symmetry_cell_setting            triclinic
loop_
_symmetry_equiv_pos_as_xyz
'x, y, z'
_cell_length_a     73.586941
_cell_length_b     73.598398
_cell_length_c     53.590983
_cell_angle_alpha  89.924585
_cell_angle_beta   90.015299
_cell_angle_gamma 120.04045
loop_
_atom_site_label
_atom_site_type_symbol
_atom_site_fract_x
_atom_site_fract_y
_atom_site_fract_z
_atom_type_partial_charge
C0 C 0.52379 0.19342 0.10395 0.0
C1 C 0.53717 0.20898 0.12082 0.0
C2 C 0.52519 0.23247 0.10565 0.0
C3 C 0.53787 0.22835 0.12166 0.0
C4 C 0.51171 0.21675 0.08893 0.0
C5 C 0.51107 0.19743 0.08806 0.0
U6 U 0.53711 0.15346 0.13083 0.0
O7 O 0.51773 0.11903 0.13413 0.0
O8 O 0.54688 0.13309 0.11228 0.0
C9 C 0.52986 0.11572 0.11906 0.0
C10 C 0.52278 0.17292 0.10292 0.0
C11 C 0.5191 0.09977 0.09944 0.0
C12 C 0.50877 0.08976 0.0562 0.0
C13 C 0.5181 0.10531 0.07459 0.0
C14 C 0.50096 0.06297 0.08736 0.0
C15 C 0.50012 0.06841 0.06239 0.0
C16 C 0.51032 0.07849 0.10566 0.0
C17 C 0.56966 0.16847 0.19163 0.0
C18 C 0.58094 0.14664 0.21307 0.0
C19 C 0.59045 0.18092 0.2295 0.0
C20 C 0.57977 0.18397 0.20985 0.0
C21 C 0.59128 0.1623 0.23129 0.0
C22 C 0.57022 0.14972 0.19335 0.0
C23 C 0.55881 0.1724 0.17105 0.0
O24 O 0.5407 0.17358 0.09864 0.0
O25 O 0.51169 0.1596 0.12064 0.0
O26 O 0.53825 0.16075 0.17082 0.0
O27 O 0.56729 0.17484 0.14884 0.0
H28 H 0.54699 0.2061 0.1334 0.0
H29 H 0.5481 0.23998 0.13508 0.0
H30 H 0.50178 0.21948 0.07638 0.0
H31 H 0.5006 0.18559 0.07497 0.0
H32 H 0.50835 0.09441 0.03712 0.0
H33 H 0.52473 0.12164 0.06934 0.0
H34 H 0.49487 0.04673 0.09265 0.0
H35 H 0.51105 0.07388 0.12469 0.0
H36 H 0.58102 0.13199 0.21417 0.0
H37 H 0.59836 0.19331 0.24313 0.0
H38 H 0.57951 0.19855 0.20881 0.0
H39 H 0.5624 0.13753 0.17946 0.0
C40 C 0.36796 0.50776 0.26975 0.0
C41 C 0.36481 0.51991 0.28753 0.0
C42 C 0.33009 0.50881 0.27037 0.0
C43 C 0.34603 0.52041 0.28785 0.0
C44 C 0.33326 0.49644 0.25282 0.0
C45 C 0.35205 0.49599 0.25249 0.0
U46 U 0.4209 0.52135 0.29791 0.0
O47 O 0.43682 0.50287 0.30053 0.0
O48 O 0.4517 0.53269 0.27994 0.0
C49 C 0.45243 0.51576 0.28602 0.0
C50 C 0.38772 0.50724 0.26898 0.0
C51 C 0.45862 0.50615 0.26596 0.0
C52 C 0.45112 0.47755 0.2373 0.0
C53 C 0.44434 0.48672 0.25525 0.0
C54 C 0.48636 0.50732 0.2401 0.0
C55 C 0.47229 0.48761 0.22981 0.0
C56 C 0.47961 0.51642 0.25804 0.0
C57 C 0.43616 0.55191 0.36029 0.0
C58 C 0.47096 0.57121 0.37887 0.0
C59 C 0.44045 0.56529 0.40259 0.0
C60 C 0.42752 0.55436 0.38245 0.0
C61 C 0.46233 0.574 0.40099 0.0
C62 C 0.45796 0.56021 0.35866 0.0
C63 C 0.42209 0.54137 0.33901 0.0
O64 O 0.40483 0.5255 0.26565 0.0
O65 O 0.38982 0.49576 0.28629 0.0
O66 O 0.4137 0.52089 0.33791 0.0
O67 O 0.42838 0.55063 0.31719 0.0
H68 H 0.37691 0.52905 0.30109 0.0
H69 H 0.34405 0.53006 0.3016 0.0
H70 H 0.32111 0.48692 0.23952 0.0
H71 H 0.35414 0.48639 0.23875 0.0
H72 H 0.43989 0.4624 0.22962 0.0
H73 H 0.42802 0.47851 0.26094 0.0
H74 H 0.50263 0.51575 0.23423 0.0
H75 H 0.49087 0.53147 0.26593 0.0
H76 H 0.48778 0.578 0.37694 0.0
H77 H 0.43332 0.56705 0.41942 0.0
H78 H 0.41074 0.54805 0.38407 0.0
H79 H 0.46494 0.5585 0.34168 0.0
C80 C 0.89626 0.34872 0.43645 0.0
C81 C 0.87986 0.34666 0.45177 0.0
C82 C 0.85719 0.31095 0.43672 0.0
C83 C 0.86049 0.32793 0.45192 0.0
C84 C 0.87381 0.31304 0.42169 0.0
C85 C 0.89313 0.33177 0.42151 0.0
U86 U 0.93528 0.40263 0.46303 0.0
O87 O 0.96968 0.41804 0.46731 0.0
O88 O 0.95583 0.43252 0.44399 0.0
C89 C 0.97314 0.43317 0.4516 0.0
C90 C 0.91671 0.36833 0.43589 0.0
C91 C 0.98951 0.43827 0.43252 0.0
C92 C 1.00039 0.43877 0.38947 0.0
C93 C 0.98447 0.43226 0.40745 0.0
C94 C 1.02656 0.45687 0.42148 0.0
C95 C 1.02163 0.4513 0.39627 0.0
C96 C 1.01067 0.45041 0.43938 0.0
C97 C 0.9183 0.42141 0.52169 0.0
C98 C 0.93599 0.44152 0.55895 0.0
C99 C 0.90406 0.44 0.54462 0.0
C100 C 0.90304 0.42735 0.52463 0.0
C101 C 0.92026 0.44683 0.56234 0.0
C102 C 0.935 0.42886 0.53885 0.0
C103 C 0.91542 0.40628 0.50174 0.0
O104 O 0.91606 0.38544 0.43057 0.0
O105 O 0.92948 0.3709 0.45441 0.0
O106 O 0.927 0.3973 0.50285 0.0
O107 O 0.9132 0.41149 0.47895 0.0
H108 H 0.88202 0.35956 0.46354 0.0
H109 H 0.84801 0.32679 0.46372 0.0
H110 H 0.87198 0.3001 0.41028 0.0
H111 H 0.90566 0.33301 0.40974 0.0
H112 H 0.99603 0.43454 0.37015 0.0
H113 H 0.96823 0.42292 0.40166 0.0
H114 H 1.04275 0.46641 0.42733 0.0
H115 H 1.01491 0.45524 0.4586 0.0
H116 H 0.94869 0.44662 0.57228 0.0
H117 H 0.89199 0.44425 0.54637 0.0
H118 H 0.89003 0.42184 0.51169 0.0
H119 H 0.94703 0.42457 0.53709 0.0
C120 C 0.58453 0.879 0.60587 0.0
C121 C 0.5735 0.8645 0.62492 0.0
C122 C 0.58317 0.83995 0.6073 0.0
C123 C 0.57285 0.84515 0.62565 0.0
C124 C 0.59427 0.85462 0.58834 0.0
C125 C 0.5949 0.87394 0.58761 0.0
U126 U 0.57039 0.9184 0.63251 0.0
O127 O 0.58931 0.95287 0.63571 0.0
O128 O 0.56026 0.93841 0.61373 0.0
C129 C 0.57703 0.95593 0.62058 0.0
C130 C 0.58537 0.89942 0.60485 0.0
C131 C 0.58758 0.9718 0.60083 0.0
C132 C 0.60056 0.98165 0.55834 0.0
C133 C 0.59173 0.96644 0.57722 0.0
C134 C 0.60171 1.00781 0.58667 0.0
C135 C 0.60535 1.00245 0.56277 0.0
C136 C 0.59287 0.99263 0.60547 0.0
C137 C 0.53642 0.90218 0.69263 0.0
C138 C 0.53359 0.92287 0.72629 0.0
C139 C 0.50582 0.88702 0.71975 0.0
C140 C 0.51686 0.88527 0.69958 0.0
C141 C 0.5141 0.90576 0.7335 0.0
C142 C 0.54465 0.92111 0.70598 0.0
C143 C 0.54813 0.89906 0.67226 0.0
O144 O 0.56742 0.89858 0.60028 0.0
O145 O 0.59614 0.91264 0.62278 0.0
O146 O 0.5687 0.9109 0.67249 0.0
O147 O 0.53999 0.89643 0.64982 0.0
H148 H 0.56548 0.86819 0.63926 0.0
H149 H 0.56453 0.83438 0.64078 0.0
H150 H 0.60233 0.85105 0.57394 0.0
H151 H 0.60349 0.88494 0.57277 0.0
H152 H 0.60357 0.97713 0.54027 0.0
H153 H 0.58791 0.95047 0.5733 0.0
H154 H 0.60518 1.02366 0.59064 0.0
H155 H 0.58979 0.99707 0.62357 0.0
H156 H 0.54053 0.93741 0.73672 0.0
H157 H 0.49078 0.87363 0.72469 0.0
H158 H 0.51022 0.87052 0.68958 0.0
H159 H 0.55974 0.9344 0.70102 0.0
C160 C 0.74118 0.56819 0.77267 0.0
C161 C 0.74379 0.55448 0.78857 0.0
C162 C 0.77986 0.56881 0.77421 0.0
C163 C 0.76295 0.55472 0.78924 0.0
C164 C 0.77712 0.58246 0.75828 0.0
C165 C 0.75795 0.58215 0.75755 0.0
U166 U 0.68739 0.5524 0.79989 0.0
O167 O 0.67049 0.56994 0.80257 0.0
O168 O 0.65671 0.54044 0.78152 0.0
C169 C 0.65518 0.55685 0.7879 0.0
C170 C 0.7211 0.56808 0.77166 0.0
C171 C 0.64891 0.56634 0.76786 0.0
C172 C 0.65714 0.59061 0.73312 0.0
C173 C 0.66372 0.58197 0.75201 0.0
C174 C 0.62098 0.56809 0.74575 0.0
C175 C 0.63566 0.58358 0.72965 0.0
C176 C 0.62755 0.55955 0.76462 0.0
C177 C 0.67182 0.52009 0.861 0.0
C178 C 0.63718 0.50313 0.88015 0.0
C179 C 0.66572 0.50125 0.90015 0.0
C180 C 0.67923 0.51327 0.88091 0.0
C181 C 0.64447 0.49573 0.89977 0.0
C182 C 0.65076 0.51518 0.86081 0.0
C183 C 0.68627 0.53166 0.84039 0.0
O184 O 0.70436 0.54967 0.76765 0.0
O185 O 0.71829 0.57888 0.78922 0.0
O186 O 0.69387 0.55206 0.83999 0.0
O187 O 0.68068 0.52295 0.81824 0.0
H188 H 0.73103 0.54361 0.80044 0.0
H189 H 0.76463 0.54407 0.80171 0.0
H190 H 0.78973 0.59321 0.74615 0.0
H191 H 0.7562 0.59279 0.7451 0.0
H192 H 0.66878 0.60253 0.72097 0.0
H193 H 0.6803 0.58742 0.75421 0.0
H194 H 0.60438 0.56266 0.74385 0.0
H195 H 0.61591 0.5476 0.77674 0.0
H196 H 0.62088 0.49914 0.87945 0.0
H197 H 0.67189 0.49617 0.9153 0.0
H198 H 0.69547 0.51702 0.88144 0.0
H199 H 0.64478 0.52038 0.84558 0.0
C200 C 0.20975 0.72251 0.93628 0.0
C201 C 0.22397 0.72568 0.95554 0.0
C202 C 0.24862 0.76035 0.93895 0.0
C203 C 0.24324 0.74446 0.95689 0.0
C204 C 0.23419 0.75714 0.91986 0.0
C205 C 0.21496 0.73836 0.91852 0.0
U206 U 0.17003 0.66823 0.96117 0.0
O207 O 0.13554 0.65189 0.96255 0.0
O208 O 0.15131 0.63826 0.94128 0.0
C209 C 0.13337 0.63688 0.94741 0.0
C210 C 0.18956 0.70273 0.93438 0.0
C211 C 0.1177 0.63086 0.92725 0.0
C212 C 0.09774 0.63887 0.89734 0.0
C213 C 0.11366 0.64551 0.91536 0.0
C214 C 0.09011 0.60304 0.90252 0.0
C215 C 0.08556 0.61749 0.89105 0.0
C216 C 0.10595 0.60966 0.92047 0.0
C217 C 0.18326 0.649 1.02221 0.0
C218 C 0.16917 0.63447 0.06331 0.0
C219 C 0.1895 0.62231 0.04067 0.0
C220 C 0.1921 0.63593 1.02102 0.0
C221 C 0.17806 0.62146 0.06208 0.0
C222 C 0.17174 0.64809 0.04362 0.0
C223 C 0.18764 0.66467 1.00219 0.0
O224 O 0.19093 0.68589 0.93 0.0
O225 O 0.17559 0.69973 0.95159 0.0
O226 O 0.1758 0.67339 1.00156 0.0
O227 O 0.19167 0.66015 0.97987 0.0
H228 H 0.22016 0.71364 0.96951 0.0
H229 H 0.25383 0.74663 0.9721 0.0
H230 H 0.23791 0.76907 0.90577 0.0
H231 H 0.20417 0.73619 0.90352 0.0
H232 H 0.09466 0.65037 0.88871 0.0
H233 H 0.1226 0.66199 0.9202 0.0
H234 H 0.08141 0.58656 0.8976 0.0
H235 H 0.10889 0.59812 0.9293 0.0
H236 H 0.16034 0.6342 0.07962 0.0
H237 H 0.197 0.61289 0.03943 0.0
H238 H 0.20146 0.63654 1.0051 0.0
H239 H 0.16499 0.65815 0.04539 0.0
C240 C 0.89728 0.56806 0.77637 0.0
C241 C 0.88254 0.55788 0.75729 0.0
C242 C 0.85912 0.56852 0.77606 0.0
C243 C 0.86358 0.55806 0.75718 0.0
C244 C 0.87385 0.57845 0.79529 0.0
C245 C 0.89277 0.57825 0.7954 0.0
U246 U 0.93537 0.55322 0.74729 0.0
O247 O 0.96979 0.57162 0.74334 0.0
O248 O 0.9552 0.54219 0.76464 0.0
C249 C 0.97279 0.55896 0.75787 0.0
C250 C 0.9174 0.56827 0.77656 0.0
C251 C 0.98877 0.56909 0.77755 0.0
C252 C 0.99898 0.58232 0.81985 0.0
C253 C 0.98366 0.57356 0.80113 0.0
C254 C 1.02477 0.58275 0.79142 0.0
C255 C 1.01966 0.58677 0.81528 0.0
C256 C 1.00946 0.57395 0.77278 0.0
C257 C 0.91759 0.52091 0.68613 0.0
C258 C 0.93509 0.50447 0.66536 0.0
C259 C 0.90392 0.50225 0.64711 0.0
C260 C 0.90279 0.51403 0.66684 0.0
C261 C 0.91985 0.49703 0.64635 0.0
C262 C 0.93393 0.51628 0.68521 0.0
C263 C 0.91508 0.53223 0.70726 0.0
O264 O 0.91608 0.54998 0.78021 0.0
O265 O 0.93056 0.57924 0.75865 0.0
O266 O 0.92751 0.5527 0.70752 0.0
O267 O 0.91278 0.52353 0.72933 0.0
H268 H 0.88575 0.5499 0.74244 0.0
H269 H 0.85254 0.55028 0.74213 0.0
H270 H 0.87067 0.58625 0.81037 0.0
H271 H 0.9039 0.58608 0.81036 0.0
H272 H 0.99466 0.58562 0.83789 0.0
H273 H 0.9678 0.57009 0.80512 0.0
H274 H 1.04053 0.58595 0.78736 0.0
H275 H 1.01372 0.57066 0.75468 0.0
H276 H 0.94757 0.50072 0.66518 0.0
H277 H 0.89223 0.49712 0.63247 0.0
H278 H 0.89015 0.51755 0.66717 0.0
H279 H 0.94553 0.52153 0.69995 0.0
C280 C 0.36595 0.87868 0.94422 0.0
C281 C 0.36381 0.86282 0.92788 0.0
C282 C 0.32809 0.83975 0.94267 0.0
C283 C 0.34504 0.84352 0.92712 0.0
C284 C 0.33025 0.8558 0.95877 0.0
C285 C 0.34904 0.87506 0.95958 0.0
U286 U 0.41985 0.91761 0.91798 0.0
O287 O 0.43618 0.95202 0.91486 0.0
O288 O 0.4501 0.93701 0.9371 0.0
C289 C 0.4512 0.95471 0.93035 0.0
C290 C 0.3857 0.89896 0.94544 0.0
C291 C 0.45677 0.97057 0.95024 0.0
C292 C 0.44869 0.99235 0.977 0.0
C293 C 0.44251 0.97658 0.95892 0.0
C294 C 0.48329 0.99611 0.97823 0.0
C295 C 0.46917 1.00231 0.98688 0.0
C296 C 0.47715 0.98044 0.96012 0.0
C297 C 0.43665 0.90093 0.85766 0.0
C298 C 0.46929 0.92174 0.83484 0.0
C299 C 0.44462 0.88632 0.82149 0.0
C300 C 0.43118 0.88432 0.84102 0.0
C301 C 0.46382 0.90502 0.81814 0.0
C302 C 0.45579 0.9197 0.8545 0.0
C303 C 0.42207 0.89802 0.87809 0.0
O304 O 0.40264 0.89783 0.95011 0.0
O305 O 0.38848 0.9124 0.92762 0.0
O306 O 0.41404 0.91045 0.87793 0.0
O307 O 0.42768 0.89535 0.90046 0.0
H308 H 0.37665 0.86539 0.91572 0.0
H309 H 0.3437 0.83164 0.91415 0.0
H310 H 0.31747 0.85334 0.97095 0.0
H311 H 0.35039 0.88713 0.97227 0.0
H312 H 0.43755 0.99701 0.98292 0.0
H313 H 0.42669 0.96927 0.95157 0.0
H314 H 0.49912 1.00336 0.98555 0.0
H315 H 0.48842 0.97611 0.95369 0.0
H316 H 0.48412 0.93622 0.83293 0.0
H317 H 0.43991 0.87323 0.80885 0.0
H318 H 0.41646 0.86973 0.84316 0.0
H319 H 0.46029 0.93267 0.86727 0.0
C320 C 0.52326 0.34922 0.11112 0.0
C321 C 0.53497 0.34628 0.09252 0.0
C322 C 0.52491 0.3117 0.1094 0.0
C323 C 0.53578 0.32767 0.09166 0.0
C324 C 0.51308 0.3147 0.12787 0.0
C325 C 0.51232 0.33332 0.12875 0.0
U326 U 0.53571 0.40194 0.08345 0.0
O327 O 0.51643 0.41712 0.08106 0.0
O328 O 0.54639 0.43254 0.10127 0.0
C329 C 0.52924 0.43292 0.09529 0.0
C330 C 0.52224 0.3687 0.11222 0.0
C331 C 0.51939 0.43869 0.11541 0.0
C332 C 0.50856 0.43719 0.15863 0.0
C333 C 0.51697 0.4305 0.13964 0.0
C334 C 0.50443 0.45988 0.12924 0.0
C335 C 0.50245 0.45218 0.1537 0.0
C336 C 0.51286 0.45324 0.11032 0.0
C337 C 0.56634 0.41794 1.02087 0.0
C338 C 0.59071 0.45236 1.00362 0.0
C339 C 0.57574 0.42174 0.97691 0.0
C340 C 0.56439 0.40916 0.99713 0.0
C341 C 0.58946 0.44339 0.98006 0.0
C342 C 0.57927 0.43974 0.02389 0.0
C343 C 0.5559 0.40378 0.04222 0.0
O344 O 0.5403 0.38603 0.11559 0.0
O345 O 0.51056 0.37062 0.09504 0.0
O346 O 0.53536 0.39499 0.04335 0.0
O347 O 0.5651 0.40995 0.06407 0.0
H348 H 0.5434 0.35834 0.07863 0.0
H349 H 0.54467 0.32566 0.0769 0.0
H350 H 0.50456 0.3027 0.14178 0.0
H351 H 0.50317 0.3353 0.14321 0.0
H352 H 0.50684 0.43065 0.17718 0.0
H353 H 0.52176 0.41912 0.14392 0.0
H354 H 0.49992 0.47146 0.12486 0.0
H355 H 0.51458 0.45973 0.09174 0.0
H356 H 0.60111 0.46901 1.00656 0.0
H357 H 0.57407 0.41446 0.95885 0.0
H358 H 0.55443 0.39241 0.99435 0.0
H359 H 0.58097 0.44692 0.04201 0.0
C360 C 0.21187 0.50807 0.27642 0.0
C361 C 0.22876 0.52406 0.2631 0.0
C362 C 0.2507 0.50896 0.27364 0.0
C363 C 0.24803 0.52457 0.26185 0.0
C364 C 0.23373 0.49301 0.28699 0.0
C365 C 0.21451 0.49257 0.28834 0.0
U366 U 0.1714 0.52077 0.24983 0.0
O367 O 0.13696 0.5018 0.24817 0.0
O368 O 0.1519 0.53176 0.26836 0.0
C369 C 0.13425 0.51466 0.26266 0.0
C370 C 0.19146 0.50726 0.27795 0.0
C371 C 0.11881 0.50502 0.28306 0.0
C372 C 0.10052 0.47792 0.31452 0.0
C373 C 0.11596 0.48713 0.29595 0.0
C374 C 0.09088 0.50456 0.30783 0.0
C375 C 0.0877 0.48647 0.32053 0.0
C376 C 0.10623 0.51368 0.28926 0.0
C377 C 0.18481 0.55077 0.18706 0.0
C378 C 0.16983 0.57094 0.16959 0.0
C379 C 0.19068 0.56147 0.14351 0.0
C380 C 0.19362 0.5512 0.16373 0.0
C381 C 0.1788 0.5715 0.14621 0.0
C382 C 0.17272 0.56056 0.18985 0.0
C383 C 0.18918 0.54067 0.20819 0.0
O384 O 0.19229 0.52535 0.28147 0.0
O385 O 0.17753 0.49551 0.26111 0.0
O386 O 0.17744 0.52015 0.20964 0.0
O387 O 0.19251 0.55005 0.22995 0.0
H388 H 0.22708 0.53619 0.25373 0.0
H389 H 0.2609 0.53734 0.25189 0.0
H390 H 0.23525 0.48072 0.29618 0.0
H391 H 0.20166 0.48007 0.29866 0.0
H392 H 0.09871 0.46423 0.32432 0.0
H393 H 0.12559 0.48024 0.2916 0.0
H394 H 0.08125 0.51147 0.31199 0.0
H395 H 0.10814 0.52745 0.27954 0.0
H396 H 0.16061 0.57854 0.17219 0.0
H397 H 0.19816 0.56201 0.1259 0.0
H398 H 0.2031 0.54386 0.16123 0.0
H399 H 0.16574 0.56039 0.20771 0.0
C400 C 0.73954 0.19277 0.44247 0.0
C401 C 0.74124 0.20871 0.42655 0.0
C402 C 0.7775 0.23159 0.43969 0.0
C403 C 0.76001 0.22799 0.42527 0.0
C404 C 0.77566 0.21555 0.45566 0.0
C405 C 0.75686 0.19632 0.457 0.0
U406 U 0.68619 0.15234 0.41615 0.0
O407 O 0.67051 0.1179 0.41481 0.0
O408 O 0.65573 0.1331 0.43496 0.0
C409 C 0.65501 0.11536 0.42934 0.0
C410 C 0.71987 0.17241 0.44411 0.0
C411 C 0.64898 0.09986 0.44974 0.0
C412 C 0.65702 0.08003 0.47985 0.0
C413 C 0.66363 0.09585 0.46168 0.0
C414 C 0.6212 0.07246 0.47481 0.0
C415 C 0.63565 0.06793 0.48631 0.0
C416 C 0.62779 0.08818 0.45668 0.0
C417 C 0.66936 0.16546 0.35341 0.0
C418 C 0.63404 0.15068 0.33653 0.0
C419 C 0.66414 0.17152 0.31006 0.0
C420 C 0.67754 0.1743 0.33 0.0
C421 C 0.64224 0.15978 0.31311 0.0
C422 C 0.64749 0.15341 0.35651 0.0
C423 C 0.684 0.1699 0.37436 0.0
O424 O 0.7027 0.17342 0.44757 0.0
O425 O 0.71758 0.15841 0.42733 0.0
O426 O 0.69266 0.15807 0.37586 0.0
O427 O 0.67817 0.17347 0.39613 0.0
H428 H 0.72802 0.20629 0.4152 0.0
H429 H 0.76075 0.24015 0.4132 0.0
H430 H 0.78885 0.2178 0.46692 0.0
H431 H 0.75586 0.1842 0.46937 0.0
H432 H 0.66853 0.07697 0.48848 0.0
H433 H 0.68011 0.10471 0.45673 0.0
H434 H 0.60473 0.06383 0.47986 0.0
H435 H 0.61624 0.09109 0.44783 0.0
H436 H 0.61723 0.14158 0.33942 0.0
H437 H 0.67094 0.17913 0.29245 0.0
H438 H 0.69436 0.18375 0.32727 0.0
H439 H 0.64084 0.14641 0.37442 0.0
C440 C 0.58518 0.72318 0.61124 0.0
C441 C 0.57106 0.72505 0.5953 0.0
C442 C 0.58357 0.76074 0.61002 0.0
C443 C 0.57025 0.74367 0.5947 0.0
C444 C 0.59782 0.75881 0.62576 0.0
C445 C 0.59856 0.74018 0.6264 0.0
U446 U 0.57105 0.66952 0.58485 0.0
O447 O 0.59019 0.65425 0.58113 0.0
O448 O 0.56148 0.63956 0.60381 0.0
C449 C 0.57816 0.63888 0.59639 0.0
C450 C 0.5862 0.70369 0.61215 0.0
C451 C 0.58894 0.63321 0.61547 0.0
C452 C 0.59992 0.63306 0.65832 0.0
C453 C 0.59128 0.64033 0.64022 0.0
C454 C 0.60461 0.6121 0.62697 0.0
C455 C 0.60624 0.6185 0.65197 0.0
C456 C 0.596 0.61934 0.60895 0.0
C457 C 0.53634 0.65036 0.52545 0.0
C458 C 0.53516 0.63406 0.4854 0.0
C459 C 0.50282 0.62673 0.50572 0.0
C460 C 0.51429 0.63988 0.52548 0.0
C461 C 0.5131 0.6238 0.48533 0.0
C462 C 0.54667 0.6472 0.50523 0.0
C463 C 0.54813 0.66577 0.54546 0.0
O464 O 0.56841 0.68648 0.61714 0.0
O465 O 0.59678 0.70125 0.59397 0.0
O466 O 0.56874 0.67502 0.5449 0.0
O467 O 0.54038 0.66063 0.56814 0.0
H468 H 0.56071 0.71214 0.58329 0.0
H469 H 0.55942 0.74483 0.58201 0.0
H470 H 0.60825 0.77168 0.63777 0.0
H471 H 0.6096 0.73904 0.63877 0.0
H472 H 0.60104 0.6383 0.67743 0.0
H473 H 0.586 0.65111 0.64566 0.0
H474 H 0.60979 0.60128 0.62139 0.0
H475 H 0.59444 0.61374 0.58994 0.0
H476 H 0.54355 0.63247 0.46974 0.0
H477 H 0.48584 0.619 0.50626 0.0
H478 H 0.50588 0.64217 0.5406 0.0
H479 H 0.56364 0.65524 0.50439 0.0
C480 C 0.60026 0.16426 0.27676 0.0
C481 C 0.60315 0.15959 0.25211 0.0
C482 C 0.61242 0.16351 0.29649 0.0
C483 C 0.62809 0.15824 0.29232 0.0
H484 H 0.58867 0.16882 0.2808 0.0
H485 H 0.61 0.1678 0.31501 0.0
S486 S 0.64126 0.1436 0.23153 0.0
N487 N 0.62243 0.14881 0.22481 0.0
N488 N 0.64508 0.14715 0.26192 0.0
C489 C 0.63074 0.15292 0.26791 0.0
C490 C 0.6183 0.15361 0.24782 0.0
C491 C 0.48489 0.61413 0.45334 0.0
C492 C 0.50073 0.61099 0.46356 0.0
C493 C 0.47276 0.60223 0.43307 0.0
C494 C 0.47594 0.58668 0.4221 0.0
H495 H 0.48193 0.62603 0.46096 0.0
H496 H 0.46084 0.60536 0.42579 0.0
S497 S 0.51474 0.57156 0.44249 0.0
N498 N 0.51855 0.59074 0.4616 0.0
N499 N 0.49574 0.56837 0.42341 0.0
C500 C 0.49175 0.58337 0.43206 0.0
C501 C 0.50412 0.59551 0.45278 0.0
C502 C 0.93846 0.48981 0.61168 0.0
C503 C 0.92017 0.48352 0.6259 0.0
C504 C 0.93853 0.47775 0.59137 0.0
C505 C 0.92032 0.45898 0.58459 0.0
H506 H 0.95265 0.50442 0.61588 0.0
H507 H 0.95279 0.48341 0.58053 0.0
S508 S 0.86925 0.43429 0.61793 0.0
N509 N 0.88399 0.45638 0.63317 0.0
N510 N 0.88413 0.43375 0.59523 0.0
C511 C 0.9022 0.45216 0.59929 0.0
C512 C 0.90213 0.46441 0.61986 0.0
C513 C 0.49445 0.89042 0.77329 0.0
C514 C 0.50257 0.90689 0.75576 0.0
C515 C 0.48243 0.89027 0.79366 0.0
C516 C 0.47803 0.90659 0.79742 0.0
H517 H 0.49731 0.87743 0.77119 0.0
H518 H 0.4764 0.87714 0.80651 0.0
S519 S 0.49534 0.95329 0.75684 0.0
N520 N 0.50528 0.93998 0.74348 0.0
N521 N 0.48271 0.93971 0.78187 0.0
C522 C 0.48637 0.92339 0.78034 0.0
C523 C 0.49863 0.92353 0.75951 0.0
C524 C 0.60428 0.47543 0.95254 0.0
C525 C 0.60314 0.45635 0.95913 0.0
C526 C 0.61735 0.48792 0.933 0.0
C527 C 0.62996 0.48192 0.91962 0.0
H528 H 0.59494 0.48069 0.96248 0.0
H529 H 0.61788 0.50255 0.92864 0.0
S530 S 0.63267 0.43342 0.92948 0.0
N531 N 0.61584 0.43217 0.95072 0.0
N532 N 0.64009 0.45543 0.91395 0.0
C533 C 0.62884 0.46284 0.92594 0.0
C534 C 0.61551 0.45011 0.94569 0.0
C535 C 0.18136 0.61628 0.10784 0.0
C536 C 0.17641 0.60786 0.08357 0.0
C537 C 0.18148 0.60423 0.12811 0.0
C538 C 0.17668 0.58331 0.1249 0.0
H539 H 0.18583 0.63251 0.11106 0.0
H540 H 0.18606 0.61159 0.14629 0.0
S541 S 0.16007 0.55307 0.06583 0.0
N542 N 0.16476 0.57673 0.05795 0.0
N543 N 0.16503 0.55414 0.09601 0.0
C544 C 0.17091 0.57446 0.10094 0.0
C545 C 0.17077 0.58671 0.08031 0.0
C546 C 0.50673 0.2533 0.10842 0.0
C547 C 0.52562 0.25292 0.10663 0.0
C548 C 0.50667 0.27233 0.10945 0.0
C549 C 0.52549 0.29176 0.10844 0.0
H550 H 0.49186 0.23875 0.10928 0.0
H551 H 0.49173 0.27183 0.11077 0.0
S552 S 0.57919 0.29943 0.10358 0.0
N553 N 0.56365 0.27369 0.10366 0.0
N554 N 0.56355 0.30942 0.10581 0.0
C555 C 0.54449 0.29161 0.10659 0.0
C556 C 0.54456 0.27223 0.10569 0.0
C557 C 0.28009 0.50638 0.29407 0.0
C558 C 0.27113 0.50931 0.2723 0.0
C559 C 0.29921 0.50647 0.29332 0.0
C560 C 0.31009 0.50933 0.27073 0.0
H561 H 0.27232 0.50414 0.31192 0.0
H562 H 0.30537 0.50397 0.31053 0.0
S563 S 0.29352 0.51784 0.20844 0.0
N564 N 0.27463 0.51505 0.22743 0.0
N565 N 0.31073 0.51569 0.22612 0.0
C566 C 0.30139 0.51241 0.24884 0.0
C567 C 0.28192 0.51233 0.2496 0.0
C568 C 0.82704 0.28152 0.45974 0.0
C569 C 0.83661 0.29098 0.43693 0.0
C570 C 0.80798 0.26239 0.46044 0.0
C571 C 0.7976 0.25202 0.43837 0.0
H572 H 0.83452 0.28878 0.47723 0.0
H573 H 0.80126 0.25573 0.47846 0.0
S574 S 0.81581 0.2704 0.37378 0.0
N575 N 0.83394 0.28877 0.39169 0.0
N576 N 0.79841 0.25268 0.39301 0.0
C577 C 0.80691 0.2614 0.41543 0.0
C578 C 0.82632 0.28086 0.41472 0.0
C579 C 0.60168 0.8 0.60658 0.0
C580 C 0.58296 0.78067 0.60935 0.0
C581 C 0.60157 0.81901 0.60581 0.0
C582 C 0.58276 0.8195 0.60807 0.0
H583 H 0.61655 0.80043 0.60472 0.0
H584 H 0.61639 0.83349 0.6037 0.0
S585 S 0.52946 0.77326 0.61589 0.0
N586 N 0.5451 0.76322 0.61464 0.0
N587 N 0.54486 0.7989 0.61296 0.0
C588 C 0.56392 0.80029 0.61093 0.0
C589 C 0.56403 0.78091 0.61157 0.0
C590 C 0.80074 0.55033 0.77232 0.0
C591 C 0.80024 0.56911 0.77498 0.0
C592 C 0.81981 0.55029 0.77252 0.0
C593 C 0.83911 0.56898 0.77571 0.0
H594 H 0.78628 0.53558 0.76974 0.0
H595 H 0.81943 0.53547 0.77041 0.0
S596 S 0.84637 0.6223 0.78375 0.0
N597 N 0.82071 0.60684 0.78124 0.0
N598 N 0.8565 0.60679 0.78139 0.0
C599 C 0.83881 0.58784 0.77851 0.0
C600 C 0.81942 0.5879 0.77816 0.0
C601 C 0.26972 0.79974 0.93838 0.0
C602 C 0.26911 0.78035 0.94017 0.0
C603 C 0.2888 0.81881 0.93938 0.0
C604 C 0.30807 0.81928 0.94192 0.0
H605 H 0.25529 0.80018 0.93641 0.0
H606 H 0.28848 0.83333 0.93786 0.0
S607 S 0.31514 0.77292 0.94732 0.0
N608 N 0.28952 0.76283 0.94444 0.0
N609 N 0.32532 0.79865 0.94656 0.0
C610 C 0.30769 0.80002 0.94372 0.0
C611 C 0.28825 0.78059 0.94285 0.0
C612 C 0.5028 0.05402 1.02097 0.0
C613 C 0.49119 0.05188 0.04273 0.0
C614 C 0.49546 0.03805 1.00296 0.0
C615 C 0.4761 1.01933 1.00585 0.0
H616 H 0.51798 0.06795 1.01812 0.0
H617 H 0.50506 0.04037 0.98665 0.0
S618 S 0.43924 1.00634 0.05898 0.0
N619 N 0.45896 1.02993 0.06567 0.0
N620 N 0.4453 0.9998 0.03207 0.0
C621 C 0.46412 1.01719 0.02728 0.0
C622 C 0.47163 1.03344 0.04566 0.0
C623 C 0.47604 0.46129 0.17032 0.0
C624 C 0.49445 0.46023 0.17393 0.0
C625 C 0.46875 0.46975 0.18864 0.0
C626 C 0.47971 0.4777 0.21119 0.0
H627 H 0.46721 0.45558 0.15314 0.0
H628 H 0.45468 0.4705 0.18486 0.0
S629 S 0.52851 0.47821 0.23008 0.0
N630 N 0.52336 0.4677 0.20193 0.0
N631 N 0.50952 0.48325 0.23645 0.0
C632 C 0.49796 0.47644 0.21518 0.0
C633 C 0.50534 0.46777 0.19658 0.0
C634 C 0.06974 0.48951 0.35875 0.0
C635 C 0.07112 0.47683 0.34008 0.0
C636 C 0.05388 0.48106 0.37692 0.0
C637 C 1.03861 0.45958 0.37708 0.0
H638 H 0.08105 0.50616 0.35935 0.0
H639 H 0.05337 0.49154 0.39071 0.0
S640 S 1.03528 0.41954 0.3324 0.0
N641 N 0.05581 0.44165 0.32286 0.0
N642 N 1.02616 0.4257 0.3572 0.0
C643 C 1.03987 0.44667 0.35861 0.0
C644 C 0.0561 0.45528 0.34015 0.0
C645 C 0.63844 0.05425 0.52835 0.0
C646 C 0.62839 0.05066 0.50504 0.0
C647 C 0.6311 0.03852 0.54675 0.0
C648 C 0.61357 1.0185 0.54248 0.0
H649 H 0.65179 0.0695 0.53262 0.0
H650 H 0.63917 0.04209 0.56453 0.0
S651 S 0.58219 1.00082 0.48423 0.0
N652 N 0.60047 1.0253 0.47838 0.0
N653 N 0.58652 0.99593 0.51302 0.0
C654 C 0.60365 1.01458 0.51907 0.0
C655 C 0.61107 1.0306 0.50039 0.0
C656 C 0.63707 0.61412 0.70667 0.0
C657 C 0.62846 0.59228 0.70929 0.0
C658 C 0.62978 0.62252 0.68821 0.0
C659 C 0.61382 0.6094 0.67146 0.0
H660 H 0.64928 0.62477 0.71926 0.0
H661 H 0.63678 0.6394 0.68692 0.0
S662 S 0.58635 0.55119 0.6702 0.0
N663 N 0.60338 0.55778 0.69326 0.0
N664 N 0.58958 0.57348 0.65885 0.0
C665 C 0.60523 0.58756 0.67378 0.0
C666 C 0.61255 0.57904 0.69261 0.0
C667 C 0.05588 0.61251 0.83077 0.0
C668 C 1.03584 0.59509 0.83537 0.0
C669 C 0.0717 0.61999 0.84903 0.0
C670 C 0.06819 0.61017 0.8725 0.0
H671 H 0.05938 0.62039 0.81285 0.0
H672 H 0.08696 0.63323 0.84452 0.0
S673 S 1.01835 0.56433 0.89414 0.0
N674 N 1.01334 0.56841 0.86529 0.0
N675 N 1.0429 0.58258 0.89965 0.0
C676 C 1.04813 0.59295 0.87747 0.0
C677 C 1.03201 0.58541 0.85893 0.0
loop_
_geom_bond_atom_site_label_1
_geom_bond_atom_site_label_2
_geom_bond_distance
_geom_bond_site_symmetry_2
_ccdc_geom_bond_type
C0 C1 1.264 . S
C0 C5 1.479 . S
C0 C10 1.465 . S
C1 C0 1.264 . S
C1 C3 1.339 . S
C1 H28 0.931 . S
C2 C3 1.395 . S
C2 C4 1.320 . S
C3 C1 1.339 . S
C3 C2 1.395 . S
C3 H29 0.929 . S
C4 C2 1.320 . S
C4 C5 1.405 . S
C4 H30 0.930 . S
C5 C0 1.479 . S
C5 C4 1.405 . S
C5 H31 0.931 . S
U6 O7 2.454 . S
U6 O8 2.458 . S
U6 C9 2.984 . S
U6 C10 2.847 . S
U6 C23 2.882 . S
U6 O24 2.441 . S
U6 O25 2.420 . S
U6 O26 2.455 . S
U6 O27 2.449 . S
O7 U6 2.454 . S
O7 C9 1.353 . S
O8 U6 2.458 . S
O8 C9 1.286 . S
C9 U6 2.984 . S
C9 O7 1.353 . S
C9 O8 1.286 . S
C9 C11 1.363 . S
C10 C0 1.465 . S
C10 U6 2.847 . S
C10 O24 1.249 . S
C10 O25 1.202 . S
C11 C9 1.363 . S
C11 C13 1.408 . S
C11 C16 1.342 . S
C12 C13 1.310 . S
C12 C15 1.461 . S
C12 H32 0.932 . S
C13 C11 1.408 . S
C13 C12 1.310 . S
C13 H33 0.930 . S
C14 C15 1.474 . S
C14 C16 1.285 . S
C14 H34 0.929 . S
C15 C12 1.461 . S
C15 C14 1.474 . S
C16 C11 1.342 . S
C16 C14 1.285 . S
C16 H35 0.930 . S
C17 C20 1.424 . S
C17 C22 1.245 . S
C17 C23 1.428 . S
C18 C21 1.260 . S
C18 C22 1.477 . S
C18 H36 0.932 . S
C19 C20 1.384 . S
C19 C21 1.479 . S
C19 H37 0.929 . S
C20 C17 1.424 . S
C20 C19 1.384 . S
C20 H38 0.928 . S
C21 C18 1.260 . S
C21 C19 1.479 . S
C22 C17 1.245 . S
C22 C18 1.477 . S
C22 H39 0.932 . S
C23 U6 2.882 . S
C23 C17 1.428 . S
C23 O26 1.301 . S
C23 O27 1.282 . S
O24 U6 2.441 . S
O24 C10 1.249 . S
O25 U6 2.420 . S
O25 C10 1.202 . S
O26 U6 2.455 . S
O26 C23 1.301 . S
O27 U6 2.449 . S
O27 C23 1.282 . S
H28 C1 0.931 . S
H29 C3 0.929 . S
H30 C4 0.930 . S
H31 C5 0.931 . S
H32 C12 0.932 . S
H33 C13 0.930 . S
H34 C14 0.929 . S
H35 C16 0.930 . S
H36 C18 0.932 . S
H37 C19 0.929 . S
H38 C20 0.928 . S
H39 C22 0.932 . S
C40 C41 1.264 . S
C40 C45 1.479 . S
C40 C50 1.465 . S
C41 C40 1.264 . S
C41 C43 1.339 . S
C41 H68 0.931 . S
C42 C43 1.395 . S
C42 C44 1.320 . S
C43 C41 1.339 . S
C43 C42 1.395 . S
C43 H69 0.929 . S
C44 C42 1.320 . S
C44 C45 1.405 . S
C44 H70 0.930 . S
C45 C40 1.479 . S
C45 C44 1.405 . S
C45 H71 0.931 . S
U46 O47 2.454 . S
U46 O48 2.458 . S
U46 C49 2.984 . S
U46 C50 2.847 . S
U46 C63 2.882 . S
U46 O64 2.441 . S
U46 O65 2.420 . S
U46 O66 2.455 . S
U46 O67 2.449 . S
O47 U46 2.454 . S
O47 C49 1.353 . S
O48 U46 2.458 . S
O48 C49 1.286 . S
C49 U46 2.984 . S
C49 O47 1.353 . S
C49 O48 1.286 . S
C49 C51 1.363 . S
C50 C40 1.465 . S
C50 U46 2.847 . S
C50 O64 1.249 . S
C50 O65 1.202 . S
C51 C49 1.363 . S
C51 C53 1.408 . S
C51 C56 1.342 . S
C52 C53 1.310 . S
C52 C55 1.461 . S
C52 H72 0.932 . S
C53 C51 1.408 . S
C53 C52 1.310 . S
C53 H73 0.930 . S
C54 C55 1.474 . S
C54 C56 1.285 . S
C54 H74 0.929 . S
C55 C52 1.461 . S
C55 C54 1.474 . S
C56 C51 1.342 . S
C56 C54 1.285 . S
C56 H75 0.930 . S
C57 C60 1.424 . S
C57 C62 1.245 . S
C57 C63 1.428 . S
C58 C61 1.260 . S
C58 C62 1.477 . S
C58 H76 0.932 . S
C59 C60 1.384 . S
C59 C61 1.479 . S
C59 H77 0.929 . S
C60 C57 1.424 . S
C60 C59 1.384 . S
C60 H78 0.928 . S
C61 C58 1.260 . S
C61 C59 1.479 . S
C62 C57 1.245 . S
C62 C58 1.477 . S
C62 H79 0.932 . S
C63 U46 2.882 . S
C63 C57 1.428 . S
C63 O66 1.301 . S
C63 O67 1.282 . S
O64 U46 2.441 . S
O64 C50 1.249 . S
O65 U46 2.420 . S
O65 C50 1.202 . S
O66 U46 2.455 . S
O66 C63 1.301 . S
O67 U46 2.449 . S
O67 C63 1.282 . S
H68 C41 0.931 . S
H69 C43 0.929 . S
H70 C44 0.930 . S
H71 C45 0.931 . S
H72 C52 0.932 . S
H73 C53 0.930 . S
H74 C54 0.929 . S
H75 C56 0.930 . S
H76 C58 0.932 . S
H77 C59 0.929 . S
H78 C60 0.928 . S
H79 C62 0.932 . S
C80 C81 1.264 . S
C80 C85 1.479 . S
C80 C90 1.465 . S
C81 C80 1.264 . S
C81 C83 1.339 . S
C81 H108 0.931 . S
C82 C83 1.395 . S
C82 C84 1.320 . S
C83 C81 1.339 . S
C83 C82 1.395 . S
C83 H109 0.929 . S
C84 C82 1.320 . S
C84 C85 1.405 . S
C84 H110 0.930 . S
C85 C80 1.479 . S
C85 C84 1.405 . S
C85 H111 0.931 . S
U86 O87 2.454 . S
U86 O88 2.458 . S
U86 C89 2.984 . S
U86 C90 2.847 . S
U86 C103 2.882 . S
U86 O104 2.441 . S
U86 O105 2.420 . S
U86 O106 2.455 . S
U86 O107 2.449 . S
O87 U86 2.454 . S
O87 C89 1.353 . S
O88 U86 2.458 . S
O88 C89 1.286 . S
C89 U86 2.984 . S
C89 O87 1.353 . S
C89 O88 1.286 . S
C89 C91 1.363 . S
C90 C80 1.465 . S
C90 U86 2.847 . S
C90 O104 1.249 . S
C90 O105 1.202 . S
C91 C89 1.363 . S
C91 C93 1.408 . S
C91 C96 1.342 . S
C92 C93 1.310 . S
C92 C95 1.461 . S
C92 H112 0.932 . S
C93 C91 1.408 . S
C93 C92 1.310 . S
C93 H113 0.930 . S
C94 C95 1.474 . S
C94 C96 1.285 . S
C94 H114 0.929 . S
C95 C92 1.461 . S
C95 C94 1.474 . S
C96 C91 1.342 . S
C96 C94 1.285 . S
C96 H115 0.930 . S
C97 C100 1.424 . S
C97 C102 1.245 . S
C97 C103 1.428 . S
C98 C101 1.260 . S
C98 C102 1.477 . S
C98 H116 0.932 . S
C99 C100 1.384 . S
C99 C101 1.479 . S
C99 H117 0.929 . S
C100 C97 1.424 . S
C100 C99 1.384 . S
C100 H118 0.928 . S
C101 C98 1.260 . S
C101 C99 1.479 . S
C102 C97 1.245 . S
C102 C98 1.477 . S
C102 H119 0.932 . S
C103 U86 2.882 . S
C103 C97 1.428 . S
C103 O106 1.301 . S
C103 O107 1.282 . S
O104 U86 2.441 . S
O104 C90 1.249 . S
O105 U86 2.420 . S
O105 C90 1.202 . S
O106 U86 2.455 . S
O106 C103 1.301 . S
O107 U86 2.449 . S
O107 C103 1.282 . S
H108 C81 0.931 . S
H109 C83 0.929 . S
H110 C84 0.930 . S
H111 C85 0.931 . S
H112 C92 0.932 . S
H113 C93 0.930 . S
H114 C94 0.929 . S
H115 C96 0.930 . S
H116 C98 0.932 . S
H117 C99 0.929 . S
H118 C100 0.928 . S
H119 C102 0.932 . S
C120 C121 1.264 . S
C120 C125 1.479 . S
C120 C130 1.465 . S
C121 C120 1.264 . S
C121 C123 1.339 . S
C121 H148 0.931 . S
C122 C123 1.395 . S
C122 C124 1.320 . S
C123 C121 1.339 . S
C123 C122 1.395 . S
C123 H149 0.929 . S
C124 C122 1.320 . S
C124 C125 1.405 . S
C124 H150 0.930 . S
C125 C120 1.479 . S
C125 C124 1.405 . S
C125 H151 0.931 . S
U126 O127 2.454 . S
U126 O128 2.458 . S
U126 C129 2.984 . S
U126 C130 2.847 . S
U126 C143 2.882 . S
U126 O144 2.441 . S
U126 O145 2.420 . S
U126 O146 2.455 . S
U126 O147 2.449 . S
O127 U126 2.454 . S
O127 C129 1.353 . S
O128 U126 2.458 . S
O128 C129 1.286 . S
C129 U126 2.984 . S
C129 O127 1.353 . S
C129 O128 1.286 . S
C129 C131 1.363 . S
C130 C120 1.465 . S
C130 U126 2.847 . S
C130 O144 1.249 . S
C130 O145 1.202 . S
C131 C129 1.363 . S
C131 C133 1.408 . S
C131 C136 1.342 . S
C132 C133 1.310 . S
C132 C135 1.461 . S
C132 H152 0.932 . S
C133 C131 1.408 . S
C133 C132 1.310 . S
C133 H153 0.930 . S
C134 C135 1.474 . S
C134 C136 1.285 . S
C134 H154 0.929 . S
C135 C132 1.461 . S
C135 C134 1.474 . S
C136 C131 1.342 . S
C136 C134 1.285 . S
C136 H155 0.930 . S
C137 C140 1.424 . S
C137 C142 1.245 . S
C137 C143 1.428 . S
C138 C141 1.260 . S
C138 C142 1.477 . S
C138 H156 0.932 . S
C139 C140 1.384 . S
C139 C141 1.479 . S
C139 H157 0.929 . S
C140 C137 1.424 . S
C140 C139 1.384 . S
C140 H158 0.928 . S
C141 C138 1.260 . S
C141 C139 1.479 . S
C142 C137 1.245 . S
C142 C138 1.477 . S
C142 H159 0.932 . S
C143 U126 2.882 . S
C143 C137 1.428 . S
C143 O146 1.301 . S
C143 O147 1.282 . S
O144 U126 2.441 . S
O144 C130 1.249 . S
O145 U126 2.420 . S
O145 C130 1.202 . S
O146 U126 2.455 . S
O146 C143 1.301 . S
O147 U126 2.449 . S
O147 C143 1.282 . S
H148 C121 0.931 . S
H149 C123 0.929 . S
H150 C124 0.930 . S
H151 C125 0.931 . S
H152 C132 0.932 . S
H153 C133 0.930 . S
H154 C134 0.929 . S
H155 C136 0.930 . S
H156 C138 0.932 . S
H157 C139 0.929 . S
H158 C140 0.928 . S
H159 C142 0.932 . S
C160 C161 1.264 . S
C160 C165 1.479 . S
C160 C170 1.465 . S
C161 C160 1.264 . S
C161 C163 1.339 . S
C161 H188 0.931 . S
C162 C163 1.395 . S
C162 C164 1.320 . S
C163 C161 1.339 . S
C163 C162 1.395 . S
C163 H189 0.929 . S
C164 C162 1.320 . S
C164 C165 1.405 . S
C164 H190 0.930 . S
C165 C160 1.479 . S
C165 C164 1.405 . S
C165 H191 0.931 . S
U166 O167 2.454 . S
U166 O168 2.458 . S
U166 C169 2.984 . S
U166 C170 2.847 . S
U166 C183 2.882 . S
U166 O184 2.441 . S
U166 O185 2.420 . S
U166 O186 2.455 . S
U166 O187 2.449 . S
O167 U166 2.454 . S
O167 C169 1.353 . S
O168 U166 2.458 . S
O168 C169 1.286 . S
C169 U166 2.984 . S
C169 O167 1.353 . S
C169 O168 1.286 . S
C169 C171 1.363 . S
C170 C160 1.465 . S
C170 U166 2.847 . S
C170 O184 1.249 . S
C170 O185 1.202 . S
C171 C169 1.363 . S
C171 C173 1.408 . S
C171 C176 1.342 . S
C172 C173 1.310 . S
C172 C175 1.461 . S
C172 H192 0.932 . S
C173 C171 1.408 . S
C173 C172 1.310 . S
C173 H193 0.930 . S
C174 C175 1.474 . S
C174 C176 1.285 . S
C174 H194 0.929 . S
C175 C172 1.461 . S
C175 C174 1.474 . S
C176 C171 1.342 . S
C176 C174 1.285 . S
C176 H195 0.930 . S
C177 C180 1.424 . S
C177 C182 1.245 . S
C177 C183 1.428 . S
C178 C181 1.260 . S
C178 C182 1.477 . S
C178 H196 0.932 . S
C179 C180 1.384 . S
C179 C181 1.479 . S
C179 H197 0.929 . S
C180 C177 1.424 . S
C180 C179 1.384 . S
C180 H198 0.928 . S
C181 C178 1.260 . S
C181 C179 1.479 . S
C182 C177 1.245 . S
C182 C178 1.477 . S
C182 H199 0.932 . S
C183 U166 2.882 . S
C183 C177 1.428 . S
C183 O186 1.301 . S
C183 O187 1.282 . S
O184 U166 2.441 . S
O184 C170 1.249 . S
O185 U166 2.420 . S
O185 C170 1.202 . S
O186 U166 2.455 . S
O186 C183 1.301 . S
O187 U166 2.449 . S
O187 C183 1.282 . S
H188 C161 0.931 . S
H189 C163 0.929 . S
H190 C164 0.930 . S
H191 C165 0.931 . S
H192 C172 0.932 . S
H193 C173 0.930 . S
H194 C174 0.929 . S
H195 C176 0.930 . S
H196 C178 0.932 . S
H197 C179 0.929 . S
H198 C180 0.928 . S
H199 C182 0.932 . S
C200 C201 1.264 . S
C200 C205 1.479 . S
C200 C210 1.465 . S
C201 C200 1.264 . S
C201 C203 1.339 . S
C201 H228 0.931 . S
C202 C203 1.395 . S
C202 C204 1.320 . S
C203 C201 1.339 . S
C203 C202 1.395 . S
C203 H229 0.929 . S
C204 C202 1.320 . S
C204 C205 1.405 . S
C204 H230 0.930 . S
C205 C200 1.479 . S
C205 C204 1.405 . S
C205 H231 0.931 . S
U206 O207 2.454 . S
U206 O208 2.458 . S
U206 C209 2.984 . S
U206 C210 2.847 . S
U206 C223 2.882 . S
U206 O224 2.441 . S
U206 O225 2.420 . S
U206 O226 2.455 . S
U206 O227 2.449 . S
O207 U206 2.454 . S
O207 C209 1.353 . S
O208 U206 2.458 . S
O208 C209 1.286 . S
C209 U206 2.984 . S
C209 O207 1.353 . S
C209 O208 1.286 . S
C209 C211 1.363 . S
C210 C200 1.465 . S
C210 U206 2.847 . S
C210 O224 1.249 . S
C210 O225 1.202 . S
C211 C209 1.363 . S
C211 C213 1.408 . S
C211 C216 1.342 . S
C212 C213 1.310 . S
C212 C215 1.461 . S
C212 H232 0.932 . S
C213 C211 1.408 . S
C213 C212 1.310 . S
C213 H233 0.930 . S
C214 C215 1.474 . S
C214 C216 1.285 . S
C214 H234 0.929 . S
C215 C212 1.461 . S
C215 C214 1.474 . S
C216 C211 1.342 . S
C216 C214 1.285 . S
C216 H235 0.930 . S
C217 C220 1.424 . S
C217 C222 1.245 . S
C217 C223 1.428 1_554 S
C218 C221 1.260 . S
C218 C222 1.477 . S
C218 H236 0.932 . S
C219 C220 1.384 . S
C219 C221 1.479 . S
C219 H237 0.929 . S
C220 C217 1.424 . S
C220 C219 1.384 . S
C220 H238 0.928 . S
C221 C218 1.260 . S
C221 C219 1.479 . S
C222 C217 1.245 . S
C222 C218 1.477 . S
C222 H239 0.932 . S
C223 U206 2.882 . S
C223 C217 1.428 1_556 S
C223 O226 1.301 . S
C223 O227 1.282 . S
O224 U206 2.441 . S
O224 C210 1.249 . S
O225 U206 2.420 . S
O225 C210 1.202 . S
O226 U206 2.455 . S
O226 C223 1.301 . S
O227 U206 2.449 . S
O227 C223 1.282 . S
H228 C201 0.931 . S
H229 C203 0.929 . S
H230 C204 0.930 . S
H231 C205 0.931 . S
H232 C212 0.932 . S
H233 C213 0.930 . S
H234 C214 0.929 . S
H235 C216 0.930 . S
H236 C218 0.932 . S
H237 C219 0.929 . S
H238 C220 0.928 . S
H239 C222 0.932 . S
C240 C241 1.264 . S
C240 C245 1.479 . S
C240 C250 1.465 . S
C241 C240 1.264 . S
C241 C243 1.339 . S
C241 H268 0.931 . S
C242 C243 1.395 . S
C242 C244 1.320 . S
C243 C241 1.339 . S
C243 C242 1.395 . S
C243 H269 0.929 . S
C244 C242 1.320 . S
C244 C245 1.405 . S
C244 H270 0.930 . S
C245 C240 1.479 . S
C245 C244 1.405 . S
C245 H271 0.931 . S
U246 O247 2.454 . S
U246 O248 2.458 . S
U246 C249 2.984 . S
U246 C250 2.847 . S
U246 C263 2.882 . S
U246 O264 2.441 . S
U246 O265 2.420 . S
U246 O266 2.455 . S
U246 O267 2.449 . S
O247 U246 2.454 . S
O247 C249 1.353 . S
O248 U246 2.458 . S
O248 C249 1.286 . S
C249 U246 2.984 . S
C249 O247 1.353 . S
C249 O248 1.286 . S
C249 C251 1.363 . S
C250 C240 1.465 . S
C250 U246 2.847 . S
C250 O264 1.249 . S
C250 O265 1.202 . S
C251 C249 1.363 . S
C251 C253 1.408 . S
C251 C256 1.342 . S
C252 C253 1.310 . S
C252 C255 1.461 . S
C252 H272 0.932 . S
C253 C251 1.408 . S
C253 C252 1.310 . S
C253 H273 0.930 . S
C254 C255 1.474 . S
C254 C256 1.285 . S
C254 H274 0.929 . S
C255 C252 1.461 . S
C255 C254 1.474 . S
C256 C251 1.342 . S
C256 C254 1.285 . S
C256 H275 0.930 . S
C257 C260 1.424 . S
C257 C262 1.245 . S
C257 C263 1.428 . S
C258 C261 1.260 . S
C258 C262 1.477 . S
C258 H276 0.932 . S
C259 C260 1.384 . S
C259 C261 1.479 . S
C259 H277 0.929 . S
C260 C257 1.424 . S
C260 C259 1.384 . S
C260 H278 0.928 . S
C261 C258 1.260 . S
C261 C259 1.479 . S
C262 C257 1.245 . S
C262 C258 1.477 . S
C262 H279 0.932 . S
C263 U246 2.882 . S
C263 C257 1.428 . S
C263 O266 1.301 . S
C263 O267 1.282 . S
O264 U246 2.441 . S
O264 C250 1.249 . S
O265 U246 2.420 . S
O265 C250 1.202 . S
O266 U246 2.455 . S
O266 C263 1.301 . S
O267 U246 2.449 . S
O267 C263 1.282 . S
H268 C241 0.931 . S
H269 C243 0.929 . S
H270 C244 0.930 . S
H271 C245 0.931 . S
H272 C252 0.932 . S
H273 C253 0.930 . S
H274 C254 0.929 . S
H275 C256 0.930 . S
H276 C258 0.932 . S
H277 C259 0.929 . S
H278 C260 0.928 . S
H279 C262 0.932 . S
C280 C281 1.264 . S
C280 C285 1.479 . S
C280 C290 1.465 . S
C281 C280 1.264 . S
C281 C283 1.339 . S
C281 H308 0.931 . S
C282 C283 1.395 . S
C282 C284 1.320 . S
C283 C281 1.339 . S
C283 C282 1.395 . S
C283 H309 0.929 . S
C284 C282 1.320 . S
C284 C285 1.405 . S
C284 H310 0.930 . S
C285 C280 1.479 . S
C285 C284 1.405 . S
C285 H311 0.931 . S
U286 O287 2.454 . S
U286 O288 2.458 . S
U286 C289 2.984 . S
U286 C290 2.847 . S
U286 C303 2.882 . S
U286 O304 2.441 . S
U286 O305 2.420 . S
U286 O306 2.455 . S
U286 O307 2.449 . S
O287 U286 2.454 . S
O287 C289 1.353 . S
O288 U286 2.458 . S
O288 C289 1.286 . S
C289 U286 2.984 . S
C289 O287 1.353 . S
C289 O288 1.286 . S
C289 C291 1.363 . S
C290 C280 1.465 . S
C290 U286 2.847 . S
C290 O304 1.249 . S
C290 O305 1.202 . S
C291 C289 1.363 . S
C291 C293 1.408 . S
C291 C296 1.342 . S
C292 C293 1.310 . S
C292 C295 1.461 . S
C292 H312 0.932 . S
C293 C291 1.408 . S
C293 C292 1.310 . S
C293 H313 0.930 . S
C294 C295 1.474 . S
C294 C296 1.285 . S
C294 H314 0.929 . S
C295 C292 1.461 . S
C295 C294 1.474 . S
C296 C291 1.342 . S
C296 C294 1.285 . S
C296 H315 0.930 . S
C297 C300 1.424 . S
C297 C302 1.245 . S
C297 C303 1.428 . S
C298 C301 1.260 . S
C298 C302 1.477 . S
C298 H316 0.932 . S
C299 C300 1.384 . S
C299 C301 1.479 . S
C299 H317 0.929 . S
C300 C297 1.424 . S
C300 C299 1.384 . S
C300 H318 0.928 . S
C301 C298 1.260 . S
C301 C299 1.479 . S
C302 C297 1.245 . S
C302 C298 1.477 . S
C302 H319 0.932 . S
C303 U286 2.882 . S
C303 C297 1.428 . S
C303 O306 1.301 . S
C303 O307 1.282 . S
O304 U286 2.441 . S
O304 C290 1.249 . S
O305 U286 2.420 . S
O305 C290 1.202 . S
O306 U286 2.455 . S
O306 C303 1.301 . S
O307 U286 2.449 . S
O307 C303 1.282 . S
H308 C281 0.931 . S
H309 C283 0.929 . S
H310 C284 0.930 . S
H311 C285 0.931 . S
H312 C292 0.932 . S
H313 C293 0.930 . S
H314 C294 0.929 . S
H315 C296 0.930 . S
H316 C298 0.932 . S
H317 C299 0.929 . S
H318 C300 0.928 . S
H319 C302 0.932 . S
C320 C321 1.264 . S
C320 C325 1.479 . S
C320 C330 1.465 . S
C321 C320 1.264 . S
C321 C323 1.339 . S
C321 H348 0.931 . S
C322 C323 1.395 . S
C322 C324 1.320 . S
C323 C321 1.339 . S
C323 C322 1.395 . S
C323 H349 0.929 . S
C324 C322 1.320 . S
C324 C325 1.405 . S
C324 H350 0.930 . S
C325 C320 1.479 . S
C325 C324 1.405 . S
C325 H351 0.931 . S
U326 O327 2.454 . S
U326 O328 2.458 . S
U326 C329 2.984 . S
U326 C330 2.847 . S
U326 C343 2.882 . S
U326 O344 2.441 . S
U326 O345 2.420 . S
U326 O346 2.455 . S
U326 O347 2.449 . S
O327 U326 2.454 . S
O327 C329 1.353 . S
O328 U326 2.458 . S
O328 C329 1.286 . S
C329 U326 2.984 . S
C329 O327 1.353 . S
C329 O328 1.286 . S
C329 C331 1.363 . S
C330 C320 1.465 . S
C330 U326 2.847 . S
C330 O344 1.249 . S
C330 O345 1.202 . S
C331 C329 1.363 . S
C331 C333 1.408 . S
C331 C336 1.342 . S
C332 C333 1.310 . S
C332 C335 1.461 . S
C332 H352 0.932 . S
C333 C331 1.408 . S
C333 C332 1.310 . S
C333 H353 0.930 . S
C334 C335 1.474 . S
C334 C336 1.285 . S
C334 H354 0.929 . S
C335 C332 1.461 . S
C335 C334 1.474 . S
C336 C331 1.342 . S
C336 C334 1.285 . S
C336 H355 0.930 . S
C337 C340 1.424 . S
C337 C342 1.245 . S
C337 C343 1.428 1_556 S
C338 C341 1.260 . S
C338 C342 1.477 . S
C338 H356 0.932 . S
C339 C340 1.384 . S
C339 C341 1.479 . S
C339 H357 0.929 . S
C340 C337 1.424 . S
C340 C339 1.384 . S
C340 H358 0.928 . S
C341 C338 1.260 . S
C341 C339 1.479 . S
C342 C337 1.245 . S
C342 C338 1.477 . S
C342 H359 0.932 . S
C343 U326 2.882 . S
C343 C337 1.428 1_554 S
C343 O346 1.301 . S
C343 O347 1.282 . S
O344 U326 2.441 . S
O344 C330 1.249 . S
O345 U326 2.420 . S
O345 C330 1.202 . S
O346 U326 2.455 . S
O346 C343 1.301 . S
O347 U326 2.449 . S
O347 C343 1.282 . S
H348 C321 0.931 . S
H349 C323 0.929 . S
H350 C324 0.930 . S
H351 C325 0.931 . S
H352 C332 0.932 . S
H353 C333 0.930 . S
H354 C334 0.929 . S
H355 C336 0.930 . S
H356 C338 0.932 . S
H357 C339 0.929 . S
H358 C340 0.928 . S
H359 C342 0.932 . S
C360 C361 1.264 . S
C360 C365 1.479 . S
C360 C370 1.465 . S
C361 C360 1.264 . S
C361 C363 1.339 . S
C361 H388 0.931 . S
C362 C363 1.395 . S
C362 C364 1.320 . S
C363 C361 1.339 . S
C363 C362 1.395 . S
C363 H389 0.929 . S
C364 C362 1.320 . S
C364 C365 1.405 . S
C364 H390 0.930 . S
C365 C360 1.479 . S
C365 C364 1.405 . S
C365 H391 0.931 . S
U366 O367 2.454 . S
U366 O368 2.458 . S
U366 C369 2.984 . S
U366 C370 2.847 . S
U366 C383 2.882 . S
U366 O384 2.441 . S
U366 O385 2.420 . S
U366 O386 2.455 . S
U366 O387 2.449 . S
O367 U366 2.454 . S
O367 C369 1.353 . S
O368 U366 2.458 . S
O368 C369 1.286 . S
C369 U366 2.984 . S
C369 O367 1.353 . S
C369 O368 1.286 . S
C369 C371 1.363 . S
C370 C360 1.465 . S
C370 U366 2.847 . S
C370 O384 1.249 . S
C370 O385 1.202 . S
C371 C369 1.363 . S
C371 C373 1.408 . S
C371 C376 1.342 . S
C372 C373 1.310 . S
C372 C375 1.461 . S
C372 H392 0.932 . S
C373 C371 1.408 . S
C373 C372 1.310 . S
C373 H393 0.930 . S
C374 C375 1.474 . S
C374 C376 1.285 . S
C374 H394 0.929 . S
C375 C372 1.461 . S
C375 C374 1.474 . S
C376 C371 1.342 . S
C376 C374 1.285 . S
C376 H395 0.930 . S
C377 C380 1.424 . S
C377 C382 1.245 . S
C377 C383 1.428 . S
C378 C381 1.260 . S
C378 C382 1.477 . S
C378 H396 0.932 . S
C379 C380 1.384 . S
C379 C381 1.479 . S
C379 H397 0.929 . S
C380 C377 1.424 . S
C380 C379 1.384 . S
C380 H398 0.928 . S
C381 C378 1.260 . S
C381 C379 1.479 . S
C382 C377 1.245 . S
C382 C378 1.477 . S
C382 H399 0.932 . S
C383 U366 2.882 . S
C383 C377 1.428 . S
C383 O386 1.301 . S
C383 O387 1.282 . S
O384 U366 2.441 . S
O384 C370 1.249 . S
O385 U366 2.420 . S
O385 C370 1.202 . S
O386 U366 2.455 . S
O386 C383 1.301 . S
O387 U366 2.449 . S
O387 C383 1.282 . S
H388 C361 0.931 . S
H389 C363 0.929 . S
H390 C364 0.930 . S
H391 C365 0.931 . S
H392 C372 0.932 . S
H393 C373 0.930 . S
H394 C374 0.929 . S
H395 C376 0.930 . S
H396 C378 0.932 . S
H397 C379 0.929 . S
H398 C380 0.928 . S
H399 C382 0.932 . S
C400 C401 1.264 . S
C400 C405 1.479 . S
C400 C410 1.465 . S
C401 C400 1.264 . S
C401 C403 1.339 . S
C401 H428 0.931 . S
C402 C403 1.395 . S
C402 C404 1.320 . S
C403 C401 1.339 . S
C403 C402 1.395 . S
C403 H429 0.929 . S
C404 C402 1.320 . S
C404 C405 1.405 . S
C404 H430 0.930 . S
C405 C400 1.479 . S
C405 C404 1.405 . S
C405 H431 0.931 . S
U406 O407 2.454 . S
U406 O408 2.458 . S
U406 C409 2.984 . S
U406 C410 2.847 . S
U406 C423 2.882 . S
U406 O424 2.441 . S
U406 O425 2.420 . S
U406 O426 2.455 . S
U406 O427 2.449 . S
O407 U406 2.454 . S
O407 C409 1.353 . S
O408 U406 2.458 . S
O408 C409 1.286 . S
C409 U406 2.984 . S
C409 O407 1.353 . S
C409 O408 1.286 . S
C409 C411 1.363 . S
C410 C400 1.465 . S
C410 U406 2.847 . S
C410 O424 1.249 . S
C410 O425 1.202 . S
C411 C409 1.363 . S
C411 C413 1.408 . S
C411 C416 1.342 . S
C412 C413 1.310 . S
C412 C415 1.461 . S
C412 H432 0.932 . S
C413 C411 1.408 . S
C413 C412 1.310 . S
C413 H433 0.930 . S
C414 C415 1.474 . S
C414 C416 1.285 . S
C414 H434 0.929 . S
C415 C412 1.461 . S
C415 C414 1.474 . S
C416 C411 1.342 . S
C416 C414 1.285 . S
C416 H435 0.930 . S
C417 C420 1.424 . S
C417 C422 1.245 . S
C417 C423 1.428 . S
C418 C421 1.260 . S
C418 C422 1.477 . S
C418 H436 0.932 . S
C419 C420 1.384 . S
C419 C421 1.479 . S
C419 H437 0.929 . S
C420 C417 1.424 . S
C420 C419 1.384 . S
C420 H438 0.928 . S
C421 C418 1.260 . S
C421 C419 1.479 . S
C422 C417 1.245 . S
C422 C418 1.477 . S
C422 H439 0.932 . S
C423 U406 2.882 . S
C423 C417 1.428 . S
C423 O426 1.301 . S
C423 O427 1.282 . S
O424 U406 2.441 . S
O424 C410 1.249 . S
O425 U406 2.420 . S
O425 C410 1.202 . S
O426 U406 2.455 . S
O426 C423 1.301 . S
O427 U406 2.449 . S
O427 C423 1.282 . S
H428 C401 0.931 . S
H429 C403 0.929 . S
H430 C404 0.930 . S
H431 C405 0.931 . S
H432 C412 0.932 . S
H433 C413 0.930 . S
H434 C414 0.929 . S
H435 C416 0.930 . S
H436 C418 0.932 . S
H437 C419 0.929 . S
H438 C420 0.928 . S
H439 C422 0.932 . S
C440 C441 1.264 . S
C440 C445 1.479 . S
C440 C450 1.465 . S
C441 C440 1.264 . S
C441 C443 1.339 . S
C441 H468 0.931 . S
C442 C443 1.395 . S
C442 C444 1.320 . S
C443 C441 1.339 . S
C443 C442 1.395 . S
C443 H469 0.929 . S
C444 C442 1.320 . S
C444 C445 1.405 . S
C444 H470 0.930 . S
C445 C440 1.479 . S
C445 C444 1.405 . S
C445 H471 0.931 . S
U446 O447 2.454 . S
U446 O448 2.458 . S
U446 C449 2.984 . S
U446 C450 2.847 . S
U446 C463 2.882 . S
U446 O464 2.441 . S
U446 O465 2.420 . S
U446 O466 2.455 . S
U446 O467 2.449 . S
O447 U446 2.454 . S
O447 C449 1.353 . S
O448 U446 2.458 . S
O448 C449 1.286 . S
C449 U446 2.984 . S
C449 O447 1.353 . S
C449 O448 1.286 . S
C449 C451 1.363 . S
C450 C440 1.465 . S
C450 U446 2.847 . S
C450 O464 1.249 . S
C450 O465 1.202 . S
C451 C449 1.363 . S
C451 C453 1.408 . S
C451 C456 1.342 . S
C452 C453 1.310 . S
C452 C455 1.461 . S
C452 H472 0.932 . S
C453 C451 1.408 . S
C453 C452 1.310 . S
C453 H473 0.930 . S
C454 C455 1.474 . S
C454 C456 1.285 . S
C454 H474 0.929 . S
C455 C452 1.461 . S
C455 C454 1.474 . S
C456 C451 1.342 . S
C456 C454 1.285 . S
C456 H475 0.930 . S
C457 C460 1.424 . S
C457 C462 1.245 . S
C457 C463 1.428 . S
C458 C461 1.260 . S
C458 C462 1.477 . S
C458 H476 0.932 . S
C459 C460 1.384 . S
C459 C461 1.479 . S
C459 H477 0.929 . S
C460 C457 1.424 . S
C460 C459 1.384 . S
C460 H478 0.928 . S
C461 C458 1.260 . S
C461 C459 1.479 . S
C462 C457 1.245 . S
C462 C458 1.477 . S
C462 H479 0.932 . S
C463 U446 2.882 . S
C463 C457 1.428 . S
C463 O466 1.301 . S
C463 O467 1.282 . S
O464 U446 2.441 . S
O464 C450 1.249 . S
O465 U446 2.420 . S
O465 C450 1.202 . S
O466 U446 2.455 . S
O466 C463 1.301 . S
O467 U446 2.449 . S
O467 C463 1.282 . S
H468 C441 0.931 . S
H469 C443 0.929 . S
H470 C444 0.930 . S
H471 C445 0.931 . S
H472 C452 0.932 . S
H473 C453 0.930 . S
H474 C454 0.929 . S
H475 C456 0.930 . S
H476 C458 0.932 . S
H477 C459 0.929 . S
H478 C460 0.928 . S
H479 C462 0.932 . S
C480 C481 1.369 . S
C480 C482 1.419 . S
C480 H484 0.930 . S
C481 C480 1.369 . S
C481 C490 1.429 . S
C482 C480 1.419 . S
C482 C483 1.363 . S
C482 H485 0.929 . S
C483 C482 1.363 . S
C483 C489 1.428 . S
H484 C480 0.930 . S
H485 C482 0.929 . S
S486 N487 1.613 . S
S486 N488 1.610 . S
N487 S486 1.613 . S
N487 C490 1.350 . S
N488 S486 1.610 . S
N488 C489 1.351 . S
C489 C483 1.428 . S
C489 N488 1.351 . S
C489 C490 1.434 . S
C490 C481 1.429 . S
C490 N487 1.350 . S
C490 C489 1.434 . S
C491 C492 1.369 . S
C491 C493 1.419 . S
C491 H495 0.930 . S
C492 C491 1.369 . S
C492 C501 1.429 . S
C493 C491 1.419 . S
C493 C494 1.363 . S
C493 H496 0.929 . S
C494 C493 1.363 . S
C494 C500 1.428 . S
H495 C491 0.930 . S
H496 C493 0.929 . S
S497 N498 1.613 . S
S497 N499 1.610 . S
N498 S497 1.613 . S
N498 C501 1.350 . S
N499 S497 1.610 . S
N499 C500 1.351 . S
C500 C494 1.428 . S
C500 N499 1.351 . S
C500 C501 1.434 . S
C501 C492 1.429 . S
C501 N498 1.350 . S
C501 C500 1.434 . S
C502 C503 1.369 . S
C502 C504 1.419 . S
C502 H506 0.930 . S
C503 C502 1.369 . S
C503 C512 1.429 . S
C504 C502 1.419 . S
C504 C505 1.363 . S
C504 H507 0.929 . S
C505 C504 1.363 . S
C505 C511 1.428 . S
H506 C502 0.930 . S
H507 C504 0.929 . S
S508 N509 1.613 . S
S508 N510 1.610 . S
N509 S508 1.613 . S
N509 C512 1.350 . S
N510 S508 1.610 . S
N510 C511 1.351 . S
C511 C505 1.428 . S
C511 N510 1.351 . S
C511 C512 1.434 . S
C512 C503 1.429 . S
C512 N509 1.350 . S
C512 C511 1.434 . S
C513 C514 1.369 . S
C513 C515 1.419 . S
C513 H517 0.930 . S
C514 C513 1.369 . S
C514 C523 1.429 . S
C515 C513 1.419 . S
C515 C516 1.363 . S
C515 H518 0.929 . S
C516 C515 1.363 . S
C516 C522 1.428 . S
H517 C513 0.930 . S
H518 C515 0.929 . S
S519 N520 1.613 . S
S519 N521 1.610 . S
N520 S519 1.613 . S
N520 C523 1.350 . S
N521 S519 1.610 . S
N521 C522 1.351 . S
C522 C516 1.428 . S
C522 N521 1.351 . S
C522 C523 1.434 . S
C523 C514 1.429 . S
C523 N520 1.350 . S
C523 C522 1.434 . S
C524 C525 1.369 . S
C524 C526 1.419 . S
C524 H528 0.930 . S
C525 C524 1.369 . S
C525 C534 1.429 . S
C526 C524 1.419 . S
C526 C527 1.363 . S
C526 H529 0.929 . S
C527 C526 1.363 . S
C527 C533 1.428 . S
H528 C524 0.930 . S
H529 C526 0.929 . S
S530 N531 1.613 . S
S530 N532 1.610 . S
N531 S530 1.613 . S
N531 C534 1.350 . S
N532 S530 1.610 . S
N532 C533 1.351 . S
C533 C527 1.428 . S
C533 N532 1.351 . S
C533 C534 1.434 . S
C534 C525 1.429 . S
C534 N531 1.350 . S
C534 C533 1.434 . S
C535 C536 1.369 . S
C535 C537 1.419 . S
C535 H539 0.930 . S
C536 C535 1.369 . S
C536 C545 1.429 . S
C537 C535 1.419 . S
C537 C538 1.363 . S
C537 H540 0.929 . S
C538 C537 1.363 . S
C538 C544 1.428 . S
H539 C535 0.930 . S
H540 C537 0.929 . S
S541 N542 1.613 . S
S541 N543 1.610 . S
N542 S541 1.613 . S
N542 C545 1.350 . S
N543 S541 1.610 . S
N543 C544 1.351 . S
C544 C538 1.428 . S
C544 N543 1.351 . S
C544 C545 1.434 . S
C545 C536 1.429 . S
C545 N542 1.350 . S
C545 C544 1.434 . S
C546 C547 1.369 . S
C546 C548 1.419 . S
C546 H550 0.930 . S
C547 C546 1.369 . S
C547 C556 1.429 . S
C548 C546 1.419 . S
C548 C549 1.363 . S
C548 H551 0.929 . S
C549 C548 1.363 . S
C549 C555 1.428 . S
H550 C546 0.930 . S
H551 C548 0.929 . S
S552 N553 1.613 . S
S552 N554 1.610 . S
N553 S552 1.613 . S
N553 C556 1.350 . S
N554 S552 1.610 . S
N554 C555 1.351 . S
C555 C549 1.428 . S
C555 N554 1.351 . S
C555 C556 1.434 . S
C556 C547 1.429 . S
C556 N553 1.350 . S
C556 C555 1.434 . S
C557 C558 1.369 . S
C557 C559 1.419 . S
C557 H561 0.930 . S
C558 C557 1.369 . S
C558 C567 1.429 . S
C559 C557 1.419 . S
C559 C560 1.363 . S
C559 H562 0.929 . S
C560 C559 1.363 . S
C560 C566 1.428 . S
H561 C557 0.930 . S
H562 C559 0.929 . S
S563 N564 1.613 . S
S563 N565 1.610 . S
N564 S563 1.613 . S
N564 C567 1.350 . S
N565 S563 1.610 . S
N565 C566 1.351 . S
C566 C560 1.428 . S
C566 N565 1.351 . S
C566 C567 1.434 . S
C567 C558 1.429 . S
C567 N564 1.350 . S
C567 C566 1.434 . S
C568 C569 1.369 . S
C568 C570 1.419 . S
C568 H572 0.930 . S
C569 C568 1.369 . S
C569 C578 1.429 . S
C570 C568 1.419 . S
C570 C571 1.363 . S
C570 H573 0.929 . S
C571 C570 1.363 . S
C571 C577 1.428 . S
H572 C568 0.930 . S
H573 C570 0.929 . S
S574 N575 1.613 . S
S574 N576 1.610 . S
N575 S574 1.613 . S
N575 C578 1.350 . S
N576 S574 1.610 . S
N576 C577 1.351 . S
C577 C571 1.428 . S
C577 N576 1.351 . S
C577 C578 1.434 . S
C578 C569 1.429 . S
C578 N575 1.350 . S
C578 C577 1.434 . S
C579 C580 1.369 . S
C579 C581 1.419 . S
C579 H583 0.930 . S
C580 C579 1.369 . S
C580 C589 1.429 . S
C581 C579 1.419 . S
C581 C582 1.363 . S
C581 H584 0.929 . S
C582 C581 1.363 . S
C582 C588 1.428 . S
H583 C579 0.930 . S
H584 C581 0.929 . S
S585 N586 1.613 . S
S585 N587 1.610 . S
N586 S585 1.613 . S
N586 C589 1.350 . S
N587 S585 1.610 . S
N587 C588 1.351 . S
C588 C582 1.428 . S
C588 N587 1.351 . S
C588 C589 1.434 . S
C589 C580 1.429 . S
C589 N586 1.350 . S
C589 C588 1.434 . S
C590 C591 1.369 . S
C590 C592 1.419 . S
C590 H594 0.930 . S
C591 C590 1.369 . S
C591 C600 1.429 . S
C592 C590 1.419 . S
C592 C593 1.363 . S
C592 H595 0.929 . S
C593 C592 1.363 . S
C593 C599 1.428 . S
H594 C590 0.930 . S
H595 C592 0.929 . S
S596 N597 1.613 . S
S596 N598 1.610 . S
N597 S596 1.613 . S
N597 C600 1.350 . S
N598 S596 1.610 . S
N598 C599 1.351 . S
C599 C593 1.428 . S
C599 N598 1.351 . S
C599 C600 1.434 . S
C600 C591 1.429 . S
C600 N597 1.350 . S
C600 C599 1.434 . S
C601 C602 1.369 . S
C601 C603 1.419 . S
C601 H605 0.930 . S
C602 C601 1.369 . S
C602 C611 1.429 . S
C603 C601 1.419 . S
C603 C604 1.363 . S
C603 H606 0.929 . S
C604 C603 1.363 . S
C604 C610 1.428 . S
H605 C601 0.930 . S
H606 C603 0.929 . S
S607 N608 1.613 . S
S607 N609 1.610 . S
N608 S607 1.613 . S
N608 C611 1.350 . S
N609 S607 1.610 . S
N609 C610 1.351 . S
C610 C604 1.428 . S
C610 N609 1.351 . S
C610 C611 1.434 . S
C611 C602 1.429 . S
C611 N608 1.350 . S
C611 C610 1.434 . S
C612 C613 1.369 1_556 S
C612 C614 1.419 . S
C612 H616 0.930 . S
C613 C612 1.369 1_554 S
C613 C622 1.429 1_545 S
C614 C612 1.419 . S
C614 C615 1.363 1_545 S
C614 H617 0.929 . S
C615 C614 1.363 1_565 S
C615 C621 1.428 1_556 S
H616 C612 0.930 . S
H617 C614 0.929 . S
S618 N619 1.613 . S
S618 N620 1.610 . S
N619 S618 1.613 . S
N619 C622 1.350 . S
N620 S618 1.610 . S
N620 C621 1.351 . S
C621 C615 1.428 1_554 S
C621 N620 1.351 . S
C621 C622 1.434 . S
C622 C613 1.429 1_565 S
C622 N619 1.350 . S
C622 C621 1.434 . S
C623 C624 1.369 . S
C623 C625 1.419 . S
C623 H627 0.930 . S
C624 C623 1.369 . S
C624 C633 1.429 . S
C625 C623 1.419 . S
C625 C626 1.363 . S
C625 H628 0.929 . S
C626 C625 1.363 . S
C626 C632 1.428 . S
H627 C623 0.930 . S
H628 C625 0.929 . S
S629 N630 1.613 . S
S629 N631 1.610 . S
N630 S629 1.613 . S
N630 C633 1.350 . S
N631 S629 1.610 . S
N631 C632 1.351 . S
C632 C626 1.428 . S
C632 N631 1.351 . S
C632 C633 1.434 . S
C633 C624 1.429 . S
C633 N630 1.350 . S
C633 C632 1.434 . S
C634 C635 1.369 . S
C634 C636 1.441 . S
C634 H638 0.930 . S
C635 C634 1.369 . S
C635 C644 1.429 1_455 S
C636 C634 1.441 . S
C636 C637 1.352 1_455 S
C636 H639 0.919 . S
C637 C636 1.352 1_655 S
C637 C643 1.428 . S
H638 C634 0.930 . S
H639 C636 0.919 . S
S640 N641 1.613 . S
S640 N642 1.610 . S
N641 S640 1.613 . S
N641 C644 1.350 . S
N642 S640 1.610 . S
N642 C643 1.351 . S
C643 C637 1.428 . S
C643 N642 1.351 . S
C643 C644 1.434 . S
C644 C635 1.429 1_655 S
C644 N641 1.350 . S
C644 C643 1.434 . S
C645 C646 1.369 . S
C645 C647 1.419 . S
C645 H649 0.930 . S
C646 C645 1.369 . S
C646 C655 1.429 1_545 S
C647 C645 1.419 . S
C647 C648 1.363 1_545 S
C647 H650 0.929 . S
C648 C647 1.363 1_565 S
C648 C654 1.428 . S
H649 C645 0.930 . S
H650 C647 0.929 . S
S651 N652 1.613 . S
S651 N653 1.610 . S
N652 S651 1.613 . S
N652 C655 1.350 . S
N653 S651 1.610 . S
N653 C654 1.351 . S
C654 C648 1.428 . S
C654 N653 1.351 . S
C654 C655 1.434 . S
C655 C646 1.429 1_565 S
C655 N652 1.350 . S
C655 C654 1.434 . S
C656 C657 1.369 . S
C656 C658 1.419 . S
C656 H660 0.930 . S
C657 C656 1.369 . S
C657 C666 1.429 . S
C658 C656 1.419 . S
C658 C659 1.363 . S
C658 H661 0.929 . S
C659 C658 1.363 . S
C659 C665 1.428 . S
H660 C656 0.930 . S
H661 C658 0.929 . S
S662 N663 1.613 . S
S662 N664 1.610 . S
N663 S662 1.613 . S
N663 C666 1.350 . S
N664 S662 1.610 . S
N664 C665 1.351 . S
C665 C659 1.428 . S
C665 N664 1.351 . S
C665 C666 1.434 . S
C666 C657 1.429 . S
C666 N663 1.350 . S
C666 C665 1.434 . S
C667 C668 1.369 1_455 S
C667 C669 1.419 . S
C667 H671 0.930 . S
C668 C667 1.369 1_655 S
C668 C677 1.429 . S
C669 C667 1.419 . S
C669 C670 1.363 . S
C669 H672 0.929 . S
C670 C669 1.363 . S
C670 C676 1.428 1_455 S
H671 C667 0.930 . S
H672 C669 0.929 . S
S673 N674 1.613 . S
S673 N675 1.610 . S
N674 S673 1.613 . S
N674 C677 1.350 . S
N675 S673 1.610 . S
N675 C676 1.351 . S
C676 C670 1.428 1_655 S
C676 N675 1.351 . S
C676 C677 1.434 . S
C677 C668 1.429 . S
C677 N674 1.350 . S
C677 C676 1.434 . S
C481 C21 1.578 . S
C483 C421 1.579 . S
C492 C461 1.577 . S
C494 C61 1.577 . S
C503 C261 1.578 . S
C505 C101 1.579 . S
C514 C141 1.578 . S
C516 C301 1.578 . S
C525 C341 1.577 . S
C527 C181 1.577 . S
C536 C221 1.578 . S
C538 C381 1.579 . S
C547 C2 1.537 . S
C549 C322 1.536 . S
C558 C362 1.536 . S
C560 C42 1.534 . S
C569 C82 1.534 . S
C571 C402 1.536 . S
C580 C442 1.536 . S
C582 C122 1.536 . S
C591 C162 1.533 . S
C593 C242 1.534 . S
C602 C202 1.536 . S
C604 C282 1.535 . S
C613 C15 1.550 . S
C615 C295 1.548 . S
C624 C335 1.546 . S
C626 C55 1.549 . S
C635 C375 1.550 . S
C637 C95 1.548 . S
C646 C415 1.549 . S
C648 C135 1.548 . S
C657 C175 1.547 . S
C659 C455 1.548 . S
C668 C255 1.547 . S
C670 C215 1.550 . S
