# Generated by pormake.
# Topology soq, (7)-cn, num edge types: 1
# Building blocks:
#     Node 0, Type 0, BuildingBlock: NUHQUE_clean_sbu_2, # of connection points: 7
#     Node 1, Type 0, BuildingBlock: NUHQUE_clean_sbu_2, # of connection points: 7
#     Node 2, Type 0, BuildingBlock: NUHQUE_clean_sbu_2, # of connection points: 7
#     Node 3, Type 0, BuildingBlock: NUHQUE_clean_sbu_2, # of connection points: 7
#     Node 4, Type 0, BuildingBlock: NUHQUE_clean_sbu_2, # of connection points: 7
#     Node 5, Type 0, BuildingBlock: NUHQUE_clean_sbu_2, # of connection points: 7
#     Node 6, Type 0, BuildingBlock: NUHQUE_clean_sbu_2, # of connection points: 7
#     Node 7, Type 0, BuildingBlock: NUHQUE_clean_sbu_2, # of connection points: 7
#     Node 8, Type 0, BuildingBlock: NUHQUE_clean_sbu_2, # of connection points: 7
#     Node 9, Type 0, BuildingBlock: NUHQUE_clean_sbu_2, # of connection points: 7
#     Node 10, Type 0, BuildingBlock: NUHQUE_clean_sbu_2, # of connection points: 7
#     Node 11, Type 0, BuildingBlock: NUHQUE_clean_sbu_2, # of connection points: 7
#     Node 12, Type 0, BuildingBlock: NUHQUE_clean_sbu_2, # of connection points: 7
#     Node 13, Type 0, BuildingBlock: NUHQUE_clean_sbu_2, # of connection points: 7
#     Node 14, Type 0, BuildingBlock: NUHQUE_clean_sbu_2, # of connection points: 7
#     Node 15, Type 0, BuildingBlock: NUHQUE_clean_sbu_2, # of connection points: 7
#     Node 16, Type 0, BuildingBlock: NUHQUE_clean_sbu_2, # of connection points: 7
#     Node 17, Type 0, BuildingBlock: NUHQUE_clean_sbu_2, # of connection points: 7
#     Node 18, Type 0, BuildingBlock: NUHQUE_clean_sbu_2, # of connection points: 7
#     Node 19, Type 0, BuildingBlock: NUHQUE_clean_sbu_2, # of connection points: 7
#     Node 20, Type 0, BuildingBlock: NUHQUE_clean_sbu_2, # of connection points: 7
#     Node 21, Type 0, BuildingBlock: NUHQUE_clean_sbu_2, # of connection points: 7
#     Node 22, Type 0, BuildingBlock: NUHQUE_clean_sbu_2, # of connection points: 7
#     Node 23, Type 0, BuildingBlock: NUHQUE_clean_sbu_2, # of connection points: 7
#     Node 24, Type 0, BuildingBlock: NUHQUE_clean_sbu_2, # of connection points: 7
#     Node 25, Type 0, BuildingBlock: NUHQUE_clean_sbu_2, # of connection points: 7
#     Node 26, Type 0, BuildingBlock: NUHQUE_clean_sbu_2, # of connection points: 7
#     Node 27, Type 0, BuildingBlock: NUHQUE_clean_sbu_2, # of connection points: 7
#     Node 28, Type 0, BuildingBlock: NUHQUE_clean_sbu_2, # of connection points: 7
#     Node 29, Type 0, BuildingBlock: NUHQUE_clean_sbu_2, # of connection points: 7
#     Node 30, Type 0, BuildingBlock: NUHQUE_clean_sbu_2, # of connection points: 7
#     Node 31, Type 0, BuildingBlock: NUHQUE_clean_sbu_2, # of connection points: 7
#     Edge 32, Type (0, 0), BuildingBlock: OJICUG_clean_linker_0, # of connection points: 2
#     Edge 33, Type (0, 0), BuildingBlock: OJICUG_clean_linker_0, # of connection points: 2
#     Edge 34, Type (0, 0), BuildingBlock: OJICUG_clean_linker_0, # of connection points: 2
#     Edge 35, Type (0, 0), BuildingBlock: OJICUG_clean_linker_0, # of connection points: 2
#     Edge 36, Type (0, 0), BuildingBlock: OJICUG_clean_linker_0, # of connection points: 2
#     Edge 37, Type (0, 0), BuildingBlock: OJICUG_clean_linker_0, # of connection points: 2
#     Edge 38, Type (0, 0), BuildingBlock: OJICUG_clean_linker_0, # of connection points: 2
#     Edge 39, Type (0, 0), BuildingBlock: OJICUG_clean_linker_0, # of connection points: 2
#     Edge 40, Type (0, 0), BuildingBlock: OJICUG_clean_linker_0, # of connection points: 2
#     Edge 41, Type (0, 0), BuildingBlock: OJICUG_clean_linker_0, # of connection points: 2
#     Edge 42, Type (0, 0), BuildingBlock: OJICUG_clean_linker_0, # of connection points: 2
#     Edge 43, Type (0, 0), BuildingBlock: OJICUG_clean_linker_0, # of connection points: 2
#     Edge 44, Type (0, 0), BuildingBlock: OJICUG_clean_linker_0, # of connection points: 2
#     Edge 45, Type (0, 0), BuildingBlock: OJICUG_clean_linker_0, # of connection points: 2
#     Edge 46, Type (0, 0), BuildingBlock: OJICUG_clean_linker_0, # of connection points: 2
#     Edge 47, Type (0, 0), BuildingBlock: OJICUG_clean_linker_0, # of connection points: 2
#     Edge 48, Type (0, 0), BuildingBlock: OJICUG_clean_linker_0, # of connection points: 2
#     Edge 49, Type (0, 0), BuildingBlock: OJICUG_clean_linker_0, # of connection points: 2
#     Edge 50, Type (0, 0), BuildingBlock: OJICUG_clean_linker_0, # of connection points: 2
#     Edge 51, Type (0, 0), BuildingBlock: OJICUG_clean_linker_0, # of connection points: 2
#     Edge 52, Type (0, 0), BuildingBlock: OJICUG_clean_linker_0, # of connection points: 2
#     Edge 53, Type (0, 0), BuildingBlock: OJICUG_clean_linker_0, # of connection points: 2
#     Edge 54, Type (0, 0), BuildingBlock: OJICUG_clean_linker_0, # of connection points: 2
#     Edge 55, Type (0, 0), BuildingBlock: OJICUG_clean_linker_0, # of connection points: 2
#     Edge 56, Type (0, 0), BuildingBlock: OJICUG_clean_linker_0, # of connection points: 2
#     Edge 57, Type (0, 0), BuildingBlock: OJICUG_clean_linker_0, # of connection points: 2
#     Edge 58, Type (0, 0), BuildingBlock: OJICUG_clean_linker_0, # of connection points: 2
#     Edge 59, Type (0, 0), BuildingBlock: OJICUG_clean_linker_0, # of connection points: 2
#     Edge 60, Type (0, 0), BuildingBlock: OJICUG_clean_linker_0, # of connection points: 2
#     Edge 61, Type (0, 0), BuildingBlock: OJICUG_clean_linker_0, # of connection points: 2
#     Edge 62, Type (0, 0), BuildingBlock: OJICUG_clean_linker_0, # of connection points: 2
#     Edge 63, Type (0, 0), BuildingBlock: OJICUG_clean_linker_0, # of connection points: 2
#     Edge 64, Type (0, 0), BuildingBlock: OJICUG_clean_linker_0, # of connection points: 2
#     Edge 65, Type (0, 0), BuildingBlock: OJICUG_clean_linker_0, # of connection points: 2
#     Edge 66, Type (0, 0), BuildingBlock: OJICUG_clean_linker_0, # of connection points: 2
#     Edge 67, Type (0, 0), BuildingBlock: OJICUG_clean_linker_0, # of connection points: 2
#     Edge 68, Type (0, 0), BuildingBlock: OJICUG_clean_linker_0, # of connection points: 2
#     Edge 69, Type (0, 0), BuildingBlock: OJICUG_clean_linker_0, # of connection points: 2
#     Edge 70, Type (0, 0), BuildingBlock: OJICUG_clean_linker_0, # of connection points: 2
#     Edge 71, Type (0, 0), BuildingBlock: OJICUG_clean_linker_0, # of connection points: 2
#     Edge 72, Type (0, 0), BuildingBlock: OJICUG_clean_linker_0, # of connection points: 2
#     Edge 73, Type (0, 0), BuildingBlock: OJICUG_clean_linker_0, # of connection points: 2
#     Edge 74, Type (0, 0), BuildingBlock: OJICUG_clean_linker_0, # of connection points: 2
#     Edge 75, Type (0, 0), BuildingBlock: OJICUG_clean_linker_0, # of connection points: 2
#     Edge 76, Type (0, 0), BuildingBlock: OJICUG_clean_linker_0, # of connection points: 2
#     Edge 77, Type (0, 0), BuildingBlock: OJICUG_clean_linker_0, # of connection points: 2
#     Edge 78, Type (0, 0), BuildingBlock: OJICUG_clean_linker_0, # of connection points: 2
#     Edge 79, Type (0, 0), BuildingBlock: OJICUG_clean_linker_0, # of connection points: 2
#     Edge 80, Type (0, 0), BuildingBlock: OJICUG_clean_linker_0, # of connection points: 2
#     Edge 81, Type (0, 0), BuildingBlock: OJICUG_clean_linker_0, # of connection points: 2
#     Edge 82, Type (0, 0), BuildingBlock: OJICUG_clean_linker_0, # of connection points: 2
#     Edge 83, Type (0, 0), BuildingBlock: OJICUG_clean_linker_0, # of connection points: 2
#     Edge 84, Type (0, 0), BuildingBlock: OJICUG_clean_linker_0, # of connection points: 2
#     Edge 85, Type (0, 0), BuildingBlock: OJICUG_clean_linker_0, # of connection points: 2
#     Edge 86, Type (0, 0), BuildingBlock: OJICUG_clean_linker_0, # of connection points: 2
#     Edge 87, Type (0, 0), BuildingBlock: OJICUG_clean_linker_0, # of connection points: 2
#     Edge 88, Type (0, 0), BuildingBlock: OJICUG_clean_linker_0, # of connection points: 2
#     Edge 89, Type (0, 0), BuildingBlock: OJICUG_clean_linker_0, # of connection points: 2
#     Edge 90, Type (0, 0), BuildingBlock: OJICUG_clean_linker_0, # of connection points: 2
#     Edge 91, Type (0, 0), BuildingBlock: OJICUG_clean_linker_0, # of connection points: 2
#     Edge 92, Type (0, 0), BuildingBlock: OJICUG_clean_linker_0, # of connection points: 2
#     Edge 93, Type (0, 0), BuildingBlock: OJICUG_clean_linker_0, # of connection points: 2
#     Edge 94, Type (0, 0), BuildingBlock: OJICUG_clean_linker_0, # of connection points: 2
#     Edge 95, Type (0, 0), BuildingBlock: OJICUG_clean_linker_0, # of connection points: 2
#     Edge 96, Type (0, 0), BuildingBlock: OJICUG_clean_linker_0, # of connection points: 2
#     Edge 97, Type (0, 0), BuildingBlock: OJICUG_clean_linker_0, # of connection points: 2
#     Edge 98, Type (0, 0), BuildingBlock: OJICUG_clean_linker_0, # of connection points: 2
#     Edge 99, Type (0, 0), BuildingBlock: OJICUG_clean_linker_0, # of connection points: 2
#     Edge 100, Type (0, 0), BuildingBlock: OJICUG_clean_linker_0, # of connection points: 2
#     Edge 101, Type (0, 0), BuildingBlock: OJICUG_clean_linker_0, # of connection points: 2
#     Edge 102, Type (0, 0), BuildingBlock: OJICUG_clean_linker_0, # of connection points: 2
#     Edge 103, Type (0, 0), BuildingBlock: OJICUG_clean_linker_0, # of connection points: 2
#     Edge 104, Type (0, 0), BuildingBlock: OJICUG_clean_linker_0, # of connection points: 2
#     Edge 105, Type (0, 0), BuildingBlock: OJICUG_clean_linker_0, # of connection points: 2
#     Edge 106, Type (0, 0), BuildingBlock: OJICUG_clean_linker_0, # of connection points: 2
#     Edge 107, Type (0, 0), BuildingBlock: OJICUG_clean_linker_0, # of connection points: 2
#     Edge 108, Type (0, 0), BuildingBlock: OJICUG_clean_linker_0, # of connection points: 2
#     Edge 109, Type (0, 0), BuildingBlock: OJICUG_clean_linker_0, # of connection points: 2
#     Edge 110, Type (0, 0), BuildingBlock: OJICUG_clean_linker_0, # of connection points: 2
#     Edge 111, Type (0, 0), BuildingBlock: OJICUG_clean_linker_0, # of connection points: 2
#     Edge 112, Type (0, 0), BuildingBlock: OJICUG_clean_linker_0, # of connection points: 2
#     Edge 113, Type (0, 0), BuildingBlock: OJICUG_clean_linker_0, # of connection points: 2
#     Edge 114, Type (0, 0), BuildingBlock: OJICUG_clean_linker_0, # of connection points: 2
#     Edge 115, Type (0, 0), BuildingBlock: OJICUG_clean_linker_0, # of connection points: 2
#     Edge 116, Type (0, 0), BuildingBlock: OJICUG_clean_linker_0, # of connection points: 2
#     Edge 117, Type (0, 0), BuildingBlock: OJICUG_clean_linker_0, # of connection points: 2
#     Edge 118, Type (0, 0), BuildingBlock: OJICUG_clean_linker_0, # of connection points: 2
#     Edge 119, Type (0, 0), BuildingBlock: OJICUG_clean_linker_0, # of connection points: 2
#     Edge 120, Type (0, 0), BuildingBlock: OJICUG_clean_linker_0, # of connection points: 2
#     Edge 121, Type (0, 0), BuildingBlock: OJICUG_clean_linker_0, # of connection points: 2
#     Edge 122, Type (0, 0), BuildingBlock: OJICUG_clean_linker_0, # of connection points: 2
#     Edge 123, Type (0, 0), BuildingBlock: OJICUG_clean_linker_0, # of connection points: 2
#     Edge 124, Type (0, 0), BuildingBlock: OJICUG_clean_linker_0, # of connection points: 2
#     Edge 125, Type (0, 0), BuildingBlock: OJICUG_clean_linker_0, # of connection points: 2
#     Edge 126, Type (0, 0), BuildingBlock: OJICUG_clean_linker_0, # of connection points: 2
#     Edge 127, Type (0, 0), BuildingBlock: OJICUG_clean_linker_0, # of connection points: 2
#     Edge 128, Type (0, 0), BuildingBlock: OJICUG_clean_linker_0, # of connection points: 2
#     Edge 129, Type (0, 0), BuildingBlock: OJICUG_clean_linker_0, # of connection points: 2
#     Edge 130, Type (0, 0), BuildingBlock: OJICUG_clean_linker_0, # of connection points: 2
#     Edge 131, Type (0, 0), BuildingBlock: OJICUG_clean_linker_0, # of connection points: 2
#     Edge 132, Type (0, 0), BuildingBlock: OJICUG_clean_linker_0, # of connection points: 2
#     Edge 133, Type (0, 0), BuildingBlock: OJICUG_clean_linker_0, # of connection points: 2
#     Edge 134, Type (0, 0), BuildingBlock: OJICUG_clean_linker_0, # of connection points: 2
#     Edge 135, Type (0, 0), BuildingBlock: OJICUG_clean_linker_0, # of connection points: 2
#     Edge 136, Type (0, 0), BuildingBlock: OJICUG_clean_linker_0, # of connection points: 2
#     Edge 137, Type (0, 0), BuildingBlock: OJICUG_clean_linker_0, # of connection points: 2
#     Edge 138, Type (0, 0), BuildingBlock: OJICUG_clean_linker_0, # of connection points: 2
#     Edge 139, Type (0, 0), BuildingBlock: OJICUG_clean_linker_0, # of connection points: 2
#     Edge 140, Type (0, 0), BuildingBlock: OJICUG_clean_linker_0, # of connection points: 2
#     Edge 141, Type (0, 0), BuildingBlock: OJICUG_clean_linker_0, # of connection points: 2
#     Edge 142, Type (0, 0), BuildingBlock: OJICUG_clean_linker_0, # of connection points: 2
#     Edge 143, Type (0, 0), BuildingBlock: OJICUG_clean_linker_0, # of connection points: 2
# Relax obj value: 0.256
# Max RMSD: 0.244
# Mean RMSD: 0.244
data_MOF--net-soq--node1-NUHQUE_clean_sbu_2--edge1-OJICUG_clean_linker_0
_symmetry_space_group_name_H-M    P1
_symmetry_Int_Tables_number       1
_symmetry_cell_setting            triclinic
loop_
_symmetry_equiv_pos_as_xyz
'x, y, z'
_cell_length_a     52.554306
_cell_length_b     32.818014
_cell_length_c     41.453409
_cell_angle_alpha  89.995554
_cell_angle_beta   89.976318
_cell_angle_gamma 90.039254
loop_
_atom_site_label
_atom_site_type_symbol
_atom_site_fract_x
_atom_site_fract_y
_atom_site_fract_z
_atom_type_partial_charge
O0 O 0.10467 0.31905 0.98954 0.0
Tb1 Tb 0.0936 0.28721 1.03396 0.0
Eu2 Eu 0.03718 0.27785 0.09055 0.0
C3 C 0.09074 0.34986 0.97927 0.0
O4 O 0.07259 0.36375 0.99808 0.0
C5 C 0.0409 0.25603 1.01741 0.0
O6 O 0.03297 0.22033 0.1185 0.0
C7 C 1.00044 0.32976 0.09796 0.0
C8 C 0.05418 0.20021 0.12328 0.0
O9 O 0.07551 0.21534 0.11187 0.0
C10 C 0.09502 0.31793 0.10749 0.0
C11 C 0.99747 0.37347 0.10679 0.0
C12 C 1.00005 0.40282 0.08236 0.0
C13 C 0.9972 0.44429 0.08884 0.0
C14 C 0.99142 0.45687 0.12023 0.0
C15 C 0.98792 0.42837 0.14521 0.0
C16 C 0.99127 0.38644 0.1384 0.0
O17 O 0.05439 0.28962 1.01775 0.0
O18 O 0.03357 0.24063 0.04501 0.0
O19 O 0.12371 0.24223 1.02505 0.0
O20 O 0.08832 0.22219 0.04406 0.0
C21 C 0.11082 0.21059 1.03477 0.0
O22 O 0.07246 0.30265 0.11452 0.0
O23 O 0.10473 0.31975 0.07795 0.0
O24 O 0.00687 0.30367 0.12066 0.0
O25 O 0.01188 0.32261 0.07025 0.0
H26 H 0.00463 0.39355 0.05795 0.0
H27 H 0.98937 0.48915 0.12512 0.0
H28 H 0.98857 0.36412 0.15735 0.0
O29 O 0.15292 0.93504 0.98974 0.0
Tb30 Tb 0.16385 0.96723 1.03402 0.0
Eu31 Eu 0.22045 0.97613 0.0905 0.0
C32 C 0.16663 0.90364 0.98011 0.0
O33 O 0.18435 0.88959 0.99949 0.0
C34 C 0.21656 0.99829 1.01746 0.0
O35 O 0.22464 0.03357 0.11854 0.0
C36 C 0.25709 0.92406 0.09792 0.0
C37 C 0.20344 0.05372 0.12326 0.0
O38 O 0.18214 0.03866 0.11175 0.0
C39 C 0.16252 0.93639 0.10757 0.0
C40 C 0.25986 0.88039 0.10697 0.0
C41 C 0.25706 0.85086 0.08273 0.0
C42 C 0.25967 0.8094 0.08944 0.0
C43 C 0.26573 0.79707 0.12081 0.0
C44 C 0.26949 0.82575 0.14558 0.0
C45 C 0.26618 0.86764 0.1386 0.0
O46 O 0.20307 0.96471 1.01784 0.0
O47 O 0.22409 0.01348 0.04503 0.0
O48 O 0.13376 0.01221 1.025 0.0
O49 O 0.16915 0.03227 0.04399 0.0
C50 C 0.14666 0.04386 1.03468 0.0
O51 O 0.18516 0.95139 0.11452 0.0
O52 O 0.1527 0.93483 0.07809 0.0
O53 O 0.25083 0.9504 0.12051 0.0
O54 O 0.24558 0.93108 0.07023 0.0
H55 H 0.25321 0.86007 0.05811 0.0
H56 H 0.26726 0.76479 0.126 0.0
H57 H 0.26908 0.89009 0.1574 0.0
O58 O 0.10533 0.93281 0.33539 0.0
Tb59 Tb 0.09378 0.96721 0.29243 0.0
Eu60 Eu 0.03949 0.97608 0.23327 0.0
C61 C 0.08998 0.90444 0.34681 0.0
O62 O 0.07015 0.89372 0.3295 0.0
C63 C 0.04161 1.00071 0.30531 0.0
O64 O 0.035 0.03146 0.20276 0.0
C65 C 1.00306 0.9234 0.22624 0.0
C66 C 0.05605 0.05022 0.1945 0.0
O67 O 0.07794 0.03519 0.20406 0.0
C68 C 0.09826 0.93566 0.21982 0.0
C69 C 1.00015 0.87951 0.21796 0.0
C70 C 1.00285 0.85055 0.24265 0.0
C71 C 0.99981 0.809 0.2366 0.0
C72 C 0.99379 0.79594 0.20542 0.0
C73 C 0.9902 0.82401 0.1802 0.0
C74 C 0.99368 0.86604 0.18656 0.0
O75 O 0.05399 0.96618 0.30534 0.0
O76 O 0.03495 0.0158 0.2774 0.0
O77 O 0.11706 0.01618 0.31319 0.0
O78 O 0.0949 0.0286 0.27155 0.0
C79 C 0.11073 0.04403 0.29234 0.0
O80 O 0.07561 0.95005 0.21196 0.0
O81 O 0.1076 0.93504 0.24961 0.0
O82 O 0.00965 0.94891 0.20321 0.0
O83 O 0.01424 0.93135 0.25399 0.0
H84 H 0.0076 0.8602 0.26692 0.0
H85 H 0.99159 0.7636 0.20089 0.0
H86 H 0.99084 0.88806 0.16743 0.0
O87 O 0.15245 0.32158 0.33519 0.0
Tb88 Tb 0.16397 0.28723 0.29219 0.0
Eu89 Eu 0.21805 0.27794 0.2331 0.0
C90 C 0.16779 0.34994 0.34661 0.0
O91 O 0.1876 0.36073 0.32926 0.0
C92 C 0.2161 0.25365 0.30527 0.0
O93 O 0.2225 0.22242 0.20274 0.0
C94 C 0.25455 0.33044 0.22584 0.0
C95 C 0.20146 0.20369 0.19447 0.0
O96 O 0.17956 0.2188 0.20392 0.0
C97 C 0.15941 0.31857 0.21955 0.0
C98 C 0.25761 0.37422 0.21726 0.0
C99 C 0.25509 0.40343 0.24179 0.0
C100 C 0.25839 0.44489 0.23552 0.0
C101 C 0.26441 0.45759 0.20422 0.0
C102 C 0.26783 0.42923 0.17914 0.0
C103 C 0.26412 0.38732 0.18576 0.0
O104 O 0.20373 0.28819 0.30531 0.0
O105 O 0.22258 0.23838 0.27734 0.0
O106 O 0.14053 0.23839 0.3129 0.0
O107 O 0.16291 0.22575 0.27146 0.0
C108 C 0.14696 0.21044 0.29218 0.0
O109 O 0.18199 0.30393 0.21164 0.0
O110 O 0.15016 0.31943 0.24939 0.0
O111 O 0.24799 0.30471 0.20296 0.0
O112 O 0.24325 0.32287 0.25359 0.0
H113 H 0.25034 0.39404 0.26612 0.0
H114 H 0.2668 0.48986 0.19952 0.0
H115 H 0.26684 0.36507 0.16676 0.0
O116 O 0.90335 0.68515 0.08464 0.0
Tb117 Tb 0.91449 0.71698 0.04024 0.0
Eu118 Eu 0.9709 0.72678 0.98372 0.0
C119 C 0.9173 0.65438 0.09497 0.0
O120 O 0.93554 0.64058 0.07625 0.0
C121 C 0.96712 0.74843 0.05693 0.0
O122 O 0.97516 0.78437 0.95585 0.0
C123 C 0.00758 0.67478 0.97621 0.0
C124 C 0.95396 0.80451 0.95108 0.0
O125 O 0.93262 0.78936 0.96245 0.0
C126 C 0.91318 0.68637 0.96674 0.0
C127 C 0.01042 0.63104 0.9674 0.0
C128 C 0.00771 0.60171 0.99183 0.0
C129 C 0.01044 0.56022 0.98537 0.0
C130 C 0.01621 0.54758 0.95399 0.0
C131 C 0.01983 0.57603 0.929 0.0
C132 C 0.01661 0.618 0.93579 0.0
O133 O 0.95368 0.71478 0.05658 0.0
O134 O 0.97445 0.76386 1.02934 0.0
O135 O 0.88429 0.76187 0.04893 0.0
O136 O 0.9197 0.78198 1.03006 0.0
C137 C 0.89717 0.79352 0.03922 0.0
O138 O 0.93562 0.70206 0.95971 0.0
O139 O 0.90353 0.68421 0.99629 0.0
O140 O 1.00114 0.70088 0.95353 0.0
O141 O 0.99623 0.68203 1.00397 0.0
H142 H 1.00313 0.61104 1.01623 0.0
H143 H 0.01817 0.51528 0.94912 0.0
H144 H 0.01941 0.64029 0.91685 0.0
O145 O 0.85465 0.06878 0.08409 0.0
Tb146 Tb 0.84377 0.03666 0.03974 0.0
Eu147 Eu 0.78741 0.02732 0.98307 0.0
C148 C 0.84085 0.1 0.09388 0.0
O149 O 0.82301 0.11395 0.07463 0.0
C150 C 0.79112 0.00516 0.05611 0.0
O151 O 0.78328 0.96989 0.95501 0.0
C152 C 0.75076 0.07935 0.9757 0.0
C153 C 0.80451 0.94982 0.95028 0.0
O154 O 0.8258 0.96498 0.96176 0.0
C155 C 0.84523 0.06752 0.96624 0.0
C156 C 0.74812 0.12311 0.9669 0.0
C157 C 0.75103 0.15241 0.99129 0.0
C158 C 0.74865 0.19395 0.98478 0.0
C159 C 0.7427 0.2066 0.95346 0.0
C160 C 0.73879 0.17817 0.92854 0.0
C161 C 0.74186 0.13618 0.93533 0.0
O162 O 0.80453 0.03884 0.05587 0.0
O163 O 0.7838 0.9899 1.02848 0.0
O164 O 0.87393 0.9918 0.04881 0.0
O165 O 0.83865 0.97165 1.02958 0.0
C166 C 0.86112 0.96013 0.03899 0.0
O167 O 0.8227 0.05222 0.95918 0.0
O168 O 0.85494 0.06927 0.99578 0.0
O169 O 0.75714 0.05324 0.95299 0.0
O170 O 0.7621 0.07201 1.00345 0.0
H171 H 0.75483 0.14297 1.01588 0.0
H172 H 0.74138 0.23895 0.94843 0.0
H173 H 0.73886 0.1139 0.91643 0.0
O174 O 0.90273 0.07147 0.73865 0.0
Tb175 Tb 0.91416 0.03688 0.78154 0.0
Eu176 Eu 0.96853 0.02847 0.84081 0.0
C177 C 0.9179 0.1004 0.72776 0.0
O178 O 0.93739 0.11144 0.74558 0.0
C179 C 0.96645 0.00383 0.76878 0.0
O180 O 0.97305 0.97314 0.87138 0.0
C181 C 0.00483 0.08135 0.84792 0.0
C182 C 0.95202 0.95431 0.87961 0.0
O183 O 0.93013 0.96922 0.86995 0.0
C184 C 0.90962 0.06851 0.85415 0.0
C185 C 0.00762 0.12522 0.85631 0.0
C186 C 0.00496 0.15423 0.83165 0.0
C187 C 0.00789 0.19579 0.83779 0.0
C188 C 0.01394 0.20875 0.86899 0.0
C189 C 0.01756 0.18063 0.89415 0.0
C190 C 0.01406 0.13862 0.88775 0.0
O191 O 0.95398 0.03827 0.76879 0.0
O192 O 0.9732 0.9888 0.79667 0.0
O193 O 0.891 0.98786 0.76062 0.0
O194 O 0.91313 0.97541 0.80228 0.0
C195 C 0.89736 0.95997 0.78143 0.0
O196 O 0.93233 0.05436 0.86203 0.0
O197 O 0.90025 0.06891 0.82437 0.0
O198 O 0.99832 0.0557 0.87089 0.0
O199 O 0.99363 0.07345 0.82017 0.0
H200 H 1.00103 0.14451 0.80716 0.0
H201 H 0.0156 0.24113 0.87372 0.0
H202 H 0.01691 0.11655 0.90683 0.0
O203 O 0.85571 0.68176 0.73897 0.0
Tb204 Tb 0.84449 0.71652 0.78186 0.0
Eu205 Eu 0.79004 0.72513 0.84109 0.0
C206 C 0.84073 0.65221 0.72872 0.0
O207 O 0.82168 0.64083 0.74718 0.0
C208 C 0.79222 0.7494 0.76901 0.0
O209 O 0.78557 0.78068 0.87139 0.0
C210 C 0.75353 0.67264 0.84832 0.0
C211 C 0.8066 0.79953 0.87951 0.0
O212 O 0.8285 0.78449 0.86998 0.0
C213 C 0.84894 0.68509 0.85456 0.0
C214 C 0.7505 0.62881 0.85667 0.0
C215 C 0.75288 0.59983 0.83195 0.0
C216 C 0.74971 0.55831 0.83804 0.0
C217 C 0.74369 0.54536 0.86925 0.0
C218 C 0.74033 0.57347 0.89449 0.0
C219 C 0.74408 0.61543 0.88813 0.0
O220 O 0.80468 0.71495 0.76917 0.0
O221 O 0.78547 0.76462 0.79685 0.0
O222 O 0.86779 0.76541 0.76097 0.0
O223 O 0.84528 0.77817 0.80227 0.0
C224 C 0.86123 0.79347 0.78155 0.0
O225 O 0.82618 0.69913 0.86237 0.0
O226 O 0.85838 0.68472 0.8248 0.0
O227 O 0.76019 0.69818 0.87129 0.0
O228 O 0.76474 0.68041 0.82054 0.0
H229 H 0.75677 0.60955 0.80745 0.0
H230 H 0.74184 0.51299 0.87394 0.0
H231 H 0.74144 0.6375 0.90727 0.0
O232 O 0.10565 0.82193 0.49097 0.0
Tb233 Tb 0.09425 0.78712 0.53378 0.0
Eu234 Eu 0.03929 0.77859 0.59175 0.0
C235 C 0.09057 0.85118 0.48047 0.0
O236 O 0.07135 0.86235 0.4987 0.0
C237 C 0.04224 0.75335 0.51984 0.0
O238 O 0.03571 0.7227 0.6218 0.0
C239 C 1.00219 0.82992 0.59861 0.0
C240 C 0.05704 0.7045 0.62953 0.0
O241 O 0.07869 0.72071 0.62023 0.0
C242 C 0.09765 0.8196 0.60643 0.0
C243 C 0.99891 0.87366 0.60713 0.0
C244 C 1.00133 0.90288 0.58258 0.0
C245 C 0.99815 0.94435 0.58889 0.0
C246 C 0.99222 0.95701 0.62022 0.0
C247 C 0.98889 0.92861 0.64531 0.0
C248 C 0.99255 0.88672 0.63867 0.0
O249 O 0.05469 0.78786 0.51973 0.0
O250 O 0.03528 0.73857 0.54774 0.0
O251 O 0.11824 0.73869 0.51353 0.0
O252 O 0.09481 0.72533 0.5539 0.0
C253 C 0.11128 0.71039 0.5337 0.0
O254 O 0.07475 0.8058 0.61376 0.0
O255 O 0.1076 0.81926 0.57694 0.0
O256 O 0.00884 0.80434 0.62156 0.0
O257 O 0.01365 0.82255 0.57093 0.0
H258 H 0.00602 0.89351 0.55822 0.0
H259 H 0.9899 0.98927 0.62498 0.0
H260 H 0.98995 0.86447 0.65769 0.0
O261 O 0.15252 0.4323 0.4908 0.0
Tb262 Tb 0.16406 0.46705 0.53356 0.0
Eu263 Eu 0.21883 0.47614 0.59145 0.0
C264 C 0.16748 0.40287 0.48033 0.0
O265 O 0.18666 0.39153 0.49855 0.0
C266 C 0.2161 0.50059 0.51927 0.0
O267 O 0.2225 0.53227 0.62122 0.0
C268 C 0.25579 0.4246 0.59866 0.0
C269 C 0.20118 0.55052 0.62898 0.0
O270 O 0.17952 0.53425 0.61984 0.0
C271 C 0.16054 0.43497 0.60624 0.0
C272 C 0.25884 0.38085 0.60732 0.0
C273 C 0.25624 0.35156 0.58285 0.0
C274 C 0.25914 0.31006 0.58927 0.0
C275 C 0.26523 0.29748 0.62057 0.0
C276 C 0.2688 0.32592 0.64555 0.0
C277 C 0.26524 0.36783 0.63885 0.0
O278 O 0.20359 0.46614 0.51926 0.0
O279 O 0.22291 0.51565 0.54713 0.0
O280 O 0.14006 0.51554 0.51342 0.0
O281 O 0.1636 0.52884 0.55368 0.0
C282 C 0.14709 0.54382 0.53357 0.0
O283 O 0.18333 0.44918 0.61359 0.0
O284 O 0.15071 0.43487 0.57669 0.0
O285 O 0.24913 0.45034 0.6215 0.0
O286 O 0.24447 0.43196 0.5709 0.0
H287 H 0.25232 0.361 0.5583 0.0
H288 H 0.26694 0.26517 0.62555 0.0
H289 H 0.268 0.39012 0.65781 0.0
O290 O 0.10494 0.4321 0.83456 0.0
Tb291 Tb 0.09349 0.46715 0.79186 0.0
Eu292 Eu 0.03854 0.47658 0.73301 0.0
C293 C 0.08961 0.4035 0.8457 0.0
O294 O 0.06978 0.39301 0.82828 0.0
C295 C 0.04132 0.50061 0.80528 0.0
O296 O 0.03538 0.5331 0.70366 0.0
C297 C 1.00136 0.42571 0.72438 0.0
C298 C 0.05679 0.5513 0.6962 0.0
O299 O 0.07837 0.53478 0.70535 0.0
C300 C 0.09705 0.43518 0.7191 0.0
C301 C 0.99831 0.38199 0.71561 0.0
C302 C 1.00096 0.35258 0.73996 0.0
C303 C 0.99803 0.31112 0.73342 0.0
C304 C 0.99189 0.29867 0.70213 0.0
C305 C 0.98827 0.32721 0.67724 0.0
C306 C 0.99185 0.3691 0.68404 0.0
O307 O 0.05374 0.46611 0.80504 0.0
O308 O 0.03421 0.51566 0.77754 0.0
O309 O 0.11718 0.51573 0.81258 0.0
O310 O 0.09447 0.52889 0.77159 0.0
C311 C 0.11062 0.54394 0.79213 0.0
O312 O 0.07425 0.44929 0.71167 0.0
O313 O 0.1069 0.43524 0.74865 0.0
O314 O 0.00879 0.45129 0.7018 0.0
O315 O 0.012 0.43299 0.75259 0.0
H316 H 0.00495 0.36187 0.76454 0.0
H317 H 0.99017 0.26637 0.69708 0.0
H318 H 0.98906 0.39147 0.66515 0.0
O319 O 0.15274 0.82173 0.8348 0.0
Tb320 Tb 0.16452 0.78701 0.79206 0.0
Eu321 Eu 0.21945 0.77785 0.73342 0.0
C322 C 0.16814 0.84978 0.84664 0.0
O323 O 0.1884 0.86003 0.82995 0.0
C324 C 0.21665 0.75341 0.80563 0.0
O325 O 0.22277 0.72157 0.70379 0.0
C326 C 0.25659 0.82895 0.72527 0.0
C327 C 0.20139 0.70338 0.69619 0.0
O328 O 0.17979 0.71976 0.70542 0.0
C329 C 0.16102 0.8192 0.71935 0.0
C330 C 0.25979 0.87267 0.71654 0.0
C331 C 0.2573 0.90205 0.74095 0.0
C332 C 0.26049 0.94348 0.73447 0.0
C333 C 0.26645 0.95597 0.70312 0.0
C334 C 0.26983 0.92746 0.67816 0.0
C335 C 0.26618 0.88557 0.68494 0.0
O336 O 0.20421 0.78788 0.80557 0.0
O337 O 0.22369 0.73848 0.77781 0.0
O338 O 0.14079 0.73839 0.81265 0.0
O339 O 0.16352 0.72534 0.77164 0.0
C340 C 0.14734 0.71023 0.79216 0.0
O341 O 0.18381 0.80508 0.71191 0.0
O342 O 0.15116 0.81911 0.7489 0.0
O343 O 0.24941 0.80334 0.7026 0.0
O344 O 0.24569 0.82167 0.75333 0.0
H345 H 0.25257 0.89285 0.76534 0.0
H346 H 0.26877 0.98822 0.69826 0.0
H347 H 0.26881 0.86323 0.666 0.0
O348 O 0.90243 0.18227 0.58308 0.0
Tb349 Tb 0.91388 0.21684 0.54016 0.0
Eu350 Eu 0.96867 0.22599 0.48223 0.0
C351 C 0.91769 0.15354 0.59406 0.0
O352 O 0.93722 0.14261 0.57628 0.0
C353 C 0.96577 0.25111 0.55419 0.0
O354 O 0.97217 0.28191 0.45221 0.0
C355 C 0.00586 0.17482 0.47538 0.0
C356 C 0.95082 0.29998 0.44437 0.0
O357 O 0.92918 0.28361 0.45351 0.0
C358 C 0.91053 0.1843 0.46758 0.0
C359 C 0.00916 0.13106 0.46689 0.0
C360 C 0.00674 0.10186 0.49146 0.0
C361 C 0.00991 0.06039 0.48517 0.0
C362 C 0.01583 0.0477 0.45384 0.0
C363 C 0.01917 0.07607 0.42874 0.0
C364 C 0.01552 0.11797 0.43536 0.0
O365 O 0.95343 0.2165 0.55434 0.0
O366 O 0.97257 0.26601 0.52626 0.0
O367 O 0.88977 0.26523 0.56022 0.0
O368 O 0.91318 0.27853 0.51982 0.0
C369 C 0.89666 0.29347 0.53996 0.0
O370 O 0.9333 0.19857 0.4602 0.0
O371 O 0.90065 0.18437 0.49711 0.0
O372 O 0.99916 0.20034 0.45241 0.0
O373 O 0.99442 0.18219 0.50307 0.0
H374 H 1.00204 0.11126 0.51581 0.0
H375 H 0.01814 0.01543 0.44911 0.0
H376 H 0.01812 0.1402 0.41632 0.0
O377 O 0.85539 0.571 0.58329 0.0
Tb378 Tb 0.84367 0.53671 0.54034 0.0
Eu379 Eu 0.7891 0.52723 0.4821 0.0
C380 C 0.84002 0.5991 0.59504 0.0
O381 O 0.82 0.60972 0.57806 0.0
C382 C 0.79173 0.5025 0.55417 0.0
O383 O 0.78561 0.47118 0.45224 0.0
C384 C 0.75197 0.57845 0.47496 0.0
C385 C 0.80697 0.4531 0.44441 0.0
O386 O 0.8286 0.46953 0.45346 0.0
C387 C 0.84729 0.56907 0.46775 0.0
C388 C 0.74887 0.62229 0.46665 0.0
C389 C 0.75156 0.65134 0.49128 0.0
C390 C 0.74864 0.69288 0.48511 0.0
C391 C 0.7427 0.70582 0.45386 0.0
C392 C 0.7391 0.67761 0.4287 0.0
C393 C 0.74249 0.63562 0.43519 0.0
O394 O 0.80407 0.53711 0.55431 0.0
O395 O 0.78508 0.48744 0.52625 0.0
O396 O 0.86752 0.48808 0.56053 0.0
O397 O 0.84452 0.47517 0.51973 0.0
C398 C 0.8608 0.46001 0.54005 0.0
O399 O 0.82458 0.55462 0.46028 0.0
O400 O 0.85704 0.5692 0.49734 0.0
O401 O 0.75889 0.55311 0.45197 0.0
O402 O 0.76311 0.57078 0.50279 0.0
H403 H 0.75628 0.64177 0.51557 0.0
H404 H 0.7406 0.73815 0.44922 0.0
H405 H 0.7397 0.61352 0.41611 0.0
O406 O 0.90278 0.57172 0.23948 0.0
Tb407 Tb 0.91419 0.5367 0.28221 0.0
Eu408 Eu 0.96939 0.52802 0.34111 0.0
C409 C 0.91807 0.60046 0.22847 0.0
O410 O 0.93778 0.61107 0.24603 0.0
C411 C 0.96647 0.50366 0.26896 0.0
O412 O 0.97245 0.47156 0.37053 0.0
C413 C 0.00669 0.57868 0.34972 0.0
C414 C 0.95103 0.45337 0.37796 0.0
O415 O 0.92947 0.46988 0.36876 0.0
C416 C 0.91074 0.56911 0.35492 0.0
C417 C 0.01001 0.62239 0.35838 0.0
C418 C 0.00768 0.65173 0.33392 0.0
C419 C 0.01103 0.69314 0.34034 0.0
C420 C 0.01694 0.70566 0.37169 0.0
C421 C 0.02016 0.67717 0.3967 0.0
C422 C 0.01637 0.6353 0.38997 0.0
O423 O 0.95396 0.53807 0.26923 0.0
O424 O 0.97377 0.48879 0.29667 0.0
O425 O 0.89057 0.48804 0.26146 0.0
O426 O 0.91335 0.4749 0.30239 0.0
C427 C 0.8972 0.45981 0.28185 0.0
O428 O 0.93367 0.55549 0.36229 0.0
O429 O 0.90074 0.56852 0.32545 0.0
O430 O 0.99914 0.55326 0.37234 0.0
O431 O 0.99604 0.57142 0.32151 0.0
H432 H 1.00298 0.64253 0.30953 0.0
H433 H 0.01937 0.73789 0.3765 0.0
H434 H 0.01888 0.61298 0.40896 0.0
O435 O 0.85531 0.18177 0.23918 0.0
Tb436 Tb 0.84369 0.21646 0.28201 0.0
Eu437 Eu 0.78855 0.22518 0.341 0.0
C438 C 0.8399 0.15369 0.22741 0.0
O439 O 0.81969 0.14339 0.2442 0.0
C440 C 0.79145 0.24969 0.26892 0.0
O441 O 0.78538 0.28148 0.3706 0.0
C442 C 0.75133 0.17427 0.34928 0.0
C443 C 0.80679 0.29967 0.37806 0.0
O444 O 0.82837 0.28324 0.3688 0.0
C445 C 0.8472 0.18403 0.35469 0.0
C446 C 0.74818 0.13047 0.35772 0.0
C447 C 0.75069 0.10134 0.33313 0.0
C448 C 0.7477 0.05983 0.3394 0.0
C449 C 0.74163 0.04703 0.37062 0.0
C450 C 0.73816 0.07527 0.39572 0.0
C451 C 0.7418 0.11723 0.38923 0.0
O452 O 0.8039 0.21523 0.26914 0.0
O453 O 0.78423 0.26457 0.29667 0.0
O454 O 0.86719 0.26527 0.26123 0.0
O455 O 0.84464 0.27814 0.30243 0.0
C456 C 0.86067 0.29338 0.28179 0.0
O457 O 0.82429 0.19773 0.36211 0.0
O458 O 0.85716 0.18455 0.32519 0.0
O459 O 0.75878 0.19956 0.37204 0.0
O460 O 0.76202 0.18182 0.32113 0.0
H461 H 0.75465 0.11089 0.3086 0.0
H462 H 0.7399 0.01468 0.37545 0.0
H463 H 0.73915 0.13937 0.40832 0.0
O464 O 0.60539 0.31931 0.48965 0.0
Tb465 Tb 0.59422 0.28782 0.53416 0.0
Eu466 Eu 0.53756 0.27966 0.59078 0.0
C467 C 0.59144 0.3499 0.47901 0.0
O468 O 0.57305 0.36383 0.49741 0.0
C469 C 0.54141 0.257 0.5179 0.0
O470 O 0.53355 0.22237 0.61904 0.0
C471 C 0.50086 0.33162 0.5982 0.0
C472 C 0.55481 0.20242 0.62393 0.0
O473 O 0.57611 0.21758 0.61247 0.0
C474 C 0.59561 0.31923 0.60754 0.0
C475 C 0.49804 0.37532 0.60715 0.0
C476 C 0.5008 0.40478 0.58283 0.0
C477 C 0.49815 0.44625 0.58945 0.0
C478 C 0.49209 0.45867 0.62079 0.0
C479 C 0.48836 0.43007 0.64564 0.0
C480 C 0.4917 0.38816 0.63875 0.0
O481 O 0.55495 0.29053 0.51824 0.0
O482 O 0.53378 0.24201 0.54549 0.0
O483 O 0.62421 0.24263 0.52535 0.0
O484 O 0.58877 0.22287 0.54437 0.0
C485 C 0.61124 0.2111 0.53511 0.0
O486 O 0.57288 0.30463 0.61456 0.0
O487 O 0.60549 0.32037 0.57807 0.0
O488 O 0.5072 0.30541 0.62085 0.0
O489 O 0.51233 0.32453 0.57049 0.0
H490 H 0.50466 0.39549 0.55823 0.0
H491 H 0.49054 0.49097 0.62592 0.0
H492 H 0.48883 0.36577 0.6576 0.0
O493 O 0.65258 0.93597 0.48983 0.0
Tb494 Tb 0.66366 0.96742 0.5344 0.0
Eu495 Eu 0.72068 0.97459 0.59118 0.0
C496 C 0.66662 0.90557 0.47904 0.0
O497 O 0.68513 0.89175 0.4973 0.0
C498 C 0.71655 0.99813 0.51863 0.0
O499 O 0.72452 0.03166 0.61972 0.0
C500 C 0.75759 0.92296 0.59825 0.0
C501 C 0.70324 0.05157 0.62452 0.0
O502 O 0.68199 0.03646 0.61289 0.0
C503 C 0.66239 0.93544 0.60777 0.0
C504 C 0.76072 0.87926 0.60697 0.0
C505 C 0.75829 0.84995 0.58249 0.0
C506 C 0.76129 0.80848 0.58892 0.0
C507 C 0.76706 0.7959 0.62031 0.0
C508 C 0.77042 0.82439 0.64533 0.0
C509 C 0.76693 0.86629 0.63856 0.0
O510 O 0.70303 0.96459 0.51898 0.0
O511 O 0.72443 0.01277 0.5462 0.0
O512 O 0.6337 0.01265 0.52553 0.0
O513 O 0.66916 0.03242 0.54443 0.0
C514 C 0.6467 0.04419 0.53519 0.0
O515 O 0.68535 0.94918 0.61471 0.0
O516 O 0.65227 0.93516 0.57842 0.0
O517 O 0.75114 0.9489 0.62105 0.0
O518 O 0.74604 0.93011 0.5706 0.0
H519 H 0.75371 0.85925 0.55809 0.0
H520 H 0.76924 0.76363 0.62517 0.0
H521 H 0.76954 0.88859 0.65754 0.0
O522 O 0.60512 0.93315 0.83521 0.0
Tb523 Tb 0.59352 0.96792 0.79246 0.0
Eu524 Eu 0.53955 0.9778 0.73303 0.0
C525 C 0.58963 0.9051 0.84686 0.0
O526 O 0.56945 0.89501 0.82997 0.0
C527 C 0.54144 1.0019 0.80528 0.0
O528 O 0.53551 0.03356 0.7029 0.0
C529 C 0.50278 0.92596 0.72506 0.0
C530 C 0.55663 0.05209 0.69465 0.0
O531 O 0.57848 0.03663 0.70392 0.0
C532 C 0.59806 0.93633 0.71988 0.0
C533 C 0.49966 0.88223 0.71637 0.0
C534 C 0.50218 0.8529 0.74081 0.0
C535 C 0.49886 0.81148 0.73441 0.0
C536 C 0.49283 0.79893 0.70311 0.0
C537 C 0.48943 0.82741 0.67812 0.0
C538 C 0.49316 0.86929 0.68484 0.0
O539 O 0.55371 0.96726 0.80534 0.0
O540 O 0.535 0.0172 0.77736 0.0
O541 O 0.61676 0.01684 0.81341 0.0
O542 O 0.59505 0.0292 0.77139 0.0
C543 C 0.61072 0.04464 0.79236 0.0
O544 O 0.57557 0.95123 0.7119 0.0
O545 O 0.60729 0.93554 0.74972 0.0
O546 O 0.50978 0.95161 0.70233 0.0
O547 O 0.51374 0.93338 0.75305 0.0
H548 H 0.50696 0.86214 0.76516 0.0
H549 H 0.49042 0.76668 0.69832 0.0
H550 H 0.49046 0.89161 0.66589 0.0
O551 O 0.65314 0.32245 0.83492 0.0
Tb552 Tb 0.66464 0.28759 0.79215 0.0
Eu553 Eu 0.71842 0.27689 0.73262 0.0
C554 C 0.6687 0.35037 0.84658 0.0
O555 O 0.68892 0.36036 0.8297 0.0
C556 C 0.71662 0.25336 0.80496 0.0
O557 O 0.72244 0.22092 0.70275 0.0
C558 C 0.75521 0.32863 0.72443 0.0
C559 C 0.70132 0.20233 0.69462 0.0
O560 O 0.67947 0.21788 0.70382 0.0
C561 C 0.66003 0.31867 0.71947 0.0
C562 C 0.75822 0.37234 0.71562 0.0
C563 C 0.75559 0.40175 0.73997 0.0
C564 C 0.75866 0.44318 0.73344 0.0
C565 C 0.76487 0.4556 0.70215 0.0
C566 C 0.76846 0.42704 0.67727 0.0
C567 C 0.76478 0.38518 0.68407 0.0
O568 O 0.70447 0.28811 0.80488 0.0
O569 O 0.72292 0.23775 0.77709 0.0
O570 O 0.64136 0.23876 0.81321 0.0
O571 O 0.66304 0.22627 0.77117 0.0
C572 C 0.64736 0.21091 0.79219 0.0
O573 O 0.68242 0.30341 0.71145 0.0
O574 O 0.6509 0.31988 0.74937 0.0
O575 O 0.74818 0.30289 0.70178 0.0
O576 O 0.7443 0.3213 0.75247 0.0
H577 H 0.75157 0.39246 0.76454 0.0
H578 H 0.7667 0.48789 0.69711 0.0
H579 H 0.76759 0.36279 0.6652 0.0
O580 O 0.40293 0.68306 0.58372 0.0
Tb581 Tb 0.41438 0.71793 0.54094 0.0
Eu582 Eu 0.46905 0.72761 0.48271 0.0
C583 C 0.41793 0.6537 0.59422 0.0
O584 O 0.43718 0.64252 0.57602 0.0
C585 C 0.46637 0.75192 0.55495 0.0
O586 O 0.47269 0.78381 0.45301 0.0
C587 C 0.50604 0.67617 0.47534 0.0
C588 C 0.45136 0.80207 0.44534 0.0
O589 O 0.42971 0.78576 0.45453 0.0
C590 C 0.41084 0.68601 0.4682 0.0
C591 C 0.50898 0.63235 0.46685 0.0
C592 C 0.50628 0.60322 0.49142 0.0
C593 C 0.50901 0.56167 0.48513 0.0
C594 C 0.51502 0.54886 0.45386 0.0
C595 C 0.51871 0.57714 0.42877 0.0
C596 C 0.51533 0.61912 0.43535 0.0
O597 O 0.45395 0.71738 0.55506 0.0
O598 O 0.47308 0.76704 0.52705 0.0
O599 O 0.39033 0.76627 0.56123 0.0
O600 O 0.41365 0.7797 0.52077 0.0
C601 C 0.39718 0.79459 0.54101 0.0
O602 O 0.43354 0.70052 0.46077 0.0
O603 O 0.40108 0.6857 0.4978 0.0
O604 O 0.49921 0.70173 0.45246 0.0
O605 O 0.49492 0.68375 0.5032 0.0
H606 H 0.5024 0.61282 0.51595 0.0
H607 H 0.51658 0.5165 0.44899 0.0
H608 H 0.51816 0.64129 0.41632 0.0
O609 O 0.3552 0.07248 0.58399 0.0
Tb610 Tb 0.34383 0.03764 0.54118 0.0
Eu611 Eu 0.28897 0.02848 0.48291 0.0
C612 C 0.34015 0.10178 0.59449 0.0
O613 O 0.32091 0.11293 0.57629 0.0
C614 C 0.29182 0.00368 0.55498 0.0
O615 O 0.28543 0.9724 0.45306 0.0
C616 C 0.25197 0.07991 0.47556 0.0
C617 C 0.30678 0.95415 0.44542 0.0
O618 O 0.3284 0.97043 0.45469 0.0
C619 C 0.34729 0.06992 0.46849 0.0
C620 C 0.24898 0.12368 0.46694 0.0
C621 C 0.25165 0.15296 0.4914 0.0
C622 C 0.24882 0.19447 0.48498 0.0
C623 C 0.24275 0.20708 0.45368 0.0
C624 C 0.23911 0.17865 0.4287 0.0
C625 C 0.24258 0.13672 0.43541 0.0
O626 O 0.30422 0.03824 0.55505 0.0
O627 O 0.28488 0.9888 0.52711 0.0
O628 O 0.36781 0.98921 0.56146 0.0
O629 O 0.34458 0.97594 0.52091 0.0
C630 C 0.36099 0.96097 0.54116 0.0
O631 O 0.32452 0.05566 0.46109 0.0
O632 O 0.35713 0.06992 0.49804 0.0
O633 O 0.25875 0.05425 0.45273 0.0
O634 O 0.26316 0.07248 0.5034 0.0
H635 H 0.25557 0.1435 0.51595 0.0
H636 H 0.24111 0.2394 0.44871 0.0
H637 H 0.23976 0.11444 0.41646 0.0
O638 O 0.40272 0.07299 0.23987 0.0
Tb639 Tb 0.41403 0.03827 0.28278 0.0
Eu640 Eu 0.46919 0.02972 0.34117 0.0
C641 C 0.41767 0.10252 0.22948 0.0
O642 O 0.43674 0.11399 0.24784 0.0
C643 C 0.46624 0.00525 0.26905 0.0
O644 O 0.47275 0.97351 0.37086 0.0
C645 C 0.50623 0.08114 0.34868 0.0
C646 C 0.4514 0.95513 0.37838 0.0
O647 O 0.42978 0.97133 0.36906 0.0
C648 C 0.41062 0.07051 0.35549 0.0
C649 C 0.50937 0.125 0.35696 0.0
C650 C 0.50704 0.15393 0.33219 0.0
C651 C 0.51007 0.19548 0.33825 0.0
C652 C 0.51598 0.20852 0.36946 0.0
C653 C 0.51929 0.18047 0.39475 0.0
C654 C 0.51563 0.13847 0.38843 0.0
O655 O 0.45369 0.03963 0.26921 0.0
O656 O 0.47335 0.9903 0.29682 0.0
O657 O 0.39009 0.98975 0.26246 0.0
O658 O 0.41353 0.97637 0.30276 0.0
C659 C 0.39705 0.96142 0.28258 0.0
O660 O 0.43352 0.05675 0.3628 0.0
O661 O 0.40066 0.0702 0.326 0.0
O662 O 0.49916 0.05582 0.37162 0.0
O663 O 0.49523 0.07344 0.32076 0.0
H664 H 0.50321 0.14418 0.30768 0.0
H665 H 0.51772 0.2409 0.37413 0.0
H666 H 0.51818 0.11646 0.40764 0.0
O667 O 0.35563 0.68381 0.23954 0.0
Tb668 Tb 0.34394 0.71796 0.28262 0.0
Eu669 Eu 0.28881 0.7265 0.34136 0.0
C670 C 0.3403 0.65573 0.22763 0.0
O671 O 0.32021 0.64499 0.24446 0.0
C672 C 0.29169 0.75103 0.26927 0.0
O673 O 0.2854 0.78273 0.37104 0.0
C674 C 0.25173 0.67522 0.34927 0.0
C675 C 0.30676 0.80103 0.37857 0.0
O676 O 0.32837 0.78475 0.3693 0.0
C677 C 0.34745 0.68563 0.3553 0.0
C678 C 0.2485 0.63143 0.35777 0.0
C679 C 0.25084 0.60226 0.33317 0.0
C680 C 0.24758 0.56079 0.33942 0.0
C681 C 0.2417 0.54805 0.37075 0.0
C682 C 0.23847 0.57637 0.3959 0.0
C683 C 0.24218 0.61829 0.38931 0.0
O684 O 0.3042 0.71662 0.26948 0.0
O685 O 0.28448 0.76592 0.29703 0.0
O686 O 0.36756 0.76679 0.26214 0.0
O687 O 0.3446 0.77968 0.30298 0.0
C688 C 0.3608 0.79491 0.28255 0.0
O689 O 0.32456 0.69938 0.3627 0.0
O690 O 0.35739 0.68598 0.32578 0.0
O691 O 0.25891 0.70065 0.37208 0.0
O692 O 0.26265 0.68271 0.32126 0.0
H693 H 0.2555 0.61167 0.30881 0.0
H694 H 0.23933 0.51578 0.37544 0.0
H695 H 0.23964 0.64049 0.40838 0.0
O696 O 0.60535 0.81982 0.98993 0.0
Tb697 Tb 0.59441 0.78759 1.03419 0.0
Eu698 Eu 0.53759 0.77964 0.09071 0.0
C699 C 0.5916 0.85113 0.98026 0.0
O700 O 0.57382 0.86514 0.99959 0.0
C701 C 0.54158 0.757 1.01784 0.0
O702 O 0.5334 0.72235 0.11892 0.0
C703 C 0.50101 0.83183 0.09801 0.0
C704 C 0.55459 0.70215 0.12356 0.0
O705 O 0.57587 0.71708 0.11187 0.0
C706 C 0.59574 0.81871 0.1077 0.0
C707 C 0.49826 0.87553 0.10698 0.0
C708 C 0.50108 0.90499 0.08267 0.0
C709 C 0.49846 0.94647 0.08929 0.0
C710 C 0.4924 0.95889 0.12064 0.0
C711 C 0.48861 0.93029 0.14547 0.0
C712 C 0.49191 0.88838 0.13857 0.0
O713 O 0.55516 0.79048 1.01823 0.0
O714 O 0.53386 0.74204 0.0454 0.0
O715 O 0.62442 0.74254 1.02501 0.0
O716 O 0.589 0.72252 0.04396 0.0
C717 C 0.61147 0.71089 1.0346 0.0
O718 O 0.57293 0.80436 0.11463 0.0
O719 O 0.60571 0.81975 0.07827 0.0
O720 O 0.50722 0.80555 0.12067 0.0
O721 O 0.51254 0.8247 0.07034 0.0
H722 H 0.50495 0.8957 0.05806 0.0
H723 H 0.49087 0.99119 0.12576 0.0
H724 H 0.48899 0.86598 0.15742 0.0
O725 O 0.65332 0.4353 0.98984 0.0
Tb726 Tb 0.66427 0.4674 1.03414 0.0
Eu727 Eu 0.72079 0.47582 0.09076 0.0
C728 C 0.66705 0.404 0.98009 0.0
O729 O 0.68482 0.3899 0.99936 0.0
C730 C 0.71711 0.49798 1.01775 0.0
O731 O 0.72495 0.53321 0.11885 0.0
C732 C 0.75746 0.42379 0.09816 0.0
C733 C 0.70375 0.55336 0.12356 0.0
O734 O 0.68245 0.53833 0.11201 0.0
C735 C 0.66272 0.43642 0.10765 0.0
C736 C 0.76024 0.38006 0.10698 0.0
C737 C 0.75751 0.35074 0.08256 0.0
C738 C 0.76006 0.30922 0.08906 0.0
C739 C 0.76604 0.29661 0.12039 0.0
C740 C 0.76976 0.32508 0.14533 0.0
C741 C 0.76649 0.36704 0.13855 0.0
O742 O 0.70351 0.46451 1.01812 0.0
O743 O 0.72457 0.51321 0.04534 0.0
O744 O 0.63427 0.51247 1.02496 0.0
O745 O 0.66965 0.53244 0.04402 0.0
C746 C 0.6472 0.5441 1.03462 0.0
O747 O 0.68545 0.45103 0.11465 0.0
O748 O 0.65289 0.43515 0.07816 0.0
O749 O 0.75107 0.4499 0.12086 0.0
O750 O 0.74605 0.43102 0.07044 0.0
H751 H 0.75372 0.36016 0.05797 0.0
H752 H 0.76751 0.26428 0.12543 0.0
H753 H 0.76934 0.38933 0.15748 0.0
O754 O 0.60495 0.43254 0.33485 0.0
Tb755 Tb 0.5935 0.46774 0.29229 0.0
Eu756 Eu 0.53965 0.47775 0.23308 0.0
C757 C 0.58975 0.40351 0.34555 0.0
O758 O 0.57016 0.39291 0.32775 0.0
C759 C 0.54143 0.50157 0.30542 0.0
O760 O 0.53538 0.53351 0.20298 0.0
C761 C 0.50309 0.42551 0.22521 0.0
C762 C 0.55646 0.55216 0.19473 0.0
O763 O 0.57834 0.53686 0.20406 0.0
C764 C 0.59815 0.43668 0.21959 0.0
C765 C 0.50027 0.3818 0.2163 0.0
C766 C 0.50317 0.3523 0.24053 0.0
C767 C 0.50026 0.31086 0.2339 0.0
C768 C 0.49394 0.29852 0.20263 0.0
C769 C 0.49007 0.32716 0.17788 0.0
C770 C 0.4936 0.36904 0.18477 0.0
O771 O 0.55374 0.46697 0.30548 0.0
O772 O 0.53509 0.51699 0.2775 0.0
O773 O 0.61687 0.51645 0.31331 0.0
O774 O 0.5949 0.52921 0.27157 0.0
C775 C 0.6107 0.54444 0.29248 0.0
O776 O 0.57568 0.45164 0.21163 0.0
O777 O 0.6073 0.4356 0.24946 0.0
O778 O 0.5098 0.45148 0.20256 0.0
O779 O 0.51419 0.43285 0.25313 0.0
H780 H 0.50727 0.36153 0.26509 0.0
H781 H 0.49222 0.26624 0.19751 0.0
H782 H 0.49057 0.39148 0.166 0.0
O783 O 0.65318 0.82257 0.33505 0.0
Tb784 Tb 0.66462 0.78734 0.29248 0.0
Eu785 Eu 0.71865 0.77763 0.2332 0.0
C786 C 0.66835 0.85168 0.34565 0.0
O787 O 0.68791 0.8623 0.32777 0.0
C788 C 0.71669 0.75351 0.30545 0.0
O789 O 0.72296 0.722 0.20297 0.0
C790 C 0.7552 0.82996 0.22561 0.0
C791 C 0.70189 0.70334 0.19474 0.0
O792 O 0.68001 0.71857 0.20417 0.0
C793 C 0.66007 0.81859 0.21981 0.0
C794 C 0.75801 0.87378 0.21706 0.0
C795 C 0.75517 0.90295 0.24156 0.0
C796 C 0.75804 0.94447 0.23524 0.0
C797 C 0.76424 0.95724 0.20405 0.0
C798 C 0.76805 0.92897 0.17905 0.0
C799 C 0.76459 0.88699 0.1856 0.0
O800 O 0.70439 0.78812 0.30553 0.0
O801 O 0.72312 0.73821 0.27751 0.0
O802 O 0.6413 0.73855 0.31352 0.0
O803 O 0.66321 0.72593 0.27167 0.0
C804 C 0.64745 0.71063 0.29262 0.0
O805 O 0.68261 0.80382 0.21187 0.0
O806 O 0.65083 0.81947 0.24964 0.0
O807 O 0.74845 0.80429 0.20278 0.0
O808 O 0.74415 0.82226 0.25351 0.0
H809 H 0.75112 0.89341 0.26606 0.0
H810 H 0.76587 0.9896 0.19919 0.0
H811 H 0.76754 0.86482 0.16661 0.0
O812 O 0.4027 0.18367 0.08401 0.0
Tb813 Tb 0.41429 0.21803 0.04098 0.0
Eu814 Eu 0.46888 0.22777 0.98258 0.0
C815 C 0.41809 0.15557 0.09572 0.0
O816 O 0.43808 0.14494 0.07866 0.0
C817 C 0.46627 0.25223 0.05475 0.0
O818 O 0.47247 0.28395 0.95284 0.0
C819 C 0.50593 0.17643 0.97519 0.0
C820 C 0.45113 0.30219 0.94518 0.0
O821 O 0.42949 0.28585 0.95435 0.0
C822 C 0.41067 0.186 0.96828 0.0
C823 C 0.50896 0.13263 0.96671 0.0
C824 C 0.50636 0.10348 0.99128 0.0
C825 C 0.50919 0.06195 0.985 0.0
C826 C 0.51522 0.04917 0.95373 0.0
C827 C 0.51881 0.07747 0.92863 0.0
C828 C 0.51533 0.11943 0.9352 0.0
O829 O 0.45391 0.21764 0.05487 0.0
O830 O 0.47295 0.26733 1.02684 0.0
O831 O 0.3903 0.26649 0.06122 0.0
O832 O 0.41344 0.2797 1.02057 0.0
C833 C 0.39706 0.2947 0.04085 0.0
O834 O 0.43334 0.2006 0.96078 0.0
O835 O 0.40097 0.18564 0.99792 0.0
O836 O 0.49904 0.20194 0.9523 0.0
O837 O 0.49479 0.18396 1.00305 0.0
H838 H 0.50247 0.11307 1.01581 0.0
H839 H 0.51685 0.01683 0.94886 0.0
H840 H 0.51809 0.14161 0.91617 0.0
O841 O 0.35513 0.57258 0.0838 0.0
Tb842 Tb 0.34357 0.53771 0.04109 0.0
Eu843 Eu 0.28897 0.52766 0.98328 0.0
C844 C 0.34036 0.60242 0.09399 0.0
O845 O 0.32136 0.61393 0.07553 0.0
C846 C 0.29159 0.50397 0.05575 0.0
O847 O 0.28519 0.47126 0.95384 0.0
C848 C 0.25199 0.57912 0.97587 0.0
C849 C 0.30648 0.45299 0.946 0.0
O850 O 0.32817 0.46937 0.95492 0.0
C851 C 0.34703 0.56944 0.96833 0.0
C852 C 0.24899 0.6229 0.96726 0.0
C853 C 0.25162 0.65212 0.99176 0.0
C854 C 0.24883 0.69364 0.98539 0.0
C855 C 0.24278 0.70633 0.9541 0.0
C856 C 0.23917 0.67796 0.92907 0.0
C857 C 0.24264 0.63601 0.93572 0.0
O858 O 0.30411 0.53843 0.05578 0.0
O859 O 0.28502 0.48861 1.02788 0.0
O860 O 0.36782 0.48942 0.06107 0.0
O861 O 0.34414 0.4759 1.02099 0.0
C862 C 0.36079 0.46107 0.04098 0.0
O863 O 0.32441 0.55459 0.96098 0.0
O864 O 0.35674 0.57008 0.99794 0.0
O865 O 0.25877 0.55343 0.95306 0.0
O866 O 0.26318 0.5717 1.00371 0.0
H867 H 0.25551 0.64262 1.01631 0.0
H868 H 0.24116 0.73866 0.94916 0.0
H869 H 0.23986 0.61377 0.91674 0.0
O870 O 0.40232 0.57227 0.73955 0.0
Tb871 Tb 0.41386 0.53805 0.78264 0.0
Eu872 Eu 0.46909 0.5299 0.84121 0.0
C873 C 0.41762 0.60061 0.72795 0.0
O874 O 0.43747 0.61155 0.74514 0.0
C875 C 0.46612 0.50505 0.76923 0.0
O876 O 0.47259 0.4738 0.87102 0.0
C877 C 0.50614 0.58131 0.84869 0.0
C878 C 0.45123 0.45545 0.87854 0.0
O879 O 0.42962 0.47166 0.86918 0.0
C880 C 0.41037 0.57047 0.85531 0.0
C881 C 0.50936 0.62518 0.8569 0.0
C882 C 0.50688 0.65413 0.83216 0.0
C883 C 0.51006 0.69566 0.83819 0.0
C884 C 0.51602 0.7087 0.8694 0.0
C885 C 0.51939 0.68063 0.89467 0.0
C886 C 0.51574 0.63863 0.88834 0.0
O887 O 0.45359 0.53944 0.76941 0.0
O888 O 0.47336 0.49026 0.797 0.0
O889 O 0.39016 0.48928 0.76226 0.0
O890 O 0.41332 0.47627 0.80288 0.0
C891 C 0.39702 0.4611 0.78257 0.0
O892 O 0.43334 0.55697 0.86265 0.0
O893 O 0.40039 0.56996 0.82583 0.0
O894 O 0.49902 0.55608 0.87167 0.0
O895 O 0.49518 0.57355 0.82076 0.0
H896 H 0.50217 0.64451 0.80788 0.0
H897 H 0.51832 0.74102 0.87391 0.0
H898 H 0.51836 0.61661 0.90752 0.0
O899 O 0.35547 0.18343 0.73969 0.0
Tb900 Tb 0.34384 0.21772 0.78271 0.0
Eu901 Eu 0.28866 0.2259 0.84102 0.0
C902 C 0.34022 0.15498 0.72819 0.0
O903 O 0.3204 0.144 0.74545 0.0
C904 C 0.29162 0.25085 0.76901 0.0
O905 O 0.28496 0.28187 0.871 0.0
C906 C 0.25178 0.17408 0.84822 0.0
C907 C 0.30629 0.30027 0.87855 0.0
O908 O 0.32791 0.28421 0.86905 0.0
C909 C 0.34726 0.18534 0.85539 0.0
C910 C 0.24876 0.13018 0.85648 0.0
C911 C 0.25149 0.1012 0.83181 0.0
C912 C 0.24853 0.05963 0.8379 0.0
C913 C 0.24251 0.0466 0.8691 0.0
C914 C 0.23889 0.07469 0.89429 0.0
C915 C 0.24233 0.11672 0.88791 0.0
O916 O 0.30419 0.21649 0.76906 0.0
O917 O 0.28445 0.26561 0.79683 0.0
O918 O 0.36774 0.26633 0.76244 0.0
O919 O 0.34439 0.27953 0.80288 0.0
C920 C 0.36082 0.29458 0.78266 0.0
O921 O 0.32435 0.19905 0.86272 0.0
O922 O 0.35721 0.18566 0.82588 0.0
O923 O 0.25861 0.19948 0.87121 0.0
O924 O 0.2629 0.18191 0.82039 0.0
H925 H 0.25624 0.11082 0.80753 0.0
H926 H 0.24036 0.01426 0.87366 0.0
H927 H 0.23952 0.13874 0.90705 0.0
C928 C 0.99258 0.49501 1.00704 0.0
C929 C 0.00727 0.53023 1.01173 0.0
H930 H 0.97741 0.44065 1.02806 0.0
C931 C 0.01847 0.53721 0.04203 0.0
H932 H 0.98343 0.4892 0.98409 0.0
C933 C 0.01499 0.50955 0.0672 0.0
C934 C 1.0003 0.47432 0.0625 0.0
H935 H 0.03017 0.56389 0.04618 0.0
H936 H 0.02415 0.51536 0.09015 0.0
C937 C 0.9891 0.46735 1.03221 0.0
C938 C 0.23423 0.75552 1.01543 0.0
C939 C 0.25176 0.72358 1.01184 0.0
H940 H 0.22267 0.80715 0.04327 0.0
C941 C 0.27171 0.71968 1.03421 0.0
H942 H 0.21843 0.75885 0.99886 0.0
C943 C 0.27409 0.74719 0.05968 0.0
C944 C 0.25659 0.77919 0.06322 0.0
H945 H 0.28567 0.69559 1.03181 0.0
H946 H 0.28989 0.74388 0.07624 0.0
C947 C 0.23661 0.78303 0.0409 0.0
C948 C 0.01982 0.71582 0.28382 0.0
C949 C 0.00847 0.72319 0.31397 0.0
H950 H 0.02612 0.73741 0.23576 0.0
C951 C 0.99431 0.75897 0.31854 0.0
H952 H 0.03113 0.68871 0.2798 0.0
C953 C 0.99142 0.78675 0.29335 0.0
C954 C 1.0027 0.77929 0.26317 0.0
H955 H 0.98509 0.7651 0.34141 0.0
H956 H 0.98007 0.81381 0.29736 0.0
C957 C 0.01693 0.74359 0.25864 0.0
C958 C 0.24171 0.51069 0.25751 0.0
C959 C 0.25577 0.47481 0.26201 0.0
H960 H 0.22766 0.56564 0.27875 0.0
C961 C 0.26704 0.46725 0.29218 0.0
H962 H 0.23254 0.51698 0.23465 0.0
C963 C 0.26424 0.49501 0.3174 0.0
C964 C 0.25017 0.53089 0.31291 0.0
H965 H 0.27829 0.44006 0.29616 0.0
H966 H 0.27343 0.48873 0.34026 0.0
C967 C 0.2389 0.53845 0.28274 0.0
C968 C 0.77427 0.24707 0.05905 0.0
C969 C 0.75691 0.27924 0.06268 0.0
H970 H 0.78559 0.1954 1.03108 0.0
C971 C 0.73697 0.28343 0.04034 0.0
H972 H 0.79005 0.24349 0.07562 0.0
C973 C 0.73447 0.25607 1.0148 0.0
C974 C 0.75183 0.22391 1.01116 0.0
H975 H 0.72313 0.3077 0.04278 0.0
H976 H 0.71868 0.25965 0.99824 0.0
C977 C 0.77177 0.21969 1.03351 0.0
C978 C 0.02304 0.25709 0.80751 0.0
C979 C 0.00523 0.22552 0.81119 0.0
H980 H 0.03502 0.30839 0.77954 0.0
C981 C 0.98525 0.22188 0.78886 0.0
H982 H 0.03887 0.26018 0.82407 0.0
C983 C 0.98309 0.24936 0.76334 0.0
C984 C 1.00085 0.28101 0.75973 0.0
H985 H 0.9711 0.19806 0.79133 0.0
H986 H 0.96724 0.2463 0.74681 0.0
C987 C 0.02088 0.28455 0.782 0.0
C988 C 0.73411 0.49735 0.80772 0.0
C989 C 0.75212 0.52863 0.81138 0.0
H990 H 0.72177 0.44632 0.77971 0.0
C991 C 0.77207 0.53205 0.78895 0.0
H992 H 0.71831 0.49443 0.82435 0.0
C993 C 0.774 0.50465 0.76337 0.0
C994 C 0.75604 0.47328 0.75978 0.0
H995 H 0.78636 0.55565 0.79141 0.0
H996 H 0.78983 0.50752 0.74676 0.0
C997 C 0.73604 0.46995 0.78214 0.0
C998 C 0.98982 0.96692 0.53218 0.0
C999 C 1.00095 0.97433 0.56245 0.0
H1000 H 0.98379 0.9885 0.48406 0.0
C1001 C 0.01515 0.01009 0.56708 0.0
H1002 H 0.97848 0.93983 0.52807 0.0
C1003 C 0.01822 0.03785 0.54189 0.0
C1004 C 0.00709 0.03043 0.51162 0.0
H1005 H 0.02425 0.01626 0.59002 0.0
H1006 H 0.02955 0.06494 0.546 0.0
C1007 C 0.99288 0.99468 0.50699 0.0
C1008 C 0.23406 0.25629 0.51498 0.0
C1009 C 0.25168 0.22447 0.5114 0.0
H1010 H 0.22229 0.30776 0.54287 0.0
C1011 C 0.27164 0.22072 0.53378 0.0
H1012 H 0.21827 0.25951 0.4984 0.0
C1013 C 0.2739 0.24822 0.55928 0.0
C1014 C 0.25628 0.28004 0.56286 0.0
H1015 H 0.28567 0.19674 0.53139 0.0
H1016 H 0.2897 0.245 0.57587 0.0
C1017 C 0.23632 0.28378 0.54048 0.0
C1018 C 0.26593 0.99428 0.81608 0.0
C1019 C 0.2516 0.02986 0.81141 0.0
H1020 H 0.28038 0.93944 0.79513 0.0
C1021 C 0.24041 0.03711 0.78115 0.0
H1022 H 0.27506 0.98826 0.83901 0.0
C1023 C 0.24348 0.00926 0.75604 0.0
C1024 C 0.25773 0.9736 0.76077 0.0
H1025 H 0.22899 0.06408 0.77703 0.0
H1026 H 0.23432 0.01524 0.73312 0.0
C1027 C 0.26899 0.96643 0.79099 0.0
C1028 C 0.74394 0.74297 0.56716 0.0
C1029 C 0.7584 0.77847 0.56253 0.0
H1030 H 0.72909 0.68848 0.54602 0.0
C1031 C 0.76959 0.78571 0.53225 0.0
H1032 H 0.73481 0.73694 0.5901 0.0
C1033 C 0.76627 0.7581 0.50703 0.0
C1034 C 0.75176 0.72266 0.51163 0.0
H1035 H 0.78111 0.8126 0.52815 0.0
H1036 H 0.77538 0.76416 0.48407 0.0
C1037 C 0.74063 0.71535 0.54193 0.0
C1038 C 0.73504 0.97079 0.28381 0.0
C1039 C 0.75517 0.97437 0.26165 0.0
H1040 H 0.71683 0.99527 0.3257 0.0
C1041 C 0.77293 0.00599 0.26537 0.0
H1042 H 0.72093 0.94693 0.28128 0.0
C1043 C 0.77063 0.03352 0.29081 0.0
C1044 C 0.7505 0.02996 0.31295 0.0
H1045 H 0.78885 0.00903 0.24894 0.0
H1046 H 0.78476 0.05735 0.29335 0.0
C1047 C 0.73274 0.99832 0.30925 0.0
C1048 C 0.5236 0.4999 0.5153 0.0
C1049 C 0.50607 0.53183 0.51165 0.0
H1050 H 0.53516 0.44837 0.54325 0.0
C1051 C 0.48611 0.53581 0.53404 0.0
H1052 H 0.5394 0.49652 0.49873 0.0
C1053 C 0.48373 0.50837 0.55957 0.0
C1054 C 0.50123 0.47638 0.56316 0.0
H1055 H 0.47216 0.55989 0.5316 0.0
H1056 H 0.46792 0.51173 0.57613 0.0
C1057 C 0.52122 0.47248 0.54083 0.0
C1058 C 0.49304 0.76113 0.81616 0.0
C1059 C 0.50723 0.72538 0.81163 0.0
H1060 H 0.47886 0.81601 0.79499 0.0
C1061 C 0.51848 0.71788 0.78143 0.0
H1062 H 0.48386 0.76734 0.83903 0.0
C1063 C 0.51559 0.74565 0.75623 0.0
C1064 C 0.50147 0.78146 0.7608 0.0
H1065 H 0.52979 0.69077 0.77742 0.0
H1066 H 0.52478 0.73947 0.73335 0.0
C1067 C 0.49016 0.78888 0.79097 0.0
C1068 C 0.52533 0.25669 0.30791 0.0
C1069 C 0.50751 0.22515 0.31159 0.0
H1070 H 0.53733 0.308 0.27996 0.0
C1071 C 0.48753 0.22153 0.28924 0.0
H1072 H 0.54115 0.25978 0.32448 0.0
C1073 C 0.48537 0.24901 0.26374 0.0
C1074 C 0.50314 0.28066 0.26013 0.0
H1075 H 0.47336 0.19774 0.29173 0.0
H1076 H 0.46951 0.24599 0.24722 0.0
C1077 C 0.52319 0.28416 0.2824 0.0
C1078 C 0.48399 0.00854 0.05942 0.0
C1079 C 0.50152 0.9766 0.063 0.0
H1080 H 0.47236 0.06004 1.03147 0.0
C1081 C 0.52151 0.97274 0.04066 0.0
H1082 H 0.46818 0.01185 0.07598 0.0
C1083 C 0.52386 1.00019 1.01515 0.0
C1084 C 0.5063 0.03208 1.01152 0.0
H1085 H 0.53546 0.94866 0.04307 0.0
H1086 H 0.53966 0.99685 0.99857 0.0
C1087 C 0.48634 0.03599 1.0339 0.0
C1088 C 0.0191 0.20109 0.98482 0.0
C1089 C 0.03586 0.23455 0.98649 0.0
H1090 H 1.00007 0.15763 0.95433 0.0
C1091 C 0.04798 0.24757 0.95812 0.0
H1092 H 0.0096 0.1901 1.00631 0.0
C1093 C 0.0429 0.22861 0.92868 0.0
C1094 C 0.02525 0.1964 0.92654 0.0
H1095 H 0.06133 0.27272 0.95851 0.0
H1096 H 0.05255 0.23978 0.90733 0.0
C1097 C 0.0138 0.18223 0.9551 0.0
C1098 C 0.20878 0.00753 0.95838 0.0
C1099 C 0.22126 0.02013 0.9866 0.0
H1100 H 0.20371 0.0159 0.90772 0.0
C1101 C 0.23809 0.0535 0.98484 0.0
H1102 H 0.19537 0.98246 0.95885 0.0
C1103 C 0.24312 0.07263 0.95515 0.0
C1104 C 0.23134 0.05884 0.92672 0.0
H1105 H 0.24786 0.06418 1.00622 0.0
H1106 H 0.25693 0.09711 0.95428 0.0
C1107 C 0.2136 0.02677 0.92897 0.0
C1108 C 0.01496 0.07469 0.3678 0.0
C1109 C 0.02678 0.06073 0.39619 0.0
H1110 H 0.01026 0.0666 0.31663 0.0
C1111 C 0.04474 0.02907 0.39373 0.0
H1112 H 1.001 0.09891 0.36883 0.0
C1113 C 0.04967 0.01026 0.3642 0.0
C1114 C 0.0371 0.02288 0.33604 0.0
H1115 H 0.0547 0.01814 0.4149 0.0
H1116 H 0.06322 0.98541 0.36359 0.0
C1117 C 0.02012 0.05598 0.33797 0.0
C1118 C 0.21367 0.226 0.39388 0.0
C1119 C 0.2314 0.19399 0.39619 0.0
H1120 H 0.19523 0.2698 0.36386 0.0
C1121 C 0.24287 0.17965 0.36768 0.0
H1122 H 0.20398 0.23726 0.41516 0.0
C1123 C 0.23758 0.19829 0.33785 0.0
C1124 C 0.22081 0.23168 0.33605 0.0
H1125 H 0.25665 0.15516 0.36859 0.0
H1126 H 0.24716 0.18734 0.31641 0.0
C1127 C 0.2086 0.24471 0.36435 0.0
C1128 C 0.96484 0.77609 0.14562 0.0
C1129 C 0.98255 0.80821 0.1478 0.0
H1130 H 0.94643 0.732 0.11574 0.0
C1131 C 0.99414 0.82223 0.11929 0.0
H1132 H 0.95508 0.76505 0.16692 0.0
C1133 C 0.98891 0.80333 0.08957 0.0
C1134 C 0.97209 0.76995 0.08785 0.0
H1135 H 0.00792 0.84676 0.1201 0.0
H1136 H 0.99851 0.81422 0.06812 0.0
C1137 C 0.95983 0.75707 0.11617 0.0
C1138 C 0.76946 0.94989 0.08851 0.0
C1139 C 0.78627 0.98331 0.08691 0.0
H1140 H 0.75045 0.90628 0.11891 0.0
C1141 C 0.79857 0.99595 0.11524 0.0
H1142 H 0.75983 0.93918 0.06703 0.0
C1143 C 0.79358 0.97673 0.14461 0.0
C1144 C 0.77584 0.94465 0.14669 0.0
H1145 H 0.81196 0.02105 0.11489 0.0
H1146 H 0.8033 0.98767 0.16596 0.0
C1147 C 0.76425 0.93078 0.11815 0.0
C1148 C 0.98797 0.94864 0.73608 0.0
C1149 C 0.97096 0.98169 0.73803 0.0
H1150 H 0.00713 0.90579 0.70518 0.0
C1151 C 0.95835 0.99428 0.7099 0.0
H1152 H 0.99787 0.93805 0.7574 0.0
C1153 C 0.96329 0.9755 0.68036 0.0
C1154 C 0.98128 0.9439 0.67787 0.0
H1155 H 0.94478 0.01909 0.71053 0.0
H1156 H 0.95331 0.98642 0.6592 0.0
C1157 C 0.99314 0.92996 0.70624 0.0
C1158 C 0.77096 0.80463 0.73613 0.0
C1159 C 0.78789 0.77149 0.73822 0.0
H1160 H 0.75202 0.84751 0.70505 0.0
C1161 C 0.80058 0.75875 0.71017 0.0
H1162 H 0.76101 0.81534 0.75737 0.0
C1163 C 0.7958 0.77748 0.68058 0.0
C1164 C 0.77788 0.80917 0.67795 0.0
H1165 H 0.81409 0.73386 0.71091 0.0
H1166 H 0.80583 0.76645 0.65948 0.0
C1167 C 0.76595 0.82326 0.70623 0.0
C1168 C 0.0207 0.69797 0.48734 0.0
C1169 C 0.03786 0.73088 0.48921 0.0
H1170 H 1.00152 0.65497 0.45655 0.0
C1171 C 0.05077 0.74295 0.46114 0.0
H1172 H 0.01059 0.68776 0.50863 0.0
C1173 C 0.04596 0.72383 0.4317 0.0
C1174 C 0.02779 0.69243 0.42926 0.0
H1175 H 0.06447 0.76762 0.46174 0.0
H1176 H 0.05614 0.73438 0.41056 0.0
C1177 C 0.01565 0.67897 0.45759 0.0
C1178 C 0.23769 0.55583 0.48662 0.0
C1179 C 0.22066 0.52275 0.48852 0.0
H1180 H 0.2568 0.5989 0.45582 0.0
C1181 C 0.208 0.51029 0.46038 0.0
H1182 H 0.24761 0.56635 0.50795 0.0
C1183 C 0.21289 0.52926 0.43089 0.0
C1184 C 0.23089 0.56092 0.42845 0.0
H1185 H 0.19442 0.48546 0.46097 0.0
H1186 H 0.20286 0.51847 0.40972 0.0
C1187 C 0.24281 0.57469 0.45683 0.0
C1188 C 0.04494 0.52863 0.89378 0.0
C1189 C 0.02724 0.56066 0.89638 0.0
H1190 H 0.06298 0.48467 0.86347 0.0
C1191 C 0.01543 0.57491 0.86808 0.0
H1192 H 0.05486 0.51744 0.91489 0.0
C1193 C 0.02034 0.55614 0.8382 0.0
C1194 C 0.03706 0.52271 0.83612 0.0
H1195 H 1.00167 0.59941 0.86922 0.0
H1196 H 0.01049 0.56702 0.81694 0.0
C1197 C 0.04963 0.50978 0.86419 0.0
C1198 C 0.238 0.69797 0.83827 0.0
C1199 C 0.22123 0.73135 0.83642 0.0
H1200 H 0.25695 0.65473 0.86903 0.0
C1201 C 0.20887 0.74425 0.86467 0.0
H1202 H 0.2477 0.68712 0.81688 0.0
C1203 C 0.21382 0.72542 0.89419 0.0
C1204 C 0.23156 0.69341 0.89654 0.0
H1205 H 0.19548 0.76931 0.86413 0.0
H1206 H 0.20406 0.73659 0.91544 0.0
C1207 C 0.24316 0.67921 0.86808 0.0
C1208 C 0.95771 0.26101 0.61305 0.0
C1209 C 0.97026 0.2735 0.58482 0.0
H1210 H 0.95274 0.2692 0.66374 0.0
C1211 C 0.98715 0.30678 0.58656 0.0
H1212 H 0.94423 0.23604 0.61258 0.0
C1213 C 0.99229 0.32577 0.61629 0.0
C1214 C 0.98053 0.31191 0.64475 0.0
H1215 H 0.99699 0.31732 0.56516 0.0
H1216 H 0.00622 0.35008 0.6172 0.0
C1217 C 0.96262 0.2801 0.64247 0.0
C1218 C 0.79942 0.49291 0.61313 0.0
C1219 C 0.78702 0.48032 0.58484 0.0
H1220 H 0.80411 0.48494 0.66387 0.0
C1221 C 0.77006 0.44712 0.58655 0.0
H1222 H 0.81295 0.51781 0.61268 0.0
C1223 C 0.76473 0.42831 0.6163 0.0
C1224 C 0.77636 0.44226 0.6448 0.0
H1225 H 0.76034 0.43651 0.56511 0.0
H1226 H 0.75077 0.40404 0.61717 0.0
C1227 C 0.79432 0.47399 0.64257 0.0
C1228 C 0.95799 0.4943 0.21011 0.0
C1229 C 0.97069 0.48152 0.23813 0.0
H1230 H 0.95267 0.48658 0.15943 0.0
C1231 C 0.98753 0.44826 0.236 0.0
H1232 H 0.94455 0.51928 0.21088 0.0
C1233 C 0.99244 0.42953 0.20611 0.0
C1234 C 0.98051 0.44365 0.17785 0.0
H1235 H 0.99749 0.4375 0.25722 0.0
H1236 H 0.0063 0.40518 0.20491 0.0
C1237 C 0.96269 0.47549 0.18051 0.0
C1238 C 0.79968 0.25885 0.20999 0.0
C1239 C 0.78718 0.27183 0.23812 0.0
H1240 H 0.80473 0.26639 0.15925 0.0
C1241 C 0.77049 0.30529 0.23611 0.0
H1242 H 0.813 0.23372 0.21066 0.0
C1243 C 0.76552 0.32404 0.20625 0.0
C1244 C 0.77723 0.30972 0.17791 0.0
H1245 H 0.76069 0.3162 0.25742 0.0
H1246 H 0.75177 0.34857 0.20517 0.0
C1247 C 0.7949 0.27765 0.18042 0.0
C1248 C 0.51486 0.18265 0.45562 0.0
C1249 C 0.52674 0.19635 0.4272 0.0
H1250 H 0.51001 0.19121 0.50667 0.0
C1251 C 0.54453 0.22834 0.42946 0.0
H1252 H 0.501 0.15824 0.45473 0.0
C1253 C 0.54932 0.24758 0.45886 0.0
C1254 C 0.53675 0.23509 0.48707 0.0
H1255 H 0.55449 0.23915 0.40823 0.0
H1256 H 0.56279 0.27256 0.45935 0.0
C1257 C 0.51986 0.2018 0.4853 0.0
C1258 C 0.73786 0.05365 0.48614 0.0
C1259 C 0.7209 0.02045 0.48793 0.0
H1260 H 0.75668 0.09728 0.45557 0.0
C1261 C 0.70808 0.00832 0.45983 0.0
H1262 H 0.7479 0.06396 0.50745 0.0
C1263 C 0.71275 0.02775 0.43047 0.0
C1264 C 0.73065 0.05957 0.42817 0.0
H1265 H 0.69457 0.98341 0.46034 0.0
H1266 H 0.70267 0.01714 0.40927 0.0
C1267 C 0.74273 0.073 0.45651 0.0
C1268 C 0.51493 0.07623 0.86763 0.0
C1269 C 0.52644 0.06196 0.89613 0.0
H1270 H 0.51052 0.06836 0.8164 0.0
C1271 C 0.54412 0.02986 0.89382 0.0
H1272 H 0.50119 0.10077 0.86854 0.0
C1273 C 0.54909 0.01101 0.86432 0.0
C1274 C 0.53684 0.02399 0.83604 0.0
H1275 H 0.55383 0.01865 0.91508 0.0
H1276 H 0.56242 0.98587 0.86382 0.0
C1277 C 0.52013 0.05746 0.83783 0.0
C1278 C 0.74262 0.17892 0.86754 0.0
C1279 C 0.73125 0.1936 0.896 0.0
H1280 H 0.74705 0.18638 0.81627 0.0
C1281 C 0.71382 0.22602 0.89361 0.0
H1282 H 0.75618 0.15411 0.86852 0.0
C1283 C 0.70896 0.24478 0.86405 0.0
C1284 C 0.72109 0.23139 0.83579 0.0
H1285 H 0.70422 0.23756 0.91486 0.0
H1286 H 0.69582 0.27017 0.86349 0.0
C1287 C 0.73754 0.19761 0.83768 0.0
C1288 C 0.48816 0.80707 0.58742 0.0
C1289 C 0.47106 0.77407 0.58565 0.0
H1290 H 0.5075 0.85 0.61809 0.0
C1291 C 0.45847 0.76168 0.61387 0.0
H1292 H 0.49803 0.81753 0.56602 0.0
C1293 C 0.46352 0.78062 0.64332 0.0
C1294 C 0.48161 0.81215 0.64563 0.0
H1295 H 0.44483 0.73693 0.61337 0.0
H1296 H 0.45356 0.76986 0.66457 0.0
C1297 C 0.49344 0.82589 0.61717 0.0
C1298 C 0.26539 0.92916 0.61728 0.0
C1299 C 0.27747 0.94273 0.6456 0.0
H1300 H 0.26034 0.93789 0.56624 0.0
C1301 C 0.29556 0.97425 0.64315 0.0
H1302 H 0.25133 0.90507 0.61832 0.0
C1303 C 0.30034 0.99338 0.6137 0.0
C1304 C 0.28748 0.98121 0.58563 0.0
H1305 H 0.30568 0.98489 0.66429 0.0
H1306 H 0.31397 0.01815 0.61309 0.0
C1307 C 0.27041 0.94818 0.58752 0.0
C1308 C 0.46322 0.97746 0.1805 0.0
C1309 C 0.48097 0.94549 0.17804 0.0
H1310 H 0.44493 0.02128 0.21068 0.0
C1311 C 0.49261 0.93118 0.20642 0.0
H1312 H 0.45345 0.9887 0.15929 0.0
C1313 C 0.48748 0.94985 0.23628 0.0
C1314 C 0.47071 0.98322 0.23824 0.0
H1315 H 0.50641 0.90672 0.20538 0.0
H1316 H 0.49721 0.93894 0.25763 0.0
C1317 C 0.4583 0.99619 0.21006 0.0
C1318 C 0.29489 0.77876 0.18072 0.0
C1319 C 0.2771 0.81065 0.17818 0.0
H1320 H 0.3132 0.73511 0.211 0.0
C1321 C 0.26538 0.82497 0.20653 0.0
H1322 H 0.30472 0.7675 0.15954 0.0
C1323 C 0.27047 0.80636 0.23642 0.0
C1324 C 0.28728 0.77305 0.23845 0.0
H1325 H 0.25155 0.84936 0.20542 0.0
H1326 H 0.26067 0.81725 0.25773 0.0
C1327 C 0.29978 0.76011 0.21032 0.0
C1328 C 0.51495 0.68281 0.95551 0.0
C1329 C 0.52689 0.69644 0.92711 0.0
H1330 H 0.51007 0.69139 1.00654 0.0
C1331 C 0.54476 0.72831 0.9294 0.0
H1332 H 0.50103 0.65849 0.95459 0.0
C1333 C 0.54956 0.74754 0.95882 0.0
C1334 C 0.53693 0.73512 0.987 0.0
H1335 H 0.55477 0.73905 0.90819 0.0
H1336 H 0.56307 0.77246 0.95933 0.0
C1337 C 0.51997 0.70193 0.98519 0.0
C1338 C 0.70976 0.50683 0.95856 0.0
C1339 C 0.72209 0.51955 0.98686 0.0
H1340 H 0.70502 0.51487 0.90783 0.0
C1341 C 0.73904 0.55276 0.98511 0.0
H1342 H 0.69627 0.48188 0.95901 0.0
C1343 C 0.74432 0.57164 0.9554 0.0
C1344 C 0.73267 0.55774 0.92691 0.0
H1345 H 0.74871 0.56352 1.00655 0.0
H1346 H 0.7582 0.59602 0.95456 0.0
C1347 C 0.71483 0.52581 0.92912 0.0
C1348 C 0.51489 0.57591 0.36776 0.0
C1349 C 0.52633 0.56158 0.39628 0.0
H1350 H 0.51055 0.56811 0.31651 0.0
C1351 C 0.54395 0.5294 0.394 0.0
H1352 H 0.5012 0.60053 0.36864 0.0
C1353 C 0.54894 0.51053 0.36451 0.0
C1354 C 0.53676 0.5236 0.3362 0.0
H1355 H 0.55362 0.51814 0.41529 0.0
H1356 H 0.56223 0.48533 0.36403 0.0
C1357 C 0.52011 0.55714 0.33796 0.0
C1358 C 0.71378 0.72521 0.39391 0.0
C1359 C 0.73151 0.69321 0.39622 0.0
H1360 H 0.69548 0.76924 0.36393 0.0
C1361 C 0.74314 0.6791 0.36774 0.0
H1362 H 0.70397 0.73627 0.41516 0.0
C1363 C 0.738 0.69795 0.33796 0.0
C1364 C 0.72124 0.73135 0.33618 0.0
H1365 H 0.75693 0.65462 0.36865 0.0
H1366 H 0.7477 0.68717 0.31655 0.0
C1367 C 0.70886 0.74416 0.36443 0.0
C1368 C 0.49347 0.32622 0.11687 0.0
C1369 C 0.48205 0.31202 0.14545 0.0
H1370 H 0.49757 0.31835 0.0656 0.0
C1371 C 0.46418 0.28015 0.1433 0.0
H1372 H 0.50735 0.3506 0.11767 0.0
C1373 C 0.45894 0.26138 0.11384 0.0
C1374 C 0.47113 0.27423 0.08547 0.0
H1375 H 0.45456 0.269 0.16467 0.0
H1376 H 0.44548 0.23638 0.11345 0.0
C1377 C 0.48801 0.30753 0.08711 0.0
C1378 C 0.26409 0.43054 0.11814 0.0
C1379 C 0.27568 0.44457 0.14666 0.0
H1380 H 0.2599 0.43838 0.06689 0.0
C1381 C 0.29367 0.47626 0.14438 0.0
H1382 H 0.25012 0.4063 0.11902 0.0
C1383 C 0.2989 0.49497 0.11488 0.0
C1384 C 0.2866 0.48221 0.08657 0.0
H1385 H 0.30346 0.48725 0.16567 0.0
H1386 H 0.31249 0.51979 0.11439 0.0
C1387 C 0.26956 0.44913 0.08834 0.0
C1388 C 0.48734 0.44964 0.73645 0.0
C1389 C 0.47053 0.48296 0.73844 0.0
H1390 H 0.50626 0.40656 0.7055 0.0
C1391 C 0.45806 0.49588 0.71029 0.0
H1392 H 0.49712 0.43878 0.75777 0.0
C1393 C 0.46296 0.47717 0.68072 0.0
C1394 C 0.48074 0.44525 0.67822 0.0
H1395 H 0.44466 0.52091 0.71094 0.0
H1396 H 0.45315 0.48839 0.65953 0.0
C1397 C 0.49243 0.43098 0.70658 0.0
C1398 C 0.2701 0.30609 0.73636 0.0
C1399 C 0.28699 0.27287 0.73822 0.0
H1400 H 0.25098 0.34911 0.70557 0.0
C1401 C 0.29937 0.26004 0.70998 0.0
H1402 H 0.26038 0.31689 0.75775 0.0
C1403 C 0.29433 0.27877 0.68045 0.0
C1404 C 0.27649 0.31061 0.67808 0.0
H1405 H 0.31284 0.23508 0.71052 0.0
H1406 H 0.30412 0.26765 0.6592 0.0
C1407 C 0.26485 0.32476 0.70654 0.0
C1408 C 0.11422 0.38141 0.89546 0.0
C1409 C 0.09101 0.38948 0.87976 0.0
H1410 H 0.13248 0.36113 0.93928 0.0
C1411 C 0.06825 0.38448 0.89709 0.0
H1412 H 0.13205 0.38503 0.88267 0.0
C1413 C 0.06854 0.37223 0.92934 0.0
C1414 C 0.09155 0.36346 0.94507 0.0
H1415 H 0.05006 0.39077 0.88584 0.0
H1416 H 0.05055 0.36896 0.94187 0.0
C1417 C 0.11446 0.36769 0.92774 0.0
C1418 C 0.14365 0.8759 0.89522 0.0
C1419 C 0.16649 0.86272 0.8809 0.0
H1420 H 0.12575 0.90048 0.93786 0.0
C1421 C 0.18875 0.86231 0.89962 0.0
H1422 H 0.12623 0.87654 0.88128 0.0
C1423 C 0.18834 0.87466 0.93184 0.0
C1424 C 0.16579 0.8889 0.94616 0.0
H1425 H 0.20659 0.85203 0.88935 0.0
H1426 H 0.20597 0.87393 0.94536 0.0
C1427 C 0.1434 0.88965 0.92748 0.0
C1428 C 0.11453 0.86907 0.42909 0.0
C1429 C 0.09159 0.86559 0.44646 0.0
H1430 H 0.13227 0.88539 0.38387 0.0
C1431 C 0.06868 0.87516 0.43074 0.0
H1432 H 0.13247 0.86185 0.44057 0.0
C1433 C 0.06851 0.8872 0.39846 0.0
C1434 C 0.0913 0.89116 0.38104 0.0
H1435 H 0.05064 0.87249 0.44323 0.0
H1436 H 0.05039 0.89398 0.3872 0.0
C1437 C 0.11442 0.88254 0.39675 0.0
C1438 C 0.14344 0.38542 0.42895 0.0
C1439 C 0.16639 0.38842 0.44633 0.0
H1440 H 0.12562 0.36959 0.3837 0.0
C1441 C 0.18924 0.37843 0.43062 0.0
H1442 H 0.12554 0.39297 0.44043 0.0
C1443 C 0.18935 0.36648 0.39831 0.0
C1444 C 0.16655 0.36304 0.38088 0.0
H1445 H 0.20729 0.38072 0.44312 0.0
H1446 H 0.20742 0.35939 0.38704 0.0
C1447 C 0.14347 0.37204 0.39659 0.0
C1448 C 0.89358 0.62238 0.17855 0.0
C1449 C 0.91675 0.61455 0.19442 0.0
H1450 H 0.87543 0.64252 0.13462 0.0
C1451 C 0.93957 0.6199 0.17727 0.0
H1452 H 0.87571 0.61849 0.1912 0.0
C1453 C 0.93937 0.63224 0.14505 0.0
C1454 C 0.91639 0.64074 0.12916 0.0
H1455 H 0.95774 0.61381 0.18864 0.0
H1456 H 0.9574 0.63576 0.13265 0.0
C1457 C 0.89342 0.63617 0.1463 0.0
C1458 C 0.81941 0.12934 0.14223 0.0
C1459 C 0.84184 0.11476 0.12783 0.0
H1460 H 0.80136 0.15217 0.18479 0.0
C1461 C 0.86426 0.11367 0.14644 0.0
H1462 H 0.80175 0.13035 0.12876 0.0
C1463 C 0.86415 0.12737 0.17872 0.0
C1464 C 0.84141 0.14086 0.19311 0.0
H1465 H 0.88183 0.10259 0.136 0.0
H1466 H 0.88159 0.12644 0.1926 0.0
C1467 C 0.81913 0.14164 0.17446 0.0
C1468 C 0.89354 0.13327 0.64471 0.0
C1469 C 0.91661 0.13987 0.62823 0.0
H1470 H 0.87566 0.11431 0.68917 0.0
C1471 C 0.93956 0.13377 0.64488 0.0
H1472 H 0.87556 0.1378 0.63246 0.0
C1473 C 0.93961 0.12177 0.67717 0.0
C1474 C 0.91672 0.11439 0.69367 0.0
H1475 H 0.95767 0.13894 0.63304 0.0
H1476 H 0.95776 0.11752 0.6891 0.0
C1477 C 0.8936 0.11983 0.67705 0.0
C1478 C 0.81903 0.6254 0.67968 0.0
C1479 C 0.84177 0.63736 0.69481 0.0
H1480 H 0.80083 0.60485 0.63654 0.0
C1481 C 0.86453 0.63611 0.67686 0.0
H1482 H 0.80111 0.62626 0.6926 0.0
C1483 C 0.86442 0.62268 0.64451 0.0
C1484 C 0.84142 0.61184 0.62938 0.0
H1485 H 0.88234 0.64518 0.68786 0.0
H1486 H 0.88212 0.62174 0.63115 0.0
C1487 C 0.81882 0.61338 0.64739 0.0
C1488 C 0.61499 0.37171 0.42844 0.0
C1489 C 0.59217 0.36243 0.44462 0.0
H1490 H 0.63225 0.39324 0.38435 0.0
C1491 C 0.56912 0.36573 0.42774 0.0
H1492 H 0.63302 0.36943 0.44095 0.0
C1493 C 0.56873 0.37795 0.3955 0.0
C1494 C 0.59133 0.3884 0.37934 0.0
H1495 H 0.55125 0.35849 0.43949 0.0
H1496 H 0.5505 0.38022 0.38343 0.0
C1497 C 0.61453 0.38537 0.39617 0.0
C1498 C 0.68885 0.89087 0.42749 0.0
C1499 C 0.66587 0.89318 0.44463 0.0
H1500 H 0.70744 0.87702 0.38301 0.0
C1501 C 0.64311 0.8829 0.42872 0.0
H1502 H 0.70667 0.89888 0.43903 0.0
C1503 C 0.64359 0.86917 0.39647 0.0
C1504 C 0.66673 0.86703 0.37938 0.0
H1505 H 0.62513 0.8844 0.44144 0.0
H1506 H 0.62594 0.86047 0.38488 0.0
C1507 C 0.68925 0.87855 0.39526 0.0
C1508 C 0.56929 0.87684 0.93139 0.0
C1509 C 0.59223 0.8654 0.94622 0.0
H1510 H 0.55066 0.89741 0.88856 0.0
C1511 C 0.61486 0.86723 0.92805 0.0
H1512 H 0.55149 0.87549 0.94455 0.0
C1513 C 0.61445 0.881 0.89581 0.0
C1514 C 0.59128 0.89156 0.88099 0.0
H1515 H 0.63281 0.85857 0.93888 0.0
H1516 H 0.63207 0.88258 0.88231 0.0
C1517 C 0.56878 0.88917 0.89917 0.0
C1518 C 0.68915 0.37756 0.93126 0.0
C1519 C 0.66633 0.38972 0.94604 0.0
H1520 H 0.70763 0.35653 0.88844 0.0
C1521 C 0.64373 0.38867 0.92779 0.0
H1522 H 0.70693 0.37829 0.94448 0.0
C1523 C 0.64405 0.375 0.89552 0.0
C1524 C 0.66712 0.36375 0.88075 0.0
H1525 H 0.62587 0.3979 0.93857 0.0
H1526 H 0.62645 0.37406 0.88196 0.0
C1527 C 0.68959 0.36532 0.89902 0.0
C1528 C 0.43915 0.6144 0.67572 0.0
C1529 C 0.41645 0.61319 0.69356 0.0
H1530 H 0.45718 0.62706 0.63068 0.0
C1531 C 0.39359 0.62432 0.67822 0.0
H1532 H 0.45703 0.60565 0.68674 0.0
C1533 C 0.39374 0.63775 0.64587 0.0
C1534 C 0.4166 0.63874 0.62811 0.0
H1535 H 0.37582 0.62363 0.69144 0.0
H1536 H 0.37605 0.64708 0.63473 0.0
C1537 C 0.43918 0.62644 0.64343 0.0
C1538 C 0.36436 0.13169 0.6784 0.0
C1539 C 0.34143 0.14223 0.69383 0.0
H1540 H 0.38205 0.1094 0.63482 0.0
C1541 C 0.3187 0.14036 0.67611 0.0
H1542 H 0.38216 0.1329 0.69152 0.0
C1543 C 0.31872 0.12831 0.64383 0.0
C1544 C 0.34139 0.11664 0.6284 0.0
H1545 H 0.30075 0.14865 0.6872 0.0
H1546 H 0.30071 0.12719 0.63115 0.0
C1547 C 0.36428 0.11823 0.64605 0.0
C1548 C 0.43939 0.14133 0.14801 0.0
C1549 C 0.41675 0.14282 0.13007 0.0
H1550 H 0.45718 0.1285 0.19315 0.0
C1551 C 0.39379 0.13192 0.1453 0.0
H1552 H 0.45735 0.14989 0.13708 0.0
C1553 C 0.39375 0.1185 0.17766 0.0
C1554 C 0.41654 0.1173 0.19554 0.0
H1555 H 0.37606 0.13283 0.13201 0.0
H1556 H 0.37597 0.10939 0.18874 0.0
C1557 C 0.43924 0.12931 0.1803 0.0
C1558 C 0.36434 0.63026 0.17848 0.0
C1559 C 0.34167 0.6435 0.19319 0.0
H1560 H 0.38176 0.60572 0.1355 0.0
C1561 C 0.31929 0.64444 0.17475 0.0
H1562 H 0.38187 0.62924 0.19219 0.0
C1563 C 0.31936 0.63232 0.14248 0.0
C1564 C 0.3417 0.61779 0.12778 0.0
H1565 H 0.30157 0.65482 0.18532 0.0
H1566 H 0.30158 0.63332 0.12928 0.0
C1567 C 0.36426 0.61679 0.14614 0.0
C1568 C 0.14621 0.15942 1.03469 0.0
C1569 C 0.12003 0.16798 1.0349 0.0
H1570 H 0.17514 0.11324 1.03521 0.0
C1571 C 0.10264 0.13543 1.03522 0.0
H1572 H 0.16001 0.18396 1.03458 0.0
C1573 C 0.11127 0.09503 1.03471 0.0
C1574 C 0.13745 0.08646 1.03483 0.0
H1575 H 0.08234 0.14121 1.03537 0.0
H1576 H 0.09747 0.07049 1.03463 0.0
C1577 C 0.15484 0.11902 1.03513 0.0
C1578 C 0.12426 0.10714 0.26303 0.0
C1579 C 0.12 0.08657 0.29227 0.0
H1580 H 0.13708 0.16224 0.24015 0.0
C1581 C 0.12463 0.10701 0.32145 0.0
H1582 H 0.12085 0.09197 0.24021 0.0
C1583 C 0.13291 0.14763 0.32141 0.0
C1584 C 0.13768 0.16791 0.29219 0.0
H1585 H 0.12139 0.09181 0.34429 0.0
H1586 H 0.13605 0.16294 0.34421 0.0
C1587 C 0.13356 0.1472 0.26299 0.0
C1588 C 0.86171 0.84458 0.03903 0.0
C1589 C 0.8879 0.8361 0.03897 0.0
H1590 H 0.83273 0.89067 0.03832 0.0
C1591 C 0.90526 0.8687 0.03872 0.0
H1592 H 0.84794 0.82 0.0391 0.0
C1593 C 0.89658 0.90908 0.03914 0.0
C1594 C 0.87039 0.91756 0.03887 0.0
H1595 H 0.92556 0.86299 0.03868 0.0
H1596 H 0.91034 0.93366 0.03928 0.0
C1597 C 0.85303 0.88495 0.03851 0.0
C1598 C 0.88378 0.89686 0.81069 0.0
C1599 C 0.8881 0.91741 0.78146 0.0
H1600 H 0.87094 0.84176 0.83355 0.0
C1601 C 0.88356 0.89694 0.75227 0.0
H1602 H 0.88712 0.91205 0.83351 0.0
C1603 C 0.87531 0.85629 0.7523 0.0
C1604 C 0.87047 0.83603 0.78151 0.0
H1605 H 0.88685 0.91213 0.72944 0.0
H1606 H 0.87224 0.84095 0.72949 0.0
C1607 C 0.8745 0.85679 0.81071 0.0
C1608 C 0.12507 0.64746 0.50445 0.0
C1609 C 0.1205 0.66784 0.53367 0.0
H1610 H 0.13629 0.59148 0.48159 0.0
C1611 C 0.12465 0.64716 0.56287 0.0
H1612 H 0.12188 0.66275 0.48164 0.0
C1613 C 0.13382 0.60704 0.56283 0.0
C1614 C 0.13788 0.58637 0.5336 0.0
H1615 H 0.12127 0.66228 0.58571 0.0
H1616 H 0.13729 0.59191 0.58565 0.0
C1617 C 0.13319 0.60676 0.50442 0.0
C1618 C 0.13316 0.64738 0.82134 0.0
C1619 C 0.13793 0.66773 0.79215 0.0
H1620 H 0.12154 0.59154 0.84416 0.0
C1621 C 0.13371 0.6471 0.76293 0.0
H1622 H 0.13637 0.66262 0.84416 0.0
C1623 C 0.1243 0.60708 0.76293 0.0
C1624 C 0.12004 0.58644 0.79214 0.0
H1625 H 0.13722 0.66218 0.7401 0.0
H1626 H 0.12081 0.59201 0.7401 0.0
C1627 C 0.12478 0.60678 0.82134 0.0
C1628 C 0.87422 0.39686 0.51076 0.0
C1629 C 0.87001 0.41746 0.53999 0.0
H1630 H 0.88691 0.34168 0.48791 0.0
C1631 C 0.87455 0.39699 0.56918 0.0
H1632 H 0.87088 0.41205 0.48794 0.0
C1633 C 0.88268 0.35631 0.56916 0.0
C1634 C 0.88741 0.336 0.53995 0.0
H1635 H 0.87132 0.41222 0.59201 0.0
H1636 H 0.88575 0.34097 0.59197 0.0
C1637 C 0.8834 0.35674 0.51075 0.0
C1638 C 0.87471 0.35634 0.25261 0.0
C1639 C 0.87002 0.33592 0.2818 0.0
H1640 H 0.88622 0.41225 0.22981 0.0
C1641 C 0.87429 0.35653 0.31102 0.0
H1642 H 0.87147 0.34113 0.22978 0.0
C1643 C 0.88366 0.39657 0.31103 0.0
C1644 C 0.88783 0.41728 0.28182 0.0
H1645 H 0.87085 0.3414 0.33384 0.0
H1646 H 0.88717 0.41161 0.33386 0.0
C1647 C 0.88304 0.39696 0.25262 0.0
C1648 C 0.65506 0.11929 0.53555 0.0
C1649 C 0.63759 0.08685 0.53536 0.0
H1650 H 0.66036 0.1842 0.53488 0.0
C1651 C 0.61143 0.09556 0.53528 0.0
H1652 H 0.67534 0.1134 0.53559 0.0
C1653 C 0.60289 0.136 0.53574 0.0
C1654 C 0.62035 0.16845 0.53532 0.0
H1655 H 0.59758 0.0711 0.53526 0.0
H1656 H 0.5826 0.1419 0.53592 0.0
C1657 C 0.64651 0.15974 0.53507 0.0
C1658 C 0.63371 0.14776 0.76302 0.0
C1659 C 0.63796 0.16842 0.79222 0.0
H1660 H 0.62084 0.09263 0.74025 0.0
C1661 C 0.63323 0.1481 0.82144 0.0
H1662 H 0.6372 0.16281 0.74017 0.0
C1663 C 0.62486 0.10752 0.82148 0.0
C1664 C 0.6201 0.08714 0.7923 0.0
H1665 H 0.63646 0.16336 0.84425 0.0
H1666 H 0.62164 0.09232 0.84432 0.0
C1667 C 0.62433 0.10773 0.76306 0.0
C1668 C 0.38317 0.8574 0.57027 0.0
C1669 C 0.38787 0.83709 0.54105 0.0
H1670 H 0.37177 0.91328 0.59314 0.0
C1671 C 0.38373 0.85779 0.51185 0.0
H1672 H 0.38634 0.84209 0.59307 0.0
C1673 C 0.37447 0.89786 0.51189 0.0
C1674 C 0.3703 0.91847 0.54112 0.0
H1675 H 0.3872 0.84273 0.48901 0.0
H1676 H 0.37103 0.913 0.48907 0.0
C1677 C 0.37496 0.89805 0.57031 0.0
C1678 C 0.3829 0.89859 0.25339 0.0
C1679 C 0.38773 0.91888 0.28258 0.0
H1680 H 0.37138 0.84273 0.23056 0.0
C1681 C 0.38365 0.89815 0.31179 0.0
H1682 H 0.38601 0.91391 0.23057 0.0
C1683 C 0.37434 0.85808 0.31179 0.0
C1684 C 0.37005 0.83749 0.28257 0.0
H1685 H 0.3872 0.91319 0.33462 0.0
H1686 H 0.37096 0.84291 0.33462 0.0
C1687 C 0.37465 0.85794 0.25338 0.0
C1688 C 0.64683 0.65966 1.03456 0.0
C1689 C 0.62065 0.66827 1.03468 0.0
H1690 H 0.67573 0.61343 1.03521 0.0
C1691 C 0.60324 0.63574 1.03491 0.0
H1692 H 0.66064 0.68417 1.03451 0.0
C1693 C 0.61185 0.59533 1.03445 0.0
C1694 C 0.63802 0.58672 1.03469 0.0
H1695 H 0.58295 0.64156 1.03499 0.0
H1696 H 0.59803 0.57082 1.03432 0.0
C1697 C 0.65544 0.61925 1.03504 0.0
C1698 C 0.63374 0.6476 0.26336 0.0
C1699 C 0.63803 0.66816 0.29259 0.0
H1700 H 0.62081 0.59258 0.24048 0.0
C1701 C 0.63331 0.64775 0.32177 0.0
H1702 H 0.63722 0.66272 0.24054 0.0
C1703 C 0.62491 0.60718 0.32174 0.0
C1704 C 0.62012 0.58691 0.29252 0.0
H1705 H 0.63657 0.66293 0.34461 0.0
H1706 H 0.6217 0.59189 0.34455 0.0
C1707 C 0.62434 0.6076 0.26333 0.0
C1708 C 0.37489 0.39822 0.07011 0.0
C1709 C 0.37013 0.41858 0.04093 0.0
H1710 H 0.38636 0.34232 0.09289 0.0
C1711 C 0.37424 0.39792 1.01169 0.0
H1712 H 0.37176 0.41348 0.09294 0.0
C1713 C 0.38353 0.35786 1.01166 0.0
C1714 C 0.38775 0.33721 0.04086 0.0
H1715 H 0.37072 0.41302 0.98888 0.0
H1716 H 0.38694 0.34276 0.98882 0.0
C1717 C 0.38313 0.35758 0.07008 0.0
C1718 C 0.37487 0.35746 0.75345 0.0
C1719 C 0.37011 0.33713 0.78266 0.0
H1720 H 0.38633 0.41334 0.7306 0.0
C1721 C 0.37423 0.35784 0.81187 0.0
H1722 H 0.37172 0.34216 0.73064 0.0
C1723 C 0.38353 0.39791 0.81184 0.0
C1724 C 0.38776 0.41853 0.78262 0.0
H1725 H 0.37073 0.34277 0.8347 0.0
H1726 H 0.38695 0.41306 0.83466 0.0
C1727 C 0.38311 0.39811 0.75343 0.0
C1728 C 0.03203 0.10697 0.16853 0.0
C1729 C 0.05532 0.08809 0.1757 0.0
H1730 H 0.01339 0.15765 0.14632 0.0
C1731 C 0.07811 0.10609 0.16524 0.0
H1732 H 0.01418 0.09373 0.17637 0.0
C1733 C 0.07764 0.14244 0.14801 0.0
C1734 C 0.0544 0.16158 0.14111 0.0
H1735 H 0.09636 0.09219 0.17039 0.0
H1736 H 0.09555 0.15562 0.14032 0.0
C1737 C 0.03158 0.14355 0.15142 0.0
C1738 C 0.17993 0.11147 0.14797 0.0
C1739 C 0.20319 0.09232 0.14112 0.0
H1740 H 0.16119 0.16174 0.1703 0.0
C1741 C 0.22599 0.11032 0.15149 0.0
H1742 H 0.16203 0.09831 0.14023 0.0
C1743 C 0.22551 0.1469 0.1686 0.0
C1744 C 0.20221 0.1658 0.17571 0.0
H1745 H 0.24419 0.09621 0.14643 0.0
H1746 H 0.24334 0.16012 0.17648 0.0
C1747 C 0.17944 0.14782 0.1652 0.0
C1748 C 0.93048 0.86225 0.92632 0.0
C1749 C 0.95373 0.84312 0.93322 0.0
H1750 H 0.91175 0.91243 0.90388 0.0
C1751 C 0.97654 0.86114 0.92286 0.0
H1752 H 0.91257 0.84909 0.93406 0.0
C1753 C 0.97607 0.89767 0.90568 0.0
C1754 C 0.95277 0.91651 0.8985 0.0
H1755 H 0.99473 0.84704 0.92796 0.0
H1756 H 0.99391 0.91089 0.89779 0.0
C1757 C 0.93 0.89855 0.90903 0.0
C1758 C 0.78252 0.85636 0.90526 0.0
C1759 C 0.80584 0.83752 0.89816 0.0
H1760 H 0.7638 0.90708 0.92732 0.0
C1761 C 0.82859 0.85564 0.90853 0.0
H1762 H 0.76469 0.84302 0.89748 0.0
C1763 C 0.82807 0.89207 0.92565 0.0
C1764 C 0.8048 0.91116 0.9325 0.0
H1765 H 0.84686 0.84177 0.90342 0.0
H1766 H 0.84596 0.90535 0.9333 0.0
C1767 C 0.78201 0.89302 0.92225 0.0
C1768 C 0.03377 0.64673 0.65502 0.0
C1769 C 0.05688 0.66563 0.64698 0.0
H1770 H 0.01562 0.59536 0.67682 0.0
C1771 C 0.07993 0.64665 0.65512 0.0
H1772 H 0.01572 0.66069 0.64894 0.0
C1773 C 0.07987 0.60933 0.67104 0.0
C1774 C 0.05676 0.59034 0.67899 0.0
H1775 H 0.09805 0.6605 0.64916 0.0
H1776 H 0.09795 0.59543 0.67708 0.0
C1777 C 0.03371 0.60931 0.67088 0.0
C1778 C 0.22451 0.64558 0.67055 0.0
C1779 C 0.20146 0.66448 0.67876 0.0
H1780 H 0.24251 0.59432 0.64842 0.0
C1781 C 0.17836 0.64556 0.67071 0.0
H1782 H 0.2426 0.65949 0.67655 0.0
C1783 C 0.17831 0.60834 0.65465 0.0
C1784 C 0.20136 0.58938 0.64645 0.0
H1785 H 0.16027 0.6594 0.6768 0.0
H1786 H 0.16019 0.59452 0.64866 0.0
C1787 C 0.22447 0.60825 0.65454 0.0
C1788 C 0.97406 0.35791 0.41907 0.0
C1789 C 0.95096 0.33891 0.42699 0.0
H1790 H 0.9922 0.40938 0.39742 0.0
C1791 C 0.9279 0.35785 0.41882 0.0
H1792 H 0.99211 0.34399 0.42518 0.0
C1793 C 0.92795 0.39522 0.40297 0.0
C1794 C 0.95105 0.4143 0.39513 0.0
H1795 H 0.90979 0.34392 0.42469 0.0
H1796 H 0.90987 0.40909 0.3969 0.0
C1797 C 0.97411 0.39537 0.40329 0.0
C1798 C 0.82989 0.39516 0.41895 0.0
C1799 C 0.80683 0.41412 0.42711 0.0
H1800 H 0.84793 0.34391 0.39705 0.0
C1801 C 0.78373 0.39511 0.41922 0.0
H1802 H 0.848 0.40909 0.42481 0.0
C1803 C 0.78369 0.35763 0.40345 0.0
C1804 C 0.80675 0.33871 0.39528 0.0
H1805 H 0.76568 0.40903 0.42531 0.0
H1806 H 0.76561 0.34361 0.39759 0.0
C1807 C 0.82985 0.35778 0.40313 0.0
C1808 C 0.57833 0.14476 0.64877 0.0
C1809 C 0.55507 0.16383 0.64178 0.0
H1810 H 0.59703 0.09442 0.67108 0.0
C1811 C 0.53225 0.14568 0.65193 0.0
H1812 H 0.59624 0.15805 0.64121 0.0
C1813 C 0.5327 0.10902 0.66891 0.0
C1814 C 0.55598 0.09015 0.6761 0.0
H1815 H 0.51405 0.15972 0.64676 0.0
H1816 H 0.51483 0.09568 0.67658 0.0
C1817 C 0.57879 0.1083 0.66587 0.0
C1818 C 0.72574 0.10844 0.65238 0.0
C1819 C 0.70293 0.0902 0.64232 0.0
H1820 H 0.74313 0.15863 0.67677 0.0
C1821 C 0.67966 0.10926 0.64927 0.0
H1822 H 0.74395 0.0944 0.64724 0.0
C1823 C 0.67918 0.14584 0.6662 0.0
C1824 C 0.70197 0.1641 0.67631 0.0
H1825 H 0.66176 0.09588 0.64178 0.0
H1826 H 0.66093 0.15972 0.67137 0.0
C1827 C 0.72527 0.14521 0.66919 0.0
C1828 C 0.42845 0.89716 0.40379 0.0
C1829 C 0.45153 0.9162 0.39577 0.0
H1830 H 0.41033 0.846 0.42575 0.0
C1831 C 0.4746 0.89735 0.40395 0.0
H1832 H 0.41035 0.91096 0.39772 0.0
C1833 C 0.47459 0.85996 0.41989 0.0
C1834 C 0.45151 0.84099 0.42794 0.0
H1835 H 0.49267 0.91134 0.39796 0.0
H1836 H 0.49265 0.84607 0.42599 0.0
C1837 C 0.42844 0.8599 0.41978 0.0
C1838 C 0.32972 0.85901 0.40395 0.0
C1839 C 0.30664 0.83999 0.39592 0.0
H1840 H 0.34782 0.91018 0.42589 0.0
C1841 C 0.28356 0.85888 0.40405 0.0
H1842 H 0.34782 0.84517 0.39791 0.0
C1843 C 0.28357 0.89628 0.41995 0.0
C1844 C 0.30665 0.91524 0.42802 0.0
H1845 H 0.2655 0.84491 0.39805 0.0
H1846 H 0.2655 0.9102 0.42601 0.0
C1847 C 0.32972 0.8963 0.41991 0.0
C1848 C 0.53202 0.64565 0.1519 0.0
C1849 C 0.55483 0.6636 0.14148 0.0
H1850 H 0.51463 0.59589 0.1769 0.0
C1851 C 0.57808 0.6444 0.14829 0.0
H1852 H 0.51383 0.6598 0.14687 0.0
C1853 C 0.57855 0.60804 0.16552 0.0
C1854 C 0.55577 0.59011 0.17605 0.0
H1855 H 0.59598 0.65752 0.14051 0.0
H1856 H 0.59679 0.59408 0.17058 0.0
C1857 C 0.53248 0.60908 0.16901 0.0
C1858 C 0.68026 0.61109 0.14834 0.0
C1859 C 0.70351 0.59193 0.14145 0.0
H1860 H 0.66155 0.66138 0.1707 0.0
C1861 C 0.72632 0.60992 0.15179 0.0
H1862 H 0.66235 0.59793 0.14063 0.0
C1863 C 0.72587 0.64649 0.16889 0.0
C1864 C 0.70258 0.66541 0.17602 0.0
H1865 H 0.74451 0.5958 0.14669 0.0
H1866 H 0.74372 0.6597 0.17673 0.0
C1867 C 0.6798 0.64745 0.16557 0.0
C1868 C 0.4744 0.3976 0.90402 0.0
C1869 C 0.45133 0.4165 0.89588 0.0
H1870 H 0.49243 0.34622 0.92593 0.0
C1871 C 0.42825 0.39746 0.90386 0.0
H1872 H 0.49248 0.41159 0.89806 0.0
C1873 C 0.42822 0.36013 0.91976 0.0
C1874 C 0.45129 0.34117 0.92787 0.0
H1875 H 0.41015 0.4113 0.89782 0.0
H1876 H 0.41011 0.34623 0.9257 0.0
C1877 C 0.47438 0.36016 0.91987 0.0
C1878 C 0.28312 0.35784 0.90451 0.0
C1879 C 0.30618 0.33905 0.89614 0.0
H1880 H 0.26512 0.40902 0.9268 0.0
C1881 C 0.32927 0.35803 0.90415 0.0
H1882 H 0.26504 0.34389 0.89854 0.0
C1883 C 0.32932 0.39519 0.92027 0.0
C1884 C 0.30627 0.41408 0.92858 0.0
H1885 H 0.34736 0.34427 0.89796 0.0
H1886 H 0.34744 0.40905 0.9262 0.0
C1887 C 0.28316 0.39514 0.92059 0.0
C1888 C 0.13769 0.33276 0.13289 0.0
C1889 C 0.11119 0.32903 0.13587 0.0
H1890 H 0.17367 0.33349 0.15694 0.0
C1891 C 0.10058 0.32966 0.16722 0.0
H1892 H 0.14662 0.33261 0.10933 0.0
C1893 C 0.11614 0.32994 0.19474 0.0
C1894 C 0.14273 0.32963 0.19167 0.0
H1895 H 0.0802 0.3274 0.17066 0.0
H1896 H 0.1073 0.32744 0.21826 0.0
C1897 C 0.15324 0.33309 0.16039 0.0
C1898 C 0.15703 0.9247 0.16732 0.0
C1899 C 0.14639 0.9253 0.136 0.0
H1900 H 0.15038 0.92692 0.21838 0.0
C1901 C 0.11989 0.92151 0.1331 0.0
H1902 H 0.17742 0.92699 0.1707 0.0
C1903 C 0.10438 0.92115 0.16065 0.0
C1904 C 0.11491 0.92463 0.1919 0.0
H1905 H 0.11093 0.92163 0.10957 0.0
H1906 H 0.08394 0.92068 0.15726 0.0
C1907 C 0.14151 0.92439 0.19488 0.0
C1908 C 0.8922 0.6741 0.87948 0.0
C1909 C 0.8656 0.67421 0.88249 0.0
H1910 H 0.9281 0.67693 0.90363 0.0
C1911 C 0.85506 0.67071 0.91376 0.0
H1912 H 0.90107 0.67662 0.85598 0.0
C1913 C 0.87057 0.67119 0.94129 0.0
C1914 C 0.89707 0.67513 0.93835 0.0
H1915 H 0.83463 0.67015 0.91717 0.0
H1916 H 0.86162 0.67132 0.96483 0.0
C1917 C 0.90771 0.67453 0.90703 0.0
C1918 C 0.85079 0.0794 0.90654 0.0
C1919 C 0.86139 0.07874 0.93788 0.0
H1920 H 0.8575 0.07725 0.8555 0.0
C1921 C 0.88789 0.08254 0.94085 0.0
H1922 H 0.83041 0.07711 0.90312 0.0
C1923 C 0.90344 0.08295 0.91332 0.0
C1924 C 0.89294 0.07949 0.88205 0.0
H1925 H 0.89682 0.08238 0.96439 0.0
H1926 H 0.92387 0.08341 0.91676 0.0
C1927 C 0.86634 0.07974 0.87901 0.0
C1928 C 0.14041 0.833 0.63214 0.0
C1929 C 0.11382 0.83094 0.63476 0.0
H1930 H 0.17615 0.8321 0.6567 0.0
C1931 C 0.10297 0.83302 0.66596 0.0
H1932 H 0.14953 0.83171 0.60872 0.0
C1933 C 0.11826 0.83281 0.69371 0.0
C1934 C 0.14484 0.83072 0.69107 0.0
H1935 H 0.08252 0.83213 0.66914 0.0
H1936 H 0.10914 0.83137 0.71712 0.0
C1937 C 0.1557 0.83299 0.65989 0.0
C1938 C 0.13984 0.4217 0.69349 0.0
C1939 C 0.11326 0.42371 0.69083 0.0
H1940 H 0.1756 0.42251 0.66894 0.0
C1941 C 0.10244 0.42143 0.65964 0.0
H1942 H 0.14893 0.42315 0.7169 0.0
C1943 C 0.11776 0.42147 0.6319 0.0
C1944 C 0.14434 0.4236 0.63455 0.0
H1945 H 0.08199 0.42227 0.65645 0.0
H1946 H 0.10866 0.42274 0.60848 0.0
C1947 C 0.15516 0.42155 0.66575 0.0
C1948 C 0.85253 0.17025 0.41415 0.0
C1949 C 0.86338 0.17258 0.38297 0.0
H1950 H 0.85868 0.17168 0.46532 0.0
C1951 C 0.88998 0.1707 0.38034 0.0
H1952 H 0.83208 0.17098 0.41733 0.0
C1953 C 0.90525 0.17066 0.4081 0.0
C1954 C 0.89439 0.17271 0.43928 0.0
H1955 H 0.8991 0.17219 0.35694 0.0
H1956 H 0.9257 0.17172 0.40492 0.0
C1957 C 0.86781 0.17041 0.44191 0.0
C1958 C 0.85267 0.58284 0.40832 0.0
C1959 C 0.86349 0.58063 0.43951 0.0
H1960 H 0.85887 0.58136 0.35717 0.0
C1961 C 0.89008 0.58269 0.44216 0.0
H1962 H 0.83222 0.58197 0.40513 0.0
C1963 C 0.90539 0.58278 0.41441 0.0
C1964 C 0.89456 0.58059 0.38322 0.0
H1965 H 0.89917 0.5813 0.46557 0.0
H1966 H 0.92583 0.58186 0.41761 0.0
C1967 C 0.86798 0.58271 0.38057 0.0
C1968 C 0.6168 0.33083 0.69478 0.0
C1969 C 0.64339 0.33013 0.69168 0.0
H1970 H 0.58084 0.32888 0.67073 0.0
C1971 C 0.6539 0.33357 0.6604 0.0
H1972 H 0.60797 0.32836 0.71831 0.0
C1973 C 0.63834 0.33356 0.63292 0.0
C1974 C 0.61182 0.33017 0.63592 0.0
H1975 H 0.67433 0.33371 0.65694 0.0
H1976 H 0.64726 0.33335 0.60936 0.0
C1977 C 0.60123 0.33088 0.66728 0.0
C1978 C 0.65681 0.92386 0.66755 0.0
C1979 C 0.6462 0.92457 0.63621 0.0
H1980 H 0.65012 0.92651 0.71859 0.0
C1981 C 0.61967 0.92127 0.63329 0.0
H1982 H 0.6772 0.9258 0.67096 0.0
C1983 C 0.60413 0.92134 0.66081 0.0
C1984 C 0.61467 0.92481 0.69205 0.0
H1985 H 0.61072 0.92145 0.60975 0.0
H1986 H 0.5837 0.92124 0.65738 0.0
C1987 C 0.64126 0.92402 0.69509 0.0
C1988 C 0.36809 0.67224 0.44256 0.0
C1989 C 0.39467 0.67448 0.43992 0.0
H1990 H 0.33236 0.67281 0.41799 0.0
C1991 C 0.40553 0.67238 0.40872 0.0
H1992 H 0.35898 0.67355 0.46597 0.0
C1993 C 0.39024 0.67238 0.38097 0.0
C1994 C 0.36365 0.67428 0.38361 0.0
H1995 H 0.42597 0.67339 0.40554 0.0
H1996 H 0.39936 0.6738 0.35757 0.0
C1997 C 0.35281 0.67204 0.41481 0.0
C1998 C 0.35259 0.08372 0.40904 0.0
C1999 C 0.36345 0.0815 0.4402 0.0
H2000 H 0.35873 0.08245 0.35787 0.0
C2001 C 0.39004 0.08367 0.4428 0.0
H2002 H 0.33214 0.08277 0.40589 0.0
C2003 C 0.40531 0.08392 0.41502 0.0
C2004 C 0.39445 0.0818 0.38384 0.0
H2005 H 0.39916 0.08226 0.46619 0.0
H2006 H 0.42576 0.08309 0.41817 0.0
C2007 C 0.36786 0.08377 0.38126 0.0
C2008 C 0.60129 0.8302 0.16747 0.0
C2009 C 0.61191 0.82959 0.13613 0.0
H2010 H 0.60798 0.82776 0.21851 0.0
C2011 C 0.63843 0.83315 0.13318 0.0
H2012 H 0.5809 0.82807 0.17089 0.0
C2013 C 0.65396 0.8333 0.16069 0.0
C2014 C 0.64343 0.82981 0.19195 0.0
H2015 H 0.64738 0.83304 0.10964 0.0
H2016 H 0.67439 0.8336 0.15726 0.0
C2017 C 0.61683 0.83029 0.195 0.0
C2018 C 0.65703 0.42485 0.16739 0.0
C2019 C 0.64648 0.42554 0.13602 0.0
H2020 H 0.65023 0.42727 0.21842 0.0
C2021 C 0.61996 0.4221 0.133 0.0
H2022 H 0.67741 0.42689 0.17086 0.0
C2023 C 0.60437 0.42202 0.16048 0.0
C2024 C 0.61484 0.42542 0.19177 0.0
H2025 H 0.61107 0.42229 0.10944 0.0
H2026 H 0.58394 0.42182 0.157 0.0
C2027 C 0.64142 0.42481 0.19488 0.0
C2028 C 0.40532 0.17214 0.90885 0.0
C2029 C 0.39448 0.1744 0.94004 0.0
H2030 H 0.39915 0.17338 0.85769 0.0
C2031 C 0.36789 0.17227 0.94269 0.0
H2032 H 0.42577 0.17306 0.90567 0.0
C2033 C 0.3526 0.17203 0.91494 0.0
C2034 C 0.36345 0.1741 0.88373 0.0
H2035 H 0.35879 0.17372 0.9661 0.0
H2036 H 0.33215 0.17289 0.91813 0.0
C2037 C 0.39003 0.17209 0.8811 0.0
C2038 C 0.38972 0.58359 0.94262 0.0
C2039 C 0.36315 0.58106 0.94002 0.0
H2040 H 0.42545 0.58341 0.91799 0.0
C2041 C 0.35228 0.58305 0.90884 0.0
H2042 H 0.39885 0.58236 0.96602 0.0
C2043 C 0.36755 0.58325 0.88107 0.0
C2044 C 0.39415 0.58164 0.88366 0.0
H2045 H 0.33183 0.58182 0.9057 0.0
H2046 H 0.35843 0.58174 0.85768 0.0
C2047 C 0.405 0.58397 0.91484 0.0
loop_
_geom_bond_atom_site_label_1
_geom_bond_atom_site_label_2
_geom_bond_distance
_geom_bond_site_symmetry_2
_ccdc_geom_bond_type
O0 Tb1 2.292 . S
O0 C3 1.255 . S
Tb1 O0 2.292 . S
Tb1 O17 2.326 . S
Tb1 O19 2.500 . S
Tb1 O20 2.473 . S
Tb1 O23 2.324 1_556 S
Eu2 O6 2.292 . S
Eu2 C7 2.852 . S
Eu2 O18 2.324 1_554 S
Eu2 O22 2.326 . S
Eu2 O24 2.500 . S
Eu2 O25 2.473 . S
C3 O0 1.255 . S
C3 O4 1.247 . S
O4 C3 1.247 . S
C5 O17 1.242 . S
C5 O18 1.258 . S
O6 Eu2 2.292 . S
O6 C8 1.255 . S
C7 Eu2 2.852 . S
C7 C11 1.503 . S
C7 O24 1.273 . S
C7 O25 1.257 . S
C8 O6 1.255 . S
C8 O9 1.247 . S
O9 C8 1.247 . S
C10 O22 1.242 . S
C10 O23 1.258 . S
C11 C7 1.503 . S
C11 C12 1.379 . S
C11 C16 1.392 . S
C12 C11 1.379 . S
C12 C13 1.404 . S
C12 H26 0.929 . S
C13 C12 1.404 . S
C13 C14 1.389 . S
C14 C13 1.389 . S
C14 C15 1.399 . S
C14 H27 0.931 . S
C15 C14 1.399 . S
C15 C16 1.390 . S
C16 C11 1.392 . S
C16 C15 1.390 . S
C16 H28 0.929 . S
O17 Tb1 2.326 . S
O17 C5 1.242 . S
O18 Eu2 2.324 1_556 S
O18 C5 1.258 . S
O19 Tb1 2.500 . S
O19 C21 1.273 . S
O20 Tb1 2.473 . S
O20 C21 1.257 . S
C21 O19 1.273 . S
C21 O20 1.257 . S
O22 Eu2 2.326 . S
O22 C10 1.242 . S
O23 Tb1 2.324 1_554 S
O23 C10 1.258 . S
O24 Eu2 2.500 . S
O24 C7 1.273 . S
O25 Eu2 2.473 . S
O25 C7 1.257 . S
H26 C12 0.929 . S
H27 C14 0.931 . S
H28 C16 0.929 . S
O29 Tb30 2.292 . S
O29 C32 1.255 . S
Tb30 O29 2.292 . S
Tb30 O46 2.326 1_565 S
Tb30 O48 2.500 1_565 S
Tb30 O49 2.473 1_565 S
Tb30 O52 2.324 1_556 S
Eu31 O35 2.292 . S
Eu31 C36 2.852 1_545 S
Eu31 O47 2.324 1_554 S
Eu31 O51 2.326 1_545 S
Eu31 O53 2.500 1_545 S
Eu31 O54 2.473 1_545 S
C32 O29 1.255 . S
C32 O33 1.247 . S
O33 C32 1.247 . S
C34 O46 1.242 . S
C34 O47 1.258 . S
O35 Eu31 2.292 . S
O35 C37 1.255 . S
C36 Eu31 2.852 1_565 S
C36 C40 1.503 . S
C36 O53 1.273 . S
C36 O54 1.257 . S
C37 O35 1.255 . S
C37 O38 1.247 . S
O38 C37 1.247 . S
C39 O51 1.242 . S
C39 O52 1.258 . S
C40 C36 1.503 . S
C40 C41 1.379 . S
C40 C45 1.392 . S
C41 C40 1.379 . S
C41 C42 1.404 . S
C41 H55 0.929 . S
C42 C41 1.404 . S
C42 C43 1.389 . S
C43 C42 1.389 . S
C43 C44 1.399 . S
C43 H56 0.931 . S
C44 C43 1.399 . S
C44 C45 1.390 . S
C45 C40 1.392 . S
C45 C44 1.390 . S
C45 H57 0.929 . S
O46 Tb30 2.326 1_545 S
O46 C34 1.242 . S
O47 Eu31 2.324 1_556 S
O47 C34 1.258 . S
O48 Tb30 2.500 1_545 S
O48 C50 1.273 . S
O49 Tb30 2.473 1_545 S
O49 C50 1.257 . S
C50 O48 1.273 . S
C50 O49 1.257 . S
O51 Eu31 2.326 1_565 S
O51 C39 1.242 . S
O52 Tb30 2.324 1_554 S
O52 C39 1.258 . S
O53 Eu31 2.500 1_565 S
O53 C36 1.273 . S
O54 Eu31 2.473 1_565 S
O54 C36 1.257 . S
H55 C41 0.929 . S
H56 C43 0.931 . S
H57 C45 0.929 . S
O58 Tb59 2.292 . S
O58 C61 1.255 . S
Tb59 O58 2.292 . S
Tb59 O75 2.326 1_565 S
Tb59 O77 2.500 1_565 S
Tb59 O78 2.473 1_565 S
Tb59 O81 2.324 . S
Eu60 O64 2.292 . S
Eu60 C65 2.852 1_545 S
Eu60 O76 2.324 . S
Eu60 O80 2.326 1_545 S
Eu60 O82 2.500 1_545 S
Eu60 O83 2.473 1_545 S
C61 O58 1.255 . S
C61 O62 1.247 . S
O62 C61 1.247 . S
C63 O75 1.242 . S
C63 O76 1.258 . S
O64 Eu60 2.292 . S
O64 C66 1.255 . S
C65 Eu60 2.852 1_565 S
C65 C69 1.503 . S
C65 O82 1.273 . S
C65 O83 1.257 . S
C66 O64 1.255 . S
C66 O67 1.247 . S
O67 C66 1.247 . S
C68 O80 1.242 . S
C68 O81 1.258 . S
C69 C65 1.503 . S
C69 C70 1.379 . S
C69 C74 1.392 . S
C70 C69 1.379 . S
C70 C71 1.404 . S
C70 H84 0.929 . S
C71 C70 1.404 . S
C71 C72 1.389 . S
C72 C71 1.389 . S
C72 C73 1.399 . S
C72 H85 0.931 . S
C73 C72 1.399 . S
C73 C74 1.390 . S
C74 C69 1.392 . S
C74 C73 1.390 . S
C74 H86 0.929 . S
O75 Tb59 2.326 1_545 S
O75 C63 1.242 . S
O76 Eu60 2.324 . S
O76 C63 1.258 . S
O77 Tb59 2.500 1_545 S
O77 C79 1.273 . S
O78 Tb59 2.473 1_545 S
O78 C79 1.257 . S
C79 O77 1.273 . S
C79 O78 1.257 . S
O80 Eu60 2.326 1_565 S
O80 C68 1.242 . S
O81 Tb59 2.324 . S
O81 C68 1.258 . S
O82 Eu60 2.500 1_565 S
O82 C65 1.273 . S
O83 Eu60 2.473 1_565 S
O83 C65 1.257 . S
H84 C70 0.929 . S
H85 C72 0.931 . S
H86 C74 0.929 . S
O87 Tb88 2.292 . S
O87 C90 1.255 . S
Tb88 O87 2.292 . S
Tb88 O104 2.326 . S
Tb88 O106 2.500 . S
Tb88 O107 2.473 . S
Tb88 O110 2.324 . S
Eu89 O93 2.292 . S
Eu89 C94 2.852 . S
Eu89 O105 2.324 . S
Eu89 O109 2.326 . S
Eu89 O111 2.500 . S
Eu89 O112 2.473 . S
C90 O87 1.255 . S
C90 O91 1.247 . S
O91 C90 1.247 . S
C92 O104 1.242 . S
C92 O105 1.258 . S
O93 Eu89 2.292 . S
O93 C95 1.255 . S
C94 Eu89 2.852 . S
C94 C98 1.503 . S
C94 O111 1.273 . S
C94 O112 1.257 . S
C95 O93 1.255 . S
C95 O96 1.247 . S
O96 C95 1.247 . S
C97 O109 1.242 . S
C97 O110 1.258 . S
C98 C94 1.503 . S
C98 C99 1.379 . S
C98 C103 1.392 . S
C99 C98 1.379 . S
C99 C100 1.404 . S
C99 H113 0.929 . S
C100 C99 1.404 . S
C100 C101 1.389 . S
C101 C100 1.389 . S
C101 C102 1.399 . S
C101 H114 0.931 . S
C102 C101 1.399 . S
C102 C103 1.390 . S
C103 C98 1.392 . S
C103 C102 1.390 . S
C103 H115 0.929 . S
O104 Tb88 2.326 . S
O104 C92 1.242 . S
O105 Eu89 2.324 . S
O105 C92 1.258 . S
O106 Tb88 2.500 . S
O106 C108 1.273 . S
O107 Tb88 2.473 . S
O107 C108 1.257 . S
C108 O106 1.273 . S
C108 O107 1.257 . S
O109 Eu89 2.326 . S
O109 C97 1.242 . S
O110 Tb88 2.324 . S
O110 C97 1.258 . S
O111 Eu89 2.500 . S
O111 C94 1.273 . S
O112 Eu89 2.473 . S
O112 C94 1.257 . S
H113 C99 0.929 . S
H114 C101 0.931 . S
H115 C103 0.929 . S
O116 Tb117 2.292 . S
O116 C119 1.255 . S
Tb117 O116 2.292 . S
Tb117 O133 2.326 . S
Tb117 O135 2.500 . S
Tb117 O136 2.473 . S
Tb117 O139 2.324 1_554 S
Eu118 O122 2.292 . S
Eu118 C123 2.852 . S
Eu118 O134 2.324 1_556 S
Eu118 O138 2.326 . S
Eu118 O140 2.500 . S
Eu118 O141 2.473 . S
C119 O116 1.255 . S
C119 O120 1.247 . S
O120 C119 1.247 . S
C121 O133 1.242 . S
C121 O134 1.258 . S
O122 Eu118 2.292 . S
O122 C124 1.255 . S
C123 Eu118 2.852 . S
C123 C127 1.503 . S
C123 O140 1.273 . S
C123 O141 1.257 . S
C124 O122 1.255 . S
C124 O125 1.247 . S
O125 C124 1.247 . S
C126 O138 1.242 . S
C126 O139 1.258 . S
C127 C123 1.503 . S
C127 C128 1.379 . S
C127 C132 1.392 . S
C128 C127 1.379 . S
C128 C129 1.404 . S
C128 H142 0.929 . S
C129 C128 1.404 . S
C129 C130 1.389 . S
C130 C129 1.389 . S
C130 C131 1.399 . S
C130 H143 0.931 . S
C131 C130 1.399 . S
C131 C132 1.390 . S
C132 C127 1.392 . S
C132 C131 1.390 . S
C132 H144 0.929 . S
O133 Tb117 2.326 . S
O133 C121 1.242 . S
O134 Eu118 2.324 1_554 S
O134 C121 1.258 . S
O135 Tb117 2.500 . S
O135 C137 1.273 . S
O136 Tb117 2.473 . S
O136 C137 1.257 . S
C137 O135 1.273 . S
C137 O136 1.257 . S
O138 Eu118 2.326 . S
O138 C126 1.242 . S
O139 Tb117 2.324 1_556 S
O139 C126 1.258 . S
O140 Eu118 2.500 . S
O140 C123 1.273 . S
O141 Eu118 2.473 . S
O141 C123 1.257 . S
H142 C128 0.929 . S
H143 C130 0.931 . S
H144 C132 0.929 . S
O145 Tb146 2.292 . S
O145 C148 1.255 . S
Tb146 O145 2.292 . S
Tb146 O162 2.326 1_545 S
Tb146 O164 2.500 1_545 S
Tb146 O165 2.473 1_545 S
Tb146 O168 2.324 1_554 S
Eu147 O151 2.292 . S
Eu147 C152 2.852 1_565 S
Eu147 O163 2.324 1_556 S
Eu147 O167 2.326 1_565 S
Eu147 O169 2.500 1_565 S
Eu147 O170 2.473 1_565 S
C148 O145 1.255 . S
C148 O149 1.247 . S
O149 C148 1.247 . S
C150 O162 1.242 . S
C150 O163 1.258 . S
O151 Eu147 2.292 . S
O151 C153 1.255 . S
C152 Eu147 2.852 1_545 S
C152 C156 1.503 . S
C152 O169 1.273 . S
C152 O170 1.257 . S
C153 O151 1.255 . S
C153 O154 1.247 . S
O154 C153 1.247 . S
C155 O167 1.242 . S
C155 O168 1.258 . S
C156 C152 1.503 . S
C156 C157 1.379 . S
C156 C161 1.392 . S
C157 C156 1.379 . S
C157 C158 1.404 . S
C157 H171 0.929 . S
C158 C157 1.404 . S
C158 C159 1.389 . S
C159 C158 1.389 . S
C159 C160 1.399 . S
C159 H172 0.931 . S
C160 C159 1.399 . S
C160 C161 1.390 . S
C161 C156 1.392 . S
C161 C160 1.390 . S
C161 H173 0.929 . S
O162 Tb146 2.326 1_565 S
O162 C150 1.242 . S
O163 Eu147 2.324 1_554 S
O163 C150 1.258 . S
O164 Tb146 2.500 1_565 S
O164 C166 1.273 . S
O165 Tb146 2.473 1_565 S
O165 C166 1.257 . S
C166 O164 1.273 . S
C166 O165 1.257 . S
O167 Eu147 2.326 1_545 S
O167 C155 1.242 . S
O168 Tb146 2.324 1_556 S
O168 C155 1.258 . S
O169 Eu147 2.500 1_545 S
O169 C152 1.273 . S
O170 Eu147 2.473 1_545 S
O170 C152 1.257 . S
H171 C157 0.929 . S
H172 C159 0.931 . S
H173 C161 0.929 . S
O174 Tb175 2.292 . S
O174 C177 1.255 . S
Tb175 O174 2.292 . S
Tb175 O191 2.326 1_545 S
Tb175 O193 2.500 1_545 S
Tb175 O194 2.473 1_545 S
Tb175 O197 2.324 . S
Eu176 O180 2.292 . S
Eu176 C181 2.852 1_565 S
Eu176 O192 2.324 . S
Eu176 O196 2.326 1_565 S
Eu176 O198 2.500 1_565 S
Eu176 O199 2.473 1_565 S
C177 O174 1.255 . S
C177 O178 1.247 . S
O178 C177 1.247 . S
C179 O191 1.242 . S
C179 O192 1.258 . S
O180 Eu176 2.292 . S
O180 C182 1.255 . S
C181 Eu176 2.852 1_545 S
C181 C185 1.503 . S
C181 O198 1.273 . S
C181 O199 1.257 . S
C182 O180 1.255 . S
C182 O183 1.247 . S
O183 C182 1.247 . S
C184 O196 1.242 . S
C184 O197 1.258 . S
C185 C181 1.503 . S
C185 C186 1.379 . S
C185 C190 1.392 . S
C186 C185 1.379 . S
C186 C187 1.404 . S
C186 H200 0.929 . S
C187 C186 1.404 . S
C187 C188 1.389 . S
C188 C187 1.389 . S
C188 C189 1.399 . S
C188 H201 0.931 . S
C189 C188 1.399 . S
C189 C190 1.390 . S
C190 C185 1.392 . S
C190 C189 1.390 . S
C190 H202 0.929 . S
O191 Tb175 2.326 1_565 S
O191 C179 1.242 . S
O192 Eu176 2.324 . S
O192 C179 1.258 . S
O193 Tb175 2.500 1_565 S
O193 C195 1.273 . S
O194 Tb175 2.473 1_565 S
O194 C195 1.257 . S
C195 O193 1.273 . S
C195 O194 1.257 . S
O196 Eu176 2.326 1_545 S
O196 C184 1.242 . S
O197 Tb175 2.324 . S
O197 C184 1.258 . S
O198 Eu176 2.500 1_545 S
O198 C181 1.273 . S
O199 Eu176 2.473 1_545 S
O199 C181 1.257 . S
H200 C186 0.929 . S
H201 C188 0.931 . S
H202 C190 0.929 . S
O203 Tb204 2.292 . S
O203 C206 1.255 . S
Tb204 O203 2.292 . S
Tb204 O220 2.326 . S
Tb204 O222 2.500 . S
Tb204 O223 2.473 . S
Tb204 O226 2.324 . S
Eu205 O209 2.292 . S
Eu205 C210 2.852 . S
Eu205 O221 2.324 . S
Eu205 O225 2.326 . S
Eu205 O227 2.500 . S
Eu205 O228 2.473 . S
C206 O203 1.255 . S
C206 O207 1.247 . S
O207 C206 1.247 . S
C208 O220 1.242 . S
C208 O221 1.258 . S
O209 Eu205 2.292 . S
O209 C211 1.255 . S
C210 Eu205 2.852 . S
C210 C214 1.503 . S
C210 O227 1.273 . S
C210 O228 1.257 . S
C211 O209 1.255 . S
C211 O212 1.247 . S
O212 C211 1.247 . S
C213 O225 1.242 . S
C213 O226 1.258 . S
C214 C210 1.503 . S
C214 C215 1.379 . S
C214 C219 1.392 . S
C215 C214 1.379 . S
C215 C216 1.404 . S
C215 H229 0.929 . S
C216 C215 1.404 . S
C216 C217 1.389 . S
C217 C216 1.389 . S
C217 C218 1.399 . S
C217 H230 0.931 . S
C218 C217 1.399 . S
C218 C219 1.390 . S
C219 C214 1.392 . S
C219 C218 1.390 . S
C219 H231 0.929 . S
O220 Tb204 2.326 . S
O220 C208 1.242 . S
O221 Eu205 2.324 . S
O221 C208 1.258 . S
O222 Tb204 2.500 . S
O222 C224 1.273 . S
O223 Tb204 2.473 . S
O223 C224 1.257 . S
C224 O222 1.273 . S
C224 O223 1.257 . S
O225 Eu205 2.326 . S
O225 C213 1.242 . S
O226 Tb204 2.324 . S
O226 C213 1.258 . S
O227 Eu205 2.500 . S
O227 C210 1.273 . S
O228 Eu205 2.473 . S
O228 C210 1.257 . S
H229 C215 0.929 . S
H230 C217 0.931 . S
H231 C219 0.929 . S
O232 Tb233 2.292 . S
O232 C235 1.255 . S
Tb233 O232 2.292 . S
Tb233 O249 2.326 . S
Tb233 O251 2.500 . S
Tb233 O252 2.473 . S
Tb233 O255 2.324 . S
Eu234 O238 2.292 . S
Eu234 C239 2.852 . S
Eu234 O250 2.324 . S
Eu234 O254 2.326 . S
Eu234 O256 2.500 . S
Eu234 O257 2.473 . S
C235 O232 1.255 . S
C235 O236 1.247 . S
O236 C235 1.247 . S
C237 O249 1.242 . S
C237 O250 1.258 . S
O238 Eu234 2.292 . S
O238 C240 1.255 . S
C239 Eu234 2.852 . S
C239 C243 1.503 . S
C239 O256 1.273 . S
C239 O257 1.257 . S
C240 O238 1.255 . S
C240 O241 1.247 . S
O241 C240 1.247 . S
C242 O254 1.242 . S
C242 O255 1.258 . S
C243 C239 1.503 . S
C243 C244 1.379 . S
C243 C248 1.392 . S
C244 C243 1.379 . S
C244 C245 1.404 . S
C244 H258 0.929 . S
C245 C244 1.404 . S
C245 C246 1.389 . S
C246 C245 1.389 . S
C246 C247 1.399 . S
C246 H259 0.931 . S
C247 C246 1.399 . S
C247 C248 1.390 . S
C248 C243 1.392 . S
C248 C247 1.390 . S
C248 H260 0.929 . S
O249 Tb233 2.326 . S
O249 C237 1.242 . S
O250 Eu234 2.324 . S
O250 C237 1.258 . S
O251 Tb233 2.500 . S
O251 C253 1.273 . S
O252 Tb233 2.473 . S
O252 C253 1.257 . S
C253 O251 1.273 . S
C253 O252 1.257 . S
O254 Eu234 2.326 . S
O254 C242 1.242 . S
O255 Tb233 2.324 . S
O255 C242 1.258 . S
O256 Eu234 2.500 . S
O256 C239 1.273 . S
O257 Eu234 2.473 . S
O257 C239 1.257 . S
H258 C244 0.929 . S
H259 C246 0.931 . S
H260 C248 0.929 . S
O261 Tb262 2.292 . S
O261 C264 1.255 . S
Tb262 O261 2.292 . S
Tb262 O278 2.326 . S
Tb262 O280 2.500 . S
Tb262 O281 2.473 . S
Tb262 O284 2.324 . S
Eu263 O267 2.292 . S
Eu263 C268 2.852 . S
Eu263 O279 2.324 . S
Eu263 O283 2.326 . S
Eu263 O285 2.500 . S
Eu263 O286 2.473 . S
C264 O261 1.255 . S
C264 O265 1.247 . S
O265 C264 1.247 . S
C266 O278 1.242 . S
C266 O279 1.258 . S
O267 Eu263 2.292 . S
O267 C269 1.255 . S
C268 Eu263 2.852 . S
C268 C272 1.503 . S
C268 O285 1.273 . S
C268 O286 1.257 . S
C269 O267 1.255 . S
C269 O270 1.247 . S
O270 C269 1.247 . S
C271 O283 1.242 . S
C271 O284 1.258 . S
C272 C268 1.503 . S
C272 C273 1.379 . S
C272 C277 1.392 . S
C273 C272 1.379 . S
C273 C274 1.404 . S
C273 H287 0.929 . S
C274 C273 1.404 . S
C274 C275 1.389 . S
C275 C274 1.389 . S
C275 C276 1.399 . S
C275 H288 0.931 . S
C276 C275 1.399 . S
C276 C277 1.390 . S
C277 C272 1.392 . S
C277 C276 1.390 . S
C277 H289 0.929 . S
O278 Tb262 2.326 . S
O278 C266 1.242 . S
O279 Eu263 2.324 . S
O279 C266 1.258 . S
O280 Tb262 2.500 . S
O280 C282 1.273 . S
O281 Tb262 2.473 . S
O281 C282 1.257 . S
C282 O280 1.273 . S
C282 O281 1.257 . S
O283 Eu263 2.326 . S
O283 C271 1.242 . S
O284 Tb262 2.324 . S
O284 C271 1.258 . S
O285 Eu263 2.500 . S
O285 C268 1.273 . S
O286 Eu263 2.473 . S
O286 C268 1.257 . S
H287 C273 0.929 . S
H288 C275 0.931 . S
H289 C277 0.929 . S
O290 Tb291 2.292 . S
O290 C293 1.255 . S
Tb291 O290 2.292 . S
Tb291 O307 2.326 . S
Tb291 O309 2.500 . S
Tb291 O310 2.473 . S
Tb291 O313 2.324 . S
Eu292 O296 2.292 . S
Eu292 C297 2.852 . S
Eu292 O308 2.324 . S
Eu292 O312 2.326 . S
Eu292 O314 2.500 . S
Eu292 O315 2.473 . S
C293 O290 1.255 . S
C293 O294 1.247 . S
O294 C293 1.247 . S
C295 O307 1.242 . S
C295 O308 1.258 . S
O296 Eu292 2.292 . S
O296 C298 1.255 . S
C297 Eu292 2.852 . S
C297 C301 1.503 . S
C297 O314 1.273 . S
C297 O315 1.257 . S
C298 O296 1.255 . S
C298 O299 1.247 . S
O299 C298 1.247 . S
C300 O312 1.242 . S
C300 O313 1.258 . S
C301 C297 1.503 . S
C301 C302 1.379 . S
C301 C306 1.392 . S
C302 C301 1.379 . S
C302 C303 1.404 . S
C302 H316 0.929 . S
C303 C302 1.404 . S
C303 C304 1.389 . S
C304 C303 1.389 . S
C304 C305 1.399 . S
C304 H317 0.931 . S
C305 C304 1.399 . S
C305 C306 1.390 . S
C306 C301 1.392 . S
C306 C305 1.390 . S
C306 H318 0.929 . S
O307 Tb291 2.326 . S
O307 C295 1.242 . S
O308 Eu292 2.324 . S
O308 C295 1.258 . S
O309 Tb291 2.500 . S
O309 C311 1.273 . S
O310 Tb291 2.473 . S
O310 C311 1.257 . S
C311 O309 1.273 . S
C311 O310 1.257 . S
O312 Eu292 2.326 . S
O312 C300 1.242 . S
O313 Tb291 2.324 . S
O313 C300 1.258 . S
O314 Eu292 2.500 . S
O314 C297 1.273 . S
O315 Eu292 2.473 . S
O315 C297 1.257 . S
H316 C302 0.929 . S
H317 C304 0.931 . S
H318 C306 0.929 . S
O319 Tb320 2.292 . S
O319 C322 1.255 . S
Tb320 O319 2.292 . S
Tb320 O336 2.326 . S
Tb320 O338 2.500 . S
Tb320 O339 2.473 . S
Tb320 O342 2.324 . S
Eu321 O325 2.292 . S
Eu321 C326 2.852 . S
Eu321 O337 2.324 . S
Eu321 O341 2.326 . S
Eu321 O343 2.500 . S
Eu321 O344 2.473 . S
C322 O319 1.255 . S
C322 O323 1.247 . S
O323 C322 1.247 . S
C324 O336 1.242 . S
C324 O337 1.258 . S
O325 Eu321 2.292 . S
O325 C327 1.255 . S
C326 Eu321 2.852 . S
C326 C330 1.503 . S
C326 O343 1.273 . S
C326 O344 1.257 . S
C327 O325 1.255 . S
C327 O328 1.247 . S
O328 C327 1.247 . S
C329 O341 1.242 . S
C329 O342 1.258 . S
C330 C326 1.503 . S
C330 C331 1.379 . S
C330 C335 1.392 . S
C331 C330 1.379 . S
C331 C332 1.404 . S
C331 H345 0.929 . S
C332 C331 1.404 . S
C332 C333 1.389 . S
C333 C332 1.389 . S
C333 C334 1.399 . S
C333 H346 0.931 . S
C334 C333 1.399 . S
C334 C335 1.390 . S
C335 C330 1.392 . S
C335 C334 1.390 . S
C335 H347 0.929 . S
O336 Tb320 2.326 . S
O336 C324 1.242 . S
O337 Eu321 2.324 . S
O337 C324 1.258 . S
O338 Tb320 2.500 . S
O338 C340 1.273 . S
O339 Tb320 2.473 . S
O339 C340 1.257 . S
C340 O338 1.273 . S
C340 O339 1.257 . S
O341 Eu321 2.326 . S
O341 C329 1.242 . S
O342 Tb320 2.324 . S
O342 C329 1.258 . S
O343 Eu321 2.500 . S
O343 C326 1.273 . S
O344 Eu321 2.473 . S
O344 C326 1.257 . S
H345 C331 0.929 . S
H346 C333 0.931 . S
H347 C335 0.929 . S
O348 Tb349 2.292 . S
O348 C351 1.255 . S
Tb349 O348 2.292 . S
Tb349 O365 2.326 . S
Tb349 O367 2.500 . S
Tb349 O368 2.473 . S
Tb349 O371 2.324 . S
Eu350 O354 2.292 . S
Eu350 C355 2.852 . S
Eu350 O366 2.324 . S
Eu350 O370 2.326 . S
Eu350 O372 2.500 . S
Eu350 O373 2.473 . S
C351 O348 1.255 . S
C351 O352 1.247 . S
O352 C351 1.247 . S
C353 O365 1.242 . S
C353 O366 1.258 . S
O354 Eu350 2.292 . S
O354 C356 1.255 . S
C355 Eu350 2.852 . S
C355 C359 1.503 . S
C355 O372 1.273 . S
C355 O373 1.257 . S
C356 O354 1.255 . S
C356 O357 1.247 . S
O357 C356 1.247 . S
C358 O370 1.242 . S
C358 O371 1.258 . S
C359 C355 1.503 . S
C359 C360 1.379 . S
C359 C364 1.392 . S
C360 C359 1.379 . S
C360 C361 1.404 . S
C360 H374 0.929 . S
C361 C360 1.404 . S
C361 C362 1.389 . S
C362 C361 1.389 . S
C362 C363 1.399 . S
C362 H375 0.931 . S
C363 C362 1.399 . S
C363 C364 1.390 . S
C364 C359 1.392 . S
C364 C363 1.390 . S
C364 H376 0.929 . S
O365 Tb349 2.326 . S
O365 C353 1.242 . S
O366 Eu350 2.324 . S
O366 C353 1.258 . S
O367 Tb349 2.500 . S
O367 C369 1.273 . S
O368 Tb349 2.473 . S
O368 C369 1.257 . S
C369 O367 1.273 . S
C369 O368 1.257 . S
O370 Eu350 2.326 . S
O370 C358 1.242 . S
O371 Tb349 2.324 . S
O371 C358 1.258 . S
O372 Eu350 2.500 . S
O372 C355 1.273 . S
O373 Eu350 2.473 . S
O373 C355 1.257 . S
H374 C360 0.929 . S
H375 C362 0.931 . S
H376 C364 0.929 . S
O377 Tb378 2.292 . S
O377 C380 1.255 . S
Tb378 O377 2.292 . S
Tb378 O394 2.326 . S
Tb378 O396 2.500 . S
Tb378 O397 2.473 . S
Tb378 O400 2.324 . S
Eu379 O383 2.292 . S
Eu379 C384 2.852 . S
Eu379 O395 2.324 . S
Eu379 O399 2.326 . S
Eu379 O401 2.500 . S
Eu379 O402 2.473 . S
C380 O377 1.255 . S
C380 O381 1.247 . S
O381 C380 1.247 . S
C382 O394 1.242 . S
C382 O395 1.258 . S
O383 Eu379 2.292 . S
O383 C385 1.255 . S
C384 Eu379 2.852 . S
C384 C388 1.503 . S
C384 O401 1.273 . S
C384 O402 1.257 . S
C385 O383 1.255 . S
C385 O386 1.247 . S
O386 C385 1.247 . S
C387 O399 1.242 . S
C387 O400 1.258 . S
C388 C384 1.503 . S
C388 C389 1.379 . S
C388 C393 1.392 . S
C389 C388 1.379 . S
C389 C390 1.404 . S
C389 H403 0.929 . S
C390 C389 1.404 . S
C390 C391 1.389 . S
C391 C390 1.389 . S
C391 C392 1.399 . S
C391 H404 0.931 . S
C392 C391 1.399 . S
C392 C393 1.390 . S
C393 C388 1.392 . S
C393 C392 1.390 . S
C393 H405 0.929 . S
O394 Tb378 2.326 . S
O394 C382 1.242 . S
O395 Eu379 2.324 . S
O395 C382 1.258 . S
O396 Tb378 2.500 . S
O396 C398 1.273 . S
O397 Tb378 2.473 . S
O397 C398 1.257 . S
C398 O396 1.273 . S
C398 O397 1.257 . S
O399 Eu379 2.326 . S
O399 C387 1.242 . S
O400 Tb378 2.324 . S
O400 C387 1.258 . S
O401 Eu379 2.500 . S
O401 C384 1.273 . S
O402 Eu379 2.473 . S
O402 C384 1.257 . S
H403 C389 0.929 . S
H404 C391 0.931 . S
H405 C393 0.929 . S
O406 Tb407 2.292 . S
O406 C409 1.255 . S
Tb407 O406 2.292 . S
Tb407 O423 2.326 . S
Tb407 O425 2.500 . S
Tb407 O426 2.473 . S
Tb407 O429 2.324 . S
Eu408 O412 2.292 . S
Eu408 C413 2.852 . S
Eu408 O424 2.324 . S
Eu408 O428 2.326 . S
Eu408 O430 2.500 . S
Eu408 O431 2.473 . S
C409 O406 1.255 . S
C409 O410 1.247 . S
O410 C409 1.247 . S
C411 O423 1.242 . S
C411 O424 1.258 . S
O412 Eu408 2.292 . S
O412 C414 1.255 . S
C413 Eu408 2.852 . S
C413 C417 1.503 . S
C413 O430 1.273 . S
C413 O431 1.257 . S
C414 O412 1.255 . S
C414 O415 1.247 . S
O415 C414 1.247 . S
C416 O428 1.242 . S
C416 O429 1.258 . S
C417 C413 1.503 . S
C417 C418 1.379 . S
C417 C422 1.392 . S
C418 C417 1.379 . S
C418 C419 1.404 . S
C418 H432 0.929 . S
C419 C418 1.404 . S
C419 C420 1.389 . S
C420 C419 1.389 . S
C420 C421 1.399 . S
C420 H433 0.931 . S
C421 C420 1.399 . S
C421 C422 1.390 . S
C422 C417 1.392 . S
C422 C421 1.390 . S
C422 H434 0.929 . S
O423 Tb407 2.326 . S
O423 C411 1.242 . S
O424 Eu408 2.324 . S
O424 C411 1.258 . S
O425 Tb407 2.500 . S
O425 C427 1.273 . S
O426 Tb407 2.473 . S
O426 C427 1.257 . S
C427 O425 1.273 . S
C427 O426 1.257 . S
O428 Eu408 2.326 . S
O428 C416 1.242 . S
O429 Tb407 2.324 . S
O429 C416 1.258 . S
O430 Eu408 2.500 . S
O430 C413 1.273 . S
O431 Eu408 2.473 . S
O431 C413 1.257 . S
H432 C418 0.929 . S
H433 C420 0.931 . S
H434 C422 0.929 . S
O435 Tb436 2.292 . S
O435 C438 1.255 . S
Tb436 O435 2.292 . S
Tb436 O452 2.326 . S
Tb436 O454 2.500 . S
Tb436 O455 2.473 . S
Tb436 O458 2.324 . S
Eu437 O441 2.292 . S
Eu437 C442 2.852 . S
Eu437 O453 2.324 . S
Eu437 O457 2.326 . S
Eu437 O459 2.500 . S
Eu437 O460 2.473 . S
C438 O435 1.255 . S
C438 O439 1.247 . S
O439 C438 1.247 . S
C440 O452 1.242 . S
C440 O453 1.258 . S
O441 Eu437 2.292 . S
O441 C443 1.255 . S
C442 Eu437 2.852 . S
C442 C446 1.503 . S
C442 O459 1.273 . S
C442 O460 1.257 . S
C443 O441 1.255 . S
C443 O444 1.247 . S
O444 C443 1.247 . S
C445 O457 1.242 . S
C445 O458 1.258 . S
C446 C442 1.503 . S
C446 C447 1.379 . S
C446 C451 1.392 . S
C447 C446 1.379 . S
C447 C448 1.404 . S
C447 H461 0.929 . S
C448 C447 1.404 . S
C448 C449 1.389 . S
C449 C448 1.389 . S
C449 C450 1.399 . S
C449 H462 0.931 . S
C450 C449 1.399 . S
C450 C451 1.390 . S
C451 C446 1.392 . S
C451 C450 1.390 . S
C451 H463 0.929 . S
O452 Tb436 2.326 . S
O452 C440 1.242 . S
O453 Eu437 2.324 . S
O453 C440 1.258 . S
O454 Tb436 2.500 . S
O454 C456 1.273 . S
O455 Tb436 2.473 . S
O455 C456 1.257 . S
C456 O454 1.273 . S
C456 O455 1.257 . S
O457 Eu437 2.326 . S
O457 C445 1.242 . S
O458 Tb436 2.324 . S
O458 C445 1.258 . S
O459 Eu437 2.500 . S
O459 C442 1.273 . S
O460 Eu437 2.473 . S
O460 C442 1.257 . S
H461 C447 0.929 . S
H462 C449 0.931 . S
H463 C451 0.929 . S
O464 Tb465 2.292 . S
O464 C467 1.255 . S
Tb465 O464 2.292 . S
Tb465 O481 2.326 . S
Tb465 O483 2.500 . S
Tb465 O484 2.473 . S
Tb465 O487 2.324 . S
Eu466 O470 2.292 . S
Eu466 C471 2.852 . S
Eu466 O482 2.324 . S
Eu466 O486 2.326 . S
Eu466 O488 2.500 . S
Eu466 O489 2.473 . S
C467 O464 1.255 . S
C467 O468 1.247 . S
O468 C467 1.247 . S
C469 O481 1.242 . S
C469 O482 1.258 . S
O470 Eu466 2.292 . S
O470 C472 1.255 . S
C471 Eu466 2.852 . S
C471 C475 1.503 . S
C471 O488 1.273 . S
C471 O489 1.257 . S
C472 O470 1.255 . S
C472 O473 1.247 . S
O473 C472 1.247 . S
C474 O486 1.242 . S
C474 O487 1.258 . S
C475 C471 1.503 . S
C475 C476 1.379 . S
C475 C480 1.392 . S
C476 C475 1.379 . S
C476 C477 1.404 . S
C476 H490 0.929 . S
C477 C476 1.404 . S
C477 C478 1.389 . S
C478 C477 1.389 . S
C478 C479 1.399 . S
C478 H491 0.931 . S
C479 C478 1.399 . S
C479 C480 1.390 . S
C480 C475 1.392 . S
C480 C479 1.390 . S
C480 H492 0.929 . S
O481 Tb465 2.326 . S
O481 C469 1.242 . S
O482 Eu466 2.324 . S
O482 C469 1.258 . S
O483 Tb465 2.500 . S
O483 C485 1.273 . S
O484 Tb465 2.473 . S
O484 C485 1.257 . S
C485 O483 1.273 . S
C485 O484 1.257 . S
O486 Eu466 2.326 . S
O486 C474 1.242 . S
O487 Tb465 2.324 . S
O487 C474 1.258 . S
O488 Eu466 2.500 . S
O488 C471 1.273 . S
O489 Eu466 2.473 . S
O489 C471 1.257 . S
H490 C476 0.929 . S
H491 C478 0.931 . S
H492 C480 0.929 . S
O493 Tb494 2.292 . S
O493 C496 1.255 . S
Tb494 O493 2.292 . S
Tb494 O510 2.326 1_565 S
Tb494 O512 2.500 1_565 S
Tb494 O513 2.473 1_565 S
Tb494 O516 2.324 . S
Eu495 O499 2.292 . S
Eu495 C500 2.852 1_545 S
Eu495 O511 2.324 . S
Eu495 O515 2.326 1_545 S
Eu495 O517 2.500 1_545 S
Eu495 O518 2.473 1_545 S
C496 O493 1.255 . S
C496 O497 1.247 . S
O497 C496 1.247 . S
C498 O510 1.242 . S
C498 O511 1.258 . S
O499 Eu495 2.292 . S
O499 C501 1.255 . S
C500 Eu495 2.852 1_565 S
C500 C504 1.503 . S
C500 O517 1.273 . S
C500 O518 1.257 . S
C501 O499 1.255 . S
C501 O502 1.247 . S
O502 C501 1.247 . S
C503 O515 1.242 . S
C503 O516 1.258 . S
C504 C500 1.503 . S
C504 C505 1.379 . S
C504 C509 1.392 . S
C505 C504 1.379 . S
C505 C506 1.404 . S
C505 H519 0.929 . S
C506 C505 1.404 . S
C506 C507 1.389 . S
C507 C506 1.389 . S
C507 C508 1.399 . S
C507 H520 0.931 . S
C508 C507 1.399 . S
C508 C509 1.390 . S
C509 C504 1.392 . S
C509 C508 1.390 . S
C509 H521 0.929 . S
O510 Tb494 2.326 1_545 S
O510 C498 1.242 . S
O511 Eu495 2.324 . S
O511 C498 1.258 . S
O512 Tb494 2.500 1_545 S
O512 C514 1.273 . S
O513 Tb494 2.473 1_545 S
O513 C514 1.257 . S
C514 O512 1.273 . S
C514 O513 1.257 . S
O515 Eu495 2.326 1_565 S
O515 C503 1.242 . S
O516 Tb494 2.324 . S
O516 C503 1.258 . S
O517 Eu495 2.500 1_565 S
O517 C500 1.273 . S
O518 Eu495 2.473 1_565 S
O518 C500 1.257 . S
H519 C505 0.929 . S
H520 C507 0.931 . S
H521 C509 0.929 . S
O522 Tb523 2.292 . S
O522 C525 1.255 . S
Tb523 O522 2.292 . S
Tb523 O539 2.326 1_565 S
Tb523 O541 2.500 1_565 S
Tb523 O542 2.473 1_565 S
Tb523 O545 2.324 . S
Eu524 O528 2.292 . S
Eu524 C529 2.852 1_545 S
Eu524 O540 2.324 . S
Eu524 O544 2.326 1_545 S
Eu524 O546 2.500 1_545 S
Eu524 O547 2.473 1_545 S
C525 O522 1.255 . S
C525 O526 1.247 . S
O526 C525 1.247 . S
C527 O539 1.242 . S
C527 O540 1.258 . S
O528 Eu524 2.292 . S
O528 C530 1.255 . S
C529 Eu524 2.852 1_565 S
C529 C533 1.503 . S
C529 O546 1.273 . S
C529 O547 1.257 . S
C530 O528 1.255 . S
C530 O531 1.247 . S
O531 C530 1.247 . S
C532 O544 1.242 . S
C532 O545 1.258 . S
C533 C529 1.503 . S
C533 C534 1.379 . S
C533 C538 1.392 . S
C534 C533 1.379 . S
C534 C535 1.404 . S
C534 H548 0.929 . S
C535 C534 1.404 . S
C535 C536 1.389 . S
C536 C535 1.389 . S
C536 C537 1.399 . S
C536 H549 0.931 . S
C537 C536 1.399 . S
C537 C538 1.390 . S
C538 C533 1.392 . S
C538 C537 1.390 . S
C538 H550 0.929 . S
O539 Tb523 2.326 1_545 S
O539 C527 1.242 . S
O540 Eu524 2.324 . S
O540 C527 1.258 . S
O541 Tb523 2.500 1_545 S
O541 C543 1.273 . S
O542 Tb523 2.473 1_545 S
O542 C543 1.257 . S
C543 O541 1.273 . S
C543 O542 1.257 . S
O544 Eu524 2.326 1_565 S
O544 C532 1.242 . S
O545 Tb523 2.324 . S
O545 C532 1.258 . S
O546 Eu524 2.500 1_565 S
O546 C529 1.273 . S
O547 Eu524 2.473 1_565 S
O547 C529 1.257 . S
H548 C534 0.929 . S
H549 C536 0.931 . S
H550 C538 0.929 . S
O551 Tb552 2.292 . S
O551 C554 1.255 . S
Tb552 O551 2.292 . S
Tb552 O568 2.326 . S
Tb552 O570 2.500 . S
Tb552 O571 2.473 . S
Tb552 O574 2.324 . S
Eu553 O557 2.292 . S
Eu553 C558 2.852 . S
Eu553 O569 2.324 . S
Eu553 O573 2.326 . S
Eu553 O575 2.500 . S
Eu553 O576 2.473 . S
C554 O551 1.255 . S
C554 O555 1.247 . S
O555 C554 1.247 . S
C556 O568 1.242 . S
C556 O569 1.258 . S
O557 Eu553 2.292 . S
O557 C559 1.255 . S
C558 Eu553 2.852 . S
C558 C562 1.503 . S
C558 O575 1.273 . S
C558 O576 1.257 . S
C559 O557 1.255 . S
C559 O560 1.247 . S
O560 C559 1.247 . S
C561 O573 1.242 . S
C561 O574 1.258 . S
C562 C558 1.503 . S
C562 C563 1.379 . S
C562 C567 1.392 . S
C563 C562 1.379 . S
C563 C564 1.404 . S
C563 H577 0.929 . S
C564 C563 1.404 . S
C564 C565 1.389 . S
C565 C564 1.389 . S
C565 C566 1.399 . S
C565 H578 0.931 . S
C566 C565 1.399 . S
C566 C567 1.390 . S
C567 C562 1.392 . S
C567 C566 1.390 . S
C567 H579 0.929 . S
O568 Tb552 2.326 . S
O568 C556 1.242 . S
O569 Eu553 2.324 . S
O569 C556 1.258 . S
O570 Tb552 2.500 . S
O570 C572 1.273 . S
O571 Tb552 2.473 . S
O571 C572 1.257 . S
C572 O570 1.273 . S
C572 O571 1.257 . S
O573 Eu553 2.326 . S
O573 C561 1.242 . S
O574 Tb552 2.324 . S
O574 C561 1.258 . S
O575 Eu553 2.500 . S
O575 C558 1.273 . S
O576 Eu553 2.473 . S
O576 C558 1.257 . S
H577 C563 0.929 . S
H578 C565 0.931 . S
H579 C567 0.929 . S
O580 Tb581 2.292 . S
O580 C583 1.255 . S
Tb581 O580 2.292 . S
Tb581 O597 2.326 . S
Tb581 O599 2.500 . S
Tb581 O600 2.473 . S
Tb581 O603 2.324 . S
Eu582 O586 2.292 . S
Eu582 C587 2.852 . S
Eu582 O598 2.324 . S
Eu582 O602 2.326 . S
Eu582 O604 2.500 . S
Eu582 O605 2.473 . S
C583 O580 1.255 . S
C583 O584 1.247 . S
O584 C583 1.247 . S
C585 O597 1.242 . S
C585 O598 1.258 . S
O586 Eu582 2.292 . S
O586 C588 1.255 . S
C587 Eu582 2.852 . S
C587 C591 1.503 . S
C587 O604 1.273 . S
C587 O605 1.257 . S
C588 O586 1.255 . S
C588 O589 1.247 . S
O589 C588 1.247 . S
C590 O602 1.242 . S
C590 O603 1.258 . S
C591 C587 1.503 . S
C591 C592 1.379 . S
C591 C596 1.392 . S
C592 C591 1.379 . S
C592 C593 1.404 . S
C592 H606 0.929 . S
C593 C592 1.404 . S
C593 C594 1.389 . S
C594 C593 1.389 . S
C594 C595 1.399 . S
C594 H607 0.931 . S
C595 C594 1.399 . S
C595 C596 1.390 . S
C596 C591 1.392 . S
C596 C595 1.390 . S
C596 H608 0.929 . S
O597 Tb581 2.326 . S
O597 C585 1.242 . S
O598 Eu582 2.324 . S
O598 C585 1.258 . S
O599 Tb581 2.500 . S
O599 C601 1.273 . S
O600 Tb581 2.473 . S
O600 C601 1.257 . S
C601 O599 1.273 . S
C601 O600 1.257 . S
O602 Eu582 2.326 . S
O602 C590 1.242 . S
O603 Tb581 2.324 . S
O603 C590 1.258 . S
O604 Eu582 2.500 . S
O604 C587 1.273 . S
O605 Eu582 2.473 . S
O605 C587 1.257 . S
H606 C592 0.929 . S
H607 C594 0.931 . S
H608 C596 0.929 . S
O609 Tb610 2.292 . S
O609 C612 1.255 . S
Tb610 O609 2.292 . S
Tb610 O626 2.326 1_545 S
Tb610 O628 2.500 1_545 S
Tb610 O629 2.473 1_545 S
Tb610 O632 2.324 . S
Eu611 O615 2.292 . S
Eu611 C616 2.852 1_565 S
Eu611 O627 2.324 . S
Eu611 O631 2.326 1_565 S
Eu611 O633 2.500 1_565 S
Eu611 O634 2.473 1_565 S
C612 O609 1.255 . S
C612 O613 1.247 . S
O613 C612 1.247 . S
C614 O626 1.242 . S
C614 O627 1.258 . S
O615 Eu611 2.292 . S
O615 C617 1.255 . S
C616 Eu611 2.852 1_545 S
C616 C620 1.503 . S
C616 O633 1.273 . S
C616 O634 1.257 . S
C617 O615 1.255 . S
C617 O618 1.247 . S
O618 C617 1.247 . S
C619 O631 1.242 . S
C619 O632 1.258 . S
C620 C616 1.503 . S
C620 C621 1.379 . S
C620 C625 1.392 . S
C621 C620 1.379 . S
C621 C622 1.404 . S
C621 H635 0.929 . S
C622 C621 1.404 . S
C622 C623 1.389 . S
C623 C622 1.389 . S
C623 C624 1.399 . S
C623 H636 0.931 . S
C624 C623 1.399 . S
C624 C625 1.390 . S
C625 C620 1.392 . S
C625 C624 1.390 . S
C625 H637 0.929 . S
O626 Tb610 2.326 1_565 S
O626 C614 1.242 . S
O627 Eu611 2.324 . S
O627 C614 1.258 . S
O628 Tb610 2.500 1_565 S
O628 C630 1.273 . S
O629 Tb610 2.473 1_565 S
O629 C630 1.257 . S
C630 O628 1.273 . S
C630 O629 1.257 . S
O631 Eu611 2.326 1_545 S
O631 C619 1.242 . S
O632 Tb610 2.324 . S
O632 C619 1.258 . S
O633 Eu611 2.500 1_545 S
O633 C616 1.273 . S
O634 Eu611 2.473 1_545 S
O634 C616 1.257 . S
H635 C621 0.929 . S
H636 C623 0.931 . S
H637 C625 0.929 . S
O638 Tb639 2.292 . S
O638 C641 1.255 . S
Tb639 O638 2.292 . S
Tb639 O655 2.326 1_545 S
Tb639 O657 2.500 1_545 S
Tb639 O658 2.473 1_545 S
Tb639 O661 2.324 . S
Eu640 O644 2.292 . S
Eu640 C645 2.852 1_565 S
Eu640 O656 2.324 . S
Eu640 O660 2.326 1_565 S
Eu640 O662 2.500 1_565 S
Eu640 O663 2.473 1_565 S
C641 O638 1.255 . S
C641 O642 1.247 . S
O642 C641 1.247 . S
C643 O655 1.242 . S
C643 O656 1.258 . S
O644 Eu640 2.292 . S
O644 C646 1.255 . S
C645 Eu640 2.852 1_545 S
C645 C649 1.503 . S
C645 O662 1.273 . S
C645 O663 1.257 . S
C646 O644 1.255 . S
C646 O647 1.247 . S
O647 C646 1.247 . S
C648 O660 1.242 . S
C648 O661 1.258 . S
C649 C645 1.503 . S
C649 C650 1.379 . S
C649 C654 1.392 . S
C650 C649 1.379 . S
C650 C651 1.404 . S
C650 H664 0.929 . S
C651 C650 1.404 . S
C651 C652 1.389 . S
C652 C651 1.389 . S
C652 C653 1.399 . S
C652 H665 0.931 . S
C653 C652 1.399 . S
C653 C654 1.390 . S
C654 C649 1.392 . S
C654 C653 1.390 . S
C654 H666 0.929 . S
O655 Tb639 2.326 1_565 S
O655 C643 1.242 . S
O656 Eu640 2.324 . S
O656 C643 1.258 . S
O657 Tb639 2.500 1_565 S
O657 C659 1.273 . S
O658 Tb639 2.473 1_565 S
O658 C659 1.257 . S
C659 O657 1.273 . S
C659 O658 1.257 . S
O660 Eu640 2.326 1_545 S
O660 C648 1.242 . S
O661 Tb639 2.324 . S
O661 C648 1.258 . S
O662 Eu640 2.500 1_545 S
O662 C645 1.273 . S
O663 Eu640 2.473 1_545 S
O663 C645 1.257 . S
H664 C650 0.929 . S
H665 C652 0.931 . S
H666 C654 0.929 . S
O667 Tb668 2.292 . S
O667 C670 1.255 . S
Tb668 O667 2.292 . S
Tb668 O684 2.326 . S
Tb668 O686 2.500 . S
Tb668 O687 2.473 . S
Tb668 O690 2.324 . S
Eu669 O673 2.292 . S
Eu669 C674 2.852 . S
Eu669 O685 2.324 . S
Eu669 O689 2.326 . S
Eu669 O691 2.500 . S
Eu669 O692 2.473 . S
C670 O667 1.255 . S
C670 O671 1.247 . S
O671 C670 1.247 . S
C672 O684 1.242 . S
C672 O685 1.258 . S
O673 Eu669 2.292 . S
O673 C675 1.255 . S
C674 Eu669 2.852 . S
C674 C678 1.503 . S
C674 O691 1.273 . S
C674 O692 1.257 . S
C675 O673 1.255 . S
C675 O676 1.247 . S
O676 C675 1.247 . S
C677 O689 1.242 . S
C677 O690 1.258 . S
C678 C674 1.503 . S
C678 C679 1.379 . S
C678 C683 1.392 . S
C679 C678 1.379 . S
C679 C680 1.404 . S
C679 H693 0.929 . S
C680 C679 1.404 . S
C680 C681 1.389 . S
C681 C680 1.389 . S
C681 C682 1.399 . S
C681 H694 0.931 . S
C682 C681 1.399 . S
C682 C683 1.390 . S
C683 C678 1.392 . S
C683 C682 1.390 . S
C683 H695 0.929 . S
O684 Tb668 2.326 . S
O684 C672 1.242 . S
O685 Eu669 2.324 . S
O685 C672 1.258 . S
O686 Tb668 2.500 . S
O686 C688 1.273 . S
O687 Tb668 2.473 . S
O687 C688 1.257 . S
C688 O686 1.273 . S
C688 O687 1.257 . S
O689 Eu669 2.326 . S
O689 C677 1.242 . S
O690 Tb668 2.324 . S
O690 C677 1.258 . S
O691 Eu669 2.500 . S
O691 C674 1.273 . S
O692 Eu669 2.473 . S
O692 C674 1.257 . S
H693 C679 0.929 . S
H694 C681 0.931 . S
H695 C683 0.929 . S
O696 Tb697 2.292 . S
O696 C699 1.255 . S
Tb697 O696 2.292 . S
Tb697 O713 2.326 . S
Tb697 O715 2.500 . S
Tb697 O716 2.473 . S
Tb697 O719 2.324 1_556 S
Eu698 O702 2.292 . S
Eu698 C703 2.852 . S
Eu698 O714 2.324 1_554 S
Eu698 O718 2.326 . S
Eu698 O720 2.500 . S
Eu698 O721 2.473 . S
C699 O696 1.255 . S
C699 O700 1.247 . S
O700 C699 1.247 . S
C701 O713 1.242 . S
C701 O714 1.258 . S
O702 Eu698 2.292 . S
O702 C704 1.255 . S
C703 Eu698 2.852 . S
C703 C707 1.503 . S
C703 O720 1.273 . S
C703 O721 1.257 . S
C704 O702 1.255 . S
C704 O705 1.247 . S
O705 C704 1.247 . S
C706 O718 1.242 . S
C706 O719 1.258 . S
C707 C703 1.503 . S
C707 C708 1.379 . S
C707 C712 1.392 . S
C708 C707 1.379 . S
C708 C709 1.404 . S
C708 H722 0.929 . S
C709 C708 1.404 . S
C709 C710 1.389 . S
C710 C709 1.389 . S
C710 C711 1.399 . S
C710 H723 0.931 . S
C711 C710 1.399 . S
C711 C712 1.390 . S
C712 C707 1.392 . S
C712 C711 1.390 . S
C712 H724 0.929 . S
O713 Tb697 2.326 . S
O713 C701 1.242 . S
O714 Eu698 2.324 1_556 S
O714 C701 1.258 . S
O715 Tb697 2.500 . S
O715 C717 1.273 . S
O716 Tb697 2.473 . S
O716 C717 1.257 . S
C717 O715 1.273 . S
C717 O716 1.257 . S
O718 Eu698 2.326 . S
O718 C706 1.242 . S
O719 Tb697 2.324 1_554 S
O719 C706 1.258 . S
O720 Eu698 2.500 . S
O720 C703 1.273 . S
O721 Eu698 2.473 . S
O721 C703 1.257 . S
H722 C708 0.929 . S
H723 C710 0.931 . S
H724 C712 0.929 . S
O725 Tb726 2.292 . S
O725 C728 1.255 . S
Tb726 O725 2.292 . S
Tb726 O742 2.326 . S
Tb726 O744 2.500 . S
Tb726 O745 2.473 . S
Tb726 O748 2.324 1_556 S
Eu727 O731 2.292 . S
Eu727 C732 2.852 . S
Eu727 O743 2.324 1_554 S
Eu727 O747 2.326 . S
Eu727 O749 2.500 . S
Eu727 O750 2.473 . S
C728 O725 1.255 . S
C728 O729 1.247 . S
O729 C728 1.247 . S
C730 O742 1.242 . S
C730 O743 1.258 . S
O731 Eu727 2.292 . S
O731 C733 1.255 . S
C732 Eu727 2.852 . S
C732 C736 1.503 . S
C732 O749 1.273 . S
C732 O750 1.257 . S
C733 O731 1.255 . S
C733 O734 1.247 . S
O734 C733 1.247 . S
C735 O747 1.242 . S
C735 O748 1.258 . S
C736 C732 1.503 . S
C736 C737 1.379 . S
C736 C741 1.392 . S
C737 C736 1.379 . S
C737 C738 1.404 . S
C737 H751 0.929 . S
C738 C737 1.404 . S
C738 C739 1.389 . S
C739 C738 1.389 . S
C739 C740 1.399 . S
C739 H752 0.931 . S
C740 C739 1.399 . S
C740 C741 1.390 . S
C741 C736 1.392 . S
C741 C740 1.390 . S
C741 H753 0.929 . S
O742 Tb726 2.326 . S
O742 C730 1.242 . S
O743 Eu727 2.324 1_556 S
O743 C730 1.258 . S
O744 Tb726 2.500 . S
O744 C746 1.273 . S
O745 Tb726 2.473 . S
O745 C746 1.257 . S
C746 O744 1.273 . S
C746 O745 1.257 . S
O747 Eu727 2.326 . S
O747 C735 1.242 . S
O748 Tb726 2.324 1_554 S
O748 C735 1.258 . S
O749 Eu727 2.500 . S
O749 C732 1.273 . S
O750 Eu727 2.473 . S
O750 C732 1.257 . S
H751 C737 0.929 . S
H752 C739 0.931 . S
H753 C741 0.929 . S
O754 Tb755 2.292 . S
O754 C757 1.255 . S
Tb755 O754 2.292 . S
Tb755 O771 2.326 . S
Tb755 O773 2.500 . S
Tb755 O774 2.473 . S
Tb755 O777 2.324 . S
Eu756 O760 2.292 . S
Eu756 C761 2.852 . S
Eu756 O772 2.324 . S
Eu756 O776 2.326 . S
Eu756 O778 2.500 . S
Eu756 O779 2.473 . S
C757 O754 1.255 . S
C757 O758 1.247 . S
O758 C757 1.247 . S
C759 O771 1.242 . S
C759 O772 1.258 . S
O760 Eu756 2.292 . S
O760 C762 1.255 . S
C761 Eu756 2.852 . S
C761 C765 1.503 . S
C761 O778 1.273 . S
C761 O779 1.257 . S
C762 O760 1.255 . S
C762 O763 1.247 . S
O763 C762 1.247 . S
C764 O776 1.242 . S
C764 O777 1.258 . S
C765 C761 1.503 . S
C765 C766 1.379 . S
C765 C770 1.392 . S
C766 C765 1.379 . S
C766 C767 1.404 . S
C766 H780 0.929 . S
C767 C766 1.404 . S
C767 C768 1.389 . S
C768 C767 1.389 . S
C768 C769 1.399 . S
C768 H781 0.931 . S
C769 C768 1.399 . S
C769 C770 1.390 . S
C770 C765 1.392 . S
C770 C769 1.390 . S
C770 H782 0.929 . S
O771 Tb755 2.326 . S
O771 C759 1.242 . S
O772 Eu756 2.324 . S
O772 C759 1.258 . S
O773 Tb755 2.500 . S
O773 C775 1.273 . S
O774 Tb755 2.473 . S
O774 C775 1.257 . S
C775 O773 1.273 . S
C775 O774 1.257 . S
O776 Eu756 2.326 . S
O776 C764 1.242 . S
O777 Tb755 2.324 . S
O777 C764 1.258 . S
O778 Eu756 2.500 . S
O778 C761 1.273 . S
O779 Eu756 2.473 . S
O779 C761 1.257 . S
H780 C766 0.929 . S
H781 C768 0.931 . S
H782 C770 0.929 . S
O783 Tb784 2.292 . S
O783 C786 1.255 . S
Tb784 O783 2.292 . S
Tb784 O800 2.326 . S
Tb784 O802 2.500 . S
Tb784 O803 2.473 . S
Tb784 O806 2.324 . S
Eu785 O789 2.292 . S
Eu785 C790 2.852 . S
Eu785 O801 2.324 . S
Eu785 O805 2.326 . S
Eu785 O807 2.500 . S
Eu785 O808 2.473 . S
C786 O783 1.255 . S
C786 O787 1.247 . S
O787 C786 1.247 . S
C788 O800 1.242 . S
C788 O801 1.258 . S
O789 Eu785 2.292 . S
O789 C791 1.255 . S
C790 Eu785 2.852 . S
C790 C794 1.503 . S
C790 O807 1.273 . S
C790 O808 1.257 . S
C791 O789 1.255 . S
C791 O792 1.247 . S
O792 C791 1.247 . S
C793 O805 1.242 . S
C793 O806 1.258 . S
C794 C790 1.503 . S
C794 C795 1.379 . S
C794 C799 1.392 . S
C795 C794 1.379 . S
C795 C796 1.404 . S
C795 H809 0.929 . S
C796 C795 1.404 . S
C796 C797 1.389 . S
C797 C796 1.389 . S
C797 C798 1.399 . S
C797 H810 0.931 . S
C798 C797 1.399 . S
C798 C799 1.390 . S
C799 C794 1.392 . S
C799 C798 1.390 . S
C799 H811 0.929 . S
O800 Tb784 2.326 . S
O800 C788 1.242 . S
O801 Eu785 2.324 . S
O801 C788 1.258 . S
O802 Tb784 2.500 . S
O802 C804 1.273 . S
O803 Tb784 2.473 . S
O803 C804 1.257 . S
C804 O802 1.273 . S
C804 O803 1.257 . S
O805 Eu785 2.326 . S
O805 C793 1.242 . S
O806 Tb784 2.324 . S
O806 C793 1.258 . S
O807 Eu785 2.500 . S
O807 C790 1.273 . S
O808 Eu785 2.473 . S
O808 C790 1.257 . S
H809 C795 0.929 . S
H810 C797 0.931 . S
H811 C799 0.929 . S
O812 Tb813 2.292 . S
O812 C815 1.255 . S
Tb813 O812 2.292 . S
Tb813 O829 2.326 . S
Tb813 O831 2.500 . S
Tb813 O832 2.473 . S
Tb813 O835 2.324 1_554 S
Eu814 O818 2.292 . S
Eu814 C819 2.852 . S
Eu814 O830 2.324 1_556 S
Eu814 O834 2.326 . S
Eu814 O836 2.500 . S
Eu814 O837 2.473 . S
C815 O812 1.255 . S
C815 O816 1.247 . S
O816 C815 1.247 . S
C817 O829 1.242 . S
C817 O830 1.258 . S
O818 Eu814 2.292 . S
O818 C820 1.255 . S
C819 Eu814 2.852 . S
C819 C823 1.503 . S
C819 O836 1.273 . S
C819 O837 1.257 . S
C820 O818 1.255 . S
C820 O821 1.247 . S
O821 C820 1.247 . S
C822 O834 1.242 . S
C822 O835 1.258 . S
C823 C819 1.503 . S
C823 C824 1.379 . S
C823 C828 1.392 . S
C824 C823 1.379 . S
C824 C825 1.404 . S
C824 H838 0.929 . S
C825 C824 1.404 . S
C825 C826 1.389 . S
C826 C825 1.389 . S
C826 C827 1.399 . S
C826 H839 0.931 . S
C827 C826 1.399 . S
C827 C828 1.390 . S
C828 C823 1.392 . S
C828 C827 1.390 . S
C828 H840 0.929 . S
O829 Tb813 2.326 . S
O829 C817 1.242 . S
O830 Eu814 2.324 1_554 S
O830 C817 1.258 . S
O831 Tb813 2.500 . S
O831 C833 1.273 . S
O832 Tb813 2.473 . S
O832 C833 1.257 . S
C833 O831 1.273 . S
C833 O832 1.257 . S
O834 Eu814 2.326 . S
O834 C822 1.242 . S
O835 Tb813 2.324 1_556 S
O835 C822 1.258 . S
O836 Eu814 2.500 . S
O836 C819 1.273 . S
O837 Eu814 2.473 . S
O837 C819 1.257 . S
H838 C824 0.929 . S
H839 C826 0.931 . S
H840 C828 0.929 . S
O841 Tb842 2.292 . S
O841 C844 1.255 . S
Tb842 O841 2.292 . S
Tb842 O858 2.326 . S
Tb842 O860 2.500 . S
Tb842 O861 2.473 . S
Tb842 O864 2.324 1_554 S
Eu843 O847 2.292 . S
Eu843 C848 2.852 . S
Eu843 O859 2.324 1_556 S
Eu843 O863 2.326 . S
Eu843 O865 2.500 . S
Eu843 O866 2.473 . S
C844 O841 1.255 . S
C844 O845 1.247 . S
O845 C844 1.247 . S
C846 O858 1.242 . S
C846 O859 1.258 . S
O847 Eu843 2.292 . S
O847 C849 1.255 . S
C848 Eu843 2.852 . S
C848 C852 1.503 . S
C848 O865 1.273 . S
C848 O866 1.257 . S
C849 O847 1.255 . S
C849 O850 1.247 . S
O850 C849 1.247 . S
C851 O863 1.242 . S
C851 O864 1.258 . S
C852 C848 1.503 . S
C852 C853 1.379 . S
C852 C857 1.392 . S
C853 C852 1.379 . S
C853 C854 1.404 . S
C853 H867 0.929 . S
C854 C853 1.404 . S
C854 C855 1.389 . S
C855 C854 1.389 . S
C855 C856 1.399 . S
C855 H868 0.931 . S
C856 C855 1.399 . S
C856 C857 1.390 . S
C857 C852 1.392 . S
C857 C856 1.390 . S
C857 H869 0.929 . S
O858 Tb842 2.326 . S
O858 C846 1.242 . S
O859 Eu843 2.324 1_554 S
O859 C846 1.258 . S
O860 Tb842 2.500 . S
O860 C862 1.273 . S
O861 Tb842 2.473 . S
O861 C862 1.257 . S
C862 O860 1.273 . S
C862 O861 1.257 . S
O863 Eu843 2.326 . S
O863 C851 1.242 . S
O864 Tb842 2.324 1_556 S
O864 C851 1.258 . S
O865 Eu843 2.500 . S
O865 C848 1.273 . S
O866 Eu843 2.473 . S
O866 C848 1.257 . S
H867 C853 0.929 . S
H868 C855 0.931 . S
H869 C857 0.929 . S
O870 Tb871 2.292 . S
O870 C873 1.255 . S
Tb871 O870 2.292 . S
Tb871 O887 2.326 . S
Tb871 O889 2.500 . S
Tb871 O890 2.473 . S
Tb871 O893 2.324 . S
Eu872 O876 2.292 . S
Eu872 C877 2.852 . S
Eu872 O888 2.324 . S
Eu872 O892 2.326 . S
Eu872 O894 2.500 . S
Eu872 O895 2.473 . S
C873 O870 1.255 . S
C873 O874 1.247 . S
O874 C873 1.247 . S
C875 O887 1.242 . S
C875 O888 1.258 . S
O876 Eu872 2.292 . S
O876 C878 1.255 . S
C877 Eu872 2.852 . S
C877 C881 1.503 . S
C877 O894 1.273 . S
C877 O895 1.257 . S
C878 O876 1.255 . S
C878 O879 1.247 . S
O879 C878 1.247 . S
C880 O892 1.242 . S
C880 O893 1.258 . S
C881 C877 1.503 . S
C881 C882 1.379 . S
C881 C886 1.392 . S
C882 C881 1.379 . S
C882 C883 1.404 . S
C882 H896 0.929 . S
C883 C882 1.404 . S
C883 C884 1.389 . S
C884 C883 1.389 . S
C884 C885 1.399 . S
C884 H897 0.931 . S
C885 C884 1.399 . S
C885 C886 1.390 . S
C886 C881 1.392 . S
C886 C885 1.390 . S
C886 H898 0.929 . S
O887 Tb871 2.326 . S
O887 C875 1.242 . S
O888 Eu872 2.324 . S
O888 C875 1.258 . S
O889 Tb871 2.500 . S
O889 C891 1.273 . S
O890 Tb871 2.473 . S
O890 C891 1.257 . S
C891 O889 1.273 . S
C891 O890 1.257 . S
O892 Eu872 2.326 . S
O892 C880 1.242 . S
O893 Tb871 2.324 . S
O893 C880 1.258 . S
O894 Eu872 2.500 . S
O894 C877 1.273 . S
O895 Eu872 2.473 . S
O895 C877 1.257 . S
H896 C882 0.929 . S
H897 C884 0.931 . S
H898 C886 0.929 . S
O899 Tb900 2.292 . S
O899 C902 1.255 . S
Tb900 O899 2.292 . S
Tb900 O916 2.326 . S
Tb900 O918 2.500 . S
Tb900 O919 2.473 . S
Tb900 O922 2.324 . S
Eu901 O905 2.292 . S
Eu901 C906 2.852 . S
Eu901 O917 2.324 . S
Eu901 O921 2.326 . S
Eu901 O923 2.500 . S
Eu901 O924 2.473 . S
C902 O899 1.255 . S
C902 O903 1.247 . S
O903 C902 1.247 . S
C904 O916 1.242 . S
C904 O917 1.258 . S
O905 Eu901 2.292 . S
O905 C907 1.255 . S
C906 Eu901 2.852 . S
C906 C910 1.503 . S
C906 O923 1.273 . S
C906 O924 1.257 . S
C907 O905 1.255 . S
C907 O908 1.247 . S
O908 C907 1.247 . S
C909 O921 1.242 . S
C909 O922 1.258 . S
C910 C906 1.503 . S
C910 C911 1.379 . S
C910 C915 1.392 . S
C911 C910 1.379 . S
C911 C912 1.404 . S
C911 H925 0.929 . S
C912 C911 1.404 . S
C912 C913 1.389 . S
C913 C912 1.389 . S
C913 C914 1.399 . S
C913 H926 0.931 . S
C914 C913 1.399 . S
C914 C915 1.390 . S
C915 C910 1.392 . S
C915 C914 1.390 . S
C915 H927 0.929 . S
O916 Tb900 2.326 . S
O916 C904 1.242 . S
O917 Eu901 2.324 . S
O917 C904 1.258 . S
O918 Tb900 2.500 . S
O918 C920 1.273 . S
O919 Tb900 2.473 . S
O919 C920 1.257 . S
C920 O918 1.273 . S
C920 O919 1.257 . S
O921 Eu901 2.326 . S
O921 C909 1.242 . S
O922 Tb900 2.324 . S
O922 C909 1.258 . S
O923 Eu901 2.500 . S
O923 C906 1.273 . S
O924 Eu901 2.473 . S
O924 C906 1.257 . S
H925 C911 0.929 . S
H926 C913 0.931 . S
H927 C915 0.929 . S
C928 C929 1.387 . S
C928 H932 0.950 . S
C928 C937 1.390 1_556 S
C929 C928 1.387 . S
C929 C931 1.387 1_655 S
H930 C937 0.950 . S
C931 C929 1.387 1_455 S
C931 C933 1.390 1_556 S
C931 H935 0.950 . S
H932 C928 0.950 . S
C933 C931 1.390 1_554 S
C933 C934 1.387 . S
C933 H936 0.950 . S
C934 C933 1.387 . S
C934 C937 1.387 1_455 S
H935 C931 0.950 . S
H936 C933 0.950 . S
C937 C928 1.390 1_554 S
C937 H930 0.950 . S
C937 C934 1.387 1_655 S
C938 C939 1.387 . S
C938 H942 0.950 . S
C938 C947 1.390 . S
C939 C938 1.387 . S
C939 C941 1.387 1_556 S
H940 C947 0.950 . S
C941 C939 1.387 1_554 S
C941 C943 1.390 . S
C941 H945 0.950 . S
H942 C938 0.950 . S
C943 C941 1.390 . S
C943 C944 1.387 . S
C943 H946 0.950 . S
C944 C943 1.387 . S
C944 C947 1.387 1_554 S
H945 C941 0.950 . S
H946 C943 0.950 . S
C947 C938 1.390 . S
C947 H940 0.950 . S
C947 C944 1.387 1_556 S
C948 C949 1.385 1_455 S
C948 H952 0.950 . S
C948 C957 1.393 . S
C949 C948 1.385 1_655 S
C949 C951 1.387 . S
H950 C957 0.950 . S
C951 C949 1.387 . S
C951 C953 1.393 . S
C951 H955 0.950 . S
H952 C948 0.950 . S
C953 C951 1.393 . S
C953 C954 1.385 1_655 S
C953 H956 0.950 . S
C954 C953 1.385 1_455 S
C954 C957 1.387 . S
H955 C951 0.950 . S
H956 C953 0.950 . S
C957 C948 1.393 . S
C957 H950 0.950 . S
C957 C954 1.387 . S
C958 C959 1.387 . S
C958 H962 0.950 . S
C958 C967 1.390 . S
C959 C958 1.387 . S
C959 C961 1.387 . S
H960 C967 0.950 . S
C961 C959 1.387 . S
C961 C963 1.390 . S
C961 H965 0.950 . S
H962 C958 0.950 . S
C963 C961 1.390 . S
C963 C964 1.387 . S
C963 H966 0.950 . S
C964 C963 1.387 . S
C964 C967 1.387 . S
H965 C961 0.950 . S
H966 C963 0.950 . S
C967 C958 1.390 . S
C967 H960 0.950 . S
C967 C964 1.387 . S
C968 C969 1.387 . S
C968 H972 0.950 . S
C968 C977 1.390 1_554 S
C969 C968 1.387 . S
C969 C971 1.387 . S
H970 C977 0.950 . S
C971 C969 1.387 . S
C971 C973 1.390 1_554 S
C971 H975 0.950 . S
H972 C968 0.950 . S
C973 C971 1.390 1_556 S
C973 C974 1.387 . S
C973 H976 0.950 . S
C974 C973 1.387 . S
C974 C977 1.387 . S
H975 C971 0.950 . S
H976 C973 0.950 . S
C977 C968 1.390 1_556 S
C977 H970 0.950 . S
C977 C974 1.387 . S
C978 C979 1.387 1_455 S
C978 H982 0.950 . S
C978 C987 1.390 . S
C979 C978 1.387 1_655 S
C979 C981 1.387 . S
H980 C987 0.950 . S
C981 C979 1.387 . S
C981 C983 1.390 . S
C981 H985 0.950 . S
H982 C978 0.950 . S
C983 C981 1.390 . S
C983 C984 1.387 1_655 S
C983 H986 0.950 . S
C984 C983 1.387 1_455 S
C984 C987 1.387 . S
H985 C981 0.950 . S
H986 C983 0.950 . S
C987 C978 1.390 . S
C987 H980 0.950 . S
C987 C984 1.387 . S
C988 C989 1.387 . S
C988 H992 0.950 . S
C988 C997 1.390 . S
C989 C988 1.387 . S
C989 C991 1.387 . S
H990 C997 0.950 . S
C991 C989 1.387 . S
C991 C993 1.390 . S
C991 H995 0.950 . S
H992 C988 0.950 . S
C993 C991 1.390 . S
C993 C994 1.387 . S
C993 H996 0.950 . S
C994 C993 1.387 . S
C994 C997 1.387 . S
H995 C991 0.950 . S
H996 C993 0.950 . S
C997 C988 1.390 . S
C997 H990 0.950 . S
C997 C994 1.387 . S
C998 C999 1.387 1_655 S
C998 H1002 0.950 . S
C998 C1007 1.390 . S
C999 C998 1.387 1_455 S
C999 C1001 1.387 1_565 S
H1000 C1007 0.950 . S
C1001 C999 1.387 1_545 S
C1001 C1003 1.390 . S
C1001 H1005 0.950 . S
H1002 C998 0.950 . S
C1003 C1001 1.390 . S
C1003 C1004 1.387 1_455 S
C1003 H1006 0.950 . S
C1004 C1003 1.387 1_655 S
C1004 C1007 1.387 1_545 S
H1005 C1001 0.950 . S
H1006 C1003 0.950 . S
C1007 C998 1.390 . S
C1007 H1000 0.950 . S
C1007 C1004 1.387 1_565 S
C1008 C1009 1.387 . S
C1008 H1012 0.950 . S
C1008 C1017 1.390 . S
C1009 C1008 1.387 . S
C1009 C1011 1.387 . S
H1010 C1017 0.950 . S
C1011 C1009 1.387 . S
C1011 C1013 1.390 . S
C1011 H1015 0.950 . S
H1012 C1008 0.950 . S
C1013 C1011 1.390 . S
C1013 C1014 1.387 . S
C1013 H1016 0.950 . S
C1014 C1013 1.387 . S
C1014 C1017 1.387 . S
H1015 C1011 0.950 . S
H1016 C1013 0.950 . S
C1017 C1008 1.390 . S
C1017 H1010 0.950 . S
C1017 C1014 1.387 . S
C1018 C1019 1.387 1_565 S
C1018 H1022 0.950 . S
C1018 C1027 1.390 . S
C1019 C1018 1.387 1_545 S
C1019 C1021 1.387 . S
H1020 C1027 0.950 . S
C1021 C1019 1.387 . S
C1021 C1023 1.390 . S
C1021 H1025 0.950 . S
H1022 C1018 0.950 . S
C1023 C1021 1.390 . S
C1023 C1024 1.387 1_545 S
C1023 H1026 0.950 . S
C1024 C1023 1.387 1_565 S
C1024 C1027 1.387 . S
H1025 C1021 0.950 . S
H1026 C1023 0.950 . S
C1027 C1018 1.390 . S
C1027 H1020 0.950 . S
C1027 C1024 1.387 . S
C1028 C1029 1.387 . S
C1028 H1032 0.950 . S
C1028 C1037 1.390 . S
C1029 C1028 1.387 . S
C1029 C1031 1.387 . S
H1030 C1037 0.950 . S
C1031 C1029 1.387 . S
C1031 C1033 1.390 . S
C1031 H1035 0.950 . S
H1032 C1028 0.950 . S
C1033 C1031 1.390 . S
C1033 C1034 1.387 . S
C1033 H1036 0.950 . S
C1034 C1033 1.387 . S
C1034 C1037 1.387 . S
H1035 C1031 0.950 . S
H1036 C1033 0.950 . S
C1037 C1028 1.390 . S
C1037 H1030 0.950 . S
C1037 C1034 1.387 . S
C1038 C1039 1.387 . S
C1038 H1042 0.950 . S
C1038 C1047 1.390 1_565 S
C1039 C1038 1.387 . S
C1039 C1041 1.387 . S
H1040 C1047 0.950 . S
C1041 C1039 1.387 . S
C1041 C1043 1.390 1_565 S
C1041 H1045 0.950 . S
H1042 C1038 0.950 . S
C1043 C1041 1.390 1_545 S
C1043 C1044 1.387 . S
C1043 H1046 0.950 . S
C1044 C1043 1.387 . S
C1044 C1047 1.387 . S
H1045 C1041 0.950 . S
H1046 C1043 0.950 . S
C1047 C1038 1.390 1_545 S
C1047 H1040 0.950 . S
C1047 C1044 1.387 . S
C1048 C1049 1.387 . S
C1048 H1052 0.950 . S
C1048 C1057 1.390 . S
C1049 C1048 1.387 . S
C1049 C1051 1.387 . S
H1050 C1057 0.950 . S
C1051 C1049 1.387 . S
C1051 C1053 1.390 . S
C1051 H1055 0.950 . S
H1052 C1048 0.950 . S
C1053 C1051 1.390 . S
C1053 C1054 1.387 . S
C1053 H1056 0.950 . S
C1054 C1053 1.387 . S
C1054 C1057 1.387 . S
H1055 C1051 0.950 . S
H1056 C1053 0.950 . S
C1057 C1048 1.390 . S
C1057 H1050 0.950 . S
C1057 C1054 1.387 . S
C1058 C1059 1.387 . S
C1058 H1062 0.950 . S
C1058 C1067 1.390 . S
C1059 C1058 1.387 . S
C1059 C1061 1.387 . S
H1060 C1067 0.950 . S
C1061 C1059 1.387 . S
C1061 C1063 1.390 . S
C1061 H1065 0.950 . S
H1062 C1058 0.950 . S
C1063 C1061 1.390 . S
C1063 C1064 1.387 . S
C1063 H1066 0.950 . S
C1064 C1063 1.387 . S
C1064 C1067 1.387 . S
H1065 C1061 0.950 . S
H1066 C1063 0.950 . S
C1067 C1058 1.390 . S
C1067 H1060 0.950 . S
C1067 C1064 1.387 . S
C1068 C1069 1.387 . S
C1068 H1072 0.950 . S
C1068 C1077 1.390 . S
C1069 C1068 1.387 . S
C1069 C1071 1.387 . S
H1070 C1077 0.950 . S
C1071 C1069 1.387 . S
C1071 C1073 1.390 . S
C1071 H1075 0.950 . S
H1072 C1068 0.950 . S
C1073 C1071 1.390 . S
C1073 C1074 1.387 . S
C1073 H1076 0.950 . S
C1074 C1073 1.387 . S
C1074 C1077 1.387 . S
H1075 C1071 0.950 . S
H1076 C1073 0.950 . S
C1077 C1068 1.390 . S
C1077 H1070 0.950 . S
C1077 C1074 1.387 . S
C1078 C1079 1.387 . S
C1078 H1082 0.950 . S
C1078 C1087 1.390 1_565 S
C1079 C1078 1.387 . S
C1079 C1081 1.387 1_554 S
H1080 C1087 0.950 . S
C1081 C1079 1.387 1_556 S
C1081 C1083 1.390 1_565 S
C1081 H1085 0.950 . S
H1082 C1078 0.950 . S
C1083 C1081 1.390 1_545 S
C1083 C1084 1.387 . S
C1083 H1086 0.950 . S
C1084 C1083 1.387 . S
C1084 C1087 1.387 1_556 S
H1085 C1081 0.950 . S
H1086 C1083 0.950 . S
C1087 C1078 1.390 1_545 S
C1087 H1080 0.950 . S
C1087 C1084 1.387 1_554 S
C1088 C1089 1.387 . S
C1088 H1092 0.950 . S
C1088 C1097 1.390 . S
C1089 C1088 1.387 . S
C1089 C1091 1.387 . S
H1090 C1097 0.950 . S
C1091 C1089 1.387 . S
C1091 C1093 1.390 . S
C1091 H1095 0.950 . S
H1092 C1088 0.950 . S
C1093 C1091 1.390 . S
C1093 C1094 1.387 . S
C1093 H1096 0.950 1_455 S
C1094 C1093 1.387 . S
C1094 C1097 1.387 . S
H1095 C1091 0.950 . S
H1096 C1093 0.950 1_655 S
C1097 C1088 1.390 . S
C1097 H1090 0.950 . S
C1097 C1094 1.387 . S
C1098 C1099 1.387 . S
C1098 H1102 0.950 1_545 S
C1098 C1107 1.390 . S
C1099 C1098 1.387 . S
C1099 C1101 1.387 . S
H1100 C1107 0.950 . S
C1101 C1099 1.387 . S
C1101 C1103 1.390 . S
C1101 H1105 0.950 . S
H1102 C1098 0.950 1_565 S
C1103 C1101 1.390 . S
C1103 C1104 1.387 . S
C1103 H1106 0.950 . S
C1104 C1103 1.387 . S
C1104 C1107 1.387 . S
H1105 C1101 0.950 . S
H1106 C1103 0.950 . S
C1107 C1098 1.390 . S
C1107 H1100 0.950 . S
C1107 C1104 1.387 . S
C1108 C1109 1.387 . S
C1108 H1112 0.950 . S
C1108 C1117 1.390 . S
C1109 C1108 1.387 . S
C1109 C1111 1.387 1_455 S
H1110 C1117 0.950 . S
C1111 C1109 1.387 1_655 S
C1111 C1113 1.390 1_655 S
C1111 H1115 0.950 . S
H1112 C1108 0.950 . S
C1113 C1111 1.390 1_455 S
C1113 C1114 1.387 . S
C1113 H1116 0.950 1_545 S
C1114 C1113 1.387 . S
C1114 C1117 1.387 . S
H1115 C1111 0.950 . S
H1116 C1113 0.950 1_565 S
C1117 C1108 1.390 . S
C1117 H1110 0.950 . S
C1117 C1114 1.387 . S
C1118 C1119 1.387 . S
C1118 H1122 0.950 . S
C1118 C1127 1.390 . S
C1119 C1118 1.387 . S
C1119 C1121 1.387 . S
H1120 C1127 0.950 . S
C1121 C1119 1.387 . S
C1121 C1123 1.390 . S
C1121 H1125 0.950 . S
H1122 C1118 0.950 . S
C1123 C1121 1.390 . S
C1123 C1124 1.387 . S
C1123 H1126 0.950 . S
C1124 C1123 1.387 . S
C1124 C1127 1.387 . S
H1125 C1121 0.950 . S
H1126 C1123 0.950 . S
C1127 C1118 1.390 . S
C1127 H1120 0.950 . S
C1127 C1124 1.387 . S
C1128 C1129 1.387 . S
C1128 H1132 0.950 . S
C1128 C1137 1.390 . S
C1129 C1128 1.387 . S
C1129 C1131 1.387 . S
H1130 C1137 0.950 . S
C1131 C1129 1.387 . S
C1131 C1133 1.390 . S
C1131 H1135 0.950 . S
H1132 C1128 0.950 . S
C1133 C1131 1.390 . S
C1133 C1134 1.387 . S
C1133 H1136 0.950 . S
C1134 C1133 1.387 . S
C1134 C1137 1.387 . S
H1135 C1131 0.950 . S
H1136 C1133 0.950 . S
C1137 C1128 1.390 . S
C1137 H1130 0.950 . S
C1137 C1134 1.387 . S
C1138 C1139 1.387 . S
C1138 H1142 0.950 1_565 S
C1138 C1147 1.390 . S
C1139 C1138 1.387 . S
C1139 C1141 1.387 . S
H1140 C1147 0.950 . S
C1141 C1139 1.387 . S
C1141 C1143 1.390 . S
C1141 H1145 0.950 . S
H1142 C1138 0.950 1_545 S
C1143 C1141 1.390 . S
C1143 C1144 1.387 . S
C1143 H1146 0.950 . S
C1144 C1143 1.387 . S
C1144 C1147 1.387 . S
H1145 C1141 0.950 . S
H1146 C1143 0.950 . S
C1147 C1138 1.390 . S
C1147 H1140 0.950 . S
C1147 C1144 1.387 . S
C1148 C1149 1.387 . S
C1148 H1152 0.950 . S
C1148 C1157 1.390 . S
C1149 C1148 1.387 . S
C1149 C1151 1.396 . S
H1150 C1157 0.950 . S
C1151 C1149 1.396 . S
C1151 C1153 1.395 . S
C1151 H1155 0.936 1_565 S
H1152 C1148 0.950 . S
C1153 C1151 1.395 . S
C1153 C1154 1.387 . S
C1153 H1156 0.950 1_565 S
C1154 C1153 1.387 . S
C1154 C1157 1.387 . S
H1155 C1151 0.936 1_545 S
H1156 C1153 0.950 1_545 S
C1157 C1148 1.390 . S
C1157 H1150 0.950 . S
C1157 C1154 1.387 . S
C1158 C1159 1.387 . S
C1158 H1162 0.950 . S
C1158 C1167 1.390 . S
C1159 C1158 1.387 . S
C1159 C1161 1.387 . S
H1160 C1167 0.950 . S
C1161 C1159 1.387 . S
C1161 C1163 1.390 . S
C1161 H1165 0.950 . S
H1162 C1158 0.950 . S
C1163 C1161 1.390 . S
C1163 C1164 1.387 . S
C1163 H1166 0.950 . S
C1164 C1163 1.387 . S
C1164 C1167 1.387 . S
H1165 C1161 0.950 . S
H1166 C1163 0.950 . S
C1167 C1158 1.390 . S
C1167 H1160 0.950 . S
C1167 C1164 1.387 . S
C1168 C1169 1.387 . S
C1168 H1172 0.950 1_455 S
C1168 C1177 1.390 1_455 S
C1169 C1168 1.387 . S
C1169 C1171 1.387 . S
H1170 C1177 0.950 . S
C1171 C1169 1.387 . S
C1171 C1173 1.390 . S
C1171 H1175 0.950 . S
H1172 C1168 0.950 1_655 S
C1173 C1171 1.390 . S
C1173 C1174 1.387 . S
C1173 H1176 0.950 . S
C1174 C1173 1.387 . S
C1174 C1177 1.387 1_455 S
H1175 C1171 0.950 . S
H1176 C1173 0.950 . S
C1177 C1168 1.390 1_655 S
C1177 H1170 0.950 . S
C1177 C1174 1.387 1_655 S
C1178 C1179 1.387 . S
C1178 H1182 0.950 . S
C1178 C1187 1.390 . S
C1179 C1178 1.387 . S
C1179 C1181 1.387 . S
H1180 C1187 0.950 . S
C1181 C1179 1.387 . S
C1181 C1183 1.390 . S
C1181 H1185 0.950 . S
H1182 C1178 0.950 . S
C1183 C1181 1.390 . S
C1183 C1184 1.387 . S
C1183 H1186 0.950 . S
C1184 C1183 1.387 . S
C1184 C1187 1.387 . S
H1185 C1181 0.950 . S
H1186 C1183 0.950 . S
C1187 C1178 1.390 . S
C1187 H1180 0.950 . S
C1187 C1184 1.387 . S
C1188 C1189 1.387 . S
C1188 H1192 0.950 . S
C1188 C1197 1.390 . S
C1189 C1188 1.387 . S
C1189 C1191 1.387 . S
H1190 C1197 0.950 . S
C1191 C1189 1.387 . S
C1191 C1193 1.390 . S
C1191 H1195 0.950 . S
H1192 C1188 0.950 . S
C1193 C1191 1.390 . S
C1193 C1194 1.387 . S
C1193 H1196 0.950 . S
C1194 C1193 1.387 . S
C1194 C1197 1.387 . S
H1195 C1191 0.950 . S
H1196 C1193 0.950 . S
C1197 C1188 1.390 . S
C1197 H1190 0.950 . S
C1197 C1194 1.387 . S
C1198 C1199 1.387 . S
C1198 H1202 0.950 . S
C1198 C1207 1.390 . S
C1199 C1198 1.387 . S
C1199 C1201 1.387 . S
H1200 C1207 0.950 . S
C1201 C1199 1.387 . S
C1201 C1203 1.390 . S
C1201 H1205 0.950 . S
H1202 C1198 0.950 . S
C1203 C1201 1.390 . S
C1203 C1204 1.387 . S
C1203 H1206 0.950 . S
C1204 C1203 1.387 . S
C1204 C1207 1.387 . S
H1205 C1201 0.950 . S
H1206 C1203 0.950 . S
C1207 C1198 1.390 . S
C1207 H1200 0.950 . S
C1207 C1204 1.387 . S
C1208 C1209 1.387 . S
C1208 H1212 0.950 . S
C1208 C1217 1.390 . S
C1209 C1208 1.387 . S
C1209 C1211 1.387 . S
H1210 C1217 0.950 1_455 S
C1211 C1209 1.387 . S
C1211 C1213 1.390 . S
C1211 H1215 0.950 . S
H1212 C1208 0.950 . S
C1213 C1211 1.390 . S
C1213 C1214 1.387 . S
C1213 H1216 0.950 . S
C1214 C1213 1.387 . S
C1214 C1217 1.387 . S
H1215 C1211 0.950 . S
H1216 C1213 0.950 . S
C1217 C1208 1.390 . S
C1217 H1210 0.950 1_655 S
C1217 C1214 1.387 . S
C1218 C1219 1.387 . S
C1218 H1222 0.950 . S
C1218 C1227 1.390 . S
C1219 C1218 1.387 . S
C1219 C1221 1.387 . S
H1220 C1227 0.950 . S
C1221 C1219 1.387 . S
C1221 C1223 1.390 . S
C1221 H1225 0.950 . S
H1222 C1218 0.950 . S
C1223 C1221 1.390 . S
C1223 C1224 1.387 . S
C1223 H1226 0.950 . S
C1224 C1223 1.387 . S
C1224 C1227 1.387 . S
H1225 C1221 0.950 . S
H1226 C1223 0.950 . S
C1227 C1218 1.390 . S
C1227 H1220 0.950 . S
C1227 C1224 1.387 . S
C1228 C1229 1.387 . S
C1228 H1232 0.950 . S
C1228 C1237 1.390 . S
C1229 C1228 1.387 . S
C1229 C1231 1.387 . S
H1230 C1237 0.950 . S
C1231 C1229 1.387 . S
C1231 C1233 1.390 . S
C1231 H1235 0.950 . S
H1232 C1228 0.950 . S
C1233 C1231 1.390 . S
C1233 C1234 1.387 . S
C1233 H1236 0.950 . S
C1234 C1233 1.387 . S
C1234 C1237 1.387 . S
H1235 C1231 0.950 . S
H1236 C1233 0.950 . S
C1237 C1228 1.390 . S
C1237 H1230 0.950 . S
C1237 C1234 1.387 . S
C1238 C1239 1.387 . S
C1238 H1242 0.950 . S
C1238 C1247 1.390 . S
C1239 C1238 1.387 . S
C1239 C1241 1.387 . S
H1240 C1247 0.950 . S
C1241 C1239 1.387 . S
C1241 C1243 1.390 . S
C1241 H1245 0.950 . S
H1242 C1238 0.950 . S
C1243 C1241 1.390 . S
C1243 C1244 1.387 . S
C1243 H1246 0.950 . S
C1244 C1243 1.387 . S
C1244 C1247 1.387 . S
H1245 C1241 0.950 . S
H1246 C1243 0.950 . S
C1247 C1238 1.390 . S
C1247 H1240 0.950 . S
C1247 C1244 1.387 . S
C1248 C1249 1.387 . S
C1248 H1252 0.950 . S
C1248 C1257 1.390 . S
C1249 C1248 1.387 . S
C1249 C1251 1.387 . S
H1250 C1257 0.950 . S
C1251 C1249 1.387 . S
C1251 C1253 1.390 . S
C1251 H1255 0.950 . S
H1252 C1248 0.950 . S
C1253 C1251 1.390 . S
C1253 C1254 1.387 . S
C1253 H1256 0.950 . S
C1254 C1253 1.387 . S
C1254 C1257 1.387 . S
H1255 C1251 0.950 . S
H1256 C1253 0.950 . S
C1257 C1248 1.390 . S
C1257 H1250 0.950 . S
C1257 C1254 1.387 . S
C1258 C1259 1.387 . S
C1258 H1262 0.950 . S
C1258 C1267 1.390 . S
C1259 C1258 1.387 . S
C1259 C1261 1.398 . S
H1260 C1267 0.950 . S
C1261 C1259 1.398 . S
C1261 C1263 1.396 . S
C1261 H1265 0.933 1_545 S
H1262 C1258 0.950 . S
C1263 C1261 1.396 . S
C1263 C1264 1.387 . S
C1263 H1266 0.950 1_545 S
C1264 C1263 1.387 . S
C1264 C1267 1.387 . S
H1265 C1261 0.933 1_565 S
H1266 C1263 0.950 1_565 S
C1267 C1258 1.390 . S
C1267 H1260 0.950 . S
C1267 C1264 1.387 . S
C1268 C1269 1.387 . S
C1268 H1272 0.950 . S
C1268 C1277 1.390 . S
C1269 C1268 1.387 . S
C1269 C1271 1.387 . S
H1270 C1277 0.950 . S
C1271 C1269 1.387 . S
C1271 C1273 1.390 1_545 S
C1271 H1275 0.950 1_545 S
H1272 C1268 0.950 . S
C1273 C1271 1.390 1_565 S
C1273 C1274 1.387 1_565 S
C1273 H1276 0.950 . S
C1274 C1273 1.387 1_545 S
C1274 C1277 1.387 . S
H1275 C1271 0.950 1_565 S
H1276 C1273 0.950 . S
C1277 C1268 1.390 . S
C1277 H1270 0.950 . S
C1277 C1274 1.387 . S
C1278 C1279 1.387 . S
C1278 H1282 0.950 . S
C1278 C1287 1.390 . S
C1279 C1278 1.387 . S
C1279 C1281 1.387 . S
H1280 C1287 0.950 . S
C1281 C1279 1.387 . S
C1281 C1283 1.390 . S
C1281 H1285 0.950 . S
H1282 C1278 0.950 . S
C1283 C1281 1.390 . S
C1283 C1284 1.387 . S
C1283 H1286 0.950 . S
C1284 C1283 1.387 . S
C1284 C1287 1.387 . S
H1285 C1281 0.950 . S
H1286 C1283 0.950 . S
C1287 C1278 1.390 . S
C1287 H1280 0.950 . S
C1287 C1284 1.387 . S
C1288 C1289 1.387 . S
C1288 H1292 0.950 . S
C1288 C1297 1.390 . S
C1289 C1288 1.387 . S
C1289 C1291 1.387 . S
H1290 C1297 0.950 . S
C1291 C1289 1.387 . S
C1291 C1293 1.390 . S
C1291 H1295 0.950 . S
H1292 C1288 0.950 . S
C1293 C1291 1.390 . S
C1293 C1294 1.387 . S
C1293 H1296 0.950 . S
C1294 C1293 1.387 . S
C1294 C1297 1.387 . S
H1295 C1291 0.950 . S
H1296 C1293 0.950 . S
C1297 C1288 1.390 . S
C1297 H1290 0.950 . S
C1297 C1294 1.387 . S
C1298 C1299 1.387 . S
C1298 H1302 0.950 . S
C1298 C1307 1.390 . S
C1299 C1298 1.387 . S
C1299 C1301 1.387 . S
H1300 C1307 0.950 . S
C1301 C1299 1.387 . S
C1301 C1303 1.395 . S
C1301 H1305 0.950 1_565 S
H1302 C1298 0.950 . S
C1303 C1301 1.395 . S
C1303 C1304 1.396 . S
C1303 H1306 0.936 1_565 S
C1304 C1303 1.396 . S
C1304 C1307 1.387 . S
H1305 C1301 0.950 1_545 S
H1306 C1303 0.936 1_545 S
C1307 C1298 1.390 . S
C1307 H1300 0.950 . S
C1307 C1304 1.387 . S
C1308 C1309 1.387 . S
C1308 H1312 0.950 . S
C1308 C1317 1.390 . S
C1309 C1308 1.387 . S
C1309 C1311 1.387 . S
H1310 C1317 0.950 1_545 S
C1311 C1309 1.387 . S
C1311 C1313 1.390 . S
C1311 H1315 0.950 . S
H1312 C1308 0.950 . S
C1313 C1311 1.390 . S
C1313 C1314 1.387 . S
C1313 H1316 0.950 . S
C1314 C1313 1.387 . S
C1314 C1317 1.387 . S
H1315 C1311 0.950 . S
H1316 C1313 0.950 . S
C1317 C1308 1.390 . S
C1317 H1310 0.950 1_565 S
C1317 C1314 1.387 . S
C1318 C1319 1.387 . S
C1318 H1322 0.950 . S
C1318 C1327 1.390 . S
C1319 C1318 1.387 . S
C1319 C1321 1.387 . S
H1320 C1327 0.950 . S
C1321 C1319 1.387 . S
C1321 C1323 1.390 . S
C1321 H1325 0.950 . S
H1322 C1318 0.950 . S
C1323 C1321 1.390 . S
C1323 C1324 1.387 . S
C1323 H1326 0.950 . S
C1324 C1323 1.387 . S
C1324 C1327 1.387 . S
H1325 C1321 0.950 . S
H1326 C1323 0.950 . S
C1327 C1318 1.390 . S
C1327 H1320 0.950 . S
C1327 C1324 1.387 . S
C1328 C1329 1.387 . S
C1328 H1332 0.950 . S
C1328 C1337 1.390 . S
C1329 C1328 1.387 . S
C1329 C1331 1.387 . S
H1330 C1337 0.950 . S
C1331 C1329 1.387 . S
C1331 C1333 1.390 . S
C1331 H1335 0.950 . S
H1332 C1328 0.950 . S
C1333 C1331 1.390 . S
C1333 C1334 1.387 . S
C1333 H1336 0.950 . S
C1334 C1333 1.387 . S
C1334 C1337 1.387 . S
H1335 C1331 0.950 . S
H1336 C1333 0.950 . S
C1337 C1328 1.390 . S
C1337 H1330 0.950 . S
C1337 C1334 1.387 . S
C1338 C1339 1.387 . S
C1338 H1342 0.950 . S
C1338 C1347 1.390 . S
C1339 C1338 1.387 . S
C1339 C1341 1.387 . S
H1340 C1347 0.950 . S
C1341 C1339 1.387 . S
C1341 C1343 1.390 . S
C1341 H1345 0.950 . S
H1342 C1338 0.950 . S
C1343 C1341 1.390 . S
C1343 C1344 1.387 . S
C1343 H1346 0.950 . S
C1344 C1343 1.387 . S
C1344 C1347 1.387 . S
H1345 C1341 0.950 . S
H1346 C1343 0.950 . S
C1347 C1338 1.390 . S
C1347 H1340 0.950 . S
C1347 C1344 1.387 . S
C1348 C1349 1.387 . S
C1348 H1352 0.950 . S
C1348 C1357 1.390 . S
C1349 C1348 1.387 . S
C1349 C1351 1.387 . S
H1350 C1357 0.950 . S
C1351 C1349 1.387 . S
C1351 C1353 1.390 . S
C1351 H1355 0.950 . S
H1352 C1348 0.950 . S
C1353 C1351 1.390 . S
C1353 C1354 1.387 . S
C1353 H1356 0.950 . S
C1354 C1353 1.387 . S
C1354 C1357 1.387 . S
H1355 C1351 0.950 . S
H1356 C1353 0.950 . S
C1357 C1348 1.390 . S
C1357 H1350 0.950 . S
C1357 C1354 1.387 . S
C1358 C1359 1.387 . S
C1358 H1362 0.950 . S
C1358 C1367 1.390 . S
C1359 C1358 1.387 . S
C1359 C1361 1.387 . S
H1360 C1367 0.950 . S
C1361 C1359 1.387 . S
C1361 C1363 1.390 . S
C1361 H1365 0.950 . S
H1362 C1358 0.950 . S
C1363 C1361 1.390 . S
C1363 C1364 1.387 . S
C1363 H1366 0.950 . S
C1364 C1363 1.387 . S
C1364 C1367 1.387 . S
H1365 C1361 0.950 . S
H1366 C1363 0.950 . S
C1367 C1358 1.390 . S
C1367 H1360 0.950 . S
C1367 C1364 1.387 . S
C1368 C1369 1.387 . S
C1368 H1372 0.950 . S
C1368 C1377 1.390 . S
C1369 C1368 1.387 . S
C1369 C1371 1.387 . S
H1370 C1377 0.950 . S
C1371 C1369 1.387 . S
C1371 C1373 1.390 . S
C1371 H1375 0.950 . S
H1372 C1368 0.950 . S
C1373 C1371 1.390 . S
C1373 C1374 1.387 . S
C1373 H1376 0.950 . S
C1374 C1373 1.387 . S
C1374 C1377 1.387 . S
H1375 C1371 0.950 . S
H1376 C1373 0.950 . S
C1377 C1368 1.390 . S
C1377 H1370 0.950 . S
C1377 C1374 1.387 . S
C1378 C1379 1.387 . S
C1378 H1382 0.950 . S
C1378 C1387 1.390 . S
C1379 C1378 1.387 . S
C1379 C1381 1.387 . S
H1380 C1387 0.950 . S
C1381 C1379 1.387 . S
C1381 C1383 1.390 . S
C1381 H1385 0.950 . S
H1382 C1378 0.950 . S
C1383 C1381 1.390 . S
C1383 C1384 1.387 . S
C1383 H1386 0.950 . S
C1384 C1383 1.387 . S
C1384 C1387 1.387 . S
H1385 C1381 0.950 . S
H1386 C1383 0.950 . S
C1387 C1378 1.390 . S
C1387 H1380 0.950 . S
C1387 C1384 1.387 . S
C1388 C1389 1.387 . S
C1388 H1392 0.950 . S
C1388 C1397 1.390 . S
C1389 C1388 1.387 . S
C1389 C1391 1.387 . S
H1390 C1397 0.950 . S
C1391 C1389 1.387 . S
C1391 C1393 1.390 . S
C1391 H1395 0.950 . S
H1392 C1388 0.950 . S
C1393 C1391 1.390 . S
C1393 C1394 1.387 . S
C1393 H1396 0.950 . S
C1394 C1393 1.387 . S
C1394 C1397 1.387 . S
H1395 C1391 0.950 . S
H1396 C1393 0.950 . S
C1397 C1388 1.390 . S
C1397 H1390 0.950 . S
C1397 C1394 1.387 . S
C1398 C1399 1.387 . S
C1398 H1402 0.950 . S
C1398 C1407 1.390 . S
C1399 C1398 1.387 . S
C1399 C1401 1.387 . S
H1400 C1407 0.950 . S
C1401 C1399 1.387 . S
C1401 C1403 1.390 . S
C1401 H1405 0.950 . S
H1402 C1398 0.950 . S
C1403 C1401 1.390 . S
C1403 C1404 1.387 . S
C1403 H1406 0.950 . S
C1404 C1403 1.387 . S
C1404 C1407 1.387 . S
H1405 C1401 0.950 . S
H1406 C1403 0.950 . S
C1407 C1398 1.390 . S
C1407 H1400 0.950 . S
C1407 C1404 1.387 . S
C1408 C1409 1.387 . S
C1408 H1412 0.950 . S
C1408 C1417 1.390 . S
C1409 C1408 1.387 . S
C1409 C1411 1.387 . S
H1410 C1417 0.950 . S
C1411 C1409 1.387 . S
C1411 C1413 1.390 . S
C1411 H1415 0.950 . S
H1412 C1408 0.950 . S
C1413 C1411 1.390 . S
C1413 C1414 1.387 . S
C1413 H1416 0.950 . S
C1414 C1413 1.387 . S
C1414 C1417 1.387 . S
H1415 C1411 0.950 . S
H1416 C1413 0.950 . S
C1417 C1408 1.390 . S
C1417 H1410 0.950 . S
C1417 C1414 1.387 . S
C1418 C1419 1.387 . S
C1418 H1422 0.950 . S
C1418 C1427 1.390 . S
C1419 C1418 1.387 . S
C1419 C1421 1.387 . S
H1420 C1427 0.950 . S
C1421 C1419 1.387 . S
C1421 C1423 1.390 . S
C1421 H1425 0.950 . S
H1422 C1418 0.950 . S
C1423 C1421 1.390 . S
C1423 C1424 1.387 . S
C1423 H1426 0.950 . S
C1424 C1423 1.387 . S
C1424 C1427 1.387 . S
H1425 C1421 0.950 . S
H1426 C1423 0.950 . S
C1427 C1418 1.390 . S
C1427 H1420 0.950 . S
C1427 C1424 1.387 . S
C1428 C1429 1.387 . S
C1428 H1432 0.950 . S
C1428 C1437 1.390 . S
C1429 C1428 1.387 . S
C1429 C1431 1.387 . S
H1430 C1437 0.950 . S
C1431 C1429 1.387 . S
C1431 C1433 1.390 . S
C1431 H1435 0.950 . S
H1432 C1428 0.950 . S
C1433 C1431 1.390 . S
C1433 C1434 1.387 . S
C1433 H1436 0.950 . S
C1434 C1433 1.387 . S
C1434 C1437 1.387 . S
H1435 C1431 0.950 . S
H1436 C1433 0.950 . S
C1437 C1428 1.390 . S
C1437 H1430 0.950 . S
C1437 C1434 1.387 . S
C1438 C1439 1.387 . S
C1438 H1442 0.950 . S
C1438 C1447 1.390 . S
C1439 C1438 1.387 . S
C1439 C1441 1.387 . S
H1440 C1447 0.950 . S
C1441 C1439 1.387 . S
C1441 C1443 1.390 . S
C1441 H1445 0.950 . S
H1442 C1438 0.950 . S
C1443 C1441 1.390 . S
C1443 C1444 1.387 . S
C1443 H1446 0.950 . S
C1444 C1443 1.387 . S
C1444 C1447 1.387 . S
H1445 C1441 0.950 . S
H1446 C1443 0.950 . S
C1447 C1438 1.390 . S
C1447 H1440 0.950 . S
C1447 C1444 1.387 . S
C1448 C1449 1.387 . S
C1448 H1452 0.950 . S
C1448 C1457 1.390 . S
C1449 C1448 1.387 . S
C1449 C1451 1.387 . S
H1450 C1457 0.950 . S
C1451 C1449 1.387 . S
C1451 C1453 1.390 . S
C1451 H1455 0.950 . S
H1452 C1448 0.950 . S
C1453 C1451 1.390 . S
C1453 C1454 1.387 . S
C1453 H1456 0.950 . S
C1454 C1453 1.387 . S
C1454 C1457 1.387 . S
H1455 C1451 0.950 . S
H1456 C1453 0.950 . S
C1457 C1448 1.390 . S
C1457 H1450 0.950 . S
C1457 C1454 1.387 . S
C1458 C1459 1.387 . S
C1458 H1462 0.950 . S
C1458 C1467 1.390 . S
C1459 C1458 1.387 . S
C1459 C1461 1.387 . S
H1460 C1467 0.950 . S
C1461 C1459 1.387 . S
C1461 C1463 1.390 . S
C1461 H1465 0.950 . S
H1462 C1458 0.950 . S
C1463 C1461 1.390 . S
C1463 C1464 1.387 . S
C1463 H1466 0.950 . S
C1464 C1463 1.387 . S
C1464 C1467 1.387 . S
H1465 C1461 0.950 . S
H1466 C1463 0.950 . S
C1467 C1458 1.390 . S
C1467 H1460 0.950 . S
C1467 C1464 1.387 . S
C1468 C1469 1.387 . S
C1468 H1472 0.950 . S
C1468 C1477 1.390 . S
C1469 C1468 1.387 . S
C1469 C1471 1.387 . S
H1470 C1477 0.950 . S
C1471 C1469 1.387 . S
C1471 C1473 1.390 . S
C1471 H1475 0.950 . S
H1472 C1468 0.950 . S
C1473 C1471 1.390 . S
C1473 C1474 1.387 . S
C1473 H1476 0.950 . S
C1474 C1473 1.387 . S
C1474 C1477 1.387 . S
H1475 C1471 0.950 . S
H1476 C1473 0.950 . S
C1477 C1468 1.390 . S
C1477 H1470 0.950 . S
C1477 C1474 1.387 . S
C1478 C1479 1.387 . S
C1478 H1482 0.950 . S
C1478 C1487 1.390 . S
C1479 C1478 1.387 . S
C1479 C1481 1.387 . S
H1480 C1487 0.950 . S
C1481 C1479 1.387 . S
C1481 C1483 1.390 . S
C1481 H1485 0.950 . S
H1482 C1478 0.950 . S
C1483 C1481 1.390 . S
C1483 C1484 1.387 . S
C1483 H1486 0.950 . S
C1484 C1483 1.387 . S
C1484 C1487 1.387 . S
H1485 C1481 0.950 . S
H1486 C1483 0.950 . S
C1487 C1478 1.390 . S
C1487 H1480 0.950 . S
C1487 C1484 1.387 . S
C1488 C1489 1.387 . S
C1488 H1492 0.950 . S
C1488 C1497 1.390 . S
C1489 C1488 1.387 . S
C1489 C1491 1.387 . S
H1490 C1497 0.950 . S
C1491 C1489 1.387 . S
C1491 C1493 1.390 . S
C1491 H1495 0.950 . S
H1492 C1488 0.950 . S
C1493 C1491 1.390 . S
C1493 C1494 1.387 . S
C1493 H1496 0.950 . S
C1494 C1493 1.387 . S
C1494 C1497 1.387 . S
H1495 C1491 0.950 . S
H1496 C1493 0.950 . S
C1497 C1488 1.390 . S
C1497 H1490 0.950 . S
C1497 C1494 1.387 . S
C1498 C1499 1.387 . S
C1498 H1502 0.950 . S
C1498 C1507 1.390 . S
C1499 C1498 1.387 . S
C1499 C1501 1.387 . S
H1500 C1507 0.950 . S
C1501 C1499 1.387 . S
C1501 C1503 1.390 . S
C1501 H1505 0.950 . S
H1502 C1498 0.950 . S
C1503 C1501 1.390 . S
C1503 C1504 1.387 . S
C1503 H1506 0.950 . S
C1504 C1503 1.387 . S
C1504 C1507 1.387 . S
H1505 C1501 0.950 . S
H1506 C1503 0.950 . S
C1507 C1498 1.390 . S
C1507 H1500 0.950 . S
C1507 C1504 1.387 . S
C1508 C1509 1.387 . S
C1508 H1512 0.950 . S
C1508 C1517 1.390 . S
C1509 C1508 1.387 . S
C1509 C1511 1.387 . S
H1510 C1517 0.950 . S
C1511 C1509 1.387 . S
C1511 C1513 1.390 . S
C1511 H1515 0.950 . S
H1512 C1508 0.950 . S
C1513 C1511 1.390 . S
C1513 C1514 1.387 . S
C1513 H1516 0.950 . S
C1514 C1513 1.387 . S
C1514 C1517 1.387 . S
H1515 C1511 0.950 . S
H1516 C1513 0.950 . S
C1517 C1508 1.390 . S
C1517 H1510 0.950 . S
C1517 C1514 1.387 . S
C1518 C1519 1.387 . S
C1518 H1522 0.950 . S
C1518 C1527 1.390 . S
C1519 C1518 1.387 . S
C1519 C1521 1.387 . S
H1520 C1527 0.950 . S
C1521 C1519 1.387 . S
C1521 C1523 1.390 . S
C1521 H1525 0.950 . S
H1522 C1518 0.950 . S
C1523 C1521 1.390 . S
C1523 C1524 1.387 . S
C1523 H1526 0.950 . S
C1524 C1523 1.387 . S
C1524 C1527 1.387 . S
H1525 C1521 0.950 . S
H1526 C1523 0.950 . S
C1527 C1518 1.390 . S
C1527 H1520 0.950 . S
C1527 C1524 1.387 . S
C1528 C1529 1.387 . S
C1528 H1532 0.950 . S
C1528 C1537 1.390 . S
C1529 C1528 1.387 . S
C1529 C1531 1.387 . S
H1530 C1537 0.950 . S
C1531 C1529 1.387 . S
C1531 C1533 1.390 . S
C1531 H1535 0.950 . S
H1532 C1528 0.950 . S
C1533 C1531 1.390 . S
C1533 C1534 1.387 . S
C1533 H1536 0.950 . S
C1534 C1533 1.387 . S
C1534 C1537 1.387 . S
H1535 C1531 0.950 . S
H1536 C1533 0.950 . S
C1537 C1528 1.390 . S
C1537 H1530 0.950 . S
C1537 C1534 1.387 . S
C1538 C1539 1.387 . S
C1538 H1542 0.950 . S
C1538 C1547 1.390 . S
C1539 C1538 1.387 . S
C1539 C1541 1.387 . S
H1540 C1547 0.950 . S
C1541 C1539 1.387 . S
C1541 C1543 1.390 . S
C1541 H1545 0.950 . S
H1542 C1538 0.950 . S
C1543 C1541 1.390 . S
C1543 C1544 1.387 . S
C1543 H1546 0.950 . S
C1544 C1543 1.387 . S
C1544 C1547 1.387 . S
H1545 C1541 0.950 . S
H1546 C1543 0.950 . S
C1547 C1538 1.390 . S
C1547 H1540 0.950 . S
C1547 C1544 1.387 . S
C1548 C1549 1.387 . S
C1548 H1552 0.950 . S
C1548 C1557 1.390 . S
C1549 C1548 1.387 . S
C1549 C1551 1.387 . S
H1550 C1557 0.950 . S
C1551 C1549 1.387 . S
C1551 C1553 1.390 . S
C1551 H1555 0.950 . S
H1552 C1548 0.950 . S
C1553 C1551 1.390 . S
C1553 C1554 1.387 . S
C1553 H1556 0.950 . S
C1554 C1553 1.387 . S
C1554 C1557 1.387 . S
H1555 C1551 0.950 . S
H1556 C1553 0.950 . S
C1557 C1548 1.390 . S
C1557 H1550 0.950 . S
C1557 C1554 1.387 . S
C1558 C1559 1.387 . S
C1558 H1562 0.950 . S
C1558 C1567 1.390 . S
C1559 C1558 1.387 . S
C1559 C1561 1.387 . S
H1560 C1567 0.950 . S
C1561 C1559 1.387 . S
C1561 C1563 1.390 . S
C1561 H1565 0.950 . S
H1562 C1558 0.950 . S
C1563 C1561 1.390 . S
C1563 C1564 1.387 . S
C1563 H1566 0.950 . S
C1564 C1563 1.387 . S
C1564 C1567 1.387 . S
H1565 C1561 0.950 . S
H1566 C1563 0.950 . S
C1567 C1558 1.390 . S
C1567 H1560 0.950 . S
C1567 C1564 1.387 . S
C1568 C1569 1.387 . S
C1568 H1572 0.950 . S
C1568 C1577 1.390 . S
C1569 C1568 1.387 . S
C1569 C1571 1.387 . S
H1570 C1577 0.950 . S
C1571 C1569 1.387 . S
C1571 C1573 1.390 . S
C1571 H1575 0.950 . S
H1572 C1568 0.950 . S
C1573 C1571 1.390 . S
C1573 C1574 1.387 . S
C1573 H1576 0.950 . S
C1574 C1573 1.387 . S
C1574 C1577 1.387 . S
H1575 C1571 0.950 . S
H1576 C1573 0.950 . S
C1577 C1568 1.390 . S
C1577 H1570 0.950 . S
C1577 C1574 1.387 . S
C1578 C1579 1.387 . S
C1578 H1582 0.950 . S
C1578 C1587 1.390 . S
C1579 C1578 1.387 . S
C1579 C1581 1.387 . S
H1580 C1587 0.950 . S
C1581 C1579 1.387 . S
C1581 C1583 1.390 . S
C1581 H1585 0.950 . S
H1582 C1578 0.950 . S
C1583 C1581 1.390 . S
C1583 C1584 1.387 . S
C1583 H1586 0.950 . S
C1584 C1583 1.387 . S
C1584 C1587 1.387 . S
H1585 C1581 0.950 . S
H1586 C1583 0.950 . S
C1587 C1578 1.390 . S
C1587 H1580 0.950 . S
C1587 C1584 1.387 . S
C1588 C1589 1.387 . S
C1588 H1592 0.950 . S
C1588 C1597 1.390 . S
C1589 C1588 1.387 . S
C1589 C1591 1.387 . S
H1590 C1597 0.950 . S
C1591 C1589 1.387 . S
C1591 C1593 1.390 . S
C1591 H1595 0.950 . S
H1592 C1588 0.950 . S
C1593 C1591 1.390 . S
C1593 C1594 1.387 . S
C1593 H1596 0.950 . S
C1594 C1593 1.387 . S
C1594 C1597 1.387 . S
H1595 C1591 0.950 . S
H1596 C1593 0.950 . S
C1597 C1588 1.390 . S
C1597 H1590 0.950 . S
C1597 C1594 1.387 . S
C1598 C1599 1.387 . S
C1598 H1602 0.950 . S
C1598 C1607 1.390 . S
C1599 C1598 1.387 . S
C1599 C1601 1.387 . S
H1600 C1607 0.950 . S
C1601 C1599 1.387 . S
C1601 C1603 1.390 . S
C1601 H1605 0.950 . S
H1602 C1598 0.950 . S
C1603 C1601 1.390 . S
C1603 C1604 1.387 . S
C1603 H1606 0.950 . S
C1604 C1603 1.387 . S
C1604 C1607 1.387 . S
H1605 C1601 0.950 . S
H1606 C1603 0.950 . S
C1607 C1598 1.390 . S
C1607 H1600 0.950 . S
C1607 C1604 1.387 . S
C1608 C1609 1.387 . S
C1608 H1612 0.950 . S
C1608 C1617 1.390 . S
C1609 C1608 1.387 . S
C1609 C1611 1.387 . S
H1610 C1617 0.950 . S
C1611 C1609 1.387 . S
C1611 C1613 1.390 . S
C1611 H1615 0.950 . S
H1612 C1608 0.950 . S
C1613 C1611 1.390 . S
C1613 C1614 1.387 . S
C1613 H1616 0.950 . S
C1614 C1613 1.387 . S
C1614 C1617 1.387 . S
H1615 C1611 0.950 . S
H1616 C1613 0.950 . S
C1617 C1608 1.390 . S
C1617 H1610 0.950 . S
C1617 C1614 1.387 . S
C1618 C1619 1.387 . S
C1618 H1622 0.950 . S
C1618 C1627 1.390 . S
C1619 C1618 1.387 . S
C1619 C1621 1.387 . S
H1620 C1627 0.950 . S
C1621 C1619 1.387 . S
C1621 C1623 1.390 . S
C1621 H1625 0.950 . S
H1622 C1618 0.950 . S
C1623 C1621 1.390 . S
C1623 C1624 1.387 . S
C1623 H1626 0.950 . S
C1624 C1623 1.387 . S
C1624 C1627 1.387 . S
H1625 C1621 0.950 . S
H1626 C1623 0.950 . S
C1627 C1618 1.390 . S
C1627 H1620 0.950 . S
C1627 C1624 1.387 . S
C1628 C1629 1.387 . S
C1628 H1632 0.950 . S
C1628 C1637 1.390 . S
C1629 C1628 1.387 . S
C1629 C1631 1.387 . S
H1630 C1637 0.950 . S
C1631 C1629 1.387 . S
C1631 C1633 1.390 . S
C1631 H1635 0.950 . S
H1632 C1628 0.950 . S
C1633 C1631 1.390 . S
C1633 C1634 1.387 . S
C1633 H1636 0.950 . S
C1634 C1633 1.387 . S
C1634 C1637 1.387 . S
H1635 C1631 0.950 . S
H1636 C1633 0.950 . S
C1637 C1628 1.390 . S
C1637 H1630 0.950 . S
C1637 C1634 1.387 . S
C1638 C1639 1.387 . S
C1638 H1642 0.950 . S
C1638 C1647 1.390 . S
C1639 C1638 1.387 . S
C1639 C1641 1.387 . S
H1640 C1647 0.950 . S
C1641 C1639 1.387 . S
C1641 C1643 1.390 . S
C1641 H1645 0.950 . S
H1642 C1638 0.950 . S
C1643 C1641 1.390 . S
C1643 C1644 1.387 . S
C1643 H1646 0.950 . S
C1644 C1643 1.387 . S
C1644 C1647 1.387 . S
H1645 C1641 0.950 . S
H1646 C1643 0.950 . S
C1647 C1638 1.390 . S
C1647 H1640 0.950 . S
C1647 C1644 1.387 . S
C1648 C1649 1.387 . S
C1648 H1652 0.950 . S
C1648 C1657 1.390 . S
C1649 C1648 1.387 . S
C1649 C1651 1.387 . S
H1650 C1657 0.950 . S
C1651 C1649 1.387 . S
C1651 C1653 1.390 . S
C1651 H1655 0.950 . S
H1652 C1648 0.950 . S
C1653 C1651 1.390 . S
C1653 C1654 1.387 . S
C1653 H1656 0.950 . S
C1654 C1653 1.387 . S
C1654 C1657 1.387 . S
H1655 C1651 0.950 . S
H1656 C1653 0.950 . S
C1657 C1648 1.390 . S
C1657 H1650 0.950 . S
C1657 C1654 1.387 . S
C1658 C1659 1.387 . S
C1658 H1662 0.950 . S
C1658 C1667 1.390 . S
C1659 C1658 1.387 . S
C1659 C1661 1.387 . S
H1660 C1667 0.950 . S
C1661 C1659 1.387 . S
C1661 C1663 1.390 . S
C1661 H1665 0.950 . S
H1662 C1658 0.950 . S
C1663 C1661 1.390 . S
C1663 C1664 1.387 . S
C1663 H1666 0.950 . S
C1664 C1663 1.387 . S
C1664 C1667 1.387 . S
H1665 C1661 0.950 . S
H1666 C1663 0.950 . S
C1667 C1658 1.390 . S
C1667 H1660 0.950 . S
C1667 C1664 1.387 . S
C1668 C1669 1.387 . S
C1668 H1672 0.950 . S
C1668 C1677 1.390 . S
C1669 C1668 1.387 . S
C1669 C1671 1.387 . S
H1670 C1677 0.950 . S
C1671 C1669 1.387 . S
C1671 C1673 1.390 . S
C1671 H1675 0.950 . S
H1672 C1668 0.950 . S
C1673 C1671 1.390 . S
C1673 C1674 1.387 . S
C1673 H1676 0.950 . S
C1674 C1673 1.387 . S
C1674 C1677 1.387 . S
H1675 C1671 0.950 . S
H1676 C1673 0.950 . S
C1677 C1668 1.390 . S
C1677 H1670 0.950 . S
C1677 C1674 1.387 . S
C1678 C1679 1.387 . S
C1678 H1682 0.950 . S
C1678 C1687 1.390 . S
C1679 C1678 1.387 . S
C1679 C1681 1.387 . S
H1680 C1687 0.950 . S
C1681 C1679 1.387 . S
C1681 C1683 1.390 . S
C1681 H1685 0.950 . S
H1682 C1678 0.950 . S
C1683 C1681 1.390 . S
C1683 C1684 1.387 . S
C1683 H1686 0.950 . S
C1684 C1683 1.387 . S
C1684 C1687 1.387 . S
H1685 C1681 0.950 . S
H1686 C1683 0.950 . S
C1687 C1678 1.390 . S
C1687 H1680 0.950 . S
C1687 C1684 1.387 . S
C1688 C1689 1.387 . S
C1688 H1692 0.950 . S
C1688 C1697 1.390 . S
C1689 C1688 1.387 . S
C1689 C1691 1.387 . S
H1690 C1697 0.950 . S
C1691 C1689 1.387 . S
C1691 C1693 1.390 . S
C1691 H1695 0.950 . S
H1692 C1688 0.950 . S
C1693 C1691 1.390 . S
C1693 C1694 1.387 . S
C1693 H1696 0.950 . S
C1694 C1693 1.387 . S
C1694 C1697 1.387 . S
H1695 C1691 0.950 . S
H1696 C1693 0.950 . S
C1697 C1688 1.390 . S
C1697 H1690 0.950 . S
C1697 C1694 1.387 . S
C1698 C1699 1.387 . S
C1698 H1702 0.950 . S
C1698 C1707 1.390 . S
C1699 C1698 1.387 . S
C1699 C1701 1.387 . S
H1700 C1707 0.950 . S
C1701 C1699 1.387 . S
C1701 C1703 1.390 . S
C1701 H1705 0.950 . S
H1702 C1698 0.950 . S
C1703 C1701 1.390 . S
C1703 C1704 1.387 . S
C1703 H1706 0.950 . S
C1704 C1703 1.387 . S
C1704 C1707 1.387 . S
H1705 C1701 0.950 . S
H1706 C1703 0.950 . S
C1707 C1698 1.390 . S
C1707 H1700 0.950 . S
C1707 C1704 1.387 . S
C1708 C1709 1.387 . S
C1708 H1712 0.950 . S
C1708 C1717 1.390 . S
C1709 C1708 1.387 . S
C1709 C1711 1.387 . S
H1710 C1717 0.950 . S
C1711 C1709 1.387 . S
C1711 C1713 1.390 . S
C1711 H1715 0.950 1_554 S
H1712 C1708 0.950 . S
C1713 C1711 1.390 . S
C1713 C1714 1.387 . S
C1713 H1716 0.950 1_554 S
C1714 C1713 1.387 . S
C1714 C1717 1.387 . S
H1715 C1711 0.950 1_556 S
H1716 C1713 0.950 1_556 S
C1717 C1708 1.390 . S
C1717 H1710 0.950 . S
C1717 C1714 1.387 . S
C1718 C1719 1.387 . S
C1718 H1722 0.950 . S
C1718 C1727 1.390 . S
C1719 C1718 1.387 . S
C1719 C1721 1.387 . S
H1720 C1727 0.950 . S
C1721 C1719 1.387 . S
C1721 C1723 1.390 . S
C1721 H1725 0.950 . S
H1722 C1718 0.950 . S
C1723 C1721 1.390 . S
C1723 C1724 1.387 . S
C1723 H1726 0.950 . S
C1724 C1723 1.387 . S
C1724 C1727 1.387 . S
H1725 C1721 0.950 . S
H1726 C1723 0.950 . S
C1727 C1718 1.390 . S
C1727 H1720 0.950 . S
C1727 C1724 1.387 . S
C1728 C1729 1.387 . S
C1728 H1732 0.950 . S
C1728 C1737 1.390 . S
C1729 C1728 1.387 . S
C1729 C1731 1.387 . S
H1730 C1737 0.950 . S
C1731 C1729 1.387 . S
C1731 C1733 1.390 . S
C1731 H1735 0.950 . S
H1732 C1728 0.950 . S
C1733 C1731 1.390 . S
C1733 C1734 1.387 . S
C1733 H1736 0.950 . S
C1734 C1733 1.387 . S
C1734 C1737 1.387 . S
H1735 C1731 0.950 . S
H1736 C1733 0.950 . S
C1737 C1728 1.390 . S
C1737 H1730 0.950 . S
C1737 C1734 1.387 . S
C1738 C1739 1.387 . S
C1738 H1742 0.950 . S
C1738 C1747 1.390 . S
C1739 C1738 1.387 . S
C1739 C1741 1.387 . S
H1740 C1747 0.950 . S
C1741 C1739 1.387 . S
C1741 C1743 1.390 . S
C1741 H1745 0.950 . S
H1742 C1738 0.950 . S
C1743 C1741 1.390 . S
C1743 C1744 1.387 . S
C1743 H1746 0.950 . S
C1744 C1743 1.387 . S
C1744 C1747 1.387 . S
H1745 C1741 0.950 . S
H1746 C1743 0.950 . S
C1747 C1738 1.390 . S
C1747 H1740 0.950 . S
C1747 C1744 1.387 . S
C1748 C1749 1.387 . S
C1748 H1752 0.950 . S
C1748 C1757 1.390 . S
C1749 C1748 1.387 . S
C1749 C1751 1.387 . S
H1750 C1757 0.950 . S
C1751 C1749 1.387 . S
C1751 C1753 1.390 . S
C1751 H1755 0.950 . S
H1752 C1748 0.950 . S
C1753 C1751 1.390 . S
C1753 C1754 1.387 . S
C1753 H1756 0.950 . S
C1754 C1753 1.387 . S
C1754 C1757 1.387 . S
H1755 C1751 0.950 . S
H1756 C1753 0.950 . S
C1757 C1748 1.390 . S
C1757 H1750 0.950 . S
C1757 C1754 1.387 . S
C1758 C1759 1.387 . S
C1758 H1762 0.950 . S
C1758 C1767 1.390 . S
C1759 C1758 1.387 . S
C1759 C1761 1.387 . S
H1760 C1767 0.950 . S
C1761 C1759 1.387 . S
C1761 C1763 1.390 . S
C1761 H1765 0.950 . S
H1762 C1758 0.950 . S
C1763 C1761 1.390 . S
C1763 C1764 1.387 . S
C1763 H1766 0.950 . S
C1764 C1763 1.387 . S
C1764 C1767 1.387 . S
H1765 C1761 0.950 . S
H1766 C1763 0.950 . S
C1767 C1758 1.390 . S
C1767 H1760 0.950 . S
C1767 C1764 1.387 . S
C1768 C1769 1.387 . S
C1768 H1772 0.950 . S
C1768 C1777 1.390 . S
C1769 C1768 1.387 . S
C1769 C1771 1.387 . S
H1770 C1777 0.950 . S
C1771 C1769 1.387 . S
C1771 C1773 1.390 . S
C1771 H1775 0.950 . S
H1772 C1768 0.950 . S
C1773 C1771 1.390 . S
C1773 C1774 1.387 . S
C1773 H1776 0.950 . S
C1774 C1773 1.387 . S
C1774 C1777 1.387 . S
H1775 C1771 0.950 . S
H1776 C1773 0.950 . S
C1777 C1768 1.390 . S
C1777 H1770 0.950 . S
C1777 C1774 1.387 . S
C1778 C1779 1.387 . S
C1778 H1782 0.950 . S
C1778 C1787 1.390 . S
C1779 C1778 1.387 . S
C1779 C1781 1.387 . S
H1780 C1787 0.950 . S
C1781 C1779 1.387 . S
C1781 C1783 1.390 . S
C1781 H1785 0.950 . S
H1782 C1778 0.950 . S
C1783 C1781 1.390 . S
C1783 C1784 1.387 . S
C1783 H1786 0.950 . S
C1784 C1783 1.387 . S
C1784 C1787 1.387 . S
H1785 C1781 0.950 . S
H1786 C1783 0.950 . S
C1787 C1778 1.390 . S
C1787 H1780 0.950 . S
C1787 C1784 1.387 . S
C1788 C1789 1.387 . S
C1788 H1792 0.950 . S
C1788 C1797 1.390 . S
C1789 C1788 1.387 . S
C1789 C1791 1.387 . S
H1790 C1797 0.950 . S
C1791 C1789 1.387 . S
C1791 C1793 1.390 . S
C1791 H1795 0.950 . S
H1792 C1788 0.950 . S
C1793 C1791 1.390 . S
C1793 C1794 1.387 . S
C1793 H1796 0.950 . S
C1794 C1793 1.387 . S
C1794 C1797 1.387 . S
H1795 C1791 0.950 . S
H1796 C1793 0.950 . S
C1797 C1788 1.390 . S
C1797 H1790 0.950 . S
C1797 C1794 1.387 . S
C1798 C1799 1.387 . S
C1798 H1802 0.950 . S
C1798 C1807 1.390 . S
C1799 C1798 1.387 . S
C1799 C1801 1.387 . S
H1800 C1807 0.950 . S
C1801 C1799 1.387 . S
C1801 C1803 1.390 . S
C1801 H1805 0.950 . S
H1802 C1798 0.950 . S
C1803 C1801 1.390 . S
C1803 C1804 1.387 . S
C1803 H1806 0.950 . S
C1804 C1803 1.387 . S
C1804 C1807 1.387 . S
H1805 C1801 0.950 . S
H1806 C1803 0.950 . S
C1807 C1798 1.390 . S
C1807 H1800 0.950 . S
C1807 C1804 1.387 . S
C1808 C1809 1.387 . S
C1808 H1812 0.950 . S
C1808 C1817 1.390 . S
C1809 C1808 1.387 . S
C1809 C1811 1.387 . S
H1810 C1817 0.950 . S
C1811 C1809 1.387 . S
C1811 C1813 1.390 . S
C1811 H1815 0.950 . S
H1812 C1808 0.950 . S
C1813 C1811 1.390 . S
C1813 C1814 1.387 . S
C1813 H1816 0.950 . S
C1814 C1813 1.387 . S
C1814 C1817 1.387 . S
H1815 C1811 0.950 . S
H1816 C1813 0.950 . S
C1817 C1808 1.390 . S
C1817 H1810 0.950 . S
C1817 C1814 1.387 . S
C1818 C1819 1.387 . S
C1818 H1822 0.950 . S
C1818 C1827 1.390 . S
C1819 C1818 1.387 . S
C1819 C1821 1.387 . S
H1820 C1827 0.950 . S
C1821 C1819 1.387 . S
C1821 C1823 1.390 . S
C1821 H1825 0.950 . S
H1822 C1818 0.950 . S
C1823 C1821 1.390 . S
C1823 C1824 1.387 . S
C1823 H1826 0.950 . S
C1824 C1823 1.387 . S
C1824 C1827 1.387 . S
H1825 C1821 0.950 . S
H1826 C1823 0.950 . S
C1827 C1818 1.390 . S
C1827 H1820 0.950 . S
C1827 C1824 1.387 . S
C1828 C1829 1.387 . S
C1828 H1832 0.950 . S
C1828 C1837 1.390 . S
C1829 C1828 1.387 . S
C1829 C1831 1.387 . S
H1830 C1837 0.950 . S
C1831 C1829 1.387 . S
C1831 C1833 1.390 . S
C1831 H1835 0.950 . S
H1832 C1828 0.950 . S
C1833 C1831 1.390 . S
C1833 C1834 1.387 . S
C1833 H1836 0.950 . S
C1834 C1833 1.387 . S
C1834 C1837 1.387 . S
H1835 C1831 0.950 . S
H1836 C1833 0.950 . S
C1837 C1828 1.390 . S
C1837 H1830 0.950 . S
C1837 C1834 1.387 . S
C1838 C1839 1.387 . S
C1838 H1842 0.950 . S
C1838 C1847 1.390 . S
C1839 C1838 1.387 . S
C1839 C1841 1.387 . S
H1840 C1847 0.950 . S
C1841 C1839 1.387 . S
C1841 C1843 1.390 . S
C1841 H1845 0.950 . S
H1842 C1838 0.950 . S
C1843 C1841 1.390 . S
C1843 C1844 1.387 . S
C1843 H1846 0.950 . S
C1844 C1843 1.387 . S
C1844 C1847 1.387 . S
H1845 C1841 0.950 . S
H1846 C1843 0.950 . S
C1847 C1838 1.390 . S
C1847 H1840 0.950 . S
C1847 C1844 1.387 . S
C1848 C1849 1.387 . S
C1848 H1852 0.950 . S
C1848 C1857 1.390 . S
C1849 C1848 1.387 . S
C1849 C1851 1.387 . S
H1850 C1857 0.950 . S
C1851 C1849 1.387 . S
C1851 C1853 1.390 . S
C1851 H1855 0.950 . S
H1852 C1848 0.950 . S
C1853 C1851 1.390 . S
C1853 C1854 1.387 . S
C1853 H1856 0.950 . S
C1854 C1853 1.387 . S
C1854 C1857 1.387 . S
H1855 C1851 0.950 . S
H1856 C1853 0.950 . S
C1857 C1848 1.390 . S
C1857 H1850 0.950 . S
C1857 C1854 1.387 . S
C1858 C1859 1.387 . S
C1858 H1862 0.950 . S
C1858 C1867 1.390 . S
C1859 C1858 1.387 . S
C1859 C1861 1.387 . S
H1860 C1867 0.950 . S
C1861 C1859 1.387 . S
C1861 C1863 1.390 . S
C1861 H1865 0.950 . S
H1862 C1858 0.950 . S
C1863 C1861 1.390 . S
C1863 C1864 1.387 . S
C1863 H1866 0.950 . S
C1864 C1863 1.387 . S
C1864 C1867 1.387 . S
H1865 C1861 0.950 . S
H1866 C1863 0.950 . S
C1867 C1858 1.390 . S
C1867 H1860 0.950 . S
C1867 C1864 1.387 . S
C1868 C1869 1.387 . S
C1868 H1872 0.950 . S
C1868 C1877 1.390 . S
C1869 C1868 1.387 . S
C1869 C1871 1.387 . S
H1870 C1877 0.950 . S
C1871 C1869 1.387 . S
C1871 C1873 1.390 . S
C1871 H1875 0.950 . S
H1872 C1868 0.950 . S
C1873 C1871 1.390 . S
C1873 C1874 1.387 . S
C1873 H1876 0.950 . S
C1874 C1873 1.387 . S
C1874 C1877 1.387 . S
H1875 C1871 0.950 . S
H1876 C1873 0.950 . S
C1877 C1868 1.390 . S
C1877 H1870 0.950 . S
C1877 C1874 1.387 . S
C1878 C1879 1.387 . S
C1878 H1882 0.950 . S
C1878 C1887 1.390 . S
C1879 C1878 1.387 . S
C1879 C1881 1.387 . S
H1880 C1887 0.950 . S
C1881 C1879 1.387 . S
C1881 C1883 1.390 . S
C1881 H1885 0.950 . S
H1882 C1878 0.950 . S
C1883 C1881 1.390 . S
C1883 C1884 1.387 . S
C1883 H1886 0.950 . S
C1884 C1883 1.387 . S
C1884 C1887 1.387 . S
H1885 C1881 0.950 . S
H1886 C1883 0.950 . S
C1887 C1878 1.390 . S
C1887 H1880 0.950 . S
C1887 C1884 1.387 . S
C1888 C1889 1.387 . S
C1888 H1892 0.950 . S
C1888 C1897 1.390 . S
C1889 C1888 1.387 . S
C1889 C1891 1.387 . S
H1890 C1897 0.950 . S
C1891 C1889 1.387 . S
C1891 C1893 1.390 . S
C1891 H1895 0.950 . S
H1892 C1888 0.950 . S
C1893 C1891 1.390 . S
C1893 C1894 1.387 . S
C1893 H1896 0.950 . S
C1894 C1893 1.387 . S
C1894 C1897 1.387 . S
H1895 C1891 0.950 . S
H1896 C1893 0.950 . S
C1897 C1888 1.390 . S
C1897 H1890 0.950 . S
C1897 C1894 1.387 . S
C1898 C1899 1.387 . S
C1898 H1902 0.950 1_565 S
C1898 C1907 1.390 . S
C1899 C1898 1.387 . S
C1899 C1901 1.387 . S
H1900 C1907 0.950 1_545 S
C1901 C1899 1.387 . S
C1901 C1903 1.390 . S
C1901 H1905 0.950 . S
H1902 C1898 0.950 1_545 S
C1903 C1901 1.390 . S
C1903 C1904 1.387 . S
C1903 H1906 0.950 . S
C1904 C1903 1.387 . S
C1904 C1907 1.387 . S
H1905 C1901 0.950 . S
H1906 C1903 0.950 . S
C1907 C1898 1.390 . S
C1907 H1900 0.950 1_565 S
C1907 C1904 1.387 . S
C1908 C1909 1.387 . S
C1908 H1912 0.950 . S
C1908 C1917 1.390 . S
C1909 C1908 1.387 . S
C1909 C1911 1.387 . S
H1910 C1917 0.950 . S
C1911 C1909 1.387 . S
C1911 C1913 1.390 . S
C1911 H1915 0.950 . S
H1912 C1908 0.950 . S
C1913 C1911 1.390 . S
C1913 C1914 1.387 . S
C1913 H1916 0.950 . S
C1914 C1913 1.387 . S
C1914 C1917 1.387 . S
H1915 C1911 0.950 . S
H1916 C1913 0.950 . S
C1917 C1908 1.390 . S
C1917 H1910 0.950 . S
C1917 C1914 1.387 . S
C1918 C1919 1.387 . S
C1918 H1922 0.950 1_545 S
C1918 C1927 1.390 . S
C1919 C1918 1.387 . S
C1919 C1921 1.387 . S
H1920 C1927 0.950 1_565 S
C1921 C1919 1.387 . S
C1921 C1923 1.390 . S
C1921 H1925 0.950 . S
H1922 C1918 0.950 1_565 S
C1923 C1921 1.390 . S
C1923 C1924 1.387 . S
C1923 H1926 0.950 . S
C1924 C1923 1.387 . S
C1924 C1927 1.387 . S
H1925 C1921 0.950 . S
H1926 C1923 0.950 . S
C1927 C1918 1.390 . S
C1927 H1920 0.950 1_545 S
C1927 C1924 1.387 . S
C1928 C1929 1.387 . S
C1928 H1932 0.950 . S
C1928 C1937 1.390 . S
C1929 C1928 1.387 . S
C1929 C1931 1.387 . S
H1930 C1937 0.950 . S
C1931 C1929 1.387 . S
C1931 C1933 1.390 . S
C1931 H1935 0.950 . S
H1932 C1928 0.950 . S
C1933 C1931 1.390 . S
C1933 C1934 1.387 . S
C1933 H1936 0.950 . S
C1934 C1933 1.387 . S
C1934 C1937 1.387 . S
H1935 C1931 0.950 . S
H1936 C1933 0.950 . S
C1937 C1928 1.390 . S
C1937 H1930 0.950 . S
C1937 C1934 1.387 . S
C1938 C1939 1.387 . S
C1938 H1942 0.950 . S
C1938 C1947 1.390 . S
C1939 C1938 1.387 . S
C1939 C1941 1.387 . S
H1940 C1947 0.950 . S
C1941 C1939 1.387 . S
C1941 C1943 1.390 . S
C1941 H1945 0.950 . S
H1942 C1938 0.950 . S
C1943 C1941 1.390 . S
C1943 C1944 1.387 . S
C1943 H1946 0.950 . S
C1944 C1943 1.387 . S
C1944 C1947 1.387 . S
H1945 C1941 0.950 . S
H1946 C1943 0.950 . S
C1947 C1938 1.390 . S
C1947 H1940 0.950 . S
C1947 C1944 1.387 . S
C1948 C1949 1.387 . S
C1948 H1952 0.950 . S
C1948 C1957 1.390 . S
C1949 C1948 1.387 . S
C1949 C1951 1.387 . S
H1950 C1957 0.950 . S
C1951 C1949 1.387 . S
C1951 C1953 1.390 . S
C1951 H1955 0.950 . S
H1952 C1948 0.950 . S
C1953 C1951 1.390 . S
C1953 C1954 1.387 . S
C1953 H1956 0.950 . S
C1954 C1953 1.387 . S
C1954 C1957 1.387 . S
H1955 C1951 0.950 . S
H1956 C1953 0.950 . S
C1957 C1948 1.390 . S
C1957 H1950 0.950 . S
C1957 C1954 1.387 . S
C1958 C1959 1.387 . S
C1958 H1962 0.950 . S
C1958 C1967 1.390 . S
C1959 C1958 1.387 . S
C1959 C1961 1.387 . S
H1960 C1967 0.950 . S
C1961 C1959 1.387 . S
C1961 C1963 1.390 . S
C1961 H1965 0.950 . S
H1962 C1958 0.950 . S
C1963 C1961 1.390 . S
C1963 C1964 1.387 . S
C1963 H1966 0.950 . S
C1964 C1963 1.387 . S
C1964 C1967 1.387 . S
H1965 C1961 0.950 . S
H1966 C1963 0.950 . S
C1967 C1958 1.390 . S
C1967 H1960 0.950 . S
C1967 C1964 1.387 . S
C1968 C1969 1.387 . S
C1968 H1972 0.950 . S
C1968 C1977 1.390 . S
C1969 C1968 1.387 . S
C1969 C1971 1.387 . S
H1970 C1977 0.950 . S
C1971 C1969 1.387 . S
C1971 C1973 1.390 . S
C1971 H1975 0.950 . S
H1972 C1968 0.950 . S
C1973 C1971 1.390 . S
C1973 C1974 1.387 . S
C1973 H1976 0.950 . S
C1974 C1973 1.387 . S
C1974 C1977 1.387 . S
H1975 C1971 0.950 . S
H1976 C1973 0.950 . S
C1977 C1968 1.390 . S
C1977 H1970 0.950 . S
C1977 C1974 1.387 . S
C1978 C1979 1.387 . S
C1978 H1982 0.950 1_565 S
C1978 C1987 1.390 . S
C1979 C1978 1.387 . S
C1979 C1981 1.387 . S
H1980 C1987 0.950 1_545 S
C1981 C1979 1.387 . S
C1981 C1983 1.390 . S
C1981 H1985 0.950 . S
H1982 C1978 0.950 1_545 S
C1983 C1981 1.390 . S
C1983 C1984 1.387 . S
C1983 H1986 0.950 . S
C1984 C1983 1.387 . S
C1984 C1987 1.387 . S
H1985 C1981 0.950 . S
H1986 C1983 0.950 . S
C1987 C1978 1.390 . S
C1987 H1980 0.950 1_565 S
C1987 C1984 1.387 . S
C1988 C1989 1.387 . S
C1988 H1992 0.950 . S
C1988 C1997 1.390 . S
C1989 C1988 1.387 . S
C1989 C1991 1.387 . S
H1990 C1997 0.950 . S
C1991 C1989 1.387 . S
C1991 C1993 1.390 . S
C1991 H1995 0.950 . S
H1992 C1988 0.950 . S
C1993 C1991 1.390 . S
C1993 C1994 1.387 . S
C1993 H1996 0.950 . S
C1994 C1993 1.387 . S
C1994 C1997 1.387 . S
H1995 C1991 0.950 . S
H1996 C1993 0.950 . S
C1997 C1988 1.390 . S
C1997 H1990 0.950 . S
C1997 C1994 1.387 . S
C1998 C1999 1.387 . S
C1998 H2002 0.950 . S
C1998 C2007 1.390 . S
C1999 C1998 1.387 . S
C1999 C2001 1.387 . S
H2000 C2007 0.950 . S
C2001 C1999 1.387 . S
C2001 C2003 1.390 . S
C2001 H2005 0.950 . S
H2002 C1998 0.950 . S
C2003 C2001 1.390 . S
C2003 C2004 1.387 . S
C2003 H2006 0.950 . S
C2004 C2003 1.387 . S
C2004 C2007 1.387 . S
H2005 C2001 0.950 . S
H2006 C2003 0.950 . S
C2007 C1998 1.390 . S
C2007 H2000 0.950 . S
C2007 C2004 1.387 . S
C2008 C2009 1.387 . S
C2008 H2012 0.950 . S
C2008 C2017 1.390 . S
C2009 C2008 1.387 . S
C2009 C2011 1.387 . S
H2010 C2017 0.950 . S
C2011 C2009 1.387 . S
C2011 C2013 1.390 . S
C2011 H2015 0.950 . S
H2012 C2008 0.950 . S
C2013 C2011 1.390 . S
C2013 C2014 1.387 . S
C2013 H2016 0.950 . S
C2014 C2013 1.387 . S
C2014 C2017 1.387 . S
H2015 C2011 0.950 . S
H2016 C2013 0.950 . S
C2017 C2008 1.390 . S
C2017 H2010 0.950 . S
C2017 C2014 1.387 . S
C2018 C2019 1.387 . S
C2018 H2022 0.950 . S
C2018 C2027 1.390 . S
C2019 C2018 1.387 . S
C2019 C2021 1.387 . S
H2020 C2027 0.950 . S
C2021 C2019 1.387 . S
C2021 C2023 1.390 . S
C2021 H2025 0.950 . S
H2022 C2018 0.950 . S
C2023 C2021 1.390 . S
C2023 C2024 1.387 . S
C2023 H2026 0.950 . S
C2024 C2023 1.387 . S
C2024 C2027 1.387 . S
H2025 C2021 0.950 . S
H2026 C2023 0.950 . S
C2027 C2018 1.390 . S
C2027 H2020 0.950 . S
C2027 C2024 1.387 . S
C2028 C2029 1.387 . S
C2028 H2032 0.950 . S
C2028 C2037 1.390 . S
C2029 C2028 1.387 . S
C2029 C2031 1.387 . S
H2030 C2037 0.950 . S
C2031 C2029 1.387 . S
C2031 C2033 1.390 . S
C2031 H2035 0.950 . S
H2032 C2028 0.950 . S
C2033 C2031 1.390 . S
C2033 C2034 1.387 . S
C2033 H2036 0.950 . S
C2034 C2033 1.387 . S
C2034 C2037 1.387 . S
H2035 C2031 0.950 . S
H2036 C2033 0.950 . S
C2037 C2028 1.390 . S
C2037 H2030 0.950 . S
C2037 C2034 1.387 . S
C2038 C2039 1.387 . S
C2038 H2042 0.950 . S
C2038 C2047 1.390 . S
C2039 C2038 1.387 . S
C2039 C2041 1.387 . S
H2040 C2047 0.950 . S
C2041 C2039 1.387 . S
C2041 C2043 1.390 . S
C2041 H2045 0.950 . S
H2042 C2038 0.950 . S
C2043 C2041 1.390 . S
C2043 C2044 1.387 . S
C2043 H2046 0.950 . S
C2044 C2043 1.387 . S
C2044 C2047 1.387 . S
H2045 C2041 0.950 . S
H2046 C2043 0.950 . S
C2047 C2038 1.390 . S
C2047 H2040 0.950 . S
C2047 C2044 1.387 . S
C929 C129 1.327 . S
C934 C13 1.327 . S
C939 C854 1.327 . S
C944 C42 1.327 . S
C949 C419 1.325 . S
C954 C71 1.325 . S
C959 C100 1.325 . S
C964 C680 1.325 . S
C969 C738 1.327 . S
C974 C158 1.327 . S
C979 C187 1.327 . S
C984 C303 1.327 . S
C989 C216 1.327 . S
C994 C564 1.327 . S
C999 C245 1.328 . S
C1004 C361 1.328 . S
C1009 C622 1.326 . S
C1014 C274 1.326 . S
C1019 C912 1.328 . S
C1024 C332 1.328 . S
C1029 C506 1.325 . S
C1034 C390 1.325 . S
C1039 C796 1.327 . S
C1044 C448 1.327 . S
C1049 C593 1.327 . S
C1054 C477 1.327 . S
C1059 C883 1.328 . S
C1064 C535 1.328 . S
C1069 C651 1.328 . S
C1074 C767 1.328 . S
C1079 C709 1.326 . S
C1084 C825 1.326 . S
C1089 C5 1.921 . S
C1094 C189 1.909 1_455 S
C1099 C34 1.921 . S
C1104 C914 1.908 . S
C1109 C363 1.909 1_455 S
C1114 C63 1.922 . S
C1119 C624 1.908 . S
C1124 C92 1.921 . S
C1129 C73 1.909 1_655 S
C1134 C121 1.921 . S
C1139 C150 1.922 . S
C1144 C798 1.909 . S
C1149 C179 1.921 . S
C1154 C247 1.908 1_655 S
C1159 C208 1.921 . S
C1164 C508 1.908 . S
C1169 C237 1.921 . S
C1174 C421 1.908 1_455 S
C1179 C266 1.921 . S
C1184 C682 1.909 . S
C1189 C131 1.908 1_455 S
C1194 C295 1.921 . S
C1199 C324 1.921 . S
C1204 C856 1.909 . S
C1209 C353 1.921 . S
C1214 C305 1.909 1_655 S
C1219 C382 1.921 . S
C1224 C566 1.909 . S
C1229 C411 1.921 . S
C1234 C15 1.909 1_655 S
C1239 C440 1.921 . S
C1244 C740 1.909 . S
C1249 C653 1.908 . S
C1254 C469 1.921 . S
C1259 C498 1.921 . S
C1264 C450 1.909 . S
C1269 C827 1.909 . S
C1274 C527 1.922 . S
C1279 C160 1.909 . S
C1284 C556 1.921 . S
C1289 C585 1.921 . S
C1294 C537 1.908 . S
C1299 C334 1.908 . S
C1304 C614 1.921 . S
C1309 C711 1.909 . S
C1314 C643 1.922 . S
C1319 C44 1.909 . S
C1324 C672 1.921 . S
C1329 C885 1.909 . S
C1334 C701 1.921 . S
C1339 C730 1.921 . S
C1344 C218 1.908 . S
C1349 C595 1.909 . S
C1354 C759 1.922 . S
C1359 C392 1.908 . S
C1364 C788 1.921 . S
C1369 C769 1.908 . S
C1374 C817 1.921 . S
C1379 C102 1.909 . S
C1384 C846 1.922 . S
C1389 C875 1.921 . S
C1394 C479 1.908 . S
C1399 C904 1.921 . S
C1404 C276 1.908 . S
C1409 C293 0.968 . S
C1414 C3 0.968 . S
C1419 C322 0.968 . S
C1424 C32 0.968 . S
C1429 C235 0.968 . S
C1434 C61 0.968 . S
C1439 C264 0.968 . S
C1444 C90 0.968 . S
C1449 C409 0.975 . S
C1454 C119 0.975 . S
C1459 C148 0.968 . S
C1464 C438 0.968 . S
C1469 C351 0.974 . S
C1474 C177 0.974 . S
C1479 C206 0.968 . S
C1484 C380 0.968 . S
C1489 C467 0.968 . S
C1494 C757 0.968 . S
C1499 C496 0.975 . S
C1504 C786 0.975 . S
C1509 C699 0.975 . S
C1514 C525 0.975 . S
C1519 C728 0.975 . S
C1524 C554 0.975 . S
C1529 C873 0.968 . S
C1534 C583 0.968 . S
C1539 C902 0.975 . S
C1544 C612 0.975 . S
C1549 C815 0.968 . S
C1554 C641 0.968 . S
C1559 C670 0.975 . S
C1564 C844 0.975 . S
C1569 C21 1.348 . S
C1574 C50 1.347 . S
C1579 C79 1.347 . S
C1584 C108 1.347 . S
C1589 C137 1.347 . S
C1594 C166 1.348 . S
C1599 C195 1.347 . S
C1604 C224 1.347 . S
C1609 C253 1.347 . S
C1614 C282 1.347 . S
C1619 C340 1.347 . S
C1624 C311 1.347 . S
C1629 C398 1.347 . S
C1634 C369 1.347 . S
C1639 C456 1.347 . S
C1644 C427 1.347 . S
C1649 C514 1.347 . S
C1654 C485 1.347 . S
C1659 C572 1.347 . S
C1664 C543 1.347 . S
C1669 C601 1.347 . S
C1674 C630 1.347 . S
C1679 C659 1.347 . S
C1684 C688 1.347 . S
C1689 C717 1.348 . S
C1694 C746 1.347 . S
C1699 C804 1.347 . S
C1704 C775 1.347 . S
C1709 C862 1.347 . S
C1714 C833 1.347 . S
C1719 C920 1.347 . S
C1724 C891 1.347 . S
C1729 C66 1.420 . S
C1734 C8 1.420 . S
C1739 C37 1.414 . S
C1744 C95 1.414 . S
C1749 C124 1.420 . S
C1754 C182 1.420 . S
C1759 C211 1.414 . S
C1764 C153 1.414 . S
C1769 C240 1.420 . S
C1774 C298 1.420 . S
C1779 C327 1.420 . S
C1784 C269 1.420 . S
C1789 C356 1.414 . S
C1794 C414 1.414 . S
C1799 C385 1.420 . S
C1804 C443 1.420 . S
C1809 C472 1.414 . S
C1814 C530 1.414 . S
C1819 C501 1.420 . S
C1824 C559 1.420 . S
C1829 C646 1.420 . S
C1834 C588 1.420 . S
C1839 C675 1.420 . S
C1844 C617 1.420 . S
C1849 C704 1.420 . S
C1854 C762 1.420 . S
C1859 C733 1.414 . S
C1864 C791 1.414 . S
C1869 C878 1.414 . S
C1874 C820 1.414 . S
C1879 C907 1.414 . S
C1884 C849 1.414 . S
C1889 C10 2.378 . S
C1894 C97 2.378 . S
C1899 C39 2.378 . S
C1904 C68 2.378 . S
C1909 C213 2.378 . S
C1914 C126 2.378 . S
C1919 C155 2.378 . S
C1924 C184 2.378 . S
C1929 C242 2.378 . S
C1934 C329 2.378 . S
C1939 C300 2.378 . S
C1944 C271 2.378 . S
C1949 C445 2.378 . S
C1954 C358 2.378 . S
C1959 C387 2.378 . S
C1964 C416 2.378 . S
C1969 C561 2.378 . S
C1974 C474 2.378 . S
C1979 C503 2.378 . S
C1984 C532 2.378 . S
C1989 C590 2.379 . S
C1994 C677 2.378 . S
C1999 C619 2.378 . S
C2004 C648 2.378 . S
C2009 C706 2.378 . S
C2014 C793 2.378 . S
C2019 C735 2.378 . S
C2024 C764 2.378 . S
C2029 C822 2.378 . S
C2034 C909 2.379 . S
C2039 C851 2.378 . S
C2044 C880 2.378 . S
