# Generated by pormake.
# Topology sra, (4)-cn, num edge types: 1
# Building blocks:
#     Node 0, Type 0, BuildingBlock: KUFVIS_clean_sbu_0, # of connection points: 4
#     Node 1, Type 0, BuildingBlock: KUFVIS_clean_sbu_0, # of connection points: 4
#     Node 2, Type 0, BuildingBlock: KUFVIS_clean_sbu_0, # of connection points: 4
#     Node 3, Type 0, BuildingBlock: KUFVIS_clean_sbu_0, # of connection points: 4
#     Node 4, Type 0, BuildingBlock: KUFVIS_clean_sbu_0, # of connection points: 4
#     Node 5, Type 0, BuildingBlock: KUFVIS_clean_sbu_0, # of connection points: 4
#     Node 6, Type 0, BuildingBlock: KUFVIS_clean_sbu_0, # of connection points: 4
#     Node 7, Type 0, BuildingBlock: KUFVIS_clean_sbu_0, # of connection points: 4
#     Edge 8, Type (0, 0), BuildingBlock: TEMPAE_clean_linker_10, # of connection points: 2
#     Edge 9, Type (0, 0), BuildingBlock: TEMPAE_clean_linker_10, # of connection points: 2
#     Edge 10, Type (0, 0), BuildingBlock: TEMPAE_clean_linker_10, # of connection points: 2
#     Edge 11, Type (0, 0), BuildingBlock: TEMPAE_clean_linker_10, # of connection points: 2
#     Edge 12, Type (0, 0), BuildingBlock: TEMPAE_clean_linker_10, # of connection points: 2
#     Edge 13, Type (0, 0), BuildingBlock: TEMPAE_clean_linker_10, # of connection points: 2
#     Edge 14, Type (0, 0), BuildingBlock: TEMPAE_clean_linker_10, # of connection points: 2
#     Edge 15, Type (0, 0), BuildingBlock: TEMPAE_clean_linker_10, # of connection points: 2
#     Edge 16, Type (0, 0), BuildingBlock: TEMPAE_clean_linker_10, # of connection points: 2
#     Edge 17, Type (0, 0), BuildingBlock: TEMPAE_clean_linker_10, # of connection points: 2
#     Edge 18, Type (0, 0), BuildingBlock: TEMPAE_clean_linker_10, # of connection points: 2
#     Edge 19, Type (0, 0), BuildingBlock: TEMPAE_clean_linker_10, # of connection points: 2
#     Edge 20, Type (0, 0), BuildingBlock: TEMPAE_clean_linker_10, # of connection points: 2
#     Edge 21, Type (0, 0), BuildingBlock: TEMPAE_clean_linker_10, # of connection points: 2
#     Edge 22, Type (0, 0), BuildingBlock: TEMPAE_clean_linker_10, # of connection points: 2
#     Edge 23, Type (0, 0), BuildingBlock: TEMPAE_clean_linker_10, # of connection points: 2
# Relax obj value: 0.055
# Max RMSD: 0.085
# Mean RMSD: 0.085
data_MOF--net-sra--node1-KUFVIS_clean_sbu_0--edge1-TEMPAE_clean_linker_10
_symmetry_space_group_name_H-M    P1
_symmetry_Int_Tables_number       1
_symmetry_cell_setting            triclinic
loop_
_symmetry_equiv_pos_as_xyz
'x, y, z'
_cell_length_a     27.003247
_cell_length_b     52.87162
_cell_length_c     33.501282
_cell_angle_alpha  89.92371
_cell_angle_beta   89.99248
_cell_angle_gamma 90.043658
loop_
_atom_site_label
_atom_site_type_symbol
_atom_site_fract_x
_atom_site_fract_y
_atom_site_fract_z
_atom_type_partial_charge
Mn0 Mn 0.98476 0.11868 0.15914 0.0
Mn1 Mn 0.98736 0.06459 0.21226 0.0
C2 C 0.91119 0.10038 0.18081 0.0
C3 C 0.98986 0.1628 0.157 0.0
C4 C 0.00648 0.06704 0.12299 0.0
O5 O 0.0566 0.11621 0.17815 0.0
O6 O 0.04983 0.0833 0.22058 0.0
C7 C 0.98792 0.08538 0.29426 0.0
N8 N 0.96671 0.07041 0.26598 0.0
C9 C 0.9075 0.05421 0.31313 0.0
C10 C 0.92876 0.06938 0.34285 0.0
C11 C 0.96885 0.08523 0.33327 0.0
C12 C 0.92711 0.05575 0.27455 0.0
H13 H 0.0193 0.09724 0.28714 0.0
C14 C 0.07389 0.10189 0.20558 0.0
O15 O 0.00089 0.14906 0.12617 0.0
O16 O 0.97605 0.15094 0.18906 0.0
N17 N 0.92847 0.04468 0.20734 0.0
C18 C 0.91208 0.03124 0.17525 0.0
C19 C 0.8715 0.01485 0.17963 0.0
C20 C 0.84907 0.0119 0.21717 0.0
C21 C 0.86725 0.02551 0.24993 0.0
C22 C 0.90713 0.04196 0.24359 0.0
H23 H 0.92988 0.0329 0.14653 0.0
O24 O 0.91106 0.11656 0.1516 0.0
O25 O 0.95409 0.09581 0.19641 0.0
O26 O -0.00457 0.09031 0.11842 0.0
O27 O 0.0082 0.05619 0.15706 0.0
C28 C 0.84805 0.02297 0.2888 0.0
C29 C 0.8681 0.03735 0.32038 0.0
H30 H 0.91466 0.069 0.37312 0.0
H31 H 0.98544 0.09702 0.35601 0.0
H32 H 0.85794 1.00427 0.15425 0.0
H33 H 0.8181 0.99904 0.22054 0.0
H34 H 0.81772 0.01009 0.29472 0.0
H35 H 0.85267 0.03541 0.35007 0.0
Mn36 Mn 0.01663 0.39776 0.15863 0.0
Mn37 Mn 0.01241 0.45152 0.21222 0.0
C38 C 0.08964 0.4164 0.18073 0.0
C39 C 0.0123 0.35362 0.15637 0.0
C40 C 0.99417 0.44943 0.1228 0.0
O41 O 0.94449 0.39983 0.17709 0.0
O42 O 0.95044 0.4323 0.22031 0.0
C43 C 0.01263 0.42999 0.29387 0.0
N44 N 0.03312 0.44552 0.2659 0.0
C45 C 0.09175 0.46184 0.31333 0.0
C46 C 0.07107 0.44619 0.34278 0.0
C47 C 0.03167 0.42999 0.33288 0.0
C48 C 0.07219 0.46045 0.27473 0.0
H49 H 0.98194 0.41777 0.28646 0.0
C50 C 0.92685 0.41375 0.20482 0.0
O51 O 0.00139 0.36739 0.12548 0.0
O52 O 0.02558 0.36547 0.18853 0.0
N53 N 0.07075 0.47189 0.20763 0.0
C54 C 0.08692 0.48562 0.1757 0.0
C55 C 0.127 0.50229 0.18035 0.0
C56 C 0.14916 0.50522 0.21798 0.0
C57 C 0.13122 0.49131 0.25057 0.0
C58 C 0.09184 0.47459 0.24397 0.0
H59 H 0.06932 0.48397 0.14691 0.0
O60 O 0.09038 0.40026 0.15154 0.0
O61 O 0.04653 0.42065 0.19615 0.0
O62 O 0.00591 0.42626 0.11807 0.0
O63 O 0.99158 0.46006 0.15698 0.0
C64 C 0.15019 0.49375 0.28951 0.0
C65 C 0.13059 0.47897 0.32086 0.0
H66 H 0.08517 0.44643 0.37305 0.0
H67 H 0.01562 0.41778 0.35538 0.0
H68 H 0.14039 0.51309 0.1551 0.0
H69 H 0.17975 0.51829 0.22155 0.0
H70 H 0.18008 0.50686 0.29565 0.0
H71 H 0.14595 0.48079 0.35058 0.0
Mn72 Mn 0.98342 0.89797 0.85013 0.0
Mn73 Mn 0.98664 0.9521 0.7971 0.0
C74 C 0.91008 0.91656 0.82875 0.0
C75 C 0.98743 0.85383 0.85209 0.0
C76 C 0.00603 0.94953 0.88633 0.0
O77 O 0.05522 0.90017 0.83089 0.0
O78 O 0.04885 0.93322 0.7887 0.0
C79 C 0.98673 0.93125 0.71513 0.0
N80 N 0.96578 0.94631 0.74342 0.0
C81 C 0.90642 0.96247 0.69642 0.0
C82 C 0.92743 0.94723 0.66668 0.0
C83 C 0.96747 0.93137 0.67619 0.0
C84 C 0.92624 0.96098 0.73494 0.0
H85 H 0.01802 0.91935 0.72219 0.0
C86 C 0.07266 0.91452 0.80354 0.0
O87 O -0.00096 0.86745 0.88293 0.0
O88 O 0.97384 0.86583 0.82011 0.0
N89 N 0.92801 0.97215 0.80209 0.0
C90 C 0.9119 0.98568 0.83418 0.0
C91 C 0.87143 1.00212 0.82987 0.0
C92 C 0.84876 1.00499 0.79242 0.0
C93 C 0.86664 0.99129 0.75966 0.0
C94 C 0.9065 0.97484 0.76591 0.0
H95 H 0.92985 0.98405 0.86284 0.0
O96 O 0.90983 0.90038 0.85796 0.0
O97 O 0.95297 0.92099 0.81302 0.0
O98 O -0.00516 0.92626 0.89087 0.0
O99 O 0.00766 0.96043 0.85228 0.0
C100 C 0.84714 0.99371 0.72088 0.0
C101 C 0.86701 0.97931 0.68927 0.0
H102 H 0.91316 0.94758 0.63647 0.0
H103 H 0.98385 0.91952 0.65343 0.0
H104 H 0.85809 0.01276 0.85525 0.0
H105 H 0.81784 0.01787 0.78911 0.0
H106 H 0.81674 1.00655 0.71504 0.0
H107 H 0.8514 0.98118 0.65963 0.0
Mn108 Mn 0.00779 0.61877 0.84795 0.0
Mn109 Mn 0.00433 0.56472 0.79474 0.0
C110 C 0.08046 0.6008 0.82443 0.0
C111 C 0.00319 0.66289 0.8506 0.0
C112 C 0.99049 0.56648 0.88465 0.0
O113 O 0.93535 0.61636 0.83067 0.0
O114 O 0.9398 0.58213 0.79096 0.0
C115 C 0.99376 0.58636 0.71365 0.0
N116 N 0.01891 0.57153 0.74 0.0
C117 C 0.07427 0.55714 0.68865 0.0
C118 C 0.04896 0.57222 0.66088 0.0
C119 C 0.00879 0.58707 0.67353 0.0
C120 C 0.05845 0.55776 0.72841 0.0
H121 H 0.96232 0.59745 0.72313 0.0
C122 C 0.9163 0.60095 0.80564 0.0
O123 O 0.99305 0.64901 0.88157 0.0
O124 O 0.01559 0.65115 0.81813 0.0
N125 N 0.06502 0.54608 0.79521 0.0
C126 C 0.08655 0.53329 0.82598 0.0
C127 C 0.12828 0.51816 0.81858 0.0
C128 C 0.14648 0.51574 0.77948 0.0
C129 C 0.12314 0.52874 0.74822 0.0
C130 C 0.08264 0.54412 0.75757 0.0
H131 H 0.07199 0.53459 0.85592 0.0
O132 O 0.08158 0.61664 0.85401 0.0
O133 O 0.03715 0.59626 0.80949 0.0
O134 O -0.00155 0.59013 0.88877 0.0
O135 O 0.98973 0.5554 0.85079 0.0
C136 C 0.13798 0.52677 0.70805 0.0
C137 C 0.11406 0.54124 0.67835 0.0
H138 H 0.05998 0.5725 0.62979 0.0
H139 H 0.98907 0.59876 0.6523 0.0
H140 H 0.14597 0.50812 0.84286 0.0
H141 H 0.1783 0.50381 0.7738 0.0
H142 H 0.16826 0.51444 0.69971 0.0
H143 H 0.1266 0.53998 0.64771 0.0
Mn144 Mn 0.478 0.61889 0.65841 0.0
Mn145 Mn 0.48119 0.56477 0.71145 0.0
C146 C 0.40466 0.6005 0.68043 0.0
C147 C 0.48298 0.66301 0.6563 0.0
C148 C 0.49943 0.56727 0.62206 0.0
O149 O 0.55004 0.61646 0.677 0.0
O150 O 0.54369 0.58352 0.71941 0.0
C151 C 0.48238 0.58563 0.79341 0.0
N152 N 0.46103 0.57058 0.76529 0.0
C153 C 0.40231 0.55436 0.81282 0.0
C154 C 0.42375 0.5696 0.84238 0.0
C155 C 0.46367 0.58549 0.83253 0.0
C156 C 0.42157 0.5559 0.77412 0.0
H157 H 0.5136 0.59755 0.78607 0.0
C158 C 0.56758 0.60213 0.70432 0.0
O159 O 0.49379 0.64929 0.62539 0.0
O160 O 0.46946 0.65113 0.68842 0.0
N161 N 0.42232 0.54481 0.70691 0.0
C162 C 0.40568 0.53134 0.67493 0.0
C163 C 0.36521 0.5149 0.67959 0.0
C164 C 0.34316 0.51194 0.71727 0.0
C165 C 0.3616 0.52558 0.7499 0.0
C166 C 0.40134 0.54208 0.7433 0.0
H167 H 0.4232 0.53301 0.6461 0.0
O168 O 0.40425 0.61672 0.65127 0.0
O169 O 0.44769 0.59597 0.69581 0.0
O170 O 0.48838 0.59055 0.61761 0.0
O171 O 0.50151 0.55639 0.6561 0.0
C172 C 0.3428 0.52303 0.7889 0.0
C173 C 0.36304 0.53747 0.82032 0.0
H174 H 0.40992 0.56922 0.87273 0.0
H175 H 0.48038 0.59734 0.85514 0.0
H176 H 0.35144 0.50431 0.6543 0.0
H177 H 0.31227 0.49905 0.72084 0.0
H178 H 0.31262 0.51009 0.79503 0.0
H179 H 0.34788 0.53554 0.85011 0.0
Mn180 Mn 0.5131 0.89783 0.66074 0.0
Mn181 Mn 0.50993 0.95169 0.7145 0.0
C182 C 0.58578 0.91546 0.68487 0.0
C183 C 0.5075 0.85375 0.65768 0.0
C184 C 0.49735 0.95037 0.62447 0.0
O185 O 0.44054 0.90044 0.67749 0.0
O186 O 0.44501 0.93455 0.71744 0.0
C187 C 0.4977 0.92964 0.79519 0.0
N188 N 0.52344 0.94458 0.76931 0.0
C189 C 0.57806 0.95857 0.82146 0.0
C190 C 0.55212 0.9434 0.84874 0.0
C191 C 0.51203 0.9287 0.83546 0.0
C192 C 0.5629 0.95822 0.78153 0.0
H193 H 0.46633 0.91866 0.78521 0.0
C194 C 0.4214 0.91585 0.70245 0.0
O195 O 0.49807 0.86778 0.62675 0.0
O196 O 0.51993 0.86531 0.69031 0.0
N197 N 0.57096 0.97008 0.71492 0.0
C198 C 0.59344 0.98279 0.68449 0.0
C199 C 0.6353 0.99773 0.69252 0.0
C200 C 0.65265 1.00004 0.73188 0.0
C201 C 0.6284 0.98708 0.76277 0.0
C202 C 0.58782 0.97189 0.75279 0.0
H203 H 0.57952 0.98157 0.65434 0.0
O204 O 0.58696 0.89971 0.65516 0.0
O205 O 0.54242 0.92009 0.69963 0.0
O206 O 0.50475 0.92669 0.62016 0.0
O207 O 0.49644 0.96133 0.65842 0.0
C208 C 0.64248 0.98887 0.80314 0.0
C209 C 0.61789 0.9743 0.83239 0.0
H210 H 0.56263 0.94291 0.87994 0.0
H211 H 0.49183 0.91692 0.8563 0.0
H212 H 0.65374 1.00771 0.66853 0.0
H213 H 0.68458 0.01182 0.73805 0.0
H214 H 0.67274 1.00109 0.81198 0.0
H215 H 0.62993 0.97536 0.86318 0.0
Mn216 Mn 0.48642 0.39832 0.34764 0.0
Mn217 Mn 0.49054 0.4522 0.29371 0.0
C218 C 0.41404 0.41636 0.3237 0.0
C219 C 0.49073 0.35422 0.35094 0.0
C220 C 0.50344 0.4508 0.38369 0.0
O221 O 0.55894 0.40051 0.3306 0.0
O222 O 0.55519 0.43482 0.2909 0.0
C223 C 0.50231 0.42998 0.2132 0.0
N224 N 0.47678 0.44501 0.23898 0.0
C225 C 0.42181 0.45877 0.18689 0.0
C226 C 0.44752 0.44349 0.15971 0.0
C227 C 0.48769 0.42886 0.17301 0.0
C228 C 0.43726 0.45859 0.22676 0.0
H229 H 0.53371 0.41903 0.22319 0.0
C230 C 0.57844 0.41599 0.30585 0.0
O231 O 0.50083 0.36819 0.38173 0.0
O232 O 0.4785 0.36583 0.31827 0.0
N233 N 0.42986 0.47084 0.2932 0.0
C234 C 0.40802 0.48394 0.32345 0.0
C235 C 0.36635 0.49898 0.31534 0.0
C236 C 0.34852 0.50098 0.27607 0.0
C237 C 0.3722 0.48768 0.24534 0.0
C238 C 0.41267 0.47244 0.25539 0.0
H239 H 0.42228 0.48294 0.35351 0.0
O240 O 0.41265 0.40062 0.35348 0.0
O241 O 0.45744 0.42075 0.30877 0.0
O242 O 0.49575 0.42713 0.38804 0.0
O243 O 0.50426 0.46181 0.34973 0.0
C244 C 0.35772 0.48922 0.20503 0.0
C245 C 0.38196 0.47447 0.17591 0.0
H246 H 0.4368 0.44288 0.12857 0.0
H247 H 0.50771 0.41701 0.15224 0.0
H248 H 0.3484 0.50926 0.33921 0.0
H249 H 0.31673 0.51283 0.26984 0.0
H250 H 0.32749 0.50145 0.19614 0.0
H251 H 0.36969 0.47539 0.14516 0.0
Mn252 Mn 0.51428 0.11928 0.34879 0.0
Mn253 Mn 0.51089 0.06533 0.29529 0.0
C254 C 0.58693 0.1015 0.32489 0.0
C255 C 0.50929 0.16338 0.35165 0.0
C256 C 0.4978 0.06686 0.38527 0.0
O257 O 0.44173 0.11675 0.33185 0.0
O258 O 0.44622 0.08262 0.29195 0.0
C259 C 0.49951 0.08718 0.21441 0.0
N260 N 0.52494 0.0723 0.24052 0.0
C261 C 0.5798 0.05804 0.18873 0.0
C262 C 0.55418 0.07316 0.1612 0.0
C263 C 0.51413 0.08797 0.17419 0.0
C264 C 0.5644 0.05858 0.2286 0.0
H265 H 0.46815 0.09823 0.22415 0.0
C266 C 0.42266 0.10136 0.30681 0.0
O267 O 0.49949 0.14944 0.38261 0.0
O268 O 0.5216 0.15173 0.31909 0.0
N269 N 0.5717 0.0468 0.2953 0.0
C270 C 0.59359 0.03397 0.32587 0.0
C271 C 0.63527 0.01888 0.31812 0.0
C272 C 0.65303 0.01651 0.27889 0.0
C273 C 0.62932 0.02955 0.24784 0.0
C274 C 0.58892 0.04491 0.25754 0.0
H275 H 0.57934 0.03522 0.35592 0.0
O276 O 0.58813 0.1173 0.35452 0.0
O277 O 0.54358 0.0969 0.31009 0.0
O278 O 0.50552 0.09052 0.3895 0.0
O279 O 0.49684 0.05585 0.35137 0.0
C280 C 0.64371 0.02763 0.20755 0.0
C281 C 0.61949 0.04216 0.17809 0.0
H282 H 0.56487 0.0735 0.13004 0.0
H283 H 0.49417 0.0997 0.15315 0.0
H284 H 0.65325 0.00881 0.34224 0.0
H285 H 0.6848 1.0046 0.27294 0.0
H286 H 0.67388 0.01531 0.19894 0.0
H287 H 0.6317 0.04096 0.14735 0.0
C288 C 0.03801 0.31113 0.18164 0.0
C289 C 0.00957 0.32567 0.1552 0.0
C290 C 0.03585 0.28458 0.18102 0.0
C291 C 0.00336 0.27228 0.15409 0.0
C292 C 0.97426 0.28692 0.12751 0.0
C293 C 0.97825 0.31344 0.128 0.0
C294 C 0.06846 0.26968 0.20911 0.0
C295 C 0.93826 0.27458 0.09907 0.0
C296 C 0.02477 0.20289 0.12885 0.0
C297 C 0.9929 0.19074 0.15578 0.0
C298 C 0.02887 0.22941 0.12816 0.0
C299 C -0.00069 0.24412 0.15424 0.0
C300 C 0.96632 0.23191 0.18092 0.0
C301 C 0.96407 0.20536 0.18178 0.0
C302 C 0.06543 0.24165 0.10001 0.0
C303 C 0.93324 0.24688 0.20848 0.0
H304 H 0.06256 0.32052 0.20251 0.0
H305 H 0.95596 0.32464 0.1077 0.0
H306 H 0.04525 0.25853 0.23003 0.0
H307 H 0.09137 0.25607 0.192 0.0
H308 H 0.09341 0.28205 0.22682 0.0
H309 H 0.91787 0.28865 0.08069 0.0
H310 H 0.9582 0.26151 0.07882 0.0
H311 H 0.91099 0.26313 0.11607 0.0
H312 H 0.04737 0.19163 0.10889 0.0
H313 H 0.93909 0.19602 0.20243 0.0
H314 H 0.09233 0.25318 0.11721 0.0
H315 H 0.04587 0.25463 0.07933 0.0
H316 H 0.08619 0.22752 0.08209 0.0
H317 H 0.95608 0.25813 0.22949 0.0
H318 H 0.90801 0.23457 0.22608 0.0
H319 H 0.91059 0.26043 0.19094 0.0
C320 C 0.95906 0.8116 0.8278 0.0
C321 C 0.98934 0.82587 0.85323 0.0
C322 C 0.96019 0.78504 0.82853 0.0
C323 C 0.99354 0.77244 0.85444 0.0
C324 C 0.02452 0.78681 0.87996 0.0
C325 C 0.02149 0.81336 0.87948 0.0
C326 C 0.92561 0.77045 0.80161 0.0
C327 C 0.06151 0.77415 0.90722 0.0
C328 C 0.97108 0.70314 0.88018 0.0
C329 C 0.00109 0.69084 0.85213 0.0
C330 C 0.96798 0.72969 0.88114 0.0
C331 C -0.00333 0.74426 0.85414 0.0
C332 C 0.02782 0.73189 0.82633 0.0
C333 C 0.0291 0.70533 0.82528 0.0
C334 C 0.93336 0.74212 0.91055 0.0
C335 C 0.05995 0.74669 0.79772 0.0
H336 H 0.93384 0.82122 0.80771 0.0
H337 H 0.04518 0.82436 0.89898 0.0
H338 H 0.94731 0.75916 0.77991 0.0
H339 H 0.9032 0.75698 0.81953 0.0
H340 H 0.90013 0.78305 0.78479 0.0
H341 H 0.08325 0.78802 0.92491 0.0
H342 H 0.04218 0.76119 0.9281 0.0
H343 H 0.08753 0.76252 0.88934 0.0
H344 H 0.94915 0.69198 0.90082 0.0
H345 H 0.05267 0.69589 0.80376 0.0
H346 H 0.90591 0.75389 0.89431 0.0
H347 H 0.95441 0.75492 0.93052 0.0
H348 H 0.91315 0.72811 0.92917 0.0
H349 H 0.03642 0.75814 0.77748 0.0
H350 H 0.08391 0.73424 0.7793 0.0
H351 H 0.08388 0.76003 0.81451 0.0
C352 C 0.51817 0.70311 0.6284 0.0
C353 C 0.48603 0.69096 0.65511 0.0
C354 C 0.52243 0.72962 0.62787 0.0
C355 C 0.49273 0.74433 0.65385 0.0
C356 C 0.45938 0.73211 0.68025 0.0
C357 C 0.457 0.70556 0.68099 0.0
C358 C 0.55939 0.74186 0.60007 0.0
C359 C 0.42613 0.74708 0.70768 0.0
C360 C 0.53213 0.81101 0.68249 0.0
C361 C 0.50428 0.82582 0.65602 0.0
C362 C 0.52957 0.78448 0.68146 0.0
C363 C 0.49722 0.77247 0.6541 0.0
C364 C 0.46869 0.78738 0.62749 0.0
C365 C 0.47312 0.81389 0.62838 0.0
C366 C 0.56161 0.76929 0.70959 0.0
C367 C 0.43281 0.77537 0.59862 0.0
H368 H 0.54091 0.69185 0.60855 0.0
H369 H 0.43182 0.69622 0.70146 0.0
H370 H 0.54022 0.75506 0.57948 0.0
H371 H 0.58636 0.75317 0.61756 0.0
H372 H 0.58005 0.72775 0.58204 0.0
H373 H 0.40042 0.73478 0.72486 0.0
H374 H 0.44885 0.75809 0.72909 0.0
H375 H 0.40399 0.76083 0.69012 0.0
H376 H 0.55656 0.82018 0.70369 0.0
H377 H 0.45129 0.82531 0.60806 0.0
H378 H 0.58447 0.75566 0.69246 0.0
H379 H 0.53798 0.75815 0.73021 0.0
H380 H 0.5866 0.78146 0.72762 0.0
H381 H 0.45275 0.76231 0.57835 0.0
H382 H 0.41289 0.78962 0.58027 0.0
H383 H 0.40515 0.76395 0.61527 0.0
C384 C 0.52423 0.31408 0.38002 0.0
C385 C 0.49282 0.32628 0.35283 0.0
C386 C 0.52763 0.28755 0.38103 0.0
C387 C 0.49776 0.27288 0.35508 0.0
C388 C 0.46505 0.28516 0.32828 0.0
C389 C 0.46357 0.31171 0.32705 0.0
C390 C 0.56395 0.27523 0.40925 0.0
C391 C 0.43161 0.27025 0.30088 0.0
C392 C 0.53546 0.20591 0.32694 0.0
C393 C 0.50689 0.19132 0.35326 0.0
C394 C 0.53377 0.23245 0.32795 0.0
C395 C 0.50157 0.24472 0.35511 0.0
C396 C 0.47234 0.23004 0.38159 0.0
C397 C 0.47592 0.20351 0.38075 0.0
C398 C 0.56652 0.24737 0.29994 0.0
C399 C 0.43657 0.24235 0.41022 0.0
H400 H 0.54712 0.32532 0.39981 0.0
H401 H 0.43891 0.32109 0.30623 0.0
H402 H 0.54424 0.26217 0.42975 0.0
H403 H 0.59093 0.26376 0.39206 0.0
H404 H 0.58464 0.2893 0.42736 0.0
H405 H 0.40626 0.28262 0.28352 0.0
H406 H 0.4542 0.25907 0.27963 0.0
H407 H 0.40908 0.25667 0.31847 0.0
H408 H 0.55977 0.19654 0.30587 0.0
H409 H 0.45355 0.19226 0.40096 0.0
H410 H 0.58947 0.26095 0.31713 0.0
H411 H 0.5434 0.25856 0.27903 0.0
H412 H 0.59145 0.23502 0.28222 0.0
H413 H 0.45668 0.2554 0.43043 0.0
H414 H 0.41624 0.22827 0.42863 0.0
H415 H 0.40926 0.25383 0.39335 0.0
C416 C 0.35236 0.08986 0.26211 0.0
C417 C 0.37131 0.10547 0.29241 0.0
C418 C 0.30417 0.09292 0.24772 0.0
C419 C 0.27375 0.11207 0.26394 0.0
C420 C 0.29279 0.12841 0.2937 0.0
C421 C 0.34147 0.12492 0.30765 0.0
C422 C 0.2853 0.07502 0.216 0.0
C423 C 0.26132 0.14909 0.31153 0.0
C424 C 0.15713 0.1234 0.20318 0.0
C425 C 0.12391 0.10685 0.22207 0.0
C426 C 0.20552 0.1266 0.21788 0.0
C427 C 0.22075 0.11297 0.2522 0.0
C428 C 0.18654 0.09734 0.27252 0.0
C429 C 0.13871 0.09446 0.25723 0.0
C430 C 0.24103 0.14356 0.1956 0.0
C431 C 0.2012 0.08248 0.30923 0.0
H432 H 0.37507 0.07495 0.24962 0.0
H433 H 0.35586 0.13723 0.33075 0.0
H434 H 0.25486 0.06328 0.22838 0.0
H435 H 0.26998 0.08581 0.19042 0.0
H436 H 0.31471 0.0622 0.20471 0.0
H437 H 0.28308 0.16184 0.33119 0.0
H438 H 0.24388 0.16053 0.28757 0.0
H439 H 0.23096 0.14056 0.32936 0.0
H440 H 0.14589 0.13325 0.17628 0.0
H441 H 0.11315 0.082 0.27262 0.0
H442 H 0.26887 0.1318 0.17986 0.0
H443 H 0.26139 0.15597 0.21665 0.0
H444 H 0.22179 0.15555 0.1732 0.0
H445 H 0.22817 0.06758 0.30081 0.0
H446 H 0.16893 0.07325 0.3238 0.0
H447 H 0.21956 0.09497 0.3313 0.0
C448 C 0.65178 0.42953 0.26593 0.0
C449 C 0.62998 0.41187 0.29192 0.0
C450 C 0.69983 0.42617 0.25139 0.0
C451 C 0.72718 0.40461 0.26305 0.0
C452 C 0.7054 0.38641 0.28871 0.0
C453 C 0.65697 0.39028 0.30295 0.0
C454 C 0.72177 0.44614 0.22427 0.0
C455 C 0.73358 0.36317 0.30165 0.0
C456 C 0.84172 0.39468 0.19928 0.0
C457 C 0.87699 0.40835 0.22113 0.0
C458 C 0.7931 0.3918 0.21372 0.0
C459 C 0.77993 0.40266 0.25089 0.0
C460 C 0.8163 0.41501 0.27412 0.0
C461 C 0.86419 0.4178 0.2589 0.0
C462 C 0.75521 0.37848 0.18816 0.0
C463 C 0.80397 0.42672 0.31403 0.0
H464 H 0.63142 0.44625 0.25694 0.0
H465 H 0.64034 0.3764 0.32267 0.0
H466 H 0.75382 0.45525 0.23918 0.0
H467 H 0.73561 0.43736 0.19636 0.0
H468 H 0.69458 0.46107 0.21626 0.0
H469 H 0.71009 0.34983 0.31896 0.0
H470 H 0.74866 0.35315 0.27523 0.0
H471 H 0.76555 0.36881 0.32044 0.0
H472 H 0.85145 0.38716 0.17024 0.0
H473 H 0.89141 0.42797 0.27642 0.0
H474 H 0.72935 0.39263 0.17534 0.0
H475 H 0.73291 0.36515 0.20639 0.0
H476 H 0.77266 0.3679 0.16323 0.0
H477 H 0.77978 0.44343 0.3094 0.0
H478 H 0.83761 0.43294 0.3304 0.0
H479 H 0.78333 0.41312 0.333 0.0
C480 C 0.13693 0.92139 0.75128 0.0
C481 C 0.12258 0.9095 0.78698 0.0
C482 C 0.18478 0.91863 0.736 0.0
C483 C 0.21949 0.90365 0.75691 0.0
C484 C 0.20471 0.89045 0.79179 0.0
C485 C 0.15626 0.8935 0.80644 0.0
C486 C 0.19893 0.933 0.69865 0.0
C487 C 0.24076 0.8742 0.81473 0.0
C488 C 0.34069 0.89183 0.70212 0.0
C489 C 0.36996 0.91175 0.71665 0.0
C490 C 0.29205 0.88819 0.71609 0.0
C491 C 0.27245 0.90486 0.74512 0.0
C492 C 0.30223 0.92455 0.76054 0.0
C493 C 0.35041 0.92775 0.74615 0.0
C494 C 0.26125 0.86694 0.69911 0.0
C495 C 0.28273 0.94283 0.79146 0.0
H496 H 0.11099 0.93341 0.73547 0.0
H497 H 0.14537 0.88404 0.83379 0.0
H498 H 0.22532 0.94832 0.70642 0.0
H499 H 0.21779 0.92032 0.67713 0.0
H500 H 0.16633 0.94162 0.68368 0.0
H501 H 0.22191 0.86237 0.83758 0.0
H502 H 0.26158 0.86166 0.79419 0.0
H503 H 0.26817 0.88647 0.83002 0.0
H504 H 0.35555 0.87921 0.67964 0.0
H505 H 0.37265 0.94305 0.75805 0.0
H506 H 0.23053 0.8749 0.68107 0.0
H507 H 0.24432 0.85569 0.72353 0.0
H508 H 0.28339 0.85412 0.67985 0.0
H509 H 0.2519 0.95404 0.77857 0.0
H510 H 0.31168 0.95613 0.80217 0.0
H511 H 0.26777 0.93234 0.8175 0.0
C512 C 0.6514 0.62298 0.7009 0.0
C513 C 0.61766 0.60712 0.72063 0.0
C514 C 0.69992 0.62607 0.71542 0.0
C515 C 0.71469 0.61306 0.75046 0.0
C516 C 0.67995 0.59819 0.77161 0.0
C517 C 0.63204 0.59538 0.75644 0.0
C518 C 0.73601 0.64217 0.69221 0.0
C519 C 0.69408 0.58403 0.80914 0.0
C520 C 0.84551 0.58899 0.76171 0.0
C521 C 0.86502 0.60511 0.7911 0.0
C522 C 0.79741 0.59215 0.74717 0.0
C523 C 0.76765 0.61192 0.76228 0.0
C524 C 0.78726 0.62875 0.79112 0.0
C525 C 0.83581 0.62514 0.80527 0.0
C526 C 0.7779 0.5737 0.71649 0.0
C527 C 0.75652 0.6501 0.80775 0.0
H528 H 0.64048 0.63232 0.67346 0.0
H529 H 0.60608 0.58347 0.77246 0.0
H530 H 0.75683 0.65485 0.71256 0.0
H531 H 0.7634 0.62981 0.67715 0.0
H532 H 0.71719 0.65384 0.66916 0.0
H533 H 0.66148 0.57546 0.82422 0.0
H534 H 0.72049 0.56869 0.80158 0.0
H535 H 0.71291 0.59684 0.8305 0.0
H536 H 0.86769 0.5736 0.75009 0.0
H537 H 0.85064 0.63785 0.82764 0.0
H538 H 0.76293 0.58404 0.69031 0.0
H539 H 0.74708 0.56253 0.72953 0.0
H540 H 0.80686 0.56037 0.70593 0.0
H541 H 0.73958 0.66118 0.78315 0.0
H542 H 0.7787 0.66306 0.82676 0.0
H543 H 0.7258 0.64226 0.82596 0.0
C544 C 0.6708 0.93343 0.68845 0.0
C545 C 0.63137 0.92109 0.70701 0.0
C546 C 0.71617 0.93653 0.7083 0.0
C547 C 0.72313 0.92566 0.74666 0.0
C548 C 0.68278 0.91317 0.76547 0.0
C549 C 0.63707 0.91163 0.74572 0.0
C550 C 0.75585 0.95205 0.68844 0.0
C551 C 0.68733 0.9007 0.80592 0.0
C552 C 0.85445 0.90576 0.77293 0.0
C553 C 0.86438 0.92095 0.80613 0.0
C554 C 0.80866 0.90712 0.75326 0.0
C555 C 0.77326 0.92531 0.76557 0.0
C556 C 0.78461 0.94152 0.79798 0.0
C557 C 0.82907 0.93832 0.8191 0.0
C558 C 0.7975 0.88837 0.72048 0.0
C559 C 0.74985 0.96218 0.8104 0.0
H560 H 0.6659 0.94087 0.65852 0.0
H561 H 0.60634 0.90188 0.75985 0.0
H562 H 0.79279 0.94327 0.692 0.0
H563 H 0.74858 0.95487 0.6561 0.0
H564 H 0.75663 0.97087 0.70293 0.0
H565 H 0.6625 0.88399 0.80816 0.0
H566 H 0.72567 0.89448 0.81259 0.0
H567 H 0.67555 0.91428 0.82926 0.0
H568 H 0.88171 0.89193 0.76357 0.0
H569 H 0.83645 0.94956 0.84544 0.0
H570 H 0.79359 0.89838 0.69155 0.0
H571 H 0.76189 0.8786 0.72665 0.0
H572 H 0.82705 0.8739 0.71733 0.0
H573 H 0.73871 0.97325 0.78371 0.0
H574 H 0.76667 0.97519 0.8326 0.0
H575 H 0.71632 0.95367 0.82384 0.0
C576 C 0.32359 0.5787 0.68992 0.0
C577 C 0.35908 0.59593 0.70316 0.0
C578 C 0.27917 0.57537 0.7111 0.0
C579 C 0.26805 0.59136 0.74383 0.0
C580 C 0.30381 0.60922 0.75667 0.0
C581 C 0.34949 0.61074 0.73685 0.0
C582 C 0.2444 0.55468 0.69862 0.0
C583 C 0.29316 0.62742 0.7903 0.0
C584 C 0.13261 0.60608 0.76435 0.0
C585 C 0.12603 0.59536 0.80218 0.0
C586 C 0.17847 0.60463 0.74477 0.0
C587 C 0.21788 0.591 0.76268 0.0
C588 C 0.21012 0.57903 0.8001 0.0
C589 C 0.16473 0.58203 0.81997 0.0
C590 C 0.18546 0.619 0.70618 0.0
C591 C 0.24917 0.56269 0.81897 0.0
H592 H 0.33081 0.56766 0.66335 0.0
H593 H 0.37698 0.62439 0.74653 0.0
H594 H 0.23531 0.54283 0.72499 0.0
H595 H 0.20966 0.56306 0.6872 0.0
H596 H 0.26033 0.54241 0.675 0.0
H597 H 0.32363 0.64127 0.79474 0.0
H598 H 0.25845 0.63796 0.78407 0.0
H599 H 0.28766 0.61687 0.81857 0.0
H600 H 0.10257 0.61678 0.75106 0.0
H601 H 0.1593 0.57381 0.84932 0.0
H602 H 0.19432 0.60577 0.68158 0.0
H603 H 0.21708 0.63231 0.70906 0.0
H604 H 0.15195 0.62992 0.69764 0.0
H605 H 0.25092 0.5447 0.80211 0.0
H606 H 0.24071 0.55818 0.85065 0.0
H607 H 0.286 0.57185 0.81744 0.0
C608 C 0.63891 0.10656 0.26465 0.0
C609 C 0.63246 0.09602 0.3026 0.0
C610 C 0.68472 0.10505 0.24501 0.0
C611 C 0.72423 0.09155 0.26303 0.0
C612 C 0.71662 0.07979 0.30063 0.0
C613 C 0.67126 0.08283 0.32051 0.0
C614 C 0.69158 0.11924 0.20623 0.0
C615 C 0.75578 0.06361 0.31971 0.0
C616 C 0.82993 0.07878 0.19046 0.0
C617 C 0.86547 0.09604 0.20348 0.0
C618 C 0.78546 0.07563 0.21162 0.0
C619 C 0.77434 0.09183 0.24409 0.0
C620 C 0.81012 0.10975 0.25667 0.0
C621 C 0.85586 0.11109 0.2369 0.0
C622 C 0.75061 0.05492 0.19938 0.0
C623 C 0.79949 0.12817 0.29001 0.0
H624 H 0.6088 0.11718 0.25127 0.0
H625 H 0.66591 0.07474 0.34996 0.0
H626 H 0.72321 0.13256 0.20887 0.0
H627 H 0.70034 0.1059 0.18177 0.0
H628 H 0.65804 0.13012 0.19765 0.0
H629 H 0.75719 0.04541 0.3034 0.0
H630 H 0.79266 0.07267 0.31765 0.0
H631 H 0.74763 0.05951 0.35157 0.0
H632 H 0.83717 0.06756 0.16406 0.0
H633 H 0.88337 0.12478 0.2464 0.0
H634 H 0.76664 0.04241 0.17612 0.0
H635 H 0.71609 0.0633 0.18753 0.0
H636 H 0.74112 0.04331 0.22594 0.0
H637 H 0.76472 0.13863 0.28367 0.0
H638 H 0.82992 0.14207 0.29417 0.0
H639 H 0.79412 0.11779 0.31847 0.0
C640 C 0.14514 0.40652 0.2371 0.0
C641 C 0.13516 0.42126 0.20336 0.0
C642 C 0.19092 0.40823 0.25672 0.0
C643 C 0.22635 0.4262 0.24359 0.0
C644 C 0.21476 0.44217 0.21088 0.0
C645 C 0.17026 0.43865 0.18992 0.0
C646 C 0.20205 0.39005 0.29035 0.0
C647 C 0.24921 0.46294 0.19804 0.0
C648 C 0.33004 0.43541 0.31928 0.0
C649 C 0.36855 0.42197 0.30146 0.0
C650 C 0.28468 0.43858 0.29944 0.0
C651 C 0.27669 0.42663 0.2621 0.0
C652 C 0.31595 0.41296 0.24412 0.0
C653 C 0.36182 0.41134 0.26364 0.0
C654 C 0.24581 0.45503 0.31826 0.0
C655 C 0.30875 0.39868 0.20553 0.0
H656 H 0.11794 0.39275 0.24694 0.0
H657 H 0.16269 0.44967 0.16332 0.0
H658 H 0.23668 0.37952 0.28385 0.0
H659 H 0.20794 0.40061 0.31852 0.0
H660 H 0.17167 0.37619 0.29516 0.0
H661 H 0.25976 0.47441 0.22442 0.0
H662 H 0.28322 0.4546 0.18521 0.0
H663 H 0.23233 0.47558 0.1753 0.0
H664 H 0.33561 0.44358 0.34861 0.0
H665 H 0.39172 0.40057 0.25032 0.0
H666 H 0.20928 0.44551 0.31802 0.0
H667 H 0.24286 0.47263 0.30044 0.0
H668 H 0.25512 0.46025 0.34948 0.0
H669 H 0.27714 0.38536 0.2085 0.0
H670 H 0.3422 0.38777 0.19685 0.0
H671 H 0.29976 0.41196 0.18099 0.0
C672 C 0.98546 0.05555 0.05263 0.0
C673 C 0.01364 0.0511 0.08707 0.0
C674 C 0.98726 0.03885 0.02004 0.0
C675 C 0.01914 0.01758 0.02141 0.0
C676 C 0.04931 0.01364 0.05545 0.0
C677 C 0.04556 0.03019 0.08814 0.0
C678 C 0.95352 0.04343 0.98481 0.0
C679 C 0.08489 0.99167 0.05763 0.0
C680 C 0.98532 0.96094 0.95677 0.0
C681 C 0.0134 0.96542 0.92227 0.0
C682 C 0.98722 0.97762 0.98938 0.0
C683 C 0.0191 0.99892 0.98796 0.0
C684 C 0.04919 1.00289 0.95387 0.0
C685 C 0.04534 0.98635 0.92117 0.0
C686 C 0.95356 0.97302 0.02466 0.0
C687 C 0.08478 0.02488 0.95164 0.0
H688 H 0.96024 0.07149 0.05187 0.0
H689 H 0.06752 0.02673 0.11468 0.0
H690 H 0.9755 0.04483 0.95694 0.0
H691 H 0.92781 0.02719 0.98131 0.0
H692 H 0.93131 0.06097 0.98816 0.0
H693 H 0.10893 0.99257 0.0845 0.0
H694 H 0.06394 0.97363 0.05837 0.0
H695 H 0.10873 0.9913 0.03065 0.0
H696 H 0.96007 0.94499 0.95756 0.0
H697 H 0.06723 0.98984 0.89459 0.0
H698 H 0.92783 0.98922 0.02818 0.0
H699 H 0.9756 0.97165 0.0525 0.0
H700 H 0.93138 0.95544 0.02137 0.0
H701 H 0.06384 0.04291 0.9509 0.0
H702 H 0.1088 0.02398 0.92475 0.0
H703 H 0.10865 0.02528 0.9786 0.0
C704 C 0.01257 0.55573 0.95521 0.0
C705 C 0.98478 0.55057 0.92083 0.0
C706 C 0.0116 0.53925 0.9882 0.0
C707 C 0.98093 0.51748 0.98727 0.0
C708 C 0.9512 0.51279 0.95323 0.0
C709 C 0.95413 0.52914 0.92018 0.0
C710 C 0.04488 0.54462 0.02341 0.0
C711 C 0.91687 0.49027 0.95147 0.0
C712 C 0.0163 0.46142 0.05283 0.0
C713 C 0.9873 0.46552 0.08693 0.0
C714 C 0.01447 0.47814 0.02021 0.0
C715 C 0.98172 0.49907 0.02115 0.0
C716 C 0.95094 0.50273 0.05491 0.0
C717 C 0.95473 0.48617 0.08768 0.0
C718 C 0.04888 0.47389 0.98531 0.0
C719 C 0.91444 0.52431 0.05662 0.0
H720 H 0.03677 0.5721 0.95565 0.0
H721 H 0.93241 0.52515 0.8937 0.0
H722 H 0.02268 0.54589 0.05118 0.0
H723 H 0.07148 0.52883 0.02736 0.0
H724 H 0.06608 0.56249 0.01971 0.0
H725 H 0.89307 0.49052 0.92443 0.0
H726 H 0.9388 0.47254 0.95141 0.0
H727 H 0.89277 0.48981 0.9783 0.0
H728 H 0.04206 0.44571 0.05235 0.0
H729 H 0.93218 0.48938 0.11396 0.0
H730 H 0.07354 0.49053 0.98158 0.0
H731 H 0.02728 0.47189 0.95735 0.0
H732 H 0.07219 0.45676 0.9892 0.0
H733 H 0.93458 0.54259 0.05682 0.0
H734 H 0.8905 0.52338 0.08355 0.0
H735 H 0.89052 0.52416 0.02968 0.0
C736 C 0.53974 0.4881 0.41917 0.0
C737 C 0.5088 0.46679 0.41973 0.0
C738 C 0.54256 0.50445 0.45218 0.0
C739 C 0.51239 0.49987 0.48603 0.0
C740 C 0.4813 0.47826 0.48681 0.0
C741 C 0.48048 0.46177 0.45391 0.0
C742 C 0.57735 0.52679 0.4506 0.0
C743 C 0.44753 0.47303 0.5218 0.0
C744 C 0.53843 0.53056 0.58677 0.0
C745 C 0.50628 0.55138 0.58605 0.0
C746 C 0.54218 0.51417 0.55386 0.0
C747 C 0.51179 0.51818 0.51997 0.0
C748 C 0.47951 0.5393 0.51903 0.0
C749 C 0.47772 0.55585 0.55181 0.0
C750 C 0.57819 0.49237 0.55559 0.0
C751 C 0.44552 0.54392 0.48398 0.0
H752 H 0.56186 0.49198 0.39284 0.0
H753 H 0.45604 0.44549 0.45425 0.0
H754 H 0.55579 0.54464 0.45059 0.0
H755 H 0.60135 0.52702 0.47749 0.0
H756 H 0.60125 0.52651 0.42361 0.0
H757 H 0.42577 0.45537 0.51788 0.0
H758 H 0.46945 0.47145 0.54968 0.0
H759 H 0.42141 0.48904 0.52572 0.0
H760 H 0.56067 0.52708 0.61315 0.0
H761 H 0.4523 0.57171 0.55134 0.0
H762 H 0.60227 0.49247 0.52874 0.0
H763 H 0.55764 0.4742 0.55565 0.0
H764 H 0.602 0.49306 0.58261 0.0
H765 H 0.46739 0.54584 0.45613 0.0
H766 H 0.42269 0.56122 0.48782 0.0
H767 H 0.4204 0.52749 0.48007 0.0
C768 C 0.46122 0.98768 0.58881 0.0
C769 C 0.49233 0.96645 0.58842 0.0
C770 C 0.4585 1.00405 0.55577 0.0
C771 C 0.48895 0.99961 0.52206 0.0
C772 C 0.52035 0.97813 0.52152 0.0
C773 C 0.52107 0.9616 0.55444 0.0
C774 C 0.42336 0.02623 0.55709 0.0
C775 C 0.55441 0.97306 0.48669 0.0
C776 C 0.46131 0.02966 0.42104 0.0
C777 C 0.49257 0.05085 0.42138 0.0
C778 C 0.45848 0.01331 0.45411 0.0
C779 C 0.48898 0.01774 0.4878 0.0
C780 C 0.52051 0.03919 0.4883 0.0
C781 C 0.52133 0.0557 0.45535 0.0
C782 C 0.42321 0.99116 0.45283 0.0
C783 C 0.55461 0.04426 0.52311 0.0
H784 H 0.43882 0.99143 0.615 0.0
H785 H 0.54565 0.9454 0.55426 0.0
H786 H 0.44459 0.04419 0.55662 0.0
H787 H 0.39915 0.02615 0.53032 0.0
H788 H 0.39965 0.026 0.5842 0.0
H789 H 0.57675 0.95563 0.49095 0.0
H790 H 0.53262 0.97112 0.45881 0.0
H791 H 0.57998 0.98929 0.48252 0.0
H792 H 0.43889 0.0259 0.39486 0.0
H793 H 0.54604 0.07188 0.4555 0.0
H794 H 0.39906 0.99125 0.47964 0.0
H795 H 0.44434 0.97318 0.45325 0.0
H796 H 0.39944 0.99142 0.42577 0.0
H797 H 0.53286 0.04618 0.55101 0.0
H798 H 0.57699 0.06169 0.51885 0.0
H799 H 0.58014 0.02802 0.52723 0.0
loop_
_geom_bond_atom_site_label_1
_geom_bond_atom_site_label_2
_geom_bond_distance
_geom_bond_site_symmetry_2
_ccdc_geom_bond_type
Mn0 O5 2.095 . S
Mn0 O15 2.162 . S
Mn0 O16 2.297 . S
Mn0 O24 2.385 1_455 S
Mn0 O25 2.209 1_455 S
Mn0 O26 2.094 . S
Mn1 O6 2.121 1_655 S
Mn1 N8 2.257 . S
Mn1 N17 2.282 . S
Mn1 O25 2.215 . S
Mn1 O27 2.117 . S
C2 O24 1.234 . S
C2 O25 1.283 . S
C3 O15 1.281 . S
C3 O16 1.236 . S
C4 O26 1.241 . S
C4 O27 1.263 1_455 S
O5 Mn0 2.095 . S
O5 C14 1.250 . S
O6 Mn1 2.121 1_455 S
O6 C14 1.258 . S
C7 N8 1.326 1_455 S
C7 C11 1.460 1_455 S
C7 H13 0.929 . S
N8 Mn1 2.257 . S
N8 C7 1.326 1_655 S
N8 C12 1.362 . S
C9 C10 1.258 . S
C9 C12 1.431 . S
C9 C29 1.449 . S
C10 C9 1.258 . S
C10 C11 1.477 . S
C10 H30 0.931 . S
C11 C7 1.460 1_655 S
C11 C10 1.477 . S
C11 H31 0.930 1_655 S
C12 N8 1.362 . S
C12 C9 1.431 . S
C12 C22 1.476 . S
H13 C7 0.929 . S
C14 O5 1.250 . S
C14 O6 1.258 . S
O15 Mn0 2.162 . S
O15 C3 1.281 . S
O16 Mn0 2.297 . S
O16 C3 1.236 . S
N17 Mn1 2.282 . S
N17 C18 1.328 . S
N17 C22 1.318 . S
C18 N17 1.328 . S
C18 C19 1.457 . S
C18 H23 0.929 . S
C19 C18 1.457 . S
C19 C20 1.291 . S
C19 H32 0.931 . S
C20 C19 1.291 . S
C20 C21 1.373 . S
C20 H33 0.929 . S
C21 C20 1.373 . S
C21 C22 1.396 . S
C21 C28 1.403 . S
C22 C12 1.476 . S
C22 N17 1.318 . S
C22 C21 1.396 . S
H23 C18 0.929 . S
O24 Mn0 2.385 1_655 S
O24 C2 1.234 . S
O25 Mn0 2.209 1_655 S
O25 Mn1 2.215 . S
O25 C2 1.283 . S
O26 Mn0 2.094 . S
O26 C4 1.241 . S
O27 Mn1 2.117 . S
O27 C4 1.263 1_655 S
C28 C21 1.403 . S
C28 C29 1.399 . S
C28 H34 0.929 . S
C29 C9 1.449 . S
C29 C28 1.399 . S
C29 H35 0.930 . S
H30 C10 0.931 . S
H31 C11 0.930 1_455 S
H32 C19 0.931 . S
H33 C20 0.929 . S
H34 C28 0.929 . S
H35 C29 0.930 . S
Mn36 O41 2.095 1_455 S
Mn36 O51 2.162 . S
Mn36 O52 2.297 . S
Mn36 O60 2.385 . S
Mn36 O61 2.209 . S
Mn36 O62 2.094 . S
Mn37 O42 2.121 1_455 S
Mn37 N44 2.257 . S
Mn37 N53 2.282 . S
Mn37 O61 2.215 . S
Mn37 O63 2.117 . S
C38 O60 1.234 . S
C38 O61 1.283 . S
C39 O51 1.281 . S
C39 O52 1.236 . S
C40 O62 1.240 . S
C40 O63 1.264 . S
O41 Mn36 2.095 1_655 S
O41 C50 1.250 . S
O42 Mn37 2.121 1_655 S
O42 C50 1.258 . S
C43 N44 1.326 . S
C43 C47 1.459 . S
C43 H49 0.931 1_455 S
N44 Mn37 2.257 . S
N44 C43 1.326 . S
N44 C48 1.362 . S
C45 C46 1.258 . S
C45 C48 1.431 . S
C45 C65 1.449 . S
C46 C45 1.258 . S
C46 C47 1.477 . S
C46 H66 0.931 . S
C47 C43 1.459 . S
C47 C46 1.477 . S
C47 H67 0.930 1_455 S
C48 N44 1.362 . S
C48 C45 1.431 . S
C48 C58 1.476 . S
H49 C43 0.931 1_655 S
C50 O41 1.250 . S
C50 O42 1.258 . S
O51 Mn36 2.162 . S
O51 C39 1.281 . S
O52 Mn36 2.297 . S
O52 C39 1.236 . S
N53 Mn37 2.282 . S
N53 C54 1.328 . S
N53 C58 1.318 . S
C54 N53 1.328 . S
C54 C55 1.457 . S
C54 H59 0.929 . S
C55 C54 1.457 . S
C55 C56 1.291 . S
C55 H68 0.931 . S
C56 C55 1.291 . S
C56 C57 1.373 . S
C56 H69 0.929 . S
C57 C56 1.373 . S
C57 C58 1.396 . S
C57 C64 1.403 . S
C58 C48 1.476 . S
C58 N53 1.318 . S
C58 C57 1.396 . S
H59 C54 0.929 . S
O60 Mn36 2.385 . S
O60 C38 1.234 . S
O61 Mn36 2.209 . S
O61 Mn37 2.215 . S
O61 C38 1.283 . S
O62 Mn36 2.094 . S
O62 C40 1.240 . S
O63 Mn37 2.117 . S
O63 C40 1.264 . S
C64 C57 1.403 . S
C64 C65 1.399 . S
C64 H70 0.929 . S
C65 C45 1.449 . S
C65 C64 1.399 . S
C65 H71 0.930 . S
H66 C46 0.931 . S
H67 C47 0.930 1_655 S
H68 C55 0.931 . S
H69 C56 0.929 . S
H70 C64 0.929 . S
H71 C65 0.930 . S
Mn72 O77 2.095 . S
Mn72 O87 2.162 . S
Mn72 O88 2.297 . S
Mn72 O96 2.385 1_455 S
Mn72 O97 2.209 1_455 S
Mn72 O98 2.094 . S
Mn73 O78 2.121 1_655 S
Mn73 N80 2.257 . S
Mn73 N89 2.282 . S
Mn73 O97 2.215 . S
Mn73 O99 2.117 . S
C74 O96 1.234 . S
C74 O97 1.283 . S
C75 O87 1.281 . S
C75 O88 1.236 . S
C76 O98 1.241 . S
C76 O99 1.263 1_455 S
O77 Mn72 2.095 . S
O77 C86 1.250 . S
O78 Mn73 2.121 1_455 S
O78 C86 1.258 . S
C79 N80 1.326 1_455 S
C79 C83 1.460 1_455 S
C79 H85 0.929 . S
N80 Mn73 2.257 . S
N80 C79 1.326 1_655 S
N80 C84 1.362 . S
C81 C82 1.258 . S
C81 C84 1.431 . S
C81 C101 1.449 . S
C82 C81 1.258 . S
C82 C83 1.477 . S
C82 H102 0.931 . S
C83 C79 1.460 1_655 S
C83 C82 1.477 . S
C83 H103 0.930 1_655 S
C84 N80 1.362 . S
C84 C81 1.431 . S
C84 C94 1.476 . S
H85 C79 0.929 . S
C86 O77 1.250 . S
C86 O78 1.258 . S
O87 Mn72 2.162 . S
O87 C75 1.281 . S
O88 Mn72 2.297 . S
O88 C75 1.236 . S
N89 Mn73 2.282 . S
N89 C90 1.328 . S
N89 C94 1.318 . S
C90 N89 1.328 . S
C90 C91 1.457 . S
C90 H95 0.929 . S
C91 C90 1.457 . S
C91 C92 1.291 . S
C91 H104 0.931 . S
C92 C91 1.291 . S
C92 C93 1.373 . S
C92 H105 0.929 . S
C93 C92 1.373 . S
C93 C94 1.396 . S
C93 C100 1.403 . S
C94 C84 1.476 . S
C94 N89 1.318 . S
C94 C93 1.396 . S
H95 C90 0.929 . S
O96 Mn72 2.385 1_655 S
O96 C74 1.234 . S
O97 Mn72 2.209 1_655 S
O97 Mn73 2.215 . S
O97 C74 1.283 . S
O98 Mn72 2.094 . S
O98 C76 1.241 . S
O99 Mn73 2.117 . S
O99 C76 1.263 1_655 S
C100 C93 1.403 . S
C100 C101 1.399 . S
C100 H106 0.929 . S
C101 C81 1.449 . S
C101 C100 1.399 . S
C101 H107 0.930 . S
H102 C82 0.931 . S
H103 C83 0.930 1_455 S
H104 C91 0.931 . S
H105 C92 0.929 . S
H106 C100 0.929 . S
H107 C101 0.930 . S
Mn108 O113 2.095 1_455 S
Mn108 O123 2.162 . S
Mn108 O124 2.297 . S
Mn108 O132 2.385 . S
Mn108 O133 2.209 . S
Mn108 O134 2.094 . S
Mn109 O114 2.121 1_455 S
Mn109 N116 2.257 . S
Mn109 N125 2.282 . S
Mn109 O133 2.215 . S
Mn109 O135 2.117 . S
C110 O132 1.234 . S
C110 O133 1.283 . S
C111 O123 1.281 . S
C111 O124 1.236 . S
C112 O134 1.240 . S
C112 O135 1.264 . S
O113 Mn108 2.095 1_655 S
O113 C122 1.250 . S
O114 Mn109 2.121 1_655 S
O114 C122 1.258 . S
C115 N116 1.326 . S
C115 C119 1.459 . S
C115 H121 0.931 1_455 S
N116 Mn109 2.257 . S
N116 C115 1.326 . S
N116 C120 1.362 . S
C117 C118 1.258 . S
C117 C120 1.431 . S
C117 C137 1.449 . S
C118 C117 1.258 . S
C118 C119 1.477 . S
C118 H138 0.931 . S
C119 C115 1.459 . S
C119 C118 1.477 . S
C119 H139 0.930 1_455 S
C120 N116 1.362 . S
C120 C117 1.431 . S
C120 C130 1.476 . S
H121 C115 0.931 1_655 S
C122 O113 1.250 . S
C122 O114 1.258 . S
O123 Mn108 2.162 . S
O123 C111 1.281 . S
O124 Mn108 2.297 . S
O124 C111 1.236 . S
N125 Mn109 2.282 . S
N125 C126 1.328 . S
N125 C130 1.318 . S
C126 N125 1.328 . S
C126 C127 1.457 . S
C126 H131 0.929 . S
C127 C126 1.457 . S
C127 C128 1.291 . S
C127 H140 0.931 . S
C128 C127 1.291 . S
C128 C129 1.373 . S
C128 H141 0.929 . S
C129 C128 1.373 . S
C129 C130 1.396 . S
C129 C136 1.403 . S
C130 C120 1.476 . S
C130 N125 1.318 . S
C130 C129 1.396 . S
H131 C126 0.929 . S
O132 Mn108 2.385 . S
O132 C110 1.234 . S
O133 Mn108 2.209 . S
O133 Mn109 2.215 . S
O133 C110 1.283 . S
O134 Mn108 2.094 . S
O134 C112 1.240 . S
O135 Mn109 2.117 . S
O135 C112 1.264 . S
C136 C129 1.403 . S
C136 C137 1.399 . S
C136 H142 0.929 . S
C137 C117 1.449 . S
C137 C136 1.399 . S
C137 H143 0.930 . S
H138 C118 0.931 . S
H139 C119 0.930 1_655 S
H140 C127 0.931 . S
H141 C128 0.929 . S
H142 C136 0.929 . S
H143 C137 0.930 . S
Mn144 O149 2.095 . S
Mn144 O159 2.162 . S
Mn144 O160 2.297 . S
Mn144 O168 2.385 . S
Mn144 O169 2.209 . S
Mn144 O170 2.094 . S
Mn145 O150 2.121 . S
Mn145 N152 2.257 . S
Mn145 N161 2.282 . S
Mn145 O169 2.215 . S
Mn145 O171 2.117 . S
C146 O168 1.234 . S
C146 O169 1.283 . S
C147 O159 1.281 . S
C147 O160 1.236 . S
C148 O170 1.240 . S
C148 O171 1.264 . S
O149 Mn144 2.095 . S
O149 C158 1.250 . S
O150 Mn145 2.121 . S
O150 C158 1.258 . S
C151 N152 1.326 . S
C151 C155 1.460 . S
C151 H157 0.929 . S
N152 Mn145 2.257 . S
N152 C151 1.326 . S
N152 C156 1.362 . S
C153 C154 1.258 . S
C153 C156 1.431 . S
C153 C173 1.449 . S
C154 C153 1.258 . S
C154 C155 1.477 . S
C154 H174 0.931 . S
C155 C151 1.460 . S
C155 C154 1.477 . S
C155 H175 0.930 . S
C156 N152 1.362 . S
C156 C153 1.431 . S
C156 C166 1.476 . S
H157 C151 0.929 . S
C158 O149 1.250 . S
C158 O150 1.258 . S
O159 Mn144 2.162 . S
O159 C147 1.281 . S
O160 Mn144 2.297 . S
O160 C147 1.236 . S
N161 Mn145 2.282 . S
N161 C162 1.328 . S
N161 C166 1.318 . S
C162 N161 1.328 . S
C162 C163 1.457 . S
C162 H167 0.929 . S
C163 C162 1.457 . S
C163 C164 1.291 . S
C163 H176 0.931 . S
C164 C163 1.291 . S
C164 C165 1.373 . S
C164 H177 0.929 . S
C165 C164 1.373 . S
C165 C166 1.396 . S
C165 C172 1.403 . S
C166 C156 1.476 . S
C166 N161 1.318 . S
C166 C165 1.396 . S
H167 C162 0.929 . S
O168 Mn144 2.385 . S
O168 C146 1.234 . S
O169 Mn144 2.209 . S
O169 Mn145 2.215 . S
O169 C146 1.283 . S
O170 Mn144 2.094 . S
O170 C148 1.240 . S
O171 Mn145 2.117 . S
O171 C148 1.264 . S
C172 C165 1.403 . S
C172 C173 1.399 . S
C172 H178 0.929 . S
C173 C153 1.449 . S
C173 C172 1.399 . S
C173 H179 0.930 . S
H174 C154 0.931 . S
H175 C155 0.930 . S
H176 C163 0.931 . S
H177 C164 0.929 . S
H178 C172 0.929 . S
H179 C173 0.930 . S
Mn180 O185 2.095 . S
Mn180 O195 2.162 . S
Mn180 O196 2.297 . S
Mn180 O204 2.385 . S
Mn180 O205 2.209 . S
Mn180 O206 2.094 . S
Mn181 O186 2.121 . S
Mn181 N188 2.257 . S
Mn181 N197 2.282 . S
Mn181 O205 2.215 . S
Mn181 O207 2.117 . S
C182 O204 1.234 . S
C182 O205 1.283 . S
C183 O195 1.281 . S
C183 O196 1.236 . S
C184 O206 1.240 . S
C184 O207 1.264 . S
O185 Mn180 2.095 . S
O185 C194 1.250 . S
O186 Mn181 2.121 . S
O186 C194 1.258 . S
C187 N188 1.326 . S
C187 C191 1.460 . S
C187 H193 0.929 . S
N188 Mn181 2.257 . S
N188 C187 1.326 . S
N188 C192 1.362 . S
C189 C190 1.258 . S
C189 C192 1.431 . S
C189 C209 1.449 . S
C190 C189 1.258 . S
C190 C191 1.477 . S
C190 H210 0.931 . S
C191 C187 1.460 . S
C191 C190 1.477 . S
C191 H211 0.930 . S
C192 N188 1.362 . S
C192 C189 1.431 . S
C192 C202 1.476 . S
H193 C187 0.929 . S
C194 O185 1.250 . S
C194 O186 1.258 . S
O195 Mn180 2.162 . S
O195 C183 1.281 . S
O196 Mn180 2.297 . S
O196 C183 1.236 . S
N197 Mn181 2.282 . S
N197 C198 1.328 . S
N197 C202 1.318 . S
C198 N197 1.328 . S
C198 C199 1.457 . S
C198 H203 0.929 . S
C199 C198 1.457 . S
C199 C200 1.291 . S
C199 H212 0.931 . S
C200 C199 1.291 . S
C200 C201 1.373 . S
C200 H213 0.929 . S
C201 C200 1.373 . S
C201 C202 1.396 . S
C201 C208 1.403 . S
C202 C192 1.476 . S
C202 N197 1.318 . S
C202 C201 1.396 . S
H203 C198 0.929 . S
O204 Mn180 2.385 . S
O204 C182 1.234 . S
O205 Mn180 2.209 . S
O205 Mn181 2.215 . S
O205 C182 1.283 . S
O206 Mn180 2.094 . S
O206 C184 1.240 . S
O207 Mn181 2.117 . S
O207 C184 1.264 . S
C208 C201 1.403 . S
C208 C209 1.399 . S
C208 H214 0.929 . S
C209 C189 1.449 . S
C209 C208 1.399 . S
C209 H215 0.930 . S
H210 C190 0.931 . S
H211 C191 0.930 . S
H212 C199 0.931 . S
H213 C200 0.929 . S
H214 C208 0.929 . S
H215 C209 0.930 . S
Mn216 O221 2.095 . S
Mn216 O231 2.162 . S
Mn216 O232 2.297 . S
Mn216 O240 2.385 . S
Mn216 O241 2.209 . S
Mn216 O242 2.094 . S
Mn217 O222 2.121 . S
Mn217 N224 2.257 . S
Mn217 N233 2.282 . S
Mn217 O241 2.215 . S
Mn217 O243 2.117 . S
C218 O240 1.234 . S
C218 O241 1.283 . S
C219 O231 1.281 . S
C219 O232 1.236 . S
C220 O242 1.240 . S
C220 O243 1.264 . S
O221 Mn216 2.095 . S
O221 C230 1.250 . S
O222 Mn217 2.121 . S
O222 C230 1.258 . S
C223 N224 1.326 . S
C223 C227 1.460 . S
C223 H229 0.929 . S
N224 Mn217 2.257 . S
N224 C223 1.326 . S
N224 C228 1.362 . S
C225 C226 1.258 . S
C225 C228 1.431 . S
C225 C245 1.449 . S
C226 C225 1.258 . S
C226 C227 1.477 . S
C226 H246 0.931 . S
C227 C223 1.460 . S
C227 C226 1.477 . S
C227 H247 0.930 . S
C228 N224 1.362 . S
C228 C225 1.431 . S
C228 C238 1.476 . S
H229 C223 0.929 . S
C230 O221 1.250 . S
C230 O222 1.258 . S
O231 Mn216 2.162 . S
O231 C219 1.281 . S
O232 Mn216 2.297 . S
O232 C219 1.236 . S
N233 Mn217 2.282 . S
N233 C234 1.328 . S
N233 C238 1.318 . S
C234 N233 1.328 . S
C234 C235 1.457 . S
C234 H239 0.929 . S
C235 C234 1.457 . S
C235 C236 1.291 . S
C235 H248 0.931 . S
C236 C235 1.291 . S
C236 C237 1.373 . S
C236 H249 0.929 . S
C237 C236 1.373 . S
C237 C238 1.396 . S
C237 C244 1.403 . S
C238 C228 1.476 . S
C238 N233 1.318 . S
C238 C237 1.396 . S
H239 C234 0.929 . S
O240 Mn216 2.385 . S
O240 C218 1.234 . S
O241 Mn216 2.209 . S
O241 Mn217 2.215 . S
O241 C218 1.283 . S
O242 Mn216 2.094 . S
O242 C220 1.240 . S
O243 Mn217 2.117 . S
O243 C220 1.264 . S
C244 C237 1.403 . S
C244 C245 1.399 . S
C244 H250 0.929 . S
C245 C225 1.449 . S
C245 C244 1.399 . S
C245 H251 0.930 . S
H246 C226 0.931 . S
H247 C227 0.930 . S
H248 C235 0.931 . S
H249 C236 0.929 . S
H250 C244 0.929 . S
H251 C245 0.930 . S
Mn252 O257 2.095 . S
Mn252 O267 2.162 . S
Mn252 O268 2.297 . S
Mn252 O276 2.385 . S
Mn252 O277 2.209 . S
Mn252 O278 2.094 . S
Mn253 O258 2.121 . S
Mn253 N260 2.257 . S
Mn253 N269 2.282 . S
Mn253 O277 2.215 . S
Mn253 O279 2.117 . S
C254 O276 1.234 . S
C254 O277 1.283 . S
C255 O267 1.281 . S
C255 O268 1.236 . S
C256 O278 1.240 . S
C256 O279 1.264 . S
O257 Mn252 2.095 . S
O257 C266 1.250 . S
O258 Mn253 2.121 . S
O258 C266 1.258 . S
C259 N260 1.326 . S
C259 C263 1.460 . S
C259 H265 0.929 . S
N260 Mn253 2.257 . S
N260 C259 1.326 . S
N260 C264 1.362 . S
C261 C262 1.258 . S
C261 C264 1.431 . S
C261 C281 1.449 . S
C262 C261 1.258 . S
C262 C263 1.477 . S
C262 H282 0.931 . S
C263 C259 1.460 . S
C263 C262 1.477 . S
C263 H283 0.930 . S
C264 N260 1.362 . S
C264 C261 1.431 . S
C264 C274 1.476 . S
H265 C259 0.929 . S
C266 O257 1.250 . S
C266 O258 1.258 . S
O267 Mn252 2.162 . S
O267 C255 1.281 . S
O268 Mn252 2.297 . S
O268 C255 1.236 . S
N269 Mn253 2.282 . S
N269 C270 1.328 . S
N269 C274 1.318 . S
C270 N269 1.328 . S
C270 C271 1.457 . S
C270 H275 0.929 . S
C271 C270 1.457 . S
C271 C272 1.291 . S
C271 H284 0.931 . S
C272 C271 1.291 . S
C272 C273 1.373 . S
C272 H285 0.929 . S
C273 C272 1.373 . S
C273 C274 1.396 . S
C273 C280 1.403 . S
C274 C264 1.476 . S
C274 N269 1.318 . S
C274 C273 1.396 . S
H275 C270 0.929 . S
O276 Mn252 2.385 . S
O276 C254 1.234 . S
O277 Mn252 2.209 . S
O277 Mn253 2.215 . S
O277 C254 1.283 . S
O278 Mn252 2.094 . S
O278 C256 1.240 . S
O279 Mn253 2.117 . S
O279 C256 1.264 . S
C280 C273 1.403 . S
C280 C281 1.399 . S
C280 H286 0.929 . S
C281 C261 1.449 . S
C281 C280 1.399 . S
C281 H287 0.930 . S
H282 C262 0.931 . S
H283 C263 0.930 . S
H284 C271 0.931 . S
H285 C272 0.929 . S
H286 C280 0.929 . S
H287 C281 0.930 . S
C288 C289 1.391 . S
C288 C290 1.394 . S
C288 H304 0.931 . S
C289 C288 1.391 . S
C289 C293 1.376 1_455 S
C290 C288 1.394 . S
C290 C291 1.369 1_455 S
C290 C294 1.531 . S
C291 C290 1.369 1_655 S
C291 C292 1.410 . S
C291 C299 1.503 . S
C292 C291 1.410 . S
C292 C293 1.392 . S
C292 C295 1.511 . S
C293 C289 1.376 1_655 S
C293 C292 1.392 . S
C293 H305 0.929 . S
C294 C290 1.531 . S
C294 H306 0.960 . S
C294 H307 0.962 . S
C294 H308 0.960 . S
C295 C292 1.511 . S
C295 H309 0.961 . S
C295 H310 0.961 . S
C295 H311 0.961 . S
C296 C297 1.361 1_455 S
C296 C298 1.363 . S
C296 H312 0.931 . S
C297 C296 1.361 1_655 S
C297 C301 1.417 . S
C298 C296 1.363 . S
C298 C299 1.370 1_455 S
C298 C302 1.524 . S
C299 C291 1.503 . S
C299 C298 1.370 1_655 S
C299 C300 1.403 . S
C300 C299 1.403 . S
C300 C301 1.404 . S
C300 C303 1.539 . S
C301 C297 1.417 . S
C301 C300 1.404 . S
C301 H313 0.930 . S
C302 C298 1.524 . S
C302 H314 0.956 . S
C302 H315 0.961 . S
C302 H316 0.961 . S
C303 C300 1.539 . S
C303 H317 0.958 . S
C303 H318 0.961 . S
C303 H319 0.960 . S
H304 C288 0.931 . S
H305 C293 0.929 . S
H306 C294 0.960 . S
H307 C294 0.962 . S
H308 C294 0.960 . S
H309 C295 0.961 . S
H310 C295 0.961 . S
H311 C295 0.961 . S
H312 C296 0.931 . S
H313 C301 0.930 . S
H314 C302 0.956 . S
H315 C302 0.961 . S
H316 C302 0.961 . S
H317 C303 0.958 . S
H318 C303 0.961 . S
H319 C303 0.960 . S
C320 C321 1.391 . S
C320 C322 1.394 . S
C320 H336 0.931 . S
C321 C320 1.391 . S
C321 C325 1.376 1_655 S
C322 C320 1.394 . S
C322 C323 1.369 . S
C322 C326 1.531 . S
C323 C322 1.369 . S
C323 C324 1.410 1_655 S
C323 C331 1.503 1_655 S
C324 C323 1.410 1_455 S
C324 C325 1.392 . S
C324 C327 1.511 . S
C325 C321 1.376 1_455 S
C325 C324 1.392 . S
C325 H337 0.929 . S
C326 C322 1.531 . S
C326 H338 0.960 . S
C326 H339 0.962 . S
C326 H340 0.960 . S
C327 C324 1.511 . S
C327 H341 0.961 . S
C327 H342 0.961 . S
C327 H343 0.961 . S
C328 C329 1.370 . S
C328 C330 1.363 . S
C328 H344 0.931 . S
C329 C328 1.370 . S
C329 C333 1.408 1_455 S
C330 C328 1.363 . S
C330 C331 1.371 . S
C330 C334 1.524 . S
C331 C323 1.503 1_455 S
C331 C330 1.371 . S
C331 C332 1.402 1_455 S
C332 C331 1.402 1_655 S
C332 C333 1.404 . S
C332 C335 1.539 . S
C333 C329 1.408 1_655 S
C333 C332 1.404 . S
C333 H345 0.930 . S
C334 C330 1.524 . S
C334 H346 0.956 . S
C334 H347 0.961 . S
C334 H348 0.961 . S
C335 C332 1.539 . S
C335 H349 0.958 . S
C335 H350 0.961 . S
C335 H351 0.960 . S
H336 C320 0.931 . S
H337 C325 0.929 . S
H338 C326 0.960 . S
H339 C326 0.962 . S
H340 C326 0.960 . S
H341 C327 0.961 . S
H342 C327 0.961 . S
H343 C327 0.961 . S
H344 C328 0.931 . S
H345 C333 0.930 . S
H346 C334 0.956 . S
H347 C334 0.961 . S
H348 C334 0.961 . S
H349 C335 0.958 . S
H350 C335 0.961 . S
H351 C335 0.960 . S
C352 C353 1.391 . S
C352 C354 1.394 . S
C352 H368 0.931 . S
C353 C352 1.391 . S
C353 C357 1.376 . S
C354 C352 1.394 . S
C354 C355 1.369 . S
C354 C358 1.531 . S
C355 C354 1.369 . S
C355 C356 1.410 . S
C355 C363 1.503 . S
C356 C355 1.410 . S
C356 C357 1.392 . S
C356 C359 1.511 . S
C357 C353 1.376 . S
C357 C356 1.392 . S
C357 H369 0.929 . S
C358 C354 1.531 . S
C358 H370 0.960 . S
C358 H371 0.962 . S
C358 H372 0.960 . S
C359 C356 1.511 . S
C359 H373 0.961 . S
C359 H374 0.961 . S
C359 H375 0.961 . S
C360 C361 1.370 . S
C360 C362 1.363 . S
C360 H376 0.931 . S
C361 C360 1.370 . S
C361 C365 1.408 . S
C362 C360 1.363 . S
C362 C363 1.370 . S
C362 C366 1.524 . S
C363 C355 1.503 . S
C363 C362 1.370 . S
C363 C364 1.403 . S
C364 C363 1.403 . S
C364 C365 1.404 . S
C364 C367 1.539 . S
C365 C361 1.408 . S
C365 C364 1.404 . S
C365 H377 0.930 . S
C366 C362 1.524 . S
C366 H378 0.956 . S
C366 H379 0.961 . S
C366 H380 0.961 . S
C367 C364 1.539 . S
C367 H381 0.958 . S
C367 H382 0.961 . S
C367 H383 0.960 . S
H368 C352 0.931 . S
H369 C357 0.929 . S
H370 C358 0.960 . S
H371 C358 0.962 . S
H372 C358 0.960 . S
H373 C359 0.961 . S
H374 C359 0.961 . S
H375 C359 0.961 . S
H376 C360 0.931 . S
H377 C365 0.930 . S
H378 C366 0.956 . S
H379 C366 0.961 . S
H380 C366 0.961 . S
H381 C367 0.958 . S
H382 C367 0.961 . S
H383 C367 0.960 . S
C384 C385 1.391 . S
C384 C386 1.394 . S
C384 H400 0.931 . S
C385 C384 1.391 . S
C385 C389 1.376 . S
C386 C384 1.394 . S
C386 C387 1.369 . S
C386 C390 1.531 . S
C387 C386 1.369 . S
C387 C388 1.410 . S
C387 C395 1.503 . S
C388 C387 1.410 . S
C388 C389 1.392 . S
C388 C391 1.511 . S
C389 C385 1.376 . S
C389 C388 1.392 . S
C389 H401 0.929 . S
C390 C386 1.531 . S
C390 H402 0.960 . S
C390 H403 0.962 . S
C390 H404 0.960 . S
C391 C388 1.511 . S
C391 H405 0.961 . S
C391 H406 0.961 . S
C391 H407 0.961 . S
C392 C393 1.370 . S
C392 C394 1.363 . S
C392 H408 0.931 . S
C393 C392 1.370 . S
C393 C397 1.408 . S
C394 C392 1.363 . S
C394 C395 1.370 . S
C394 C398 1.524 . S
C395 C387 1.503 . S
C395 C394 1.370 . S
C395 C396 1.403 . S
C396 C395 1.403 . S
C396 C397 1.404 . S
C396 C399 1.539 . S
C397 C393 1.408 . S
C397 C396 1.404 . S
C397 H409 0.930 . S
C398 C394 1.524 . S
C398 H410 0.956 . S
C398 H411 0.961 . S
C398 H412 0.961 . S
C399 C396 1.539 . S
C399 H413 0.958 . S
C399 H414 0.961 . S
C399 H415 0.960 . S
H400 C384 0.931 . S
H401 C389 0.929 . S
H402 C390 0.960 . S
H403 C390 0.962 . S
H404 C390 0.960 . S
H405 C391 0.961 . S
H406 C391 0.961 . S
H407 C391 0.961 . S
H408 C392 0.931 . S
H409 C397 0.930 . S
H410 C398 0.956 . S
H411 C398 0.961 . S
H412 C398 0.961 . S
H413 C399 0.958 . S
H414 C399 0.961 . S
H415 C399 0.960 . S
C416 C417 1.391 . S
C416 C418 1.394 . S
C416 H432 0.931 . S
C417 C416 1.391 . S
C417 C421 1.376 . S
C418 C416 1.394 . S
C418 C419 1.369 . S
C418 C422 1.531 . S
C419 C418 1.369 . S
C419 C420 1.410 . S
C419 C427 1.503 . S
C420 C419 1.410 . S
C420 C421 1.392 . S
C420 C423 1.511 . S
C421 C417 1.376 . S
C421 C420 1.392 . S
C421 H433 0.929 . S
C422 C418 1.531 . S
C422 H434 0.960 . S
C422 H435 0.962 . S
C422 H436 0.960 . S
C423 C420 1.511 . S
C423 H437 0.961 . S
C423 H438 0.961 . S
C423 H439 0.961 . S
C424 C425 1.370 . S
C424 C426 1.363 . S
C424 H440 0.931 . S
C425 C424 1.370 . S
C425 C429 1.408 . S
C426 C424 1.363 . S
C426 C427 1.370 . S
C426 C430 1.524 . S
C427 C419 1.503 . S
C427 C426 1.370 . S
C427 C428 1.403 . S
C428 C427 1.403 . S
C428 C429 1.404 . S
C428 C431 1.539 . S
C429 C425 1.408 . S
C429 C428 1.404 . S
C429 H441 0.930 . S
C430 C426 1.524 . S
C430 H442 0.956 . S
C430 H443 0.961 . S
C430 H444 0.961 . S
C431 C428 1.539 . S
C431 H445 0.958 . S
C431 H446 0.961 . S
C431 H447 0.960 . S
H432 C416 0.931 . S
H433 C421 0.929 . S
H434 C422 0.960 . S
H435 C422 0.962 . S
H436 C422 0.960 . S
H437 C423 0.961 . S
H438 C423 0.961 . S
H439 C423 0.961 . S
H440 C424 0.931 . S
H441 C429 0.930 . S
H442 C430 0.956 . S
H443 C430 0.961 . S
H444 C430 0.961 . S
H445 C431 0.958 . S
H446 C431 0.961 . S
H447 C431 0.960 . S
C448 C449 1.391 . S
C448 C450 1.394 . S
C448 H464 0.931 . S
C449 C448 1.391 . S
C449 C453 1.376 . S
C450 C448 1.394 . S
C450 C451 1.369 . S
C450 C454 1.531 . S
C451 C450 1.369 . S
C451 C452 1.410 . S
C451 C459 1.503 . S
C452 C451 1.410 . S
C452 C453 1.392 . S
C452 C455 1.511 . S
C453 C449 1.376 . S
C453 C452 1.392 . S
C453 H465 0.929 . S
C454 C450 1.531 . S
C454 H466 0.960 . S
C454 H467 0.962 . S
C454 H468 0.960 . S
C455 C452 1.511 . S
C455 H469 0.961 . S
C455 H470 0.961 . S
C455 H471 0.961 . S
C456 C457 1.370 . S
C456 C458 1.363 . S
C456 H472 0.931 . S
C457 C456 1.370 . S
C457 C461 1.408 . S
C458 C456 1.363 . S
C458 C459 1.370 . S
C458 C462 1.524 . S
C459 C451 1.503 . S
C459 C458 1.370 . S
C459 C460 1.403 . S
C460 C459 1.403 . S
C460 C461 1.404 . S
C460 C463 1.539 . S
C461 C457 1.408 . S
C461 C460 1.404 . S
C461 H473 0.930 . S
C462 C458 1.524 . S
C462 H474 0.956 . S
C462 H475 0.961 . S
C462 H476 0.961 . S
C463 C460 1.539 . S
C463 H477 0.958 . S
C463 H478 0.961 . S
C463 H479 0.960 . S
H464 C448 0.931 . S
H465 C453 0.929 . S
H466 C454 0.960 . S
H467 C454 0.962 . S
H468 C454 0.960 . S
H469 C455 0.961 . S
H470 C455 0.961 . S
H471 C455 0.961 . S
H472 C456 0.931 . S
H473 C461 0.930 . S
H474 C462 0.956 . S
H475 C462 0.961 . S
H476 C462 0.961 . S
H477 C463 0.958 . S
H478 C463 0.961 . S
H479 C463 0.960 . S
C480 C481 1.391 . S
C480 C482 1.394 . S
C480 H496 0.931 . S
C481 C480 1.391 . S
C481 C485 1.376 . S
C482 C480 1.394 . S
C482 C483 1.369 . S
C482 C486 1.531 . S
C483 C482 1.369 . S
C483 C484 1.410 . S
C483 C491 1.503 . S
C484 C483 1.410 . S
C484 C485 1.392 . S
C484 C487 1.511 . S
C485 C481 1.376 . S
C485 C484 1.392 . S
C485 H497 0.929 . S
C486 C482 1.531 . S
C486 H498 0.960 . S
C486 H499 0.962 . S
C486 H500 0.960 . S
C487 C484 1.511 . S
C487 H501 0.961 . S
C487 H502 0.961 . S
C487 H503 0.961 . S
C488 C489 1.370 . S
C488 C490 1.363 . S
C488 H504 0.931 . S
C489 C488 1.370 . S
C489 C493 1.408 . S
C490 C488 1.363 . S
C490 C491 1.370 . S
C490 C494 1.524 . S
C491 C483 1.503 . S
C491 C490 1.370 . S
C491 C492 1.403 . S
C492 C491 1.403 . S
C492 C493 1.404 . S
C492 C495 1.539 . S
C493 C489 1.408 . S
C493 C492 1.404 . S
C493 H505 0.930 . S
C494 C490 1.524 . S
C494 H506 0.956 . S
C494 H507 0.961 . S
C494 H508 0.961 . S
C495 C492 1.539 . S
C495 H509 0.958 . S
C495 H510 0.961 . S
C495 H511 0.960 . S
H496 C480 0.931 . S
H497 C485 0.929 . S
H498 C486 0.960 . S
H499 C486 0.962 . S
H500 C486 0.960 . S
H501 C487 0.961 . S
H502 C487 0.961 . S
H503 C487 0.961 . S
H504 C488 0.931 . S
H505 C493 0.930 . S
H506 C494 0.956 . S
H507 C494 0.961 . S
H508 C494 0.961 . S
H509 C495 0.958 . S
H510 C495 0.961 . S
H511 C495 0.960 . S
C512 C513 1.391 . S
C512 C514 1.394 . S
C512 H528 0.931 . S
C513 C512 1.391 . S
C513 C517 1.376 . S
C514 C512 1.394 . S
C514 C515 1.369 . S
C514 C518 1.531 . S
C515 C514 1.369 . S
C515 C516 1.410 . S
C515 C523 1.503 . S
C516 C515 1.410 . S
C516 C517 1.392 . S
C516 C519 1.511 . S
C517 C513 1.376 . S
C517 C516 1.392 . S
C517 H529 0.929 . S
C518 C514 1.531 . S
C518 H530 0.960 . S
C518 H531 0.962 . S
C518 H532 0.960 . S
C519 C516 1.511 . S
C519 H533 0.961 . S
C519 H534 0.961 . S
C519 H535 0.961 . S
C520 C521 1.370 . S
C520 C522 1.363 . S
C520 H536 0.931 . S
C521 C520 1.370 . S
C521 C525 1.408 . S
C522 C520 1.363 . S
C522 C523 1.370 . S
C522 C526 1.524 . S
C523 C515 1.503 . S
C523 C522 1.370 . S
C523 C524 1.403 . S
C524 C523 1.403 . S
C524 C525 1.404 . S
C524 C527 1.539 . S
C525 C521 1.408 . S
C525 C524 1.404 . S
C525 H537 0.930 . S
C526 C522 1.524 . S
C526 H538 0.956 . S
C526 H539 0.961 . S
C526 H540 0.961 . S
C527 C524 1.539 . S
C527 H541 0.958 . S
C527 H542 0.961 . S
C527 H543 0.960 . S
H528 C512 0.931 . S
H529 C517 0.929 . S
H530 C518 0.960 . S
H531 C518 0.962 . S
H532 C518 0.960 . S
H533 C519 0.961 . S
H534 C519 0.961 . S
H535 C519 0.961 . S
H536 C520 0.931 . S
H537 C525 0.930 . S
H538 C526 0.956 . S
H539 C526 0.961 . S
H540 C526 0.961 . S
H541 C527 0.958 . S
H542 C527 0.961 . S
H543 C527 0.960 . S
C544 C545 1.391 . S
C544 C546 1.394 . S
C544 H560 0.931 . S
C545 C544 1.391 . S
C545 C549 1.376 . S
C546 C544 1.394 . S
C546 C547 1.369 . S
C546 C550 1.531 . S
C547 C546 1.369 . S
C547 C548 1.410 . S
C547 C555 1.503 . S
C548 C547 1.410 . S
C548 C549 1.392 . S
C548 C551 1.511 . S
C549 C545 1.376 . S
C549 C548 1.392 . S
C549 H561 0.929 . S
C550 C546 1.531 . S
C550 H562 0.960 . S
C550 H563 0.962 . S
C550 H564 0.960 . S
C551 C548 1.511 . S
C551 H565 0.961 . S
C551 H566 0.961 . S
C551 H567 0.961 . S
C552 C553 1.370 . S
C552 C554 1.363 . S
C552 H568 0.931 . S
C553 C552 1.370 . S
C553 C557 1.408 . S
C554 C552 1.363 . S
C554 C555 1.370 . S
C554 C558 1.524 . S
C555 C547 1.503 . S
C555 C554 1.370 . S
C555 C556 1.403 . S
C556 C555 1.403 . S
C556 C557 1.404 . S
C556 C559 1.539 . S
C557 C553 1.408 . S
C557 C556 1.404 . S
C557 H569 0.930 . S
C558 C554 1.524 . S
C558 H570 0.956 . S
C558 H571 0.961 . S
C558 H572 0.961 . S
C559 C556 1.539 . S
C559 H573 0.958 . S
C559 H574 0.961 . S
C559 H575 0.960 . S
H560 C544 0.931 . S
H561 C549 0.929 . S
H562 C550 0.960 . S
H563 C550 0.962 . S
H564 C550 0.960 . S
H565 C551 0.961 . S
H566 C551 0.961 . S
H567 C551 0.961 . S
H568 C552 0.931 . S
H569 C557 0.930 . S
H570 C558 0.956 . S
H571 C558 0.961 . S
H572 C558 0.961 . S
H573 C559 0.958 . S
H574 C559 0.961 . S
H575 C559 0.960 . S
C576 C577 1.391 . S
C576 C578 1.394 . S
C576 H592 0.931 . S
C577 C576 1.391 . S
C577 C581 1.376 . S
C578 C576 1.394 . S
C578 C579 1.369 . S
C578 C582 1.531 . S
C579 C578 1.369 . S
C579 C580 1.410 . S
C579 C587 1.503 . S
C580 C579 1.410 . S
C580 C581 1.392 . S
C580 C583 1.511 . S
C581 C577 1.376 . S
C581 C580 1.392 . S
C581 H593 0.929 . S
C582 C578 1.531 . S
C582 H594 0.960 . S
C582 H595 0.962 . S
C582 H596 0.960 . S
C583 C580 1.511 . S
C583 H597 0.961 . S
C583 H598 0.961 . S
C583 H599 0.961 . S
C584 C585 1.370 . S
C584 C586 1.363 . S
C584 H600 0.931 . S
C585 C584 1.370 . S
C585 C589 1.408 . S
C586 C584 1.363 . S
C586 C587 1.370 . S
C586 C590 1.524 . S
C587 C579 1.503 . S
C587 C586 1.370 . S
C587 C588 1.403 . S
C588 C587 1.403 . S
C588 C589 1.404 . S
C588 C591 1.539 . S
C589 C585 1.408 . S
C589 C588 1.404 . S
C589 H601 0.930 . S
C590 C586 1.524 . S
C590 H602 0.956 . S
C590 H603 0.961 . S
C590 H604 0.961 . S
C591 C588 1.539 . S
C591 H605 0.958 . S
C591 H606 0.961 . S
C591 H607 0.960 . S
H592 C576 0.931 . S
H593 C581 0.929 . S
H594 C582 0.960 . S
H595 C582 0.962 . S
H596 C582 0.960 . S
H597 C583 0.961 . S
H598 C583 0.961 . S
H599 C583 0.961 . S
H600 C584 0.931 . S
H601 C589 0.930 . S
H602 C590 0.956 . S
H603 C590 0.961 . S
H604 C590 0.961 . S
H605 C591 0.958 . S
H606 C591 0.961 . S
H607 C591 0.960 . S
C608 C609 1.391 . S
C608 C610 1.394 . S
C608 H624 0.931 . S
C609 C608 1.391 . S
C609 C613 1.376 . S
C610 C608 1.394 . S
C610 C611 1.369 . S
C610 C614 1.531 . S
C611 C610 1.369 . S
C611 C612 1.410 . S
C611 C619 1.503 . S
C612 C611 1.410 . S
C612 C613 1.392 . S
C612 C615 1.511 . S
C613 C609 1.376 . S
C613 C612 1.392 . S
C613 H625 0.929 . S
C614 C610 1.531 . S
C614 H626 0.960 . S
C614 H627 0.962 . S
C614 H628 0.960 . S
C615 C612 1.511 . S
C615 H629 0.961 . S
C615 H630 0.961 . S
C615 H631 0.961 . S
C616 C617 1.370 . S
C616 C618 1.363 . S
C616 H632 0.931 . S
C617 C616 1.370 . S
C617 C621 1.408 . S
C618 C616 1.363 . S
C618 C619 1.370 . S
C618 C622 1.524 . S
C619 C611 1.503 . S
C619 C618 1.370 . S
C619 C620 1.403 . S
C620 C619 1.403 . S
C620 C621 1.404 . S
C620 C623 1.539 . S
C621 C617 1.408 . S
C621 C620 1.404 . S
C621 H633 0.930 . S
C622 C618 1.524 . S
C622 H634 0.956 . S
C622 H635 0.961 . S
C622 H636 0.961 . S
C623 C620 1.539 . S
C623 H637 0.958 . S
C623 H638 0.961 . S
C623 H639 0.960 . S
H624 C608 0.931 . S
H625 C613 0.929 . S
H626 C614 0.960 . S
H627 C614 0.962 . S
H628 C614 0.960 . S
H629 C615 0.961 . S
H630 C615 0.961 . S
H631 C615 0.961 . S
H632 C616 0.931 . S
H633 C621 0.930 . S
H634 C622 0.956 . S
H635 C622 0.961 . S
H636 C622 0.961 . S
H637 C623 0.958 . S
H638 C623 0.961 . S
H639 C623 0.960 . S
C640 C641 1.391 . S
C640 C642 1.394 . S
C640 H656 0.931 . S
C641 C640 1.391 . S
C641 C645 1.376 . S
C642 C640 1.394 . S
C642 C643 1.369 . S
C642 C646 1.531 . S
C643 C642 1.369 . S
C643 C644 1.410 . S
C643 C651 1.503 . S
C644 C643 1.410 . S
C644 C645 1.392 . S
C644 C647 1.511 . S
C645 C641 1.376 . S
C645 C644 1.392 . S
C645 H657 0.929 . S
C646 C642 1.531 . S
C646 H658 0.960 . S
C646 H659 0.962 . S
C646 H660 0.960 . S
C647 C644 1.511 . S
C647 H661 0.961 . S
C647 H662 0.961 . S
C647 H663 0.961 . S
C648 C649 1.370 . S
C648 C650 1.363 . S
C648 H664 0.931 . S
C649 C648 1.370 . S
C649 C653 1.408 . S
C650 C648 1.363 . S
C650 C651 1.370 . S
C650 C654 1.524 . S
C651 C643 1.503 . S
C651 C650 1.370 . S
C651 C652 1.403 . S
C652 C651 1.403 . S
C652 C653 1.404 . S
C652 C655 1.539 . S
C653 C649 1.408 . S
C653 C652 1.404 . S
C653 H665 0.930 . S
C654 C650 1.524 . S
C654 H666 0.956 . S
C654 H667 0.961 . S
C654 H668 0.961 . S
C655 C652 1.539 . S
C655 H669 0.958 . S
C655 H670 0.961 . S
C655 H671 0.960 . S
H656 C640 0.931 . S
H657 C645 0.929 . S
H658 C646 0.960 . S
H659 C646 0.962 . S
H660 C646 0.960 . S
H661 C647 0.961 . S
H662 C647 0.961 . S
H663 C647 0.961 . S
H664 C648 0.931 . S
H665 C653 0.930 . S
H666 C654 0.956 . S
H667 C654 0.961 . S
H668 C654 0.961 . S
H669 C655 0.958 . S
H670 C655 0.961 . S
H671 C655 0.960 . S
C672 C673 1.391 1_655 S
C672 C674 1.394 . S
C672 H688 0.931 . S
C673 C672 1.391 1_455 S
C673 C677 1.376 . S
C674 C672 1.394 . S
C674 C675 1.369 1_655 S
C674 C678 1.531 1_554 S
C675 C674 1.369 1_455 S
C675 C676 1.410 . S
C675 C683 1.503 1_544 S
C676 C675 1.410 . S
C676 C677 1.392 . S
C676 C679 1.511 1_545 S
C677 C673 1.376 . S
C677 C676 1.392 . S
C677 H689 0.929 . S
C678 C674 1.531 1_556 S
C678 H690 0.960 . S
C678 H691 0.962 . S
C678 H692 0.960 . S
C679 C676 1.511 1_565 S
C679 H693 0.961 . S
C679 H694 0.961 . S
C679 H695 0.961 . S
C680 C681 1.370 1_655 S
C680 C682 1.363 . S
C680 H696 0.931 . S
C681 C680 1.370 1_455 S
C681 C685 1.408 . S
C682 C680 1.363 . S
C682 C683 1.370 1_655 S
C682 C686 1.524 1_556 S
C683 C675 1.503 1_566 S
C683 C682 1.370 1_455 S
C683 C684 1.403 . S
C684 C683 1.403 . S
C684 C685 1.404 . S
C684 C687 1.539 1_565 S
C685 C681 1.408 . S
C685 C684 1.404 . S
C685 H697 0.930 . S
C686 C682 1.524 1_554 S
C686 H698 0.956 . S
C686 H699 0.961 . S
C686 H700 0.961 . S
C687 C684 1.539 1_545 S
C687 H701 0.958 . S
C687 H702 0.961 . S
C687 H703 0.960 . S
H688 C672 0.931 . S
H689 C677 0.929 . S
H690 C678 0.960 . S
H691 C678 0.962 . S
H692 C678 0.960 . S
H693 C679 0.961 . S
H694 C679 0.961 . S
H695 C679 0.961 . S
H696 C680 0.931 . S
H697 C685 0.930 . S
H698 C686 0.956 . S
H699 C686 0.961 . S
H700 C686 0.961 . S
H701 C687 0.958 . S
H702 C687 0.961 . S
H703 C687 0.960 . S
C704 C705 1.392 . S
C704 C706 1.394 . S
C704 H720 0.931 . S
C705 C704 1.392 . S
C705 C709 1.376 . S
C706 C704 1.394 . S
C706 C707 1.369 . S
C706 C710 1.531 1_556 S
C707 C706 1.369 . S
C707 C708 1.410 . S
C707 C715 1.503 1_556 S
C708 C707 1.410 . S
C708 C709 1.393 . S
C708 C711 1.511 . S
C709 C705 1.376 . S
C709 C708 1.393 . S
C709 H721 0.928 1_655 S
C710 C706 1.531 1_554 S
C710 H722 0.960 . S
C710 H723 0.962 1_655 S
C710 H724 0.960 . S
C711 C708 1.511 . S
C711 H725 0.961 1_655 S
C711 H726 0.961 1_655 S
C711 H727 0.961 . S
C712 C713 1.370 . S
C712 C714 1.363 . S
C712 H728 0.931 . S
C713 C712 1.370 . S
C713 C717 1.408 1_455 S
C714 C712 1.363 . S
C714 C715 1.370 1_455 S
C714 C718 1.524 . S
C715 C707 1.503 1_554 S
C715 C714 1.370 1_655 S
C715 C716 1.403 . S
C716 C715 1.403 . S
C716 C717 1.404 . S
C716 C719 1.539 . S
C717 C713 1.408 1_655 S
C717 C716 1.404 . S
C717 H729 0.930 . S
C718 C714 1.524 . S
C718 H730 0.956 . S
C718 H731 0.961 1_554 S
C718 H732 0.961 . S
C719 C716 1.539 . S
C719 H733 0.958 . S
C719 H734 0.961 . S
C719 H735 0.960 1_554 S
H720 C704 0.931 . S
H721 C709 0.928 1_455 S
H722 C710 0.960 . S
H723 C710 0.962 1_455 S
H724 C710 0.960 . S
H725 C711 0.961 1_455 S
H726 C711 0.961 1_455 S
H727 C711 0.961 . S
H728 C712 0.931 . S
H729 C717 0.930 . S
H730 C718 0.956 . S
H731 C718 0.961 1_556 S
H732 C718 0.961 . S
H733 C719 0.958 . S
H734 C719 0.961 . S
H735 C719 0.960 1_556 S
C736 C737 1.391 . S
C736 C738 1.394 . S
C736 H752 0.931 . S
C737 C736 1.391 . S
C737 C741 1.376 . S
C738 C736 1.394 . S
C738 C739 1.369 . S
C738 C742 1.531 . S
C739 C738 1.369 . S
C739 C740 1.410 . S
C739 C747 1.503 . S
C740 C739 1.410 . S
C740 C741 1.392 . S
C740 C743 1.511 . S
C741 C737 1.376 . S
C741 C740 1.392 . S
C741 H753 0.929 . S
C742 C738 1.531 . S
C742 H754 0.960 . S
C742 H755 0.962 . S
C742 H756 0.960 . S
C743 C740 1.511 . S
C743 H757 0.961 . S
C743 H758 0.961 . S
C743 H759 0.961 . S
C744 C745 1.370 . S
C744 C746 1.363 . S
C744 H760 0.931 . S
C745 C744 1.370 . S
C745 C749 1.408 . S
C746 C744 1.363 . S
C746 C747 1.370 . S
C746 C750 1.524 . S
C747 C739 1.503 . S
C747 C746 1.370 . S
C747 C748 1.403 . S
C748 C747 1.403 . S
C748 C749 1.404 . S
C748 C751 1.539 . S
C749 C745 1.408 . S
C749 C748 1.404 . S
C749 H761 0.930 . S
C750 C746 1.524 . S
C750 H762 0.956 . S
C750 H763 0.961 . S
C750 H764 0.961 . S
C751 C748 1.539 . S
C751 H765 0.958 . S
C751 H766 0.961 . S
C751 H767 0.960 . S
H752 C736 0.931 . S
H753 C741 0.929 . S
H754 C742 0.960 . S
H755 C742 0.962 . S
H756 C742 0.960 . S
H757 C743 0.961 . S
H758 C743 0.961 . S
H759 C743 0.961 . S
H760 C744 0.931 . S
H761 C749 0.930 . S
H762 C750 0.956 . S
H763 C750 0.961 . S
H764 C750 0.961 . S
H765 C751 0.958 . S
H766 C751 0.961 . S
H767 C751 0.960 . S
C768 C769 1.391 . S
C768 C770 1.394 . S
C768 H784 0.931 . S
C769 C768 1.391 . S
C769 C773 1.376 . S
C770 C768 1.394 . S
C770 C771 1.369 . S
C770 C774 1.531 1_565 S
C771 C770 1.369 . S
C771 C772 1.410 . S
C771 C779 1.503 1_565 S
C772 C771 1.410 . S
C772 C773 1.392 . S
C772 C775 1.511 . S
C773 C769 1.376 . S
C773 C772 1.392 . S
C773 H785 0.929 . S
C774 C770 1.531 1_545 S
C774 H786 0.960 . S
C774 H787 0.962 . S
C774 H788 0.960 . S
C775 C772 1.511 . S
C775 H789 0.961 . S
C775 H790 0.961 . S
C775 H791 0.961 . S
C776 C777 1.370 . S
C776 C778 1.363 . S
C776 H792 0.931 . S
C777 C776 1.370 . S
C777 C781 1.408 . S
C778 C776 1.363 . S
C778 C779 1.370 . S
C778 C782 1.524 1_545 S
C779 C771 1.503 1_545 S
C779 C778 1.370 . S
C779 C780 1.403 . S
C780 C779 1.403 . S
C780 C781 1.404 . S
C780 C783 1.539 . S
C781 C777 1.408 . S
C781 C780 1.404 . S
C781 H793 0.930 . S
C782 C778 1.524 1_565 S
C782 H794 0.956 . S
C782 H795 0.961 . S
C782 H796 0.961 . S
C783 C780 1.539 . S
C783 H797 0.958 . S
C783 H798 0.961 . S
C783 H799 0.960 . S
H784 C768 0.931 . S
H785 C773 0.929 . S
H786 C774 0.960 . S
H787 C774 0.962 . S
H788 C774 0.960 . S
H789 C775 0.961 . S
H790 C775 0.961 . S
H791 C775 0.961 . S
H792 C776 0.931 . S
H793 C781 0.930 . S
H794 C782 0.956 . S
H795 C782 0.961 . S
H796 C782 0.961 . S
H797 C783 0.958 . S
H798 C783 0.961 . S
H799 C783 0.960 . S
C289 C39 1.422 . S
C297 C3 1.432 1_655 S
C321 C75 1.428 1_655 S
C329 C111 1.430 . S
C353 C147 1.433 . S
C361 C183 1.434 . S
C385 C219 1.432 . S
C393 C255 1.434 . S
C417 C266 1.298 . S
C425 C14 1.313 . S
C449 C230 1.329 . S
C457 C50 1.326 . S
C481 C86 1.303 . S
C489 C194 1.315 . S
C513 C158 1.334 . S
C521 C122 1.327 . S
C545 C182 1.473 . S
C553 C74 1.457 . S
C577 C146 1.474 . S
C585 C110 1.455 . S
C609 C254 1.451 . S
C617 C2 1.451 . S
C641 C38 1.437 . S
C649 C218 1.458 . S
C673 C4 1.326 . S
C681 C76 1.317 . S
C705 C112 1.316 1_655 S
C713 C40 1.321 . S
C737 C220 1.300 . S
C745 C148 1.322 . S
C769 C184 1.301 . S
C777 C256 1.320 . S
