# Generated by pormake.
# Topology wjf, (4)-cn, num edge types: 1
# Building blocks:
#     Node 0, Type 0, BuildingBlock: KUFVIS_clean_sbu_0, # of connection points: 4
#     Node 1, Type 0, BuildingBlock: KUFVIS_clean_sbu_0, # of connection points: 4
#     Node 2, Type 0, BuildingBlock: KUFVIS_clean_sbu_0, # of connection points: 4
#     Node 3, Type 0, BuildingBlock: KUFVIS_clean_sbu_0, # of connection points: 4
#     Node 4, Type 0, BuildingBlock: KUFVIS_clean_sbu_0, # of connection points: 4
#     Node 5, Type 0, BuildingBlock: KUFVIS_clean_sbu_0, # of connection points: 4
#     Node 6, Type 0, BuildingBlock: KUFVIS_clean_sbu_0, # of connection points: 4
#     Node 7, Type 0, BuildingBlock: KUFVIS_clean_sbu_0, # of connection points: 4
#     Node 8, Type 0, BuildingBlock: KUFVIS_clean_sbu_0, # of connection points: 4
#     Node 9, Type 0, BuildingBlock: KUFVIS_clean_sbu_0, # of connection points: 4
#     Node 10, Type 0, BuildingBlock: KUFVIS_clean_sbu_0, # of connection points: 4
#     Node 11, Type 0, BuildingBlock: KUFVIS_clean_sbu_0, # of connection points: 4
#     Edge 12, Type (0, 0), BuildingBlock: OJICUG_clean_linker_0, # of connection points: 2
#     Edge 13, Type (0, 0), BuildingBlock: OJICUG_clean_linker_0, # of connection points: 2
#     Edge 14, Type (0, 0), BuildingBlock: OJICUG_clean_linker_0, # of connection points: 2
#     Edge 15, Type (0, 0), BuildingBlock: OJICUG_clean_linker_0, # of connection points: 2
#     Edge 16, Type (0, 0), BuildingBlock: OJICUG_clean_linker_0, # of connection points: 2
#     Edge 17, Type (0, 0), BuildingBlock: OJICUG_clean_linker_0, # of connection points: 2
#     Edge 18, Type (0, 0), BuildingBlock: OJICUG_clean_linker_0, # of connection points: 2
#     Edge 19, Type (0, 0), BuildingBlock: OJICUG_clean_linker_0, # of connection points: 2
#     Edge 20, Type (0, 0), BuildingBlock: OJICUG_clean_linker_0, # of connection points: 2
#     Edge 21, Type (0, 0), BuildingBlock: OJICUG_clean_linker_0, # of connection points: 2
#     Edge 22, Type (0, 0), BuildingBlock: OJICUG_clean_linker_0, # of connection points: 2
#     Edge 23, Type (0, 0), BuildingBlock: OJICUG_clean_linker_0, # of connection points: 2
#     Edge 24, Type (0, 0), BuildingBlock: OJICUG_clean_linker_0, # of connection points: 2
#     Edge 25, Type (0, 0), BuildingBlock: OJICUG_clean_linker_0, # of connection points: 2
#     Edge 26, Type (0, 0), BuildingBlock: OJICUG_clean_linker_0, # of connection points: 2
#     Edge 27, Type (0, 0), BuildingBlock: OJICUG_clean_linker_0, # of connection points: 2
#     Edge 28, Type (0, 0), BuildingBlock: OJICUG_clean_linker_0, # of connection points: 2
#     Edge 29, Type (0, 0), BuildingBlock: OJICUG_clean_linker_0, # of connection points: 2
#     Edge 30, Type (0, 0), BuildingBlock: OJICUG_clean_linker_0, # of connection points: 2
#     Edge 31, Type (0, 0), BuildingBlock: OJICUG_clean_linker_0, # of connection points: 2
#     Edge 32, Type (0, 0), BuildingBlock: OJICUG_clean_linker_0, # of connection points: 2
#     Edge 33, Type (0, 0), BuildingBlock: OJICUG_clean_linker_0, # of connection points: 2
#     Edge 34, Type (0, 0), BuildingBlock: OJICUG_clean_linker_0, # of connection points: 2
#     Edge 35, Type (0, 0), BuildingBlock: OJICUG_clean_linker_0, # of connection points: 2
# Relax obj value: 0.143
# Max RMSD: 0.208
# Mean RMSD: 0.180
data_MOF--net-wjf--node1-KUFVIS_clean_sbu_0--edge1-OJICUG_clean_linker_0
_symmetry_space_group_name_H-M    P1
_symmetry_Int_Tables_number       1
_symmetry_cell_setting            triclinic
loop_
_symmetry_equiv_pos_as_xyz
'x, y, z'
_cell_length_a     34.576221
_cell_length_b     36.691629
_cell_length_c     20.38216
_cell_angle_alpha  89.95494
_cell_angle_beta   89.918554
_cell_angle_gamma 117.97715
loop_
_atom_site_label
_atom_site_type_symbol
_atom_site_fract_x
_atom_site_fract_y
_atom_site_fract_z
_atom_type_partial_charge
Mn0 Mn 0.33382 0.39509 0.13618 0.0
Mn1 Mn 0.35834 0.4845 0.06171 0.0
C2 C 0.40718 0.44658 0.13866 0.0
C3 C 0.30554 0.3616 0.23682 0.0
C4 C 0.34152 0.40489 0.99037 0.0
O5 O 0.27481 0.38913 0.10352 0.0
O6 O 0.30035 0.4563 0.10323 0.0
C7 C 0.35721 0.52961 0.18164 0.0
N8 N 0.37824 0.52714 0.12655 0.0
C9 C 0.44234 0.5906 0.15323 0.0
C10 C 0.42127 0.59391 0.21 0.0
C11 C 0.37855 0.56322 0.22432 0.0
C12 C 0.41965 0.55611 0.11301 0.0
H13 H 0.32447 0.50601 0.19321 0.0
C14 C 0.27043 0.42061 0.08859 0.0
O15 O 0.30422 0.3405 0.1848 0.0
O16 O 0.32098 0.40084 0.22919 0.0
N17 N 0.41449 0.51606 0.02167 0.0
C18 C 0.42722 0.51185 0.96003 0.0
C19 C 0.46818 0.5412 0.93597 0.0
C20 C 0.49474 0.57577 0.97423 0.0
C21 C 0.47964 0.58105 0.03553 0.0
C22 C 0.43846 0.55072 0.05676 0.0
H23 H 0.40604 0.48656 0.92918 0.0
O24 O 0.39608 0.41013 0.16129 0.0
O25 O 0.37499 0.45211 0.11828 0.0
O26 O 0.34336 0.38413 0.0403 0.0
O27 O 0.34109 0.43989 0.99382 0.0
C28 C 0.5033 0.6158 0.07552 0.0
C29 C 0.48481 0.62038 0.13467 0.0
H30 H 0.43752 0.61993 0.24283 0.0
H31 H 0.36211 0.56548 0.26815 0.0
H32 H 0.47892 0.53754 0.88766 0.0
H33 H 0.52607 0.59865 0.95536 0.0
H34 H 0.53549 0.63942 0.06084 0.0
H35 H 0.5032 0.64733 0.16487 0.0
Mn36 Mn 0.95783 0.33353 0.37707 0.0
Mn37 Mn 0.06747 0.39339 0.37466 0.0
C38 C 0.9932 0.35834 0.27824 0.0
C39 C 0.89417 0.27043 0.36946 0.0
C40 C 0.00487 0.42666 0.40825 0.0
O41 O 0.9752 0.32298 0.46836 0.0
O42 O 0.04771 0.36493 0.46097 0.0
C43 C 0.09329 0.32709 0.38266 0.0
N44 N 0.0946 0.36033 0.35094 0.0
C45 C 0.14506 0.35928 0.27048 0.0
C46 C 0.14441 0.32513 0.3024 0.0
C47 C 0.11828 0.30888 0.35862 0.0
C48 C 0.11944 0.37608 0.29667 0.0
H49 H 0.07354 0.31472 0.42619 0.0
C50 C 0.01368 0.33953 0.49291 0.0
O51 O 0.89445 0.3023 0.39759 0.0
O52 O 0.9318 0.27401 0.35138 0.0
N53 N 0.09175 0.42293 0.29512 0.0
C54 C 0.08856 0.45584 0.26986 0.0
C55 C 0.112 0.47518 0.21281 0.0
C56 C 0.13901 0.46094 0.18297 0.0
C57 C 0.14242 0.42758 0.21076 0.0
C58 C 0.11817 0.40942 0.26745 0.0
H59 H 0.06806 0.46709 0.29279 0.0
O60 O 0.95188 0.34695 0.285 0.0
O61 O 0.01332 0.35427 0.32982 0.0
O62 O 0.97004 0.39204 0.40475 0.0
O63 O 0.04299 0.43051 0.39781 0.0
C64 C 0.16874 0.41151 0.18414 0.0
C65 C 0.17011 0.37737 0.21373 0.0
H66 H 0.16379 0.31112 0.28417 0.0
H67 H 0.1176 0.28253 0.38355 0.0
H68 H 0.10944 0.50112 0.19211 0.0
H69 H 0.15697 0.47584 0.13881 0.0
H70 H 0.18797 0.4254 0.14095 0.0
H71 H 0.19048 0.36527 0.19243 0.0
Mn72 Mn 0.61423 0.95173 0.77063 0.0
Mn73 Mn 0.52452 0.89601 0.67612 0.0
C74 C 0.55959 0.97185 0.76513 0.0
C75 C 0.65078 0.96619 0.87222 0.0
C76 C 0.6104 0.96059 0.62076 0.0
O77 O 0.62034 0.89957 0.75168 0.0
O78 O 0.55977 0.86759 0.69082 0.0
C79 C 0.47879 0.83013 0.77441 0.0
N80 N 0.47833 0.8581 0.73093 0.0
C81 C 0.40136 0.83403 0.74844 0.0
C82 C 0.40087 0.80478 0.79325 0.0
C83 C 0.43983 0.80297 0.80653 0.0
C84 C 0.44122 0.86041 0.71834 0.0
H85 H 0.50865 0.82853 0.78424 0.0
C86 C 0.59421 0.86931 0.71625 0.0
O87 O 0.67204 0.97974 0.81746 0.0
O88 O 0.60918 0.94145 0.86748 0.0
N89 N 0.48528 0.91724 0.65348 0.0
C90 C 0.49125 0.94677 0.60826 0.0
C91 C 0.45525 0.95191 0.58806 0.0
C92 C 0.41357 0.92677 0.61452 0.0
C93 C 0.40791 0.8957 0.65939 0.0
C94 C 0.44468 0.89114 0.67603 0.0
H95 H 0.52301 0.96531 0.58637 0.0
O96 O 0.59892 0.99655 0.78414 0.0
O97 O 0.55171 0.93402 0.75132 0.0
O98 O 0.63183 0.97087 0.67474 0.0
O99 O 0.5701 0.9339 0.61627 0.0
C100 C 0.3672 0.86894 0.68802 0.0
C101 C 0.36399 0.83832 0.73289 0.0
H102 H 0.37087 0.78372 0.81798 0.0
H103 H 0.43975 0.78057 0.84117 0.0
H104 H 0.45928 0.97452 0.55103 0.0
H105 H 0.38604 0.93109 0.59914 0.0
H106 H 0.33822 0.87184 0.67622 0.0
H107 H 0.33263 0.81824 0.75517 0.0
Mn108 Mn 0.66262 0.61543 0.13324 0.0
Mn109 Mn 0.63982 0.52578 0.06222 0.0
C110 C 0.58888 0.56391 0.13518 0.0
C111 C 0.69004 0.64903 0.23374 0.0
C112 C 0.65758 0.60489 0.988 0.0
O113 O 0.72221 0.62153 0.10263 0.0
O114 O 0.69584 0.55475 0.10839 0.0
C115 C 0.63698 0.48118 0.18496 0.0
N116 N 0.61795 0.48326 0.12754 0.0
C117 C 0.55338 0.41943 0.15134 0.0
C118 C 0.5724 0.41651 0.21049 0.0
C119 C 0.61435 0.44758 0.2274 0.0
C120 C 0.5773 0.45389 0.11138 0.0
H121 H 0.66909 0.50508 0.19854 0.0
C122 C 0.72628 0.58954 0.09114 0.0
O123 O 0.69198 0.67011 0.18133 0.0
O124 O 0.67424 0.60973 0.22672 0.0
N125 N 0.58537 0.49364 0.01833 0.0
C126 C 0.57459 0.49781 0.95545 0.0
C127 C 0.53451 0.46834 0.92928 0.0
C128 C 0.50689 0.43369 0.9668 0.0
C129 C 0.52011 0.42842 0.02952 0.0
C130 C 0.56045 0.45892 0.05292 0.0
H131 H 0.59665 0.52316 0.92529 0.0
O132 O 0.6001 0.60051 0.15704 0.0
O133 O 0.62108 0.55834 0.11478 0.0
O134 O 0.65434 0.62576 0.0367 0.0
O135 O 0.65886 0.57031 0.99335 0.0
C136 C 0.49528 0.39367 0.06913 0.0
C137 C 0.51175 0.38935 0.13028 0.0
H138 H 0.55515 0.39054 0.2432 0.0
H139 H 0.6292 0.44563 0.27308 0.0
H140 H 0.52528 0.47198 0.87994 0.0
H141 H 0.47622 0.41074 0.94629 0.0
H142 H 0.46368 0.3699 0.05274 0.0
H143 H 0.49246 0.36242 0.16023 0.0
Mn144 Mn 0.03683 0.6705 0.3738 0.0
Mn145 Mn 0.92738 0.6098 0.36894 0.0
C146 C 0.00293 0.64592 0.27415 0.0
C147 C 0.09992 0.73419 0.36751 0.0
C148 C 0.99031 0.5774 0.40544 0.0
O149 O 0.01789 0.68025 0.46458 0.0
O150 O 0.94546 0.63836 0.45538 0.0
C151 C 0.90037 0.67535 0.37359 0.0
N152 N 0.90004 0.64226 0.3429 0.0
C153 C 0.85183 0.64343 0.25884 0.0
C154 C 0.85148 0.67742 0.28968 0.0
C155 C 0.87593 0.6935 0.34724 0.0
C156 C 0.87665 0.62656 0.28752 0.0
H157 H 0.91897 0.68768 0.41798 0.0
C158 C 0.97905 0.66359 0.48814 0.0
O159 O 0.09988 0.70245 0.39579 0.0
O160 O 0.0623 0.73008 0.34841 0.0
N161 N 0.90482 0.58009 0.28917 0.0
C162 C 0.90901 0.54746 0.26507 0.0
C163 C 0.88719 0.52824 0.20705 0.0
C164 C 0.86092 0.54242 0.17488 0.0
C165 C 0.85648 0.57553 0.20141 0.0
C166 C 0.8789 0.59342 0.25941 0.0
H167 H 0.92909 0.53634 0.28962 0.0
O168 O 0.04426 0.65772 0.28188 0.0
O169 O 0.98198 0.64938 0.32528 0.0
O170 O 0.02504 0.6121 0.40163 0.0
O171 O 0.95217 0.57328 0.39438 0.0
C172 C 0.8312 0.59186 0.172 0.0
C173 C 0.82877 0.62575 0.20057 0.0
H174 H 0.83265 0.69148 0.26954 0.0
H175 H 0.87585 0.71974 0.37132 0.0
H176 H 0.89057 0.50251 0.18729 0.0
H177 H 0.84437 0.52773 0.12984 0.0
H178 H 0.81387 0.57857 0.12717 0.0
H179 H 0.80931 0.63812 0.17721 0.0
Mn180 Mn 0.37995 0.05527 0.77018 0.0
Mn181 Mn 0.46962 0.11061 0.67476 0.0
C182 C 0.43447 0.03498 0.76453 0.0
C183 C 0.3435 0.04087 0.87212 0.0
C184 C 0.38361 0.04609 0.62033 0.0
O185 O 0.37407 0.10758 0.75103 0.0
O186 O 0.43446 0.13914 0.68932 0.0
C187 C 0.51554 0.17673 0.77222 0.0
N188 N 0.5159 0.14862 0.72901 0.0
C189 C 0.59287 0.17262 0.74597 0.0
C190 C 0.59346 0.20202 0.79048 0.0
C191 C 0.55456 0.20393 0.8039 0.0
C192 C 0.55295 0.1462 0.7163 0.0
H193 H 0.48572 0.17842 0.78215 0.0
C194 C 0.40016 0.13766 0.71504 0.0
O195 O 0.32218 0.02738 0.81754 0.0
O196 O 0.38511 0.06559 0.867 0.0
N197 N 0.50875 0.08923 0.6522 0.0
C198 C 0.50266 0.05955 0.60733 0.0
C199 C 0.5386 0.05427 0.58705 0.0
C200 C 0.58032 0.07944 0.61308 0.0
C201 C 0.5861 0.11065 0.6576 0.0
C202 C 0.54938 0.11534 0.67432 0.0
H203 H 0.47088 0.04098 0.58575 0.0
O204 O 0.39511 0.01035 0.78377 0.0
O205 O 0.44243 0.07281 0.75045 0.0
O206 O 0.36221 0.03605 0.67447 0.0
O207 O 0.42395 0.07262 0.61544 0.0
C208 C 0.62685 0.13744 0.68579 0.0
C209 C 0.63017 0.16821 0.73033 0.0
H210 H 0.62351 0.22311 0.81488 0.0
H211 H 0.55471 0.22644 0.83832 0.0
H212 H 0.53449 0.03154 0.55029 0.0
H213 H 0.6078 0.07502 0.59764 0.0
H214 H 0.65578 0.13445 0.67391 0.0
H215 H 0.66157 0.18831 0.75228 0.0
Mn216 Mn 0.62765 0.67232 0.62409 0.0
Mn217 Mn 0.67672 0.61165 0.62756 0.0
C218 C 0.63737 0.64734 0.72324 0.0
C219 C 0.62767 0.73579 0.63096 0.0
C220 C 0.5814 0.57933 0.59227 0.0
O221 O 0.65606 0.68251 0.53312 0.0
O222 O 0.68668 0.64047 0.54127 0.0
C223 C 0.76897 0.67728 0.62198 0.0
N224 N 0.73648 0.64412 0.65294 0.0
C225 C 0.78625 0.64511 0.73618 0.0
C226 C 0.82031 0.67917 0.70505 0.0
C227 C 0.81159 0.69537 0.64778 0.0
C228 C 0.7445 0.62833 0.70809 0.0
H229 H 0.76244 0.68969 0.57778 0.0
C230 C 0.67818 0.66591 0.50902 0.0
O231 O 0.59614 0.70408 0.60273 0.0
O232 O 0.66135 0.7318 0.64968 0.0
N233 N 0.67008 0.58175 0.70715 0.0
C234 C 0.63356 0.54896 0.73144 0.0
C235 C 0.63653 0.52959 0.7892 0.0
C236 C 0.67705 0.54378 0.82089 0.0
C237 C 0.71429 0.57703 0.79412 0.0
C238 C 0.70939 0.5951 0.73645 0.0
H239 H 0.60231 0.53783 0.70724 0.0
O240 O 0.60772 0.65912 0.71607 0.0
O241 O 0.66167 0.65108 0.67186 0.0
O242 O 0.58132 0.61405 0.59623 0.0
O243 O 0.61544 0.57512 0.60282 0.0
C244 C 0.75597 0.59324 0.82288 0.0
C245 C 0.79201 0.62723 0.7941 0.0
H246 H 0.85323 0.69316 0.72474 0.0
H247 H 0.83769 0.72165 0.62348 0.0
H248 H 0.60766 0.50374 0.80911 0.0
H249 H 0.67921 0.52894 0.86572 0.0
H250 H 0.7603 0.57969 0.86728 0.0
H251 H 0.82391 0.63946 0.817 0.0
Mn252 Mn 0.94303 0.61254 0.86423 0.0
Mn253 Mn 0.8779 0.5232 0.9383 0.0
C254 C 0.96502 0.56091 0.86255 0.0
C255 C 0.94876 0.64607 0.76354 0.0
C256 C 0.93989 0.6028 0.00994 0.0
O257 O 0.88972 0.61857 0.89612 0.0
O258 O 0.84877 0.55147 0.89502 0.0
C259 C 0.83313 0.47782 0.81794 0.0
N260 N 0.856 0.4804 0.87368 0.0
C261 C 0.85711 0.41683 0.84838 0.0
C262 C 0.8334 0.41341 0.79094 0.0
C263 C 0.82145 0.4441 0.77561 0.0
C264 C 0.86835 0.45142 0.88822 0.0
H265 H 0.82406 0.50141 0.80558 0.0
C266 C 0.85394 0.58691 0.91031 0.0
O267 O 0.96815 0.66715 0.81569 0.0
O268 O 0.92508 0.60682 0.77102 0.0
N269 N 0.90218 0.49171 0.97967 0.0
C270 C 0.91871 0.49619 0.04155 0.0
C271 C 0.93023 0.46692 0.0665 0.0
C272 C 0.9226 0.43218 0.02883 0.0
C273 C 0.90271 0.42667 0.96718 0.0
C274 C 0.89193 0.45693 0.94505 0.0
H275 H 0.92249 0.5216 0.07196 0.0
O276 O 0.99041 0.59733 0.8399 0.0
O277 O 0.92729 0.55552 0.88249 0.0
O278 O 0.96286 0.62344 0.96023 0.0
O279 O 0.90443 0.56795 0.00616 0.0
C280 C 0.89216 0.39181 0.92761 0.0
C281 C 0.86972 0.38708 0.86792 0.0
H282 H 0.82409 0.38732 0.75837 0.0
H283 H 0.80325 0.44175 0.73125 0.0
H284 H 0.94426 0.47077 0.11504 0.0
H285 H 0.93098 0.40936 0.04839 0.0
H286 H 0.90071 0.36824 0.94299 0.0
H287 H 0.86159 0.36006 0.83802 0.0
Mn288 Mn 0.32825 0.95127 0.22864 0.0
Mn289 Mn 0.36265 0.89576 0.32366 0.0
C290 C 0.40298 0.9716 0.23427 0.0
C291 C 0.30623 0.96576 0.12683 0.0
C292 C 0.34075 0.96017 0.37851 0.0
O293 O 0.27027 0.89893 0.24768 0.0
O294 O 0.29909 0.86716 0.309 0.0
C295 C 0.34306 0.82988 0.22581 0.0
N296 N 0.37128 0.85791 0.26916 0.0
C297 C 0.42448 0.83406 0.25195 0.0
C298 C 0.39593 0.80474 0.20729 0.0
C299 C 0.35513 0.8028 0.19392 0.0
C300 C 0.41074 0.86036 0.28183 0.0
H301 H 0.31157 0.82817 0.21591 0.0
C302 C 0.26633 0.86872 0.28337 0.0
O303 O 0.29828 0.97919 0.1815 0.0
O304 O 0.32327 0.94108 0.13178 0.0
N305 N 0.42303 0.91717 0.34628 0.0
C306 C 0.4464 0.9468 0.39124 0.0
C307 C 0.48757 0.95211 0.41145 0.0
C308 C 0.50434 0.92702 0.38525 0.0
C309 C 0.47915 0.89587 0.34062 0.0
C310 C 0.43778 0.89115 0.32397 0.0
H311 H 0.43303 0.96532 0.41291 0.0
O312 O 0.38815 0.99623 0.21511 0.0
O313 O 0.37326 0.93373 0.24821 0.0
O314 O 0.3295 0.97035 0.32443 0.0
O315 O 0.35462 0.93359 0.38323 0.0
C316 C 0.49336 0.86919 0.31223 0.0
C317 C 0.46617 0.83849 0.26755 0.0
H318 H 0.40509 0.78374 0.18273 0.0
H319 H 0.33297 0.78035 0.15939 0.0
H320 H 0.50602 0.9748 0.44826 0.0
H321 H 0.53622 0.93147 0.40064 0.0
H322 H 0.52526 0.87221 0.32405 0.0
H323 H 0.47765 0.81848 0.24544 0.0
Mn324 Mn 0.3692 0.33643 0.62583 0.0
Mn325 Mn 0.32107 0.39783 0.63195 0.0
C326 C 0.36046 0.36117 0.72582 0.0
C327 C 0.36819 0.27246 0.6315 0.0
C328 C 0.41601 0.42952 0.59428 0.0
O329 O 0.34029 0.32695 0.53541 0.0
O330 O 0.31018 0.36932 0.54533 0.0
C331 C 0.22858 0.33271 0.62823 0.0
N332 N 0.26147 0.36566 0.65871 0.0
C333 C 0.21272 0.36446 0.74403 0.0
C334 C 0.17825 0.33062 0.71343 0.0
C335 C 0.18625 0.31463 0.65533 0.0
C336 C 0.25414 0.38129 0.71459 0.0
H337 H 0.23458 0.32042 0.58347 0.0
C338 C 0.31828 0.34393 0.51224 0.0
O339 O 0.39986 0.30406 0.603 0.0
O340 O 0.33496 0.2769 0.65121 0.0
N341 N 0.32863 0.42753 0.71193 0.0
C342 C 0.36552 0.46004 0.73568 0.0
C343 C 0.36327 0.4792 0.79409 0.0
C344 C 0.32309 0.46506 0.82704 0.0
C345 C 0.28546 0.43207 0.80088 0.0
C346 C 0.28963 0.41427 0.74243 0.0
H347 H 0.39651 0.47111 0.71055 0.0
O348 O 0.38975 0.34904 0.71756 0.0
O349 O 0.33598 0.35795 0.67503 0.0
O350 O 0.41585 0.39467 0.5978 0.0
O351 O 0.38222 0.43399 0.60588 0.0
C352 C 0.24413 0.41577 0.83111 0.0
C353 C 0.20772 0.38202 0.8028 0.0
H354 H 0.14556 0.3166 0.73417 0.0
H355 H 0.15982 0.2885 0.63144 0.0
H356 H 0.39244 0.50481 0.81359 0.0
H357 H 0.32152 0.47969 0.8724 0.0
H358 H 0.24037 0.42895 0.87638 0.0
H359 H 0.17609 0.36963 0.82672 0.0
Mn360 Mn 0.04955 0.39002 0.8685 0.0
Mn361 Mn 0.11688 0.47961 0.93865 0.0
C362 C 0.02751 0.44186 0.86748 0.0
C363 C 0.04255 0.35621 0.76794 0.0
C364 C 0.05626 0.40064 0.01357 0.0
O365 O 0.1032 0.3837 0.89772 0.0
O366 O 0.14305 0.45035 0.89069 0.0
C367 C 0.15732 0.52429 0.81537 0.0
N368 N 0.13686 0.52222 0.8735 0.0
C369 C 0.13596 0.58625 0.85113 0.0
C370 C 0.15722 0.58914 0.79125 0.0
C371 C 0.16787 0.55798 0.77327 0.0
C372 C 0.12585 0.55171 0.89074 0.0
H373 H 0.16535 0.50031 0.80097 0.0
C374 C 0.1392 0.41578 0.90833 0.0
O375 O 0.02385 0.33526 0.82064 0.0
O376 O 0.0661 0.39551 0.77465 0.0
N377 N 0.09504 0.51184 0.98399 0.0
C378 C 0.08036 0.50744 0.04709 0.0
C379 C 0.0699 0.53691 0.07415 0.0
C380 C 0.07673 0.57174 0.03722 0.0
C381 C 0.09486 0.57718 0.97415 0.0
C382 C 0.10458 0.54668 0.94985 0.0
H383 H 0.07719 0.48194 0.0768 0.0
O384 O 0.00195 0.40526 0.84594 0.0
O385 O 0.06523 0.44718 0.88725 0.0
O386 O 0.0317 0.37989 0.96531 0.0
O387 O 0.09212 0.43505 0.0076 0.0
C388 C 0.1044 0.61202 0.93493 0.0
C389 C 0.12462 0.61638 0.8732 0.0
H390 H 0.16559 0.61517 0.75877 0.0
H391 H 0.18415 0.55991 0.72702 0.0
H392 H 0.05729 0.53312 0.12371 0.0
H393 H 0.0691 0.59466 0.0584 0.0
H394 H 0.09666 0.6358 0.95202 0.0
H395 H 0.13192 0.64336 0.84354 0.0
Mn396 Mn 0.66575 0.05522 0.2284 0.0
Mn397 Mn 0.63141 0.11083 0.32324 0.0
C398 C 0.59106 0.03505 0.23405 0.0
C399 C 0.688 0.04087 0.12666 0.0
C400 C 0.65302 0.04625 0.37826 0.0
O401 O 0.72375 0.10738 0.2474 0.0
O402 O 0.69501 0.13938 0.30841 0.0
C403 C 0.65124 0.17679 0.22516 0.0
N404 N 0.62292 0.14875 0.26863 0.0
C405 C 0.56982 0.1727 0.25141 0.0
C406 C 0.59847 0.20202 0.20662 0.0
C407 C 0.63927 0.20392 0.1932 0.0
C408 C 0.58347 0.14635 0.28136 0.0
H409 H 0.68272 0.17846 0.21521 0.0
C410 C 0.72774 0.13764 0.28284 0.0
O411 O 0.69574 0.02728 0.18133 0.0
O412 O 0.67102 0.0656 0.13157 0.0
N413 N 0.571 0.08948 0.34601 0.0
C414 C 0.54752 0.05981 0.39104 0.0
C415 C 0.50632 0.05452 0.41127 0.0
C416 C 0.48965 0.07967 0.38503 0.0
C417 C 0.51495 0.11086 0.34032 0.0
C418 C 0.55634 0.11556 0.32363 0.0
H419 H 0.56082 0.04125 0.41274 0.0
O420 O 0.60585 0.01039 0.2149 0.0
O421 O 0.62082 0.07287 0.24793 0.0
O422 O 0.66422 0.03599 0.32419 0.0
O423 O 0.6393 0.07294 0.38292 0.0
C424 C 0.50084 0.13759 0.31186 0.0
C425 C 0.52813 0.1683 0.26706 0.0
H426 H 0.58939 0.22306 0.182 0.0
H427 H 0.6615 0.22638 0.15856 0.0
H428 H 0.48777 0.03178 0.44812 0.0
H429 H 0.45774 0.07523 0.40043 0.0
H430 H 0.46892 0.13459 0.3237 0.0
H431 H 0.51672 0.18835 0.24489 0.0
C432 C 0.27637 0.35974 0.34864 0.0
C433 C 0.29645 0.3446 0.30427 0.0
H434 H 0.26629 0.3703 0.44868 0.0
C435 C 0.31739 0.32262 0.32891 0.0
H436 H 0.26017 0.37696 0.33097 0.0
C437 C 0.32185 0.31946 0.39704 0.0
C438 C 0.3052 0.33807 0.44156 0.0
H439 H 0.33381 0.31125 0.29578 0.0
H440 H 0.341 0.30505 0.41449 0.0
C441 C 0.28031 0.3562 0.41631 0.0
C442 C 0.98423 0.31581 0.60776 0.0
C443 C 0.01984 0.33299 0.56367 0.0
H444 H 0.96362 0.30862 0.70878 0.0
C445 C 0.06252 0.34919 0.58936 0.0
H446 H 0.95093 0.30295 0.58989 0.0
C447 C 0.0696 0.35241 0.65705 0.0
C448 C 0.03426 0.33883 0.70095 0.0
H449 H 0.09083 0.36208 0.55726 0.0
H450 H 0.10295 0.36831 0.67507 0.0
C451 C 0.99143 0.31866 0.67595 0.0
C452 C 0.69316 0.02796 0.94284 0.0
C453 C 0.67008 0.98475 0.93657 0.0
H454 H 0.71637 0.07987 0.00839 0.0
C455 C 0.6588 0.96051 0.99377 0.0
H456 H 0.70149 0.04746 0.89967 0.0
C457 C 0.6689 0.97911 0.05596 0.0
C458 C 0.68881 0.02232 0.06224 0.0
H459 H 0.64043 0.9272 0.99043 0.0
H460 H 0.65786 0.95961 0.09914 0.0
C461 C 0.7016 0.04656 0.00504 0.0
C462 C 0.67757 0.68732 0.32607 0.0
C463 C 0.69937 0.66626 0.30084 0.0
H464 H 0.65351 0.70384 0.41228 0.0
C465 C 0.72048 0.6519 0.3446 0.0
H466 H 0.66034 0.69802 0.29337 0.0
C467 C 0.71673 0.6552 0.41234 0.0
C468 C 0.69102 0.6723 0.43824 0.0
H469 H 0.7373 0.63535 0.32642 0.0
H470 H 0.73157 0.64167 0.4443 0.0
C471 C 0.67333 0.69025 0.39429 0.0
C472 C -0.00028 0.6846 0.67139 0.0
C473 C 0.95683 0.66317 0.69619 0.0
H474 H 0.04077 0.70165 0.58563 0.0
C475 C 0.92169 0.64857 0.652 0.0
H476 H 0.02743 0.69553 0.70441 0.0
C477 C 0.92913 0.65207 0.58432 0.0
C478 C 0.97204 0.66962 0.55888 0.0
H479 H 0.8883 0.63175 0.66981 0.0
H480 H 0.90103 0.63839 0.55206 0.0
C481 C 0.0073 0.68772 0.60324 0.0
C482 C 0.32548 0.02765 0.05604 0.0
C483 C 0.30556 0.98443 0.06239 0.0
H484 H 0.35394 0.07966 0.99042 0.0
C485 C 0.2928 0.96028 0.00521 0.0
H486 H 0.3365 0.04708 0.09919 0.0
C487 C 0.30124 0.97898 0.94298 0.0
C488 C 0.32428 0.0222 0.93662 0.0
H489 H 0.27802 0.92697 0.00859 0.0
H490 H 0.2929 0.95955 0.89983 0.0
C491 C 0.33558 0.04635 0.99381 0.0
C492 C 0.20395 0.45288 0.9799 0.0
C493 C 0.17161 0.41517 0.95505 0.0
H494 H 0.25944 0.48392 0.04118 0.0
C495 C 0.17039 0.37827 0.97702 0.0
H496 H 0.2057 0.48197 0.96499 0.0
C497 C 0.20189 0.37941 0.02167 0.0
C498 C 0.23459 0.41744 0.04542 0.0
H499 H 0.14559 0.34874 0.95911 0.0
H500 H 0.20093 0.35073 0.03697 0.0
C501 C 0.23489 0.454 0.02414 0.0
C502 C 0.81295 0.23565 0.36236 0.0
C503 C 0.85226 0.23462 0.34978 0.0
H504 H 0.74412 0.20747 0.3494 0.0
C505 C 0.85094 0.20164 0.31261 0.0
H506 H 0.81262 0.26073 0.38993 0.0
C507 C 0.81085 0.17027 0.28888 0.0
C508 C 0.77152 0.17162 0.30153 0.0
H509 H 0.88084 0.20027 0.30132 0.0
H510 H 0.81063 0.14496 0.26132 0.0
C511 C 0.77343 0.20496 0.33835 0.0
C512 C 0.57319 0.80243 0.65954 0.0
C513 C 0.6041 0.8353 0.69749 0.0
H514 H 0.55697 0.74682 0.60751 0.0
C515 C 0.64432 0.83606 0.71148 0.0
H516 H 0.54174 0.80037 0.64734 0.0
C517 C 0.65303 0.80451 0.68814 0.0
C518 C 0.62182 0.77192 0.65003 0.0
H519 H 0.66902 0.86101 0.73993 0.0
H520 H 0.68388 0.80536 0.70057 0.0
C521 C 0.58201 0.77155 0.63593 0.0
C522 C 0.79476 0.62786 0.02238 0.0
C523 C 0.76005 0.59067 0.04529 0.0
H524 H 0.85219 0.65618 0.96116 0.0
C525 C 0.75619 0.55314 0.02176 0.0
H526 H 0.79836 0.65726 0.03932 0.0
C527 C 0.78634 0.55254 0.97745 0.0
C528 C 0.82134 0.58944 0.95463 0.0
H529 H 0.72975 0.52382 0.03762 0.0
H530 H 0.78207 0.52275 0.96132 0.0
C531 C 0.8254 0.62725 0.97757 0.0
C532 C 0.18126 0.77052 0.36348 0.0
C533 C 0.14173 0.77057 0.34882 0.0
H534 H 0.25032 0.79985 0.35284 0.0
C535 C 0.14291 0.80313 0.31052 0.0
H536 H 0.18174 0.74583 0.39206 0.0
C537 C 0.18304 0.83495 0.28751 0.0
C538 C 0.22259 0.8345 0.30202 0.0
H539 H 0.11285 0.80376 0.29766 0.0
H540 H 0.1831 0.85983 0.25884 0.0
C541 C 0.22085 0.80167 0.34022 0.0
C542 C 0.42097 0.20404 0.65642 0.0
C543 C 0.39048 0.17181 0.69613 0.0
H544 H 0.43722 0.25951 0.60368 0.0
C545 C 0.35095 0.17194 0.71215 0.0
H546 H 0.45185 0.20538 0.64249 0.0
C547 C 0.34258 0.20382 0.68933 0.0
C548 C 0.37344 0.23586 0.64974 0.0
H549 H 0.32657 0.14751 0.74199 0.0
H550 H 0.31232 0.2037 0.70348 0.0
C551 C 0.41248 0.23525 0.63338 0.0
C552 C 0.39112 0.39766 0.83025 0.0
C553 C 0.35405 0.37298 0.7925 0.0
H554 H 0.41576 0.42614 0.92324 0.0
C555 C 0.31249 0.35558 0.82226 0.0
H556 H 0.42365 0.41033 0.80909 0.0
C557 C 0.30798 0.36511 0.88762 0.0
C558 C 0.34518 0.39083 0.92433 0.0
H559 H 0.28368 0.33475 0.79505 0.0
H560 H 0.27561 0.3528 0.90919 0.0
C561 C 0.3867 0.40646 0.8955 0.0
C562 C 0.03747 0.35355 0.18366 0.0
C563 C 0.01255 0.37058 0.21226 0.0
H564 H 0.07212 0.3506 0.09746 0.0
C565 C 0.00026 0.39513 0.17368 0.0
H566 H 0.04547 0.33286 0.21152 0.0
C567 C 0.01367 0.40362 0.10851 0.0
C568 C 0.03985 0.38799 0.08059 0.0
H569 H 0.98001 0.40767 0.19399 0.0
H570 H 0.00409 0.42297 0.07999 0.0
C571 C 0.05185 0.36291 0.11837 0.0
C572 C 0.62171 0.96035 0.50026 0.0
C573 C 0.63141 0.9823 0.55974 0.0
H574 H 0.6226 0.96382 0.39516 0.0
C575 C 0.65482 0.02547 0.55859 0.0
H576 H 0.60349 0.92695 0.50012 0.0
C577 C 0.66468 0.04646 0.49867 0.0
C578 C 0.65242 0.02452 0.43921 0.0
H579 H 0.66223 0.04299 0.60378 0.0
H580 H 0.6798 0.07986 0.49883 0.0
C581 C 0.63273 0.98134 0.44033 0.0
C582 C 0.60744 0.61043 0.82771 0.0
C583 C 0.64428 0.6353 0.78944 0.0
H584 H 0.58328 0.58218 0.92114 0.0
C585 C 0.68599 0.65279 0.81847 0.0
H586 H 0.57481 0.5976 0.80708 0.0
C587 C 0.69085 0.64346 0.88382 0.0
C588 C 0.65382 0.61787 0.9212 0.0
H589 H 0.71464 0.67372 0.79082 0.0
H590 H 0.72329 0.65607 0.90499 0.0
C591 C 0.61219 0.60188 0.89292 0.0
C592 C 0.95997 0.65146 0.17862 0.0
C593 C 0.98449 0.63419 0.20766 0.0
H594 H 0.9254 0.65423 0.09237 0.0
C595 C 0.99702 0.60972 0.16931 0.0
H596 H 0.95191 0.67219 0.20625 0.0
C597 C 0.9837 0.6011 0.10415 0.0
C598 C 0.95742 0.61656 0.07607 0.0
H599 H 0.01715 0.59715 0.18988 0.0
H600 H 0.9933 0.58167 0.07588 0.0
C601 C 0.9457 0.642 0.1134 0.0
C602 C 0.36096 0.02512 0.44016 0.0
C603 C 0.34133 0.98194 0.43936 0.0
H604 H 0.39023 0.07958 0.49949 0.0
C605 C 0.32921 0.96007 0.49902 0.0
H606 H 0.37101 0.04259 0.39484 0.0
C607 C 0.33914 0.98113 0.55879 0.0
C608 C 0.36247 0.0243 0.55957 0.0
H609 H 0.31416 0.92667 0.49943 0.0
H610 H 0.33185 0.96366 0.6041 0.0
C611 C 0.37205 0.04618 0.49992 0.0
C612 C 0.47623 0.48816 0.0781 0.0
C613 C 0.4531 0.47771 0.13723 0.0
H614 H 0.5363 0.52917 0.03062 0.0
C615 C 0.47531 0.49384 0.19621 0.0
H616 H 0.46016 0.47376 0.03281 0.0
C617 C 0.52016 0.52108 0.19548 0.0
C618 C 0.54294 0.5326 0.13574 0.0
H619 H 0.45806 0.48511 0.24268 0.0
H620 H 0.53699 0.5334 0.24139 0.0
C621 C 0.52021 0.51767 0.07708 0.0
C622 C 0.95649 0.50041 0.41966 0.0
C623 C 0.99423 0.53918 0.41692 0.0
H624 H 0.93006 0.43469 0.41974 0.0
C625 C 0.03545 0.5404 0.41887 0.0
H626 H 0.9241 0.49811 0.41865 0.0
C627 C 0.03883 0.50384 0.41956 0.0
C628 C 0.00107 0.46505 0.41835 0.0
H629 H 0.06524 0.56956 0.41705 0.0
H630 H 0.07121 0.50612 0.41838 0.0
C631 C 0.95986 0.46386 0.42039 0.0
C632 C 0.4824 0.96115 0.77523 0.0
C633 C 0.52705 0.98741 0.76698 0.0
H634 H 0.41778 0.95488 0.7724 0.0
C635 C 0.54164 0.03027 0.77026 0.0
H636 H 0.4709 0.92904 0.78636 0.0
C637 C 0.51163 0.04569 0.77457 0.0
C638 C 0.46699 0.0194 0.76668 0.0
H639 H 0.57625 0.05195 0.77172 0.0
H640 H 0.52314 0.07785 0.78522 0.0
C641 C 0.4524 0.97655 0.77062 0.0
C642 C 0.49942 0.54279 0.57962 0.0
C643 C 0.53923 0.5412 0.58163 0.0
H644 H 0.42952 0.50905 0.5813 0.0
C645 C 0.53797 0.50225 0.58004 0.0
H646 H 0.49898 0.57211 0.58053 0.0
C647 C 0.49799 0.4659 0.58053 0.0
C648 C 0.45819 0.46752 0.58266 0.0
H649 H 0.56791 0.49968 0.58115 0.0
H650 H 0.49842 0.43659 0.58214 0.0
C651 C 0.45945 0.50646 0.58015 0.0
C652 C 0.992 0.51909 0.92366 0.0
C653 C 0.97963 0.52959 0.86435 0.0
H654 H 0.01059 0.47782 0.97169 0.0
C655 C 0.98536 0.51292 0.80558 0.0
H656 H 0.99037 0.53371 0.96882 0.0
C657 C 0.00235 0.48512 0.80669 0.0
C658 C 0.01335 0.47359 0.86659 0.0
H659 H 0.97698 0.52162 0.75901 0.0
H660 H 0.00658 0.47237 0.76095 0.0
C661 C 0.00601 0.48915 0.92507 0.0
C662 C 0.52444 0.04564 0.22418 0.0
C663 C 0.543 0.01943 0.2322 0.0
H664 H 0.46597 0.05177 0.22706 0.0
C665 C 0.51498 0.97656 0.22865 0.0
H666 H 0.54487 0.07779 0.21323 0.0
C667 C 0.46962 0.96107 0.22423 0.0
C668 C 0.45104 0.98727 0.23229 0.0
H669 H 0.52807 0.95493 0.22702 0.0
H670 H 0.44921 0.92894 0.21335 0.0
C671 C 0.47906 0.03014 0.22868 0.0
loop_
_geom_bond_atom_site_label_1
_geom_bond_atom_site_label_2
_geom_bond_distance
_geom_bond_site_symmetry_2
_ccdc_geom_bond_type
Mn0 O5 2.095 . S
Mn0 O15 2.162 . S
Mn0 O16 2.297 . S
Mn0 O24 2.385 . S
Mn0 O25 2.209 . S
Mn0 O26 2.094 1_554 S
Mn1 O6 2.121 1_556 S
Mn1 N8 2.257 . S
Mn1 N17 2.282 . S
Mn1 O25 2.215 1_556 S
Mn1 O27 2.117 . S
C2 O24 1.234 . S
C2 O25 1.283 . S
C3 O15 1.281 . S
C3 O16 1.236 . S
C4 O26 1.240 . S
C4 O27 1.264 . S
O5 Mn0 2.095 . S
O5 C14 1.250 . S
O6 Mn1 2.121 1_554 S
O6 C14 1.258 . S
C7 N8 1.326 . S
C7 C11 1.460 . S
C7 H13 0.929 1_556 S
N8 Mn1 2.257 . S
N8 C7 1.326 . S
N8 C12 1.362 . S
C9 C10 1.258 . S
C9 C12 1.431 . S
C9 C29 1.449 . S
C10 C9 1.258 . S
C10 C11 1.477 . S
C10 H30 0.931 . S
C11 C7 1.460 . S
C11 C10 1.477 . S
C11 H31 0.930 1_556 S
C12 N8 1.362 . S
C12 C9 1.431 . S
C12 C22 1.476 . S
H13 C7 0.929 1_554 S
C14 O5 1.250 . S
C14 O6 1.258 . S
O15 Mn0 2.162 . S
O15 C3 1.281 . S
O16 Mn0 2.297 . S
O16 C3 1.236 . S
N17 Mn1 2.282 . S
N17 C18 1.328 . S
N17 C22 1.318 . S
C18 N17 1.328 . S
C18 C19 1.457 . S
C18 H23 0.929 . S
C19 C18 1.457 . S
C19 C20 1.291 . S
C19 H32 0.931 . S
C20 C19 1.291 . S
C20 C21 1.373 . S
C20 H33 0.929 . S
C21 C20 1.373 . S
C21 C22 1.396 . S
C21 C28 1.403 . S
C22 C12 1.476 . S
C22 N17 1.318 . S
C22 C21 1.396 . S
H23 C18 0.929 . S
O24 Mn0 2.385 . S
O24 C2 1.234 . S
O25 Mn0 2.209 . S
O25 Mn1 2.215 1_554 S
O25 C2 1.283 . S
O26 Mn0 2.094 1_556 S
O26 C4 1.240 . S
O27 Mn1 2.117 . S
O27 C4 1.264 . S
C28 C21 1.403 . S
C28 C29 1.399 . S
C28 H34 0.929 . S
C29 C9 1.449 . S
C29 C28 1.399 . S
C29 H35 0.930 . S
H30 C10 0.931 . S
H31 C11 0.930 1_554 S
H32 C19 0.931 . S
H33 C20 0.929 . S
H34 C28 0.929 . S
H35 C29 0.930 . S
Mn36 O41 2.095 . S
Mn36 O51 2.162 . S
Mn36 O52 2.297 . S
Mn36 O60 2.385 . S
Mn36 O61 2.209 1_655 S
Mn36 O62 2.094 . S
Mn37 O42 2.121 . S
Mn37 N44 2.257 . S
Mn37 N53 2.282 . S
Mn37 O61 2.215 . S
Mn37 O63 2.117 . S
C38 O60 1.234 . S
C38 O61 1.283 1_655 S
C39 O51 1.281 . S
C39 O52 1.236 . S
C40 O62 1.240 . S
C40 O63 1.264 1_655 S
O41 Mn36 2.095 . S
O41 C50 1.250 . S
O42 Mn37 2.121 . S
O42 C50 1.258 1_455 S
C43 N44 1.326 . S
C43 C47 1.460 . S
C43 H49 0.929 . S
N44 Mn37 2.257 . S
N44 C43 1.326 . S
N44 C48 1.362 . S
C45 C46 1.258 . S
C45 C48 1.431 . S
C45 C65 1.449 . S
C46 C45 1.258 . S
C46 C47 1.477 . S
C46 H66 0.931 . S
C47 C43 1.460 . S
C47 C46 1.477 . S
C47 H67 0.930 . S
C48 N44 1.362 . S
C48 C45 1.431 . S
C48 C58 1.476 . S
H49 C43 0.929 . S
C50 O41 1.250 . S
C50 O42 1.258 1_655 S
O51 Mn36 2.162 . S
O51 C39 1.281 . S
O52 Mn36 2.297 . S
O52 C39 1.236 . S
N53 Mn37 2.282 . S
N53 C54 1.328 . S
N53 C58 1.318 . S
C54 N53 1.328 . S
C54 C55 1.457 . S
C54 H59 0.929 . S
C55 C54 1.457 . S
C55 C56 1.291 . S
C55 H68 0.931 . S
C56 C55 1.291 . S
C56 C57 1.373 . S
C56 H69 0.929 . S
C57 C56 1.373 . S
C57 C58 1.396 . S
C57 C64 1.403 . S
C58 C48 1.476 . S
C58 N53 1.318 . S
C58 C57 1.396 . S
H59 C54 0.929 . S
O60 Mn36 2.385 . S
O60 C38 1.234 . S
O61 Mn36 2.209 1_455 S
O61 Mn37 2.215 . S
O61 C38 1.283 1_455 S
O62 Mn36 2.094 . S
O62 C40 1.240 . S
O63 Mn37 2.117 . S
O63 C40 1.264 1_455 S
C64 C57 1.403 . S
C64 C65 1.399 . S
C64 H70 0.929 . S
C65 C45 1.449 . S
C65 C64 1.399 . S
C65 H71 0.930 . S
H66 C46 0.931 . S
H67 C47 0.930 . S
H68 C55 0.931 . S
H69 C56 0.929 . S
H70 C64 0.929 . S
H71 C65 0.930 . S
Mn72 O77 2.095 . S
Mn72 O87 2.162 1_565 S
Mn72 O88 2.297 . S
Mn72 O96 2.385 1_565 S
Mn72 O97 2.209 . S
Mn72 O98 2.094 1_565 S
Mn73 O78 2.121 . S
Mn73 N80 2.257 . S
Mn73 N89 2.282 . S
Mn73 O97 2.215 . S
Mn73 O99 2.117 . S
C74 O96 1.234 1_565 S
C74 O97 1.283 . S
C75 O87 1.281 1_565 S
C75 O88 1.236 . S
C76 O98 1.240 1_565 S
C76 O99 1.264 . S
O77 Mn72 2.095 . S
O77 C86 1.250 . S
O78 Mn73 2.121 . S
O78 C86 1.258 . S
C79 N80 1.326 . S
C79 C83 1.460 . S
C79 H85 0.929 . S
N80 Mn73 2.257 . S
N80 C79 1.326 . S
N80 C84 1.362 . S
C81 C82 1.258 . S
C81 C84 1.431 . S
C81 C101 1.449 . S
C82 C81 1.258 . S
C82 C83 1.477 . S
C82 H102 0.931 . S
C83 C79 1.460 . S
C83 C82 1.477 . S
C83 H103 0.930 . S
C84 N80 1.362 . S
C84 C81 1.431 . S
C84 C94 1.476 . S
H85 C79 0.929 . S
C86 O77 1.250 . S
C86 O78 1.258 . S
O87 Mn72 2.162 1_545 S
O87 C75 1.281 1_545 S
O88 Mn72 2.297 . S
O88 C75 1.236 . S
N89 Mn73 2.282 . S
N89 C90 1.328 . S
N89 C94 1.318 . S
C90 N89 1.328 . S
C90 C91 1.457 1_565 S
C90 H95 0.929 1_565 S
C91 C90 1.457 1_545 S
C91 C92 1.291 1_545 S
C91 H104 0.931 . S
C92 C91 1.291 1_565 S
C92 C93 1.373 . S
C92 H105 0.929 . S
C93 C92 1.373 . S
C93 C94 1.396 . S
C93 C100 1.403 . S
C94 C84 1.476 . S
C94 N89 1.318 . S
C94 C93 1.396 . S
H95 C90 0.929 1_545 S
O96 Mn72 2.385 1_545 S
O96 C74 1.234 1_545 S
O97 Mn72 2.209 . S
O97 Mn73 2.215 . S
O97 C74 1.283 . S
O98 Mn72 2.094 1_545 S
O98 C76 1.240 1_545 S
O99 Mn73 2.117 . S
O99 C76 1.264 . S
C100 C93 1.403 . S
C100 C101 1.399 . S
C100 H106 0.929 . S
C101 C81 1.449 . S
C101 C100 1.399 . S
C101 H107 0.930 . S
H102 C82 0.931 . S
H103 C83 0.930 . S
H104 C91 0.931 . S
H105 C92 0.929 . S
H106 C100 0.929 . S
H107 C101 0.930 . S
Mn108 O113 2.095 . S
Mn108 O123 2.162 . S
Mn108 O124 2.297 . S
Mn108 O132 2.385 . S
Mn108 O133 2.209 . S
Mn108 O134 2.094 1_554 S
Mn109 O114 2.121 1_556 S
Mn109 N116 2.257 . S
Mn109 N125 2.282 . S
Mn109 O133 2.215 1_556 S
Mn109 O135 2.117 . S
C110 O132 1.234 . S
C110 O133 1.283 . S
C111 O123 1.281 . S
C111 O124 1.236 . S
C112 O134 1.240 . S
C112 O135 1.264 . S
O113 Mn108 2.095 . S
O113 C122 1.250 . S
O114 Mn109 2.121 1_554 S
O114 C122 1.258 . S
C115 N116 1.326 . S
C115 C119 1.460 . S
C115 H121 0.929 1_556 S
N116 Mn109 2.257 . S
N116 C115 1.326 . S
N116 C120 1.362 . S
C117 C118 1.258 . S
C117 C120 1.431 . S
C117 C137 1.449 . S
C118 C117 1.258 . S
C118 C119 1.477 . S
C118 H138 0.931 . S
C119 C115 1.460 . S
C119 C118 1.477 . S
C119 H139 0.930 1_556 S
C120 N116 1.362 . S
C120 C117 1.431 . S
C120 C130 1.476 . S
H121 C115 0.929 1_554 S
C122 O113 1.250 . S
C122 O114 1.258 . S
O123 Mn108 2.162 . S
O123 C111 1.281 . S
O124 Mn108 2.297 . S
O124 C111 1.236 . S
N125 Mn109 2.282 . S
N125 C126 1.328 . S
N125 C130 1.318 . S
C126 N125 1.328 . S
C126 C127 1.457 . S
C126 H131 0.929 . S
C127 C126 1.457 . S
C127 C128 1.291 . S
C127 H140 0.931 . S
C128 C127 1.291 . S
C128 C129 1.373 . S
C128 H141 0.929 . S
C129 C128 1.373 . S
C129 C130 1.396 . S
C129 C136 1.403 . S
C130 C120 1.476 . S
C130 N125 1.318 . S
C130 C129 1.396 . S
H131 C126 0.929 . S
O132 Mn108 2.385 . S
O132 C110 1.234 . S
O133 Mn108 2.209 . S
O133 Mn109 2.215 1_554 S
O133 C110 1.283 . S
O134 Mn108 2.094 1_556 S
O134 C112 1.240 . S
O135 Mn109 2.117 . S
O135 C112 1.264 . S
C136 C129 1.403 . S
C136 C137 1.399 . S
C136 H142 0.929 . S
C137 C117 1.449 . S
C137 C136 1.399 . S
C137 H143 0.930 . S
H138 C118 0.931 . S
H139 C119 0.930 1_554 S
H140 C127 0.931 . S
H141 C128 0.929 . S
H142 C136 0.929 . S
H143 C137 0.930 . S
Mn144 O149 2.095 . S
Mn144 O159 2.162 . S
Mn144 O160 2.297 . S
Mn144 O168 2.385 . S
Mn144 O169 2.209 1_455 S
Mn144 O170 2.094 . S
Mn145 O150 2.121 . S
Mn145 N152 2.257 . S
Mn145 N161 2.282 . S
Mn145 O169 2.215 . S
Mn145 O171 2.117 . S
C146 O168 1.234 . S
C146 O169 1.283 1_455 S
C147 O159 1.281 . S
C147 O160 1.236 . S
C148 O170 1.240 . S
C148 O171 1.264 1_455 S
O149 Mn144 2.095 . S
O149 C158 1.250 . S
O150 Mn145 2.121 . S
O150 C158 1.258 1_655 S
C151 N152 1.326 . S
C151 C155 1.460 . S
C151 H157 0.929 . S
N152 Mn145 2.257 . S
N152 C151 1.326 . S
N152 C156 1.362 . S
C153 C154 1.258 . S
C153 C156 1.431 . S
C153 C173 1.449 . S
C154 C153 1.258 . S
C154 C155 1.477 . S
C154 H174 0.931 . S
C155 C151 1.460 . S
C155 C154 1.477 . S
C155 H175 0.930 . S
C156 N152 1.362 . S
C156 C153 1.431 . S
C156 C166 1.476 . S
H157 C151 0.929 . S
C158 O149 1.250 . S
C158 O150 1.258 1_455 S
O159 Mn144 2.162 . S
O159 C147 1.281 . S
O160 Mn144 2.297 . S
O160 C147 1.236 . S
N161 Mn145 2.282 . S
N161 C162 1.328 . S
N161 C166 1.318 . S
C162 N161 1.328 . S
C162 C163 1.457 . S
C162 H167 0.929 . S
C163 C162 1.457 . S
C163 C164 1.291 . S
C163 H176 0.931 . S
C164 C163 1.291 . S
C164 C165 1.373 . S
C164 H177 0.929 . S
C165 C164 1.373 . S
C165 C166 1.396 . S
C165 C172 1.403 . S
C166 C156 1.476 . S
C166 N161 1.318 . S
C166 C165 1.396 . S
H167 C162 0.929 . S
O168 Mn144 2.385 . S
O168 C146 1.234 . S
O169 Mn144 2.209 1_655 S
O169 Mn145 2.215 . S
O169 C146 1.283 1_655 S
O170 Mn144 2.094 . S
O170 C148 1.240 . S
O171 Mn145 2.117 . S
O171 C148 1.264 1_655 S
C172 C165 1.403 . S
C172 C173 1.399 . S
C172 H178 0.929 . S
C173 C153 1.449 . S
C173 C172 1.399 . S
C173 H179 0.930 . S
H174 C154 0.931 . S
H175 C155 0.930 . S
H176 C163 0.931 . S
H177 C164 0.929 . S
H178 C172 0.929 . S
H179 C173 0.930 . S
Mn180 O185 2.095 . S
Mn180 O195 2.162 1_545 S
Mn180 O196 2.297 . S
Mn180 O204 2.385 1_545 S
Mn180 O205 2.209 . S
Mn180 O206 2.094 1_545 S
Mn181 O186 2.121 . S
Mn181 N188 2.257 . S
Mn181 N197 2.282 . S
Mn181 O205 2.215 . S
Mn181 O207 2.117 . S
C182 O204 1.234 1_545 S
C182 O205 1.283 . S
C183 O195 1.281 1_545 S
C183 O196 1.236 . S
C184 O206 1.240 1_545 S
C184 O207 1.264 . S
O185 Mn180 2.095 . S
O185 C194 1.250 . S
O186 Mn181 2.121 . S
O186 C194 1.258 . S
C187 N188 1.326 . S
C187 C191 1.460 . S
C187 H193 0.929 . S
N188 Mn181 2.257 . S
N188 C187 1.326 . S
N188 C192 1.362 . S
C189 C190 1.258 . S
C189 C192 1.431 . S
C189 C209 1.449 . S
C190 C189 1.258 . S
C190 C191 1.477 . S
C190 H210 0.931 . S
C191 C187 1.460 . S
C191 C190 1.477 . S
C191 H211 0.930 . S
C192 N188 1.362 . S
C192 C189 1.431 . S
C192 C202 1.476 . S
H193 C187 0.929 . S
C194 O185 1.250 . S
C194 O186 1.258 . S
O195 Mn180 2.162 1_565 S
O195 C183 1.281 1_565 S
O196 Mn180 2.297 . S
O196 C183 1.236 . S
N197 Mn181 2.282 . S
N197 C198 1.328 . S
N197 C202 1.318 . S
C198 N197 1.328 . S
C198 C199 1.457 1_545 S
C198 H203 0.929 1_545 S
C199 C198 1.457 1_565 S
C199 C200 1.291 1_565 S
C199 H212 0.931 . S
C200 C199 1.291 1_545 S
C200 C201 1.373 . S
C200 H213 0.929 . S
C201 C200 1.373 . S
C201 C202 1.396 . S
C201 C208 1.403 . S
C202 C192 1.476 . S
C202 N197 1.318 . S
C202 C201 1.396 . S
H203 C198 0.929 1_565 S
O204 Mn180 2.385 1_565 S
O204 C182 1.234 1_565 S
O205 Mn180 2.209 . S
O205 Mn181 2.215 . S
O205 C182 1.283 . S
O206 Mn180 2.094 1_565 S
O206 C184 1.240 1_565 S
O207 Mn181 2.117 . S
O207 C184 1.264 . S
C208 C201 1.403 . S
C208 C209 1.399 . S
C208 H214 0.929 . S
C209 C189 1.449 . S
C209 C208 1.399 . S
C209 H215 0.930 . S
H210 C190 0.931 . S
H211 C191 0.930 . S
H212 C199 0.931 . S
H213 C200 0.929 . S
H214 C208 0.929 . S
H215 C209 0.930 . S
Mn216 O221 2.095 . S
Mn216 O231 2.162 . S
Mn216 O232 2.297 . S
Mn216 O240 2.385 . S
Mn216 O241 2.209 . S
Mn216 O242 2.094 . S
Mn217 O222 2.121 . S
Mn217 N224 2.257 . S
Mn217 N233 2.282 . S
Mn217 O241 2.215 . S
Mn217 O243 2.117 . S
C218 O240 1.234 . S
C218 O241 1.283 . S
C219 O231 1.281 . S
C219 O232 1.236 . S
C220 O242 1.240 . S
C220 O243 1.264 . S
O221 Mn216 2.095 . S
O221 C230 1.250 . S
O222 Mn217 2.121 . S
O222 C230 1.258 . S
C223 N224 1.326 . S
C223 C227 1.460 . S
C223 H229 0.929 . S
N224 Mn217 2.257 . S
N224 C223 1.326 . S
N224 C228 1.362 . S
C225 C226 1.258 . S
C225 C228 1.431 . S
C225 C245 1.449 . S
C226 C225 1.258 . S
C226 C227 1.477 . S
C226 H246 0.931 . S
C227 C223 1.460 . S
C227 C226 1.477 . S
C227 H247 0.930 . S
C228 N224 1.362 . S
C228 C225 1.431 . S
C228 C238 1.476 . S
H229 C223 0.929 . S
C230 O221 1.250 . S
C230 O222 1.258 . S
O231 Mn216 2.162 . S
O231 C219 1.281 . S
O232 Mn216 2.297 . S
O232 C219 1.236 . S
N233 Mn217 2.282 . S
N233 C234 1.328 . S
N233 C238 1.318 . S
C234 N233 1.328 . S
C234 C235 1.457 . S
C234 H239 0.929 . S
C235 C234 1.457 . S
C235 C236 1.291 . S
C235 H248 0.931 . S
C236 C235 1.291 . S
C236 C237 1.373 . S
C236 H249 0.929 . S
C237 C236 1.373 . S
C237 C238 1.396 . S
C237 C244 1.403 . S
C238 C228 1.476 . S
C238 N233 1.318 . S
C238 C237 1.396 . S
H239 C234 0.929 . S
O240 Mn216 2.385 . S
O240 C218 1.234 . S
O241 Mn216 2.209 . S
O241 Mn217 2.215 . S
O241 C218 1.283 . S
O242 Mn216 2.094 . S
O242 C220 1.240 . S
O243 Mn217 2.117 . S
O243 C220 1.264 . S
C244 C237 1.403 . S
C244 C245 1.399 . S
C244 H250 0.929 . S
C245 C225 1.449 . S
C245 C244 1.399 . S
C245 H251 0.930 . S
H246 C226 0.931 . S
H247 C227 0.930 . S
H248 C235 0.931 . S
H249 C236 0.929 . S
H250 C244 0.929 . S
H251 C245 0.930 . S
Mn252 O257 2.095 . S
Mn252 O267 2.162 1_655 S
Mn252 O268 2.297 . S
Mn252 O276 2.385 1_655 S
Mn252 O277 2.209 . S
Mn252 O278 2.094 1_656 S
Mn253 O258 2.121 1_554 S
Mn253 N260 2.257 . S
Mn253 N269 2.282 . S
Mn253 O277 2.215 1_554 S
Mn253 O279 2.117 . S
C254 O276 1.234 1_655 S
C254 O277 1.283 . S
C255 O267 1.281 1_655 S
C255 O268 1.236 . S
C256 O278 1.240 . S
C256 O279 1.264 1_455 S
O257 Mn252 2.095 . S
O257 C266 1.250 . S
O258 Mn253 2.121 1_556 S
O258 C266 1.258 . S
C259 N260 1.326 . S
C259 C263 1.460 . S
C259 H265 0.929 1_554 S
N260 Mn253 2.257 . S
N260 C259 1.326 . S
N260 C264 1.362 . S
C261 C262 1.258 . S
C261 C264 1.431 . S
C261 C281 1.449 . S
C262 C261 1.258 . S
C262 C263 1.477 . S
C262 H282 0.931 . S
C263 C259 1.460 . S
C263 C262 1.477 . S
C263 H283 0.930 1_554 S
C264 N260 1.362 . S
C264 C261 1.431 . S
C264 C274 1.476 . S
H265 C259 0.929 1_556 S
C266 O257 1.250 . S
C266 O258 1.258 . S
O267 Mn252 2.162 1_455 S
O267 C255 1.281 1_455 S
O268 Mn252 2.297 . S
O268 C255 1.236 . S
N269 Mn253 2.282 . S
N269 C270 1.328 . S
N269 C274 1.318 . S
C270 N269 1.328 . S
C270 C271 1.457 1_655 S
C270 H275 0.929 1_655 S
C271 C270 1.457 1_455 S
C271 C272 1.291 1_455 S
C271 H284 0.931 . S
C272 C271 1.291 1_655 S
C272 C273 1.373 . S
C272 H285 0.950 . S
C273 C272 1.373 . S
C273 C274 1.396 . S
C273 C280 1.403 . S
C274 C264 1.476 . S
C274 N269 1.318 . S
C274 C273 1.396 . S
H275 C270 0.929 1_455 S
O276 Mn252 2.385 1_455 S
O276 C254 1.234 1_455 S
O277 Mn252 2.209 . S
O277 Mn253 2.215 1_556 S
O277 C254 1.283 . S
O278 Mn252 2.094 1_454 S
O278 C256 1.240 . S
O279 Mn253 2.117 . S
O279 C256 1.264 1_655 S
C280 C273 1.403 . S
C280 C281 1.399 . S
C280 H286 0.929 . S
C281 C261 1.449 . S
C281 C280 1.399 . S
C281 H287 0.930 . S
H282 C262 0.931 . S
H283 C263 0.930 1_556 S
H284 C271 0.931 . S
H285 C272 0.950 . S
H286 C280 0.929 . S
H287 C281 0.930 . S
Mn288 O293 2.095 . S
Mn288 O303 2.162 1_565 S
Mn288 O304 2.297 . S
Mn288 O312 2.385 1_565 S
Mn288 O313 2.209 . S
Mn288 O314 2.094 1_565 S
Mn289 O294 2.121 . S
Mn289 N296 2.257 . S
Mn289 N305 2.282 . S
Mn289 O313 2.215 . S
Mn289 O315 2.117 . S
C290 O312 1.234 1_565 S
C290 O313 1.283 . S
C291 O303 1.281 1_565 S
C291 O304 1.236 . S
C292 O314 1.240 1_565 S
C292 O315 1.264 . S
O293 Mn288 2.095 . S
O293 C302 1.250 . S
O294 Mn289 2.121 . S
O294 C302 1.258 . S
C295 N296 1.326 . S
C295 C299 1.460 . S
C295 H301 0.929 . S
N296 Mn289 2.257 . S
N296 C295 1.326 . S
N296 C300 1.362 . S
C297 C298 1.258 . S
C297 C300 1.431 . S
C297 C317 1.449 . S
C298 C297 1.258 . S
C298 C299 1.477 . S
C298 H318 0.931 . S
C299 C295 1.460 . S
C299 C298 1.477 . S
C299 H319 0.930 . S
C300 N296 1.362 . S
C300 C297 1.431 . S
C300 C310 1.476 . S
H301 C295 0.929 . S
C302 O293 1.250 . S
C302 O294 1.258 . S
O303 Mn288 2.162 1_545 S
O303 C291 1.281 1_545 S
O304 Mn288 2.297 . S
O304 C291 1.236 . S
N305 Mn289 2.282 . S
N305 C306 1.328 . S
N305 C310 1.318 . S
C306 N305 1.328 . S
C306 C307 1.457 1_565 S
C306 H311 0.929 1_565 S
C307 C306 1.457 1_545 S
C307 C308 1.291 1_545 S
C307 H320 0.931 . S
C308 C307 1.291 1_565 S
C308 C309 1.373 . S
C308 H321 0.929 . S
C309 C308 1.373 . S
C309 C310 1.396 . S
C309 C316 1.403 . S
C310 C300 1.476 . S
C310 N305 1.318 . S
C310 C309 1.396 . S
H311 C306 0.929 1_545 S
O312 Mn288 2.385 1_545 S
O312 C290 1.234 1_545 S
O313 Mn288 2.209 . S
O313 Mn289 2.215 . S
O313 C290 1.283 . S
O314 Mn288 2.094 1_545 S
O314 C292 1.240 1_545 S
O315 Mn289 2.117 . S
O315 C292 1.264 . S
C316 C309 1.403 . S
C316 C317 1.399 . S
C316 H322 0.929 . S
C317 C297 1.449 . S
C317 C316 1.399 . S
C317 H323 0.930 . S
H318 C298 0.931 . S
H319 C299 0.930 . S
H320 C307 0.931 . S
H321 C308 0.929 . S
H322 C316 0.929 . S
H323 C317 0.930 . S
Mn324 O329 2.095 . S
Mn324 O339 2.162 . S
Mn324 O340 2.297 . S
Mn324 O348 2.385 . S
Mn324 O349 2.209 . S
Mn324 O350 2.094 . S
Mn325 O330 2.121 . S
Mn325 N332 2.257 . S
Mn325 N341 2.282 . S
Mn325 O349 2.215 . S
Mn325 O351 2.117 . S
C326 O348 1.234 . S
C326 O349 1.283 . S
C327 O339 1.281 . S
C327 O340 1.236 . S
C328 O350 1.240 . S
C328 O351 1.264 . S
O329 Mn324 2.095 . S
O329 C338 1.250 . S
O330 Mn325 2.121 . S
O330 C338 1.258 . S
C331 N332 1.326 . S
C331 C335 1.460 . S
C331 H337 0.929 . S
N332 Mn325 2.257 . S
N332 C331 1.326 . S
N332 C336 1.362 . S
C333 C334 1.258 . S
C333 C336 1.431 . S
C333 C353 1.449 . S
C334 C333 1.258 . S
C334 C335 1.477 . S
C334 H354 0.931 . S
C335 C331 1.460 . S
C335 C334 1.477 . S
C335 H355 0.930 . S
C336 N332 1.362 . S
C336 C333 1.431 . S
C336 C346 1.476 . S
H337 C331 0.929 . S
C338 O329 1.250 . S
C338 O330 1.258 . S
O339 Mn324 2.162 . S
O339 C327 1.281 . S
O340 Mn324 2.297 . S
O340 C327 1.236 . S
N341 Mn325 2.282 . S
N341 C342 1.328 . S
N341 C346 1.318 . S
C342 N341 1.328 . S
C342 C343 1.457 . S
C342 H347 0.929 . S
C343 C342 1.457 . S
C343 C344 1.291 . S
C343 H356 0.931 . S
C344 C343 1.291 . S
C344 C345 1.373 . S
C344 H357 0.929 . S
C345 C344 1.373 . S
C345 C346 1.396 . S
C345 C352 1.403 . S
C346 C336 1.476 . S
C346 N341 1.318 . S
C346 C345 1.396 . S
H347 C342 0.929 . S
O348 Mn324 2.385 . S
O348 C326 1.234 . S
O349 Mn324 2.209 . S
O349 Mn325 2.215 . S
O349 C326 1.283 . S
O350 Mn324 2.094 . S
O350 C328 1.240 . S
O351 Mn325 2.117 . S
O351 C328 1.264 . S
C352 C345 1.403 . S
C352 C353 1.399 . S
C352 H358 0.929 . S
C353 C333 1.449 . S
C353 C352 1.399 . S
C353 H359 0.930 . S
H354 C334 0.931 . S
H355 C335 0.930 . S
H356 C343 0.931 . S
H357 C344 0.929 . S
H358 C352 0.929 . S
H359 C353 0.930 . S
Mn360 O365 2.095 . S
Mn360 O375 2.162 1_455 S
Mn360 O376 2.297 . S
Mn360 O384 2.385 1_455 S
Mn360 O385 2.209 . S
Mn360 O386 2.094 1_456 S
Mn361 O366 2.121 1_554 S
Mn361 N368 2.257 . S
Mn361 N377 2.282 . S
Mn361 O385 2.215 1_554 S
Mn361 O387 2.117 . S
C362 O384 1.234 1_455 S
C362 O385 1.283 . S
C363 O375 1.281 1_455 S
C363 O376 1.236 . S
C364 O386 1.240 . S
C364 O387 1.264 1_655 S
O365 Mn360 2.095 . S
O365 C374 1.250 . S
O366 Mn361 2.121 1_556 S
O366 C374 1.258 . S
C367 N368 1.326 . S
C367 C371 1.460 . S
C367 H373 0.929 1_554 S
N368 Mn361 2.257 . S
N368 C367 1.326 . S
N368 C372 1.362 . S
C369 C370 1.258 . S
C369 C372 1.431 . S
C369 C389 1.449 . S
C370 C369 1.258 . S
C370 C371 1.477 . S
C370 H390 0.931 . S
C371 C367 1.460 . S
C371 C370 1.477 . S
C371 H391 0.930 1_554 S
C372 N368 1.362 . S
C372 C369 1.431 . S
C372 C382 1.476 . S
H373 C367 0.929 1_556 S
C374 O365 1.250 . S
C374 O366 1.258 . S
O375 Mn360 2.162 1_655 S
O375 C363 1.281 1_655 S
O376 Mn360 2.297 . S
O376 C363 1.236 . S
N377 Mn361 2.282 . S
N377 C378 1.328 . S
N377 C382 1.318 . S
C378 N377 1.328 . S
C378 C379 1.457 1_455 S
C378 H383 0.929 1_455 S
C379 C378 1.457 1_655 S
C379 C380 1.291 1_655 S
C379 H392 0.931 . S
C380 C379 1.291 1_455 S
C380 C381 1.373 . S
C380 H393 0.950 . S
C381 C380 1.373 . S
C381 C382 1.396 . S
C381 C388 1.403 . S
C382 C372 1.476 . S
C382 N377 1.318 . S
C382 C381 1.396 . S
H383 C378 0.929 1_655 S
O384 Mn360 2.385 1_655 S
O384 C362 1.234 1_655 S
O385 Mn360 2.209 . S
O385 Mn361 2.215 1_556 S
O385 C362 1.283 . S
O386 Mn360 2.094 1_654 S
O386 C364 1.240 . S
O387 Mn361 2.117 . S
O387 C364 1.264 1_455 S
C388 C381 1.403 . S
C388 C389 1.399 . S
C388 H394 0.929 . S
C389 C369 1.449 . S
C389 C388 1.399 . S
C389 H395 0.930 . S
H390 C370 0.931 . S
H391 C371 0.930 1_556 S
H392 C379 0.931 . S
H393 C380 0.950 . S
H394 C388 0.929 . S
H395 C389 0.930 . S
Mn396 O401 2.095 . S
Mn396 O411 2.162 1_545 S
Mn396 O412 2.297 . S
Mn396 O420 2.385 1_545 S
Mn396 O421 2.209 . S
Mn396 O422 2.094 1_545 S
Mn397 O402 2.121 . S
Mn397 N404 2.257 . S
Mn397 N413 2.282 . S
Mn397 O421 2.215 . S
Mn397 O423 2.117 . S
C398 O420 1.234 1_545 S
C398 O421 1.283 . S
C399 O411 1.281 1_545 S
C399 O412 1.236 . S
C400 O422 1.240 1_545 S
C400 O423 1.264 . S
O401 Mn396 2.095 . S
O401 C410 1.250 . S
O402 Mn397 2.121 . S
O402 C410 1.258 . S
C403 N404 1.326 . S
C403 C407 1.460 . S
C403 H409 0.929 . S
N404 Mn397 2.257 . S
N404 C403 1.326 . S
N404 C408 1.362 . S
C405 C406 1.258 . S
C405 C408 1.431 . S
C405 C425 1.449 . S
C406 C405 1.258 . S
C406 C407 1.477 . S
C406 H426 0.931 . S
C407 C403 1.460 . S
C407 C406 1.477 . S
C407 H427 0.930 . S
C408 N404 1.362 . S
C408 C405 1.431 . S
C408 C418 1.476 . S
H409 C403 0.929 . S
C410 O401 1.250 . S
C410 O402 1.258 . S
O411 Mn396 2.162 1_565 S
O411 C399 1.281 1_565 S
O412 Mn396 2.297 . S
O412 C399 1.236 . S
N413 Mn397 2.282 . S
N413 C414 1.328 . S
N413 C418 1.318 . S
C414 N413 1.328 . S
C414 C415 1.457 1_545 S
C414 H419 0.929 1_545 S
C415 C414 1.457 1_565 S
C415 C416 1.291 1_565 S
C415 H428 0.931 . S
C416 C415 1.291 1_545 S
C416 C417 1.373 . S
C416 H429 0.929 . S
C417 C416 1.373 . S
C417 C418 1.396 . S
C417 C424 1.403 . S
C418 C408 1.476 . S
C418 N413 1.318 . S
C418 C417 1.396 . S
H419 C414 0.929 1_565 S
O420 Mn396 2.385 1_565 S
O420 C398 1.234 1_565 S
O421 Mn396 2.209 . S
O421 Mn397 2.215 . S
O421 C398 1.283 . S
O422 Mn396 2.094 1_565 S
O422 C400 1.240 1_565 S
O423 Mn397 2.117 . S
O423 C400 1.264 . S
C424 C417 1.403 . S
C424 C425 1.399 . S
C424 H430 0.929 . S
C425 C405 1.449 . S
C425 C424 1.399 . S
C425 H431 0.930 . S
H426 C406 0.931 . S
H427 C407 0.930 . S
H428 C415 0.931 . S
H429 C416 0.929 . S
H430 C424 0.929 . S
H431 C425 0.930 . S
C432 C433 1.387 . S
C432 H436 0.950 . S
C432 C441 1.390 . S
C433 C432 1.387 . S
C433 C435 1.387 . S
H434 C441 0.950 . S
C435 C433 1.387 . S
C435 C437 1.390 . S
C435 H439 0.950 . S
H436 C432 0.950 . S
C437 C435 1.390 . S
C437 C438 1.387 . S
C437 H440 0.950 . S
C438 C437 1.387 . S
C438 C441 1.387 . S
H439 C435 0.950 . S
H440 C437 0.950 . S
C441 C432 1.390 . S
C441 H434 0.950 . S
C441 C438 1.387 . S
C442 C443 1.387 . S
C442 H446 0.950 . S
C442 C451 1.390 . S
C443 C442 1.387 . S
C443 C445 1.387 1_655 S
H444 C451 0.950 . S
C445 C443 1.387 1_455 S
C445 C447 1.390 . S
C445 H449 0.950 . S
H446 C442 0.950 . S
C447 C445 1.390 . S
C447 C448 1.387 1_455 S
C447 H450 0.950 . S
C448 C447 1.387 1_655 S
C448 C451 1.387 . S
H449 C445 0.950 . S
H450 C447 0.950 . S
C451 C442 1.390 . S
C451 H444 0.950 . S
C451 C448 1.387 . S
C452 C453 1.387 1_545 S
C452 H456 0.950 . S
C452 C461 1.390 1_556 S
C453 C452 1.387 1_565 S
C453 C455 1.387 . S
H454 C461 0.950 . S
C455 C453 1.387 . S
C455 C457 1.390 1_556 S
C455 H459 0.950 . S
H456 C452 0.950 . S
C457 C455 1.390 1_554 S
C457 C458 1.387 1_565 S
C457 H460 0.950 . S
C458 C457 1.387 1_545 S
C458 C461 1.387 . S
H459 C455 0.950 . S
H460 C457 0.950 . S
C461 C452 1.390 1_554 S
C461 H454 0.950 . S
C461 C458 1.387 . S
C462 C463 1.387 . S
C462 H466 0.950 . S
C462 C471 1.390 . S
C463 C462 1.387 . S
C463 C465 1.387 . S
H464 C471 0.950 . S
C465 C463 1.387 . S
C465 C467 1.390 . S
C465 H469 0.950 . S
H466 C462 0.950 . S
C467 C465 1.390 . S
C467 C468 1.387 . S
C467 H470 0.950 . S
C468 C467 1.387 . S
C468 C471 1.387 . S
H469 C465 0.950 . S
H470 C467 0.950 . S
C471 C462 1.390 . S
C471 H464 0.950 . S
C471 C468 1.387 . S
C472 C473 1.387 . S
C472 H476 0.950 . S
C472 C481 1.390 . S
C473 C472 1.387 . S
C473 C475 1.387 1_455 S
H474 C481 0.950 . S
C475 C473 1.387 1_655 S
C475 C477 1.390 . S
C475 H479 0.950 . S
H476 C472 0.950 . S
C477 C475 1.390 . S
C477 C478 1.387 1_655 S
C477 H480 0.950 . S
C478 C477 1.387 1_455 S
C478 C481 1.387 . S
H479 C475 0.950 . S
H480 C477 0.950 . S
C481 C472 1.390 . S
C481 H474 0.950 . S
C481 C478 1.387 . S
C482 C483 1.397 . S
C482 H486 0.942 . S
C482 C491 1.389 1_564 S
C483 C482 1.397 . S
C483 C485 1.387 . S
H484 C491 0.950 . S
C485 C483 1.387 . S
C485 C487 1.389 1_564 S
C485 H489 0.950 . S
H486 C482 0.942 . S
C487 C485 1.389 1_546 S
C487 C488 1.397 . S
C487 H490 0.942 . S
C488 C487 1.397 . S
C488 C491 1.387 . S
H489 C485 0.950 . S
H490 C487 0.942 . S
C491 C482 1.389 1_546 S
C491 H484 0.950 . S
C491 C488 1.387 . S
C492 C493 1.387 . S
C492 H496 0.950 . S
C492 C501 1.390 1_556 S
C493 C492 1.387 . S
C493 C495 1.387 . S
H494 C501 0.950 . S
C495 C493 1.387 . S
C495 C497 1.390 1_556 S
C495 H499 0.950 . S
H496 C492 0.950 . S
C497 C495 1.390 1_554 S
C497 C498 1.387 . S
C497 H500 0.950 . S
C498 C497 1.387 . S
C498 C501 1.387 . S
H499 C495 0.950 . S
H500 C497 0.950 . S
C501 C492 1.390 1_554 S
C501 H494 0.950 . S
C501 C498 1.387 . S
C502 C503 1.387 . S
C502 H506 0.950 . S
C502 C511 1.390 . S
C503 C502 1.387 . S
C503 C505 1.387 . S
H504 C511 0.950 . S
C505 C503 1.387 . S
C505 C507 1.390 . S
C505 H509 0.950 . S
H506 C502 0.950 . S
C507 C505 1.390 . S
C507 C508 1.387 . S
C507 H510 0.950 . S
C508 C507 1.387 . S
C508 C511 1.387 . S
H509 C505 0.950 . S
H510 C507 0.950 . S
C511 C502 1.390 . S
C511 H504 0.950 . S
C511 C508 1.387 . S
C512 C513 1.387 . S
C512 H516 0.950 . S
C512 C521 1.390 . S
C513 C512 1.387 . S
C513 C515 1.387 . S
H514 C521 0.950 . S
C515 C513 1.387 . S
C515 C517 1.390 . S
C515 H519 0.950 . S
H516 C512 0.950 . S
C517 C515 1.390 . S
C517 C518 1.387 . S
C517 H520 0.950 . S
C518 C517 1.387 . S
C518 C521 1.387 . S
H519 C515 0.950 . S
H520 C517 0.950 . S
C521 C512 1.390 . S
C521 H514 0.950 . S
C521 C518 1.387 . S
C522 C523 1.387 . S
C522 H526 0.950 . S
C522 C531 1.390 1_554 S
C523 C522 1.387 . S
C523 C525 1.387 . S
H524 C531 0.950 . S
C525 C523 1.387 . S
C525 C527 1.390 1_554 S
C525 H529 0.950 . S
H526 C522 0.950 . S
C527 C525 1.390 1_556 S
C527 C528 1.387 . S
C527 H530 0.950 . S
C528 C527 1.387 . S
C528 C531 1.387 . S
H529 C525 0.950 . S
H530 C527 0.950 . S
C531 C522 1.390 1_556 S
C531 H524 0.950 . S
C531 C528 1.387 . S
C532 C533 1.387 . S
C532 H536 0.950 . S
C532 C541 1.390 . S
C533 C532 1.387 . S
C533 C535 1.387 . S
H534 C541 0.950 . S
C535 C533 1.387 . S
C535 C537 1.390 . S
C535 H539 0.950 . S
H536 C532 0.950 . S
C537 C535 1.390 . S
C537 C538 1.387 . S
C537 H540 0.950 . S
C538 C537 1.387 . S
C538 C541 1.387 . S
H539 C535 0.950 . S
H540 C537 0.950 . S
C541 C532 1.390 . S
C541 H534 0.950 . S
C541 C538 1.387 . S
C542 C543 1.387 . S
C542 H546 0.950 . S
C542 C551 1.390 . S
C543 C542 1.387 . S
C543 C545 1.387 . S
H544 C551 0.950 . S
C545 C543 1.387 . S
C545 C547 1.390 . S
C545 H549 0.950 . S
H546 C542 0.950 . S
C547 C545 1.390 . S
C547 C548 1.387 . S
C547 H550 0.950 . S
C548 C547 1.387 . S
C548 C551 1.387 . S
H549 C545 0.950 . S
H550 C547 0.950 . S
C551 C542 1.390 . S
C551 H544 0.950 . S
C551 C548 1.387 . S
C552 C553 1.387 . S
C552 H556 0.950 . S
C552 C561 1.390 . S
C553 C552 1.387 . S
C553 C555 1.387 . S
H554 C561 0.950 . S
C555 C553 1.387 . S
C555 C557 1.390 . S
C555 H559 0.950 . S
H556 C552 0.950 . S
C557 C555 1.390 . S
C557 C558 1.387 . S
C557 H560 0.950 . S
C558 C557 1.387 . S
C558 C561 1.387 . S
H559 C555 0.950 . S
H560 C557 0.950 . S
C561 C552 1.390 . S
C561 H554 0.950 . S
C561 C558 1.387 . S
C562 C563 1.387 . S
C562 H566 0.950 . S
C562 C571 1.390 . S
C563 C562 1.387 . S
C563 C565 1.387 1_455 S
H564 C571 0.950 . S
C565 C563 1.387 1_655 S
C565 C567 1.390 . S
C565 H569 0.950 . S
H566 C562 0.950 . S
C567 C565 1.390 . S
C567 C568 1.387 . S
C567 H570 0.950 . S
C568 C567 1.387 . S
C568 C571 1.387 1_655 S
H569 C565 0.950 . S
H570 C567 0.950 . S
C571 C562 1.390 . S
C571 H564 0.950 . S
C571 C568 1.387 1_455 S
C572 C573 1.387 . S
C572 H576 0.950 . S
C572 C581 1.390 1_545 S
C573 C572 1.387 . S
C573 C575 1.387 . S
H574 C581 0.950 . S
C575 C573 1.387 . S
C575 C577 1.390 1_545 S
C575 H579 0.950 . S
H576 C572 0.950 . S
C577 C575 1.390 1_565 S
C577 C578 1.387 . S
C577 H580 0.950 . S
C578 C577 1.387 . S
C578 C581 1.387 . S
H579 C575 0.950 . S
H580 C577 0.950 . S
C581 C572 1.390 1_565 S
C581 H574 0.950 . S
C581 C578 1.387 . S
C582 C583 1.387 . S
C582 H586 0.950 . S
C582 C591 1.390 . S
C583 C582 1.387 . S
C583 C585 1.387 . S
H584 C591 0.950 . S
C585 C583 1.387 . S
C585 C587 1.390 . S
C585 H589 0.950 . S
H586 C582 0.950 . S
C587 C585 1.390 . S
C587 C588 1.387 . S
C587 H590 0.950 . S
C588 C587 1.387 . S
C588 C591 1.387 . S
H589 C585 0.950 . S
H590 C587 0.950 . S
C591 C582 1.390 . S
C591 H584 0.950 . S
C591 C588 1.387 . S
C592 C593 1.387 . S
C592 H596 0.950 . S
C592 C601 1.390 . S
C593 C592 1.387 . S
C593 C595 1.387 1_655 S
H594 C601 0.950 . S
C595 C593 1.387 1_455 S
C595 C597 1.390 . S
C595 H599 0.950 . S
H596 C592 0.950 . S
C597 C595 1.390 . S
C597 C598 1.387 . S
C597 H600 0.950 . S
C598 C597 1.387 . S
C598 C601 1.387 1_455 S
H599 C595 0.950 . S
H600 C597 0.950 . S
C601 C592 1.390 . S
C601 H594 0.950 . S
C601 C598 1.387 1_655 S
C602 C603 1.387 . S
C602 H606 0.950 . S
C602 C611 1.390 . S
C603 C602 1.387 . S
C603 C605 1.387 1_545 S
H604 C611 0.950 . S
C605 C603 1.387 1_565 S
C605 C607 1.390 . S
C605 H609 0.950 . S
H606 C602 0.950 . S
C607 C605 1.390 . S
C607 C608 1.387 . S
C607 H610 0.950 . S
C608 C607 1.387 . S
C608 C611 1.387 1_565 S
H609 C605 0.950 . S
H610 C607 0.950 . S
C611 C602 1.390 . S
C611 H604 0.950 . S
C611 C608 1.387 1_545 S
C612 C613 1.387 . S
C612 H616 0.950 1_554 S
C612 C621 1.390 . S
C613 C612 1.387 . S
C613 C615 1.387 . S
H614 C621 0.950 1_556 S
C615 C613 1.387 . S
C615 C617 1.390 . S
C615 H619 0.950 . S
H616 C612 0.950 1_556 S
C617 C615 1.390 . S
C617 C618 1.387 . S
C617 H620 0.950 . S
C618 C617 1.387 . S
C618 C621 1.387 . S
H619 C615 0.950 . S
H620 C617 0.950 . S
C621 C612 1.390 . S
C621 H614 0.950 1_554 S
C621 C618 1.387 . S
C622 C623 1.387 . S
C622 H626 0.950 . S
C622 C631 1.390 1_455 S
C623 C622 1.387 . S
C623 C625 1.387 . S
H624 C631 0.950 . S
C625 C623 1.387 . S
C625 C627 1.390 1_455 S
C625 H629 0.950 . S
H626 C622 0.950 . S
C627 C625 1.390 1_655 S
C627 C628 1.387 . S
C627 H630 0.950 . S
C628 C627 1.387 . S
C628 C631 1.387 . S
H629 C625 0.950 . S
H630 C627 0.950 . S
C631 C622 1.390 1_655 S
C631 H624 0.950 . S
C631 C628 1.387 . S
C632 C633 1.387 . S
C632 H636 0.950 . S
C632 C641 1.390 1_565 S
C633 C632 1.387 . S
C633 C635 1.387 . S
H634 C641 0.950 . S
C635 C633 1.387 . S
C635 C637 1.390 1_565 S
C635 H639 0.950 . S
H636 C632 0.950 . S
C637 C635 1.390 1_545 S
C637 C638 1.387 . S
C637 H640 0.950 . S
C638 C637 1.387 . S
C638 C641 1.387 . S
H639 C635 0.950 . S
H640 C637 0.950 . S
C641 C632 1.390 1_545 S
C641 H634 0.950 . S
C641 C638 1.387 . S
C642 C643 1.387 . S
C642 H646 0.950 . S
C642 C651 1.390 . S
C643 C642 1.387 . S
C643 C645 1.387 . S
H644 C651 0.950 . S
C645 C643 1.387 . S
C645 C647 1.390 . S
C645 H649 0.950 . S
H646 C642 0.950 . S
C647 C645 1.390 . S
C647 C648 1.387 . S
C647 H650 0.950 . S
C648 C647 1.387 . S
C648 C651 1.387 . S
H649 C645 0.950 . S
H650 C647 0.950 . S
C651 C642 1.390 . S
C651 H644 0.950 . S
C651 C648 1.387 . S
C652 C653 1.387 . S
C652 H656 0.950 1_556 S
C652 C661 1.390 1_655 S
C653 C652 1.387 . S
C653 C655 1.387 . S
H654 C661 0.950 1_554 S
C655 C653 1.387 . S
C655 C657 1.390 1_655 S
C655 H659 0.950 . S
H656 C652 0.950 1_554 S
C657 C655 1.390 1_455 S
C657 C658 1.387 . S
C657 H660 0.950 . S
C658 C657 1.387 . S
C658 C661 1.387 . S
H659 C655 0.950 . S
H660 C657 0.950 . S
C661 C652 1.390 1_455 S
C661 H654 0.950 1_556 S
C661 C658 1.387 . S
C662 C663 1.387 . S
C662 H666 0.950 . S
C662 C671 1.390 1_545 S
C663 C662 1.387 . S
C663 C665 1.387 . S
H664 C671 0.950 . S
C665 C663 1.387 . S
C665 C667 1.390 1_545 S
C665 H669 0.950 . S
H666 C662 0.950 . S
C667 C665 1.390 1_565 S
C667 C668 1.387 . S
C667 H670 0.950 . S
C668 C667 1.387 . S
C668 C671 1.387 . S
H669 C665 0.950 . S
H670 C667 0.950 . S
C671 C662 1.390 1_565 S
C671 H664 0.950 . S
C671 C668 1.387 . S
C433 C3 1.631 . S
C438 C338 1.581 . S
C443 C50 1.578 . S
C448 C363 1.632 1_655 S
C453 C75 1.409 . S
C458 C399 1.409 . S
C463 C111 1.632 . S
C468 C230 1.579 . S
C473 C255 1.632 1_455 S
C478 C158 1.578 . S
C483 C291 1.408 . S
C488 C183 1.408 . S
C493 C374 1.422 . S
C498 C14 1.422 . S
C503 C39 1.523 . S
C508 C410 1.403 . S
C513 C86 1.402 . S
C518 C219 1.523 . S
C523 C122 1.417 . S
C528 C266 1.417 . S
C533 C147 1.523 . S
C538 C302 1.402 . S
C543 C194 1.400 . S
C548 C327 1.522 . S
C553 C326 1.045 . S
C558 C4 1.076 . S
C563 C38 1.045 1_455 S
C568 C364 1.077 . S
C573 C76 0.900 1_545 S
C578 C400 0.900 1_565 S
C583 C218 1.052 . S
C588 C112 1.081 . S
C593 C146 1.045 1_655 S
C598 C256 1.077 . S
C603 C292 0.900 1_545 S
C608 C184 0.903 1_565 S
C613 C2 1.569 . S
C618 C110 1.569 . S
C623 C148 1.362 . S
C628 C40 1.362 . S
C633 C74 1.457 . S
C638 C182 1.457 . S
C643 C220 1.362 . S
C648 C328 1.362 . S
C653 C254 1.569 . S
C658 C362 1.569 . S
C663 C398 1.457 . S
C668 C290 1.457 . S
