# Generated by pormake.
# Topology wjx, (5)-cn, num edge types: 1
# Building blocks:
#     Node 0, Type 0, BuildingBlock: BEQFEK_clean_sbu_0, # of connection points: 5
#     Node 1, Type 0, BuildingBlock: BEQFEK_clean_sbu_0, # of connection points: 5
#     Node 2, Type 0, BuildingBlock: BEQFEK_clean_sbu_0, # of connection points: 5
#     Node 3, Type 0, BuildingBlock: BEQFEK_clean_sbu_0, # of connection points: 5
#     Node 4, Type 0, BuildingBlock: BEQFEK_clean_sbu_0, # of connection points: 5
#     Node 5, Type 0, BuildingBlock: BEQFEK_clean_sbu_0, # of connection points: 5
#     Node 6, Type 0, BuildingBlock: BEQFEK_clean_sbu_0, # of connection points: 5
#     Node 7, Type 0, BuildingBlock: BEQFEK_clean_sbu_0, # of connection points: 5
#     Node 8, Type 0, BuildingBlock: BEQFEK_clean_sbu_0, # of connection points: 5
#     Node 9, Type 0, BuildingBlock: BEQFEK_clean_sbu_0, # of connection points: 5
#     Node 10, Type 0, BuildingBlock: BEQFEK_clean_sbu_0, # of connection points: 5
#     Node 11, Type 0, BuildingBlock: BEQFEK_clean_sbu_0, # of connection points: 5
#     Edge 12, Type (0, 0), BuildingBlock: XUDNAN_clean_linker_2, # of connection points: 2
#     Edge 13, Type (0, 0), BuildingBlock: XUDNAN_clean_linker_2, # of connection points: 2
#     Edge 14, Type (0, 0), BuildingBlock: XUDNAN_clean_linker_2, # of connection points: 2
#     Edge 15, Type (0, 0), BuildingBlock: XUDNAN_clean_linker_2, # of connection points: 2
#     Edge 16, Type (0, 0), BuildingBlock: XUDNAN_clean_linker_2, # of connection points: 2
#     Edge 17, Type (0, 0), BuildingBlock: XUDNAN_clean_linker_2, # of connection points: 2
#     Edge 18, Type (0, 0), BuildingBlock: XUDNAN_clean_linker_2, # of connection points: 2
#     Edge 19, Type (0, 0), BuildingBlock: XUDNAN_clean_linker_2, # of connection points: 2
#     Edge 20, Type (0, 0), BuildingBlock: XUDNAN_clean_linker_2, # of connection points: 2
#     Edge 21, Type (0, 0), BuildingBlock: XUDNAN_clean_linker_2, # of connection points: 2
#     Edge 22, Type (0, 0), BuildingBlock: XUDNAN_clean_linker_2, # of connection points: 2
#     Edge 23, Type (0, 0), BuildingBlock: XUDNAN_clean_linker_2, # of connection points: 2
#     Edge 24, Type (0, 0), BuildingBlock: XUDNAN_clean_linker_2, # of connection points: 2
#     Edge 25, Type (0, 0), BuildingBlock: XUDNAN_clean_linker_2, # of connection points: 2
#     Edge 26, Type (0, 0), BuildingBlock: XUDNAN_clean_linker_2, # of connection points: 2
#     Edge 27, Type (0, 0), BuildingBlock: XUDNAN_clean_linker_2, # of connection points: 2
#     Edge 28, Type (0, 0), BuildingBlock: XUDNAN_clean_linker_2, # of connection points: 2
#     Edge 29, Type (0, 0), BuildingBlock: XUDNAN_clean_linker_2, # of connection points: 2
#     Edge 30, Type (0, 0), BuildingBlock: XUDNAN_clean_linker_2, # of connection points: 2
#     Edge 31, Type (0, 0), BuildingBlock: XUDNAN_clean_linker_2, # of connection points: 2
#     Edge 32, Type (0, 0), BuildingBlock: XUDNAN_clean_linker_2, # of connection points: 2
#     Edge 33, Type (0, 0), BuildingBlock: XUDNAN_clean_linker_2, # of connection points: 2
#     Edge 34, Type (0, 0), BuildingBlock: XUDNAN_clean_linker_2, # of connection points: 2
#     Edge 35, Type (0, 0), BuildingBlock: XUDNAN_clean_linker_2, # of connection points: 2
#     Edge 36, Type (0, 0), BuildingBlock: XUDNAN_clean_linker_2, # of connection points: 2
#     Edge 37, Type (0, 0), BuildingBlock: XUDNAN_clean_linker_2, # of connection points: 2
#     Edge 38, Type (0, 0), BuildingBlock: XUDNAN_clean_linker_2, # of connection points: 2
#     Edge 39, Type (0, 0), BuildingBlock: XUDNAN_clean_linker_2, # of connection points: 2
#     Edge 40, Type (0, 0), BuildingBlock: XUDNAN_clean_linker_2, # of connection points: 2
#     Edge 41, Type (0, 0), BuildingBlock: XUDNAN_clean_linker_2, # of connection points: 2
# Relax obj value: 0.081
# Max RMSD: 0.102
# Mean RMSD: 0.102
data_MOF--net-wjx--node1-BEQFEK_clean_sbu_0--edge1-XUDNAN_clean_linker_2
_symmetry_space_group_name_H-M    P1
_symmetry_Int_Tables_number       1
_symmetry_cell_setting            triclinic
loop_
_symmetry_equiv_pos_as_xyz
'x, y, z'
_cell_length_a     73.35098
_cell_length_b     73.383929
_cell_length_c     19.193334
_cell_angle_alpha  89.99135
_cell_angle_beta   90.020626
_cell_angle_gamma 119.9877
loop_
_atom_site_label
_atom_site_type_symbol
_atom_site_fract_x
_atom_site_fract_y
_atom_site_fract_z
_atom_type_partial_charge
Co0 Co 0.11935 0.45421 0.18653 0.0
Co1 Co 0.11494 0.46302 0.02924 0.0
C2 C 0.07847 0.42979 0.11336 0.0
O3 O 0.08947 0.43351 0.16831 0.0
O4 O 0.08639 0.4399 0.05705 0.0
C5 C 0.1185 0.43371 0.31727 0.0
O6 O 0.10804 0.4158 0.28364 0.0
C7 C 0.10949 0.45179 0.88012 0.0
C8 C 0.126 0.48318 0.83097 0.0
C9 C 0.1163 0.46186 0.81598 0.0
N10 N 0.11558 0.46654 0.93026 0.0
N11 N 0.1251 0.48525 0.90032 0.0
C12 C 0.09714 0.42862 0.89414 0.0
H13 H 0.08766 0.42541 0.94199 0.0
H14 H 0.10804 0.42246 0.90215 0.0
H15 H 0.08651 0.42017 0.84986 0.0
C16 C 0.15329 0.44755 0.12754 0.0
N17 N 0.1377 0.45216 0.12123 0.0
N18 N 0.13629 0.45659 0.05558 0.0
C19 C 0.15113 0.45514 0.0184 0.0
C20 C 0.16212 0.44909 0.06234 0.0
C21 C 0.15923 0.44143 0.1944 0.0
H22 H 0.16224 0.45344 0.23477 0.0
H23 H 0.14588 0.42626 0.21252 0.0
H24 H 0.17337 0.43978 0.18811 0.0
O25 O 0.12274 0.48255 0.18369 0.0
O26 O 0.12004 0.48983 0.07342 0.0
H27 H 0.15492 0.47511 0.93142 0.0
H28 H 0.17212 0.46422 0.92983 0.0
C29 C 0.15603 0.46093 0.94317 0.0
H30 H 0.14471 0.44771 0.91022 0.0
H31 H 0.13173 0.49946 0.9275 0.0
O32 O 0.12549 0.45095 0.28437 0.0
C33 C 0.12272 0.49498 0.13758 0.0
Co34 Co 0.6677 0.12227 0.54415 0.0
Co35 Co 0.65375 0.11178 0.3862 0.0
C36 C 0.6516 0.07886 0.48242 0.0
O37 O 0.65856 0.09237 0.53116 0.0
O38 O 0.64903 0.08388 0.42106 0.0
C39 C 0.68567 0.11877 0.67202 0.0
O40 O 0.69003 0.10664 0.63352 0.0
C41 C 0.65792 0.10408 0.23665 0.0
C42 C 0.63997 0.1174 0.18716 0.0
C43 C 0.65253 0.10873 0.17177 0.0
N44 N 0.64933 0.11023 0.28695 0.0
N45 N 0.6383 0.11778 0.25683 0.0
C46 C 0.67257 0.09593 0.25194 0.0
H47 H 0.67786 0.09907 0.30705 0.0
H48 H 0.68645 0.10335 0.21692 0.0
H49 H 0.66419 0.07867 0.24339 0.0
C50 C 0.70555 0.15735 0.47902 0.0
N51 N 0.68718 0.13904 0.47476 0.0
N52 N 0.68139 0.1349 0.4089 0.0
C53 C 0.696 0.15065 0.36933 0.0
C54 C 0.71173 0.1654 0.41226 0.0
C55 C 0.7153 0.16802 0.54639 0.0
H56 H 0.70349 0.16968 0.5777 0.0
H57 H 0.71982 0.15799 0.57658 0.0
H58 H 0.72936 0.18374 0.53806 0.0
O59 O 0.64283 0.12566 0.53773 0.0
O60 O 0.63195 0.11735 0.42828 0.0
H61 H 0.67938 0.15139 0.27849 0.0
H62 H 0.70767 0.1669 0.27034 0.0
C63 C 0.69447 0.15224 0.29196 0.0
H64 H 0.69505 0.13899 0.26691 0.0
H65 H 0.63032 0.12401 0.2839 0.0
O66 O 0.67802 0.12904 0.64266 0.0
C67 C 0.6299 0.12304 0.48924 0.0
Co68 Co 0.54917 0.66842 0.8805 0.0
Co69 Co 0.54552 0.6554 0.72205 0.0
C70 C 0.57374 0.64917 0.8179 0.0
O71 O 0.56762 0.65657 0.86657 0.0
O72 O 0.56696 0.64782 0.75578 0.0
C73 C 0.57165 0.68482 0.00754 0.0
O74 O 0.58761 0.68797 0.96813 0.0
C75 C 0.55674 0.65798 0.57217 0.0
C76 C 0.52538 0.64512 0.52369 0.0
C77 C 0.54661 0.6543 0.50767 0.0
N78 N 0.54212 0.65166 0.6229 0.0
N79 N 0.52341 0.64366 0.59337 0.0
C80 C 0.57988 0.66892 0.58669 0.0
H81 H 0.5831 0.67418 0.6418 0.0
H82 H 0.58847 0.68268 0.55171 0.0
H83 H 0.58575 0.65781 0.5775 0.0
C84 C 0.55869 0.70911 0.81869 0.0
N85 N 0.55452 0.68911 0.81285 0.0
N86 N 0.55293 0.68392 0.74645 0.0
C87 C 0.55598 0.70065 0.70791 0.0
C88 C 0.55978 0.71717 0.75238 0.0
C89 C 0.56013 0.71964 0.88685 0.0
H90 H 0.54811 0.70825 0.92336 0.0
H91 H 0.57586 0.72498 0.91004 0.0
H92 H 0.55785 0.73339 0.88029 0.0
O93 O 0.51988 0.64563 0.87298 0.0
O94 O 0.51736 0.63498 0.76332 0.0
H95 H 0.54069 0.68798 0.6103 0.0
H96 H 0.55829 0.7161 0.60872 0.0
C97 C 0.55583 0.70102 0.62992 0.0
H98 H 0.56877 0.69886 0.61028 0.0
H99 H 0.50933 0.63793 0.6209 0.0
O100 O 0.55377 0.67843 0.9792 0.0
C101 C 0.50931 0.63329 0.82356 0.0
Co102 Co 0.88552 0.5429 0.17766 0.0
Co103 Co 0.88863 0.54202 0.01764 0.0
C104 C 0.92612 0.5707 0.10028 0.0
O105 O 0.91538 0.5637 0.15592 0.0
O106 O 0.91778 0.56401 0.04068 0.0
C107 C 0.89277 0.56143 0.3134 0.0
O108 O 0.90323 0.57972 0.28202 0.0
C109 C 0.89616 0.5502 0.86738 0.0
C110 C 0.87083 0.51989 0.8259 0.0
C111 C 0.88782 0.53899 0.80657 0.0
N112 N 0.88453 0.53816 0.92071 0.0
N113 N 0.8693 0.52021 0.89552 0.0
C114 C 0.91579 0.57103 0.8755 0.0
H115 H 0.91351 0.58031 0.91675 0.0
H116 H 0.92026 0.57995 0.82581 0.0
H117 H 0.92879 0.56841 0.89206 0.0
C118 C 0.85045 0.5511 0.13991 0.0
N119 N 0.86648 0.54778 0.12418 0.0
N120 N 0.86862 0.54821 0.0561 0.0
C121 C 0.8544 0.55222 0.02625 0.0
C122 C 0.84214 0.55393 0.07815 0.0
C123 C 0.8427 0.55053 0.21239 0.0
H124 H 0.84489 0.53921 0.24459 0.0
H125 H 0.85204 0.56637 0.23609 0.0
H126 H 0.82585 0.54607 0.21237 0.0
O127 O 0.88071 0.51407 0.16397 0.0
O128 O 0.88355 0.51427 0.04941 0.0
H129 H 0.84504 0.54019 0.92302 0.0
H130 H 0.84526 0.56456 0.93873 0.0
C131 C 0.85349 0.55565 0.94969 0.0
H132 H 0.86965 0.56456 0.92825 0.0
H133 H 0.85826 0.50788 0.92623 0.0
O134 O 0.88255 0.54475 0.27782 0.0
C135 C 0.88059 0.50497 0.1076 0.0
Co136 Co 0.34694 0.88574 0.50781 0.0
Co137 Co 0.34899 0.88995 0.34683 0.0
C138 C 0.35849 0.92674 0.43164 0.0
O139 O 0.35593 0.91576 0.48599 0.0
O140 O 0.35578 0.91871 0.37115 0.0
C141 C 0.33076 0.89232 0.63152 0.0
O142 O 0.326 0.90337 0.58909 0.0
C143 C 0.34253 0.89544 0.19819 0.0
C144 C 0.34999 0.87248 0.15085 0.0
C145 C 0.34373 0.88694 0.13452 0.0
N146 N 0.34778 0.88625 0.2489 0.0
N147 N 0.35231 0.87265 0.22022 0.0
C148 C 0.33519 0.91081 0.2122 0.0
H149 H 0.33022 0.90984 0.26726 0.0
H150 H 0.3218 0.90768 0.17762 0.0
H151 H 0.34832 0.927 0.2025 0.0
C152 C 0.30587 0.84828 0.47173 0.0
N153 N 0.32346 0.86622 0.45445 0.0
N154 N 0.3232 0.86958 0.38752 0.0
C155 C 0.30467 0.85483 0.36056 0.0
C156 C 0.29294 0.84029 0.41269 0.0
C157 C 0.30323 0.83803 0.54138 0.0
H158 H 0.31882 0.84347 0.56587 0.0
H159 H 0.29402 0.84252 0.57606 0.0
H160 H 0.29503 0.82065 0.53637 0.0
O161 O 0.3709 0.88135 0.49234 0.0
O162 O 0.37247 0.88527 0.3775 0.0
H163 H 0.30333 0.84769 0.25187 0.0
H164 H 0.28064 0.84881 0.28409 0.0
C165 C 0.29796 0.85592 0.28775 0.0
H166 H 0.30516 0.8725 0.27117 0.0
H167 H 0.35679 0.86333 0.2482 0.0
O168 O 0.33951 0.88244 0.60746 0.0
C169 C 0.37948 0.88198 0.43412 0.0
Co170 Co 0.4585 0.33837 0.85128 0.0
Co171 Co 0.45725 0.34831 0.69311 0.0
C172 C 0.43055 0.3546 0.79451 0.0
O173 O 0.43836 0.34849 0.842 0.0
O174 O 0.436 0.35537 0.73098 0.0
C175 C 0.43787 0.31897 0.97822 0.0
O176 O 0.4208 0.31176 0.93987 0.0
C177 C 0.44504 0.34475 0.54316 0.0
C178 C 0.47644 0.35714 0.49534 0.0
C179 C 0.45525 0.34798 0.47915 0.0
N180 N 0.45961 0.35119 0.59409 0.0
N181 N 0.47833 0.3589 0.56485 0.0
C182 C 0.4221 0.33641 0.55635 0.0
H183 H 0.4198 0.34235 0.60676 0.0
H184 H 0.41377 0.319 0.55908 0.0
H185 H 0.41507 0.34112 0.51371 0.0
C186 C 0.44884 0.29684 0.79261 0.0
N187 N 0.45231 0.31663 0.78591 0.0
N188 N 0.45152 0.3207 0.71944 0.0
C189 C 0.44768 0.3036 0.6818 0.0
C190 C 0.44559 0.28787 0.72678 0.0
C191 C 0.44819 0.28676 0.86099 0.0
H192 H 0.43376 0.28367 0.88945 0.0
H193 H 0.44799 0.27166 0.85425 0.0
H194 H 0.46195 0.29769 0.89305 0.0
O195 O 0.48748 0.36239 0.83865 0.0
O196 O 0.48557 0.36934 0.72735 0.0
H197 H 0.44818 0.28872 0.58454 0.0
H198 H 0.43403 0.30289 0.58278 0.0
C199 C 0.44807 0.30291 0.60386 0.0
H200 H 0.46237 0.31692 0.58409 0.0
H201 H 0.49238 0.36462 0.59251 0.0
O202 O 0.45581 0.32922 0.94931 0.0
C203 C 0.49579 0.37332 0.7842 0.0
Co204 Co 0.55327 0.88611 0.47096 0.0
Co205 Co 0.54144 0.88854 0.62591 0.0
C206 C 0.57539 0.92635 0.55225 0.0
O207 O 0.57253 0.91597 0.4962 0.0
O208 O 0.56475 0.91768 0.60714 0.0
C209 C 0.56516 0.89513 0.33028 0.0
O210 O 0.56755 0.91341 0.3491 0.0
C211 C 0.5467 0.89197 0.77789 0.0
C212 C 0.51397 0.87096 0.81261 0.0
C213 C 0.53446 0.88272 0.83636 0.0
N214 N 0.53401 0.88571 0.72184 0.0
N215 N 0.51441 0.8736 0.74316 0.0
C216 C 0.57021 0.90442 0.77433 0.0
H217 H 0.57577 0.90326 0.72163 0.0
H218 H 0.57731 0.89889 0.81421 0.0
H219 H 0.57545 0.92118 0.78517 0.0
C220 C 0.56028 0.85265 0.53036 0.0
N221 N 0.55468 0.86752 0.53649 0.0
N222 N 0.54945 0.86826 0.60162 0.0
C223 C 0.55148 0.85375 0.63881 0.0
C224 C 0.55852 0.84355 0.59513 0.0
C225 C 0.56765 0.84776 0.46408 0.0
H226 H 0.58106 0.86241 0.44289 0.0
H227 H 0.57252 0.83582 0.47223 0.0
H228 H 0.55476 0.84184 0.42509 0.0
O229 O 0.52432 0.8813 0.46422 0.0
O230 O 0.51596 0.88354 0.57353 0.0
H231 H 0.54514 0.83395 0.72962 0.0
H232 H 0.55859 0.86176 0.74625 0.0
C233 C 0.54618 0.84903 0.71437 0.0
H234 H 0.53089 0.84799 0.7255 0.0
H235 H 0.50148 0.86609 0.70984 0.0
O236 O 0.56002 0.88086 0.37604 0.0
C237 C 0.51135 0.8809 0.50901 0.0
Co238 Co 0.66424 0.54611 0.81911 0.0
Co239 Co 0.65098 0.53642 0.97717 0.0
C240 C 0.64561 0.56847 0.89522 0.0
O241 O 0.65289 0.56503 0.83977 0.0
O242 O 0.64434 0.55875 0.95165 0.0
C243 C 0.67881 0.56835 0.68959 0.0
O244 O 0.67951 0.58385 0.72592 0.0
C245 C 0.65595 0.54786 0.12517 0.0
C246 C 0.63951 0.51687 0.17703 0.0
C247 C 0.65116 0.5383 0.19059 0.0
N248 N 0.64766 0.53276 0.0761 0.0
N249 N 0.63765 0.51429 0.10744 0.0
C250 C 0.66966 0.5707 0.10822 0.0
H251 H 0.6756 0.57267 0.05399 0.0
H252 H 0.68314 0.57823 0.14488 0.0
H253 H 0.66027 0.5787 0.11264 0.0
C254 C 0.70551 0.55506 0.87935 0.0
N255 N 0.68499 0.54932 0.88531 0.0
N256 N 0.67914 0.54443 0.95081 0.0
C257 C 0.6957 0.54662 0.98813 0.0
C258 C 0.71299 0.55373 0.94458 0.0
C259 C 0.71759 0.56189 0.8126 0.0
H260 H 0.7115 0.54824 0.77666 0.0
H261 H 0.71503 0.57404 0.78741 0.0
H262 H 0.73467 0.56822 0.8213 0.0
O263 O 0.64063 0.51682 0.82082 0.0
O264 O 0.63045 0.50948 0.93114 0.0
H265 H 0.67938 0.52627 0.0744 0.0
H266 H 0.70742 0.53673 0.07507 0.0
C267 C 0.69478 0.54035 0.06287 0.0
H268 H 0.69698 0.5535 0.09686 0.0
H269 H 0.63002 0.4999 0.08132 0.0
O270 O 0.67439 0.55129 0.7206 0.0
C271 C 0.62849 0.50414 0.86717 0.0
Co272 Co 0.12205 0.66254 0.15245 0.0
Co273 Co 0.10793 0.65291 0.30899 0.0
C274 C 0.07674 0.64809 0.20868 0.0
O275 O 0.09133 0.65341 0.16344 0.0
O276 O 0.08032 0.64742 0.27346 0.0
C277 C 0.11947 0.67861 0.01879 0.0
O278 O 0.10273 0.67793 0.04577 0.0
C279 C 0.10412 0.65553 0.46583 0.0
C280 C 0.1282 0.64709 0.49377 0.0
C281 C 0.11579 0.65452 0.52152 0.0
N282 N 0.11017 0.6497 0.40743 0.0
N283 N 0.12402 0.64404 0.42553 0.0
C284 C 0.08924 0.66386 0.46735 0.0
H285 H 0.08415 0.66503 0.41386 0.0
H286 H 0.09677 0.67946 0.49336 0.0
H287 H 0.07519 0.65308 0.49855 0.0
C288 C 0.15796 0.70005 0.22147 0.0
N289 N 0.13867 0.68268 0.22094 0.0
N290 N 0.13018 0.68013 0.28283 0.0
C291 C 0.14283 0.69669 0.323 0.0
C292 C 0.16154 0.70965 0.2872 0.0
C293 C 0.17297 0.7059 0.16181 0.0
H294 H 0.16765 0.69252 0.12504 0.0
H295 H 0.17365 0.7194 0.1334 0.0
H296 H 0.18897 0.71046 0.18096 0.0
O297 O 0.12486 0.63743 0.1615 0.0
O298 O 0.11333 0.63067 0.27029 0.0
H299 H 0.13867 0.69404 0.43377 0.0
H300 H 0.14326 0.71881 0.39831 0.0
C301 C 0.13541 0.7016 0.38923 0.0
H302 H 0.11826 0.69547 0.38586 0.0
H303 H 0.13195 0.63965 0.39029 0.0
O304 O 0.13075 0.67378 0.05623 0.0
C305 C 0.11992 0.62596 0.21559 0.0
Co306 Co 0.45972 0.12062 0.46921 0.0
Co307 Co 0.45827 0.11132 0.62936 0.0
C308 C 0.4308 0.07745 0.53224 0.0
O309 O 0.43907 0.09066 0.48294 0.0
O310 O 0.43623 0.08282 0.59539 0.0
C311 C 0.43765 0.11706 0.34486 0.0
O312 O 0.4215 0.10653 0.38649 0.0
C313 C 0.44605 0.1044 0.77887 0.0
C314 C 0.47754 0.12154 0.82746 0.0
C315 C 0.45625 0.11072 0.84324 0.0
N316 N 0.46077 0.1116 0.72839 0.0
N317 N 0.47951 0.12154 0.75801 0.0
C318 C 0.42293 0.09313 0.76411 0.0
H319 H 0.41999 0.09476 0.70833 0.0
H320 H 0.41496 0.09943 0.79726 0.0
H321 H 0.41618 0.07615 0.77578 0.0
C322 C 0.45123 0.15379 0.5214 0.0
N323 N 0.45423 0.13733 0.5318 0.0
N324 N 0.45349 0.13348 0.59913 0.0
C325 C 0.45037 0.14773 0.63368 0.0
C326 C 0.44872 0.16098 0.58557 0.0
C327 C 0.45168 0.16298 0.45142 0.0
H328 H 0.46441 0.16334 0.41923 0.0
H329 H 0.43648 0.15286 0.42463 0.0
H330 H 0.45411 0.17913 0.45605 0.0
O331 O 0.48857 0.12504 0.48246 0.0
O332 O 0.48623 0.11746 0.5952 0.0
H333 H 0.46265 0.14935 0.73614 0.0
H334 H 0.44698 0.16194 0.72866 0.0
C335 C 0.44859 0.14843 0.7112 0.0
H336 H 0.43448 0.13386 0.72875 0.0
H337 H 0.49369 0.12895 0.73067 0.0
O338 O 0.45614 0.1261 0.37037 0.0
C339 C 0.49657 0.12281 0.53844 0.0
Co340 Co 0.34477 0.46104 0.81778 0.0
Co341 Co 0.35079 0.46346 0.97902 0.0
C342 C 0.35995 0.43512 0.89457 0.0
O343 O 0.35553 0.44156 0.83904 0.0
O344 O 0.35842 0.44192 0.95401 0.0
C345 C 0.32926 0.43794 0.69259 0.0
O346 O 0.32608 0.42221 0.73321 0.0
C347 C 0.34548 0.45166 0.12712 0.0
C348 C 0.35623 0.48253 0.17699 0.0
C349 C 0.34812 0.46135 0.19171 0.0
N350 N 0.35157 0.46648 0.07738 0.0
N351 N 0.35817 0.48489 0.10754 0.0
C352 C 0.33577 0.42868 0.11141 0.0
H353 H 0.33024 0.42541 0.0566 0.0
H354 H 0.32233 0.41927 0.14686 0.0
H355 H 0.34776 0.42383 0.11865 0.0
C356 C 0.30195 0.45229 0.86119 0.0
N357 N 0.32148 0.45588 0.87567 0.0
N358 N 0.32396 0.45657 0.94372 0.0
C359 C 0.30611 0.45339 0.97474 0.0
C360 C 0.29155 0.45065 0.92356 0.0
C361 C 0.29406 0.45188 0.789 0.0
H362 H 0.30672 0.46444 0.75715 0.0
H363 H 0.28966 0.43652 0.76453 0.0
H364 H 0.28014 0.45406 0.78929 0.0
O365 O 0.3682 0.49057 0.82813 0.0
O366 O 0.37206 0.49135 0.943 0.0
H367 H 0.3139 0.46788 0.07541 0.0
H368 H 0.28655 0.44772 0.06657 0.0
C369 C 0.30291 0.45236 0.05203 0.0
H370 H 0.3064 0.44054 0.07419 0.0
H371 H 0.36363 0.49903 0.08058 0.0
O372 O 0.3364 0.45618 0.71871 0.0
C373 C 0.3774 0.50028 0.88375 0.0
Co374 Co 0.88334 0.33528 0.12198 0.0
Co375 Co 0.89258 0.34913 0.27894 0.0
C376 C 0.92618 0.3512 0.18423 0.0
O377 O 0.91297 0.34371 0.13467 0.0
O378 O 0.92078 0.35436 0.24424 0.0
C379 C 0.88307 0.31507 0.99228 0.0
O380 O 0.89302 0.3073 0.02732 0.0
C381 C 0.89901 0.34335 0.4277 0.0
C382 C 0.88526 0.36075 0.47811 0.0
C383 C 0.89349 0.34776 0.49262 0.0
N384 N 0.89357 0.35272 0.37804 0.0
N385 N 0.88575 0.36342 0.40873 0.0
C386 C 0.90946 0.33076 0.412 0.0
H387 H 0.9178 0.33561 0.36138 0.0
H388 H 0.89742 0.31385 0.40814 0.0
H389 H 0.92083 0.33284 0.45371 0.0
C390 C 0.84842 0.29699 0.18443 0.0
N391 N 0.86631 0.31564 0.18994 0.0
N392 N 0.86981 0.32133 0.25594 0.0
C393 C 0.85399 0.30631 0.29445 0.0
C394 C 0.8401 0.29035 0.25053 0.0
C395 C 0.83867 0.28676 0.11652 0.0
H396 H 0.85019 0.2845 0.08582 0.0
H397 H 0.82419 0.27132 0.12422 0.0
H398 H 0.83487 0.29732 0.08624 0.0
O399 O 0.88012 0.36018 0.12806 0.0
O400 O 0.88681 0.37093 0.23785 0.0
H401 H 0.83402 0.29683 0.3862 0.0
H402 H 0.86141 0.30629 0.40214 0.0
C403 C 0.85022 0.30859 0.36982 0.0
H404 H 0.85266 0.32453 0.37953 0.0
H405 H 0.8799 0.37181 0.38212 0.0
O406 O 0.87621 0.32562 0.02418 0.0
C407 C 0.88187 0.37297 0.1758 0.0
H408 H 0.05126 0.42046 0.22284 0.0
H409 H 0.05454 0.40407 0.0079 0.0
H410 H 0.01629 0.37901 0.00878 0.0
H411 H 0.00903 0.36819 0.28158 0.0
H412 H 0.99664 0.37918 0.33469 0.0
H413 H 0.02469 0.39376 0.32072 0.0
H414 H 0.02177 0.42534 0.27413 0.0
H415 H 0.99377 0.41089 0.28802 0.0
H416 H 0.00411 0.42135 0.20294 0.0
H417 H 0.97797 0.3575 0.02999 0.0
H418 H 0.94116 0.34303 0.06551 0.0
H419 H 0.96169 0.37459 0.26562 0.0
C420 C 0.04395 0.41121 0.17655 0.0
C421 C 0.05584 0.41394 0.11549 0.0
C422 C 0.0457 0.40212 0.05519 0.0
C423 C 0.02403 0.38777 0.05539 0.0
C424 C 0.01269 0.38561 0.11608 0.0
C425 C 0.0222 0.39712 0.17543 0.0
C426 C 0.006 0.39337 0.23116 0.0
C427 C 0.00929 0.38301 0.29587 0.0
C428 C 0.00644 0.41396 0.25014 0.0
C429 C 0.98586 0.37826 0.19329 0.0
C430 C 0.99021 0.37374 0.12753 0.0
C431 C 0.97435 0.36083 0.08146 0.0
C432 C 0.95343 0.35271 0.10228 0.0
C433 C 0.94843 0.35769 0.16844 0.0
C434 C 0.96494 0.37032 0.21504 0.0
H435 H 0.63105 0.04313 0.39996 0.0
H436 H 0.6567 0.06432 0.60748 0.0
H437 H 0.64223 0.0277 0.64477 0.0
H438 H 0.58345 0.99998 0.45235 0.0
H439 H 0.58191 0.98254 0.38358 0.0
H440 H 0.5961 0.01054 0.36985 0.0
H441 H 0.62955 0.00899 0.337 0.0
H442 H 0.61539 0.98091 0.35023 0.0
H443 H 0.63962 0.99713 0.39654 0.0
H444 H 0.62137 0.98918 0.66499 0.0
H445 H 0.59757 0.95064 0.66316 0.0
H446 H 0.58675 0.95366 0.44224 0.0
C447 C 0.63403 0.04008 0.45274 0.0
C448 C 0.64503 0.05673 0.50059 0.0
C449 C 0.64834 0.05197 0.56954 0.0
C450 C 0.64019 0.03115 0.59145 0.0
C451 C 0.62894 0.01513 0.54377 0.0
C452 C 0.62609 0.01926 0.47557 0.0
C453 C 0.61253 0.99897 0.43603 0.0
C454 C 0.5923 0.99796 0.40888 0.0
C455 C 0.62503 0.99635 0.37642 0.0
C456 C 0.60778 0.98293 0.49329 0.0
C457 C 0.61742 0.99263 0.55501 0.0
C458 C 0.61407 0.98132 0.61666 0.0
C459 C 0.60048 0.95948 0.61524 0.0
C460 C 0.59059 0.94918 0.55246 0.0
C461 C 0.5945 0.96108 0.49064 0.0
H462 H 0.63005 0.57985 0.78337 0.0
H463 H 0.64349 0.59102 0.00449 0.0
H464 H 0.62944 0.61534 0.00446 0.0
H465 H 0.64104 0.6331 0.73632 0.0
H466 H 0.61944 0.62356 0.67561 0.0
H467 H 0.63255 0.60868 0.69068 0.0
H468 H 0.59689 0.57598 0.72282 0.0
H469 H 0.58368 0.59073 0.70786 0.0
H470 H 0.581 0.57802 0.79064 0.0
H471 H 0.61289 0.63691 0.98281 0.0
H472 H 0.59225 0.65284 0.94396 0.0
H473 H 0.58746 0.62691 0.73663 0.0
C474 C 0.63035 0.58772 0.83145 0.0
C475 C 0.63804 0.58373 0.89391 0.0
C476 C 0.63773 0.5939 0.95614 0.0
C477 C 0.62988 0.60781 0.95652 0.0
C478 C 0.62224 0.61125 0.89437 0.0
C479 C 0.62223 0.60143 0.83302 0.0
C480 C 0.61149 0.60666 0.77495 0.0
C481 C 0.62706 0.61872 0.7159 0.0
C482 C 0.59212 0.58666 0.74748 0.0
C483 C 0.60517 0.62069 0.81372 0.0
C484 C 0.6119 0.62332 0.88219 0.0
C485 C 0.60761 0.63505 0.92928 0.0
C486 C 0.5958 0.64404 0.90642 0.0
C487 C 0.58811 0.64116 0.83701 0.0
C488 C 0.59319 0.62955 0.78976 0.0
H489 H 0.03926 0.62763 0.28195 0.0
H490 H 0.06496 0.65205 0.07705 0.0
H491 H 0.02931 0.63762 0.03026 0.0
H492 H 0.99782 0.57963 0.22345 0.0
H493 H 0.97877 0.57787 0.28636 0.0
H494 H 0.00639 0.59239 0.30694 0.0
H495 H 0.00358 0.62553 0.33324 0.0
H496 H 0.97588 0.61105 0.31301 0.0
H497 H 0.99291 0.63531 0.26813 0.0
H498 H 0.99125 0.61769 0.00184 0.0
H499 H 0.95286 0.59387 0.99482 0.0
H500 H 0.95112 0.58205 0.21718 0.0
C501 C 0.0374 0.63039 0.22767 0.0
C502 C 0.05509 0.64125 0.18353 0.0
C503 C 0.05185 0.64405 0.11237 0.0
C504 C 0.03156 0.63588 0.08507 0.0
C505 C 0.01452 0.6249 0.12942 0.0
C506 C 0.01714 0.62221 0.19929 0.0
C507 C 0.99604 0.60846 0.23421 0.0
C508 C 0.99468 0.5884 0.26449 0.0
C509 C 0.99186 0.62083 0.29048 0.0
C510 C 0.98131 0.60347 0.17258 0.0
C511 C 0.99232 0.61327 0.11281 0.0
C512 C 0.98237 0.61014 0.04846 0.0
C513 C 0.96056 0.59651 0.04494 0.0
C514 C 0.94892 0.58615 0.10539 0.0
C515 C 0.9595 0.58994 0.17013 0.0
H516 H 0.41916 0.04084 0.60634 0.0
H517 H 0.40776 0.06439 0.41325 0.0
H518 H 0.38557 0.02821 0.37149 0.0
H519 H 0.42457 1.00066 0.53123 0.0
H520 H 0.41143 0.98151 0.59914 0.0
H521 H 0.42423 0.00914 0.61914 0.0
H522 H 0.38943 0.00441 0.67011 0.0
H523 H 0.37653 0.97668 0.65069 0.0
H524 H 0.36591 0.99244 0.61753 0.0
H525 H 0.36842 0.99033 0.34361 0.0
H526 H 0.35563 0.95231 0.33414 0.0
H527 H 0.37706 0.95232 0.54512 0.0
C528 C 0.41149 0.03832 0.55619 0.0
C529 C 0.41519 0.0555 0.51323 0.0
C530 C 0.40523 0.05155 0.44718 0.0
C531 C 0.39251 0.03101 0.42292 0.0
C532 C 0.38972 0.01446 0.46533 0.0
C533 C 0.3987 0.01777 0.53086 0.0
C534 C 0.39427 0.9971 0.56347 0.0
C535 C 0.41485 0.99712 0.57913 0.0
C536 C 0.38073 0.99238 0.62936 0.0
C537 C 0.38199 0.98188 0.50515 0.0
C538 C 0.37946 0.99226 0.44928 0.0
C539 C 0.36995 0.98192 0.38744 0.0
C540 C 0.36283 0.96034 0.38242 0.0
C541 C 0.3652 0.94931 0.43897 0.0
C542 C 0.37472 0.96025 0.50137 0.0
H543 H 0.37633 0.42577 0.78021 0.0
H544 H 0.36051 0.40985 0.99817 0.0
H545 H 0.37377 0.38491 0.99149 0.0
H546 H 0.3642 0.37327 0.72012 0.0
H547 H 0.38625 0.38361 0.66108 0.0
H548 H 0.37366 0.39873 0.68062 0.0
H549 H 0.40947 0.43006 0.71965 0.0
H550 H 0.42216 0.41508 0.70014 0.0
H551 H 0.42452 0.42603 0.78595 0.0
H552 H 0.39015 0.36332 0.96381 0.0
H553 H 0.41085 0.34788 0.91978 0.0
H554 H 0.41738 0.37828 0.7197 0.0
C555 C 0.37536 0.4168 0.82625 0.0
C556 C 0.36725 0.41965 0.88969 0.0
C557 C 0.36664 0.40792 0.94908 0.0
C558 C 0.37402 0.39363 0.94567 0.0
C559 C 0.38206 0.39132 0.88259 0.0
C560 C 0.3829 0.40263 0.82399 0.0
C561 C 0.39377 0.3983 0.76422 0.0
C562 C 0.37856 0.38785 0.70288 0.0
C563 C 0.41366 0.41857 0.74117 0.0
C564 C 0.39926 0.38308 0.79889 0.0
C565 C 0.39204 0.37908 0.86684 0.0
C566 C 0.39578 0.36622 0.9106 0.0
C567 C 0.40763 0.35755 0.88496 0.0
C568 C 0.41582 0.36187 0.81617 0.0
C569 C 0.41118 0.37449 0.77218 0.0
H570 H 0.11742 0.47977 0.69071 0.0
H571 H 0.11602 0.4249 0.78148 0.0
H572 H 0.11586 0.41137 0.66432 0.0
H573 H 0.08556 0.45496 0.54012 0.0
H574 H 0.10145 0.4768 0.48331 0.0
H575 H 0.09986 0.4813 0.57475 0.0
H576 H 0.14054 0.50001 0.58378 0.0
H577 H 0.14223 0.49543 0.49245 0.0
H578 H 0.15402 0.48639 0.55601 0.0
H579 H 0.11513 0.40344 0.535 0.0
H580 H 0.116 0.40312 0.40579 0.0
H581 H 0.1218 0.46491 0.40206 0.0
C582 C 0.11688 0.4648 0.68615 0.0
C583 C 0.11569 0.45299 0.74585 0.0
C584 C 0.1156 0.43374 0.73722 0.0
C585 C 0.1159 0.42605 0.67052 0.0
C586 C 0.11686 0.43803 0.61292 0.0
C587 C 0.1176 0.45712 0.62021 0.0
C588 C 0.11958 0.46748 0.55038 0.0
C589 C 0.10047 0.47029 0.53633 0.0
C590 C 0.14033 0.48857 0.54539 0.0
C591 C 0.1197 0.45118 0.50256 0.0
C592 C 0.11793 0.43419 0.53935 0.0
C593 C 0.11675 0.41677 0.50569 0.0
C594 C 0.11726 0.41671 0.43247 0.0
C595 C 0.11928 0.4341 0.39413 0.0
C596 C 0.12069 0.45156 0.42997 0.0
H597 H 0.6756 0.13998 0.76948 0.0
H598 H 0.69489 0.0931 0.74941 0.0
H599 H 0.68984 0.08621 0.87563 0.0
H600 H 0.70004 0.15983 0.94235 0.0
H601 H 0.67881 0.16369 0.97091 0.0
H602 H 0.68569 0.16617 0.8799 0.0
H603 H 0.64719 0.13835 0.8497 0.0
H604 H 0.64025 0.1356 0.94055 0.0
H605 H 0.63536 0.11282 0.89046 0.0
H606 H 0.67865 0.08143 0.00189 0.0
H607 H 0.66554 0.08164 0.11975 0.0
H608 H 0.65553 0.13301 0.05956 0.0
C609 C 0.6792 0.12859 0.79179 0.0
C610 C 0.68568 0.11712 0.74923 0.0
C611 C 0.69002 0.1022 0.78069 0.0
C612 C 0.68713 0.0981 0.85247 0.0
C613 C 0.68013 0.10922 0.89254 0.0
C614 C 0.67656 0.12441 0.86356 0.0
C615 C 0.66853 0.13369 0.91784 0.0
C616 C 0.6842 0.15724 0.92837 0.0
C617 C 0.64653 0.12987 0.89846 0.0
C618 C 0.66767 0.12099 0.98135 0.0
C619 C 0.67442 0.10697 0.96577 0.0
C620 C 0.6739 0.09278 0.01522 0.0
C621 C 0.66659 0.09317 0.08262 0.0
C622 C 0.66014 0.10784 0.10046 0.0
C623 C 0.66058 0.12175 0.04841 0.0
H624 H 0.52811 0.6619 0.39666 0.0
H625 H 0.58445 0.66008 0.45401 0.0
H626 H 0.59842 0.67147 0.33563 0.0
H627 H 0.52322 0.63957 0.22903 0.0
H628 H 0.5133 0.65504 0.18846 0.0
H629 H 0.50875 0.6488 0.27974 0.0
H630 H 0.526 0.68851 0.30887 0.0
H631 H 0.53076 0.69488 0.21759 0.0
H632 H 0.5523 0.70638 0.27864 0.0
H633 H 0.6059 0.68227 0.20916 0.0
H634 H 0.60473 0.6879 0.08296 0.0
H635 H 0.54245 0.68036 0.10624 0.0
C636 C 0.54348 0.66401 0.38481 0.0
C637 C 0.55545 0.66079 0.43617 0.0
C638 C 0.57531 0.66339 0.41741 0.0
C639 C 0.58333 0.66968 0.34972 0.0
C640 C 0.5712 0.67303 0.30096 0.0
C641 C 0.55158 0.67003 0.31748 0.0
C642 C 0.54102 0.67321 0.25446 0.0
C643 C 0.52036 0.65295 0.2369 0.0
C644 C 0.53731 0.69186 0.26558 0.0
C645 C 0.55765 0.67819 0.19944 0.0
C646 C 0.57509 0.67835 0.22756 0.0
C647 C 0.59235 0.68223 0.18668 0.0
C648 C 0.59155 0.6855 0.11496 0.0
C649 C 0.5735 0.6846 0.0845 0.0
C650 C 0.55651 0.68125 0.12784 0.0
H651 H 0.89069 0.57052 0.7241 0.0
H652 H 0.90219 0.51812 0.73014 0.0
H653 H 0.91047 0.52247 0.60459 0.0
H654 H 0.86315 0.55676 0.57378 0.0
H655 H 0.8729 0.58273 0.53814 0.0
H656 H 0.8729 0.57924 0.63081 0.0
H657 H 0.91295 0.60567 0.63581 0.0
H658 H 0.91307 0.60952 0.54296 0.0
H659 H 0.93057 0.60166 0.58086 0.0
H660 H 0.91052 0.52744 0.47974 0.0
H661 H 0.90388 0.53377 0.35906 0.0
H662 H 0.89264 0.5835 0.4291 0.0
C663 C 0.89586 0.56066 0.69907 0.0
C664 C 0.89628 0.54427 0.73594 0.0
C665 C 0.90215 0.53092 0.70212 0.0
C666 C 0.90694 0.53335 0.63117 0.0
C667 C 0.9057 0.54918 0.59524 0.0
C668 C 0.90052 0.56279 0.62783 0.0
C669 C 0.89757 0.57652 0.57517 0.0
C670 C 0.87531 0.57362 0.57977 0.0
C671 C 0.91456 0.59972 0.58424 0.0
C672 C 0.90067 0.56761 0.50792 0.0
C673 C 0.90571 0.55211 0.52116 0.0
C674 C 0.90711 0.53988 0.46846 0.0
C675 C 0.90309 0.54344 0.40032 0.0
C676 C 0.8978 0.55911 0.38548 0.0
C677 C 0.89701 0.57168 0.43953 0.0
H678 H 0.33345 0.86065 0.02359 0.0
H679 H 0.34488 0.92279 0.08057 0.0
H680 H 0.33765 0.92854 0.96019 0.0
H681 H 0.36157 0.8772 0.86823 0.0
H682 H 0.34475 0.85334 0.82106 0.0
H683 H 0.3471 0.85258 0.91412 0.0
H684 H 0.30661 0.83539 0.92655 0.0
H685 H 0.30413 0.83613 0.83331 0.0
H686 H 0.29341 0.84822 0.88912 0.0
H687 H 0.33128 0.92843 0.83153 0.0
H688 H 0.33036 0.92412 0.70366 0.0
H689 H 0.32677 0.86368 0.72967 0.0
C690 C 0.3341 0.87537 0.01136 0.0
C691 C 0.33886 0.89086 0.06295 0.0
C692 C 0.34011 0.91011 0.04376 0.0
C693 C 0.33624 0.91365 0.97491 0.0
C694 C 0.33152 0.89796 0.92566 0.0
C695 C 0.33072 0.87932 0.94292 0.0
C696 C 0.32781 0.866 0.87922 0.0
C697 C 0.34642 0.86207 0.87014 0.0
C698 C 0.30673 0.84521 0.88225 0.0
C699 C 0.3276 0.88031 0.82307 0.0
C700 C 0.32924 0.89845 0.85099 0.0
C701 C 0.32988 0.91425 0.80908 0.0
C702 C 0.32928 0.91164 0.73663 0.0
C703 C 0.32853 0.89359 0.7072 0.0
C704 C 0.32736 0.87763 0.75103 0.0
H705 H 0.46775 0.34551 0.06975 0.0
H706 H 0.40413 0.29243 0.05947 0.0
H707 H 0.40072 0.29441 0.18737 0.0
H708 H 0.48259 0.33314 0.23417 0.0
H709 H 0.49734 0.3603 0.26086 0.0
H710 H 0.49476 0.35367 0.16974 0.0
H711 H 0.47956 0.37834 0.14724 0.0
H712 H 0.48179 0.3848 0.2385 0.0
H713 H 0.45673 0.37438 0.19517 0.0
H714 H 0.40499 0.30217 0.31786 0.0
H715 H 0.41633 0.3148 0.43755 0.0
H716 H 0.47585 0.36485 0.35804 0.0
C717 C 0.4532 0.33405 0.09441 0.0
C718 C 0.43628 0.31863 0.05494 0.0
C719 C 0.41733 0.30427 0.089 0.0
C720 C 0.41525 0.30532 0.16146 0.0
C721 C 0.43215 0.32103 0.19865 0.0
C722 C 0.45073 0.33515 0.16608 0.0
C723 C 0.46631 0.351 0.2169 0.0
C724 C 0.48643 0.34942 0.22064 0.0
C725 C 0.47139 0.37346 0.19833 0.0
C726 C 0.45374 0.34349 0.2835 0.0
C727 C 0.4341 0.32617 0.27226 0.0
C728 C 0.42019 0.31598 0.32704 0.0
C729 C 0.42667 0.32353 0.39512 0.0
C730 C 0.44678 0.3413 0.40763 0.0
C731 C 0.46025 0.35142 0.35052 0.0
H732 H 0.55678 0.91472 0.92822 0.0
H733 H 0.52756 0.84724 0.902 0.0
H734 H 0.53739 0.84386 0.02261 0.0
H735 H 0.59999 0.92187 0.04829 0.0
H736 H 0.59772 0.94112 0.10011 0.0
H737 H 0.59163 0.93872 0.00837 0.0
H738 H 0.55462 0.93318 0.03628 0.0
H739 H 0.56062 0.93563 0.12778 0.0
H740 H 0.53766 0.91248 0.09534 0.0
H741 H 0.54734 0.84732 0.14782 0.0
H742 H 0.55372 0.85681 0.27222 0.0
H743 H 0.57509 0.92197 0.21943 0.0
C744 C 0.55296 0.89937 0.94775 0.0
C745 C 0.54166 0.88124 0.90644 0.0
C746 C 0.53631 0.86126 0.93344 0.0
C747 C 0.54196 0.85923 0.00147 0.0
C748 C 0.55283 0.87735 0.0417 0.0
C749 C 0.55817 0.89704 0.01611 0.0
C750 C 0.56753 0.91359 0.07272 0.0
C751 C 0.59059 0.92978 0.05638 0.0
C752 C 0.55431 0.92434 0.08367 0.0
C753 C 0.56593 0.90001 0.1345 0.0
C754 C 0.5579 0.87926 0.11509 0.0
C755 C 0.55386 0.86356 0.16362 0.0
C756 C 0.55755 0.86911 0.2342 0.0
C757 C 0.56487 0.89012 0.25557 0.0
C758 C 0.56962 0.9058 0.20471 0.0
H759 H 0.67413 0.53769 0.59675 0.0
H760 H 0.684 0.6011 0.60746 0.0
H761 H 0.67983 0.60111 0.47999 0.0
H762 H 0.70119 0.54422 0.42768 0.0
H763 H 0.68259 0.51781 0.4004 0.0
H764 H 0.68847 0.52363 0.49161 0.0
H765 H 0.64875 0.50826 0.51716 0.0
H766 H 0.64278 0.50262 0.42608 0.0
H767 H 0.63442 0.51865 0.47167 0.0
H768 H 0.67032 0.59264 0.35353 0.0
H769 H 0.65908 0.57742 0.2365 0.0
H770 H 0.65704 0.52017 0.30636 0.0
C771 C 0.67589 0.55177 0.5722 0.0
C772 C 0.67943 0.56941 0.61233 0.0
C773 C 0.68138 0.58741 0.57802 0.0
C774 C 0.67899 0.58757 0.50553 0.0
C775 C 0.67487 0.56969 0.46782 0.0
C776 C 0.67364 0.55222 0.4998 0.0
C777 C 0.66817 0.53471 0.44769 0.0
C778 C 0.68618 0.52981 0.44148 0.0
C779 C 0.64729 0.5149 0.46681 0.0
C780 C 0.66602 0.54487 0.38183 0.0
C781 C 0.67 0.56506 0.39447 0.0
C782 C 0.66776 0.57707 0.34253 0.0
C783 C 0.66156 0.56833 0.2757 0.0
C784 C 0.6579 0.54785 0.261 0.0
C785 C 0.66003 0.536 0.31534 0.0
H786 H 0.08711 0.65101 0.6219 0.0
H787 H 0.15389 0.68046 0.57736 0.0
H788 H 0.16214 0.69372 0.69748 0.0
H789 H 0.09149 0.69273 0.74775 0.0
H790 H 0.07123 0.67342 0.80333 0.0
H791 H 0.07039 0.66891 0.71073 0.0
H792 H 0.06888 0.63339 0.73359 0.0
H793 H 0.06986 0.63785 0.82597 0.0
H794 H 0.08918 0.63297 0.78544 0.0
H795 H 0.16342 0.69856 0.82484 0.0
H796 H 0.15733 0.69677 0.95202 0.0
H797 H 0.09004 0.66624 0.91583 0.0
C798 C 0.10341 0.66086 0.63702 0.0
C799 C 0.11986 0.66474 0.59052 0.0
C800 C 0.14105 0.6772 0.61246 0.0
C801 C 0.14592 0.68493 0.68045 0.0
C802 C 0.12943 0.68026 0.72598 0.0
C803 C 0.10859 0.66878 0.70524 0.0
C804 C 0.09398 0.66457 0.76658 0.0
C805 C 0.08101 0.67557 0.75648 0.0
C806 C 0.07964 0.64079 0.77858 0.0
C807 C 0.10988 0.67469 0.82503 0.0
C808 C 0.13024 0.68376 0.80026 0.0
C809 C 0.14758 0.69205 0.84488 0.0
C810 C 0.14401 0.6909 0.91688 0.0
C811 C 0.1233 0.68176 0.94329 0.0
C812 C 0.10608 0.6739 0.89671 0.0
H813 H 0.46624 0.14076 0.24432 0.0
H814 H 0.40244 0.08912 0.27304 0.0
H815 H 0.39908 0.08294 0.14606 0.0
H816 H 0.45618 0.15945 0.07661 0.0
H817 H 0.48171 0.16612 0.04287 0.0
H818 H 0.47816 0.16771 0.13513 0.0
H819 H 0.49316 0.14292 0.15831 0.0
H820 H 0.49653 0.14105 0.06627 0.0
H821 H 0.48113 0.1175 0.11669 0.0
H822 H 0.40461 0.07936 0.01776 0.0
H823 H 0.41733 0.0809 0.89806 0.0
H824 H 0.47652 0.13643 0.95276 0.0
C825 C 0.45141 0.12844 0.22377 0.0
C826 C 0.43462 0.11544 0.26852 0.0
C827 C 0.41548 0.0994 0.23967 0.0
C828 C 0.41343 0.09571 0.16761 0.0
C829 C 0.43053 0.10843 0.12507 0.0
C830 C 0.449 0.12472 0.15199 0.0
C831 C 0.46531 0.1356 0.09559 0.0
C832 C 0.47064 0.15858 0.08705 0.0
C833 C 0.4852 0.13417 0.11011 0.0
C834 C 0.45336 0.12246 0.03319 0.0
C835 C 0.43333 0.10688 0.05097 0.0
C836 C 0.42004 0.09191 0.00269 0.0
C837 C 0.42737 0.09305 0.93428 0.0
C838 C 0.44772 0.1092 0.9146 0.0
C839 C 0.46076 0.124 0.96531 0.0
H840 H 0.3277 0.46447 0.59598 0.0
H841 H 0.32757 0.40552 0.61715 0.0
H842 H 0.32977 0.4035 0.48926 0.0
H843 H 0.29669 0.45049 0.43165 0.0
H844 H 0.31174 0.47696 0.39873 0.0
H845 H 0.30777 0.47243 0.49119 0.0
H846 H 0.34816 0.49351 0.5102 0.0
H847 H 0.35227 0.4979 0.41794 0.0
H848 H 0.36465 0.48568 0.4647 0.0
H849 H 0.33742 0.41079 0.36123 0.0
H850 H 0.34633 0.42495 0.24222 0.0
H851 H 0.33877 0.47774 0.30392 0.0
C852 C 0.32769 0.45091 0.57361 0.0
C853 C 0.32749 0.43517 0.61633 0.0
C854 C 0.32756 0.4177 0.58528 0.0
C855 C 0.32887 0.41643 0.51272 0.0
C856 C 0.32968 0.43256 0.47213 0.0
C857 C 0.32871 0.44927 0.5014 0.0
C858 C 0.3308 0.46503 0.44669 0.0
C859 C 0.31054 0.46629 0.44177 0.0
C860 C 0.35012 0.4868 0.46074 0.0
C861 C 0.33386 0.45495 0.38242 0.0
C862 C 0.33312 0.43622 0.39797 0.0
C863 C 0.33729 0.42506 0.34787 0.0
C864 C 0.34214 0.43315 0.27991 0.0
C865 C 0.34247 0.45208 0.2625 0.0
C866 C 0.33829 0.46303 0.31491 0.0
H867 H 0.89241 0.3649 0.61727 0.0
H868 H 0.89242 0.31039 0.52925 0.0
H869 H 0.89031 0.29636 0.64686 0.0
H870 H 0.92158 0.36975 0.77418 0.0
H871 H 0.90558 0.37657 0.82715 0.0
H872 H 0.90908 0.38315 0.73591 0.0
H873 H 0.86857 0.3631 0.71934 0.0
H874 H 0.86497 0.35626 0.81037 0.0
H875 H 0.85344 0.33589 0.74522 0.0
H876 H 0.88826 0.28824 0.77665 0.0
H877 H 0.88509 0.28642 0.90546 0.0
H878 H 0.8825 0.34419 0.90561 0.0
C879 C 0.89223 0.35012 0.62242 0.0
C880 C 0.89349 0.33931 0.56324 0.0
C881 C 0.89269 0.31974 0.57292 0.0
C882 C 0.8911 0.31138 0.63997 0.0
C883 C 0.88985 0.32248 0.69688 0.0
C884 C 0.89023 0.34136 0.6886 0.0
C885 C 0.88758 0.34975 0.75758 0.0
C886 C 0.90712 0.37106 0.7747 0.0
C887 C 0.86744 0.35133 0.75812 0.0
C888 C 0.88566 0.33264 0.80611 0.0
C889 C 0.88722 0.31713 0.77041 0.0
C890 C 0.88681 0.3002 0.80501 0.0
C891 C 0.88498 0.29926 0.87803 0.0
C892 C 0.8832 0.31495 0.91527 0.0
C893 C 0.88334 0.33169 0.87847 0.0
H894 H 0.1231 0.52655 0.0572 0.0
H895 H 0.12679 0.50918 0.27116 0.0
H896 H 0.12782 0.5413 0.31261 0.0
H897 H 0.15817 0.58346 0.08127 0.0
H898 H 0.14311 0.59036 0.02389 0.0
H899 H 0.14371 0.56639 0.00975 0.0
H900 H 0.10298 0.54508 0.01471 0.0
H901 H 0.10225 0.56896 0.02916 0.0
H902 H 0.08959 0.54745 0.08994 0.0
H903 H 0.12573 0.57345 0.33266 0.0
H904 H 0.12271 0.60537 0.32958 0.0
H905 H 0.12172 0.60342 0.10336 0.0
C906 C 0.12437 0.52963 0.11268 0.0
C907 C 0.12483 0.51523 0.16077 0.0
C908 C 0.12641 0.51987 0.23304 0.0
C909 C 0.12701 0.53812 0.25731 0.0
C910 C 0.12621 0.55176 0.20882 0.0
C911 C 0.12513 0.54794 0.13802 0.0
C912 C 0.12404 0.56514 0.09752 0.0
C913 C 0.14342 0.57705 0.05032 0.0
C914 C 0.10349 0.55611 0.05536 0.0
C915 C 0.1243 0.57894 0.15682 0.0
C916 C 0.12553 0.57085 0.22049 0.0
C917 C 0.12501 0.58012 0.28314 0.0
C918 C 0.12322 0.59822 0.28082 0.0
C919 C 0.12212 0.60699 0.21627 0.0
C920 C 0.1228 0.59724 0.15346 0.0
H921 H 0.59665 0.11652 0.4041 0.0
H922 H 0.62256 0.13707 0.61176 0.0
H923 H 0.59245 0.14136 0.64263 0.0
H924 H 0.57475 0.15183 0.38632 0.0
H925 H 0.55152 0.1325 0.34118 0.0
H926 H 0.57585 0.13221 0.3328 0.0
H927 H 0.55715 0.09343 0.37415 0.0
H928 H 0.53279 0.0936 0.38268 0.0
H929 H 0.5433 0.08653 0.45614 0.0
H930 H 0.55891 0.14101 0.65523 0.0
H931 H 0.52347 0.13668 0.648 0.0
H932 H 0.5187 0.11727 0.43196 0.0
C933 C 0.5961 0.12215 0.45578 0.0
C934 C 0.61204 0.12644 0.50543 0.0
C935 C 0.61061 0.13363 0.57268 0.0
C936 C 0.59357 0.13619 0.5908 0.0
C937 C 0.57807 0.13163 0.54113 0.0
C938 C 0.57913 0.12485 0.47489 0.0
C939 C 0.55979 0.1203 0.43264 0.0
C940 C 0.56585 0.1351 0.36949 0.0
C941 C 0.54754 0.09709 0.4101 0.0
C942 C 0.54758 0.1252 0.4861 0.0
C943 C 0.55855 0.13176 0.54816 0.0
C944 C 0.55024 0.13612 0.60674 0.0
C945 C 0.53005 0.13351 0.60218 0.0
C946 C 0.51839 0.12672 0.5394 0.0
C947 C 0.52742 0.1228 0.48026 0.0
H948 H 0.48352 0.59865 0.74242 0.0
H949 H 0.48592 0.62915 0.93902 0.0
H950 H 0.45111 0.59968 0.97006 0.0
H951 H 0.42598 0.57514 0.71389 0.0
H952 H 0.42329 0.55122 0.67805 0.0
H953 H 0.4476 0.57571 0.66731 0.0
H954 H 0.46804 0.55912 0.72329 0.0
H955 H 0.44383 0.53464 0.73444 0.0
H956 H 0.46051 0.54736 0.80854 0.0
H957 H 0.41829 0.56591 0.9863 0.0
H958 H 0.38825 0.5297 0.98502 0.0
H959 H 0.40571 0.52058 0.7773 0.0
C960 C 0.47653 0.59931 0.79136 0.0
C961 C 0.48752 0.61627 0.83823 0.0
C962 C 0.47791 0.61636 0.90222 0.0
C963 C 0.45807 0.59971 0.92033 0.0
C964 C 0.44788 0.58307 0.87382 0.0
C965 C 0.45663 0.58273 0.81043 0.0
C966 C 0.44272 0.56226 0.77209 0.0
C967 C 0.4344 0.56633 0.70378 0.0
C968 C 0.45448 0.55013 0.75884 0.0
C969 C 0.42514 0.551 0.8248 0.0
C970 C 0.42846 0.56342 0.88286 0.0
C971 C 0.4153 0.55613 0.94073 0.0
C972 C 0.39835 0.53551 0.93963 0.0
C973 C 0.39459 0.52241 0.88092 0.0
C974 C 0.408 0.53039 0.82233 0.0
H975 H 0.8884 0.4071 0.25639 0.0
H976 H 0.86737 0.37876 0.05187 0.0
H977 H 0.86291 0.40838 0.01605 0.0
H978 H 0.85303 0.42904 0.26893 0.0
H979 H 0.87245 0.45282 0.31125 0.0
H980 H 0.87286 0.42868 0.32348 0.0
H981 H 0.91154 0.44699 0.28102 0.0
H982 H 0.91123 0.47115 0.26859 0.0
H983 H 0.91815 0.45981 0.19722 0.0
H984 H 0.86299 0.44165 0.99819 0.0
H985 H 0.8669 0.47698 0.00047 0.0
H986 H 0.88706 0.48429 0.21647 0.0
C987 C 0.88262 0.40701 0.2044 0.0
C988 C 0.87827 0.39053 0.15706 0.0
C989 C 0.87089 0.39115 0.08924 0.0
C990 C 0.86822 0.4079 0.06828 0.0
C991 C 0.87289 0.42397 0.11565 0.0
C992 C 0.87983 0.42371 0.1824 0.0
C993 C 0.88443 0.44352 0.22174 0.0
C994 C 0.86982 0.43819 0.28511 0.0
C995 C 0.90772 0.45611 0.24339 0.0
C996 C 0.87931 0.455 0.16613 0.0
C997 C 0.87264 0.44333 0.10549 0.0
C998 C 0.86797 0.45088 0.04555 0.0
C999 C 0.87032 0.471 0.04731 0.0
C1000 C 0.87718 0.48334 0.1087 0.0
C1001 C 0.8815 0.47509 0.16912 0.0
H1002 H 0.48028 0.88137 0.58805 0.0
H1003 H 0.49632 0.87471 0.37528 0.0
H1004 H 0.46346 0.87249 0.33396 0.0
H1005 H 0.42345 0.84583 0.57174 0.0
H1006 H 0.41711 0.86186 0.62643 0.0
H1007 H 0.44129 0.86159 0.63995 0.0
H1008 H 0.46243 0.90216 0.62684 0.0
H1009 H 0.43835 0.90255 0.61306 0.0
H1010 H 0.45915 0.91412 0.54937 0.0
H1011 H 0.4301 0.87326 0.3146 0.0
H1012 H 0.39808 0.87625 0.31895 0.0
H1013 H 0.40348 0.88203 0.54427 0.0
C1014 C 0.47679 0.87919 0.53285 0.0
C1015 C 0.49093 0.8782 0.48499 0.0
C1016 C 0.48577 0.87549 0.41309 0.0
C1017 C 0.46712 0.87419 0.38903 0.0
C1018 C 0.4537 0.87551 0.43745 0.0
C1019 C 0.45822 0.87784 0.50788 0.0
C1020 C 0.44148 0.87961 0.54866 0.0
C1021 C 0.43016 0.86112 0.5997 0.0
C1022 C 0.45092 0.90087 0.5867 0.0
C1023 C 0.42703 0.87824 0.48998 0.0
C1024 C 0.43434 0.87581 0.4263 0.0
C1025 C 0.42411 0.87498 0.36421 0.0
C1026 C 0.40596 0.87675 0.36724 0.0
C1027 C 0.3982 0.87931 0.43194 0.0
C1028 C 0.40886 0.87988 0.49403 0.0
H1029 H 0.59592 0.47385 0.94624 0.0
H1030 H 0.62183 0.48719 0.73668 0.0
H1031 H 0.59195 0.45391 0.69564 0.0
H1032 H 0.57422 0.41623 0.93846 0.0
H1033 H 0.55108 0.41068 0.98763 0.0
H1034 H 0.57549 0.43477 0.00262 0.0
H1035 H 0.55685 0.45622 0.9784 0.0
H1036 H 0.53244 0.43224 0.9631 0.0
H1037 H 0.54299 0.45247 0.89732 0.0
H1038 H 0.55812 0.42134 0.67414 0.0
H1039 H 0.52249 0.39032 0.67434 0.0
H1040 H 0.51825 0.39689 0.89765 0.0
C1041 C 0.5955 0.4696 0.892 0.0
C1042 C 0.61129 0.4832 0.84479 0.0
C1043 C 0.60998 0.47712 0.77401 0.0
C1044 C 0.59307 0.45819 0.75008 0.0
C1045 C 0.57761 0.44537 0.79753 0.0
C1046 C 0.57868 0.45066 0.86709 0.0
C1047 C 0.55936 0.43442 0.90617 0.0
C1048 C 0.5654 0.42337 0.96203 0.0
C1049 C 0.5472 0.44444 0.9381 0.0
C1050 C 0.54709 0.41951 0.84725 0.0
C1051 C 0.55801 0.42614 0.78517 0.0
C1052 C 0.54951 0.41579 0.72254 0.0
C1053 C 0.52922 0.39824 0.72317 0.0
C1054 C 0.51765 0.39112 0.78604 0.0
C1055 C 0.52686 0.40177 0.84902 0.0
H1056 H 0.27989 0.47365 0.00513 0.0
H1057 H 0.25492 0.42004 0.86581 0.0
H1058 H 0.21875 0.41304 0.88925 0.0
H1059 H 0.23906 0.44965 0.13395 0.0
H1060 H 0.23876 0.47353 0.1534 0.0
H1061 H 0.26264 0.47481 0.12331 0.0
H1062 H 0.26503 0.49919 0.02175 0.0
H1063 H 0.24128 0.49815 0.05191 0.0
H1064 H 0.24295 0.49081 0.96354 0.0
H1065 H 0.18546 0.41208 0.92804 0.0
H1066 H 0.15742 0.41773 0.97692 0.0
H1067 H 0.20395 0.47069 0.09643 0.0
C1068 C 0.26676 0.46041 0.97977 0.0
C1069 C 0.27007 0.44727 0.93397 0.0
C1070 C 0.25264 0.43031 0.90077 0.0
C1071 C 0.23209 0.42616 0.91417 0.0
C1072 C 0.22932 0.4391 0.96109 0.0
C1073 C 0.24619 0.45592 0.99325 0.0
C1074 C 0.23897 0.46733 0.04191 0.0
C1075 C 0.24523 0.46626 0.11763 0.0
C1076 C 0.24757 0.49022 0.01834 0.0
C1077 C 0.21536 0.45436 0.032 0.0
C1078 C 0.21013 0.43817 0.98503 0.0
C1079 C 0.18936 0.42456 0.96534 0.0
C1080 C 0.17356 0.4278 0.99348 0.0
C1081 C 0.17863 0.44433 0.04121 0.0
C1082 C 0.19973 0.45763 0.06129 0.0
H1083 H 0.8298 0.25597 0.33198 0.0
H1084 H 0.80285 0.28661 0.21131 0.0
H1085 H 0.76708 0.25918 0.24734 0.0
H1086 H 0.78989 0.20299 0.28953 0.0
H1087 H 0.79014 0.19253 0.3743 0.0
H1088 H 0.81354 0.21508 0.34147 0.0
H1089 H 0.81509 0.23608 0.45202 0.0
H1090 H 0.79154 0.21365 0.48485 0.0
H1091 H 0.79263 0.2386 0.4751 0.0
H1092 H 0.73461 0.22903 0.29759 0.0
H1093 H 0.70683 0.19548 0.34721 0.0
H1094 H 0.7544 0.18295 0.43053 0.0
C1095 C 0.81628 0.25674 0.31317 0.0
C1096 C 0.81884 0.27319 0.26879 0.0
C1097 C 0.801 0.27393 0.24491 0.0
C1098 C 0.78073 0.25855 0.26552 0.0
C1099 C 0.77865 0.24254 0.30969 0.0
C1100 C 0.79589 0.24133 0.33254 0.0
C1101 C 0.78916 0.22188 0.37691 0.0
C1102 C 0.79609 0.20725 0.34354 0.0
C1103 C 0.79761 0.22792 0.45166 0.0
C1104 C 0.76543 0.21224 0.37487 0.0
C1105 C 0.75978 0.22465 0.33675 0.0
C1106 C 0.73883 0.21912 0.32715 0.0
C1107 C 0.72319 0.20009 0.35546 0.0
C1108 C 0.72857 0.18664 0.39168 0.0
C1109 C 0.74995 0.19302 0.40296 0.0
H1110 H 0.53712 0.80146 0.56644 0.0
H1111 H 0.59164 0.84993 0.67472 0.0
H1112 H 0.59888 0.82291 0.72345 0.0
H1113 H 0.5198 0.7646 0.70318 0.0
H1114 H 0.51067 0.74174 0.64825 0.0
H1115 H 0.51113 0.76496 0.61555 0.0
H1116 H 0.53423 0.76624 0.51144 0.0
H1117 H 0.5337 0.7429 0.54355 0.0
H1118 H 0.55853 0.76645 0.52783 0.0
H1119 H 0.59898 0.79048 0.76523 0.0
H1120 H 0.59206 0.75484 0.79664 0.0
H1121 H 0.53621 0.72732 0.66688 0.0
C1122 C 0.55086 0.8063 0.59893 0.0
C1123 C 0.56415 0.82766 0.61598 0.0
C1124 C 0.5816 0.83358 0.66039 0.0
C1125 C 0.58575 0.81837 0.68834 0.0
C1126 C 0.57216 0.79732 0.67167 0.0
C1127 C 0.55508 0.79126 0.62791 0.0
C1128 C 0.54216 0.76751 0.62203 0.0
C1129 C 0.51961 0.75922 0.64887 0.0
C1130 C 0.54216 0.76036 0.54674 0.0
C1131 C 0.5545 0.76118 0.66987 0.0
C1132 C 0.57185 0.77861 0.69748 0.0
C1133 C 0.5855 0.77672 0.74365 0.0
C1134 C 0.5814 0.75647 0.76151 0.0
C1135 C 0.56376 0.73844 0.7336 0.0
C1136 C 0.55006 0.74089 0.68783 0.0
H1137 H 0.80968 0.53382 0.98593 0.0
H1138 H 0.83358 0.5814 0.14777 0.0
H1139 H 0.80386 0.58775 0.12714 0.0
H1140 H 0.79314 0.5613 0.86844 0.0
H1141 H 0.7701 0.53766 0.83927 0.0
H1142 H 0.79301 0.53667 0.86771 0.0
H1143 H 0.77038 0.5079 0.95808 0.0
H1144 H 0.7474 0.50868 0.92956 0.0
H1145 H 0.75488 0.51281 0.02014 0.0
H1146 H 0.77125 0.58838 0.08972 0.0
H1147 H 0.7375 0.58255 0.04095 0.0
H1148 H 0.7359 0.53584 0.89925 0.0
C1149 C 0.80874 0.54569 0.01666 0.0
C1150 C 0.82392 0.55719 0.06834 0.0
C1151 C 0.82197 0.5723 0.10842 0.0
C1152 C 0.80527 0.57612 0.09661 0.0
C1153 C 0.79077 0.56475 0.0443 0.0
C1154 C 0.79232 0.54982 0.00505 0.0
C1155 C 0.77461 0.53963 0.95236 0.0
C1156 C 0.78324 0.54409 0.87751 0.0
C1157 C 0.76101 0.51585 0.96588 0.0
C1158 C 0.76268 0.55102 0.96843 0.0
C1159 C 0.7723 0.56548 0.02159 0.0
C1160 C 0.76372 0.57727 0.04767 0.0
C1161 C 0.74464 0.57392 0.01962 0.0
C1162 C 0.73444 0.55903 0.96587 0.0
C1163 C 0.74371 0.54766 0.93925 0.0
H1164 H 0.27461 0.81512 0.29497 0.0
H1165 H 0.2627 0.81989 0.51436 0.0
H1166 H 0.23047 0.78556 0.50716 0.0
H1167 H 0.2192 0.79814 0.25368 0.0
H1168 H 0.21876 0.78265 0.18012 0.0
H1169 H 0.24292 0.80585 0.20468 0.0
H1170 H 0.26115 0.78347 0.21323 0.0
H1171 H 0.23692 0.7601 0.19032 0.0
H1172 H 0.25031 0.76086 0.26996 0.0
H1173 H 0.20282 0.74804 0.47742 0.0
H1174 H 0.17436 0.71641 0.4244 0.0
H1175 H 0.19531 0.74391 0.21886 0.0
C1176 C 0.26516 0.80966 0.34148 0.0
C1177 C 0.27213 0.82035 0.40619 0.0
C1178 C 0.25889 0.81167 0.4652 0.0
C1179 C 0.24022 0.79223 0.46144 0.0
C1180 C 0.23412 0.78223 0.39713 0.0
C1181 C 0.24554 0.79122 0.3375 0.0
C1182 C 0.23373 0.77878 0.27332 0.0
C1183 C 0.22832 0.79215 0.22511 0.0
C1184 C 0.24628 0.7703 0.23444 0.0
C1185 C 0.21412 0.76106 0.30682 0.0
C1186 C 0.21527 0.76296 0.37842 0.0
C1187 C 0.20091 0.74707 0.42137 0.0
C1188 C 0.18437 0.72923 0.39032 0.0
C1189 C 0.18106 0.72795 0.31706 0.0
C1190 C 0.19662 0.74412 0.27483 0.0
H1191 H 0.46942 0.26939 0.75373 0.0
H1192 H 0.41224 0.25898 0.65211 0.0
H1193 H 0.40656 0.22509 0.60543 0.0
H1194 H 0.48694 0.24916 0.61922 0.0
H1195 H 0.49718 0.2368 0.67587 0.0
H1196 H 0.49607 0.25952 0.70536 0.0
H1197 H 0.47414 0.23873 0.8128 0.0
H1198 H 0.47539 0.216 0.78406 0.0
H1199 H 0.45023 0.21397 0.8002 0.0
H1200 H 0.40837 0.1936 0.56367 0.0
H1201 H 0.41628 0.16525 0.53645 0.0
H1202 H 0.47208 0.19589 0.66587 0.0
C1203 C 0.45546 0.25967 0.72309 0.0
C1204 C 0.44112 0.26655 0.70686 0.0
C1205 C 0.42329 0.25378 0.66524 0.0
C1206 C 0.41998 0.23459 0.63846 0.0
C1207 C 0.43463 0.22839 0.65413 0.0
C1208 C 0.4519 0.24041 0.69608 0.0
C1209 C 0.46553 0.23037 0.70338 0.0
C1210 C 0.48774 0.24483 0.6742 0.0
C1211 C 0.46636 0.22441 0.77964 0.0
C1212 C 0.45335 0.21099 0.65839 0.0
C1213 C 0.43559 0.21016 0.63039 0.0
C1214 C 0.42212 0.19398 0.58579 0.0
C1215 C 0.42677 0.17804 0.57032 0.0
C1216 C 0.44462 0.17841 0.59963 0.0
C1217 C 0.45817 0.19519 0.6436 0.0
loop_
_geom_bond_atom_site_label_1
_geom_bond_atom_site_label_2
_geom_bond_distance
_geom_bond_site_symmetry_2
_ccdc_geom_bond_type
Co0 O3 1.970 . S
Co0 N17 1.989 . S
Co0 O25 1.967 . S
Co0 O32 1.920 . S
Co1 O4 1.966 . S
Co1 N10 2.022 1_554 S
Co1 N18 1.993 . S
Co1 O26 1.941 . S
C2 O3 1.258 . S
C2 O4 1.263 . S
O3 Co0 1.970 . S
O3 C2 1.258 . S
O4 Co1 1.966 . S
O4 C2 1.263 . S
C5 O6 1.235 . S
C5 O32 1.289 . S
O6 C5 1.235 . S
C7 C9 1.400 . S
C7 N10 1.351 . S
C7 C12 1.501 . S
C8 C9 1.387 . S
C8 N11 1.341 . S
C9 C7 1.400 . S
C9 C8 1.387 . S
N10 Co1 2.022 1_556 S
N10 C7 1.351 . S
N10 N11 1.365 . S
N11 C8 1.341 . S
N11 N10 1.365 . S
N11 H31 0.862 . S
C12 C7 1.501 . S
C12 H13 0.961 . S
C12 H14 0.961 . S
C12 H15 0.960 . S
H13 C12 0.961 . S
H14 C12 0.961 . S
H15 C12 0.960 . S
C16 N17 1.342 . S
C16 C20 1.401 . S
C16 C21 1.499 . S
N17 Co0 1.989 . S
N17 C16 1.342 . S
N17 N18 1.388 . S
N18 Co1 1.993 . S
N18 N17 1.388 . S
N18 C19 1.346 . S
C19 N18 1.346 . S
C19 C20 1.396 . S
C19 C29 1.510 1_554 S
C20 C16 1.401 . S
C20 C19 1.396 . S
C21 C16 1.499 . S
C21 H22 0.959 . S
C21 H23 0.960 . S
C21 H24 0.961 . S
H22 C21 0.959 . S
H23 C21 0.960 . S
H24 C21 0.961 . S
O25 Co0 1.967 . S
O25 C33 1.258 . S
O26 Co1 1.941 . S
O26 C33 1.266 . S
H27 C29 0.959 . S
H28 C29 0.961 . S
C29 C19 1.510 1_556 S
C29 H27 0.959 . S
C29 H28 0.961 . S
C29 H30 0.960 . S
H30 C29 0.960 . S
H31 N11 0.862 . S
O32 Co0 1.920 . S
O32 C5 1.289 . S
C33 O25 1.258 . S
C33 O26 1.266 . S
Co34 O37 1.970 . S
Co34 N51 1.989 . S
Co34 O59 1.967 . S
Co34 O66 1.920 . S
Co35 O38 1.966 . S
Co35 N44 2.022 . S
Co35 N52 1.993 . S
Co35 O60 1.941 . S
C36 O37 1.258 . S
C36 O38 1.263 . S
O37 Co34 1.970 . S
O37 C36 1.258 . S
O38 Co35 1.966 . S
O38 C36 1.263 . S
C39 O40 1.235 . S
C39 O66 1.289 . S
O40 C39 1.235 . S
C41 C43 1.400 . S
C41 N44 1.351 . S
C41 C46 1.501 . S
C42 C43 1.387 . S
C42 N45 1.341 . S
C43 C41 1.400 . S
C43 C42 1.387 . S
N44 Co35 2.022 . S
N44 C41 1.351 . S
N44 N45 1.365 . S
N45 C42 1.341 . S
N45 N44 1.365 . S
N45 H65 0.862 . S
C46 C41 1.501 . S
C46 H47 0.961 . S
C46 H48 0.961 . S
C46 H49 0.960 . S
H47 C46 0.961 . S
H48 C46 0.961 . S
H49 C46 0.960 . S
C50 N51 1.342 . S
C50 C54 1.401 . S
C50 C55 1.499 . S
N51 Co34 1.989 . S
N51 C50 1.342 . S
N51 N52 1.388 . S
N52 Co35 1.993 . S
N52 N51 1.388 . S
N52 C53 1.346 . S
C53 N52 1.346 . S
C53 C54 1.396 . S
C53 C63 1.510 . S
C54 C50 1.401 . S
C54 C53 1.396 . S
C55 C50 1.499 . S
C55 H56 0.959 . S
C55 H57 0.960 . S
C55 H58 0.961 . S
H56 C55 0.959 . S
H57 C55 0.960 . S
H58 C55 0.961 . S
O59 Co34 1.967 . S
O59 C67 1.258 . S
O60 Co35 1.941 . S
O60 C67 1.266 . S
H61 C63 0.959 . S
H62 C63 0.961 . S
C63 C53 1.510 . S
C63 H61 0.959 . S
C63 H62 0.961 . S
C63 H64 0.960 . S
H64 C63 0.960 . S
H65 N45 0.862 . S
O66 Co34 1.920 . S
O66 C39 1.289 . S
C67 O59 1.258 . S
C67 O60 1.266 . S
Co68 O71 1.970 . S
Co68 N85 1.989 . S
Co68 O93 1.967 . S
Co68 O100 1.920 . S
Co69 O72 1.966 . S
Co69 N78 2.022 . S
Co69 N86 1.993 . S
Co69 O94 1.941 . S
C70 O71 1.258 . S
C70 O72 1.263 . S
O71 Co68 1.970 . S
O71 C70 1.258 . S
O72 Co69 1.966 . S
O72 C70 1.263 . S
C73 O74 1.235 . S
C73 O100 1.289 . S
O74 C73 1.235 . S
C75 C77 1.400 . S
C75 N78 1.351 . S
C75 C80 1.501 . S
C76 C77 1.387 . S
C76 N79 1.341 . S
C77 C75 1.400 . S
C77 C76 1.387 . S
N78 Co69 2.022 . S
N78 C75 1.351 . S
N78 N79 1.365 . S
N79 C76 1.341 . S
N79 N78 1.365 . S
N79 H99 0.862 . S
C80 C75 1.501 . S
C80 H81 0.961 . S
C80 H82 0.961 . S
C80 H83 0.960 . S
H81 C80 0.961 . S
H82 C80 0.961 . S
H83 C80 0.960 . S
C84 N85 1.342 . S
C84 C88 1.401 . S
C84 C89 1.499 . S
N85 Co68 1.989 . S
N85 C84 1.342 . S
N85 N86 1.388 . S
N86 Co69 1.993 . S
N86 N85 1.388 . S
N86 C87 1.346 . S
C87 N86 1.346 . S
C87 C88 1.396 . S
C87 C97 1.510 . S
C88 C84 1.401 . S
C88 C87 1.396 . S
C89 C84 1.499 . S
C89 H90 0.959 . S
C89 H91 0.960 . S
C89 H92 0.961 . S
H90 C89 0.959 . S
H91 C89 0.960 . S
H92 C89 0.961 . S
O93 Co68 1.967 . S
O93 C101 1.258 . S
O94 Co69 1.941 . S
O94 C101 1.266 . S
H95 C97 0.959 . S
H96 C97 0.961 . S
C97 C87 1.510 . S
C97 H95 0.959 . S
C97 H96 0.961 . S
C97 H98 0.960 . S
H98 C97 0.960 . S
H99 N79 0.862 . S
O100 Co68 1.920 . S
O100 C73 1.289 . S
C101 O93 1.258 . S
C101 O94 1.266 . S
Co102 O105 1.970 . S
Co102 N119 1.989 . S
Co102 O127 1.967 . S
Co102 O134 1.920 . S
Co103 O106 1.966 . S
Co103 N112 2.022 1_554 S
Co103 N120 1.993 . S
Co103 O128 1.941 . S
C104 O105 1.258 . S
C104 O106 1.263 . S
O105 Co102 1.970 . S
O105 C104 1.258 . S
O106 Co103 1.966 . S
O106 C104 1.263 . S
C107 O108 1.235 . S
C107 O134 1.289 . S
O108 C107 1.235 . S
C109 C111 1.400 . S
C109 N112 1.351 . S
C109 C114 1.501 . S
C110 C111 1.387 . S
C110 N113 1.341 . S
C111 C109 1.400 . S
C111 C110 1.387 . S
N112 Co103 2.022 1_556 S
N112 C109 1.351 . S
N112 N113 1.365 . S
N113 C110 1.341 . S
N113 N112 1.365 . S
N113 H133 0.862 . S
C114 C109 1.501 . S
C114 H115 0.961 . S
C114 H116 0.961 . S
C114 H117 0.960 . S
H115 C114 0.961 . S
H116 C114 0.961 . S
H117 C114 0.960 . S
C118 N119 1.342 . S
C118 C122 1.401 . S
C118 C123 1.499 . S
N119 Co102 1.989 . S
N119 C118 1.342 . S
N119 N120 1.388 . S
N120 Co103 1.993 . S
N120 N119 1.388 . S
N120 C121 1.346 . S
C121 N120 1.346 . S
C121 C122 1.396 . S
C121 C131 1.510 1_554 S
C122 C118 1.401 . S
C122 C121 1.396 . S
C123 C118 1.499 . S
C123 H124 0.959 . S
C123 H125 0.960 . S
C123 H126 0.961 . S
H124 C123 0.959 . S
H125 C123 0.960 . S
H126 C123 0.961 . S
O127 Co102 1.967 . S
O127 C135 1.258 . S
O128 Co103 1.941 . S
O128 C135 1.266 . S
H129 C131 0.959 . S
H130 C131 0.961 . S
C131 C121 1.510 1_556 S
C131 H129 0.959 . S
C131 H130 0.961 . S
C131 H132 0.960 . S
H132 C131 0.960 . S
H133 N113 0.862 . S
O134 Co102 1.920 . S
O134 C107 1.289 . S
C135 O127 1.258 . S
C135 O128 1.266 . S
Co136 O139 1.970 . S
Co136 N153 1.989 . S
Co136 O161 1.967 . S
Co136 O168 1.920 . S
Co137 O140 1.966 . S
Co137 N146 2.022 . S
Co137 N154 1.993 . S
Co137 O162 1.941 . S
C138 O139 1.258 . S
C138 O140 1.263 . S
O139 Co136 1.970 . S
O139 C138 1.258 . S
O140 Co137 1.966 . S
O140 C138 1.263 . S
C141 O142 1.235 . S
C141 O168 1.289 . S
O142 C141 1.235 . S
C143 C145 1.400 . S
C143 N146 1.351 . S
C143 C148 1.501 . S
C144 C145 1.387 . S
C144 N147 1.341 . S
C145 C143 1.400 . S
C145 C144 1.387 . S
N146 Co137 2.022 . S
N146 C143 1.351 . S
N146 N147 1.365 . S
N147 C144 1.341 . S
N147 N146 1.365 . S
N147 H167 0.862 . S
C148 C143 1.501 . S
C148 H149 0.961 . S
C148 H150 0.961 . S
C148 H151 0.960 . S
H149 C148 0.961 . S
H150 C148 0.961 . S
H151 C148 0.960 . S
C152 N153 1.342 . S
C152 C156 1.401 . S
C152 C157 1.499 . S
N153 Co136 1.989 . S
N153 C152 1.342 . S
N153 N154 1.388 . S
N154 Co137 1.993 . S
N154 N153 1.388 . S
N154 C155 1.346 . S
C155 N154 1.346 . S
C155 C156 1.396 . S
C155 C165 1.510 . S
C156 C152 1.401 . S
C156 C155 1.396 . S
C157 C152 1.499 . S
C157 H158 0.959 . S
C157 H159 0.960 . S
C157 H160 0.961 . S
H158 C157 0.959 . S
H159 C157 0.960 . S
H160 C157 0.961 . S
O161 Co136 1.967 . S
O161 C169 1.258 . S
O162 Co137 1.941 . S
O162 C169 1.266 . S
H163 C165 0.959 . S
H164 C165 0.961 . S
C165 C155 1.510 . S
C165 H163 0.959 . S
C165 H164 0.961 . S
C165 H166 0.960 . S
H166 C165 0.960 . S
H167 N147 0.862 . S
O168 Co136 1.920 . S
O168 C141 1.289 . S
C169 O161 1.258 . S
C169 O162 1.266 . S
Co170 O173 1.970 . S
Co170 N187 1.989 . S
Co170 O195 1.967 . S
Co170 O202 1.920 . S
Co171 O174 1.966 . S
Co171 N180 2.022 . S
Co171 N188 1.993 . S
Co171 O196 1.941 . S
C172 O173 1.258 . S
C172 O174 1.263 . S
O173 Co170 1.970 . S
O173 C172 1.258 . S
O174 Co171 1.966 . S
O174 C172 1.263 . S
C175 O176 1.235 . S
C175 O202 1.289 . S
O176 C175 1.235 . S
C177 C179 1.400 . S
C177 N180 1.351 . S
C177 C182 1.501 . S
C178 C179 1.387 . S
C178 N181 1.341 . S
C179 C177 1.400 . S
C179 C178 1.387 . S
N180 Co171 2.022 . S
N180 C177 1.351 . S
N180 N181 1.365 . S
N181 C178 1.341 . S
N181 N180 1.365 . S
N181 H201 0.862 . S
C182 C177 1.501 . S
C182 H183 0.961 . S
C182 H184 0.961 . S
C182 H185 0.960 . S
H183 C182 0.961 . S
H184 C182 0.961 . S
H185 C182 0.960 . S
C186 N187 1.342 . S
C186 C190 1.401 . S
C186 C191 1.499 . S
N187 Co170 1.989 . S
N187 C186 1.342 . S
N187 N188 1.388 . S
N188 Co171 1.993 . S
N188 N187 1.388 . S
N188 C189 1.346 . S
C189 N188 1.346 . S
C189 C190 1.396 . S
C189 C199 1.510 . S
C190 C186 1.401 . S
C190 C189 1.396 . S
C191 C186 1.499 . S
C191 H192 0.959 . S
C191 H193 0.960 . S
C191 H194 0.961 . S
H192 C191 0.959 . S
H193 C191 0.960 . S
H194 C191 0.961 . S
O195 Co170 1.967 . S
O195 C203 1.258 . S
O196 Co171 1.941 . S
O196 C203 1.266 . S
H197 C199 0.959 . S
H198 C199 0.961 . S
C199 C189 1.510 . S
C199 H197 0.959 . S
C199 H198 0.961 . S
C199 H200 0.960 . S
H200 C199 0.960 . S
H201 N181 0.862 . S
O202 Co170 1.920 . S
O202 C175 1.289 . S
C203 O195 1.258 . S
C203 O196 1.266 . S
Co204 O207 1.970 . S
Co204 N221 1.989 . S
Co204 O229 1.967 . S
Co204 O236 1.920 . S
Co205 O208 1.966 . S
Co205 N214 2.022 . S
Co205 N222 1.993 . S
Co205 O230 1.941 . S
C206 O207 1.258 . S
C206 O208 1.263 . S
O207 Co204 1.970 . S
O207 C206 1.258 . S
O208 Co205 1.966 . S
O208 C206 1.263 . S
C209 O210 1.235 . S
C209 O236 1.289 . S
O210 C209 1.235 . S
C211 C213 1.400 . S
C211 N214 1.351 . S
C211 C216 1.501 . S
C212 C213 1.387 . S
C212 N215 1.341 . S
C213 C211 1.400 . S
C213 C212 1.387 . S
N214 Co205 2.022 . S
N214 C211 1.351 . S
N214 N215 1.365 . S
N215 C212 1.341 . S
N215 N214 1.365 . S
N215 H235 0.862 . S
C216 C211 1.501 . S
C216 H217 0.961 . S
C216 H218 0.961 . S
C216 H219 0.960 . S
H217 C216 0.961 . S
H218 C216 0.961 . S
H219 C216 0.960 . S
C220 N221 1.342 . S
C220 C224 1.401 . S
C220 C225 1.499 . S
N221 Co204 1.989 . S
N221 C220 1.342 . S
N221 N222 1.388 . S
N222 Co205 1.993 . S
N222 N221 1.388 . S
N222 C223 1.346 . S
C223 N222 1.346 . S
C223 C224 1.396 . S
C223 C233 1.510 . S
C224 C220 1.401 . S
C224 C223 1.396 . S
C225 C220 1.499 . S
C225 H226 0.959 . S
C225 H227 0.960 . S
C225 H228 0.961 . S
H226 C225 0.959 . S
H227 C225 0.960 . S
H228 C225 0.961 . S
O229 Co204 1.967 . S
O229 C237 1.258 . S
O230 Co205 1.941 . S
O230 C237 1.266 . S
H231 C233 0.959 . S
H232 C233 0.961 . S
C233 C223 1.510 . S
C233 H231 0.959 . S
C233 H232 0.961 . S
C233 H234 0.960 . S
H234 C233 0.960 . S
H235 N215 0.862 . S
O236 Co204 1.920 . S
O236 C209 1.289 . S
C237 O229 1.258 . S
C237 O230 1.266 . S
Co238 O241 1.970 . S
Co238 N255 1.989 . S
Co238 O263 1.967 . S
Co238 O270 1.920 . S
Co239 O242 1.966 . S
Co239 N248 2.022 1_556 S
Co239 N256 1.993 . S
Co239 O264 1.941 . S
C240 O241 1.258 . S
C240 O242 1.263 . S
O241 Co238 1.970 . S
O241 C240 1.258 . S
O242 Co239 1.966 . S
O242 C240 1.263 . S
C243 O244 1.235 . S
C243 O270 1.289 . S
O244 C243 1.235 . S
C245 C247 1.400 . S
C245 N248 1.351 . S
C245 C250 1.501 . S
C246 C247 1.387 . S
C246 N249 1.341 . S
C247 C245 1.400 . S
C247 C246 1.387 . S
N248 Co239 2.022 1_554 S
N248 C245 1.351 . S
N248 N249 1.365 . S
N249 C246 1.341 . S
N249 N248 1.365 . S
N249 H269 0.862 . S
C250 C245 1.501 . S
C250 H251 0.961 . S
C250 H252 0.961 . S
C250 H253 0.960 . S
H251 C250 0.961 . S
H252 C250 0.961 . S
H253 C250 0.960 . S
C254 N255 1.342 . S
C254 C258 1.401 . S
C254 C259 1.499 . S
N255 Co238 1.989 . S
N255 C254 1.342 . S
N255 N256 1.388 . S
N256 Co239 1.993 . S
N256 N255 1.388 . S
N256 C257 1.346 . S
C257 N256 1.346 . S
C257 C258 1.396 . S
C257 C267 1.510 1_556 S
C258 C254 1.401 . S
C258 C257 1.396 . S
C259 C254 1.499 . S
C259 H260 0.959 . S
C259 H261 0.960 . S
C259 H262 0.961 . S
H260 C259 0.959 . S
H261 C259 0.960 . S
H262 C259 0.961 . S
O263 Co238 1.967 . S
O263 C271 1.258 . S
O264 Co239 1.941 . S
O264 C271 1.266 . S
H265 C267 0.959 . S
H266 C267 0.961 . S
C267 C257 1.510 1_554 S
C267 H265 0.959 . S
C267 H266 0.961 . S
C267 H268 0.960 . S
H268 C267 0.960 . S
H269 N249 0.862 . S
O270 Co238 1.920 . S
O270 C243 1.289 . S
C271 O263 1.258 . S
C271 O264 1.266 . S
Co272 O275 1.970 . S
Co272 N289 1.989 . S
Co272 O297 1.967 . S
Co272 O304 1.920 . S
Co273 O276 1.966 . S
Co273 N282 2.022 . S
Co273 N290 1.993 . S
Co273 O298 1.941 . S
C274 O275 1.258 . S
C274 O276 1.263 . S
O275 Co272 1.970 . S
O275 C274 1.258 . S
O276 Co273 1.966 . S
O276 C274 1.263 . S
C277 O278 1.235 . S
C277 O304 1.289 . S
O278 C277 1.235 . S
C279 C281 1.400 . S
C279 N282 1.351 . S
C279 C284 1.501 . S
C280 C281 1.387 . S
C280 N283 1.341 . S
C281 C279 1.400 . S
C281 C280 1.387 . S
N282 Co273 2.022 . S
N282 C279 1.351 . S
N282 N283 1.365 . S
N283 C280 1.341 . S
N283 N282 1.365 . S
N283 H303 0.862 . S
C284 C279 1.501 . S
C284 H285 0.961 . S
C284 H286 0.961 . S
C284 H287 0.960 . S
H285 C284 0.961 . S
H286 C284 0.961 . S
H287 C284 0.960 . S
C288 N289 1.342 . S
C288 C292 1.401 . S
C288 C293 1.499 . S
N289 Co272 1.989 . S
N289 C288 1.342 . S
N289 N290 1.388 . S
N290 Co273 1.993 . S
N290 N289 1.388 . S
N290 C291 1.346 . S
C291 N290 1.346 . S
C291 C292 1.396 . S
C291 C301 1.510 . S
C292 C288 1.401 . S
C292 C291 1.396 . S
C293 C288 1.499 . S
C293 H294 0.959 . S
C293 H295 0.960 . S
C293 H296 0.961 . S
H294 C293 0.959 . S
H295 C293 0.960 . S
H296 C293 0.961 . S
O297 Co272 1.967 . S
O297 C305 1.258 . S
O298 Co273 1.941 . S
O298 C305 1.266 . S
H299 C301 0.959 . S
H300 C301 0.961 . S
C301 C291 1.510 . S
C301 H299 0.959 . S
C301 H300 0.961 . S
C301 H302 0.960 . S
H302 C301 0.960 . S
H303 N283 0.862 . S
O304 Co272 1.920 . S
O304 C277 1.289 . S
C305 O297 1.258 . S
C305 O298 1.266 . S
Co306 O309 1.970 . S
Co306 N323 1.989 . S
Co306 O331 1.967 . S
Co306 O338 1.920 . S
Co307 O310 1.966 . S
Co307 N316 2.022 . S
Co307 N324 1.993 . S
Co307 O332 1.941 . S
C308 O309 1.258 . S
C308 O310 1.263 . S
O309 Co306 1.970 . S
O309 C308 1.258 . S
O310 Co307 1.966 . S
O310 C308 1.263 . S
C311 O312 1.235 . S
C311 O338 1.289 . S
O312 C311 1.235 . S
C313 C315 1.400 . S
C313 N316 1.351 . S
C313 C318 1.501 . S
C314 C315 1.387 . S
C314 N317 1.341 . S
C315 C313 1.400 . S
C315 C314 1.387 . S
N316 Co307 2.022 . S
N316 C313 1.351 . S
N316 N317 1.365 . S
N317 C314 1.341 . S
N317 N316 1.365 . S
N317 H337 0.862 . S
C318 C313 1.501 . S
C318 H319 0.961 . S
C318 H320 0.961 . S
C318 H321 0.960 . S
H319 C318 0.961 . S
H320 C318 0.961 . S
H321 C318 0.960 . S
C322 N323 1.342 . S
C322 C326 1.401 . S
C322 C327 1.499 . S
N323 Co306 1.989 . S
N323 C322 1.342 . S
N323 N324 1.388 . S
N324 Co307 1.993 . S
N324 N323 1.388 . S
N324 C325 1.346 . S
C325 N324 1.346 . S
C325 C326 1.396 . S
C325 C335 1.510 . S
C326 C322 1.401 . S
C326 C325 1.396 . S
C327 C322 1.499 . S
C327 H328 0.959 . S
C327 H329 0.960 . S
C327 H330 0.961 . S
H328 C327 0.959 . S
H329 C327 0.960 . S
H330 C327 0.961 . S
O331 Co306 1.967 . S
O331 C339 1.258 . S
O332 Co307 1.941 . S
O332 C339 1.266 . S
H333 C335 0.959 . S
H334 C335 0.961 . S
C335 C325 1.510 . S
C335 H333 0.959 . S
C335 H334 0.961 . S
C335 H336 0.960 . S
H336 C335 0.960 . S
H337 N317 0.862 . S
O338 Co306 1.920 . S
O338 C311 1.289 . S
C339 O331 1.258 . S
C339 O332 1.266 . S
Co340 O343 1.970 . S
Co340 N357 1.989 . S
Co340 O365 1.967 . S
Co340 O372 1.920 . S
Co341 O344 1.966 . S
Co341 N350 2.022 1_556 S
Co341 N358 1.993 . S
Co341 O366 1.941 . S
C342 O343 1.258 . S
C342 O344 1.263 . S
O343 Co340 1.970 . S
O343 C342 1.258 . S
O344 Co341 1.966 . S
O344 C342 1.263 . S
C345 O346 1.235 . S
C345 O372 1.289 . S
O346 C345 1.235 . S
C347 C349 1.400 . S
C347 N350 1.351 . S
C347 C352 1.501 . S
C348 C349 1.387 . S
C348 N351 1.341 . S
C349 C347 1.400 . S
C349 C348 1.387 . S
N350 Co341 2.022 1_554 S
N350 C347 1.351 . S
N350 N351 1.365 . S
N351 C348 1.341 . S
N351 N350 1.365 . S
N351 H371 0.862 . S
C352 C347 1.501 . S
C352 H353 0.961 . S
C352 H354 0.961 . S
C352 H355 0.960 . S
H353 C352 0.961 . S
H354 C352 0.961 . S
H355 C352 0.960 . S
C356 N357 1.342 . S
C356 C360 1.401 . S
C356 C361 1.499 . S
N357 Co340 1.989 . S
N357 C356 1.342 . S
N357 N358 1.388 . S
N358 Co341 1.993 . S
N358 N357 1.388 . S
N358 C359 1.346 . S
C359 N358 1.346 . S
C359 C360 1.396 . S
C359 C369 1.510 1_556 S
C360 C356 1.401 . S
C360 C359 1.396 . S
C361 C356 1.499 . S
C361 H362 0.959 . S
C361 H363 0.960 . S
C361 H364 0.961 . S
H362 C361 0.959 . S
H363 C361 0.960 . S
H364 C361 0.961 . S
O365 Co340 1.967 . S
O365 C373 1.258 . S
O366 Co341 1.941 . S
O366 C373 1.266 . S
H367 C369 0.959 . S
H368 C369 0.961 . S
C369 C359 1.510 1_554 S
C369 H367 0.959 . S
C369 H368 0.961 . S
C369 H370 0.960 . S
H370 C369 0.960 . S
H371 N351 0.862 . S
O372 Co340 1.920 . S
O372 C345 1.289 . S
C373 O365 1.258 . S
C373 O366 1.266 . S
Co374 O377 1.970 . S
Co374 N391 1.989 . S
Co374 O399 1.967 . S
Co374 O406 1.920 . S
Co375 O378 1.966 . S
Co375 N384 2.022 . S
Co375 N392 1.993 . S
Co375 O400 1.941 . S
C376 O377 1.258 . S
C376 O378 1.263 . S
O377 Co374 1.970 . S
O377 C376 1.258 . S
O378 Co375 1.966 . S
O378 C376 1.263 . S
C379 O380 1.235 . S
C379 O406 1.289 . S
O380 C379 1.235 . S
C381 C383 1.400 . S
C381 N384 1.351 . S
C381 C386 1.501 . S
C382 C383 1.387 . S
C382 N385 1.341 . S
C383 C381 1.400 . S
C383 C382 1.387 . S
N384 Co375 2.022 . S
N384 C381 1.351 . S
N384 N385 1.365 . S
N385 C382 1.341 . S
N385 N384 1.365 . S
N385 H405 0.862 . S
C386 C381 1.501 . S
C386 H387 0.961 . S
C386 H388 0.961 . S
C386 H389 0.960 . S
H387 C386 0.961 . S
H388 C386 0.961 . S
H389 C386 0.960 . S
C390 N391 1.342 . S
C390 C394 1.401 . S
C390 C395 1.499 . S
N391 Co374 1.989 . S
N391 C390 1.342 . S
N391 N392 1.388 . S
N392 Co375 1.993 . S
N392 N391 1.388 . S
N392 C393 1.346 . S
C393 N392 1.346 . S
C393 C394 1.396 . S
C393 C403 1.510 . S
C394 C390 1.401 . S
C394 C393 1.396 . S
C395 C390 1.499 . S
C395 H396 0.959 . S
C395 H397 0.960 . S
C395 H398 0.961 . S
H396 C395 0.959 . S
H397 C395 0.960 . S
H398 C395 0.961 . S
O399 Co374 1.967 . S
O399 C407 1.258 . S
O400 Co375 1.941 . S
O400 C407 1.266 . S
H401 C403 0.959 . S
H402 C403 0.961 . S
C403 C393 1.510 . S
C403 H401 0.959 . S
C403 H402 0.961 . S
C403 H404 0.960 . S
H404 C403 0.960 . S
H405 N385 0.862 . S
O406 Co374 1.920 . S
O406 C379 1.289 . S
C407 O399 1.258 . S
C407 O400 1.266 . S
H408 C420 0.930 . S
H409 C422 0.930 . S
H410 C423 0.930 . S
H411 C427 0.959 . S
H412 C427 0.968 . S
H413 C427 0.961 . S
H414 C428 0.960 . S
H415 C428 0.961 . S
H416 C428 0.959 . S
H417 C431 0.929 . S
H418 C432 0.931 . S
H419 C434 0.930 . S
C420 H408 0.930 . S
C420 C421 1.399 . S
C420 C425 1.399 . S
C421 C420 1.399 . S
C421 C422 1.376 . S
C422 H409 0.930 . S
C422 C421 1.376 . S
C422 C423 1.388 . S
C423 H410 0.930 . S
C423 C422 1.388 . S
C423 C424 1.390 . S
C424 C423 1.390 . S
C424 C425 1.394 . S
C424 C430 1.465 1_455 S
C425 C420 1.399 . S
C425 C424 1.394 . S
C425 C426 1.516 . S
C426 C425 1.516 . S
C426 C427 1.502 . S
C426 C428 1.561 . S
C426 C429 1.526 1_455 S
C427 H411 0.959 . S
C427 H412 0.968 . S
C427 H413 0.961 . S
C427 C426 1.502 . S
C428 H414 0.960 . S
C428 H415 0.961 . S
C428 H416 0.959 . S
C428 C426 1.561 . S
C429 C426 1.526 1_655 S
C429 C430 1.396 . S
C429 C434 1.390 . S
C430 C424 1.465 1_655 S
C430 C429 1.396 . S
C430 C431 1.399 . S
C431 H417 0.929 . S
C431 C430 1.399 . S
C431 C432 1.385 . S
C432 H418 0.931 . S
C432 C431 1.385 . S
C432 C433 1.389 . S
C433 C432 1.389 . S
C433 C434 1.387 . S
C434 H419 0.930 . S
C434 C429 1.390 . S
C434 C433 1.387 . S
H435 C447 0.930 . S
H436 C449 0.930 . S
H437 C450 0.930 . S
H438 C454 0.959 . S
H439 C454 0.959 . S
H440 C454 0.961 1_545 S
H441 C455 0.960 . S
H442 C455 0.961 1_565 S
H443 C455 0.959 . S
H444 C458 0.929 . S
H445 C459 0.931 . S
H446 C461 0.930 . S
C447 H435 0.930 . S
C447 C448 1.399 . S
C447 C452 1.399 . S
C448 C447 1.399 . S
C448 C449 1.376 . S
C449 H436 0.930 . S
C449 C448 1.376 . S
C449 C450 1.388 . S
C450 H437 0.930 . S
C450 C449 1.388 . S
C450 C451 1.390 . S
C451 C450 1.390 . S
C451 C452 1.394 . S
C451 C457 1.465 1_545 S
C452 C447 1.399 . S
C452 C451 1.394 . S
C452 C453 1.516 1_545 S
C453 C452 1.516 1_565 S
C453 C454 1.502 . S
C453 C455 1.561 1_565 S
C453 C456 1.526 . S
C454 H438 0.959 . S
C454 H439 0.959 . S
C454 H440 0.961 1_565 S
C454 C453 1.502 . S
C455 H441 0.960 . S
C455 H442 0.961 1_545 S
C455 H443 0.959 . S
C455 C453 1.561 1_545 S
C456 C453 1.526 . S
C456 C457 1.396 . S
C456 C461 1.390 . S
C457 C451 1.465 1_565 S
C457 C456 1.396 . S
C457 C458 1.399 . S
C458 H444 0.929 . S
C458 C457 1.399 . S
C458 C459 1.385 . S
C459 H445 0.931 . S
C459 C458 1.385 . S
C459 C460 1.389 . S
C460 C459 1.389 . S
C460 C461 1.387 . S
C461 H446 0.930 . S
C461 C456 1.390 . S
C461 C460 1.387 . S
H462 C474 0.930 . S
H463 C476 0.930 . S
H464 C477 0.930 . S
H465 C481 0.959 . S
H466 C481 0.959 . S
H467 C481 0.961 . S
H468 C482 0.960 . S
H469 C482 0.961 . S
H470 C482 0.959 . S
H471 C485 0.929 . S
H472 C486 0.931 . S
H473 C488 0.930 . S
C474 H462 0.930 . S
C474 C475 1.399 . S
C474 C479 1.399 . S
C475 C474 1.399 . S
C475 C476 1.376 . S
C476 H463 0.930 . S
C476 C475 1.376 . S
C476 C477 1.388 . S
C477 H464 0.930 . S
C477 C476 1.388 . S
C477 C478 1.390 . S
C478 C477 1.390 . S
C478 C479 1.394 . S
C478 C484 1.465 . S
C479 C474 1.399 . S
C479 C478 1.394 . S
C479 C480 1.516 . S
C480 C479 1.516 . S
C480 C481 1.502 . S
C480 C482 1.561 . S
C480 C483 1.526 . S
C481 H465 0.959 . S
C481 H466 0.959 . S
C481 H467 0.961 . S
C481 C480 1.502 . S
C482 H468 0.960 . S
C482 H469 0.961 . S
C482 H470 0.959 . S
C482 C480 1.561 . S
C483 C480 1.526 . S
C483 C484 1.396 . S
C483 C488 1.390 . S
C484 C478 1.465 . S
C484 C483 1.396 . S
C484 C485 1.399 . S
C485 H471 0.929 . S
C485 C484 1.399 . S
C485 C486 1.385 . S
C486 H472 0.931 . S
C486 C485 1.385 . S
C486 C487 1.389 . S
C487 C486 1.389 . S
C487 C488 1.387 . S
C488 H473 0.930 . S
C488 C483 1.390 . S
C488 C487 1.387 . S
H489 C501 0.930 . S
H490 C503 0.930 . S
H491 C504 0.930 . S
H492 C508 0.959 . S
H493 C508 0.959 . S
H494 C508 0.982 . S
H495 C509 0.960 . S
H496 C509 0.961 . S
H497 C509 0.959 . S
H498 C512 0.929 . S
H499 C513 0.931 . S
H500 C515 0.930 . S
C501 H489 0.930 . S
C501 C502 1.399 . S
C501 C506 1.399 . S
C502 C501 1.399 . S
C502 C503 1.376 . S
C503 H490 0.930 . S
C503 C502 1.376 . S
C503 C504 1.388 . S
C504 H491 0.930 . S
C504 C503 1.388 . S
C504 C505 1.390 . S
C505 C504 1.390 . S
C505 C506 1.394 . S
C505 C511 1.465 1_455 S
C506 C501 1.399 . S
C506 C505 1.394 . S
C506 C507 1.516 1_455 S
C507 C506 1.516 1_655 S
C507 C508 1.502 . S
C507 C509 1.561 . S
C507 C510 1.526 . S
C508 H492 0.959 . S
C508 H493 0.959 . S
C508 H494 0.982 . S
C508 C507 1.502 . S
C509 H495 0.960 . S
C509 H496 0.961 . S
C509 H497 0.959 . S
C509 C507 1.561 . S
C510 C507 1.526 . S
C510 C511 1.396 . S
C510 C515 1.390 . S
C511 C505 1.465 1_655 S
C511 C510 1.396 . S
C511 C512 1.399 . S
C512 H498 0.929 . S
C512 C511 1.399 . S
C512 C513 1.385 . S
C513 H499 0.931 . S
C513 C512 1.385 . S
C513 C514 1.389 . S
C514 C513 1.389 . S
C514 C515 1.387 . S
C515 H500 0.930 . S
C515 C510 1.390 . S
C515 C514 1.387 . S
H516 C528 0.930 . S
H517 C530 0.930 . S
H518 C531 0.930 . S
H519 C535 0.959 . S
H520 C535 0.959 . S
H521 C535 0.961 1_545 S
H522 C536 0.960 . S
H523 C536 0.961 . S
H524 C536 0.959 . S
H525 C539 0.929 . S
H526 C540 0.931 . S
H527 C542 0.930 . S
C528 H516 0.930 . S
C528 C529 1.399 . S
C528 C533 1.399 . S
C529 C528 1.399 . S
C529 C530 1.376 . S
C530 H517 0.930 . S
C530 C529 1.376 . S
C530 C531 1.388 . S
C531 H518 0.930 . S
C531 C530 1.388 . S
C531 C532 1.390 . S
C532 C531 1.390 . S
C532 C533 1.394 . S
C532 C538 1.465 1_545 S
C533 C528 1.399 . S
C533 C532 1.394 . S
C533 C534 1.516 1_545 S
C534 C533 1.516 1_565 S
C534 C535 1.502 . S
C534 C536 1.561 . S
C534 C537 1.526 . S
C535 H519 0.959 . S
C535 H520 0.959 . S
C535 H521 0.961 1_565 S
C535 C534 1.502 . S
C536 H522 0.960 . S
C536 H523 0.961 . S
C536 H524 0.959 . S
C536 C534 1.561 . S
C537 C534 1.526 . S
C537 C538 1.396 . S
C537 C542 1.390 . S
C538 C532 1.465 1_565 S
C538 C537 1.396 . S
C538 C539 1.399 . S
C539 H525 0.929 . S
C539 C538 1.399 . S
C539 C540 1.385 . S
C540 H526 0.931 . S
C540 C539 1.385 . S
C540 C541 1.389 . S
C541 C540 1.389 . S
C541 C542 1.387 . S
C542 H527 0.930 . S
C542 C537 1.390 . S
C542 C541 1.387 . S
H543 C555 0.930 . S
H544 C557 0.930 . S
H545 C558 0.930 . S
H546 C562 0.959 . S
H547 C562 0.959 . S
H548 C562 0.961 . S
H549 C563 0.960 . S
H550 C563 0.961 . S
H551 C563 0.959 . S
H552 C566 0.929 . S
H553 C567 0.931 . S
H554 C569 0.930 . S
C555 H543 0.930 . S
C555 C556 1.399 . S
C555 C560 1.399 . S
C556 C555 1.399 . S
C556 C557 1.376 . S
C557 H544 0.930 . S
C557 C556 1.376 . S
C557 C558 1.388 . S
C558 H545 0.930 . S
C558 C557 1.388 . S
C558 C559 1.390 . S
C559 C558 1.390 . S
C559 C560 1.394 . S
C559 C565 1.465 . S
C560 C555 1.399 . S
C560 C559 1.394 . S
C560 C561 1.516 . S
C561 C560 1.516 . S
C561 C562 1.502 . S
C561 C563 1.561 . S
C561 C564 1.526 . S
C562 H546 0.959 . S
C562 H547 0.959 . S
C562 H548 0.961 . S
C562 C561 1.502 . S
C563 H549 0.960 . S
C563 H550 0.961 . S
C563 H551 0.959 . S
C563 C561 1.561 . S
C564 C561 1.526 . S
C564 C565 1.396 . S
C564 C569 1.390 . S
C565 C559 1.465 . S
C565 C564 1.396 . S
C565 C566 1.399 . S
C566 H552 0.929 . S
C566 C565 1.399 . S
C566 C567 1.385 . S
C567 H553 0.931 . S
C567 C566 1.385 . S
C567 C568 1.389 . S
C568 C567 1.389 . S
C568 C569 1.387 . S
C569 H554 0.930 . S
C569 C564 1.390 . S
C569 C568 1.387 . S
H570 C582 0.930 . S
H571 C584 0.930 . S
H572 C585 0.930 . S
H573 C589 0.959 . S
H574 C589 0.959 . S
H575 C589 0.961 . S
H576 C590 0.960 . S
H577 C590 0.961 . S
H578 C590 0.959 . S
H579 C593 0.929 . S
H580 C594 0.931 . S
H581 C596 0.930 . S
C582 H570 0.930 . S
C582 C583 1.399 . S
C582 C587 1.399 . S
C583 C582 1.399 . S
C583 C584 1.376 . S
C584 H571 0.930 . S
C584 C583 1.376 . S
C584 C585 1.388 . S
C585 H572 0.930 . S
C585 C584 1.388 . S
C585 C586 1.390 . S
C586 C585 1.390 . S
C586 C587 1.394 . S
C586 C592 1.465 . S
C587 C582 1.399 . S
C587 C586 1.394 . S
C587 C588 1.516 . S
C588 C587 1.516 . S
C588 C589 1.502 . S
C588 C590 1.561 . S
C588 C591 1.526 . S
C589 H573 0.959 . S
C589 H574 0.959 . S
C589 H575 0.961 . S
C589 C588 1.502 . S
C590 H576 0.960 . S
C590 H577 0.961 . S
C590 H578 0.959 . S
C590 C588 1.561 . S
C591 C588 1.526 . S
C591 C592 1.396 . S
C591 C596 1.390 . S
C592 C586 1.465 . S
C592 C591 1.396 . S
C592 C593 1.399 . S
C593 H579 0.929 . S
C593 C592 1.399 . S
C593 C594 1.385 . S
C594 H580 0.931 . S
C594 C593 1.385 . S
C594 C595 1.389 . S
C595 C594 1.389 . S
C595 C596 1.387 . S
C596 H581 0.930 . S
C596 C591 1.390 . S
C596 C595 1.387 . S
H597 C609 0.930 . S
H598 C611 0.930 . S
H599 C612 0.930 . S
H600 C616 0.959 . S
H601 C616 0.959 . S
H602 C616 0.961 . S
H603 C617 0.960 . S
H604 C617 0.961 . S
H605 C617 0.959 . S
H606 C620 0.929 . S
H607 C621 0.931 . S
H608 C623 0.930 . S
C609 H597 0.930 . S
C609 C610 1.399 . S
C609 C614 1.399 . S
C610 C609 1.399 . S
C610 C611 1.376 . S
C611 H598 0.930 . S
C611 C610 1.376 . S
C611 C612 1.388 . S
C612 H599 0.930 . S
C612 C611 1.388 . S
C612 C613 1.390 . S
C613 C612 1.390 . S
C613 C614 1.394 . S
C613 C619 1.465 . S
C614 C609 1.399 . S
C614 C613 1.394 . S
C614 C615 1.516 . S
C615 C614 1.516 . S
C615 C616 1.502 . S
C615 C617 1.561 . S
C615 C618 1.526 . S
C616 H600 0.959 . S
C616 H601 0.959 . S
C616 H602 0.961 . S
C616 C615 1.502 . S
C617 H603 0.960 . S
C617 H604 0.961 . S
C617 H605 0.959 . S
C617 C615 1.561 . S
C618 C615 1.526 . S
C618 C619 1.396 . S
C618 C623 1.390 1_556 S
C619 C613 1.465 . S
C619 C618 1.396 . S
C619 C620 1.399 . S
C620 H606 0.929 . S
C620 C619 1.399 . S
C620 C621 1.385 1_556 S
C621 H607 0.931 . S
C621 C620 1.385 1_554 S
C621 C622 1.389 . S
C622 C621 1.389 . S
C622 C623 1.387 . S
C623 H608 0.930 . S
C623 C618 1.390 1_554 S
C623 C622 1.387 . S
H624 C636 0.930 . S
H625 C638 0.930 . S
H626 C639 0.930 . S
H627 C643 0.959 . S
H628 C643 0.959 . S
H629 C643 0.961 . S
H630 C644 0.960 . S
H631 C644 0.961 . S
H632 C644 0.959 . S
H633 C647 0.929 . S
H634 C648 0.931 . S
H635 C650 0.930 . S
C636 H624 0.930 . S
C636 C637 1.399 . S
C636 C641 1.399 . S
C637 C636 1.399 . S
C637 C638 1.376 . S
C638 H625 0.930 . S
C638 C637 1.376 . S
C638 C639 1.388 . S
C639 H626 0.930 . S
C639 C638 1.388 . S
C639 C640 1.390 . S
C640 C639 1.390 . S
C640 C641 1.394 . S
C640 C646 1.465 . S
C641 C636 1.399 . S
C641 C640 1.394 . S
C641 C642 1.516 . S
C642 C641 1.516 . S
C642 C643 1.502 . S
C642 C644 1.561 . S
C642 C645 1.526 . S
C643 H627 0.959 . S
C643 H628 0.959 . S
C643 H629 0.961 . S
C643 C642 1.502 . S
C644 H630 0.960 . S
C644 H631 0.961 . S
C644 H632 0.959 . S
C644 C642 1.561 . S
C645 C642 1.526 . S
C645 C646 1.396 . S
C645 C650 1.390 . S
C646 C640 1.465 . S
C646 C645 1.396 . S
C646 C647 1.399 . S
C647 H633 0.929 . S
C647 C646 1.399 . S
C647 C648 1.385 . S
C648 H634 0.931 . S
C648 C647 1.385 . S
C648 C649 1.389 . S
C649 C648 1.389 . S
C649 C650 1.387 . S
C650 H635 0.930 . S
C650 C645 1.390 . S
C650 C649 1.387 . S
H651 C663 0.930 . S
H652 C665 0.930 . S
H653 C666 0.930 . S
H654 C670 0.959 . S
H655 C670 0.959 . S
H656 C670 0.961 . S
H657 C671 0.960 . S
H658 C671 0.961 . S
H659 C671 0.959 . S
H660 C674 0.929 . S
H661 C675 0.931 . S
H662 C677 0.930 . S
C663 H651 0.930 . S
C663 C664 1.399 . S
C663 C668 1.399 . S
C664 C663 1.399 . S
C664 C665 1.376 . S
C665 H652 0.930 . S
C665 C664 1.376 . S
C665 C666 1.388 . S
C666 H653 0.930 . S
C666 C665 1.388 . S
C666 C667 1.390 . S
C667 C666 1.390 . S
C667 C668 1.394 . S
C667 C673 1.465 . S
C668 C663 1.399 . S
C668 C667 1.394 . S
C668 C669 1.516 . S
C669 C668 1.516 . S
C669 C670 1.502 . S
C669 C671 1.561 . S
C669 C672 1.526 . S
C670 H654 0.959 . S
C670 H655 0.959 . S
C670 H656 0.961 . S
C670 C669 1.502 . S
C671 H657 0.960 . S
C671 H658 0.961 . S
C671 H659 0.959 . S
C671 C669 1.561 . S
C672 C669 1.526 . S
C672 C673 1.396 . S
C672 C677 1.390 . S
C673 C667 1.465 . S
C673 C672 1.396 . S
C673 C674 1.399 . S
C674 H660 0.929 . S
C674 C673 1.399 . S
C674 C675 1.385 . S
C675 H661 0.931 . S
C675 C674 1.385 . S
C675 C676 1.389 . S
C676 C675 1.389 . S
C676 C677 1.387 . S
C677 H662 0.930 . S
C677 C672 1.390 . S
C677 C676 1.387 . S
H678 C690 0.930 . S
H679 C692 0.930 . S
H680 C693 0.930 . S
H681 C697 0.959 . S
H682 C697 0.959 . S
H683 C697 0.961 . S
H684 C698 0.960 . S
H685 C698 0.961 . S
H686 C698 0.959 . S
H687 C701 0.929 . S
H688 C702 0.931 . S
H689 C704 0.930 . S
C690 H678 0.930 . S
C690 C691 1.399 . S
C690 C695 1.399 1_554 S
C691 C690 1.399 . S
C691 C692 1.376 . S
C692 H679 0.930 . S
C692 C691 1.376 . S
C692 C693 1.388 1_554 S
C693 H680 0.930 . S
C693 C692 1.388 1_556 S
C693 C694 1.390 . S
C694 C693 1.390 . S
C694 C695 1.394 . S
C694 C700 1.465 . S
C695 C690 1.399 1_556 S
C695 C694 1.394 . S
C695 C696 1.516 . S
C696 C695 1.516 . S
C696 C697 1.502 . S
C696 C698 1.561 . S
C696 C699 1.526 . S
C697 H681 0.959 . S
C697 H682 0.959 . S
C697 H683 0.961 . S
C697 C696 1.502 . S
C698 H684 0.960 . S
C698 H685 0.961 . S
C698 H686 0.959 . S
C698 C696 1.561 . S
C699 C696 1.526 . S
C699 C700 1.396 . S
C699 C704 1.390 . S
C700 C694 1.465 . S
C700 C699 1.396 . S
C700 C701 1.399 . S
C701 H687 0.929 . S
C701 C700 1.399 . S
C701 C702 1.385 . S
C702 H688 0.931 . S
C702 C701 1.385 . S
C702 C703 1.389 . S
C703 C702 1.389 . S
C703 C704 1.387 . S
C704 H689 0.930 . S
C704 C699 1.390 . S
C704 C703 1.387 . S
H705 C717 0.930 . S
H706 C719 0.930 . S
H707 C720 0.930 . S
H708 C724 0.959 . S
H709 C724 0.959 . S
H710 C724 0.961 . S
H711 C725 0.960 . S
H712 C725 0.961 . S
H713 C725 0.959 . S
H714 C728 0.929 . S
H715 C729 0.931 . S
H716 C731 0.930 . S
C717 H705 0.930 . S
C717 C718 1.399 . S
C717 C722 1.399 . S
C718 C717 1.399 . S
C718 C719 1.376 . S
C719 H706 0.930 . S
C719 C718 1.376 . S
C719 C720 1.388 . S
C720 H707 0.930 . S
C720 C719 1.388 . S
C720 C721 1.390 . S
C721 C720 1.390 . S
C721 C722 1.394 . S
C721 C727 1.465 . S
C722 C717 1.399 . S
C722 C721 1.394 . S
C722 C723 1.516 . S
C723 C722 1.516 . S
C723 C724 1.502 . S
C723 C725 1.561 . S
C723 C726 1.526 . S
C724 H708 0.959 . S
C724 H709 0.959 . S
C724 H710 0.961 . S
C724 C723 1.502 . S
C725 H711 0.960 . S
C725 H712 0.961 . S
C725 H713 0.959 . S
C725 C723 1.561 . S
C726 C723 1.526 . S
C726 C727 1.396 . S
C726 C731 1.390 . S
C727 C721 1.465 . S
C727 C726 1.396 . S
C727 C728 1.399 . S
C728 H714 0.929 . S
C728 C727 1.399 . S
C728 C729 1.385 . S
C729 H715 0.931 . S
C729 C728 1.385 . S
C729 C730 1.389 . S
C730 C729 1.389 . S
C730 C731 1.387 . S
C731 H716 0.930 . S
C731 C726 1.390 . S
C731 C730 1.387 . S
H732 C744 0.930 . S
H733 C746 0.930 . S
H734 C747 0.930 . S
H735 C751 0.959 . S
H736 C751 0.959 . S
H737 C751 0.961 . S
H738 C752 0.960 . S
H739 C752 0.961 . S
H740 C752 0.959 . S
H741 C755 0.929 . S
H742 C756 0.931 . S
H743 C758 0.930 . S
C744 H732 0.930 . S
C744 C745 1.399 . S
C744 C749 1.399 1_556 S
C745 C744 1.399 . S
C745 C746 1.376 . S
C746 H733 0.930 . S
C746 C745 1.376 . S
C746 C747 1.388 1_556 S
C747 H734 0.930 . S
C747 C746 1.388 1_554 S
C747 C748 1.390 . S
C748 C747 1.390 . S
C748 C749 1.394 . S
C748 C754 1.465 . S
C749 C744 1.399 1_554 S
C749 C748 1.394 . S
C749 C750 1.516 . S
C750 C749 1.516 . S
C750 C751 1.502 . S
C750 C752 1.561 . S
C750 C753 1.526 . S
C751 H735 0.959 . S
C751 H736 0.959 . S
C751 H737 0.961 . S
C751 C750 1.502 . S
C752 H738 0.960 . S
C752 H739 0.961 . S
C752 H740 0.959 . S
C752 C750 1.561 . S
C753 C750 1.526 . S
C753 C754 1.396 . S
C753 C758 1.390 . S
C754 C748 1.465 . S
C754 C753 1.396 . S
C754 C755 1.399 . S
C755 H741 0.929 . S
C755 C754 1.399 . S
C755 C756 1.385 . S
C756 H742 0.931 . S
C756 C755 1.385 . S
C756 C757 1.389 . S
C757 C756 1.389 . S
C757 C758 1.387 . S
C758 H743 0.930 . S
C758 C753 1.390 . S
C758 C757 1.387 . S
H759 C771 0.930 . S
H760 C773 0.930 . S
H761 C774 0.930 . S
H762 C778 0.959 . S
H763 C778 0.959 . S
H764 C778 0.961 . S
H765 C779 0.960 . S
H766 C779 0.961 . S
H767 C779 0.959 . S
H768 C782 0.929 . S
H769 C783 0.931 . S
H770 C785 0.930 . S
C771 H759 0.930 . S
C771 C772 1.399 . S
C771 C776 1.399 . S
C772 C771 1.399 . S
C772 C773 1.376 . S
C773 H760 0.930 . S
C773 C772 1.376 . S
C773 C774 1.388 . S
C774 H761 0.930 . S
C774 C773 1.388 . S
C774 C775 1.390 . S
C775 C774 1.390 . S
C775 C776 1.394 . S
C775 C781 1.465 . S
C776 C771 1.399 . S
C776 C775 1.394 . S
C776 C777 1.516 . S
C777 C776 1.516 . S
C777 C778 1.502 . S
C777 C779 1.561 . S
C777 C780 1.526 . S
C778 H762 0.959 . S
C778 H763 0.959 . S
C778 H764 0.961 . S
C778 C777 1.502 . S
C779 H765 0.960 . S
C779 H766 0.961 . S
C779 H767 0.959 . S
C779 C777 1.561 . S
C780 C777 1.526 . S
C780 C781 1.396 . S
C780 C785 1.390 . S
C781 C775 1.465 . S
C781 C780 1.396 . S
C781 C782 1.399 . S
C782 H768 0.929 . S
C782 C781 1.399 . S
C782 C783 1.385 . S
C783 H769 0.931 . S
C783 C782 1.385 . S
C783 C784 1.389 . S
C784 C783 1.389 . S
C784 C785 1.387 . S
C785 H770 0.930 . S
C785 C780 1.390 . S
C785 C784 1.387 . S
H786 C798 0.930 . S
H787 C800 0.930 . S
H788 C801 0.930 . S
H789 C805 0.959 . S
H790 C805 0.959 . S
H791 C805 0.961 . S
H792 C806 0.960 . S
H793 C806 0.961 . S
H794 C806 0.959 . S
H795 C809 0.929 . S
H796 C810 0.931 . S
H797 C812 0.930 . S
C798 H786 0.930 . S
C798 C799 1.399 . S
C798 C803 1.399 . S
C799 C798 1.399 . S
C799 C800 1.376 . S
C800 H787 0.930 . S
C800 C799 1.376 . S
C800 C801 1.388 . S
C801 H788 0.930 . S
C801 C800 1.388 . S
C801 C802 1.390 . S
C802 C801 1.390 . S
C802 C803 1.394 . S
C802 C808 1.465 . S
C803 C798 1.399 . S
C803 C802 1.394 . S
C803 C804 1.516 . S
C804 C803 1.516 . S
C804 C805 1.502 . S
C804 C806 1.561 . S
C804 C807 1.526 . S
C805 H789 0.959 . S
C805 H790 0.959 . S
C805 H791 0.961 . S
C805 C804 1.502 . S
C806 H792 0.960 . S
C806 H793 0.961 . S
C806 H794 0.959 . S
C806 C804 1.561 . S
C807 C804 1.526 . S
C807 C808 1.396 . S
C807 C812 1.390 . S
C808 C802 1.465 . S
C808 C807 1.396 . S
C808 C809 1.399 . S
C809 H795 0.929 . S
C809 C808 1.399 . S
C809 C810 1.385 . S
C810 H796 0.931 . S
C810 C809 1.385 . S
C810 C811 1.389 . S
C811 C810 1.389 . S
C811 C812 1.387 . S
C812 H797 0.930 . S
C812 C807 1.390 . S
C812 C811 1.387 . S
H813 C825 0.930 . S
H814 C827 0.930 . S
H815 C828 0.930 . S
H816 C832 0.959 . S
H817 C832 0.959 . S
H818 C832 0.961 . S
H819 C833 0.960 . S
H820 C833 0.961 . S
H821 C833 0.959 . S
H822 C836 0.929 . S
H823 C837 0.931 . S
H824 C839 0.930 . S
C825 H813 0.930 . S
C825 C826 1.399 . S
C825 C830 1.399 . S
C826 C825 1.399 . S
C826 C827 1.376 . S
C827 H814 0.930 . S
C827 C826 1.376 . S
C827 C828 1.388 . S
C828 H815 0.930 . S
C828 C827 1.388 . S
C828 C829 1.390 . S
C829 C828 1.390 . S
C829 C830 1.394 . S
C829 C835 1.465 . S
C830 C825 1.399 . S
C830 C829 1.394 . S
C830 C831 1.516 . S
C831 C830 1.516 . S
C831 C832 1.502 . S
C831 C833 1.561 . S
C831 C834 1.526 . S
C832 H816 0.959 . S
C832 H817 0.959 . S
C832 H818 0.961 . S
C832 C831 1.502 . S
C833 H819 0.960 . S
C833 H820 0.961 . S
C833 H821 0.959 . S
C833 C831 1.561 . S
C834 C831 1.526 . S
C834 C835 1.396 . S
C834 C839 1.390 1_554 S
C835 C829 1.465 . S
C835 C834 1.396 . S
C835 C836 1.399 . S
C836 H822 0.929 . S
C836 C835 1.399 . S
C836 C837 1.385 1_554 S
C837 H823 0.931 . S
C837 C836 1.385 1_556 S
C837 C838 1.389 . S
C838 C837 1.389 . S
C838 C839 1.387 . S
C839 H824 0.930 . S
C839 C834 1.390 1_556 S
C839 C838 1.387 . S
H840 C852 0.930 . S
H841 C854 0.930 . S
H842 C855 0.930 . S
H843 C859 0.959 . S
H844 C859 0.959 . S
H845 C859 0.961 . S
H846 C860 0.960 . S
H847 C860 0.961 . S
H848 C860 0.959 . S
H849 C863 0.929 . S
H850 C864 0.931 . S
H851 C866 0.930 . S
C852 H840 0.930 . S
C852 C853 1.399 . S
C852 C857 1.399 . S
C853 C852 1.399 . S
C853 C854 1.376 . S
C854 H841 0.930 . S
C854 C853 1.376 . S
C854 C855 1.388 . S
C855 H842 0.930 . S
C855 C854 1.388 . S
C855 C856 1.390 . S
C856 C855 1.390 . S
C856 C857 1.394 . S
C856 C862 1.465 . S
C857 C852 1.399 . S
C857 C856 1.394 . S
C857 C858 1.516 . S
C858 C857 1.516 . S
C858 C859 1.502 . S
C858 C860 1.561 . S
C858 C861 1.526 . S
C859 H843 0.959 . S
C859 H844 0.959 . S
C859 H845 0.961 . S
C859 C858 1.502 . S
C860 H846 0.960 . S
C860 H847 0.961 . S
C860 H848 0.959 . S
C860 C858 1.561 . S
C861 C858 1.526 . S
C861 C862 1.396 . S
C861 C866 1.390 . S
C862 C856 1.465 . S
C862 C861 1.396 . S
C862 C863 1.399 . S
C863 H849 0.929 . S
C863 C862 1.399 . S
C863 C864 1.385 . S
C864 H850 0.931 . S
C864 C863 1.385 . S
C864 C865 1.389 . S
C865 C864 1.389 . S
C865 C866 1.387 . S
C866 H851 0.930 . S
C866 C861 1.390 . S
C866 C865 1.387 . S
H867 C879 0.930 . S
H868 C881 0.930 . S
H869 C882 0.930 . S
H870 C886 0.959 . S
H871 C886 0.959 . S
H872 C886 0.961 . S
H873 C887 0.960 . S
H874 C887 0.961 . S
H875 C887 0.959 . S
H876 C890 0.929 . S
H877 C891 0.931 . S
H878 C893 0.930 . S
C879 H867 0.930 . S
C879 C880 1.399 . S
C879 C884 1.399 . S
C880 C879 1.399 . S
C880 C881 1.376 . S
C881 H868 0.930 . S
C881 C880 1.376 . S
C881 C882 1.388 . S
C882 H869 0.930 . S
C882 C881 1.388 . S
C882 C883 1.390 . S
C883 C882 1.390 . S
C883 C884 1.394 . S
C883 C889 1.465 . S
C884 C879 1.399 . S
C884 C883 1.394 . S
C884 C885 1.516 . S
C885 C884 1.516 . S
C885 C886 1.502 . S
C885 C887 1.561 . S
C885 C888 1.526 . S
C886 H870 0.959 . S
C886 H871 0.959 . S
C886 H872 0.961 . S
C886 C885 1.502 . S
C887 H873 0.960 . S
C887 H874 0.961 . S
C887 H875 0.959 . S
C887 C885 1.561 . S
C888 C885 1.526 . S
C888 C889 1.396 . S
C888 C893 1.390 . S
C889 C883 1.465 . S
C889 C888 1.396 . S
C889 C890 1.399 . S
C890 H876 0.929 . S
C890 C889 1.399 . S
C890 C891 1.385 . S
C891 H877 0.931 . S
C891 C890 1.385 . S
C891 C892 1.389 . S
C892 C891 1.389 . S
C892 C893 1.387 . S
C893 H878 0.930 . S
C893 C888 1.390 . S
C893 C892 1.387 . S
H894 C906 0.930 . S
H895 C908 0.930 . S
H896 C909 0.930 . S
H897 C913 0.959 . S
H898 C913 0.959 . S
H899 C913 0.961 . S
H900 C914 0.960 1_556 S
H901 C914 0.961 . S
H902 C914 0.959 . S
H903 C917 0.929 . S
H904 C918 0.931 . S
H905 C920 0.930 . S
C906 H894 0.930 . S
C906 C907 1.399 . S
C906 C911 1.399 . S
C907 C906 1.399 . S
C907 C908 1.376 . S
C908 H895 0.930 . S
C908 C907 1.376 . S
C908 C909 1.388 . S
C909 H896 0.930 . S
C909 C908 1.388 . S
C909 C910 1.390 . S
C910 C909 1.390 . S
C910 C911 1.394 . S
C910 C916 1.465 . S
C911 C906 1.399 . S
C911 C910 1.394 . S
C911 C912 1.516 . S
C912 C911 1.516 . S
C912 C913 1.502 . S
C912 C914 1.561 . S
C912 C915 1.526 . S
C913 H897 0.959 . S
C913 H898 0.959 . S
C913 H899 0.961 . S
C913 C912 1.502 . S
C914 H900 0.960 1_554 S
C914 H901 0.961 . S
C914 H902 0.959 . S
C914 C912 1.561 . S
C915 C912 1.526 . S
C915 C916 1.396 . S
C915 C920 1.390 . S
C916 C910 1.465 . S
C916 C915 1.396 . S
C916 C917 1.399 . S
C917 H903 0.929 . S
C917 C916 1.399 . S
C917 C918 1.385 . S
C918 H904 0.931 . S
C918 C917 1.385 . S
C918 C919 1.389 . S
C919 C918 1.389 . S
C919 C920 1.387 . S
C920 H905 0.930 . S
C920 C915 1.390 . S
C920 C919 1.387 . S
H921 C933 0.930 . S
H922 C935 0.930 . S
H923 C936 0.930 . S
H924 C940 0.959 . S
H925 C940 0.959 . S
H926 C940 0.961 . S
H927 C941 0.960 . S
H928 C941 0.961 . S
H929 C941 0.959 . S
H930 C944 0.929 . S
H931 C945 0.931 . S
H932 C947 0.930 . S
C933 H921 0.930 . S
C933 C934 1.399 . S
C933 C938 1.399 . S
C934 C933 1.399 . S
C934 C935 1.376 . S
C935 H922 0.930 . S
C935 C934 1.376 . S
C935 C936 1.388 . S
C936 H923 0.930 . S
C936 C935 1.388 . S
C936 C937 1.390 . S
C937 C936 1.390 . S
C937 C938 1.394 . S
C937 C943 1.465 . S
C938 C933 1.399 . S
C938 C937 1.394 . S
C938 C939 1.516 . S
C939 C938 1.516 . S
C939 C940 1.502 . S
C939 C941 1.561 . S
C939 C942 1.526 . S
C940 H924 0.959 . S
C940 H925 0.959 . S
C940 H926 0.961 . S
C940 C939 1.502 . S
C941 H927 0.960 . S
C941 H928 0.961 . S
C941 H929 0.959 . S
C941 C939 1.561 . S
C942 C939 1.526 . S
C942 C943 1.396 . S
C942 C947 1.390 . S
C943 C937 1.465 . S
C943 C942 1.396 . S
C943 C944 1.399 . S
C944 H930 0.929 . S
C944 C943 1.399 . S
C944 C945 1.385 . S
C945 H931 0.931 . S
C945 C944 1.385 . S
C945 C946 1.389 . S
C946 C945 1.389 . S
C946 C947 1.387 . S
C947 H932 0.930 . S
C947 C942 1.390 . S
C947 C946 1.387 . S
H948 C960 0.930 . S
H949 C962 0.930 . S
H950 C963 0.930 . S
H951 C967 0.959 . S
H952 C967 0.959 . S
H953 C967 0.961 . S
H954 C968 0.960 . S
H955 C968 0.961 . S
H956 C968 0.959 . S
H957 C971 0.929 . S
H958 C972 0.931 . S
H959 C974 0.930 . S
C960 H948 0.930 . S
C960 C961 1.399 . S
C960 C965 1.399 . S
C961 C960 1.399 . S
C961 C962 1.376 . S
C962 H949 0.930 . S
C962 C961 1.376 . S
C962 C963 1.388 . S
C963 H950 0.930 . S
C963 C962 1.388 . S
C963 C964 1.390 . S
C964 C963 1.390 . S
C964 C965 1.394 . S
C964 C970 1.465 . S
C965 C960 1.399 . S
C965 C964 1.394 . S
C965 C966 1.516 . S
C966 C965 1.516 . S
C966 C967 1.502 . S
C966 C968 1.561 . S
C966 C969 1.526 . S
C967 H951 0.959 . S
C967 H952 0.959 . S
C967 H953 0.961 . S
C967 C966 1.502 . S
C968 H954 0.960 . S
C968 H955 0.961 . S
C968 H956 0.959 . S
C968 C966 1.561 . S
C969 C966 1.526 . S
C969 C970 1.396 . S
C969 C974 1.390 . S
C970 C964 1.465 . S
C970 C969 1.396 . S
C970 C971 1.399 . S
C971 H957 0.929 . S
C971 C970 1.399 . S
C971 C972 1.385 . S
C972 H958 0.931 . S
C972 C971 1.385 . S
C972 C973 1.389 . S
C973 C972 1.389 . S
C973 C974 1.387 . S
C974 H959 0.930 . S
C974 C969 1.390 . S
C974 C973 1.387 . S
H975 C987 0.930 . S
H976 C989 0.930 . S
H977 C990 0.930 . S
H978 C994 0.959 . S
H979 C994 0.959 . S
H980 C994 0.961 . S
H981 C995 0.960 . S
H982 C995 0.961 . S
H983 C995 0.959 . S
H984 C998 0.929 . S
H985 C999 0.931 . S
H986 C1001 0.930 . S
C987 H975 0.930 . S
C987 C988 1.399 . S
C987 C992 1.399 . S
C988 C987 1.399 . S
C988 C989 1.376 . S
C989 H976 0.930 . S
C989 C988 1.376 . S
C989 C990 1.388 . S
C990 H977 0.930 . S
C990 C989 1.388 . S
C990 C991 1.390 . S
C991 C990 1.390 . S
C991 C992 1.394 . S
C991 C997 1.465 . S
C992 C987 1.399 . S
C992 C991 1.394 . S
C992 C993 1.516 . S
C993 C992 1.516 . S
C993 C994 1.502 . S
C993 C995 1.561 . S
C993 C996 1.526 . S
C994 H978 0.959 . S
C994 H979 0.959 . S
C994 H980 0.961 . S
C994 C993 1.502 . S
C995 H981 0.960 . S
C995 H982 0.961 . S
C995 H983 0.959 . S
C995 C993 1.561 . S
C996 C993 1.526 . S
C996 C997 1.396 . S
C996 C1001 1.390 . S
C997 C991 1.465 . S
C997 C996 1.396 . S
C997 C998 1.399 . S
C998 H984 0.929 . S
C998 C997 1.399 . S
C998 C999 1.385 . S
C999 H985 0.931 . S
C999 C998 1.385 . S
C999 C1000 1.389 . S
C1000 C999 1.389 . S
C1000 C1001 1.387 . S
C1001 H986 0.930 . S
C1001 C996 1.390 . S
C1001 C1000 1.387 . S
H1002 C1014 0.930 . S
H1003 C1016 0.930 . S
H1004 C1017 0.930 . S
H1005 C1021 0.959 . S
H1006 C1021 0.959 . S
H1007 C1021 0.961 . S
H1008 C1022 0.960 . S
H1009 C1022 0.961 . S
H1010 C1022 0.959 . S
H1011 C1025 0.929 . S
H1012 C1026 0.931 . S
H1013 C1028 0.930 . S
C1014 H1002 0.930 . S
C1014 C1015 1.399 . S
C1014 C1019 1.399 . S
C1015 C1014 1.399 . S
C1015 C1016 1.376 . S
C1016 H1003 0.930 . S
C1016 C1015 1.376 . S
C1016 C1017 1.388 . S
C1017 H1004 0.930 . S
C1017 C1016 1.388 . S
C1017 C1018 1.390 . S
C1018 C1017 1.390 . S
C1018 C1019 1.394 . S
C1018 C1024 1.465 . S
C1019 C1014 1.399 . S
C1019 C1018 1.394 . S
C1019 C1020 1.516 . S
C1020 C1019 1.516 . S
C1020 C1021 1.502 . S
C1020 C1022 1.561 . S
C1020 C1023 1.526 . S
C1021 H1005 0.959 . S
C1021 H1006 0.959 . S
C1021 H1007 0.961 . S
C1021 C1020 1.502 . S
C1022 H1008 0.960 . S
C1022 H1009 0.961 . S
C1022 H1010 0.959 . S
C1022 C1020 1.561 . S
C1023 C1020 1.526 . S
C1023 C1024 1.396 . S
C1023 C1028 1.390 . S
C1024 C1018 1.465 . S
C1024 C1023 1.396 . S
C1024 C1025 1.399 . S
C1025 H1011 0.929 . S
C1025 C1024 1.399 . S
C1025 C1026 1.385 . S
C1026 H1012 0.931 . S
C1026 C1025 1.385 . S
C1026 C1027 1.389 . S
C1027 C1026 1.389 . S
C1027 C1028 1.387 . S
C1028 H1013 0.930 . S
C1028 C1023 1.390 . S
C1028 C1027 1.387 . S
H1029 C1041 0.930 . S
H1030 C1043 0.930 . S
H1031 C1044 0.930 . S
H1032 C1048 0.959 . S
H1033 C1048 0.959 . S
H1034 C1048 0.961 . S
H1035 C1049 0.960 1_554 S
H1036 C1049 0.961 . S
H1037 C1049 0.959 . S
H1038 C1052 0.929 . S
H1039 C1053 0.931 . S
H1040 C1055 0.930 . S
C1041 H1029 0.930 . S
C1041 C1042 1.399 . S
C1041 C1046 1.399 . S
C1042 C1041 1.399 . S
C1042 C1043 1.376 . S
C1043 H1030 0.930 . S
C1043 C1042 1.376 . S
C1043 C1044 1.388 . S
C1044 H1031 0.930 . S
C1044 C1043 1.388 . S
C1044 C1045 1.390 . S
C1045 C1044 1.390 . S
C1045 C1046 1.394 . S
C1045 C1051 1.465 . S
C1046 C1041 1.399 . S
C1046 C1045 1.394 . S
C1046 C1047 1.516 . S
C1047 C1046 1.516 . S
C1047 C1048 1.502 . S
C1047 C1049 1.561 . S
C1047 C1050 1.526 . S
C1048 H1032 0.959 . S
C1048 H1033 0.959 . S
C1048 H1034 0.961 . S
C1048 C1047 1.502 . S
C1049 H1035 0.960 1_556 S
C1049 H1036 0.961 . S
C1049 H1037 0.959 . S
C1049 C1047 1.561 . S
C1050 C1047 1.526 . S
C1050 C1051 1.396 . S
C1050 C1055 1.390 . S
C1051 C1045 1.465 . S
C1051 C1050 1.396 . S
C1051 C1052 1.399 . S
C1052 H1038 0.929 . S
C1052 C1051 1.399 . S
C1052 C1053 1.385 . S
C1053 H1039 0.931 . S
C1053 C1052 1.385 . S
C1053 C1054 1.389 . S
C1054 C1053 1.389 . S
C1054 C1055 1.387 . S
C1055 H1040 0.930 . S
C1055 C1050 1.390 . S
C1055 C1054 1.387 . S
H1056 C1068 0.930 . S
H1057 C1070 0.930 . S
H1058 C1071 0.930 . S
H1059 C1075 0.959 . S
H1060 C1075 0.959 . S
H1061 C1075 0.961 . S
H1062 C1076 0.960 . S
H1063 C1076 0.961 . S
H1064 C1076 0.959 . S
H1065 C1079 0.929 . S
H1066 C1080 0.931 . S
H1067 C1082 0.930 . S
C1068 H1056 0.930 . S
C1068 C1069 1.399 . S
C1068 C1073 1.399 . S
C1069 C1068 1.399 . S
C1069 C1070 1.376 . S
C1070 H1057 0.930 . S
C1070 C1069 1.376 . S
C1070 C1071 1.388 . S
C1071 H1058 0.930 . S
C1071 C1070 1.388 . S
C1071 C1072 1.390 . S
C1072 C1071 1.390 . S
C1072 C1073 1.394 . S
C1072 C1078 1.465 . S
C1073 C1068 1.399 . S
C1073 C1072 1.394 . S
C1073 C1074 1.516 1_556 S
C1074 C1073 1.516 1_554 S
C1074 C1075 1.502 . S
C1074 C1076 1.561 1_554 S
C1074 C1077 1.526 . S
C1075 H1059 0.959 . S
C1075 H1060 0.959 . S
C1075 H1061 0.961 . S
C1075 C1074 1.502 . S
C1076 H1062 0.960 . S
C1076 H1063 0.961 . S
C1076 H1064 0.959 . S
C1076 C1074 1.561 1_556 S
C1077 C1074 1.526 . S
C1077 C1078 1.396 1_554 S
C1077 C1082 1.390 . S
C1078 C1072 1.465 . S
C1078 C1077 1.396 1_556 S
C1078 C1079 1.399 . S
C1079 H1065 0.929 . S
C1079 C1078 1.399 . S
C1079 C1080 1.385 1_556 S
C1080 H1066 0.931 . S
C1080 C1079 1.385 1_554 S
C1080 C1081 1.389 . S
C1081 C1080 1.389 . S
C1081 C1082 1.387 . S
C1082 H1067 0.930 . S
C1082 C1077 1.390 . S
C1082 C1081 1.387 . S
H1083 C1095 0.930 . S
H1084 C1097 0.930 . S
H1085 C1098 0.930 . S
H1086 C1102 0.959 . S
H1087 C1102 0.959 . S
H1088 C1102 0.961 . S
H1089 C1103 0.960 . S
H1090 C1103 0.961 . S
H1091 C1103 0.959 . S
H1092 C1106 0.929 . S
H1093 C1107 0.931 . S
H1094 C1109 0.930 . S
C1095 H1083 0.930 . S
C1095 C1096 1.399 . S
C1095 C1100 1.399 . S
C1096 C1095 1.399 . S
C1096 C1097 1.376 . S
C1097 H1084 0.930 . S
C1097 C1096 1.376 . S
C1097 C1098 1.388 . S
C1098 H1085 0.930 . S
C1098 C1097 1.388 . S
C1098 C1099 1.390 . S
C1099 C1098 1.390 . S
C1099 C1100 1.394 . S
C1099 C1105 1.465 . S
C1100 C1095 1.399 . S
C1100 C1099 1.394 . S
C1100 C1101 1.516 . S
C1101 C1100 1.516 . S
C1101 C1102 1.502 . S
C1101 C1103 1.561 . S
C1101 C1104 1.526 . S
C1102 H1086 0.959 . S
C1102 H1087 0.959 . S
C1102 H1088 0.961 . S
C1102 C1101 1.502 . S
C1103 H1089 0.960 . S
C1103 H1090 0.961 . S
C1103 H1091 0.959 . S
C1103 C1101 1.561 . S
C1104 C1101 1.526 . S
C1104 C1105 1.396 . S
C1104 C1109 1.390 . S
C1105 C1099 1.465 . S
C1105 C1104 1.396 . S
C1105 C1106 1.399 . S
C1106 H1092 0.929 . S
C1106 C1105 1.399 . S
C1106 C1107 1.385 . S
C1107 H1093 0.931 . S
C1107 C1106 1.385 . S
C1107 C1108 1.389 . S
C1108 C1107 1.389 . S
C1108 C1109 1.387 . S
C1109 H1094 0.930 . S
C1109 C1104 1.390 . S
C1109 C1108 1.387 . S
H1110 C1122 0.930 . S
H1111 C1124 0.930 . S
H1112 C1125 0.930 . S
H1113 C1129 0.959 . S
H1114 C1129 0.959 . S
H1115 C1129 0.961 . S
H1116 C1130 0.960 . S
H1117 C1130 0.961 . S
H1118 C1130 0.959 . S
H1119 C1133 0.929 . S
H1120 C1134 0.931 . S
H1121 C1136 0.930 . S
C1122 H1110 0.930 . S
C1122 C1123 1.399 . S
C1122 C1127 1.399 . S
C1123 C1122 1.399 . S
C1123 C1124 1.376 . S
C1124 H1111 0.930 . S
C1124 C1123 1.376 . S
C1124 C1125 1.388 . S
C1125 H1112 0.930 . S
C1125 C1124 1.388 . S
C1125 C1126 1.390 . S
C1126 C1125 1.390 . S
C1126 C1127 1.394 . S
C1126 C1132 1.465 . S
C1127 C1122 1.399 . S
C1127 C1126 1.394 . S
C1127 C1128 1.516 . S
C1128 C1127 1.516 . S
C1128 C1129 1.502 . S
C1128 C1130 1.561 . S
C1128 C1131 1.526 . S
C1129 H1113 0.959 . S
C1129 H1114 0.959 . S
C1129 H1115 0.961 . S
C1129 C1128 1.502 . S
C1130 H1116 0.960 . S
C1130 H1117 0.961 . S
C1130 H1118 0.959 . S
C1130 C1128 1.561 . S
C1131 C1128 1.526 . S
C1131 C1132 1.396 . S
C1131 C1136 1.390 . S
C1132 C1126 1.465 . S
C1132 C1131 1.396 . S
C1132 C1133 1.399 . S
C1133 H1119 0.929 . S
C1133 C1132 1.399 . S
C1133 C1134 1.385 . S
C1134 H1120 0.931 . S
C1134 C1133 1.385 . S
C1134 C1135 1.389 . S
C1135 C1134 1.389 . S
C1135 C1136 1.387 . S
C1136 H1121 0.930 . S
C1136 C1131 1.390 . S
C1136 C1135 1.387 . S
H1137 C1149 0.930 . S
H1138 C1151 0.930 . S
H1139 C1152 0.930 . S
H1140 C1156 0.959 . S
H1141 C1156 0.959 . S
H1142 C1156 0.961 . S
H1143 C1157 0.960 . S
H1144 C1157 0.961 . S
H1145 C1157 0.959 . S
H1146 C1160 0.929 . S
H1147 C1161 0.931 . S
H1148 C1163 0.930 . S
C1149 H1137 0.930 . S
C1149 C1150 1.399 . S
C1149 C1154 1.399 . S
C1150 C1149 1.399 . S
C1150 C1151 1.376 . S
C1151 H1138 0.930 . S
C1151 C1150 1.376 . S
C1151 C1152 1.388 . S
C1152 H1139 0.930 . S
C1152 C1151 1.388 . S
C1152 C1153 1.390 . S
C1153 C1152 1.390 . S
C1153 C1154 1.394 . S
C1153 C1159 1.465 . S
C1154 C1149 1.399 . S
C1154 C1153 1.394 . S
C1154 C1155 1.516 1_554 S
C1155 C1154 1.516 1_556 S
C1155 C1156 1.502 . S
C1155 C1157 1.561 1_556 S
C1155 C1158 1.526 . S
C1156 H1140 0.959 . S
C1156 H1141 0.959 . S
C1156 H1142 0.961 . S
C1156 C1155 1.502 . S
C1157 H1143 0.960 . S
C1157 H1144 0.961 . S
C1157 H1145 0.959 . S
C1157 C1155 1.561 1_554 S
C1158 C1155 1.526 . S
C1158 C1159 1.396 1_556 S
C1158 C1163 1.390 . S
C1159 C1153 1.465 . S
C1159 C1158 1.396 1_554 S
C1159 C1160 1.399 . S
C1160 H1146 0.929 . S
C1160 C1159 1.399 . S
C1160 C1161 1.385 1_554 S
C1161 H1147 0.931 . S
C1161 C1160 1.385 1_556 S
C1161 C1162 1.389 . S
C1162 C1161 1.389 . S
C1162 C1163 1.387 . S
C1163 H1148 0.930 . S
C1163 C1158 1.390 . S
C1163 C1162 1.387 . S
H1164 C1176 0.930 . S
H1165 C1178 0.930 . S
H1166 C1179 0.930 . S
H1167 C1183 0.959 . S
H1168 C1183 0.959 . S
H1169 C1183 0.961 . S
H1170 C1184 0.960 . S
H1171 C1184 0.961 . S
H1172 C1184 0.959 . S
H1173 C1187 0.929 . S
H1174 C1188 0.931 . S
H1175 C1190 0.930 . S
C1176 H1164 0.930 . S
C1176 C1177 1.399 . S
C1176 C1181 1.399 . S
C1177 C1176 1.399 . S
C1177 C1178 1.376 . S
C1178 H1165 0.930 . S
C1178 C1177 1.376 . S
C1178 C1179 1.388 . S
C1179 H1166 0.930 . S
C1179 C1178 1.388 . S
C1179 C1180 1.390 . S
C1180 C1179 1.390 . S
C1180 C1181 1.394 . S
C1180 C1186 1.465 . S
C1181 C1176 1.399 . S
C1181 C1180 1.394 . S
C1181 C1182 1.516 . S
C1182 C1181 1.516 . S
C1182 C1183 1.502 . S
C1182 C1184 1.561 . S
C1182 C1185 1.526 . S
C1183 H1167 0.959 . S
C1183 H1168 0.959 . S
C1183 H1169 0.961 . S
C1183 C1182 1.502 . S
C1184 H1170 0.960 . S
C1184 H1171 0.961 . S
C1184 H1172 0.959 . S
C1184 C1182 1.561 . S
C1185 C1182 1.526 . S
C1185 C1186 1.396 . S
C1185 C1190 1.390 . S
C1186 C1180 1.465 . S
C1186 C1185 1.396 . S
C1186 C1187 1.399 . S
C1187 H1173 0.929 . S
C1187 C1186 1.399 . S
C1187 C1188 1.385 . S
C1188 H1174 0.931 . S
C1188 C1187 1.385 . S
C1188 C1189 1.389 . S
C1189 C1188 1.389 . S
C1189 C1190 1.387 . S
C1190 H1175 0.930 . S
C1190 C1185 1.390 . S
C1190 C1189 1.387 . S
H1191 C1203 0.930 . S
H1192 C1205 0.930 . S
H1193 C1206 0.930 . S
H1194 C1210 0.959 . S
H1195 C1210 0.959 . S
H1196 C1210 0.961 . S
H1197 C1211 0.960 . S
H1198 C1211 0.961 . S
H1199 C1211 0.959 . S
H1200 C1214 0.929 . S
H1201 C1215 0.931 . S
H1202 C1217 0.930 . S
C1203 H1191 0.930 . S
C1203 C1204 1.399 . S
C1203 C1208 1.399 . S
C1204 C1203 1.399 . S
C1204 C1205 1.376 . S
C1205 H1192 0.930 . S
C1205 C1204 1.376 . S
C1205 C1206 1.388 . S
C1206 H1193 0.930 . S
C1206 C1205 1.388 . S
C1206 C1207 1.390 . S
C1207 C1206 1.390 . S
C1207 C1208 1.394 . S
C1207 C1213 1.465 . S
C1208 C1203 1.399 . S
C1208 C1207 1.394 . S
C1208 C1209 1.516 . S
C1209 C1208 1.516 . S
C1209 C1210 1.502 . S
C1209 C1211 1.561 . S
C1209 C1212 1.526 . S
C1210 H1194 0.959 . S
C1210 H1195 0.959 . S
C1210 H1196 0.961 . S
C1210 C1209 1.502 . S
C1211 H1197 0.960 . S
C1211 H1198 0.961 . S
C1211 H1199 0.959 . S
C1211 C1209 1.561 . S
C1212 C1209 1.526 . S
C1212 C1213 1.396 . S
C1212 C1217 1.390 . S
C1213 C1207 1.465 . S
C1213 C1212 1.396 . S
C1213 C1214 1.399 . S
C1214 H1200 0.929 . S
C1214 C1213 1.399 . S
C1214 C1215 1.385 . S
C1215 H1201 0.931 . S
C1215 C1214 1.385 . S
C1215 C1216 1.389 . S
C1216 C1215 1.389 . S
C1216 C1217 1.387 . S
C1217 H1202 0.930 . S
C1217 C1212 1.390 . S
C1217 C1216 1.387 . S
C421 C2 1.473 . S
C433 C376 1.444 . S
C448 C36 1.444 . S
C460 C206 1.469 . S
C475 C240 1.460 . S
C487 C70 1.450 . S
C502 C274 1.453 . S
C514 C104 1.484 . S
C529 C308 1.463 . S
C541 C138 1.481 . S
C556 C342 1.477 . S
C568 C172 1.444 . S
C583 C9 1.283 . S
C595 C5 1.344 . S
C610 C39 1.326 . S
C622 C43 1.285 . S
C637 C77 1.291 . S
C649 C73 1.325 1_554 S
C664 C111 1.235 . S
C676 C107 1.346 . S
C691 C145 1.318 . S
C703 C141 1.319 . S
C718 C175 1.332 1_554 S
C730 C179 1.308 . S
C745 C213 1.210 . S
C757 C209 1.362 . S
C772 C243 1.318 . S
C784 C247 1.318 . S
C799 C281 1.228 . S
C811 C277 1.361 1_556 S
C826 C311 1.323 . S
C838 C315 1.297 . S
C853 C345 1.318 . S
C865 C349 1.321 . S
C880 C383 1.240 . S
C892 C379 1.358 1_556 S
C907 C33 1.455 . S
C919 C305 1.459 . S
C934 C67 1.459 . S
C946 C339 1.464 . S
C961 C101 1.456 . S
C973 C373 1.462 . S
C988 C407 1.463 . S
C1000 C135 1.467 . S
C1015 C237 1.465 . S
C1027 C169 1.468 . S
C1042 C271 1.454 . S
C1054 C203 1.458 . S
C1069 C360 1.493 . S
C1081 C20 1.481 . S
C1096 C394 1.500 . S
C1108 C54 1.482 . S
C1123 C224 1.477 . S
C1135 C88 1.499 . S
C1150 C122 1.495 . S
C1162 C258 1.480 . S
C1177 C156 1.501 . S
C1189 C292 1.480 . S
C1204 C190 1.478 . S
C1216 C326 1.499 . S
